# Generated by pormake.
# Topology som, (6)-cn, num edge types: 1
# Building blocks:
#     Node 0, Type 0, BuildingBlock: GEDQOX_clean_sbu_0, # of connection points: 6
#     Node 1, Type 0, BuildingBlock: GEDQOX_clean_sbu_0, # of connection points: 6
#     Node 2, Type 0, BuildingBlock: GEDQOX_clean_sbu_0, # of connection points: 6
#     Node 3, Type 0, BuildingBlock: GEDQOX_clean_sbu_0, # of connection points: 6
#     Node 4, Type 0, BuildingBlock: GEDQOX_clean_sbu_0, # of connection points: 6
#     Node 5, Type 0, BuildingBlock: GEDQOX_clean_sbu_0, # of connection points: 6
#     Node 6, Type 0, BuildingBlock: GEDQOX_clean_sbu_0, # of connection points: 6
#     Node 7, Type 0, BuildingBlock: GEDQOX_clean_sbu_0, # of connection points: 6
#     Node 8, Type 0, BuildingBlock: GEDQOX_clean_sbu_0, # of connection points: 6
#     Node 9, Type 0, BuildingBlock: GEDQOX_clean_sbu_0, # of connection points: 6
#     Node 10, Type 0, BuildingBlock: GEDQOX_clean_sbu_0, # of connection points: 6
#     Node 11, Type 0, BuildingBlock: GEDQOX_clean_sbu_0, # of connection points: 6
#     Node 12, Type 0, BuildingBlock: GEDQOX_clean_sbu_0, # of connection points: 6
#     Node 13, Type 0, BuildingBlock: GEDQOX_clean_sbu_0, # of connection points: 6
#     Node 14, Type 0, BuildingBlock: GEDQOX_clean_sbu_0, # of connection points: 6
#     Node 15, Type 0, BuildingBlock: GEDQOX_clean_sbu_0, # of connection points: 6
#     Node 16, Type 0, BuildingBlock: GEDQOX_clean_sbu_0, # of connection points: 6
#     Node 17, Type 0, BuildingBlock: GEDQOX_clean_sbu_0, # of connection points: 6
#     Node 18, Type 0, BuildingBlock: GEDQOX_clean_sbu_0, # of connection points: 6
#     Node 19, Type 0, BuildingBlock: GEDQOX_clean_sbu_0, # of connection points: 6
#     Node 20, Type 0, BuildingBlock: GEDQOX_clean_sbu_0, # of connection points: 6
#     Node 21, Type 0, BuildingBlock: GEDQOX_clean_sbu_0, # of connection points: 6
#     Node 22, Type 0, BuildingBlock: GEDQOX_clean_sbu_0, # of connection points: 6
#     Node 23, Type 0, BuildingBlock: GEDQOX_clean_sbu_0, # of connection points: 6
#     Node 24, Type 0, BuildingBlock: GEDQOX_clean_sbu_0, # of connection points: 6
#     Node 25, Type 0, BuildingBlock: GEDQOX_clean_sbu_0, # of connection points: 6
#     Node 26, Type 0, BuildingBlock: GEDQOX_clean_sbu_0, # of connection points: 6
#     Node 27, Type 0, BuildingBlock: GEDQOX_clean_sbu_0, # of connection points: 6
#     Node 28, Type 0, BuildingBlock: GEDQOX_clean_sbu_0, # of connection points: 6
#     Node 29, Type 0, BuildingBlock: GEDQOX_clean_sbu_0, # of connection points: 6
#     Node 30, Type 0, BuildingBlock: GEDQOX_clean_sbu_0, # of connection points: 6
#     Node 31, Type 0, BuildingBlock: GEDQOX_clean_sbu_0, # of connection points: 6
#     Edge 32, Type (0, 0), BuildingBlock: AJUNOK_clean_linker_0, # of connection points: 2
#     Edge 33, Type (0, 0), BuildingBlock: AJUNOK_clean_linker_0, # of connection points: 2
#     Edge 34, Type (0, 0), BuildingBlock: AJUNOK_clean_linker_0, # of connection points: 2
#     Edge 35, Type (0, 0), BuildingBlock: AJUNOK_clean_linker_0, # of connection points: 2
#     Edge 36, Type (0, 0), BuildingBlock: AJUNOK_clean_linker_0, # of connection points: 2
#     Edge 37, Type (0, 0), BuildingBlock: AJUNOK_clean_linker_0, # of connection points: 2
#     Edge 38, Type (0, 0), BuildingBlock: AJUNOK_clean_linker_0, # of connection points: 2
#     Edge 39, Type (0, 0), BuildingBlock: AJUNOK_clean_linker_0, # of connection points: 2
#     Edge 40, Type (0, 0), BuildingBlock: AJUNOK_clean_linker_0, # of connection points: 2
#     Edge 41, Type (0, 0), BuildingBlock: AJUNOK_clean_linker_0, # of connection points: 2
#     Edge 42, Type (0, 0), BuildingBlock: AJUNOK_clean_linker_0, # of connection points: 2
#     Edge 43, Type (0, 0), BuildingBlock: AJUNOK_clean_linker_0, # of connection points: 2
#     Edge 44, Type (0, 0), BuildingBlock: AJUNOK_clean_linker_0, # of connection points: 2
#     Edge 45, Type (0, 0), BuildingBlock: AJUNOK_clean_linker_0, # of connection points: 2
#     Edge 46, Type (0, 0), BuildingBlock: AJUNOK_clean_linker_0, # of connection points: 2
#     Edge 47, Type (0, 0), BuildingBlock: AJUNOK_clean_linker_0, # of connection points: 2
#     Edge 48, Type (0, 0), BuildingBlock: AJUNOK_clean_linker_0, # of connection points: 2
#     Edge 49, Type (0, 0), BuildingBlock: AJUNOK_clean_linker_0, # of connection points: 2
#     Edge 50, Type (0, 0), BuildingBlock: AJUNOK_clean_linker_0, # of connection points: 2
#     Edge 51, Type (0, 0), BuildingBlock: AJUNOK_clean_linker_0, # of connection points: 2
#     Edge 52, Type (0, 0), BuildingBlock: AJUNOK_clean_linker_0, # of connection points: 2
#     Edge 53, Type (0, 0), BuildingBlock: AJUNOK_clean_linker_0, # of connection points: 2
#     Edge 54, Type (0, 0), BuildingBlock: AJUNOK_clean_linker_0, # of connection points: 2
#     Edge 55, Type (0, 0), BuildingBlock: AJUNOK_clean_linker_0, # of connection points: 2
#     Edge 56, Type (0, 0), BuildingBlock: AJUNOK_clean_linker_0, # of connection points: 2
#     Edge 57, Type (0, 0), BuildingBlock: AJUNOK_clean_linker_0, # of connection points: 2
#     Edge 58, Type (0, 0), BuildingBlock: AJUNOK_clean_linker_0, # of connection points: 2
#     Edge 59, Type (0, 0), BuildingBlock: AJUNOK_clean_linker_0, # of connection points: 2
#     Edge 60, Type (0, 0), BuildingBlock: AJUNOK_clean_linker_0, # of connection points: 2
#     Edge 61, Type (0, 0), BuildingBlock: AJUNOK_clean_linker_0, # of connection points: 2
#     Edge 62, Type (0, 0), BuildingBlock: AJUNOK_clean_linker_0, # of connection points: 2
#     Edge 63, Type (0, 0), BuildingBlock: AJUNOK_clean_linker_0, # of connection points: 2
#     Edge 64, Type (0, 0), BuildingBlock: AJUNOK_clean_linker_0, # of connection points: 2
#     Edge 65, Type (0, 0), BuildingBlock: AJUNOK_clean_linker_0, # of connection points: 2
#     Edge 66, Type (0, 0), BuildingBlock: AJUNOK_clean_linker_0, # of connection points: 2
#     Edge 67, Type (0, 0), BuildingBlock: AJUNOK_clean_linker_0, # of connection points: 2
#     Edge 68, Type (0, 0), BuildingBlock: AJUNOK_clean_linker_0, # of connection points: 2
#     Edge 69, Type (0, 0), BuildingBlock: AJUNOK_clean_linker_0, # of connection points: 2
#     Edge 70, Type (0, 0), BuildingBlock: AJUNOK_clean_linker_0, # of connection points: 2
#     Edge 71, Type (0, 0), BuildingBlock: AJUNOK_clean_linker_0, # of connection points: 2
#     Edge 72, Type (0, 0), BuildingBlock: AJUNOK_clean_linker_0, # of connection points: 2
#     Edge 73, Type (0, 0), BuildingBlock: AJUNOK_clean_linker_0, # of connection points: 2
#     Edge 74, Type (0, 0), BuildingBlock: AJUNOK_clean_linker_0, # of connection points: 2
#     Edge 75, Type (0, 0), BuildingBlock: AJUNOK_clean_linker_0, # of connection points: 2
#     Edge 76, Type (0, 0), BuildingBlock: AJUNOK_clean_linker_0, # of connection points: 2
#     Edge 77, Type (0, 0), BuildingBlock: AJUNOK_clean_linker_0, # of connection points: 2
#     Edge 78, Type (0, 0), BuildingBlock: AJUNOK_clean_linker_0, # of connection points: 2
#     Edge 79, Type (0, 0), BuildingBlock: AJUNOK_clean_linker_0, # of connection points: 2
#     Edge 80, Type (0, 0), BuildingBlock: AJUNOK_clean_linker_0, # of connection points: 2
#     Edge 81, Type (0, 0), BuildingBlock: AJUNOK_clean_linker_0, # of connection points: 2
#     Edge 82, Type (0, 0), BuildingBlock: AJUNOK_clean_linker_0, # of connection points: 2
#     Edge 83, Type (0, 0), BuildingBlock: AJUNOK_clean_linker_0, # of connection points: 2
#     Edge 84, Type (0, 0), BuildingBlock: AJUNOK_clean_linker_0, # of connection points: 2
#     Edge 85, Type (0, 0), BuildingBlock: AJUNOK_clean_linker_0, # of connection points: 2
#     Edge 86, Type (0, 0), BuildingBlock: AJUNOK_clean_linker_0, # of connection points: 2
#     Edge 87, Type (0, 0), BuildingBlock: AJUNOK_clean_linker_0, # of connection points: 2
#     Edge 88, Type (0, 0), BuildingBlock: AJUNOK_clean_linker_0, # of connection points: 2
#     Edge 89, Type (0, 0), BuildingBlock: AJUNOK_clean_linker_0, # of connection points: 2
#     Edge 90, Type (0, 0), BuildingBlock: AJUNOK_clean_linker_0, # of connection points: 2
#     Edge 91, Type (0, 0), BuildingBlock: AJUNOK_clean_linker_0, # of connection points: 2
#     Edge 92, Type (0, 0), BuildingBlock: AJUNOK_clean_linker_0, # of connection points: 2
#     Edge 93, Type (0, 0), BuildingBlock: AJUNOK_clean_linker_0, # of connection points: 2
#     Edge 94, Type (0, 0), BuildingBlock: AJUNOK_clean_linker_0, # of connection points: 2
#     Edge 95, Type (0, 0), BuildingBlock: AJUNOK_clean_linker_0, # of connection points: 2
#     Edge 96, Type (0, 0), BuildingBlock: AJUNOK_clean_linker_0, # of connection points: 2
#     Edge 97, Type (0, 0), BuildingBlock: AJUNOK_clean_linker_0, # of connection points: 2
#     Edge 98, Type (0, 0), BuildingBlock: AJUNOK_clean_linker_0, # of connection points: 2
#     Edge 99, Type (0, 0), BuildingBlock: AJUNOK_clean_linker_0, # of connection points: 2
#     Edge 100, Type (0, 0), BuildingBlock: AJUNOK_clean_linker_0, # of connection points: 2
#     Edge 101, Type (0, 0), BuildingBlock: AJUNOK_clean_linker_0, # of connection points: 2
#     Edge 102, Type (0, 0), BuildingBlock: AJUNOK_clean_linker_0, # of connection points: 2
#     Edge 103, Type (0, 0), BuildingBlock: AJUNOK_clean_linker_0, # of connection points: 2
#     Edge 104, Type (0, 0), BuildingBlock: AJUNOK_clean_linker_0, # of connection points: 2
#     Edge 105, Type (0, 0), BuildingBlock: AJUNOK_clean_linker_0, # of connection points: 2
#     Edge 106, Type (0, 0), BuildingBlock: AJUNOK_clean_linker_0, # of connection points: 2
#     Edge 107, Type (0, 0), BuildingBlock: AJUNOK_clean_linker_0, # of connection points: 2
#     Edge 108, Type (0, 0), BuildingBlock: AJUNOK_clean_linker_0, # of connection points: 2
#     Edge 109, Type (0, 0), BuildingBlock: AJUNOK_clean_linker_0, # of connection points: 2
#     Edge 110, Type (0, 0), BuildingBlock: AJUNOK_clean_linker_0, # of connection points: 2
#     Edge 111, Type (0, 0), BuildingBlock: AJUNOK_clean_linker_0, # of connection points: 2
#     Edge 112, Type (0, 0), BuildingBlock: AJUNOK_clean_linker_0, # of connection points: 2
#     Edge 113, Type (0, 0), BuildingBlock: AJUNOK_clean_linker_0, # of connection points: 2
#     Edge 114, Type (0, 0), BuildingBlock: AJUNOK_clean_linker_0, # of connection points: 2
#     Edge 115, Type (0, 0), BuildingBlock: AJUNOK_clean_linker_0, # of connection points: 2
#     Edge 116, Type (0, 0), BuildingBlock: AJUNOK_clean_linker_0, # of connection points: 2
#     Edge 117, Type (0, 0), BuildingBlock: AJUNOK_clean_linker_0, # of connection points: 2
#     Edge 118, Type (0, 0), BuildingBlock: AJUNOK_clean_linker_0, # of connection points: 2
#     Edge 119, Type (0, 0), BuildingBlock: AJUNOK_clean_linker_0, # of connection points: 2
#     Edge 120, Type (0, 0), BuildingBlock: AJUNOK_clean_linker_0, # of connection points: 2
#     Edge 121, Type (0, 0), BuildingBlock: AJUNOK_clean_linker_0, # of connection points: 2
#     Edge 122, Type (0, 0), BuildingBlock: AJUNOK_clean_linker_0, # of connection points: 2
#     Edge 123, Type (0, 0), BuildingBlock: AJUNOK_clean_linker_0, # of connection points: 2
#     Edge 124, Type (0, 0), BuildingBlock: AJUNOK_clean_linker_0, # of connection points: 2
#     Edge 125, Type (0, 0), BuildingBlock: AJUNOK_clean_linker_0, # of connection points: 2
#     Edge 126, Type (0, 0), BuildingBlock: AJUNOK_clean_linker_0, # of connection points: 2
#     Edge 127, Type (0, 0), BuildingBlock: AJUNOK_clean_linker_0, # of connection points: 2
# Relax obj value: 0.195
# Max RMSD: 0.211
# Mean RMSD: 0.211
data_MOF--net-som--node1-GEDQOX_clean_sbu_0--edge1-AJUNOK_clean_linker_0
_symmetry_space_group_name_H-M    P1
_symmetry_Int_Tables_number       1
_symmetry_cell_setting            triclinic
loop_
_symmetry_equiv_pos_as_xyz
'x, y, z'
_cell_length_a     11.510988
_cell_length_b     88.627595
_cell_length_c     84.474587
_cell_angle_alpha  90.012384
_cell_angle_beta   89.960021
_cell_angle_gamma 89.985328
loop_
_atom_site_label
_atom_site_type_symbol
_atom_site_fract_x
_atom_site_fract_y
_atom_site_fract_z
_atom_type_partial_charge
Nd0 Nd 0.10217 0.50106 0.07581 0.0
Nd1 Nd 0.08814 0.53403 0.07734 0.0
C2 C 0.09409 0.47137 0.07159 0.0
C3 C 1.03875 0.45627 0.07275 0.0
C4 C 0.99696 0.44909 0.05906 0.0
C5 C 0.96701 0.43376 0.05933 0.0
C6 C 0.97942 0.42524 0.07326 0.0
C7 C 1.01541 0.43261 0.08716 0.0
C8 C 1.04511 0.44792 0.0869 0.0
C9 C 0.14418 0.51306 0.10544 0.0
C10 C 0.8473 0.51706 0.07887 0.0
C11 C 0.09627 0.56324 0.08346 0.0
C12 C 0.14521 0.57847 0.08166 0.0
C13 C 0.16746 0.5868 0.09542 0.0
C14 C 0.18914 0.60224 0.09455 0.0
C15 C 0.18894 0.60963 0.07987 0.0
C16 C 0.17445 0.60116 0.06595 0.0
C17 C 0.15201 0.58566 0.06683 0.0
C18 C 0.06043 0.52324 0.04713 0.0
C19 C 0.34381 0.5182 0.07316 0.0
O20 O 0.06153 0.48099 0.06071 0.0
O21 O 0.13005 0.47787 0.08454 0.0
O22 O 0.20349 0.50233 0.09899 0.0
O23 O 0.06099 0.51687 0.09652 0.0
O24 O 0.9049 0.50527 0.07347 0.0
O25 O 0.90296 0.52878 0.08457 0.0
O26 O 0.15044 0.55324 0.09212 0.0
O27 O 1.03901 0.55743 0.07161 0.0
O28 O 1.00134 0.53421 0.05317 0.0
O29 O 0.13527 0.51839 0.0568 0.0
O30 O 0.28569 0.53009 0.07825 0.0
O31 O 0.28909 0.5059 0.06861 0.0
H32 H 0.99252 0.45513 0.04793 0.0
H33 H 0.93931 0.42841 0.04843 0.0
H34 H 1.02322 0.42644 0.09817 0.0
H35 H 0.07769 0.45302 0.09767 0.0
H36 H 0.16172 0.58151 0.10697 0.0
H37 H 0.20153 0.60854 0.10541 0.0
H38 H 0.17413 0.60667 0.0545 0.0
H39 H 0.13449 0.57949 0.05602 0.0
Nd40 Nd 0.25766 0.78578 0.07655 0.0
Nd41 Nd 0.26846 0.7527 0.07524 0.0
C42 C 0.26841 0.81557 0.07399 0.0
C43 C 0.32662 0.83045 0.07501 0.0
C44 C 0.39008 0.83634 0.06218 0.0
C45 C 0.4258 0.85147 0.0622 0.0
C46 C 0.39714 0.86097 0.07493 0.0
C47 C 0.33699 0.85501 0.08792 0.0
C48 C 0.30263 0.83989 0.088 0.0
C49 C 0.20598 0.77197 0.105 0.0
C50 C 0.51384 0.76895 0.07752 0.0
C51 C 0.24715 0.72323 0.07705 0.0
C52 C 0.23545 0.7067 0.07755 0.0
C53 C 0.22598 0.6991 0.09206 0.0
C54 C 0.21655 0.68338 0.09241 0.0
C55 C 0.21668 0.67502 0.07826 0.0
C56 C 0.22677 0.68264 0.06377 0.0
C57 C 0.23563 0.69834 0.06341 0.0
C58 C 0.30944 0.76633 0.04668 0.0
C59 C 1.01563 0.76941 0.07296 0.0
O60 O 0.29008 0.80644 0.06216 0.0
O61 O 0.24243 0.80853 0.08709 0.0
O62 O 0.15006 0.78328 0.09907 0.0
O63 O 0.28997 0.76842 0.09605 0.0
O64 O 0.45592 0.78166 0.07537 0.0
O65 O 0.46036 0.75604 0.0798 0.0
O66 O 0.27428 0.73142 0.08941 0.0
O67 O 0.22968 0.73078 0.064 0.0
O68 O 0.37067 0.75528 0.05221 0.0
O69 O 0.22902 0.76992 0.05613 0.0
O70 O 0.07225 0.75729 0.0777 0.0
O71 O 0.07084 0.78184 0.06907 0.0
H72 H 0.40823 0.82946 0.05187 0.0
H73 H 0.47153 0.85591 0.052 0.0
H74 H 0.31419 0.86216 0.09785 0.0
H75 H 0.25246 0.83578 0.09796 0.0
H76 H 0.22594 0.70528 0.10312 0.0
H77 H 0.21068 0.67775 0.10376 0.0
H78 H 0.22677 0.67646 0.05271 0.0
H79 H 0.24349 0.70393 0.05205 0.0
Nd80 Nd 0.09537 0.78602 0.20265 0.0
Nd81 Nd 0.09113 0.75023 0.19756 0.0
C82 C 0.07212 0.81431 0.21232 0.0
C83 C 1.03412 0.8296 0.2075 0.0
C84 C 0.939 0.83621 0.21524 0.0
C85 C 0.91109 0.85135 0.21272 0.0
C86 C 0.97807 0.8603 0.20245 0.0
C87 C 0.07072 0.85355 0.1942 0.0
C88 C 0.09838 0.83833 0.19667 0.0
C89 C 0.14038 0.77709 0.17222 0.0
C90 C 0.84376 0.76837 0.19855 0.0
C91 C 0.09455 0.72246 0.18613 0.0
C92 C 0.12542 0.70658 0.18921 0.0
C93 C 0.14622 0.6972 0.17619 0.0
C94 C 0.16562 0.6818 0.17827 0.0
C95 C 0.16644 0.67538 0.1935 0.0
C96 C 0.14625 0.68481 0.20664 0.0
C97 C 0.12596 0.70033 0.20452 0.0
C98 C 0.09376 0.75743 0.22965 0.0
C99 C 0.33728 0.76767 0.20292 0.0
O100 O 0.99223 0.80401 0.21442 0.0
O101 O 0.16768 0.80892 0.20614 0.0
O102 O 0.17448 0.78964 0.17848 0.0
O103 O 0.06763 0.77055 0.18122 0.0
O104 O 0.89899 0.78091 0.2025 0.0
O105 O 0.8992 0.75597 0.19426 0.0
O106 O 0.17889 0.73214 0.18374 0.0
O107 O 1.00694 0.7281 0.19405 0.0
O108 O 0.0883 0.7437 0.22446 0.0
O109 O 0.09804 0.76602 0.21797 0.0
O110 O 0.28302 0.75662 0.19547 0.0
O111 O 0.28015 0.77888 0.20983 0.0
H112 H 0.8885 0.8298 0.22373 0.0
H113 H 0.83874 0.85619 0.21917 0.0
H114 H 0.12539 0.86018 0.18642 0.0
H115 H 0.17276 0.83361 0.19057 0.0
H116 H 0.14444 0.70176 0.16429 0.0
H117 H 0.17708 0.67484 0.16785 0.0
H118 H 0.14599 0.6802 0.21851 0.0
H119 H 0.10916 0.70736 0.21475 0.0
Nd120 Nd 0.26801 0.4994 0.20281 0.0
Nd121 Nd 0.27359 0.53516 0.19783 0.0
C122 C 0.28912 0.47108 0.21246 0.0
C123 C 0.33266 0.45584 0.20856 0.0
C124 C 0.38268 0.4473 0.22073 0.0
C125 C 0.40936 0.4321 0.2184 0.0
C126 C 0.38713 0.42508 0.2038 0.0
C127 C 0.34224 0.43379 0.19129 0.0
C128 C 0.31474 0.44908 0.19367 0.0
C129 C 0.222 0.50841 0.17245 0.0
C130 C 0.5201 0.51676 0.19781 0.0
C131 C 0.26404 0.56293 0.18653 0.0
C132 C 0.23257 0.57869 0.19019 0.0
C133 C 0.18883 0.58767 0.17792 0.0
C134 C 0.17291 0.60314 0.18012 0.0
C135 C 0.19967 0.60992 0.19468 0.0
C136 C 0.23772 0.60085 0.20729 0.0
C137 C 0.25453 0.58529 0.20505 0.0
C138 C 0.26977 0.52789 0.22997 0.0
C139 C 1.02727 0.51769 0.20239 0.0
O140 O 0.36463 0.48159 0.21598 0.0
O141 O 0.19983 0.47615 0.20454 0.0
O142 O 0.18595 0.49601 0.17883 0.0
O143 O 0.2958 0.51489 0.18136 0.0
O144 O 0.46467 0.50421 0.20171 0.0
O145 O 0.4649 0.52937 0.19418 0.0
O146 O 0.17963 0.55317 0.18473 0.0
O147 O 0.35576 0.55731 0.19355 0.0
O148 O 0.27519 0.54164 0.22483 0.0
O149 O 0.26561 0.51942 0.21816 0.0
O150 O 0.08392 0.52841 0.19481 0.0
O151 O 0.08309 0.50673 0.20989 0.0
H152 H 0.39699 0.45226 0.23229 0.0
H153 H 0.44474 0.42569 0.22819 0.0
H154 H 0.3237 0.42862 0.17995 0.0
H155 H 0.27597 0.45543 0.18408 0.0
H156 H 0.17137 0.58281 0.1664 0.0
H157 H 0.14347 0.60995 0.17025 0.0
H158 H 0.25939 0.6059 0.21859 0.0
H159 H 0.2883 0.57856 0.21471 0.0
Nd160 Nd 1.0335 0.50325 0.94932 0.0
Nd161 Nd 1.02093 0.53629 0.95012 0.0
C162 C 1.02364 0.47414 0.94278 0.0
C163 C 0.97482 0.45888 0.9444 0.0
C164 C 0.94564 0.45102 0.93057 0.0
C165 C 0.92441 0.43555 0.93107 0.0
C166 C 0.93269 0.42765 0.94542 0.0
C167 C 0.95395 0.43567 0.95947 0.0
C168 C 0.97542 0.4512 0.95897 0.0
C169 C 0.06923 0.51426 0.97929 0.0
C170 C 0.7778 0.51943 0.95386 0.0
C171 C 1.02635 0.56611 0.95187 0.0
C172 C 0.08401 0.58099 0.95175 0.0
C173 C 0.11519 0.58812 0.96598 0.0
C174 C 0.14709 0.60335 0.96605 0.0
C175 C 0.148 0.61172 0.95191 0.0
C176 C 0.12107 0.60443 0.93764 0.0
C177 C 0.08942 0.58924 0.93755 0.0
C178 C 0.96956 0.52368 0.92137 0.0
C179 C 0.27546 0.52032 0.94786 0.0
O180 O 0.969 0.48429 0.93436 0.0
O181 O 0.08211 0.47976 0.95461 0.0
O182 O 0.12203 0.50271 0.97336 0.0
O183 O 0.99367 0.51935 0.9698 0.0
O184 O 0.83482 0.50705 0.94989 0.0
O185 O 0.83264 0.53212 0.95695 0.0
O186 O 1.03145 0.55743 0.96437 0.0
O187 O 1.02024 0.5586 0.93862 0.0
O188 O 0.90802 0.53398 0.92817 0.0
O189 O 1.0564 0.52007 0.92972 0.0
O190 O 0.21775 0.53227 0.95281 0.0
O191 O 0.22076 0.5083 0.94265 0.0
H192 H 0.94552 0.45669 0.9192 0.0
H193 H 0.90602 0.42964 0.92013 0.0
H194 H 0.96036 0.4298 0.97069 0.0
H195 H 0.99823 0.45699 0.96982 0.0
H196 H 0.10971 0.58215 0.97714 0.0
H197 H 0.16557 0.60874 0.97728 0.0
H198 H 0.12155 0.6106 0.92656 0.0
H199 H 0.06399 0.58417 0.92641 0.0
Nd200 Nd 0.84493 0.28496 0.94986 0.0
Nd201 Nd 0.84641 0.24967 0.95079 0.0
C202 C 0.87351 0.31413 0.94695 0.0
C203 C 0.88973 0.33057 0.94637 0.0
C204 C 0.88314 0.33839 0.93197 0.0
C205 C 0.89329 0.3541 0.93169 0.0
C206 C 0.90956 0.36221 0.94583 0.0
C207 C 0.91646 0.35435 0.96021 0.0
C208 C 0.90709 0.33867 0.96047 0.0
C209 C 0.79665 0.27262 0.97894 0.0
C210 C 0.09443 0.2669 0.9508 0.0
C211 C 0.83034 0.22144 0.96056 0.0
C212 C 0.78916 0.20607 0.95699 0.0
C213 C 0.74641 0.1974 0.96955 0.0
C214 C 0.71872 0.18224 0.96732 0.0
C215 C 0.73251 0.17544 0.95243 0.0
C216 C 0.77054 0.18427 0.9396 0.0
C217 C 0.7992 0.19952 0.94187 0.0
C218 C 0.86879 0.25854 0.91964 0.0
C219 C 0.59737 0.26801 0.94707 0.0
O220 O 0.8224 0.30621 0.93581 0.0
O221 O 0.91177 0.3064 0.95907 0.0
O222 O 0.74633 0.28449 0.97327 0.0
O223 O 0.87283 0.26773 0.96941 0.0
O224 O 1.03902 0.27943 0.94702 0.0
O225 O 1.03993 0.25436 0.95483 0.0
O226 O 0.75211 0.23171 0.96383 0.0
O227 O 0.91929 0.22665 0.95258 0.0
O228 O 0.86296 0.24461 0.92419 0.0
O229 O 0.85746 0.2671 0.93143 0.0
O230 O 0.65108 0.2553 0.95068 0.0
O231 O 0.65314 0.28077 0.94431 0.0
H232 H 0.86928 0.33238 0.92096 0.0
H233 H 0.88621 0.35994 0.92047 0.0
H234 H 0.92938 0.36035 0.97125 0.0
H235 H 0.91156 0.33291 0.97176 0.0
H236 H 0.7379 0.20225 0.98128 0.0
H237 H 0.68869 0.17571 0.97736 0.0
H238 H 0.78232 0.17924 0.92802 0.0
H239 H 0.83197 0.20604 0.93199 0.0
Nd240 Nd 1.03663 0.28466 0.82633 0.0
Nd241 Nd 1.01907 0.25179 0.82445 0.0
C242 C 1.03442 0.31393 0.83232 0.0
C243 C 0.98993 0.32941 0.83086 0.0
C244 C 0.997 0.33877 0.84416 0.0
C245 C 0.97597 0.3542 0.84284 0.0
C246 C 0.94672 0.3606 0.82815 0.0
C247 C 0.93411 0.35107 0.81492 0.0
C248 C 0.95638 0.33557 0.81624 0.0
C249 C 1.05872 0.27386 0.79589 0.0
C250 C 0.77957 0.26921 0.82226 0.0
C251 C 1.02403 0.22218 0.81973 0.0
C252 C 0.07935 0.20711 0.82075 0.0
C253 C 0.09971 0.19903 0.80673 0.0
C254 C 0.1311 0.1838 0.80723 0.0
C255 C 0.14368 0.17628 0.82179 0.0
C256 C 0.1267 0.18448 0.83586 0.0
C257 C 0.09479 0.19974 0.83536 0.0
C258 C 0.981 0.26336 0.85422 0.0
C259 C 0.27564 0.26726 0.82742 0.0
O260 O 0.98074 0.30415 0.84131 0.0
O261 O 0.08603 0.30792 0.8201 0.0
O262 O 0.12381 0.28423 0.80194 0.0
O263 O 0.98419 0.26941 0.80578 0.0
O264 O 0.83781 0.28084 0.828 0.0
O265 O 0.83475 0.25724 0.81695 0.0
O266 O 1.05882 0.2319 0.80908 0.0
O267 O 0.98708 0.22853 0.83273 0.0
O268 O 0.91981 0.25282 0.84777 0.0
O269 O 0.06393 0.26723 0.84528 0.0
O270 O 0.21569 0.25584 0.82168 0.0
O271 O 0.22204 0.27901 0.83345 0.0
H272 H 1.02417 0.33424 0.85549 0.0
H273 H 0.98715 0.3612 0.85323 0.0
H274 H 0.90881 0.35561 0.80354 0.0
H275 H 0.95074 0.32853 0.80579 0.0
H276 H 0.086 0.20432 0.79532 0.0
H277 H 0.14057 0.17777 0.79616 0.0
H278 H 0.13609 0.17902 0.84726 0.0
H279 H 0.07836 0.20558 0.8464 0.0
Nd280 Nd 0.83365 0.50198 0.82684 0.0
Nd281 Nd 0.84918 0.53508 0.82553 0.0
C282 C 0.84307 0.47295 0.83402 0.0
C283 C 0.88297 0.45747 0.83075 0.0
C284 C 0.92749 0.449 0.84336 0.0
C285 C 0.94484 0.4335 0.84178 0.0
C286 C 0.91811 0.42616 0.82751 0.0
C287 C 0.87931 0.43475 0.81456 0.0
C288 C 0.8616 0.45031 0.81617 0.0
C289 C 0.80165 0.51254 0.79657 0.0
C290 C 0.09012 0.51797 0.82209 0.0
C291 C 0.84297 0.56497 0.82411 0.0
C292 C 0.7841 0.57982 0.82381 0.0
C293 C 0.74997 0.58649 0.80946 0.0
C294 C 0.71669 0.60168 0.809 0.0
C295 C 0.71817 0.61054 0.82283 0.0
C296 C 0.74629 0.60366 0.83728 0.0
C297 C 0.77929 0.58849 0.83776 0.0
C298 C 0.89721 0.52266 0.85454 0.0
C299 C 0.59492 0.51958 0.82769 0.0
O300 O 0.91617 0.48282 0.83977 0.0
O301 O 0.76542 0.47884 0.82462 0.0
O302 O 0.75214 0.50067 0.80228 0.0
O303 O 0.87545 0.51779 0.80618 0.0
O304 O 1.03275 0.50596 0.82712 0.0
O305 O 1.03459 0.53035 0.81799 0.0
O306 O 0.84571 0.55641 0.8115 0.0
O307 O 0.84242 0.55732 0.83729 0.0
O308 O 0.96149 0.5326 0.84762 0.0
O309 O 0.81079 0.51916 0.84608 0.0
O310 O 0.65513 0.53076 0.82154 0.0
O311 O 0.64876 0.50807 0.83422 0.0
H312 H 0.94355 0.45426 0.85474 0.0
H313 H 0.97573 0.42716 0.85189 0.0
H314 H 0.85706 0.42933 0.80347 0.0
H315 H 0.82636 0.45658 0.80627 0.0
H316 H 0.75347 0.58017 0.7985 0.0
H317 H 0.69308 0.60663 0.79773 0.0
H318 H 0.7485 0.6102 0.84811 0.0
H319 H 0.80676 0.58376 0.84897 0.0
Nd320 Nd 0.10114 1.00045 0.57531 0.0
Nd321 Nd 0.08789 0.0335 0.57718 0.0
C322 C 0.09357 0.97084 0.57123 0.0
C323 C 1.0341 0.95606 0.57165 0.0
C324 C 1.01667 0.94814 0.55746 0.0
C325 C 0.98474 0.93293 0.55772 0.0
C326 C 0.96963 0.92533 0.57217 0.0
C327 C 0.98176 0.93343 0.58637 0.0
C328 C 1.01368 0.94864 0.58612 0.0
C329 C 0.15257 1.01177 0.60467 0.0
C330 C 0.84713 1.01633 0.57896 0.0
C331 C 0.09812 0.06264 0.58382 0.0
C332 C 0.13845 0.07808 0.58043 0.0
C333 C 0.18512 0.0865 0.59293 0.0
C334 C 0.20187 0.102 0.59137 0.0
C335 C 0.17243 0.10941 0.57724 0.0
C336 C 0.13192 0.10087 0.56435 0.0
C337 C 0.11469 0.08529 0.56594 0.0
C338 C 1.05892 0.02279 0.54684 0.0
C339 C 0.34388 1.01754 0.57281 0.0
O340 O 0.07349 0.98038 0.55972 0.0
O341 O 0.11735 0.97739 0.58467 0.0
O342 O 0.21047 1.0013 0.59757 0.0
O343 O 0.06663 1.0161 0.59645 0.0
O344 O 0.90411 1.00464 0.57326 0.0
O345 O 0.90323 0.02799 0.58475 0.0
O346 O 0.17017 0.05281 0.58989 0.0
O347 O 1.02114 0.05665 0.5744 0.0
O348 O 1.00541 0.03436 0.55257 0.0
O349 O 0.13317 1.01794 0.55653 0.0
O350 O 0.28606 0.02954 0.57771 0.0
O351 O 0.28907 1.00517 0.56844 0.0
H352 H 1.03328 0.9535 0.54616 0.0
H353 H 0.97523 0.92696 0.5466 0.0
H354 H 0.97238 0.92781 0.59769 0.0
H355 H 1.02804 0.95434 0.59729 0.0
H356 H 0.20298 0.08121 0.60424 0.0
H357 H 0.23407 0.10832 0.60143 0.0
H358 H 0.10779 0.10635 0.55337 0.0
H359 H 0.07773 0.07906 0.55613 0.0
Nd360 Nd 0.27434 0.28676 0.57354 0.0
Nd361 Nd 0.27144 0.24933 0.57598 0.0
C362 C 0.2803 0.31492 0.56339 0.0
C363 C 0.32528 0.33021 0.56661 0.0
C364 C 0.35882 0.33913 0.55371 0.0
C365 C 0.3881 0.35427 0.55585 0.0
C366 C 0.38551 0.3608 0.57098 0.0
C367 C 0.35692 0.35173 0.58408 0.0
C368 C 0.32647 0.33652 0.58191 0.0
C369 C 0.26664 0.27667 0.60452 0.0
C370 C 0.52096 0.26835 0.57629 0.0
C371 C 0.27258 0.22173 0.58761 0.0
C372 C 0.2432 0.20588 0.58466 0.0
C373 C 0.25169 0.1958 0.59732 0.0
C374 C 0.23307 0.18044 0.59499 0.0
C375 C 0.2047 0.17481 0.57992 0.0
C376 C 0.19353 0.18503 0.56723 0.0
C377 C 0.21324 0.20049 0.56957 0.0
C378 C 0.27575 0.25866 0.54479 0.0
C379 C 1.02533 0.26799 0.57301 0.0
O380 O 0.35441 0.30462 0.55865 0.0
O381 O 0.19905 0.30966 0.57277 0.0
O382 O 0.27277 0.29087 0.60079 0.0
O383 O 0.27165 0.26905 0.59206 0.0
O384 O 0.46869 0.28135 0.57337 0.0
O385 O 0.46489 0.25555 0.57914 0.0
O386 O 0.1869 0.23122 0.58996 0.0
O387 O 0.35863 0.2274 0.57939 0.0
O388 O 0.27098 0.24459 0.54912 0.0
O389 O 0.2726 0.26686 0.55702 0.0
O390 O 0.07751 0.25508 0.57649 0.0
O391 O 0.08133 0.28073 0.56983 0.0
H392 H 0.35866 0.33449 0.54184 0.0
H393 H 0.41074 0.361 0.54559 0.0
H394 H 0.35387 0.35655 0.59586 0.0
H395 H 0.30087 0.32986 0.59208 0.0
H396 H 0.2752 0.19979 0.60902 0.0
H397 H 0.24342 0.17291 0.60499 0.0
H398 H 0.16938 0.18109 0.55555 0.0
H399 H 0.20622 0.20818 0.55965 0.0
Nd400 Nd 0.10072 0.28579 0.69946 0.0
Nd401 Nd 0.08568 0.25307 0.69797 0.0
C402 C 0.09445 0.31543 0.70361 0.0
C403 C 1.03583 0.33028 0.70295 0.0
C404 C 1.01461 0.33818 0.71706 0.0
C405 C 0.98192 0.35337 0.7167 0.0
C406 C 0.97004 0.361 0.70221 0.0
C407 C 0.9869 0.35295 0.68806 0.0
C408 C 1.01931 0.33774 0.68842 0.0
C409 C 0.15719 0.27449 0.67021 0.0
C410 C 0.8448 0.2699 0.69577 0.0
C411 C 0.08723 0.22355 0.69377 0.0
C412 C 0.13105 0.20797 0.69343 0.0
C413 C 0.11173 0.1993 0.67981 0.0
C414 C 0.13151 0.18378 0.67997 0.0
C415 C 0.17179 0.17663 0.69375 0.0
C416 C 0.19467 0.18539 0.70727 0.0
C417 C 0.17441 0.20095 0.70712 0.0
C418 C 1.04818 0.2646 0.72781 0.0
C419 C 0.34138 0.26847 0.70227 0.0
O420 O 0.07032 0.30587 0.71495 0.0
O421 O 0.12157 0.30888 0.69028 0.0
O422 O 0.21387 0.28489 0.67758 0.0
O423 O 0.06981 0.27013 0.67818 0.0
O424 O 0.90231 0.2818 0.70092 0.0
O425 O 0.90057 0.25793 0.69072 0.0
O426 O 0.10828 0.23297 0.6822 0.0
O427 O 0.07039 0.23004 0.70743 0.0
O428 O 0.98301 0.25455 0.72117 0.0
O429 O 0.12883 0.26863 0.71862 0.0
O430 O 0.28314 0.25678 0.69676 0.0
O431 O 0.2865 0.28068 0.7071 0.0
H432 H 1.02838 0.3328 0.72843 0.0
H433 H 0.96886 0.35927 0.72779 0.0
H434 H 0.9805 0.35857 0.67671 0.0
H435 H 1.03678 0.33208 0.67731 0.0
H436 H 0.07588 0.20443 0.66924 0.0
H437 H 0.11042 0.17729 0.66949 0.0
H438 H 0.22603 0.18016 0.71804 0.0
H439 H 0.18872 0.20735 0.71787 0.0
Nd440 Nd 0.26405 0.99835 0.70104 0.0
Nd441 Nd 0.26933 0.03398 0.70095 0.0
C442 C 0.27184 0.96999 0.71053 0.0
C443 C 0.31775 0.95465 0.70798 0.0
C444 C 0.34422 0.94596 0.72132 0.0
C445 C 0.37579 0.93084 0.71975 0.0
C446 C 0.38346 0.92408 0.70473 0.0
C447 C 0.35889 0.93289 0.69126 0.0
C448 C 0.32625 0.94808 0.69286 0.0
C449 C 0.25425 1.0086 0.67022 0.0
C450 C 0.51374 1.01672 0.69778 0.0
C451 C 0.24066 0.06315 0.69839 0.0
C452 C 0.22602 0.07956 0.69763 0.0
C453 C 0.19258 0.08651 0.68346 0.0
C454 C 0.18005 0.10217 0.68276 0.0
C455 C 0.20357 0.11113 0.69612 0.0
C456 C 0.23535 0.10406 0.71037 0.0
C457 C 0.24586 0.08839 0.71113 0.0
C458 C 0.3123 0.02021 0.72944 0.0
C459 C 1.01896 1.01618 0.70088 0.0
O460 O 0.34321 0.98036 0.71582 0.0
O461 O 0.19439 0.97514 0.70053 0.0
O462 O 0.25696 0.99441 0.67388 0.0
O463 O 0.26153 1.01636 0.68257 0.0
O464 O 0.45951 1.00411 0.70183 0.0
O465 O 0.45755 0.02931 0.6944 0.0
O466 O 0.28321 0.0551 0.6867 0.0
O467 O 0.21315 0.05565 0.71121 0.0
O468 O 0.36882 0.03186 0.72428 0.0
O469 O 0.23453 1.01633 0.71971 0.0
O470 O 0.07692 0.02853 0.69715 0.0
O471 O 0.07161 1.00352 0.70493 0.0
H472 H 0.33682 0.95076 0.73308 0.0
H473 H 0.39063 0.92433 0.7304 0.0
H474 H 0.36417 0.92801 0.67953 0.0
H475 H 0.30572 0.95458 0.68237 0.0
H476 H 0.17522 0.07983 0.67298 0.0
H477 H 0.15173 0.10724 0.67176 0.0
H478 H 0.25429 0.11066 0.72085 0.0
H479 H 0.27177 0.08321 0.72219 0.0
Nd480 Nd 1.02985 1.00222 0.45017 0.0
Nd481 Nd 1.02714 0.036 0.45054 0.0
C482 C 0.99533 0.97301 0.44895 0.0
C483 C 0.97599 0.95666 0.44824 0.0
C484 C 0.96689 0.94949 0.43351 0.0
C485 C 0.94941 0.93395 0.43267 0.0
C486 C 0.9428 0.92526 0.44655 0.0
C487 C 0.94828 0.9325 0.46132 0.0
C488 C 0.96463 0.94812 0.46216 0.0
C489 C 0.07645 1.01507 0.47908 0.0
C490 C 0.77927 0.01918 0.44904 0.0
C491 C 1.03768 0.0644 0.46018 0.0
C492 C 0.07966 0.07973 0.45602 0.0
C493 C 0.1723 0.08605 0.46454 0.0
C494 C 0.20284 0.10119 0.46248 0.0
C495 C 0.14102 0.11046 0.45192 0.0
C496 C 1.05062 0.10402 0.44298 0.0
C497 C 1.02043 0.08881 0.44497 0.0
C498 C 1.01424 0.0288 0.41909 0.0
C499 C 0.27647 0.01827 0.44615 0.0
O500 O 1.0489 0.98037 0.43765 0.0
O501 O 0.96105 0.98119 0.46096 0.0
O502 O 0.13399 1.00387 0.4732 0.0
O503 O 0.99686 0.01908 0.46975 0.0
O504 O 0.83694 1.00673 0.44596 0.0
O505 O 0.83224 0.03177 0.45304 0.0
O506 O 0.11483 0.05419 0.46413 0.0
O507 O 0.95043 0.05884 0.45215 0.0
O508 O 1.0253 0.04221 0.42486 0.0
O509 O 1.0189 0.0188 0.42985 0.0
O510 O 0.22297 0.0308 0.45043 0.0
O511 O 0.21967 1.00563 0.44346 0.0
H512 H 0.97299 0.95592 0.42263 0.0
H513 H 0.94229 0.92869 0.42113 0.0
H514 H 0.94325 0.92605 0.47218 0.0
H515 H 0.97064 0.95346 0.47367 0.0
H516 H 0.21888 0.07942 0.47324 0.0
H517 H 0.27335 0.10576 0.46948 0.0
H518 H 0.99955 0.11087 0.43497 0.0
H519 H 0.9478 0.08436 0.4383 0.0
Nd520 Nd 0.83936 0.78525 0.44716 0.0
Nd521 Nd 0.84654 0.74955 0.45165 0.0
C522 C 0.84117 0.8128 0.43528 0.0
C523 C 0.87172 0.82867 0.43807 0.0
C524 C 0.8908 0.83789 0.4249 0.0
C525 C 0.90868 0.85334 0.42677 0.0
C526 C 0.90937 0.85988 0.44193 0.0
C527 C 0.89217 0.85056 0.45522 0.0
C528 C 0.87346 0.83503 0.45331 0.0
C529 C 0.84012 0.77773 0.4792 0.0
C530 C 0.08678 0.76795 0.45227 0.0
C531 C 0.82959 0.72125 0.46124 0.0
C532 C 0.78215 0.70615 0.45791 0.0
C533 C 0.73893 0.69768 0.47061 0.0
C534 C 0.71119 0.68248 0.46862 0.0
C535 C 0.72573 0.67545 0.45385 0.0
C536 C 0.7636 0.68411 0.44089 0.0
C537 C 0.79182 0.69937 0.4429 0.0
C538 C 0.89421 0.7594 0.4216 0.0
C539 C 0.59288 0.76651 0.44694 0.0
O540 O 0.92595 0.80316 0.43303 0.0
O541 O 0.75427 0.80727 0.44343 0.0
O542 O 0.83717 0.79154 0.47411 0.0
O543 O 0.84628 0.76928 0.46738 0.0
O544 O 1.03291 0.77925 0.44518 0.0
O545 O 1.02894 0.7569 0.4593 0.0
O546 O 0.7583 0.73184 0.46597 0.0
O547 O 0.91229 0.7262 0.452 0.0
O548 O 0.93459 0.74708 0.42771 0.0
O549 O 0.81776 0.7652 0.43056 0.0
O550 O 0.65002 0.75385 0.44984 0.0
O551 O 0.64638 0.77947 0.44425 0.0
H552 H 0.88845 0.8332 0.41305 0.0
H553 H 0.91844 0.86023 0.41627 0.0
H554 H 0.89243 0.85529 0.46704 0.0
H555 H 0.85836 0.82807 0.46365 0.0
H556 H 0.73118 0.70268 0.48227 0.0
H557 H 0.68114 0.67609 0.47875 0.0
H558 H 0.77636 0.67893 0.4294 0.0
H559 H 0.82534 0.70568 0.43291 0.0
Nd560 Nd 1.03166 0.78429 0.32649 0.0
Nd561 Nd 1.01512 0.75148 0.32535 0.0
C562 C 1.02418 0.81359 0.33236 0.0
C563 C 0.97785 0.82898 0.33041 0.0
C564 C 0.94689 0.83703 0.34405 0.0
C565 C 0.9277 0.85254 0.34334 0.0
C566 C 0.9392 0.8603 0.32895 0.0
C567 C 0.96239 0.85214 0.31505 0.0
C568 C 0.98232 0.83656 0.31578 0.0
C569 C 1.05946 0.77314 0.29626 0.0
C570 C 0.77528 0.76851 0.32226 0.0
C571 C 1.02214 0.72173 0.32186 0.0
C572 C 0.08117 0.70689 0.32281 0.0
C573 C 0.10286 0.69886 0.3088 0.0
C574 C 0.13603 0.68369 0.30933 0.0
C575 C 0.14836 0.6762 0.32389 0.0
C576 C 0.13177 0.68439 0.33796 0.0
C577 C 0.09823 0.69959 0.33744 0.0
C578 C 0.97226 0.76367 0.35475 0.0
C579 C 0.27102 0.76698 0.32825 0.0
O580 O 0.96732 0.8037 0.34085 0.0
O581 O 0.0836 0.80762 0.32079 0.0
O582 O 0.11998 0.78403 0.30221 0.0
O583 O 0.98413 0.7686 0.30603 0.0
O584 O 0.83267 0.78041 0.32754 0.0
O585 O 0.8315 0.75645 0.31745 0.0
O586 O 1.04766 0.73111 0.31042 0.0
O587 O 0.9928 0.72849 0.33498 0.0
O588 O 0.90905 0.75344 0.34812 0.0
O589 O 1.05704 0.76726 0.34597 0.0
O590 O 0.21113 0.75552 0.32264 0.0
O591 O 0.21717 0.77891 0.33387 0.0
H592 H 0.94396 0.83146 0.35547 0.0
H593 H 0.90868 0.85861 0.35417 0.0
H594 H 0.97157 0.85794 0.30383 0.0
H595 H 1.00679 0.83064 0.30506 0.0
H596 H 0.08892 0.7041 0.29737 0.0
H597 H 0.14901 0.67769 0.2983 0.0
H598 H 0.13922 0.67887 0.34935 0.0
H599 H 0.08062 0.70538 0.34847 0.0
Nd600 Nd 0.84202 1.00014 0.3272 0.0
Nd601 Nd 0.84245 0.03694 0.3219 0.0
C602 C 0.84574 0.97278 0.33946 0.0
C603 C 0.87113 0.95681 0.33645 0.0
C604 C 0.88751 0.94737 0.34951 0.0
C605 C 0.90549 0.93196 0.34742 0.0
C606 C 0.90925 0.92567 0.33214 0.0
C607 C 0.89361 0.93519 0.31898 0.0
C608 C 0.87478 0.95071 0.32111 0.0
C609 C 0.83718 1.00799 0.29521 0.0
C610 C 0.08846 1.01818 0.32349 0.0
C611 C 0.8328 0.0646 0.31051 0.0
C612 C 0.79582 0.07996 0.31501 0.0
C613 C 0.7354 0.08856 0.30383 0.0
C614 C 0.709 0.10364 0.30685 0.0
C615 C 0.74219 0.11046 0.32116 0.0
C616 C 0.79781 0.10167 0.33276 0.0
C617 C 0.82465 0.08649 0.3297 0.0
C618 C 0.85764 0.03005 0.35382 0.0
C619 C 0.59629 0.01889 0.32661 0.0
O620 O 0.93416 0.98205 0.34024 0.0
O621 O 0.75414 0.97857 0.33255 0.0
O622 O 0.83785 0.99412 0.30019 0.0
O623 O 0.84288 1.01632 0.30715 0.0
O624 O 1.03282 1.00641 0.32936 0.0
O625 O 1.03356 0.03008 0.31751 0.0
O626 O 0.75055 0.05461 0.3082 0.0
O627 O 0.92518 0.05904 0.31747 0.0
O628 O 0.84885 0.04357 0.34808 0.0
O629 O 0.84704 0.02081 0.34256 0.0
O630 O 0.64935 0.03086 0.32071 0.0
O631 O 0.65368 1.00711 0.33225 0.0
H632 H 0.88409 0.9519 0.36143 0.0
H633 H 0.91377 0.92491 0.35782 0.0
H634 H 0.896 0.93065 0.30708 0.0
H635 H 0.86206 0.95787 0.31087 0.0
H636 H 0.71162 0.08373 0.29251 0.0
H637 H 0.66503 0.11013 0.29778 0.0
H638 H 0.82473 0.1067 0.34386 0.0
H639 H 0.8706 0.08002 0.3386 0.0
Nd640 Nd 0.60963 0.50052 0.57396 0.0
Nd641 Nd 0.59068 0.53323 0.57634 0.0
C642 C 0.60201 0.47095 0.56903 0.0
C643 C 0.54369 0.45615 0.5708 0.0
C644 C 0.51505 0.44795 0.55715 0.0
C645 C 0.48121 0.43284 0.5582 0.0
C646 C 0.47548 0.42552 0.57296 0.0
C647 C 0.4985 0.43395 0.58672 0.0
C648 C 0.53275 0.44909 0.58566 0.0
C649 C 0.65712 0.51124 0.60373 0.0
C650 C 0.35226 0.51583 0.57804 0.0
C651 C 0.59487 0.56267 0.58187 0.0
C652 C 0.64242 0.57805 0.57985 0.0
C653 C 0.69266 0.5853 0.59293 0.0
C654 C 0.71381 0.60081 0.59261 0.0
C655 C 0.68444 0.60941 0.57923 0.0
C656 C 0.64138 0.60205 0.56575 0.0
C657 C 0.61996 0.5865 0.56606 0.0
C658 C 0.55998 0.5224 0.54604 0.0
C659 C 0.84814 0.51812 0.57139 0.0
O660 O 0.56264 0.48077 0.55879 0.0
O661 O 0.64658 0.47721 0.58161 0.0
O662 O 0.7163 0.501 0.59646 0.0
O663 O 0.57158 0.51562 0.59545 0.0
O664 O 0.41227 0.50449 0.57214 0.0
O665 O 0.40611 0.52758 0.58405 0.0
O666 O 0.64839 0.55288 0.59087 0.0
O667 O 0.53987 0.55647 0.57005 0.0
O668 O 0.4955 0.53258 0.55254 0.0
O669 O 0.63918 0.51822 0.55535 0.0
O670 O 0.78972 0.52958 0.57746 0.0
O671 O 0.79277 0.50624 0.56585 0.0
H672 H 0.52408 0.45303 0.54554 0.0
H673 H 0.46436 0.42669 0.54736 0.0
H674 H 0.49202 0.42877 0.5983 0.0
H675 H 0.5545 0.45507 0.59644 0.0
H676 H 0.70977 0.57913 0.60376 0.0
H677 H 0.74869 0.60621 0.60309 0.0
H678 H 0.61802 0.60845 0.5553 0.0
H679 H 0.58015 0.58129 0.55582 0.0
Nd680 Nd 0.76493 0.78573 0.57336 0.0
Nd681 Nd 0.77289 0.75019 0.57634 0.0
C682 C 0.77604 0.81493 0.56705 0.0
C683 C 0.83393 0.82966 0.56894 0.0
C684 C 0.85959 0.83806 0.55534 0.0
C685 C 0.89125 0.85322 0.55654 0.0
C686 C 0.8974 0.8603 0.5714 0.0
C687 C 0.87878 0.85163 0.58511 0.0
C688 C 0.84692 0.83644 0.5839 0.0
C689 C 0.71081 0.77453 0.60269 0.0
C690 C 1.01864 0.76877 0.577 0.0
C691 C 0.77397 0.72249 0.58785 0.0
C692 C 0.74771 0.70641 0.58575 0.0
C693 C 0.75599 0.69704 0.59902 0.0
C694 C 0.74063 0.68151 0.59758 0.0
C695 C 0.71439 0.67499 0.58284 0.0
C696 C 0.7055 0.68445 0.56948 0.0
C697 C 0.72227 0.70008 0.57091 0.0
C698 C 0.77108 0.75844 0.54454 0.0
C699 C 0.5248 0.76745 0.57141 0.0
O700 O 0.82247 0.8047 0.55784 0.0
O701 O 0.72288 0.80927 0.57934 0.0
O702 O 0.66289 0.78617 0.59623 0.0
O703 O 0.79219 0.76941 0.59404 0.0
O704 O 0.96274 0.78158 0.57436 0.0
O705 O 0.96367 0.75598 0.5797 0.0
O706 O 0.6874 0.73187 0.59001 0.0
O707 O 0.85926 0.72814 0.57949 0.0
O708 O 0.77478 0.74452 0.54925 0.0
O709 O 0.76703 0.76672 0.55654 0.0
O710 O 0.58016 0.7561 0.57818 0.0
O711 O 0.58133 0.77911 0.56532 0.0
H712 H 0.84916 0.83312 0.54369 0.0
H713 H 0.90519 0.85961 0.54577 0.0
H714 H 0.8858 0.85669 0.59674 0.0
H715 H 0.82784 0.83022 0.59463 0.0
H716 H 0.77719 0.70173 0.61051 0.0
H717 H 0.75214 0.67458 0.60802 0.0
H718 H 0.68562 0.67976 0.55795 0.0
H719 H 0.7166 0.70716 0.56049 0.0
Nd720 Nd 0.60571 0.7841 0.69931 0.0
Nd721 Nd 0.58944 0.75116 0.69835 0.0
C722 C 0.59812 0.81384 0.70271 0.0
C723 C 0.53744 0.82858 0.70226 0.0
C724 C 0.51028 0.83595 0.7165 0.0
C725 C 0.47708 0.85113 0.71649 0.0
C726 C 0.47116 0.85928 0.70224 0.0
C727 C 0.49136 0.8517 0.68791 0.0
C728 C 0.52476 0.83651 0.68791 0.0
C729 C 0.64554 0.77158 0.66989 0.0
C730 C 0.35129 0.7686 0.69604 0.0
C731 C 0.59797 0.72198 0.69207 0.0
C732 C 0.63605 0.70658 0.69596 0.0
C733 C 0.69061 0.69813 0.68407 0.0
C734 C 0.70602 0.68263 0.68588 0.0
C735 C 0.6672 0.6753 0.69963 0.0
C736 C 0.61879 0.68387 0.71197 0.0
C737 C 0.60304 0.69943 0.71014 0.0
C738 C 0.56415 0.76239 0.72851 0.0
C739 C 0.84668 0.76699 0.70131 0.0
O740 O 0.58 0.80448 0.71444 0.0
O741 O 0.62057 0.80704 0.68935 0.0
O742 O 0.70744 0.78219 0.67609 0.0
O743 O 0.56254 0.76807 0.67895 0.0
O744 O 0.40901 0.77994 0.70235 0.0
O745 O 0.40786 0.75711 0.68998 0.0
O746 O 0.67332 0.73159 0.68637 0.0
O747 O 0.51834 0.72822 0.70093 0.0
O748 O 0.50932 0.75079 0.72309 0.0
O749 O 0.63796 0.76702 0.7186 0.0
O750 O 0.7869 0.75515 0.69647 0.0
O751 O 0.79326 0.7793 0.70612 0.0
H752 H 0.52024 0.83022 0.72774 0.0
H753 H 0.45998 0.85665 0.72769 0.0
H754 H 0.48741 0.85774 0.67677 0.0
H755 H 0.54628 0.83124 0.67672 0.0
H756 H 0.7158 0.70337 0.673 0.0
H757 H 0.74437 0.67626 0.67625 0.0
H758 H 0.58739 0.67843 0.72262 0.0
H759 H 0.56001 0.7057 0.71947 0.0
Nd760 Nd 0.762 0.50124 0.70057 0.0
Nd761 Nd 0.77837 0.53426 0.69872 0.0
C762 C 0.76835 0.47167 0.70525 0.0
C763 C 0.82584 0.45679 0.70403 0.0
C764 C 0.84509 0.44846 0.7179 0.0
C765 C 0.87668 0.43325 0.7171 0.0
C766 C 0.88917 0.42601 0.70239 0.0
C767 C 0.87631 0.43458 0.68848 0.0
C768 C 0.84444 0.4498 0.68928 0.0
C769 C 0.72487 0.51296 0.67085 0.0
C770 C 1.01714 0.51678 0.69676 0.0
C771 C 0.77454 0.56329 0.69176 0.0
C772 C 0.73451 0.57883 0.69392 0.0
C773 C 0.74796 0.58872 0.68118 0.0
C774 C 0.72759 0.60408 0.68308 0.0
C775 C 0.692 0.60989 0.69779 0.0
C776 C 0.67412 0.59984 0.71048 0.0
C777 C 0.69625 0.58438 0.7086 0.0
C778 C 0.80194 0.52367 0.72911 0.0
C779 C 0.52158 0.51863 0.70222 0.0
O780 O 0.80272 0.4814 0.71591 0.0
O781 O 0.7305 0.478 0.6923 0.0
O782 O 0.66302 0.5024 0.67713 0.0
O783 O 0.80696 0.51678 0.67989 0.0
O784 O 0.95949 0.50535 0.70295 0.0
O785 O 0.96078 0.52831 0.69079 0.0
O786 O 0.70708 0.55349 0.68474 0.0
O787 O 0.84072 0.55746 0.7027 0.0
O788 O 0.85919 0.53492 0.72335 0.0
O789 O 0.72853 0.5188 0.71927 0.0
O790 O 0.58121 0.53032 0.69697 0.0
O791 O 0.57526 0.50653 0.70753 0.0
H792 H 0.83005 0.45351 0.7294 0.0
H793 H 0.88597 0.42697 0.72803 0.0
H794 H 0.8883 0.42942 0.67697 0.0
H795 H 0.83007 0.4559 0.67835 0.0
H796 H 0.77877 0.58462 0.66983 0.0
H797 H 0.74345 0.61147 0.67311 0.0
H798 H 0.64408 0.60391 0.72186 0.0
H799 H 0.68592 0.57686 0.71861 0.0
Nd800 Nd 0.53282 0.50326 0.44726 0.0
Nd801 Nd 0.51576 0.53553 0.44999 0.0
C802 C 0.52438 0.47406 0.44076 0.0
C803 C 0.48383 0.45874 0.44481 0.0
C804 C 0.40123 0.45174 0.43507 0.0
C805 C 0.38049 0.43628 0.43633 0.0
C806 C 0.44339 0.42748 0.44718 0.0
C807 C 0.51991 0.43463 0.45771 0.0
C808 C 0.54025 0.45014 0.45652 0.0
C809 C 0.55938 0.51302 0.47808 0.0
C810 C 0.27493 0.51833 0.45224 0.0
C811 C 0.52235 0.56512 0.45445 0.0
C812 C 0.58143 0.5799 0.45375 0.0
C813 C 0.58767 0.58863 0.46755 0.0
C814 C 0.62053 0.60378 0.46682 0.0
C815 C 0.64763 0.61056 0.45222 0.0
C816 C 0.64718 0.60161 0.43848 0.0
C817 C 0.61394 0.58643 0.43921 0.0
C818 C 0.46172 0.52521 0.42025 0.0
C819 C 0.77087 0.52031 0.44541 0.0
O820 O 0.45055 0.4838 0.43496 0.0
O821 O 0.60372 0.48024 0.44966 0.0
O822 O 0.62283 0.50278 0.47152 0.0
O823 O 0.48363 0.51778 0.46857 0.0
O824 O 0.33433 0.50683 0.44648 0.0
O825 O 0.32942 0.53042 0.45744 0.0
O826 O 0.54745 0.55547 0.46567 0.0
O827 O 0.4939 0.5587 0.44113 0.0
O828 O 0.40313 0.5351 0.4281 0.0
O829 O 0.54974 0.52078 0.42802 0.0
O830 O 0.71325 0.53142 0.45216 0.0
O831 O 0.71395 0.5092 0.43873 0.0
H832 H 0.35693 0.45805 0.4259 0.0
H833 H 0.31862 0.4311 0.42834 0.0
H834 H 0.56903 0.42811 0.46624 0.0
H835 H 0.6048 0.4552 0.46419 0.0
H836 H 0.56155 0.58394 0.47885 0.0
H837 H 0.61971 0.61037 0.47762 0.0
H838 H 0.67038 0.6064 0.42712 0.0
H839 H 0.60957 0.58001 0.42832 0.0
Nd840 Nd 0.34745 0.28703 0.44789 0.0
Nd841 Nd 0.34805 0.24974 0.45065 0.0
C842 C 0.35461 0.31492 0.43717 0.0
C843 C 0.38103 0.33067 0.44154 0.0
C844 C 0.47694 0.33782 0.43457 0.0
C845 C 0.49456 0.35327 0.4366 0.0
C846 C 0.41538 0.36193 0.44542 0.0
C847 C 0.32294 0.35464 0.45313 0.0
C848 C 0.30575 0.33913 0.45121 0.0
C849 C 0.34408 0.27771 0.47928 0.0
C850 C 0.59377 0.26851 0.45046 0.0
C851 C 0.33497 0.22147 0.46044 0.0
C852 C 0.29468 0.20608 0.45631 0.0
C853 C 0.2056 0.19953 0.46534 0.0
C854 C 0.17511 0.18442 0.46322 0.0
C855 C 0.23338 0.17539 0.45207 0.0
C856 C 0.31999 0.18207 0.4426 0.0
C857 C 0.35027 0.19728 0.44468 0.0
C858 C 0.35653 0.25941 0.41942 0.0
C859 C 0.10162 0.26822 0.44748 0.0
O860 O 0.44224 0.30553 0.43597 0.0
O861 O 0.26041 0.30874 0.44304 0.0
O862 O 0.34425 0.29179 0.47501 0.0
O863 O 0.34847 0.2697 0.46698 0.0
O864 O 0.53821 0.28064 0.44542 0.0
O865 O 0.53906 0.25619 0.45547 0.0
O866 O 0.25518 0.23162 0.46349 0.0
O867 O 0.42615 0.22699 0.45313 0.0
O868 O 0.35048 0.24531 0.42348 0.0
O869 O 0.35112 0.26727 0.43172 0.0
O870 O 0.15492 0.25583 0.45235 0.0
O871 O 0.1586 0.28039 0.44274 0.0
H872 H 0.53633 0.33156 0.42708 0.0
H873 H 0.56856 0.35851 0.43089 0.0
H874 H 0.26088 0.36104 0.46006 0.0
H875 H 0.23109 0.33393 0.45679 0.0
H876 H 0.16178 0.206 0.47446 0.0
H877 H 0.10746 0.17967 0.47062 0.0
H878 H 0.36802 0.1754 0.43408 0.0
H879 H 0.41977 0.20197 0.43757 0.0
Nd880 Nd 0.53198 0.28497 0.32724 0.0
Nd881 Nd 0.52714 0.2494 0.3243 0.0
C882 C 0.52447 0.31308 0.3375 0.0
C883 C 0.48816 0.32868 0.33391 0.0
C884 C 0.43004 0.33682 0.34573 0.0
C885 C 0.41131 0.35228 0.34404 0.0
C886 C 0.45023 0.35989 0.33048 0.0
C887 C 0.50172 0.35163 0.31814 0.0
C888 C 0.5211 0.33609 0.31986 0.0
C889 C 0.52952 0.27645 0.29537 0.0
C890 C 0.28601 0.26755 0.32259 0.0
C891 C 0.54827 0.22096 0.31526 0.0
C892 C 0.58314 0.20531 0.3183 0.0
C893 C 0.5756 0.19518 0.30568 0.0
C894 C 0.60603 0.18012 0.30769 0.0
C895 C 0.64592 0.17481 0.32239 0.0
C896 C 0.65348 0.18501 0.33517 0.0
C897 C 0.62199 0.20022 0.33313 0.0
C898 C 0.47499 0.25978 0.35398 0.0
C899 C 0.77974 0.26674 0.32794 0.0
O900 O 0.44342 0.30316 0.34071 0.0
O901 O 0.61233 0.30747 0.32958 0.0
O902 O 0.53055 0.29039 0.30003 0.0
O903 O 0.52663 0.26832 0.30747 0.0
O904 O 0.33926 0.27899 0.32945 0.0
O905 O 0.34483 0.25633 0.31602 0.0
O906 O 0.62957 0.23104 0.31313 0.0
O907 O 0.45641 0.2262 0.32248 0.0
O908 O 0.43873 0.24719 0.34803 0.0
O909 O 0.55189 0.26573 0.34513 0.0
O910 O 0.72271 0.25404 0.32543 0.0
O911 O 0.72592 0.27972 0.33036 0.0
H912 H 0.40391 0.33134 0.35663 0.0
H913 H 0.37063 0.35843 0.35365 0.0
H914 H 0.53242 0.35732 0.30759 0.0
H915 H 0.56589 0.33005 0.31053 0.0
H916 H 0.54544 0.19892 0.29418 0.0
H917 H 0.59763 0.17258 0.29767 0.0
H918 H 0.68543 0.18132 0.34658 0.0
H919 H 0.62843 0.20796 0.34302 0.0
Nd920 Nd 0.34684 0.49996 0.3267 0.0
Nd921 Nd 0.34898 0.53751 0.32308 0.0
C922 C 0.34552 0.47246 0.33856 0.0
C923 C 0.37166 0.45644 0.33605 0.0
C924 C 0.36497 0.44684 0.34913 0.0
C925 C 0.38393 0.43141 0.34742 0.0
C926 C 0.41206 0.42524 0.33257 0.0
C927 C 0.41847 0.43491 0.31935 0.0
C928 C 0.39844 0.45045 0.32108 0.0
C929 C 0.34029 0.50905 0.2953 0.0
C930 C 0.59427 0.51831 0.32397 0.0
C931 C 0.34524 0.56552 0.31245 0.0
C932 C 0.30316 0.58092 0.31589 0.0
C933 C 0.272 0.59014 0.30313 0.0
C934 C 0.242 0.60522 0.30557 0.0
C935 C 0.2418 0.61147 0.32088 0.0
C936 C 0.26916 0.60204 0.33379 0.0
C937 C 0.30009 0.58689 0.33131 0.0
C938 C 0.35561 0.52805 0.35432 0.0
C939 C 0.10204 0.51942 0.32726 0.0
O940 O 0.43326 0.48175 0.34026 0.0
O941 O 0.25793 0.47821 0.33071 0.0
O942 O 0.3409 0.49499 0.29971 0.0
O943 O 0.34873 0.51713 0.30748 0.0
O944 O 0.53875 0.50601 0.32865 0.0
O945 O 0.53992 0.53062 0.31887 0.0
O946 O 0.26804 0.55538 0.30832 0.0
O947 O 0.42849 0.56014 0.32141 0.0
O948 O 0.35082 0.54217 0.35029 0.0
O949 O 0.34974 0.52022 0.34203 0.0
O950 O 0.155 0.53175 0.3221 0.0
O951 O 0.15905 0.50721 0.33197 0.0
H952 H 0.3432 0.45126 0.36072 0.0
H953 H 0.37457 0.42427 0.35774 0.0
H954 H 0.43955 0.43045 0.30776 0.0
H955 H 0.40324 0.45774 0.31081 0.0
H956 H 0.27382 0.58576 0.29116 0.0
H957 H 0.22203 0.61211 0.29534 0.0
H958 H 0.26687 0.60635 0.34578 0.0
H959 H 0.323 0.57993 0.34138 0.0
Nd960 Nd 0.60011 0.99943 0.07408 0.0
Nd961 Nd 0.59928 0.03665 0.07779 0.0
C962 C 0.59037 0.97152 0.06319 0.0
C963 C 0.55012 0.95608 0.06704 0.0
C964 C 0.47457 0.94872 0.05653 0.0
C965 C 0.44549 0.93355 0.05877 0.0
C966 C 0.4923 0.92539 0.0715 0.0
C967 C 0.56432 0.93289 0.08239 0.0
C968 C 0.59287 0.94812 0.08021 0.0
C969 C 0.60857 1.00849 0.10555 0.0
C970 C 0.35349 1.01772 0.07796 0.0
C971 C 0.60433 0.06426 0.08932 0.0
C972 C 0.63296 0.08001 0.08569 0.0
C973 C 0.66286 0.0895 0.09828 0.0
C974 C 0.67847 0.10489 0.09577 0.0
C975 C 0.66537 0.11104 0.08058 0.0
C976 C 0.6406 0.10146 0.06777 0.0
C977 C 0.62399 0.08597 0.07031 0.0
C978 C 0.59377 0.02797 0.04618 0.0
C979 C 0.84591 0.01833 0.07466 0.0
O980 O 0.51089 0.98169 0.06008 0.0
O981 O 0.67959 0.97691 0.07101 0.0
O982 O 0.60305 0.99445 0.10123 0.0
O983 O 0.60266 1.01652 0.09338 0.0
O984 O 0.40657 1.00539 0.07286 0.0
O985 O 0.41058 0.02982 0.08289 0.0
O986 O 0.69107 0.05479 0.0908 0.0
O987 O 0.51298 0.05846 0.08233 0.0
O988 O 0.59578 0.04194 0.05086 0.0
O989 O 0.59921 0.01969 0.05827 0.0
O990 O 0.79055 0.03043 0.07985 0.0
O991 O 0.79114 1.00608 0.06952 0.0
H992 H 0.44077 0.9546 0.04627 0.0
H993 H 0.38985 0.92804 0.0502 0.0
H994 H 0.59989 0.9269 0.09246 0.0
H995 H 0.65061 0.9535 0.08861 0.0
H996 H 0.67057 0.08505 0.11018 0.0
H997 H 0.69831 0.11209 0.10579 0.0
H998 H 0.6297 0.10603 0.05597 0.0
H999 H 0.60115 0.07877 0.06043 0.0
Nd1000 Nd 0.76632 0.28477 0.07503 0.0
Nd1001 Nd 0.78309 0.25203 0.07759 0.0
C1002 C 0.77271 0.31446 0.0705 0.0
C1003 C 0.82977 0.32947 0.07124 0.0
C1004 C 0.84799 0.33755 0.05715 0.0
C1005 C 0.87989 0.35279 0.05754 0.0
C1006 C 0.89534 0.36025 0.07205 0.0
C1007 C 0.88204 0.35206 0.08618 0.0
C1008 C 0.84887 0.33684 0.0858 0.0
C1009 C 0.72622 0.2736 0.10511 0.0
C1010 C 1.0221 0.26937 0.07803 0.0
C1011 C 0.77834 0.223 0.08474 0.0
C1012 C 0.73727 0.20751 0.08209 0.0
C1013 C 0.71544 0.19857 0.0954 0.0
C1014 C 0.69561 0.18315 0.09378 0.0
C1015 C 0.69654 0.17633 0.07876 0.0
C1016 C 0.71336 0.18543 0.0653 0.0
C1017 C 0.73429 0.20093 0.06695 0.0
C1018 C 0.80382 0.26174 0.04674 0.0
C1019 C 0.52609 0.26737 0.07316 0.0
O1020 O 0.80166 0.30475 0.05952 0.0
O1021 O 0.74066 0.30806 0.08369 0.0
O1022 O 0.66511 0.28394 0.09829 0.0
O1023 O 0.80976 0.26967 0.09629 0.0
O1024 O 0.9624 0.28048 0.07163 0.0
O1025 O 0.96787 0.25809 0.08488 0.0
O1026 O 0.70912 0.23284 0.09139 0.0
O1027 O 0.84877 0.22888 0.07434 0.0
O1028 O 0.86335 0.2509 0.05292 0.0
O1029 O 0.73151 0.26693 0.05658 0.0
O1030 O 0.58455 0.25594 0.07927 0.0
O1031 O 0.58084 0.27929 0.06758 0.0
H1032 H 0.83249 0.33225 0.04579 0.0
H1033 H 0.89013 0.35886 0.0465 0.0
H1034 H 0.89261 0.35762 0.09751 0.0
H1035 H 0.83387 0.33105 0.0969 0.0
H1036 H 0.71878 0.20341 0.10717 0.0
H1037 H 0.68388 0.17647 0.10439 0.0
H1038 H 0.71191 0.18056 0.05354 0.0
H1039 H 0.75127 0.20764 0.05648 0.0
Nd1040 Nd 0.59905 0.28635 0.20299 0.0
Nd1041 Nd 0.59454 0.25076 0.19725 0.0
C1042 C 0.57532 0.31433 0.21361 0.0
C1043 C 0.54274 0.33002 0.21001 0.0
C1044 C 0.53663 0.34015 0.22266 0.0
C1045 C 0.50702 0.3552 0.22011 0.0
C1046 C 0.48164 0.36052 0.20481 0.0
C1047 C 0.48736 0.35029 0.19204 0.0
C1048 C 0.518 0.33511 0.19462 0.0
C1049 C 0.64447 0.27804 0.17231 0.0
C1050 C 0.34736 0.26863 0.19892 0.0
C1051 C 0.60142 0.22301 0.18576 0.0
C1052 C 0.62954 0.20716 0.18948 0.0
C1053 C 0.66824 0.19785 0.17718 0.0
C1054 C 0.6856 0.18244 0.1797 0.0
C1055 C 0.66492 0.17596 0.19463 0.0
C1056 C 0.62941 0.18542 0.20715 0.0
C1057 C 0.61152 0.20091 0.20458 0.0
C1058 C 0.59549 0.25767 0.22964 0.0
C1059 C 0.84042 0.26802 0.20251 0.0
O1060 O 0.49239 0.30428 0.21417 0.0
O1061 O 0.67198 0.3091 0.20763 0.0
O1062 O 0.67898 0.29041 0.17891 0.0
O1063 O 0.57165 0.27131 0.18115 0.0
O1064 O 0.40345 0.28071 0.20402 0.0
O1065 O 0.40171 0.25655 0.19345 0.0
O1066 O 0.68777 0.23255 0.18431 0.0
O1067 O 0.50964 0.22886 0.19257 0.0
O1068 O 0.59296 0.244 0.22421 0.0
O1069 O 0.60034 0.26622 0.21795 0.0
O1070 O 0.78576 0.25756 0.19422 0.0
O1071 O 0.78251 0.27853 0.21047 0.0
H1072 H 0.55539 0.33643 0.2346 0.0
H1073 H 0.505 0.36273 0.2302 0.0
H1074 H 0.46646 0.35393 0.18014 0.0
H1075 H 0.52182 0.32739 0.18469 0.0
H1076 H 0.68223 0.20243 0.16544 0.0
H1077 H 0.7122 0.17552 0.16977 0.0
H1078 H 0.61522 0.18086 0.21888 0.0
H1079 H 0.58208 0.20792 0.2143 0.0
Nd1080 Nd 0.77483 0.99983 0.20107 0.0
Nd1081 Nd 0.77965 0.03555 0.1976 0.0
C1082 C 0.80035 0.97138 0.21005 0.0
C1083 C 0.84158 0.95614 0.20571 0.0
C1084 C 0.92954 0.9495 0.21484 0.0
C1085 C 0.95842 0.93432 0.21281 0.0
C1086 C 0.89961 0.9254 0.20164 0.0
C1087 C 0.81481 0.9322 0.192 0.0
C1088 C 0.78608 0.94745 0.19401 0.0
C1089 C 0.72364 1.00972 0.17122 0.0
C1090 C 1.02722 1.0172 0.19714 0.0
C1091 C 0.77305 0.06366 0.18711 0.0
C1092 C 0.74085 0.07941 0.19072 0.0
C1093 C 0.70429 0.08863 0.17821 0.0
C1094 C 0.68708 0.10407 0.18053 0.0
C1095 C 0.705 0.11056 0.19547 0.0
C1096 C 0.73695 0.10129 0.20823 0.0
C1097 C 0.75529 0.08577 0.20587 0.0
C1098 C 0.77649 0.02722 0.22954 0.0
C1099 C 0.53376 1.01797 0.20225 0.0
O1100 O 0.87823 0.98182 0.21271 0.0
O1101 O 0.70629 0.97658 0.20331 0.0
O1102 O 0.68905 0.99709 0.17725 0.0
O1103 O 0.79947 1.01596 0.18004 0.0
O1104 O 0.97011 1.00456 0.1999 0.0
O1105 O 0.97355 0.03015 0.19446 0.0
O1106 O 0.68943 0.05393 0.18455 0.0
O1107 O 0.86195 0.05789 0.19465 0.0
O1108 O 0.77839 0.04114 0.22483 0.0
O1109 O 0.77386 0.01908 0.21746 0.0
O1110 O 0.58738 0.02931 0.19521 0.0
O1111 O 0.59223 1.00687 0.2091 0.0
H1112 H 0.97304 0.9559 0.22402 0.0
H1113 H 1.02465 0.92944 0.22034 0.0
H1114 H 0.76661 0.92558 0.18347 0.0
H1115 H 0.71734 0.95223 0.18684 0.0
H1116 H 0.69294 0.08397 0.16645 0.0
H1117 H 0.66239 0.11104 0.17055 0.0
H1118 H 0.75165 0.10613 0.21983 0.0
H1119 H 0.78378 0.07887 0.21571 0.0
Nd1120 Nd 0.52245 0.99991 0.9491 0.0
Nd1121 Nd 0.52174 0.03727 0.95201 0.0
C1122 C 0.51877 0.9724 0.93737 0.0
C1123 C 0.48918 0.95665 0.94071 0.0
C1124 C 0.45498 0.9475 0.92805 0.0
C1125 C 0.43832 0.93209 0.93027 0.0
C1126 C 0.45538 0.92554 0.94523 0.0
C1127 C 0.48456 0.93486 0.95811 0.0
C1128 C 0.50176 0.95035 0.95586 0.0
C1129 C 0.5245 1.00917 0.98052 0.0
C1130 C 0.27598 0.01847 0.9519 0.0
C1131 C 0.53064 0.06535 0.96229 0.0
C1132 C 0.56763 0.08085 0.95876 0.0
C1133 C 0.58545 0.0906 0.97153 0.0
C1134 C 0.61704 0.10557 0.96898 0.0
C1135 C 0.63264 0.11116 0.95355 0.0
C1136 C 0.61634 0.10128 0.94066 0.0
C1137 C 0.58375 0.08619 0.94325 0.0
C1138 C 0.51378 0.02752 0.92088 0.0
C1139 C 0.76876 0.01902 0.9487 0.0
O1140 O 0.43255 0.98192 0.93563 0.0
O1141 O 0.60864 0.97808 0.94481 0.0
O1142 O 0.52371 0.99507 0.9762 0.0
O1143 O 0.52071 1.01721 0.96822 0.0
O1144 O 0.32946 1.00603 0.94713 0.0
O1145 O 0.33237 0.03062 0.95693 0.0
O1146 O 0.61252 0.05542 0.96507 0.0
O1147 O 0.44184 0.05986 0.95446 0.0
O1148 O 0.51698 0.04167 0.92478 0.0
O1149 O 0.52063 0.01982 0.93326 0.0
O1150 O 0.71414 0.03134 0.95342 0.0
O1151 O 0.71349 1.00652 0.94446 0.0
H1152 H 0.44474 0.95222 0.9163 0.0
H1153 H 0.41608 0.9252 0.92012 0.0
H1154 H 0.49543 0.93017 0.96985 0.0
H1155 H 0.52718 0.9573 0.96582 0.0
H1156 H 0.57358 0.08666 0.98357 0.0
H1157 H 0.62763 0.11285 0.97918 0.0
H1158 H 0.62984 0.10514 0.92864 0.0
H1159 H 0.57112 0.07876 0.93322 0.0
Nd1160 Nd 0.33707 0.78419 0.94898 0.0
Nd1161 Nd 0.35094 0.75166 0.95043 0.0
C1162 C 0.34233 0.81364 0.94428 0.0
C1163 C 0.39085 0.82896 0.94529 0.0
C1164 C 0.39778 0.8375 0.93137 0.0
C1165 C 0.4176 0.853 0.93208 0.0
C1166 C 0.43134 0.8602 0.94675 0.0
C1167 C 0.43093 0.85157 0.96068 0.0
C1168 C 0.4104 0.83603 0.95997 0.0
C1169 C 0.30007 0.77284 0.97886 0.0
C1170 C 0.59327 0.76855 0.95383 0.0
C1171 C 0.34255 0.72205 0.95427 0.0
C1172 C 0.2821 0.70736 0.95376 0.0
C1173 C 0.26197 0.69953 0.96794 0.0
C1174 C 0.23052 0.68431 0.96766 0.0
C1175 C 0.21895 0.67666 0.9532 0.0
C1176 C 0.23178 0.68468 0.93899 0.0
C1177 C 0.26362 0.6999 0.93926 0.0
C1178 C 0.4107 0.76287 0.92134 0.0
C1179 C 0.09511 0.76747 0.94692 0.0
O1180 O 0.38094 0.80403 0.93376 0.0
O1181 O 0.30387 0.80733 0.95719 0.0
O1182 O 0.23602 0.78305 0.97234 0.0
O1183 O 0.38031 0.76874 0.96967 0.0
O1184 O 0.53608 0.78066 0.94908 0.0
O1185 O 0.53803 0.7561 0.95775 0.0
O1186 O 0.32288 0.73152 0.96587 0.0
O1187 O 0.3666 0.72867 0.94088 0.0
O1188 O 0.46659 0.75256 0.92897 0.0
O1189 O 0.32197 0.76726 0.92905 0.0
O1190 O 0.15276 0.75551 0.95181 0.0
O1191 O 0.15014 0.77957 0.94204 0.0
H1192 H 0.38148 0.83233 0.91995 0.0
H1193 H 0.41826 0.85945 0.92119 0.0
H1194 H 0.44042 0.85694 0.97212 0.0
H1195 H 0.40416 0.82972 0.97092 0.0
H1196 H 0.27661 0.70494 0.97926 0.0
H1197 H 0.21945 0.67836 0.97876 0.0
H1198 H 0.22342 0.67898 0.9277 0.0
H1199 H 0.27964 0.70555 0.9281 0.0
Nd1200 Nd 0.52133 0.78547 0.82488 0.0
Nd1201 Nd 0.51736 0.74983 0.82413 0.0
C1202 C 0.49259 0.81457 0.82793 0.0
C1203 C 0.47935 0.83101 0.82827 0.0
C1204 C 0.46106 0.83857 0.84263 0.0
C1205 C 0.45145 0.85429 0.84287 0.0
C1206 C 0.46226 0.86258 0.82878 0.0
C1207 C 0.47927 0.85497 0.81441 0.0
C1208 C 0.48719 0.83928 0.81415 0.0
C1209 C 0.56878 0.77254 0.79605 0.0
C1210 C 0.27221 0.76751 0.82498 0.0
C1211 C 0.52304 0.72152 0.81435 0.0
C1212 C 0.56499 0.70599 0.81667 0.0
C1213 C 0.578 0.69691 0.80323 0.0
C1214 C 0.60856 0.68176 0.80468 0.0
C1215 C 0.62905 0.67534 0.81964 0.0
C1216 C 0.61746 0.68453 0.83318 0.0
C1217 C 0.58561 0.69977 0.83171 0.0
C1218 C 0.5061 0.75953 0.85513 0.0
C1219 C 0.76624 0.76794 0.82786 0.0
O1220 O 0.5447 0.80668 0.839 0.0
O1221 O 0.45518 0.80692 0.8157 0.0
O1222 O 0.61833 0.78464 0.80133 0.0
O1223 O 0.49168 0.76801 0.80562 0.0
O1224 O 0.32895 0.77985 0.8291 0.0
O1225 O 0.32641 0.75528 0.82 0.0
O1226 O 0.59827 0.73171 0.80978 0.0
O1227 O 0.44383 0.72675 0.82405 0.0
O1228 O 0.51303 0.74543 0.85116 0.0
O1229 O 0.51245 0.76757 0.84298 0.0
O1230 O 0.71108 0.75562 0.82324 0.0
O1231 O 0.71095 0.78062 0.8313 0.0
H1232 H 0.45432 0.83234 0.85363 0.0
H1233 H 0.438 0.85999 0.85406 0.0
H1234 H 0.48647 0.86118 0.8034 0.0
H1235 H 0.50135 0.83363 0.80293 0.0
H1236 H 0.5615 0.70148 0.79154 0.0
H1237 H 0.61304 0.67497 0.79404 0.0
H1238 H 0.63273 0.67992 0.84487 0.0
H1239 H 0.57577 0.70661 0.84226 0.0
Nd1240 Nd 0.3354 1.00323 0.82787 0.0
Nd1241 Nd 0.35167 0.03568 0.82558 0.0
C1242 C 0.3418 0.97403 0.83418 0.0
C1243 C 0.38966 0.95876 0.83225 0.0
C1244 C 0.4133 0.95039 0.84595 0.0
C1245 C 0.4355 0.93496 0.84498 0.0
C1246 C 0.43558 0.92771 0.83025 0.0
C1247 C 0.41823 0.93615 0.8164 0.0
C1248 C 0.39472 0.95161 0.81738 0.0
C1249 C 0.30284 1.01354 0.79742 0.0
C1250 C 0.59288 0.0185 0.82263 0.0
C1251 C 0.34407 0.06539 0.82186 0.0
C1252 C 0.28516 0.08026 0.82219 0.0
C1253 C 0.26037 0.08773 0.80794 0.0
C1254 C 0.2288 0.10298 0.80795 0.0
C1255 C 0.22256 0.11113 0.82221 0.0
C1256 C 0.24073 0.10345 0.83654 0.0
C1257 C 0.27212 0.08819 0.83654 0.0
C1258 C 0.40648 0.0248 0.85507 0.0
C1259 C 0.0963 0.02015 0.82952 0.0
O1260 O 0.39857 0.984 0.84255 0.0
O1261 O 0.28289 0.97987 0.82251 0.0
O1262 O 0.23951 1.00335 0.80409 0.0
O1263 O 0.38133 1.01807 0.80668 0.0
O1264 O 0.53416 1.00672 0.82789 0.0
O1265 O 0.53831 0.03084 0.81816 0.0
O1266 O 0.32697 0.05596 0.81016 0.0
O1267 O 0.36469 0.05868 0.8353 0.0
O1268 O 0.46609 0.03468 0.84735 0.0
O1269 O 0.31814 0.02061 0.84723 0.0
O1270 O 0.15421 0.03152 0.8233 0.0
O1271 O 0.15235 1.00877 0.83583 0.0
H1272 H 0.40854 0.95564 0.85752 0.0
H1273 H 0.44883 0.92858 0.85576 0.0
H1274 H 0.41748 0.93064 0.80495 0.0
H1275 H 0.37563 0.95779 0.80663 0.0
H1276 H 0.27064 0.08199 0.7967 0.0
H1277 H 0.21281 0.10853 0.79674 0.0
H1278 H 0.23653 0.10944 0.84771 0.0
H1279 H 0.29183 0.08286 0.84775 0.0
C1280 C 0.85899 0.40254 0.06604 0.0
C1281 C 0.95936 0.4086 0.07313 0.0
C1282 C 0.83935 0.38689 0.06566 0.0
C1283 C 0.91906 0.37672 0.07241 0.0
H1284 H 0.79456 0.40996 0.06087 0.0
H1285 H 0.7605 0.38272 0.06021 0.0
S1286 S 0.20013 0.38657 0.09104 0.0
N1287 N 0.14325 0.403 0.08604 0.0
N1288 N 0.10459 0.37367 0.08561 0.0
C1289 C 1.02021 0.38257 0.07934 0.0
C1290 C 1.04078 0.39847 0.07963 0.0
C1291 C 0.35509 0.90341 0.0727 0.0
C1292 C 0.46969 0.90894 0.07293 0.0
C1293 C 0.3324 0.88786 0.07355 0.0
C1294 C 0.42355 0.87731 0.07431 0.0
H1295 H 0.28254 0.91116 0.07194 0.0
H1296 H 0.24301 0.88404 0.07339 0.0
S1297 S 0.73823 0.88589 0.07498 0.0
N1298 N 0.675 0.90259 0.07395 0.0
N1299 N 0.6319 0.87337 0.07525 0.0
C1300 C 0.53816 0.88266 0.07446 0.0
C1301 C 0.56133 0.89847 0.07387 0.0
C1302 C 0.92269 0.90067 0.21549 0.0
C1303 C 0.92009 0.90882 0.2012 0.0
C1304 C 0.94082 0.88507 0.21568 0.0
C1305 C 0.95703 0.87687 0.20158 0.0
H1306 H 0.90956 0.90639 0.22668 0.0
H1307 H 0.94349 0.8794 0.22703 0.0
S1308 S 0.9574 0.89278 0.16095 0.0
N1309 N 0.93603 0.90754 0.17254 0.0
N1310 N 0.96776 0.87806 0.17285 0.0
C1311 C 0.95438 0.88483 0.18717 0.0
C1312 C 0.93595 0.90081 0.18698 0.0
C1313 C 0.35156 0.39899 0.21369 0.0
C1314 C 0.40302 0.40848 0.20235 0.0
C1315 C 0.37308 0.38346 0.21381 0.0
C1316 C 0.44831 0.37669 0.20272 0.0
H1317 H 0.29538 0.40368 0.22274 0.0
H1318 H 0.33216 0.37672 0.22294 0.0
S1319 S 0.60031 0.39654 0.17001 0.0
N1320 N 0.52734 0.41001 0.17918 0.0
N1321 N 0.57057 0.38075 0.17959 0.0
C1322 C 0.49673 0.38597 0.19088 0.0
C1323 C 0.47359 0.40187 0.19067 0.0
C1324 C 0.09322 0.63805 0.94409 0.0
C1325 C 0.16944 0.62823 0.95211 0.0
C1326 C 0.10961 0.65372 0.94443 0.0
C1327 C 0.20213 0.66011 0.95294 0.0
H1328 H 1.01929 0.6336 0.93768 0.0
H1329 H 1.04871 0.66089 0.9382 0.0
S1330 S 0.43261 0.63938 0.97451 0.0
N1331 N 0.34554 0.62603 0.96778 0.0
N1332 N 0.37546 0.65551 0.96859 0.0
C1333 C 0.28015 0.65045 0.96073 0.0
C1334 C 0.26395 0.63451 0.9603 0.0
C1335 C 0.77307 0.14918 0.96129 0.0
C1336 C 0.71437 0.15893 0.95091 0.0
C1337 C 0.74996 0.13369 0.96145 0.0
C1338 C 0.66601 0.12728 0.95136 0.0
H1339 H 0.83616 0.15362 0.96958 0.0
H1340 H 0.79665 0.12671 0.96983 0.0
S1341 S 0.49097 0.14797 0.92153 0.0
N1342 N 0.57252 0.16113 0.92979 0.0
N1343 N 0.52642 0.13196 0.9303 0.0
C1344 C 0.60955 0.13684 0.94049 0.0
C1345 C 0.63422 0.15268 0.94023 0.0
C1346 C 0.10374 0.15016 0.83219 0.0
C1347 C 0.16843 0.15975 0.82221 0.0
C1348 C 0.12158 0.13447 0.83218 0.0
C1349 C 0.20424 0.12776 0.82211 0.0
H1350 H 1.03706 0.15476 0.83985 0.0
H1351 H 0.06898 0.12752 0.83992 0.0
S1352 S 0.40537 0.14795 0.7951 0.0
N1353 N 0.32507 0.16143 0.80299 0.0
N1354 N 0.35768 0.13202 0.80286 0.0
C1355 C 0.27144 0.13725 0.8124 0.0
C1356 C 0.25376 0.1532 0.81247 0.0
C1357 C 0.60137 0.64981 0.83218 0.0
C1358 C 0.65806 0.65898 0.82096 0.0
C1359 C 0.62119 0.63417 0.83277 0.0
C1360 C 0.69775 0.6271 0.82209 0.0
H1361 H 0.53902 0.65468 0.84032 0.0
H1362 H 0.57463 0.62752 0.84146 0.0
S1363 S 0.87907 0.64623 0.79184 0.0
N1364 N 0.8026 0.65996 0.79996 0.0
N1365 N 0.83811 0.63064 0.80093 0.0
C1366 C 0.75763 0.6362 0.81117 0.0
C1367 C 0.73828 0.65209 0.81064 0.0
C1368 C 1.02163 0.89925 0.56334 0.0
C1369 C 0.94976 0.90879 0.57239 0.0
C1370 C 1.00564 0.88358 0.56334 0.0
C1371 C 0.91718 0.87683 0.57239 0.0
H1372 H 0.09154 0.90394 0.5563 0.0
H1373 H 0.06313 0.87669 0.5562 0.0
S1374 S 0.70139 0.89688 0.59739 0.0
N1375 N 0.78475 0.91043 0.59024 0.0
N1376 N 0.75378 0.88097 0.59014 0.0
C1377 C 0.84453 0.88625 0.58147 0.0
C1378 C 0.86104 0.90221 0.58149 0.0
C1379 C 0.33854 0.38744 0.5638 0.0
C1380 C 0.40577 0.37727 0.5727 0.0
C1381 C 0.35948 0.40301 0.56434 0.0
C1382 C 0.44917 0.40906 0.57372 0.0
H1383 H 0.26942 0.3833 0.55627 0.0
H1384 H 0.30544 0.41037 0.55723 0.0
S1385 S 0.65295 0.38707 0.59881 0.0
N1386 N 0.56602 0.37421 0.59107 0.0
N1387 N 0.60767 0.40347 0.59186 0.0
C1388 C 0.51653 0.39898 0.5828 0.0
C1389 C 0.49433 0.3831 0.58234 0.0
C1390 C 1.01295 0.38721 0.71169 0.0
C1391 C 0.94762 0.37753 0.70193 0.0
C1392 C 0.99477 0.40285 0.71159 0.0
C1393 C 0.91061 0.40946 0.70171 0.0
H1394 H 0.0797 0.38267 0.71938 0.0
H1395 H 1.04751 0.40984 0.71927 0.0
S1396 S 0.71134 0.389 0.67464 0.0
N1397 N 0.79242 0.37562 0.68256 0.0
N1398 N 0.75766 0.405 0.68241 0.0
C1399 C 0.84422 0.3999 0.69194 0.0
C1400 C 0.86286 0.38396 0.69204 0.0
C1401 C 0.36626 0.88257 0.69297 0.0
C1402 C 0.45228 0.87587 0.70247 0.0
C1403 C 0.34625 0.89821 0.69344 0.0
C1404 C 0.4123 0.90773 0.70333 0.0
H1405 H 0.31232 0.87563 0.6854 0.0
H1406 H 0.27647 0.90282 0.68633 0.0
S1407 S 0.65926 0.89591 0.72871 0.0
N1408 N 0.61093 0.88004 0.7209 0.0
N1409 N 0.57521 0.90938 0.72157 0.0
C1410 C 0.50196 0.90118 0.71233 0.0
C1411 C 0.52147 0.88529 0.71196 0.0
C1412 C 0.18 0.13504 0.46554 0.0
C1413 C 0.16539 0.12699 0.45131 0.0
C1414 C 0.20164 0.15059 0.46557 0.0
C1415 C 0.2095 0.15885 0.45139 0.0
H1416 H 0.17341 0.12931 0.47683 0.0
H1417 H 0.21338 0.15616 0.47688 0.0
S1418 S 0.1776 0.14325 0.41086 0.0
N1419 N 0.16163 0.12847 0.42257 0.0
N1420 N 0.19938 0.15783 0.42266 0.0
C1421 C 0.19496 0.15099 0.43704 0.0
C1422 C 0.17311 0.13508 0.437 0.0
C1423 C 0.76333 0.64924 0.46336 0.0
C1424 C 0.70881 0.65891 0.45245 0.0
C1425 C 0.74564 0.63363 0.46288 0.0
C1426 C 0.67232 0.62703 0.45151 0.0
H1427 H 0.8201 0.65381 0.47239 0.0
H1428 H 0.78925 0.62667 0.47159 0.0
S1429 S 0.50686 0.64748 0.42048 0.0
N1430 N 0.57839 0.66087 0.42997 0.0
N1431 N 0.5433 0.63147 0.42917 0.0
C1432 C 0.61828 0.63656 0.44038 0.0
C1433 C 0.63696 0.6525 0.44082 0.0
C1434 C 0.1238 0.63444 0.31425 0.0
C1435 C 0.21466 0.62783 0.32301 0.0
C1436 C 0.1026 0.65 0.31479 0.0
C1437 C 0.17067 0.65965 0.32419 0.0
H1438 H 0.06886 0.62754 0.30678 0.0
H1439 H 1.03214 0.65452 0.30774 0.0
S1440 S 0.41878 0.64825 0.34946 0.0
N1441 N 0.37353 0.63232 0.34142 0.0
N1442 N 0.33172 0.66155 0.34263 0.0
C1443 C 0.25983 0.65323 0.33334 0.0
C1444 C 0.2822 0.63735 0.33271 0.0
C1445 C 0.76825 0.13661 0.31113 0.0
C1446 C 0.72682 0.12699 0.32307 0.0
C1447 C 0.74647 0.15211 0.31152 0.0
C1448 C 0.68105 0.15869 0.3238 0.0
H1449 H 0.81653 0.13206 0.3012 0.0
H1450 H 0.77909 0.15896 0.30188 0.0
S1451 S 0.55786 0.13849 0.35844 0.0
N1452 N 0.62277 0.12514 0.34802 0.0
N1453 N 0.57915 0.15439 0.34864 0.0
C1454 C 0.64302 0.14929 0.33622 0.0
C1455 C 0.66638 0.13342 0.33587 0.0
C1456 C 0.0935 0.50334 0.13173 0.0
C1457 C 0.14493 0.51476 0.12273 0.0
C1458 C 0.11628 0.50201 0.14788 0.0
C1459 C 0.19289 0.51193 0.15574 0.0
H1460 H 1.03998 0.49485 0.12605 0.0
H1461 H 0.07653 0.49265 0.15409 0.0
S1462 S 0.33978 0.54488 0.13761 0.0
N1463 N 0.26861 0.53697 0.12277 0.0
N1464 N 0.31147 0.53453 0.15345 0.0
C1465 C 0.24007 0.52398 0.14705 0.0
C1466 C 0.21637 0.52534 0.13044 0.0
C1467 C 0.12073 0.76177 0.13006 0.0
C1468 C 0.20739 0.77021 0.12229 0.0
C1469 C 0.10271 0.76317 0.14652 0.0
C1470 C 0.16918 0.77336 0.15553 0.0
H1471 H 0.06313 0.75461 0.12325 0.0
H1472 H 1.03266 0.75691 0.15202 0.0
S1473 S 0.40853 0.7977 0.14052 0.0
N1474 N 0.36159 0.7886 0.12473 0.0
N1475 N 0.32926 0.79139 0.15539 0.0
C1476 C 0.25926 0.78133 0.14785 0.0
C1477 C 0.2778 0.77976 0.13128 0.0
C1478 C 1.02519 0.51851 0.87775 0.0
C1479 C 0.91204 0.51915 0.87144 0.0
C1480 C 1.04408 0.51853 0.89416 0.0
C1481 C 0.95021 0.51959 0.90469 0.0
H1482 H 0.09985 0.51873 0.86993 0.0
H1483 H 0.13247 0.51888 0.89855 0.0
S1484 S 0.63732 0.5201 0.89423 0.0
N1485 N 0.7051 0.51946 0.87699 0.0
N1486 N 0.74029 0.51998 0.90784 0.0
C1487 C 0.83665 0.5193 0.89855 0.0
C1488 C 0.81747 0.51894 0.88188 0.0
C1489 C 1.03086 0.25495 0.88113 0.0
C1490 C 0.9766 0.26564 0.87143 0.0
C1491 C 0.99984 0.25351 0.89707 0.0
C1492 C 0.91391 0.26276 0.9039 0.0
H1493 H 0.09144 0.2469 0.8761 0.0
H1494 H 1.03956 0.24455 0.90393 0.0
S1495 S 0.753 0.29336 0.88372 0.0
N1496 N 0.83768 0.28621 0.86979 0.0
N1497 N 0.78182 0.2838 0.90007 0.0
C1498 C 0.86498 0.27424 0.89463 0.0
C1499 C 0.89545 0.27556 0.87826 0.0
C1500 C 0.08953 1.01675 0.63265 0.0
C1501 C 0.17833 1.01568 0.62128 0.0
C1502 C 0.11574 1.0159 0.64892 0.0
C1503 C 0.23116 1.01417 0.65415 0.0
H1504 H 0.99938 1.01692 0.62898 0.0
H1505 H 1.04494 1.0155 0.65737 0.0
S1506 S 0.4948 1.01316 0.62915 0.0
N1507 N 0.38641 1.01462 0.61644 0.0
N1508 N 0.43451 1.01301 0.6469 0.0
C1509 C 0.32055 1.01437 0.64295 0.0
C1510 C 0.29431 1.01518 0.62651 0.0
C1511 C 0.32821 0.27454 0.6323 0.0
C1512 C 0.24493 0.27129 0.62074 0.0
C1513 C 0.29999 0.27412 0.64839 0.0
C1514 C 0.18651 0.27076 0.65358 0.0
H1515 H 0.41402 0.27836 0.62886 0.0
H1516 H 0.36626 0.27742 0.65682 0.0
S1517 S 0.93886 0.26018 0.62789 0.0
N1518 N 1.04661 0.26342 0.61539 0.0
N1519 N 0.99259 0.26284 0.64583 0.0
C1520 C 0.10416 0.26641 0.64219 0.0
C1521 C 0.13357 0.2667 0.62569 0.0
C1522 C 0.99689 0.0398 0.39261 0.0
C1523 C 0.9875 0.02679 0.402 0.0
C1524 C 0.95625 0.04021 0.37719 0.0
C1525 C 0.90509 0.02757 0.36998 0.0
H1526 H 1.03282 0.05016 0.39735 0.0
H1527 H 0.96421 0.05083 0.37093 0.0
S1528 S 0.87331 0.98981 0.38842 0.0
N1529 N 0.93172 1.00028 0.40257 0.0
N1530 N 0.85762 1.00095 0.37284 0.0
C1531 C 0.90141 1.01402 0.3787 0.0
C1532 C 0.94205 1.01365 0.39487 0.0
C1533 C 0.86036 0.77137 0.3787 0.0
C1534 C 0.96518 0.76623 0.37195 0.0
C1535 C 0.84026 0.77042 0.39512 0.0
C1536 C 0.9232 0.76381 0.40516 0.0
H1537 H 0.79139 0.7755 0.37112 0.0
H1538 H 0.75662 0.77385 0.39977 0.0
S1539 S 0.21333 0.7493 0.39335 0.0
N1540 N 0.15445 0.75513 0.37661 0.0
N1541 N 0.11682 0.75298 0.4073 0.0
C1542 C 1.0304 0.75933 0.39859 0.0
C1543 C 1.0514 0.76059 0.382 0.0
C1544 C 0.7831 0.50911 0.62743 0.0
C1545 C 0.68013 0.51476 0.62057 0.0
C1546 C 0.80214 0.50979 0.64377 0.0
C1547 C 0.71881 0.51614 0.65382 0.0
H1548 H 0.84764 0.50345 0.62022 0.0
H1549 H 0.87884 0.50444 0.64864 0.0
S1550 S 0.44421 0.53469 0.64184 0.0
N1551 N 0.50102 0.52866 0.62501 0.0
N1552 N 0.53596 0.52963 0.65591 0.0
C1553 C 0.61944 0.52276 0.64712 0.0
C1554 C 0.60044 0.52222 0.63041 0.0
C1555 C 0.59031 0.77796 0.62675 0.0
C1556 C 0.68535 0.77069 0.61942 0.0
C1557 C 0.57211 0.77711 0.64309 0.0
C1558 C 0.64784 0.76889 0.65273 0.0
H1559 H 0.53215 0.78503 0.61992 0.0
H1560 H 0.50263 0.7837 0.64832 0.0
S1561 S 0.8978 0.74579 0.63943 0.0
N1562 N 0.8474 0.75344 0.62296 0.0
N1563 N 0.81365 0.75201 0.6539 0.0
C1564 C 0.73823 0.76069 0.64556 0.0
C1565 C 0.75661 0.76148 0.62882 0.0
C1566 C 0.29371 0.52689 0.38214 0.0
C1567 C 0.37551 0.52287 0.37064 0.0
C1568 C 0.32107 0.5263 0.39823 0.0
C1569 C 0.43254 0.52203 0.40349 0.0
H1570 H 0.20988 0.53134 0.37863 0.0
H1571 H 0.25585 0.5301 0.40658 0.0
S1572 S 0.67499 0.50914 0.37799 0.0
N1573 N 0.56957 0.51326 0.36542 0.0
N1574 N 0.6223 0.51241 0.39589 0.0
C1575 C 0.51305 0.51697 0.39217 0.0
C1576 C 0.4843 0.5174 0.37565 0.0
C1577 C 0.30057 0.25811 0.39143 0.0
C1578 C 0.3738 0.26438 0.40289 0.0
C1579 C 0.33083 0.25822 0.37543 0.0
C1580 C 0.43731 0.26424 0.37015 0.0
H1581 H 0.22236 0.25219 0.39497 0.0
H1582 H 0.27324 0.25252 0.36722 0.0
S1583 S 0.65414 0.28372 0.39531 0.0
N1584 N 0.55207 0.2783 0.40788 0.0
N1585 N 0.61085 0.27818 0.37756 0.0
C1586 C 0.50763 0.27169 0.38129 0.0
C1587 C 0.47554 0.27177 0.39776 0.0
C1588 C 0.76374 0.01955 0.1435 0.0
C1589 C 0.68612 1.014 0.155 0.0
C1590 C 0.73401 0.01925 0.12723 0.0
C1591 C 0.6263 1.01338 0.12213 0.0
H1592 H 0.85047 0.02298 0.14691 0.0
H1593 H 0.79886 0.02248 0.11857 0.0
S1594 S 0.38793 0.99962 0.14771 0.0
N1595 N 0.49208 1.00434 0.16018 0.0
N1596 N 0.4392 1.00338 0.12989 0.0
C1597 C 0.54585 1.00893 0.13361 0.0
C1598 C 0.57493 1.0094 0.14999 0.0
C1599 C 0.77043 0.28391 0.13144 0.0
C1600 C 0.72387 0.27213 0.12246 0.0
C1601 C 0.74662 0.28516 0.1476 0.0
C1602 C 0.6736 0.27481 0.15549 0.0
H1603 H 0.82129 0.29267 0.12577 0.0
H1604 H 0.78293 0.29476 0.1538 0.0
S1605 S 0.53854 0.24101 0.13737 0.0
N1606 N 0.60764 0.24926 0.12254 0.0
N1607 N 0.56273 0.25156 0.15318 0.0
C1608 C 0.63072 0.26249 0.14679 0.0
C1609 C 0.6556 0.2612 0.13018 0.0
C1610 C 0.54828 0.02462 0.87701 0.0
C1611 C 0.43468 0.02138 0.8718 0.0
C1612 C 0.57589 0.02516 0.89312 0.0
C1613 C 0.49179 0.02218 0.90466 0.0
H1614 H 0.61529 0.02769 0.86859 0.0
H1615 H 0.66201 0.02884 0.89657 0.0
S1616 S 0.18494 1.0115 0.89746 0.0
N1617 N 0.23967 1.01388 0.87953 0.0
N1618 N 0.29246 1.01472 0.90999 0.0
C1619 C 0.38012 1.01776 0.89971 0.0
C1620 C 0.35139 1.01733 0.88319 0.0
C1621 C 0.57079 0.75925 0.88278 0.0
C1622 C 0.49176 0.76463 0.87157 0.0
C1623 C 0.54621 0.76004 0.89892 0.0
C1624 C 0.43976 0.76583 0.90453 0.0
H1625 H 0.64978 0.75363 0.879 0.0
H1626 H 0.60895 0.75519 0.90701 0.0
S1627 S 0.20891 0.78301 0.87987 0.0
N1628 N 0.30814 0.77744 0.86696 0.0
N1629 N 0.25969 0.77854 0.89758 0.0
C1630 C 0.36316 0.77229 0.89351 0.0
C1631 C 0.38961 0.77173 0.87692 0.0
C1632 C 0.28593 0.64943 0.06989 0.0
C1633 C 0.20722 0.65836 0.07858 0.0
C1634 C 0.27933 0.63362 0.07021 0.0
C1635 C 0.19421 0.62627 0.07929 0.0
H1636 H 0.35409 0.65469 0.06298 0.0
H1637 H 0.34215 0.62712 0.06352 0.0
S1638 S 0.96007 0.64444 0.10266 0.0
N1639 N 1.0362 0.65867 0.09547 0.0
N1640 N 1.02458 0.62899 0.09617 0.0
C1641 C 0.11346 0.63506 0.0877 0.0
C1642 C 0.11983 0.6511 0.08733 0.0
C1643 C 0.10948 0.6501 0.20493 0.0
C1644 C 0.18452 0.65879 0.19536 0.0
C1645 C 0.11696 0.63424 0.20522 0.0
C1646 C 0.19932 0.62659 0.1959 0.0
H1647 H 1.04162 0.65554 0.21174 0.0
H1648 H 1.05545 0.6279 0.2123 0.0
S1649 S 0.42587 0.64397 0.17067 0.0
N1650 N 0.35226 0.65844 0.17783 0.0
N1651 N 0.36348 0.62875 0.17807 0.0
C1652 C 0.27795 0.63513 0.18693 0.0
C1653 C 0.27132 0.65118 0.18674 0.0
C1654 C 0.84775 0.38752 0.95596 0.0
C1655 C 0.91744 0.37888 0.94567 0.0
C1656 C 0.85304 0.40332 0.95589 0.0
C1657 C 0.92793 0.41098 0.94549 0.0
H1658 H 0.78766 0.38202 0.96397 0.0
H1659 H 0.79722 0.40959 0.96385 0.0
S1660 S 0.13748 0.39354 0.91758 0.0
N1661 N 0.0696 0.37909 0.92574 0.0
N1662 N 0.07958 0.40878 0.92558 0.0
C1663 C 0.99997 0.40246 0.93545 0.0
C1664 C 0.99465 0.38641 0.93553 0.0
C1665 C 0.86776 0.40094 0.83867 0.0
C1666 C 0.9222 0.40945 0.82674 0.0
C1667 C 0.87295 0.38518 0.8387 0.0
C1668 C 0.93339 0.37725 0.82684 0.0
H1669 H 0.82068 0.40653 0.84811 0.0
H1670 H 0.82993 0.37915 0.84819 0.0
S1671 S 0.09268 0.39432 0.79307 0.0
N1672 N 1.03821 0.4089 0.80273 0.0
N1673 N 1.05014 0.37919 0.80289 0.0
C1674 C 0.98701 0.38562 0.81469 0.0
C1675 C 0.98094 0.40173 0.81462 0.0
C1676 C 0.11996 0.13435 0.58877 0.0
C1677 C 0.17488 0.12612 0.57667 0.0
C1678 C 0.12614 0.15009 0.58929 0.0
C1679 C 0.18837 0.15828 0.57781 0.0
H1680 H 0.07242 0.12855 0.59802 0.0
H1681 H 0.08312 0.15589 0.59895 0.0
S1682 S 0.34571 0.142 0.54344 0.0
N1683 N 0.29038 0.12721 0.55264 0.0
N1684 N 0.30447 0.1569 0.55376 0.0
C1685 C 0.24104 0.15021 0.56536 0.0
C1686 C 0.23378 0.13411 0.56477 0.0
C1687 C 0.13576 0.1518 0.70698 0.0
C1688 C 0.18361 0.15998 0.69428 0.0
C1689 C 0.14204 0.13602 0.70745 0.0
C1690 C 0.19653 0.12783 0.69525 0.0
H1691 H 0.09119 0.15761 0.71649 0.0
H1692 H 0.10255 0.13019 0.71736 0.0
S1693 S 0.34307 0.14401 0.65999 0.0
N1694 N 0.292 0.15881 0.66962 0.0
N1695 N 0.30466 0.12916 0.67055 0.0
C1696 C 0.24615 0.1359 0.68261 0.0
C1697 C 0.23952 0.15196 0.68211 0.0
C1698 C 0.84701 0.88472 0.45346 0.0
C1699 C 0.92313 0.87647 0.44367 0.0
C1700 C 0.85374 0.90051 0.45442 0.0
C1701 C 0.93645 0.90859 0.44556 0.0
H1702 H 0.77998 0.87897 0.46014 0.0
H1703 H 0.79251 0.90645 0.46192 0.0
S1704 S 0.16327 0.8923 0.41948 0.0
N1705 N 0.0895 0.87756 0.42593 0.0
N1706 N 0.10087 0.90717 0.42759 0.0
C1707 C 1.01461 0.90047 0.43604 0.0
C1708 C 1.00834 0.88444 0.43514 0.0
C1709 C 0.85792 0.88498 0.31943 0.0
C1710 C 0.93749 0.87699 0.32885 0.0
C1711 C 0.85156 0.9008 0.32014 0.0
C1712 C 0.9253 0.90912 0.3302 0.0
H1713 H 0.79801 0.87893 0.31185 0.0
H1714 H 0.78592 0.9065 0.31318 0.0
S1715 S 0.16046 0.89345 0.35535 0.0
N1716 N 0.09863 0.87851 0.34731 0.0
N1717 N 0.08893 0.90817 0.34839 0.0
C1718 C 1.00925 0.90122 0.33902 0.0
C1719 C 1.01479 0.88518 0.3384 0.0
C1720 C 0.74814 0.63447 0.56829 0.0
C1721 C 0.68895 0.62613 0.57993 0.0
C1722 C 0.75418 0.65029 0.5691 0.0
C1723 C 0.7001 0.65832 0.58149 0.0
H1724 H 0.79209 0.6287 0.55869 0.0
H1725 H 0.80392 0.65623 0.56018 0.0
S1726 S 0.52071 0.64171 0.61362 0.0
N1727 N 0.56725 0.62703 0.60339 0.0
N1728 N 0.57572 0.65668 0.60473 0.0
C1729 C 0.63659 0.65007 0.5928 0.0
C1730 C 0.63169 0.63401 0.59206 0.0
C1731 C 0.62342 0.63469 0.68734 0.0
C1732 C 0.67685 0.62646 0.69958 0.0
C1733 C 0.61963 0.65044 0.68763 0.0
C1734 C 0.66793 0.65862 0.70026 0.0
H1735 H 0.58555 0.62892 0.67728 0.0
H1736 H 0.57897 0.65628 0.67782 0.0
S1737 S 0.81486 0.64267 0.73548 0.0
N1738 N 0.77806 0.62778 0.72485 0.0
N1739 N 0.76769 0.6575 0.72554 0.0
C1740 C 0.71794 0.65062 0.71287 0.0
C1741 C 0.72306 0.63451 0.71251 0.0
C1742 C 0.42061 0.40236 0.46058 0.0
C1743 C 0.43627 0.41078 0.44662 0.0
C1744 C 0.41435 0.38655 0.46015 0.0
C1745 C 0.42483 0.37863 0.44577 0.0
H1746 H 0.41197 0.40804 0.47187 0.0
H1747 H 0.40195 0.38048 0.47115 0.0
S1748 S 0.46977 0.39544 0.40599 0.0
N1749 N 0.46618 0.41002 0.41813 0.0
N1750 N 0.45053 0.38043 0.41724 0.0
C1751 C 0.44118 0.38694 0.43177 0.0
C1752 C 0.44779 0.40298 0.43221 0.0
C1753 C 0.38527 0.38449 0.31854 0.0
C1754 C 0.44798 0.37658 0.33016 0.0
C1755 C 0.37692 0.40032 0.31903 0.0
C1756 C 0.43188 0.40871 0.33107 0.0
H1757 H 0.33955 0.37837 0.30935 0.0
H1758 H 0.32393 0.40597 0.31025 0.0
S1759 S 0.62054 0.39323 0.36278 0.0
N1760 N 0.57424 0.37824 0.35307 0.0
N1761 N 0.56175 0.40788 0.35377 0.0
C1762 C 0.49987 0.40088 0.3422 0.0
C1763 C 0.50709 0.38485 0.3418 0.0
C1764 C 0.59293 0.13661 0.08747 0.0
C1765 C 0.6692 0.12759 0.07859 0.0
C1766 C 0.59933 0.15235 0.08688 0.0
C1767 C 0.68325 0.15969 0.07753 0.0
H1768 H 0.52855 0.13143 0.0951 0.0
H1769 H 0.53921 0.15882 0.09405 0.0
S1770 S 0.90428 0.14101 0.05219 0.0
N1771 N 0.83001 0.12691 0.06003 0.0
N1772 N 0.84486 0.15661 0.05919 0.0
C1773 C 0.75883 0.15076 0.06833 0.0
C1774 C 0.75123 0.13467 0.06882 0.0
C1775 C 0.77499 0.15193 0.18991 0.0
C1776 C 0.67883 0.15933 0.19674 0.0
C1777 C 0.78428 0.13616 0.19004 0.0
C1778 C 0.69862 0.12716 0.19717 0.0
H1779 H 0.84276 0.15837 0.18412 0.0
H1780 H 0.85803 0.13093 0.18425 0.0
S1781 S 0.43081 0.14063 0.2169 0.0
N1782 N 0.49628 0.15622 0.21095 0.0
N1783 N 0.51611 0.12655 0.21148 0.0
C1784 C 0.60407 0.1343 0.20449 0.0
C1785 C 0.59375 0.15039 0.20425 0.0
C1786 C 0.34921 0.88538 0.94008 0.0
C1787 C 0.43679 0.87684 0.94742 0.0
C1788 C 0.3539 0.90115 0.93992 0.0
C1789 C 0.44676 0.90894 0.947 0.0
H1790 H 0.27665 0.87982 0.93437 0.0
H1791 H 0.28486 0.90728 0.93404 0.0
S1792 S 0.69919 0.89165 0.96742 0.0
N1793 N 0.61862 0.87715 0.96193 0.0
N1794 N 0.62929 0.90686 0.96135 0.0
C1795 C 0.53421 0.9005 0.95456 0.0
C1796 C 0.5288 0.88442 0.95483 0.0
C1797 C 0.35924 0.88654 0.83529 0.0
C1798 C 0.45731 0.8792 0.82907 0.0
C1799 C 0.35281 0.90232 0.83553 0.0
C1800 C 0.44422 0.91117 0.82958 0.0
H1801 H 0.2868 0.88005 0.83984 0.0
H1802 H 0.27576 0.90765 0.84034 0.0
S1803 S 0.72272 0.89738 0.81318 0.0
N1804 N 0.64975 0.88188 0.81757 0.0
N1805 N 0.63699 0.91162 0.81799 0.0
C1806 C 0.54296 0.90399 0.82349 0.0
C1807 C 0.54967 0.88795 0.82325 0.0
C1808 C 0.65512 0.50424 0.07548 0.0
C1809 C 0.71906 0.51762 0.07747 0.0
C1810 C 0.53404 0.50455 0.07371 0.0
C1811 C 0.47233 0.51828 0.07375 0.0
H1812 H 0.69868 0.4934 0.07546 0.0
H1813 H 0.48847 0.49391 0.0726 0.0
S1814 S 0.59993 0.5566 0.07694 0.0
N1815 N 0.71213 0.54508 0.07829 0.0
N1816 N 0.4851 0.54564 0.07495 0.0
C1817 C 0.53547 0.53176 0.07533 0.0
C1818 C 0.65862 0.53145 0.07719 0.0
C1819 C 0.70617 0.78167 0.08083 0.0
C1820 C 0.64167 0.76898 0.07611 0.0
C1821 C 0.82759 0.78186 0.07945 0.0
C1822 C 0.88803 0.76938 0.07329 0.0
H1823 H 0.66276 0.79141 0.08584 0.0
H1824 H 0.87464 0.79169 0.08359 0.0
S1825 S 0.7591 0.73437 0.05715 0.0
N1826 N 0.64679 0.74425 0.06355 0.0
N1827 N 0.87506 0.74463 0.0612 0.0
C1828 C 0.82466 0.75684 0.0681 0.0
C1829 C 0.7013 0.75664 0.06944 0.0
C1830 C 0.6504 0.78148 0.20116 0.0
C1831 C 0.71444 0.768 0.19955 0.0
C1832 C 0.52869 0.78133 0.20268 0.0
C1833 C 0.46623 0.76769 0.20263 0.0
H1834 H 0.69438 0.79229 0.20115 0.0
H1835 H 0.48312 0.79199 0.20353 0.0
S1836 S 0.59166 0.72918 0.2 0.0
N1837 N 0.70494 0.74053 0.19889 0.0
N1838 N 0.47752 0.74033 0.20162 0.0
C1839 C 0.52902 0.75413 0.20128 0.0
C1840 C 0.6526 0.75426 0.19977 0.0
C1841 C 0.83304 0.50518 0.20657 0.0
C1842 C 0.89802 0.51769 0.20138 0.0
C1843 C 0.71143 0.50482 0.20504 0.0
C1844 C 0.64959 0.51695 0.19827 0.0
H1845 H 0.87625 0.49553 0.21178 0.0
H1846 H 0.66565 0.49498 0.20939 0.0
S1847 S 0.77872 0.55236 0.18253 0.0
N1848 N 0.89053 0.54255 0.18904 0.0
N1849 N 0.66389 0.54178 0.18609 0.0
C1850 C 0.71376 0.52949 0.19293 0.0
C1851 C 0.83721 0.52987 0.1945 0.0
C1852 C 0.5909 0.53268 0.94818 0.0
C1853 C 0.64953 0.51956 0.95317 0.0
C1854 C 0.4697 0.53287 0.94642 0.0
C1855 C 0.4032 0.5199 0.94943 0.0
H1856 H 0.63917 0.54281 0.9453 0.0
H1857 H 0.42799 0.54315 0.94245 0.0
S1858 S 0.51342 0.48326 0.96446 0.0
N1859 N 0.6312 0.49366 0.96216 0.0
N1860 N 0.40349 0.49397 0.95886 0.0
C1861 C 0.46046 0.50682 0.95474 0.0
C1862 C 0.58368 0.50665 0.95658 0.0
C1863 C 0.40337 0.25934 0.93726 0.0
C1864 C 0.4693 0.26815 0.94778 0.0
C1865 C 0.28147 0.25882 0.93841 0.0
C1866 C 0.22237 0.26698 0.95021 0.0
H1867 H 0.44626 0.25289 0.92806 0.0
H1868 H 0.23307 0.25215 0.92993 0.0
S1869 S 0.35603 0.29027 0.98167 0.0
N1870 N 0.46733 0.28428 0.97102 0.0
N1871 N 0.23857 0.2833 0.97314 0.0
C1872 C 0.28744 0.27556 0.96095 0.0
C1873 C 0.41108 0.27613 0.95976 0.0
C1874 C 0.59104 0.27877 0.83308 0.0
C1875 C 0.65102 0.26905 0.82275 0.0
C1876 C 0.46989 0.278 0.83466 0.0
C1877 C 0.40407 0.26744 0.82602 0.0
H1878 H 0.63805 0.28685 0.84026 0.0
H1879 H 0.42776 0.28568 0.84282 0.0
S1880 S 0.51878 0.24023 0.79642 0.0
N1881 N 0.63489 0.24906 0.80313 0.0
N1882 N 0.40783 0.24762 0.80607 0.0
C1883 C 0.46292 0.25783 0.81544 0.0
C1884 C 0.58614 0.25864 0.81381 0.0
C1885 C 0.2797 0.50697 0.83104 0.0
C1886 C 0.21903 0.51816 0.82258 0.0
C1887 C 0.40081 0.5076 0.83279 0.0
C1888 C 0.46628 0.51946 0.82618 0.0
H1889 H 0.23329 0.49776 0.83661 0.0
H1890 H 0.44315 0.49871 0.83943 0.0
S1891 S 0.34974 0.55128 0.80232 0.0
N1892 N 0.23433 0.54124 0.8071 0.0
N1893 N 0.46096 0.54245 0.81041 0.0
C1894 C 0.40672 0.53063 0.81754 0.0
C1895 C 0.28354 0.52998 0.81573 0.0
C1896 C 0.53257 1.00377 0.57567 0.0
C1897 C 0.47238 1.01748 0.57362 0.0
C1898 C 0.65367 1.00348 0.57755 0.0
C1899 C 0.71893 1.01689 0.57761 0.0
H1900 H 0.48568 0.99318 0.57611 0.0
H1901 H 0.6963 0.99269 0.57914 0.0
S1902 S 0.60428 0.05557 0.57112 0.0
N1903 N 0.48804 0.04467 0.57076 0.0
N1904 N 0.71525 0.04416 0.57431 0.0
C1905 C 0.66003 0.03064 0.57529 0.0
C1906 C 0.53689 0.03092 0.57331 0.0
C1907 C 0.71555 0.2793 0.58301 0.0
C1908 C 0.64936 0.26801 0.57555 0.0
C1909 C 0.83748 0.27938 0.58193 0.0
C1910 C 0.89697 0.26822 0.57328 0.0
H1911 H 0.67286 0.28803 0.58986 0.0
H1912 H 0.88562 0.28805 0.58815 0.0
S1913 S 0.76318 0.23744 0.54991 0.0
N1914 N 0.65177 0.24619 0.55815 0.0
N1915 N 0.88057 0.24633 0.55619 0.0
C1916 C 0.83168 0.2571 0.5655 0.0
C1917 C 0.70788 0.25701 0.56661 0.0
C1918 C 0.6526 0.28257 0.70004 0.0
C1919 C 0.71639 0.2693 0.69721 0.0
C1920 C 0.53169 0.28217 0.70207 0.0
C1921 C 0.46991 0.26846 0.70145 0.0
H1922 H 0.69614 0.29339 0.70058 0.0
H1923 H 0.48628 0.29274 0.70386 0.0
S1924 S 0.59657 0.23034 0.69572 0.0
N1925 N 0.70871 0.2419 0.69481 0.0
N1926 N 0.48226 0.24121 0.69863 0.0
C1927 C 0.53279 0.25508 0.69896 0.0
C1928 C 0.65571 0.25547 0.69685 0.0
C1929 C 0.82698 1.00316 0.69814 0.0
C1930 C 0.89046 1.01657 0.70021 0.0
C1931 C 0.70537 1.00333 0.69713 0.0
C1932 C 0.64255 1.01693 0.69812 0.0
H1933 H 0.87148 0.99243 0.69713 0.0
H1934 H 0.66037 0.99271 0.69551 0.0
S1935 S 0.76751 0.05506 0.7048 0.0
N1936 N 0.88123 0.04375 0.704 0.0
N1937 N 0.65327 0.04411 0.70213 0.0
C1938 C 0.70508 0.03042 0.70036 0.0
C1939 C 0.82879 0.03023 0.7014 0.0
C1940 C 0.58835 1.0065 0.45346 0.0
C1941 C 0.65164 0.01893 0.44775 0.0
C1942 C 0.46664 1.00616 0.4525 0.0
C1943 C 0.40463 0.01822 0.44574 0.0
H1944 H 0.633 0.99712 0.459 0.0
H1945 H 0.42068 0.99661 0.45749 0.0
S1946 S 0.53139 0.05222 0.42694 0.0
N1947 N 0.6448 0.04278 0.43368 0.0
N1948 N 0.41598 0.04222 0.43196 0.0
C1949 C 0.46733 0.03044 0.43951 0.0
C1950 C 0.591 0.03078 0.44048 0.0
C1951 C 0.40162 0.78019 0.44772 0.0
C1952 C 0.46332 0.76644 0.44763 0.0
C1953 C 0.28033 0.78057 0.4494 0.0
C1954 C 0.21545 0.76724 0.45125 0.0
H1955 H 0.44718 0.79083 0.44668 0.0
H1956 H 0.23721 0.79144 0.44939 0.0
S1957 S 0.33216 0.72821 0.45041 0.0
N1958 N 0.44796 0.73905 0.44859 0.0
N1959 N 0.22061 0.73984 0.45183 0.0
C1960 C 0.27525 0.7534 0.4509 0.0
C1961 C 0.3988 0.75298 0.44906 0.0
C1962 C 0.46372 0.7799 0.33119 0.0
C1963 C 0.39966 0.76697 0.32698 0.0
C1964 C 0.58469 0.78044 0.32929 0.0
C1965 C 0.64654 0.7681 0.32305 0.0
H1966 H 0.4203 0.78976 0.33593 0.0
H1967 H 0.62989 0.7906 0.33288 0.0
S1968 S 0.52002 0.73149 0.31019 0.0
N1969 N 0.40778 0.74146 0.31633 0.0
N1970 N 0.634 0.7425 0.31266 0.0
C1971 C 0.58347 0.7551 0.31874 0.0
C1972 C 0.4605 0.75453 0.32074 0.0
C1973 C 0.28218 0.03077 0.3195 0.0
C1974 C 0.21787 1.01804 0.32421 0.0
C1975 C 0.40389 0.031 0.32053 0.0
C1976 C 0.46686 0.01852 0.32633 0.0
H1977 H 0.23844 0.04071 0.31503 0.0
H1978 H 0.44871 0.04109 0.31666 0.0
S1979 S 0.34043 0.98225 0.34018 0.0
N1980 N 0.22739 0.99249 0.33489 0.0
N1981 N 0.45476 0.99298 0.33682 0.0
C1982 C 0.40365 1.0057 0.33111 0.0
C1983 C 0.2798 1.00545 0.33004 0.0
C1984 C 0.15669 0.5267 0.58475 0.0
C1985 C 0.22369 0.51608 0.57634 0.0
C1986 C 1.03575 0.52756 0.58276 0.0
C1987 C 0.97695 0.5179 0.57223 0.0
H1988 H 0.19774 0.53436 0.59301 0.0
H1989 H 0.98792 0.5357 0.58978 0.0
S1990 S 0.11274 0.489 0.54634 0.0
N1991 N 0.22222 0.49627 0.55635 0.0
N1992 N 0.99583 0.49792 0.55267 0.0
C1993 C 1.04308 0.50745 0.56352 0.0
C1994 C 0.16604 0.50653 0.56556 0.0
C1995 C 0.33277 0.781 0.57007 0.0
C1996 C 0.39572 0.76752 0.57212 0.0
C1997 C 0.2114 0.78141 0.57198 0.0
C1998 C 0.14803 0.76836 0.57604 0.0
H1999 H 0.37756 0.79139 0.56719 0.0
H2000 H 0.16713 0.79206 0.57017 0.0
S2001 S 0.27198 0.73001 0.58232 0.0
N2002 N 0.38497 0.74068 0.57806 0.0
N2003 N 0.15899 0.74143 0.58181 0.0
C2004 C 0.21037 0.75478 0.57805 0.0
C2005 C 0.33342 0.75436 0.57604 0.0
C2006 C 1.04073 0.7784 0.70741 0.0
C2007 C 0.97522 0.76694 0.70011 0.0
C2008 C 0.1619 0.77901 0.7058 0.0
C2009 C 0.22246 0.76824 0.69674 0.0
H2010 H 0.99831 0.78698 0.71449 0.0
H2011 H 0.20832 0.78792 0.71187 0.0
S2012 S 0.09107 0.73629 0.67458 0.0
N2013 N 0.97995 0.74477 0.68311 0.0
N2014 N 0.20678 0.74598 0.67997 0.0
C2015 C 0.1578 0.7568 0.68923 0.0
C2016 C 1.03456 0.75613 0.69095 0.0
C2017 C 0.20706 0.50604 0.7059 0.0
C2018 C 0.14598 0.5172 0.69746 0.0
C2019 C 0.32811 0.50671 0.70759 0.0
C2020 C 0.39304 0.51862 0.701 0.0
H2021 H 0.16114 0.49675 0.71139 0.0
H2022 H 0.37087 0.4978 0.71414 0.0
S2023 S 0.27554 0.55055 0.67742 0.0
N2024 N 0.16053 0.54041 0.68213 0.0
N2025 N 0.38702 0.54173 0.68544 0.0
C2026 C 0.33315 0.52984 0.69249 0.0
C2027 C 0.21005 0.52911 0.69067 0.0
C2028 C 0.96278 0.53241 0.45141 0.0
C2029 C 0.89944 0.51956 0.44681 0.0
C2030 C 0.0836 0.53182 0.45354 0.0
C2031 C 0.14608 0.51832 0.45126 0.0
H2032 H 0.9189 0.54307 0.45331 0.0
H2033 H 0.12833 0.54212 0.45675 0.0
S2034 S 1.02045 0.48114 0.44041 0.0
N2035 N 0.90804 0.49269 0.44086 0.0
N2036 N 0.13432 0.4916 0.44488 0.0
C2037 C 0.08354 0.5053 0.44697 0.0
C2038 C 0.96061 0.50592 0.44474 0.0
C2039 C 0.90915 0.25543 0.45182 0.0
C2040 C 0.97218 0.26855 0.44785 0.0
C2041 C 0.78739 0.25553 0.45281 0.0
C2042 C 0.72316 0.26875 0.4499 0.0
H2043 H 0.95396 0.24493 0.45421 0.0
H2044 H 0.74352 0.2451 0.45578 0.0
S2045 S 0.84594 0.30631 0.43943 0.0
N2046 N 0.96025 0.29524 0.44122 0.0
N2047 N 0.73278 0.29547 0.4431 0.0
C2048 C 0.78514 0.28199 0.44598 0.0
C2049 C 0.90902 0.28187 0.44494 0.0
C2050 C 0.09347 0.28037 0.32579 0.0
C2051 C 0.15717 0.26699 0.32341 0.0
C2052 C 0.9722 0.28016 0.32751 0.0
C2053 C 0.90925 0.26653 0.3271 0.0
H2054 H 0.13755 0.29116 0.32624 0.0
H2055 H 0.92768 0.29083 0.32903 0.0
S2056 S 1.03641 0.22819 0.32245 0.0
N2057 N 0.14911 0.23966 0.32155 0.0
N2058 N 0.92193 0.23916 0.32486 0.0
C2059 C 0.97246 0.25302 0.32503 0.0
C2060 C 0.09598 0.25327 0.32316 0.0
C2061 C 0.90951 0.53105 0.32029 0.0
C2062 C 0.97253 0.51908 0.32717 0.0
C2063 C 0.78784 0.53069 0.31924 0.0
C2064 C 0.72358 0.51833 0.32498 0.0
H2065 H 0.9543 0.54076 0.31548 0.0
H2066 H 0.74417 0.54019 0.3138 0.0
S2067 S 0.84584 0.48433 0.34475 0.0
N2068 N 0.96024 0.49468 0.34031 0.0
N2069 N 0.73287 0.49395 0.3383 0.0
C2070 C 0.78541 0.50635 0.33208 0.0
C2071 C 0.90926 0.50674 0.33319 0.0
C2072 C 1.03893 1.00514 0.07281 0.0
C2073 C 0.97526 0.0185 0.07523 0.0
C2074 C 0.16062 1.00496 0.07393 0.0
C2075 C 0.2241 1.01812 0.07755 0.0
H2076 H 0.99464 0.99466 0.07016 0.0
H2077 H 0.20504 0.99435 0.07193 0.0
S2078 S 0.09947 0.05626 0.08447 0.0
N2079 N 0.98589 0.04541 0.08108 0.0
N2080 N 0.21326 0.04502 0.08322 0.0
C2081 C 0.1615 0.03159 0.07994 0.0
C2082 C 1.0377 0.03179 0.07876 0.0
C2083 C 0.21769 0.26084 0.08752 0.0
C2084 C 0.15047 0.26899 0.07655 0.0
C2085 C 0.33909 0.26006 0.08612 0.0
C2086 C 0.39764 0.26735 0.07366 0.0
H2087 H 0.17642 0.25517 0.0974 0.0
H2088 H 0.38756 0.25399 0.09508 0.0
S2089 S 0.26117 0.2884 0.04063 0.0
N2090 N 0.15109 0.28333 0.05198 0.0
N2091 N 0.37896 0.28191 0.04945 0.0
C2092 C 0.3314 0.27516 0.06236 0.0
C2093 C 0.20791 0.27596 0.06377 0.0
C2094 C 1.02831 0.26343 0.18818 0.0
C2095 C 0.96969 0.26824 0.20197 0.0
C2096 C 0.15043 0.26349 0.18724 0.0
C2097 C 0.21855 0.26847 0.20001 0.0
H2098 H 0.9794 0.25974 0.17793 0.0
H2099 H 0.1917 0.25984 0.17636 0.0
S2100 S 0.1091 0.28025 0.23942 0.0
N2101 N 0.99017 0.27684 0.22909 0.0
N2102 N 0.2191 0.27706 0.22731 0.0
C2103 C 0.1613 0.27297 0.21396 0.0
C2104 C 1.03711 0.27286 0.21494 0.0
C2105 C 0.34168 0.03066 0.19808 0.0
C2106 C 0.40486 1.01742 0.20141 0.0
C2107 C 0.22038 0.03044 0.19646 0.0
C2108 C 0.15677 1.01694 0.19792 0.0
H2109 H 0.38615 0.04136 0.1968 0.0
H2110 H 0.17636 0.04101 0.19415 0.0
S2111 S 0.28206 0.9789 0.2055 0.0
N2112 N 0.39538 0.9903 0.20539 0.0
N2113 N 0.16815 0.98978 0.20231 0.0
C2114 C 0.21939 1.00354 0.20097 0.0
C2115 C 0.34298 1.00381 0.20273 0.0
C2116 C 0.96127 1.00559 0.94807 0.0
C2117 C 0.89816 0.01918 0.94882 0.0
C2118 C 0.08303 1.00546 0.94915 0.0
C2119 C 0.14688 0.0189 0.95108 0.0
H2120 H 0.91644 0.9949 0.9469 0.0
H2121 H 0.12716 0.99467 0.9486 0.0
S2122 S 1.02437 0.05767 0.9523 0.0
N2123 N 0.91005 0.04657 0.95062 0.0
N2124 N 0.13766 0.04628 0.95269 0.0
C2125 C 0.08505 0.0326 0.95149 0.0
C2126 C 0.96124 0.03275 0.95034 0.0
C2127 C 0.90048 0.75493 0.94608 0.0
C2128 C 0.96734 0.76795 0.94866 0.0
C2129 C 0.77947 0.75514 0.94815 0.0
C2130 C 0.72141 0.76835 0.95299 0.0
H2131 H 0.94174 0.74457 0.94224 0.0
H2132 H 0.7308 0.74497 0.94558 0.0
S2133 S 0.85846 0.8048 0.96344 0.0
N2134 N 0.96784 0.79402 0.95774 0.0
N2135 N 0.74051 0.79436 0.96154 0.0
C2136 C 0.78755 0.7813 0.95604 0.0
C2137 C 0.91056 0.78111 0.95392 0.0
C2138 C 0.08134 0.78097 0.8276 0.0
C2139 C 0.14361 0.76735 0.82619 0.0
C2140 C 0.95958 0.78109 0.82852 0.0
C2141 C 0.89529 0.76758 0.82814 0.0
H2142 H 0.1267 0.79168 0.82772 0.0
H2143 H 0.91569 0.79188 0.8292 0.0
S2144 S 1.01745 0.72878 0.82624 0.0
N2145 N 0.13194 0.73994 0.82558 0.0
N2146 N 0.90422 0.74013 0.82738 0.0
C2147 C 0.9569 0.75386 0.82725 0.0
C2148 C 0.08061 0.75375 0.82625 0.0
C2149 C 0.78324 0.03221 0.82288 0.0
C2150 C 0.72165 0.01848 0.82345 0.0
C2151 C 0.90405 0.03267 0.82501 0.0
C2152 C 0.96806 0.01944 0.82792 0.0
H2153 H 0.73775 0.04277 0.82108 0.0
H2154 H 0.94737 0.04351 0.82453 0.0
S2155 S 0.84981 0.98043 0.82915 0.0
N2156 N 0.73506 0.99122 0.82619 0.0
N2157 N 0.96151 0.99206 0.83022 0.0
C2158 C 0.9079 1.00559 0.8282 0.0
C2159 C 0.78499 1.00512 0.82596 0.0
C2160 C 0.07417 0.50657 0.0234 0.0
C2161 C 0.06779 0.5211 0.02989 0.0
C2162 C 0.07392 0.50448 1.00693 0.0
C2163 C 0.06735 0.51686 0.99651 0.0
H2164 H 0.07687 0.49677 0.03105 0.0
H2165 H 0.07731 0.49307 1.00233 0.0
S2166 S 0.06604 0.55722 1.00774 0.0
N2167 N 0.06561 0.54809 0.02478 0.0
N2168 N 0.06521 0.54408 0.99388 0.0
C2169 C 0.06435 0.53142 1.0029 0.0
C2170 C 0.06472 0.53356 0.01961 0.0
C2171 C 0.20644 0.76584 1.00429 0.0
C2172 C 0.30447 0.77113 0.9961 0.0
C2173 C 0.20687 0.7648 0.02086 0.0
C2174 C 0.30499 0.76917 0.02962 0.0
H2175 H 0.1297 0.76234 0.99784 0.0
H2176 H 0.13133 0.76021 0.02682 0.0
S2177 S 0.57736 0.78542 0.0138 0.0
N2178 N 0.49805 0.78188 0.99792 0.0
N2179 N 0.49893 0.77985 0.02911 0.0
C2180 C 0.40216 0.77481 0.02158 0.0
C2181 C 0.40187 0.77583 1.00476 0.0
C2182 C 0.14624 0.77616 0.26931 0.0
C2183 C 0.06346 0.76917 0.27921 0.0
C2184 C 0.1531 0.77273 0.2531 0.0
C2185 C 0.07907 0.76196 0.24633 0.0
H2186 H 0.2069 0.7843 0.27411 0.0
H2187 H 0.21895 0.7782 0.24595 0.0
S2188 S 0.84075 0.74146 0.26652 0.0
N2189 N 0.90051 0.75176 0.28063 0.0
N2190 N 0.91574 0.74507 0.25028 0.0
C2191 C 0.99458 0.75512 0.25594 0.0
C2192 C 0.98623 0.75877 0.27237 0.0
C2193 C 0.32744 0.53327 0.25804 0.0
C2194 C 0.28338 0.52312 0.24667 0.0
C2195 C 0.34446 0.52884 0.27388 0.0
C2196 C 0.31819 0.51408 0.27883 0.0
H2197 H 0.35069 0.54466 0.25462 0.0
H2198 H 0.38022 0.5369 0.28219 0.0
S2199 S 0.18921 0.48377 0.25406 0.0
N2200 N 0.20664 0.49806 0.24176 0.0
N2201 N 0.23772 0.48972 0.27135 0.0
C2202 C 0.2711 0.504 0.26765 0.0
C2203 C 0.25405 0.50851 0.2516 0.0
C2204 C 0.76612 0.28089 1.00692 0.0
C2205 C 0.7956 0.26937 0.99611 0.0
C2206 C 0.76713 0.27832 0.02332 0.0
C2207 C 0.79755 0.26415 0.02946 0.0
H2208 H 0.74415 0.29208 1.00272 0.0
H2209 H 0.74619 0.28756 0.03123 0.0
S2210 S 0.86781 0.22981 1.00616 0.0
N2211 N 0.8483 0.24309 0.99272 0.0
N2212 N 0.84792 0.23811 0.02345 0.0
C2213 C 0.82384 0.25244 0.01877 0.0
C2214 C 0.82356 0.2551 1.00211 0.0
C2215 C 0.14974 0.27488 0.76915 0.0
C2216 C 1.05363 0.27107 0.77865 0.0
C2217 C 0.14667 0.27308 0.75266 0.0
C2218 C 1.04726 0.26739 0.74508 0.0
H2219 H 0.22834 0.27925 0.77451 0.0
H2220 H 0.22333 0.27596 0.74585 0.0
S2221 S 0.76951 0.25677 0.76442 0.0
N2222 N 0.85441 0.26199 0.77918 0.0
N2223 N 0.84837 0.25864 0.7482 0.0
C2224 C 0.94994 0.26374 0.7544 0.0
C2225 C 0.95322 0.26553 0.7712 0.0
C2226 C 0.80816 0.5036 0.76862 0.0
C2227 C 0.80184 0.51566 0.77945 0.0
C2228 C 0.80524 0.50618 0.75223 0.0
C2229 C 0.79581 0.52089 0.74624 0.0
H2230 H 0.81686 0.49212 0.77285 0.0
H2231 H 0.81302 0.49668 0.74425 0.0
S2232 S 0.75947 0.55597 0.7696 0.0
N2233 N 0.77423 0.54255 0.78303 0.0
N2234 N 0.76974 0.54748 0.75225 0.0
C2235 C 0.78599 0.53296 0.75693 0.0
C2236 C 0.78885 0.53032 0.77357 0.0
C2237 C 0.12245 0.03105 0.52009 0.0
C2238 C 0.06646 0.02033 0.52971 0.0
C2239 C 0.12411 0.02946 0.50356 0.0
C2240 C 0.06896 1.01718 0.49627 0.0
H2241 H 0.16495 0.04071 0.5254 0.0
H2242 H 0.16916 0.0378 0.49647 0.0
S2243 S 0.90601 0.98654 0.51617 0.0
N2244 N 0.95197 0.99738 0.53081 0.0
N2245 N 0.95472 0.99439 0.49971 0.0
C2246 C 1.0119 1.0065 0.50575 0.0
C2247 C 1.01069 1.00808 0.52253 0.0
C2248 C 0.30497 0.2832 0.5079 0.0
C2249 C 0.32939 0.27256 0.4959 0.0
C2250 C 0.28786 0.27878 0.52373 0.0
C2251 C 0.29391 0.26352 0.52814 0.0
H2252 H 0.29821 0.29508 0.50502 0.0
H2253 H 0.26886 0.28734 0.53251 0.0
S2254 S 0.36304 0.23134 0.50152 0.0
N2255 N 0.36471 0.24623 0.4898 0.0
N2256 N 0.33089 0.23782 0.5193 0.0
C2257 C 0.3198 0.25281 0.51629 0.0
C2258 C 0.3379 0.25734 0.50024 0.0
C2259 C 0.20525 0.01862 0.77171 0.0
C2260 C 0.30709 1.0151 0.7801 0.0
C2261 C 0.20588 0.0196 0.75512 0.0
C2262 C 0.30819 1.01691 0.74647 0.0
H2263 H 0.12516 0.02087 0.77803 0.0
H2264 H 0.12698 0.02293 0.74906 0.0
S2265 S 0.59281 1.00524 0.76274 0.0
N2266 N 0.5096 1.00754 0.77851 0.0
N2267 N 0.51077 1.00944 0.74731 0.0
C2268 C 0.40931 1.0129 0.75469 0.0
C2269 C 0.40882 1.01196 0.77154 0.0
C2270 C 0.84484 0.75804 0.5006 0.0
C2271 C 0.8212 0.77294 0.49583 0.0
C2272 C 0.82741 0.75344 0.51636 0.0
C2273 C 0.78495 0.76353 0.5279 0.0
H2274 H 0.87821 0.74993 0.49215 0.0
H2275 H 0.84864 0.74193 0.51957 0.0
S2276 S 0.69765 0.80326 0.52103 0.0
N2277 N 0.74628 0.79746 0.50368 0.0
N2278 N 0.71146 0.78871 0.5331 0.0
C2279 C 0.75812 0.77831 0.52316 0.0
C2280 C 0.77667 0.78303 0.50718 0.0
C2281 C 0.81014 0.03266 0.25835 0.0
C2282 C 0.78887 0.02208 0.24623 0.0
C2283 C 0.82582 0.02811 0.27418 0.0
C2284 C 0.82119 1.01279 0.27848 0.0
H2285 H 0.8156 0.04458 0.25558 0.0
H2286 H 0.84233 0.03665 0.28307 0.0
S2287 S 0.76305 0.98066 0.25142 0.0
N2288 N 0.76012 0.99564 0.23982 0.0
N2289 N 0.79075 0.98708 0.26936 0.0
C2290 C 0.79899 1.00213 0.2665 0.0
C2291 C 0.78255 1.00677 0.25044 0.0
C2292 C 0.65844 0.51487 0.52082 0.0
C2293 C 0.55696 0.51918 0.5289 0.0
C2294 C 0.6583 0.51302 0.50432 0.0
C2295 C 0.55686 0.51542 0.49538 0.0
H2296 H 0.73901 0.51325 0.52722 0.0
H2297 H 0.73859 0.50985 0.49849 0.0
S2298 S 0.26536 0.52489 0.51123 0.0
N2299 N 0.35033 0.52449 0.52697 0.0
N2300 N 0.35029 0.52109 0.49598 0.0
C2301 C 0.45417 0.51931 0.50338 0.0
C2302 C 0.45419 0.52114 0.52016 0.0
C2303 C 0.51928 0.78035 0.76861 0.0
C2304 C 0.56592 0.76947 0.77895 0.0
C2305 C 0.52202 0.77823 0.75214 0.0
C2306 C 0.57193 0.7652 0.7456 0.0
H2307 H 0.48028 0.79054 0.77331 0.0
H2308 H 0.48329 0.78668 0.74452 0.0
S2309 S 0.71377 0.73404 0.76747 0.0
N2310 N 0.66968 0.74579 0.78143 0.0
N2311 N 0.67283 0.74161 0.75049 0.0
C2312 C 0.62027 0.75439 0.75578 0.0
C2313 C 0.61786 0.75658 0.77249 0.0
C2314 C 0.55918 0.28203 0.26654 0.0
C2315 C 0.54342 0.27132 0.27869 0.0
C2316 C 0.5765 0.27759 0.25072 0.0
C2317 C 0.57914 0.26224 0.24643 0.0
H2318 H 0.55877 0.29397 0.26928 0.0
H2319 H 0.58799 0.28624 0.2418 0.0
S2320 S 0.53922 0.22975 0.27356 0.0
N2321 N 0.52877 0.2447 0.28515 0.0
N2322 N 0.56262 0.23636 0.25558 0.0
C2323 C 0.56285 0.25145 0.25843 0.0
C2324 C 0.54468 0.25597 0.2745 0.0
C2325 C 0.5811 1.00797 0.02498 0.0
C2326 C 0.57551 0.02322 0.02947 0.0
C2327 C 0.56361 1.00361 1.00913 0.0
C2328 C 0.53928 1.01429 0.99718 0.0
H2329 H 0.59986 0.99937 0.03371 0.0
H2330 H 0.57003 0.99173 1.00621 0.0
S2331 S 0.50698 0.05551 1.00302 0.0
N2332 N 0.53935 0.04896 0.02076 0.0
N2333 N 0.50457 0.04066 0.99122 0.0
C2334 C 0.53128 0.0295 1.0016 0.0
C2335 C 0.54982 0.03397 0.01767 0.0
loop_
_geom_bond_atom_site_label_1
_geom_bond_atom_site_label_2
_geom_bond_distance
_geom_bond_site_symmetry_2
_ccdc_geom_bond_type
Nd0 C2 2.836 1_455 S
Nd0 O20 2.500 1_455 S
Nd0 O21 2.492 1_455 S
Nd0 O22 2.487 . S
Nd0 O23 2.682 . S
Nd0 O24 2.410 1_455 S
Nd0 O29 2.414 . S
Nd0 O31 2.424 . S
Nd1 C11 2.836 1_655 S
Nd1 O23 2.414 1_655 S
Nd1 O25 2.424 . S
Nd1 O26 2.500 1_655 S
Nd1 O27 2.492 1_655 S
Nd1 O28 2.487 . S
Nd1 O29 2.682 1_655 S
Nd1 O30 2.410 1_655 S
C2 Nd0 2.836 1_655 S
C2 C3 1.498 . S
C2 O20 1.258 . S
C2 O21 1.239 . S
C3 C2 1.498 . S
C3 C4 1.366 . S
C3 C8 1.407 . S
C4 C3 1.366 . S
C4 C5 1.392 . S
C4 H32 0.930 . S
C5 C4 1.392 . S
C5 C6 1.398 . S
C5 H33 0.929 . S
C6 C5 1.398 . S
C6 C7 1.352 . S
C7 C6 1.352 . S
C7 C8 1.384 . S
C7 H34 0.930 . S
C8 C3 1.407 . S
C8 C7 1.384 . S
C8 H35 0.929 . S
C9 O22 1.241 . S
C9 O23 1.273 . S
C10 O24 1.251 . S
C10 O25 1.268 . S
C11 Nd1 2.836 1_455 S
C11 C12 1.498 . S
C11 O26 1.258 . S
C11 O27 1.239 . S
C12 C11 1.498 . S
C12 C13 1.366 . S
C12 C17 1.407 . S
C13 C12 1.366 . S
C13 C14 1.392 . S
C13 H36 0.930 . S
C14 C13 1.392 . S
C14 C15 1.398 . S
C14 H37 0.929 . S
C15 C14 1.398 . S
C15 C16 1.352 . S
C16 C15 1.352 . S
C16 C17 1.384 . S
C16 H38 0.930 . S
C17 C12 1.407 . S
C17 C16 1.384 . S
C17 H39 0.929 . S
C18 O28 1.241 . S
C18 O29 1.273 1_655 S
C19 O30 1.251 . S
C19 O31 1.268 . S
O20 Nd0 2.500 1_655 S
O20 C2 1.258 . S
O21 Nd0 2.492 1_655 S
O21 C2 1.239 . S
O22 Nd0 2.487 . S
O22 C9 1.241 . S
O23 Nd0 2.682 . S
O23 Nd1 2.414 1_455 S
O23 C9 1.273 . S
O24 Nd0 2.410 1_655 S
O24 C10 1.251 . S
O25 Nd1 2.424 . S
O25 C10 1.268 . S
O26 Nd1 2.500 1_455 S
O26 C11 1.258 . S
O27 Nd1 2.492 1_455 S
O27 C11 1.239 . S
O28 Nd1 2.487 . S
O28 C18 1.241 . S
O29 Nd0 2.414 . S
O29 Nd1 2.682 1_455 S
O29 C18 1.273 1_455 S
O30 Nd1 2.410 1_455 S
O30 C19 1.251 . S
O31 Nd0 2.424 . S
O31 C19 1.268 . S
H32 C4 0.930 . S
H33 C5 0.929 . S
H34 C7 0.930 . S
H35 C8 0.929 . S
H36 C13 0.930 . S
H37 C14 0.929 . S
H38 C16 0.930 . S
H39 C17 0.929 . S
Nd40 C42 2.836 . S
Nd40 O60 2.500 . S
Nd40 O61 2.492 . S
Nd40 O62 2.487 . S
Nd40 O63 2.682 . S
Nd40 O64 2.410 . S
Nd40 O69 2.414 . S
Nd40 O71 2.424 . S
Nd41 C51 2.836 . S
Nd41 O63 2.414 . S
Nd41 O65 2.424 . S
Nd41 O66 2.500 . S
Nd41 O67 2.492 . S
Nd41 O68 2.487 . S
Nd41 O69 2.682 . S
Nd41 O70 2.410 . S
C42 Nd40 2.836 . S
C42 C43 1.498 . S
C42 O60 1.258 . S
C42 O61 1.239 . S
C43 C42 1.498 . S
C43 C44 1.366 . S
C43 C48 1.407 . S
C44 C43 1.366 . S
C44 C45 1.392 . S
C44 H72 0.930 . S
C45 C44 1.392 . S
C45 C46 1.398 . S
C45 H73 0.929 . S
C46 C45 1.398 . S
C46 C47 1.352 . S
C47 C46 1.352 . S
C47 C48 1.384 . S
C47 H74 0.930 . S
C48 C43 1.407 . S
C48 C47 1.384 . S
C48 H75 0.929 . S
C49 O62 1.241 . S
C49 O63 1.273 . S
C50 O64 1.251 . S
C50 O65 1.268 . S
C51 Nd41 2.836 . S
C51 C52 1.498 . S
C51 O66 1.258 . S
C51 O67 1.239 . S
C52 C51 1.498 . S
C52 C53 1.366 . S
C52 C57 1.407 . S
C53 C52 1.366 . S
C53 C54 1.392 1_455 S
C53 H76 0.930 . S
C54 C53 1.392 1_655 S
C54 C55 1.398 . S
C54 H77 0.929 . S
C55 C54 1.398 . S
C55 C56 1.352 1_655 S
C56 C55 1.352 1_455 S
C56 C57 1.384 . S
C56 H78 0.930 . S
C57 C52 1.407 . S
C57 C56 1.384 . S
C57 H79 0.929 . S
C58 O68 1.241 . S
C58 O69 1.273 . S
C59 O70 1.251 . S
C59 O71 1.268 . S
O60 Nd40 2.500 . S
O60 C42 1.258 . S
O61 Nd40 2.492 . S
O61 C42 1.239 . S
O62 Nd40 2.487 . S
O62 C49 1.241 . S
O63 Nd40 2.682 . S
O63 Nd41 2.414 . S
O63 C49 1.273 . S
O64 Nd40 2.410 . S
O64 C50 1.251 . S
O65 Nd41 2.424 . S
O65 C50 1.268 . S
O66 Nd41 2.500 . S
O66 C51 1.258 . S
O67 Nd41 2.492 . S
O67 C51 1.239 . S
O68 Nd41 2.487 . S
O68 C58 1.241 . S
O69 Nd40 2.414 . S
O69 Nd41 2.682 . S
O69 C58 1.273 . S
O70 Nd41 2.410 . S
O70 C59 1.251 . S
O71 Nd40 2.424 . S
O71 C59 1.268 . S
H72 C44 0.930 . S
H73 C45 0.929 . S
H74 C47 0.930 . S
H75 C48 0.929 . S
H76 C53 0.930 . S
H77 C54 0.929 . S
H78 C56 0.930 . S
H79 C57 0.929 . S
Nd80 C82 2.836 1_455 S
Nd80 O100 2.500 1_455 S
Nd80 O101 2.492 1_455 S
Nd80 O102 2.487 . S
Nd80 O103 2.682 . S
Nd80 O104 2.410 1_455 S
Nd80 O109 2.414 . S
Nd80 O111 2.424 . S
Nd81 C91 2.836 1_655 S
Nd81 O103 2.414 1_655 S
Nd81 O105 2.424 . S
Nd81 O106 2.500 1_655 S
Nd81 O107 2.492 1_655 S
Nd81 O108 2.487 . S
Nd81 O109 2.682 1_655 S
Nd81 O110 2.410 1_655 S
C82 Nd80 2.836 1_655 S
C82 C83 1.498 . S
C82 O100 1.258 . S
C82 O101 1.239 . S
C83 C82 1.498 . S
C83 C84 1.366 . S
C83 C88 1.407 . S
C84 C83 1.366 . S
C84 C85 1.392 . S
C84 H112 0.930 . S
C85 C84 1.392 . S
C85 C86 1.398 . S
C85 H113 0.929 . S
C86 C85 1.398 . S
C86 C87 1.352 . S
C87 C86 1.352 . S
C87 C88 1.384 . S
C87 H114 0.930 . S
C88 C83 1.407 . S
C88 C87 1.384 . S
C88 H115 0.929 . S
C89 O102 1.241 . S
C89 O103 1.273 . S
C90 O104 1.251 . S
C90 O105 1.268 . S
C91 Nd81 2.836 1_455 S
C91 C92 1.498 . S
C91 O106 1.258 . S
C91 O107 1.239 . S
C92 C91 1.498 . S
C92 C93 1.366 . S
C92 C97 1.407 . S
C93 C92 1.366 . S
C93 C94 1.392 . S
C93 H116 0.930 . S
C94 C93 1.392 . S
C94 C95 1.398 . S
C94 H117 0.929 . S
C95 C94 1.398 . S
C95 C96 1.352 . S
C96 C95 1.352 . S
C96 C97 1.384 . S
C96 H118 0.930 . S
C97 C92 1.407 . S
C97 C96 1.384 . S
C97 H119 0.929 . S
C98 O108 1.241 . S
C98 O109 1.273 1_655 S
C99 O110 1.251 . S
C99 O111 1.268 . S
O100 Nd80 2.500 1_655 S
O100 C82 1.258 . S
O101 Nd80 2.492 1_655 S
O101 C82 1.239 . S
O102 Nd80 2.487 . S
O102 C89 1.241 . S
O103 Nd80 2.682 . S
O103 Nd81 2.414 1_455 S
O103 C89 1.273 . S
O104 Nd80 2.410 1_655 S
O104 C90 1.251 . S
O105 Nd81 2.424 . S
O105 C90 1.268 . S
O106 Nd81 2.500 1_455 S
O106 C91 1.258 . S
O107 Nd81 2.492 1_455 S
O107 C91 1.239 . S
O108 Nd81 2.487 . S
O108 C98 1.241 . S
O109 Nd80 2.414 . S
O109 Nd81 2.682 1_455 S
O109 C98 1.273 1_455 S
O110 Nd81 2.410 1_455 S
O110 C99 1.251 . S
O111 Nd80 2.424 . S
O111 C99 1.268 . S
H112 C84 0.930 . S
H113 C85 0.929 . S
H114 C87 0.930 . S
H115 C88 0.929 . S
H116 C93 0.930 . S
H117 C94 0.929 . S
H118 C96 0.930 . S
H119 C97 0.929 . S
Nd120 C122 2.836 . S
Nd120 O140 2.500 . S
Nd120 O141 2.492 . S
Nd120 O142 2.487 . S
Nd120 O143 2.682 . S
Nd120 O144 2.410 . S
Nd120 O149 2.414 . S
Nd120 O151 2.424 . S
Nd121 C131 2.836 . S
Nd121 O143 2.414 . S
Nd121 O145 2.424 . S
Nd121 O146 2.500 . S
Nd121 O147 2.492 . S
Nd121 O148 2.487 . S
Nd121 O149 2.682 . S
Nd121 O150 2.410 . S
C122 Nd120 2.836 . S
C122 C123 1.498 . S
C122 O140 1.258 . S
C122 O141 1.239 . S
C123 C122 1.498 . S
C123 C124 1.366 . S
C123 C128 1.407 . S
C124 C123 1.366 . S
C124 C125 1.392 . S
C124 H152 0.930 . S
C125 C124 1.392 . S
C125 C126 1.398 . S
C125 H153 0.929 . S
C126 C125 1.398 . S
C126 C127 1.352 . S
C127 C126 1.352 . S
C127 C128 1.384 . S
C127 H154 0.930 . S
C128 C123 1.407 . S
C128 C127 1.384 . S
C128 H155 0.929 . S
C129 O142 1.241 . S
C129 O143 1.273 . S
C130 O144 1.251 . S
C130 O145 1.268 . S
C131 Nd121 2.836 . S
C131 C132 1.498 . S
C131 O146 1.258 . S
C131 O147 1.239 . S
C132 C131 1.498 . S
C132 C133 1.366 . S
C132 C137 1.407 . S
C133 C132 1.366 . S
C133 C134 1.392 1_455 S
C133 H156 0.930 . S
C134 C133 1.392 1_655 S
C134 C135 1.398 . S
C134 H157 0.929 . S
C135 C134 1.398 . S
C135 C136 1.352 1_655 S
C136 C135 1.352 1_455 S
C136 C137 1.384 . S
C136 H158 0.930 . S
C137 C132 1.407 . S
C137 C136 1.384 . S
C137 H159 0.929 . S
C138 O148 1.241 . S
C138 O149 1.273 . S
C139 O150 1.251 . S
C139 O151 1.268 . S
O140 Nd120 2.500 . S
O140 C122 1.258 . S
O141 Nd120 2.492 . S
O141 C122 1.239 . S
O142 Nd120 2.487 . S
O142 C129 1.241 . S
O143 Nd120 2.682 . S
O143 Nd121 2.414 . S
O143 C129 1.273 . S
O144 Nd120 2.410 . S
O144 C130 1.251 . S
O145 Nd121 2.424 . S
O145 C130 1.268 . S
O146 Nd121 2.500 . S
O146 C131 1.258 . S
O147 Nd121 2.492 . S
O147 C131 1.239 . S
O148 Nd121 2.487 . S
O148 C138 1.241 . S
O149 Nd120 2.414 . S
O149 Nd121 2.682 . S
O149 C138 1.273 . S
O150 Nd121 2.410 . S
O150 C139 1.251 . S
O151 Nd120 2.424 . S
O151 C139 1.268 . S
H152 C124 0.930 . S
H153 C125 0.929 . S
H154 C127 0.930 . S
H155 C128 0.929 . S
H156 C133 0.930 . S
H157 C134 0.929 . S
H158 C136 0.930 . S
H159 C137 0.929 . S
Nd160 C162 2.836 1_455 S
Nd160 O180 2.500 1_455 S
Nd160 O181 2.492 1_455 S
Nd160 O182 2.487 . S
Nd160 O183 2.682 1_455 S
Nd160 O184 2.410 1_455 S
Nd160 O189 2.414 1_455 S
Nd160 O191 2.424 . S
Nd161 C171 2.836 1_655 S
Nd161 O183 2.414 . S
Nd161 O185 2.424 . S
Nd161 O186 2.500 1_655 S
Nd161 O187 2.492 1_655 S
Nd161 O188 2.487 . S
Nd161 O189 2.682 . S
Nd161 O190 2.410 1_655 S
C162 Nd160 2.836 1_655 S
C162 C163 1.498 . S
C162 O180 1.258 . S
C162 O181 1.239 . S
C163 C162 1.498 . S
C163 C164 1.366 . S
C163 C168 1.407 . S
C164 C163 1.366 . S
C164 C165 1.392 . S
C164 H192 0.930 . S
C165 C164 1.392 . S
C165 C166 1.398 . S
C165 H193 0.929 . S
C166 C165 1.398 . S
C166 C167 1.352 . S
C167 C166 1.352 . S
C167 C168 1.384 . S
C167 H194 0.930 . S
C168 C163 1.407 . S
C168 C167 1.384 . S
C168 H195 0.929 . S
C169 O182 1.241 . S
C169 O183 1.273 1_455 S
C170 O184 1.251 . S
C170 O185 1.268 . S
C171 Nd161 2.836 1_455 S
C171 C172 1.498 . S
C171 O186 1.258 . S
C171 O187 1.239 . S
C172 C171 1.498 . S
C172 C173 1.366 . S
C172 C177 1.407 . S
C173 C172 1.366 . S
C173 C174 1.392 . S
C173 H196 0.930 . S
C174 C173 1.392 . S
C174 C175 1.398 . S
C174 H197 0.929 . S
C175 C174 1.398 . S
C175 C176 1.352 . S
C176 C175 1.352 . S
C176 C177 1.384 . S
C176 H198 0.930 . S
C177 C172 1.407 . S
C177 C176 1.384 . S
C177 H199 0.929 . S
C178 O188 1.241 . S
C178 O189 1.273 . S
C179 O190 1.251 . S
C179 O191 1.268 . S
O180 Nd160 2.500 1_655 S
O180 C162 1.258 . S
O181 Nd160 2.492 1_655 S
O181 C162 1.239 . S
O182 Nd160 2.487 . S
O182 C169 1.241 . S
O183 Nd160 2.682 1_655 S
O183 Nd161 2.414 . S
O183 C169 1.273 1_655 S
O184 Nd160 2.410 1_655 S
O184 C170 1.251 . S
O185 Nd161 2.424 . S
O185 C170 1.268 . S
O186 Nd161 2.500 1_455 S
O186 C171 1.258 . S
O187 Nd161 2.492 1_455 S
O187 C171 1.239 . S
O188 Nd161 2.487 . S
O188 C178 1.241 . S
O189 Nd160 2.414 1_655 S
O189 Nd161 2.682 . S
O189 C178 1.273 . S
O190 Nd161 2.410 1_455 S
O190 C179 1.251 . S
O191 Nd160 2.424 . S
O191 C179 1.268 . S
H192 C164 0.930 . S
H193 C165 0.929 . S
H194 C167 0.930 . S
H195 C168 0.929 . S
H196 C173 0.930 . S
H197 C174 0.929 . S
H198 C176 0.930 . S
H199 C177 0.929 . S
Nd200 C202 2.836 . S
Nd200 O220 2.500 . S
Nd200 O221 2.492 . S
Nd200 O222 2.487 . S
Nd200 O223 2.682 . S
Nd200 O224 2.410 . S
Nd200 O229 2.414 . S
Nd200 O231 2.424 . S
Nd201 C211 2.836 . S
Nd201 O223 2.414 . S
Nd201 O225 2.424 . S
Nd201 O226 2.500 . S
Nd201 O227 2.492 . S
Nd201 O228 2.487 . S
Nd201 O229 2.682 . S
Nd201 O230 2.410 . S
C202 Nd200 2.836 . S
C202 C203 1.498 . S
C202 O220 1.258 . S
C202 O221 1.239 . S
C203 C202 1.498 . S
C203 C204 1.366 . S
C203 C208 1.407 . S
C204 C203 1.366 . S
C204 C205 1.392 1_655 S
C204 H232 0.930 . S
C205 C204 1.392 1_455 S
C205 C206 1.398 . S
C205 H233 0.929 . S
C206 C205 1.398 . S
C206 C207 1.352 1_455 S
C207 C206 1.352 1_655 S
C207 C208 1.384 . S
C207 H234 0.930 . S
C208 C203 1.407 . S
C208 C207 1.384 . S
C208 H235 0.929 . S
C209 O222 1.241 . S
C209 O223 1.273 . S
C210 O224 1.251 . S
C210 O225 1.268 . S
C211 Nd201 2.836 . S
C211 C212 1.498 . S
C211 O226 1.258 . S
C211 O227 1.239 . S
C212 C211 1.498 . S
C212 C213 1.366 . S
C212 C217 1.407 . S
C213 C212 1.366 . S
C213 C214 1.392 . S
C213 H236 0.930 . S
C214 C213 1.392 . S
C214 C215 1.398 . S
C214 H237 0.929 . S
C215 C214 1.398 . S
C215 C216 1.352 . S
C216 C215 1.352 . S
C216 C217 1.384 . S
C216 H238 0.930 . S
C217 C212 1.407 . S
C217 C216 1.384 . S
C217 H239 0.929 . S
C218 O228 1.241 . S
C218 O229 1.273 . S
C219 O230 1.251 . S
C219 O231 1.268 . S
O220 Nd200 2.500 . S
O220 C202 1.258 . S
O221 Nd200 2.492 . S
O221 C202 1.239 . S
O222 Nd200 2.487 . S
O222 C209 1.241 . S
O223 Nd200 2.682 . S
O223 Nd201 2.414 . S
O223 C209 1.273 . S
O224 Nd200 2.410 . S
O224 C210 1.251 . S
O225 Nd201 2.424 . S
O225 C210 1.268 . S
O226 Nd201 2.500 . S
O226 C211 1.258 . S
O227 Nd201 2.492 . S
O227 C211 1.239 . S
O228 Nd201 2.487 . S
O228 C218 1.241 . S
O229 Nd200 2.414 . S
O229 Nd201 2.682 . S
O229 C218 1.273 . S
O230 Nd201 2.410 . S
O230 C219 1.251 . S
O231 Nd200 2.424 . S
O231 C219 1.268 . S
H232 C204 0.930 . S
H233 C205 0.929 . S
H234 C207 0.930 . S
H235 C208 0.929 . S
H236 C213 0.930 . S
H237 C214 0.929 . S
H238 C216 0.930 . S
H239 C217 0.929 . S
Nd240 C242 2.836 1_455 S
Nd240 O260 2.500 1_455 S
Nd240 O261 2.492 1_455 S
Nd240 O262 2.487 . S
Nd240 O263 2.682 1_455 S
Nd240 O264 2.410 1_455 S
Nd240 O269 2.414 1_455 S
Nd240 O271 2.424 . S
Nd241 C251 2.836 1_655 S
Nd241 O263 2.414 . S
Nd241 O265 2.424 . S
Nd241 O266 2.500 1_655 S
Nd241 O267 2.492 1_655 S
Nd241 O268 2.487 . S
Nd241 O269 2.682 . S
Nd241 O270 2.410 1_655 S
C242 Nd240 2.836 1_655 S
C242 C243 1.498 . S
C242 O260 1.258 . S
C242 O261 1.239 . S
C243 C242 1.498 . S
C243 C244 1.366 . S
C243 C248 1.407 . S
C244 C243 1.366 . S
C244 C245 1.392 . S
C244 H272 0.930 . S
C245 C244 1.392 . S
C245 C246 1.398 . S
C245 H273 0.929 . S
C246 C245 1.398 . S
C246 C247 1.352 . S
C247 C246 1.352 . S
C247 C248 1.384 . S
C247 H274 0.930 . S
C248 C243 1.407 . S
C248 C247 1.384 . S
C248 H275 0.929 . S
C249 O262 1.241 . S
C249 O263 1.273 1_455 S
C250 O264 1.251 . S
C250 O265 1.268 . S
C251 Nd241 2.836 1_455 S
C251 C252 1.498 . S
C251 O266 1.258 . S
C251 O267 1.239 . S
C252 C251 1.498 . S
C252 C253 1.366 . S
C252 C257 1.407 . S
C253 C252 1.366 . S
C253 C254 1.392 . S
C253 H276 0.930 . S
C254 C253 1.392 . S
C254 C255 1.398 . S
C254 H277 0.929 . S
C255 C254 1.398 . S
C255 C256 1.352 . S
C256 C255 1.352 . S
C256 C257 1.384 . S
C256 H278 0.930 . S
C257 C252 1.407 . S
C257 C256 1.384 . S
C257 H279 0.929 . S
C258 O268 1.241 . S
C258 O269 1.273 . S
C259 O270 1.251 . S
C259 O271 1.268 . S
O260 Nd240 2.500 1_655 S
O260 C242 1.258 . S
O261 Nd240 2.492 1_655 S
O261 C242 1.239 . S
O262 Nd240 2.487 . S
O262 C249 1.241 . S
O263 Nd240 2.682 1_655 S
O263 Nd241 2.414 . S
O263 C249 1.273 1_655 S
O264 Nd240 2.410 1_655 S
O264 C250 1.251 . S
O265 Nd241 2.424 . S
O265 C250 1.268 . S
O266 Nd241 2.500 1_455 S
O266 C251 1.258 . S
O267 Nd241 2.492 1_455 S
O267 C251 1.239 . S
O268 Nd241 2.487 . S
O268 C258 1.241 . S
O269 Nd240 2.414 1_655 S
O269 Nd241 2.682 . S
O269 C258 1.273 . S
O270 Nd241 2.410 1_455 S
O270 C259 1.251 . S
O271 Nd240 2.424 . S
O271 C259 1.268 . S
H272 C244 0.930 . S
H273 C245 0.929 . S
H274 C247 0.930 . S
H275 C248 0.929 . S
H276 C253 0.930 . S
H277 C254 0.929 . S
H278 C256 0.930 . S
H279 C257 0.929 . S
Nd280 C282 2.836 . S
Nd280 O300 2.500 . S
Nd280 O301 2.492 . S
Nd280 O302 2.487 . S
Nd280 O303 2.682 . S
Nd280 O304 2.410 . S
Nd280 O309 2.414 . S
Nd280 O311 2.424 . S
Nd281 C291 2.836 . S
Nd281 O303 2.414 . S
Nd281 O305 2.424 . S
Nd281 O306 2.500 . S
Nd281 O307 2.492 . S
Nd281 O308 2.487 . S
Nd281 O309 2.682 . S
Nd281 O310 2.410 . S
C282 Nd280 2.836 . S
C282 C283 1.498 . S
C282 O300 1.258 . S
C282 O301 1.239 . S
C283 C282 1.498 . S
C283 C284 1.366 . S
C283 C288 1.407 . S
C284 C283 1.366 . S
C284 C285 1.392 1_655 S
C284 H312 0.930 . S
C285 C284 1.392 1_455 S
C285 C286 1.398 . S
C285 H313 0.929 . S
C286 C285 1.398 . S
C286 C287 1.352 1_455 S
C287 C286 1.352 1_655 S
C287 C288 1.384 . S
C287 H314 0.930 . S
C288 C283 1.407 . S
C288 C287 1.384 . S
C288 H315 0.929 . S
C289 O302 1.241 . S
C289 O303 1.273 . S
C290 O304 1.251 . S
C290 O305 1.268 . S
C291 Nd281 2.836 . S
C291 C292 1.498 . S
C291 O306 1.258 . S
C291 O307 1.239 . S
C292 C291 1.498 . S
C292 C293 1.366 . S
C292 C297 1.407 . S
C293 C292 1.366 . S
C293 C294 1.392 . S
C293 H316 0.930 . S
C294 C293 1.392 . S
C294 C295 1.398 . S
C294 H317 0.929 . S
C295 C294 1.398 . S
C295 C296 1.352 . S
C296 C295 1.352 . S
C296 C297 1.384 . S
C296 H318 0.930 . S
C297 C292 1.407 . S
C297 C296 1.384 . S
C297 H319 0.929 . S
C298 O308 1.241 . S
C298 O309 1.273 . S
C299 O310 1.251 . S
C299 O311 1.268 . S
O300 Nd280 2.500 . S
O300 C282 1.258 . S
O301 Nd280 2.492 . S
O301 C282 1.239 . S
O302 Nd280 2.487 . S
O302 C289 1.241 . S
O303 Nd280 2.682 . S
O303 Nd281 2.414 . S
O303 C289 1.273 . S
O304 Nd280 2.410 . S
O304 C290 1.251 . S
O305 Nd281 2.424 . S
O305 C290 1.268 . S
O306 Nd281 2.500 . S
O306 C291 1.258 . S
O307 Nd281 2.492 . S
O307 C291 1.239 . S
O308 Nd281 2.487 . S
O308 C298 1.241 . S
O309 Nd280 2.414 . S
O309 Nd281 2.682 . S
O309 C298 1.273 . S
O310 Nd281 2.410 . S
O310 C299 1.251 . S
O311 Nd280 2.424 . S
O311 C299 1.268 . S
H312 C284 0.930 . S
H313 C285 0.929 . S
H314 C287 0.930 . S
H315 C288 0.929 . S
H316 C293 0.930 . S
H317 C294 0.929 . S
H318 C296 0.930 . S
H319 C297 0.929 . S
Nd320 C322 2.836 1_455 S
Nd320 O340 2.500 1_455 S
Nd320 O341 2.492 1_455 S
Nd320 O342 2.487 . S
Nd320 O343 2.682 1_565 S
Nd320 O344 2.410 1_455 S
Nd320 O349 2.414 . S
Nd320 O351 2.424 . S
Nd321 C331 2.836 1_655 S
Nd321 O343 2.414 1_655 S
Nd321 O345 2.424 . S
Nd321 O346 2.500 1_655 S
Nd321 O347 2.492 1_655 S
Nd321 O348 2.487 . S
Nd321 O349 2.682 1_645 S
Nd321 O350 2.410 1_655 S
C322 Nd320 2.836 1_655 S
C322 C323 1.498 . S
C322 O340 1.258 . S
C322 O341 1.239 . S
C323 C322 1.498 . S
C323 C324 1.366 . S
C323 C328 1.407 . S
C324 C323 1.366 . S
C324 C325 1.392 . S
C324 H352 0.930 . S
C325 C324 1.392 . S
C325 C326 1.398 . S
C325 H353 0.929 . S
C326 C325 1.398 . S
C326 C327 1.352 . S
C327 C326 1.352 . S
C327 C328 1.384 . S
C327 H354 0.930 . S
C328 C323 1.407 . S
C328 C327 1.384 . S
C328 H355 0.929 . S
C329 O342 1.241 . S
C329 O343 1.273 1_565 S
C330 O344 1.251 . S
C330 O345 1.268 1_565 S
C331 Nd321 2.836 1_455 S
C331 C332 1.498 . S
C331 O346 1.258 . S
C331 O347 1.239 . S
C332 C331 1.498 . S
C332 C333 1.366 . S
C332 C337 1.407 . S
C333 C332 1.366 . S
C333 C334 1.392 . S
C333 H356 0.930 . S
C334 C333 1.392 . S
C334 C335 1.398 . S
C334 H357 0.929 . S
C335 C334 1.398 . S
C335 C336 1.352 . S
C336 C335 1.352 . S
C336 C337 1.384 . S
C336 H358 0.930 . S
C337 C332 1.407 . S
C337 C336 1.384 . S
C337 H359 0.929 . S
C338 O348 1.241 . S
C338 O349 1.273 1_645 S
C339 O350 1.251 . S
C339 O351 1.268 1_545 S
O340 Nd320 2.500 1_655 S
O340 C322 1.258 . S
O341 Nd320 2.492 1_655 S
O341 C322 1.239 . S
O342 Nd320 2.487 . S
O342 C329 1.241 . S
O343 Nd320 2.682 1_545 S
O343 Nd321 2.414 1_455 S
O343 C329 1.273 1_545 S
O344 Nd320 2.410 1_655 S
O344 C330 1.251 . S
O345 Nd321 2.424 . S
O345 C330 1.268 1_545 S
O346 Nd321 2.500 1_455 S
O346 C331 1.258 . S
O347 Nd321 2.492 1_455 S
O347 C331 1.239 . S
O348 Nd321 2.487 . S
O348 C338 1.241 . S
O349 Nd320 2.414 . S
O349 Nd321 2.682 1_465 S
O349 C338 1.273 1_465 S
O350 Nd321 2.410 1_455 S
O350 C339 1.251 . S
O351 Nd320 2.424 . S
O351 C339 1.268 1_565 S
H352 C324 0.930 . S
H353 C325 0.929 . S
H354 C327 0.930 . S
H355 C328 0.929 . S
H356 C333 0.930 . S
H357 C334 0.929 . S
H358 C336 0.930 . S
H359 C337 0.929 . S
Nd360 C362 2.836 . S
Nd360 O380 2.500 . S
Nd360 O381 2.492 . S
Nd360 O382 2.487 . S
Nd360 O383 2.682 . S
Nd360 O384 2.410 . S
Nd360 O389 2.414 . S
Nd360 O391 2.424 . S
Nd361 C371 2.836 . S
Nd361 O383 2.414 . S
Nd361 O385 2.424 . S
Nd361 O386 2.500 . S
Nd361 O387 2.492 . S
Nd361 O388 2.487 . S
Nd361 O389 2.682 . S
Nd361 O390 2.410 . S
C362 Nd360 2.836 . S
C362 C363 1.498 . S
C362 O380 1.258 . S
C362 O381 1.239 . S
C363 C362 1.498 . S
C363 C364 1.366 . S
C363 C368 1.407 . S
C364 C363 1.366 . S
C364 C365 1.392 . S
C364 H392 0.930 . S
C365 C364 1.392 . S
C365 C366 1.398 . S
C365 H393 0.929 . S
C366 C365 1.398 . S
C366 C367 1.352 . S
C367 C366 1.352 . S
C367 C368 1.384 . S
C367 H394 0.930 . S
C368 C363 1.407 . S
C368 C367 1.384 . S
C368 H395 0.929 . S
C369 O382 1.241 . S
C369 O383 1.273 . S
C370 O384 1.251 . S
C370 O385 1.268 . S
C371 Nd361 2.836 . S
C371 C372 1.498 . S
C371 O386 1.258 . S
C371 O387 1.239 . S
C372 C371 1.498 . S
C372 C373 1.366 . S
C372 C377 1.407 . S
C373 C372 1.366 . S
C373 C374 1.392 1_455 S
C373 H396 0.930 . S
C374 C373 1.392 1_655 S
C374 C375 1.398 . S
C374 H397 0.929 . S
C375 C374 1.398 . S
C375 C376 1.352 1_655 S
C376 C375 1.352 1_455 S
C376 C377 1.384 . S
C376 H398 0.930 . S
C377 C372 1.407 . S
C377 C376 1.384 . S
C377 H399 0.929 . S
C378 O388 1.241 . S
C378 O389 1.273 . S
C379 O390 1.251 . S
C379 O391 1.268 . S
O380 Nd360 2.500 . S
O380 C362 1.258 . S
O381 Nd360 2.492 . S
O381 C362 1.239 . S
O382 Nd360 2.487 . S
O382 C369 1.241 . S
O383 Nd360 2.682 . S
O383 Nd361 2.414 . S
O383 C369 1.273 . S
O384 Nd360 2.410 . S
O384 C370 1.251 . S
O385 Nd361 2.424 . S
O385 C370 1.268 . S
O386 Nd361 2.500 . S
O386 C371 1.258 . S
O387 Nd361 2.492 . S
O387 C371 1.239 . S
O388 Nd361 2.487 . S
O388 C378 1.241 . S
O389 Nd360 2.414 . S
O389 Nd361 2.682 . S
O389 C378 1.273 . S
O390 Nd361 2.410 . S
O390 C379 1.251 . S
O391 Nd360 2.424 . S
O391 C379 1.268 . S
H392 C364 0.930 . S
H393 C365 0.929 . S
H394 C367 0.930 . S
H395 C368 0.929 . S
H396 C373 0.930 . S
H397 C374 0.929 . S
H398 C376 0.930 . S
H399 C377 0.929 . S
Nd400 C402 2.836 1_455 S
Nd400 O420 2.500 1_455 S
Nd400 O421 2.492 1_455 S
Nd400 O422 2.487 . S
Nd400 O423 2.682 . S
Nd400 O424 2.410 1_455 S
Nd400 O429 2.414 . S
Nd400 O431 2.424 . S
Nd401 C411 2.836 1_655 S
Nd401 O423 2.414 1_655 S
Nd401 O425 2.424 . S
Nd401 O426 2.500 1_655 S
Nd401 O427 2.492 1_655 S
Nd401 O428 2.487 . S
Nd401 O429 2.682 1_655 S
Nd401 O430 2.410 1_655 S
C402 Nd400 2.836 1_655 S
C402 C403 1.498 . S
C402 O420 1.258 . S
C402 O421 1.239 . S
C403 C402 1.498 . S
C403 C404 1.366 . S
C403 C408 1.407 . S
C404 C403 1.366 . S
C404 C405 1.392 . S
C404 H432 0.930 . S
C405 C404 1.392 . S
C405 C406 1.398 . S
C405 H433 0.929 . S
C406 C405 1.398 . S
C406 C407 1.352 . S
C407 C406 1.352 . S
C407 C408 1.384 . S
C407 H434 0.930 . S
C408 C403 1.407 . S
C408 C407 1.384 . S
C408 H435 0.929 . S
C409 O422 1.241 . S
C409 O423 1.273 . S
C410 O424 1.251 . S
C410 O425 1.268 . S
C411 Nd401 2.836 1_455 S
C411 C412 1.498 . S
C411 O426 1.258 . S
C411 O427 1.239 . S
C412 C411 1.498 . S
C412 C413 1.366 . S
C412 C417 1.407 . S
C413 C412 1.366 . S
C413 C414 1.392 . S
C413 H436 0.930 . S
C414 C413 1.392 . S
C414 C415 1.398 . S
C414 H437 0.929 . S
C415 C414 1.398 . S
C415 C416 1.352 . S
C416 C415 1.352 . S
C416 C417 1.384 . S
C416 H438 0.930 . S
C417 C412 1.407 . S
C417 C416 1.384 . S
C417 H439 0.929 . S
C418 O428 1.241 . S
C418 O429 1.273 1_655 S
C419 O430 1.251 . S
C419 O431 1.268 . S
O420 Nd400 2.500 1_655 S
O420 C402 1.258 . S
O421 Nd400 2.492 1_655 S
O421 C402 1.239 . S
O422 Nd400 2.487 . S
O422 C409 1.241 . S
O423 Nd400 2.682 . S
O423 Nd401 2.414 1_455 S
O423 C409 1.273 . S
O424 Nd400 2.410 1_655 S
O424 C410 1.251 . S
O425 Nd401 2.424 . S
O425 C410 1.268 . S
O426 Nd401 2.500 1_455 S
O426 C411 1.258 . S
O427 Nd401 2.492 1_455 S
O427 C411 1.239 . S
O428 Nd401 2.487 . S
O428 C418 1.241 . S
O429 Nd400 2.414 . S
O429 Nd401 2.682 1_455 S
O429 C418 1.273 1_455 S
O430 Nd401 2.410 1_455 S
O430 C419 1.251 . S
O431 Nd400 2.424 . S
O431 C419 1.268 . S
H432 C404 0.930 . S
H433 C405 0.929 . S
H434 C407 0.930 . S
H435 C408 0.929 . S
H436 C413 0.930 . S
H437 C414 0.929 . S
H438 C416 0.930 . S
H439 C417 0.929 . S
Nd440 C442 2.836 . S
Nd440 O460 2.500 . S
Nd440 O461 2.492 . S
Nd440 O462 2.487 . S
Nd440 O463 2.682 1_565 S
Nd440 O464 2.410 . S
Nd440 O469 2.414 . S
Nd440 O471 2.424 . S
Nd441 C451 2.836 . S
Nd441 O463 2.414 . S
Nd441 O465 2.424 . S
Nd441 O466 2.500 . S
Nd441 O467 2.492 . S
Nd441 O468 2.487 . S
Nd441 O469 2.682 1_545 S
Nd441 O470 2.410 . S
C442 Nd440 2.836 . S
C442 C443 1.498 . S
C442 O460 1.258 . S
C442 O461 1.239 . S
C443 C442 1.498 . S
C443 C444 1.366 . S
C443 C448 1.407 . S
C444 C443 1.366 . S
C444 C445 1.392 . S
C444 H472 0.930 . S
C445 C444 1.392 . S
C445 C446 1.398 . S
C445 H473 0.929 . S
C446 C445 1.398 . S
C446 C447 1.352 . S
C447 C446 1.352 . S
C447 C448 1.384 . S
C447 H474 0.930 . S
C448 C443 1.407 . S
C448 C447 1.384 . S
C448 H475 0.929 . S
C449 O462 1.241 . S
C449 O463 1.273 1_565 S
C450 O464 1.251 . S
C450 O465 1.268 1_565 S
C451 Nd441 2.836 . S
C451 C452 1.498 . S
C451 O466 1.258 . S
C451 O467 1.239 . S
C452 C451 1.498 . S
C452 C453 1.366 . S
C452 C457 1.407 . S
C453 C452 1.366 . S
C453 C454 1.392 1_455 S
C453 H476 0.930 . S
C454 C453 1.392 1_655 S
C454 C455 1.398 . S
C454 H477 0.929 . S
C455 C454 1.398 . S
C455 C456 1.352 1_655 S
C456 C455 1.352 1_455 S
C456 C457 1.384 . S
C456 H478 0.930 . S
C457 C452 1.407 . S
C457 C456 1.384 . S
C457 H479 0.929 . S
C458 O468 1.241 . S
C458 O469 1.273 1_545 S
C459 O470 1.251 . S
C459 O471 1.268 1_545 S
O460 Nd440 2.500 . S
O460 C442 1.258 . S
O461 Nd440 2.492 . S
O461 C442 1.239 . S
O462 Nd440 2.487 . S
O462 C449 1.241 . S
O463 Nd440 2.682 1_545 S
O463 Nd441 2.414 . S
O463 C449 1.273 1_545 S
O464 Nd440 2.410 . S
O464 C450 1.251 . S
O465 Nd441 2.424 . S
O465 C450 1.268 1_545 S
O466 Nd441 2.500 . S
O466 C451 1.258 . S
O467 Nd441 2.492 . S
O467 C451 1.239 . S
O468 Nd441 2.487 . S
O468 C458 1.241 . S
O469 Nd440 2.414 . S
O469 Nd441 2.682 1_565 S
O469 C458 1.273 1_565 S
O470 Nd441 2.410 . S
O470 C459 1.251 . S
O471 Nd440 2.424 . S
O471 C459 1.268 1_565 S
H472 C444 0.930 . S
H473 C445 0.929 . S
H474 C447 0.930 . S
H475 C448 0.929 . S
H476 C453 0.930 . S
H477 C454 0.929 . S
H478 C456 0.930 . S
H479 C457 0.929 . S
Nd480 C482 2.836 1_455 S
Nd480 O500 2.500 1_455 S
Nd480 O501 2.492 1_455 S
Nd480 O502 2.487 . S
Nd480 O503 2.682 1_465 S
Nd480 O504 2.410 1_455 S
Nd480 O509 2.414 1_455 S
Nd480 O511 2.424 . S
Nd481 C491 2.836 1_655 S
Nd481 O503 2.414 . S
Nd481 O505 2.424 . S
Nd481 O506 2.500 1_655 S
Nd481 O507 2.492 1_655 S
Nd481 O508 2.487 . S
Nd481 O509 2.682 1_545 S
Nd481 O510 2.410 1_655 S
C482 Nd480 2.836 1_655 S
C482 C483 1.498 . S
C482 O500 1.258 . S
C482 O501 1.239 . S
C483 C482 1.498 . S
C483 C484 1.366 . S
C483 C488 1.407 . S
C484 C483 1.366 . S
C484 C485 1.392 . S
C484 H512 0.930 . S
C485 C484 1.392 . S
C485 C486 1.398 . S
C485 H513 0.929 . S
C486 C485 1.398 . S
C486 C487 1.352 . S
C487 C486 1.352 . S
C487 C488 1.384 . S
C487 H514 0.930 . S
C488 C483 1.407 . S
C488 C487 1.384 . S
C488 H515 0.929 . S
C489 O502 1.241 . S
C489 O503 1.273 1_465 S
C490 O504 1.251 . S
C490 O505 1.268 1_565 S
C491 Nd481 2.836 1_455 S
C491 C492 1.498 . S
C491 O506 1.258 . S
C491 O507 1.239 . S
C492 C491 1.498 . S
C492 C493 1.366 . S
C492 C497 1.407 . S
C493 C492 1.366 . S
C493 C494 1.392 . S
C493 H516 0.930 . S
C494 C493 1.392 . S
C494 C495 1.398 . S
C494 H517 0.929 . S
C495 C494 1.398 . S
C495 C496 1.352 . S
C496 C495 1.352 . S
C496 C497 1.384 . S
C496 H518 0.930 . S
C497 C492 1.407 . S
C497 C496 1.384 . S
C497 H519 0.929 . S
C498 O508 1.241 . S
C498 O509 1.273 1_545 S
C499 O510 1.251 . S
C499 O511 1.268 1_545 S
O500 Nd480 2.500 1_655 S
O500 C482 1.258 . S
O501 Nd480 2.492 1_655 S
O501 C482 1.239 . S
O502 Nd480 2.487 . S
O502 C489 1.241 . S
O503 Nd480 2.682 1_645 S
O503 Nd481 2.414 . S
O503 C489 1.273 1_645 S
O504 Nd480 2.410 1_655 S
O504 C490 1.251 . S
O505 Nd481 2.424 . S
O505 C490 1.268 1_545 S
O506 Nd481 2.500 1_455 S
O506 C491 1.258 . S
O507 Nd481 2.492 1_455 S
O507 C491 1.239 . S
O508 Nd481 2.487 . S
O508 C498 1.241 . S
O509 Nd480 2.414 1_655 S
O509 Nd481 2.682 1_565 S
O509 C498 1.273 1_565 S
O510 Nd481 2.410 1_455 S
O510 C499 1.251 . S
O511 Nd480 2.424 . S
O511 C499 1.268 1_565 S
H512 C484 0.930 . S
H513 C485 0.929 . S
H514 C487 0.930 . S
H515 C488 0.929 . S
H516 C493 0.930 . S
H517 C494 0.929 . S
H518 C496 0.930 . S
H519 C497 0.929 . S
Nd520 C522 2.836 . S
Nd520 O540 2.500 . S
Nd520 O541 2.492 . S
Nd520 O542 2.487 . S
Nd520 O543 2.682 . S
Nd520 O544 2.410 . S
Nd520 O549 2.414 . S
Nd520 O551 2.424 . S
Nd521 C531 2.836 . S
Nd521 O543 2.414 . S
Nd521 O545 2.424 . S
Nd521 O546 2.500 . S
Nd521 O547 2.492 . S
Nd521 O548 2.487 . S
Nd521 O549 2.682 . S
Nd521 O550 2.410 . S
C522 Nd520 2.836 . S
C522 C523 1.498 . S
C522 O540 1.258 . S
C522 O541 1.239 . S
C523 C522 1.498 . S
C523 C524 1.366 . S
C523 C528 1.407 . S
C524 C523 1.366 . S
C524 C525 1.392 1_655 S
C524 H552 0.930 . S
C525 C524 1.392 1_455 S
C525 C526 1.398 . S
C525 H553 0.929 . S
C526 C525 1.398 . S
C526 C527 1.352 1_455 S
C527 C526 1.352 1_655 S
C527 C528 1.384 . S
C527 H554 0.930 . S
C528 C523 1.407 . S
C528 C527 1.384 . S
C528 H555 0.929 . S
C529 O542 1.241 . S
C529 O543 1.273 . S
C530 O544 1.251 . S
C530 O545 1.268 . S
C531 Nd521 2.836 . S
C531 C532 1.498 . S
C531 O546 1.258 . S
C531 O547 1.239 . S
C532 C531 1.498 . S
C532 C533 1.366 . S
C532 C537 1.407 . S
C533 C532 1.366 . S
C533 C534 1.392 . S
C533 H556 0.930 . S
C534 C533 1.392 . S
C534 C535 1.398 . S
C534 H557 0.929 . S
C535 C534 1.398 . S
C535 C536 1.352 . S
C536 C535 1.352 . S
C536 C537 1.384 . S
C536 H558 0.930 . S
C537 C532 1.407 . S
C537 C536 1.384 . S
C537 H559 0.929 . S
C538 O548 1.241 . S
C538 O549 1.273 . S
C539 O550 1.251 . S
C539 O551 1.268 . S
O540 Nd520 2.500 . S
O540 C522 1.258 . S
O541 Nd520 2.492 . S
O541 C522 1.239 . S
O542 Nd520 2.487 . S
O542 C529 1.241 . S
O543 Nd520 2.682 . S
O543 Nd521 2.414 . S
O543 C529 1.273 . S
O544 Nd520 2.410 . S
O544 C530 1.251 . S
O545 Nd521 2.424 . S
O545 C530 1.268 . S
O546 Nd521 2.500 . S
O546 C531 1.258 . S
O547 Nd521 2.492 . S
O547 C531 1.239 . S
O548 Nd521 2.487 . S
O548 C538 1.241 . S
O549 Nd520 2.414 . S
O549 Nd521 2.682 . S
O549 C538 1.273 . S
O550 Nd521 2.410 . S
O550 C539 1.251 . S
O551 Nd520 2.424 . S
O551 C539 1.268 . S
H552 C524 0.930 . S
H553 C525 0.929 . S
H554 C527 0.930 . S
H555 C528 0.929 . S
H556 C533 0.930 . S
H557 C534 0.929 . S
H558 C536 0.930 . S
H559 C537 0.929 . S
Nd560 C562 2.836 1_455 S
Nd560 O580 2.500 1_455 S
Nd560 O581 2.492 1_455 S
Nd560 O582 2.487 . S
Nd560 O583 2.682 1_455 S
Nd560 O584 2.410 1_455 S
Nd560 O589 2.414 1_455 S
Nd560 O591 2.424 . S
Nd561 C571 2.836 1_655 S
Nd561 O583 2.414 . S
Nd561 O585 2.424 . S
Nd561 O586 2.500 1_655 S
Nd561 O587 2.492 1_655 S
Nd561 O588 2.487 . S
Nd561 O589 2.682 . S
Nd561 O590 2.410 1_655 S
C562 Nd560 2.836 1_655 S
C562 C563 1.498 . S
C562 O580 1.258 . S
C562 O581 1.239 . S
C563 C562 1.498 . S
C563 C564 1.366 . S
C563 C568 1.407 . S
C564 C563 1.366 . S
C564 C565 1.392 . S
C564 H592 0.930 . S
C565 C564 1.392 . S
C565 C566 1.398 . S
C565 H593 0.929 . S
C566 C565 1.398 . S
C566 C567 1.352 . S
C567 C566 1.352 . S
C567 C568 1.384 . S
C567 H594 0.930 . S
C568 C563 1.407 . S
C568 C567 1.384 . S
C568 H595 0.929 . S
C569 O582 1.241 . S
C569 O583 1.273 1_455 S
C570 O584 1.251 . S
C570 O585 1.268 . S
C571 Nd561 2.836 1_455 S
C571 C572 1.498 . S
C571 O586 1.258 . S
C571 O587 1.239 . S
C572 C571 1.498 . S
C572 C573 1.366 . S
C572 C577 1.407 . S
C573 C572 1.366 . S
C573 C574 1.392 . S
C573 H596 0.930 . S
C574 C573 1.392 . S
C574 C575 1.398 . S
C574 H597 0.929 . S
C575 C574 1.398 . S
C575 C576 1.352 . S
C576 C575 1.352 . S
C576 C577 1.384 . S
C576 H598 0.930 . S
C577 C572 1.407 . S
C577 C576 1.384 . S
C577 H599 0.929 . S
C578 O588 1.241 . S
C578 O589 1.273 . S
C579 O590 1.251 . S
C579 O591 1.268 . S
O580 Nd560 2.500 1_655 S
O580 C562 1.258 . S
O581 Nd560 2.492 1_655 S
O581 C562 1.239 . S
O582 Nd560 2.487 . S
O582 C569 1.241 . S
O583 Nd560 2.682 1_655 S
O583 Nd561 2.414 . S
O583 C569 1.273 1_655 S
O584 Nd560 2.410 1_655 S
O584 C570 1.251 . S
O585 Nd561 2.424 . S
O585 C570 1.268 . S
O586 Nd561 2.500 1_455 S
O586 C571 1.258 . S
O587 Nd561 2.492 1_455 S
O587 C571 1.239 . S
O588 Nd561 2.487 . S
O588 C578 1.241 . S
O589 Nd560 2.414 1_655 S
O589 Nd561 2.682 . S
O589 C578 1.273 . S
O590 Nd561 2.410 1_455 S
O590 C579 1.251 . S
O591 Nd560 2.424 . S
O591 C579 1.268 . S
H592 C564 0.930 . S
H593 C565 0.929 . S
H594 C567 0.930 . S
H595 C568 0.929 . S
H596 C573 0.930 . S
H597 C574 0.929 . S
H598 C576 0.930 . S
H599 C577 0.929 . S
Nd600 C602 2.836 . S
Nd600 O620 2.500 . S
Nd600 O621 2.492 . S
Nd600 O622 2.487 . S
Nd600 O623 2.682 1_565 S
Nd600 O624 2.410 . S
Nd600 O629 2.414 . S
Nd600 O631 2.424 . S
Nd601 C611 2.836 . S
Nd601 O623 2.414 . S
Nd601 O625 2.424 . S
Nd601 O626 2.500 . S
Nd601 O627 2.492 . S
Nd601 O628 2.487 . S
Nd601 O629 2.682 1_545 S
Nd601 O630 2.410 . S
C602 Nd600 2.836 . S
C602 C603 1.498 . S
C602 O620 1.258 . S
C602 O621 1.239 . S
C603 C602 1.498 . S
C603 C604 1.366 . S
C603 C608 1.407 . S
C604 C603 1.366 . S
C604 C605 1.392 1_655 S
C604 H632 0.930 . S
C605 C604 1.392 1_455 S
C605 C606 1.398 . S
C605 H633 0.929 . S
C606 C605 1.398 . S
C606 C607 1.352 1_455 S
C607 C606 1.352 1_655 S
C607 C608 1.384 . S
C607 H634 0.930 . S
C608 C603 1.407 . S
C608 C607 1.384 . S
C608 H635 0.929 . S
C609 O622 1.241 . S
C609 O623 1.273 1_565 S
C610 O624 1.251 . S
C610 O625 1.268 1_565 S
C611 Nd601 2.836 . S
C611 C612 1.498 . S
C611 O626 1.258 . S
C611 O627 1.239 . S
C612 C611 1.498 . S
C612 C613 1.366 . S
C612 C617 1.407 . S
C613 C612 1.366 . S
C613 C614 1.392 . S
C613 H636 0.930 . S
C614 C613 1.392 . S
C614 C615 1.398 . S
C614 H637 0.929 . S
C615 C614 1.398 . S
C615 C616 1.352 . S
C616 C615 1.352 . S
C616 C617 1.384 . S
C616 H638 0.930 . S
C617 C612 1.407 . S
C617 C616 1.384 . S
C617 H639 0.929 . S
C618 O628 1.241 . S
C618 O629 1.273 1_545 S
C619 O630 1.251 . S
C619 O631 1.268 1_545 S
O620 Nd600 2.500 . S
O620 C602 1.258 . S
O621 Nd600 2.492 . S
O621 C602 1.239 . S
O622 Nd600 2.487 . S
O622 C609 1.241 . S
O623 Nd600 2.682 1_545 S
O623 Nd601 2.414 . S
O623 C609 1.273 1_545 S
O624 Nd600 2.410 . S
O624 C610 1.251 . S
O625 Nd601 2.424 . S
O625 C610 1.268 1_545 S
O626 Nd601 2.500 . S
O626 C611 1.258 . S
O627 Nd601 2.492 . S
O627 C611 1.239 . S
O628 Nd601 2.487 . S
O628 C618 1.241 . S
O629 Nd600 2.414 . S
O629 Nd601 2.682 1_565 S
O629 C618 1.273 1_565 S
O630 Nd601 2.410 . S
O630 C619 1.251 . S
O631 Nd600 2.424 . S
O631 C619 1.268 1_565 S
H632 C604 0.930 . S
H633 C605 0.929 . S
H634 C607 0.930 . S
H635 C608 0.929 . S
H636 C613 0.930 . S
H637 C614 0.929 . S
H638 C616 0.930 . S
H639 C617 0.929 . S
Nd640 C642 2.836 . S
Nd640 O660 2.500 . S
Nd640 O661 2.492 . S
Nd640 O662 2.487 . S
Nd640 O663 2.682 . S
Nd640 O664 2.410 . S
Nd640 O669 2.414 . S
Nd640 O671 2.424 . S
Nd641 C651 2.836 . S
Nd641 O663 2.414 . S
Nd641 O665 2.424 . S
Nd641 O666 2.500 . S
Nd641 O667 2.492 . S
Nd641 O668 2.487 . S
Nd641 O669 2.682 . S
Nd641 O670 2.410 . S
C642 Nd640 2.836 . S
C642 C643 1.498 . S
C642 O660 1.258 . S
C642 O661 1.239 . S
C643 C642 1.498 . S
C643 C644 1.366 . S
C643 C648 1.407 . S
C644 C643 1.366 . S
C644 C645 1.392 . S
C644 H672 0.930 . S
C645 C644 1.392 . S
C645 C646 1.398 . S
C645 H673 0.929 . S
C646 C645 1.398 . S
C646 C647 1.352 . S
C647 C646 1.352 . S
C647 C648 1.384 . S
C647 H674 0.930 . S
C648 C643 1.407 . S
C648 C647 1.384 . S
C648 H675 0.929 . S
C649 O662 1.241 . S
C649 O663 1.273 . S
C650 O664 1.251 . S
C650 O665 1.268 . S
C651 Nd641 2.836 . S
C651 C652 1.498 . S
C651 O666 1.258 . S
C651 O667 1.239 . S
C652 C651 1.498 . S
C652 C653 1.366 . S
C652 C657 1.407 . S
C653 C652 1.366 . S
C653 C654 1.392 . S
C653 H676 0.930 . S
C654 C653 1.392 . S
C654 C655 1.398 . S
C654 H677 0.929 . S
C655 C654 1.398 . S
C655 C656 1.352 . S
C656 C655 1.352 . S
C656 C657 1.384 . S
C656 H678 0.930 . S
C657 C652 1.407 . S
C657 C656 1.384 . S
C657 H679 0.929 . S
C658 O668 1.241 . S
C658 O669 1.273 . S
C659 O670 1.251 . S
C659 O671 1.268 . S
O660 Nd640 2.500 . S
O660 C642 1.258 . S
O661 Nd640 2.492 . S
O661 C642 1.239 . S
O662 Nd640 2.487 . S
O662 C649 1.241 . S
O663 Nd640 2.682 . S
O663 Nd641 2.414 . S
O663 C649 1.273 . S
O664 Nd640 2.410 . S
O664 C650 1.251 . S
O665 Nd641 2.424 . S
O665 C650 1.268 . S
O666 Nd641 2.500 . S
O666 C651 1.258 . S
O667 Nd641 2.492 . S
O667 C651 1.239 . S
O668 Nd641 2.487 . S
O668 C658 1.241 . S
O669 Nd640 2.414 . S
O669 Nd641 2.682 . S
O669 C658 1.273 . S
O670 Nd641 2.410 . S
O670 C659 1.251 . S
O671 Nd640 2.424 . S
O671 C659 1.268 . S
H672 C644 0.930 . S
H673 C645 0.929 . S
H674 C647 0.930 . S
H675 C648 0.929 . S
H676 C653 0.930 . S
H677 C654 0.929 . S
H678 C656 0.930 . S
H679 C657 0.929 . S
Nd680 C682 2.836 . S
Nd680 O700 2.500 . S
Nd680 O701 2.492 . S
Nd680 O702 2.487 . S
Nd680 O703 2.682 . S
Nd680 O704 2.410 . S
Nd680 O709 2.414 . S
Nd680 O711 2.424 . S
Nd681 C691 2.836 . S
Nd681 O703 2.414 . S
Nd681 O705 2.424 . S
Nd681 O706 2.500 . S
Nd681 O707 2.492 . S
Nd681 O708 2.487 . S
Nd681 O709 2.682 . S
Nd681 O710 2.410 . S
C682 Nd680 2.836 . S
C682 C683 1.498 . S
C682 O700 1.258 . S
C682 O701 1.239 . S
C683 C682 1.498 . S
C683 C684 1.366 . S
C683 C688 1.407 . S
C684 C683 1.366 . S
C684 C685 1.392 . S
C684 H712 0.930 . S
C685 C684 1.392 . S
C685 C686 1.398 . S
C685 H713 0.929 1_655 S
C686 C685 1.398 . S
C686 C687 1.352 . S
C687 C686 1.352 . S
C687 C688 1.384 . S
C687 H714 0.930 . S
C688 C683 1.407 . S
C688 C687 1.384 . S
C688 H715 0.929 . S
C689 O702 1.241 . S
C689 O703 1.273 . S
C690 O704 1.251 . S
C690 O705 1.268 . S
C691 Nd681 2.836 . S
C691 C692 1.498 . S
C691 O706 1.258 . S
C691 O707 1.239 . S
C692 C691 1.498 . S
C692 C693 1.366 . S
C692 C697 1.407 . S
C693 C692 1.366 . S
C693 C694 1.392 . S
C693 H716 0.930 . S
C694 C693 1.392 . S
C694 C695 1.398 . S
C694 H717 0.929 . S
C695 C694 1.398 . S
C695 C696 1.352 . S
C696 C695 1.352 . S
C696 C697 1.384 . S
C696 H718 0.930 . S
C697 C692 1.407 . S
C697 C696 1.384 . S
C697 H719 0.929 . S
C698 O708 1.241 . S
C698 O709 1.273 . S
C699 O710 1.251 . S
C699 O711 1.268 . S
O700 Nd680 2.500 . S
O700 C682 1.258 . S
O701 Nd680 2.492 . S
O701 C682 1.239 . S
O702 Nd680 2.487 . S
O702 C689 1.241 . S
O703 Nd680 2.682 . S
O703 Nd681 2.414 . S
O703 C689 1.273 . S
O704 Nd680 2.410 . S
O704 C690 1.251 . S
O705 Nd681 2.424 . S
O705 C690 1.268 . S
O706 Nd681 2.500 . S
O706 C691 1.258 . S
O707 Nd681 2.492 . S
O707 C691 1.239 . S
O708 Nd681 2.487 . S
O708 C698 1.241 . S
O709 Nd680 2.414 . S
O709 Nd681 2.682 . S
O709 C698 1.273 . S
O710 Nd681 2.410 . S
O710 C699 1.251 . S
O711 Nd680 2.424 . S
O711 C699 1.268 . S
H712 C684 0.930 . S
H713 C685 0.929 1_455 S
H714 C687 0.930 . S
H715 C688 0.929 . S
H716 C693 0.930 . S
H717 C694 0.929 . S
H718 C696 0.930 . S
H719 C697 0.929 . S
Nd720 C722 2.836 . S
Nd720 O740 2.500 . S
Nd720 O741 2.492 . S
Nd720 O742 2.487 . S
Nd720 O743 2.682 . S
Nd720 O744 2.410 . S
Nd720 O749 2.414 . S
Nd720 O751 2.424 . S
Nd721 C731 2.836 . S
Nd721 O743 2.414 . S
Nd721 O745 2.424 . S
Nd721 O746 2.500 . S
Nd721 O747 2.492 . S
Nd721 O748 2.487 . S
Nd721 O749 2.682 . S
Nd721 O750 2.410 . S
C722 Nd720 2.836 . S
C722 C723 1.498 . S
C722 O740 1.258 . S
C722 O741 1.239 . S
C723 C722 1.498 . S
C723 C724 1.366 . S
C723 C728 1.407 . S
C724 C723 1.366 . S
C724 C725 1.392 . S
C724 H752 0.930 . S
C725 C724 1.392 . S
C725 C726 1.398 . S
C725 H753 0.929 . S
C726 C725 1.398 . S
C726 C727 1.352 . S
C727 C726 1.352 . S
C727 C728 1.384 . S
C727 H754 0.930 . S
C728 C723 1.407 . S
C728 C727 1.384 . S
C728 H755 0.929 . S
C729 O742 1.241 . S
C729 O743 1.273 . S
C730 O744 1.251 . S
C730 O745 1.268 . S
C731 Nd721 2.836 . S
C731 C732 1.498 . S
C731 O746 1.258 . S
C731 O747 1.239 . S
C732 C731 1.498 . S
C732 C733 1.366 . S
C732 C737 1.407 . S
C733 C732 1.366 . S
C733 C734 1.392 . S
C733 H756 0.930 . S
C734 C733 1.392 . S
C734 C735 1.398 . S
C734 H757 0.929 . S
C735 C734 1.398 . S
C735 C736 1.352 . S
C736 C735 1.352 . S
C736 C737 1.384 . S
C736 H758 0.930 . S
C737 C732 1.407 . S
C737 C736 1.384 . S
C737 H759 0.929 . S
C738 O748 1.241 . S
C738 O749 1.273 . S
C739 O750 1.251 . S
C739 O751 1.268 . S
O740 Nd720 2.500 . S
O740 C722 1.258 . S
O741 Nd720 2.492 . S
O741 C722 1.239 . S
O742 Nd720 2.487 . S
O742 C729 1.241 . S
O743 Nd720 2.682 . S
O743 Nd721 2.414 . S
O743 C729 1.273 . S
O744 Nd720 2.410 . S
O744 C730 1.251 . S
O745 Nd721 2.424 . S
O745 C730 1.268 . S
O746 Nd721 2.500 . S
O746 C731 1.258 . S
O747 Nd721 2.492 . S
O747 C731 1.239 . S
O748 Nd721 2.487 . S
O748 C738 1.241 . S
O749 Nd720 2.414 . S
O749 Nd721 2.682 . S
O749 C738 1.273 . S
O750 Nd721 2.410 . S
O750 C739 1.251 . S
O751 Nd720 2.424 . S
O751 C739 1.268 . S
H752 C724 0.930 . S
H753 C725 0.929 . S
H754 C727 0.930 . S
H755 C728 0.929 . S
H756 C733 0.930 . S
H757 C734 0.929 . S
H758 C736 0.930 . S
H759 C737 0.929 . S
Nd760 C762 2.836 . S
Nd760 O780 2.500 . S
Nd760 O781 2.492 . S
Nd760 O782 2.487 . S
Nd760 O783 2.682 . S
Nd760 O784 2.410 . S
Nd760 O789 2.414 . S
Nd760 O791 2.424 . S
Nd761 C771 2.836 . S
Nd761 O783 2.414 . S
Nd761 O785 2.424 . S
Nd761 O786 2.500 . S
Nd761 O787 2.492 . S
Nd761 O788 2.487 . S
Nd761 O789 2.682 . S
Nd761 O790 2.410 . S
C762 Nd760 2.836 . S
C762 C763 1.498 . S
C762 O780 1.258 . S
C762 O781 1.239 . S
C763 C762 1.498 . S
C763 C764 1.366 . S
C763 C768 1.407 . S
C764 C763 1.366 . S
C764 C765 1.392 . S
C764 H792 0.930 . S
C765 C764 1.392 . S
C765 C766 1.398 . S
C765 H793 0.929 1_655 S
C766 C765 1.398 . S
C766 C767 1.352 . S
C767 C766 1.352 . S
C767 C768 1.384 . S
C767 H794 0.930 . S
C768 C763 1.407 . S
C768 C767 1.384 . S
C768 H795 0.929 . S
C769 O782 1.241 . S
C769 O783 1.273 . S
C770 O784 1.251 . S
C770 O785 1.268 . S
C771 Nd761 2.836 . S
C771 C772 1.498 . S
C771 O786 1.258 . S
C771 O787 1.239 . S
C772 C771 1.498 . S
C772 C773 1.366 . S
C772 C777 1.407 . S
C773 C772 1.366 . S
C773 C774 1.392 . S
C773 H796 0.930 . S
C774 C773 1.392 . S
C774 C775 1.398 . S
C774 H797 0.929 . S
C775 C774 1.398 . S
C775 C776 1.352 . S
C776 C775 1.352 . S
C776 C777 1.384 . S
C776 H798 0.930 . S
C777 C772 1.407 . S
C777 C776 1.384 . S
C777 H799 0.929 . S
C778 O788 1.241 . S
C778 O789 1.273 . S
C779 O790 1.251 . S
C779 O791 1.268 . S
O780 Nd760 2.500 . S
O780 C762 1.258 . S
O781 Nd760 2.492 . S
O781 C762 1.239 . S
O782 Nd760 2.487 . S
O782 C769 1.241 . S
O783 Nd760 2.682 . S
O783 Nd761 2.414 . S
O783 C769 1.273 . S
O784 Nd760 2.410 . S
O784 C770 1.251 . S
O785 Nd761 2.424 . S
O785 C770 1.268 . S
O786 Nd761 2.500 . S
O786 C771 1.258 . S
O787 Nd761 2.492 . S
O787 C771 1.239 . S
O788 Nd761 2.487 . S
O788 C778 1.241 . S
O789 Nd760 2.414 . S
O789 Nd761 2.682 . S
O789 C778 1.273 . S
O790 Nd761 2.410 . S
O790 C779 1.251 . S
O791 Nd760 2.424 . S
O791 C779 1.268 . S
H792 C764 0.930 . S
H793 C765 0.929 1_455 S
H794 C767 0.930 . S
H795 C768 0.929 . S
H796 C773 0.930 . S
H797 C774 0.929 . S
H798 C776 0.930 . S
H799 C777 0.929 . S
Nd800 C802 2.836 . S
Nd800 O820 2.500 . S
Nd800 O821 2.492 . S
Nd800 O822 2.487 . S
Nd800 O823 2.682 . S
Nd800 O824 2.410 . S
Nd800 O829 2.414 . S
Nd800 O831 2.424 . S
Nd801 C811 2.836 . S
Nd801 O823 2.414 . S
Nd801 O825 2.424 . S
Nd801 O826 2.500 . S
Nd801 O827 2.492 . S
Nd801 O828 2.487 . S
Nd801 O829 2.682 . S
Nd801 O830 2.410 . S
C802 Nd800 2.836 . S
C802 C803 1.498 . S
C802 O820 1.258 . S
C802 O821 1.239 . S
C803 C802 1.498 . S
C803 C804 1.366 . S
C803 C808 1.407 . S
C804 C803 1.366 . S
C804 C805 1.392 . S
C804 H832 0.930 . S
C805 C804 1.392 . S
C805 C806 1.398 . S
C805 H833 0.929 . S
C806 C805 1.398 . S
C806 C807 1.352 . S
C807 C806 1.352 . S
C807 C808 1.384 . S
C807 H834 0.930 . S
C808 C803 1.407 . S
C808 C807 1.384 . S
C808 H835 0.929 . S
C809 O822 1.241 . S
C809 O823 1.273 . S
C810 O824 1.251 . S
C810 O825 1.268 . S
C811 Nd801 2.836 . S
C811 C812 1.498 . S
C811 O826 1.258 . S
C811 O827 1.239 . S
C812 C811 1.498 . S
C812 C813 1.366 . S
C812 C817 1.407 . S
C813 C812 1.366 . S
C813 C814 1.392 . S
C813 H836 0.930 . S
C814 C813 1.392 . S
C814 C815 1.398 . S
C814 H837 0.929 . S
C815 C814 1.398 . S
C815 C816 1.352 . S
C816 C815 1.352 . S
C816 C817 1.384 . S
C816 H838 0.930 . S
C817 C812 1.407 . S
C817 C816 1.384 . S
C817 H839 0.929 . S
C818 O828 1.241 . S
C818 O829 1.273 . S
C819 O830 1.251 . S
C819 O831 1.268 . S
O820 Nd800 2.500 . S
O820 C802 1.258 . S
O821 Nd800 2.492 . S
O821 C802 1.239 . S
O822 Nd800 2.487 . S
O822 C809 1.241 . S
O823 Nd800 2.682 . S
O823 Nd801 2.414 . S
O823 C809 1.273 . S
O824 Nd800 2.410 . S
O824 C810 1.251 . S
O825 Nd801 2.424 . S
O825 C810 1.268 . S
O826 Nd801 2.500 . S
O826 C811 1.258 . S
O827 Nd801 2.492 . S
O827 C811 1.239 . S
O828 Nd801 2.487 . S
O828 C818 1.241 . S
O829 Nd800 2.414 . S
O829 Nd801 2.682 . S
O829 C818 1.273 . S
O830 Nd801 2.410 . S
O830 C819 1.251 . S
O831 Nd800 2.424 . S
O831 C819 1.268 . S
H832 C804 0.930 . S
H833 C805 0.929 . S
H834 C807 0.930 . S
H835 C808 0.929 . S
H836 C813 0.930 . S
H837 C814 0.929 . S
H838 C816 0.930 . S
H839 C817 0.929 . S
Nd840 C842 2.836 . S
Nd840 O860 2.500 . S
Nd840 O861 2.492 . S
Nd840 O862 2.487 . S
Nd840 O863 2.682 . S
Nd840 O864 2.410 . S
Nd840 O869 2.414 . S
Nd840 O871 2.424 . S
Nd841 C851 2.836 . S
Nd841 O863 2.414 . S
Nd841 O865 2.424 . S
Nd841 O866 2.500 . S
Nd841 O867 2.492 . S
Nd841 O868 2.487 . S
Nd841 O869 2.682 . S
Nd841 O870 2.410 . S
C842 Nd840 2.836 . S
C842 C843 1.498 . S
C842 O860 1.258 . S
C842 O861 1.239 . S
C843 C842 1.498 . S
C843 C844 1.366 . S
C843 C848 1.407 . S
C844 C843 1.366 . S
C844 C845 1.392 . S
C844 H872 0.930 . S
C845 C844 1.392 . S
C845 C846 1.398 . S
C845 H873 0.929 . S
C846 C845 1.398 . S
C846 C847 1.352 . S
C847 C846 1.352 . S
C847 C848 1.384 . S
C847 H874 0.930 . S
C848 C843 1.407 . S
C848 C847 1.384 . S
C848 H875 0.929 . S
C849 O862 1.241 . S
C849 O863 1.273 . S
C850 O864 1.251 . S
C850 O865 1.268 . S
C851 Nd841 2.836 . S
C851 C852 1.498 . S
C851 O866 1.258 . S
C851 O867 1.239 . S
C852 C851 1.498 . S
C852 C853 1.366 . S
C852 C857 1.407 . S
C853 C852 1.366 . S
C853 C854 1.392 . S
C853 H876 0.930 . S
C854 C853 1.392 . S
C854 C855 1.398 . S
C854 H877 0.929 1_455 S
C855 C854 1.398 . S
C855 C856 1.352 . S
C856 C855 1.352 . S
C856 C857 1.384 . S
C856 H878 0.930 . S
C857 C852 1.407 . S
C857 C856 1.384 . S
C857 H879 0.929 . S
C858 O868 1.241 . S
C858 O869 1.273 . S
C859 O870 1.251 . S
C859 O871 1.268 . S
O860 Nd840 2.500 . S
O860 C842 1.258 . S
O861 Nd840 2.492 . S
O861 C842 1.239 . S
O862 Nd840 2.487 . S
O862 C849 1.241 . S
O863 Nd840 2.682 . S
O863 Nd841 2.414 . S
O863 C849 1.273 . S
O864 Nd840 2.410 . S
O864 C850 1.251 . S
O865 Nd841 2.424 . S
O865 C850 1.268 . S
O866 Nd841 2.500 . S
O866 C851 1.258 . S
O867 Nd841 2.492 . S
O867 C851 1.239 . S
O868 Nd841 2.487 . S
O868 C858 1.241 . S
O869 Nd840 2.414 . S
O869 Nd841 2.682 . S
O869 C858 1.273 . S
O870 Nd841 2.410 . S
O870 C859 1.251 . S
O871 Nd840 2.424 . S
O871 C859 1.268 . S
H872 C844 0.930 . S
H873 C845 0.929 . S
H874 C847 0.930 . S
H875 C848 0.929 . S
H876 C853 0.930 . S
H877 C854 0.929 1_655 S
H878 C856 0.930 . S
H879 C857 0.929 . S
Nd880 C882 2.836 . S
Nd880 O900 2.500 . S
Nd880 O901 2.492 . S
Nd880 O902 2.487 . S
Nd880 O903 2.682 . S
Nd880 O904 2.410 . S
Nd880 O909 2.414 . S
Nd880 O911 2.424 . S
Nd881 C891 2.836 . S
Nd881 O903 2.414 . S
Nd881 O905 2.424 . S
Nd881 O906 2.500 . S
Nd881 O907 2.492 . S
Nd881 O908 2.487 . S
Nd881 O909 2.682 . S
Nd881 O910 2.410 . S
C882 Nd880 2.836 . S
C882 C883 1.498 . S
C882 O900 1.258 . S
C882 O901 1.239 . S
C883 C882 1.498 . S
C883 C884 1.366 . S
C883 C888 1.407 . S
C884 C883 1.366 . S
C884 C885 1.392 . S
C884 H912 0.930 . S
C885 C884 1.392 . S
C885 C886 1.398 . S
C885 H913 0.929 . S
C886 C885 1.398 . S
C886 C887 1.352 . S
C887 C886 1.352 . S
C887 C888 1.384 . S
C887 H914 0.930 . S
C888 C883 1.407 . S
C888 C887 1.384 . S
C888 H915 0.929 . S
C889 O902 1.241 . S
C889 O903 1.273 . S
C890 O904 1.251 . S
C890 O905 1.268 . S
C891 Nd881 2.836 . S
C891 C892 1.498 . S
C891 O906 1.258 . S
C891 O907 1.239 . S
C892 C891 1.498 . S
C892 C893 1.366 . S
C892 C897 1.407 . S
C893 C892 1.366 . S
C893 C894 1.392 . S
C893 H916 0.930 . S
C894 C893 1.392 . S
C894 C895 1.398 . S
C894 H917 0.929 . S
C895 C894 1.398 . S
C895 C896 1.352 . S
C896 C895 1.352 . S
C896 C897 1.384 . S
C896 H918 0.930 . S
C897 C892 1.407 . S
C897 C896 1.384 . S
C897 H919 0.929 . S
C898 O908 1.241 . S
C898 O909 1.273 . S
C899 O910 1.251 . S
C899 O911 1.268 . S
O900 Nd880 2.500 . S
O900 C882 1.258 . S
O901 Nd880 2.492 . S
O901 C882 1.239 . S
O902 Nd880 2.487 . S
O902 C889 1.241 . S
O903 Nd880 2.682 . S
O903 Nd881 2.414 . S
O903 C889 1.273 . S
O904 Nd880 2.410 . S
O904 C890 1.251 . S
O905 Nd881 2.424 . S
O905 C890 1.268 . S
O906 Nd881 2.500 . S
O906 C891 1.258 . S
O907 Nd881 2.492 . S
O907 C891 1.239 . S
O908 Nd881 2.487 . S
O908 C898 1.241 . S
O909 Nd880 2.414 . S
O909 Nd881 2.682 . S
O909 C898 1.273 . S
O910 Nd881 2.410 . S
O910 C899 1.251 . S
O911 Nd880 2.424 . S
O911 C899 1.268 . S
H912 C884 0.930 . S
H913 C885 0.929 . S
H914 C887 0.930 . S
H915 C888 0.929 . S
H916 C893 0.930 . S
H917 C894 0.929 . S
H918 C896 0.930 . S
H919 C897 0.929 . S
Nd920 C922 2.836 . S
Nd920 O940 2.500 . S
Nd920 O941 2.492 . S
Nd920 O942 2.487 . S
Nd920 O943 2.682 . S
Nd920 O944 2.410 . S
Nd920 O949 2.414 . S
Nd920 O951 2.424 . S
Nd921 C931 2.836 . S
Nd921 O943 2.414 . S
Nd921 O945 2.424 . S
Nd921 O946 2.500 . S
Nd921 O947 2.492 . S
Nd921 O948 2.487 . S
Nd921 O949 2.682 . S
Nd921 O950 2.410 . S
C922 Nd920 2.836 . S
C922 C923 1.498 . S
C922 O940 1.258 . S
C922 O941 1.239 . S
C923 C922 1.498 . S
C923 C924 1.366 . S
C923 C928 1.407 . S
C924 C923 1.366 . S
C924 C925 1.392 . S
C924 H952 0.930 . S
C925 C924 1.392 . S
C925 C926 1.398 . S
C925 H953 0.929 . S
C926 C925 1.398 . S
C926 C927 1.352 . S
C927 C926 1.352 . S
C927 C928 1.384 . S
C927 H954 0.930 . S
C928 C923 1.407 . S
C928 C927 1.384 . S
C928 H955 0.929 . S
C929 O942 1.241 . S
C929 O943 1.273 . S
C930 O944 1.251 . S
C930 O945 1.268 . S
C931 Nd921 2.836 . S
C931 C932 1.498 . S
C931 O946 1.258 . S
C931 O947 1.239 . S
C932 C931 1.498 . S
C932 C933 1.366 . S
C932 C937 1.407 . S
C933 C932 1.366 . S
C933 C934 1.392 . S
C933 H956 0.930 . S
C934 C933 1.392 . S
C934 C935 1.398 . S
C934 H957 0.929 1_455 S
C935 C934 1.398 . S
C935 C936 1.352 . S
C936 C935 1.352 . S
C936 C937 1.384 . S
C936 H958 0.930 . S
C937 C932 1.407 . S
C937 C936 1.384 . S
C937 H959 0.929 . S
C938 O948 1.241 . S
C938 O949 1.273 . S
C939 O950 1.251 . S
C939 O951 1.268 . S
O940 Nd920 2.500 . S
O940 C922 1.258 . S
O941 Nd920 2.492 . S
O941 C922 1.239 . S
O942 Nd920 2.487 . S
O942 C929 1.241 . S
O943 Nd920 2.682 . S
O943 Nd921 2.414 . S
O943 C929 1.273 . S
O944 Nd920 2.410 . S
O944 C930 1.251 . S
O945 Nd921 2.424 . S
O945 C930 1.268 . S
O946 Nd921 2.500 . S
O946 C931 1.258 . S
O947 Nd921 2.492 . S
O947 C931 1.239 . S
O948 Nd921 2.487 . S
O948 C938 1.241 . S
O949 Nd920 2.414 . S
O949 Nd921 2.682 . S
O949 C938 1.273 . S
O950 Nd921 2.410 . S
O950 C939 1.251 . S
O951 Nd920 2.424 . S
O951 C939 1.268 . S
H952 C924 0.930 . S
H953 C925 0.929 . S
H954 C927 0.930 . S
H955 C928 0.929 . S
H956 C933 0.930 . S
H957 C934 0.929 1_655 S
H958 C936 0.930 . S
H959 C937 0.929 . S
Nd960 C962 2.836 . S
Nd960 O980 2.500 . S
Nd960 O981 2.492 . S
Nd960 O982 2.487 . S
Nd960 O983 2.682 1_565 S
Nd960 O984 2.410 . S
Nd960 O989 2.414 . S
Nd960 O991 2.424 . S
Nd961 C971 2.836 . S
Nd961 O983 2.414 . S
Nd961 O985 2.424 . S
Nd961 O986 2.500 . S
Nd961 O987 2.492 . S
Nd961 O988 2.487 . S
Nd961 O989 2.682 1_545 S
Nd961 O990 2.410 . S
C962 Nd960 2.836 . S
C962 C963 1.498 . S
C962 O980 1.258 . S
C962 O981 1.239 . S
C963 C962 1.498 . S
C963 C964 1.366 . S
C963 C968 1.407 . S
C964 C963 1.366 . S
C964 C965 1.392 . S
C964 H992 0.930 . S
C965 C964 1.392 . S
C965 C966 1.398 . S
C965 H993 0.929 . S
C966 C965 1.398 . S
C966 C967 1.352 . S
C967 C966 1.352 . S
C967 C968 1.384 . S
C967 H994 0.930 . S
C968 C963 1.407 . S
C968 C967 1.384 . S
C968 H995 0.929 . S
C969 O982 1.241 . S
C969 O983 1.273 1_565 S
C970 O984 1.251 . S
C970 O985 1.268 1_565 S
C971 Nd961 2.836 . S
C971 C972 1.498 . S
C971 O986 1.258 . S
C971 O987 1.239 . S
C972 C971 1.498 . S
C972 C973 1.366 . S
C972 C977 1.407 . S
C973 C972 1.366 . S
C973 C974 1.392 . S
C973 H996 0.930 . S
C974 C973 1.392 . S
C974 C975 1.398 . S
C974 H997 0.929 . S
C975 C974 1.398 . S
C975 C976 1.352 . S
C976 C975 1.352 . S
C976 C977 1.384 . S
C976 H998 0.930 . S
C977 C972 1.407 . S
C977 C976 1.384 . S
C977 H999 0.929 . S
C978 O988 1.241 . S
C978 O989 1.273 1_545 S
C979 O990 1.251 . S
C979 O991 1.268 1_545 S
O980 Nd960 2.500 . S
O980 C962 1.258 . S
O981 Nd960 2.492 . S
O981 C962 1.239 . S
O982 Nd960 2.487 . S
O982 C969 1.241 . S
O983 Nd960 2.682 1_545 S
O983 Nd961 2.414 . S
O983 C969 1.273 1_545 S
O984 Nd960 2.410 . S
O984 C970 1.251 . S
O985 Nd961 2.424 . S
O985 C970 1.268 1_545 S
O986 Nd961 2.500 . S
O986 C971 1.258 . S
O987 Nd961 2.492 . S
O987 C971 1.239 . S
O988 Nd961 2.487 . S
O988 C978 1.241 . S
O989 Nd960 2.414 . S
O989 Nd961 2.682 1_565 S
O989 C978 1.273 1_565 S
O990 Nd961 2.410 . S
O990 C979 1.251 . S
O991 Nd960 2.424 . S
O991 C979 1.268 1_565 S
H992 C964 0.930 . S
H993 C965 0.929 . S
H994 C967 0.930 . S
H995 C968 0.929 . S
H996 C973 0.930 . S
H997 C974 0.929 . S
H998 C976 0.930 . S
H999 C977 0.929 . S
Nd1000 C1002 2.836 . S
Nd1000 O1020 2.500 . S
Nd1000 O1021 2.492 . S
Nd1000 O1022 2.487 . S
Nd1000 O1023 2.682 . S
Nd1000 O1024 2.410 . S
Nd1000 O1029 2.414 . S
Nd1000 O1031 2.424 . S
Nd1001 C1011 2.836 . S
Nd1001 O1023 2.414 . S
Nd1001 O1025 2.424 . S
Nd1001 O1026 2.500 . S
Nd1001 O1027 2.492 . S
Nd1001 O1028 2.487 . S
Nd1001 O1029 2.682 . S
Nd1001 O1030 2.410 . S
C1002 Nd1000 2.836 . S
C1002 C1003 1.498 . S
C1002 O1020 1.258 . S
C1002 O1021 1.239 . S
C1003 C1002 1.498 . S
C1003 C1004 1.366 . S
C1003 C1008 1.407 . S
C1004 C1003 1.366 . S
C1004 C1005 1.392 . S
C1004 H1032 0.930 . S
C1005 C1004 1.392 . S
C1005 C1006 1.398 . S
C1005 H1033 0.929 1_655 S
C1006 C1005 1.398 . S
C1006 C1007 1.352 . S
C1007 C1006 1.352 . S
C1007 C1008 1.384 . S
C1007 H1034 0.930 . S
C1008 C1003 1.407 . S
C1008 C1007 1.384 . S
C1008 H1035 0.929 . S
C1009 O1022 1.241 . S
C1009 O1023 1.273 . S
C1010 O1024 1.251 . S
C1010 O1025 1.268 . S
C1011 Nd1001 2.836 . S
C1011 C1012 1.498 . S
C1011 O1026 1.258 . S
C1011 O1027 1.239 . S
C1012 C1011 1.498 . S
C1012 C1013 1.366 . S
C1012 C1017 1.407 . S
C1013 C1012 1.366 . S
C1013 C1014 1.392 . S
C1013 H1036 0.930 . S
C1014 C1013 1.392 . S
C1014 C1015 1.398 . S
C1014 H1037 0.929 . S
C1015 C1014 1.398 . S
C1015 C1016 1.352 . S
C1016 C1015 1.352 . S
C1016 C1017 1.384 . S
C1016 H1038 0.930 . S
C1017 C1012 1.407 . S
C1017 C1016 1.384 . S
C1017 H1039 0.929 . S
C1018 O1028 1.241 . S
C1018 O1029 1.273 . S
C1019 O1030 1.251 . S
C1019 O1031 1.268 . S
O1020 Nd1000 2.500 . S
O1020 C1002 1.258 . S
O1021 Nd1000 2.492 . S
O1021 C1002 1.239 . S
O1022 Nd1000 2.487 . S
O1022 C1009 1.241 . S
O1023 Nd1000 2.682 . S
O1023 Nd1001 2.414 . S
O1023 C1009 1.273 . S
O1024 Nd1000 2.410 . S
O1024 C1010 1.251 . S
O1025 Nd1001 2.424 . S
O1025 C1010 1.268 . S
O1026 Nd1001 2.500 . S
O1026 C1011 1.258 . S
O1027 Nd1001 2.492 . S
O1027 C1011 1.239 . S
O1028 Nd1001 2.487 . S
O1028 C1018 1.241 . S
O1029 Nd1000 2.414 . S
O1029 Nd1001 2.682 . S
O1029 C1018 1.273 . S
O1030 Nd1001 2.410 . S
O1030 C1019 1.251 . S
O1031 Nd1000 2.424 . S
O1031 C1019 1.268 . S
H1032 C1004 0.930 . S
H1033 C1005 0.929 1_455 S
H1034 C1007 0.930 . S
H1035 C1008 0.929 . S
H1036 C1013 0.930 . S
H1037 C1014 0.929 . S
H1038 C1016 0.930 . S
H1039 C1017 0.929 . S
Nd1040 C1042 2.836 . S
Nd1040 O1060 2.500 . S
Nd1040 O1061 2.492 . S
Nd1040 O1062 2.487 . S
Nd1040 O1063 2.682 . S
Nd1040 O1064 2.410 . S
Nd1040 O1069 2.414 . S
Nd1040 O1071 2.424 . S
Nd1041 C1051 2.836 . S
Nd1041 O1063 2.414 . S
Nd1041 O1065 2.424 . S
Nd1041 O1066 2.500 . S
Nd1041 O1067 2.492 . S
Nd1041 O1068 2.487 . S
Nd1041 O1069 2.682 . S
Nd1041 O1070 2.410 . S
C1042 Nd1040 2.836 . S
C1042 C1043 1.498 . S
C1042 O1060 1.258 . S
C1042 O1061 1.239 . S
C1043 C1042 1.498 . S
C1043 C1044 1.366 . S
C1043 C1048 1.407 . S
C1044 C1043 1.366 . S
C1044 C1045 1.392 . S
C1044 H1072 0.930 . S
C1045 C1044 1.392 . S
C1045 C1046 1.398 . S
C1045 H1073 0.929 . S
C1046 C1045 1.398 . S
C1046 C1047 1.352 . S
C1047 C1046 1.352 . S
C1047 C1048 1.384 . S
C1047 H1074 0.930 . S
C1048 C1043 1.407 . S
C1048 C1047 1.384 . S
C1048 H1075 0.929 . S
C1049 O1062 1.241 . S
C1049 O1063 1.273 . S
C1050 O1064 1.251 . S
C1050 O1065 1.268 . S
C1051 Nd1041 2.836 . S
C1051 C1052 1.498 . S
C1051 O1066 1.258 . S
C1051 O1067 1.239 . S
C1052 C1051 1.498 . S
C1052 C1053 1.366 . S
C1052 C1057 1.407 . S
C1053 C1052 1.366 . S
C1053 C1054 1.392 . S
C1053 H1076 0.930 . S
C1054 C1053 1.392 . S
C1054 C1055 1.398 . S
C1054 H1077 0.929 . S
C1055 C1054 1.398 . S
C1055 C1056 1.352 . S
C1056 C1055 1.352 . S
C1056 C1057 1.384 . S
C1056 H1078 0.930 . S
C1057 C1052 1.407 . S
C1057 C1056 1.384 . S
C1057 H1079 0.929 . S
C1058 O1068 1.241 . S
C1058 O1069 1.273 . S
C1059 O1070 1.251 . S
C1059 O1071 1.268 . S
O1060 Nd1040 2.500 . S
O1060 C1042 1.258 . S
O1061 Nd1040 2.492 . S
O1061 C1042 1.239 . S
O1062 Nd1040 2.487 . S
O1062 C1049 1.241 . S
O1063 Nd1040 2.682 . S
O1063 Nd1041 2.414 . S
O1063 C1049 1.273 . S
O1064 Nd1040 2.410 . S
O1064 C1050 1.251 . S
O1065 Nd1041 2.424 . S
O1065 C1050 1.268 . S
O1066 Nd1041 2.500 . S
O1066 C1051 1.258 . S
O1067 Nd1041 2.492 . S
O1067 C1051 1.239 . S
O1068 Nd1041 2.487 . S
O1068 C1058 1.241 . S
O1069 Nd1040 2.414 . S
O1069 Nd1041 2.682 . S
O1069 C1058 1.273 . S
O1070 Nd1041 2.410 . S
O1070 C1059 1.251 . S
O1071 Nd1040 2.424 . S
O1071 C1059 1.268 . S
H1072 C1044 0.930 . S
H1073 C1045 0.929 . S
H1074 C1047 0.930 . S
H1075 C1048 0.929 . S
H1076 C1053 0.930 . S
H1077 C1054 0.929 . S
H1078 C1056 0.930 . S
H1079 C1057 0.929 . S
Nd1080 C1082 2.836 . S
Nd1080 O1100 2.500 . S
Nd1080 O1101 2.492 . S
Nd1080 O1102 2.487 . S
Nd1080 O1103 2.682 1_565 S
Nd1080 O1104 2.410 . S
Nd1080 O1109 2.414 . S
Nd1080 O1111 2.424 . S
Nd1081 C1091 2.836 . S
Nd1081 O1103 2.414 . S
Nd1081 O1105 2.424 . S
Nd1081 O1106 2.500 . S
Nd1081 O1107 2.492 . S
Nd1081 O1108 2.487 . S
Nd1081 O1109 2.682 1_545 S
Nd1081 O1110 2.410 . S
C1082 Nd1080 2.836 . S
C1082 C1083 1.498 . S
C1082 O1100 1.258 . S
C1082 O1101 1.239 . S
C1083 C1082 1.498 . S
C1083 C1084 1.366 . S
C1083 C1088 1.407 . S
C1084 C1083 1.366 . S
C1084 C1085 1.392 . S
C1084 H1112 0.930 . S
C1085 C1084 1.392 . S
C1085 C1086 1.398 . S
C1085 H1113 0.929 1_655 S
C1086 C1085 1.398 . S
C1086 C1087 1.352 . S
C1087 C1086 1.352 . S
C1087 C1088 1.384 . S
C1087 H1114 0.930 . S
C1088 C1083 1.407 . S
C1088 C1087 1.384 . S
C1088 H1115 0.929 . S
C1089 O1102 1.241 . S
C1089 O1103 1.273 1_565 S
C1090 O1104 1.251 . S
C1090 O1105 1.268 1_565 S
C1091 Nd1081 2.836 . S
C1091 C1092 1.498 . S
C1091 O1106 1.258 . S
C1091 O1107 1.239 . S
C1092 C1091 1.498 . S
C1092 C1093 1.366 . S
C1092 C1097 1.407 . S
C1093 C1092 1.366 . S
C1093 C1094 1.392 . S
C1093 H1116 0.930 . S
C1094 C1093 1.392 . S
C1094 C1095 1.398 . S
C1094 H1117 0.929 . S
C1095 C1094 1.398 . S
C1095 C1096 1.352 . S
C1096 C1095 1.352 . S
C1096 C1097 1.384 . S
C1096 H1118 0.930 . S
C1097 C1092 1.407 . S
C1097 C1096 1.384 . S
C1097 H1119 0.929 . S
C1098 O1108 1.241 . S
C1098 O1109 1.273 1_545 S
C1099 O1110 1.251 . S
C1099 O1111 1.268 1_545 S
O1100 Nd1080 2.500 . S
O1100 C1082 1.258 . S
O1101 Nd1080 2.492 . S
O1101 C1082 1.239 . S
O1102 Nd1080 2.487 . S
O1102 C1089 1.241 . S
O1103 Nd1080 2.682 1_545 S
O1103 Nd1081 2.414 . S
O1103 C1089 1.273 1_545 S
O1104 Nd1080 2.410 . S
O1104 C1090 1.251 . S
O1105 Nd1081 2.424 . S
O1105 C1090 1.268 1_545 S
O1106 Nd1081 2.500 . S
O1106 C1091 1.258 . S
O1107 Nd1081 2.492 . S
O1107 C1091 1.239 . S
O1108 Nd1081 2.487 . S
O1108 C1098 1.241 . S
O1109 Nd1080 2.414 . S
O1109 Nd1081 2.682 1_565 S
O1109 C1098 1.273 1_565 S
O1110 Nd1081 2.410 . S
O1110 C1099 1.251 . S
O1111 Nd1080 2.424 . S
O1111 C1099 1.268 1_565 S
H1112 C1084 0.930 . S
H1113 C1085 0.929 1_455 S
H1114 C1087 0.930 . S
H1115 C1088 0.929 . S
H1116 C1093 0.930 . S
H1117 C1094 0.929 . S
H1118 C1096 0.930 . S
H1119 C1097 0.929 . S
Nd1120 C1122 2.836 . S
Nd1120 O1140 2.500 . S
Nd1120 O1141 2.492 . S
Nd1120 O1142 2.487 . S
Nd1120 O1143 2.682 1_565 S
Nd1120 O1144 2.410 . S
Nd1120 O1149 2.414 . S
Nd1120 O1151 2.424 . S
Nd1121 C1131 2.836 . S
Nd1121 O1143 2.414 . S
Nd1121 O1145 2.424 . S
Nd1121 O1146 2.500 . S
Nd1121 O1147 2.492 . S
Nd1121 O1148 2.487 . S
Nd1121 O1149 2.682 1_545 S
Nd1121 O1150 2.410 . S
C1122 Nd1120 2.836 . S
C1122 C1123 1.498 . S
C1122 O1140 1.258 . S
C1122 O1141 1.239 . S
C1123 C1122 1.498 . S
C1123 C1124 1.366 . S
C1123 C1128 1.407 . S
C1124 C1123 1.366 . S
C1124 C1125 1.392 . S
C1124 H1152 0.930 . S
C1125 C1124 1.392 . S
C1125 C1126 1.398 . S
C1125 H1153 0.929 . S
C1126 C1125 1.398 . S
C1126 C1127 1.352 . S
C1127 C1126 1.352 . S
C1127 C1128 1.384 . S
C1127 H1154 0.930 . S
C1128 C1123 1.407 . S
C1128 C1127 1.384 . S
C1128 H1155 0.929 . S
C1129 O1142 1.241 . S
C1129 O1143 1.273 1_565 S
C1130 O1144 1.251 . S
C1130 O1145 1.268 1_565 S
C1131 Nd1121 2.836 . S
C1131 C1132 1.498 . S
C1131 O1146 1.258 . S
C1131 O1147 1.239 . S
C1132 C1131 1.498 . S
C1132 C1133 1.366 . S
C1132 C1137 1.407 . S
C1133 C1132 1.366 . S
C1133 C1134 1.392 . S
C1133 H1156 0.930 . S
C1134 C1133 1.392 . S
C1134 C1135 1.398 . S
C1134 H1157 0.929 . S
C1135 C1134 1.398 . S
C1135 C1136 1.352 . S
C1136 C1135 1.352 . S
C1136 C1137 1.384 . S
C1136 H1158 0.930 . S
C1137 C1132 1.407 . S
C1137 C1136 1.384 . S
C1137 H1159 0.929 . S
C1138 O1148 1.241 . S
C1138 O1149 1.273 1_545 S
C1139 O1150 1.251 . S
C1139 O1151 1.268 1_545 S
O1140 Nd1120 2.500 . S
O1140 C1122 1.258 . S
O1141 Nd1120 2.492 . S
O1141 C1122 1.239 . S
O1142 Nd1120 2.487 . S
O1142 C1129 1.241 . S
O1143 Nd1120 2.682 1_545 S
O1143 Nd1121 2.414 . S
O1143 C1129 1.273 1_545 S
O1144 Nd1120 2.410 . S
O1144 C1130 1.251 . S
O1145 Nd1121 2.424 . S
O1145 C1130 1.268 1_545 S
O1146 Nd1121 2.500 . S
O1146 C1131 1.258 . S
O1147 Nd1121 2.492 . S
O1147 C1131 1.239 . S
O1148 Nd1121 2.487 . S
O1148 C1138 1.241 . S
O1149 Nd1120 2.414 . S
O1149 Nd1121 2.682 1_565 S
O1149 C1138 1.273 1_565 S
O1150 Nd1121 2.410 . S
O1150 C1139 1.251 . S
O1151 Nd1120 2.424 . S
O1151 C1139 1.268 1_565 S
H1152 C1124 0.930 . S
H1153 C1125 0.929 . S
H1154 C1127 0.930 . S
H1155 C1128 0.929 . S
H1156 C1133 0.930 . S
H1157 C1134 0.929 . S
H1158 C1136 0.930 . S
H1159 C1137 0.929 . S
Nd1160 C1162 2.836 . S
Nd1160 O1180 2.500 . S
Nd1160 O1181 2.492 . S
Nd1160 O1182 2.487 . S
Nd1160 O1183 2.682 . S
Nd1160 O1184 2.410 . S
Nd1160 O1189 2.414 . S
Nd1160 O1191 2.424 . S
Nd1161 C1171 2.836 . S
Nd1161 O1183 2.414 . S
Nd1161 O1185 2.424 . S
Nd1161 O1186 2.500 . S
Nd1161 O1187 2.492 . S
Nd1161 O1188 2.487 . S
Nd1161 O1189 2.682 . S
Nd1161 O1190 2.410 . S
C1162 Nd1160 2.836 . S
C1162 C1163 1.498 . S
C1162 O1180 1.258 . S
C1162 O1181 1.239 . S
C1163 C1162 1.498 . S
C1163 C1164 1.366 . S
C1163 C1168 1.407 . S
C1164 C1163 1.366 . S
C1164 C1165 1.392 . S
C1164 H1192 0.930 . S
C1165 C1164 1.392 . S
C1165 C1166 1.398 . S
C1165 H1193 0.929 . S
C1166 C1165 1.398 . S
C1166 C1167 1.352 . S
C1167 C1166 1.352 . S
C1167 C1168 1.384 . S
C1167 H1194 0.930 . S
C1168 C1163 1.407 . S
C1168 C1167 1.384 . S
C1168 H1195 0.929 . S
C1169 O1182 1.241 . S
C1169 O1183 1.273 . S
C1170 O1184 1.251 . S
C1170 O1185 1.268 . S
C1171 Nd1161 2.836 . S
C1171 C1172 1.498 . S
C1171 O1186 1.258 . S
C1171 O1187 1.239 . S
C1172 C1171 1.498 . S
C1172 C1173 1.366 . S
C1172 C1177 1.407 . S
C1173 C1172 1.366 . S
C1173 C1174 1.392 . S
C1173 H1196 0.930 . S
C1174 C1173 1.392 . S
C1174 C1175 1.398 . S
C1174 H1197 0.929 1_455 S
C1175 C1174 1.398 . S
C1175 C1176 1.352 . S
C1176 C1175 1.352 . S
C1176 C1177 1.384 . S
C1176 H1198 0.930 . S
C1177 C1172 1.407 . S
C1177 C1176 1.384 . S
C1177 H1199 0.929 . S
C1178 O1188 1.241 . S
C1178 O1189 1.273 . S
C1179 O1190 1.251 . S
C1179 O1191 1.268 . S
O1180 Nd1160 2.500 . S
O1180 C1162 1.258 . S
O1181 Nd1160 2.492 . S
O1181 C1162 1.239 . S
O1182 Nd1160 2.487 . S
O1182 C1169 1.241 . S
O1183 Nd1160 2.682 . S
O1183 Nd1161 2.414 . S
O1183 C1169 1.273 . S
O1184 Nd1160 2.410 . S
O1184 C1170 1.251 . S
O1185 Nd1161 2.424 . S
O1185 C1170 1.268 . S
O1186 Nd1161 2.500 . S
O1186 C1171 1.258 . S
O1187 Nd1161 2.492 . S
O1187 C1171 1.239 . S
O1188 Nd1161 2.487 . S
O1188 C1178 1.241 . S
O1189 Nd1160 2.414 . S
O1189 Nd1161 2.682 . S
O1189 C1178 1.273 . S
O1190 Nd1161 2.410 . S
O1190 C1179 1.251 . S
O1191 Nd1160 2.424 . S
O1191 C1179 1.268 . S
H1192 C1164 0.930 . S
H1193 C1165 0.929 . S
H1194 C1167 0.930 . S
H1195 C1168 0.929 . S
H1196 C1173 0.930 . S
H1197 C1174 0.929 1_655 S
H1198 C1176 0.930 . S
H1199 C1177 0.929 . S
Nd1200 C1202 2.836 . S
Nd1200 O1220 2.500 . S
Nd1200 O1221 2.492 . S
Nd1200 O1222 2.487 . S
Nd1200 O1223 2.682 . S
Nd1200 O1224 2.410 . S
Nd1200 O1229 2.414 . S
Nd1200 O1231 2.424 . S
Nd1201 C1211 2.836 . S
Nd1201 O1223 2.414 . S
Nd1201 O1225 2.424 . S
Nd1201 O1226 2.500 . S
Nd1201 O1227 2.492 . S
Nd1201 O1228 2.487 . S
Nd1201 O1229 2.682 . S
Nd1201 O1230 2.410 . S
C1202 Nd1200 2.836 . S
C1202 C1203 1.498 . S
C1202 O1220 1.258 . S
C1202 O1221 1.239 . S
C1203 C1202 1.498 . S
C1203 C1204 1.366 . S
C1203 C1208 1.407 . S
C1204 C1203 1.366 . S
C1204 C1205 1.392 . S
C1204 H1232 0.930 . S
C1205 C1204 1.392 . S
C1205 C1206 1.398 . S
C1205 H1233 0.929 . S
C1206 C1205 1.398 . S
C1206 C1207 1.352 . S
C1207 C1206 1.352 . S
C1207 C1208 1.384 . S
C1207 H1234 0.930 . S
C1208 C1203 1.407 . S
C1208 C1207 1.384 . S
C1208 H1235 0.929 . S
C1209 O1222 1.241 . S
C1209 O1223 1.273 . S
C1210 O1224 1.251 . S
C1210 O1225 1.268 . S
C1211 Nd1201 2.836 . S
C1211 C1212 1.498 . S
C1211 O1226 1.258 . S
C1211 O1227 1.239 . S
C1212 C1211 1.498 . S
C1212 C1213 1.366 . S
C1212 C1217 1.407 . S
C1213 C1212 1.366 . S
C1213 C1214 1.392 . S
C1213 H1236 0.930 . S
C1214 C1213 1.392 . S
C1214 C1215 1.398 . S
C1214 H1237 0.929 . S
C1215 C1214 1.398 . S
C1215 C1216 1.352 . S
C1216 C1215 1.352 . S
C1216 C1217 1.384 . S
C1216 H1238 0.930 . S
C1217 C1212 1.407 . S
C1217 C1216 1.384 . S
C1217 H1239 0.929 . S
C1218 O1228 1.241 . S
C1218 O1229 1.273 . S
C1219 O1230 1.251 . S
C1219 O1231 1.268 . S
O1220 Nd1200 2.500 . S
O1220 C1202 1.258 . S
O1221 Nd1200 2.492 . S
O1221 C1202 1.239 . S
O1222 Nd1200 2.487 . S
O1222 C1209 1.241 . S
O1223 Nd1200 2.682 . S
O1223 Nd1201 2.414 . S
O1223 C1209 1.273 . S
O1224 Nd1200 2.410 . S
O1224 C1210 1.251 . S
O1225 Nd1201 2.424 . S
O1225 C1210 1.268 . S
O1226 Nd1201 2.500 . S
O1226 C1211 1.258 . S
O1227 Nd1201 2.492 . S
O1227 C1211 1.239 . S
O1228 Nd1201 2.487 . S
O1228 C1218 1.241 . S
O1229 Nd1200 2.414 . S
O1229 Nd1201 2.682 . S
O1229 C1218 1.273 . S
O1230 Nd1201 2.410 . S
O1230 C1219 1.251 . S
O1231 Nd1200 2.424 . S
O1231 C1219 1.268 . S
H1232 C1204 0.930 . S
H1233 C1205 0.929 . S
H1234 C1207 0.930 . S
H1235 C1208 0.929 . S
H1236 C1213 0.930 . S
H1237 C1214 0.929 . S
H1238 C1216 0.930 . S
H1239 C1217 0.929 . S
Nd1240 C1242 2.836 . S
Nd1240 O1260 2.500 . S
Nd1240 O1261 2.492 . S
Nd1240 O1262 2.487 . S
Nd1240 O1263 2.682 1_565 S
Nd1240 O1264 2.410 . S
Nd1240 O1269 2.414 . S
Nd1240 O1271 2.424 . S
Nd1241 C1251 2.836 . S
Nd1241 O1263 2.414 . S
Nd1241 O1265 2.424 . S
Nd1241 O1266 2.500 . S
Nd1241 O1267 2.492 . S
Nd1241 O1268 2.487 . S
Nd1241 O1269 2.682 1_545 S
Nd1241 O1270 2.410 . S
C1242 Nd1240 2.836 . S
C1242 C1243 1.498 . S
C1242 O1260 1.258 . S
C1242 O1261 1.239 . S
C1243 C1242 1.498 . S
C1243 C1244 1.366 . S
C1243 C1248 1.407 . S
C1244 C1243 1.366 . S
C1244 C1245 1.392 . S
C1244 H1272 0.930 . S
C1245 C1244 1.392 . S
C1245 C1246 1.398 . S
C1245 H1273 0.929 . S
C1246 C1245 1.398 . S
C1246 C1247 1.352 . S
C1247 C1246 1.352 . S
C1247 C1248 1.384 . S
C1247 H1274 0.930 . S
C1248 C1243 1.407 . S
C1248 C1247 1.384 . S
C1248 H1275 0.929 . S
C1249 O1262 1.241 . S
C1249 O1263 1.273 1_565 S
C1250 O1264 1.251 . S
C1250 O1265 1.268 1_565 S
C1251 Nd1241 2.836 . S
C1251 C1252 1.498 . S
C1251 O1266 1.258 . S
C1251 O1267 1.239 . S
C1252 C1251 1.498 . S
C1252 C1253 1.366 . S
C1252 C1257 1.407 . S
C1253 C1252 1.366 . S
C1253 C1254 1.392 . S
C1253 H1276 0.930 . S
C1254 C1253 1.392 . S
C1254 C1255 1.398 . S
C1254 H1277 0.929 1_455 S
C1255 C1254 1.398 . S
C1255 C1256 1.352 . S
C1256 C1255 1.352 . S
C1256 C1257 1.384 . S
C1256 H1278 0.930 . S
C1257 C1252 1.407 . S
C1257 C1256 1.384 . S
C1257 H1279 0.929 . S
C1258 O1268 1.241 . S
C1258 O1269 1.273 1_545 S
C1259 O1270 1.251 . S
C1259 O1271 1.268 1_545 S
O1260 Nd1240 2.500 . S
O1260 C1242 1.258 . S
O1261 Nd1240 2.492 . S
O1261 C1242 1.239 . S
O1262 Nd1240 2.487 . S
O1262 C1249 1.241 . S
O1263 Nd1240 2.682 1_545 S
O1263 Nd1241 2.414 . S
O1263 C1249 1.273 1_545 S
O1264 Nd1240 2.410 . S
O1264 C1250 1.251 . S
O1265 Nd1241 2.424 . S
O1265 C1250 1.268 1_545 S
O1266 Nd1241 2.500 . S
O1266 C1251 1.258 . S
O1267 Nd1241 2.492 . S
O1267 C1251 1.239 . S
O1268 Nd1241 2.487 . S
O1268 C1258 1.241 . S
O1269 Nd1240 2.414 . S
O1269 Nd1241 2.682 1_565 S
O1269 C1258 1.273 1_565 S
O1270 Nd1241 2.410 . S
O1270 C1259 1.251 . S
O1271 Nd1240 2.424 . S
O1271 C1259 1.268 1_565 S
H1272 C1244 0.930 . S
H1273 C1245 0.929 . S
H1274 C1247 0.930 . S
H1275 C1248 0.929 . S
H1276 C1253 0.930 . S
H1277 C1254 0.929 1_655 S
H1278 C1256 0.930 . S
H1279 C1257 0.929 . S
C1280 C1281 1.369 . S
C1280 C1282 1.419 . S
C1280 H1284 0.930 . S
C1281 C1280 1.369 . S
C1281 C1290 1.429 . S
C1282 C1280 1.419 . S
C1282 C1283 1.363 . S
C1282 H1285 0.929 . S
C1283 C1282 1.363 . S
C1283 C1289 1.428 . S
H1284 C1280 0.930 . S
H1285 C1282 0.929 . S
S1286 N1287 1.613 1_455 S
S1286 N1288 1.610 . S
N1287 S1286 1.613 1_655 S
N1287 C1290 1.350 . S
N1288 S1286 1.610 . S
N1288 C1289 1.351 1_455 S
C1289 C1283 1.428 . S
C1289 N1288 1.351 1_655 S
C1289 C1290 1.434 . S
C1290 C1281 1.429 . S
C1290 N1287 1.350 . S
C1290 C1289 1.434 . S
C1291 C1292 1.369 . S
C1291 C1293 1.419 . S
C1291 H1295 0.930 . S
C1292 C1291 1.369 . S
C1292 C1301 1.429 . S
C1293 C1291 1.419 . S
C1293 C1294 1.363 . S
C1293 H1296 0.929 . S
C1294 C1293 1.363 . S
C1294 C1300 1.428 . S
H1295 C1291 0.930 . S
H1296 C1293 0.929 . S
S1297 N1298 1.613 . S
S1297 N1299 1.610 . S
N1298 S1297 1.613 . S
N1298 C1301 1.350 . S
N1299 S1297 1.610 . S
N1299 C1300 1.351 . S
C1300 C1294 1.428 . S
C1300 N1299 1.351 . S
C1300 C1301 1.434 . S
C1301 C1292 1.429 . S
C1301 N1298 1.350 . S
C1301 C1300 1.434 . S
C1302 C1303 1.369 . S
C1302 C1304 1.419 . S
C1302 H1306 0.930 . S
C1303 C1302 1.369 . S
C1303 C1312 1.429 . S
C1304 C1302 1.419 . S
C1304 C1305 1.363 . S
C1304 H1307 0.929 . S
C1305 C1304 1.363 . S
C1305 C1311 1.428 . S
H1306 C1302 0.930 . S
H1307 C1304 0.929 . S
S1308 N1309 1.613 . S
S1308 N1310 1.610 . S
N1309 S1308 1.613 . S
N1309 C1312 1.350 . S
N1310 S1308 1.610 . S
N1310 C1311 1.351 . S
C1311 C1305 1.428 . S
C1311 N1310 1.351 . S
C1311 C1312 1.434 . S
C1312 C1303 1.429 . S
C1312 N1309 1.350 . S
C1312 C1311 1.434 . S
C1313 C1314 1.369 . S
C1313 C1315 1.419 . S
C1313 H1317 0.930 . S
C1314 C1313 1.369 . S
C1314 C1323 1.429 . S
C1315 C1313 1.419 . S
C1315 C1316 1.363 . S
C1315 H1318 0.929 . S
C1316 C1315 1.363 . S
C1316 C1322 1.428 . S
H1317 C1313 0.930 . S
H1318 C1315 0.929 . S
S1319 N1320 1.613 . S
S1319 N1321 1.610 . S
N1320 S1319 1.613 . S
N1320 C1323 1.350 . S
N1321 S1319 1.610 . S
N1321 C1322 1.351 . S
C1322 C1316 1.428 . S
C1322 N1321 1.351 . S
C1322 C1323 1.434 . S
C1323 C1314 1.429 . S
C1323 N1320 1.350 . S
C1323 C1322 1.434 . S
C1324 C1325 1.369 . S
C1324 C1326 1.419 . S
C1324 H1328 0.930 . S
C1325 C1324 1.369 . S
C1325 C1334 1.429 . S
C1326 C1324 1.419 . S
C1326 C1327 1.363 . S
C1326 H1329 0.929 1_455 S
C1327 C1326 1.363 . S
C1327 C1333 1.428 . S
H1328 C1324 0.930 . S
H1329 C1326 0.929 1_655 S
S1330 N1331 1.613 . S
S1330 N1332 1.610 . S
N1331 S1330 1.613 . S
N1331 C1334 1.350 . S
N1332 S1330 1.610 . S
N1332 C1333 1.351 . S
C1333 C1327 1.428 . S
C1333 N1332 1.351 . S
C1333 C1334 1.434 . S
C1334 C1325 1.429 . S
C1334 N1331 1.350 . S
C1334 C1333 1.434 . S
C1335 C1336 1.369 . S
C1335 C1337 1.419 . S
C1335 H1339 0.930 . S
C1336 C1335 1.369 . S
C1336 C1345 1.429 . S
C1337 C1335 1.419 . S
C1337 C1338 1.363 . S
C1337 H1340 0.929 . S
C1338 C1337 1.363 . S
C1338 C1344 1.428 . S
H1339 C1335 0.930 . S
H1340 C1337 0.929 . S
S1341 N1342 1.613 . S
S1341 N1343 1.610 . S
N1342 S1341 1.613 . S
N1342 C1345 1.350 . S
N1343 S1341 1.610 . S
N1343 C1344 1.351 . S
C1344 C1338 1.428 . S
C1344 N1343 1.351 . S
C1344 C1345 1.434 . S
C1345 C1336 1.429 . S
C1345 N1342 1.350 . S
C1345 C1344 1.434 . S
C1346 C1347 1.369 . S
C1346 C1348 1.419 . S
C1346 H1350 0.930 . S
C1347 C1346 1.369 . S
C1347 C1356 1.429 . S
C1348 C1346 1.419 . S
C1348 C1349 1.363 . S
C1348 H1351 0.929 1_455 S
C1349 C1348 1.363 . S
C1349 C1355 1.428 . S
H1350 C1346 0.930 . S
H1351 C1348 0.929 1_655 S
S1352 N1353 1.613 . S
S1352 N1354 1.610 . S
N1353 S1352 1.613 . S
N1353 C1356 1.350 . S
N1354 S1352 1.610 . S
N1354 C1355 1.351 . S
C1355 C1349 1.428 . S
C1355 N1354 1.351 . S
C1355 C1356 1.434 . S
C1356 C1347 1.429 . S
C1356 N1353 1.350 . S
C1356 C1355 1.434 . S
C1357 C1358 1.369 . S
C1357 C1359 1.419 . S
C1357 H1361 0.930 . S
C1358 C1357 1.369 . S
C1358 C1367 1.429 . S
C1359 C1357 1.419 . S
C1359 C1360 1.363 . S
C1359 H1362 0.929 . S
C1360 C1359 1.363 . S
C1360 C1366 1.428 . S
H1361 C1357 0.930 . S
H1362 C1359 0.929 . S
S1363 N1364 1.613 . S
S1363 N1365 1.610 . S
N1364 S1363 1.613 . S
N1364 C1367 1.350 . S
N1365 S1363 1.610 . S
N1365 C1366 1.351 . S
C1366 C1360 1.428 . S
C1366 N1365 1.351 . S
C1366 C1367 1.434 . S
C1367 C1358 1.429 . S
C1367 N1364 1.350 . S
C1367 C1366 1.434 . S
C1368 C1369 1.369 . S
C1368 C1370 1.419 . S
C1368 H1372 0.930 . S
C1369 C1368 1.369 . S
C1369 C1378 1.429 . S
C1370 C1368 1.419 . S
C1370 C1371 1.363 . S
C1370 H1373 0.929 1_655 S
C1371 C1370 1.363 . S
C1371 C1377 1.428 . S
H1372 C1368 0.930 . S
H1373 C1370 0.929 1_455 S
S1374 N1375 1.613 . S
S1374 N1376 1.610 . S
N1375 S1374 1.613 . S
N1375 C1378 1.350 . S
N1376 S1374 1.610 . S
N1376 C1377 1.351 . S
C1377 C1371 1.428 . S
C1377 N1376 1.351 . S
C1377 C1378 1.434 . S
C1378 C1369 1.429 . S
C1378 N1375 1.350 . S
C1378 C1377 1.434 . S
C1379 C1380 1.369 . S
C1379 C1381 1.419 . S
C1379 H1383 0.930 . S
C1380 C1379 1.369 . S
C1380 C1389 1.429 . S
C1381 C1379 1.419 . S
C1381 C1382 1.363 . S
C1381 H1384 0.929 . S
C1382 C1381 1.363 . S
C1382 C1388 1.428 . S
H1383 C1379 0.930 . S
H1384 C1381 0.929 . S
S1385 N1386 1.613 . S
S1385 N1387 1.610 . S
N1386 S1385 1.613 . S
N1386 C1389 1.350 . S
N1387 S1385 1.610 . S
N1387 C1388 1.351 . S
C1388 C1382 1.428 . S
C1388 N1387 1.351 . S
C1388 C1389 1.434 . S
C1389 C1380 1.429 . S
C1389 N1386 1.350 . S
C1389 C1388 1.434 . S
C1390 C1391 1.369 . S
C1390 C1392 1.419 . S
C1390 H1394 0.930 . S
C1391 C1390 1.369 . S
C1391 C1400 1.429 . S
C1392 C1390 1.419 . S
C1392 C1393 1.363 . S
C1392 H1395 0.929 1_655 S
C1393 C1392 1.363 . S
C1393 C1399 1.428 . S
H1394 C1390 0.930 . S
H1395 C1392 0.929 1_455 S
S1396 N1397 1.613 . S
S1396 N1398 1.610 . S
N1397 S1396 1.613 . S
N1397 C1400 1.350 . S
N1398 S1396 1.610 . S
N1398 C1399 1.351 . S
C1399 C1393 1.428 . S
C1399 N1398 1.351 . S
C1399 C1400 1.434 . S
C1400 C1391 1.429 . S
C1400 N1397 1.350 . S
C1400 C1399 1.434 . S
C1401 C1402 1.369 . S
C1401 C1403 1.419 . S
C1401 H1405 0.930 . S
C1402 C1401 1.369 . S
C1402 C1411 1.429 . S
C1403 C1401 1.419 . S
C1403 C1404 1.363 . S
C1403 H1406 0.929 . S
C1404 C1403 1.363 . S
C1404 C1410 1.428 . S
H1405 C1401 0.930 . S
H1406 C1403 0.929 . S
S1407 N1408 1.613 . S
S1407 N1409 1.610 . S
N1408 S1407 1.613 . S
N1408 C1411 1.350 . S
N1409 S1407 1.610 . S
N1409 C1410 1.351 . S
C1410 C1404 1.428 . S
C1410 N1409 1.351 . S
C1410 C1411 1.434 . S
C1411 C1402 1.429 . S
C1411 N1408 1.350 . S
C1411 C1410 1.434 . S
C1412 C1413 1.369 . S
C1412 C1414 1.419 . S
C1412 H1416 0.930 . S
C1413 C1412 1.369 . S
C1413 C1422 1.429 . S
C1414 C1412 1.419 . S
C1414 C1415 1.363 . S
C1414 H1417 0.929 . S
C1415 C1414 1.363 . S
C1415 C1421 1.428 . S
H1416 C1412 0.930 . S
H1417 C1414 0.929 . S
S1418 N1419 1.613 . S
S1418 N1420 1.610 . S
N1419 S1418 1.613 . S
N1419 C1422 1.350 . S
N1420 S1418 1.610 . S
N1420 C1421 1.351 . S
C1421 C1415 1.428 . S
C1421 N1420 1.351 . S
C1421 C1422 1.434 . S
C1422 C1413 1.429 . S
C1422 N1419 1.350 . S
C1422 C1421 1.434 . S
C1423 C1424 1.369 . S
C1423 C1425 1.419 . S
C1423 H1427 0.930 . S
C1424 C1423 1.369 . S
C1424 C1433 1.429 . S
C1425 C1423 1.419 . S
C1425 C1426 1.363 . S
C1425 H1428 0.929 . S
C1426 C1425 1.363 . S
C1426 C1432 1.428 . S
H1427 C1423 0.930 . S
H1428 C1425 0.929 . S
S1429 N1430 1.613 . S
S1429 N1431 1.610 . S
N1430 S1429 1.613 . S
N1430 C1433 1.350 . S
N1431 S1429 1.610 . S
N1431 C1432 1.351 . S
C1432 C1426 1.428 . S
C1432 N1431 1.351 . S
C1432 C1433 1.434 . S
C1433 C1424 1.429 . S
C1433 N1430 1.350 . S
C1433 C1432 1.434 . S
C1434 C1435 1.369 . S
C1434 C1436 1.419 . S
C1434 H1438 0.930 1_455 S
C1435 C1434 1.369 . S
C1435 C1444 1.429 . S
C1436 C1434 1.419 . S
C1436 C1437 1.363 . S
C1436 H1439 0.929 . S
C1437 C1436 1.363 . S
C1437 C1443 1.428 . S
H1438 C1434 0.930 1_655 S
H1439 C1436 0.929 . S
S1440 N1441 1.613 . S
S1440 N1442 1.610 . S
N1441 S1440 1.613 . S
N1441 C1444 1.350 . S
N1442 S1440 1.610 . S
N1442 C1443 1.351 . S
C1443 C1437 1.428 . S
C1443 N1442 1.351 . S
C1443 C1444 1.434 . S
C1444 C1435 1.429 . S
C1444 N1441 1.350 . S
C1444 C1443 1.434 . S
C1445 C1446 1.369 . S
C1445 C1447 1.419 . S
C1445 H1449 0.930 . S
C1446 C1445 1.369 . S
C1446 C1455 1.429 . S
C1447 C1445 1.419 . S
C1447 C1448 1.363 . S
C1447 H1450 0.929 . S
C1448 C1447 1.363 . S
C1448 C1454 1.428 . S
H1449 C1445 0.930 . S
H1450 C1447 0.929 . S
S1451 N1452 1.613 . S
S1451 N1453 1.610 . S
N1452 S1451 1.613 . S
N1452 C1455 1.350 . S
N1453 S1451 1.610 . S
N1453 C1454 1.351 . S
C1454 C1448 1.428 . S
C1454 N1453 1.351 . S
C1454 C1455 1.434 . S
C1455 C1446 1.429 . S
C1455 N1452 1.350 . S
C1455 C1454 1.434 . S
C1456 C1457 1.369 . S
C1456 C1458 1.419 . S
C1456 H1460 0.930 . S
C1457 C1456 1.369 . S
C1457 C1466 1.429 . S
C1458 C1456 1.419 . S
C1458 C1459 1.363 . S
C1458 H1461 0.929 . S
C1459 C1458 1.363 . S
C1459 C1465 1.428 . S
H1460 C1456 0.930 . S
H1461 C1458 0.929 . S
S1462 N1463 1.613 . S
S1462 N1464 1.610 . S
N1463 S1462 1.613 . S
N1463 C1466 1.350 . S
N1464 S1462 1.610 . S
N1464 C1465 1.351 . S
C1465 C1459 1.428 . S
C1465 N1464 1.351 . S
C1465 C1466 1.434 . S
C1466 C1457 1.429 . S
C1466 N1463 1.350 . S
C1466 C1465 1.434 . S
C1467 C1468 1.369 . S
C1467 C1469 1.419 . S
C1467 H1471 0.930 . S
C1468 C1467 1.369 . S
C1468 C1477 1.429 . S
C1469 C1467 1.419 . S
C1469 C1470 1.363 . S
C1469 H1472 0.929 . S
C1470 C1469 1.363 . S
C1470 C1476 1.428 . S
H1471 C1467 0.930 . S
H1472 C1469 0.929 . S
S1473 N1474 1.613 . S
S1473 N1475 1.610 . S
N1474 S1473 1.613 . S
N1474 C1477 1.350 . S
N1475 S1473 1.610 . S
N1475 C1476 1.351 . S
C1476 C1470 1.428 . S
C1476 N1475 1.351 . S
C1476 C1477 1.434 . S
C1477 C1468 1.429 . S
C1477 N1474 1.350 . S
C1477 C1476 1.434 . S
C1478 C1479 1.369 . S
C1478 C1480 1.419 . S
C1478 H1482 0.930 . S
C1479 C1478 1.369 . S
C1479 C1488 1.429 . S
C1480 C1478 1.419 . S
C1480 C1481 1.363 . S
C1480 H1483 0.929 1_655 S
C1481 C1480 1.363 . S
C1481 C1487 1.428 . S
H1482 C1478 0.930 . S
H1483 C1480 0.929 1_455 S
S1484 N1485 1.613 . S
S1484 N1486 1.610 . S
N1485 S1484 1.613 . S
N1485 C1488 1.350 . S
N1486 S1484 1.610 . S
N1486 C1487 1.351 . S
C1487 C1481 1.428 . S
C1487 N1486 1.351 . S
C1487 C1488 1.434 . S
C1488 C1479 1.429 . S
C1488 N1485 1.350 . S
C1488 C1487 1.434 . S
C1489 C1490 1.369 . S
C1489 C1491 1.419 . S
C1489 H1493 0.930 . S
C1490 C1489 1.369 . S
C1490 C1499 1.429 . S
C1491 C1489 1.419 . S
C1491 C1492 1.363 . S
C1491 H1494 0.929 . S
C1492 C1491 1.363 . S
C1492 C1498 1.428 . S
H1493 C1489 0.930 . S
H1494 C1491 0.929 . S
S1495 N1496 1.613 . S
S1495 N1497 1.610 . S
N1496 S1495 1.613 . S
N1496 C1499 1.350 . S
N1497 S1495 1.610 . S
N1497 C1498 1.351 . S
C1498 C1492 1.428 . S
C1498 N1497 1.351 . S
C1498 C1499 1.434 . S
C1499 C1490 1.429 . S
C1499 N1496 1.350 . S
C1499 C1498 1.434 . S
C1500 C1501 1.379 . S
C1500 C1502 1.419 . S
C1500 H1504 0.930 1_455 S
C1501 C1500 1.379 . S
C1501 C1510 1.420 1_545 S
C1502 C1500 1.419 . S
C1502 C1503 1.373 . S
C1502 H1505 0.929 . S
C1503 C1502 1.373 . S
C1503 C1509 1.420 1_545 S
H1504 C1500 0.930 1_655 S
H1505 C1502 0.929 . S
S1506 N1507 1.613 . S
S1506 N1508 1.610 . S
N1507 S1506 1.613 . S
N1507 C1510 1.350 . S
N1508 S1506 1.610 . S
N1508 C1509 1.351 . S
C1509 C1503 1.420 1_565 S
C1509 N1508 1.351 . S
C1509 C1510 1.434 . S
C1510 C1501 1.420 1_565 S
C1510 N1507 1.350 . S
C1510 C1509 1.434 . S
C1511 C1512 1.369 . S
C1511 C1513 1.419 . S
C1511 H1515 0.930 . S
C1512 C1511 1.369 . S
C1512 C1521 1.429 . S
C1513 C1511 1.419 . S
C1513 C1514 1.363 . S
C1513 H1516 0.929 . S
C1514 C1513 1.363 . S
C1514 C1520 1.428 . S
H1515 C1511 0.930 . S
H1516 C1513 0.929 . S
S1517 N1518 1.613 . S
S1517 N1519 1.610 . S
N1518 S1517 1.613 . S
N1518 C1521 1.350 1_655 S
N1519 S1517 1.610 . S
N1519 C1520 1.351 1_655 S
C1520 C1514 1.428 . S
C1520 N1519 1.351 1_455 S
C1520 C1521 1.434 . S
C1521 C1512 1.429 . S
C1521 N1518 1.350 1_455 S
C1521 C1520 1.434 . S
C1522 C1523 1.304 1_545 S
C1522 C1524 1.419 . S
C1522 H1526 0.930 . S
C1523 C1522 1.304 1_565 S
C1523 C1532 1.496 . S
C1524 C1522 1.419 . S
C1524 C1525 1.301 1_545 S
C1524 H1527 0.929 . S
C1525 C1524 1.301 1_565 S
C1525 C1531 1.493 . S
H1526 C1522 0.930 . S
H1527 C1524 0.929 . S
S1528 N1529 1.613 . S
S1528 N1530 1.610 . S
N1529 S1528 1.613 . S
N1529 C1532 1.350 . S
N1530 S1528 1.610 . S
N1530 C1531 1.351 . S
C1531 C1525 1.493 . S
C1531 N1530 1.351 . S
C1531 C1532 1.434 . S
C1532 C1523 1.496 . S
C1532 N1529 1.350 . S
C1532 C1531 1.434 . S
C1533 C1534 1.369 . S
C1533 C1535 1.419 . S
C1533 H1537 0.930 . S
C1534 C1533 1.369 . S
C1534 C1543 1.429 . S
C1535 C1533 1.419 . S
C1535 C1536 1.363 . S
C1535 H1538 0.929 . S
C1536 C1535 1.363 . S
C1536 C1542 1.428 . S
H1537 C1533 0.930 . S
H1538 C1535 0.929 . S
S1539 N1540 1.613 . S
S1539 N1541 1.610 1_455 S
N1540 S1539 1.613 . S
N1540 C1543 1.350 1_455 S
N1541 S1539 1.610 1_655 S
N1541 C1542 1.351 . S
C1542 C1536 1.428 . S
C1542 N1541 1.351 . S
C1542 C1543 1.434 . S
C1543 C1534 1.429 . S
C1543 N1540 1.350 1_655 S
C1543 C1542 1.434 . S
C1544 C1545 1.369 . S
C1544 C1546 1.419 . S
C1544 H1548 0.930 . S
C1545 C1544 1.369 . S
C1545 C1554 1.429 . S
C1546 C1544 1.419 . S
C1546 C1547 1.363 . S
C1546 H1549 0.929 . S
C1547 C1546 1.363 . S
C1547 C1553 1.428 . S
H1548 C1544 0.930 . S
H1549 C1546 0.929 . S
S1550 N1551 1.613 . S
S1550 N1552 1.610 . S
N1551 S1550 1.613 . S
N1551 C1554 1.350 . S
N1552 S1550 1.610 . S
N1552 C1553 1.351 . S
C1553 C1547 1.428 . S
C1553 N1552 1.351 . S
C1553 C1554 1.434 . S
C1554 C1545 1.429 . S
C1554 N1551 1.350 . S
C1554 C1553 1.434 . S
C1555 C1556 1.369 . S
C1555 C1557 1.419 . S
C1555 H1559 0.930 . S
C1556 C1555 1.369 . S
C1556 C1565 1.429 . S
C1557 C1555 1.419 . S
C1557 C1558 1.363 . S
C1557 H1560 0.929 . S
C1558 C1557 1.363 . S
C1558 C1564 1.428 . S
H1559 C1555 0.930 . S
H1560 C1557 0.929 . S
S1561 N1562 1.613 . S
S1561 N1563 1.610 . S
N1562 S1561 1.613 . S
N1562 C1565 1.350 . S
N1563 S1561 1.610 . S
N1563 C1564 1.351 . S
C1564 C1558 1.428 . S
C1564 N1563 1.351 . S
C1564 C1565 1.434 . S
C1565 C1556 1.429 . S
C1565 N1562 1.350 . S
C1565 C1564 1.434 . S
C1566 C1567 1.369 . S
C1566 C1568 1.419 . S
C1566 H1570 0.930 . S
C1567 C1566 1.369 . S
C1567 C1576 1.429 . S
C1568 C1566 1.419 . S
C1568 C1569 1.363 . S
C1568 H1571 0.929 . S
C1569 C1568 1.363 . S
C1569 C1575 1.428 . S
H1570 C1566 0.930 . S
H1571 C1568 0.929 . S
S1572 N1573 1.613 . S
S1572 N1574 1.610 . S
N1573 S1572 1.613 . S
N1573 C1576 1.350 . S
N1574 S1572 1.610 . S
N1574 C1575 1.351 . S
C1575 C1569 1.428 . S
C1575 N1574 1.351 . S
C1575 C1576 1.434 . S
C1576 C1567 1.429 . S
C1576 N1573 1.350 . S
C1576 C1575 1.434 . S
C1577 C1578 1.369 . S
C1577 C1579 1.419 . S
C1577 H1581 0.930 . S
C1578 C1577 1.369 . S
C1578 C1587 1.429 . S
C1579 C1577 1.419 . S
C1579 C1580 1.363 . S
C1579 H1582 0.929 . S
C1580 C1579 1.363 . S
C1580 C1586 1.428 . S
H1581 C1577 0.930 . S
H1582 C1579 0.929 . S
S1583 N1584 1.613 . S
S1583 N1585 1.610 . S
N1584 S1583 1.613 . S
N1584 C1587 1.350 . S
N1585 S1583 1.610 . S
N1585 C1586 1.351 . S
C1586 C1580 1.428 . S
C1586 N1585 1.351 . S
C1586 C1587 1.434 . S
C1587 C1578 1.429 . S
C1587 N1584 1.350 . S
C1587 C1586 1.434 . S
C1588 C1589 1.395 . S
C1588 C1590 1.419 . S
C1588 H1592 0.930 . S
C1589 C1588 1.395 . S
C1589 C1598 1.403 1_545 S
C1590 C1588 1.419 . S
C1590 C1591 1.391 . S
C1590 H1593 0.929 . S
C1591 C1590 1.391 . S
C1591 C1597 1.400 1_545 S
H1592 C1588 0.930 . S
H1593 C1590 0.929 . S
S1594 N1595 1.613 . S
S1594 N1596 1.610 . S
N1595 S1594 1.613 . S
N1595 C1598 1.350 . S
N1596 S1594 1.610 . S
N1596 C1597 1.351 . S
C1597 C1591 1.400 1_565 S
C1597 N1596 1.351 . S
C1597 C1598 1.434 . S
C1598 C1589 1.403 1_565 S
C1598 N1595 1.350 . S
C1598 C1597 1.434 . S
C1599 C1600 1.369 . S
C1599 C1601 1.419 . S
C1599 H1603 0.930 . S
C1600 C1599 1.369 . S
C1600 C1609 1.429 . S
C1601 C1599 1.419 . S
C1601 C1602 1.363 . S
C1601 H1604 0.929 . S
C1602 C1601 1.363 . S
C1602 C1608 1.428 . S
H1603 C1599 0.930 . S
H1604 C1601 0.929 . S
S1605 N1606 1.613 . S
S1605 N1607 1.610 . S
N1606 S1605 1.613 . S
N1606 C1609 1.350 . S
N1607 S1605 1.610 . S
N1607 C1608 1.351 . S
C1608 C1602 1.428 . S
C1608 N1607 1.351 . S
C1608 C1609 1.434 . S
C1609 C1600 1.429 . S
C1609 N1606 1.350 . S
C1609 C1608 1.434 . S
C1610 C1611 1.356 1_545 S
C1610 C1612 1.419 . S
C1610 H1614 0.930 . S
C1611 C1610 1.356 1_565 S
C1611 C1620 1.444 . S
C1612 C1610 1.419 . S
C1612 C1613 1.349 1_545 S
C1612 H1615 0.929 . S
C1613 C1612 1.349 1_565 S
C1613 C1619 1.444 . S
H1614 C1610 0.930 . S
H1615 C1612 0.929 . S
S1616 N1617 1.613 . S
S1616 N1618 1.610 . S
N1617 S1616 1.613 . S
N1617 C1620 1.350 . S
N1618 S1616 1.610 . S
N1618 C1619 1.351 . S
C1619 C1613 1.444 . S
C1619 N1618 1.351 . S
C1619 C1620 1.434 . S
C1620 C1611 1.444 . S
C1620 N1617 1.350 . S
C1620 C1619 1.434 . S
C1621 C1622 1.369 . S
C1621 C1623 1.419 . S
C1621 H1625 0.930 . S
C1622 C1621 1.369 . S
C1622 C1631 1.429 . S
C1623 C1621 1.419 . S
C1623 C1624 1.363 . S
C1623 H1626 0.929 . S
C1624 C1623 1.363 . S
C1624 C1630 1.428 . S
H1625 C1621 0.930 . S
H1626 C1623 0.929 . S
S1627 N1628 1.613 . S
S1627 N1629 1.610 . S
N1628 S1627 1.613 . S
N1628 C1631 1.350 . S
N1629 S1627 1.610 . S
N1629 C1630 1.351 . S
C1630 C1624 1.428 . S
C1630 N1629 1.351 . S
C1630 C1631 1.434 . S
C1631 C1622 1.429 . S
C1631 N1628 1.350 . S
C1631 C1630 1.434 . S
C1632 C1633 1.369 . S
C1632 C1634 1.419 . S
C1632 H1636 0.930 . S
C1633 C1632 1.369 . S
C1633 C1642 1.429 . S
C1634 C1632 1.419 . S
C1634 C1635 1.363 . S
C1634 H1637 0.929 . S
C1635 C1634 1.363 . S
C1635 C1641 1.428 . S
H1636 C1632 0.930 . S
H1637 C1634 0.929 . S
S1638 N1639 1.613 . S
S1638 N1640 1.610 1_655 S
N1639 S1638 1.613 . S
N1639 C1642 1.350 1_655 S
N1640 S1638 1.610 1_455 S
N1640 C1641 1.351 . S
C1641 C1635 1.428 . S
C1641 N1640 1.351 . S
C1641 C1642 1.434 . S
C1642 C1633 1.429 . S
C1642 N1639 1.350 1_455 S
C1642 C1641 1.434 . S
C1643 C1644 1.369 . S
C1643 C1645 1.419 . S
C1643 H1647 0.930 . S
C1644 C1643 1.369 . S
C1644 C1653 1.429 . S
C1645 C1643 1.419 . S
C1645 C1646 1.363 . S
C1645 H1648 0.929 1_455 S
C1646 C1645 1.363 . S
C1646 C1652 1.428 . S
H1647 C1643 0.930 . S
H1648 C1645 0.929 1_655 S
S1649 N1650 1.613 . S
S1649 N1651 1.610 . S
N1650 S1649 1.613 . S
N1650 C1653 1.350 . S
N1651 S1649 1.610 . S
N1651 C1652 1.351 . S
C1652 C1646 1.428 . S
C1652 N1651 1.351 . S
C1652 C1653 1.434 . S
C1653 C1644 1.429 . S
C1653 N1650 1.350 . S
C1653 C1652 1.434 . S
C1654 C1655 1.369 . S
C1654 C1656 1.419 . S
C1654 H1658 0.930 . S
C1655 C1654 1.369 . S
C1655 C1664 1.429 . S
C1656 C1654 1.419 . S
C1656 C1657 1.363 . S
C1656 H1659 0.929 . S
C1657 C1656 1.363 . S
C1657 C1663 1.428 . S
H1658 C1654 0.930 . S
H1659 C1656 0.929 . S
S1660 N1661 1.613 . S
S1660 N1662 1.610 1_455 S
N1661 S1660 1.613 . S
N1661 C1664 1.350 1_455 S
N1662 S1660 1.610 1_655 S
N1662 C1663 1.351 . S
C1663 C1657 1.428 . S
C1663 N1662 1.351 . S
C1663 C1664 1.434 . S
C1664 C1655 1.429 . S
C1664 N1661 1.350 1_655 S
C1664 C1663 1.434 . S
C1665 C1666 1.369 . S
C1665 C1667 1.419 . S
C1665 H1669 0.930 . S
C1666 C1665 1.369 . S
C1666 C1675 1.429 . S
C1667 C1665 1.419 . S
C1667 C1668 1.363 . S
C1667 H1670 0.929 . S
C1668 C1667 1.363 . S
C1668 C1674 1.428 . S
H1669 C1665 0.930 . S
H1670 C1667 0.929 . S
S1671 N1672 1.613 . S
S1671 N1673 1.610 . S
N1672 S1671 1.613 . S
N1672 C1675 1.350 . S
N1673 S1671 1.610 . S
N1673 C1674 1.351 . S
C1674 C1668 1.428 . S
C1674 N1673 1.351 . S
C1674 C1675 1.434 . S
C1675 C1666 1.429 . S
C1675 N1672 1.350 . S
C1675 C1674 1.434 . S
C1676 C1677 1.369 . S
C1676 C1678 1.419 . S
C1676 H1680 0.930 . S
C1677 C1676 1.369 . S
C1677 C1686 1.429 . S
C1678 C1676 1.419 . S
C1678 C1679 1.363 . S
C1678 H1681 0.929 . S
C1679 C1678 1.363 . S
C1679 C1685 1.428 . S
H1680 C1676 0.930 . S
H1681 C1678 0.929 . S
S1682 N1683 1.613 . S
S1682 N1684 1.610 . S
N1683 S1682 1.613 . S
N1683 C1686 1.350 . S
N1684 S1682 1.610 . S
N1684 C1685 1.351 . S
C1685 C1679 1.428 . S
C1685 N1684 1.351 . S
C1685 C1686 1.434 . S
C1686 C1677 1.429 . S
C1686 N1683 1.350 . S
C1686 C1685 1.434 . S
C1687 C1688 1.369 . S
C1687 C1689 1.419 . S
C1687 H1691 0.930 . S
C1688 C1687 1.369 . S
C1688 C1697 1.429 . S
C1689 C1687 1.419 . S
C1689 C1690 1.363 . S
C1689 H1692 0.929 . S
C1690 C1689 1.363 . S
C1690 C1696 1.428 . S
H1691 C1687 0.930 . S
H1692 C1689 0.929 . S
S1693 N1694 1.613 . S
S1693 N1695 1.610 . S
N1694 S1693 1.613 . S
N1694 C1697 1.350 . S
N1695 S1693 1.610 . S
N1695 C1696 1.351 . S
C1696 C1690 1.428 . S
C1696 N1695 1.351 . S
C1696 C1697 1.434 . S
C1697 C1688 1.429 . S
C1697 N1694 1.350 . S
C1697 C1696 1.434 . S
C1698 C1699 1.369 . S
C1698 C1700 1.419 . S
C1698 H1702 0.930 . S
C1699 C1698 1.369 . S
C1699 C1708 1.429 . S
C1700 C1698 1.419 . S
C1700 C1701 1.363 . S
C1700 H1703 0.929 . S
C1701 C1700 1.363 . S
C1701 C1707 1.428 . S
H1702 C1698 0.930 . S
H1703 C1700 0.929 . S
S1704 N1705 1.613 . S
S1704 N1706 1.610 1_455 S
N1705 S1704 1.613 . S
N1705 C1708 1.350 1_455 S
N1706 S1704 1.610 1_655 S
N1706 C1707 1.351 . S
C1707 C1701 1.428 . S
C1707 N1706 1.351 . S
C1707 C1708 1.434 . S
C1708 C1699 1.429 . S
C1708 N1705 1.350 1_655 S
C1708 C1707 1.434 . S
C1709 C1710 1.369 . S
C1709 C1711 1.419 . S
C1709 H1713 0.930 . S
C1710 C1709 1.369 . S
C1710 C1719 1.429 . S
C1711 C1709 1.419 . S
C1711 C1712 1.363 . S
C1711 H1714 0.929 . S
C1712 C1711 1.363 . S
C1712 C1718 1.428 . S
H1713 C1709 0.930 . S
H1714 C1711 0.929 . S
S1715 N1716 1.613 1_455 S
S1715 N1717 1.610 . S
N1716 S1715 1.613 1_655 S
N1716 C1719 1.350 . S
N1717 S1715 1.610 . S
N1717 C1718 1.351 1_455 S
C1718 C1712 1.428 . S
C1718 N1717 1.351 1_655 S
C1718 C1719 1.434 . S
C1719 C1710 1.429 . S
C1719 N1716 1.350 . S
C1719 C1718 1.434 . S
C1720 C1721 1.369 . S
C1720 C1722 1.419 . S
C1720 H1724 0.930 . S
C1721 C1720 1.369 . S
C1721 C1730 1.429 . S
C1722 C1720 1.419 . S
C1722 C1723 1.363 . S
C1722 H1725 0.929 . S
C1723 C1722 1.363 . S
C1723 C1729 1.428 . S
H1724 C1720 0.930 . S
H1725 C1722 0.929 . S
S1726 N1727 1.613 . S
S1726 N1728 1.610 . S
N1727 S1726 1.613 . S
N1727 C1730 1.350 . S
N1728 S1726 1.610 . S
N1728 C1729 1.351 . S
C1729 C1723 1.428 . S
C1729 N1728 1.351 . S
C1729 C1730 1.434 . S
C1730 C1721 1.429 . S
C1730 N1727 1.350 . S
C1730 C1729 1.434 . S
C1731 C1732 1.369 . S
C1731 C1733 1.419 . S
C1731 H1735 0.930 . S
C1732 C1731 1.369 . S
C1732 C1741 1.429 . S
C1733 C1731 1.419 . S
C1733 C1734 1.363 . S
C1733 H1736 0.929 . S
C1734 C1733 1.363 . S
C1734 C1740 1.428 . S
H1735 C1731 0.930 . S
H1736 C1733 0.929 . S
S1737 N1738 1.613 . S
S1737 N1739 1.610 . S
N1738 S1737 1.613 . S
N1738 C1741 1.350 . S
N1739 S1737 1.610 . S
N1739 C1740 1.351 . S
C1740 C1734 1.428 . S
C1740 N1739 1.351 . S
C1740 C1741 1.434 . S
C1741 C1732 1.429 . S
C1741 N1738 1.350 . S
C1741 C1740 1.434 . S
C1742 C1743 1.369 . S
C1742 C1744 1.419 . S
C1742 H1746 0.930 . S
C1743 C1742 1.369 . S
C1743 C1752 1.429 . S
C1744 C1742 1.419 . S
C1744 C1745 1.363 . S
C1744 H1747 0.929 . S
C1745 C1744 1.363 . S
C1745 C1751 1.428 . S
H1746 C1742 0.930 . S
H1747 C1744 0.929 . S
S1748 N1749 1.613 . S
S1748 N1750 1.610 . S
N1749 S1748 1.613 . S
N1749 C1752 1.350 . S
N1750 S1748 1.610 . S
N1750 C1751 1.351 . S
C1751 C1745 1.428 . S
C1751 N1750 1.351 . S
C1751 C1752 1.434 . S
C1752 C1743 1.429 . S
C1752 N1749 1.350 . S
C1752 C1751 1.434 . S
C1753 C1754 1.369 . S
C1753 C1755 1.419 . S
C1753 H1757 0.930 . S
C1754 C1753 1.369 . S
C1754 C1763 1.429 . S
C1755 C1753 1.419 . S
C1755 C1756 1.363 . S
C1755 H1758 0.929 . S
C1756 C1755 1.363 . S
C1756 C1762 1.428 . S
H1757 C1753 0.930 . S
H1758 C1755 0.929 . S
S1759 N1760 1.613 . S
S1759 N1761 1.610 . S
N1760 S1759 1.613 . S
N1760 C1763 1.350 . S
N1761 S1759 1.610 . S
N1761 C1762 1.351 . S
C1762 C1756 1.428 . S
C1762 N1761 1.351 . S
C1762 C1763 1.434 . S
C1763 C1754 1.429 . S
C1763 N1760 1.350 . S
C1763 C1762 1.434 . S
C1764 C1765 1.369 . S
C1764 C1766 1.419 . S
C1764 H1768 0.930 . S
C1765 C1764 1.369 . S
C1765 C1774 1.429 . S
C1766 C1764 1.419 . S
C1766 C1767 1.363 . S
C1766 H1769 0.929 . S
C1767 C1766 1.363 . S
C1767 C1773 1.428 . S
H1768 C1764 0.930 . S
H1769 C1766 0.929 . S
S1770 N1771 1.613 . S
S1770 N1772 1.610 . S
N1771 S1770 1.613 . S
N1771 C1774 1.350 . S
N1772 S1770 1.610 . S
N1772 C1773 1.351 . S
C1773 C1767 1.428 . S
C1773 N1772 1.351 . S
C1773 C1774 1.434 . S
C1774 C1765 1.429 . S
C1774 N1771 1.350 . S
C1774 C1773 1.434 . S
C1775 C1776 1.369 . S
C1775 C1777 1.419 . S
C1775 H1779 0.930 . S
C1776 C1775 1.369 . S
C1776 C1785 1.429 . S
C1777 C1775 1.419 . S
C1777 C1778 1.363 . S
C1777 H1780 0.929 . S
C1778 C1777 1.363 . S
C1778 C1784 1.428 . S
H1779 C1775 0.930 . S
H1780 C1777 0.929 . S
S1781 N1782 1.613 . S
S1781 N1783 1.610 . S
N1782 S1781 1.613 . S
N1782 C1785 1.350 . S
N1783 S1781 1.610 . S
N1783 C1784 1.351 . S
C1784 C1778 1.428 . S
C1784 N1783 1.351 . S
C1784 C1785 1.434 . S
C1785 C1776 1.429 . S
C1785 N1782 1.350 . S
C1785 C1784 1.434 . S
C1786 C1787 1.369 . S
C1786 C1788 1.419 . S
C1786 H1790 0.930 . S
C1787 C1786 1.369 . S
C1787 C1796 1.429 . S
C1788 C1786 1.419 . S
C1788 C1789 1.363 . S
C1788 H1791 0.929 . S
C1789 C1788 1.363 . S
C1789 C1795 1.428 . S
H1790 C1786 0.930 . S
H1791 C1788 0.929 . S
S1792 N1793 1.613 . S
S1792 N1794 1.610 . S
N1793 S1792 1.613 . S
N1793 C1796 1.350 . S
N1794 S1792 1.610 . S
N1794 C1795 1.351 . S
C1795 C1789 1.428 . S
C1795 N1794 1.351 . S
C1795 C1796 1.434 . S
C1796 C1787 1.429 . S
C1796 N1793 1.350 . S
C1796 C1795 1.434 . S
C1797 C1798 1.369 . S
C1797 C1799 1.419 . S
C1797 H1801 0.930 . S
C1798 C1797 1.369 . S
C1798 C1807 1.429 . S
C1799 C1797 1.419 . S
C1799 C1800 1.363 . S
C1799 H1802 0.929 . S
C1800 C1799 1.363 . S
C1800 C1806 1.428 . S
H1801 C1797 0.930 . S
H1802 C1799 0.929 . S
S1803 N1804 1.613 . S
S1803 N1805 1.610 . S
N1804 S1803 1.613 . S
N1804 C1807 1.350 . S
N1805 S1803 1.610 . S
N1805 C1806 1.351 . S
C1806 C1800 1.428 . S
C1806 N1805 1.351 . S
C1806 C1807 1.434 . S
C1807 C1798 1.429 . S
C1807 N1804 1.350 . S
C1807 C1806 1.434 . S
C1808 C1809 1.369 . S
C1808 C1810 1.419 . S
C1808 H1812 0.930 . S
C1809 C1808 1.369 . S
C1809 C1818 1.429 . S
C1810 C1808 1.419 . S
C1810 C1811 1.363 . S
C1810 H1813 0.929 . S
C1811 C1810 1.363 . S
C1811 C1817 1.428 . S
H1812 C1808 0.930 . S
H1813 C1810 0.929 . S
S1814 N1815 1.613 . S
S1814 N1816 1.610 . S
N1815 S1814 1.613 . S
N1815 C1818 1.350 . S
N1816 S1814 1.610 . S
N1816 C1817 1.351 . S
C1817 C1811 1.428 . S
C1817 N1816 1.351 . S
C1817 C1818 1.434 . S
C1818 C1809 1.429 . S
C1818 N1815 1.350 . S
C1818 C1817 1.434 . S
C1819 C1820 1.369 . S
C1819 C1821 1.419 . S
C1819 H1823 0.930 . S
C1820 C1819 1.369 . S
C1820 C1829 1.429 . S
C1821 C1819 1.419 . S
C1821 C1822 1.363 . S
C1821 H1824 0.929 . S
C1822 C1821 1.363 . S
C1822 C1828 1.428 . S
H1823 C1819 0.930 . S
H1824 C1821 0.929 . S
S1825 N1826 1.613 . S
S1825 N1827 1.610 . S
N1826 S1825 1.613 . S
N1826 C1829 1.350 . S
N1827 S1825 1.610 . S
N1827 C1828 1.351 . S
C1828 C1822 1.428 . S
C1828 N1827 1.351 . S
C1828 C1829 1.434 . S
C1829 C1820 1.429 . S
C1829 N1826 1.350 . S
C1829 C1828 1.434 . S
C1830 C1831 1.369 . S
C1830 C1832 1.419 . S
C1830 H1834 0.930 . S
C1831 C1830 1.369 . S
C1831 C1840 1.429 . S
C1832 C1830 1.419 . S
C1832 C1833 1.363 . S
C1832 H1835 0.929 . S
C1833 C1832 1.363 . S
C1833 C1839 1.428 . S
H1834 C1830 0.930 . S
H1835 C1832 0.929 . S
S1836 N1837 1.613 . S
S1836 N1838 1.610 . S
N1837 S1836 1.613 . S
N1837 C1840 1.350 . S
N1838 S1836 1.610 . S
N1838 C1839 1.351 . S
C1839 C1833 1.428 . S
C1839 N1838 1.351 . S
C1839 C1840 1.434 . S
C1840 C1831 1.429 . S
C1840 N1837 1.350 . S
C1840 C1839 1.434 . S
C1841 C1842 1.369 . S
C1841 C1843 1.419 . S
C1841 H1845 0.930 . S
C1842 C1841 1.369 . S
C1842 C1851 1.429 . S
C1843 C1841 1.419 . S
C1843 C1844 1.363 . S
C1843 H1846 0.929 . S
C1844 C1843 1.363 . S
C1844 C1850 1.428 . S
H1845 C1841 0.930 . S
H1846 C1843 0.929 . S
S1847 N1848 1.613 . S
S1847 N1849 1.610 . S
N1848 S1847 1.613 . S
N1848 C1851 1.350 . S
N1849 S1847 1.610 . S
N1849 C1850 1.351 . S
C1850 C1844 1.428 . S
C1850 N1849 1.351 . S
C1850 C1851 1.434 . S
C1851 C1842 1.429 . S
C1851 N1848 1.350 . S
C1851 C1850 1.434 . S
C1852 C1853 1.369 . S
C1852 C1854 1.419 . S
C1852 H1856 0.930 . S
C1853 C1852 1.369 . S
C1853 C1862 1.429 . S
C1854 C1852 1.419 . S
C1854 C1855 1.363 . S
C1854 H1857 0.929 . S
C1855 C1854 1.363 . S
C1855 C1861 1.428 . S
H1856 C1852 0.930 . S
H1857 C1854 0.929 . S
S1858 N1859 1.613 . S
S1858 N1860 1.610 . S
N1859 S1858 1.613 . S
N1859 C1862 1.350 . S
N1860 S1858 1.610 . S
N1860 C1861 1.351 . S
C1861 C1855 1.428 . S
C1861 N1860 1.351 . S
C1861 C1862 1.434 . S
C1862 C1853 1.429 . S
C1862 N1859 1.350 . S
C1862 C1861 1.434 . S
C1863 C1864 1.369 . S
C1863 C1865 1.419 . S
C1863 H1867 0.930 . S
C1864 C1863 1.369 . S
C1864 C1873 1.429 . S
C1865 C1863 1.419 . S
C1865 C1866 1.363 . S
C1865 H1868 0.929 . S
C1866 C1865 1.363 . S
C1866 C1872 1.428 . S
H1867 C1863 0.930 . S
H1868 C1865 0.929 . S
S1869 N1870 1.613 . S
S1869 N1871 1.610 . S
N1870 S1869 1.613 . S
N1870 C1873 1.350 . S
N1871 S1869 1.610 . S
N1871 C1872 1.351 . S
C1872 C1866 1.428 . S
C1872 N1871 1.351 . S
C1872 C1873 1.434 . S
C1873 C1864 1.429 . S
C1873 N1870 1.350 . S
C1873 C1872 1.434 . S
C1874 C1875 1.369 . S
C1874 C1876 1.419 . S
C1874 H1878 0.930 . S
C1875 C1874 1.369 . S
C1875 C1884 1.429 . S
C1876 C1874 1.419 . S
C1876 C1877 1.363 . S
C1876 H1879 0.929 . S
C1877 C1876 1.363 . S
C1877 C1883 1.428 . S
H1878 C1874 0.930 . S
H1879 C1876 0.929 . S
S1880 N1881 1.613 . S
S1880 N1882 1.610 . S
N1881 S1880 1.613 . S
N1881 C1884 1.350 . S
N1882 S1880 1.610 . S
N1882 C1883 1.351 . S
C1883 C1877 1.428 . S
C1883 N1882 1.351 . S
C1883 C1884 1.434 . S
C1884 C1875 1.429 . S
C1884 N1881 1.350 . S
C1884 C1883 1.434 . S
C1885 C1886 1.369 . S
C1885 C1887 1.419 . S
C1885 H1889 0.930 . S
C1886 C1885 1.369 . S
C1886 C1895 1.429 . S
C1887 C1885 1.419 . S
C1887 C1888 1.363 . S
C1887 H1890 0.929 . S
C1888 C1887 1.363 . S
C1888 C1894 1.428 . S
H1889 C1885 0.930 . S
H1890 C1887 0.929 . S
S1891 N1892 1.613 . S
S1891 N1893 1.610 . S
N1892 S1891 1.613 . S
N1892 C1895 1.350 . S
N1893 S1891 1.610 . S
N1893 C1894 1.351 . S
C1894 C1888 1.428 . S
C1894 N1893 1.351 . S
C1894 C1895 1.434 . S
C1895 C1886 1.429 . S
C1895 N1892 1.350 . S
C1895 C1894 1.434 . S
C1896 C1897 1.369 1_565 S
C1896 C1898 1.419 . S
C1896 H1900 0.930 . S
C1897 C1896 1.369 1_545 S
C1897 C1906 1.429 . S
C1898 C1896 1.419 . S
C1898 C1899 1.363 . S
C1898 H1901 0.929 . S
C1899 C1898 1.363 . S
C1899 C1905 1.428 1_565 S
H1900 C1896 0.930 . S
H1901 C1898 0.929 . S
S1902 N1903 1.613 . S
S1902 N1904 1.610 . S
N1903 S1902 1.613 . S
N1903 C1906 1.350 . S
N1904 S1902 1.610 . S
N1904 C1905 1.351 . S
C1905 C1899 1.428 1_545 S
C1905 N1904 1.351 . S
C1905 C1906 1.434 . S
C1906 C1897 1.429 . S
C1906 N1903 1.350 . S
C1906 C1905 1.434 . S
C1907 C1908 1.369 . S
C1907 C1909 1.419 . S
C1907 H1911 0.930 . S
C1908 C1907 1.369 . S
C1908 C1917 1.429 . S
C1909 C1907 1.419 . S
C1909 C1910 1.363 . S
C1909 H1912 0.929 . S
C1910 C1909 1.363 . S
C1910 C1916 1.428 . S
H1911 C1907 0.930 . S
H1912 C1909 0.929 . S
S1913 N1914 1.613 . S
S1913 N1915 1.610 . S
N1914 S1913 1.613 . S
N1914 C1917 1.350 . S
N1915 S1913 1.610 . S
N1915 C1916 1.351 . S
C1916 C1910 1.428 . S
C1916 N1915 1.351 . S
C1916 C1917 1.434 . S
C1917 C1908 1.429 . S
C1917 N1914 1.350 . S
C1917 C1916 1.434 . S
C1918 C1919 1.369 . S
C1918 C1920 1.419 . S
C1918 H1922 0.930 . S
C1919 C1918 1.369 . S
C1919 C1928 1.429 . S
C1920 C1918 1.419 . S
C1920 C1921 1.363 . S
C1920 H1923 0.929 . S
C1921 C1920 1.363 . S
C1921 C1927 1.428 . S
H1922 C1918 0.930 . S
H1923 C1920 0.929 . S
S1924 N1925 1.613 . S
S1924 N1926 1.610 . S
N1925 S1924 1.613 . S
N1925 C1928 1.350 . S
N1926 S1924 1.610 . S
N1926 C1927 1.351 . S
C1927 C1921 1.428 . S
C1927 N1926 1.351 . S
C1927 C1928 1.434 . S
C1928 C1919 1.429 . S
C1928 N1925 1.350 . S
C1928 C1927 1.434 . S
C1929 C1930 1.369 1_565 S
C1929 C1931 1.419 . S
C1929 H1933 0.930 . S
C1930 C1929 1.369 1_545 S
C1930 C1939 1.429 . S
C1931 C1929 1.419 . S
C1931 C1932 1.363 . S
C1931 H1934 0.929 . S
C1932 C1931 1.363 . S
C1932 C1938 1.428 1_565 S
H1933 C1929 0.930 . S
H1934 C1931 0.929 . S
S1935 N1936 1.613 . S
S1935 N1937 1.610 . S
N1936 S1935 1.613 . S
N1936 C1939 1.350 . S
N1937 S1935 1.610 . S
N1937 C1938 1.351 . S
C1938 C1932 1.428 1_545 S
C1938 N1937 1.351 . S
C1938 C1939 1.434 . S
C1939 C1930 1.429 . S
C1939 N1936 1.350 . S
C1939 C1938 1.434 . S
C1940 C1941 1.369 . S
C1940 C1942 1.419 . S
C1940 H1944 0.930 . S
C1941 C1940 1.369 . S
C1941 C1950 1.429 1_565 S
C1942 C1940 1.419 . S
C1942 C1943 1.363 1_565 S
C1942 H1945 0.929 . S
C1943 C1942 1.363 1_545 S
C1943 C1949 1.428 . S
H1944 C1940 0.930 . S
H1945 C1942 0.929 . S
S1946 N1947 1.613 . S
S1946 N1948 1.610 . S
N1947 S1946 1.613 . S
N1947 C1950 1.350 . S
N1948 S1946 1.610 . S
N1948 C1949 1.351 . S
C1949 C1943 1.428 . S
C1949 N1948 1.351 . S
C1949 C1950 1.434 . S
C1950 C1941 1.429 1_545 S
C1950 N1947 1.350 . S
C1950 C1949 1.434 . S
C1951 C1952 1.369 . S
C1951 C1953 1.419 . S
C1951 H1955 0.930 . S
C1952 C1951 1.369 . S
C1952 C1961 1.429 . S
C1953 C1951 1.419 . S
C1953 C1954 1.363 . S
C1953 H1956 0.929 . S
C1954 C1953 1.363 . S
C1954 C1960 1.428 . S
H1955 C1951 0.930 . S
H1956 C1953 0.929 . S
S1957 N1958 1.613 . S
S1957 N1959 1.610 . S
N1958 S1957 1.613 . S
N1958 C1961 1.350 . S
N1959 S1957 1.610 . S
N1959 C1960 1.351 . S
C1960 C1954 1.428 . S
C1960 N1959 1.351 . S
C1960 C1961 1.434 . S
C1961 C1952 1.429 . S
C1961 N1958 1.350 . S
C1961 C1960 1.434 . S
C1962 C1963 1.369 . S
C1962 C1964 1.419 . S
C1962 H1966 0.930 . S
C1963 C1962 1.369 . S
C1963 C1972 1.429 . S
C1964 C1962 1.419 . S
C1964 C1965 1.363 . S
C1964 H1967 0.929 . S
C1965 C1964 1.363 . S
C1965 C1971 1.428 . S
H1966 C1962 0.930 . S
H1967 C1964 0.929 . S
S1968 N1969 1.613 . S
S1968 N1970 1.610 . S
N1969 S1968 1.613 . S
N1969 C1972 1.350 . S
N1970 S1968 1.610 . S
N1970 C1971 1.351 . S
C1971 C1965 1.428 . S
C1971 N1970 1.351 . S
C1971 C1972 1.434 . S
C1972 C1963 1.429 . S
C1972 N1969 1.350 . S
C1972 C1971 1.434 . S
C1973 C1974 1.369 1_545 S
C1973 C1975 1.419 . S
C1973 H1977 0.930 . S
C1974 C1973 1.369 1_565 S
C1974 C1983 1.429 . S
C1975 C1973 1.419 . S
C1975 C1976 1.363 . S
C1975 H1978 0.929 . S
C1976 C1975 1.363 . S
C1976 C1982 1.428 1_545 S
H1977 C1973 0.930 . S
H1978 C1975 0.929 . S
S1979 N1980 1.613 . S
S1979 N1981 1.610 . S
N1980 S1979 1.613 . S
N1980 C1983 1.350 . S
N1981 S1979 1.610 . S
N1981 C1982 1.351 . S
C1982 C1976 1.428 1_565 S
C1982 N1981 1.351 . S
C1982 C1983 1.434 . S
C1983 C1974 1.429 . S
C1983 N1980 1.350 . S
C1983 C1982 1.434 . S
C1984 C1985 1.369 . S
C1984 C1986 1.419 1_455 S
C1984 H1988 0.930 . S
C1985 C1984 1.369 . S
C1985 C1994 1.429 . S
C1986 C1984 1.419 1_655 S
C1986 C1987 1.363 . S
C1986 H1989 0.929 . S
C1987 C1986 1.363 . S
C1987 C1993 1.428 . S
H1988 C1984 0.930 . S
H1989 C1986 0.929 . S
S1990 N1991 1.613 1_655 S
S1990 N1992 1.610 . S
N1991 S1990 1.613 1_455 S
N1991 C1994 1.350 . S
N1992 S1990 1.610 . S
N1992 C1993 1.351 . S
C1993 C1987 1.428 . S
C1993 N1992 1.351 . S
C1993 C1994 1.434 1_655 S
C1994 C1985 1.429 . S
C1994 N1991 1.350 . S
C1994 C1993 1.434 1_455 S
C1995 C1996 1.369 . S
C1995 C1997 1.419 . S
C1995 H1999 0.930 . S
C1996 C1995 1.369 . S
C1996 C2005 1.429 . S
C1997 C1995 1.419 . S
C1997 C1998 1.363 . S
C1997 H2000 0.929 . S
C1998 C1997 1.363 . S
C1998 C2004 1.428 . S
H1999 C1995 0.930 . S
H2000 C1997 0.929 . S
S2001 N2002 1.613 . S
S2001 N2003 1.610 . S
N2002 S2001 1.613 . S
N2002 C2005 1.350 . S
N2003 S2001 1.610 . S
N2003 C2004 1.351 . S
C2004 C1998 1.428 . S
C2004 N2003 1.351 . S
C2004 C2005 1.434 . S
C2005 C1996 1.429 . S
C2005 N2002 1.350 . S
C2005 C2004 1.434 . S
C2006 C2007 1.369 . S
C2006 C2008 1.419 1_655 S
C2006 H2010 0.930 . S
C2007 C2006 1.369 . S
C2007 C2016 1.429 . S
C2008 C2006 1.419 1_455 S
C2008 C2009 1.363 . S
C2008 H2011 0.929 . S
C2009 C2008 1.363 . S
C2009 C2015 1.428 . S
H2010 C2006 0.930 . S
H2011 C2008 0.929 . S
S2012 N2013 1.613 1_455 S
S2012 N2014 1.610 . S
N2013 S2012 1.613 1_655 S
N2013 C2016 1.350 . S
N2014 S2012 1.610 . S
N2014 C2015 1.351 . S
C2015 C2009 1.428 . S
C2015 N2014 1.351 . S
C2015 C2016 1.434 1_455 S
C2016 C2007 1.429 . S
C2016 N2013 1.350 . S
C2016 C2015 1.434 1_655 S
C2017 C2018 1.369 . S
C2017 C2019 1.419 . S
C2017 H2021 0.930 . S
C2018 C2017 1.369 . S
C2018 C2027 1.429 . S
C2019 C2017 1.419 . S
C2019 C2020 1.363 . S
C2019 H2022 0.929 . S
C2020 C2019 1.363 . S
C2020 C2026 1.428 . S
H2021 C2017 0.930 . S
H2022 C2019 0.929 . S
S2023 N2024 1.613 . S
S2023 N2025 1.610 . S
N2024 S2023 1.613 . S
N2024 C2027 1.350 . S
N2025 S2023 1.610 . S
N2025 C2026 1.351 . S
C2026 C2020 1.428 . S
C2026 N2025 1.351 . S
C2026 C2027 1.434 . S
C2027 C2018 1.429 . S
C2027 N2024 1.350 . S
C2027 C2026 1.434 . S
C2028 C2029 1.369 . S
C2028 C2030 1.419 1_655 S
C2028 H2032 0.930 . S
C2029 C2028 1.369 . S
C2029 C2038 1.429 . S
C2030 C2028 1.419 1_455 S
C2030 C2031 1.363 . S
C2030 H2033 0.929 . S
C2031 C2030 1.363 . S
C2031 C2037 1.434 . S
H2032 C2028 0.930 . S
H2033 C2030 0.929 . S
S2034 N2035 1.613 . S
S2034 N2036 1.610 1_655 S
N2035 S2034 1.613 . S
N2035 C2038 1.350 . S
N2036 S2034 1.610 1_455 S
N2036 C2037 1.352 . S
C2037 C2031 1.434 . S
C2037 N2036 1.352 . S
C2037 C2038 1.426 1_455 S
C2038 C2029 1.429 . S
C2038 N2035 1.350 . S
C2038 C2037 1.426 1_655 S
C2039 C2040 1.369 . S
C2039 C2041 1.419 . S
C2039 H2043 0.930 . S
C2040 C2039 1.369 . S
C2040 C2049 1.429 . S
C2041 C2039 1.419 . S
C2041 C2042 1.363 . S
C2041 H2044 0.929 . S
C2042 C2041 1.363 . S
C2042 C2048 1.428 . S
H2043 C2039 0.930 . S
H2044 C2041 0.929 . S
S2045 N2046 1.613 . S
S2045 N2047 1.610 . S
N2046 S2045 1.613 . S
N2046 C2049 1.350 . S
N2047 S2045 1.610 . S
N2047 C2048 1.351 . S
C2048 C2042 1.428 . S
C2048 N2047 1.351 . S
C2048 C2049 1.434 . S
C2049 C2040 1.429 . S
C2049 N2046 1.350 . S
C2049 C2048 1.434 . S
C2050 C2051 1.369 . S
C2050 C2052 1.419 1_455 S
C2050 H2054 0.930 . S
C2051 C2050 1.369 . S
C2051 C2060 1.429 . S
C2052 C2050 1.419 1_655 S
C2052 C2053 1.363 . S
C2052 H2055 0.929 . S
C2053 C2052 1.363 . S
C2053 C2059 1.428 . S
H2054 C2050 0.930 . S
H2055 C2052 0.929 . S
S2056 N2057 1.613 . S
S2056 N2058 1.610 1_455 S
N2057 S2056 1.613 . S
N2057 C2060 1.350 . S
N2058 S2056 1.610 1_655 S
N2058 C2059 1.351 . S
C2059 C2053 1.428 . S
C2059 N2058 1.351 . S
C2059 C2060 1.434 1_655 S
C2060 C2051 1.429 . S
C2060 N2057 1.350 . S
C2060 C2059 1.434 1_455 S
C2061 C2062 1.369 . S
C2061 C2063 1.419 . S
C2061 H2065 0.930 . S
C2062 C2061 1.369 . S
C2062 C2071 1.429 . S
C2063 C2061 1.419 . S
C2063 C2064 1.363 . S
C2063 H2066 0.929 . S
C2064 C2063 1.363 . S
C2064 C2070 1.428 . S
H2065 C2061 0.930 . S
H2066 C2063 0.929 . S
S2067 N2068 1.613 . S
S2067 N2069 1.610 . S
N2068 S2067 1.613 . S
N2068 C2071 1.350 . S
N2069 S2067 1.610 . S
N2069 C2070 1.351 . S
C2070 C2064 1.428 . S
C2070 N2069 1.351 . S
C2070 C2071 1.434 . S
C2071 C2062 1.429 . S
C2071 N2068 1.350 . S
C2071 C2070 1.434 . S
C2072 C2073 1.369 1_565 S
C2072 C2074 1.419 1_655 S
C2072 H2076 0.930 . S
C2073 C2072 1.369 1_545 S
C2073 C2082 1.424 1_655 S
C2074 C2072 1.419 1_455 S
C2074 C2075 1.363 . S
C2074 H2077 0.929 . S
C2075 C2074 1.363 . S
C2075 C2081 1.428 1_565 S
H2076 C2072 0.930 . S
H2077 C2074 0.929 . S
S2078 N2079 1.613 1_455 S
S2078 N2080 1.610 . S
N2079 S2078 1.613 1_655 S
N2079 C2082 1.349 1_655 S
N2080 S2078 1.610 . S
N2080 C2081 1.351 . S
C2081 C2075 1.428 1_545 S
C2081 N2080 1.351 . S
C2081 C2082 1.440 . S
C2082 C2073 1.424 1_455 S
C2082 N2079 1.349 1_455 S
C2082 C2081 1.440 . S
C2083 C2084 1.369 . S
C2083 C2085 1.419 . S
C2083 H2087 0.930 . S
C2084 C2083 1.369 . S
C2084 C2093 1.429 . S
C2085 C2083 1.419 . S
C2085 C2086 1.363 . S
C2085 H2088 0.929 . S
C2086 C2085 1.363 . S
C2086 C2092 1.428 . S
H2087 C2083 0.930 . S
H2088 C2085 0.929 . S
S2089 N2090 1.613 . S
S2089 N2091 1.610 . S
N2090 S2089 1.613 . S
N2090 C2093 1.350 . S
N2091 S2089 1.610 . S
N2091 C2092 1.351 . S
C2092 C2086 1.428 . S
C2092 N2091 1.351 . S
C2092 C2093 1.434 . S
C2093 C2084 1.429 . S
C2093 N2090 1.350 . S
C2093 C2092 1.434 . S
C2094 C2095 1.369 . S
C2094 C2096 1.419 1_655 S
C2094 H2098 0.930 . S
C2095 C2094 1.369 . S
C2095 C2104 1.429 . S
C2096 C2094 1.419 1_455 S
C2096 C2097 1.363 . S
C2096 H2099 0.929 . S
C2097 C2096 1.363 . S
C2097 C2103 1.428 . S
H2098 C2094 0.930 . S
H2099 C2096 0.929 . S
S2100 N2101 1.613 1_455 S
S2100 N2102 1.610 . S
N2101 S2100 1.613 1_655 S
N2101 C2104 1.350 . S
N2102 S2100 1.610 . S
N2102 C2103 1.351 . S
C2103 C2097 1.428 . S
C2103 N2102 1.351 . S
C2103 C2104 1.434 1_455 S
C2104 C2095 1.429 . S
C2104 N2101 1.350 . S
C2104 C2103 1.434 1_655 S
C2105 C2106 1.369 . S
C2105 C2107 1.419 . S
C2105 H2109 0.930 . S
C2106 C2105 1.369 . S
C2106 C2115 1.429 1_545 S
C2107 C2105 1.419 . S
C2107 C2108 1.363 1_545 S
C2107 H2110 0.929 . S
C2108 C2107 1.363 1_565 S
C2108 C2114 1.428 . S
H2109 C2105 0.930 . S
H2110 C2107 0.929 . S
S2111 N2112 1.613 . S
S2111 N2113 1.610 . S
N2112 S2111 1.613 . S
N2112 C2115 1.350 . S
N2113 S2111 1.610 . S
N2113 C2114 1.351 . S
C2114 C2108 1.428 . S
C2114 N2113 1.351 . S
C2114 C2115 1.434 . S
C2115 C2106 1.429 1_565 S
C2115 N2112 1.350 . S
C2115 C2114 1.434 . S
C2116 C2117 1.369 1_565 S
C2116 C2118 1.415 1_655 S
C2116 H2120 0.930 . S
C2117 C2116 1.369 1_545 S
C2117 C2126 1.429 . S
C2118 C2116 1.415 1_455 S
C2118 C2119 1.366 . S
C2118 H2121 0.930 . S
C2119 C2118 1.366 . S
C2119 C2125 1.428 1_565 S
H2120 C2116 0.930 . S
H2121 C2118 0.930 . S
S2122 N2123 1.613 1_455 S
S2122 N2124 1.610 . S
N2123 S2122 1.613 1_655 S
N2123 C2126 1.350 . S
N2124 S2122 1.610 . S
N2124 C2125 1.351 . S
C2125 C2119 1.428 1_545 S
C2125 N2124 1.351 . S
C2125 C2126 1.434 1_455 S
C2126 C2117 1.429 . S
C2126 N2123 1.350 . S
C2126 C2125 1.434 1_655 S
C2127 C2128 1.369 . S
C2127 C2129 1.419 . S
C2127 H2131 0.930 . S
C2128 C2127 1.369 . S
C2128 C2137 1.429 . S
C2129 C2127 1.419 . S
C2129 C2130 1.363 . S
C2129 H2132 0.929 . S
C2130 C2129 1.363 . S
C2130 C2136 1.428 . S
H2131 C2127 0.930 . S
H2132 C2129 0.929 . S
S2133 N2134 1.613 . S
S2133 N2135 1.610 . S
N2134 S2133 1.613 . S
N2134 C2137 1.350 . S
N2135 S2133 1.610 . S
N2135 C2136 1.351 . S
C2136 C2130 1.428 . S
C2136 N2135 1.351 . S
C2136 C2137 1.434 . S
C2137 C2128 1.429 . S
C2137 N2134 1.350 . S
C2137 C2136 1.434 . S
C2138 C2139 1.369 . S
C2138 C2140 1.419 1_455 S
C2138 H2142 0.930 . S
C2139 C2138 1.369 . S
C2139 C2148 1.429 . S
C2140 C2138 1.419 1_655 S
C2140 C2141 1.363 . S
C2140 H2143 0.929 . S
C2141 C2140 1.363 . S
C2141 C2147 1.428 . S
H2142 C2138 0.930 . S
H2143 C2140 0.929 . S
S2144 N2145 1.613 . S
S2144 N2146 1.610 1_455 S
N2145 S2144 1.613 . S
N2145 C2148 1.350 . S
N2146 S2144 1.610 1_655 S
N2146 C2147 1.351 . S
C2147 C2141 1.428 . S
C2147 N2146 1.351 . S
C2147 C2148 1.434 1_655 S
C2148 C2139 1.429 . S
C2148 N2145 1.350 . S
C2148 C2147 1.434 1_455 S
C2149 C2150 1.369 1_545 S
C2149 C2151 1.419 . S
C2149 H2153 0.930 . S
C2150 C2149 1.369 1_565 S
C2150 C2159 1.429 . S
C2151 C2149 1.419 . S
C2151 C2152 1.363 . S
C2151 H2154 0.929 . S
C2152 C2151 1.363 . S
C2152 C2158 1.428 1_545 S
H2153 C2149 0.930 . S
H2154 C2151 0.929 . S
S2155 N2156 1.613 . S
S2155 N2157 1.610 . S
N2156 S2155 1.613 . S
N2156 C2159 1.350 . S
N2157 S2155 1.610 . S
N2157 C2158 1.351 . S
C2158 C2152 1.428 1_565 S
C2158 N2157 1.351 . S
C2158 C2159 1.434 . S
C2159 C2150 1.429 . S
C2159 N2156 1.350 . S
C2159 C2158 1.434 . S
C2160 C2161 1.369 . S
C2160 C2162 1.419 1_554 S
C2160 H2164 0.930 . S
C2161 C2160 1.369 . S
C2161 C2170 1.429 1_655 S
C2162 C2160 1.419 1_556 S
C2162 C2163 1.363 1_655 S
C2162 H2165 0.929 . S
C2163 C2162 1.363 1_455 S
C2163 C2169 1.428 . S
H2164 C2160 0.930 . S
H2165 C2162 0.929 . S
S2166 N2167 1.613 . S
S2166 N2168 1.610 1_554 S
N2167 S2166 1.613 . S
N2167 C2170 1.350 . S
N2168 S2166 1.610 1_556 S
N2168 C2169 1.351 . S
C2169 C2163 1.428 . S
C2169 N2168 1.351 . S
C2169 C2170 1.434 1_556 S
C2170 C2161 1.429 1_455 S
C2170 N2167 1.350 . S
C2170 C2169 1.434 1_554 S
C2171 C2172 1.369 . S
C2171 C2173 1.419 1_556 S
C2171 H2175 0.930 . S
C2172 C2171 1.369 . S
C2172 C2181 1.429 . S
C2173 C2171 1.419 1_554 S
C2173 C2174 1.363 . S
C2173 H2176 0.929 . S
C2174 C2173 1.363 . S
C2174 C2180 1.428 . S
H2175 C2171 0.930 . S
H2176 C2173 0.929 . S
S2177 N2178 1.613 . S
S2177 N2179 1.610 1_556 S
N2178 S2177 1.613 . S
N2178 C2181 1.350 . S
N2179 S2177 1.610 1_554 S
N2179 C2180 1.351 . S
C2180 C2174 1.428 . S
C2180 N2179 1.351 . S
C2180 C2181 1.434 1_554 S
C2181 C2172 1.429 . S
C2181 N2178 1.350 . S
C2181 C2180 1.434 1_556 S
C2182 C2183 1.369 . S
C2182 C2184 1.419 . S
C2182 H2186 0.930 . S
C2183 C2182 1.369 . S
C2183 C2192 1.429 1_455 S
C2184 C2182 1.419 . S
C2184 C2185 1.363 1_455 S
C2184 H2187 0.929 . S
C2185 C2184 1.363 1_655 S
C2185 C2191 1.428 . S
H2186 C2182 0.930 . S
H2187 C2184 0.929 . S
S2188 N2189 1.613 . S
S2188 N2190 1.610 . S
N2189 S2188 1.613 . S
N2189 C2192 1.350 . S
N2190 S2188 1.610 . S
N2190 C2191 1.351 . S
C2191 C2185 1.428 . S
C2191 N2190 1.351 . S
C2191 C2192 1.434 . S
C2192 C2183 1.429 1_655 S
C2192 N2189 1.350 . S
C2192 C2191 1.434 . S
C2193 C2194 1.369 . S
C2193 C2195 1.419 . S
C2193 H2197 0.930 . S
C2194 C2193 1.369 . S
C2194 C2203 1.429 . S
C2195 C2193 1.419 . S
C2195 C2196 1.363 . S
C2195 H2198 0.929 . S
C2196 C2195 1.363 . S
C2196 C2202 1.428 . S
H2197 C2193 0.930 . S
H2198 C2195 0.929 . S
S2199 N2200 1.613 . S
S2199 N2201 1.610 . S
N2200 S2199 1.613 . S
N2200 C2203 1.350 . S
N2201 S2199 1.610 . S
N2201 C2202 1.351 . S
C2202 C2196 1.428 . S
C2202 N2201 1.351 . S
C2202 C2203 1.434 . S
C2203 C2194 1.429 . S
C2203 N2200 1.350 . S
C2203 C2202 1.434 . S
C2204 C2205 1.369 . S
C2204 C2206 1.419 1_556 S
C2204 H2208 0.930 . S
C2205 C2204 1.369 . S
C2205 C2214 1.429 . S
C2206 C2204 1.419 1_554 S
C2206 C2207 1.363 . S
C2206 H2209 0.929 . S
C2207 C2206 1.363 . S
C2207 C2213 1.428 . S
H2208 C2204 0.930 . S
H2209 C2206 0.929 . S
S2210 N2211 1.586 1_554 S
S2210 N2212 1.638 . S
N2211 S2210 1.586 1_556 S
N2211 C2214 1.350 . S
N2212 S2210 1.638 . S
N2212 C2213 1.351 . S
C2213 C2207 1.428 . S
C2213 N2212 1.351 . S
C2213 C2214 1.434 1_554 S
C2214 C2205 1.429 . S
C2214 N2211 1.350 . S
C2214 C2213 1.434 1_556 S
C2215 C2216 1.369 . S
C2215 C2217 1.419 . S
C2215 H2219 0.930 . S
C2216 C2215 1.369 . S
C2216 C2225 1.429 1_455 S
C2217 C2215 1.419 . S
C2217 C2218 1.363 1_455 S
C2217 H2220 0.929 . S
C2218 C2217 1.363 1_655 S
C2218 C2224 1.428 . S
H2219 C2215 0.930 . S
H2220 C2217 0.929 . S
S2221 N2222 1.613 . S
S2221 N2223 1.610 . S
N2222 S2221 1.613 . S
N2222 C2225 1.350 . S
N2223 S2221 1.610 . S
N2223 C2224 1.351 . S
C2224 C2218 1.428 . S
C2224 N2223 1.351 . S
C2224 C2225 1.434 . S
C2225 C2216 1.429 1_655 S
C2225 N2222 1.350 . S
C2225 C2224 1.434 . S
C2226 C2227 1.369 . S
C2226 C2228 1.419 . S
C2226 H2230 0.930 . S
C2227 C2226 1.369 . S
C2227 C2236 1.429 . S
C2228 C2226 1.419 . S
C2228 C2229 1.363 . S
C2228 H2231 0.929 . S
C2229 C2228 1.363 . S
C2229 C2235 1.428 . S
H2230 C2226 0.930 . S
H2231 C2228 0.929 . S
S2232 N2233 1.613 . S
S2232 N2234 1.610 . S
N2233 S2232 1.613 . S
N2233 C2236 1.350 . S
N2234 S2232 1.610 . S
N2234 C2235 1.351 . S
C2235 C2229 1.428 . S
C2235 N2234 1.351 . S
C2235 C2236 1.434 . S
C2236 C2227 1.429 . S
C2236 N2233 1.350 . S
C2236 C2235 1.434 . S
C2237 C2238 1.324 1_445 S
C2237 C2239 1.419 . S
C2237 H2241 0.930 . S
C2238 C2237 1.324 1_665 S
C2238 C2247 1.474 . S
C2239 C2237 1.419 . S
C2239 C2240 1.377 . S
C2239 H2242 0.929 . S
C2240 C2239 1.377 . S
C2240 C2246 1.414 1_445 S
H2241 C2237 0.930 . S
H2242 C2239 0.929 . S
S2243 N2244 1.613 . S
S2243 N2245 1.610 . S
N2244 S2243 1.613 . S
N2244 C2247 1.350 . S
N2245 S2243 1.610 . S
N2245 C2246 1.351 . S
C2246 C2240 1.414 1_665 S
C2246 N2245 1.351 . S
C2246 C2247 1.434 . S
C2247 C2238 1.474 . S
C2247 N2244 1.350 . S
C2247 C2246 1.434 . S
C2248 C2249 1.369 . S
C2248 C2250 1.419 . S
C2248 H2252 0.930 . S
C2249 C2248 1.369 . S
C2249 C2258 1.429 . S
C2250 C2248 1.419 . S
C2250 C2251 1.363 . S
C2250 H2253 0.929 . S
C2251 C2250 1.363 . S
C2251 C2257 1.428 . S
H2252 C2248 0.930 . S
H2253 C2250 0.929 . S
S2254 N2255 1.613 . S
S2254 N2256 1.610 . S
N2255 S2254 1.613 . S
N2255 C2258 1.350 . S
N2256 S2254 1.610 . S
N2256 C2257 1.351 . S
C2257 C2251 1.428 . S
C2257 N2256 1.351 . S
C2257 C2258 1.434 . S
C2258 C2249 1.429 . S
C2258 N2255 1.350 . S
C2258 C2257 1.434 . S
C2259 C2260 1.392 . S
C2259 C2261 1.419 . S
C2259 H2263 0.930 . S
C2260 C2259 1.392 . S
C2260 C2269 1.405 1_545 S
C2261 C2259 1.419 . S
C2261 C2262 1.344 1_545 S
C2261 H2264 0.929 . S
C2262 C2261 1.344 1_565 S
C2262 C2268 1.446 . S
H2263 C2259 0.930 . S
H2264 C2261 0.929 . S
S2265 N2266 1.613 . S
S2265 N2267 1.610 . S
N2266 S2265 1.613 . S
N2266 C2269 1.350 . S
N2267 S2265 1.610 . S
N2267 C2268 1.351 . S
C2268 C2262 1.446 . S
C2268 N2267 1.351 . S
C2268 C2269 1.434 . S
C2269 C2260 1.405 1_565 S
C2269 N2266 1.350 . S
C2269 C2268 1.434 . S
C2270 C2271 1.369 . S
C2270 C2272 1.419 . S
C2270 H2274 0.930 . S
C2271 C2270 1.369 . S
C2271 C2280 1.429 . S
C2272 C2270 1.419 . S
C2272 C2273 1.363 . S
C2272 H2275 0.929 . S
C2273 C2272 1.363 . S
C2273 C2279 1.428 . S
H2274 C2270 0.930 . S
H2275 C2272 0.929 . S
S2276 N2277 1.613 . S
S2276 N2278 1.610 . S
N2277 S2276 1.613 . S
N2277 C2280 1.350 . S
N2278 S2276 1.610 . S
N2278 C2279 1.351 . S
C2279 C2273 1.428 . S
C2279 N2278 1.351 . S
C2279 C2280 1.434 . S
C2280 C2271 1.429 . S
C2280 N2277 1.350 . S
C2280 C2279 1.434 . S
C2281 C2282 1.313 1_545 S
C2281 C2283 1.419 . S
C2281 H2285 0.930 . S
C2282 C2281 1.313 1_565 S
C2282 C2291 1.484 . S
C2283 C2281 1.419 . S
C2283 C2284 1.381 . S
C2283 H2286 0.929 . S
C2284 C2283 1.381 . S
C2284 C2290 1.409 1_545 S
H2285 C2281 0.930 . S
H2286 C2283 0.929 . S
S2287 N2288 1.613 . S
S2287 N2289 1.610 . S
N2288 S2287 1.613 . S
N2288 C2291 1.350 . S
N2289 S2287 1.610 . S
N2289 C2290 1.351 . S
C2290 C2284 1.409 1_565 S
C2290 N2289 1.351 . S
C2290 C2291 1.434 . S
C2291 C2282 1.484 . S
C2291 N2288 1.350 . S
C2291 C2290 1.434 . S
C2292 C2293 1.369 . S
C2292 C2294 1.419 . S
C2292 H2296 0.930 . S
C2293 C2292 1.369 . S
C2293 C2302 1.429 . S
C2294 C2292 1.419 . S
C2294 C2295 1.363 . S
C2294 H2297 0.929 . S
C2295 C2294 1.363 . S
C2295 C2301 1.428 . S
H2296 C2292 0.930 . S
H2297 C2294 0.929 . S
S2298 N2299 1.613 . S
S2298 N2300 1.610 . S
N2299 S2298 1.613 . S
N2299 C2302 1.350 . S
N2300 S2298 1.610 . S
N2300 C2301 1.351 . S
C2301 C2295 1.428 . S
C2301 N2300 1.351 . S
C2301 C2302 1.434 . S
C2302 C2293 1.429 . S
C2302 N2299 1.350 . S
C2302 C2301 1.434 . S
C2303 C2304 1.369 . S
C2303 C2305 1.419 . S
C2303 H2307 0.930 . S
C2304 C2303 1.369 . S
C2304 C2313 1.429 . S
C2305 C2303 1.419 . S
C2305 C2306 1.363 . S
C2305 H2308 0.929 . S
C2306 C2305 1.363 . S
C2306 C2312 1.428 . S
H2307 C2303 0.930 . S
H2308 C2305 0.929 . S
S2309 N2310 1.613 . S
S2309 N2311 1.610 . S
N2310 S2309 1.613 . S
N2310 C2313 1.350 . S
N2311 S2309 1.610 . S
N2311 C2312 1.351 . S
C2312 C2306 1.428 . S
C2312 N2311 1.351 . S
C2312 C2313 1.434 . S
C2313 C2304 1.429 . S
C2313 N2310 1.350 . S
C2313 C2312 1.434 . S
C2314 C2315 1.369 . S
C2314 C2316 1.419 . S
C2314 H2318 0.930 . S
C2315 C2314 1.369 . S
C2315 C2324 1.429 . S
C2316 C2314 1.419 . S
C2316 C2317 1.363 . S
C2316 H2319 0.929 . S
C2317 C2316 1.363 . S
C2317 C2323 1.428 . S
H2318 C2314 0.930 . S
H2319 C2316 0.929 . S
S2320 N2321 1.613 . S
S2320 N2322 1.610 . S
N2321 S2320 1.613 . S
N2321 C2324 1.350 . S
N2322 S2320 1.610 . S
N2322 C2323 1.351 . S
C2323 C2317 1.428 . S
C2323 N2322 1.351 . S
C2323 C2324 1.434 . S
C2324 C2315 1.429 . S
C2324 N2321 1.350 . S
C2324 C2323 1.434 . S
C2325 C2326 1.399 . S
C2325 C2327 1.419 1_554 S
C2325 H2329 0.930 . S
C2326 C2325 1.399 . S
C2326 C2335 1.397 1_565 S
C2327 C2325 1.419 1_556 S
C2327 C2328 1.324 1_565 S
C2327 H2330 0.929 . S
C2328 C2327 1.324 1_545 S
C2328 C2334 1.467 . S
H2329 C2325 0.930 . S
H2330 C2327 0.929 . S
S2331 N2332 1.613 . S
S2331 N2333 1.610 1_554 S
N2332 S2331 1.613 . S
N2332 C2335 1.350 . S
N2333 S2331 1.610 1_556 S
N2333 C2334 1.351 . S
C2334 C2328 1.467 . S
C2334 N2333 1.351 . S
C2334 C2335 1.434 1_556 S
C2335 C2326 1.397 1_545 S
C2335 N2332 1.350 . S
C2335 C2334 1.434 1_554 S
C1281 C6 2.320 . S
C1283 C1006 2.329 . S
C1292 C966 2.301 . S
C1294 C46 2.300 . S
C1303 C1086 2.303 . S
C1305 C86 2.297 . S
C1314 C126 2.325 . S
C1316 C1046 2.324 . S
C1325 C175 2.328 . S
C1327 C1175 2.323 . S
C1336 C215 2.310 . S
C1338 C1135 2.293 . S
C1347 C255 2.308 . S
C1349 C1255 2.294 . S
C1358 C1215 2.327 . S
C1360 C295 2.324 . S
C1369 C326 2.308 . S
C1371 C686 2.294 . S
C1380 C366 2.328 . S
C1382 C646 2.322 . S
C1391 C406 2.328 . S
C1393 C766 2.323 . S
C1402 C726 2.303 . S
C1404 C446 2.298 . S
C1413 C495 2.306 . S
C1415 C855 2.295 . S
C1424 C535 2.329 . S
C1426 C815 2.322 . S
C1435 C935 2.322 . S
C1437 C575 2.327 . S
C1446 C615 2.308 . S
C1448 C895 2.294 . S
C1457 C9 1.484 . S
C1459 C129 1.486 . S
C1468 C49 1.484 . S
C1470 C89 1.482 . S
C1479 C298 1.481 . S
C1481 C178 1.479 . S
C1490 C258 1.489 . S
C1492 C218 1.489 . S
C1501 C329 1.462 1_545 S
C1503 C449 1.466 1_545 S
C1512 C369 1.472 . S
C1514 C409 1.477 . S
C1523 C498 1.465 1_565 S
C1525 C618 1.464 1_565 S
C1534 C578 1.471 . S
C1536 C538 1.471 . S
C1545 C649 1.487 . S
C1547 C769 1.484 . S
C1556 C689 1.490 . S
C1558 C729 1.488 . S
C1567 C938 1.483 . S
C1569 C818 1.485 . S
C1578 C858 1.488 . S
C1580 C898 1.489 . S
C1589 C1089 1.463 1_545 S
C1591 C969 1.465 1_545 S
C1600 C1009 1.477 . S
C1602 C1049 1.479 . S
C1611 C1258 1.466 1_565 S
C1613 C1138 1.462 1_565 S
C1622 C1218 1.478 . S
C1624 C1178 1.479 . S
C1633 C55 2.523 1_455 S
C1635 C15 2.517 . S
C1644 C95 2.522 . S
C1646 C135 2.518 1_455 S
C1655 C206 2.525 1_655 S
C1657 C166 2.516 . S
C1666 C286 2.519 1_655 S
C1668 C246 2.520 . S
C1677 C335 2.541 . S
C1679 C375 2.545 1_455 S
C1688 C415 2.538 . S
C1690 C455 2.547 1_455 S
C1699 C526 2.543 1_655 S
C1701 C486 2.543 . S
C1710 C566 2.537 . S
C1712 C606 2.549 1_655 S
C1721 C655 2.517 . S
C1723 C695 2.522 . S
C1732 C775 2.521 . S
C1734 C735 2.519 . S
C1743 C806 2.521 . S
C1745 C846 2.520 . S
C1754 C886 2.520 . S
C1756 C926 2.520 . S
C1765 C975 2.543 . S
C1767 C1015 2.544 . S
C1776 C1055 2.535 . S
C1778 C1095 2.549 . S
C1787 C1166 2.542 . S
C1789 C1126 2.543 . S
C1798 C1206 2.534 . S
C1800 C1246 2.550 . S
C1809 C10 2.371 . S
C1811 C19 2.377 . S
C1820 C50 2.372 . S
C1822 C59 2.376 1_655 S
C1831 C90 2.371 . S
C1833 C99 2.377 . S
C1842 C139 2.378 1_655 S
C1844 C130 2.372 . S
C1853 C170 2.377 . S
C1855 C179 2.373 . S
C1864 C219 2.375 . S
C1866 C210 2.373 1_455 S
C1875 C250 2.372 . S
C1877 C259 2.375 . S
C1886 C290 2.373 1_455 S
C1888 C299 2.377 . S
C1897 C339 2.376 . S
C1899 C330 2.373 . S
C1908 C370 2.373 . S
C1910 C379 2.376 1_655 S
C1919 C410 2.371 . S
C1921 C419 2.377 . S
C1930 C459 2.377 1_655 S
C1932 C450 2.373 . S
C1941 C490 2.372 . S
C1943 C499 2.376 . S
C1952 C539 2.377 . S
C1954 C530 2.373 1_455 S
C1963 C579 2.378 . S
C1965 C570 2.372 . S
C1974 C610 2.377 1_455 S
C1976 C619 2.372 . S
C1985 C650 2.376 . S
C1987 C659 2.373 . S
C1996 C699 2.377 . S
C1998 C690 2.372 1_455 S
C2007 C739 2.377 . S
C2009 C730 2.372 . S
C2018 C770 2.373 1_455 S
C2020 C779 2.376 . S
C2029 C819 2.372 . S
C2031 C810 2.377 . S
C2040 C859 2.371 1_655 S
C2042 C850 2.376 . S
C2051 C890 2.371 . S
C2053 C899 2.377 . S
C2062 C939 2.371 1_655 S
C2064 C930 2.377 . S
C2073 C979 2.378 . S
C2075 C970 2.372 . S
C2084 C1010 2.375 1_455 S
C2086 C1019 2.374 . S
C2095 C1059 2.373 . S
C2097 C1050 2.376 . S
C2106 C1099 2.372 . S
C2108 C1090 2.377 1_455 S
C2117 C1139 2.377 . S
C2119 C1130 2.372 . S
C2128 C1179 2.374 1_655 S
C2130 C1170 2.376 . S
C2139 C1210 2.371 . S
C2141 C1219 2.377 . S
C2150 C1250 2.378 . S
C2152 C1259 2.372 1_655 S
C2161 C18 1.470 . S
C2163 C169 1.478 . S
C2172 C1169 1.474 . S
C2174 C58 1.478 . S
C2183 C569 1.479 . S
C2185 C98 1.474 . S
C2194 C138 1.476 . S
C2196 C929 1.473 . S
C2205 C209 1.481 . S
C2207 C1018 1.473 . S
C2216 C249 1.478 . S
C2218 C418 1.476 . S
C2227 C289 1.478 . S
C2229 C778 1.471 . S
C2238 C338 1.459 1_565 S
C2240 C489 1.458 1_545 S
C2249 C849 1.481 . S
C2251 C378 1.473 . S
C2260 C1249 1.458 1_545 S
C2262 C458 1.459 1_565 S
C2271 C529 1.472 . S
C2273 C698 1.480 . S
C2282 C1098 1.459 1_565 S
C2284 C609 1.459 1_545 S
C2293 C658 1.477 . S
C2295 C809 1.473 . S
C2304 C1209 1.479 . S
C2306 C738 1.474 . S
C2315 C889 1.481 . S
C2317 C1058 1.473 . S
C2326 C978 1.459 1_565 S
C2328 C1129 1.459 1_545 S
