# Generated by pormake.
# Topology vmx, (8)-cn, num edge types: 1
# Building blocks:
#     Node 0, Type 0, BuildingBlock: TAGTUT_clean_sbu_3, # of connection points: 8
#     Node 1, Type 0, BuildingBlock: TAGTUT_clean_sbu_3, # of connection points: 8
#     Node 2, Type 0, BuildingBlock: TAGTUT_clean_sbu_3, # of connection points: 8
#     Node 3, Type 0, BuildingBlock: TAGTUT_clean_sbu_3, # of connection points: 8
#     Node 4, Type 0, BuildingBlock: TAGTUT_clean_sbu_3, # of connection points: 8
#     Node 5, Type 0, BuildingBlock: TAGTUT_clean_sbu_3, # of connection points: 8
#     Node 6, Type 0, BuildingBlock: TAGTUT_clean_sbu_3, # of connection points: 8
#     Node 7, Type 0, BuildingBlock: TAGTUT_clean_sbu_3, # of connection points: 8
#     Edge 8, Type (0, 0), BuildingBlock: EZIPEK_clean_linker_0, # of connection points: 2
#     Edge 9, Type (0, 0), BuildingBlock: EZIPEK_clean_linker_0, # of connection points: 2
#     Edge 10, Type (0, 0), BuildingBlock: EZIPEK_clean_linker_0, # of connection points: 2
#     Edge 11, Type (0, 0), BuildingBlock: EZIPEK_clean_linker_0, # of connection points: 2
#     Edge 12, Type (0, 0), BuildingBlock: EZIPEK_clean_linker_0, # of connection points: 2
#     Edge 13, Type (0, 0), BuildingBlock: EZIPEK_clean_linker_0, # of connection points: 2
#     Edge 14, Type (0, 0), BuildingBlock: EZIPEK_clean_linker_0, # of connection points: 2
#     Edge 15, Type (0, 0), BuildingBlock: EZIPEK_clean_linker_0, # of connection points: 2
#     Edge 16, Type (0, 0), BuildingBlock: EZIPEK_clean_linker_0, # of connection points: 2
#     Edge 17, Type (0, 0), BuildingBlock: EZIPEK_clean_linker_0, # of connection points: 2
#     Edge 18, Type (0, 0), BuildingBlock: EZIPEK_clean_linker_0, # of connection points: 2
#     Edge 19, Type (0, 0), BuildingBlock: EZIPEK_clean_linker_0, # of connection points: 2
#     Edge 20, Type (0, 0), BuildingBlock: EZIPEK_clean_linker_0, # of connection points: 2
#     Edge 21, Type (0, 0), BuildingBlock: EZIPEK_clean_linker_0, # of connection points: 2
#     Edge 22, Type (0, 0), BuildingBlock: EZIPEK_clean_linker_0, # of connection points: 2
#     Edge 23, Type (0, 0), BuildingBlock: EZIPEK_clean_linker_0, # of connection points: 2
#     Edge 24, Type (0, 0), BuildingBlock: EZIPEK_clean_linker_0, # of connection points: 2
#     Edge 25, Type (0, 0), BuildingBlock: EZIPEK_clean_linker_0, # of connection points: 2
#     Edge 26, Type (0, 0), BuildingBlock: EZIPEK_clean_linker_0, # of connection points: 2
#     Edge 27, Type (0, 0), BuildingBlock: EZIPEK_clean_linker_0, # of connection points: 2
#     Edge 28, Type (0, 0), BuildingBlock: EZIPEK_clean_linker_0, # of connection points: 2
#     Edge 29, Type (0, 0), BuildingBlock: EZIPEK_clean_linker_0, # of connection points: 2
#     Edge 30, Type (0, 0), BuildingBlock: EZIPEK_clean_linker_0, # of connection points: 2
#     Edge 31, Type (0, 0), BuildingBlock: EZIPEK_clean_linker_0, # of connection points: 2
#     Edge 32, Type (0, 0), BuildingBlock: EZIPEK_clean_linker_0, # of connection points: 2
#     Edge 33, Type (0, 0), BuildingBlock: EZIPEK_clean_linker_0, # of connection points: 2
#     Edge 34, Type (0, 0), BuildingBlock: EZIPEK_clean_linker_0, # of connection points: 2
#     Edge 35, Type (0, 0), BuildingBlock: EZIPEK_clean_linker_0, # of connection points: 2
#     Edge 36, Type (0, 0), BuildingBlock: EZIPEK_clean_linker_0, # of connection points: 2
#     Edge 37, Type (0, 0), BuildingBlock: EZIPEK_clean_linker_0, # of connection points: 2
#     Edge 38, Type (0, 0), BuildingBlock: EZIPEK_clean_linker_0, # of connection points: 2
#     Edge 39, Type (0, 0), BuildingBlock: EZIPEK_clean_linker_0, # of connection points: 2
# Relax obj value: 0.262
# Max RMSD: 0.280
# Mean RMSD: 0.280
data_MOF--net-vmx--node1-TAGTUT_clean_sbu_3--edge1-EZIPEK_clean_linker_0
_symmetry_space_group_name_H-M    P1
_symmetry_Int_Tables_number       1
_symmetry_cell_setting            triclinic
loop_
_symmetry_equiv_pos_as_xyz
'x, y, z'
_cell_length_a     22.919407
_cell_length_b     44.271698
_cell_length_c     14.208998
_cell_angle_alpha  90.021992
_cell_angle_beta   108.67243
_cell_angle_gamma 89.987231
loop_
_atom_site_label
_atom_site_type_symbol
_atom_site_fract_x
_atom_site_fract_y
_atom_site_fract_z
_atom_type_partial_charge
C0 C 0.50004 0.34864 0.51036 0.0
C1 C 0.4772 0.27115 0.25743 0.0
C2 C 0.34608 0.3296 0.0571 0.0
Mg3 Mg 0.4312 0.40035 0.55408 0.0
Mg4 Mg 0.28458 0.40871 0.50438 0.0
O5 O 0.34621 0.39971 0.45144 0.0
Mg6 Mg 0.35731 0.36187 0.37579 0.0
O7 O 0.38641 0.32703 0.31111 0.0
Mg8 Mg 0.45519 0.34624 0.27395 0.0
Mg9 Mg 0.34741 0.29386 0.23697 0.0
C10 C 0.20826 0.38112 0.29132 0.0
O11 O 0.30969 0.32546 0.44272 0.0
O12 O 0.41451 0.44654 0.60636 0.0
O13 O 0.28954 0.28805 0.32578 0.0
O14 O 0.39734 0.37829 0.67537 0.0
O15 O 0.31339 0.45291 0.57463 0.0
O16 O 0.29431 0.37768 0.61751 0.0
O17 O 0.40894 0.39262 0.29705 0.0
O18 O 0.45547 0.42207 0.42553 0.0
C19 C 0.43945 0.41663 0.3321 0.0
C20 C 0.36918 0.46231 0.61135 0.0
O21 O 0.25468 0.37033 0.26796 0.0
O22 O 0.49258 0.29902 0.25931 0.0
O23 O 0.21397 0.39479 0.37353 0.0
O24 O 0.39353 0.34327 0.11314 0.0
O25 O 0.42308 0.26272 0.25301 0.0
O26 O 0.31633 0.30988 0.08851 0.0
O27 O 0.4448 0.35541 0.49774 0.0
O28 O 0.51922 0.34526 0.43656 0.0
C29 C 0.34491 0.37088 0.68247 0.0
C30 C 0.28516 0.30008 0.40532 0.0
C31 C 0.6461 0.35249 0.9167 0.0
C32 C 0.68466 0.28069 0.21533 0.0
C33 C 0.83161 0.34443 0.36149 0.0
Mg34 Mg 0.72598 0.3993 0.85441 0.0
Mg35 Mg 0.87291 0.40979 0.91794 0.0
O36 O 0.80994 0.38974 0.94348 0.0
Mg37 Mg 0.79588 0.35651 0.02964 0.0
O38 O 0.76608 0.32535 0.11157 0.0
Mg39 Mg 0.70917 0.35215 0.15581 0.0
Mg40 Mg 0.81564 0.29695 0.20497 0.0
C41 C 0.94877 0.37478 0.11247 0.0
O42 O 0.82579 0.31463 0.95771 0.0
O43 O 0.75061 0.44474 0.80543 0.0
O44 O 0.86815 0.2954 0.10374 0.0
O45 O 0.75809 0.3774 0.73159 0.0
O46 O 0.84804 0.45657 0.88937 0.0
O47 O 0.85956 0.38942 0.78148 0.0
O48 O 0.76017 0.39272 0.11166 0.0
O49 O 0.71384 0.42395 -0.01211 0.0
C50 C 0.73448 0.41794 0.08045 0.0
C51 C 0.7947 0.46361 0.83121 0.0
O52 O 0.90256 0.36143 0.1294 0.0
O53 O 0.66863 0.30842 0.19728 0.0
O54 O 0.94371 0.39243 0.03915 0.0
O55 O 0.78015 0.35442 0.30547 0.0
O56 O 0.73805 0.27085 0.21946 0.0
O57 O 0.85774 0.32187 0.33697 0.0
O58 O 0.70071 0.35533 0.91422 0.0
O59 O 0.63593 0.35031 -0.00051 0.0
C60 C 0.81161 0.3778 0.72004 0.0
C61 C 0.83658 0.29098 0.01327 0.0
C62 C 0.63758 0.63431 0.4204 0.0
C63 C 0.67463 0.71019 0.67679 0.0
C64 C 0.80012 0.65624 0.86191 0.0
Mg65 Mg 0.71373 0.58871 0.34916 0.0
Mg66 Mg 0.86032 0.58796 0.38221 0.0
O67 O 0.79995 0.59283 0.44013 0.0
Mg68 Mg 0.78719 0.62685 0.52422 0.0
O69 O 0.76049 0.65919 0.60503 0.0
Mg70 Mg 0.70269 0.63513 0.65354 0.0
Mg71 Mg 0.80182 0.69307 0.67874 0.0
C72 C 0.93833 0.61118 0.59603 0.0
O73 O 0.81845 0.66589 0.44356 0.0
O74 O 0.73902 0.54585 0.28295 0.0
O75 O 0.86102 0.6835 0.59165 0.0
O76 O 0.73586 0.61955 0.2346 0.0
O77 O 0.84166 0.54225 0.32658 0.0
O78 O 0.83818 0.62153 0.27554 0.0
O79 O 0.74991 0.5923 0.60843 0.0
O80 O 0.70551 0.56085 0.48222 0.0
C81 C 0.72548 0.56682 0.57563 0.0
C82 C 0.7877 0.53126 0.28659 0.0
O83 O 0.89203 0.62014 0.62245 0.0
O84 O 0.66569 0.68178 0.68376 0.0
O85 O 0.9324 0.60085 0.50937 0.0
O86 O 0.77404 0.63427 0.80662 0.0
O87 O 0.72147 0.72094 0.65753 0.0
O88 O 0.8176 0.67998 0.82821 0.0
O89 O 0.69168 0.63021 0.41806 0.0
O90 O 0.62756 0.63671 0.50267 0.0
C91 C 0.78514 0.63122 0.22619 0.0
C92 C 0.83624 0.68896 0.49972 0.0
C93 C 0.48808 0.6414 0.01757 0.0
C94 C 0.47167 0.71435 0.74912 0.0
C95 C 0.33181 0.65595 0.56379 0.0
Mg96 Mg 0.41588 0.59054 0.06497 0.0
Mg97 Mg 0.26934 0.57534 -0.00058 0.0
O98 O 0.33148 0.59451 0.96572 0.0
Mg99 Mg 0.34448 0.63123 0.8865 0.0
O100 O 0.37716 0.66378 0.81759 0.0
Mg101 Mg 0.44226 0.64113 0.78005 0.0
Mg102 Mg 0.34107 0.69596 0.7362 0.0
C103 C 0.19664 0.60906 0.79516 0.0
O104 O 0.29943 0.67211 0.94545 0.0
O105 O 0.3992 0.54412 0.11512 0.0
O106 O 0.28531 0.70719 0.82201 0.0
O107 O 0.37692 0.61108 0.18084 0.0
O108 O 0.30179 0.52913 0.04851 0.0
O109 O 0.27518 0.60075 0.12664 0.0
O110 O 0.39225 0.5979 0.81068 0.0
O111 O 0.43856 0.5674 0.93713 0.0
C112 C 0.41888 0.57296 0.84392 0.0
C113 C 0.35776 0.524 0.10146 0.0
O114 O 0.24244 0.62346 0.78075 0.0
O115 O 0.48458 0.68614 0.75663 0.0
O116 O 0.20081 0.5913 0.86842 0.0
O117 O 0.37915 0.64213 0.61976 0.0
O118 O 0.41866 0.72454 0.74405 0.0
O119 O 0.30501 0.67731 0.59348 0.0
O120 O 0.4326 0.63602 0.00861 0.0
O121 O 0.50615 0.64313 0.94198 0.0
C122 C 0.32286 0.61214 0.18952 0.0
C123 C 0.27909 0.69781 0.90331 0.0
C124 C 0.84099 0.86182 0.57294 0.0
C125 C 0.8361 0.7843 0.3021 0.0
C126 C 0.69172 0.83866 0.11561 0.0
Mg127 Mg 0.75401 0.90896 0.60417 0.0
Mg128 Mg 0.60509 0.90906 0.53757 0.0
O129 O 0.67346 0.89399 0.51353 0.0
Mg130 Mg 0.69831 0.85942 0.43841 0.0
O131 O 0.73794 0.82912 0.36778 0.0
Mg132 Mg 0.79693 0.85615 0.33329 0.0
Mg133 Mg 0.69952 0.79675 0.28162 0.0
C134 C 0.54852 0.86869 0.34178 0.0
O135 O 0.6751 0.81381 0.5138 0.0
O136 O 0.71844 0.95333 0.64113 0.0
O137 O 0.63682 0.79682 0.36345 0.0
O138 O 0.72561 0.88679 0.72705 0.0
O139 O 0.6179 0.9577 0.56008 0.0
O140 O 0.62147 0.88901 0.67578 0.0
O141 O 0.73237 0.89602 0.35337 0.0
O142 O 0.76616 0.93187 0.46785 0.0
C143 C 0.74959 0.92318 0.37733 0.0
C144 C 0.66908 0.96876 0.6149 0.0
O145 O 0.59828 0.85849 0.32932 0.0
O146 O 0.84655 0.81281 0.31263 0.0
O147 O 0.54643 0.88599 0.41301 0.0
O148 O 0.73718 0.85306 0.17372 0.0
O149 O 0.78379 0.7724 0.29414 0.0
O150 O 0.66546 0.81663 0.14235 0.0
O151 O 0.78498 0.86586 0.55787 0.0
O152 O 0.86077 0.85716 0.50001 0.0
C153 C 0.67314 0.88195 0.73849 0.0
C154 C 0.66602 0.79109 0.45339 0.0
C155 C 0.00672 0.86488 0.97017 0.0
C156 C 0.04478 0.78647 0.25059 0.0
C157 C 0.18209 0.84871 0.41657 0.0
Mg158 Mg 0.08495 0.91404 0.91629 0.0
Mg159 Mg 0.23066 0.9246 0.97986 0.0
O160 O 0.16797 0.90506 0.00765 0.0
Mg161 Mg 0.15284 0.86964 0.08728 0.0
O162 O 0.12273 0.83664 0.15745 0.0
Mg163 Mg 0.06392 0.85997 0.20735 0.0
Mg164 Mg 0.17116 0.80812 0.24485 0.0
C165 C 0.30043 0.88666 0.17664 0.0
O166 O 0.19216 0.83033 0.01782 0.0
O167 O 0.10865 0.96073 0.87219 0.0
O168 O 0.21966 0.79643 0.1455 0.0
O169 O 0.11753 0.89322 0.79174 0.0
O170 O 0.20512 0.972 0.96165 0.0
O171 O 0.21873 0.90501 0.84034 0.0
O172 O 0.1127 0.90243 0.17184 0.0
O173 O 0.07154 0.93637 0.05413 0.0
C174 C 0.08827 0.92809 0.14504 0.0
C175 C 0.15256 0.97966 0.90187 0.0
O176 O 0.25359 0.87458 0.19376 0.0
O177 O 0.02641 0.81401 0.23705 0.0
O178 O 0.29591 0.90373 0.10182 0.0
O179 O 0.13096 0.85944 0.36218 0.0
O180 O 0.09918 0.77822 0.25568 0.0
O181 O 0.21285 0.8296 0.38484 0.0
O182 O 0.06119 0.86873 0.96905 0.0
O183 O -0.00488 0.86031 0.0508 0.0
C184 C 0.17065 0.89343 0.77894 0.0
C185 C 0.21697 0.8053 0.05835 0.0
C186 C 0.06303 0.07874 0.63467 0.0
C187 C 0.14199 0.03498 0.37972 0.0
C188 C 0.13997 0.12489 0.27127 0.0
Mg189 Mg 0.02979 0.14846 0.68323 0.0
Mg190 Mg 0.13564 0.20177 0.72273 0.0
O191 O 0.09132 0.17166 0.639 0.0
Mg192 Mg 0.12571 0.13838 0.57772 0.0
O193 O 0.14433 0.10258 0.50543 0.0
Mg194 Mg 0.06061 0.09442 0.40777 0.0
Mg195 Mg 0.20958 0.09366 0.46292 0.0
C196 C 0.18988 0.20173 0.54571 0.0
O197 O 0.22653 0.13441 0.68976 0.0
O198 O 0.98978 0.19433 0.70396 0.0
O199 O 0.2743 0.11144 0.5911 0.0
O200 O 0.09314 0.15123 0.84062 0.0
O201 O 0.06085 0.231 0.72277 0.0
O202 O 0.17383 0.18219 0.86531 0.0
O203 O 0.03623 0.13904 0.45706 0.0
O204 O 0.96282 0.14751 0.52252 0.0
C205 C 0.98037 0.14331 0.44733 0.0
C206 C 0.00642 0.22213 0.71477 0.0
O207 O 0.16637 0.17637 0.50682 0.0
O208 O 0.09184 0.04961 0.36416 0.0
O209 O 0.18818 0.21206 0.62895 0.0
O210 O 0.08871 0.11747 0.283 0.0
O211 O 0.1947 0.04639 0.42607 0.0
O212 O 0.19218 0.11885 0.33359 0.0
O213 O 0.08379 0.10529 0.66003 0.0
O214 O 0.04286 0.07097 0.54285 0.0
C215 C 0.14259 0.16323 0.89649 0.0
C216 C 0.27521 0.12487 0.67134 0.0
C217 C 0.83342 0.13595 0.04075 0.0
C218 C 0.80744 0.21499 0.78552 0.0
C219 C 0.6695 0.16316 0.58996 0.0
Mg220 Mg 0.75081 0.09091 0.09587 0.0
Mg221 Mg 0.60468 0.08815 0.05677 0.0
O222 O 0.66639 0.09915 0.00682 0.0
Mg223 Mg 0.68358 0.13444 0.92815 0.0
O224 O 0.71578 0.16629 0.85189 0.0
Mg225 Mg 0.77456 0.14146 0.80506 0.0
Mg226 Mg 0.67314 0.19886 0.77247 0.0
C227 C 0.53069 0.12173 0.85682 0.0
O228 O 0.65807 0.17541 0.01064 0.0
O229 O 0.72392 0.0467 0.15279 0.0
O230 O 0.61572 0.19537 0.86522 0.0
O231 O 0.72747 0.11951 0.21525 0.0
O232 O 0.62197 0.04096 0.09956 0.0
O233 O 0.62517 0.11769 0.17581 0.0
O234 O 0.7167 0.09986 0.83592 0.0
O235 O 0.75554 0.06541 0.95499 0.0
C236 C 0.73663 0.07321 0.86292 0.0
C237 C 0.67611 0.03081 0.14369 0.0
O238 O 0.57701 0.13258 0.83371 0.0
O239 O 0.82087 0.18674 0.78796 0.0
O240 O 0.53538 0.10564 0.93365 0.0
O241 O 0.71215 0.14672 0.64641 0.0
O242 O 0.75468 0.22472 0.78396 0.0
O243 O 0.64279 0.1838 0.62315 0.0
O244 O 0.77822 0.13344 0.03881 0.0
O245 O 0.84562 0.13857 0.96039 0.0
C246 C 0.67684 0.12892 0.22543 0.0
C247 C 0.64398 0.19947 0.95719 0.0
C248 C 0.37897 0.46768 0.10418 0.0
C249 C 0.37778 0.49511 0.15577 0.0
C250 C 0.44711 0.47243 0.30746 0.0
C251 C 0.43526 0.44338 0.26421 0.0
N252 N 0.40658 0.41436 0.11335 0.0
N253 N 0.40616 0.52225 0.31187 0.0
C254 C 0.40592 0.44126 0.15963 0.0
C255 C 0.41051 0.49702 0.25904 0.0
N256 N 0.35763 0.46738 0.00269 0.0
N257 N 0.49567 0.4769 0.39194 0.0
H258 H 0.37863 0.54069 0.28004 0.0
H259 H 0.42507 0.52341 0.38902 0.0
H260 H 0.52783 0.45991 0.42213 0.0
H261 H 0.50872 0.49823 0.4226 0.0
H262 H 0.36331 0.44929 0.95974 0.0
H263 H 0.33732 0.48615 0.96055 0.0
H264 H 0.38013 0.4097 0.04043 0.0
H265 H 0.43621 0.39699 0.14876 0.0
C266 C 0.73873 0.47987 0.26837 0.0
C267 C 0.77991 0.50039 0.2445 0.0
C268 C 0.80363 0.46192 0.14004 0.0
C269 C 0.75364 0.44422 0.1471 0.0
N270 N 0.6722 0.43605 0.21674 0.0
N271 N 0.84306 0.51234 0.14164 0.0
C272 C 0.72075 0.45303 0.21129 0.0
C273 C 0.81056 0.49177 0.17662 0.0
N274 N 0.71877 0.48548 0.3476 0.0
N275 N 0.84548 0.44998 0.10044 0.0
H276 H 0.84687 0.53507 0.16181 0.0
H277 H 0.86059 0.50747 0.08407 0.0
H278 H 0.84376 0.42756 0.07797 0.0
H279 H 0.88579 0.46118 0.10196 0.0
H280 H 0.69256 0.47024 0.37294 0.0
H281 H 0.73379 0.50398 0.39456 0.0
H282 H 0.64224 0.44304 0.25424 0.0
H283 H 0.65986 0.41568 0.17852 0.0
C284 C 0.80764 0.49549 0.69651 0.0
C285 C 0.78483 0.49239 0.77734 0.0
C286 C 0.71988 0.53729 0.72355 0.0
C287 C 0.74458 0.54098 0.64464 0.0
N288 N 0.82448 0.52823 0.57322 0.0
N289 N 0.72709 0.51183 0.87872 0.0
C290 C 0.79205 0.52144 0.63607 0.0
C291 C 0.74332 0.51386 0.79434 0.0
N292 N 0.84186 0.47291 0.67402 0.0
N293 N 0.673 0.55562 0.72885 0.0
H294 H 0.74398 0.49488 0.93151 0.0
H295 H 0.7011 0.52802 0.90051 0.0
H296 H 0.65542 0.57308 0.67841 0.0
H297 H 0.64879 0.55243 0.77875 0.0
H298 H 0.85184 0.47204 0.60748 0.0
H299 H 0.85632 0.45371 0.7177 0.0
H300 H 0.86447 0.51693 0.57373 0.0
H301 H 0.81515 0.54681 0.5267 0.0
C302 C 0.45454 0.52367 0.79316 0.0
C303 C 0.40901 0.54649 0.77556 0.0
C304 C 0.34376 0.51657 0.63626 0.0
C305 C 0.38354 0.49152 0.6664 0.0
N306 N 0.46979 0.46984 0.79724 0.0
N307 N 0.29981 0.55738 0.70056 0.0
C308 C 0.43746 0.4946 0.75118 0.0
C309 C 0.35073 0.54125 0.70214 0.0
N310 N 0.51374 0.5295 0.85053 0.0
N311 N 0.2995 0.51728 0.54523 0.0
H312 H 0.29904 0.57325 0.75406 0.0
H313 H 0.25625 0.551 0.65479 0.0
H314 H 0.29564 0.50077 0.49121 0.0
H315 H 0.27173 0.53617 0.52 0.0
H316 H 0.54939 0.51402 0.85901 0.0
H317 H 0.52808 0.55085 0.88005 0.0
H318 H 0.5066 0.47135 0.86316 0.0
H319 H 0.45499 0.44774 0.77858 0.0
C320 C 0.73052 0.9807 0.16894 0.0
C321 C 0.68587 8e-05 0.18802 0.0
C322 C 0.67039 0.96269 0.30367 0.0
C323 C 0.72407 0.94705 0.3018 0.0
N324 N 0.80541 0.9405 0.2309 0.0
N325 N 0.6194 0.01091 0.28641 0.0
C326 C 0.75399 0.95567 0.23311 0.0
C327 C 0.65681 0.99136 0.258 0.0
N328 N 0.74919 0.98587 0.08817 0.0
N329 N 0.63123 0.94978 0.34672 0.0
H330 H 0.60944 0.03268 0.25815 0.0
H331 H 0.60307 0.00646 0.34558 0.0
H332 H 0.63747 0.92784 0.37401 0.0
H333 H 0.58873 0.95913 0.34262 0.0
H334 H 0.7776 0.97116 0.06557 0.0
H335 H 0.73099 0.00328 0.0378 0.0
H336 H 0.83324 0.94773 0.18999 0.0
H337 H 0.82204 0.9215 0.27479 0.0
C338 C 0.09274 0.98406 0.34958 0.0
C339 C 0.13731 0.00458 0.33626 0.0
C340 C 0.16086 0.96921 0.22293 0.0
C341 C 0.10762 0.95232 0.21915 0.0
N342 N 0.02266 0.94267 0.27951 0.0
N343 N 0.20732 0.0184 0.24624 0.0
C344 C 0.07364 0.95925 0.28343 0.0
C345 C 0.17029 0.99756 0.27011 0.0
N346 N 0.06967 0.98812 0.42623 0.0
N347 N 0.20335 0.9579 0.1835 0.0
H348 H 0.21508 0.04007 0.27599 0.0
H349 H 0.22578 0.01509 0.18882 0.0
H350 H 0.20009 0.93624 0.15425 0.0
H351 H 0.24548 0.96836 0.192 0.0
H352 H 0.04114 0.97253 0.44484 0.0
H353 H 0.08401 0.00569 0.4773 0.0
H354 H 0.99211 0.94863 0.3171 0.0
H355 H 0.00908 0.92377 0.23371 0.0
C356 C 0.08982 0.02714 0.86126 0.0
C357 C 0.14134 0.01012 0.85619 0.0
C358 C 0.14118 0.03772 0.70769 0.0
C359 C 0.08849 0.05459 0.71025 0.0
N360 N 0.02205 0.07027 0.80272 0.0
N361 N 0.22791 0.00631 0.79551 0.0
C362 C 0.06598 0.05097 0.79177 0.0
C363 C 0.17106 0.0179 0.78671 0.0
N364 N 0.06306 0.01992 0.93152 0.0
N365 N 0.16202 0.03965 0.62815 0.0
H366 H 0.25154 0.99155 0.85167 0.0
H367 H 0.25502 0.01391 0.75389 0.0
H368 H 0.14306 0.05389 0.56882 0.0
H369 H 0.19426 0.0249 0.6159 0.0
H370 H 0.0212 0.02872 0.93276 0.0
H371 H 0.08249 0.0042 -0.01238 0.0
H372 H 0.00828 0.07094 0.86575 0.0
H373 H 0.00191 0.08706 0.75097 0.0
C374 C 0.71805 0.01961 0.64431 0.0
C375 C 0.67326 0.9994 0.658 0.0
C376 C 0.66079 0.03199 0.78886 0.0
C377 C 0.71357 0.04885 0.78827 0.0
N378 N 0.79217 0.05956 0.71431 0.0
N379 N 0.60448 0.98512 0.74854 0.0
C380 C 0.74174 0.04316 0.71471 0.0
C381 C 0.64462 0.00545 0.73069 0.0
N382 N 0.73736 0.01615 0.56336 0.0
N383 N 0.62455 0.04192 0.8423 0.0
H384 H 0.58906 0.96588 0.70566 0.0
H385 H 0.5896 0.98626 0.81049 0.0
H386 H 0.63278 0.06206 0.88149 0.0
H387 H 0.58245 0.03217 0.8382 0.0
H388 H 0.76621 0.03135 0.54392 0.0
H389 H 0.71966 0.99935 0.51029 0.0
H390 H 0.81884 0.05457 0.66923 0.0
H391 H 0.80961 0.07728 0.76379 0.0
C392 C 0.04218 0.39897 0.21769 0.0
C393 C 0.0132 0.37159 0.17778 0.0
C394 C 0.11503 0.34954 0.19523 0.0
C395 C 0.14282 0.37818 0.22659 0.0
N396 N 0.12879 0.43193 0.23422 0.0
N397 N 0.02056 0.32176 0.11485 0.0
C398 C 0.10474 0.40346 0.22662 0.0
C399 C 0.0493 0.34698 0.16326 0.0
N400 N 0.00892 0.42105 0.24444 0.0
N401 N 0.15082 0.32475 0.19733 0.0
H402 H 0.97297 0.31891 0.09419 0.0
H403 H 0.04333 0.30451 0.09092 0.0
H404 H 0.19828 0.32592 0.2131 0.0
H405 H 0.13364 0.30278 0.18738 0.0
H406 H 0.02865 0.4408 0.28082 0.0
H407 H 0.96274 0.41798 0.23896 0.0
H408 H 0.10217 0.45141 0.22706 0.0
H409 H 0.17422 0.43586 0.23678 0.0
C410 C 0.09629 0.63463 0.77311 0.0
C411 C 0.13278 0.61532 0.73433 0.0
C412 C 0.04111 0.58754 0.64502 0.0
C413 C 0.00299 0.61049 0.66439 0.0
N414 N -0.00293 0.65803 0.74608 0.0
N415 N 0.13684 0.57832 0.61376 0.0
C416 C 0.03113 0.63478 0.72831 0.0
C417 C 0.10398 0.59348 0.66327 0.0
N418 N 0.12333 0.65144 0.85624 0.0
N419 N 0.01725 0.5599 0.61049 0.0
H420 H 0.18191 0.58461 0.62138 0.0
H421 H 0.11683 0.56293 0.55697 0.0
H422 H 0.97183 0.55406 0.60312 0.0
H423 H 0.04449 0.54204 0.60089 0.0
H424 H 0.09816 0.66309 0.89412 0.0
H425 H 0.17096 0.65229 0.89041 0.0
H426 H 0.017 0.67782 0.78206 0.0
H427 H 0.9493 0.65814 0.72236 0.0
C428 C 0.46515 0.89258 0.22381 0.0
C429 C 0.48871 0.86485 0.2667 0.0
C430 C 0.38556 0.84982 0.2663 0.0
C431 C 0.36496 0.8798 0.23658 0.0
N432 N 0.39433 0.93194 0.23046 0.0
N433 N 0.47399 0.81637 0.33012 0.0
C434 C 0.40816 0.90195 0.23002 0.0
C435 C 0.4492 0.8429 0.28632 0.0
N436 N 0.50067 0.9112 0.18829 0.0
N437 N 0.3456 0.8283 0.27715 0.0
H438 H 0.52005 0.81096 0.34128 0.0
H439 H 0.45017 0.80049 0.3577 0.0
H440 H 0.30173 0.83322 0.27922 0.0
H441 H 0.35632 0.8054 0.28547 0.0
H442 H 0.48447 0.93158 0.15266 0.0
H443 H 0.54425 0.90453 0.1875 0.0
H444 H 0.42597 0.94899 0.23169 0.0
H445 H 0.35339 0.93932 0.24041 0.0
C446 C 0.43294 0.09923 0.76317 0.0
C447 C 0.4664 0.1262 0.79471 0.0
C448 C 0.36926 0.15357 0.76951 0.0
C449 C 0.33718 0.12586 0.74487 0.0
N450 N 0.34013 0.07165 0.75273 0.0
N451 N 0.46737 0.17793 0.84906 0.0
C452 C 0.37012 0.09843 0.75484 0.0
C453 C 0.43488 0.15323 0.80359 0.0
N454 N 0.46184 0.07429 0.7426 0.0
N455 N 0.33726 0.18 0.75925 0.0
H456 H 0.51522 0.17818 0.87548 0.0
H457 H 0.44692 0.19723 0.86637 0.0
H458 H 0.28947 0.18054 0.74098 0.0
H459 H 0.35787 0.2012 0.76502 0.0
H460 H 0.4386 0.05451 0.71276 0.0
H461 H 0.50806 0.07473 0.74612 0.0
H462 H 0.36263 0.05086 0.7662 0.0
H463 H 0.2936 0.07088 0.74736 0.0
C464 C 0.58298 0.25541 0.13896 0.0
C465 C 0.63637 0.2595 0.22266 0.0
C466 C 0.57762 0.24695 0.33281 0.0
C467 C 0.52357 0.2491 0.25027 0.0
N468 N 0.47712 0.2375 0.07877 0.0
N469 N 0.68951 0.24516 0.39132 0.0
C470 C 0.52779 0.24609 0.15454 0.0
C471 C 0.6356 0.25005 0.31726 0.0
N472 N 0.58356 0.26319 0.04664 0.0
N473 N 0.57251 0.24504 0.42556 0.0
H474 H 0.73192 0.24716 0.37923 0.0
H475 H 0.69135 0.2361 0.45977 0.0
H476 H 0.52947 0.24266 0.43542 0.0
H477 H 0.60982 0.24652 0.49068 0.0
H478 H 0.5444 0.26276 -0.0158 0.0
H479 H 0.6228 0.27186 0.0346 0.0
H480 H 0.47782 0.23343 0.00695 0.0
H481 H 0.43612 0.23192 0.09199 0.0
C482 C 0.5762 0.73878 0.62459 0.0
C483 C 0.6305 0.73039 0.70105 0.0
C484 C 0.57682 0.73327 0.82355 0.0
C485 C 0.52104 0.73478 0.74388 0.0
N486 N 0.46772 0.7523 0.57963 0.0
N487 N 0.68852 0.7284 0.8746 0.0
C488 C 0.52118 0.74293 0.64826 0.0
C489 C 0.633 0.73152 0.80181 0.0
N490 N 0.57641 0.73968 0.529 0.0
N491 N 0.57442 0.73087 0.91802 0.0
H492 H 0.72966 0.72723 0.85791 0.0
H493 H 0.69452 0.72837 0.9503 0.0
H494 H 0.53252 0.73229 0.93233 0.0
H495 H 0.6126 0.72802 0.981 0.0
H496 H 0.53745 0.74311 0.46763 0.0
H497 H 0.61671 0.73583 0.51227 0.0
H498 H 0.46451 0.75977 0.50871 0.0
H499 H 0.42739 0.75491 0.59798 0.0
C500 C 0.89075 0.75586 0.20597 0.0
C501 C 0.88826 0.76528 0.29973 0.0
C502 C 0.00023 0.76316 0.36659 0.0
C503 C 0.0015 0.76455 0.2685 0.0
N504 N 0.95281 0.75495 0.09528 0.0
N505 N 0.9396 0.77411 0.47375 0.0
C506 C 0.94828 0.75744 0.18837 0.0
C507 C 0.94282 0.76649 0.38259 0.0
N508 N 0.83803 0.74742 0.13362 0.0
N509 N 0.05426 0.76139 0.44305 0.0
H510 H 0.89751 0.7776 0.48526 0.0
H511 H 0.97791 0.77848 0.53545 0.0
H512 H 0.09641 0.75962 0.42982 0.0
H513 H 0.05667 0.75885 0.51707 0.0
H514 H 0.837 0.73913 0.06453 0.0
H515 H 0.79586 0.74624 0.14684 0.0
H516 H 0.91516 0.75272 0.03103 0.0
H517 H -0.00445 0.75571 0.08362 0.0
C518 C 0.96374 0.24687 0.82946 0.0
C519 C 0.96165 0.24342 0.73009 0.0
C520 C 0.85014 0.24571 0.67843 0.0
C521 C 0.85379 0.23655 0.77506 0.0
N522 N 0.91231 0.23374 0.94811 0.0
N523 N 0.90375 0.24554 0.55663 0.0
C524 C 0.90994 0.23982 0.85327 0.0
C525 C 0.90493 0.24594 0.65313 0.0
N526 N 0.01822 0.25371 0.90017 0.0
N527 N 0.79491 0.25334 0.61164 0.0
H528 H 0.94442 0.24598 0.53831 0.0
H529 H 0.86316 0.24393 0.49676 0.0
H530 H 0.75442 0.25311 0.63031 0.0
H531 H 0.79145 0.26319 0.5435 0.0
H532 H 0.02256 0.25766 0.97434 0.0
H533 H 0.05777 0.2581 0.88108 0.0
H534 H 0.95278 0.23412 0.00816 0.0
H535 H 0.87311 0.22707 0.96447 0.0
C536 C 0.53487 0.325 0.67726 0.0
C537 C 0.5414 0.3487 0.61387 0.0
C538 C 0.59313 0.37952 0.75884 0.0
C539 C 0.59508 0.35442 0.82082 0.0
N540 N 0.54422 0.30941 0.84551 0.0
N541 N 0.5804 0.39798 0.5933 0.0
C542 C 0.55887 0.32882 0.7821 0.0
C543 C 0.57168 0.37585 0.65438 0.0
N544 N 0.50772 0.29848 0.63663 0.0
N545 N 0.60525 0.40743 0.80082 0.0
H546 H 0.56582 0.39575 0.51618 0.0
H547 H 0.60699 0.41716 0.61956 0.0
H548 H 0.61271 0.41032 0.8766 0.0
H549 H 0.59985 0.4274 0.76015 0.0
H550 H 0.50526 0.27943 0.67808 0.0
H551 H 0.49193 0.29474 0.56006 0.0
H552 H 0.51272 0.29185 0.82227 0.0
H553 H 0.55891 0.31298 0.92196 0.0
C554 C 0.58073 0.60901 0.26249 0.0
C555 C 0.58698 0.63437 0.32493 0.0
C556 C 0.53032 0.66535 0.18294 0.0
C557 C 0.53125 0.64075 0.11925 0.0
N558 N 0.56371 0.59029 0.09607 0.0
N559 N 0.5499 0.68321 0.35218 0.0
C560 C 0.55838 0.61286 0.15835 0.0
C561 C 0.55638 0.66164 0.28752 0.0
N562 N 0.59145 0.58097 0.30403 0.0
N563 N 0.50684 0.69253 0.1425 0.0
H564 H 0.56832 0.68082 0.42898 0.0
H565 H 0.52214 0.70223 0.33064 0.0
H566 H 0.48914 0.69598 0.06589 0.0
H567 H 0.50903 0.71221 0.18349 0.0
H568 H 0.58305 0.56101 0.26305 0.0
H569 H 0.60158 0.57804 0.38045 0.0
H570 H 0.58796 0.57038 0.121 0.0
H571 H 0.54908 0.5928 0.01908 0.0
C572 C 0.87201 0.84311 0.74952 0.0
C573 C 0.88094 0.86345 0.67699 0.0
C574 C 0.95104 0.89146 0.81259 0.0
C575 C 0.95687 0.86602 0.87522 0.0
N576 N 0.9256 0.81491 0.89622 0.0
N577 N 0.92956 0.909 0.64422 0.0
C578 C 0.91854 0.84083 0.84164 0.0
C579 C 0.92164 0.88805 0.70949 0.0
N580 N 0.81776 0.8284 0.73684 0.0
N581 N 0.96641 0.91936 0.85277 0.0
H582 H 0.9059 0.90825 0.56816 0.0
H583 H 0.96258 0.92605 0.6661 0.0
H584 H 0.97797 0.92256 0.92912 0.0
H585 H 0.95902 0.9391 0.81049 0.0
H586 H 0.81047 0.81488 0.79221 0.0
H587 H 0.77747 0.8332 0.67983 0.0
H588 H 0.90032 0.79542 0.86834 0.0
H589 H 0.95969 0.81208 0.96475 0.0
C590 C 0.94139 0.16592 0.28034 0.0
C591 C 0.93761 0.14222 0.34521 0.0
C592 C 0.88478 0.11045 0.20284 0.0
C593 C 0.88235 0.13521 0.13897 0.0
N594 N 0.92947 0.18136 0.11175 0.0
N595 N 0.90315 0.09249 0.37109 0.0
C596 C 0.91689 0.16154 0.17605 0.0
C597 C 0.90853 0.11458 0.30728 0.0
N598 N 0.96691 0.19297 0.31924 0.0
N599 N 0.86999 0.08243 0.16241 0.0
H600 H 0.92029 0.09498 0.4481 0.0
H601 H 0.87735 0.07291 0.348 0.0
H602 H 0.85823 0.079 0.08593 0.0
H603 H 0.87555 0.06263 0.20388 0.0
H604 H 0.96729 0.21209 0.2769 0.0
H605 H 0.98346 0.1971 0.39556 0.0
H606 H 0.96118 0.19884 0.13463 0.0
H607 H 0.91395 0.17816 0.03519 0.0
C608 C 0.3608 0.31772 0.89648 0.0
C609 C 0.33068 0.33507 0.95108 0.0
C610 C 0.31107 0.37558 0.83042 0.0
C611 C 0.34097 0.35827 0.77495 0.0
N612 N 0.38214 0.31084 0.74139 0.0
N613 N 0.26364 0.37574 0.96051 0.0
C614 C 0.36211 0.32861 0.80359 0.0
C615 C 0.30073 0.36236 0.914 0.0
N616 N 0.39054 0.29165 0.93596 0.0
N617 N 0.29596 0.40516 0.80661 0.0
H618 H 0.25597 0.36615 0.02266 0.0
H619 H 0.23621 0.39451 0.93256 0.0
H620 H 0.30602 0.41641 0.7492 0.0
H621 H 0.27832 0.41948 0.84897 0.0
H622 H 0.41996 0.28003 0.90598 0.0
H623 H 0.38766 0.28232 0.00175 0.0
H624 H 0.39196 0.28794 0.75361 0.0
H625 H 0.3847 0.31852 0.67341 0.0
C626 C 0.87835 0.33891 0.54422 0.0
C627 C 0.85482 0.35785 0.46108 0.0
C628 C 0.80639 0.39069 0.55042 0.0
C629 C 0.81947 0.36875 0.62699 0.0
N630 N 0.87383 0.3242 0.70653 0.0
N631 N 0.82853 0.40838 0.40384 0.0
C632 C 0.85795 0.34356 0.62738 0.0
C633 C 0.83009 0.38627 0.47157 0.0
N634 N 0.92195 0.31792 0.54448 0.0
N635 N 0.77035 0.4152 0.55203 0.0
H636 H 0.84659 0.40473 0.3459 0.0
H637 H 0.81531 0.43058 0.41045 0.0
H638 H 0.75203 0.41931 0.60918 0.0
H639 H 0.75506 0.43042 0.49345 0.0
H640 H 0.94487 0.30471 0.60557 0.0
H641 H 0.94082 0.31654 0.48684 0.0
H642 H 0.90165 0.30537 0.71206 0.0
H643 H 0.85712 0.32646 0.76643 0.0
C644 C 0.73348 0.65482 0.97163 0.0
C645 C 0.79346 0.65804 0.96098 0.0
C646 C 0.8377 0.66489 0.1395 0.0
C647 C 0.78211 0.65356 0.14815 0.0
N648 N 0.67283 0.65882 0.08322 0.0
N649 N 0.90202 0.66958 0.03455 0.0
C650 C 0.72821 0.65557 0.06746 0.0
C651 C 0.84526 0.66517 0.04463 0.0
N652 N 0.68208 0.64951 0.89222 0.0
N653 N 0.88233 0.67502 0.22235 0.0
H654 H 0.91004 0.66867 0.96644 0.0
H655 H 0.94221 0.67214 0.09442 0.0
H656 H 0.87533 0.67543 0.29145 0.0
H657 H 0.92258 0.68565 0.22106 0.0
H658 H 0.63987 0.64321 0.89919 0.0
H659 H 0.68144 0.64932 0.81925 0.0
H660 H 0.63182 0.66344 0.02687 0.0
H661 H 0.66976 0.66073 0.1547 0.0
C662 C 0.33332 0.656 0.30193 0.0
C663 C 0.31525 0.62564 0.27834 0.0
C664 C 0.28465 0.62118 0.42692 0.0
C665 C 0.31345 0.64913 0.4587 0.0
N666 N 0.36744 0.69347 0.43168 0.0
N667 N 0.27784 0.57795 0.32084 0.0
C668 C 0.33752 0.66698 0.39707 0.0
C669 C 0.29086 0.60791 0.34041 0.0
N670 N 0.34536 0.67431 0.23295 0.0
N671 N 0.25252 0.6073 0.48083 0.0
H672 H 0.28353 0.56668 0.26004 0.0
H673 H 0.26609 0.56342 0.36943 0.0
H674 H 0.24808 0.61685 0.54541 0.0
H675 H 0.22549 0.58815 0.45664 0.0
H676 H 0.35319 0.69743 0.24321 0.0
H677 H 0.34171 0.66692 0.16158 0.0
H678 H 0.39304 0.70533 0.39511 0.0
H679 H 0.36962 0.70282 0.50012 0.0
C680 C 0.65441 0.8773 -0.01098 0.0
C681 C 0.6726 0.84704 0.01249 0.0
C682 C 0.67885 0.83837 0.84763 0.0
C683 C 0.67153 0.86975 0.83117 0.0
N684 N 0.65789 0.92017 0.88624 0.0
N685 N 0.70984 0.79922 0.97095 0.0
C686 C 0.66016 0.88962 0.90137 0.0
C687 C 0.68596 0.82738 0.94335 0.0
N688 N 0.63262 0.89407 0.05146 0.0
N689 N 0.67842 0.8192 0.77195 0.0
H690 H 0.71541 0.7898 0.04047 0.0
H691 H 0.72886 0.78617 0.92712 0.0
H692 H 0.67321 0.82673 0.70019 0.0
H693 H 0.67786 0.79576 0.77838 0.0
H694 H 0.61416 0.91565 0.0344 0.0
H695 H 0.62782 0.88517 0.11664 0.0
H696 H 0.65605 0.93584 0.93992 0.0
H697 H 0.66311 0.93007 0.82282 0.0
C698 C 0.18151 0.84913 0.67831 0.0
C699 C 0.17814 0.88086 0.68859 0.0
C700 C 0.2078 0.88883 0.54033 0.0
C701 C 0.20077 0.85755 0.52095 0.0
N702 N 0.18066 0.80725 0.56835 0.0
N703 N 0.18399 0.93144 0.62834 0.0
C704 C 0.18887 0.83735 0.59009 0.0
C705 C 0.19088 0.90094 0.61989 0.0
N706 N 0.17859 0.83042 0.75326 0.0
N707 N 0.22939 0.90676 0.48048 0.0
H708 H 0.17057 0.94115 0.68512 0.0
H709 H 0.18661 0.947 0.57493 0.0
H710 H 0.24215 0.89787 0.42178 0.0
H711 H 0.2399 0.92956 0.49405 0.0
H712 H 0.18765 0.80734 0.75483 0.0
H713 H 0.1712 0.8383 0.81768 0.0
H714 H 0.16362 0.79206 0.60905 0.0
H715 H 0.18862 0.79758 0.50672 0.0
C716 C 0.16666 0.12499 0.02596 0.0
C717 C 0.15907 0.15594 0.00149 0.0
C718 C 0.14209 0.16731 0.15882 0.0
C719 C 0.1408 0.13589 0.17563 0.0
N720 N 0.14436 0.08429 0.12232 0.0
N721 N 0.13567 0.20695 0.03894 0.0
C722 C 0.15123 0.11451 0.10854 0.0
C723 C 0.14678 0.17741 0.06705 0.0
N724 N 0.18785 0.10581 0.96872 0.0
N725 N 0.13906 0.18732 0.2305 0.0
H726 H 0.14062 0.21553 0.97366 0.0
H727 H 0.11863 0.2227 0.07795 0.0
H728 H 0.13226 0.18052 0.29653 0.0
H729 H 0.14684 0.21041 0.22721 0.0
H730 H 0.19884 0.08325 -0.01347 0.0
H731 H 0.1999 0.1134 0.90782 0.0
H732 H 0.14568 0.06781 0.07073 0.0
H733 H 0.13182 0.07578 0.18157 0.0
C734 C 0.73063 0.16047 0.376 0.0
C735 C 0.67622 0.15178 0.30112 0.0
C736 C 0.61354 0.16305 0.40595 0.0
C737 C 0.66852 0.16512 0.48655 0.0
N738 N 0.77395 0.18248 0.53899 0.0
N739 N 0.56989 0.16645 0.22717 0.0
C740 C 0.72578 0.16915 0.4687 0.0
C741 C 0.61853 0.16037 0.30997 0.0
N742 N 0.78589 0.16063 0.3587 0.0
N743 N 0.55761 0.16205 0.42069 0.0
H744 H 0.57489 0.16685 0.15663 0.0
H745 H 0.52792 0.1747 0.2302 0.0
H746 H 0.55259 0.16385 0.49086 0.0
H747 H 0.51677 0.15766 0.36353 0.0
H748 H 0.82818 0.1623 0.41465 0.0
H749 H 0.78911 0.15998 0.28721 0.0
H750 H 0.81574 0.18791 0.52891 0.0
H751 H 0.76878 0.19139 0.60343 0.0
C752 C 0.17222 0.24759 0.44606 0.0
C753 C 0.21253 0.22346 0.48936 0.0
C754 C 0.30198 0.25513 0.50789 0.0
C755 C 0.26182 0.27917 0.46339 0.0
N756 N 0.16141 0.30122 0.4065 0.0
N757 N 0.31307 0.20141 0.54409 0.0
C758 C 0.19744 0.27624 0.43734 0.0
C759 C 0.27686 0.22643 0.51519 0.0
N760 N 0.11007 0.24263 0.4135 0.0
N761 N 0.36406 0.26015 0.54223 0.0
H762 H 0.29411 0.18002 0.54549 0.0
H763 H 0.36056 0.2012 0.55903 0.0
H764 H 0.38281 0.28137 0.53788 0.0
H765 H 0.39632 0.24436 0.58145 0.0
H766 H 0.07746 0.25861 0.37685 0.0
H767 H 0.09135 0.22136 0.41738 0.0
H768 H 0.11376 0.3015 0.38919 0.0
H769 H 0.18071 0.32252 0.40508 0.0
C770 C 0.73258 0.26802 0.91177 0.0
C771 C 0.78757 0.26654 -0.00532 0.0
C772 C 0.74071 0.22582 0.06656 0.0
C773 C 0.68774 0.22612 0.98162 0.0
N774 N 0.62432 0.25531 0.84328 0.0
N775 N 0.84906 0.23636 0.13437 0.0
C776 C 0.68096 0.24979 0.91065 0.0
C777 C 0.793 0.24328 0.06739 0.0
N778 N 0.73174 0.28398 0.82881 0.0
N779 N 0.73953 0.21083 0.15004 0.0
H780 H 0.89044 0.24517 0.1309 0.0
H781 H 0.85569 0.21863 0.18468 0.0
H782 H 0.69904 0.20198 0.15733 0.0
H783 H 0.77496 0.21191 0.21759 0.0
H784 H 0.69424 0.28517 0.76411 0.0
H785 H 0.77176 0.29119 0.81596 0.0
H786 H 0.61558 0.27188 0.78894 0.0
H787 H 0.58416 0.24555 0.84889 0.0
C788 C 0.74395 0.71955 0.39488 0.0
C789 C 0.79933 0.71766 0.47571 0.0
C790 C 0.77496 0.76736 0.52888 0.0
C791 C 0.71235 0.76519 0.46698 0.0
N792 N 0.63787 0.73519 0.34028 0.0
N793 N 0.87064 0.74317 0.61696 0.0
C794 C 0.69696 0.73989 0.40031 0.0
C795 C 0.81504 0.74226 0.54307 0.0
N796 N 0.73813 0.70424 0.30913 0.0
N797 N 0.80021 0.79451 0.56093 0.0
H798 H 0.90838 0.73014 0.61609 0.0
H799 H 0.87922 0.75782 0.67747 0.0
H800 H 0.77608 0.81392 0.53651 0.0
H801 H 0.84723 0.7979 0.59532 0.0
H802 H 0.70116 0.70739 0.24434 0.0
H803 H 0.77515 0.69303 0.29762 0.0
H804 H 0.62543 0.71675 0.29257 0.0
H805 H 0.60023 0.74758 0.34479 0.0
C806 C 0.29383 0.77071 0.03436 0.0
C807 C 0.23288 0.78158 -0.00053 0.0
C808 C 0.1992 0.73475 0.90767 0.0
C809 C 0.25843 0.72207 0.95498 0.0
N810 N 0.36157 0.72739 0.07035 0.0
N811 N 0.12495 0.77298 0.91186 0.0
C812 C 0.30537 0.7398 0.02173 0.0
C813 C 0.18475 0.7634 0.93821 0.0
N814 N 0.34053 0.79041 0.07785 0.0
N815 N 0.15803 0.72028 0.82923 0.0
H816 H 0.11238 0.7945 0.92809 0.0
H817 H 0.0876 0.7589 0.87849 0.0
H818 H 0.1672 0.69946 0.80281 0.0
H819 H 0.11716 0.73013 0.78498 0.0
H820 H 0.38703 0.78473 0.099 0.0
H821 H 0.33225 0.81346 0.08275 0.0
H822 H 0.3955 0.73849 0.12644 0.0
H823 H 0.37254 0.70501 0.0609 0.0
loop_
_geom_bond_atom_site_label_1
_geom_bond_atom_site_label_2
_geom_bond_distance
_geom_bond_site_symmetry_2
_ccdc_geom_bond_type
C0 O27 1.312 . S
C0 O28 1.208 . S
C1 O22 1.331 . S
C1 O25 1.244 . S
C2 O24 1.264 . S
C2 O26 1.273 . S
Mg3 O5 1.936 . S
Mg3 O12 2.081 . S
Mg3 O14 2.023 . S
Mg3 O18 2.031 . S
Mg3 O27 2.291 . S
Mg4 O5 1.963 . S
Mg4 O15 1.942 . S
Mg4 O16 1.955 . S
Mg4 O23 1.986 . S
O5 Mg3 1.936 . S
O5 Mg4 1.963 . S
O5 Mg6 1.915 . S
Mg6 O5 1.915 . S
Mg6 O7 1.915 . S
Mg6 O11 2.013 . S
Mg6 O17 2.114 . S
Mg6 O21 2.013 . S
Mg6 O27 2.114 . S
O7 Mg6 1.915 . S
O7 Mg8 1.936 . S
O7 Mg9 1.963 . S
Mg8 O7 1.936 . S
Mg8 O17 2.291 . S
Mg8 O22 2.081 . S
Mg8 O24 2.023 . S
Mg8 O28 2.031 . S
Mg9 O7 1.963 . S
Mg9 O13 1.986 . S
Mg9 O25 1.942 . S
Mg9 O26 1.955 . S
C10 O21 1.191 . S
C10 O23 1.307 . S
O11 Mg6 2.013 . S
O11 C30 1.191 . S
O12 Mg3 2.081 . S
O12 C20 1.331 . S
O13 Mg9 1.986 . S
O13 C30 1.307 . S
O14 Mg3 2.023 . S
O14 C29 1.264 . S
O15 Mg4 1.942 . S
O15 C20 1.244 . S
O16 Mg4 1.955 . S
O16 C29 1.273 . S
O17 Mg6 2.114 . S
O17 Mg8 2.291 . S
O17 C19 1.312 . S
O18 Mg3 2.031 . S
O18 C19 1.208 . S
C19 O17 1.312 . S
C19 O18 1.208 . S
C20 O12 1.331 . S
C20 O15 1.244 . S
O21 Mg6 2.013 . S
O21 C10 1.191 . S
O22 C1 1.331 . S
O22 Mg8 2.081 . S
O23 Mg4 1.986 . S
O23 C10 1.307 . S
O24 C2 1.264 . S
O24 Mg8 2.023 . S
O25 C1 1.244 . S
O25 Mg9 1.942 . S
O26 C2 1.273 . S
O26 Mg9 1.955 . S
O27 C0 1.312 . S
O27 Mg3 2.291 . S
O27 Mg6 2.114 . S
O28 C0 1.208 . S
O28 Mg8 2.031 . S
C29 O14 1.264 . S
C29 O16 1.273 . S
C30 O11 1.191 . S
C30 O13 1.307 . S
C31 O58 1.312 . S
C31 O59 1.208 1_556 S
C32 O53 1.331 . S
C32 O56 1.244 . S
C33 O55 1.264 . S
C33 O57 1.273 . S
Mg34 O36 1.936 . S
Mg34 O43 2.081 . S
Mg34 O45 2.023 . S
Mg34 O49 2.031 . S
Mg34 O58 2.291 . S
Mg35 O36 1.963 . S
Mg35 O46 1.942 . S
Mg35 O47 1.955 . S
Mg35 O54 1.986 1_556 S
O36 Mg34 1.936 . S
O36 Mg35 1.963 . S
O36 Mg37 1.915 1_556 S
Mg37 O36 1.915 1_554 S
Mg37 O38 1.915 . S
Mg37 O42 2.013 1_554 S
Mg37 O48 2.114 . S
Mg37 O52 2.013 . S
Mg37 O58 2.114 1_554 S
O38 Mg37 1.915 . S
O38 Mg39 1.936 . S
O38 Mg40 1.963 . S
Mg39 O38 1.936 . S
Mg39 O48 2.291 . S
Mg39 O53 2.081 . S
Mg39 O55 2.023 . S
Mg39 O59 2.031 . S
Mg40 O38 1.963 . S
Mg40 O44 1.986 . S
Mg40 O56 1.942 . S
Mg40 O57 1.955 . S
C41 O52 1.191 . S
C41 O54 1.307 . S
O42 Mg37 2.013 1_556 S
O42 C61 1.191 1_556 S
O43 Mg34 2.081 . S
O43 C51 1.331 . S
O44 Mg40 1.986 . S
O44 C61 1.307 . S
O45 Mg34 2.023 . S
O45 C60 1.264 . S
O46 Mg35 1.942 . S
O46 C51 1.244 . S
O47 Mg35 1.955 . S
O47 C60 1.273 . S
O48 Mg37 2.114 . S
O48 Mg39 2.291 . S
O48 C50 1.312 . S
O49 Mg34 2.031 . S
O49 C50 1.208 1_556 S
C50 O48 1.312 . S
C50 O49 1.208 1_554 S
C51 O43 1.331 . S
C51 O46 1.244 . S
O52 Mg37 2.013 . S
O52 C41 1.191 . S
O53 C32 1.331 . S
O53 Mg39 2.081 . S
O54 Mg35 1.986 1_554 S
O54 C41 1.307 . S
O55 C33 1.264 . S
O55 Mg39 2.023 . S
O56 C32 1.244 . S
O56 Mg40 1.942 . S
O57 C33 1.273 . S
O57 Mg40 1.955 . S
O58 C31 1.312 . S
O58 Mg34 2.291 . S
O58 Mg37 2.114 1_556 S
O59 C31 1.208 1_554 S
O59 Mg39 2.031 . S
C60 O45 1.264 . S
C60 O47 1.273 . S
C61 O42 1.191 1_554 S
C61 O44 1.307 . S
C62 O89 1.312 . S
C62 O90 1.208 . S
C63 O84 1.331 . S
C63 O87 1.244 . S
C64 O86 1.264 . S
C64 O88 1.273 . S
Mg65 O67 1.936 . S
Mg65 O74 2.081 . S
Mg65 O76 2.023 . S
Mg65 O80 2.031 . S
Mg65 O89 2.291 . S
Mg66 O67 1.963 . S
Mg66 O77 1.942 . S
Mg66 O78 1.955 . S
Mg66 O85 1.986 . S
O67 Mg65 1.936 . S
O67 Mg66 1.963 . S
O67 Mg68 1.915 . S
Mg68 O67 1.915 . S
Mg68 O69 1.915 . S
Mg68 O73 2.013 . S
Mg68 O79 2.114 . S
Mg68 O83 2.013 . S
Mg68 O89 2.114 . S
O69 Mg68 1.915 . S
O69 Mg70 1.936 . S
O69 Mg71 1.963 . S
Mg70 O69 1.936 . S
Mg70 O79 2.291 . S
Mg70 O84 2.081 . S
Mg70 O86 2.023 . S
Mg70 O90 2.031 . S
Mg71 O69 1.963 . S
Mg71 O75 1.986 . S
Mg71 O87 1.942 . S
Mg71 O88 1.955 . S
C72 O83 1.191 . S
C72 O85 1.307 . S
O73 Mg68 2.013 . S
O73 C92 1.191 . S
O74 Mg65 2.081 . S
O74 C82 1.331 . S
O75 Mg71 1.986 . S
O75 C92 1.307 . S
O76 Mg65 2.023 . S
O76 C91 1.264 . S
O77 Mg66 1.942 . S
O77 C82 1.244 . S
O78 Mg66 1.955 . S
O78 C91 1.273 . S
O79 Mg68 2.114 . S
O79 Mg70 2.291 . S
O79 C81 1.312 . S
O80 Mg65 2.031 . S
O80 C81 1.208 . S
C81 O79 1.312 . S
C81 O80 1.208 . S
C82 O74 1.331 . S
C82 O77 1.244 . S
O83 Mg68 2.013 . S
O83 C72 1.191 . S
O84 C63 1.331 . S
O84 Mg70 2.081 . S
O85 Mg66 1.986 . S
O85 C72 1.307 . S
O86 C64 1.264 . S
O86 Mg70 2.023 . S
O87 C63 1.244 . S
O87 Mg71 1.942 . S
O88 C64 1.273 . S
O88 Mg71 1.955 . S
O89 C62 1.312 . S
O89 Mg65 2.291 . S
O89 Mg68 2.114 . S
O90 C62 1.208 . S
O90 Mg70 2.031 . S
C91 O76 1.264 . S
C91 O78 1.273 . S
C92 O73 1.191 . S
C92 O75 1.307 . S
C93 O120 1.312 . S
C93 O121 1.208 1_554 S
C94 O115 1.331 . S
C94 O118 1.244 . S
C95 O117 1.264 . S
C95 O119 1.273 . S
Mg96 O98 1.936 . S
Mg96 O105 2.081 . S
Mg96 O107 2.023 . S
Mg96 O111 2.031 . S
Mg96 O120 2.291 . S
Mg97 O98 1.963 . S
Mg97 O108 1.942 . S
Mg97 O109 1.955 . S
Mg97 O116 1.986 1_554 S
O98 Mg96 1.936 . S
O98 Mg97 1.963 . S
O98 Mg99 1.915 1_554 S
Mg99 O98 1.915 1_556 S
Mg99 O100 1.915 . S
Mg99 O104 2.013 1_556 S
Mg99 O110 2.114 . S
Mg99 O114 2.013 . S
Mg99 O120 2.114 1_556 S
O100 Mg99 1.915 . S
O100 Mg101 1.936 . S
O100 Mg102 1.963 . S
Mg101 O100 1.936 . S
Mg101 O110 2.291 . S
Mg101 O115 2.081 . S
Mg101 O117 2.023 . S
Mg101 O121 2.031 . S
Mg102 O100 1.963 . S
Mg102 O106 1.986 . S
Mg102 O118 1.942 . S
Mg102 O119 1.955 . S
C103 O114 1.191 . S
C103 O116 1.307 . S
O104 Mg99 2.013 1_554 S
O104 C123 1.191 1_554 S
O105 Mg96 2.081 . S
O105 C113 1.331 . S
O106 Mg102 1.986 . S
O106 C123 1.307 . S
O107 Mg96 2.023 . S
O107 C122 1.264 . S
O108 Mg97 1.942 . S
O108 C113 1.244 . S
O109 Mg97 1.955 . S
O109 C122 1.273 . S
O110 Mg99 2.114 . S
O110 Mg101 2.291 . S
O110 C112 1.312 . S
O111 Mg96 2.031 . S
O111 C112 1.208 1_554 S
C112 O110 1.312 . S
C112 O111 1.208 1_556 S
C113 O105 1.331 . S
C113 O108 1.244 . S
O114 Mg99 2.013 . S
O114 C103 1.191 . S
O115 C94 1.331 . S
O115 Mg101 2.081 . S
O116 Mg97 1.986 1_556 S
O116 C103 1.307 . S
O117 C95 1.264 . S
O117 Mg101 2.023 . S
O118 C94 1.244 . S
O118 Mg102 1.942 . S
O119 C95 1.273 . S
O119 Mg102 1.955 . S
O120 C93 1.312 . S
O120 Mg96 2.291 . S
O120 Mg99 2.114 1_554 S
O121 C93 1.208 1_556 S
O121 Mg101 2.031 . S
C122 O107 1.264 . S
C122 O109 1.273 . S
C123 O104 1.191 1_556 S
C123 O106 1.307 . S
C124 O151 1.312 . S
C124 O152 1.208 . S
C125 O146 1.331 . S
C125 O149 1.244 . S
C126 O148 1.264 . S
C126 O150 1.273 . S
Mg127 O129 1.936 . S
Mg127 O136 2.081 . S
Mg127 O138 2.023 . S
Mg127 O142 2.031 . S
Mg127 O151 2.291 . S
Mg128 O129 1.963 . S
Mg128 O139 1.942 . S
Mg128 O140 1.955 . S
Mg128 O147 1.986 . S
O129 Mg127 1.936 . S
O129 Mg128 1.963 . S
O129 Mg130 1.915 . S
Mg130 O129 1.915 . S
Mg130 O131 1.915 . S
Mg130 O135 2.013 . S
Mg130 O141 2.114 . S
Mg130 O145 2.013 . S
Mg130 O151 2.114 . S
O131 Mg130 1.915 . S
O131 Mg132 1.936 . S
O131 Mg133 1.963 . S
Mg132 O131 1.936 . S
Mg132 O141 2.291 . S
Mg132 O146 2.081 . S
Mg132 O148 2.023 . S
Mg132 O152 2.031 . S
Mg133 O131 1.963 . S
Mg133 O137 1.986 . S
Mg133 O149 1.942 . S
Mg133 O150 1.955 . S
C134 O145 1.191 . S
C134 O147 1.307 . S
O135 Mg130 2.013 . S
O135 C154 1.191 . S
O136 Mg127 2.081 . S
O136 C144 1.331 . S
O137 Mg133 1.986 . S
O137 C154 1.307 . S
O138 Mg127 2.023 . S
O138 C153 1.264 . S
O139 Mg128 1.942 . S
O139 C144 1.244 . S
O140 Mg128 1.955 . S
O140 C153 1.273 . S
O141 Mg130 2.114 . S
O141 Mg132 2.291 . S
O141 C143 1.312 . S
O142 Mg127 2.031 . S
O142 C143 1.208 . S
C143 O141 1.312 . S
C143 O142 1.208 . S
C144 O136 1.331 . S
C144 O139 1.244 . S
O145 Mg130 2.013 . S
O145 C134 1.191 . S
O146 C125 1.331 . S
O146 Mg132 2.081 . S
O147 Mg128 1.986 . S
O147 C134 1.307 . S
O148 C126 1.264 . S
O148 Mg132 2.023 . S
O149 C125 1.244 . S
O149 Mg133 1.942 . S
O150 C126 1.273 . S
O150 Mg133 1.955 . S
O151 C124 1.312 . S
O151 Mg127 2.291 . S
O151 Mg130 2.114 . S
O152 C124 1.208 . S
O152 Mg132 2.031 . S
C153 O138 1.264 . S
C153 O140 1.273 . S
C154 O135 1.191 . S
C154 O137 1.307 . S
C155 O182 1.312 . S
C155 O183 1.208 1_556 S
C156 O177 1.331 . S
C156 O180 1.244 . S
C157 O179 1.264 . S
C157 O181 1.273 . S
Mg158 O160 1.936 . S
Mg158 O167 2.081 . S
Mg158 O169 2.023 . S
Mg158 O173 2.031 . S
Mg158 O182 2.291 . S
Mg159 O160 1.963 . S
Mg159 O170 1.942 . S
Mg159 O171 1.955 . S
Mg159 O178 1.986 1_556 S
O160 Mg158 1.936 . S
O160 Mg159 1.963 . S
O160 Mg161 1.915 1_556 S
Mg161 O160 1.915 1_554 S
Mg161 O162 1.915 . S
Mg161 O166 2.013 1_554 S
Mg161 O172 2.114 . S
Mg161 O176 2.013 . S
Mg161 O182 2.114 1_554 S
O162 Mg161 1.915 . S
O162 Mg163 1.936 . S
O162 Mg164 1.963 . S
Mg163 O162 1.936 . S
Mg163 O172 2.291 . S
Mg163 O177 2.081 . S
Mg163 O179 2.023 . S
Mg163 O183 2.031 . S
Mg164 O162 1.963 . S
Mg164 O168 1.986 . S
Mg164 O180 1.942 . S
Mg164 O181 1.955 . S
C165 O176 1.191 . S
C165 O178 1.307 . S
O166 Mg161 2.013 1_556 S
O166 C185 1.191 1_556 S
O167 Mg158 2.081 . S
O167 C175 1.331 . S
O168 Mg164 1.986 . S
O168 C185 1.307 . S
O169 Mg158 2.023 . S
O169 C184 1.264 . S
O170 Mg159 1.942 . S
O170 C175 1.244 . S
O171 Mg159 1.955 . S
O171 C184 1.273 . S
O172 Mg161 2.114 . S
O172 Mg163 2.291 . S
O172 C174 1.312 . S
O173 Mg158 2.031 . S
O173 C174 1.208 1_556 S
C174 O172 1.312 . S
C174 O173 1.208 1_554 S
C175 O167 1.331 . S
C175 O170 1.244 . S
O176 Mg161 2.013 . S
O176 C165 1.191 . S
O177 C156 1.331 . S
O177 Mg163 2.081 . S
O178 Mg159 1.986 1_554 S
O178 C165 1.307 . S
O179 C157 1.264 . S
O179 Mg163 2.023 . S
O180 C156 1.244 . S
O180 Mg164 1.942 . S
O181 C157 1.273 . S
O181 Mg164 1.955 . S
O182 C155 1.312 . S
O182 Mg158 2.291 . S
O182 Mg161 2.114 1_556 S
O183 C155 1.208 1_554 S
O183 Mg163 2.031 . S
C184 O169 1.264 . S
C184 O171 1.273 . S
C185 O166 1.191 1_554 S
C185 O168 1.307 . S
C186 O213 1.312 . S
C186 O214 1.208 . S
C187 O208 1.331 . S
C187 O211 1.244 . S
C188 O210 1.264 . S
C188 O212 1.273 . S
Mg189 O191 1.936 . S
Mg189 O198 2.081 . S
Mg189 O200 2.023 . S
Mg189 O204 2.031 . S
Mg189 O213 2.291 . S
Mg190 O191 1.963 . S
Mg190 O201 1.942 . S
Mg190 O202 1.955 . S
Mg190 O209 1.986 . S
O191 Mg189 1.936 . S
O191 Mg190 1.963 . S
O191 Mg192 1.915 . S
Mg192 O191 1.915 . S
Mg192 O193 1.915 . S
Mg192 O197 2.013 . S
Mg192 O203 2.114 . S
Mg192 O207 2.013 . S
Mg192 O213 2.114 . S
O193 Mg192 1.915 . S
O193 Mg194 1.936 . S
O193 Mg195 1.963 . S
Mg194 O193 1.936 . S
Mg194 O203 2.291 . S
Mg194 O208 2.081 . S
Mg194 O210 2.023 . S
Mg194 O214 2.031 . S
Mg195 O193 1.963 . S
Mg195 O199 1.986 . S
Mg195 O211 1.942 . S
Mg195 O212 1.955 . S
C196 O207 1.191 . S
C196 O209 1.307 . S
O197 Mg192 2.013 . S
O197 C216 1.191 . S
O198 Mg189 2.081 . S
O198 C206 1.331 . S
O199 Mg195 1.986 . S
O199 C216 1.307 . S
O200 Mg189 2.023 . S
O200 C215 1.264 . S
O201 Mg190 1.942 . S
O201 C206 1.244 . S
O202 Mg190 1.955 . S
O202 C215 1.273 . S
O203 Mg192 2.114 . S
O203 Mg194 2.291 . S
O203 C205 1.312 . S
O204 Mg189 2.031 . S
O204 C205 1.208 . S
C205 O203 1.312 . S
C205 O204 1.208 . S
C206 O198 1.331 . S
C206 O201 1.244 . S
O207 Mg192 2.013 . S
O207 C196 1.191 . S
O208 C187 1.331 . S
O208 Mg194 2.081 . S
O209 Mg190 1.986 . S
O209 C196 1.307 . S
O210 C188 1.264 . S
O210 Mg194 2.023 . S
O211 C187 1.244 . S
O211 Mg195 1.942 . S
O212 C188 1.273 . S
O212 Mg195 1.955 . S
O213 C186 1.312 . S
O213 Mg189 2.291 . S
O213 Mg192 2.114 . S
O214 C186 1.208 . S
O214 Mg194 2.031 . S
C215 O200 1.264 . S
C215 O202 1.273 . S
C216 O197 1.191 . S
C216 O199 1.307 . S
C217 O244 1.312 . S
C217 O245 1.208 1_554 S
C218 O239 1.331 . S
C218 O242 1.244 . S
C219 O241 1.264 . S
C219 O243 1.273 . S
Mg220 O222 1.936 . S
Mg220 O229 2.081 . S
Mg220 O231 2.023 . S
Mg220 O235 2.031 . S
Mg220 O244 2.291 . S
Mg221 O222 1.963 . S
Mg221 O232 1.942 . S
Mg221 O233 1.955 . S
Mg221 O240 1.986 1_554 S
O222 Mg220 1.936 . S
O222 Mg221 1.963 . S
O222 Mg223 1.915 1_554 S
Mg223 O222 1.915 1_556 S
Mg223 O224 1.915 . S
Mg223 O228 2.013 1_556 S
Mg223 O234 2.114 . S
Mg223 O238 2.013 . S
Mg223 O244 2.114 1_556 S
O224 Mg223 1.915 . S
O224 Mg225 1.936 . S
O224 Mg226 1.963 . S
Mg225 O224 1.936 . S
Mg225 O234 2.291 . S
Mg225 O239 2.081 . S
Mg225 O241 2.023 . S
Mg225 O245 2.031 . S
Mg226 O224 1.963 . S
Mg226 O230 1.986 . S
Mg226 O242 1.942 . S
Mg226 O243 1.955 . S
C227 O238 1.191 . S
C227 O240 1.307 . S
O228 Mg223 2.013 1_554 S
O228 C247 1.191 1_554 S
O229 Mg220 2.081 . S
O229 C237 1.331 . S
O230 Mg226 1.986 . S
O230 C247 1.307 . S
O231 Mg220 2.023 . S
O231 C246 1.264 . S
O232 Mg221 1.942 . S
O232 C237 1.244 . S
O233 Mg221 1.955 . S
O233 C246 1.273 . S
O234 Mg223 2.114 . S
O234 Mg225 2.291 . S
O234 C236 1.312 . S
O235 Mg220 2.031 . S
O235 C236 1.208 1_554 S
C236 O234 1.312 . S
C236 O235 1.208 1_556 S
C237 O229 1.331 . S
C237 O232 1.244 . S
O238 Mg223 2.013 . S
O238 C227 1.191 . S
O239 C218 1.331 . S
O239 Mg225 2.081 . S
O240 Mg221 1.986 1_556 S
O240 C227 1.307 . S
O241 C219 1.264 . S
O241 Mg225 2.023 . S
O242 C218 1.244 . S
O242 Mg226 1.942 . S
O243 C219 1.273 . S
O243 Mg226 1.955 . S
O244 C217 1.312 . S
O244 Mg220 2.291 . S
O244 Mg223 2.114 1_554 S
O245 C217 1.208 1_556 S
O245 Mg225 2.031 . S
C246 O231 1.264 . S
C246 O233 1.273 . S
C247 O228 1.191 1_556 S
C247 O230 1.307 . S
C248 C249 1.363 . S
C248 C254 1.379 . S
C248 N256 1.356 . S
C249 C248 1.363 . S
C249 C255 1.363 . S
C250 C251 1.363 . S
C250 C255 1.379 . S
C250 N257 1.356 . S
C251 C250 1.363 . S
C251 C254 1.363 . S
N252 C254 1.356 . S
N252 H264 0.984 . S
N252 H265 0.985 . S
N253 C255 1.356 . S
N253 H258 0.984 . S
N253 H259 0.985 . S
C254 C248 1.379 . S
C254 C251 1.363 . S
C254 N252 1.356 . S
C255 C249 1.363 . S
C255 C250 1.379 . S
C255 N253 1.356 . S
N256 C248 1.356 . S
N256 H262 0.984 . S
N256 H263 0.984 . S
N257 C250 1.356 . S
N257 H260 0.984 . S
N257 H261 0.985 . S
H258 N253 0.984 . S
H259 N253 0.985 . S
H260 N257 0.984 . S
H261 N257 0.985 . S
H262 N256 0.984 . S
H263 N256 0.984 . S
H264 N252 0.984 . S
H265 N252 0.985 . S
C266 C267 1.363 . S
C266 C272 1.379 . S
C266 N274 1.356 . S
C267 C266 1.363 . S
C267 C273 1.363 . S
C268 C269 1.363 . S
C268 C273 1.379 . S
C268 N275 1.356 . S
C269 C268 1.363 . S
C269 C272 1.363 . S
N270 C272 1.356 . S
N270 H282 0.984 . S
N270 H283 0.985 . S
N271 C273 1.356 . S
N271 H276 0.984 . S
N271 H277 0.985 . S
C272 C266 1.379 . S
C272 C269 1.363 . S
C272 N270 1.356 . S
C273 C267 1.363 . S
C273 C268 1.379 . S
C273 N271 1.356 . S
N274 C266 1.356 . S
N274 H280 0.984 . S
N274 H281 0.984 . S
N275 C268 1.356 . S
N275 H278 0.984 . S
N275 H279 0.985 . S
H276 N271 0.984 . S
H277 N271 0.985 . S
H278 N275 0.984 . S
H279 N275 0.985 . S
H280 N274 0.984 . S
H281 N274 0.984 . S
H282 N270 0.984 . S
H283 N270 0.985 . S
C284 C285 1.363 . S
C284 C290 1.379 . S
C284 N292 1.356 . S
C285 C284 1.363 . S
C285 C291 1.363 . S
C286 C287 1.363 . S
C286 C291 1.379 . S
C286 N293 1.356 . S
C287 C286 1.363 . S
C287 C290 1.363 . S
N288 C290 1.356 . S
N288 H300 0.984 . S
N288 H301 0.985 . S
N289 C291 1.356 . S
N289 H294 0.984 . S
N289 H295 0.985 . S
C290 C284 1.379 . S
C290 C287 1.363 . S
C290 N288 1.356 . S
C291 C285 1.363 . S
C291 C286 1.379 . S
C291 N289 1.356 . S
N292 C284 1.356 . S
N292 H298 0.984 . S
N292 H299 0.984 . S
N293 C286 1.356 . S
N293 H296 0.984 . S
N293 H297 0.985 . S
H294 N289 0.984 . S
H295 N289 0.985 . S
H296 N293 0.984 . S
H297 N293 0.985 . S
H298 N292 0.984 . S
H299 N292 0.984 . S
H300 N288 0.984 . S
H301 N288 0.985 . S
C302 C303 1.363 . S
C302 C308 1.379 . S
C302 N310 1.356 . S
C303 C302 1.363 . S
C303 C309 1.363 . S
C304 C305 1.363 . S
C304 C309 1.379 . S
C304 N311 1.356 . S
C305 C304 1.363 . S
C305 C308 1.363 . S
N306 C308 1.356 . S
N306 H318 0.984 . S
N306 H319 0.985 . S
N307 C309 1.356 . S
N307 H312 0.984 . S
N307 H313 0.985 . S
C308 C302 1.379 . S
C308 C305 1.363 . S
C308 N306 1.356 . S
C309 C303 1.363 . S
C309 C304 1.379 . S
C309 N307 1.356 . S
N310 C302 1.356 . S
N310 H316 0.984 . S
N310 H317 0.984 . S
N311 C304 1.356 . S
N311 H314 0.984 . S
N311 H315 0.985 . S
H312 N307 0.984 . S
H313 N307 0.985 . S
H314 N311 0.984 . S
H315 N311 0.985 . S
H316 N310 0.984 . S
H317 N310 0.984 . S
H318 N306 0.984 . S
H319 N306 0.985 . S
C320 C321 1.363 . S
C320 C326 1.379 1_545 S
C320 N328 1.356 . S
C321 C320 1.363 . S
C321 C327 1.363 . S
C322 C323 1.363 . S
C322 C327 1.379 1_565 S
C322 N329 1.356 . S
C323 C322 1.363 . S
C323 C326 1.363 . S
N324 C326 1.356 . S
N324 H336 0.984 . S
N324 H337 0.985 . S
N325 C327 1.356 . S
N325 H330 0.984 . S
N325 H331 0.985 . S
C326 C320 1.379 1_565 S
C326 C323 1.363 . S
C326 N324 1.356 . S
C327 C321 1.363 . S
C327 C322 1.379 1_545 S
C327 N325 1.356 . S
N328 C320 1.356 . S
N328 H334 0.984 . S
N328 H335 0.984 . S
N329 C322 1.356 . S
N329 H332 0.984 . S
N329 H333 0.985 . S
H330 N325 0.984 . S
H331 N325 0.985 . S
H332 N329 0.984 . S
H333 N329 0.985 . S
H334 N328 0.984 . S
H335 N328 0.984 . S
H336 N324 0.984 . S
H337 N324 0.985 . S
C338 C339 1.363 . S
C338 C344 1.379 1_545 S
C338 N346 1.356 . S
C339 C338 1.363 . S
C339 C345 1.363 . S
C340 C341 1.363 . S
C340 C345 1.379 1_565 S
C340 N347 1.356 . S
C341 C340 1.363 . S
C341 C344 1.363 . S
N342 C344 1.356 . S
N342 H354 1.004 . S
N342 H355 0.985 . S
N343 C345 1.356 . S
N343 H348 0.984 . S
N343 H349 0.973 1_545 S
C344 C338 1.379 1_565 S
C344 C341 1.363 . S
C344 N342 1.356 . S
C345 C339 1.363 . S
C345 C340 1.379 1_545 S
C345 N343 1.356 . S
N346 C338 1.356 . S
N346 H352 0.984 . S
N346 H353 0.984 . S
N347 C340 1.356 . S
N347 H350 0.984 . S
N347 H351 0.985 . S
H348 N343 0.984 . S
H349 N343 0.973 1_565 S
H350 N347 0.984 . S
H351 N347 0.985 . S
H352 N346 0.984 . S
H353 N346 0.984 . S
H354 N342 1.004 . S
H355 N342 0.985 . S
C356 C357 1.363 . S
C356 C362 1.379 1_565 S
C356 N364 1.356 . S
C357 C356 1.363 . S
C357 C363 1.363 . S
C358 C359 1.363 . S
C358 C363 1.379 1_545 S
C358 N365 1.356 . S
C359 C358 1.363 . S
C359 C362 1.363 . S
N360 C362 1.356 . S
N360 H372 0.984 . S
N360 H373 0.985 . S
N361 C363 1.356 . S
N361 H366 0.984 . S
N361 H367 0.985 . S
C362 C356 1.379 1_545 S
C362 C359 1.363 . S
C362 N360 1.356 . S
C363 C357 1.363 . S
C363 C358 1.379 1_565 S
C363 N361 1.356 . S
N364 C356 1.356 . S
N364 H370 0.984 . S
N364 H371 0.984 . S
N365 C358 1.356 . S
N365 H368 0.984 . S
N365 H369 0.985 . S
H366 N361 0.984 . S
H367 N361 0.985 . S
H368 N365 0.984 . S
H369 N365 0.985 . S
H370 N364 0.984 . S
H371 N364 0.984 . S
H372 N360 0.984 . S
H373 N360 0.985 . S
C374 C375 1.363 . S
C374 C380 1.379 1_565 S
C374 N382 1.356 . S
C375 C374 1.363 . S
C375 C381 1.363 . S
C376 C377 1.363 . S
C376 C381 1.379 1_545 S
C376 N383 1.356 . S
C377 C376 1.363 . S
C377 C380 1.363 . S
N378 C380 1.356 . S
N378 H390 0.984 . S
N378 H391 0.985 . S
N379 C381 1.356 . S
N379 H384 0.984 . S
N379 H385 0.985 . S
C380 C374 1.379 1_545 S
C380 C377 1.363 . S
C380 N378 1.356 . S
C381 C375 1.363 . S
C381 C376 1.379 1_565 S
C381 N379 1.356 . S
N382 C374 1.356 . S
N382 H388 0.984 . S
N382 H389 0.984 . S
N383 C376 1.356 . S
N383 H386 0.984 . S
N383 H387 0.985 . S
H384 N379 0.984 . S
H385 N379 0.985 . S
H386 N383 0.984 . S
H387 N383 0.985 . S
H388 N382 0.984 . S
H389 N382 0.984 . S
H390 N378 0.984 . S
H391 N378 0.985 . S
C392 C393 1.363 . S
C392 C398 1.379 1_655 S
C392 N400 1.356 . S
C393 C392 1.363 . S
C393 C399 1.363 . S
C394 C395 1.363 . S
C394 C399 1.379 1_455 S
C394 N401 1.356 . S
C395 C394 1.363 . S
C395 C398 1.363 . S
N396 C398 1.356 . S
N396 H408 0.984 . S
N396 H409 0.985 . S
N397 C399 1.356 . S
N397 H402 0.984 . S
N397 H403 0.985 . S
C398 C392 1.379 1_455 S
C398 C395 1.363 . S
C398 N396 1.356 . S
C399 C393 1.363 . S
C399 C394 1.379 1_655 S
C399 N397 1.356 . S
N400 C392 1.356 . S
N400 H406 0.984 . S
N400 H407 0.984 . S
N401 C394 1.356 . S
N401 H404 0.984 . S
N401 H405 0.985 . S
H402 N397 0.984 . S
H403 N397 0.985 . S
H404 N401 0.984 . S
H405 N401 0.985 . S
H406 N400 0.984 . S
H407 N400 0.984 . S
H408 N396 0.984 . S
H409 N396 0.985 . S
C410 C411 1.363 . S
C410 C416 1.379 1_455 S
C410 N418 1.356 . S
C411 C410 1.363 . S
C411 C417 1.363 . S
C412 C413 1.363 . S
C412 C417 1.379 1_655 S
C412 N419 1.356 . S
C413 C412 1.363 . S
C413 C416 1.363 . S
N414 C416 1.356 . S
N414 H426 0.984 . S
N414 H427 0.985 . S
N415 C417 1.356 . S
N415 H420 0.984 . S
N415 H421 0.985 . S
C416 C410 1.379 1_655 S
C416 C413 1.363 . S
C416 N414 1.356 . S
C417 C411 1.363 . S
C417 C412 1.379 1_455 S
C417 N415 1.356 . S
N418 C410 1.356 . S
N418 H424 0.984 . S
N418 H425 0.984 . S
N419 C412 1.356 . S
N419 H422 0.984 . S
N419 H423 0.985 . S
H420 N415 0.984 . S
H421 N415 0.985 . S
H422 N419 0.984 . S
H423 N419 0.985 . S
H424 N418 0.984 . S
H425 N418 0.984 . S
H426 N414 0.984 . S
H427 N414 0.985 . S
C428 C429 1.363 . S
C428 C434 1.379 . S
C428 N436 1.356 . S
C429 C428 1.363 . S
C429 C435 1.363 . S
C430 C431 1.363 . S
C430 C435 1.379 . S
C430 N437 1.356 . S
C431 C430 1.363 . S
C431 C434 1.363 . S
N432 C434 1.356 . S
N432 H444 0.984 . S
N432 H445 0.985 . S
N433 C435 1.356 . S
N433 H438 0.984 . S
N433 H439 0.985 . S
C434 C428 1.379 . S
C434 C431 1.363 . S
C434 N432 1.356 . S
C435 C429 1.363 . S
C435 C430 1.379 . S
C435 N433 1.356 . S
N436 C428 1.356 . S
N436 H442 0.984 . S
N436 H443 0.984 . S
N437 C430 1.356 . S
N437 H440 0.984 . S
N437 H441 0.985 . S
H438 N433 0.984 . S
H439 N433 0.985 . S
H440 N437 0.984 . S
H441 N437 0.985 . S
H442 N436 0.984 . S
H443 N436 0.984 . S
H444 N432 0.984 . S
H445 N432 0.985 . S
C446 C447 1.363 . S
C446 C452 1.379 . S
C446 N454 1.356 . S
C447 C446 1.363 . S
C447 C453 1.363 . S
C448 C449 1.363 . S
C448 C453 1.379 . S
C448 N455 1.356 . S
C449 C448 1.363 . S
C449 C452 1.363 . S
N450 C452 1.356 . S
N450 H462 0.984 . S
N450 H463 0.985 . S
N451 C453 1.356 . S
N451 H456 0.984 . S
N451 H457 0.985 . S
C452 C446 1.379 . S
C452 C449 1.363 . S
C452 N450 1.356 . S
C453 C447 1.363 . S
C453 C448 1.379 . S
C453 N451 1.356 . S
N454 C446 1.356 . S
N454 H460 0.984 . S
N454 H461 0.984 . S
N455 C448 1.356 . S
N455 H458 0.984 . S
N455 H459 0.985 . S
H456 N451 0.984 . S
H457 N451 0.985 . S
H458 N455 0.984 . S
H459 N455 0.985 . S
H460 N454 0.984 . S
H461 N454 0.984 . S
H462 N450 0.984 . S
H463 N450 0.985 . S
C464 C465 1.363 . S
C464 C470 1.379 . S
C464 N472 1.356 . S
C465 C464 1.363 . S
C465 C471 1.363 . S
C466 C467 1.363 . S
C466 C471 1.379 . S
C466 N473 1.356 . S
C467 C466 1.363 . S
C467 C470 1.363 . S
N468 C470 1.356 . S
N468 H480 0.984 . S
N468 H481 0.985 . S
N469 C471 1.356 . S
N469 H474 0.984 . S
N469 H475 0.985 . S
C470 C464 1.379 . S
C470 C467 1.363 . S
C470 N468 1.356 . S
C471 C465 1.363 . S
C471 C466 1.379 . S
C471 N469 1.356 . S
N472 C464 1.356 . S
N472 H478 0.984 . S
N472 H479 0.984 . S
N473 C466 1.356 . S
N473 H476 0.984 . S
N473 H477 0.985 . S
H474 N469 0.984 . S
H475 N469 0.985 . S
H476 N473 0.984 . S
H477 N473 0.985 . S
H478 N472 0.984 . S
H479 N472 0.984 . S
H480 N468 0.984 . S
H481 N468 0.985 . S
C482 C483 1.363 . S
C482 C488 1.379 . S
C482 N490 1.356 . S
C483 C482 1.363 . S
C483 C489 1.363 . S
C484 C485 1.363 . S
C484 C489 1.379 . S
C484 N491 1.356 . S
C485 C484 1.363 . S
C485 C488 1.363 . S
N486 C488 1.356 . S
N486 H498 0.984 . S
N486 H499 0.985 . S
N487 C489 1.356 . S
N487 H492 0.984 . S
N487 H493 0.985 . S
C488 C482 1.379 . S
C488 C485 1.363 . S
C488 N486 1.356 . S
C489 C483 1.363 . S
C489 C484 1.379 . S
C489 N487 1.356 . S
N490 C482 1.356 . S
N490 H496 0.984 . S
N490 H497 0.984 . S
N491 C484 1.356 . S
N491 H494 0.984 . S
N491 H495 0.985 . S
H492 N487 0.984 . S
H493 N487 0.985 . S
H494 N491 0.984 . S
H495 N491 0.985 . S
H496 N490 0.984 . S
H497 N490 0.984 . S
H498 N486 0.984 . S
H499 N486 0.985 . S
C500 C501 1.363 . S
C500 C506 1.379 1_655 S
C500 N508 1.356 . S
C501 C500 1.363 . S
C501 C507 1.363 . S
C502 C503 1.363 . S
C502 C507 1.379 1_455 S
C502 N509 1.356 . S
C503 C502 1.363 . S
C503 C506 1.363 . S
N504 C506 1.356 . S
N504 H516 0.984 . S
N504 H517 0.985 . S
N505 C507 1.356 . S
N505 H510 0.984 . S
N505 H511 0.985 . S
C506 C500 1.379 1_455 S
C506 C503 1.363 . S
C506 N504 1.356 . S
C507 C501 1.363 . S
C507 C502 1.379 1_655 S
C507 N505 1.356 . S
N508 C500 1.356 . S
N508 H514 0.984 . S
N508 H515 0.984 . S
N509 C502 1.356 . S
N509 H512 0.984 . S
N509 H513 0.985 . S
H510 N505 0.984 . S
H511 N505 0.985 . S
H512 N509 0.984 . S
H513 N509 0.985 . S
H514 N508 0.984 . S
H515 N508 0.984 . S
H516 N504 0.984 . S
H517 N504 0.985 . S
C518 C519 1.363 . S
C518 C524 1.379 1_455 S
C518 N526 1.356 . S
C519 C518 1.363 . S
C519 C525 1.363 . S
C520 C521 1.363 . S
C520 C525 1.379 1_655 S
C520 N527 1.356 . S
C521 C520 1.363 . S
C521 C524 1.363 . S
N522 C524 1.356 . S
N522 H534 0.984 . S
N522 H535 0.985 . S
N523 C525 1.356 . S
N523 H528 0.984 . S
N523 H529 0.985 . S
C524 C518 1.379 1_655 S
C524 C521 1.363 . S
C524 N522 1.356 . S
C525 C519 1.363 . S
C525 C520 1.379 1_455 S
C525 N523 1.356 . S
N526 C518 1.356 . S
N526 H532 0.984 . S
N526 H533 0.984 . S
N527 C520 1.356 . S
N527 H530 0.984 . S
N527 H531 0.985 . S
H528 N523 0.984 . S
H529 N523 0.985 . S
H530 N527 0.984 . S
H531 N527 0.985 . S
H532 N526 0.984 . S
H533 N526 0.984 . S
H534 N522 0.984 . S
H535 N522 0.985 . S
C536 C537 1.363 . S
C536 C542 1.379 . S
C536 N544 1.356 . S
C537 C536 1.363 . S
C537 C543 1.363 . S
C538 C539 1.363 . S
C538 C543 1.379 . S
C538 N545 1.356 . S
C539 C538 1.363 . S
C539 C542 1.363 . S
N540 C542 1.356 . S
N540 H552 0.984 . S
N540 H553 0.985 . S
N541 C543 1.356 . S
N541 H546 0.984 . S
N541 H547 0.985 . S
C542 C536 1.379 . S
C542 C539 1.363 . S
C542 N540 1.356 . S
C543 C537 1.363 . S
C543 C538 1.379 . S
C543 N541 1.356 . S
N544 C536 1.356 . S
N544 H550 0.984 . S
N544 H551 0.984 . S
N545 C538 1.356 . S
N545 H548 0.984 . S
N545 H549 0.985 . S
H546 N541 0.984 . S
H547 N541 0.985 . S
H548 N545 0.984 . S
H549 N545 0.985 . S
H550 N544 0.984 . S
H551 N544 0.984 . S
H552 N540 0.984 . S
H553 N540 0.985 . S
C554 C555 1.363 . S
C554 C560 1.379 . S
C554 N562 1.356 . S
C555 C554 1.363 . S
C555 C561 1.363 . S
C556 C557 1.363 . S
C556 C561 1.379 . S
C556 N563 1.356 . S
C557 C556 1.363 . S
C557 C560 1.363 . S
N558 C560 1.356 . S
N558 H570 0.984 . S
N558 H571 0.985 . S
N559 C561 1.356 . S
N559 H564 0.984 . S
N559 H565 0.985 . S
C560 C554 1.379 . S
C560 C557 1.363 . S
C560 N558 1.356 . S
C561 C555 1.363 . S
C561 C556 1.379 . S
C561 N559 1.356 . S
N562 C554 1.356 . S
N562 H568 0.984 . S
N562 H569 0.984 . S
N563 C556 1.356 . S
N563 H566 0.984 . S
N563 H567 0.985 . S
H564 N559 0.984 . S
H565 N559 0.985 . S
H566 N563 0.984 . S
H567 N563 0.985 . S
H568 N562 0.984 . S
H569 N562 0.984 . S
H570 N558 0.984 . S
H571 N558 0.985 . S
C572 C573 1.363 . S
C572 C578 1.379 1_655 S
C572 N580 1.356 . S
C573 C572 1.363 . S
C573 C579 1.363 . S
C574 C575 1.363 . S
C574 C579 1.379 1_455 S
C574 N581 1.356 . S
C575 C574 1.363 . S
C575 C578 1.363 . S
N576 C578 1.356 . S
N576 H588 0.984 . S
N576 H589 0.985 . S
N577 C579 1.356 . S
N577 H582 0.984 . S
N577 H583 0.985 . S
C578 C572 1.379 1_455 S
C578 C575 1.363 . S
C578 N576 1.356 . S
C579 C573 1.363 . S
C579 C574 1.379 1_655 S
C579 N577 1.356 . S
N580 C572 1.356 . S
N580 H586 0.984 . S
N580 H587 0.984 . S
N581 C574 1.356 . S
N581 H584 0.984 . S
N581 H585 0.985 . S
H582 N577 0.984 . S
H583 N577 0.985 . S
H584 N581 0.984 . S
H585 N581 0.985 . S
H586 N580 0.984 . S
H587 N580 0.984 . S
H588 N576 0.984 . S
H589 N576 0.985 . S
C590 C591 1.363 . S
C590 C596 1.379 1_455 S
C590 N598 1.356 . S
C591 C590 1.363 . S
C591 C597 1.363 . S
C592 C593 1.363 . S
C592 C597 1.379 1_655 S
C592 N599 1.356 . S
C593 C592 1.363 . S
C593 C596 1.363 . S
N594 C596 1.356 . S
N594 H606 0.984 . S
N594 H607 0.985 . S
N595 C597 1.356 . S
N595 H600 0.984 . S
N595 H601 0.985 . S
C596 C590 1.379 1_655 S
C596 C593 1.363 . S
C596 N594 1.356 . S
C597 C591 1.363 . S
C597 C592 1.379 1_455 S
C597 N595 1.356 . S
N598 C590 1.356 . S
N598 H604 0.984 . S
N598 H605 0.984 . S
N599 C592 1.356 . S
N599 H602 0.984 . S
N599 H603 0.985 . S
H600 N595 0.984 . S
H601 N595 0.985 . S
H602 N599 0.984 . S
H603 N599 0.985 . S
H604 N598 0.984 . S
H605 N598 0.984 . S
H606 N594 0.984 . S
H607 N594 0.985 . S
C608 C609 1.363 . S
C608 C614 1.379 1_554 S
C608 N616 1.356 . S
C609 C608 1.363 . S
C609 C615 1.363 1_554 S
C610 C611 1.363 . S
C610 C615 1.379 . S
C610 N617 1.356 . S
C611 C610 1.363 . S
C611 C614 1.363 . S
N612 C614 1.356 . S
N612 H624 0.984 . S
N612 H625 0.985 . S
N613 C615 1.356 . S
N613 H618 0.984 1_556 S
N613 H619 0.985 . S
C614 C608 1.379 1_556 S
C614 C611 1.363 . S
C614 N612 1.356 . S
C615 C609 1.363 1_556 S
C615 C610 1.379 . S
C615 N613 1.356 . S
N616 C608 1.356 . S
N616 H622 0.984 . S
N616 H623 0.984 . S
N617 C610 1.356 . S
N617 H620 0.984 . S
N617 H621 0.985 . S
H618 N613 0.984 1_554 S
H619 N613 0.985 . S
H620 N617 0.984 . S
H621 N617 0.985 . S
H622 N616 0.984 . S
H623 N616 0.984 . S
H624 N612 0.984 . S
H625 N612 0.985 . S
C626 C627 1.363 . S
C626 C632 1.379 . S
C626 N634 1.356 . S
C627 C626 1.363 . S
C627 C633 1.363 . S
C628 C629 1.363 . S
C628 C633 1.379 . S
C628 N635 1.356 . S
C629 C628 1.363 . S
C629 C632 1.363 . S
N630 C632 1.356 . S
N630 H642 0.984 . S
N630 H643 0.985 . S
N631 C633 1.356 . S
N631 H636 0.984 . S
N631 H637 0.985 . S
C632 C626 1.379 . S
C632 C629 1.363 . S
C632 N630 1.356 . S
C633 C627 1.363 . S
C633 C628 1.379 . S
C633 N631 1.356 . S
N634 C626 1.356 . S
N634 H640 0.984 . S
N634 H641 0.984 . S
N635 C628 1.356 . S
N635 H638 0.984 . S
N635 H639 0.985 . S
H636 N631 0.984 . S
H637 N631 0.985 . S
H638 N635 0.984 . S
H639 N635 0.985 . S
H640 N634 0.984 . S
H641 N634 0.984 . S
H642 N630 0.984 . S
H643 N630 0.985 . S
C644 C645 1.363 . S
C644 C650 1.379 1_556 S
C644 N652 1.356 . S
C645 C644 1.363 . S
C645 C651 1.363 1_556 S
C646 C647 1.363 . S
C646 C651 1.379 . S
C646 N653 1.356 . S
C647 C646 1.363 . S
C647 C650 1.363 . S
N648 C650 1.356 . S
N648 H660 0.984 . S
N648 H661 0.985 . S
N649 C651 1.356 1_556 S
N649 H654 0.984 . S
N649 H655 0.985 1_556 S
C650 C644 1.379 1_554 S
C650 C647 1.363 . S
C650 N648 1.356 . S
C651 C645 1.363 1_554 S
C651 C646 1.379 . S
C651 N649 1.356 1_554 S
N652 C644 1.356 . S
N652 H658 0.984 . S
N652 H659 0.984 . S
N653 C646 1.356 . S
N653 H656 0.984 . S
N653 H657 0.985 . S
H654 N649 0.984 . S
H655 N649 0.985 1_554 S
H656 N653 0.984 . S
H657 N653 0.985 . S
H658 N652 0.984 . S
H659 N652 0.984 . S
H660 N648 0.984 . S
H661 N648 0.985 . S
C662 C663 1.363 . S
C662 C668 1.379 . S
C662 N670 1.356 . S
C663 C662 1.363 . S
C663 C669 1.363 . S
C664 C665 1.363 . S
C664 C669 1.379 . S
C664 N671 1.356 . S
C665 C664 1.363 . S
C665 C668 1.363 . S
N666 C668 1.356 . S
N666 H678 0.984 . S
N666 H679 0.985 . S
N667 C669 1.356 . S
N667 H672 0.984 . S
N667 H673 0.985 . S
C668 C662 1.379 . S
C668 C665 1.363 . S
C668 N666 1.356 . S
C669 C663 1.363 . S
C669 C664 1.379 . S
C669 N667 1.356 . S
N670 C662 1.356 . S
N670 H676 0.984 . S
N670 H677 0.984 . S
N671 C664 1.356 . S
N671 H674 0.984 . S
N671 H675 0.985 . S
H672 N667 0.984 . S
H673 N667 0.985 . S
H674 N671 0.984 . S
H675 N671 0.985 . S
H676 N670 0.984 . S
H677 N670 0.984 . S
H678 N666 0.984 . S
H679 N666 0.985 . S
C680 C681 1.363 1_556 S
C680 C686 1.379 . S
C680 N688 1.356 . S
C681 C680 1.363 1_554 S
C681 C687 1.363 . S
C682 C683 1.363 . S
C682 C687 1.379 1_556 S
C682 N689 1.356 . S
C683 C682 1.363 . S
C683 C686 1.363 . S
N684 C686 1.356 . S
N684 H696 0.984 . S
N684 H697 0.985 . S
N685 C687 1.356 . S
N685 H690 0.984 . S
N685 H691 0.985 . S
C686 C680 1.379 . S
C686 C683 1.363 . S
C686 N684 1.356 . S
C687 C681 1.363 . S
C687 C682 1.379 1_554 S
C687 N685 1.356 . S
N688 C680 1.356 . S
N688 H694 0.984 . S
N688 H695 0.984 1_556 S
N689 C682 1.356 . S
N689 H692 0.984 . S
N689 H693 0.985 . S
H690 N685 0.984 . S
H691 N685 0.985 . S
H692 N689 0.984 . S
H693 N689 0.985 . S
H694 N688 0.984 . S
H695 N688 0.984 1_554 S
H696 N684 0.984 . S
H697 N684 0.985 . S
C698 C699 1.363 . S
C698 C704 1.379 . S
C698 N706 1.356 . S
C699 C698 1.363 . S
C699 C705 1.363 . S
C700 C701 1.363 . S
C700 C705 1.379 . S
C700 N707 1.356 . S
C701 C700 1.363 . S
C701 C704 1.363 . S
N702 C704 1.356 . S
N702 H714 0.984 . S
N702 H715 0.985 . S
N703 C705 1.356 . S
N703 H708 0.984 . S
N703 H709 0.985 . S
C704 C698 1.379 . S
C704 C701 1.363 . S
C704 N702 1.356 . S
C705 C699 1.363 . S
C705 C700 1.379 . S
C705 N703 1.356 . S
N706 C698 1.356 . S
N706 H712 0.984 . S
N706 H713 0.984 . S
N707 C700 1.356 . S
N707 H710 0.984 . S
N707 H711 0.985 . S
H708 N703 0.984 . S
H709 N703 0.985 . S
H710 N707 0.984 . S
H711 N707 0.985 . S
H712 N706 0.984 . S
H713 N706 0.984 . S
H714 N702 0.984 . S
H715 N702 0.985 . S
C716 C717 1.363 . S
C716 C722 1.379 1_556 S
C716 N724 1.356 . S
C717 C716 1.363 . S
C717 C723 1.363 1_556 S
C718 C719 1.363 . S
C718 C723 1.379 . S
C718 N725 1.356 . S
C719 C718 1.363 . S
C719 C722 1.363 . S
N720 C722 1.356 . S
N720 H732 0.984 . S
N720 H733 0.985 . S
N721 C723 1.356 1_556 S
N721 H726 0.984 . S
N721 H727 0.985 1_556 S
C722 C716 1.379 1_554 S
C722 C719 1.363 . S
C722 N720 1.356 . S
C723 C717 1.363 1_554 S
C723 C718 1.379 . S
C723 N721 1.356 1_554 S
N724 C716 1.356 . S
N724 H730 0.984 . S
N724 H731 0.984 . S
N725 C718 1.356 . S
N725 H728 0.984 . S
N725 H729 0.985 . S
H726 N721 0.984 . S
H727 N721 0.985 1_554 S
H728 N725 0.984 . S
H729 N725 0.985 . S
H730 N724 0.984 . S
H731 N724 0.984 . S
H732 N720 0.984 . S
H733 N720 0.985 . S
C734 C735 1.363 . S
C734 C740 1.379 . S
C734 N742 1.356 . S
C735 C734 1.363 . S
C735 C741 1.363 . S
C736 C737 1.363 . S
C736 C741 1.379 . S
C736 N743 1.356 . S
C737 C736 1.363 . S
C737 C740 1.363 . S
N738 C740 1.356 . S
N738 H750 0.984 . S
N738 H751 0.985 . S
N739 C741 1.356 . S
N739 H744 0.984 . S
N739 H745 0.985 . S
C740 C734 1.379 . S
C740 C737 1.363 . S
C740 N738 1.356 . S
C741 C735 1.363 . S
C741 C736 1.379 . S
C741 N739 1.356 . S
N742 C734 1.356 . S
N742 H748 0.984 . S
N742 H749 0.984 . S
N743 C736 1.356 . S
N743 H746 0.984 . S
N743 H747 0.985 . S
H744 N739 0.984 . S
H745 N739 0.985 . S
H746 N743 0.984 . S
H747 N743 0.985 . S
H748 N742 0.984 . S
H749 N742 0.984 . S
H750 N738 0.984 . S
H751 N738 0.985 . S
C752 C753 1.363 . S
C752 C758 1.379 . S
C752 N760 1.356 . S
C753 C752 1.363 . S
C753 C759 1.363 . S
C754 C755 1.363 . S
C754 C759 1.379 . S
C754 N761 1.356 . S
C755 C754 1.363 . S
C755 C758 1.363 . S
N756 C758 1.356 . S
N756 H768 0.984 . S
N756 H769 0.985 . S
N757 C759 1.356 . S
N757 H762 0.984 . S
N757 H763 0.985 . S
C758 C752 1.379 . S
C758 C755 1.363 . S
C758 N756 1.356 . S
C759 C753 1.363 . S
C759 C754 1.379 . S
C759 N757 1.356 . S
N760 C752 1.356 . S
N760 H766 0.984 . S
N760 H767 0.984 . S
N761 C754 1.356 . S
N761 H764 0.984 . S
N761 H765 0.985 . S
H762 N757 0.984 . S
H763 N757 0.985 . S
H764 N761 0.984 . S
H765 N761 0.985 . S
H766 N760 0.984 . S
H767 N760 0.984 . S
H768 N756 0.984 . S
H769 N756 0.985 . S
C770 C771 1.363 . S
C770 C776 1.379 . S
C770 N778 1.356 . S
C771 C770 1.363 . S
C771 C777 1.363 1_556 S
C772 C773 1.363 . S
C772 C777 1.379 . S
C772 N779 1.356 . S
C773 C772 1.363 . S
C773 C776 1.363 1_554 S
N774 C776 1.356 . S
N774 H786 0.984 . S
N774 H787 0.985 . S
N775 C777 1.356 . S
N775 H780 0.984 . S
N775 H781 0.985 . S
C776 C770 1.379 . S
C776 C773 1.363 1_556 S
C776 N774 1.356 . S
C777 C771 1.363 1_554 S
C777 C772 1.379 . S
C777 N775 1.356 . S
N778 C770 1.356 . S
N778 H784 0.984 . S
N778 H785 0.984 . S
N779 C772 1.356 . S
N779 H782 0.984 . S
N779 H783 0.985 . S
H780 N775 0.984 . S
H781 N775 0.985 . S
H782 N779 0.984 . S
H783 N779 0.985 . S
H784 N778 0.984 . S
H785 N778 0.984 . S
H786 N774 0.984 . S
H787 N774 0.985 . S
C788 C789 1.363 . S
C788 C794 1.379 . S
C788 N796 1.356 . S
C789 C788 1.363 . S
C789 C795 1.363 . S
C790 C791 1.363 . S
C790 C795 1.379 . S
C790 N797 1.356 . S
C791 C790 1.363 . S
C791 C794 1.363 . S
N792 C794 1.356 . S
N792 H804 0.984 . S
N792 H805 0.985 . S
N793 C795 1.356 . S
N793 H798 0.984 . S
N793 H799 0.985 . S
C794 C788 1.379 . S
C794 C791 1.363 . S
C794 N792 1.356 . S
C795 C789 1.363 . S
C795 C790 1.379 . S
C795 N793 1.356 . S
N796 C788 1.356 . S
N796 H802 0.984 . S
N796 H803 0.984 . S
N797 C790 1.356 . S
N797 H800 0.984 . S
N797 H801 0.985 . S
H798 N793 0.984 . S
H799 N793 0.985 . S
H800 N797 0.984 . S
H801 N797 0.985 . S
H802 N796 0.984 . S
H803 N796 0.984 . S
H804 N792 0.984 . S
H805 N792 0.985 . S
C806 C807 1.363 1_554 S
C806 C812 1.379 . S
C806 N814 1.356 . S
C807 C806 1.363 1_556 S
C807 C813 1.363 . S
C808 C809 1.363 1_556 S
C808 C813 1.379 . S
C808 N815 1.356 . S
C809 C808 1.363 1_554 S
C809 C812 1.363 . S
N810 C812 1.356 . S
N810 H822 0.984 . S
N810 H823 0.985 . S
N811 C813 1.356 . S
N811 H816 0.984 . S
N811 H817 0.985 . S
C812 C806 1.379 . S
C812 C809 1.363 . S
C812 N810 1.356 . S
C813 C807 1.363 . S
C813 C808 1.379 . S
C813 N811 1.356 . S
N814 C806 1.356 . S
N814 H820 0.984 . S
N814 H821 0.984 . S
N815 C808 1.356 . S
N815 H818 0.984 . S
N815 H819 0.985 . S
H816 N811 0.984 . S
H817 N811 0.985 . S
H818 N815 0.984 . S
H819 N815 0.985 . S
H820 N814 0.984 . S
H821 N814 0.984 . S
H822 N810 0.984 . S
H823 N810 0.985 . S
C249 C113 1.871 . S
C251 C19 2.193 . S
C267 C82 1.871 . S
C269 C50 2.193 . S
C285 C51 1.871 . S
C287 C81 2.193 . S
C303 C112 2.193 . S
C305 C20 1.871 . S
C321 C237 1.871 . S
C323 C143 2.193 . S
C339 C187 1.871 . S
C341 C174 2.193 . S
C357 C175 1.871 . S
C359 C186 2.193 . S
C375 C144 1.871 . S
C377 C236 2.193 . S
C393 C41 1.004 . S
C395 C10 1.004 . S
C411 C103 1.004 . S
C413 C72 1.004 . S
C429 C134 1.004 . S
C431 C165 1.004 . S
C447 C227 1.004 . S
C449 C216 1.004 . S
C465 C32 1.890 . S
C467 C1 1.890 . S
C483 C63 1.890 . S
C485 C94 1.890 . S
C501 C125 1.890 . S
C503 C156 1.890 . S
C519 C206 1.890 . S
C521 C218 1.890 . S
C537 C0 1.764 . S
C539 C31 1.764 . S
C555 C62 1.764 . S
C557 C93 1.764 . S
C573 C124 1.764 . S
C575 C155 1.764 . S
C591 C205 1.764 . S
C593 C217 1.764 . S
C609 C2 1.254 . S
C611 C29 1.258 . S
C627 C33 1.254 . S
C629 C60 1.258 . S
C645 C64 1.254 . S
C647 C91 1.258 . S
C663 C122 1.258 . S
C665 C95 1.254 . S
C681 C126 1.254 . S
C683 C153 1.258 . S
C699 C184 1.258 . S
C701 C157 1.254 . S
C717 C215 1.254 . S
C719 C188 1.258 . S
C735 C246 1.258 . S
C737 C219 1.254 . S
C753 C196 1.283 . S
C755 C30 1.283 . S
C771 C61 1.283 1_556 S
C773 C247 1.283 1_554 S
C789 C92 1.283 . S
C791 C154 1.283 . S
C807 C185 1.283 1_556 S
C809 C123 1.283 1_554 S
