# Generated by pormake.
# Topology uoc, (4)-cn, num edge types: 1
# Building blocks:
#     Node 0, Type 0, BuildingBlock: QUQFOY_clean_sbu_3, # of connection points: 4
#     Node 1, Type 0, BuildingBlock: QUQFOY_clean_sbu_3, # of connection points: 4
#     Node 2, Type 0, BuildingBlock: QUQFOY_clean_sbu_3, # of connection points: 4
#     Node 3, Type 0, BuildingBlock: QUQFOY_clean_sbu_3, # of connection points: 4
#     Node 4, Type 0, BuildingBlock: QUQFOY_clean_sbu_3, # of connection points: 4
#     Node 5, Type 0, BuildingBlock: QUQFOY_clean_sbu_3, # of connection points: 4
#     Node 6, Type 0, BuildingBlock: QUQFOY_clean_sbu_3, # of connection points: 4
#     Node 7, Type 0, BuildingBlock: QUQFOY_clean_sbu_3, # of connection points: 4
#     Edge 8, Type (0, 0), BuildingBlock: KIFKEQ_clean_linker_1, # of connection points: 2
#     Edge 9, Type (0, 0), BuildingBlock: KIFKEQ_clean_linker_1, # of connection points: 2
#     Edge 10, Type (0, 0), BuildingBlock: KIFKEQ_clean_linker_1, # of connection points: 2
#     Edge 11, Type (0, 0), BuildingBlock: KIFKEQ_clean_linker_1, # of connection points: 2
#     Edge 12, Type (0, 0), BuildingBlock: KIFKEQ_clean_linker_1, # of connection points: 2
#     Edge 13, Type (0, 0), BuildingBlock: KIFKEQ_clean_linker_1, # of connection points: 2
#     Edge 14, Type (0, 0), BuildingBlock: KIFKEQ_clean_linker_1, # of connection points: 2
#     Edge 15, Type (0, 0), BuildingBlock: KIFKEQ_clean_linker_1, # of connection points: 2
#     Edge 16, Type (0, 0), BuildingBlock: KIFKEQ_clean_linker_1, # of connection points: 2
#     Edge 17, Type (0, 0), BuildingBlock: KIFKEQ_clean_linker_1, # of connection points: 2
#     Edge 18, Type (0, 0), BuildingBlock: KIFKEQ_clean_linker_1, # of connection points: 2
#     Edge 19, Type (0, 0), BuildingBlock: KIFKEQ_clean_linker_1, # of connection points: 2
#     Edge 20, Type (0, 0), BuildingBlock: KIFKEQ_clean_linker_1, # of connection points: 2
#     Edge 21, Type (0, 0), BuildingBlock: KIFKEQ_clean_linker_1, # of connection points: 2
#     Edge 22, Type (0, 0), BuildingBlock: KIFKEQ_clean_linker_1, # of connection points: 2
#     Edge 23, Type (0, 0), BuildingBlock: KIFKEQ_clean_linker_1, # of connection points: 2
# Relax obj value: 0.101
# Max RMSD: 0.113
# Mean RMSD: 0.113
data_MOF--net-uoc--node1-QUQFOY_clean_sbu_3--edge1-KIFKEQ_clean_linker_1
_symmetry_space_group_name_H-M    P1
_symmetry_Int_Tables_number       1
_symmetry_cell_setting            triclinic
loop_
_symmetry_equiv_pos_as_xyz
'x, y, z'
_cell_length_a     27.692859
_cell_length_b     27.681466
_cell_length_c     58.644245
_cell_angle_alpha  90.237179
_cell_angle_beta   90.068222
_cell_angle_gamma 97.131575
loop_
_atom_site_label
_atom_site_type_symbol
_atom_site_fract_x
_atom_site_fract_y
_atom_site_fract_z
_atom_type_partial_charge
C0 C 0.22355 0.26983 0.06016 0.0
O1 O 0.24738 0.24415 0.0728 0.0
Cd2 Cd 0.21477 0.21382 0.10863 0.0
O3 O 0.18329 0.28239 0.06692 0.0
Cd4 Cd 0.13108 0.27645 0.10087 0.0
C5 C 0.10246 0.15626 0.09267 0.0
O6 O 0.19355 0.2815 0.13061 0.0
O7 O 0.11963 0.25761 0.14103 0.0
O8 O 0.12501 0.36245 0.0952 0.0
C9 C 0.16351 0.27072 0.14666 0.0
O10 O 0.1449 0.15257 0.10035 0.0
C11 C 0.07894 0.35834 0.09633 0.0
O12 O 0.08859 0.1979 0.08966 0.0
O13 O 0.0569 0.31583 0.09943 0.0
C14 C 0.77492 0.74418 0.39233 0.0
O15 O 0.74714 0.76428 0.37913 0.0
Cd16 Cd 0.72047 0.72775 0.34352 0.0
O17 O 0.78959 0.70394 0.38686 0.0
Cd18 Cd 0.78236 0.64515 0.35512 0.0
C19 C 0.66174 0.61888 0.36254 0.0
O20 O 0.78955 0.70297 0.3238 0.0
O21 O 0.76082 0.62888 0.31527 0.0
O22 O 0.86793 0.63798 0.36186 0.0
C23 C 0.77686 0.67129 0.30858 0.0
O24 O 0.6587 0.65946 0.35281 0.0
C25 C 0.86307 0.59181 0.3617 0.0
O26 O 0.7031 0.60578 0.3672 0.0
O27 O 0.82036 0.57016 0.35861 0.0
C28 C 0.25493 0.23817 0.56188 0.0
O29 O 0.23747 0.26713 0.57556 0.0
Cd30 Cd 0.27767 0.29225 0.61089 0.0
O31 O 0.29491 0.22202 0.5663 0.0
Cd32 Cd 0.35837 0.22726 0.59559 0.0
C33 C 0.38519 0.34949 0.59009 0.0
O34 O 0.30456 0.22223 0.62889 0.0
O35 O 0.38205 0.2368 0.63511 0.0
O36 O 0.36373 0.14221 0.58618 0.0
C37 C 0.33942 0.22822 0.64311 0.0
O38 O 0.34547 0.35295 0.60053 0.0
C39 C 0.40975 0.14729 0.58435 0.0
O40 O 0.39732 0.30798 0.58482 0.0
O41 O 0.43187 0.18983 0.58744 0.0
C42 C 0.7388 0.762 0.88882 0.0
O43 O 0.76383 0.73917 0.87534 0.0
Cd44 Cd 0.79193 0.77653 0.83994 0.0
O45 O 0.72743 0.80351 0.88335 0.0
Cd46 Cd 0.73418 0.8623 0.85229 0.0
C47 C 0.85559 0.88402 0.85833 0.0
O48 O 0.72358 0.80435 0.82059 0.0
O49 O 0.74801 0.87942 0.81224 0.0
O50 O 0.65046 0.87084 0.86189 0.0
C51 C 0.73327 0.83663 0.80542 0.0
O52 O 0.85689 0.84263 0.84892 0.0
C53 C 0.65613 0.91702 0.86212 0.0
O54 O 0.81509 0.89891 0.86302 0.0
O55 O 0.69849 0.93811 0.85777 0.0
C56 C 0.74758 0.76678 0.5566 0.0
O57 O 0.76631 0.73912 0.57037 0.0
Cd58 Cd 0.72863 0.71558 0.60609 0.0
O59 O 0.70732 0.78233 0.56115 0.0
Cd60 Cd 0.64553 0.77703 0.59135 0.0
C61 C 0.62083 0.65474 0.58689 0.0
O62 O 0.70247 0.78699 0.62327 0.0
O63 O 0.62683 0.76614 0.6316 0.0
O64 O 0.63702 0.86097 0.58143 0.0
C65 C 0.66987 0.77931 0.63844 0.0
O66 O 0.66112 0.65283 0.59714 0.0
C67 C 0.59085 0.85513 0.58121 0.0
O68 O 0.6077 0.6955 0.58121 0.0
O69 O 0.56996 0.81261 0.58535 0.0
C70 C 0.26815 0.24494 0.895 0.0
O71 O 0.24352 0.26681 0.881 0.0
Cd72 Cd 0.22094 0.2309 0.84435 0.0
O73 O 0.28308 0.20493 0.88944 0.0
Cd74 Cd 0.2835 0.14888 0.8572 0.0
C75 C 0.1619 0.11986 0.86018 0.0
O76 O 0.29182 0.20743 0.82557 0.0
O77 O 0.27541 0.13088 0.81716 0.0
O78 O 0.3683 0.14337 0.86665 0.0
C79 C 0.28631 0.17426 0.81042 0.0
O80 O 0.15912 0.16146 0.85143 0.0
C81 C 0.36366 0.09717 0.86698 0.0
O82 O 0.20301 0.10688 0.86536 0.0
O83 O 0.3214 0.07508 0.86321 0.0
C84 C 0.75111 0.73095 0.05378 0.0
O85 O 0.7246 0.75472 0.06606 0.0
Cd86 Cd 0.75605 0.78622 0.10209 0.0
O87 O 0.79208 0.72167 0.06119 0.0
Cd88 Cd 0.8417 0.73163 0.0958 0.0
C89 C 0.86531 0.85097 0.08741 0.0
O90 O 0.77952 0.72155 0.12558 0.0
O91 O 0.8503 0.75822 0.13522 0.0
O92 O 0.85139 0.64643 0.09091 0.0
C93 C 0.80886 0.73771 0.14124 0.0
O94 O 0.82248 0.85227 0.09511 0.0
C95 C 0.89734 0.65189 0.09291 0.0
O96 O 0.88125 0.81039 0.08403 0.0
O97 O 0.91796 0.69497 0.09622 0.0
C98 C 0.24108 0.25908 0.39736 0.0
O99 O 0.26963 0.23806 0.38489 0.0
Cd100 Cd 0.29748 0.27167 0.34886 0.0
O101 O 0.22674 0.29882 0.39106 0.0
Cd102 Cd 0.23607 0.35518 0.35872 0.0
C103 C 0.35725 0.38154 0.3658 0.0
O104 O 0.22918 0.29482 0.32782 0.0
O105 O 0.25339 0.36944 0.31867 0.0
O106 O 0.15075 0.36351 0.36528 0.0
C107 C 0.23938 0.32619 0.31229 0.0
O108 O 0.36006 0.33992 0.35694 0.0
C109 C 0.15601 0.40967 0.36471 0.0
O110 O 0.31598 0.39527 0.37006 0.0
O111 O 0.19887 0.43079 0.3616 0.0
H112 H 0.17204 0.30534 0.02583 0.0
H113 H 0.31288 0.26183 0.04153 0.0
H114 H 0.19386 0.31217 -0.01409 0.0
H115 H 0.33581 0.27094 0.0015 0.0
H116 H 0.2389 0.327 0.91441 0.0
H117 H 0.23955 0.34768 0.95493 0.0
H118 H 0.31291 0.22213 0.96948 0.0
H119 H 0.31416 0.20298 0.92931 0.0
C120 C 0.20822 0.29846 0.02083 0.0
C121 C 0.24035 0.28198 0.03675 0.0
C122 C 0.22098 0.30288 -0.00212 0.0
C123 C 0.26643 0.2915 -0.00964 0.0
C124 C 0.30006 0.27885 0.00663 0.0
C125 C 0.28701 0.27376 0.02957 0.0
C126 C 0.25615 0.30457 0.92626 0.0
C127 C 0.2756 0.26282 0.91869 0.0
C128 C 0.25631 0.31625 0.94949 0.0
C129 C 0.27555 0.28615 0.96556 0.0
C130 C 0.29816 0.24652 0.9577 0.0
C131 C 0.29841 0.23517 0.93455 0.0
H132 H 0.84284 0.73503 0.28668 0.0
H133 H 0.71143 0.63634 0.2762 0.0
H134 H 0.84651 0.75295 0.24617 0.0
H135 H 0.71205 0.6572 0.23591 0.0
H136 H 0.75893 0.65902 0.16143 0.0
H137 H 0.74844 0.64465 0.20209 0.0
H138 H 0.8175 0.79107 0.21587 0.0
H139 H 0.83169 0.80306 0.17524 0.0
C140 C 0.81421 0.71797 0.27564 0.0
C141 C 0.77714 0.68412 0.28435 0.0
C142 C 0.81586 0.72855 0.25241 0.0
C143 C 0.77949 0.70668 0.2375 0.0
C144 C 0.74143 0.67392 0.24658 0.0
C145 C 0.74076 0.66216 0.26971 0.0
C146 C 0.77138 0.68808 0.17327 0.0
C147 C 0.79637 0.7319 0.16542 0.0
C148 C 0.76516 0.68011 0.19663 0.0
C149 C 0.78252 0.7165 0.21255 0.0
C150 C 0.80504 0.7615 0.20434 0.0
C151 C 0.81271 0.76874 0.18105 0.0
H152 H 0.25788 0.15704 0.53586 0.0
H153 H 0.2032 0.29641 0.53685 0.0
H154 H 0.23832 0.14808 0.49543 0.0
H155 H 0.18642 0.28926 0.49629 0.0
H156 H 0.16271 0.27591 0.42295 0.0
H157 H 0.14896 0.25697 0.46314 0.0
H158 H 0.27833 0.18384 0.46385 0.0
H159 H 0.29011 0.20041 0.42357 0.0
C160 C 0.24087 0.18537 0.52745 0.0
C161 C 0.23274 0.22776 0.5393 0.0
C162 C 0.23001 0.18047 0.50426 0.0
C163 C 0.21204 0.21849 0.49234 0.0
C164 C 0.19993 0.25897 0.50477 0.0
C165 C 0.20977 0.26331 0.52809 0.0
C166 C 0.18745 0.25476 0.43166 0.0
C167 C 0.22793 0.24028 0.42029 0.0
C168 C 0.17975 0.24412 0.45472 0.0
C169 C 0.213 0.2197 0.46698 0.0
C170 C 0.2515 0.20223 0.45507 0.0
C171 C 0.25861 0.21205 0.43192 0.0
H172 H 0.76115 0.89616 0.76974 0.0
H173 H 0.69214 0.75163 0.78586 0.0
H174 H 0.74817 0.87913 0.72925 0.0
H175 H 0.67936 0.73459 0.74522 0.0
H176 H 0.60921 0.75513 0.67425 0.0
H177 H 0.62751 0.76608 0.71476 0.0
H178 H 0.77506 0.82528 0.69844 0.0
H179 H 0.75679 0.81457 0.65784 0.0
C180 C 0.7435 0.86064 0.76462 0.0
C181 C 0.72747 0.82526 0.78094 0.0
C182 C 0.73637 0.85083 0.74144 0.0
C183 C 0.71277 0.80558 0.73416 0.0
C184 C 0.69732 0.76992 0.75044 0.0
C185 C 0.7048 0.7796 0.77365 0.0
C186 C 0.64562 0.77026 0.67931 0.0
C187 C 0.68154 0.78421 0.66291 0.0
C188 C 0.65615 0.7762 0.70248 0.0
C189 C 0.70267 0.79651 0.70967 0.0
C190 C 0.73878 0.80989 0.6933 0.0
C191 C 0.72837 0.80361 0.67011 0.0
H192 H 0.20007 0.23966 0.29348 0.0
H193 H 0.26666 0.38433 0.27606 0.0
H194 H 0.1861 0.22127 0.25303 0.0
H195 H 0.25236 0.36605 0.2358 0.0
H196 H 0.25284 0.30503 0.164 0.0
H197 H 0.27613 0.3136 0.20415 0.0
H198 H 0.13152 0.2511 0.22378 0.0
H199 H 0.10832 0.24216 0.18376 0.0
C200 C 0.21208 0.26733 0.28102 0.0
C201 C 0.23414 0.31352 0.28791 0.0
C202 C 0.20393 0.25687 0.25791 0.0
C203 C 0.21804 0.29229 0.24132 0.0
C204 C 0.24157 0.33788 0.2482 0.0
C205 C 0.24944 0.34844 0.27127 0.0
C206 C 0.2262 0.29274 0.1769 0.0
C207 C 0.17868 0.27324 0.17077 0.0
C208 C 0.23948 0.29778 0.19984 0.0
C209 C 0.20559 0.28309 0.21703 0.0
C210 C 0.15855 0.26222 0.21087 0.0
C211 C 0.14518 0.25746 0.18797 0.0
H212 H 0.8022 0.71006 0.53217 0.0
H213 H 0.74164 0.84634 0.53011 0.0
H214 H 0.82194 0.71757 0.49199 0.0
H215 H 0.7643 0.8559 0.4901 0.0
H216 H 0.72226 0.80236 0.41701 0.0
H217 H 0.72962 0.81976 0.45743 0.0
H218 H 0.86151 0.75078 0.45991 0.0
H219 H 0.85203 0.7307 0.41952 0.0
C220 C 0.79476 0.74255 0.52326 0.0
C221 C 0.76951 0.77709 0.53403 0.0
C222 C 0.8064 0.74717 0.50017 0.0
C223 C 0.79389 0.78699 0.48753 0.0
C224 C 0.77308 0.82399 0.49906 0.0
C225 C 0.76037 0.81874 0.52201 0.0
C226 C 0.7534 0.79187 0.42609 0.0
C227 C 0.78596 0.7643 0.41529 0.0
C228 C 0.75794 0.80217 0.44934 0.0
C229 C 0.79577 0.78592 0.46218 0.0
C230 C 0.8311 0.76255 0.45075 0.0
C231 C 0.82589 0.7513 0.42759 0.0
H232 H 0.2556 0.23674 0.66653 0.0
H233 H 0.40504 0.21024 0.6754 0.0
H234 H 0.2425 0.22753 0.70779 0.0
H235 H 0.39134 0.1999 0.71633 0.0
H236 H 0.30895 0.11202 0.7775 0.0
H237 H 0.32177 0.12876 0.73696 0.0
H238 H 0.29155 0.27639 0.74747 0.0
H239 H 0.2799 0.2602 0.78843 0.0
C240 C 0.28552 0.22903 0.67728 0.0
C241 C 0.33126 0.22403 0.66784 0.0
C242 C 0.27809 0.2241 0.70077 0.0
C243 C 0.31602 0.21313 0.71496 0.0
C244 C 0.36172 0.20844 0.70558 0.0
C245 C 0.36945 0.21436 0.68224 0.0
C246 C 0.30502 0.14806 0.77119 0.0
C247 C 0.29353 0.1849 0.78603 0.0
C248 C 0.31245 0.15756 0.74808 0.0
C249 C 0.30752 0.20371 0.73935 0.0
C250 C 0.29534 0.2405 0.754 0.0
C251 C 0.28894 0.23131 0.77731 0.0
H252 H 0.80569 0.69181 0.02165 0.0
H253 H 0.66485 0.74025 0.03218 0.0
H254 H 0.79013 0.68537 -0.01887 0.0
H255 H 0.64815 0.73158 -0.00859 0.0
H256 H 0.68793 0.80395 0.92146 0.0
H257 H 0.67925 0.78161 0.9611 0.0
H258 H 0.74919 0.65298 0.94803 0.0
H259 H 0.75983 0.67676 0.90813 0.0
C260 C 0.77075 0.69983 0.01538 0.0
C261 C 0.73702 0.71783 0.03005 0.0
C262 C 0.76155 0.69557 -0.00794 0.0
C263 C 0.71816 0.70871 -0.01711 0.0
C264 C 0.68247 0.72232 -0.00213 0.0
C265 C 0.69194 0.72716 0.02123 0.0
C266 C 0.70086 0.77046 0.92688 0.0
C267 C 0.72573 0.7428 0.91175 0.0
C268 C 0.69529 0.75724 0.94968 0.0
C269 C 0.71406 0.71576 0.9579 0.0
C270 C 0.73523 0.68575 0.94234 0.0
C271 C 0.7412 0.69926 0.91947 0.0
H272 H 0.0093 0.15 0.07614 0.0
H273 H 0.11787 0.06165 0.09921 0.0
H274 H 0.9513 0.0769 0.07123 0.0
H275 H 0.05963 0.98893 0.09479 0.0
H276 H 0.95713 0.86186 0.06948 0.0
H277 H 0.01405 0.93617 0.06729 0.0
H278 H 0.9053 0.0179 0.09587 0.0
H279 H 0.84795 0.94386 0.09757 0.0
C280 C 0.02091 0.11502 0.08007 0.0
C281 C 0.0682 0.11174 0.08818 0.0
C282 C 0.98755 0.07315 0.07735 0.0
C283 C 1.00075 0.02709 0.08269 0.0
C284 C 0.04844 0.02375 0.09022 0.0
C285 C 0.08178 0.06555 0.09291 0.0
C286 C 0.94512 0.89576 0.07505 0.0
C287 C 0.89808 0.89681 0.08388 0.0
C288 C 0.97788 0.93832 0.07391 0.0
C289 C 0.96441 0.98288 0.08162 0.0
C290 C 0.91673 0.98427 0.08959 0.0
C291 C 0.8839 0.94173 0.09067 0.0
H292 H 0.06437 0.37588 0.3789 0.0
H293 H 0.1524 0.50548 0.355 0.0
H294 H 0.99368 0.42005 0.38053 0.0
H295 H 0.08137 0.54922 0.35566 0.0
H296 H 0.95439 0.62732 0.37597 0.0
H297 H 0.02516 0.58358 0.37914 0.0
H298 H 0.93856 0.45198 0.35563 0.0
H299 H 0.86743 0.49537 0.35343 0.0
C300 C 0.06856 0.41383 0.37395 0.0
C301 C 0.11385 0.43721 0.36676 0.0
C302 C 0.02796 0.43909 0.37474 0.0
C303 C 0.03161 0.48816 0.36807 0.0
C304 C 0.07725 0.5117 0.36124 0.0
C305 C 0.11798 0.48657 0.36073 0.0
C306 C 0.95047 0.58895 0.37163 0.0
C307 C 0.90543 0.56477 0.3644 0.0
C308 C 0.99111 0.56392 0.3733 0.0
C309 C 0.98776 0.51425 0.36753 0.0
C310 C 0.94241 0.48999 0.36057 0.0
C311 C 0.90164 0.51492 0.35916 0.0
H312 H 0.47682 0.3565 0.57178 0.0
H313 H 0.36938 0.4438 0.59731 0.0
H314 H 0.53421 0.43005 0.56687 0.0
H315 H 0.42691 0.51689 0.59274 0.0
H316 H 0.52927 0.6449 0.56834 0.0
H317 H 0.4722 0.57067 0.565 0.0
H318 H 0.58006 0.4877 0.59322 0.0
H319 H 0.63736 0.56152 0.59623 0.0
C320 C 0.46526 0.39134 0.57616 0.0
C321 C 0.41862 0.3942 0.58513 0.0
C322 C 0.49824 0.43343 0.57344 0.0
C323 C 0.48518 0.47923 0.57952 0.0
C324 C 0.43794 0.48223 0.58765 0.0
C325 C 0.40506 0.44021 0.59044 0.0
C326 C 0.54105 0.61075 0.57357 0.0
C327 C 0.58776 0.60926 0.58276 0.0
C328 C 0.50825 0.56827 0.57174 0.0
C329 C 0.52151 0.52339 0.57898 0.0
C330 C 0.56887 0.52161 0.58728 0.0
C331 C 0.60162 0.56405 0.58916 0.0
H332 H 0.65113 0.01327 0.85399 0.0
H333 H 0.56788 0.88296 0.88007 0.0
H334 H 0.58041 0.05684 0.85803 0.0
H335 H 0.49772 0.92692 0.88508 0.0
H336 H 0.36791 1.00042 0.86016 0.0
H337 H 0.43942 0.95778 0.86164 0.0
H338 H 0.5266 0.09057 0.88331 0.0
H339 H 0.45514 0.13367 0.88089 0.0
C340 C 0.61792 0.9942 0.86095 0.0
C341 C 0.61482 0.94463 0.86648 0.0
C342 C 0.57742 0.01923 0.86343 0.0
C343 C 0.53316 0.99533 0.87176 0.0
C344 C 0.53085 0.94619 0.87815 0.0
C345 C 0.57113 0.92105 0.8754 0.0
C346 C 0.40225 0.02039 0.86545 0.0
C347 C 0.40602 0.07043 0.87025 0.0
C348 C 0.44329 0.99588 0.86645 0.0
C349 C 0.48894 0.02074 0.87252 0.0
C350 C 0.49224 0.07048 0.87816 0.0
C351 C 0.45124 0.09512 0.87692 0.0
H352 H 0.99242 0.6487 0.10465 0.0
H353 H 0.86462 0.55982 0.07886 0.0
H354 H 0.03642 0.57766 0.10486 0.0
H355 H 0.90896 0.4893 0.07819 0.0
H356 H 0.98306 0.36325 0.10531 0.0
H357 H 0.94007 0.43473 0.10385 0.0
H358 H 0.07169 0.52151 0.08109 0.0
H359 H 0.11505 0.4503 0.08343 0.0
C360 C 0.97395 0.61409 0.09877 0.0
C361 C 0.92504 0.60973 0.09187 0.0
C362 C 0.9992 0.57341 0.09876 0.0
C363 C 0.97618 0.52764 0.09163 0.0
C364 C 0.92754 0.5237 0.08423 0.0
C365 C 0.90219 0.56422 0.08447 0.0
C366 C 0.00273 0.39758 0.09994 0.0
C367 C 0.05241 0.40122 0.09454 0.0
C368 C 0.97805 0.43854 0.09896 0.0
C369 C 0.00239 0.48396 0.09232 0.0
C370 C 0.052 0.48734 0.08663 0.0
C371 C 0.07678 0.44646 0.08783 0.0
H372 H 0.4511 0.36493 0.35805 0.0
H373 H 0.3655 0.4748 0.38254 0.0
H374 H 0.52437 0.42294 0.36079 0.0
H375 H 0.43921 0.53263 0.38571 0.0
H376 H 0.5677 0.63401 0.35408 0.0
H377 H 0.49455 0.57645 0.35849 0.0
H378 H 0.58044 0.47088 0.38656 0.0
H379 H 0.654 0.52817 0.38174 0.0
C380 C 0.44795 0.40124 0.36434 0.0
C381 C 0.4023 0.41531 0.36985 0.0
C382 C 0.49009 0.43445 0.36606 0.0
C383 C 0.4876 0.4825 0.37335 0.0
C384 C 0.44222 0.49606 0.37972 0.0
C385 C 0.40002 0.46282 0.378 0.0
C386 C 0.57104 0.59872 0.3614 0.0
C387 C 0.61683 0.58558 0.36735 0.0
C388 C 0.52898 0.56581 0.36408 0.0
C389 C 0.53169 0.51899 0.37279 0.0
C390 C 0.57725 0.50644 0.37951 0.0
C391 C 0.61936 0.53938 0.37683 0.0
H392 H 0.50699 0.14302 0.5892 0.0
H393 H 0.37256 0.05648 0.56974 0.0
H394 H 0.54978 0.07184 0.58556 0.0
H395 H 0.41569 0.98551 0.56503 0.0
H396 H 0.62394 0.94465 0.56417 0.0
H397 H 0.5796 0.01505 0.56102 0.0
H398 H 0.45104 0.92992 0.5881 0.0
H399 H 0.49485 0.85915 0.59018 0.0
C400 C 0.48676 0.10892 0.58373 0.0
C401 C 0.43638 0.10521 0.57994 0.0
C402 C 0.51136 0.06808 0.58147 0.0
C403 C 0.48623 0.02269 0.57507 0.0
C404 C 0.43607 0.01957 0.57043 0.0
C405 C 0.41137 0.0603 0.57299 0.0
C406 C 0.58602 0.94093 0.56918 0.0
C407 C 0.56292 0.89652 0.57755 0.0
C408 C 0.56066 0.98136 0.56753 0.0
C409 C 0.51181 0.97847 0.57452 0.0
C410 C 0.48838 0.93348 0.58224 0.0
C411 C 0.51357 0.89288 0.58359 0.0
H412 H 0.94859 0.86702 0.84837 0.0
H413 H 0.86631 0.97476 0.87771 0.0
H414 H 0.02281 0.92388 0.85171 0.0
H415 H 0.94074 0.03118 0.88139 0.0
H416 H 0.06811 0.13583 0.85181 0.0
H417 H 0.99493 0.07769 0.85436 0.0
H418 H 0.08046 0.96801 0.87861 0.0
H419 H 0.15407 0.026 0.87571 0.0
C420 C 0.94639 0.90254 0.85583 0.0
C421 C 0.9014 0.91647 0.86256 0.0
C422 C 0.98902 0.93504 0.85786 0.0
C423 C 0.98757 0.98215 0.86666 0.0
C424 C 0.94289 0.9954 0.8742 0.0
C425 C 0.90028 0.96293 0.87219 0.0
C426 C 0.07138 0.09946 0.85786 0.0
C427 C 0.11704 0.08553 0.86342 0.0
C428 C 0.02932 0.0662 0.85947 0.0
C429 C 0.03192 0.01823 0.86666 0.0
C430 C 0.07739 0.00457 0.87276 0.0
C431 C 0.11951 0.0379 0.8712 0.0
loop_
_geom_bond_atom_site_label_1
_geom_bond_atom_site_label_2
_geom_bond_distance
_geom_bond_site_symmetry_2
_ccdc_geom_bond_type
C0 O1 1.306 . S
C0 O3 1.160 . S
O1 C0 1.306 . S
O1 Cd2 2.228 . S
Cd2 O1 2.228 . S
Cd2 O6 2.273 . S
Cd2 O10 2.277 . S
O3 C0 1.160 . S
O3 Cd4 2.203 . S
Cd4 O3 2.203 . S
Cd4 O6 2.411 . S
Cd4 O7 2.333 . S
Cd4 O8 2.352 . S
Cd4 O12 2.277 . S
Cd4 O13 2.356 . S
C5 O10 1.209 . S
C5 O12 1.226 . S
O6 Cd2 2.273 . S
O6 Cd4 2.411 . S
O6 C9 1.320 . S
O7 Cd4 2.333 . S
O7 C9 1.214 . S
O8 Cd4 2.352 . S
O8 C11 1.258 . S
C9 O6 1.320 . S
C9 O7 1.214 . S
O10 Cd2 2.277 . S
O10 C5 1.209 . S
C11 O8 1.258 . S
C11 O13 1.282 . S
O12 Cd4 2.277 . S
O12 C5 1.226 . S
O13 Cd4 2.356 . S
O13 C11 1.282 . S
C14 O15 1.306 . S
C14 O17 1.160 . S
O15 C14 1.306 . S
O15 Cd16 2.228 . S
Cd16 O15 2.228 . S
Cd16 O20 2.273 . S
Cd16 O24 2.277 . S
O17 C14 1.160 . S
O17 Cd18 2.203 . S
Cd18 O17 2.203 . S
Cd18 O20 2.411 . S
Cd18 O21 2.333 . S
Cd18 O22 2.352 . S
Cd18 O26 2.277 . S
Cd18 O27 2.356 . S
C19 O24 1.209 . S
C19 O26 1.226 . S
O20 Cd16 2.273 . S
O20 Cd18 2.411 . S
O20 C23 1.320 . S
O21 Cd18 2.333 . S
O21 C23 1.214 . S
O22 Cd18 2.352 . S
O22 C25 1.258 . S
C23 O20 1.320 . S
C23 O21 1.214 . S
O24 Cd16 2.277 . S
O24 C19 1.209 . S
C25 O22 1.258 . S
C25 O27 1.282 . S
O26 Cd18 2.277 . S
O26 C19 1.226 . S
O27 Cd18 2.356 . S
O27 C25 1.282 . S
C28 O29 1.306 . S
C28 O31 1.160 . S
O29 C28 1.306 . S
O29 Cd30 2.228 . S
Cd30 O29 2.228 . S
Cd30 O34 2.273 . S
Cd30 O38 2.277 . S
O31 C28 1.160 . S
O31 Cd32 2.203 . S
Cd32 O31 2.203 . S
Cd32 O34 2.411 . S
Cd32 O35 2.333 . S
Cd32 O36 2.352 . S
Cd32 O40 2.277 . S
Cd32 O41 2.356 . S
C33 O38 1.209 . S
C33 O40 1.226 . S
O34 Cd30 2.273 . S
O34 Cd32 2.411 . S
O34 C37 1.320 . S
O35 Cd32 2.333 . S
O35 C37 1.214 . S
O36 Cd32 2.352 . S
O36 C39 1.258 . S
C37 O34 1.320 . S
C37 O35 1.214 . S
O38 Cd30 2.277 . S
O38 C33 1.209 . S
C39 O36 1.258 . S
C39 O41 1.282 . S
O40 Cd32 2.277 . S
O40 C33 1.226 . S
O41 Cd32 2.356 . S
O41 C39 1.282 . S
C42 O43 1.306 . S
C42 O45 1.160 . S
O43 C42 1.306 . S
O43 Cd44 2.228 . S
Cd44 O43 2.228 . S
Cd44 O48 2.273 . S
Cd44 O52 2.277 . S
O45 C42 1.160 . S
O45 Cd46 2.203 . S
Cd46 O45 2.203 . S
Cd46 O48 2.411 . S
Cd46 O49 2.333 . S
Cd46 O50 2.352 . S
Cd46 O54 2.277 . S
Cd46 O55 2.356 . S
C47 O52 1.209 . S
C47 O54 1.226 . S
O48 Cd44 2.273 . S
O48 Cd46 2.411 . S
O48 C51 1.320 . S
O49 Cd46 2.333 . S
O49 C51 1.214 . S
O50 Cd46 2.352 . S
O50 C53 1.258 . S
C51 O48 1.320 . S
C51 O49 1.214 . S
O52 Cd44 2.277 . S
O52 C47 1.209 . S
C53 O50 1.258 . S
C53 O55 1.282 . S
O54 Cd46 2.277 . S
O54 C47 1.226 . S
O55 Cd46 2.356 . S
O55 C53 1.282 . S
C56 O57 1.306 . S
C56 O59 1.160 . S
O57 C56 1.306 . S
O57 Cd58 2.228 . S
Cd58 O57 2.228 . S
Cd58 O62 2.273 . S
Cd58 O66 2.277 . S
O59 C56 1.160 . S
O59 Cd60 2.203 . S
Cd60 O59 2.203 . S
Cd60 O62 2.411 . S
Cd60 O63 2.333 . S
Cd60 O64 2.352 . S
Cd60 O68 2.277 . S
Cd60 O69 2.356 . S
C61 O66 1.209 . S
C61 O68 1.226 . S
O62 Cd58 2.273 . S
O62 Cd60 2.411 . S
O62 C65 1.320 . S
O63 Cd60 2.333 . S
O63 C65 1.214 . S
O64 Cd60 2.352 . S
O64 C67 1.258 . S
C65 O62 1.320 . S
C65 O63 1.214 . S
O66 Cd58 2.277 . S
O66 C61 1.209 . S
C67 O64 1.258 . S
C67 O69 1.282 . S
O68 Cd60 2.277 . S
O68 C61 1.226 . S
O69 Cd60 2.356 . S
O69 C67 1.282 . S
C70 O71 1.306 . S
C70 O73 1.160 . S
O71 C70 1.306 . S
O71 Cd72 2.228 . S
Cd72 O71 2.228 . S
Cd72 O76 2.273 . S
Cd72 O80 2.277 . S
O73 C70 1.160 . S
O73 Cd74 2.203 . S
Cd74 O73 2.203 . S
Cd74 O76 2.411 . S
Cd74 O77 2.333 . S
Cd74 O78 2.352 . S
Cd74 O82 2.277 . S
Cd74 O83 2.356 . S
C75 O80 1.209 . S
C75 O82 1.226 . S
O76 Cd72 2.273 . S
O76 Cd74 2.411 . S
O76 C79 1.320 . S
O77 Cd74 2.333 . S
O77 C79 1.214 . S
O78 Cd74 2.352 . S
O78 C81 1.258 . S
C79 O76 1.320 . S
C79 O77 1.214 . S
O80 Cd72 2.277 . S
O80 C75 1.209 . S
C81 O78 1.258 . S
C81 O83 1.282 . S
O82 Cd74 2.277 . S
O82 C75 1.226 . S
O83 Cd74 2.356 . S
O83 C81 1.282 . S
C84 O85 1.306 . S
C84 O87 1.160 . S
O85 C84 1.306 . S
O85 Cd86 2.228 . S
Cd86 O85 2.228 . S
Cd86 O90 2.273 . S
Cd86 O94 2.277 . S
O87 C84 1.160 . S
O87 Cd88 2.203 . S
Cd88 O87 2.203 . S
Cd88 O90 2.411 . S
Cd88 O91 2.333 . S
Cd88 O92 2.352 . S
Cd88 O96 2.277 . S
Cd88 O97 2.356 . S
C89 O94 1.209 . S
C89 O96 1.226 . S
O90 Cd86 2.273 . S
O90 Cd88 2.411 . S
O90 C93 1.320 . S
O91 Cd88 2.333 . S
O91 C93 1.214 . S
O92 Cd88 2.352 . S
O92 C95 1.258 . S
C93 O90 1.320 . S
C93 O91 1.214 . S
O94 Cd86 2.277 . S
O94 C89 1.209 . S
C95 O92 1.258 . S
C95 O97 1.282 . S
O96 Cd88 2.277 . S
O96 C89 1.226 . S
O97 Cd88 2.356 . S
O97 C95 1.282 . S
C98 O99 1.306 . S
C98 O101 1.160 . S
O99 C98 1.306 . S
O99 Cd100 2.228 . S
Cd100 O99 2.228 . S
Cd100 O104 2.273 . S
Cd100 O108 2.277 . S
O101 C98 1.160 . S
O101 Cd102 2.203 . S
Cd102 O101 2.203 . S
Cd102 O104 2.411 . S
Cd102 O105 2.333 . S
Cd102 O106 2.352 . S
Cd102 O110 2.277 . S
Cd102 O111 2.356 . S
C103 O108 1.209 . S
C103 O110 1.226 . S
O104 Cd100 2.273 . S
O104 Cd102 2.411 . S
O104 C107 1.320 . S
O105 Cd102 2.333 . S
O105 C107 1.214 . S
O106 Cd102 2.352 . S
O106 C109 1.258 . S
C107 O104 1.320 . S
C107 O105 1.214 . S
O108 Cd100 2.277 . S
O108 C103 1.209 . S
C109 O106 1.258 . S
C109 O111 1.282 . S
O110 Cd102 2.277 . S
O110 C103 1.226 . S
O111 Cd102 2.356 . S
O111 C109 1.282 . S
H112 C120 0.950 . S
H113 C125 0.950 . S
H114 C122 0.950 . S
H115 C124 0.950 . S
H116 C126 0.950 . S
H117 C128 0.950 . S
H118 C130 0.950 . S
H119 C131 0.950 . S
C120 H112 0.950 . S
C120 C121 1.386 . S
C120 C122 1.391 . S
C121 C120 1.386 . S
C121 C125 1.393 . S
C122 H114 0.950 . S
C122 C120 1.391 . S
C122 C123 1.400 . S
C123 C122 1.400 . S
C123 C124 1.398 . S
C123 C129 1.491 1_554 S
C124 H115 0.950 . S
C124 C123 1.398 . S
C124 C125 1.391 . S
C125 H113 0.950 . S
C125 C121 1.393 . S
C125 C124 1.391 . S
C126 H116 0.950 . S
C126 C127 1.386 . S
C126 C128 1.391 . S
C127 C126 1.386 . S
C127 C131 1.393 . S
C128 H117 0.950 . S
C128 C126 1.391 . S
C128 C129 1.400 . S
C129 C123 1.491 1_556 S
C129 C128 1.400 . S
C129 C130 1.398 . S
C130 H118 0.950 . S
C130 C129 1.398 . S
C130 C131 1.391 . S
C131 H119 0.950 . S
C131 C127 1.393 . S
C131 C130 1.391 . S
H132 C140 0.950 . S
H133 C145 0.950 . S
H134 C142 0.950 . S
H135 C144 0.950 . S
H136 C146 0.950 . S
H137 C148 0.950 . S
H138 C150 0.950 . S
H139 C151 0.950 . S
C140 H132 0.950 . S
C140 C141 1.386 . S
C140 C142 1.391 . S
C141 C140 1.386 . S
C141 C145 1.393 . S
C142 H134 0.950 . S
C142 C140 1.391 . S
C142 C143 1.400 . S
C143 C142 1.400 . S
C143 C144 1.398 . S
C143 C149 1.491 . S
C144 H135 0.950 . S
C144 C143 1.398 . S
C144 C145 1.391 . S
C145 H133 0.950 . S
C145 C141 1.393 . S
C145 C144 1.391 . S
C146 H136 0.950 . S
C146 C147 1.386 . S
C146 C148 1.391 . S
C147 C146 1.386 . S
C147 C151 1.393 . S
C148 H137 0.950 . S
C148 C146 1.391 . S
C148 C149 1.400 . S
C149 C143 1.491 . S
C149 C148 1.400 . S
C149 C150 1.398 . S
C150 H138 0.950 . S
C150 C149 1.398 . S
C150 C151 1.391 . S
C151 H139 0.950 . S
C151 C147 1.393 . S
C151 C150 1.391 . S
H152 C160 0.950 . S
H153 C165 0.950 . S
H154 C162 0.950 . S
H155 C164 0.950 . S
H156 C166 0.950 . S
H157 C168 0.950 . S
H158 C170 0.950 . S
H159 C171 0.950 . S
C160 H152 0.950 . S
C160 C161 1.386 . S
C160 C162 1.391 . S
C161 C160 1.386 . S
C161 C165 1.393 . S
C162 H154 0.950 . S
C162 C160 1.391 . S
C162 C163 1.400 . S
C163 C162 1.400 . S
C163 C164 1.398 . S
C163 C169 1.491 . S
C164 H155 0.950 . S
C164 C163 1.398 . S
C164 C165 1.391 . S
C165 H153 0.950 . S
C165 C161 1.393 . S
C165 C164 1.391 . S
C166 H156 0.950 . S
C166 C167 1.386 . S
C166 C168 1.391 . S
C167 C166 1.386 . S
C167 C171 1.393 . S
C168 H157 0.950 . S
C168 C166 1.391 . S
C168 C169 1.400 . S
C169 C163 1.491 . S
C169 C168 1.400 . S
C169 C170 1.398 . S
C170 H158 0.950 . S
C170 C169 1.398 . S
C170 C171 1.391 . S
C171 H159 0.950 . S
C171 C167 1.393 . S
C171 C170 1.391 . S
H172 C180 0.950 . S
H173 C185 0.950 . S
H174 C182 0.950 . S
H175 C184 0.950 . S
H176 C186 0.950 . S
H177 C188 0.950 . S
H178 C190 0.950 . S
H179 C191 0.950 . S
C180 H172 0.950 . S
C180 C181 1.386 . S
C180 C182 1.391 . S
C181 C180 1.386 . S
C181 C185 1.393 . S
C182 H174 0.950 . S
C182 C180 1.391 . S
C182 C183 1.400 . S
C183 C182 1.400 . S
C183 C184 1.398 . S
C183 C189 1.491 . S
C184 H175 0.950 . S
C184 C183 1.398 . S
C184 C185 1.391 . S
C185 H173 0.950 . S
C185 C181 1.393 . S
C185 C184 1.391 . S
C186 H176 0.950 . S
C186 C187 1.386 . S
C186 C188 1.391 . S
C187 C186 1.386 . S
C187 C191 1.393 . S
C188 H177 0.950 . S
C188 C186 1.391 . S
C188 C189 1.400 . S
C189 C183 1.491 . S
C189 C188 1.400 . S
C189 C190 1.398 . S
C190 H178 0.950 . S
C190 C189 1.398 . S
C190 C191 1.391 . S
C191 H179 0.950 . S
C191 C187 1.393 . S
C191 C190 1.391 . S
H192 C200 0.950 . S
H193 C205 0.950 . S
H194 C202 0.950 . S
H195 C204 0.950 . S
H196 C206 0.950 . S
H197 C208 0.950 . S
H198 C210 0.950 . S
H199 C211 0.950 . S
C200 H192 0.950 . S
C200 C201 1.386 . S
C200 C202 1.391 . S
C201 C200 1.386 . S
C201 C205 1.393 . S
C202 H194 0.950 . S
C202 C200 1.391 . S
C202 C203 1.400 . S
C203 C202 1.400 . S
C203 C204 1.398 . S
C203 C209 1.491 . S
C204 H195 0.950 . S
C204 C203 1.398 . S
C204 C205 1.391 . S
C205 H193 0.950 . S
C205 C201 1.393 . S
C205 C204 1.391 . S
C206 H196 0.950 . S
C206 C207 1.386 . S
C206 C208 1.391 . S
C207 C206 1.386 . S
C207 C211 1.393 . S
C208 H197 0.950 . S
C208 C206 1.391 . S
C208 C209 1.400 . S
C209 C203 1.491 . S
C209 C208 1.400 . S
C209 C210 1.398 . S
C210 H198 0.950 . S
C210 C209 1.398 . S
C210 C211 1.391 . S
C211 H199 0.950 . S
C211 C207 1.393 . S
C211 C210 1.391 . S
H212 C220 0.950 . S
H213 C225 0.950 . S
H214 C222 0.950 . S
H215 C224 0.950 . S
H216 C226 0.950 . S
H217 C228 0.950 . S
H218 C230 0.950 . S
H219 C231 0.950 . S
C220 H212 0.950 . S
C220 C221 1.386 . S
C220 C222 1.391 . S
C221 C220 1.386 . S
C221 C225 1.393 . S
C222 H214 0.950 . S
C222 C220 1.391 . S
C222 C223 1.400 . S
C223 C222 1.400 . S
C223 C224 1.398 . S
C223 C229 1.491 . S
C224 H215 0.950 . S
C224 C223 1.398 . S
C224 C225 1.391 . S
C225 H213 0.950 . S
C225 C221 1.393 . S
C225 C224 1.391 . S
C226 H216 0.950 . S
C226 C227 1.386 . S
C226 C228 1.391 . S
C227 C226 1.386 . S
C227 C231 1.393 . S
C228 H217 0.950 . S
C228 C226 1.391 . S
C228 C229 1.400 . S
C229 C223 1.491 . S
C229 C228 1.400 . S
C229 C230 1.398 . S
C230 H218 0.950 . S
C230 C229 1.398 . S
C230 C231 1.391 . S
C231 H219 0.950 . S
C231 C227 1.393 . S
C231 C230 1.391 . S
H232 C240 0.950 . S
H233 C245 0.950 . S
H234 C242 0.950 . S
H235 C244 0.950 . S
H236 C246 0.950 . S
H237 C248 0.950 . S
H238 C250 0.950 . S
H239 C251 0.950 . S
C240 H232 0.950 . S
C240 C241 1.386 . S
C240 C242 1.391 . S
C241 C240 1.386 . S
C241 C245 1.393 . S
C242 H234 0.950 . S
C242 C240 1.391 . S
C242 C243 1.400 . S
C243 C242 1.400 . S
C243 C244 1.398 . S
C243 C249 1.491 . S
C244 H235 0.950 . S
C244 C243 1.398 . S
C244 C245 1.391 . S
C245 H233 0.950 . S
C245 C241 1.393 . S
C245 C244 1.391 . S
C246 H236 0.950 . S
C246 C247 1.386 . S
C246 C248 1.391 . S
C247 C246 1.386 . S
C247 C251 1.393 . S
C248 H237 0.950 . S
C248 C246 1.391 . S
C248 C249 1.400 . S
C249 C243 1.491 . S
C249 C248 1.400 . S
C249 C250 1.398 . S
C250 H238 0.950 . S
C250 C249 1.398 . S
C250 C251 1.391 . S
C251 H239 0.950 . S
C251 C247 1.393 . S
C251 C250 1.391 . S
H252 C260 0.950 . S
H253 C265 0.950 . S
H254 C262 0.950 . S
H255 C264 0.950 . S
H256 C266 0.950 . S
H257 C268 0.950 . S
H258 C270 0.950 . S
H259 C271 0.950 . S
C260 H252 0.950 . S
C260 C261 1.386 . S
C260 C262 1.391 . S
C261 C260 1.386 . S
C261 C265 1.393 . S
C262 H254 0.950 . S
C262 C260 1.391 . S
C262 C263 1.400 . S
C263 C262 1.400 . S
C263 C264 1.398 . S
C263 C269 1.491 1_554 S
C264 H255 0.950 . S
C264 C263 1.398 . S
C264 C265 1.391 . S
C265 H253 0.950 . S
C265 C261 1.393 . S
C265 C264 1.391 . S
C266 H256 0.950 . S
C266 C267 1.386 . S
C266 C268 1.391 . S
C267 C266 1.386 . S
C267 C271 1.393 . S
C268 H257 0.950 . S
C268 C266 1.391 . S
C268 C269 1.400 . S
C269 C263 1.491 1_556 S
C269 C268 1.400 . S
C269 C270 1.398 . S
C270 H258 0.950 . S
C270 C269 1.398 . S
C270 C271 1.391 . S
C271 H259 0.950 . S
C271 C267 1.393 . S
C271 C270 1.391 . S
H272 C280 0.950 . S
H273 C285 0.950 . S
H274 C282 0.950 . S
H275 C284 0.950 1_565 S
H276 C286 0.950 . S
H277 C288 0.950 . S
H278 C290 0.950 1_545 S
H279 C291 0.950 . S
C280 H272 0.950 . S
C280 C281 1.386 . S
C280 C282 1.391 1_455 S
C281 C280 1.386 . S
C281 C285 1.393 . S
C282 H274 0.950 . S
C282 C280 1.391 1_655 S
C282 C283 1.400 1_655 S
C283 C282 1.400 1_455 S
C283 C284 1.398 . S
C283 C289 1.491 1_445 S
C284 H275 0.950 1_545 S
C284 C283 1.398 . S
C284 C285 1.391 . S
C285 H273 0.950 . S
C285 C281 1.393 . S
C285 C284 1.391 . S
C286 H276 0.950 . S
C286 C287 1.386 . S
C286 C288 1.391 1_655 S
C287 C286 1.386 . S
C287 C291 1.393 . S
C288 H277 0.950 . S
C288 C286 1.391 1_455 S
C288 C289 1.400 1_455 S
C289 C283 1.491 1_665 S
C289 C288 1.400 1_655 S
C289 C290 1.398 . S
C290 H278 0.950 1_565 S
C290 C289 1.398 . S
C290 C291 1.391 . S
C291 H279 0.950 . S
C291 C287 1.393 . S
C291 C290 1.391 . S
H292 C300 0.950 . S
H293 C305 0.950 . S
H294 C302 0.950 1_655 S
H295 C304 0.950 . S
H296 C306 0.950 . S
H297 C308 0.950 1_455 S
H298 C310 0.950 . S
H299 C311 0.950 . S
C300 H292 0.950 . S
C300 C301 1.386 . S
C300 C302 1.391 . S
C301 C300 1.386 . S
C301 C305 1.393 . S
C302 H294 0.950 1_455 S
C302 C300 1.391 . S
C302 C303 1.400 . S
C303 C302 1.400 . S
C303 C304 1.398 . S
C303 C309 1.491 1_455 S
C304 H295 0.950 . S
C304 C303 1.398 . S
C304 C305 1.391 . S
C305 H293 0.950 . S
C305 C301 1.393 . S
C305 C304 1.391 . S
C306 H296 0.950 . S
C306 C307 1.386 . S
C306 C308 1.391 . S
C307 C306 1.386 . S
C307 C311 1.393 . S
C308 H297 0.950 1_655 S
C308 C306 1.391 . S
C308 C309 1.400 . S
C309 C303 1.491 1_655 S
C309 C308 1.400 . S
C309 C310 1.398 . S
C310 H298 0.950 . S
C310 C309 1.398 . S
C310 C311 1.391 . S
C311 H299 0.950 . S
C311 C307 1.393 . S
C311 C310 1.391 . S
H312 C320 0.950 . S
H313 C325 0.950 . S
H314 C322 0.950 . S
H315 C324 0.950 . S
H316 C326 0.950 . S
H317 C328 0.950 . S
H318 C330 0.950 . S
H319 C331 0.950 . S
C320 H312 0.950 . S
C320 C321 1.386 . S
C320 C322 1.391 . S
C321 C320 1.386 . S
C321 C325 1.393 . S
C322 H314 0.950 . S
C322 C320 1.391 . S
C322 C323 1.400 . S
C323 C322 1.400 . S
C323 C324 1.398 . S
C323 C329 1.491 . S
C324 H315 0.950 . S
C324 C323 1.398 . S
C324 C325 1.391 . S
C325 H313 0.950 . S
C325 C321 1.393 . S
C325 C324 1.391 . S
C326 H316 0.950 . S
C326 C327 1.386 . S
C326 C328 1.391 . S
C327 C326 1.386 . S
C327 C331 1.393 . S
C328 H317 0.950 . S
C328 C326 1.391 . S
C328 C329 1.400 . S
C329 C323 1.491 . S
C329 C328 1.400 . S
C329 C330 1.398 . S
C330 H318 0.950 . S
C330 C329 1.398 . S
C330 C331 1.391 . S
C331 H319 0.950 . S
C331 C327 1.393 . S
C331 C330 1.391 . S
H332 C340 0.950 . S
H333 C345 0.950 . S
H334 C342 0.950 . S
H335 C344 0.950 . S
H336 C346 0.950 . S
H337 C348 0.950 . S
H338 C350 0.950 . S
H339 C351 0.950 . S
C340 H332 0.950 . S
C340 C341 1.386 . S
C340 C342 1.391 1_565 S
C341 C340 1.386 . S
C341 C345 1.393 . S
C342 H334 0.950 . S
C342 C340 1.391 1_545 S
C342 C343 1.400 1_545 S
C343 C342 1.400 1_565 S
C343 C344 1.398 . S
C343 C349 1.491 1_565 S
C344 H335 0.950 . S
C344 C343 1.398 . S
C344 C345 1.391 . S
C345 H333 0.950 . S
C345 C341 1.393 . S
C345 C344 1.391 . S
C346 H336 0.950 . S
C346 C347 1.386 . S
C346 C348 1.391 1_545 S
C347 C346 1.386 . S
C347 C351 1.393 . S
C348 H337 0.950 . S
C348 C346 1.391 1_565 S
C348 C349 1.400 1_565 S
C349 C343 1.491 1_545 S
C349 C348 1.400 1_545 S
C349 C350 1.398 . S
C350 H338 0.950 . S
C350 C349 1.398 . S
C350 C351 1.391 . S
C351 H339 0.950 . S
C351 C347 1.393 . S
C351 C350 1.391 . S
H352 C360 0.950 . S
H353 C365 0.950 . S
H354 C362 0.950 1_455 S
H355 C364 0.950 . S
H356 C366 0.950 . S
H357 C368 0.950 1_655 S
H358 C370 0.950 . S
H359 C371 0.950 . S
C360 H352 0.950 . S
C360 C361 1.386 . S
C360 C362 1.391 . S
C361 C360 1.386 . S
C361 C365 1.393 . S
C362 H354 0.950 1_655 S
C362 C360 1.391 . S
C362 C363 1.400 . S
C363 C362 1.400 . S
C363 C364 1.398 . S
C363 C369 1.491 1_655 S
C364 H355 0.950 . S
C364 C363 1.398 . S
C364 C365 1.391 . S
C365 H353 0.950 . S
C365 C361 1.393 . S
C365 C364 1.391 . S
C366 H356 0.950 . S
C366 C367 1.386 . S
C366 C368 1.391 . S
C367 C366 1.386 . S
C367 C371 1.393 . S
C368 H357 0.950 1_455 S
C368 C366 1.391 . S
C368 C369 1.400 . S
C369 C363 1.491 1_455 S
C369 C368 1.400 . S
C369 C370 1.398 . S
C370 H358 0.950 . S
C370 C369 1.398 . S
C370 C371 1.391 . S
C371 H359 0.950 . S
C371 C367 1.393 . S
C371 C370 1.391 . S
H372 C380 0.950 . S
H373 C385 0.950 . S
H374 C382 0.950 . S
H375 C384 0.950 . S
H376 C386 0.950 . S
H377 C388 0.950 . S
H378 C390 0.950 . S
H379 C391 0.950 . S
C380 H372 0.950 . S
C380 C381 1.386 . S
C380 C382 1.391 . S
C381 C380 1.386 . S
C381 C385 1.393 . S
C382 H374 0.950 . S
C382 C380 1.391 . S
C382 C383 1.400 . S
C383 C382 1.400 . S
C383 C384 1.398 . S
C383 C389 1.491 . S
C384 H375 0.950 . S
C384 C383 1.398 . S
C384 C385 1.391 . S
C385 H373 0.950 . S
C385 C381 1.393 . S
C385 C384 1.391 . S
C386 H376 0.950 . S
C386 C387 1.386 . S
C386 C388 1.391 . S
C387 C386 1.386 . S
C387 C391 1.393 . S
C388 H377 0.950 . S
C388 C386 1.391 . S
C388 C389 1.400 . S
C389 C383 1.491 . S
C389 C388 1.400 . S
C389 C390 1.398 . S
C390 H378 0.950 . S
C390 C389 1.398 . S
C390 C391 1.391 . S
C391 H379 0.950 . S
C391 C387 1.393 . S
C391 C390 1.391 . S
H392 C400 0.950 . S
H393 C405 0.950 . S
H394 C402 0.950 . S
H395 C404 0.950 . S
H396 C406 0.950 . S
H397 C408 0.950 . S
H398 C410 0.950 . S
H399 C411 0.950 . S
C400 H392 0.950 . S
C400 C401 1.386 . S
C400 C402 1.391 . S
C401 C400 1.386 . S
C401 C405 1.393 . S
C402 H394 0.950 . S
C402 C400 1.391 . S
C402 C403 1.400 . S
C403 C402 1.400 . S
C403 C404 1.398 . S
C403 C409 1.491 1_545 S
C404 H395 0.950 . S
C404 C403 1.398 . S
C404 C405 1.391 . S
C405 H393 0.950 . S
C405 C401 1.393 . S
C405 C404 1.391 . S
C406 H396 0.950 . S
C406 C407 1.386 . S
C406 C408 1.391 . S
C407 C406 1.386 . S
C407 C411 1.393 . S
C408 H397 0.950 . S
C408 C406 1.391 . S
C408 C409 1.400 . S
C409 C403 1.491 1_565 S
C409 C408 1.400 . S
C409 C410 1.398 . S
C410 H398 0.950 . S
C410 C409 1.398 . S
C410 C411 1.391 . S
C411 H399 0.950 . S
C411 C407 1.393 . S
C411 C410 1.391 . S
H412 C420 0.950 . S
H413 C425 0.950 . S
H414 C422 0.950 1_455 S
H415 C424 0.950 . S
H416 C426 0.950 . S
H417 C428 0.950 1_655 S
H418 C430 0.950 . S
H419 C431 0.950 . S
C420 H412 0.950 . S
C420 C421 1.386 . S
C420 C422 1.391 . S
C421 C420 1.386 . S
C421 C425 1.393 . S
C422 H414 0.950 1_655 S
C422 C420 1.391 . S
C422 C423 1.400 . S
C423 C422 1.400 . S
C423 C424 1.398 1_565 S
C423 C429 1.491 1_665 S
C424 H415 0.950 . S
C424 C423 1.398 1_545 S
C424 C425 1.391 1_545 S
C425 H413 0.950 . S
C425 C421 1.393 . S
C425 C424 1.391 1_565 S
C426 H416 0.950 . S
C426 C427 1.386 . S
C426 C428 1.391 . S
C427 C426 1.386 . S
C427 C431 1.393 . S
C428 H417 0.950 1_455 S
C428 C426 1.391 . S
C428 C429 1.400 . S
C429 C423 1.491 1_445 S
C429 C428 1.400 . S
C429 C430 1.398 1_545 S
C430 H418 0.950 . S
C430 C429 1.398 1_565 S
C430 C431 1.391 1_565 S
C431 H419 0.950 . S
C431 C427 1.393 . S
C431 C430 1.391 1_545 S
C121 C0 1.219 . S
C127 C70 1.211 . S
C141 C23 1.191 . S
C147 C93 1.212 . S
C161 C28 1.223 . S
C167 C98 1.206 . S
C181 C51 1.207 . S
C187 C65 1.191 . S
C201 C107 1.194 . S
C207 C9 1.200 . S
C221 C56 1.212 . S
C227 C14 1.218 . S
C241 C37 1.195 . S
C247 C79 1.217 . S
C261 C84 1.221 . S
C267 C42 1.209 . S
C281 C5 1.574 . S
C287 C89 1.577 . S
C301 C109 1.571 . S
C307 C25 1.567 . S
C321 C33 1.572 . S
C327 C61 1.576 . S
C341 C53 1.568 . S
C347 C81 1.574 . S
C361 C95 1.576 . S
C367 C11 1.580 . S
C381 C103 1.573 . S
C387 C19 1.571 . S
C401 C39 1.579 . S
C407 C67 1.580 . S
C421 C47 1.575 . S
C427 C75 1.571 . S
