# Generated by pormake.
# Topology vbm, (6)-cn, num edge types: 1
# Building blocks:
#     Node 0, Type 0, BuildingBlock: KUMJIN_clean_sbu_0, # of connection points: 6
#     Node 1, Type 0, BuildingBlock: KUMJIN_clean_sbu_0, # of connection points: 6
#     Node 2, Type 0, BuildingBlock: KUMJIN_clean_sbu_0, # of connection points: 6
#     Node 3, Type 0, BuildingBlock: KUMJIN_clean_sbu_0, # of connection points: 6
#     Node 4, Type 0, BuildingBlock: KUMJIN_clean_sbu_0, # of connection points: 6
#     Node 5, Type 0, BuildingBlock: KUMJIN_clean_sbu_0, # of connection points: 6
#     Node 6, Type 0, BuildingBlock: KUMJIN_clean_sbu_0, # of connection points: 6
#     Node 7, Type 0, BuildingBlock: KUMJIN_clean_sbu_0, # of connection points: 6
#     Node 8, Type 0, BuildingBlock: KUMJIN_clean_sbu_0, # of connection points: 6
#     Node 9, Type 0, BuildingBlock: KUMJIN_clean_sbu_0, # of connection points: 6
#     Node 10, Type 0, BuildingBlock: KUMJIN_clean_sbu_0, # of connection points: 6
#     Node 11, Type 0, BuildingBlock: KUMJIN_clean_sbu_0, # of connection points: 6
#     Node 12, Type 0, BuildingBlock: KUMJIN_clean_sbu_0, # of connection points: 6
#     Node 13, Type 0, BuildingBlock: KUMJIN_clean_sbu_0, # of connection points: 6
#     Node 14, Type 0, BuildingBlock: KUMJIN_clean_sbu_0, # of connection points: 6
#     Node 15, Type 0, BuildingBlock: KUMJIN_clean_sbu_0, # of connection points: 6
#     Edge 16, Type (0, 0), BuildingBlock: XIVTED_clean_linker_0, # of connection points: 2
#     Edge 17, Type (0, 0), BuildingBlock: XIVTED_clean_linker_0, # of connection points: 2
#     Edge 18, Type (0, 0), BuildingBlock: XIVTED_clean_linker_0, # of connection points: 2
#     Edge 19, Type (0, 0), BuildingBlock: XIVTED_clean_linker_0, # of connection points: 2
#     Edge 20, Type (0, 0), BuildingBlock: XIVTED_clean_linker_0, # of connection points: 2
#     Edge 21, Type (0, 0), BuildingBlock: XIVTED_clean_linker_0, # of connection points: 2
#     Edge 22, Type (0, 0), BuildingBlock: XIVTED_clean_linker_0, # of connection points: 2
#     Edge 23, Type (0, 0), BuildingBlock: XIVTED_clean_linker_0, # of connection points: 2
#     Edge 24, Type (0, 0), BuildingBlock: XIVTED_clean_linker_0, # of connection points: 2
#     Edge 25, Type (0, 0), BuildingBlock: XIVTED_clean_linker_0, # of connection points: 2
#     Edge 26, Type (0, 0), BuildingBlock: XIVTED_clean_linker_0, # of connection points: 2
#     Edge 27, Type (0, 0), BuildingBlock: XIVTED_clean_linker_0, # of connection points: 2
#     Edge 28, Type (0, 0), BuildingBlock: XIVTED_clean_linker_0, # of connection points: 2
#     Edge 29, Type (0, 0), BuildingBlock: XIVTED_clean_linker_0, # of connection points: 2
#     Edge 30, Type (0, 0), BuildingBlock: XIVTED_clean_linker_0, # of connection points: 2
#     Edge 31, Type (0, 0), BuildingBlock: XIVTED_clean_linker_0, # of connection points: 2
#     Edge 32, Type (0, 0), BuildingBlock: XIVTED_clean_linker_0, # of connection points: 2
#     Edge 33, Type (0, 0), BuildingBlock: XIVTED_clean_linker_0, # of connection points: 2
#     Edge 34, Type (0, 0), BuildingBlock: XIVTED_clean_linker_0, # of connection points: 2
#     Edge 35, Type (0, 0), BuildingBlock: XIVTED_clean_linker_0, # of connection points: 2
#     Edge 36, Type (0, 0), BuildingBlock: XIVTED_clean_linker_0, # of connection points: 2
#     Edge 37, Type (0, 0), BuildingBlock: XIVTED_clean_linker_0, # of connection points: 2
#     Edge 38, Type (0, 0), BuildingBlock: XIVTED_clean_linker_0, # of connection points: 2
#     Edge 39, Type (0, 0), BuildingBlock: XIVTED_clean_linker_0, # of connection points: 2
#     Edge 40, Type (0, 0), BuildingBlock: XIVTED_clean_linker_0, # of connection points: 2
#     Edge 41, Type (0, 0), BuildingBlock: XIVTED_clean_linker_0, # of connection points: 2
#     Edge 42, Type (0, 0), BuildingBlock: XIVTED_clean_linker_0, # of connection points: 2
#     Edge 43, Type (0, 0), BuildingBlock: XIVTED_clean_linker_0, # of connection points: 2
#     Edge 44, Type (0, 0), BuildingBlock: XIVTED_clean_linker_0, # of connection points: 2
#     Edge 45, Type (0, 0), BuildingBlock: XIVTED_clean_linker_0, # of connection points: 2
#     Edge 46, Type (0, 0), BuildingBlock: XIVTED_clean_linker_0, # of connection points: 2
#     Edge 47, Type (0, 0), BuildingBlock: XIVTED_clean_linker_0, # of connection points: 2
#     Edge 48, Type (0, 0), BuildingBlock: XIVTED_clean_linker_0, # of connection points: 2
#     Edge 49, Type (0, 0), BuildingBlock: XIVTED_clean_linker_0, # of connection points: 2
#     Edge 50, Type (0, 0), BuildingBlock: XIVTED_clean_linker_0, # of connection points: 2
#     Edge 51, Type (0, 0), BuildingBlock: XIVTED_clean_linker_0, # of connection points: 2
#     Edge 52, Type (0, 0), BuildingBlock: XIVTED_clean_linker_0, # of connection points: 2
#     Edge 53, Type (0, 0), BuildingBlock: XIVTED_clean_linker_0, # of connection points: 2
#     Edge 54, Type (0, 0), BuildingBlock: XIVTED_clean_linker_0, # of connection points: 2
#     Edge 55, Type (0, 0), BuildingBlock: XIVTED_clean_linker_0, # of connection points: 2
#     Edge 56, Type (0, 0), BuildingBlock: XIVTED_clean_linker_0, # of connection points: 2
#     Edge 57, Type (0, 0), BuildingBlock: XIVTED_clean_linker_0, # of connection points: 2
#     Edge 58, Type (0, 0), BuildingBlock: XIVTED_clean_linker_0, # of connection points: 2
#     Edge 59, Type (0, 0), BuildingBlock: XIVTED_clean_linker_0, # of connection points: 2
#     Edge 60, Type (0, 0), BuildingBlock: XIVTED_clean_linker_0, # of connection points: 2
#     Edge 61, Type (0, 0), BuildingBlock: XIVTED_clean_linker_0, # of connection points: 2
#     Edge 62, Type (0, 0), BuildingBlock: XIVTED_clean_linker_0, # of connection points: 2
#     Edge 63, Type (0, 0), BuildingBlock: XIVTED_clean_linker_0, # of connection points: 2
# Relax obj value: 0.081
# Max RMSD: 0.146
# Mean RMSD: 0.146
data_MOF--net-vbm--node1-KUMJIN_clean_sbu_0--edge1-XIVTED_clean_linker_0
_symmetry_space_group_name_H-M    P1
_symmetry_Int_Tables_number       1
_symmetry_cell_setting            triclinic
loop_
_symmetry_equiv_pos_as_xyz
'x, y, z'
_cell_length_a     52.038005
_cell_length_b     24.645327
_cell_length_c     59.068658
_cell_angle_alpha  89.904825
_cell_angle_beta   90.025079
_cell_angle_gamma 89.83059
loop_
_atom_site_label
_atom_site_type_symbol
_atom_site_fract_x
_atom_site_fract_y
_atom_site_fract_z
_atom_type_partial_charge
Eu0 Eu 0.15614 0.07791 0.12273 0.0
C1 C 0.06807 0.21771 0.16606 0.0
C2 C 0.03047 0.19859 0.14332 0.0
C3 C 0.02548 0.223 0.18291 0.0
C4 C 0.05741 0.20226 0.14566 0.0
C5 C 0.0522 0.22957 0.18478 0.0
C6 C 0.01463 0.20755 0.1622 0.0
C7 C 0.09 0.2591 0.20502 0.0
N8 N 0.09388 0.22453 0.16719 0.0
C9 C 0.10488 0.24729 0.18594 0.0
C10 C 0.06358 0.24948 0.20456 0.0
Eu11 Eu 0.11815 0.20157 0.13459 0.0
N12 N 0.07325 0.19471 0.12767 0.0
C13 C 0.06319 0.188 0.10648 0.0
C14 C 0.0202 0.18807 0.1219 0.0
C15 C 0.03662 0.18368 0.10334 0.0
H16 H 0.12532 0.25471 0.1864 0.0
H17 H 0.02886 0.17681 0.08659 0.0
H18 H 0.99393 0.2043 0.16078 0.0
H19 H 0.09891 0.27571 0.22004 0.0
H20 H 0.0755 0.18442 0.0919 0.0
H21 H 0.22904 0.11064 0.18854 0.0
H22 H 0.99963 0.18487 0.1194 0.0
H23 H 0.16589 0.03249 0.06992 0.0
H24 H 0.18578 0.09544 0.17374 0.0
H25 H 0.20109 0.02588 0.04197 0.0
H26 H 1.013 0.23138 0.19717 0.0
H27 H 0.26614 0.11464 0.1625 0.0
H28 H 0.28322 0.10614 0.12302 0.0
H29 H 0.05205 0.25904 0.21931 0.0
H30 H 0.27557 0.0842 0.08298 0.0
N31 N 0.19756 0.09082 0.13915 0.0
C32 C 0.20151 0.09633 0.16194 0.0
C33 C 0.24706 0.10754 0.15579 0.0
C34 C 0.24316 0.09938 0.13264 0.0
C35 C 0.22618 0.10518 0.17053 0.0
C36 C 0.21789 0.09049 0.12474 0.0
H37 H 0.24511 0.05356 0.05267 0.0
N38 N 0.1893 0.06747 0.09547 0.0
C39 C 0.20484 0.04157 0.05875 0.0
C40 C 0.21359 0.07893 0.10218 0.0
C41 C 0.18494 0.04574 0.07453 0.0
C42 C 0.22964 0.05725 0.06485 0.0
C43 C 0.23441 0.0749 0.08696 0.0
O44 O 0.14917 0.99629 0.10976 0.0
O45 O 0.11676 0.11192 0.12875 0.0
O46 O 0.11494 0.15062 0.16654 0.0
O47 O 0.14437 0.08039 0.15979 0.0
O48 O 0.12 0.05488 0.1033 0.0
O49 O 0.16284 1.00677 0.14407 0.0
O50 O 0.1314 0.28467 0.14026 0.0
O51 O 0.15779 0.16837 0.12743 0.0
O52 O 0.15481 0.12556 0.09021 0.0
O53 O 0.12106 0.1868 0.09633 0.0
O54 O 0.1542 0.22186 0.15417 0.0
O55 O 0.10778 0.26674 0.11117 0.0
C56 C 0.10402 0.08486 0.1144 0.0
C57 C 0.17386 0.9251 0.12535 0.0
C58 C 0.17916 0.82655 0.1238 0.0
C59 C 0.16346 0.8727 0.12674 0.0
C60 C 0.20549 0.83393 0.11935 0.0
C61 C 0.20015 0.93159 0.12102 0.0
C62 C 0.21585 0.88612 0.118 0.0
C63 C 0.12835 0.10758 0.17299 0.0
C64 C 0.15683 0.97225 0.12822 0.0
C65 C 0.2594 0.08638 0.0945 0.0
C66 C 0.26376 0.09869 0.1173 0.0
C67 C 0.17036 0.19444 0.14226 0.0
C68 C 0.10361 0.35391 0.1276 0.0
C69 C 0.11564 0.40488 0.12685 0.0
C70 C 0.10163 0.4527 0.13142 0.0
C71 C 0.07535 0.44843 0.13676 0.0
C72 C 0.07741 0.35071 0.13302 0.0
C73 C 0.0634 0.39779 0.13756 0.0
C74 C 0.13754 0.16099 0.083 0.0
C75 C 0.11877 0.30455 0.12313 0.0
H76 H 0.14305 0.86799 0.12981 0.0
H77 H 0.21816 0.79938 0.11724 0.0
H78 H 0.20851 0.97162 0.12 0.0
H79 H 0.23615 0.89133 0.11468 0.0
H80 H 0.13598 0.40708 0.12302 0.0
H81 H 0.06388 0.48431 0.14003 0.0
H82 H 0.06778 0.31195 0.13369 0.0
H83 H 0.04317 0.39504 0.14165 0.0
Eu84 Eu 0.86752 0.96247 0.11863 0.0
C85 C 0.95455 0.84654 0.1702 0.0
C86 C 0.99237 0.86576 0.14783 0.0
C87 C 0.99621 0.85442 0.18855 0.0
C88 C 0.96559 0.85779 0.14951 0.0
C89 C 0.96987 0.84254 0.18984 0.0
C90 C 1.00745 0.8661 0.16756 0.0
C91 C 0.93293 0.80704 0.20962 0.0
N92 N 0.92925 0.83372 0.17066 0.0
C93 C 0.91862 0.81133 0.18963 0.0
C94 C 0.95854 0.82383 0.20985 0.0
Eu95 Eu 0.90562 0.84409 0.13659 0.0
N96 N 0.95052 0.85564 0.13079 0.0
C97 C 0.96144 0.85618 0.10974 0.0
C98 C 1.00334 0.87045 0.12631 0.0
C99 C 0.98787 0.86448 0.10718 0.0
H100 H 0.89876 0.79861 0.18952 0.0
H101 H 0.99625 0.86654 0.09044 0.0
H102 H 0.02798 0.87298 0.16663 0.0
H103 H 0.92419 0.79086 0.22481 0.0
H104 H 0.94981 0.85189 0.09477 0.0
H105 H 0.78116 0.9464 0.17249 0.0
H106 H 0.02381 0.87674 0.12427 0.0
H107 H 0.87038 0.99195 0.0628 0.0
H108 H 0.82663 0.95947 0.16527 0.0
H109 H 0.84123 0.99461 0.02984 0.0
H110 H 1.00824 0.85237 0.20351 0.0
H111 H 0.75071 0.93599 0.1408 0.0
H112 H 0.74267 0.93663 0.09921 0.0
H113 H 0.96965 0.82007 0.2253 0.0
H114 H 0.75881 0.95008 0.06058 0.0
N115 N 0.8234 0.9547 0.1291 0.0
C116 C 0.81424 0.95484 0.15086 0.0
C117 C 0.77096 0.9417 0.1373 0.0
C118 C 0.78 0.94509 0.11508 0.0
C119 C 0.78808 0.94761 0.15522 0.0
C120 C 0.80662 0.95232 0.11136 0.0
H121 H 0.79524 0.97275 0.0347 0.0
N122 N 0.84116 0.96899 0.08608 0.0
C123 C 0.83382 0.98467 0.04646 0.0
C124 C 0.81572 0.9596 0.08937 0.0
C125 C 0.8502 0.98378 0.06518 0.0
C126 C 0.80791 0.97203 0.04926 0.0
C127 C 0.79846 0.96018 0.0709 0.0
O128 O 0.88417 0.03617 0.13357 0.0
O129 O 0.90708 0.93208 0.12668 0.0
O130 O 0.90385 0.90215 0.16655 0.0
O131 O 0.86923 0.95877 0.157 0.0
O132 O 0.90322 0.97691 0.09724 0.0
O133 O 0.85298 0.04338 0.11003 0.0
O134 O 0.89474 0.76126 0.14601 0.0
O135 O 0.86611 0.8741 0.12715 0.0
O136 O 0.86834 0.90273 0.08979 0.0
O137 O 0.90374 0.848 0.0977 0.0
O138 O 0.86842 0.82362 0.15487 0.0
O139 O 0.91844 0.77421 0.11667 0.0
C140 C 0.91956 0.95379 0.11064 0.0
C141 C 0.88438 0.11233 0.10906 0.0
C142 C 0.90233 0.20393 0.1069 0.0
C143 C 0.88833 0.16395 0.11878 0.0
C144 C 0.91206 0.19176 0.0853 0.0
C145 C 0.894 0.10189 0.08729 0.0
C146 C 0.90781 0.1412 0.07557 0.0
C147 C 0.88642 0.93969 0.17155 0.0
C148 C 0.87037 0.06934 0.12145 0.0
C149 C 0.77226 0.95044 0.0746 0.0
C150 C 0.76307 0.94282 0.09661 0.0
C151 C 0.85278 0.85004 0.14199 0.0
C152 C 0.92543 0.69373 0.1377 0.0
C153 C 0.9184 0.63909 0.13439 0.0
C154 C 0.93477 0.59664 0.14171 0.0
C155 C 0.95781 0.61004 0.15288 0.0
C156 C 0.94879 0.70559 0.1484 0.0
C157 C 0.96473 0.66404 0.1561 0.0
C158 C 0.88592 0.867 0.08372 0.0
C159 C 0.90841 0.73834 0.13026 0.0
H160 H 0.88087 0.17268 0.13552 0.0
H161 H 0.92268 0.22182 0.07574 0.0
H162 H 0.89079 0.06344 0.07917 0.0
H163 H 0.91517 0.13249 0.05882 0.0
H164 H 0.90056 0.62981 0.12577 0.0
H165 H 0.97055 0.57867 0.15921 0.0
H166 H 0.95476 0.74697 0.15078 0.0
H167 H 0.9826 0.67375 0.16455 0.0
Eu168 Eu 0.15889 0.96293 0.37852 0.0
C169 C 0.07229 0.83224 0.32975 0.0
C170 C 0.03404 0.84806 0.35213 0.0
C171 C 0.03021 0.82978 0.31185 0.0
C172 C 0.06102 0.84435 0.3503 0.0
C173 C 0.05699 0.82343 0.3104 0.0
C174 C 0.01875 0.84216 0.33269 0.0
C175 C 0.0955 0.79773 0.29018 0.0
N176 N 0.09815 0.82585 0.32899 0.0
C177 C 0.10984 0.80703 0.30982 0.0
C178 C 0.06899 0.80674 0.29037 0.0
Eu179 Eu 0.12131 0.84308 0.36271 0.0
N180 N 0.07633 0.84884 0.36881 0.0
C181 C 0.06574 0.85274 0.3899 0.0
C182 C 0.02319 0.85567 0.37356 0.0
C183 C 0.0391 0.8571 0.39257 0.0
H184 H 0.13035 0.80029 0.30951 0.0
H185 H 0.03089 0.86175 0.40928 0.0
H186 H 0.99801 0.84545 0.33372 0.0
H187 H 0.1049 0.78383 0.27491 0.0
H188 H 0.07775 0.85407 0.40475 0.0
H189 H 0.24816 0.93986 0.33075 0.0
H190 H 1.00256 0.85892 0.37568 0.0
H191 H 0.15092 1.00109 0.43252 0.0
H192 H 0.20142 0.95071 0.33587 0.0
H193 H 0.177 1.01148 0.46726 0.0
H194 H 0.01814 0.82373 0.29712 0.0
H195 H 0.27698 0.93924 0.36407 0.0
H196 H 0.28229 0.94988 0.40612 0.0
H197 H 0.05791 0.79944 0.27515 0.0
H198 H 0.26297 0.96972 0.44324 0.0
N199 N 0.20357 0.95465 0.37181 0.0
C200 C 0.21374 0.95064 0.35057 0.0
C201 C 0.25645 0.94396 0.36644 0.0
C202 C 0.24603 0.95131 0.38806 0.0
C203 C 0.24025 0.94445 0.34759 0.0
C204 C 0.21916 0.95703 0.3902 0.0
H205 H 0.22379 0.99345 0.46616 0.0
N206 N 0.18258 0.97627 0.41224 0.0
C207 C 0.18605 0.9992 0.45158 0.0
C208 C 0.20834 0.96835 0.41106 0.0
C209 C 0.17136 0.99344 0.4319 0.0
C210 C 0.21244 0.98882 0.4509 0.0
C211 C 0.22399 0.974 0.4304 0.0
O212 O 0.14758 0.04578 0.3873 0.0
O213 O 0.11948 0.93154 0.37078 0.0
O214 O 0.11791 0.9032 0.33361 0.0
O215 O 0.15453 0.95524 0.34015 0.0
O216 O 0.1223 0.98347 0.39794 0.0
O217 O 0.17043 0.03126 0.35728 0.0
O218 O 0.1341 0.7604 0.35522 0.0
O219 O 0.16082 0.87437 0.37048 0.0
O220 O 0.16215 0.90192 0.40676 0.0
O221 O 0.12413 0.85432 0.40133 0.0
O222 O 0.1577 0.82436 0.34284 0.0
O223 O 0.11083 0.77552 0.38486 0.0
C224 C 0.10647 0.95611 0.38571 0.0
C225 C 0.17562 0.11566 0.3759 0.0
C226 C 0.17919 0.21443 0.37903 0.0
C227 C 0.16477 0.16774 0.37375 0.0
C228 C 0.20468 0.20783 0.38658 0.0
C229 C 0.20105 0.11015 0.38342 0.0
C230 C 0.21546 0.15607 0.38873 0.0
C231 C 0.13505 0.93985 0.32717 0.0
C232 C 0.16003 0.06764 0.37048 0.0
C233 C 0.25064 0.966 0.42854 0.0
C234 C 0.26164 0.95467 0.40741 0.0
C235 C 0.17374 0.85065 0.35525 0.0
C236 C 0.10673 0.68988 0.36706 0.0
C237 C 0.11805 0.63831 0.36961 0.0
C238 C 0.10407 0.59087 0.36456 0.0
C239 C 0.0786 0.5962 0.35676 0.0
C240 C 0.08133 0.69405 0.35933 0.0
C241 C 0.06739 0.6474 0.3542 0.0
C242 C 0.14358 0.87025 0.41425 0.0
C243 C 0.12179 0.73887 0.37216 0.0
H244 H 0.14518 0.17178 0.36771 0.0
H245 H 0.21622 0.24263 0.39114 0.0
H246 H 0.20974 0.07049 0.38519 0.0
H247 H 0.23505 0.15154 0.39462 0.0
H248 H 0.13762 0.63526 0.37579 0.0
H249 H 0.06742 0.56079 0.35232 0.0
H250 H 0.07228 0.73325 0.35725 0.0
H251 H 0.04782 0.65095 0.34814 0.0
Eu252 Eu 0.86845 0.0784 0.38263 0.0
C253 C 0.95594 0.19512 0.33249 0.0
C254 C 0.99247 0.18075 0.35726 0.0
C255 C 0.99896 0.18652 0.31664 0.0
C256 C 0.9657 0.18738 0.35412 0.0
C257 C 0.97263 0.19674 0.31365 0.0
C258 C 1.00885 0.17846 0.33841 0.0
C259 C 0.93675 0.22549 0.29061 0.0
N260 N 0.93049 0.20553 0.33004 0.0
C261 C 0.92102 0.22366 0.30976 0.0
C262 C 0.96258 0.21089 0.29246 0.0
Eu263 Eu 0.90468 0.1965 0.36291 0.0
N264 N 0.94939 0.19007 0.37212 0.0
C265 C 0.95925 0.19246 0.39361 0.0
C266 C 1.00219 0.17851 0.37929 0.0
C267 C 0.98557 0.18568 0.3975 0.0
H268 H 0.90098 0.23431 0.30816 0.0
H269 H 0.99302 0.18605 0.41461 0.0
H270 H 0.02935 0.17248 0.34055 0.0
H271 H 0.92891 0.23801 0.27445 0.0
H272 H 0.94732 0.1991 0.40812 0.0
H273 H 0.77804 0.0943 0.33595 0.0
H274 H 0.02257 0.17329 0.38239 0.0
H275 H 0.87733 0.05115 0.43775 0.0
H276 H 0.82476 0.08139 0.34056 0.0
H277 H 0.85211 0.05121 0.47331 0.0
H278 H 1.01197 0.18677 0.30232 0.0
H279 H 0.75039 0.10664 0.36962 0.0
H280 H 0.74631 0.10831 0.41201 0.0
H281 H 0.97478 0.21259 0.27762 0.0
H282 H 0.76645 0.09656 0.44941 0.0
N283 N 0.82373 0.08774 0.37646 0.0
C284 C 0.81293 0.08649 0.3554 0.0
C285 C 0.7709 0.10101 0.37176 0.0
C286 C 0.78192 0.09903 0.39336 0.0
C287 C 0.78643 0.09387 0.35271 0.0
C288 C 0.80874 0.0919 0.3952 0.0
H289 H 0.80581 0.07429 0.47243 0.0
N290 N 0.84567 0.07527 0.41729 0.0
C291 C 0.84289 0.06109 0.4574 0.0
C292 C 0.82005 0.0855 0.41628 0.0
C293 C 0.85707 0.0609 0.43729 0.0
C294 C 0.81677 0.07437 0.45683 0.0
C295 C 0.80492 0.0858 0.43606 0.0
O296 O 0.87858 0.9979 0.39554 0.0
O297 O 0.90756 0.10821 0.37192 0.0
O298 O 0.89994 0.14151 0.3322 0.0
O299 O 0.87193 0.07324 0.3443 0.0
O300 O 0.90615 0.06149 0.40094 0.0
O301 O 0.85517 1.00503 0.36543 0.0
O302 O 0.88679 0.26764 0.37903 0.0
O303 O 0.86548 0.16515 0.37123 0.0
O304 O 0.86603 0.14514 0.40855 0.0
O305 O 0.90452 0.1892 0.40175 0.0
O306 O 0.86889 0.20786 0.34137 0.0
O307 O 0.91751 0.27923 0.35545 0.0
C308 C 0.9213 0.08595 0.38703 0.0
C309 C 0.84856 0.92804 0.38881 0.0
C310 C 0.83886 0.83122 0.39293 0.0
C311 C 0.85483 0.8732 0.38473 0.0
C312 C 0.81696 0.84525 0.40567 0.0
C313 C 0.82635 0.94056 0.40116 0.0
C314 C 0.81078 0.89945 0.40966 0.0
C315 C 0.88578 0.09778 0.32855 0.0
C316 C 0.86523 0.97199 0.38033 0.0
C317 C 0.77838 0.09559 0.43439 0.0
C318 C 0.76691 0.10226 0.41308 0.0
C319 C 0.85271 0.18492 0.35488 0.0
C320 C 0.88491 0.34619 0.35596 0.0
C321 C 0.88167 0.39771 0.36601 0.0
C322 C 0.86673 0.43799 0.3551 0.0
C323 C 0.85528 0.4261 0.33413 0.0
C324 C 0.87365 0.33615 0.33478 0.0
C325 C 0.85884 0.37566 0.32405 0.0
C326 C 0.88521 0.17591 0.4153 0.0
C327 C 0.89984 0.30291 0.36744 0.0
H328 H 0.87177 0.86342 0.37486 0.0
H329 H 0.80457 0.81424 0.41267 0.0
H330 H 0.821 0.98204 0.40426 0.0
H331 H 0.7938 0.90966 0.41936 0.0
H332 H 0.89042 0.40617 0.38228 0.0
H333 H 0.8439 0.45633 0.3253 0.0
H334 H 0.87635 0.29795 0.32633 0.0
H335 H 0.85019 0.36723 0.30776 0.0
Eu336 Eu 0.90715 0.84311 0.86329 0.0
C337 C 0.82116 0.9702 0.91277 0.0
C338 C 0.78292 0.95301 0.89054 0.0
C339 C 0.7793 0.96868 0.93104 0.0
C340 C 0.80984 0.95849 0.89216 0.0
C341 C 0.80599 0.97654 0.93236 0.0
C342 C 0.7678 0.95692 0.91016 0.0
C343 C 0.84439 1.00233 0.95268 0.0
N344 N 0.84693 0.97801 0.91344 0.0
C345 C 0.85859 0.99589 0.93277 0.0
C346 C 0.81801 0.99197 0.95256 0.0
Eu347 Eu 0.86981 0.9637 0.87936 0.0
N348 N 0.82497 0.95557 0.87349 0.0
C349 C 0.81425 0.95131 0.85246 0.0
C350 C 0.77196 0.94536 0.86915 0.0
C351 C 0.78767 0.94534 0.85 0.0
H352 H 0.87903 1.00353 0.93294 0.0
H353 H 0.77934 0.94052 0.83333 0.0
H354 H 0.74712 0.95229 0.90928 0.0
H355 H 0.85379 1.01515 0.96811 0.0
H356 H 0.82617 0.95099 0.83753 0.0
H357 H 0.99881 0.86484 0.90776 0.0
H358 H 0.75138 0.9408 0.86719 0.0
H359 H 0.89703 0.7952 0.81109 0.0
H360 H 0.9519 0.85663 0.90429 0.0
H361 H 0.92159 0.77609 0.77622 0.0
H362 H 0.76734 0.9729 0.94594 0.0
H363 H 0.02621 0.86039 0.87361 0.0
H364 H 0.02965 0.84449 0.83172 0.0
H365 H 0.80703 0.99716 0.96799 0.0
H366 H 1.00863 0.81991 0.79585 0.0
N367 N 0.9523 0.84958 0.86837 0.0
C368 C 0.96347 0.85459 0.8892 0.0
C369 C 1.00554 0.85691 0.87195 0.0
C370 C 0.99414 0.84804 0.85084 0.0
C371 C 0.99016 0.85926 0.89126 0.0
C372 C 0.96712 0.84408 0.84962 0.0
H373 H 0.96843 0.79298 0.77513 0.0
N374 N 0.92953 0.82353 0.82938 0.0
C375 C 0.93131 0.79169 0.79103 0.0
C376 C 0.95536 0.83042 0.82947 0.0
C377 C 0.91747 0.80251 0.81082 0.0
C378 C 0.95773 0.80145 0.79046 0.0
C379 C 0.97017 0.82019 0.80994 0.0
O380 O 0.89389 0.76034 0.85687 0.0
O381 O 0.86784 0.87487 0.87188 0.0
O382 O 0.86788 0.90397 0.90823 0.0
O383 O 0.90561 0.85553 0.90194 0.0
O384 O 0.8703 0.82391 0.84438 0.0
O385 O 0.91855 0.77622 0.88552 0.0
O386 O 0.88126 0.04657 0.88775 0.0
O387 O 0.90889 0.93195 0.87053 0.0
O388 O 0.90853 0.90061 0.83309 0.0
O389 O 0.87289 0.95537 0.84089 0.0
O390 O 0.90709 0.98448 0.89759 0.0
O391 O 0.8577 0.03188 0.85819 0.0
C392 C 0.85461 0.85077 0.85699 0.0
C393 C 0.92192 0.68999 0.86803 0.0
C394 C 0.92407 0.59106 0.8645 0.0
C395 C 0.91034 0.63868 0.87006 0.0
C396 C 0.94961 0.59591 0.85691 0.0
C397 C 0.94736 0.69369 0.86039 0.0
C398 C 0.96109 0.64685 0.85488 0.0
C399 C 0.88671 0.87222 0.91536 0.0
C400 C 0.90705 0.73925 0.87345 0.0
C401 C 0.99694 0.82699 0.81074 0.0
C402 C 1.00891 0.84098 0.83116 0.0
C403 C 0.92245 0.95688 0.88492 0.0
C404 C 0.85288 0.11657 0.87671 0.0
C405 C 0.86367 0.16854 0.8744 0.0
C406 C 0.84935 0.21539 0.87991 0.0
C407 C 0.824 0.20908 0.88779 0.0
C408 C 0.8276 0.11136 0.8846 0.0
C409 C 0.81328 0.15745 0.8901 0.0
C410 C 0.89121 0.93763 0.82709 0.0
C411 C 0.86838 0.06834 0.87112 0.0
H412 H 0.89054 0.63604 0.87565 0.0
H413 H 0.96089 0.56026 0.85282 0.0
H414 H 0.95662 0.73269 0.85871 0.0
H415 H 0.98075 0.65001 0.84906 0.0
H416 H 0.88335 0.17231 0.86859 0.0
H417 H 0.81227 0.2441 0.89187 0.0
H418 H 0.81894 0.0718 0.88648 0.0
H419 H 0.79374 0.15315 0.89611 0.0
Eu420 Eu 0.1217 0.19832 0.8622 0.0
C421 C 0.217 0.07591 0.89567 0.0
C422 C 0.24701 0.09696 0.86563 0.0
C423 C 0.26266 0.08353 0.90397 0.0
C424 C 0.22164 0.08782 0.87319 0.0
C425 C 0.23758 0.07178 0.91117 0.0
C426 C 0.26737 0.09619 0.88123 0.0
C427 C 0.2076 0.03787 0.93894 0.0
N428 N 0.19262 0.06417 0.90204 0.0
C429 C 0.18795 0.04213 0.92289 0.0
C430 C 0.23247 0.05379 0.93319 0.0
Eu431 Eu 0.15989 0.07481 0.87436 0.0
N432 N 0.20154 0.08816 0.85852 0.0
C433 C 0.20583 0.09383 0.83578 0.0
C434 C 0.25126 0.10539 0.84253 0.0
C435 C 0.23062 0.10296 0.82751 0.0
H436 H 0.16884 0.02872 0.92723 0.0
H437 H 0.23375 0.10859 0.80955 0.0
H438 H 0.28691 0.10382 0.87577 0.0
H439 H 0.20359 0.02193 0.95565 0.0
H440 H 0.19028 0.09286 0.82379 0.0
H441 H 0.03208 0.17155 0.90947 0.0
H442 H 0.27043 0.11268 0.83607 0.0
H443 H 0.12893 0.25295 0.81059 0.0
H444 H 0.07869 0.18122 0.90461 0.0
H445 H 0.10274 0.27292 0.77665 0.0
H446 H 0.27866 0.08128 0.91569 0.0
H447 H 1.0032 0.17727 0.8763 0.0
H448 H 0.99783 0.19589 0.83476 0.0
H449 H 0.24775 0.05002 0.94557 0.0
H450 H 0.01706 0.22386 0.79854 0.0
N451 N 0.07679 0.1905 0.86876 0.0
C452 C 0.06653 0.18391 0.88989 0.0
C453 C 0.02376 0.18148 0.87401 0.0
C454 C 0.03418 0.19214 0.85265 0.0
C455 C 0.03998 0.17841 0.89277 0.0
C456 C 0.0611 0.19705 0.85058 0.0
H457 H 0.05609 0.25373 0.77683 0.0
N458 N 0.09758 0.22097 0.82942 0.0
C459 C 0.09382 0.25573 0.79157 0.0
C460 C 0.07184 0.2129 0.83026 0.0
C461 C 0.10857 0.24452 0.81081 0.0
C462 C 0.06752 0.24468 0.79171 0.0
C463 C 0.0561 0.22404 0.81136 0.0
O464 O 0.13503 0.28149 0.85662 0.0
O465 O 0.16138 0.16534 0.86961 0.0
O466 O 0.15812 0.12232 0.90689 0.0
O467 O 0.1243 0.18328 0.90044 0.0
O468 O 0.15775 0.21878 0.84273 0.0
O469 O 0.11093 0.26361 0.88537 0.0
O470 O 0.15258 0.99299 0.88713 0.0
O471 O 0.12051 0.10856 0.86808 0.0
O472 O 0.11899 0.14769 0.83024 0.0
O473 O 0.14854 0.07769 0.83718 0.0
O474 O 0.12376 0.05147 0.89363 0.0
O475 O 0.16707 1.00384 0.85312 0.0
C476 C 0.17391 0.19152 0.85475 0.0
C477 C 0.10709 0.35085 0.86881 0.0
C478 C 0.10455 0.4499 0.8663 0.0
C479 C 0.11866 0.40215 0.87089 0.0
C480 C 0.07876 0.44523 0.8594 0.0
C481 C 0.08136 0.34733 0.86193 0.0
C482 C 0.06732 0.39431 0.85723 0.0
C483 C 0.14068 0.15754 0.91393 0.0
C484 C 0.12217 0.30143 0.87355 0.0
C485 C 0.02945 0.2161 0.81294 0.0
C486 C 0.0185 0.20016 0.83356 0.0
C487 C 0.10778 0.08129 0.88241 0.0
C488 C 0.17766 0.92191 0.87204 0.0
C489 C 0.16725 0.86939 0.87112 0.0
C490 C 0.18296 0.82329 0.8744 0.0
C491 C 0.20933 0.83097 0.87867 0.0
C492 C 0.20397 0.92854 0.87624 0.0
C493 C 0.21968 0.8832 0.87956 0.0
C494 C 0.13256 0.10489 0.82387 0.0
C495 C 0.16068 0.96911 0.86882 0.0
H496 H 0.1385 0.40478 0.87636 0.0
H497 H 0.06747 0.48095 0.85537 0.0
H498 H 0.0721 0.30834 0.86021 0.0
H499 H 0.04749 0.39126 0.85185 0.0
H500 H 0.14695 0.86459 0.86756 0.0
H501 H 0.22193 0.79665 0.88164 0.0
H502 H 0.21233 0.96861 0.87695 0.0
H503 H 0.23997 0.88856 0.8829 0.0
Eu504 Eu 0.90622 0.19918 0.63552 0.0
C505 C 0.81917 0.07389 0.58727 0.0
C506 C 0.7817 0.09059 0.61059 0.0
C507 C 0.77671 0.07648 0.5701 0.0
C508 C 0.80855 0.08493 0.60824 0.0
C509 C 0.80333 0.06837 0.56804 0.0
C510 C 0.76591 0.08759 0.59133 0.0
C511 C 0.84101 0.0426 0.54661 0.0
N512 N 0.8449 0.06571 0.5859 0.0
C513 C 0.85588 0.04819 0.56619 0.0
C514 C 0.81466 0.05339 0.54746 0.0
Eu515 Eu 0.86892 0.07863 0.61946 0.0
N516 N 0.8243 0.08693 0.62654 0.0
C517 C 0.8143 0.09038 0.64786 0.0
C518 C 0.77146 0.09743 0.6323 0.0
C519 C 0.78781 0.09645 0.65104 0.0
H520 H 0.8763 0.04024 0.56547 0.0
H521 H 0.78005 0.10063 0.66794 0.0
H522 H 0.74527 0.09238 0.59278 0.0
H523 H 0.84987 0.0301 0.53088 0.0
H524 H 0.82672 0.09004 0.66248 0.0
H525 H 0.9968 0.17779 0.58922 0.0
H526 H 0.75095 0.10209 0.63482 0.0
H527 H 0.8978 0.24582 0.68819 0.0
H528 H 0.95005 0.18734 0.5936 0.0
H529 H 0.92314 0.26021 0.72305 0.0
H530 H 0.76424 0.07292 0.55549 0.0
H531 H 0.025 0.17877 0.62293 0.0
H532 H 0.02947 0.1913 0.66494 0.0
H533 H 0.80316 0.04885 0.53229 0.0
H534 H 1.00941 0.21393 0.70147 0.0
N535 N 0.95127 0.19192 0.62958 0.0
C536 C 0.96195 0.18794 0.60851 0.0
C537 C 1.00439 0.1829 0.62498 0.0
C538 C 0.99352 0.19066 0.64639 0.0
C539 C 0.98855 0.18251 0.60592 0.0
C540 C 0.96657 0.19559 0.64812 0.0
H541 H 0.96983 0.24073 0.72322 0.0
N542 N 0.92962 0.21659 0.66916 0.0
C543 C 0.93244 0.24529 0.70789 0.0
C544 C 0.95536 0.20835 0.6686 0.0
C545 C 0.91816 0.23719 0.68813 0.0
C546 C 0.95876 0.23408 0.70794 0.0
C547 C 0.97066 0.21641 0.68801 0.0
O548 O 0.89334 0.28202 0.64272 0.0
O549 O 0.86687 0.16734 0.62731 0.0
O550 O 0.86637 0.13898 0.59079 0.0
O551 O 0.90401 0.18741 0.59691 0.0
O552 O 0.86954 0.21846 0.65475 0.0
O553 O 0.91687 0.26661 0.61335 0.0
O554 O 0.88008 0.99621 0.60985 0.0
O555 O 0.9081 0.11028 0.62795 0.0
O556 O 0.90726 0.1429 0.66596 0.0
O557 O 0.87326 0.08387 0.6579 0.0
O558 O 0.90582 0.05878 0.60053 0.0
O559 O 0.85783 1.00931 0.64034 0.0
C560 C 0.85377 0.19138 0.64237 0.0
C561 C 0.92105 0.35218 0.63113 0.0
C562 C 0.92433 0.45117 0.63338 0.0
C563 C 0.91012 0.40405 0.62825 0.0
C564 C 0.9496 0.44521 0.64159 0.0
C565 C 0.94626 0.34741 0.63928 0.0
C566 C 0.96041 0.39373 0.64449 0.0
C567 C 0.88504 0.17083 0.5836 0.0
C568 C 0.90586 0.30343 0.62589 0.0
C569 C 0.99735 0.20851 0.68669 0.0
C570 C 1.00877 0.19562 0.66589 0.0
C571 C 0.92139 0.08578 0.61317 0.0
C572 C 0.85235 0.92566 0.6212 0.0
C573 C 0.86293 0.87337 0.62363 0.0
C574 C 0.84833 0.82688 0.61835 0.0
C575 C 0.82299 0.83393 0.61049 0.0
C576 C 0.82705 0.93155 0.6134 0.0
C577 C 0.8125 0.88587 0.60805 0.0
C578 C 0.8907 0.1046 0.67176 0.0
C579 C 0.86801 0.97354 0.62671 0.0
H580 H 0.8907 0.40759 0.62177 0.0
H581 H 0.96094 0.48035 0.64609 0.0
H582 H 0.95501 0.30797 0.64162 0.0
H583 H 0.97982 0.38971 0.65087 0.0
H584 H 0.88241 0.86901 0.62991 0.0
H585 H 0.81134 0.79931 0.6059 0.0
H586 H 0.81856 0.97135 0.61145 0.0
H587 H 0.79302 0.89072 0.60194 0.0
Eu588 Eu 0.12089 0.84082 0.63414 0.0
C589 C 0.20795 0.96712 0.58597 0.0
C590 C 0.24569 0.94933 0.60885 0.0
C591 C 0.25021 0.96536 0.56843 0.0
C592 C 0.21882 0.95513 0.60676 0.0
C593 C 0.22356 0.97346 0.56664 0.0
C594 C 0.26126 0.9533 0.5895 0.0
C595 C 0.18558 0.99962 0.54564 0.0
N596 N 0.18219 0.97515 0.58485 0.0
C597 C 0.17094 0.99315 0.56531 0.0
C598 C 0.21197 0.98911 0.54624 0.0
Eu599 Eu 0.15858 0.96093 0.61855 0.0
N600 N 0.20328 0.95222 0.62517 0.0
C601 C 0.21351 0.94764 0.64638 0.0
C602 C 0.25617 0.94134 0.63043 0.0
C603 C 0.24003 0.94133 0.6493 0.0
H604 H 0.15051 1.00093 0.56477 0.0
H605 H 0.24799 0.93626 0.66611 0.0
H606 H 0.28191 0.94846 0.59074 0.0
H607 H 0.17651 1.01257 0.53005 0.0
H608 H 0.20125 0.94734 0.66109 0.0
H609 H 0.03015 0.86255 0.58816 0.0
H610 H 0.27671 0.93654 0.63275 0.0
H611 H 0.13015 0.79536 0.68698 0.0
H612 H 0.07701 0.85391 0.5924 0.0
H613 H 0.10492 0.77781 0.72161 0.0
H614 H 0.26251 0.96959 0.55374 0.0
H615 H 1.00208 0.85904 0.62191 0.0
H616 H 0.99782 0.84406 0.66382 0.0
H617 H 0.22328 0.99431 0.531 0.0
H618 H 0.01816 0.82047 0.70017 0.0
N619 N 0.07587 0.84746 0.62832 0.0
C620 C 0.06512 0.85226 0.60731 0.0
C621 C 0.02271 0.85536 0.6239 0.0
C622 C 0.03371 0.84679 0.64523 0.0
C623 C 0.03848 0.85718 0.60481 0.0
C624 C 0.06069 0.84256 0.64688 0.0
H625 H 0.058 0.79443 0.72176 0.0
N626 N 0.09792 0.82251 0.66787 0.0
C627 C 0.09545 0.79261 0.70649 0.0
C628 C 0.07207 0.82942 0.6673 0.0
C629 C 0.10968 0.80254 0.68684 0.0
C630 C 0.06899 0.80221 0.70653 0.0
C631 C 0.0569 0.82004 0.68668 0.0
O632 O 0.13376 0.75787 0.64114 0.0
O633 O 0.16041 0.87209 0.62626 0.0
O634 O 0.16135 0.90095 0.58995 0.0
O635 O 0.12341 0.85309 0.59557 0.0
O636 O 0.1573 0.82138 0.65381 0.0
O637 O 0.10998 0.77395 0.61187 0.0
O638 O 0.14717 0.04396 0.61005 0.0
O639 O 0.11928 0.9295 0.62642 0.0
O640 O 0.11794 0.8998 0.66356 0.0
O641 O 0.15442 0.95235 0.65692 0.0
O642 O 0.12185 0.98216 0.59943 0.0
O643 O 0.17031 0.02882 0.63988 0.0
C644 C 0.17331 0.8479 0.64144 0.0
C645 C 0.10605 0.68786 0.62946 0.0
C646 C 0.1034 0.58884 0.63213 0.0
C647 C 0.11738 0.63629 0.62701 0.0
C648 C 0.07794 0.59417 0.6399 0.0
C649 C 0.08065 0.69202 0.63717 0.0
C650 C 0.06671 0.64537 0.64236 0.0
C651 C 0.14269 0.86942 0.58253 0.0
C652 C 0.1211 0.73688 0.6243 0.0
C653 C 0.03013 0.82694 0.68541 0.0
C654 C 0.01856 0.84038 0.66472 0.0
C655 C 0.10612 0.95456 0.6117 0.0
C656 C 0.1753 0.11365 0.62142 0.0
C657 C 0.16437 0.16566 0.62355 0.0
C658 C 0.17873 0.21248 0.61826 0.0
C659 C 0.20422 0.20608 0.61072 0.0
C660 C 0.20072 0.10836 0.6139 0.0
C661 C 0.21507 0.1544 0.60859 0.0
C662 C 0.13514 0.9363 0.66999 0.0
C663 C 0.15978 0.06548 0.62683 0.0
H664 H 0.13695 0.63324 0.62086 0.0
H665 H 0.06675 0.55877 0.64438 0.0
H666 H 0.07159 0.73123 0.63918 0.0
H667 H 0.04714 0.64891 0.6484 0.0
H668 H 0.14478 0.16955 0.62958 0.0
H669 H 0.21571 0.24097 0.60615 0.0
H670 H 0.20947 0.06875 0.61214 0.0
H671 H 0.23466 0.15002 0.60271 0.0
Eu672 Eu 0.65705 0.5811 0.11904 0.0
C673 C 0.57287 0.7104 0.17146 0.0
C674 C 0.53331 0.69512 0.15086 0.0
C675 C 0.53203 0.71063 0.19147 0.0
C676 C 0.56034 0.69945 0.15136 0.0
C677 C 0.55883 0.71714 0.19168 0.0
C678 C 0.51929 0.69962 0.17109 0.0
C679 C 0.59857 0.74023 0.21047 0.0
N680 N 0.59873 0.71676 0.17106 0.0
C681 C 0.61161 0.73343 0.18998 0.0
C682 C 0.57209 0.73145 0.2114 0.0
Eu683 Eu 0.61977 0.70161 0.13606 0.0
N684 N 0.57447 0.69555 0.13211 0.0
C685 C 0.56255 0.69105 0.11158 0.0
C686 C 0.52114 0.68761 0.12999 0.0
C687 C 0.53581 0.68632 0.11024 0.0
H688 H 0.63211 0.73997 0.1894 0.0
H689 H 0.52656 0.68144 0.09396 0.0
H690 H 0.49855 0.69584 0.17107 0.0
H691 H 0.60894 0.75221 0.22554 0.0
H692 H 0.57352 0.68975 0.09613 0.0
H693 H 0.75032 0.60689 0.16028 0.0
H694 H 0.50044 0.68388 0.1289 0.0
H695 H 0.6451 0.53438 0.06692 0.0
H696 H 0.70338 0.59549 0.15847 0.0
H697 H 0.66798 0.52132 0.03061 0.0
H698 H 0.52093 0.71518 0.20687 0.0
H699 H 0.77608 0.60605 0.12509 0.0
H700 H 0.77769 0.59277 0.08294 0.0
H701 H 0.56201 0.73694 0.22728 0.0
H702 H 0.75528 0.56927 0.04759 0.0
N703 N 0.70224 0.59003 0.12253 0.0
C704 C 0.71429 0.59495 0.14297 0.0
C705 C 0.75542 0.60112 0.12418 0.0
C706 C 0.74314 0.59247 0.10343 0.0
C707 C 0.74096 0.60144 0.14408 0.0
C708 C 0.71619 0.58651 0.10319 0.0
H709 H 0.71442 0.54177 0.02796 0.0
N710 N 0.67798 0.56428 0.08415 0.0
C711 C 0.67823 0.53621 0.04528 0.0
C712 C 0.70366 0.57315 0.08336 0.0
C713 C 0.66533 0.54364 0.06582 0.0
C714 C 0.70442 0.54794 0.04384 0.0
C715 C 0.71759 0.56563 0.06313 0.0
O716 O 0.64481 0.49761 0.11286 0.0
O717 O 0.61842 0.61314 0.12881 0.0
O718 O 0.61885 0.64117 0.16512 0.0
O719 O 0.65657 0.59366 0.15741 0.0
O720 O 0.61869 0.55767 0.10291 0.0
O721 O 0.67046 0.51481 0.14073 0.0
O722 O 0.63248 0.78428 0.14331 0.0
O723 O 0.65893 0.67057 0.1261 0.0
O724 O 0.65588 0.63724 0.08891 0.0
O725 O 0.61947 0.68884 0.0975 0.0
O726 O 0.65723 0.72168 0.15371 0.0
O727 O 0.60774 0.76942 0.11458 0.0
C728 C 0.604 0.58692 0.11556 0.0
C729 C 0.67392 0.42851 0.12322 0.0
C730 C 0.67683 0.32952 0.1202 0.0
C731 C 0.66294 0.3768 0.12598 0.0
C732 C 0.70189 0.33519 0.11154 0.0
C733 C 0.69889 0.43303 0.11455 0.0
C734 C 0.71277 0.38654 0.10877 0.0
C735 C 0.63771 0.60808 0.17127 0.0
C736 C 0.65886 0.47724 0.12903 0.0
C737 C 0.74426 0.57432 0.06301 0.0
C738 C 0.75702 0.58772 0.08313 0.0
C739 C 0.67256 0.69527 0.14061 0.0
C740 C 0.60434 0.85494 0.13273 0.0
C741 C 0.61551 0.9065 0.13007 0.0
C742 C 0.60177 0.95394 0.13588 0.0
C743 C 0.57667 0.94858 0.14451 0.0
C744 C 0.57933 0.85075 0.14133 0.0
C745 C 0.56561 0.89739 0.14718 0.0
C746 C 0.63681 0.66979 0.08307 0.0
C747 C 0.61922 0.80597 0.12691 0.0
H748 H 0.6437 0.37351 0.13285 0.0
H749 H 0.71298 0.29995 0.10655 0.0
H750 H 0.70764 0.4724 0.11222 0.0
H751 H 0.73201 0.39032 0.102 0.0
H752 H 0.63479 0.90956 0.12325 0.0
H753 H 0.56568 0.98393 0.14953 0.0
H754 H 0.57043 0.81153 0.14357 0.0
H755 H 0.54634 0.89384 0.15391 0.0
Eu756 Eu 0.36796 0.46879 0.12699 0.0
C757 C 0.4517 0.32667 0.1664 0.0
C758 C 0.48947 0.35044 0.14467 0.0
C759 C 0.49388 0.32371 0.1841 0.0
C760 C 0.4626 0.34425 0.14639 0.0
C761 C 0.46727 0.31469 0.18531 0.0
C762 C 0.50496 0.34158 0.16381 0.0
C763 C 0.42957 0.27977 0.20419 0.0
N764 N 0.42602 0.31763 0.16685 0.0
C765 C 0.415 0.29183 0.18492 0.0
C766 C 0.45576 0.29205 0.20453 0.0
Eu767 Eu 0.40236 0.34094 0.13388 0.0
N768 N 0.44711 0.35169 0.12817 0.0
C769 C 0.4574 0.36164 0.10733 0.0
C770 C 0.50003 0.36332 0.12356 0.0
C771 C 0.48396 0.36787 0.10472 0.0
H772 H 0.39473 0.28239 0.18468 0.0
H773 H 0.49196 0.37681 0.08823 0.0
H774 H 0.52561 0.34675 0.16288 0.0
H775 H 0.42062 0.26088 0.21873 0.0
H776 H 0.4452 0.3659 0.09267 0.0
H777 H 0.33159 0.583 0.1995 0.0
H778 H 0.52057 0.36842 0.12152 0.0
H779 H 0.3346 0.41519 0.0836 0.0
H780 H 0.36433 0.54999 0.17236 0.0
H781 H 0.28975 0.39537 0.07355 0.0
H782 H 0.50614 0.31533 0.19853 0.0
H783 H 0.28618 0.55533 0.19512 0.0
H784 H 0.25258 0.50772 0.172 0.0
H785 H 0.46705 0.28228 0.21941 0.0
H786 H 0.24116 0.45742 0.13751 0.0
N787 N 0.33786 0.50192 0.15376 0.0
C788 C 0.34452 0.53765 0.17046 0.0
C789 C 0.30049 0.54051 0.18331 0.0
C790 C 0.29347 0.50774 0.16499 0.0
C791 C 0.32607 0.55634 0.18581 0.0
C792 C 0.31283 0.48948 0.15011 0.0
H793 H 0.25477 0.4168 0.10045 0.0
N794 N 0.3254 0.44783 0.11596 0.0
C795 C 0.29416 0.41393 0.08968 0.0
C796 C 0.30639 0.46175 0.13058 0.0
C797 C 0.31964 0.42531 0.09547 0.0
C798 C 0.27448 0.42594 0.10493 0.0
C799 C 0.28041 0.45074 0.12556 0.0
O800 O 0.35731 0.5231 0.09919 0.0
O801 O 0.40688 0.42875 0.12451 0.0
O802 O 0.40309 0.38831 0.16722 0.0
O803 O 0.36641 0.44187 0.16364 0.0
O804 O 0.40455 0.49962 0.14338 0.0
O805 O 0.37889 0.55458 0.12738 0.0
O806 O 0.3887 0.25729 0.13778 0.0
O807 O 0.36363 0.37806 0.12576 0.0
O808 O 0.37856 0.44026 0.09202 0.0
O809 O 0.39873 0.35613 0.09594 0.0
O810 O 0.36505 0.32001 0.15133 0.0
O811 O 0.41531 0.27649 0.11113 0.0
C812 C 0.41996 0.46304 0.13569 0.0
C813 C 0.34941 0.61464 0.11006 0.0
C814 C 0.34432 0.71345 0.11337 0.0
C815 C 0.36017 0.66686 0.1121 0.0
C816 C 0.31747 0.70651 0.11244 0.0
C817 C 0.32258 0.60908 0.10949 0.0
C818 C 0.30678 0.65479 0.11061 0.0
C819 C 0.38488 0.41966 0.1759 0.0
C820 C 0.36635 0.56641 0.10898 0.0
C821 C 0.26118 0.46608 0.14096 0.0
C822 C 0.26769 0.49461 0.16063 0.0
C823 C 0.35005 0.35074 0.13962 0.0
C824 C 0.41757 0.18808 0.12683 0.0
C825 C 0.40615 0.13687 0.12358 0.0
C826 C 0.4201 0.08876 0.128 0.0
C827 C 0.4455 0.09294 0.136 0.0
C828 C 0.44289 0.19101 0.13488 0.0
C829 C 0.45671 0.14367 0.13946 0.0
C830 C 0.38949 0.39642 0.08349 0.0
C831 C 0.403 0.23807 0.12165 0.0
H832 H 0.38087 0.6709 0.11304 0.0
H833 H 0.30462 0.74111 0.11284 0.0
H834 H 0.31378 0.56946 0.10811 0.0
H835 H 0.28612 0.65016 0.10999 0.0
H836 H 0.38663 0.13455 0.11725 0.0
H837 H 0.45663 0.0569 0.13988 0.0
H838 H 0.45203 0.22985 0.13752 0.0
H839 H 0.47623 0.14629 0.1457 0.0
Eu840 Eu 0.66016 0.46661 0.37796 0.0
C841 C 0.57299 0.34012 0.32897 0.0
C842 C 0.53479 0.35399 0.35165 0.0
C843 C 0.53091 0.34061 0.31104 0.0
C844 C 0.56176 0.35001 0.34976 0.0
C845 C 0.55768 0.33424 0.30943 0.0
C846 C 0.51948 0.35046 0.33212 0.0
C847 C 0.59618 0.31185 0.28854 0.0
N848 N 0.59885 0.33366 0.32805 0.0
C849 C 0.61052 0.31769 0.30841 0.0
C850 C 0.56967 0.32077 0.28898 0.0
Eu851 Eu 0.62204 0.34718 0.36208 0.0
N852 N 0.57709 0.35279 0.36831 0.0
C853 C 0.56655 0.35547 0.38945 0.0
C854 C 0.52398 0.35988 0.37319 0.0
C855 C 0.53992 0.35978 0.3922 0.0
H856 H 0.63103 0.31105 0.30795 0.0
H857 H 0.53173 0.36329 0.40897 0.0
H858 H 0.49876 0.35398 0.33322 0.0
H859 H 0.60559 0.30048 0.2729 0.0
H860 H 0.57858 0.35569 0.4043 0.0
H861 H 0.75112 0.44195 0.33276 0.0
H862 H 0.50336 0.36325 0.37537 0.0
H863 H 0.65033 0.50589 0.4316 0.0
H864 H 0.70426 0.45241 0.33659 0.0
H865 H 0.67519 0.51793 0.46689 0.0
H866 H 0.51883 0.3367 0.29619 0.0
H867 H 0.77883 0.44368 0.36677 0.0
H868 H 0.78276 0.45698 0.40878 0.0
H869 H 0.55859 0.31597 0.27359 0.0
H870 H 0.76215 0.47792 0.44526 0.0
N871 N 0.70513 0.45855 0.37251 0.0
C872 C 0.71603 0.45342 0.3516 0.0
C873 C 0.75823 0.44836 0.36857 0.0
C874 C 0.74708 0.45679 0.38983 0.0
C875 C 0.74265 0.44745 0.34933 0.0
C876 C 0.72013 0.46217 0.39125 0.0
H877 H 0.7221 0.50127 0.46704 0.0
N878 N 0.68276 0.48149 0.41219 0.0
C879 C 0.68482 0.5055 0.4515 0.0
C880 C 0.7086 0.47417 0.41172 0.0
C881 C 0.67082 0.49879 0.43149 0.0
C882 C 0.71129 0.49591 0.45153 0.0
C883 C 0.72358 0.48081 0.43141 0.0
O884 O 0.64853 0.54998 0.38548 0.0
O885 O 0.62071 0.43552 0.37007 0.0
O886 O 0.61943 0.40862 0.33343 0.0
O887 O 0.65758 0.45527 0.33966 0.0
O888 O 0.6233 0.48844 0.39685 0.0
O889 O 0.67181 0.5335 0.35592 0.0
O890 O 0.63401 0.26456 0.35358 0.0
O891 O 0.66156 0.37782 0.37014 0.0
O892 O 0.66288 0.4061 0.40641 0.0
O893 O 0.62489 0.35829 0.40076 0.0
O894 O 0.65863 0.32672 0.34278 0.0
O895 O 0.61163 0.27883 0.38385 0.0
C896 C 0.60756 0.46058 0.38474 0.0
C897 C 0.67664 0.61925 0.37361 0.0
C898 C 0.67983 0.71821 0.3764 0.0
C899 C 0.66554 0.67113 0.37139 0.0
C900 C 0.70543 0.71217 0.38374 0.0
C901 C 0.70216 0.61437 0.38095 0.0
C902 C 0.71644 0.66065 0.38597 0.0
C903 C 0.63802 0.4413 0.32656 0.0
C904 C 0.66119 0.57075 0.36856 0.0
C905 C 0.75032 0.47338 0.43028 0.0
C906 C 0.76206 0.4614 0.40952 0.0
C907 C 0.67459 0.35319 0.35522 0.0
C908 C 0.60692 0.19372 0.36564 0.0
C909 C 0.61819 0.14203 0.36804 0.0
C910 C 0.6041 0.09468 0.363 0.0
C911 C 0.57856 0.10026 0.35544 0.0
C912 C 0.58147 0.19813 0.35808 0.0
C913 C 0.5674 0.15159 0.35302 0.0
C914 C 0.64422 0.37448 0.4138 0.0
C915 C 0.62213 0.24254 0.37067 0.0
H916 H 0.64587 0.6747 0.36552 0.0
H917 H 0.71688 0.74724 0.38812 0.0
H918 H 0.71103 0.57489 0.38282 0.0
H919 H 0.73611 0.65659 0.39171 0.0
H920 H 0.63782 0.13881 0.37405 0.0
H921 H 0.56728 0.06498 0.35103 0.0
H922 H 0.57249 0.23745 0.35606 0.0
H923 H 0.54778 0.1553 0.3471 0.0
Eu924 Eu 0.36822 0.5749 0.38067 0.0
C925 C 0.45364 0.69903 0.32792 0.0
C926 C 0.49248 0.68742 0.35001 0.0
C927 C 0.49524 0.69833 0.30918 0.0
C928 C 0.46545 0.69076 0.34859 0.0
C929 C 0.46841 0.70393 0.30802 0.0
C930 C 0.50726 0.69008 0.33014 0.0
C931 C 0.42923 0.72374 0.28759 0.0
N932 N 0.42773 0.70478 0.32743 0.0
C933 C 0.41545 0.71889 0.3078 0.0
C934 C 0.45581 0.71565 0.28764 0.0
Eu935 Eu 0.40548 0.69328 0.36207 0.0
N936 N 0.45061 0.68871 0.36746 0.0
C937 C 0.46172 0.68723 0.38841 0.0
C938 C 0.50387 0.68289 0.37138 0.0
C939 C 0.48842 0.68355 0.39068 0.0
H940 H 0.39489 0.7249 0.30765 0.0
H941 H 0.49706 0.68102 0.40733 0.0
H942 H 0.52802 0.68705 0.33087 0.0
H943 H 0.41936 0.73372 0.27199 0.0
H944 H 0.45009 0.68752 0.4035 0.0
H945 H 0.27544 0.59498 0.33805 0.0
H946 H 0.52456 0.68003 0.37319 0.0
H947 H 0.38049 0.54113 0.43469 0.0
H948 H 0.32247 0.5852 0.34055 0.0
H949 H 0.35718 0.5326 0.47096 0.0
H950 H 0.50691 0.70153 0.29405 0.0
H951 H 0.24916 0.59586 0.37293 0.0
H952 H 0.24706 0.58673 0.41528 0.0
H953 H 0.46646 0.71967 0.27197 0.0
H954 H 0.26925 0.56943 0.4514 0.0
N955 N 0.32306 0.58202 0.37655 0.0
C956 C 0.3113 0.58538 0.35592 0.0
C957 C 0.26984 0.59158 0.37415 0.0
C958 C 0.28189 0.58513 0.39517 0.0
C959 C 0.2846 0.59096 0.35442 0.0
C960 C 0.30889 0.57995 0.39581 0.0
H961 H 0.31026 0.54867 0.47231 0.0
N962 N 0.34716 0.56286 0.41586 0.0
C963 C 0.34686 0.54319 0.45566 0.0
C964 C 0.32131 0.56991 0.41609 0.0
C965 C 0.35999 0.54789 0.43509 0.0
C966 C 0.32038 0.55244 0.45636 0.0
C967 C 0.3072 0.56525 0.43637 0.0
O968 O 0.37997 0.49204 0.38908 0.0
O969 O 0.40727 0.60569 0.37134 0.0
O970 O 0.40737 0.62941 0.3343 0.0
O971 O 0.36946 0.58342 0.34226 0.0
O972 O 0.40583 0.55472 0.39885 0.0
O973 O 0.35601 0.50664 0.35972 0.0
O974 O 0.39341 0.77533 0.35263 0.0
O975 O 0.36624 0.66296 0.37136 0.0
O976 O 0.3658 0.63834 0.40783 0.0
O977 O 0.40384 0.68486 0.40095 0.0
O978 O 0.36835 0.71187 0.3432 0.0
O979 O 0.41583 0.76288 0.38305 0.0
C980 C 0.42106 0.58181 0.38592 0.0
C981 C 0.35189 0.42171 0.37829 0.0
C982 C 0.34879 0.32272 0.38108 0.0
C983 C 0.36276 0.36983 0.3754 0.0
C984 C 0.3237 0.32873 0.38966 0.0
C985 C 0.32692 0.42659 0.38694 0.0
C986 C 0.31293 0.38026 0.39256 0.0
C987 C 0.38875 0.59555 0.32854 0.0
C988 C 0.36703 0.47021 0.37257 0.0
C989 C 0.28042 0.57247 0.43597 0.0
C990 C 0.26779 0.58237 0.41541 0.0
C991 C 0.35275 0.68629 0.35633 0.0
C992 C 0.42014 0.84729 0.36416 0.0
C993 C 0.40893 0.8989 0.36695 0.0
C994 C 0.42277 0.94637 0.36155 0.0
C995 C 0.44806 0.94102 0.35337 0.0
C996 C 0.44532 0.84308 0.35592 0.0
C997 C 0.45918 0.88977 0.3506 0.0
C998 C 0.38466 0.67024 0.41447 0.0
C999 C 0.40516 0.79835 0.36954 0.0
H1000 H 0.38223 0.36633 0.36903 0.0
H1001 H 0.31222 0.29356 0.39388 0.0
H1002 H 0.31824 0.46609 0.38932 0.0
H1003 H 0.2936 0.38429 0.39914 0.0
H1004 H 0.38932 0.90191 0.373 0.0
H1005 H 0.45944 0.97649 0.34939 0.0
H1006 H 0.45425 0.80381 0.35363 0.0
H1007 H 0.47866 0.88625 0.34433 0.0
Eu1008 Eu 0.40511 0.34165 0.86373 0.0
C1009 C 0.30884 0.46325 0.86484 0.0
C1010 C 0.29695 0.50995 0.83023 0.0
C1011 C 0.26391 0.46866 0.85361 0.0
C1012 C 0.31587 0.49109 0.84547 0.0
C1013 C 0.2827 0.4527 0.86935 0.0
C1014 C 0.27102 0.49733 0.8341 0.0
C1015 C 0.29542 0.41537 0.9055 0.0
N1016 N 0.32742 0.44891 0.87984 0.0
C1017 C 0.32109 0.42641 0.90022 0.0
C1018 C 0.27617 0.4278 0.88985 0.0
Eu1019 Eu 0.37032 0.46933 0.8697 0.0
N1020 N 0.34103 0.50305 0.84232 0.0
C1021 C 0.34829 0.53869 0.82574 0.0
C1022 C 0.30457 0.54277 0.81208 0.0
C1023 C 0.3303 0.55799 0.81006 0.0
H1024 H 0.33574 0.41598 0.91238 0.0
H1025 H 0.33628 0.58467 0.79649 0.0
H1026 H 0.25624 0.51093 0.82246 0.0
H1027 H 0.29055 0.39677 0.92153 0.0
H1028 H 0.36821 0.55055 0.82423 0.0
H1029 H 0.49507 0.37728 0.90885 0.0
H1030 H 0.29062 0.55808 0.80002 0.0
H1031 H 0.39713 0.28205 0.81322 0.0
H1032 H 0.44825 0.36666 0.90465 0.0
H1033 H 0.42274 0.26021 0.77911 0.0
H1034 H 0.24377 0.4604 0.85668 0.0
H1035 H 0.52343 0.36868 0.87544 0.0
H1036 H 0.52814 0.34683 0.83409 0.0
H1037 H 0.25632 0.41898 0.89395 0.0
H1038 H 0.50839 0.31511 0.79863 0.0
N1039 N 0.4499 0.35231 0.86917 0.0
C1040 C 0.46035 0.36227 0.88995 0.0
C1041 C 0.50286 0.36366 0.8735 0.0
C1042 C 0.49214 0.35072 0.85248 0.0
C1043 C 0.48693 0.36834 0.89241 0.0
C1044 C 0.46525 0.34463 0.8509 0.0
H1045 H 0.46915 0.28177 0.77808 0.0
N1046 N 0.42852 0.31772 0.83074 0.0
C1047 C 0.4318 0.27932 0.79352 0.0
C1048 C 0.4542 0.32679 0.83102 0.0
C1049 C 0.41738 0.29157 0.81284 0.0
C1050 C 0.45797 0.2917 0.79299 0.0
C1051 C 0.46963 0.3146 0.81207 0.0
O1052 O 0.39129 0.25799 0.86055 0.0
O1053 O 0.36625 0.3786 0.87151 0.0
O1054 O 0.38001 0.44088 0.90487 0.0
O1055 O 0.40164 0.35823 0.90161 0.0
O1056 O 0.36794 0.31964 0.84636 0.0
O1057 O 0.4184 0.27785 0.88673 0.0
O1058 O 0.359 0.52341 0.89728 0.0
O1059 O 0.40924 0.42964 0.87262 0.0
O1060 O 0.40576 0.38835 0.83016 0.0
O1061 O 0.36886 0.44146 0.83322 0.0
O1062 O 0.40701 0.50013 0.85342 0.0
O1063 O 0.38164 0.55488 0.86972 0.0
C1064 C 0.35283 0.35061 0.85779 0.0
C1065 C 0.42049 0.18925 0.87133 0.0
C1066 C 0.4226 0.09001 0.86949 0.0
C1067 C 0.40881 0.13816 0.87408 0.0
C1068 C 0.44814 0.094 0.86187 0.0
C1069 C 0.44596 0.19206 0.86363 0.0
C1070 C 0.45964 0.14465 0.85892 0.0
C1071 C 0.39158 0.39811 0.91373 0.0
C1072 C 0.40596 0.23918 0.87655 0.0
C1073 C 0.49624 0.32364 0.8131 0.0
C1074 C 0.50749 0.34169 0.83328 0.0
C1075 C 0.42238 0.4637 0.86137 0.0
C1076 C 0.35186 0.61519 0.88633 0.0
C1077 C 0.36295 0.66714 0.88468 0.0
C1078 C 0.3474 0.71412 0.88311 0.0
C1079 C 0.3205 0.70782 0.8833 0.0
C1080 C 0.32499 0.61023 0.88618 0.0
C1081 C 0.30948 0.65633 0.88472 0.0
C1082 C 0.38745 0.4191 0.82119 0.0
C1083 C 0.36855 0.56665 0.88779 0.0
H1084 H 0.38917 0.13596 0.88013 0.0
H1085 H 0.45916 0.05791 0.85788 0.0
H1086 H 0.4553 0.23083 0.86134 0.0
H1087 H 0.47927 0.14716 0.85295 0.0
H1088 H 0.3837 0.67069 0.88429 0.0
H1089 H 0.30785 0.74274 0.88263 0.0
H1090 H 0.31596 0.57079 0.88725 0.0
H1091 H 0.28878 0.65217 0.88479 0.0
Eu1092 Eu 0.62314 0.69956 0.86229 0.0
C1093 C 0.71674 0.5779 0.89715 0.0
C1094 C 0.74699 0.59654 0.86699 0.0
C1095 C 0.76234 0.58665 0.9056 0.0
C1096 C 0.72155 0.58803 0.87453 0.0
C1097 C 0.73723 0.57518 0.9128 0.0
C1098 C 0.76721 0.59737 0.88273 0.0
C1099 C 0.70723 0.54256 0.94081 0.0
N1100 N 0.69235 0.5662 0.90353 0.0
C1101 C 0.68767 0.5453 0.92462 0.0
C1102 C 0.73205 0.55864 0.935 0.0
Eu1103 Eu 0.65981 0.57459 0.87543 0.0
N1104 N 0.7016 0.58684 0.85971 0.0
C1105 C 0.70613 0.59023 0.83692 0.0
C1106 C 0.75148 0.60252 0.8438 0.0
C1107 C 0.73101 0.59841 0.82868 0.0
H1108 H 0.66857 0.53197 0.92911 0.0
H1109 H 0.73432 0.60207 0.81066 0.0
H1110 H 0.78678 0.60461 0.87727 0.0
H1111 H 0.70318 0.52771 0.95768 0.0
H1112 H 0.69075 0.58783 0.82481 0.0
H1113 H 0.53242 0.67109 0.90781 0.0
H1114 H 0.77071 0.60915 0.83736 0.0
H1115 H 0.63167 0.75496 0.81102 0.0
H1116 H 0.57913 0.68019 0.90382 0.0
H1117 H 0.60628 0.77626 0.77675 0.0
H1118 H 0.77825 0.5855 0.91743 0.0
H1119 H 0.50427 0.6792 0.87424 0.0
H1120 H 0.49985 0.69961 0.83278 0.0
H1121 H 0.74726 0.55601 0.9475 0.0
H1122 H 0.51996 0.72836 0.79703 0.0
N1123 N 0.57805 0.69193 0.86805 0.0
C1124 C 0.56732 0.6841 0.88893 0.0
C1125 C 0.52488 0.68329 0.87233 0.0
C1126 C 0.5358 0.69486 0.85125 0.0
C1127 C 0.5407 0.67885 0.89132 0.0
C1128 C 0.56277 0.69953 0.84968 0.0
H1129 H 0.55955 0.75804 0.7761 0.0
N1130 N 0.59978 0.72328 0.82922 0.0
C1131 C 0.59698 0.75893 0.79145 0.0
C1132 C 0.574 0.71571 0.82961 0.0
C1133 C 0.61127 0.74698 0.81088 0.0
C1134 C 0.57063 0.74843 0.79112 0.0
C1135 C 0.55871 0.72757 0.8105 0.0
O1136 O 0.63679 0.78253 0.85683 0.0
O1137 O 0.66239 0.6653 0.87081 0.0
O1138 O 0.65584 0.61966 0.9083 0.0
O1139 O 0.62458 0.68562 0.90066 0.0
O1140 O 0.65981 0.71856 0.84366 0.0
O1141 O 0.61228 0.76489 0.88536 0.0
O1142 O 0.6532 0.49333 0.88905 0.0
O1143 O 0.62126 0.61002 0.86775 0.0
O1144 O 0.62157 0.64985 0.82998 0.0
O1145 O 0.64886 0.57651 0.83808 0.0
O1146 O 0.62212 0.55136 0.8926 0.0
O1147 O 0.6669 0.50277 0.85471 0.0
C1148 C 0.67542 0.69091 0.85608 0.0
C1149 C 0.60872 0.85196 0.86871 0.0
C1150 C 0.60621 0.95094 0.86635 0.0
C1151 C 0.62027 0.90318 0.87097 0.0
C1152 C 0.58049 0.94641 0.85923 0.0
C1153 C 0.58305 0.84851 0.86163 0.0
C1154 C 0.56906 0.89553 0.85689 0.0
C1155 C 0.63932 0.65731 0.91469 0.0
C1156 C 0.62372 0.80259 0.87362 0.0
C1157 C 0.532 0.72006 0.8116 0.0
C1158 C 0.52056 0.70369 0.83195 0.0
C1159 C 0.60718 0.58256 0.88092 0.0
C1160 C 0.67837 0.42218 0.87412 0.0
C1161 C 0.6683 0.36943 0.87319 0.0
C1162 C 0.6843 0.32382 0.87645 0.0
C1163 C 0.71063 0.33217 0.88064 0.0
C1164 C 0.70464 0.4296 0.87827 0.0
C1165 C 0.72066 0.38471 0.88153 0.0
C1166 C 0.63424 0.60537 0.82415 0.0
C1167 C 0.66105 0.46874 0.87082 0.0
H1168 H 0.64004 0.90575 0.87663 0.0
H1169 H 0.56925 0.98221 0.8552 0.0
H1170 H 0.57379 0.80956 0.85983 0.0
H1171 H 0.54928 0.89255 0.85135 0.0
H1172 H 0.64803 0.36406 0.86964 0.0
H1173 H 0.72345 0.29817 0.88354 0.0
H1174 H 0.71273 0.46991 0.87897 0.0
H1175 H 0.74092 0.39064 0.88481 0.0
Eu1176 Eu 0.40493 0.69065 0.63474 0.0
C1177 C 0.32085 0.56835 0.57989 0.0
C1178 C 0.2813 0.58351 0.60055 0.0
C1179 C 0.28011 0.57108 0.55975 0.0
C1180 C 0.3083 0.57828 0.60009 0.0
C1181 C 0.30688 0.56378 0.55952 0.0
C1182 C 0.26734 0.58091 0.58023 0.0
C1183 C 0.34666 0.54157 0.54051 0.0
N1184 N 0.34669 0.56117 0.5803 0.0
C1185 C 0.35964 0.54618 0.56116 0.0
C1186 C 0.3202 0.55095 0.53963 0.0
Eu1187 Eu 0.36752 0.57285 0.61561 0.0
N1188 N 0.32234 0.58013 0.61943 0.0
C1189 C 0.31044 0.58325 0.63998 0.0
C1190 C 0.26911 0.58977 0.6215 0.0
C1191 C 0.28373 0.5889 0.64132 0.0
H1192 H 0.38013 0.53929 0.56169 0.0
H1193 H 0.27445 0.59274 0.65764 0.0
H1194 H 0.24661 0.5853 0.58023 0.0
H1195 H 0.35708 0.53094 0.52529 0.0
H1196 H 0.3215 0.58284 0.65542 0.0
H1197 H 0.49692 0.67937 0.59021 0.0
H1198 H 0.24842 0.59408 0.62259 0.0
H1199 H 0.39385 0.72073 0.68921 0.0
H1200 H 0.44993 0.68604 0.59367 0.0
H1201 H 0.41798 0.72828 0.72509 0.0
H1202 H 0.26905 0.56812 0.54425 0.0
H1203 H 0.52409 0.6771 0.62456 0.0
H1204 H 0.52715 0.68273 0.66694 0.0
H1205 H 0.31018 0.54723 0.52363 0.0
H1206 H 0.5057 0.69617 0.70364 0.0
N1207 N 0.45011 0.68609 0.62971 0.0
C1208 C 0.46141 0.6852 0.60885 0.0
C1209 C 0.50339 0.68004 0.62621 0.0
C1210 C 0.4918 0.68396 0.64751 0.0
C1211 C 0.48813 0.68142 0.60679 0.0
C1212 C 0.46476 0.68743 0.64871 0.0
H1213 H 0.46506 0.71392 0.72545 0.0
N1214 N 0.42685 0.701 0.66962 0.0
C1215 C 0.42799 0.71872 0.70954 0.0
C1216 C 0.45276 0.6951 0.66931 0.0
C1217 C 0.4144 0.71458 0.68919 0.0
C1218 C 0.45455 0.71045 0.70968 0.0
C1219 C 0.46734 0.69928 0.68936 0.0
O1220 O 0.3926 0.77242 0.64421 0.0
O1221 O 0.36567 0.66079 0.62509 0.0
O1222 O 0.3657 0.63651 0.58837 0.0
O1223 O 0.40362 0.68307 0.59585 0.0
O1224 O 0.36775 0.70894 0.65347 0.0
O1225 O 0.41569 0.76085 0.61417 0.0
O1226 O 0.37946 0.49007 0.60737 0.0
O1227 O 0.40649 0.60342 0.62511 0.0
O1228 O 0.40664 0.62591 0.66223 0.0
O1229 O 0.36857 0.58085 0.65405 0.0
O1230 O 0.40519 0.55263 0.5976 0.0
O1231 O 0.35511 0.50441 0.63646 0.0
C1232 C 0.3522 0.68386 0.64016 0.0
C1233 C 0.41949 0.8448 0.63341 0.0
C1234 C 0.42223 0.94389 0.63579 0.0
C1235 C 0.40852 0.89649 0.63009 0.0
C1236 C 0.44708 0.93835 0.64497 0.0
C1237 C 0.44426 0.84042 0.64255 0.0
C1238 C 0.45795 0.88702 0.64828 0.0
C1239 C 0.38469 0.66853 0.58205 0.0
C1240 C 0.40469 0.79593 0.62759 0.0
C1241 C 0.49418 0.69354 0.6884 0.0
C1242 C 0.50639 0.68588 0.66751 0.0
C1243 C 0.42034 0.57967 0.61058 0.0
C1244 C 0.35138 0.41948 0.61795 0.0
C1245 C 0.36219 0.36765 0.62128 0.0
C1246 C 0.34834 0.32041 0.61561 0.0
C1247 C 0.32347 0.32626 0.60649 0.0
C1248 C 0.32661 0.42418 0.60883 0.0
C1249 C 0.31276 0.37773 0.60316 0.0
C1250 C 0.38788 0.59222 0.66784 0.0
C1251 C 0.36636 0.4681 0.62378 0.0
H1252 H 0.38943 0.89965 0.62284 0.0
H1253 H 0.45804 0.97368 0.64992 0.0
H1254 H 0.45298 0.80108 0.64529 0.0
H1255 H 0.47704 0.88336 0.65543 0.0
H1256 H 0.38127 0.36426 0.62852 0.0
H1257 H 0.31239 0.29106 0.60158 0.0
H1258 H 0.318 0.46364 0.60608 0.0
H1259 H 0.29366 0.38163 0.59605 0.0
Eu1260 Eu 0.6213 0.34299 0.63383 0.0
C1261 C 0.70807 0.46992 0.58545 0.0
C1262 C 0.74593 0.45257 0.60824 0.0
C1263 C 0.75026 0.46846 0.56779 0.0
C1264 C 0.71903 0.45811 0.60622 0.0
C1265 C 0.72359 0.47631 0.56607 0.0
C1266 C 0.76141 0.45659 0.58884 0.0
C1267 C 0.68548 0.50198 0.54516 0.0
N1268 N 0.68229 0.47769 0.58441 0.0
C1269 C 0.67092 0.49547 0.56488 0.0
C1270 C 0.71189 0.49173 0.54569 0.0
Eu1271 Eu 0.65882 0.46333 0.61818 0.0
N1272 N 0.70356 0.45506 0.62467 0.0
C1273 C 0.71388 0.45055 0.64585 0.0
C1274 C 0.7565 0.44471 0.62979 0.0
C1275 C 0.74042 0.44451 0.64871 0.0
H1276 H 0.65047 0.50304 0.56438 0.0
H1277 H 0.74844 0.43952 0.66549 0.0
H1278 H 0.78208 0.45193 0.59002 0.0
H1279 H 0.67632 0.51475 0.52958 0.0
H1280 H 0.70167 0.45011 0.6606 0.0
H1281 H 0.53042 0.36269 0.58793 0.0
H1282 H 0.77705 0.4401 0.63206 0.0
H1283 H 0.63077 0.298 0.68671 0.0
H1284 H 0.57732 0.35492 0.59213 0.0
H1285 H 0.60566 0.28033 0.7214 0.0
H1286 H 0.76249 0.47272 0.55306 0.0
H1287 H 0.50241 0.35915 0.62171 0.0
H1288 H 0.49827 0.34463 0.66366 0.0
H1289 H 0.72313 0.49696 0.53041 0.0
H1290 H 0.51874 0.3217 0.70003 0.0
N1291 N 0.57625 0.349 0.62807 0.0
C1292 C 0.56545 0.3533 0.60706 0.0
C1293 C 0.52306 0.35587 0.62369 0.0
C1294 C 0.53411 0.34778 0.64502 0.0
C1295 C 0.53879 0.3577 0.60458 0.0
C1296 C 0.56112 0.34405 0.64666 0.0
H1297 H 0.55869 0.29636 0.7216 0.0
N1298 N 0.59844 0.32468 0.66762 0.0
C1299 C 0.59612 0.29494 0.70628 0.0
C1300 C 0.57257 0.33125 0.66708 0.0
C1301 C 0.61028 0.30494 0.68659 0.0
C1302 C 0.56963 0.30421 0.70634 0.0
C1303 C 0.55745 0.32176 0.68649 0.0
O1304 O 0.63415 0.26006 0.6409 0.0
O1305 O 0.66075 0.37455 0.62593 0.0
O1306 O 0.66166 0.40324 0.58962 0.0
O1307 O 0.62375 0.35532 0.59524 0.0
O1308 O 0.65784 0.32347 0.65336 0.0
O1309 O 0.6106 0.27613 0.61149 0.0
O1310 O 0.64738 0.54637 0.60971 0.0
O1311 O 0.61952 0.43165 0.62605 0.0
O1312 O 0.6184 0.402 0.66328 0.0
O1313 O 0.65484 0.45458 0.65655 0.0
O1314 O 0.62206 0.48443 0.59907 0.0
O1315 O 0.67039 0.53114 0.63961 0.0
C1316 C 0.67376 0.35029 0.64101 0.0
C1317 C 0.60651 0.19009 0.62906 0.0
C1318 C 0.60378 0.09108 0.6317 0.0
C1319 C 0.61782 0.1385 0.62666 0.0
C1320 C 0.57826 0.09645 0.63931 0.0
C1321 C 0.58104 0.19429 0.63662 0.0
C1322 C 0.56705 0.14767 0.64173 0.0
C1323 C 0.643 0.37173 0.58219 0.0
C1324 C 0.62161 0.23906 0.62399 0.0
C1325 C 0.53067 0.32824 0.68525 0.0
C1326 C 0.51901 0.34131 0.66454 0.0
C1327 C 0.60637 0.45663 0.61129 0.0
C1328 C 0.67551 0.61594 0.62119 0.0
C1329 C 0.66461 0.66798 0.62325 0.0
C1330 C 0.67904 0.71474 0.61803 0.0
C1331 C 0.70458 0.70827 0.61064 0.0
C1332 C 0.70099 0.61057 0.61381 0.0
C1333 C 0.71541 0.65656 0.60857 0.0
C1334 C 0.63564 0.43847 0.66969 0.0
C1335 C 0.65993 0.56784 0.62654 0.0
H1336 H 0.63744 0.13541 0.62062 0.0
H1337 H 0.56703 0.06106 0.64372 0.0
H1338 H 0.57199 0.2335 0.63858 0.0
H1339 H 0.54744 0.15125 0.64766 0.0
H1340 H 0.64498 0.67192 0.62918 0.0
H1341 H 0.71612 0.74313 0.60613 0.0
H1342 H 0.70973 0.57095 0.61211 0.0
H1343 H 0.73504 0.65212 0.6028 0.0
H1344 H 0.19933 0.23404 0.17635 0.0
H1345 H 0.32549 0.30362 0.10335 0.0
H1346 H 0.20299 0.2025 0.10473 0.0
H1347 H 0.31277 0.3571 0.17173 0.0
H1348 H 0.2819 0.26438 0.10285 0.0
H1349 H 0.24191 0.275 0.17466 0.0
C1350 C 0.20926 0.2352 0.16024 0.0
C1351 C 0.19765 0.21363 0.14077 0.0
C1352 C 0.28846 0.28546 0.11784 0.0
C1353 C 0.24683 0.26204 0.13854 0.0
C1354 C 0.31324 0.30841 0.11804 0.0
C1355 C 0.32242 0.3356 0.13732 0.0
C1356 C 0.27291 0.28841 0.13731 0.0
C1357 C 0.30622 0.33797 0.15628 0.0
C1358 C 0.23363 0.25895 0.15925 0.0
C1359 C 0.21139 0.21736 0.12029 0.0
N1360 N 0.28242 0.31491 0.15578 0.0
N1361 N 0.23525 0.24084 0.11972 0.0
H1362 H 0.82122 0.82491 0.17659 0.0
H1363 H 0.70336 0.70968 0.10221 0.0
H1364 H 0.82234 0.83174 0.10376 0.0
H1365 H 0.70384 0.72393 0.17486 0.0
H1366 H 0.74699 0.74966 0.10121 0.0
H1367 H 0.77833 0.78559 0.17523 0.0
C1368 C 0.81223 0.81873 0.16025 0.0
C1369 C 0.82528 0.8328 0.14033 0.0
C1370 C 0.73756 0.74371 0.11735 0.0
C1371 C 0.77582 0.78567 0.13847 0.0
C1372 C 0.71276 0.72036 0.11793 0.0
C1373 C 0.70003 0.71259 0.13871 0.0
C1374 C 0.74963 0.75959 0.13768 0.0
C1375 C 0.71293 0.72858 0.15848 0.0
C1376 C 0.78767 0.79594 0.15944 0.0
C1377 C 0.81277 0.8227 0.11959 0.0
N1378 N 0.73678 0.75096 0.15747 0.0
N1379 N 0.78879 0.79967 0.11918 0.0
H1380 H 0.32216 0.70312 0.39463 0.0
H1381 H 0.20421 0.82065 0.32047 0.0
H1382 H 0.32133 0.71484 0.32188 0.0
H1383 H 0.20511 0.83374 0.39315 0.0
H1384 H 0.24671 0.77878 0.32164 0.0
H1385 H 0.27894 0.7452 0.39556 0.0
C1386 C 0.31276 0.71363 0.37886 0.0
C1387 C 0.32533 0.70461 0.35808 0.0
C1388 C 0.23788 0.79103 0.33742 0.0
C1389 C 0.2761 0.75411 0.35905 0.0
C1390 C 0.21354 0.81527 0.33672 0.0
C1391 C 0.20111 0.83165 0.35666 0.0
C1392 C 0.25015 0.78173 0.3583 0.0
C1393 C 0.21411 0.82272 0.37729 0.0
C1394 C 0.28818 0.73822 0.37941 0.0
C1395 C 0.31238 0.72045 0.33826 0.0
N1396 N 0.23785 0.79823 0.37759 0.0
N1397 N 0.28871 0.74409 0.33924 0.0
H1398 H 0.82176 0.21137 0.31969 0.0
H1399 H 0.70609 0.34038 0.39316 0.0
H1400 H 0.82298 0.21139 0.39258 0.0
H1401 H 0.7051 0.32091 0.32072 0.0
H1402 H 0.74939 0.29887 0.39412 0.0
H1403 H 0.77958 0.25505 0.32047 0.0
C1404 C 0.81296 0.22002 0.33592 0.0
C1405 C 0.82579 0.20651 0.35606 0.0
C1406 C 0.73975 0.30404 0.37801 0.0
C1407 C 0.77721 0.25831 0.35719 0.0
C1408 C 0.71511 0.32826 0.37744 0.0
C1409 C 0.70202 0.33493 0.35675 0.0
C1410 C 0.75134 0.28608 0.35777 0.0
C1411 C 0.71448 0.3171 0.33702 0.0
C1412 C 0.78883 0.24526 0.33638 0.0
C1413 C 0.81357 0.21985 0.37661 0.0
N1414 N 0.73823 0.29378 0.33802 0.0
N1415 N 0.79002 0.24498 0.37666 0.0
H1416 H 0.70575 0.72167 0.82155 0.0
H1417 H 0.82386 0.83633 0.89532 0.0
H1418 H 0.7068 0.70594 0.89415 0.0
H1419 H 0.82358 0.82027 0.82273 0.0
H1420 H 0.78052 0.79522 0.89648 0.0
H1421 H 0.7483 0.76229 0.82276 0.0
C1422 C 0.71515 0.72618 0.83781 0.0
C1423 C 0.70282 0.70905 0.85768 0.0
C1424 C 0.78993 0.801 0.88032 0.0
C1425 C 0.75191 0.75781 0.85939 0.0
C1426 C 0.81455 0.82501 0.87963 0.0
C1427 C 0.82726 0.83261 0.85882 0.0
C1428 C 0.77797 0.78438 0.86006 0.0
C1429 C 0.81449 0.81579 0.83912 0.0
C1430 C 0.73952 0.74969 0.83852 0.0
C1431 C 0.71582 0.71725 0.87833 0.0
N1432 N 0.79076 0.79285 0.84023 0.0
N1433 N 0.73963 0.74112 0.87867 0.0
H1434 H 0.32832 0.30351 0.89409 0.0
H1435 H 0.20284 0.23143 0.8207 0.0
H1436 H 0.31565 0.35662 0.82557 0.0
H1437 H 0.20634 0.19997 0.89237 0.0
H1438 H 0.24522 0.27322 0.8225 0.0
H1439 H 0.28489 0.2635 0.89449 0.0
C1440 C 0.3161 0.30805 0.87935 0.0
C1441 C 0.32524 0.33533 0.86005 0.0
C1442 C 0.23695 0.25701 0.83789 0.0
C1443 C 0.27596 0.28729 0.85996 0.0
C1444 C 0.21271 0.23278 0.83685 0.0
C1445 C 0.20111 0.21103 0.8563 0.0
C1446 C 0.25003 0.26038 0.85866 0.0
C1447 C 0.21474 0.21499 0.87683 0.0
C1448 C 0.29142 0.28468 0.8795 0.0
C1449 C 0.30912 0.33743 0.84102 0.0
N1450 N 0.23849 0.23895 0.87746 0.0
N1451 N 0.28541 0.31395 0.84147 0.0
H1452 H 0.70509 0.33667 0.60302 0.0
H1453 H 0.82293 0.21934 0.67715 0.0
H1454 H 0.7044 0.31835 0.67553 0.0
H1455 H 0.82251 0.20791 0.60441 0.0
H1456 H 0.78004 0.25944 0.67598 0.0
H1457 H 0.74854 0.2957 0.60215 0.0
C1458 C 0.7142 0.32486 0.61877 0.0
C1459 C 0.70117 0.33184 0.63946 0.0
C1460 C 0.78906 0.2479 0.66019 0.0
C1461 C 0.75066 0.28368 0.63855 0.0
C1462 C 0.81362 0.2247 0.66088 0.0
C1463 C 0.82627 0.20924 0.64092 0.0
C1464 C 0.77682 0.25716 0.6393 0.0
C1465 C 0.81332 0.21817 0.62028 0.0
C1466 C 0.7389 0.30093 0.61825 0.0
C1467 C 0.71373 0.31437 0.65923 0.0
N1468 N 0.78937 0.24169 0.61998 0.0
N1469 N 0.73756 0.29149 0.65829 0.0
H1470 H 0.20374 0.81725 0.67618 0.0
H1471 H 0.3217 0.70155 0.60186 0.0
H1472 H 0.20465 0.83195 0.60353 0.0
H1473 H 0.32079 0.71153 0.67464 0.0
H1474 H 0.27847 0.74365 0.60097 0.0
H1475 H 0.24625 0.77545 0.67495 0.0
C1476 C 0.21308 0.81223 0.65992 0.0
C1477 C 0.20066 0.82902 0.64001 0.0
C1478 C 0.2877 0.73629 0.61712 0.0
C1479 C 0.24969 0.77923 0.63829 0.0
C1480 C 0.31227 0.7117 0.61764 0.0
C1481 C 0.32481 0.70221 0.63842 0.0
C1482 C 0.27561 0.75167 0.63751 0.0
C1483 C 0.31185 0.71754 0.65826 0.0
C1484 C 0.23741 0.78804 0.65919 0.0
C1485 C 0.21366 0.82059 0.61937 0.0
N1486 N 0.28819 0.74119 0.65731 0.0
N1487 N 0.23739 0.79614 0.61903 0.0
H1488 H 0.16074 0.02878 0.31097 0.0
H1489 H 0.11724 1.0039 0.18443 0.0
H1490 H 0.10231 0.91329 0.2922 0.0
H1491 H 0.1323 0.16086 0.21349 0.0
H1492 H 0.11623 0.96451 0.22262 0.0
H1493 H 0.15566 0.07289 0.27416 0.0
C1494 C 0.14696 1.01229 0.29912 0.0
C1495 C 0.13224 0.96638 0.30468 0.0
C1496 C 0.11941 1.00768 0.22064 0.0
C1497 C 0.12656 1.01682 0.26238 0.0
C1498 C 0.12001 0.0301 0.19894 0.0
C1499 C 0.12467 0.08566 0.19596 0.0
C1500 C 0.12437 0.04077 0.23943 0.0
C1501 C 0.12834 0.11796 0.21519 0.0
C1502 C 0.14397 0.03787 0.27817 0.0
C1503 C 0.11447 0.94764 0.28859 0.0
N1504 N 0.12856 0.09486 0.23616 0.0
N1505 N 0.11238 0.97244 0.26805 0.0
H1506 H 0.88066 0.99123 0.31684 0.0
H1507 H 0.8785 0.04529 0.18325 0.0
H1508 H 0.88947 0.15046 0.28763 0.0
H1509 H 0.89278 0.88782 0.2124 0.0
H1510 H 0.87816 0.08443 0.22138 0.0
H1511 H 0.88076 0.95232 0.2787 0.0
C1512 C 0.88261 1.01805 0.3024 0.0
C1513 C 0.88542 0.07421 0.30546 0.0
C1514 C 0.88157 0.04132 0.21942 0.0
C1515 C 0.88536 0.02996 0.26172 0.0
C1516 C 0.88167 1.01893 0.19768 0.0
C1517 C 0.88622 0.96326 0.19461 0.0
C1518 C 0.88555 1.00762 0.23832 0.0
C1519 C 0.89009 0.93101 0.2139 0.0
C1520 C 0.8828 0.99578 0.28064 0.0
C1521 C 0.8879 0.10696 0.28613 0.0
N1522 N 0.88955 0.95355 0.23492 0.0
N1523 N 0.8877 0.08443 0.2651 0.0
H1524 H 0.88883 0.1584 0.71224 0.0
H1525 H 0.91929 0.90375 0.79002 0.0
H1526 H 0.89536 0.99842 0.6835 0.0
H1527 H 0.86626 0.02838 0.81145 0.0
H1528 H 0.91981 0.94419 0.75208 0.0
H1529 H 0.88994 0.11797 0.75036 0.0
C1530 C 0.89086 0.1149 0.714 0.0
C1531 C 0.89214 0.08162 0.69482 0.0
C1532 C 0.90804 0.96239 0.76516 0.0
C1533 C 0.89363 0.03534 0.7381 0.0
C1534 C 0.90762 0.93919 0.78681 0.0
C1535 C 0.89227 0.96172 0.80396 0.0
C1536 C 0.89369 1.00959 0.76082 0.0
C1537 C 0.87813 1.00893 0.79879 0.0
C1538 C 0.89128 0.09187 0.73567 0.0
C1539 C 0.89426 0.02533 0.69795 0.0
N1540 N 0.87932 0.03147 0.77777 0.0
N1541 N 0.89517 1.0039 0.71919 0.0
H1542 H 0.13455 0.16012 0.78367 0.0
H1543 H 0.10344 0.90706 0.7053 0.0
H1544 H 0.12353 1.00057 0.81195 0.0
H1545 H 0.1603 0.02577 0.68619 0.0
H1546 H 0.10042 0.94965 0.74264 0.0
H1547 H 0.13328 0.12037 0.74543 0.0
C1548 C 0.13135 0.11698 0.78177 0.0
C1549 C 0.12909 0.08343 0.80083 0.0
C1550 C 0.11353 0.96616 0.73018 0.0
C1551 C 0.12743 0.03814 0.75754 0.0
C1552 C 0.11542 0.94166 0.70892 0.0
C1553 C 0.13263 0.9618 0.69266 0.0
C1554 C 0.1283 1.01225 0.73498 0.0
C1555 C 0.14705 1.00813 0.69822 0.0
C1556 C 0.13086 0.09434 0.76006 0.0
C1557 C 0.12542 0.02762 0.79758 0.0
N1558 N 0.14446 0.03195 0.71885 0.0
N1559 N 0.12456 1.00666 0.77632 0.0
H1560 H 0.59651 0.45023 0.29789 0.0
H1561 H 0.67829 0.56449 0.19436 0.0
H1562 H 0.67773 0.48386 0.30222 0.0
H1563 H 0.59721 0.59861 0.20089 0.0
H1564 H 0.67788 0.52282 0.23187 0.0
H1565 H 0.59584 0.49203 0.26006 0.0
C1566 C 0.6142 0.46605 0.29086 0.0
C1567 C 0.63721 0.46368 0.30328 0.0
C1568 C 0.6602 0.53958 0.22513 0.0
C1569 C 0.63655 0.51106 0.26012 0.0
C1570 C 0.66039 0.56332 0.20369 0.0
C1571 C 0.63776 0.58519 0.19447 0.0
C1572 C 0.63713 0.53671 0.23738 0.0
C1573 C 0.61514 0.58252 0.20742 0.0
C1574 C 0.61375 0.49017 0.26937 0.0
C1575 C 0.65953 0.48502 0.29336 0.0
N1576 N 0.61534 0.55829 0.22817 0.0
N1577 N 0.65866 0.50752 0.27237 0.0
H1578 H 0.42883 0.58853 0.2981 0.0
H1579 H 0.34477 0.44023 0.20392 0.0
H1580 H 0.34977 0.54113 0.30778 0.0
H1581 H 0.4276 0.43787 0.20208 0.0
H1582 H 0.34639 0.48183 0.24132 0.0
H1583 H 0.42897 0.53987 0.26178 0.0
C1584 C 0.4115 0.56823 0.29257 0.0
C1585 C 0.38924 0.56904 0.30603 0.0
C1586 C 0.36427 0.47173 0.23292 0.0
C1587 C 0.38934 0.51331 0.26467 0.0
C1588 C 0.36333 0.44787 0.21159 0.0
C1589 C 0.38607 0.43577 0.19993 0.0
C1590 C 0.38814 0.48436 0.24265 0.0
C1591 C 0.40963 0.44638 0.21062 0.0
C1592 C 0.41167 0.54012 0.27195 0.0
C1593 C 0.3674 0.54166 0.29808 0.0
N1594 N 0.41008 0.47079 0.23132 0.0
N1595 N 0.36799 0.51522 0.27795 0.0
H1596 H 0.43028 0.43465 0.79487 0.0
H1597 H 0.34846 0.53912 0.68857 0.0
H1598 H 0.34746 0.44019 0.79296 0.0
H1599 H 0.42805 0.58267 0.6981 0.0
H1600 H 0.34928 0.491 0.72454 0.0
H1601 H 0.43134 0.47551 0.7568 0.0
C1602 C 0.41236 0.44354 0.78626 0.0
C1603 C 0.38874 0.43445 0.79706 0.0
C1604 C 0.36658 0.51111 0.71882 0.0
C1605 C 0.3898 0.48119 0.75386 0.0
C1606 C 0.36615 0.5387 0.69824 0.0
C1607 C 0.38821 0.56525 0.69028 0.0
C1608 C 0.3893 0.50935 0.73161 0.0
C1609 C 0.41055 0.56312 0.70365 0.0
C1610 C 0.41298 0.46734 0.7647 0.0
C1611 C 0.36608 0.44701 0.78529 0.0
N1612 N 0.41056 0.53544 0.72366 0.0
N1613 N 0.36718 0.46982 0.7644 0.0
H1614 H 0.63656 0.66072 0.78395 0.0
H1615 H 0.60406 0.4093 0.70514 0.0
H1616 H 0.62528 0.50099 0.812 0.0
H1617 H 0.66127 0.52723 0.68601 0.0
H1618 H 0.60161 0.45123 0.74266 0.0
H1619 H 0.63512 0.62132 0.74566 0.0
C1620 C 0.63334 0.6176 0.782 0.0
C1621 C 0.63107 0.58392 0.80103 0.0
C1622 C 0.61467 0.46771 0.73016 0.0
C1623 C 0.62912 0.53903 0.75764 0.0
C1624 C 0.61623 0.44358 0.70878 0.0
C1625 C 0.63337 0.46368 0.69246 0.0
C1626 C 0.6297 0.51342 0.73499 0.0
C1627 C 0.64805 0.50963 0.69807 0.0
C1628 C 0.63272 0.59516 0.76025 0.0
C1629 C 0.62726 0.52816 0.79768 0.0
N1630 N 0.64578 0.5331 0.7188 0.0
N1631 N 0.62626 0.50742 0.77639 0.0
H1632 H 0.13444 0.07458 0.94294 0.0
H1633 H 0.13505 0.2531 0.05635 0.0
H1634 H 0.1373 0.24909 0.94073 0.0
H1635 H 0.13186 0.07866 0.05367 0.0
H1636 H 0.13312 0.25575 0.01452 0.0
H1637 H 0.13108 0.07788 0.98388 0.0
C1638 C 0.13473 0.11369 0.95122 0.0
C1639 C 0.13699 0.16147 0.9386 0.0
C1640 C 0.13283 0.21698 0.02316 0.0
C1641 C 0.13256 0.16609 0.98575 0.0
C1642 C 0.13387 0.21551 0.04693 0.0
C1643 C 0.13439 0.16546 0.05828 0.0
C1644 C 0.132 0.168 0.01093 0.0
C1645 C 0.13256 0.11792 0.0455 0.0
C1646 C 0.13251 0.11572 0.97464 0.0
C1647 C 0.13592 0.21132 0.95003 0.0
N1648 N 0.13157 0.12036 0.02261 0.0
N1649 N 0.13405 0.21242 0.97309 0.0
H1650 H 0.92797 0.84153 0.94189 0.0
H1651 H 0.84481 0.85915 0.05576 0.0
H1652 H 0.84632 0.87172 0.94466 0.0
H1653 H 0.92728 0.84174 0.05636 0.0
H1654 H 0.84504 0.85057 0.01475 0.0
H1655 H 0.92816 0.82901 0.98321 0.0
C1656 C 0.91006 0.84483 0.95111 0.0
C1657 C 0.88714 0.85832 0.93981 0.0
C1658 C 0.86314 0.84798 0.02375 0.0
C1659 C 0.88723 0.84411 0.98698 0.0
C1660 C 0.863 0.8528 0.04723 0.0
C1661 C 0.88609 0.85172 0.05948 0.0
C1662 C 0.88658 0.84225 0.0122 0.0
C1663 C 0.90905 0.84272 0.04755 0.0
C1664 C 0.9102 0.8379 0.9747 0.0
C1665 C 0.86452 0.86218 0.95264 0.0
N1666 N 0.90876 0.83901 0.02449 0.0
N1667 N 0.86518 0.85544 0.97544 0.0
H1668 H 0.18497 0.86855 0.44237 0.0
H1669 H 0.10195 0.83911 0.55563 0.0
H1670 H 0.10311 0.84116 0.44174 0.0
H1671 H 0.18353 0.86974 0.55373 0.0
H1672 H 0.1022 0.82873 0.5143 0.0
H1673 H 0.18503 0.85829 0.48331 0.0
C1674 C 0.16698 0.8599 0.45086 0.0
C1675 C 0.14393 0.85644 0.43863 0.0
C1676 C 0.12006 0.83721 0.52299 0.0
C1677 C 0.14383 0.84462 0.48578 0.0
C1678 C 0.11995 0.84291 0.54659 0.0
C1679 C 0.14269 0.85605 0.55812 0.0
C1680 C 0.1431 0.84449 0.51094 0.0
C1681 C 0.16545 0.86053 0.54553 0.0
C1682 C 0.16703 0.85397 0.4743 0.0
C1683 C 0.1213 0.8443 0.45052 0.0
N1684 N 0.16502 0.85519 0.52268 0.0
N1685 N 0.12175 0.83944 0.47351 0.0
H1686 H 0.92629 0.20106 0.55728 0.0
H1687 H 0.84398 0.19129 0.4427 0.0
H1688 H 0.84469 0.17148 0.5541 0.0
H1689 H 0.92683 0.19342 0.44336 0.0
H1690 H 0.84387 0.19987 0.48378 0.0
H1691 H 0.92674 0.21354 0.51604 0.0
C1692 C 0.90843 0.19788 0.54798 0.0
C1693 C 0.88546 0.1846 0.55915 0.0
C1694 C 0.86212 0.19919 0.47499 0.0
C1695 C 0.88585 0.19882 0.51202 0.0
C1696 C 0.8622 0.19442 0.45148 0.0
C1697 C 0.88547 0.19115 0.43955 0.0
C1698 C 0.88551 0.20079 0.48683 0.0
C1699 C 0.90846 0.19598 0.45182 0.0
C1700 C 0.90873 0.20476 0.52443 0.0
C1701 C 0.86291 0.18089 0.5462 0.0
N1702 N 0.90793 0.19995 0.47484 0.0
N1703 N 0.86371 0.18767 0.52339 0.0
H1704 H 0.65378 0.75146 0.05538 0.0
H1705 H 0.63128 0.57724 0.94503 0.0
H1706 H 0.61088 0.60236 0.05554 0.0
H1707 H 0.63846 0.75097 0.94011 0.0
H1708 H 0.62748 0.58503 0.98609 0.0
H1709 H 0.65138 0.75313 0.01362 0.0
C1710 C 0.64348 0.71973 0.04657 0.0
C1711 C 0.63242 0.67679 0.05867 0.0
C1712 C 0.62973 0.62159 0.97609 0.0
C1713 C 0.63024 0.67749 0.01138 0.0
C1714 C 0.63214 0.61709 0.95269 0.0
C1715 C 0.63548 0.66347 0.9393 0.0
C1716 C 0.63113 0.67285 0.98632 0.0
C1717 C 0.63592 0.7143 0.94996 0.0
C1718 C 0.64216 0.72058 0.02285 0.0
C1719 C 0.61961 0.6361 0.04668 0.0
N1720 N 0.63413 0.71768 0.97298 0.0
N1721 N 0.61914 0.63704 0.02369 0.0
H1722 H 0.38219 0.48081 0.94297 0.0
H1723 H 0.40578 0.31094 0.05671 0.0
H1724 H 0.40571 0.31258 0.9416 0.0
H1725 H 0.37871 0.47667 0.05323 0.0
H1726 H 0.4083 0.3096 0.01511 0.0
H1727 H 0.38358 0.47903 0.9838 0.0
C1728 C 0.38763 0.44324 0.95124 0.0
C1729 C 0.3936 0.39656 0.93872 0.0
C1730 C 0.40188 0.34614 0.02357 0.0
C1731 C 0.39519 0.39425 0.98606 0.0
C1732 C 0.40044 0.34698 0.04728 0.0
C1733 C 0.39187 0.39388 0.05854 0.0
C1734 C 0.39482 0.3926 0.01118 0.0
C1735 C 0.38525 0.43937 0.04544 0.0
C1736 C 0.38846 0.4423 0.97472 0.0
C1737 C 0.40087 0.34945 0.95059 0.0
N1738 N 0.38686 0.43747 0.0226 0.0
N1739 N 0.40133 0.34936 0.97368 0.0
H1740 H 0.68545 0.37327 0.44211 0.0
H1741 H 0.60219 0.34234 0.55517 0.0
H1742 H 0.60367 0.3449 0.44116 0.0
H1743 H 0.68387 0.37178 0.55344 0.0
H1744 H 0.60246 0.33267 0.51379 0.0
H1745 H 0.68537 0.36265 0.48301 0.0
C1746 C 0.66744 0.36433 0.45051 0.0
C1747 C 0.64446 0.36064 0.43819 0.0
C1748 C 0.62033 0.34072 0.52253 0.0
C1749 C 0.6442 0.34844 0.48534 0.0
C1750 C 0.62021 0.346 0.54615 0.0
C1751 C 0.64298 0.3586 0.55774 0.0
C1752 C 0.64341 0.34789 0.51052 0.0
C1753 C 0.66577 0.36296 0.54519 0.0
C1754 C 0.66741 0.35819 0.47394 0.0
C1755 C 0.62181 0.3482 0.45 0.0
N1756 N 0.66535 0.35804 0.52232 0.0
N1757 N 0.62218 0.34314 0.47299 0.0
H1758 H 0.42655 0.69593 0.55586 0.0
H1759 H 0.34344 0.67927 0.44229 0.0
H1760 H 0.34424 0.67617 0.55315 0.0
H1761 H 0.42597 0.69553 0.44173 0.0
H1762 H 0.34356 0.69075 0.48311 0.0
H1763 H 0.42696 0.70846 0.51455 0.0
C1764 C 0.40855 0.69521 0.54665 0.0
C1765 C 0.38536 0.6844 0.55791 0.0
C1766 C 0.36169 0.69249 0.47415 0.0
C1767 C 0.3857 0.69832 0.51084 0.0
C1768 C 0.36162 0.68594 0.45077 0.0
C1769 C 0.38477 0.68588 0.43862 0.0
C1770 C 0.38511 0.69869 0.48567 0.0
C1771 C 0.4077 0.69528 0.45048 0.0
C1772 C 0.40881 0.70206 0.52309 0.0
C1773 C 0.36262 0.68366 0.54516 0.0
N1774 N 0.40735 0.7006 0.47346 0.0
N1775 N 0.3634 0.69003 0.52237 0.0
H1776 H 0.95093 0.98019 0.07557 0.0
H1777 H 0.07076 0.08071 0.15118 0.0
H1778 H 0.94942 0.97602 0.14843 0.0
H1779 H 0.07399 0.05446 0.07918 0.0
H1780 H 0.02559 0.05016 0.15104 0.0
H1781 H 0.99492 1.01508 0.07695 0.0
C1782 C 0.95995 0.9864 0.09189 0.0
C1783 C 0.94667 0.97369 0.11187 0.0
C1784 C 0.03614 0.05139 0.13526 0.0
C1785 C 0.99724 1.015 0.1137 0.0
C1786 C 0.06187 0.06927 0.13532 0.0
C1787 C 0.07605 0.07122 0.11506 0.0
C1788 C 0.02449 0.03524 0.1148 0.0
C1789 C 0.06373 0.05432 0.09512 0.0
C1790 C 0.98512 1.00638 0.0927 0.0
C1791 C 0.95917 0.98383 0.13258 0.0
N1792 N 0.03881 0.03748 0.09548 0.0
N1793 N 0.98372 1.0037 0.13297 0.0
H1794 H 0.95101 0.06818 0.34858 0.0
H1795 H 0.0761 0.98294 0.4211 0.0
H1796 H 0.9541 0.06289 0.4214 0.0
H1797 H 0.07368 0.9665 0.34857 0.0
H1798 H 0.03163 1.01488 0.42071 0.0
H1799 H 0.99577 0.0345 0.34725 0.0
C1800 C 0.96119 0.06059 0.36427 0.0
C1801 C 0.94895 0.06963 0.38517 0.0
C1802 C 0.0406 1.00401 0.40481 0.0
C1803 C 1.0 0.02986 0.38379 0.0
C1804 C 0.06607 0.98561 0.40506 0.0
C1805 C 0.07857 0.97091 0.38492 0.0
C1806 C 0.02727 1.00902 0.38419 0.0
C1807 C 0.06466 0.97621 0.36457 0.0
C1808 C 0.98668 0.0409 0.36351 0.0
C1809 C 0.96284 0.05739 0.40493 0.0
N1810 N 0.0398 0.99486 0.36471 0.0
N1811 N 0.98747 0.03864 0.40375 0.0
H1812 H 0.07807 0.05265 0.91789 0.0
H1813 H 0.9531 0.96601 0.84649 0.0
H1814 H 0.07446 0.07432 0.8456 0.0
H1815 H 0.95446 0.98572 0.91891 0.0
H1816 H 0.998 0.99827 0.84482 0.0
H1817 H 0.03355 0.02149 0.91773 0.0
C1818 C 0.06775 0.05132 0.90196 0.0
C1819 C 0.07988 0.06736 0.88183 0.0
C1820 C 0.98847 0.99538 0.86106 0.0
C1821 C 0.02863 0.02998 0.88135 0.0
C1822 C 0.96292 0.97649 0.86204 0.0
C1823 C 0.95014 0.97214 0.88295 0.0
C1824 C 1.00133 1.00999 0.88115 0.0
C1825 C 0.96361 0.98774 0.90247 0.0
C1826 C 0.04228 0.03339 0.90185 0.0
C1827 C 0.06567 0.06363 0.86159 0.0
N1828 N 0.98833 1.00546 0.90111 0.0
N1829 N 0.04083 0.04523 0.86185 0.0
H1830 H 0.95285 0.07439 0.65106 0.0
H1831 H 0.0752 0.98247 0.5768 0.0
H1832 H 0.95263 0.05796 0.57848 0.0
H1833 H 0.07423 0.96517 0.64936 0.0
H1834 H 0.03091 1.01541 0.57792 0.0
H1835 H 0.99766 0.04069 0.65176 0.0
C1836 C 0.96232 0.06438 0.63528 0.0
C1837 C 0.94911 0.07004 0.61461 0.0
C1838 C 0.04017 1.00413 0.59366 0.0
C1839 C 1.00016 0.03043 0.6153 0.0
C1840 C 0.06552 0.98518 0.59301 0.0
C1841 C 0.07835 0.96994 0.61293 0.0
C1842 C 0.02732 1.00925 0.61451 0.0
C1843 C 0.06491 0.97531 0.63351 0.0
C1844 C 0.98781 0.04466 0.6357 0.0
C1845 C 0.96212 0.05494 0.59476 0.0
N1846 N 0.04018 0.9946 0.63378 0.0
N1847 N 0.98676 0.03631 0.5956 0.0
H1848 H 0.44557 0.48185 0.09601 0.0
H1849 H 0.57668 0.58051 0.15572 0.0
H1850 H 0.45659 0.47937 0.1682 0.0
H1851 H 0.56901 0.55623 0.08386 0.0
H1852 H 0.53221 0.54913 0.16083 0.0
H1853 H 0.49 0.51348 0.09129 0.0
C1854 C 0.45756 0.48699 0.11085 0.0
C1855 C 0.4477 0.47593 0.13247 0.0
C1856 C 0.54019 0.55089 0.14392 0.0
C1857 C 0.49846 0.51435 0.12733 0.0
C1858 C 0.56554 0.56937 0.14098 0.0
C1859 C 0.57645 0.57229 0.11925 0.0
C1860 C 0.52556 0.53484 0.125 0.0
C1861 C 0.56128 0.55545 0.10087 0.0
C1862 C 0.48288 0.50551 0.10819 0.0
C1863 C 0.46371 0.48583 0.15119 0.0
N1864 N 0.53671 0.53786 0.10413 0.0
N1865 N 0.48825 0.50418 0.14821 0.0
H1866 H 0.45179 0.57023 0.34766 0.0
H1867 H 0.57683 0.48509 0.42022 0.0
H1868 H 0.45355 0.55726 0.42035 0.0
H1869 H 0.5749 0.47134 0.34758 0.0
H1870 H 0.5321 0.51559 0.41984 0.0
H1871 H 0.49694 0.5392 0.3464 0.0
C1872 C 0.46175 0.56161 0.36336 0.0
C1873 C 0.44897 0.56755 0.38421 0.0
C1874 C 0.54125 0.5056 0.40392 0.0
C1875 C 0.50054 0.53074 0.38288 0.0
C1876 C 0.56686 0.48801 0.40416 0.0
C1877 C 0.57955 0.47439 0.38399 0.0
C1878 C 0.52799 0.51098 0.38327 0.0
C1879 C 0.56572 0.48011 0.36361 0.0
C1880 C 0.48747 0.54337 0.36262 0.0
C1881 C 0.46268 0.55407 0.40393 0.0
N1882 N 0.54074 0.49799 0.36376 0.0
N1883 N 0.48754 0.53675 0.40279 0.0
H1884 H 0.44821 0.48222 0.90093 0.0
H1885 H 0.57902 0.58132 0.84111 0.0
H1886 H 0.45888 0.4795 0.82871 0.0
H1887 H 0.57295 0.5473 0.91244 0.0
H1888 H 0.53432 0.55113 0.8361 0.0
H1889 H 0.49289 0.51244 0.90549 0.0
C1890 C 0.46016 0.48705 0.88605 0.0
C1891 C 0.45016 0.47622 0.86447 0.0
C1892 C 0.54272 0.55043 0.85287 0.0
C1893 C 0.50118 0.51299 0.86942 0.0
C1894 C 0.5682 0.56814 0.85576 0.0
C1895 C 0.57961 0.56804 0.87734 0.0
C1896 C 0.52846 0.5323 0.87168 0.0
C1897 C 0.56483 0.54886 0.89557 0.0
C1898 C 0.48563 0.50471 0.88862 0.0
C1899 C 0.46612 0.48575 0.8457 0.0
N1900 N 0.54011 0.53225 0.89238 0.0
N1901 N 0.4908 0.5033 0.84858 0.0
H1902 H 0.45093 0.56674 0.64888 0.0
H1903 H 0.57577 0.48333 0.57602 0.0
H1904 H 0.45288 0.55687 0.57612 0.0
H1905 H 0.57382 0.46643 0.64857 0.0
H1906 H 0.53119 0.51458 0.57656 0.0
H1907 H 0.49605 0.53542 0.65008 0.0
C1908 C 0.46094 0.55878 0.63316 0.0
C1909 C 0.44824 0.56563 0.61231 0.0
C1910 C 0.5403 0.50377 0.59243 0.0
C1911 C 0.49971 0.52849 0.61356 0.0
C1912 C 0.56582 0.48577 0.5921 0.0
C1913 C 0.57846 0.47109 0.61219 0.0
C1914 C 0.52707 0.50844 0.6131 0.0
C1915 C 0.56467 0.47611 0.63261 0.0
C1916 C 0.48663 0.54037 0.63386 0.0
C1917 C 0.46196 0.55296 0.59254 0.0
N1918 N 0.53976 0.49439 0.63255 0.0
N1919 N 0.48679 0.53544 0.59366 0.0
H1920 H 0.14356 0.78859 0.15418 0.0
H1921 H 0.13759 0.48979 0.10099 0.0
H1922 H 0.18954 0.73767 0.09721 0.0
H1923 H 0.09448 0.5395 0.15987 0.0
H1924 H 0.15718 0.57979 0.09948 0.0
H1925 H 0.12528 0.69757 0.15634 0.0
C1926 C 0.14973 0.75836 0.14203 0.0
C1927 C 0.16809 0.77099 0.12543 0.0
C1928 C 0.14346 0.57097 0.11275 0.0
C1929 C 0.14736 0.6662 0.12796 0.0
C1930 C 0.13236 0.51942 0.11372 0.0
C1931 C 0.11425 0.5069 0.13056 0.0
C1932 C 0.13642 0.6105 0.12873 0.0
C1933 C 0.108 0.54741 0.14636 0.0
C1934 C 0.13939 0.70623 0.14337 0.0
C1935 C 0.17565 0.72972 0.11043 0.0
N1936 N 0.11902 0.59727 0.14504 0.0
N1937 N 0.16521 0.6793 0.11201 0.0
H1938 H 0.94818 0.25552 0.11085 0.0
H1939 H 0.88793 0.54417 0.14498 0.0
H1940 H 0.8673 0.2775 0.12372 0.0
H1941 H 0.96766 0.51604 0.12853 0.0
H1942 H 0.8795 0.44704 0.13915 0.0
H1943 H 0.95553 0.35032 0.12048 0.0
C1944 C 0.93199 0.28036 0.11597 0.0
C1945 C 0.90709 0.25878 0.11638 0.0
C1946 C 0.89883 0.46226 0.13691 0.0
C1947 C 0.91524 0.36811 0.12713 0.0
C1948 C 0.90362 0.51776 0.14006 0.0
C1949 C 0.9286 0.53843 0.13743 0.0
C1950 C 0.91915 0.42727 0.13103 0.0
C1951 C 0.9482 0.50205 0.13121 0.0
C1952 C 0.93615 0.33462 0.12139 0.0
C1953 C 0.88681 0.29262 0.1233 0.0
N1954 N 0.94305 0.44858 0.12827 0.0
N1955 N 0.89127 0.34586 0.1282 0.0
H1956 H 0.13022 0.24782 0.38984 0.0
H1957 H 0.15338 0.55829 0.35433 0.0
H1958 H 0.20205 0.30769 0.36334 0.0
H1959 H 0.08166 0.49785 0.38085 0.0
H1960 H 0.17179 0.46727 0.35803 0.0
H1961 H 0.11211 0.33909 0.38654 0.0
C1962 C 0.14216 0.28001 0.38318 0.0
C1963 C 0.16775 0.26981 0.37686 0.0
C1964 C 0.15202 0.47392 0.36305 0.0
C1965 C 0.14716 0.37497 0.37329 0.0
C1966 C 0.14153 0.52605 0.36109 0.0
C1967 C 0.11586 0.53595 0.36723 0.0
C1968 C 0.13679 0.43118 0.37125 0.0
C1969 C 0.10139 0.49215 0.37557 0.0
C1970 C 0.13185 0.33229 0.38144 0.0
C1971 C 0.18236 0.31359 0.36871 0.0
N1972 N 0.11203 0.44184 0.37731 0.0
N1973 N 0.17188 0.3641 0.36716 0.0
H1974 H 0.82146 0.49131 0.36126 0.0
H1975 H 0.88553 0.77707 0.39298 0.0
H1976 H 0.90311 0.51008 0.37044 0.0
H1977 H 0.80449 0.75197 0.38169 0.0
H1978 H 0.89295 0.67982 0.38633 0.0
H1979 H 0.81521 0.58613 0.37158 0.0
C1980 C 0.83807 0.51543 0.36572 0.0
C1981 C 0.86283 0.49291 0.3649 0.0
C1982 C 0.87356 0.69571 0.3854 0.0
C1983 C 0.85595 0.60232 0.3764 0.0
C1984 C 0.86933 0.75129 0.38901 0.0
C1985 C 0.84431 0.77287 0.38807 0.0
C1986 C 0.85263 0.66151 0.38073 0.0
C1987 C 0.82405 0.73727 0.38304 0.0
C1988 C 0.83454 0.56971 0.37153 0.0
C1989 C 0.88369 0.52589 0.37098 0.0
N1990 N 0.82866 0.68367 0.3796 0.0
N1991 N 0.87982 0.57918 0.37625 0.0
H1992 H 0.88042 0.25403 0.84587 0.0
H1993 H 0.89212 0.55336 0.89812 0.0
H1994 H 0.84405 0.30318 0.90824 0.0
H1995 H 0.92854 0.5038 0.83583 0.0
H1996 H 0.87369 0.46258 0.90179 0.0
H1997 H 0.89822 0.34524 0.84194 0.0
C1998 C 0.87629 0.28383 0.85883 0.0
C1999 C 0.86066 0.27067 0.87742 0.0
C2000 C 0.8857 0.47157 0.8873 0.0
C2001 C 0.88079 0.37577 0.87287 0.0
C2002 C 0.8961 0.52359 0.88512 0.0
C2003 C 0.91201 0.53641 0.86667 0.0
C2004 C 0.89117 0.43187 0.87092 0.0
C2005 C 0.91674 0.49569 0.85053 0.0
C2006 C 0.88634 0.3361 0.85649 0.0
C2007 C 0.85569 0.31149 0.89346 0.0
N2008 N 0.90641 0.44541 0.85305 0.0
N2009 N 0.86571 0.36203 0.89082 0.0
H2010 H 0.08329 0.54236 0.88419 0.0
H2011 H 0.20441 0.73099 0.85612 0.0
H2012 H 0.15308 0.48227 0.85362 0.0
H2013 H 0.13631 0.78781 0.89053 0.0
H2014 H 0.1861 0.63985 0.85502 0.0
H2015 H 0.1024 0.63254 0.88639 0.0
C2016 C 0.10263 0.54812 0.87787 0.0
C2017 C 0.11652 0.50454 0.86859 0.0
C2018 C 0.17516 0.67225 0.86283 0.0
C2019 C 0.13868 0.60808 0.87123 0.0
C2020 C 0.18567 0.72436 0.86357 0.0
C2021 C 0.17193 0.76746 0.87344 0.0
C2022 C 0.15066 0.66287 0.87197 0.0
C2023 C 0.14751 0.75626 0.88245 0.0
C2024 C 0.11359 0.59967 0.87924 0.0
C2025 C 0.1417 0.51444 0.86108 0.0
N2026 N 0.1377 0.70521 0.88149 0.0
N2027 N 0.15191 0.56514 0.86247 0.0
H2028 H 0.82459 0.73479 0.63418 0.0
H2029 H 0.94775 0.54302 0.61706 0.0
H2030 H 0.89729 0.7916 0.60834 0.0
H2031 H 0.8751 0.48579 0.64282 0.0
H2032 H 0.92953 0.63406 0.61365 0.0
H2033 H 0.84259 0.64344 0.63722 0.0
C2034 C 0.84431 0.72811 0.62904 0.0
C2035 C 0.85938 0.77121 0.62091 0.0
C2036 C 0.91754 0.60163 0.62003 0.0
C2037 C 0.88026 0.66628 0.62459 0.0
C2038 C 0.92797 0.54956 0.62209 0.0
C2039 C 0.91301 0.50646 0.63036 0.0
C2040 C 0.89187 0.61106 0.62627 0.0
C2041 C 0.88733 0.51747 0.63616 0.0
C2042 C 0.85463 0.67586 0.63089 0.0
C2043 C 0.88499 0.75996 0.61493 0.0
N2044 N 0.87762 0.56861 0.63408 0.0
N2045 N 0.89457 0.7087 0.61685 0.0
H2046 H 0.12968 0.2457 0.60746 0.0
H2047 H 0.15273 0.55633 0.64243 0.0
H2048 H 0.2015 0.30581 0.63388 0.0
H2049 H 0.081 0.4957 0.61603 0.0
H2050 H 0.17116 0.46531 0.63893 0.0
H2051 H 0.11151 0.33692 0.61066 0.0
C2052 C 0.14161 0.27793 0.61408 0.0
C2053 C 0.16722 0.2678 0.6204 0.0
C2054 C 0.15139 0.47192 0.63389 0.0
C2055 C 0.14655 0.37291 0.62384 0.0
C2056 C 0.14088 0.52405 0.63574 0.0
C2057 C 0.11521 0.53391 0.62958 0.0
C2058 C 0.13616 0.42912 0.62578 0.0
C2059 C 0.10074 0.49005 0.62133 0.0
C2060 C 0.13126 0.33018 0.61576 0.0
C2061 C 0.1818 0.31164 0.6285 0.0
N2062 N 0.11139 0.43974 0.6197 0.0
N2063 N 0.17128 0.36212 0.62999 0.0
H2064 H 0.65155 0.98555 0.14453 0.0
H2065 H 0.62712 0.29761 0.11157 0.0
H2066 H 0.57863 0.04801 0.12112 0.0
H2067 H 0.70012 0.23549 0.13491 0.0
H2068 H 0.60895 0.20669 0.11534 0.0
H2069 H 0.66981 0.07646 0.14077 0.0
C2070 C 0.6394 1.01821 0.13844 0.0
C2071 C 0.61344 1.00887 0.13318 0.0
C2072 C 0.62895 0.21293 0.11965 0.0
C2073 C 0.63423 0.11357 0.12911 0.0
C2074 C 0.63931 0.26502 0.11765 0.0
C2075 C 0.66525 0.27449 0.1229 0.0
C2076 C 0.64457 0.16969 0.12698 0.0
C2077 C 0.68015 0.23018 0.13034 0.0
C2078 C 0.64981 0.07028 0.13645 0.0
C2079 C 0.59861 0.05322 0.12571 0.0
N2080 N 0.66962 0.17988 0.13215 0.0
N2081 N 0.60919 0.10346 0.12391 0.0
H2082 H 0.32556 0.80017 0.13778 0.0
H2083 H 0.44207 0.99926 0.10828 0.0
H2084 H 0.38865 0.75461 0.09424 0.0
H2085 H 0.37175 0.05344 0.13971 0.0
H2086 H 0.4238 0.90841 0.10454 0.0
H2087 H 0.34309 0.89164 0.1402 0.0
C2088 C 0.34301 0.80928 0.12858 0.0
C2089 C 0.35547 0.76916 0.11564 0.0
C2090 C 0.4123 0.94016 0.11218 0.0
C2091 C 0.376 0.87442 0.11876 0.0
C2092 C 0.42276 0.99205 0.11442 0.0
C2093 C 0.40848 0.03413 0.12443 0.0
C2094 C 0.38739 0.9298 0.12019 0.0
C2095 C 0.38341 0.02244 0.13175 0.0
C2096 C 0.35308 0.86167 0.13009 0.0
C2097 C 0.37844 0.78363 0.10463 0.0
N2098 N 0.37375 0.97136 0.12963 0.0
N2099 N 0.38792 0.83491 0.10646 0.0
H2100 H 0.65333 0.06218 0.35238 0.0
H2101 H 0.63078 0.75107 0.38739 0.0
H2102 H 0.58179 1.00121 0.37907 0.0
H2103 H 0.70224 0.81171 0.36042 0.0
H2104 H 0.61245 0.84223 0.38425 0.0
H2105 H 0.67176 0.97111 0.35567 0.0
C2106 C 0.64152 0.02982 0.35909 0.0
C2107 C 0.6159 0.03963 0.36541 0.0
C2108 C 0.63215 0.83561 0.37901 0.0
C2109 C 0.63687 0.93472 0.36896 0.0
C2110 C 0.64259 0.78339 0.38065 0.0
C2111 C 0.66816 0.77343 0.37419 0.0
C2112 C 0.64731 0.87848 0.37081 0.0
C2113 C 0.68259 0.81739 0.36593 0.0
C2114 C 0.65203 0.97765 0.36082 0.0
C2115 C 0.60149 0.99563 0.37366 0.0
N2116 N 0.67199 0.86782 0.36449 0.0
N2117 N 0.61215 0.94527 0.37518 0.0
H2118 H 0.39178 0.98317 0.39609 0.0
H2119 H 0.37904 0.28525 0.34617 0.0
H2120 H 0.42703 0.03531 0.33363 0.0
H2121 H 0.34452 0.2338 0.40904 0.0
H2122 H 0.39683 0.19407 0.34134 0.0
H2123 H 0.37371 0.07418 0.40081 0.0
C2124 C 0.39559 1.01356 0.38327 0.0
C2125 C 0.41105 1.00133 0.36445 0.0
C2126 C 0.38536 0.20271 0.3562 0.0
C2127 C 0.3906 0.10619 0.36991 0.0
C2128 C 0.37532 0.25497 0.35905 0.0
C2129 C 0.36018 0.26749 0.37804 0.0
C2130 C 0.38031 0.16238 0.37245 0.0
C2131 C 0.35573 0.22604 0.39396 0.0
C2132 C 0.38539 0.06572 0.38607 0.0
C2133 C 0.41558 0.04288 0.34859 0.0
N2134 N 0.36573 0.17552 0.39081 0.0
N2135 N 0.40543 0.09327 0.35169 0.0
H2136 H 0.3913 0.75325 0.90358 0.0
H2137 H 0.37419 0.05704 0.85699 0.0
H2138 H 0.32998 0.80216 0.8586 0.0
H2139 H 0.44369 0.99874 0.8887 0.0
H2140 H 0.35574 0.96602 0.86059 0.0
H2141 H 0.4093 0.84451 0.90077 0.0
C2142 C 0.38166 0.78286 0.89298 0.0
C2143 C 0.35897 0.76952 0.88134 0.0
C2144 C 0.37503 0.97317 0.86677 0.0
C2145 C 0.37933 0.87492 0.87845 0.0
C2146 C 0.38549 0.02524 0.86487 0.0
C2147 C 0.41058 0.03558 0.87247 0.0
C2148 C 0.38963 0.9311 0.87654 0.0
C2149 C 0.42441 0.99253 0.88234 0.0
C2150 C 0.3919 0.8352 0.89152 0.0
C2151 C 0.3472 0.81042 0.86824 0.0
N2152 N 0.41377 0.94234 0.88411 0.0
N2153 N 0.35745 0.8611 0.86721 0.0
H2154 H 0.706 0.23222 0.85782 0.0
H2155 H 0.58488 0.04276 0.88463 0.0
H2156 H 0.63803 0.2874 0.89288 0.0
H2157 H 0.65476 0.98347 0.85397 0.0
H2158 H 0.60408 0.13272 0.88752 0.0
H2159 H 0.6878 0.14098 0.85627 0.0
C2160 C 0.68733 0.22518 0.86533 0.0
C2161 C 0.67355 0.26784 0.87547 0.0
C2162 C 0.61527 0.10007 0.8802 0.0
C2163 C 0.65242 0.16327 0.87349 0.0
C2164 C 0.60426 0.04868 0.87843 0.0
C2165 C 0.61816 1.00542 0.86893 0.0
C2166 C 0.64042 0.10862 0.87235 0.0
C2167 C 0.64339 1.01543 0.86158 0.0
C2168 C 0.67689 0.17304 0.86433 0.0
C2169 C 0.64923 0.25618 0.88458 0.0
N2170 N 0.65365 0.06599 0.86335 0.0
N2171 N 0.63947 0.20516 0.88334 0.0
H2172 H 0.37228 0.97697 0.64307 0.0
H2173 H 0.39819 0.28705 0.60824 0.0
H2174 H 0.44595 0.03687 0.62083 0.0
H2175 H 0.32449 0.22746 0.63054 0.0
H2176 H 0.41608 0.19593 0.61308 0.0
H2177 H 0.35431 0.06806 0.6382 0.0
C2178 C 0.38467 1.00909 0.63701 0.0
C2179 C 0.41074 0.99897 0.63241 0.0
C2180 C 0.39598 0.20276 0.61692 0.0
C2181 C 0.39027 0.10393 0.62706 0.0
C2182 C 0.38577 0.25498 0.61431 0.0
C2183 C 0.35972 0.26523 0.61895 0.0
C2184 C 0.3801 0.16018 0.62426 0.0
C2185 C 0.34456 0.22155 0.62642 0.0
C2186 C 0.37441 0.06128 0.63438 0.0
C2187 C 0.42586 0.04269 0.62493 0.0
N2188 N 0.35495 0.17112 0.62883 0.0
N2189 N 0.41543 0.09307 0.6225 0.0
H2190 H 0.63012 0.74808 0.60692 0.0
H2191 H 0.65299 0.05845 0.64231 0.0
H2192 H 0.70174 0.80793 0.63385 0.0
H2193 H 0.58147 0.99809 0.61538 0.0
H2194 H 0.67142 0.96743 0.63884 0.0
H2195 H 0.61196 0.83931 0.61007 0.0
C2196 C 0.642 0.78026 0.61364 0.0
C2197 C 0.66755 0.77007 0.62012 0.0
C2198 C 0.65169 0.9741 0.63368 0.0
C2199 C 0.6469 0.87518 0.6235 0.0
C2200 C 0.6412 0.02623 0.63551 0.0
C2201 C 0.61557 0.03615 0.62918 0.0
C2202 C 0.63652 0.93137 0.62543 0.0
C2203 C 0.60116 0.99237 0.62081 0.0
C2204 C 0.63166 0.83252 0.61529 0.0
C2205 C 0.68209 0.81383 0.62835 0.0
N2206 N 0.6118 0.94206 0.61919 0.0
N2207 N 0.67158 0.86432 0.62981 0.0
loop_
_geom_bond_atom_site_label_1
_geom_bond_atom_site_label_2
_geom_bond_distance
_geom_bond_site_symmetry_2
_ccdc_geom_bond_type
Eu0 N31 2.657 . S
Eu0 N38 2.609 . S
Eu0 O44 2.558 1_545 S
Eu0 O45 2.612 . S
Eu0 O47 2.339 . S
Eu0 O48 2.563 . S
Eu0 O49 2.419 1_545 S
Eu0 O51 2.380 . S
Eu0 O52 2.432 . S
Eu0 C64 2.848 1_545 S
C1 C4 1.429 . S
C1 C5 1.411 . S
C1 N8 1.377 . S
C2 C4 1.420 . S
C2 C6 1.407 1_455 S
C2 C14 1.392 . S
C3 C5 1.420 . S
C3 C6 1.346 1_455 S
C3 H26 0.931 1_455 S
C4 C1 1.429 . S
C4 C2 1.420 . S
C4 N12 1.362 . S
C5 C1 1.411 . S
C5 C3 1.420 . S
C5 C10 1.395 . S
C6 C2 1.407 1_655 S
C6 C3 1.346 1_655 S
C6 H18 0.951 . S
C7 C9 1.400 . S
C7 C10 1.386 . S
C7 H19 0.930 . S
N8 C1 1.377 . S
N8 C9 1.321 . S
N8 Eu11 2.609 . S
C9 C7 1.400 . S
C9 N8 1.321 . S
C9 H16 0.930 . S
C10 C5 1.395 . S
C10 C7 1.386 . S
C10 H29 0.930 . S
Eu11 N8 2.609 . S
Eu11 N12 2.657 . S
Eu11 O45 2.380 . S
Eu11 O46 2.432 . S
Eu11 O50 2.558 . S
Eu11 O51 2.612 . S
Eu11 O53 2.339 . S
Eu11 O54 2.563 . S
Eu11 O55 2.419 . S
Eu11 C75 2.848 . S
N12 C4 1.362 . S
N12 Eu11 2.657 . S
N12 C13 1.334 . S
C13 N12 1.334 . S
C13 C15 1.413 . S
C13 H20 0.929 . S
C14 C2 1.392 . S
C14 C15 1.367 . S
C14 H22 0.930 1_455 S
C15 C13 1.413 . S
C15 C14 1.367 . S
C15 H17 0.930 . S
H16 C9 0.930 . S
H17 C15 0.930 . S
H18 C6 0.951 . S
H19 C7 0.930 . S
H20 C13 0.929 . S
H21 C35 0.930 . S
H22 C14 0.930 1_655 S
H23 C41 0.930 . S
H24 C32 0.929 . S
H25 C39 0.930 . S
H26 C3 0.931 1_655 S
H27 C33 0.930 . S
H28 C66 0.930 . S
H29 C10 0.930 . S
H30 C65 0.931 . S
N31 Eu0 2.657 . S
N31 C32 1.334 . S
N31 C36 1.362 . S
C32 H24 0.929 . S
C32 N31 1.334 . S
C32 C35 1.413 . S
C33 H27 0.930 . S
C33 C34 1.392 . S
C33 C35 1.367 . S
C34 C33 1.392 . S
C34 C36 1.420 . S
C34 C66 1.423 . S
C35 H21 0.930 . S
C35 C32 1.413 . S
C35 C33 1.367 . S
C36 N31 1.362 . S
C36 C34 1.420 . S
C36 C40 1.429 . S
H37 C42 0.930 . S
N38 Eu0 2.609 . S
N38 C40 1.377 . S
N38 C41 1.321 . S
C39 H25 0.930 . S
C39 C41 1.400 . S
C39 C42 1.386 . S
C40 C36 1.429 . S
C40 N38 1.377 . S
C40 C43 1.411 . S
C41 H23 0.930 . S
C41 N38 1.321 . S
C41 C39 1.400 . S
C42 H37 0.930 . S
C42 C39 1.386 . S
C42 C43 1.395 . S
C43 C40 1.411 . S
C43 C42 1.395 . S
C43 C65 1.420 . S
O44 Eu0 2.558 1_565 S
O44 C64 1.257 . S
O45 Eu0 2.612 . S
O45 Eu11 2.380 . S
O45 C56 1.276 . S
O46 Eu11 2.432 . S
O46 C63 1.264 . S
O47 Eu0 2.339 . S
O47 C63 1.254 . S
O48 Eu0 2.563 . S
O48 C56 1.235 . S
O49 Eu0 2.419 1_565 S
O49 C64 1.249 . S
O50 Eu11 2.558 . S
O50 C75 1.257 . S
O51 Eu0 2.380 . S
O51 Eu11 2.612 . S
O51 C67 1.276 . S
O52 Eu0 2.432 . S
O52 C74 1.264 . S
O53 Eu11 2.339 . S
O53 C74 1.254 . S
O54 Eu11 2.563 . S
O54 C67 1.235 . S
O55 Eu11 2.419 . S
O55 C75 1.249 . S
C56 O45 1.276 . S
C56 O48 1.235 . S
C57 C59 1.393 . S
C57 C61 1.395 . S
C57 C64 1.492 . S
C58 C59 1.392 . S
C58 C60 1.386 . S
C59 C57 1.393 . S
C59 C58 1.392 . S
C59 H76 0.930 . S
C60 C58 1.386 . S
C60 C62 1.395 . S
C60 H77 0.930 . S
C61 C57 1.395 . S
C61 C62 1.379 . S
C61 H78 0.930 . S
C62 C60 1.395 . S
C62 C61 1.379 . S
C62 H79 0.930 . S
C63 O46 1.264 . S
C63 O47 1.254 . S
C64 Eu0 2.848 1_565 S
C64 O44 1.257 . S
C64 O49 1.249 . S
C64 C57 1.492 . S
C65 H30 0.931 . S
C65 C43 1.420 . S
C65 C66 1.351 . S
C66 H28 0.930 . S
C66 C34 1.423 . S
C66 C65 1.351 . S
C67 O51 1.276 . S
C67 O54 1.235 . S
C68 C69 1.393 . S
C68 C72 1.395 . S
C68 C75 1.492 . S
C69 C68 1.393 . S
C69 C70 1.392 . S
C69 H80 0.930 . S
C70 C69 1.392 . S
C70 C71 1.386 . S
C71 C70 1.386 . S
C71 C73 1.395 . S
C71 H81 0.930 . S
C72 C68 1.395 . S
C72 C73 1.379 . S
C72 H82 0.930 . S
C73 C71 1.395 . S
C73 C72 1.379 . S
C73 H83 0.930 . S
C74 O52 1.264 . S
C74 O53 1.254 . S
C75 Eu11 2.848 . S
C75 O50 1.257 . S
C75 O55 1.249 . S
C75 C68 1.492 . S
H76 C59 0.930 . S
H77 C60 0.930 . S
H78 C61 0.930 . S
H79 C62 0.930 . S
H80 C69 0.930 . S
H81 C71 0.930 . S
H82 C72 0.930 . S
H83 C73 0.930 . S
Eu84 N115 2.657 . S
Eu84 N122 2.609 . S
Eu84 O128 2.558 1_565 S
Eu84 O129 2.612 . S
Eu84 O131 2.339 . S
Eu84 O132 2.563 . S
Eu84 O133 2.419 1_565 S
Eu84 O135 2.380 . S
Eu84 O136 2.432 . S
Eu84 C148 2.848 1_565 S
C85 C88 1.429 . S
C85 C89 1.411 . S
C85 N92 1.377 . S
C86 C88 1.420 . S
C86 C90 1.407 1_655 S
C86 C98 1.392 . S
C87 C89 1.420 . S
C87 C90 1.346 1_655 S
C87 H110 0.931 1_655 S
C88 C85 1.429 . S
C88 C86 1.420 . S
C88 N96 1.362 . S
C89 C85 1.411 . S
C89 C87 1.420 . S
C89 C94 1.395 . S
C90 C86 1.407 1_455 S
C90 C87 1.346 1_455 S
C90 H102 0.951 . S
C91 C93 1.400 . S
C91 C94 1.386 . S
C91 H103 0.930 . S
N92 C85 1.377 . S
N92 C93 1.321 . S
N92 Eu95 2.609 . S
C93 C91 1.400 . S
C93 N92 1.321 . S
C93 H100 0.930 . S
C94 C89 1.395 . S
C94 C91 1.386 . S
C94 H113 0.930 . S
Eu95 N92 2.609 . S
Eu95 N96 2.657 . S
Eu95 O129 2.380 . S
Eu95 O130 2.432 . S
Eu95 O134 2.558 . S
Eu95 O135 2.612 . S
Eu95 O137 2.339 . S
Eu95 O138 2.563 . S
Eu95 O139 2.419 . S
Eu95 C159 2.848 . S
N96 C88 1.362 . S
N96 Eu95 2.657 . S
N96 C97 1.334 . S
C97 N96 1.334 . S
C97 C99 1.413 . S
C97 H104 0.929 . S
C98 C86 1.392 . S
C98 C99 1.367 . S
C98 H106 0.930 1_655 S
C99 C97 1.413 . S
C99 C98 1.367 . S
C99 H101 0.930 . S
H100 C93 0.930 . S
H101 C99 0.930 . S
H102 C90 0.951 . S
H103 C91 0.930 . S
H104 C97 0.929 . S
H105 C119 0.930 . S
H106 C98 0.930 1_455 S
H107 C125 0.930 . S
H108 C116 0.929 . S
H109 C123 0.930 . S
H110 C87 0.931 1_455 S
H111 C117 0.930 . S
H112 C150 0.930 . S
H113 C94 0.930 . S
H114 C149 0.931 . S
N115 Eu84 2.657 . S
N115 C116 1.334 . S
N115 C120 1.362 . S
C116 H108 0.929 . S
C116 N115 1.334 . S
C116 C119 1.413 . S
C117 H111 0.930 . S
C117 C118 1.392 . S
C117 C119 1.367 . S
C118 C117 1.392 . S
C118 C120 1.420 . S
C118 C150 1.423 . S
C119 H105 0.930 . S
C119 C116 1.413 . S
C119 C117 1.367 . S
C120 N115 1.362 . S
C120 C118 1.420 . S
C120 C124 1.429 . S
H121 C126 0.930 . S
N122 Eu84 2.609 . S
N122 C124 1.377 . S
N122 C125 1.321 . S
C123 H109 0.930 . S
C123 C125 1.400 . S
C123 C126 1.386 . S
C124 C120 1.429 . S
C124 N122 1.377 . S
C124 C127 1.411 . S
C125 H107 0.930 . S
C125 N122 1.321 . S
C125 C123 1.400 . S
C126 H121 0.930 . S
C126 C123 1.386 . S
C126 C127 1.395 . S
C127 C124 1.411 . S
C127 C126 1.395 . S
C127 C149 1.420 . S
O128 Eu84 2.558 1_545 S
O128 C148 1.257 . S
O129 Eu84 2.612 . S
O129 Eu95 2.380 . S
O129 C140 1.276 . S
O130 Eu95 2.432 . S
O130 C147 1.264 . S
O131 Eu84 2.339 . S
O131 C147 1.254 . S
O132 Eu84 2.563 . S
O132 C140 1.235 . S
O133 Eu84 2.419 1_545 S
O133 C148 1.249 . S
O134 Eu95 2.558 . S
O134 C159 1.257 . S
O135 Eu84 2.380 . S
O135 Eu95 2.612 . S
O135 C151 1.276 . S
O136 Eu84 2.432 . S
O136 C158 1.264 . S
O137 Eu95 2.339 . S
O137 C158 1.254 . S
O138 Eu95 2.563 . S
O138 C151 1.235 . S
O139 Eu95 2.419 . S
O139 C159 1.249 . S
C140 O129 1.276 . S
C140 O132 1.235 . S
C141 C143 1.393 . S
C141 C145 1.395 . S
C141 C148 1.492 . S
C142 C143 1.392 . S
C142 C144 1.386 . S
C143 C141 1.393 . S
C143 C142 1.392 . S
C143 H160 0.930 . S
C144 C142 1.386 . S
C144 C146 1.395 . S
C144 H161 0.930 . S
C145 C141 1.395 . S
C145 C146 1.379 . S
C145 H162 0.930 . S
C146 C144 1.395 . S
C146 C145 1.379 . S
C146 H163 0.930 . S
C147 O130 1.264 . S
C147 O131 1.254 . S
C148 Eu84 2.848 1_545 S
C148 O128 1.257 . S
C148 O133 1.249 . S
C148 C141 1.492 . S
C149 H114 0.931 . S
C149 C127 1.420 . S
C149 C150 1.351 . S
C150 H112 0.930 . S
C150 C118 1.423 . S
C150 C149 1.351 . S
C151 O135 1.276 . S
C151 O138 1.235 . S
C152 C153 1.393 . S
C152 C156 1.395 . S
C152 C159 1.492 . S
C153 C152 1.393 . S
C153 C154 1.392 . S
C153 H164 0.930 . S
C154 C153 1.392 . S
C154 C155 1.386 . S
C155 C154 1.386 . S
C155 C157 1.395 . S
C155 H165 0.930 . S
C156 C152 1.395 . S
C156 C157 1.379 . S
C156 H166 0.930 . S
C157 C155 1.395 . S
C157 C156 1.379 . S
C157 H167 0.930 . S
C158 O136 1.264 . S
C158 O137 1.254 . S
C159 Eu95 2.848 . S
C159 O134 1.257 . S
C159 O139 1.249 . S
C159 C152 1.492 . S
H160 C143 0.930 . S
H161 C144 0.930 . S
H162 C145 0.930 . S
H163 C146 0.930 . S
H164 C153 0.930 . S
H165 C155 0.930 . S
H166 C156 0.930 . S
H167 C157 0.930 . S
Eu168 N199 2.657 . S
Eu168 N206 2.609 . S
Eu168 O212 2.558 1_565 S
Eu168 O213 2.612 . S
Eu168 O215 2.339 . S
Eu168 O216 2.563 . S
Eu168 O217 2.419 1_565 S
Eu168 O219 2.380 . S
Eu168 O220 2.432 . S
Eu168 C232 2.848 1_565 S
C169 C172 1.429 . S
C169 C173 1.411 . S
C169 N176 1.377 . S
C170 C172 1.420 . S
C170 C174 1.407 1_455 S
C170 C182 1.392 . S
C171 C173 1.420 . S
C171 C174 1.346 1_455 S
C171 H194 0.931 1_455 S
C172 C169 1.429 . S
C172 C170 1.420 . S
C172 N180 1.362 . S
C173 C169 1.411 . S
C173 C171 1.420 . S
C173 C178 1.395 . S
C174 C170 1.407 1_655 S
C174 C171 1.346 1_655 S
C174 H186 0.951 . S
C175 C177 1.400 . S
C175 C178 1.386 . S
C175 H187 0.930 . S
N176 C169 1.377 . S
N176 C177 1.321 . S
N176 Eu179 2.609 . S
C177 C175 1.400 . S
C177 N176 1.321 . S
C177 H184 0.930 . S
C178 C173 1.395 . S
C178 C175 1.386 . S
C178 H197 0.930 . S
Eu179 N176 2.609 . S
Eu179 N180 2.657 . S
Eu179 O213 2.380 . S
Eu179 O214 2.432 . S
Eu179 O218 2.558 . S
Eu179 O219 2.612 . S
Eu179 O221 2.339 . S
Eu179 O222 2.563 . S
Eu179 O223 2.419 . S
Eu179 C243 2.848 . S
N180 C172 1.362 . S
N180 Eu179 2.657 . S
N180 C181 1.334 . S
C181 N180 1.334 . S
C181 C183 1.413 . S
C181 H188 0.929 . S
C182 C170 1.392 . S
C182 C183 1.367 . S
C182 H190 0.930 1_455 S
C183 C181 1.413 . S
C183 C182 1.367 . S
C183 H185 0.930 . S
H184 C177 0.930 . S
H185 C183 0.930 . S
H186 C174 0.951 . S
H187 C175 0.930 . S
H188 C181 0.929 . S
H189 C203 0.930 . S
H190 C182 0.930 1_655 S
H191 C209 0.930 . S
H192 C200 0.929 . S
H193 C207 0.930 . S
H194 C171 0.931 1_655 S
H195 C201 0.930 . S
H196 C234 0.930 . S
H197 C178 0.930 . S
H198 C233 0.931 . S
N199 Eu168 2.657 . S
N199 C200 1.334 . S
N199 C204 1.362 . S
C200 H192 0.929 . S
C200 N199 1.334 . S
C200 C203 1.413 . S
C201 H195 0.930 . S
C201 C202 1.392 . S
C201 C203 1.367 . S
C202 C201 1.392 . S
C202 C204 1.420 . S
C202 C234 1.423 . S
C203 H189 0.930 . S
C203 C200 1.413 . S
C203 C201 1.367 . S
C204 N199 1.362 . S
C204 C202 1.420 . S
C204 C208 1.429 . S
H205 C210 0.930 . S
N206 Eu168 2.609 . S
N206 C208 1.377 . S
N206 C209 1.321 . S
C207 H193 0.930 . S
C207 C209 1.400 . S
C207 C210 1.386 . S
C208 C204 1.429 . S
C208 N206 1.377 . S
C208 C211 1.411 . S
C209 H191 0.930 . S
C209 N206 1.321 . S
C209 C207 1.400 . S
C210 H205 0.930 . S
C210 C207 1.386 . S
C210 C211 1.395 . S
C211 C208 1.411 . S
C211 C210 1.395 . S
C211 C233 1.420 . S
O212 Eu168 2.558 1_545 S
O212 C232 1.257 . S
O213 Eu168 2.612 . S
O213 Eu179 2.380 . S
O213 C224 1.276 . S
O214 Eu179 2.432 . S
O214 C231 1.264 . S
O215 Eu168 2.339 . S
O215 C231 1.254 . S
O216 Eu168 2.563 . S
O216 C224 1.235 . S
O217 Eu168 2.419 1_545 S
O217 C232 1.249 . S
O218 Eu179 2.558 . S
O218 C243 1.257 . S
O219 Eu168 2.380 . S
O219 Eu179 2.612 . S
O219 C235 1.276 . S
O220 Eu168 2.432 . S
O220 C242 1.264 . S
O221 Eu179 2.339 . S
O221 C242 1.254 . S
O222 Eu179 2.563 . S
O222 C235 1.235 . S
O223 Eu179 2.419 . S
O223 C243 1.249 . S
C224 O213 1.276 . S
C224 O216 1.235 . S
C225 C227 1.393 . S
C225 C229 1.395 . S
C225 C232 1.492 . S
C226 C227 1.392 . S
C226 C228 1.386 . S
C227 C225 1.393 . S
C227 C226 1.392 . S
C227 H244 0.930 . S
C228 C226 1.386 . S
C228 C230 1.395 . S
C228 H245 0.930 . S
C229 C225 1.395 . S
C229 C230 1.379 . S
C229 H246 0.930 . S
C230 C228 1.395 . S
C230 C229 1.379 . S
C230 H247 0.930 . S
C231 O214 1.264 . S
C231 O215 1.254 . S
C232 Eu168 2.848 1_545 S
C232 O212 1.257 . S
C232 O217 1.249 . S
C232 C225 1.492 . S
C233 H198 0.931 . S
C233 C211 1.420 . S
C233 C234 1.351 . S
C234 H196 0.930 . S
C234 C202 1.423 . S
C234 C233 1.351 . S
C235 O219 1.276 . S
C235 O222 1.235 . S
C236 C237 1.393 . S
C236 C240 1.395 . S
C236 C243 1.492 . S
C237 C236 1.393 . S
C237 C238 1.392 . S
C237 H248 0.930 . S
C238 C237 1.392 . S
C238 C239 1.386 . S
C239 C238 1.386 . S
C239 C241 1.395 . S
C239 H249 0.930 . S
C240 C236 1.395 . S
C240 C241 1.379 . S
C240 H250 0.930 . S
C241 C239 1.395 . S
C241 C240 1.379 . S
C241 H251 0.930 . S
C242 O220 1.264 . S
C242 O221 1.254 . S
C243 Eu179 2.848 . S
C243 O218 1.257 . S
C243 O223 1.249 . S
C243 C236 1.492 . S
H244 C227 0.930 . S
H245 C228 0.930 . S
H246 C229 0.930 . S
H247 C230 0.930 . S
H248 C237 0.930 . S
H249 C239 0.930 . S
H250 C240 0.930 . S
H251 C241 0.930 . S
Eu252 N283 2.657 . S
Eu252 N290 2.609 . S
Eu252 O296 2.558 1_545 S
Eu252 O297 2.612 . S
Eu252 O299 2.339 . S
Eu252 O300 2.563 . S
Eu252 O301 2.419 1_545 S
Eu252 O303 2.380 . S
Eu252 O304 2.432 . S
Eu252 C316 2.848 1_545 S
C253 C256 1.429 . S
C253 C257 1.411 . S
C253 N260 1.377 . S
C254 C256 1.420 . S
C254 C258 1.407 1_655 S
C254 C266 1.392 . S
C255 C257 1.420 . S
C255 C258 1.346 1_655 S
C255 H278 0.931 1_655 S
C256 C253 1.429 . S
C256 C254 1.420 . S
C256 N264 1.362 . S
C257 C253 1.411 . S
C257 C255 1.420 . S
C257 C262 1.395 . S
C258 C254 1.407 1_455 S
C258 C255 1.346 1_455 S
C258 H270 0.951 . S
C259 C261 1.400 . S
C259 C262 1.386 . S
C259 H271 0.930 . S
N260 C253 1.377 . S
N260 C261 1.321 . S
N260 Eu263 2.609 . S
C261 C259 1.400 . S
C261 N260 1.321 . S
C261 H268 0.930 . S
C262 C257 1.395 . S
C262 C259 1.386 . S
C262 H281 0.930 . S
Eu263 N260 2.609 . S
Eu263 N264 2.657 . S
Eu263 O297 2.380 . S
Eu263 O298 2.432 . S
Eu263 O302 2.558 . S
Eu263 O303 2.612 . S
Eu263 O305 2.339 . S
Eu263 O306 2.563 . S
Eu263 O307 2.419 . S
Eu263 C327 2.848 . S
N264 C256 1.362 . S
N264 Eu263 2.657 . S
N264 C265 1.334 . S
C265 N264 1.334 . S
C265 C267 1.413 . S
C265 H272 0.929 . S
C266 C254 1.392 . S
C266 C267 1.367 . S
C266 H274 0.930 1_655 S
C267 C265 1.413 . S
C267 C266 1.367 . S
C267 H269 0.930 . S
H268 C261 0.930 . S
H269 C267 0.930 . S
H270 C258 0.951 . S
H271 C259 0.930 . S
H272 C265 0.929 . S
H273 C287 0.930 . S
H274 C266 0.930 1_455 S
H275 C293 0.930 . S
H276 C284 0.929 . S
H277 C291 0.930 . S
H278 C255 0.931 1_455 S
H279 C285 0.930 . S
H280 C318 0.930 . S
H281 C262 0.930 . S
H282 C317 0.931 . S
N283 Eu252 2.657 . S
N283 C284 1.334 . S
N283 C288 1.362 . S
C284 H276 0.929 . S
C284 N283 1.334 . S
C284 C287 1.413 . S
C285 H279 0.930 . S
C285 C286 1.392 . S
C285 C287 1.367 . S
C286 C285 1.392 . S
C286 C288 1.420 . S
C286 C318 1.423 . S
C287 H273 0.930 . S
C287 C284 1.413 . S
C287 C285 1.367 . S
C288 N283 1.362 . S
C288 C286 1.420 . S
C288 C292 1.429 . S
H289 C294 0.930 . S
N290 Eu252 2.609 . S
N290 C292 1.377 . S
N290 C293 1.321 . S
C291 H277 0.930 . S
C291 C293 1.400 . S
C291 C294 1.386 . S
C292 C288 1.429 . S
C292 N290 1.377 . S
C292 C295 1.411 . S
C293 H275 0.930 . S
C293 N290 1.321 . S
C293 C291 1.400 . S
C294 H289 0.930 . S
C294 C291 1.386 . S
C294 C295 1.395 . S
C295 C292 1.411 . S
C295 C294 1.395 . S
C295 C317 1.420 . S
O296 Eu252 2.558 1_565 S
O296 C316 1.257 . S
O297 Eu252 2.612 . S
O297 Eu263 2.380 . S
O297 C308 1.276 . S
O298 Eu263 2.432 . S
O298 C315 1.264 . S
O299 Eu252 2.339 . S
O299 C315 1.254 . S
O300 Eu252 2.563 . S
O300 C308 1.235 . S
O301 Eu252 2.419 1_565 S
O301 C316 1.249 . S
O302 Eu263 2.558 . S
O302 C327 1.257 . S
O303 Eu252 2.380 . S
O303 Eu263 2.612 . S
O303 C319 1.276 . S
O304 Eu252 2.432 . S
O304 C326 1.264 . S
O305 Eu263 2.339 . S
O305 C326 1.254 . S
O306 Eu263 2.563 . S
O306 C319 1.235 . S
O307 Eu263 2.419 . S
O307 C327 1.249 . S
C308 O297 1.276 . S
C308 O300 1.235 . S
C309 C311 1.393 . S
C309 C313 1.395 . S
C309 C316 1.492 . S
C310 C311 1.392 . S
C310 C312 1.386 . S
C311 C309 1.393 . S
C311 C310 1.392 . S
C311 H328 0.930 . S
C312 C310 1.386 . S
C312 C314 1.395 . S
C312 H329 0.930 . S
C313 C309 1.395 . S
C313 C314 1.379 . S
C313 H330 0.930 . S
C314 C312 1.395 . S
C314 C313 1.379 . S
C314 H331 0.930 . S
C315 O298 1.264 . S
C315 O299 1.254 . S
C316 Eu252 2.848 1_565 S
C316 O296 1.257 . S
C316 O301 1.249 . S
C316 C309 1.492 . S
C317 H282 0.931 . S
C317 C295 1.420 . S
C317 C318 1.351 . S
C318 H280 0.930 . S
C318 C286 1.423 . S
C318 C317 1.351 . S
C319 O303 1.276 . S
C319 O306 1.235 . S
C320 C321 1.393 . S
C320 C324 1.395 . S
C320 C327 1.492 . S
C321 C320 1.393 . S
C321 C322 1.392 . S
C321 H332 0.930 . S
C322 C321 1.392 . S
C322 C323 1.386 . S
C323 C322 1.386 . S
C323 C325 1.395 . S
C323 H333 0.930 . S
C324 C320 1.395 . S
C324 C325 1.379 . S
C324 H334 0.930 . S
C325 C323 1.395 . S
C325 C324 1.379 . S
C325 H335 0.930 . S
C326 O304 1.264 . S
C326 O305 1.254 . S
C327 Eu263 2.848 . S
C327 O302 1.257 . S
C327 O307 1.249 . S
C327 C320 1.492 . S
H328 C311 0.930 . S
H329 C312 0.930 . S
H330 C313 0.930 . S
H331 C314 0.930 . S
H332 C321 0.930 . S
H333 C323 0.930 . S
H334 C324 0.930 . S
H335 C325 0.930 . S
Eu336 N367 2.657 . S
Eu336 N374 2.609 . S
Eu336 O380 2.558 . S
Eu336 O381 2.612 . S
Eu336 O383 2.339 . S
Eu336 O384 2.563 . S
Eu336 O385 2.419 . S
Eu336 O387 2.380 . S
Eu336 O388 2.432 . S
Eu336 C400 2.848 . S
C337 C340 1.429 . S
C337 C341 1.411 . S
C337 N344 1.377 . S
C338 C340 1.420 . S
C338 C342 1.423 . S
C338 C350 1.392 . S
C339 C341 1.420 . S
C339 C342 1.351 . S
C339 H362 0.931 . S
C340 C337 1.429 . S
C340 C338 1.420 . S
C340 N348 1.362 . S
C341 C337 1.411 . S
C341 C339 1.420 . S
C341 C346 1.395 . S
C342 C338 1.423 . S
C342 C339 1.351 . S
C342 H354 0.930 . S
C343 C345 1.400 . S
C343 C346 1.386 . S
C343 H355 0.930 . S
N344 C337 1.377 . S
N344 C345 1.321 . S
N344 Eu347 2.609 . S
C345 C343 1.400 . S
C345 N344 1.321 . S
C345 H352 0.930 . S
C346 C341 1.395 . S
C346 C343 1.386 . S
C346 H365 0.930 . S
Eu347 N344 2.609 . S
Eu347 N348 2.657 . S
Eu347 O381 2.380 . S
Eu347 O382 2.432 . S
Eu347 O386 2.558 1_565 S
Eu347 O387 2.612 . S
Eu347 O389 2.339 . S
Eu347 O390 2.563 . S
Eu347 O391 2.419 1_565 S
Eu347 C411 2.848 1_565 S
N348 C340 1.362 . S
N348 Eu347 2.657 . S
N348 C349 1.334 . S
C349 N348 1.334 . S
C349 C351 1.413 . S
C349 H356 0.929 . S
C350 C338 1.392 . S
C350 C351 1.367 . S
C350 H358 0.930 . S
C351 C349 1.413 . S
C351 C350 1.367 . S
C351 H353 0.930 . S
H352 C345 0.930 . S
H353 C351 0.930 . S
H354 C342 0.930 . S
H355 C343 0.930 . S
H356 C349 0.929 . S
H357 C371 0.930 . S
H358 C350 0.930 . S
H359 C377 0.930 . S
H360 C368 0.929 . S
H361 C375 0.930 . S
H362 C339 0.931 . S
H363 C369 0.930 1_455 S
H364 C402 0.951 . S
H365 C346 0.930 . S
H366 C401 0.931 1_455 S
N367 Eu336 2.657 . S
N367 C368 1.334 . S
N367 C372 1.362 . S
C368 H360 0.929 . S
C368 N367 1.334 . S
C368 C371 1.413 . S
C369 H363 0.930 1_655 S
C369 C370 1.392 . S
C369 C371 1.367 . S
C370 C369 1.392 . S
C370 C372 1.420 . S
C370 C402 1.407 1_655 S
C371 H357 0.930 . S
C371 C368 1.413 . S
C371 C369 1.367 . S
C372 N367 1.362 . S
C372 C370 1.420 . S
C372 C376 1.429 . S
H373 C378 0.930 . S
N374 Eu336 2.609 . S
N374 C376 1.377 . S
N374 C377 1.321 . S
C375 H361 0.930 . S
C375 C377 1.400 . S
C375 C378 1.386 . S
C376 C372 1.429 . S
C376 N374 1.377 . S
C376 C379 1.411 . S
C377 H359 0.930 . S
C377 N374 1.321 . S
C377 C375 1.400 . S
C378 H373 0.930 . S
C378 C375 1.386 . S
C378 C379 1.395 . S
C379 C376 1.411 . S
C379 C378 1.395 . S
C379 C401 1.420 . S
O380 Eu336 2.558 . S
O380 C400 1.257 . S
O381 Eu336 2.612 . S
O381 Eu347 2.380 . S
O381 C392 1.276 . S
O382 Eu347 2.432 . S
O382 C399 1.264 . S
O383 Eu336 2.339 . S
O383 C399 1.254 . S
O384 Eu336 2.563 . S
O384 C392 1.235 . S
O385 Eu336 2.419 . S
O385 C400 1.249 . S
O386 Eu347 2.558 1_545 S
O386 C411 1.257 . S
O387 Eu336 2.380 . S
O387 Eu347 2.612 . S
O387 C403 1.276 . S
O388 Eu336 2.432 . S
O388 C410 1.264 . S
O389 Eu347 2.339 . S
O389 C410 1.254 . S
O390 Eu347 2.563 . S
O390 C403 1.235 . S
O391 Eu347 2.419 1_545 S
O391 C411 1.249 . S
C392 O381 1.276 . S
C392 O384 1.235 . S
C393 C395 1.393 . S
C393 C397 1.395 . S
C393 C400 1.492 . S
C394 C395 1.392 . S
C394 C396 1.386 . S
C395 C393 1.393 . S
C395 C394 1.392 . S
C395 H412 0.930 . S
C396 C394 1.386 . S
C396 C398 1.395 . S
C396 H413 0.930 . S
C397 C393 1.395 . S
C397 C398 1.379 . S
C397 H414 0.930 . S
C398 C396 1.395 . S
C398 C397 1.379 . S
C398 H415 0.930 . S
C399 O382 1.264 . S
C399 O383 1.254 . S
C400 Eu336 2.848 . S
C400 O380 1.257 . S
C400 O385 1.249 . S
C400 C393 1.492 . S
C401 H366 0.931 1_655 S
C401 C379 1.420 . S
C401 C402 1.346 1_655 S
C402 H364 0.951 . S
C402 C370 1.407 1_455 S
C402 C401 1.346 1_455 S
C403 O387 1.276 . S
C403 O390 1.235 . S
C404 C405 1.393 . S
C404 C408 1.395 . S
C404 C411 1.492 . S
C405 C404 1.393 . S
C405 C406 1.392 . S
C405 H416 0.930 . S
C406 C405 1.392 . S
C406 C407 1.386 . S
C407 C406 1.386 . S
C407 C409 1.395 . S
C407 H417 0.930 . S
C408 C404 1.395 . S
C408 C409 1.379 . S
C408 H418 0.930 . S
C409 C407 1.395 . S
C409 C408 1.379 . S
C409 H419 0.930 . S
C410 O388 1.264 . S
C410 O389 1.254 . S
C411 Eu347 2.848 1_545 S
C411 O386 1.257 . S
C411 O391 1.249 . S
C411 C404 1.492 . S
H412 C395 0.930 . S
H413 C396 0.930 . S
H414 C397 0.930 . S
H415 C398 0.930 . S
H416 C405 0.930 . S
H417 C407 0.930 . S
H418 C408 0.930 . S
H419 C409 0.930 . S
Eu420 N451 2.657 . S
Eu420 N458 2.609 . S
Eu420 O464 2.558 . S
Eu420 O465 2.612 . S
Eu420 O467 2.339 . S
Eu420 O468 2.563 . S
Eu420 O469 2.419 . S
Eu420 O471 2.380 . S
Eu420 O472 2.432 . S
Eu420 C484 2.848 . S
C421 C424 1.429 . S
C421 C425 1.411 . S
C421 N428 1.377 . S
C422 C424 1.420 . S
C422 C426 1.423 . S
C422 C434 1.392 . S
C423 C425 1.420 . S
C423 C426 1.351 . S
C423 H446 0.931 . S
C424 C421 1.429 . S
C424 C422 1.420 . S
C424 N432 1.362 . S
C425 C421 1.411 . S
C425 C423 1.420 . S
C425 C430 1.395 . S
C426 C422 1.423 . S
C426 C423 1.351 . S
C426 H438 0.930 . S
C427 C429 1.400 . S
C427 C430 1.386 . S
C427 H439 0.930 . S
N428 C421 1.377 . S
N428 C429 1.321 . S
N428 Eu431 2.609 . S
C429 C427 1.400 . S
C429 N428 1.321 . S
C429 H436 0.930 . S
C430 C425 1.395 . S
C430 C427 1.386 . S
C430 H449 0.930 . S
Eu431 N428 2.609 . S
Eu431 N432 2.657 . S
Eu431 O465 2.380 . S
Eu431 O466 2.432 . S
Eu431 O470 2.558 1_545 S
Eu431 O471 2.612 . S
Eu431 O473 2.339 . S
Eu431 O474 2.563 . S
Eu431 O475 2.419 1_545 S
Eu431 C495 2.848 1_545 S
N432 C424 1.362 . S
N432 Eu431 2.657 . S
N432 C433 1.334 . S
C433 N432 1.334 . S
C433 C435 1.413 . S
C433 H440 0.929 . S
C434 C422 1.392 . S
C434 C435 1.367 . S
C434 H442 0.930 . S
C435 C433 1.413 . S
C435 C434 1.367 . S
C435 H437 0.930 . S
H436 C429 0.930 . S
H437 C435 0.930 . S
H438 C426 0.930 . S
H439 C427 0.930 . S
H440 C433 0.929 . S
H441 C455 0.930 . S
H442 C434 0.930 . S
H443 C461 0.930 . S
H444 C452 0.929 . S
H445 C459 0.930 . S
H446 C423 0.931 . S
H447 C453 0.930 1_655 S
H448 C486 0.951 . S
H449 C430 0.930 . S
H450 C485 0.931 1_655 S
N451 Eu420 2.657 . S
N451 C452 1.334 . S
N451 C456 1.362 . S
C452 H444 0.929 . S
C452 N451 1.334 . S
C452 C455 1.413 . S
C453 H447 0.930 1_455 S
C453 C454 1.392 . S
C453 C455 1.367 . S
C454 C453 1.392 . S
C454 C456 1.420 . S
C454 C486 1.407 1_455 S
C455 H441 0.930 . S
C455 C452 1.413 . S
C455 C453 1.367 . S
C456 N451 1.362 . S
C456 C454 1.420 . S
C456 C460 1.429 . S
H457 C462 0.930 . S
N458 Eu420 2.609 . S
N458 C460 1.377 . S
N458 C461 1.321 . S
C459 H445 0.930 . S
C459 C461 1.400 . S
C459 C462 1.386 . S
C460 C456 1.429 . S
C460 N458 1.377 . S
C460 C463 1.411 . S
C461 H443 0.930 . S
C461 N458 1.321 . S
C461 C459 1.400 . S
C462 H457 0.930 . S
C462 C459 1.386 . S
C462 C463 1.395 . S
C463 C460 1.411 . S
C463 C462 1.395 . S
C463 C485 1.420 . S
O464 Eu420 2.558 . S
O464 C484 1.257 . S
O465 Eu420 2.612 . S
O465 Eu431 2.380 . S
O465 C476 1.276 . S
O466 Eu431 2.432 . S
O466 C483 1.264 . S
O467 Eu420 2.339 . S
O467 C483 1.254 . S
O468 Eu420 2.563 . S
O468 C476 1.235 . S
O469 Eu420 2.419 . S
O469 C484 1.249 . S
O470 Eu431 2.558 1_565 S
O470 C495 1.257 . S
O471 Eu420 2.380 . S
O471 Eu431 2.612 . S
O471 C487 1.276 . S
O472 Eu420 2.432 . S
O472 C494 1.264 . S
O473 Eu431 2.339 . S
O473 C494 1.254 . S
O474 Eu431 2.563 . S
O474 C487 1.235 . S
O475 Eu431 2.419 1_565 S
O475 C495 1.249 . S
C476 O465 1.276 . S
C476 O468 1.235 . S
C477 C479 1.393 . S
C477 C481 1.395 . S
C477 C484 1.492 . S
C478 C479 1.392 . S
C478 C480 1.386 . S
C479 C477 1.393 . S
C479 C478 1.392 . S
C479 H496 0.930 . S
C480 C478 1.386 . S
C480 C482 1.395 . S
C480 H497 0.930 . S
C481 C477 1.395 . S
C481 C482 1.379 . S
C481 H498 0.930 . S
C482 C480 1.395 . S
C482 C481 1.379 . S
C482 H499 0.930 . S
C483 O466 1.264 . S
C483 O467 1.254 . S
C484 Eu420 2.848 . S
C484 O464 1.257 . S
C484 O469 1.249 . S
C484 C477 1.492 . S
C485 H450 0.931 1_455 S
C485 C463 1.420 . S
C485 C486 1.346 1_455 S
C486 H448 0.951 . S
C486 C454 1.407 1_655 S
C486 C485 1.346 1_655 S
C487 O471 1.276 . S
C487 O474 1.235 . S
C488 C489 1.393 . S
C488 C492 1.395 . S
C488 C495 1.492 . S
C489 C488 1.393 . S
C489 C490 1.392 . S
C489 H500 0.930 . S
C490 C489 1.392 . S
C490 C491 1.386 . S
C491 C490 1.386 . S
C491 C493 1.395 . S
C491 H501 0.930 . S
C492 C488 1.395 . S
C492 C493 1.379 . S
C492 H502 0.930 . S
C493 C491 1.395 . S
C493 C492 1.379 . S
C493 H503 0.930 . S
C494 O472 1.264 . S
C494 O473 1.254 . S
C495 Eu431 2.848 1_565 S
C495 O470 1.257 . S
C495 O475 1.249 . S
C495 C488 1.492 . S
H496 C479 0.930 . S
H497 C480 0.930 . S
H498 C481 0.930 . S
H499 C482 0.930 . S
H500 C489 0.930 . S
H501 C491 0.930 . S
H502 C492 0.930 . S
H503 C493 0.930 . S
Eu504 N535 2.657 . S
Eu504 N542 2.609 . S
Eu504 O548 2.558 . S
Eu504 O549 2.612 . S
Eu504 O551 2.339 . S
Eu504 O552 2.563 . S
Eu504 O553 2.419 . S
Eu504 O555 2.380 . S
Eu504 O556 2.432 . S
Eu504 C568 2.848 . S
C505 C508 1.429 . S
C505 C509 1.411 . S
C505 N512 1.377 . S
C506 C508 1.420 . S
C506 C510 1.423 . S
C506 C518 1.392 . S
C507 C509 1.420 . S
C507 C510 1.351 . S
C507 H530 0.931 . S
C508 C505 1.429 . S
C508 C506 1.420 . S
C508 N516 1.362 . S
C509 C505 1.411 . S
C509 C507 1.420 . S
C509 C514 1.395 . S
C510 C506 1.423 . S
C510 C507 1.351 . S
C510 H522 0.930 . S
C511 C513 1.400 . S
C511 C514 1.386 . S
C511 H523 0.930 . S
N512 C505 1.377 . S
N512 C513 1.321 . S
N512 Eu515 2.609 . S
C513 C511 1.400 . S
C513 N512 1.321 . S
C513 H520 0.930 . S
C514 C509 1.395 . S
C514 C511 1.386 . S
C514 H533 0.930 . S
Eu515 N512 2.609 . S
Eu515 N516 2.657 . S
Eu515 O549 2.380 . S
Eu515 O550 2.432 . S
Eu515 O554 2.558 1_545 S
Eu515 O555 2.612 . S
Eu515 O557 2.339 . S
Eu515 O558 2.563 . S
Eu515 O559 2.419 1_545 S
Eu515 C579 2.848 1_545 S
N516 C508 1.362 . S
N516 Eu515 2.657 . S
N516 C517 1.334 . S
C517 N516 1.334 . S
C517 C519 1.413 . S
C517 H524 0.929 . S
C518 C506 1.392 . S
C518 C519 1.367 . S
C518 H526 0.930 . S
C519 C517 1.413 . S
C519 C518 1.367 . S
C519 H521 0.930 . S
H520 C513 0.930 . S
H521 C519 0.930 . S
H522 C510 0.930 . S
H523 C511 0.930 . S
H524 C517 0.929 . S
H525 C539 0.930 . S
H526 C518 0.930 . S
H527 C545 0.930 . S
H528 C536 0.929 . S
H529 C543 0.930 . S
H530 C507 0.931 . S
H531 C537 0.930 1_455 S
H532 C570 0.951 . S
H533 C514 0.930 . S
H534 C569 0.931 1_455 S
N535 Eu504 2.657 . S
N535 C536 1.334 . S
N535 C540 1.362 . S
C536 H528 0.929 . S
C536 N535 1.334 . S
C536 C539 1.413 . S
C537 H531 0.930 1_655 S
C537 C538 1.392 . S
C537 C539 1.367 . S
C538 C537 1.392 . S
C538 C540 1.420 . S
C538 C570 1.407 1_655 S
C539 H525 0.930 . S
C539 C536 1.413 . S
C539 C537 1.367 . S
C540 N535 1.362 . S
C540 C538 1.420 . S
C540 C544 1.429 . S
H541 C546 0.930 . S
N542 Eu504 2.609 . S
N542 C544 1.377 . S
N542 C545 1.321 . S
C543 H529 0.930 . S
C543 C545 1.400 . S
C543 C546 1.386 . S
C544 C540 1.429 . S
C544 N542 1.377 . S
C544 C547 1.411 . S
C545 H527 0.930 . S
C545 N542 1.321 . S
C545 C543 1.400 . S
C546 H541 0.930 . S
C546 C543 1.386 . S
C546 C547 1.395 . S
C547 C544 1.411 . S
C547 C546 1.395 . S
C547 C569 1.420 . S
O548 Eu504 2.558 . S
O548 C568 1.257 . S
O549 Eu504 2.612 . S
O549 Eu515 2.380 . S
O549 C560 1.276 . S
O550 Eu515 2.432 . S
O550 C567 1.264 . S
O551 Eu504 2.339 . S
O551 C567 1.254 . S
O552 Eu504 2.563 . S
O552 C560 1.235 . S
O553 Eu504 2.419 . S
O553 C568 1.249 . S
O554 Eu515 2.558 1_565 S
O554 C579 1.257 . S
O555 Eu504 2.380 . S
O555 Eu515 2.612 . S
O555 C571 1.276 . S
O556 Eu504 2.432 . S
O556 C578 1.264 . S
O557 Eu515 2.339 . S
O557 C578 1.254 . S
O558 Eu515 2.563 . S
O558 C571 1.235 . S
O559 Eu515 2.419 1_565 S
O559 C579 1.249 . S
C560 O549 1.276 . S
C560 O552 1.235 . S
C561 C563 1.393 . S
C561 C565 1.395 . S
C561 C568 1.492 . S
C562 C563 1.392 . S
C562 C564 1.386 . S
C563 C561 1.393 . S
C563 C562 1.392 . S
C563 H580 0.930 . S
C564 C562 1.386 . S
C564 C566 1.395 . S
C564 H581 0.930 . S
C565 C561 1.395 . S
C565 C566 1.379 . S
C565 H582 0.930 . S
C566 C564 1.395 . S
C566 C565 1.379 . S
C566 H583 0.930 . S
C567 O550 1.264 . S
C567 O551 1.254 . S
C568 Eu504 2.848 . S
C568 O548 1.257 . S
C568 O553 1.249 . S
C568 C561 1.492 . S
C569 H534 0.931 1_655 S
C569 C547 1.420 . S
C569 C570 1.346 1_655 S
C570 H532 0.951 . S
C570 C538 1.407 1_455 S
C570 C569 1.346 1_455 S
C571 O555 1.276 . S
C571 O558 1.235 . S
C572 C573 1.393 . S
C572 C576 1.395 . S
C572 C579 1.492 . S
C573 C572 1.393 . S
C573 C574 1.392 . S
C573 H584 0.930 . S
C574 C573 1.392 . S
C574 C575 1.386 . S
C575 C574 1.386 . S
C575 C577 1.395 . S
C575 H585 0.930 . S
C576 C572 1.395 . S
C576 C577 1.379 . S
C576 H586 0.930 . S
C577 C575 1.395 . S
C577 C576 1.379 . S
C577 H587 0.930 . S
C578 O556 1.264 . S
C578 O557 1.254 . S
C579 Eu515 2.848 1_565 S
C579 O554 1.257 . S
C579 O559 1.249 . S
C579 C572 1.492 . S
H580 C563 0.930 . S
H581 C564 0.930 . S
H582 C565 0.930 . S
H583 C566 0.930 . S
H584 C573 0.930 . S
H585 C575 0.930 . S
H586 C576 0.930 . S
H587 C577 0.930 . S
Eu588 N619 2.657 . S
Eu588 N626 2.609 . S
Eu588 O632 2.558 . S
Eu588 O633 2.612 . S
Eu588 O635 2.339 . S
Eu588 O636 2.563 . S
Eu588 O637 2.419 . S
Eu588 O639 2.380 . S
Eu588 O640 2.432 . S
Eu588 C652 2.848 . S
C589 C592 1.429 . S
C589 C593 1.411 . S
C589 N596 1.377 . S
C590 C592 1.420 . S
C590 C594 1.423 . S
C590 C602 1.392 . S
C591 C593 1.420 . S
C591 C594 1.351 . S
C591 H614 0.931 . S
C592 C589 1.429 . S
C592 C590 1.420 . S
C592 N600 1.362 . S
C593 C589 1.411 . S
C593 C591 1.420 . S
C593 C598 1.395 . S
C594 C590 1.423 . S
C594 C591 1.351 . S
C594 H606 0.930 . S
C595 C597 1.400 . S
C595 C598 1.386 . S
C595 H607 0.930 . S
N596 C589 1.377 . S
N596 C597 1.321 . S
N596 Eu599 2.609 . S
C597 C595 1.400 . S
C597 N596 1.321 . S
C597 H604 0.930 . S
C598 C593 1.395 . S
C598 C595 1.386 . S
C598 H617 0.930 . S
Eu599 N596 2.609 . S
Eu599 N600 2.657 . S
Eu599 O633 2.380 . S
Eu599 O634 2.432 . S
Eu599 O638 2.558 1_565 S
Eu599 O639 2.612 . S
Eu599 O641 2.339 . S
Eu599 O642 2.563 . S
Eu599 O643 2.419 1_565 S
Eu599 C663 2.848 1_565 S
N600 C592 1.362 . S
N600 Eu599 2.657 . S
N600 C601 1.334 . S
C601 N600 1.334 . S
C601 C603 1.413 . S
C601 H608 0.929 . S
C602 C590 1.392 . S
C602 C603 1.367 . S
C602 H610 0.930 . S
C603 C601 1.413 . S
C603 C602 1.367 . S
C603 H605 0.930 . S
H604 C597 0.930 . S
H605 C603 0.930 . S
H606 C594 0.930 . S
H607 C595 0.930 . S
H608 C601 0.929 . S
H609 C623 0.930 . S
H610 C602 0.930 . S
H611 C629 0.930 . S
H612 C620 0.929 . S
H613 C627 0.930 . S
H614 C591 0.931 . S
H615 C621 0.930 1_655 S
H616 C654 0.951 . S
H617 C598 0.930 . S
H618 C653 0.931 1_655 S
N619 Eu588 2.657 . S
N619 C620 1.334 . S
N619 C624 1.362 . S
C620 H612 0.929 . S
C620 N619 1.334 . S
C620 C623 1.413 . S
C621 H615 0.930 1_455 S
C621 C622 1.392 . S
C621 C623 1.367 . S
C622 C621 1.392 . S
C622 C624 1.420 . S
C622 C654 1.407 1_455 S
C623 H609 0.930 . S
C623 C620 1.413 . S
C623 C621 1.367 . S
C624 N619 1.362 . S
C624 C622 1.420 . S
C624 C628 1.429 . S
H625 C630 0.930 . S
N626 Eu588 2.609 . S
N626 C628 1.377 . S
N626 C629 1.321 . S
C627 H613 0.930 . S
C627 C629 1.400 . S
C627 C630 1.386 . S
C628 C624 1.429 . S
C628 N626 1.377 . S
C628 C631 1.411 . S
C629 H611 0.930 . S
C629 N626 1.321 . S
C629 C627 1.400 . S
C630 H625 0.930 . S
C630 C627 1.386 . S
C630 C631 1.395 . S
C631 C628 1.411 . S
C631 C630 1.395 . S
C631 C653 1.420 . S
O632 Eu588 2.558 . S
O632 C652 1.257 . S
O633 Eu588 2.612 . S
O633 Eu599 2.380 . S
O633 C644 1.276 . S
O634 Eu599 2.432 . S
O634 C651 1.264 . S
O635 Eu588 2.339 . S
O635 C651 1.254 . S
O636 Eu588 2.563 . S
O636 C644 1.235 . S
O637 Eu588 2.419 . S
O637 C652 1.249 . S
O638 Eu599 2.558 1_545 S
O638 C663 1.257 . S
O639 Eu588 2.380 . S
O639 Eu599 2.612 . S
O639 C655 1.276 . S
O640 Eu588 2.432 . S
O640 C662 1.264 . S
O641 Eu599 2.339 . S
O641 C662 1.254 . S
O642 Eu599 2.563 . S
O642 C655 1.235 . S
O643 Eu599 2.419 1_545 S
O643 C663 1.249 . S
C644 O633 1.276 . S
C644 O636 1.235 . S
C645 C647 1.393 . S
C645 C649 1.395 . S
C645 C652 1.492 . S
C646 C647 1.392 . S
C646 C648 1.386 . S
C647 C645 1.393 . S
C647 C646 1.392 . S
C647 H664 0.930 . S
C648 C646 1.386 . S
C648 C650 1.395 . S
C648 H665 0.930 . S
C649 C645 1.395 . S
C649 C650 1.379 . S
C649 H666 0.930 . S
C650 C648 1.395 . S
C650 C649 1.379 . S
C650 H667 0.930 . S
C651 O634 1.264 . S
C651 O635 1.254 . S
C652 Eu588 2.848 . S
C652 O632 1.257 . S
C652 O637 1.249 . S
C652 C645 1.492 . S
C653 H618 0.931 1_455 S
C653 C631 1.420 . S
C653 C654 1.346 1_455 S
C654 H616 0.951 . S
C654 C622 1.407 1_655 S
C654 C653 1.346 1_655 S
C655 O639 1.276 . S
C655 O642 1.235 . S
C656 C657 1.393 . S
C656 C660 1.395 . S
C656 C663 1.492 . S
C657 C656 1.393 . S
C657 C658 1.392 . S
C657 H668 0.930 . S
C658 C657 1.392 . S
C658 C659 1.386 . S
C659 C658 1.386 . S
C659 C661 1.395 . S
C659 H669 0.930 . S
C660 C656 1.395 . S
C660 C661 1.379 . S
C660 H670 0.930 . S
C661 C659 1.395 . S
C661 C660 1.379 . S
C661 H671 0.930 . S
C662 O640 1.264 . S
C662 O641 1.254 . S
C663 Eu599 2.848 1_545 S
C663 O638 1.257 . S
C663 O643 1.249 . S
C663 C656 1.492 . S
H664 C647 0.930 . S
H665 C648 0.930 . S
H666 C649 0.930 . S
H667 C650 0.930 . S
H668 C657 0.930 . S
H669 C659 0.930 . S
H670 C660 0.930 . S
H671 C661 0.930 . S
Eu672 N703 2.657 . S
Eu672 N710 2.609 . S
Eu672 O716 2.558 . S
Eu672 O717 2.612 . S
Eu672 O719 2.339 . S
Eu672 O720 2.563 . S
Eu672 O721 2.419 . S
Eu672 O723 2.380 . S
Eu672 O724 2.432 . S
Eu672 C736 2.848 . S
C673 C676 1.429 . S
C673 C677 1.411 . S
C673 N680 1.377 . S
C674 C676 1.420 . S
C674 C678 1.423 . S
C674 C686 1.392 . S
C675 C677 1.420 . S
C675 C678 1.351 . S
C675 H698 0.931 . S
C676 C673 1.429 . S
C676 C674 1.420 . S
C676 N684 1.362 . S
C677 C673 1.411 . S
C677 C675 1.420 . S
C677 C682 1.395 . S
C678 C674 1.423 . S
C678 C675 1.351 . S
C678 H690 0.930 . S
C679 C681 1.400 . S
C679 C682 1.386 . S
C679 H691 0.930 . S
N680 C673 1.377 . S
N680 C681 1.321 . S
N680 Eu683 2.609 . S
C681 C679 1.400 . S
C681 N680 1.321 . S
C681 H688 0.930 . S
C682 C677 1.395 . S
C682 C679 1.386 . S
C682 H701 0.930 . S
Eu683 N680 2.609 . S
Eu683 N684 2.657 . S
Eu683 O717 2.380 . S
Eu683 O718 2.432 . S
Eu683 O722 2.558 . S
Eu683 O723 2.612 . S
Eu683 O725 2.339 . S
Eu683 O726 2.563 . S
Eu683 O727 2.419 . S
Eu683 C747 2.848 . S
N684 C676 1.362 . S
N684 Eu683 2.657 . S
N684 C685 1.334 . S
C685 N684 1.334 . S
C685 C687 1.413 . S
C685 H692 0.929 . S
C686 C674 1.392 . S
C686 C687 1.367 . S
C686 H694 0.930 . S
C687 C685 1.413 . S
C687 C686 1.367 . S
C687 H689 0.930 . S
H688 C681 0.930 . S
H689 C687 0.930 . S
H690 C678 0.930 . S
H691 C679 0.930 . S
H692 C685 0.929 . S
H693 C707 0.930 . S
H694 C686 0.930 . S
H695 C713 0.930 . S
H696 C704 0.929 . S
H697 C711 0.930 . S
H698 C675 0.931 . S
H699 C705 0.930 . S
H700 C738 0.930 . S
H701 C682 0.930 . S
H702 C737 0.931 . S
N703 Eu672 2.657 . S
N703 C704 1.334 . S
N703 C708 1.362 . S
C704 H696 0.929 . S
C704 N703 1.334 . S
C704 C707 1.413 . S
C705 H699 0.930 . S
C705 C706 1.392 . S
C705 C707 1.367 . S
C706 C705 1.392 . S
C706 C708 1.420 . S
C706 C738 1.423 . S
C707 H693 0.930 . S
C707 C704 1.413 . S
C707 C705 1.367 . S
C708 N703 1.362 . S
C708 C706 1.420 . S
C708 C712 1.429 . S
H709 C714 0.930 . S
N710 Eu672 2.609 . S
N710 C712 1.377 . S
N710 C713 1.321 . S
C711 H697 0.930 . S
C711 C713 1.400 . S
C711 C714 1.386 . S
C712 C708 1.429 . S
C712 N710 1.377 . S
C712 C715 1.411 . S
C713 H695 0.930 . S
C713 N710 1.321 . S
C713 C711 1.400 . S
C714 H709 0.930 . S
C714 C711 1.386 . S
C714 C715 1.395 . S
C715 C712 1.411 . S
C715 C714 1.395 . S
C715 C737 1.420 . S
O716 Eu672 2.558 . S
O716 C736 1.257 . S
O717 Eu672 2.612 . S
O717 Eu683 2.380 . S
O717 C728 1.276 . S
O718 Eu683 2.432 . S
O718 C735 1.264 . S
O719 Eu672 2.339 . S
O719 C735 1.254 . S
O720 Eu672 2.563 . S
O720 C728 1.235 . S
O721 Eu672 2.419 . S
O721 C736 1.249 . S
O722 Eu683 2.558 . S
O722 C747 1.257 . S
O723 Eu672 2.380 . S
O723 Eu683 2.612 . S
O723 C739 1.276 . S
O724 Eu672 2.432 . S
O724 C746 1.264 . S
O725 Eu683 2.339 . S
O725 C746 1.254 . S
O726 Eu683 2.563 . S
O726 C739 1.235 . S
O727 Eu683 2.419 . S
O727 C747 1.249 . S
C728 O717 1.276 . S
C728 O720 1.235 . S
C729 C731 1.393 . S
C729 C733 1.395 . S
C729 C736 1.492 . S
C730 C731 1.392 . S
C730 C732 1.386 . S
C731 C729 1.393 . S
C731 C730 1.392 . S
C731 H748 0.930 . S
C732 C730 1.386 . S
C732 C734 1.395 . S
C732 H749 0.930 . S
C733 C729 1.395 . S
C733 C734 1.379 . S
C733 H750 0.930 . S
C734 C732 1.395 . S
C734 C733 1.379 . S
C734 H751 0.930 . S
C735 O718 1.264 . S
C735 O719 1.254 . S
C736 Eu672 2.848 . S
C736 O716 1.257 . S
C736 O721 1.249 . S
C736 C729 1.492 . S
C737 H702 0.931 . S
C737 C715 1.420 . S
C737 C738 1.351 . S
C738 H700 0.930 . S
C738 C706 1.423 . S
C738 C737 1.351 . S
C739 O723 1.276 . S
C739 O726 1.235 . S
C740 C741 1.393 . S
C740 C744 1.395 . S
C740 C747 1.492 . S
C741 C740 1.393 . S
C741 C742 1.392 . S
C741 H752 0.930 . S
C742 C741 1.392 . S
C742 C743 1.386 . S
C743 C742 1.386 . S
C743 C745 1.395 . S
C743 H753 0.930 1_565 S
C744 C740 1.395 . S
C744 C745 1.379 . S
C744 H754 0.930 . S
C745 C743 1.395 . S
C745 C744 1.379 . S
C745 H755 0.930 . S
C746 O724 1.264 . S
C746 O725 1.254 . S
C747 Eu683 2.848 . S
C747 O722 1.257 . S
C747 O727 1.249 . S
C747 C740 1.492 . S
H748 C731 0.930 . S
H749 C732 0.930 . S
H750 C733 0.930 . S
H751 C734 0.930 . S
H752 C741 0.930 . S
H753 C743 0.930 1_545 S
H754 C744 0.930 . S
H755 C745 0.930 . S
Eu756 N787 2.657 . S
Eu756 N794 2.609 . S
Eu756 O800 2.558 . S
Eu756 O801 2.612 . S
Eu756 O803 2.339 . S
Eu756 O804 2.563 . S
Eu756 O805 2.419 . S
Eu756 O807 2.380 . S
Eu756 O808 2.432 . S
Eu756 C820 2.848 . S
C757 C760 1.429 . S
C757 C761 1.411 . S
C757 N764 1.377 . S
C758 C760 1.420 . S
C758 C762 1.423 . S
C758 C770 1.392 . S
C759 C761 1.420 . S
C759 C762 1.351 . S
C759 H782 0.931 . S
C760 C757 1.429 . S
C760 C758 1.420 . S
C760 N768 1.362 . S
C761 C757 1.411 . S
C761 C759 1.420 . S
C761 C766 1.395 . S
C762 C758 1.423 . S
C762 C759 1.351 . S
C762 H774 0.930 . S
C763 C765 1.400 . S
C763 C766 1.386 . S
C763 H775 0.930 . S
N764 C757 1.377 . S
N764 C765 1.321 . S
N764 Eu767 2.609 . S
C765 C763 1.400 . S
C765 N764 1.321 . S
C765 H772 0.930 . S
C766 C761 1.395 . S
C766 C763 1.386 . S
C766 H785 0.930 . S
Eu767 N764 2.609 . S
Eu767 N768 2.657 . S
Eu767 O801 2.380 . S
Eu767 O802 2.432 . S
Eu767 O806 2.558 . S
Eu767 O807 2.612 . S
Eu767 O809 2.339 . S
Eu767 O810 2.563 . S
Eu767 O811 2.419 . S
Eu767 C831 2.848 . S
N768 C760 1.362 . S
N768 Eu767 2.657 . S
N768 C769 1.334 . S
C769 N768 1.334 . S
C769 C771 1.413 . S
C769 H776 0.929 . S
C770 C758 1.392 . S
C770 C771 1.367 . S
C770 H778 0.930 . S
C771 C769 1.413 . S
C771 C770 1.367 . S
C771 H773 0.930 . S
H772 C765 0.930 . S
H773 C771 0.930 . S
H774 C762 0.930 . S
H775 C763 0.930 . S
H776 C769 0.929 . S
H777 C791 0.930 . S
H778 C770 0.930 . S
H779 C797 0.930 . S
H780 C788 0.929 . S
H781 C795 0.930 . S
H782 C759 0.931 . S
H783 C789 0.930 . S
H784 C822 0.930 . S
H785 C766 0.930 . S
H786 C821 0.931 . S
N787 Eu756 2.657 . S
N787 C788 1.334 . S
N787 C792 1.362 . S
C788 H780 0.929 . S
C788 N787 1.334 . S
C788 C791 1.413 . S
C789 H783 0.930 . S
C789 C790 1.392 . S
C789 C791 1.367 . S
C790 C789 1.392 . S
C790 C792 1.420 . S
C790 C822 1.423 . S
C791 H777 0.930 . S
C791 C788 1.413 . S
C791 C789 1.367 . S
C792 N787 1.362 . S
C792 C790 1.420 . S
C792 C796 1.429 . S
H793 C798 0.930 . S
N794 Eu756 2.609 . S
N794 C796 1.377 . S
N794 C797 1.321 . S
C795 H781 0.930 . S
C795 C797 1.400 . S
C795 C798 1.386 . S
C796 C792 1.429 . S
C796 N794 1.377 . S
C796 C799 1.411 . S
C797 H779 0.930 . S
C797 N794 1.321 . S
C797 C795 1.400 . S
C798 H793 0.930 . S
C798 C795 1.386 . S
C798 C799 1.395 . S
C799 C796 1.411 . S
C799 C798 1.395 . S
C799 C821 1.420 . S
O800 Eu756 2.558 . S
O800 C820 1.257 . S
O801 Eu756 2.612 . S
O801 Eu767 2.380 . S
O801 C812 1.276 . S
O802 Eu767 2.432 . S
O802 C819 1.264 . S
O803 Eu756 2.339 . S
O803 C819 1.254 . S
O804 Eu756 2.563 . S
O804 C812 1.235 . S
O805 Eu756 2.419 . S
O805 C820 1.249 . S
O806 Eu767 2.558 . S
O806 C831 1.257 . S
O807 Eu756 2.380 . S
O807 Eu767 2.612 . S
O807 C823 1.276 . S
O808 Eu756 2.432 . S
O808 C830 1.264 . S
O809 Eu767 2.339 . S
O809 C830 1.254 . S
O810 Eu767 2.563 . S
O810 C823 1.235 . S
O811 Eu767 2.419 . S
O811 C831 1.249 . S
C812 O801 1.276 . S
C812 O804 1.235 . S
C813 C815 1.393 . S
C813 C817 1.395 . S
C813 C820 1.492 . S
C814 C815 1.392 . S
C814 C816 1.386 . S
C815 C813 1.393 . S
C815 C814 1.392 . S
C815 H832 0.930 . S
C816 C814 1.386 . S
C816 C818 1.395 . S
C816 H833 0.930 . S
C817 C813 1.395 . S
C817 C818 1.379 . S
C817 H834 0.930 . S
C818 C816 1.395 . S
C818 C817 1.379 . S
C818 H835 0.930 . S
C819 O802 1.264 . S
C819 O803 1.254 . S
C820 Eu756 2.848 . S
C820 O800 1.257 . S
C820 O805 1.249 . S
C820 C813 1.492 . S
C821 H786 0.931 . S
C821 C799 1.420 . S
C821 C822 1.351 . S
C822 H784 0.930 . S
C822 C790 1.423 . S
C822 C821 1.351 . S
C823 O807 1.276 . S
C823 O810 1.235 . S
C824 C825 1.393 . S
C824 C828 1.395 . S
C824 C831 1.492 . S
C825 C824 1.393 . S
C825 C826 1.392 . S
C825 H836 0.930 . S
C826 C825 1.392 . S
C826 C827 1.386 . S
C827 C826 1.386 . S
C827 C829 1.395 . S
C827 H837 0.930 1_545 S
C828 C824 1.395 . S
C828 C829 1.379 . S
C828 H838 0.930 . S
C829 C827 1.395 . S
C829 C828 1.379 . S
C829 H839 0.930 . S
C830 O808 1.264 . S
C830 O809 1.254 . S
C831 Eu767 2.848 . S
C831 O806 1.257 . S
C831 O811 1.249 . S
C831 C824 1.492 . S
H832 C815 0.930 . S
H833 C816 0.930 . S
H834 C817 0.930 . S
H835 C818 0.930 . S
H836 C825 0.930 . S
H837 C827 0.930 1_565 S
H838 C828 0.930 . S
H839 C829 0.930 . S
Eu840 N871 2.657 . S
Eu840 N878 2.609 . S
Eu840 O884 2.558 . S
Eu840 O885 2.612 . S
Eu840 O887 2.339 . S
Eu840 O888 2.563 . S
Eu840 O889 2.419 . S
Eu840 O891 2.380 . S
Eu840 O892 2.432 . S
Eu840 C904 2.848 . S
C841 C844 1.429 . S
C841 C845 1.411 . S
C841 N848 1.377 . S
C842 C844 1.420 . S
C842 C846 1.423 . S
C842 C854 1.392 . S
C843 C845 1.420 . S
C843 C846 1.351 . S
C843 H866 0.931 . S
C844 C841 1.429 . S
C844 C842 1.420 . S
C844 N852 1.362 . S
C845 C841 1.411 . S
C845 C843 1.420 . S
C845 C850 1.395 . S
C846 C842 1.423 . S
C846 C843 1.351 . S
C846 H858 0.930 . S
C847 C849 1.400 . S
C847 C850 1.386 . S
C847 H859 0.930 . S
N848 C841 1.377 . S
N848 C849 1.321 . S
N848 Eu851 2.609 . S
C849 C847 1.400 . S
C849 N848 1.321 . S
C849 H856 0.930 . S
C850 C845 1.395 . S
C850 C847 1.386 . S
C850 H869 0.930 . S
Eu851 N848 2.609 . S
Eu851 N852 2.657 . S
Eu851 O885 2.380 . S
Eu851 O886 2.432 . S
Eu851 O890 2.558 . S
Eu851 O891 2.612 . S
Eu851 O893 2.339 . S
Eu851 O894 2.563 . S
Eu851 O895 2.419 . S
Eu851 C915 2.848 . S
N852 C844 1.362 . S
N852 Eu851 2.657 . S
N852 C853 1.334 . S
C853 N852 1.334 . S
C853 C855 1.413 . S
C853 H860 0.929 . S
C854 C842 1.392 . S
C854 C855 1.367 . S
C854 H862 0.930 . S
C855 C853 1.413 . S
C855 C854 1.367 . S
C855 H857 0.930 . S
H856 C849 0.930 . S
H857 C855 0.930 . S
H858 C846 0.930 . S
H859 C847 0.930 . S
H860 C853 0.929 . S
H861 C875 0.930 . S
H862 C854 0.930 . S
H863 C881 0.930 . S
H864 C872 0.929 . S
H865 C879 0.930 . S
H866 C843 0.931 . S
H867 C873 0.930 . S
H868 C906 0.930 . S
H869 C850 0.930 . S
H870 C905 0.931 . S
N871 Eu840 2.657 . S
N871 C872 1.334 . S
N871 C876 1.362 . S
C872 H864 0.929 . S
C872 N871 1.334 . S
C872 C875 1.413 . S
C873 H867 0.930 . S
C873 C874 1.392 . S
C873 C875 1.367 . S
C874 C873 1.392 . S
C874 C876 1.420 . S
C874 C906 1.423 . S
C875 H861 0.930 . S
C875 C872 1.413 . S
C875 C873 1.367 . S
C876 N871 1.362 . S
C876 C874 1.420 . S
C876 C880 1.429 . S
H877 C882 0.930 . S
N878 Eu840 2.609 . S
N878 C880 1.377 . S
N878 C881 1.321 . S
C879 H865 0.930 . S
C879 C881 1.400 . S
C879 C882 1.386 . S
C880 C876 1.429 . S
C880 N878 1.377 . S
C880 C883 1.411 . S
C881 H863 0.930 . S
C881 N878 1.321 . S
C881 C879 1.400 . S
C882 H877 0.930 . S
C882 C879 1.386 . S
C882 C883 1.395 . S
C883 C880 1.411 . S
C883 C882 1.395 . S
C883 C905 1.420 . S
O884 Eu840 2.558 . S
O884 C904 1.257 . S
O885 Eu840 2.612 . S
O885 Eu851 2.380 . S
O885 C896 1.276 . S
O886 Eu851 2.432 . S
O886 C903 1.264 . S
O887 Eu840 2.339 . S
O887 C903 1.254 . S
O888 Eu840 2.563 . S
O888 C896 1.235 . S
O889 Eu840 2.419 . S
O889 C904 1.249 . S
O890 Eu851 2.558 . S
O890 C915 1.257 . S
O891 Eu840 2.380 . S
O891 Eu851 2.612 . S
O891 C907 1.276 . S
O892 Eu840 2.432 . S
O892 C914 1.264 . S
O893 Eu851 2.339 . S
O893 C914 1.254 . S
O894 Eu851 2.563 . S
O894 C907 1.235 . S
O895 Eu851 2.419 . S
O895 C915 1.249 . S
C896 O885 1.276 . S
C896 O888 1.235 . S
C897 C899 1.393 . S
C897 C901 1.395 . S
C897 C904 1.492 . S
C898 C899 1.392 . S
C898 C900 1.386 . S
C899 C897 1.393 . S
C899 C898 1.392 . S
C899 H916 0.930 . S
C900 C898 1.386 . S
C900 C902 1.395 . S
C900 H917 0.930 . S
C901 C897 1.395 . S
C901 C902 1.379 . S
C901 H918 0.930 . S
C902 C900 1.395 . S
C902 C901 1.379 . S
C902 H919 0.930 . S
C903 O886 1.264 . S
C903 O887 1.254 . S
C904 Eu840 2.848 . S
C904 O884 1.257 . S
C904 O889 1.249 . S
C904 C897 1.492 . S
C905 H870 0.931 . S
C905 C883 1.420 . S
C905 C906 1.351 . S
C906 H868 0.930 . S
C906 C874 1.423 . S
C906 C905 1.351 . S
C907 O891 1.276 . S
C907 O894 1.235 . S
C908 C909 1.393 . S
C908 C912 1.395 . S
C908 C915 1.492 . S
C909 C908 1.393 . S
C909 C910 1.392 . S
C909 H920 0.930 . S
C910 C909 1.392 . S
C910 C911 1.386 . S
C911 C910 1.386 . S
C911 C913 1.395 . S
C911 H921 0.930 1_545 S
C912 C908 1.395 . S
C912 C913 1.379 . S
C912 H922 0.930 . S
C913 C911 1.395 . S
C913 C912 1.379 . S
C913 H923 0.930 . S
C914 O892 1.264 . S
C914 O893 1.254 . S
C915 Eu851 2.848 . S
C915 O890 1.257 . S
C915 O895 1.249 . S
C915 C908 1.492 . S
H916 C899 0.930 . S
H917 C900 0.930 . S
H918 C901 0.930 . S
H919 C902 0.930 . S
H920 C909 0.930 . S
H921 C911 0.930 1_565 S
H922 C912 0.930 . S
H923 C913 0.930 . S
Eu924 N955 2.657 . S
Eu924 N962 2.609 . S
Eu924 O968 2.558 . S
Eu924 O969 2.612 . S
Eu924 O971 2.339 . S
Eu924 O972 2.563 . S
Eu924 O973 2.419 . S
Eu924 O975 2.380 . S
Eu924 O976 2.432 . S
Eu924 C988 2.848 . S
C925 C928 1.429 . S
C925 C929 1.411 . S
C925 N932 1.377 . S
C926 C928 1.420 . S
C926 C930 1.423 . S
C926 C938 1.392 . S
C927 C929 1.420 . S
C927 C930 1.351 . S
C927 H950 0.931 . S
C928 C925 1.429 . S
C928 C926 1.420 . S
C928 N936 1.362 . S
C929 C925 1.411 . S
C929 C927 1.420 . S
C929 C934 1.395 . S
C930 C926 1.423 . S
C930 C927 1.351 . S
C930 H942 0.930 . S
C931 C933 1.400 . S
C931 C934 1.386 . S
C931 H943 0.930 . S
N932 C925 1.377 . S
N932 C933 1.321 . S
N932 Eu935 2.609 . S
C933 C931 1.400 . S
C933 N932 1.321 . S
C933 H940 0.930 . S
C934 C929 1.395 . S
C934 C931 1.386 . S
C934 H953 0.930 . S
Eu935 N932 2.609 . S
Eu935 N936 2.657 . S
Eu935 O969 2.380 . S
Eu935 O970 2.432 . S
Eu935 O974 2.558 . S
Eu935 O975 2.612 . S
Eu935 O977 2.339 . S
Eu935 O978 2.563 . S
Eu935 O979 2.419 . S
Eu935 C999 2.848 . S
N936 C928 1.362 . S
N936 Eu935 2.657 . S
N936 C937 1.334 . S
C937 N936 1.334 . S
C937 C939 1.413 . S
C937 H944 0.929 . S
C938 C926 1.392 . S
C938 C939 1.367 . S
C938 H946 0.930 . S
C939 C937 1.413 . S
C939 C938 1.367 . S
C939 H941 0.930 . S
H940 C933 0.930 . S
H941 C939 0.930 . S
H942 C930 0.930 . S
H943 C931 0.930 . S
H944 C937 0.929 . S
H945 C959 0.930 . S
H946 C938 0.930 . S
H947 C965 0.930 . S
H948 C956 0.929 . S
H949 C963 0.930 . S
H950 C927 0.931 . S
H951 C957 0.930 . S
H952 C990 0.930 . S
H953 C934 0.930 . S
H954 C989 0.931 . S
N955 Eu924 2.657 . S
N955 C956 1.334 . S
N955 C960 1.362 . S
C956 H948 0.929 . S
C956 N955 1.334 . S
C956 C959 1.413 . S
C957 H951 0.930 . S
C957 C958 1.392 . S
C957 C959 1.367 . S
C958 C957 1.392 . S
C958 C960 1.420 . S
C958 C990 1.423 . S
C959 H945 0.930 . S
C959 C956 1.413 . S
C959 C957 1.367 . S
C960 N955 1.362 . S
C960 C958 1.420 . S
C960 C964 1.429 . S
H961 C966 0.930 . S
N962 Eu924 2.609 . S
N962 C964 1.377 . S
N962 C965 1.321 . S
C963 H949 0.930 . S
C963 C965 1.400 . S
C963 C966 1.386 . S
C964 C960 1.429 . S
C964 N962 1.377 . S
C964 C967 1.411 . S
C965 H947 0.930 . S
C965 N962 1.321 . S
C965 C963 1.400 . S
C966 H961 0.930 . S
C966 C963 1.386 . S
C966 C967 1.395 . S
C967 C964 1.411 . S
C967 C966 1.395 . S
C967 C989 1.420 . S
O968 Eu924 2.558 . S
O968 C988 1.257 . S
O969 Eu924 2.612 . S
O969 Eu935 2.380 . S
O969 C980 1.276 . S
O970 Eu935 2.432 . S
O970 C987 1.264 . S
O971 Eu924 2.339 . S
O971 C987 1.254 . S
O972 Eu924 2.563 . S
O972 C980 1.235 . S
O973 Eu924 2.419 . S
O973 C988 1.249 . S
O974 Eu935 2.558 . S
O974 C999 1.257 . S
O975 Eu924 2.380 . S
O975 Eu935 2.612 . S
O975 C991 1.276 . S
O976 Eu924 2.432 . S
O976 C998 1.264 . S
O977 Eu935 2.339 . S
O977 C998 1.254 . S
O978 Eu935 2.563 . S
O978 C991 1.235 . S
O979 Eu935 2.419 . S
O979 C999 1.249 . S
C980 O969 1.276 . S
C980 O972 1.235 . S
C981 C983 1.393 . S
C981 C985 1.395 . S
C981 C988 1.492 . S
C982 C983 1.392 . S
C982 C984 1.386 . S
C983 C981 1.393 . S
C983 C982 1.392 . S
C983 H1000 0.930 . S
C984 C982 1.386 . S
C984 C986 1.395 . S
C984 H1001 0.930 . S
C985 C981 1.395 . S
C985 C986 1.379 . S
C985 H1002 0.930 . S
C986 C984 1.395 . S
C986 C985 1.379 . S
C986 H1003 0.930 . S
C987 O970 1.264 . S
C987 O971 1.254 . S
C988 Eu924 2.848 . S
C988 O968 1.257 . S
C988 O973 1.249 . S
C988 C981 1.492 . S
C989 H954 0.931 . S
C989 C967 1.420 . S
C989 C990 1.351 . S
C990 H952 0.930 . S
C990 C958 1.423 . S
C990 C989 1.351 . S
C991 O975 1.276 . S
C991 O978 1.235 . S
C992 C993 1.393 . S
C992 C996 1.395 . S
C992 C999 1.492 . S
C993 C992 1.393 . S
C993 C994 1.392 . S
C993 H1004 0.930 . S
C994 C993 1.392 . S
C994 C995 1.386 . S
C995 C994 1.386 . S
C995 C997 1.395 . S
C995 H1005 0.930 1_565 S
C996 C992 1.395 . S
C996 C997 1.379 . S
C996 H1006 0.930 . S
C997 C995 1.395 . S
C997 C996 1.379 . S
C997 H1007 0.930 . S
C998 O976 1.264 . S
C998 O977 1.254 . S
C999 Eu935 2.848 . S
C999 O974 1.257 . S
C999 O979 1.249 . S
C999 C992 1.492 . S
H1000 C983 0.930 . S
H1001 C984 0.930 . S
H1002 C985 0.930 . S
H1003 C986 0.930 . S
H1004 C993 0.930 . S
H1005 C995 0.930 1_545 S
H1006 C996 0.930 . S
H1007 C997 0.930 . S
Eu1008 N1039 2.657 . S
Eu1008 N1046 2.609 . S
Eu1008 O1052 2.558 . S
Eu1008 O1053 2.612 . S
Eu1008 O1055 2.339 . S
Eu1008 O1056 2.563 . S
Eu1008 O1057 2.419 . S
Eu1008 O1059 2.380 . S
Eu1008 O1060 2.432 . S
Eu1008 C1072 2.848 . S
C1009 C1012 1.429 . S
C1009 C1013 1.411 . S
C1009 N1016 1.377 . S
C1010 C1012 1.420 . S
C1010 C1014 1.423 . S
C1010 C1022 1.392 . S
C1011 C1013 1.420 . S
C1011 C1014 1.351 . S
C1011 H1034 0.931 . S
C1012 C1009 1.429 . S
C1012 C1010 1.420 . S
C1012 N1020 1.362 . S
C1013 C1009 1.411 . S
C1013 C1011 1.420 . S
C1013 C1018 1.395 . S
C1014 C1010 1.423 . S
C1014 C1011 1.351 . S
C1014 H1026 0.930 . S
C1015 C1017 1.400 . S
C1015 C1018 1.386 . S
C1015 H1027 0.930 . S
N1016 C1009 1.377 . S
N1016 C1017 1.321 . S
N1016 Eu1019 2.609 . S
C1017 C1015 1.400 . S
C1017 N1016 1.321 . S
C1017 H1024 0.930 . S
C1018 C1013 1.395 . S
C1018 C1015 1.386 . S
C1018 H1037 0.930 . S
Eu1019 N1016 2.609 . S
Eu1019 N1020 2.657 . S
Eu1019 O1053 2.380 . S
Eu1019 O1054 2.432 . S
Eu1019 O1058 2.558 . S
Eu1019 O1059 2.612 . S
Eu1019 O1061 2.339 . S
Eu1019 O1062 2.563 . S
Eu1019 O1063 2.419 . S
Eu1019 C1083 2.848 . S
N1020 C1012 1.362 . S
N1020 Eu1019 2.657 . S
N1020 C1021 1.334 . S
C1021 N1020 1.334 . S
C1021 C1023 1.413 . S
C1021 H1028 0.929 . S
C1022 C1010 1.392 . S
C1022 C1023 1.367 . S
C1022 H1030 0.930 . S
C1023 C1021 1.413 . S
C1023 C1022 1.367 . S
C1023 H1025 0.930 . S
H1024 C1017 0.930 . S
H1025 C1023 0.930 . S
H1026 C1014 0.930 . S
H1027 C1015 0.930 . S
H1028 C1021 0.929 . S
H1029 C1043 0.930 . S
H1030 C1022 0.930 . S
H1031 C1049 0.930 . S
H1032 C1040 0.929 . S
H1033 C1047 0.930 . S
H1034 C1011 0.931 . S
H1035 C1041 0.930 . S
H1036 C1074 0.930 . S
H1037 C1018 0.930 . S
H1038 C1073 0.931 . S
N1039 Eu1008 2.657 . S
N1039 C1040 1.334 . S
N1039 C1044 1.362 . S
C1040 H1032 0.929 . S
C1040 N1039 1.334 . S
C1040 C1043 1.413 . S
C1041 H1035 0.930 . S
C1041 C1042 1.392 . S
C1041 C1043 1.367 . S
C1042 C1041 1.392 . S
C1042 C1044 1.420 . S
C1042 C1074 1.423 . S
C1043 H1029 0.930 . S
C1043 C1040 1.413 . S
C1043 C1041 1.367 . S
C1044 N1039 1.362 . S
C1044 C1042 1.420 . S
C1044 C1048 1.429 . S
H1045 C1050 0.930 . S
N1046 Eu1008 2.609 . S
N1046 C1048 1.377 . S
N1046 C1049 1.321 . S
C1047 H1033 0.930 . S
C1047 C1049 1.400 . S
C1047 C1050 1.386 . S
C1048 C1044 1.429 . S
C1048 N1046 1.377 . S
C1048 C1051 1.411 . S
C1049 H1031 0.930 . S
C1049 N1046 1.321 . S
C1049 C1047 1.400 . S
C1050 H1045 0.930 . S
C1050 C1047 1.386 . S
C1050 C1051 1.395 . S
C1051 C1048 1.411 . S
C1051 C1050 1.395 . S
C1051 C1073 1.420 . S
O1052 Eu1008 2.558 . S
O1052 C1072 1.257 . S
O1053 Eu1008 2.612 . S
O1053 Eu1019 2.380 . S
O1053 C1064 1.276 . S
O1054 Eu1019 2.432 . S
O1054 C1071 1.264 . S
O1055 Eu1008 2.339 . S
O1055 C1071 1.254 . S
O1056 Eu1008 2.563 . S
O1056 C1064 1.235 . S
O1057 Eu1008 2.419 . S
O1057 C1072 1.249 . S
O1058 Eu1019 2.558 . S
O1058 C1083 1.257 . S
O1059 Eu1008 2.380 . S
O1059 Eu1019 2.612 . S
O1059 C1075 1.276 . S
O1060 Eu1008 2.432 . S
O1060 C1082 1.264 . S
O1061 Eu1019 2.339 . S
O1061 C1082 1.254 . S
O1062 Eu1019 2.563 . S
O1062 C1075 1.235 . S
O1063 Eu1019 2.419 . S
O1063 C1083 1.249 . S
C1064 O1053 1.276 . S
C1064 O1056 1.235 . S
C1065 C1067 1.393 . S
C1065 C1069 1.395 . S
C1065 C1072 1.492 . S
C1066 C1067 1.392 . S
C1066 C1068 1.386 . S
C1067 C1065 1.393 . S
C1067 C1066 1.392 . S
C1067 H1084 0.930 . S
C1068 C1066 1.386 . S
C1068 C1070 1.395 . S
C1068 H1085 0.930 1_545 S
C1069 C1065 1.395 . S
C1069 C1070 1.379 . S
C1069 H1086 0.930 . S
C1070 C1068 1.395 . S
C1070 C1069 1.379 . S
C1070 H1087 0.930 . S
C1071 O1054 1.264 . S
C1071 O1055 1.254 . S
C1072 Eu1008 2.848 . S
C1072 O1052 1.257 . S
C1072 O1057 1.249 . S
C1072 C1065 1.492 . S
C1073 H1038 0.931 . S
C1073 C1051 1.420 . S
C1073 C1074 1.351 . S
C1074 H1036 0.930 . S
C1074 C1042 1.423 . S
C1074 C1073 1.351 . S
C1075 O1059 1.276 . S
C1075 O1062 1.235 . S
C1076 C1077 1.393 . S
C1076 C1080 1.395 . S
C1076 C1083 1.492 . S
C1077 C1076 1.393 . S
C1077 C1078 1.392 . S
C1077 H1088 0.930 . S
C1078 C1077 1.392 . S
C1078 C1079 1.386 . S
C1079 C1078 1.386 . S
C1079 C1081 1.395 . S
C1079 H1089 0.930 . S
C1080 C1076 1.395 . S
C1080 C1081 1.379 . S
C1080 H1090 0.930 . S
C1081 C1079 1.395 . S
C1081 C1080 1.379 . S
C1081 H1091 0.930 . S
C1082 O1060 1.264 . S
C1082 O1061 1.254 . S
C1083 Eu1019 2.848 . S
C1083 O1058 1.257 . S
C1083 O1063 1.249 . S
C1083 C1076 1.492 . S
H1084 C1067 0.930 . S
H1085 C1068 0.930 1_565 S
H1086 C1069 0.930 . S
H1087 C1070 0.930 . S
H1088 C1077 0.930 . S
H1089 C1079 0.930 . S
H1090 C1080 0.930 . S
H1091 C1081 0.930 . S
Eu1092 N1123 2.657 . S
Eu1092 N1130 2.609 . S
Eu1092 O1136 2.558 . S
Eu1092 O1137 2.612 . S
Eu1092 O1139 2.339 . S
Eu1092 O1140 2.563 . S
Eu1092 O1141 2.419 . S
Eu1092 O1143 2.380 . S
Eu1092 O1144 2.432 . S
Eu1092 C1156 2.848 . S
C1093 C1096 1.429 . S
C1093 C1097 1.411 . S
C1093 N1100 1.377 . S
C1094 C1096 1.420 . S
C1094 C1098 1.423 . S
C1094 C1106 1.392 . S
C1095 C1097 1.420 . S
C1095 C1098 1.351 . S
C1095 H1118 0.931 . S
C1096 C1093 1.429 . S
C1096 C1094 1.420 . S
C1096 N1104 1.362 . S
C1097 C1093 1.411 . S
C1097 C1095 1.420 . S
C1097 C1102 1.395 . S
C1098 C1094 1.423 . S
C1098 C1095 1.351 . S
C1098 H1110 0.930 . S
C1099 C1101 1.400 . S
C1099 C1102 1.386 . S
C1099 H1111 0.930 . S
N1100 C1093 1.377 . S
N1100 C1101 1.321 . S
N1100 Eu1103 2.609 . S
C1101 C1099 1.400 . S
C1101 N1100 1.321 . S
C1101 H1108 0.930 . S
C1102 C1097 1.395 . S
C1102 C1099 1.386 . S
C1102 H1121 0.930 . S
Eu1103 N1100 2.609 . S
Eu1103 N1104 2.657 . S
Eu1103 O1137 2.380 . S
Eu1103 O1138 2.432 . S
Eu1103 O1142 2.558 . S
Eu1103 O1143 2.612 . S
Eu1103 O1145 2.339 . S
Eu1103 O1146 2.563 . S
Eu1103 O1147 2.419 . S
Eu1103 C1167 2.848 . S
N1104 C1096 1.362 . S
N1104 Eu1103 2.657 . S
N1104 C1105 1.334 . S
C1105 N1104 1.334 . S
C1105 C1107 1.413 . S
C1105 H1112 0.929 . S
C1106 C1094 1.392 . S
C1106 C1107 1.367 . S
C1106 H1114 0.930 . S
C1107 C1105 1.413 . S
C1107 C1106 1.367 . S
C1107 H1109 0.930 . S
H1108 C1101 0.930 . S
H1109 C1107 0.930 . S
H1110 C1098 0.930 . S
H1111 C1099 0.930 . S
H1112 C1105 0.929 . S
H1113 C1127 0.930 . S
H1114 C1106 0.930 . S
H1115 C1133 0.930 . S
H1116 C1124 0.929 . S
H1117 C1131 0.930 . S
H1118 C1095 0.931 . S
H1119 C1125 0.930 . S
H1120 C1158 0.930 . S
H1121 C1102 0.930 . S
H1122 C1157 0.931 . S
N1123 Eu1092 2.657 . S
N1123 C1124 1.334 . S
N1123 C1128 1.362 . S
C1124 H1116 0.929 . S
C1124 N1123 1.334 . S
C1124 C1127 1.413 . S
C1125 H1119 0.930 . S
C1125 C1126 1.392 . S
C1125 C1127 1.367 . S
C1126 C1125 1.392 . S
C1126 C1128 1.420 . S
C1126 C1158 1.423 . S
C1127 H1113 0.930 . S
C1127 C1124 1.413 . S
C1127 C1125 1.367 . S
C1128 N1123 1.362 . S
C1128 C1126 1.420 . S
C1128 C1132 1.429 . S
H1129 C1134 0.930 . S
N1130 Eu1092 2.609 . S
N1130 C1132 1.377 . S
N1130 C1133 1.321 . S
C1131 H1117 0.930 . S
C1131 C1133 1.400 . S
C1131 C1134 1.386 . S
C1132 C1128 1.429 . S
C1132 N1130 1.377 . S
C1132 C1135 1.411 . S
C1133 H1115 0.930 . S
C1133 N1130 1.321 . S
C1133 C1131 1.400 . S
C1134 H1129 0.930 . S
C1134 C1131 1.386 . S
C1134 C1135 1.395 . S
C1135 C1132 1.411 . S
C1135 C1134 1.395 . S
C1135 C1157 1.420 . S
O1136 Eu1092 2.558 . S
O1136 C1156 1.257 . S
O1137 Eu1092 2.612 . S
O1137 Eu1103 2.380 . S
O1137 C1148 1.276 . S
O1138 Eu1103 2.432 . S
O1138 C1155 1.264 . S
O1139 Eu1092 2.339 . S
O1139 C1155 1.254 . S
O1140 Eu1092 2.563 . S
O1140 C1148 1.235 . S
O1141 Eu1092 2.419 . S
O1141 C1156 1.249 . S
O1142 Eu1103 2.558 . S
O1142 C1167 1.257 . S
O1143 Eu1092 2.380 . S
O1143 Eu1103 2.612 . S
O1143 C1159 1.276 . S
O1144 Eu1092 2.432 . S
O1144 C1166 1.264 . S
O1145 Eu1103 2.339 . S
O1145 C1166 1.254 . S
O1146 Eu1103 2.563 . S
O1146 C1159 1.235 . S
O1147 Eu1103 2.419 . S
O1147 C1167 1.249 . S
C1148 O1137 1.276 . S
C1148 O1140 1.235 . S
C1149 C1151 1.393 . S
C1149 C1153 1.395 . S
C1149 C1156 1.492 . S
C1150 C1151 1.392 . S
C1150 C1152 1.386 . S
C1151 C1149 1.393 . S
C1151 C1150 1.392 . S
C1151 H1168 0.930 . S
C1152 C1150 1.386 . S
C1152 C1154 1.395 . S
C1152 H1169 0.930 1_565 S
C1153 C1149 1.395 . S
C1153 C1154 1.379 . S
C1153 H1170 0.930 . S
C1154 C1152 1.395 . S
C1154 C1153 1.379 . S
C1154 H1171 0.930 . S
C1155 O1138 1.264 . S
C1155 O1139 1.254 . S
C1156 Eu1092 2.848 . S
C1156 O1136 1.257 . S
C1156 O1141 1.249 . S
C1156 C1149 1.492 . S
C1157 H1122 0.931 . S
C1157 C1135 1.420 . S
C1157 C1158 1.351 . S
C1158 H1120 0.930 . S
C1158 C1126 1.423 . S
C1158 C1157 1.351 . S
C1159 O1143 1.276 . S
C1159 O1146 1.235 . S
C1160 C1161 1.393 . S
C1160 C1164 1.395 . S
C1160 C1167 1.492 . S
C1161 C1160 1.393 . S
C1161 C1162 1.392 . S
C1161 H1172 0.930 . S
C1162 C1161 1.392 . S
C1162 C1163 1.386 . S
C1163 C1162 1.386 . S
C1163 C1165 1.395 . S
C1163 H1173 0.930 . S
C1164 C1160 1.395 . S
C1164 C1165 1.379 . S
C1164 H1174 0.930 . S
C1165 C1163 1.395 . S
C1165 C1164 1.379 . S
C1165 H1175 0.930 . S
C1166 O1144 1.264 . S
C1166 O1145 1.254 . S
C1167 Eu1103 2.848 . S
C1167 O1142 1.257 . S
C1167 O1147 1.249 . S
C1167 C1160 1.492 . S
H1168 C1151 0.930 . S
H1169 C1152 0.930 1_545 S
H1170 C1153 0.930 . S
H1171 C1154 0.930 . S
H1172 C1161 0.930 . S
H1173 C1163 0.930 . S
H1174 C1164 0.930 . S
H1175 C1165 0.930 . S
Eu1176 N1207 2.657 . S
Eu1176 N1214 2.609 . S
Eu1176 O1220 2.558 . S
Eu1176 O1221 2.612 . S
Eu1176 O1223 2.339 . S
Eu1176 O1224 2.563 . S
Eu1176 O1225 2.419 . S
Eu1176 O1227 2.380 . S
Eu1176 O1228 2.432 . S
Eu1176 C1240 2.848 . S
C1177 C1180 1.429 . S
C1177 C1181 1.411 . S
C1177 N1184 1.377 . S
C1178 C1180 1.420 . S
C1178 C1182 1.423 . S
C1178 C1190 1.392 . S
C1179 C1181 1.420 . S
C1179 C1182 1.351 . S
C1179 H1202 0.931 . S
C1180 C1177 1.429 . S
C1180 C1178 1.420 . S
C1180 N1188 1.362 . S
C1181 C1177 1.411 . S
C1181 C1179 1.420 . S
C1181 C1186 1.395 . S
C1182 C1178 1.423 . S
C1182 C1179 1.351 . S
C1182 H1194 0.930 . S
C1183 C1185 1.400 . S
C1183 C1186 1.386 . S
C1183 H1195 0.930 . S
N1184 C1177 1.377 . S
N1184 C1185 1.321 . S
N1184 Eu1187 2.609 . S
C1185 C1183 1.400 . S
C1185 N1184 1.321 . S
C1185 H1192 0.930 . S
C1186 C1181 1.395 . S
C1186 C1183 1.386 . S
C1186 H1205 0.930 . S
Eu1187 N1184 2.609 . S
Eu1187 N1188 2.657 . S
Eu1187 O1221 2.380 . S
Eu1187 O1222 2.432 . S
Eu1187 O1226 2.558 . S
Eu1187 O1227 2.612 . S
Eu1187 O1229 2.339 . S
Eu1187 O1230 2.563 . S
Eu1187 O1231 2.419 . S
Eu1187 C1251 2.848 . S
N1188 C1180 1.362 . S
N1188 Eu1187 2.657 . S
N1188 C1189 1.334 . S
C1189 N1188 1.334 . S
C1189 C1191 1.413 . S
C1189 H1196 0.929 . S
C1190 C1178 1.392 . S
C1190 C1191 1.367 . S
C1190 H1198 0.930 . S
C1191 C1189 1.413 . S
C1191 C1190 1.367 . S
C1191 H1193 0.930 . S
H1192 C1185 0.930 . S
H1193 C1191 0.930 . S
H1194 C1182 0.930 . S
H1195 C1183 0.930 . S
H1196 C1189 0.929 . S
H1197 C1211 0.930 . S
H1198 C1190 0.930 . S
H1199 C1217 0.930 . S
H1200 C1208 0.929 . S
H1201 C1215 0.930 . S
H1202 C1179 0.931 . S
H1203 C1209 0.930 . S
H1204 C1242 0.930 . S
H1205 C1186 0.930 . S
H1206 C1241 0.931 . S
N1207 Eu1176 2.657 . S
N1207 C1208 1.334 . S
N1207 C1212 1.362 . S
C1208 H1200 0.929 . S
C1208 N1207 1.334 . S
C1208 C1211 1.413 . S
C1209 H1203 0.930 . S
C1209 C1210 1.392 . S
C1209 C1211 1.367 . S
C1210 C1209 1.392 . S
C1210 C1212 1.420 . S
C1210 C1242 1.423 . S
C1211 H1197 0.930 . S
C1211 C1208 1.413 . S
C1211 C1209 1.367 . S
C1212 N1207 1.362 . S
C1212 C1210 1.420 . S
C1212 C1216 1.429 . S
H1213 C1218 0.930 . S
N1214 Eu1176 2.609 . S
N1214 C1216 1.377 . S
N1214 C1217 1.321 . S
C1215 H1201 0.930 . S
C1215 C1217 1.400 . S
C1215 C1218 1.386 . S
C1216 C1212 1.429 . S
C1216 N1214 1.377 . S
C1216 C1219 1.411 . S
C1217 H1199 0.930 . S
C1217 N1214 1.321 . S
C1217 C1215 1.400 . S
C1218 H1213 0.930 . S
C1218 C1215 1.386 . S
C1218 C1219 1.395 . S
C1219 C1216 1.411 . S
C1219 C1218 1.395 . S
C1219 C1241 1.420 . S
O1220 Eu1176 2.558 . S
O1220 C1240 1.257 . S
O1221 Eu1176 2.612 . S
O1221 Eu1187 2.380 . S
O1221 C1232 1.276 . S
O1222 Eu1187 2.432 . S
O1222 C1239 1.264 . S
O1223 Eu1176 2.339 . S
O1223 C1239 1.254 . S
O1224 Eu1176 2.563 . S
O1224 C1232 1.235 . S
O1225 Eu1176 2.419 . S
O1225 C1240 1.249 . S
O1226 Eu1187 2.558 . S
O1226 C1251 1.257 . S
O1227 Eu1176 2.380 . S
O1227 Eu1187 2.612 . S
O1227 C1243 1.276 . S
O1228 Eu1176 2.432 . S
O1228 C1250 1.264 . S
O1229 Eu1187 2.339 . S
O1229 C1250 1.254 . S
O1230 Eu1187 2.563 . S
O1230 C1243 1.235 . S
O1231 Eu1187 2.419 . S
O1231 C1251 1.249 . S
C1232 O1221 1.276 . S
C1232 O1224 1.235 . S
C1233 C1235 1.393 . S
C1233 C1237 1.395 . S
C1233 C1240 1.492 . S
C1234 C1235 1.392 . S
C1234 C1236 1.386 . S
C1235 C1233 1.393 . S
C1235 C1234 1.392 . S
C1235 H1252 0.930 . S
C1236 C1234 1.386 . S
C1236 C1238 1.395 . S
C1236 H1253 0.930 1_565 S
C1237 C1233 1.395 . S
C1237 C1238 1.379 . S
C1237 H1254 0.930 . S
C1238 C1236 1.395 . S
C1238 C1237 1.379 . S
C1238 H1255 0.930 . S
C1239 O1222 1.264 . S
C1239 O1223 1.254 . S
C1240 Eu1176 2.848 . S
C1240 O1220 1.257 . S
C1240 O1225 1.249 . S
C1240 C1233 1.492 . S
C1241 H1206 0.931 . S
C1241 C1219 1.420 . S
C1241 C1242 1.351 . S
C1242 H1204 0.930 . S
C1242 C1210 1.423 . S
C1242 C1241 1.351 . S
C1243 O1227 1.276 . S
C1243 O1230 1.235 . S
C1244 C1245 1.393 . S
C1244 C1248 1.395 . S
C1244 C1251 1.492 . S
C1245 C1244 1.393 . S
C1245 C1246 1.392 . S
C1245 H1256 0.930 . S
C1246 C1245 1.392 . S
C1246 C1247 1.386 . S
C1247 C1246 1.386 . S
C1247 C1249 1.395 . S
C1247 H1257 0.930 . S
C1248 C1244 1.395 . S
C1248 C1249 1.379 . S
C1248 H1258 0.930 . S
C1249 C1247 1.395 . S
C1249 C1248 1.379 . S
C1249 H1259 0.930 . S
C1250 O1228 1.264 . S
C1250 O1229 1.254 . S
C1251 Eu1187 2.848 . S
C1251 O1226 1.257 . S
C1251 O1231 1.249 . S
C1251 C1244 1.492 . S
H1252 C1235 0.930 . S
H1253 C1236 0.930 1_545 S
H1254 C1237 0.930 . S
H1255 C1238 0.930 . S
H1256 C1245 0.930 . S
H1257 C1247 0.930 . S
H1258 C1248 0.930 . S
H1259 C1249 0.930 . S
Eu1260 N1291 2.657 . S
Eu1260 N1298 2.609 . S
Eu1260 O1304 2.558 . S
Eu1260 O1305 2.612 . S
Eu1260 O1307 2.339 . S
Eu1260 O1308 2.563 . S
Eu1260 O1309 2.419 . S
Eu1260 O1311 2.380 . S
Eu1260 O1312 2.432 . S
Eu1260 C1324 2.848 . S
C1261 C1264 1.429 . S
C1261 C1265 1.411 . S
C1261 N1268 1.377 . S
C1262 C1264 1.420 . S
C1262 C1266 1.423 . S
C1262 C1274 1.392 . S
C1263 C1265 1.420 . S
C1263 C1266 1.351 . S
C1263 H1286 0.931 . S
C1264 C1261 1.429 . S
C1264 C1262 1.420 . S
C1264 N1272 1.362 . S
C1265 C1261 1.411 . S
C1265 C1263 1.420 . S
C1265 C1270 1.395 . S
C1266 C1262 1.423 . S
C1266 C1263 1.351 . S
C1266 H1278 0.930 . S
C1267 C1269 1.400 . S
C1267 C1270 1.386 . S
C1267 H1279 0.930 . S
N1268 C1261 1.377 . S
N1268 C1269 1.321 . S
N1268 Eu1271 2.609 . S
C1269 C1267 1.400 . S
C1269 N1268 1.321 . S
C1269 H1276 0.930 . S
C1270 C1265 1.395 . S
C1270 C1267 1.386 . S
C1270 H1289 0.930 . S
Eu1271 N1268 2.609 . S
Eu1271 N1272 2.657 . S
Eu1271 O1305 2.380 . S
Eu1271 O1306 2.432 . S
Eu1271 O1310 2.558 . S
Eu1271 O1311 2.612 . S
Eu1271 O1313 2.339 . S
Eu1271 O1314 2.563 . S
Eu1271 O1315 2.419 . S
Eu1271 C1335 2.848 . S
N1272 C1264 1.362 . S
N1272 Eu1271 2.657 . S
N1272 C1273 1.334 . S
C1273 N1272 1.334 . S
C1273 C1275 1.413 . S
C1273 H1280 0.929 . S
C1274 C1262 1.392 . S
C1274 C1275 1.367 . S
C1274 H1282 0.930 . S
C1275 C1273 1.413 . S
C1275 C1274 1.367 . S
C1275 H1277 0.930 . S
H1276 C1269 0.930 . S
H1277 C1275 0.930 . S
H1278 C1266 0.930 . S
H1279 C1267 0.930 . S
H1280 C1273 0.929 . S
H1281 C1295 0.930 . S
H1282 C1274 0.930 . S
H1283 C1301 0.930 . S
H1284 C1292 0.929 . S
H1285 C1299 0.930 . S
H1286 C1263 0.931 . S
H1287 C1293 0.930 . S
H1288 C1326 0.930 . S
H1289 C1270 0.930 . S
H1290 C1325 0.931 . S
N1291 Eu1260 2.657 . S
N1291 C1292 1.334 . S
N1291 C1296 1.362 . S
C1292 H1284 0.929 . S
C1292 N1291 1.334 . S
C1292 C1295 1.413 . S
C1293 H1287 0.930 . S
C1293 C1294 1.392 . S
C1293 C1295 1.367 . S
C1294 C1293 1.392 . S
C1294 C1296 1.420 . S
C1294 C1326 1.423 . S
C1295 H1281 0.930 . S
C1295 C1292 1.413 . S
C1295 C1293 1.367 . S
C1296 N1291 1.362 . S
C1296 C1294 1.420 . S
C1296 C1300 1.429 . S
H1297 C1302 0.930 . S
N1298 Eu1260 2.609 . S
N1298 C1300 1.377 . S
N1298 C1301 1.321 . S
C1299 H1285 0.930 . S
C1299 C1301 1.400 . S
C1299 C1302 1.386 . S
C1300 C1296 1.429 . S
C1300 N1298 1.377 . S
C1300 C1303 1.411 . S
C1301 H1283 0.930 . S
C1301 N1298 1.321 . S
C1301 C1299 1.400 . S
C1302 H1297 0.930 . S
C1302 C1299 1.386 . S
C1302 C1303 1.395 . S
C1303 C1300 1.411 . S
C1303 C1302 1.395 . S
C1303 C1325 1.420 . S
O1304 Eu1260 2.558 . S
O1304 C1324 1.257 . S
O1305 Eu1260 2.612 . S
O1305 Eu1271 2.380 . S
O1305 C1316 1.276 . S
O1306 Eu1271 2.432 . S
O1306 C1323 1.264 . S
O1307 Eu1260 2.339 . S
O1307 C1323 1.254 . S
O1308 Eu1260 2.563 . S
O1308 C1316 1.235 . S
O1309 Eu1260 2.419 . S
O1309 C1324 1.249 . S
O1310 Eu1271 2.558 . S
O1310 C1335 1.257 . S
O1311 Eu1260 2.380 . S
O1311 Eu1271 2.612 . S
O1311 C1327 1.276 . S
O1312 Eu1260 2.432 . S
O1312 C1334 1.264 . S
O1313 Eu1271 2.339 . S
O1313 C1334 1.254 . S
O1314 Eu1271 2.563 . S
O1314 C1327 1.235 . S
O1315 Eu1271 2.419 . S
O1315 C1335 1.249 . S
C1316 O1305 1.276 . S
C1316 O1308 1.235 . S
C1317 C1319 1.393 . S
C1317 C1321 1.395 . S
C1317 C1324 1.492 . S
C1318 C1319 1.392 . S
C1318 C1320 1.386 . S
C1319 C1317 1.393 . S
C1319 C1318 1.392 . S
C1319 H1336 0.930 . S
C1320 C1318 1.386 . S
C1320 C1322 1.395 . S
C1320 H1337 0.930 1_545 S
C1321 C1317 1.395 . S
C1321 C1322 1.379 . S
C1321 H1338 0.930 . S
C1322 C1320 1.395 . S
C1322 C1321 1.379 . S
C1322 H1339 0.930 . S
C1323 O1306 1.264 . S
C1323 O1307 1.254 . S
C1324 Eu1260 2.848 . S
C1324 O1304 1.257 . S
C1324 O1309 1.249 . S
C1324 C1317 1.492 . S
C1325 H1290 0.931 . S
C1325 C1303 1.420 . S
C1325 C1326 1.351 . S
C1326 H1288 0.930 . S
C1326 C1294 1.423 . S
C1326 C1325 1.351 . S
C1327 O1311 1.276 . S
C1327 O1314 1.235 . S
C1328 C1329 1.393 . S
C1328 C1332 1.395 . S
C1328 C1335 1.492 . S
C1329 C1328 1.393 . S
C1329 C1330 1.392 . S
C1329 H1340 0.930 . S
C1330 C1329 1.392 . S
C1330 C1331 1.386 . S
C1331 C1330 1.386 . S
C1331 C1333 1.395 . S
C1331 H1341 0.930 . S
C1332 C1328 1.395 . S
C1332 C1333 1.379 . S
C1332 H1342 0.930 . S
C1333 C1331 1.395 . S
C1333 C1332 1.379 . S
C1333 H1343 0.930 . S
C1334 O1312 1.264 . S
C1334 O1313 1.254 . S
C1335 Eu1271 2.848 . S
C1335 O1310 1.257 . S
C1335 O1315 1.249 . S
C1335 C1328 1.492 . S
H1336 C1319 0.930 . S
H1337 C1320 0.930 1_565 S
H1338 C1321 0.930 . S
H1339 C1322 0.930 . S
H1340 C1329 0.930 . S
H1341 C1331 0.930 . S
H1342 C1332 0.930 . S
H1343 C1333 0.930 . S
H1344 C1350 0.930 . S
H1345 C1354 0.930 . S
H1346 C1359 0.929 . S
H1347 C1357 0.929 . S
H1348 C1352 0.929 . S
H1349 C1358 0.929 . S
C1350 H1344 0.930 . S
C1350 C1351 1.367 . S
C1350 C1358 1.378 . S
C1351 C1350 1.367 . S
C1351 C1359 1.433 . S
C1352 H1348 0.929 . S
C1352 C1354 1.378 . S
C1352 C1356 1.350 . S
C1353 C1356 1.463 . S
C1353 C1358 1.350 . S
C1353 N1361 1.427 . S
C1354 H1345 0.930 . S
C1354 C1352 1.378 . S
C1354 C1355 1.367 . S
C1355 C1354 1.367 . S
C1355 C1357 1.433 . S
C1356 C1352 1.350 . S
C1356 C1353 1.463 . S
C1356 N1360 1.427 . S
C1357 H1347 0.929 . S
C1357 C1355 1.433 . S
C1357 N1360 1.384 . S
C1358 H1349 0.929 . S
C1358 C1350 1.378 . S
C1358 C1353 1.350 . S
C1359 H1346 0.929 . S
C1359 C1351 1.433 . S
C1359 N1361 1.384 . S
N1360 C1356 1.427 . S
N1360 C1357 1.384 . S
N1361 C1353 1.427 . S
N1361 C1359 1.384 . S
H1362 C1368 0.930 . S
H1363 C1372 0.930 . S
H1364 C1377 0.929 . S
H1365 C1375 0.929 . S
H1366 C1370 0.929 . S
H1367 C1376 0.929 . S
C1368 H1362 0.930 . S
C1368 C1369 1.367 . S
C1368 C1376 1.378 . S
C1369 C1368 1.367 . S
C1369 C1377 1.433 . S
C1370 H1366 0.929 . S
C1370 C1372 1.378 . S
C1370 C1374 1.350 . S
C1371 C1374 1.463 . S
C1371 C1376 1.350 . S
C1371 N1379 1.427 . S
C1372 H1363 0.930 . S
C1372 C1370 1.378 . S
C1372 C1373 1.367 . S
C1373 C1372 1.367 . S
C1373 C1375 1.433 . S
C1374 C1370 1.350 . S
C1374 C1371 1.463 . S
C1374 N1378 1.427 . S
C1375 H1365 0.929 . S
C1375 C1373 1.433 . S
C1375 N1378 1.384 . S
C1376 H1367 0.929 . S
C1376 C1368 1.378 . S
C1376 C1371 1.350 . S
C1377 H1364 0.929 . S
C1377 C1369 1.433 . S
C1377 N1379 1.384 . S
N1378 C1374 1.427 . S
N1378 C1375 1.384 . S
N1379 C1371 1.427 . S
N1379 C1377 1.384 . S
H1380 C1386 0.930 . S
H1381 C1390 0.930 . S
H1382 C1395 0.929 . S
H1383 C1393 0.929 . S
H1384 C1388 0.929 . S
H1385 C1394 0.929 . S
C1386 H1380 0.930 . S
C1386 C1387 1.367 . S
C1386 C1394 1.378 . S
C1387 C1386 1.367 . S
C1387 C1395 1.433 . S
C1388 H1384 0.929 . S
C1388 C1390 1.378 . S
C1388 C1392 1.350 . S
C1389 C1392 1.463 . S
C1389 C1394 1.350 . S
C1389 N1397 1.427 . S
C1390 H1381 0.930 . S
C1390 C1388 1.378 . S
C1390 C1391 1.367 . S
C1391 C1390 1.367 . S
C1391 C1393 1.433 . S
C1392 C1388 1.350 . S
C1392 C1389 1.463 . S
C1392 N1396 1.427 . S
C1393 H1383 0.929 . S
C1393 C1391 1.433 . S
C1393 N1396 1.384 . S
C1394 H1385 0.929 . S
C1394 C1386 1.378 . S
C1394 C1389 1.350 . S
C1395 H1382 0.929 . S
C1395 C1387 1.433 . S
C1395 N1397 1.384 . S
N1396 C1392 1.427 . S
N1396 C1393 1.384 . S
N1397 C1389 1.427 . S
N1397 C1395 1.384 . S
H1398 C1404 0.930 . S
H1399 C1408 0.930 . S
H1400 C1413 0.929 . S
H1401 C1411 0.929 . S
H1402 C1406 0.929 . S
H1403 C1412 0.929 . S
C1404 H1398 0.930 . S
C1404 C1405 1.367 . S
C1404 C1412 1.378 . S
C1405 C1404 1.367 . S
C1405 C1413 1.433 . S
C1406 H1402 0.929 . S
C1406 C1408 1.378 . S
C1406 C1410 1.350 . S
C1407 C1410 1.463 . S
C1407 C1412 1.350 . S
C1407 N1415 1.427 . S
C1408 H1399 0.930 . S
C1408 C1406 1.378 . S
C1408 C1409 1.367 . S
C1409 C1408 1.367 . S
C1409 C1411 1.433 . S
C1410 C1406 1.350 . S
C1410 C1407 1.463 . S
C1410 N1414 1.427 . S
C1411 H1401 0.929 . S
C1411 C1409 1.433 . S
C1411 N1414 1.384 . S
C1412 H1403 0.929 . S
C1412 C1404 1.378 . S
C1412 C1407 1.350 . S
C1413 H1400 0.929 . S
C1413 C1405 1.433 . S
C1413 N1415 1.384 . S
N1414 C1410 1.427 . S
N1414 C1411 1.384 . S
N1415 C1407 1.427 . S
N1415 C1413 1.384 . S
H1416 C1422 0.930 . S
H1417 C1426 0.930 . S
H1418 C1431 0.929 . S
H1419 C1429 0.929 . S
H1420 C1424 0.929 . S
H1421 C1430 0.929 . S
C1422 H1416 0.930 . S
C1422 C1423 1.367 . S
C1422 C1430 1.378 . S
C1423 C1422 1.367 . S
C1423 C1431 1.433 . S
C1424 H1420 0.929 . S
C1424 C1426 1.378 . S
C1424 C1428 1.350 . S
C1425 C1428 1.463 . S
C1425 C1430 1.350 . S
C1425 N1433 1.427 . S
C1426 H1417 0.930 . S
C1426 C1424 1.378 . S
C1426 C1427 1.367 . S
C1427 C1426 1.367 . S
C1427 C1429 1.433 . S
C1428 C1424 1.350 . S
C1428 C1425 1.463 . S
C1428 N1432 1.427 . S
C1429 H1419 0.929 . S
C1429 C1427 1.433 . S
C1429 N1432 1.384 . S
C1430 H1421 0.929 . S
C1430 C1422 1.378 . S
C1430 C1425 1.350 . S
C1431 H1418 0.929 . S
C1431 C1423 1.433 . S
C1431 N1433 1.384 . S
N1432 C1428 1.427 . S
N1432 C1429 1.384 . S
N1433 C1425 1.427 . S
N1433 C1431 1.384 . S
H1434 C1440 0.930 . S
H1435 C1444 0.930 . S
H1436 C1449 0.929 . S
H1437 C1447 0.929 . S
H1438 C1442 0.929 . S
H1439 C1448 0.929 . S
C1440 H1434 0.930 . S
C1440 C1441 1.367 . S
C1440 C1448 1.378 . S
C1441 C1440 1.367 . S
C1441 C1449 1.433 . S
C1442 H1438 0.929 . S
C1442 C1444 1.378 . S
C1442 C1446 1.350 . S
C1443 C1446 1.463 . S
C1443 C1448 1.350 . S
C1443 N1451 1.427 . S
C1444 H1435 0.930 . S
C1444 C1442 1.378 . S
C1444 C1445 1.367 . S
C1445 C1444 1.367 . S
C1445 C1447 1.433 . S
C1446 C1442 1.350 . S
C1446 C1443 1.463 . S
C1446 N1450 1.427 . S
C1447 H1437 0.929 . S
C1447 C1445 1.433 . S
C1447 N1450 1.384 . S
C1448 H1439 0.929 . S
C1448 C1440 1.378 . S
C1448 C1443 1.350 . S
C1449 H1436 0.929 . S
C1449 C1441 1.433 . S
C1449 N1451 1.384 . S
N1450 C1446 1.427 . S
N1450 C1447 1.384 . S
N1451 C1443 1.427 . S
N1451 C1449 1.384 . S
H1452 C1458 0.930 . S
H1453 C1462 0.930 . S
H1454 C1467 0.929 . S
H1455 C1465 0.929 . S
H1456 C1460 0.929 . S
H1457 C1466 0.929 . S
C1458 H1452 0.930 . S
C1458 C1459 1.367 . S
C1458 C1466 1.378 . S
C1459 C1458 1.367 . S
C1459 C1467 1.433 . S
C1460 H1456 0.929 . S
C1460 C1462 1.378 . S
C1460 C1464 1.350 . S
C1461 C1464 1.463 . S
C1461 C1466 1.350 . S
C1461 N1469 1.427 . S
C1462 H1453 0.930 . S
C1462 C1460 1.378 . S
C1462 C1463 1.367 . S
C1463 C1462 1.367 . S
C1463 C1465 1.433 . S
C1464 C1460 1.350 . S
C1464 C1461 1.463 . S
C1464 N1468 1.427 . S
C1465 H1455 0.929 . S
C1465 C1463 1.433 . S
C1465 N1468 1.384 . S
C1466 H1457 0.929 . S
C1466 C1458 1.378 . S
C1466 C1461 1.350 . S
C1467 H1454 0.929 . S
C1467 C1459 1.433 . S
C1467 N1469 1.384 . S
N1468 C1464 1.427 . S
N1468 C1465 1.384 . S
N1469 C1461 1.427 . S
N1469 C1467 1.384 . S
H1470 C1476 0.930 . S
H1471 C1480 0.930 . S
H1472 C1485 0.929 . S
H1473 C1483 0.929 . S
H1474 C1478 0.929 . S
H1475 C1484 0.929 . S
C1476 H1470 0.930 . S
C1476 C1477 1.367 . S
C1476 C1484 1.378 . S
C1477 C1476 1.367 . S
C1477 C1485 1.433 . S
C1478 H1474 0.929 . S
C1478 C1480 1.378 . S
C1478 C1482 1.350 . S
C1479 C1482 1.463 . S
C1479 C1484 1.350 . S
C1479 N1487 1.427 . S
C1480 H1471 0.930 . S
C1480 C1478 1.378 . S
C1480 C1481 1.367 . S
C1481 C1480 1.367 . S
C1481 C1483 1.433 . S
C1482 C1478 1.350 . S
C1482 C1479 1.463 . S
C1482 N1486 1.427 . S
C1483 H1473 0.929 . S
C1483 C1481 1.433 . S
C1483 N1486 1.384 . S
C1484 H1475 0.929 . S
C1484 C1476 1.378 . S
C1484 C1479 1.350 . S
C1485 H1472 0.929 . S
C1485 C1477 1.433 . S
C1485 N1487 1.384 . S
N1486 C1482 1.427 . S
N1486 C1483 1.384 . S
N1487 C1479 1.427 . S
N1487 C1485 1.384 . S
H1488 C1494 0.921 1_545 S
H1489 C1498 0.921 1_565 S
H1490 C1503 0.929 . S
H1491 C1501 0.929 . S
H1492 C1496 0.929 . S
H1493 C1502 0.929 . S
C1494 H1488 0.921 1_565 S
C1494 C1495 1.367 . S
C1494 C1502 1.378 1_565 S
C1495 C1494 1.367 . S
C1495 C1503 1.433 . S
C1496 H1492 0.929 . S
C1496 C1498 1.378 1_565 S
C1496 C1500 1.350 1_565 S
C1497 C1500 1.463 1_565 S
C1497 C1502 1.350 1_565 S
C1497 N1505 1.427 . S
C1498 H1489 0.921 1_545 S
C1498 C1496 1.378 1_545 S
C1498 C1499 1.367 . S
C1499 C1498 1.367 . S
C1499 C1501 1.433 . S
C1500 C1496 1.350 1_545 S
C1500 C1497 1.463 1_545 S
C1500 N1504 1.427 . S
C1501 H1491 0.929 . S
C1501 C1499 1.433 . S
C1501 N1504 1.384 . S
C1502 H1493 0.929 . S
C1502 C1494 1.378 1_545 S
C1502 C1497 1.350 1_545 S
C1503 H1490 0.929 . S
C1503 C1495 1.433 . S
C1503 N1505 1.384 . S
N1504 C1500 1.427 . S
N1504 C1501 1.384 . S
N1505 C1497 1.427 . S
N1505 C1503 1.384 . S
H1506 C1512 0.930 1_565 S
H1507 C1516 0.930 1_545 S
H1508 C1521 0.929 . S
H1509 C1519 0.929 . S
H1510 C1514 0.929 . S
H1511 C1520 0.929 . S
C1512 H1506 0.930 1_545 S
C1512 C1513 1.367 . S
C1512 C1520 1.378 1_545 S
C1513 C1512 1.367 . S
C1513 C1521 1.433 . S
C1514 H1510 0.929 . S
C1514 C1516 1.378 1_545 S
C1514 C1518 1.350 1_545 S
C1515 C1518 1.463 1_545 S
C1515 C1520 1.350 1_545 S
C1515 N1523 1.427 . S
C1516 H1507 0.930 1_565 S
C1516 C1514 1.378 1_565 S
C1516 C1517 1.367 . S
C1517 C1516 1.367 . S
C1517 C1519 1.433 . S
C1518 C1514 1.350 1_565 S
C1518 C1515 1.463 1_565 S
C1518 N1522 1.427 . S
C1519 H1509 0.929 . S
C1519 C1517 1.433 . S
C1519 N1522 1.384 . S
C1520 H1511 0.929 . S
C1520 C1512 1.378 1_565 S
C1520 C1515 1.350 1_565 S
C1521 H1508 0.929 . S
C1521 C1513 1.433 . S
C1521 N1523 1.384 . S
N1522 C1518 1.427 . S
N1522 C1519 1.384 . S
N1523 C1515 1.427 . S
N1523 C1521 1.384 . S
H1524 C1530 0.930 . S
H1525 C1534 0.930 . S
H1526 C1539 0.929 . S
H1527 C1537 0.929 . S
H1528 C1532 0.929 . S
H1529 C1538 0.929 . S
C1530 H1524 0.930 . S
C1530 C1531 1.367 . S
C1530 C1538 1.378 . S
C1531 C1530 1.367 . S
C1531 C1539 1.433 . S
C1532 H1528 0.929 . S
C1532 C1534 1.378 . S
C1532 C1536 1.350 . S
C1533 C1536 1.463 1_545 S
C1533 C1538 1.350 . S
C1533 N1541 1.433 . S
C1534 H1525 0.930 . S
C1534 C1532 1.378 . S
C1534 C1535 1.367 . S
C1535 C1534 1.367 . S
C1535 C1537 1.433 . S
C1536 C1532 1.350 . S
C1536 C1533 1.463 1_565 S
C1536 N1540 1.433 . S
C1537 H1527 0.929 . S
C1537 C1535 1.433 . S
C1537 N1540 1.394 . S
C1538 H1529 0.929 . S
C1538 C1530 1.378 . S
C1538 C1533 1.350 . S
C1539 H1526 0.929 . S
C1539 C1531 1.433 . S
C1539 N1541 1.394 . S
N1540 C1536 1.433 . S
N1540 C1537 1.394 . S
N1541 C1533 1.433 . S
N1541 C1539 1.394 . S
H1542 C1548 0.930 . S
H1543 C1552 0.930 . S
H1544 C1557 0.929 . S
H1545 C1555 0.929 . S
H1546 C1550 0.929 . S
H1547 C1556 0.929 . S
C1548 H1542 0.930 . S
C1548 C1549 1.367 . S
C1548 C1556 1.378 . S
C1549 C1548 1.367 . S
C1549 C1557 1.433 . S
C1550 H1546 0.929 . S
C1550 C1552 1.378 . S
C1550 C1554 1.350 . S
C1551 C1554 1.463 1_545 S
C1551 C1556 1.350 . S
C1551 N1559 1.425 1_545 S
C1552 H1543 0.930 . S
C1552 C1550 1.378 . S
C1552 C1553 1.367 . S
C1553 C1552 1.367 . S
C1553 C1555 1.433 . S
C1554 C1550 1.350 . S
C1554 C1551 1.463 1_565 S
C1554 N1558 1.425 1_565 S
C1555 H1545 0.929 . S
C1555 C1553 1.433 . S
C1555 N1558 1.380 1_565 S
C1556 H1547 0.929 . S
C1556 C1548 1.378 . S
C1556 C1551 1.350 . S
C1557 H1544 0.929 . S
C1557 C1549 1.433 . S
C1557 N1559 1.380 1_545 S
N1558 C1554 1.425 1_545 S
N1558 C1555 1.380 1_545 S
N1559 C1551 1.425 1_565 S
N1559 C1557 1.380 1_565 S
H1560 C1566 0.930 . S
H1561 C1570 0.930 . S
H1562 C1575 0.929 . S
H1563 C1573 0.929 . S
H1564 C1568 0.929 . S
H1565 C1574 0.929 . S
C1566 H1560 0.930 . S
C1566 C1567 1.367 . S
C1566 C1574 1.378 . S
C1567 C1566 1.367 . S
C1567 C1575 1.433 . S
C1568 H1564 0.929 . S
C1568 C1570 1.378 . S
C1568 C1572 1.350 . S
C1569 C1572 1.463 . S
C1569 C1574 1.350 . S
C1569 N1577 1.427 . S
C1570 H1561 0.930 . S
C1570 C1568 1.378 . S
C1570 C1571 1.367 . S
C1571 C1570 1.367 . S
C1571 C1573 1.433 . S
C1572 C1568 1.350 . S
C1572 C1569 1.463 . S
C1572 N1576 1.427 . S
C1573 H1563 0.929 . S
C1573 C1571 1.433 . S
C1573 N1576 1.384 . S
C1574 H1565 0.929 . S
C1574 C1566 1.378 . S
C1574 C1569 1.350 . S
C1575 H1562 0.929 . S
C1575 C1567 1.433 . S
C1575 N1577 1.384 . S
N1576 C1572 1.427 . S
N1576 C1573 1.384 . S
N1577 C1569 1.427 . S
N1577 C1575 1.384 . S
H1578 C1584 0.930 . S
H1579 C1588 0.930 . S
H1580 C1593 0.929 . S
H1581 C1591 0.929 . S
H1582 C1586 0.929 . S
H1583 C1592 0.929 . S
C1584 H1578 0.930 . S
C1584 C1585 1.367 . S
C1584 C1592 1.378 . S
C1585 C1584 1.367 . S
C1585 C1593 1.433 . S
C1586 H1582 0.929 . S
C1586 C1588 1.378 . S
C1586 C1590 1.350 . S
C1587 C1590 1.463 . S
C1587 C1592 1.350 . S
C1587 N1595 1.427 . S
C1588 H1579 0.930 . S
C1588 C1586 1.378 . S
C1588 C1589 1.367 . S
C1589 C1588 1.367 . S
C1589 C1591 1.433 . S
C1590 C1586 1.350 . S
C1590 C1587 1.463 . S
C1590 N1594 1.427 . S
C1591 H1581 0.929 . S
C1591 C1589 1.433 . S
C1591 N1594 1.384 . S
C1592 H1583 0.929 . S
C1592 C1584 1.378 . S
C1592 C1587 1.350 . S
C1593 H1580 0.929 . S
C1593 C1585 1.433 . S
C1593 N1595 1.384 . S
N1594 C1590 1.427 . S
N1594 C1591 1.384 . S
N1595 C1587 1.427 . S
N1595 C1593 1.384 . S
H1596 C1602 0.930 . S
H1597 C1606 0.930 . S
H1598 C1611 0.929 . S
H1599 C1609 0.929 . S
H1600 C1604 0.929 . S
H1601 C1610 0.929 . S
C1602 H1596 0.930 . S
C1602 C1603 1.367 . S
C1602 C1610 1.378 . S
C1603 C1602 1.367 . S
C1603 C1611 1.433 . S
C1604 H1600 0.929 . S
C1604 C1606 1.378 . S
C1604 C1608 1.350 . S
C1605 C1608 1.463 . S
C1605 C1610 1.350 . S
C1605 N1613 1.427 . S
C1606 H1597 0.930 . S
C1606 C1604 1.378 . S
C1606 C1607 1.367 . S
C1607 C1606 1.367 . S
C1607 C1609 1.433 . S
C1608 C1604 1.350 . S
C1608 C1605 1.463 . S
C1608 N1612 1.427 . S
C1609 H1599 0.929 . S
C1609 C1607 1.433 . S
C1609 N1612 1.384 . S
C1610 H1601 0.929 . S
C1610 C1602 1.378 . S
C1610 C1605 1.350 . S
C1611 H1598 0.929 . S
C1611 C1603 1.433 . S
C1611 N1613 1.384 . S
N1612 C1608 1.427 . S
N1612 C1609 1.384 . S
N1613 C1605 1.427 . S
N1613 C1611 1.384 . S
H1614 C1620 0.930 . S
H1615 C1624 0.930 . S
H1616 C1629 0.929 . S
H1617 C1627 0.929 . S
H1618 C1622 0.929 . S
H1619 C1628 0.929 . S
C1620 H1614 0.930 . S
C1620 C1621 1.367 . S
C1620 C1628 1.378 . S
C1621 C1620 1.367 . S
C1621 C1629 1.433 . S
C1622 H1618 0.929 . S
C1622 C1624 1.378 . S
C1622 C1626 1.350 . S
C1623 C1626 1.463 . S
C1623 C1628 1.350 . S
C1623 N1631 1.427 . S
C1624 H1615 0.930 . S
C1624 C1622 1.378 . S
C1624 C1625 1.367 . S
C1625 C1624 1.367 . S
C1625 C1627 1.433 . S
C1626 C1622 1.350 . S
C1626 C1623 1.463 . S
C1626 N1630 1.427 . S
C1627 H1617 0.929 . S
C1627 C1625 1.433 . S
C1627 N1630 1.384 . S
C1628 H1619 0.929 . S
C1628 C1620 1.378 . S
C1628 C1623 1.350 . S
C1629 H1616 0.929 . S
C1629 C1621 1.433 . S
C1629 N1631 1.384 . S
N1630 C1626 1.427 . S
N1630 C1627 1.384 . S
N1631 C1623 1.427 . S
N1631 C1629 1.384 . S
H1632 C1638 0.930 . S
H1633 C1642 0.930 . S
H1634 C1647 0.929 . S
H1635 C1645 0.929 . S
H1636 C1640 0.929 . S
H1637 C1646 0.929 . S
C1638 H1632 0.930 . S
C1638 C1639 1.367 . S
C1638 C1646 1.378 . S
C1639 C1638 1.367 . S
C1639 C1647 1.433 . S
C1640 H1636 0.929 . S
C1640 C1642 1.378 . S
C1640 C1644 1.350 . S
C1641 C1644 1.463 1_556 S
C1641 C1646 1.350 . S
C1641 N1649 1.427 . S
C1642 H1633 0.930 . S
C1642 C1640 1.378 . S
C1642 C1643 1.367 . S
C1643 C1642 1.367 . S
C1643 C1645 1.433 . S
C1644 C1640 1.350 . S
C1644 C1641 1.463 1_554 S
C1644 N1648 1.427 . S
C1645 H1635 0.929 . S
C1645 C1643 1.433 . S
C1645 N1648 1.384 . S
C1646 H1637 0.929 . S
C1646 C1638 1.378 . S
C1646 C1641 1.350 . S
C1647 H1634 0.929 . S
C1647 C1639 1.433 . S
C1647 N1649 1.384 . S
N1648 C1644 1.427 . S
N1648 C1645 1.384 . S
N1649 C1641 1.427 . S
N1649 C1647 1.384 . S
H1650 C1656 0.930 . S
H1651 C1660 0.930 . S
H1652 C1665 0.929 . S
H1653 C1663 0.929 . S
H1654 C1658 0.929 . S
H1655 C1664 0.929 . S
C1656 H1650 0.930 . S
C1656 C1657 1.367 . S
C1656 C1664 1.378 . S
C1657 C1656 1.367 . S
C1657 C1665 1.433 . S
C1658 H1654 0.929 . S
C1658 C1660 1.378 . S
C1658 C1662 1.350 . S
C1659 C1662 1.463 1_556 S
C1659 C1664 1.350 . S
C1659 N1667 1.427 . S
C1660 H1651 0.930 . S
C1660 C1658 1.378 . S
C1660 C1661 1.367 . S
C1661 C1660 1.367 . S
C1661 C1663 1.433 . S
C1662 C1658 1.350 . S
C1662 C1659 1.463 1_554 S
C1662 N1666 1.427 . S
C1663 H1653 0.929 . S
C1663 C1661 1.433 . S
C1663 N1666 1.384 . S
C1664 H1655 0.929 . S
C1664 C1656 1.378 . S
C1664 C1659 1.350 . S
C1665 H1652 0.929 . S
C1665 C1657 1.433 . S
C1665 N1667 1.384 . S
N1666 C1662 1.427 . S
N1666 C1663 1.384 . S
N1667 C1659 1.427 . S
N1667 C1665 1.384 . S
H1668 C1674 0.930 . S
H1669 C1678 0.930 . S
H1670 C1683 0.929 . S
H1671 C1681 0.929 . S
H1672 C1676 0.929 . S
H1673 C1682 0.929 . S
C1674 H1668 0.930 . S
C1674 C1675 1.367 . S
C1674 C1682 1.378 . S
C1675 C1674 1.367 . S
C1675 C1683 1.433 . S
C1676 H1672 0.929 . S
C1676 C1678 1.378 . S
C1676 C1680 1.350 . S
C1677 C1680 1.463 . S
C1677 C1682 1.350 . S
C1677 N1685 1.427 . S
C1678 H1669 0.930 . S
C1678 C1676 1.378 . S
C1678 C1679 1.367 . S
C1679 C1678 1.367 . S
C1679 C1681 1.433 . S
C1680 C1676 1.350 . S
C1680 C1677 1.463 . S
C1680 N1684 1.427 . S
C1681 H1671 0.929 . S
C1681 C1679 1.433 . S
C1681 N1684 1.384 . S
C1682 H1673 0.929 . S
C1682 C1674 1.378 . S
C1682 C1677 1.350 . S
C1683 H1670 0.929 . S
C1683 C1675 1.433 . S
C1683 N1685 1.384 . S
N1684 C1680 1.427 . S
N1684 C1681 1.384 . S
N1685 C1677 1.427 . S
N1685 C1683 1.384 . S
H1686 C1692 0.930 . S
H1687 C1696 0.930 . S
H1688 C1701 0.929 . S
H1689 C1699 0.929 . S
H1690 C1694 0.929 . S
H1691 C1700 0.929 . S
C1692 H1686 0.930 . S
C1692 C1693 1.367 . S
C1692 C1700 1.378 . S
C1693 C1692 1.367 . S
C1693 C1701 1.433 . S
C1694 H1690 0.929 . S
C1694 C1696 1.378 . S
C1694 C1698 1.350 . S
C1695 C1698 1.463 . S
C1695 C1700 1.350 . S
C1695 N1703 1.427 . S
C1696 H1687 0.930 . S
C1696 C1694 1.378 . S
C1696 C1697 1.367 . S
C1697 C1696 1.367 . S
C1697 C1699 1.433 . S
C1698 C1694 1.350 . S
C1698 C1695 1.463 . S
C1698 N1702 1.427 . S
C1699 H1689 0.929 . S
C1699 C1697 1.433 . S
C1699 N1702 1.384 . S
C1700 H1691 0.929 . S
C1700 C1692 1.378 . S
C1700 C1695 1.350 . S
C1701 H1688 0.929 . S
C1701 C1693 1.433 . S
C1701 N1703 1.384 . S
N1702 C1698 1.427 . S
N1702 C1699 1.384 . S
N1703 C1695 1.427 . S
N1703 C1701 1.384 . S
H1704 C1710 0.930 . S
H1705 C1714 0.930 . S
H1706 C1719 0.929 . S
H1707 C1717 0.929 . S
H1708 C1712 0.929 . S
H1709 C1718 0.929 . S
C1710 H1704 0.930 . S
C1710 C1711 1.367 . S
C1710 C1718 1.378 . S
C1711 C1710 1.367 . S
C1711 C1719 1.433 . S
C1712 H1708 0.929 . S
C1712 C1714 1.378 . S
C1712 C1716 1.350 . S
C1713 C1716 1.463 1_554 S
C1713 C1718 1.350 . S
C1713 N1721 1.427 . S
C1714 H1705 0.930 . S
C1714 C1712 1.378 . S
C1714 C1715 1.367 . S
C1715 C1714 1.367 . S
C1715 C1717 1.433 . S
C1716 C1712 1.350 . S
C1716 C1713 1.463 1_556 S
C1716 N1720 1.427 . S
C1717 H1707 0.929 . S
C1717 C1715 1.433 . S
C1717 N1720 1.384 . S
C1718 H1709 0.929 . S
C1718 C1710 1.378 . S
C1718 C1713 1.350 . S
C1719 H1706 0.929 . S
C1719 C1711 1.433 . S
C1719 N1721 1.384 . S
N1720 C1716 1.427 . S
N1720 C1717 1.384 . S
N1721 C1713 1.427 . S
N1721 C1719 1.384 . S
H1722 C1728 0.930 . S
H1723 C1732 0.930 . S
H1724 C1737 0.929 . S
H1725 C1735 0.929 . S
H1726 C1730 0.929 . S
H1727 C1736 0.929 . S
C1728 H1722 0.930 . S
C1728 C1729 1.367 . S
C1728 C1736 1.378 . S
C1729 C1728 1.367 . S
C1729 C1737 1.433 . S
C1730 H1726 0.929 . S
C1730 C1732 1.378 . S
C1730 C1734 1.350 . S
C1731 C1734 1.463 1_556 S
C1731 C1736 1.350 . S
C1731 N1739 1.427 . S
C1732 H1723 0.930 . S
C1732 C1730 1.378 . S
C1732 C1733 1.367 . S
C1733 C1732 1.367 . S
C1733 C1735 1.433 . S
C1734 C1730 1.350 . S
C1734 C1731 1.463 1_554 S
C1734 N1738 1.427 . S
C1735 H1725 0.929 . S
C1735 C1733 1.433 . S
C1735 N1738 1.384 . S
C1736 H1727 0.929 . S
C1736 C1728 1.378 . S
C1736 C1731 1.350 . S
C1737 H1724 0.929 . S
C1737 C1729 1.433 . S
C1737 N1739 1.384 . S
N1738 C1734 1.427 . S
N1738 C1735 1.384 . S
N1739 C1731 1.427 . S
N1739 C1737 1.384 . S
H1740 C1746 0.930 . S
H1741 C1750 0.930 . S
H1742 C1755 0.929 . S
H1743 C1753 0.929 . S
H1744 C1748 0.929 . S
H1745 C1754 0.929 . S
C1746 H1740 0.930 . S
C1746 C1747 1.367 . S
C1746 C1754 1.378 . S
C1747 C1746 1.367 . S
C1747 C1755 1.433 . S
C1748 H1744 0.929 . S
C1748 C1750 1.378 . S
C1748 C1752 1.350 . S
C1749 C1752 1.463 . S
C1749 C1754 1.350 . S
C1749 N1757 1.427 . S
C1750 H1741 0.930 . S
C1750 C1748 1.378 . S
C1750 C1751 1.367 . S
C1751 C1750 1.367 . S
C1751 C1753 1.433 . S
C1752 C1748 1.350 . S
C1752 C1749 1.463 . S
C1752 N1756 1.427 . S
C1753 H1743 0.929 . S
C1753 C1751 1.433 . S
C1753 N1756 1.384 . S
C1754 H1745 0.929 . S
C1754 C1746 1.378 . S
C1754 C1749 1.350 . S
C1755 H1742 0.929 . S
C1755 C1747 1.433 . S
C1755 N1757 1.384 . S
N1756 C1752 1.427 . S
N1756 C1753 1.384 . S
N1757 C1749 1.427 . S
N1757 C1755 1.384 . S
H1758 C1764 0.930 . S
H1759 C1768 0.930 . S
H1760 C1773 0.929 . S
H1761 C1771 0.929 . S
H1762 C1766 0.929 . S
H1763 C1772 0.929 . S
C1764 H1758 0.930 . S
C1764 C1765 1.367 . S
C1764 C1772 1.378 . S
C1765 C1764 1.367 . S
C1765 C1773 1.433 . S
C1766 H1762 0.929 . S
C1766 C1768 1.378 . S
C1766 C1770 1.350 . S
C1767 C1770 1.463 . S
C1767 C1772 1.350 . S
C1767 N1775 1.427 . S
C1768 H1759 0.930 . S
C1768 C1766 1.378 . S
C1768 C1769 1.367 . S
C1769 C1768 1.367 . S
C1769 C1771 1.433 . S
C1770 C1766 1.350 . S
C1770 C1767 1.463 . S
C1770 N1774 1.427 . S
C1771 H1761 0.929 . S
C1771 C1769 1.433 . S
C1771 N1774 1.384 . S
C1772 H1763 0.929 . S
C1772 C1764 1.378 . S
C1772 C1767 1.350 . S
C1773 H1760 0.929 . S
C1773 C1765 1.433 . S
C1773 N1775 1.384 . S
N1774 C1770 1.427 . S
N1774 C1771 1.384 . S
N1775 C1767 1.427 . S
N1775 C1773 1.384 . S
H1776 C1782 0.930 1_545 S
H1777 C1786 0.930 1_565 S
H1778 C1791 0.929 . S
H1779 C1789 0.929 . S
H1780 C1784 0.929 . S
H1781 C1790 0.929 . S
C1782 H1776 0.930 1_565 S
C1782 C1783 1.367 . S
C1782 C1790 1.378 1_565 S
C1783 C1782 1.367 . S
C1783 C1791 1.433 . S
C1784 H1780 0.929 . S
C1784 C1786 1.378 1_565 S
C1784 C1788 1.350 1_565 S
C1785 C1788 1.463 1_665 S
C1785 C1790 1.350 1_565 S
C1785 N1793 1.427 . S
C1786 H1777 0.930 1_545 S
C1786 C1784 1.378 1_545 S
C1786 C1787 1.367 . S
C1787 C1786 1.367 . S
C1787 C1789 1.433 . S
C1788 C1784 1.350 1_545 S
C1788 C1785 1.463 1_445 S
C1788 N1792 1.427 . S
C1789 H1779 0.929 . S
C1789 C1787 1.433 . S
C1789 N1792 1.384 . S
C1790 H1781 0.929 . S
C1790 C1782 1.378 1_545 S
C1790 C1785 1.350 1_545 S
C1791 H1778 0.929 . S
C1791 C1783 1.433 . S
C1791 N1793 1.384 . S
N1792 C1788 1.427 . S
N1792 C1789 1.384 . S
N1793 C1785 1.427 . S
N1793 C1791 1.384 . S
H1794 C1800 0.930 . S
H1795 C1804 0.930 . S
H1796 C1809 0.929 . S
H1797 C1807 0.929 . S
H1798 C1802 0.929 . S
H1799 C1808 0.929 . S
C1800 H1794 0.930 . S
C1800 C1801 1.367 . S
C1800 C1808 1.378 . S
C1801 C1800 1.367 . S
C1801 C1809 1.433 . S
C1802 H1798 0.929 . S
C1802 C1804 1.378 . S
C1802 C1806 1.350 . S
C1803 C1806 1.463 1_645 S
C1803 C1808 1.350 . S
C1803 N1811 1.427 1_545 S
C1804 H1795 0.930 . S
C1804 C1802 1.378 . S
C1804 C1805 1.367 . S
C1805 C1804 1.367 . S
C1805 C1807 1.433 . S
C1806 C1802 1.350 . S
C1806 C1803 1.463 1_465 S
C1806 N1810 1.427 1_565 S
C1807 H1797 0.929 . S
C1807 C1805 1.433 . S
C1807 N1810 1.384 1_565 S
C1808 H1799 0.929 . S
C1808 C1800 1.378 . S
C1808 C1803 1.350 . S
C1809 H1796 0.929 . S
C1809 C1801 1.433 . S
C1809 N1811 1.384 1_545 S
N1810 C1806 1.427 1_545 S
N1810 C1807 1.384 1_545 S
N1811 C1803 1.427 1_565 S
N1811 C1809 1.384 1_565 S
H1812 C1818 0.930 . S
H1813 C1822 0.930 . S
H1814 C1827 0.929 . S
H1815 C1825 0.929 . S
H1816 C1820 0.929 . S
H1817 C1826 0.929 . S
C1818 H1812 0.930 . S
C1818 C1819 1.367 . S
C1818 C1826 1.378 . S
C1819 C1818 1.367 . S
C1819 C1827 1.433 . S
C1820 H1816 0.929 . S
C1820 C1822 1.378 . S
C1820 C1824 1.350 . S
C1821 C1824 1.463 1_445 S
C1821 C1826 1.350 . S
C1821 N1829 1.427 . S
C1822 H1813 0.930 . S
C1822 C1820 1.378 . S
C1822 C1823 1.367 . S
C1823 C1822 1.367 . S
C1823 C1825 1.433 . S
C1824 C1820 1.350 . S
C1824 C1821 1.463 1_665 S
C1824 N1828 1.427 . S
C1825 H1815 0.929 . S
C1825 C1823 1.433 . S
C1825 N1828 1.384 . S
C1826 H1817 0.929 . S
C1826 C1818 1.378 . S
C1826 C1821 1.350 . S
C1827 H1814 0.929 . S
C1827 C1819 1.433 . S
C1827 N1829 1.384 . S
N1828 C1824 1.427 . S
N1828 C1825 1.384 . S
N1829 C1821 1.427 . S
N1829 C1827 1.384 . S
H1830 C1836 0.930 . S
H1831 C1840 0.930 . S
H1832 C1845 0.929 . S
H1833 C1843 0.929 . S
H1834 C1838 0.929 1_545 S
H1835 C1844 0.929 1_565 S
C1836 H1830 0.930 . S
C1836 C1837 1.367 . S
C1836 C1844 1.378 . S
C1837 C1836 1.367 . S
C1837 C1845 1.433 . S
C1838 H1834 0.929 1_565 S
C1838 C1840 1.378 . S
C1838 C1842 1.350 . S
C1839 C1842 1.463 1_645 S
C1839 C1844 1.350 . S
C1839 N1847 1.427 . S
C1840 H1831 0.930 . S
C1840 C1838 1.378 . S
C1840 C1841 1.367 . S
C1841 C1840 1.367 . S
C1841 C1843 1.433 . S
C1842 C1838 1.350 . S
C1842 C1839 1.463 1_465 S
C1842 N1846 1.427 . S
C1843 H1833 0.929 . S
C1843 C1841 1.433 . S
C1843 N1846 1.384 . S
C1844 H1835 0.929 1_545 S
C1844 C1836 1.378 . S
C1844 C1839 1.350 . S
C1845 H1832 0.929 . S
C1845 C1837 1.433 . S
C1845 N1847 1.384 . S
N1846 C1842 1.427 . S
N1846 C1843 1.384 . S
N1847 C1839 1.427 . S
N1847 C1845 1.384 . S
H1848 C1854 0.930 . S
H1849 C1858 0.930 . S
H1850 C1863 0.929 . S
H1851 C1861 0.929 . S
H1852 C1856 0.929 . S
H1853 C1862 0.929 . S
C1854 H1848 0.930 . S
C1854 C1855 1.367 . S
C1854 C1862 1.378 . S
C1855 C1854 1.367 . S
C1855 C1863 1.433 . S
C1856 H1852 0.929 . S
C1856 C1858 1.378 . S
C1856 C1860 1.350 . S
C1857 C1860 1.463 . S
C1857 C1862 1.350 . S
C1857 N1865 1.427 . S
C1858 H1849 0.930 . S
C1858 C1856 1.378 . S
C1858 C1859 1.367 . S
C1859 C1858 1.367 . S
C1859 C1861 1.433 . S
C1860 C1856 1.350 . S
C1860 C1857 1.463 . S
C1860 N1864 1.427 . S
C1861 H1851 0.929 . S
C1861 C1859 1.433 . S
C1861 N1864 1.384 . S
C1862 H1853 0.929 . S
C1862 C1854 1.378 . S
C1862 C1857 1.350 . S
C1863 H1850 0.929 . S
C1863 C1855 1.433 . S
C1863 N1865 1.384 . S
N1864 C1860 1.427 . S
N1864 C1861 1.384 . S
N1865 C1857 1.427 . S
N1865 C1863 1.384 . S
H1866 C1872 0.930 . S
H1867 C1876 0.930 . S
H1868 C1881 0.929 . S
H1869 C1879 0.929 . S
H1870 C1874 0.929 . S
H1871 C1880 0.929 . S
C1872 H1866 0.930 . S
C1872 C1873 1.367 . S
C1872 C1880 1.378 . S
C1873 C1872 1.367 . S
C1873 C1881 1.433 . S
C1874 H1870 0.929 . S
C1874 C1876 1.378 . S
C1874 C1878 1.350 . S
C1875 C1878 1.463 . S
C1875 C1880 1.350 . S
C1875 N1883 1.427 . S
C1876 H1867 0.930 . S
C1876 C1874 1.378 . S
C1876 C1877 1.367 . S
C1877 C1876 1.367 . S
C1877 C1879 1.433 . S
C1878 C1874 1.350 . S
C1878 C1875 1.463 . S
C1878 N1882 1.427 . S
C1879 H1869 0.929 . S
C1879 C1877 1.433 . S
C1879 N1882 1.384 . S
C1880 H1871 0.929 . S
C1880 C1872 1.378 . S
C1880 C1875 1.350 . S
C1881 H1868 0.929 . S
C1881 C1873 1.433 . S
C1881 N1883 1.384 . S
N1882 C1878 1.427 . S
N1882 C1879 1.384 . S
N1883 C1875 1.427 . S
N1883 C1881 1.384 . S
H1884 C1890 0.930 . S
H1885 C1894 0.930 . S
H1886 C1899 0.929 . S
H1887 C1897 0.929 . S
H1888 C1892 0.929 . S
H1889 C1898 0.929 . S
C1890 H1884 0.930 . S
C1890 C1891 1.367 . S
C1890 C1898 1.378 . S
C1891 C1890 1.367 . S
C1891 C1899 1.433 . S
C1892 H1888 0.929 . S
C1892 C1894 1.378 . S
C1892 C1896 1.350 . S
C1893 C1896 1.463 . S
C1893 C1898 1.350 . S
C1893 N1901 1.427 . S
C1894 H1885 0.930 . S
C1894 C1892 1.378 . S
C1894 C1895 1.367 . S
C1895 C1894 1.367 . S
C1895 C1897 1.433 . S
C1896 C1892 1.350 . S
C1896 C1893 1.463 . S
C1896 N1900 1.427 . S
C1897 H1887 0.929 . S
C1897 C1895 1.433 . S
C1897 N1900 1.384 . S
C1898 H1889 0.929 . S
C1898 C1890 1.378 . S
C1898 C1893 1.350 . S
C1899 H1886 0.929 . S
C1899 C1891 1.433 . S
C1899 N1901 1.384 . S
N1900 C1896 1.427 . S
N1900 C1897 1.384 . S
N1901 C1893 1.427 . S
N1901 C1899 1.384 . S
H1902 C1908 0.930 . S
H1903 C1912 0.930 . S
H1904 C1917 0.929 . S
H1905 C1915 0.929 . S
H1906 C1910 0.929 . S
H1907 C1916 0.929 . S
C1908 H1902 0.930 . S
C1908 C1909 1.367 . S
C1908 C1916 1.378 . S
C1909 C1908 1.367 . S
C1909 C1917 1.433 . S
C1910 H1906 0.929 . S
C1910 C1912 1.378 . S
C1910 C1914 1.350 . S
C1911 C1914 1.463 . S
C1911 C1916 1.350 . S
C1911 N1919 1.427 . S
C1912 H1903 0.930 . S
C1912 C1910 1.378 . S
C1912 C1913 1.367 . S
C1913 C1912 1.367 . S
C1913 C1915 1.433 . S
C1914 C1910 1.350 . S
C1914 C1911 1.463 . S
C1914 N1918 1.427 . S
C1915 H1905 0.929 . S
C1915 C1913 1.433 . S
C1915 N1918 1.384 . S
C1916 H1907 0.929 . S
C1916 C1908 1.378 . S
C1916 C1911 1.350 . S
C1917 H1904 0.929 . S
C1917 C1909 1.433 . S
C1917 N1919 1.384 . S
N1918 C1914 1.427 . S
N1918 C1915 1.384 . S
N1919 C1911 1.427 . S
N1919 C1917 1.384 . S
H1920 C1926 0.930 . S
H1921 C1930 0.930 . S
H1922 C1935 0.929 . S
H1923 C1933 0.929 . S
H1924 C1928 0.929 . S
H1925 C1934 0.929 . S
C1926 H1920 0.930 . S
C1926 C1927 1.367 . S
C1926 C1934 1.378 . S
C1927 C1926 1.367 . S
C1927 C1935 1.433 . S
C1928 H1924 0.929 . S
C1928 C1930 1.378 . S
C1928 C1932 1.350 . S
C1929 C1932 1.463 . S
C1929 C1934 1.350 . S
C1929 N1937 1.427 . S
C1930 H1921 0.930 . S
C1930 C1928 1.378 . S
C1930 C1931 1.367 . S
C1931 C1930 1.367 . S
C1931 C1933 1.433 . S
C1932 C1928 1.350 . S
C1932 C1929 1.463 . S
C1932 N1936 1.427 . S
C1933 H1923 0.929 . S
C1933 C1931 1.433 . S
C1933 N1936 1.384 . S
C1934 H1925 0.929 . S
C1934 C1926 1.378 . S
C1934 C1929 1.350 . S
C1935 H1922 0.929 . S
C1935 C1927 1.433 . S
C1935 N1937 1.384 . S
N1936 C1932 1.427 . S
N1936 C1933 1.384 . S
N1937 C1929 1.427 . S
N1937 C1935 1.384 . S
H1938 C1944 0.930 . S
H1939 C1948 0.930 . S
H1940 C1953 0.929 . S
H1941 C1951 0.929 . S
H1942 C1946 0.929 . S
H1943 C1952 0.929 . S
C1944 H1938 0.930 . S
C1944 C1945 1.367 . S
C1944 C1952 1.378 . S
C1945 C1944 1.367 . S
C1945 C1953 1.433 . S
C1946 H1942 0.929 . S
C1946 C1948 1.378 . S
C1946 C1950 1.350 . S
C1947 C1950 1.463 . S
C1947 C1952 1.350 . S
C1947 N1955 1.427 . S
C1948 H1939 0.930 . S
C1948 C1946 1.378 . S
C1948 C1949 1.367 . S
C1949 C1948 1.367 . S
C1949 C1951 1.433 . S
C1950 C1946 1.350 . S
C1950 C1947 1.463 . S
C1950 N1954 1.427 . S
C1951 H1941 0.929 . S
C1951 C1949 1.433 . S
C1951 N1954 1.384 . S
C1952 H1943 0.929 . S
C1952 C1944 1.378 . S
C1952 C1947 1.350 . S
C1953 H1940 0.929 . S
C1953 C1945 1.433 . S
C1953 N1955 1.384 . S
N1954 C1950 1.427 . S
N1954 C1951 1.384 . S
N1955 C1947 1.427 . S
N1955 C1953 1.384 . S
H1956 C1962 0.930 . S
H1957 C1966 0.930 . S
H1958 C1971 0.929 . S
H1959 C1969 0.929 . S
H1960 C1964 0.929 . S
H1961 C1970 0.929 . S
C1962 H1956 0.930 . S
C1962 C1963 1.367 . S
C1962 C1970 1.378 . S
C1963 C1962 1.367 . S
C1963 C1971 1.433 . S
C1964 H1960 0.929 . S
C1964 C1966 1.378 . S
C1964 C1968 1.350 . S
C1965 C1968 1.463 . S
C1965 C1970 1.350 . S
C1965 N1973 1.427 . S
C1966 H1957 0.930 . S
C1966 C1964 1.378 . S
C1966 C1967 1.367 . S
C1967 C1966 1.367 . S
C1967 C1969 1.433 . S
C1968 C1964 1.350 . S
C1968 C1965 1.463 . S
C1968 N1972 1.427 . S
C1969 H1959 0.929 . S
C1969 C1967 1.433 . S
C1969 N1972 1.384 . S
C1970 H1961 0.929 . S
C1970 C1962 1.378 . S
C1970 C1965 1.350 . S
C1971 H1958 0.929 . S
C1971 C1963 1.433 . S
C1971 N1973 1.384 . S
N1972 C1968 1.427 . S
N1972 C1969 1.384 . S
N1973 C1965 1.427 . S
N1973 C1971 1.384 . S
H1974 C1980 0.930 . S
H1975 C1984 0.930 . S
H1976 C1989 0.929 . S
H1977 C1987 0.929 . S
H1978 C1982 0.929 . S
H1979 C1988 0.929 . S
C1980 H1974 0.930 . S
C1980 C1981 1.367 . S
C1980 C1988 1.378 . S
C1981 C1980 1.367 . S
C1981 C1989 1.433 . S
C1982 H1978 0.929 . S
C1982 C1984 1.378 . S
C1982 C1986 1.350 . S
C1983 C1986 1.463 . S
C1983 C1988 1.350 . S
C1983 N1991 1.427 . S
C1984 H1975 0.930 . S
C1984 C1982 1.378 . S
C1984 C1985 1.367 . S
C1985 C1984 1.367 . S
C1985 C1987 1.433 . S
C1986 C1982 1.350 . S
C1986 C1983 1.463 . S
C1986 N1990 1.427 . S
C1987 H1977 0.929 . S
C1987 C1985 1.433 . S
C1987 N1990 1.384 . S
C1988 H1979 0.929 . S
C1988 C1980 1.378 . S
C1988 C1983 1.350 . S
C1989 H1976 0.929 . S
C1989 C1981 1.433 . S
C1989 N1991 1.384 . S
N1990 C1986 1.427 . S
N1990 C1987 1.384 . S
N1991 C1983 1.427 . S
N1991 C1989 1.384 . S
H1992 C1998 0.930 . S
H1993 C2002 0.930 . S
H1994 C2007 0.929 . S
H1995 C2005 0.929 . S
H1996 C2000 0.929 . S
H1997 C2006 0.929 . S
C1998 H1992 0.930 . S
C1998 C1999 1.367 . S
C1998 C2006 1.378 . S
C1999 C1998 1.367 . S
C1999 C2007 1.433 . S
C2000 H1996 0.929 . S
C2000 C2002 1.378 . S
C2000 C2004 1.350 . S
C2001 C2004 1.463 . S
C2001 C2006 1.350 . S
C2001 N2009 1.427 . S
C2002 H1993 0.930 . S
C2002 C2000 1.378 . S
C2002 C2003 1.367 . S
C2003 C2002 1.367 . S
C2003 C2005 1.433 . S
C2004 C2000 1.350 . S
C2004 C2001 1.463 . S
C2004 N2008 1.427 . S
C2005 H1995 0.929 . S
C2005 C2003 1.433 . S
C2005 N2008 1.384 . S
C2006 H1997 0.929 . S
C2006 C1998 1.378 . S
C2006 C2001 1.350 . S
C2007 H1994 0.929 . S
C2007 C1999 1.433 . S
C2007 N2009 1.384 . S
N2008 C2004 1.427 . S
N2008 C2005 1.384 . S
N2009 C2001 1.427 . S
N2009 C2007 1.384 . S
H2010 C2016 0.930 . S
H2011 C2020 0.930 . S
H2012 C2025 0.929 . S
H2013 C2023 0.929 . S
H2014 C2018 0.929 . S
H2015 C2024 0.929 . S
C2016 H2010 0.930 . S
C2016 C2017 1.367 . S
C2016 C2024 1.378 . S
C2017 C2016 1.367 . S
C2017 C2025 1.433 . S
C2018 H2014 0.929 . S
C2018 C2020 1.378 . S
C2018 C2022 1.350 . S
C2019 C2022 1.463 . S
C2019 C2024 1.350 . S
C2019 N2027 1.427 . S
C2020 H2011 0.930 . S
C2020 C2018 1.378 . S
C2020 C2021 1.367 . S
C2021 C2020 1.367 . S
C2021 C2023 1.433 . S
C2022 C2018 1.350 . S
C2022 C2019 1.463 . S
C2022 N2026 1.427 . S
C2023 H2013 0.929 . S
C2023 C2021 1.433 . S
C2023 N2026 1.384 . S
C2024 H2015 0.929 . S
C2024 C2016 1.378 . S
C2024 C2019 1.350 . S
C2025 H2012 0.929 . S
C2025 C2017 1.433 . S
C2025 N2027 1.384 . S
N2026 C2022 1.427 . S
N2026 C2023 1.384 . S
N2027 C2019 1.427 . S
N2027 C2025 1.384 . S
H2028 C2034 0.930 . S
H2029 C2038 0.930 . S
H2030 C2043 0.929 . S
H2031 C2041 0.929 . S
H2032 C2036 0.929 . S
H2033 C2042 0.929 . S
C2034 H2028 0.930 . S
C2034 C2035 1.367 . S
C2034 C2042 1.378 . S
C2035 C2034 1.367 . S
C2035 C2043 1.433 . S
C2036 H2032 0.929 . S
C2036 C2038 1.378 . S
C2036 C2040 1.350 . S
C2037 C2040 1.463 . S
C2037 C2042 1.350 . S
C2037 N2045 1.427 . S
C2038 H2029 0.930 . S
C2038 C2036 1.378 . S
C2038 C2039 1.367 . S
C2039 C2038 1.367 . S
C2039 C2041 1.433 . S
C2040 C2036 1.350 . S
C2040 C2037 1.463 . S
C2040 N2044 1.427 . S
C2041 H2031 0.929 . S
C2041 C2039 1.433 . S
C2041 N2044 1.384 . S
C2042 H2033 0.929 . S
C2042 C2034 1.378 . S
C2042 C2037 1.350 . S
C2043 H2030 0.929 . S
C2043 C2035 1.433 . S
C2043 N2045 1.384 . S
N2044 C2040 1.427 . S
N2044 C2041 1.384 . S
N2045 C2037 1.427 . S
N2045 C2043 1.384 . S
H2046 C2052 0.930 . S
H2047 C2056 0.930 . S
H2048 C2061 0.929 . S
H2049 C2059 0.929 . S
H2050 C2054 0.929 . S
H2051 C2060 0.929 . S
C2052 H2046 0.930 . S
C2052 C2053 1.367 . S
C2052 C2060 1.378 . S
C2053 C2052 1.367 . S
C2053 C2061 1.433 . S
C2054 H2050 0.929 . S
C2054 C2056 1.378 . S
C2054 C2058 1.350 . S
C2055 C2058 1.463 . S
C2055 C2060 1.350 . S
C2055 N2063 1.427 . S
C2056 H2047 0.930 . S
C2056 C2054 1.378 . S
C2056 C2057 1.367 . S
C2057 C2056 1.367 . S
C2057 C2059 1.433 . S
C2058 C2054 1.350 . S
C2058 C2055 1.463 . S
C2058 N2062 1.427 . S
C2059 H2049 0.929 . S
C2059 C2057 1.433 . S
C2059 N2062 1.384 . S
C2060 H2051 0.929 . S
C2060 C2052 1.378 . S
C2060 C2055 1.350 . S
C2061 H2048 0.929 . S
C2061 C2053 1.433 . S
C2061 N2063 1.384 . S
N2062 C2058 1.427 . S
N2062 C2059 1.384 . S
N2063 C2055 1.427 . S
N2063 C2061 1.384 . S
H2064 C2070 0.930 1_565 S
H2065 C2074 0.930 . S
H2066 C2079 0.929 . S
H2067 C2077 0.929 . S
H2068 C2072 0.929 . S
H2069 C2078 0.929 . S
C2070 H2064 0.930 1_545 S
C2070 C2071 1.367 1_545 S
C2070 C2078 1.378 . S
C2071 C2070 1.367 1_565 S
C2071 C2079 1.433 1_565 S
C2072 H2068 0.929 . S
C2072 C2074 1.378 . S
C2072 C2076 1.350 . S
C2073 C2076 1.463 . S
C2073 C2078 1.350 . S
C2073 N2081 1.427 . S
C2074 H2065 0.930 . S
C2074 C2072 1.378 . S
C2074 C2075 1.367 . S
C2075 C2074 1.367 . S
C2075 C2077 1.433 . S
C2076 C2072 1.350 . S
C2076 C2073 1.463 . S
C2076 N2080 1.427 . S
C2077 H2067 0.929 . S
C2077 C2075 1.433 . S
C2077 N2080 1.384 . S
C2078 H2069 0.929 . S
C2078 C2070 1.378 . S
C2078 C2073 1.350 . S
C2079 H2066 0.929 . S
C2079 C2071 1.433 1_545 S
C2079 N2081 1.384 . S
N2080 C2076 1.427 . S
N2080 C2077 1.384 . S
N2081 C2073 1.427 . S
N2081 C2079 1.384 . S
H2082 C2088 0.930 . S
H2083 C2092 0.930 1_545 S
H2084 C2097 0.929 . S
H2085 C2095 0.929 . S
H2086 C2090 0.929 . S
H2087 C2096 0.929 . S
C2088 H2082 0.930 . S
C2088 C2089 1.367 . S
C2088 C2096 1.378 . S
C2089 C2088 1.367 . S
C2089 C2097 1.433 . S
C2090 H2086 0.929 . S
C2090 C2092 1.378 . S
C2090 C2094 1.350 . S
C2091 C2094 1.463 . S
C2091 C2096 1.350 . S
C2091 N2099 1.427 . S
C2092 H2083 0.930 1_565 S
C2092 C2090 1.378 . S
C2092 C2093 1.367 1_565 S
C2093 C2092 1.367 1_545 S
C2093 C2095 1.433 1_545 S
C2094 C2090 1.350 . S
C2094 C2091 1.463 . S
C2094 N2098 1.427 . S
C2095 H2085 0.929 . S
C2095 C2093 1.433 1_565 S
C2095 N2098 1.384 . S
C2096 H2087 0.929 . S
C2096 C2088 1.378 . S
C2096 C2091 1.350 . S
C2097 H2084 0.929 . S
C2097 C2089 1.433 . S
C2097 N2099 1.384 . S
N2098 C2094 1.427 . S
N2098 C2095 1.384 . S
N2099 C2091 1.427 . S
N2099 C2097 1.384 . S
H2100 C2106 0.930 1_545 S
H2101 C2110 0.930 . S
H2102 C2115 0.929 . S
H2103 C2113 0.929 . S
H2104 C2108 0.929 . S
H2105 C2114 0.929 . S
C2106 H2100 0.930 1_565 S
C2106 C2107 1.367 1_565 S
C2106 C2114 1.378 . S
C2107 C2106 1.367 1_545 S
C2107 C2115 1.433 1_545 S
C2108 H2104 0.929 . S
C2108 C2110 1.378 . S
C2108 C2112 1.350 . S
C2109 C2112 1.463 . S
C2109 C2114 1.350 . S
C2109 N2117 1.427 . S
C2110 H2101 0.930 . S
C2110 C2108 1.378 . S
C2110 C2111 1.367 . S
C2111 C2110 1.367 . S
C2111 C2113 1.433 . S
C2112 C2108 1.350 . S
C2112 C2109 1.463 . S
C2112 N2116 1.427 . S
C2113 H2103 0.929 . S
C2113 C2111 1.433 . S
C2113 N2116 1.384 . S
C2114 H2105 0.929 . S
C2114 C2106 1.378 . S
C2114 C2109 1.350 . S
C2115 H2102 0.929 . S
C2115 C2107 1.433 1_565 S
C2115 N2117 1.384 . S
N2116 C2112 1.427 . S
N2116 C2113 1.384 . S
N2117 C2109 1.427 . S
N2117 C2115 1.384 . S
H2118 C2124 0.930 . S
H2119 C2128 0.930 . S
H2120 C2133 0.929 1_565 S
H2121 C2131 0.929 . S
H2122 C2126 0.929 . S
H2123 C2132 0.929 . S
C2124 H2118 0.930 . S
C2124 C2125 1.367 1_545 S
C2124 C2132 1.378 . S
C2125 C2124 1.367 1_565 S
C2125 C2133 1.433 1_565 S
C2126 H2122 0.929 . S
C2126 C2128 1.378 . S
C2126 C2130 1.350 . S
C2127 C2130 1.463 . S
C2127 C2132 1.350 . S
C2127 N2135 1.427 . S
C2128 H2119 0.930 . S
C2128 C2126 1.378 . S
C2128 C2129 1.367 . S
C2129 C2128 1.367 . S
C2129 C2131 1.433 . S
C2130 C2126 1.350 . S
C2130 C2127 1.463 . S
C2130 N2134 1.427 . S
C2131 H2121 0.929 . S
C2131 C2129 1.433 . S
C2131 N2134 1.384 . S
C2132 H2123 0.929 . S
C2132 C2124 1.378 . S
C2132 C2127 1.350 . S
C2133 H2120 0.929 1_545 S
C2133 C2125 1.433 1_545 S
C2133 N2135 1.384 . S
N2134 C2130 1.427 . S
N2134 C2131 1.384 . S
N2135 C2127 1.427 . S
N2135 C2133 1.384 . S
H2136 C2142 0.930 . S
H2137 C2146 0.930 . S
H2138 C2151 0.929 . S
H2139 C2149 0.929 1_545 S
H2140 C2144 0.929 . S
H2141 C2150 0.929 . S
C2142 H2136 0.930 . S
C2142 C2143 1.367 . S
C2142 C2150 1.378 . S
C2143 C2142 1.367 . S
C2143 C2151 1.433 . S
C2144 H2140 0.929 . S
C2144 C2146 1.378 . S
C2144 C2148 1.350 . S
C2145 C2148 1.463 . S
C2145 C2150 1.350 . S
C2145 N2153 1.427 . S
C2146 H2137 0.930 . S
C2146 C2144 1.378 . S
C2146 C2147 1.367 1_565 S
C2147 C2146 1.367 1_545 S
C2147 C2149 1.433 1_545 S
C2148 C2144 1.350 . S
C2148 C2145 1.463 . S
C2148 N2152 1.427 . S
C2149 H2139 0.929 1_565 S
C2149 C2147 1.433 1_565 S
C2149 N2152 1.384 . S
C2150 H2141 0.929 . S
C2150 C2142 1.378 . S
C2150 C2145 1.350 . S
C2151 H2138 0.929 . S
C2151 C2143 1.433 . S
C2151 N2153 1.384 . S
N2152 C2148 1.427 . S
N2152 C2149 1.384 . S
N2153 C2145 1.427 . S
N2153 C2151 1.384 . S
H2154 C2160 0.930 . S
H2155 C2164 0.930 . S
H2156 C2169 0.929 . S
H2157 C2167 0.929 . S
H2158 C2162 0.929 . S
H2159 C2168 0.929 . S
C2160 H2154 0.930 . S
C2160 C2161 1.367 . S
C2160 C2168 1.378 . S
C2161 C2160 1.367 . S
C2161 C2169 1.433 . S
C2162 H2158 0.929 . S
C2162 C2164 1.378 . S
C2162 C2166 1.350 . S
C2163 C2166 1.463 . S
C2163 C2168 1.350 . S
C2163 N2171 1.427 . S
C2164 H2155 0.930 . S
C2164 C2162 1.378 . S
C2164 C2165 1.367 1_545 S
C2165 C2164 1.367 1_565 S
C2165 C2167 1.433 1_565 S
C2166 C2162 1.350 . S
C2166 C2163 1.463 . S
C2166 N2170 1.427 . S
C2167 H2157 0.929 . S
C2167 C2165 1.433 1_545 S
C2167 N2170 1.384 . S
C2168 H2159 0.929 . S
C2168 C2160 1.378 . S
C2168 C2163 1.350 . S
C2169 H2156 0.929 . S
C2169 C2161 1.433 . S
C2169 N2171 1.384 . S
N2170 C2166 1.427 . S
N2170 C2167 1.384 . S
N2171 C2163 1.427 . S
N2171 C2169 1.384 . S
H2172 C2178 0.930 1_565 S
H2173 C2182 0.930 . S
H2174 C2187 0.929 . S
H2175 C2185 0.929 . S
H2176 C2180 0.929 . S
H2177 C2186 0.929 . S
C2178 H2172 0.930 1_545 S
C2178 C2179 1.367 1_545 S
C2178 C2186 1.378 . S
C2179 C2178 1.367 1_565 S
C2179 C2187 1.433 1_565 S
C2180 H2176 0.929 . S
C2180 C2182 1.378 . S
C2180 C2184 1.350 . S
C2181 C2184 1.463 . S
C2181 C2186 1.350 . S
C2181 N2189 1.427 . S
C2182 H2173 0.930 . S
C2182 C2180 1.378 . S
C2182 C2183 1.367 . S
C2183 C2182 1.367 . S
C2183 C2185 1.433 . S
C2184 C2180 1.350 . S
C2184 C2181 1.463 . S
C2184 N2188 1.427 . S
C2185 H2175 0.929 . S
C2185 C2183 1.433 . S
C2185 N2188 1.384 . S
C2186 H2177 0.929 . S
C2186 C2178 1.378 . S
C2186 C2181 1.350 . S
C2187 H2174 0.929 . S
C2187 C2179 1.433 1_545 S
C2187 N2189 1.384 . S
N2188 C2184 1.427 . S
N2188 C2185 1.384 . S
N2189 C2181 1.427 . S
N2189 C2187 1.384 . S
H2190 C2196 0.930 . S
H2191 C2200 0.932 1_545 S
H2192 C2205 0.929 . S
H2193 C2203 0.929 . S
H2194 C2198 0.929 . S
H2195 C2204 0.929 . S
C2196 H2190 0.930 . S
C2196 C2197 1.367 . S
C2196 C2204 1.378 . S
C2197 C2196 1.367 . S
C2197 C2205 1.433 . S
C2198 H2194 0.929 . S
C2198 C2200 1.378 . S
C2198 C2202 1.350 . S
C2199 C2202 1.463 . S
C2199 C2204 1.350 . S
C2199 N2207 1.427 . S
C2200 H2191 0.932 1_565 S
C2200 C2198 1.378 . S
C2200 C2201 1.367 1_565 S
C2201 C2200 1.367 1_545 S
C2201 C2203 1.433 1_545 S
C2202 C2198 1.350 . S
C2202 C2199 1.463 . S
C2202 N2206 1.427 . S
C2203 H2193 0.929 . S
C2203 C2201 1.433 1_565 S
C2203 N2206 1.384 . S
C2204 H2195 0.929 . S
C2204 C2196 1.378 . S
C2204 C2199 1.350 . S
C2205 H2192 0.929 . S
C2205 C2197 1.433 . S
C2205 N2207 1.384 . S
N2206 C2202 1.427 . S
N2206 C2203 1.384 . S
N2207 C2199 1.427 . S
N2207 C2205 1.384 . S
C1351 C67 1.454 . S
C1355 C823 1.463 . S
C1369 C151 1.451 . S
C1373 C739 1.458 . S
C1387 C991 1.459 . S
C1391 C235 1.451 . S
C1405 C319 1.452 . S
C1409 C907 1.461 . S
C1423 C1148 1.451 . S
C1427 C392 1.458 . S
C1441 C1064 1.459 . S
C1445 C476 1.451 . S
C1459 C1316 1.464 . S
C1463 C560 1.455 . S
C1477 C644 1.452 . S
C1481 C1232 1.460 . S
C1495 C231 1.629 . S
C1499 C63 1.634 . S
C1513 C315 1.632 . S
C1517 C147 1.631 . S
C1531 C578 1.626 . S
C1535 C410 1.634 . S
C1549 C494 1.626 . S
C1553 C662 1.634 . S
C1567 C903 1.635 . S
C1571 C735 1.626 . S
C1585 C987 1.629 . S
C1589 C819 1.630 . S
C1603 C1082 1.634 . S
C1607 C1250 1.628 . S
C1621 C1166 1.627 . S
C1625 C1334 1.633 . S
C1639 C483 1.711 . S
C1643 C74 1.726 . S
C1657 C399 1.712 . S
C1661 C158 1.726 . S
C1675 C242 1.726 . S
C1679 C651 1.711 . S
C1693 C567 1.719 . S
C1697 C326 1.718 . S
C1711 C746 1.726 . S
C1715 C1155 1.712 . S
C1729 C1071 1.712 . S
C1733 C830 1.726 . S
C1747 C914 1.726 . S
C1751 C1323 1.711 . S
C1765 C1239 1.711 . S
C1769 C998 1.726 . S
C1783 C140 1.445 . S
C1787 C56 1.447 . S
C1801 C308 1.459 . S
C1805 C224 1.452 . S
C1819 C487 1.448 . S
C1823 C403 1.457 . S
C1837 C571 1.455 . S
C1841 C655 1.446 . S
C1855 C812 1.456 . S
C1859 C728 1.460 . S
C1873 C980 1.460 . S
C1877 C896 1.454 . S
C1891 C1075 1.452 . S
C1895 C1159 1.460 . S
C1909 C1243 1.449 . S
C1913 C1327 1.444 . S
C1927 C58 1.399 . S
C1931 C70 1.399 . S
C1945 C142 1.399 . S
C1949 C154 1.399 . S
C1963 C226 1.371 . S
C1967 C238 1.371 . S
C1981 C322 1.399 . S
C1985 C310 1.399 . S
C1999 C406 1.398 . S
C2003 C394 1.398 . S
C2017 C478 1.374 . S
C2021 C490 1.374 . S
C2035 C574 1.391 . S
C2039 C562 1.391 . S
C2053 C658 1.381 . S
C2057 C646 1.381 . S
C2071 C742 1.380 . S
C2075 C730 1.380 . S
C2089 C814 1.370 . S
C2093 C826 1.370 . S
C2107 C910 1.372 . S
C2111 C898 1.372 . S
C2125 C994 1.399 . S
C2129 C982 1.399 . S
C2143 C1078 1.398 . S
C2147 C1066 1.398 . S
C2161 C1162 1.383 . S
C2165 C1150 1.383 . S
C2179 C1234 1.371 . S
C2183 C1246 1.371 . S
C2197 C1330 1.384 . S
C2201 C1318 1.384 . S
