# Generated by pormake.
# Topology wkc, (5)-cn, num edge types: 1
# Building blocks:
#     Node 0, Type 0, BuildingBlock: XOMCOT_clean_sbu_1, # of connection points: 5
#     Node 1, Type 0, BuildingBlock: XOMCOT_clean_sbu_1, # of connection points: 5
#     Node 2, Type 0, BuildingBlock: XOMCOT_clean_sbu_1, # of connection points: 5
#     Node 3, Type 0, BuildingBlock: XOMCOT_clean_sbu_1, # of connection points: 5
#     Node 4, Type 0, BuildingBlock: XOMCOT_clean_sbu_1, # of connection points: 5
#     Node 5, Type 0, BuildingBlock: XOMCOT_clean_sbu_1, # of connection points: 5
#     Node 6, Type 0, BuildingBlock: XOMCOT_clean_sbu_1, # of connection points: 5
#     Node 7, Type 0, BuildingBlock: XOMCOT_clean_sbu_1, # of connection points: 5
#     Node 8, Type 0, BuildingBlock: XOMCOT_clean_sbu_1, # of connection points: 5
#     Node 9, Type 0, BuildingBlock: XOMCOT_clean_sbu_1, # of connection points: 5
#     Node 10, Type 0, BuildingBlock: XOMCOT_clean_sbu_1, # of connection points: 5
#     Node 11, Type 0, BuildingBlock: XOMCOT_clean_sbu_1, # of connection points: 5
#     Edge 12, Type (0, 0), BuildingBlock: CIFDUS_clean_linker_0, # of connection points: 2
#     Edge 13, Type (0, 0), BuildingBlock: CIFDUS_clean_linker_0, # of connection points: 2
#     Edge 14, Type (0, 0), BuildingBlock: CIFDUS_clean_linker_0, # of connection points: 2
#     Edge 15, Type (0, 0), BuildingBlock: CIFDUS_clean_linker_0, # of connection points: 2
#     Edge 16, Type (0, 0), BuildingBlock: CIFDUS_clean_linker_0, # of connection points: 2
#     Edge 17, Type (0, 0), BuildingBlock: CIFDUS_clean_linker_0, # of connection points: 2
#     Edge 18, Type (0, 0), BuildingBlock: CIFDUS_clean_linker_0, # of connection points: 2
#     Edge 19, Type (0, 0), BuildingBlock: CIFDUS_clean_linker_0, # of connection points: 2
#     Edge 20, Type (0, 0), BuildingBlock: CIFDUS_clean_linker_0, # of connection points: 2
#     Edge 21, Type (0, 0), BuildingBlock: CIFDUS_clean_linker_0, # of connection points: 2
#     Edge 22, Type (0, 0), BuildingBlock: CIFDUS_clean_linker_0, # of connection points: 2
#     Edge 23, Type (0, 0), BuildingBlock: CIFDUS_clean_linker_0, # of connection points: 2
#     Edge 24, Type (0, 0), BuildingBlock: CIFDUS_clean_linker_0, # of connection points: 2
#     Edge 25, Type (0, 0), BuildingBlock: CIFDUS_clean_linker_0, # of connection points: 2
#     Edge 26, Type (0, 0), BuildingBlock: CIFDUS_clean_linker_0, # of connection points: 2
#     Edge 27, Type (0, 0), BuildingBlock: CIFDUS_clean_linker_0, # of connection points: 2
#     Edge 28, Type (0, 0), BuildingBlock: CIFDUS_clean_linker_0, # of connection points: 2
#     Edge 29, Type (0, 0), BuildingBlock: CIFDUS_clean_linker_0, # of connection points: 2
#     Edge 30, Type (0, 0), BuildingBlock: CIFDUS_clean_linker_0, # of connection points: 2
#     Edge 31, Type (0, 0), BuildingBlock: CIFDUS_clean_linker_0, # of connection points: 2
#     Edge 32, Type (0, 0), BuildingBlock: CIFDUS_clean_linker_0, # of connection points: 2
#     Edge 33, Type (0, 0), BuildingBlock: CIFDUS_clean_linker_0, # of connection points: 2
#     Edge 34, Type (0, 0), BuildingBlock: CIFDUS_clean_linker_0, # of connection points: 2
#     Edge 35, Type (0, 0), BuildingBlock: CIFDUS_clean_linker_0, # of connection points: 2
#     Edge 36, Type (0, 0), BuildingBlock: CIFDUS_clean_linker_0, # of connection points: 2
#     Edge 37, Type (0, 0), BuildingBlock: CIFDUS_clean_linker_0, # of connection points: 2
#     Edge 38, Type (0, 0), BuildingBlock: CIFDUS_clean_linker_0, # of connection points: 2
#     Edge 39, Type (0, 0), BuildingBlock: CIFDUS_clean_linker_0, # of connection points: 2
#     Edge 40, Type (0, 0), BuildingBlock: CIFDUS_clean_linker_0, # of connection points: 2
#     Edge 41, Type (0, 0), BuildingBlock: CIFDUS_clean_linker_0, # of connection points: 2
# Relax obj value: 0.261
# Max RMSD: 0.212
# Mean RMSD: 0.212
data_MOF--net-wkc--node1-XOMCOT_clean_sbu_1--edge1-CIFDUS_clean_linker_0
_symmetry_space_group_name_H-M    P1
_symmetry_Int_Tables_number       1
_symmetry_cell_setting            triclinic
loop_
_symmetry_equiv_pos_as_xyz
'x, y, z'
_cell_length_a     33.150542
_cell_length_b     33.330198
_cell_length_c     41.85088
_cell_angle_alpha  90.23188
_cell_angle_beta   90.065078
_cell_angle_gamma 119.71309
loop_
_atom_site_label
_atom_site_type_symbol
_atom_site_fract_x
_atom_site_fract_y
_atom_site_fract_z
_atom_type_partial_charge
C0 C 0.32349 0.4936 0.05212 0.0
C1 C 0.32327 0.53056 0.0668 0.0
N2 N 0.29519 0.54115 0.04995 0.0
N3 N 0.29504 0.48056 0.02644 0.0
C4 C 0.27842 0.51023 0.02574 0.0
H5 H 0.34436 0.47832 0.05897 0.0
Co6 Co 0.28686 0.43705 0.99501 0.0
C7 C 0.18492 0.37513 0.99838 0.0
O8 O 0.19169 0.33953 0.99631 0.0
N9 N 0.28077 0.39531 0.96176 0.0
C10 C 0.25923 0.35134 0.91782 0.0
C11 C 0.24654 0.37373 0.93989 0.0
C12 C 0.31524 0.38825 0.95069 0.0
N13 N 0.30264 0.36026 0.92467 0.0
O14 O 0.29893 0.48229 0.96277 0.0
H15 H 0.21487 0.37544 0.93898 0.0
H16 H 0.34994 0.40537 0.96062 0.0
O17 O 0.21956 0.41608 0.99533 0.0
C18 C 0.34125 0.51445 0.96307 0.0
O19 O 0.3698 0.51273 0.98412 0.0
N20 N 0.27829 0.39385 0.02772 0.0
C21 C 0.27891 0.34332 0.0808 0.0
C22 C 0.24981 0.36261 0.07998 0.0
C23 C 0.25017 0.38785 0.05336 0.0
C24 C 0.30641 0.37483 0.02821 0.0
C25 C 0.30618 0.34835 0.05391 0.0
H26 H 0.22995 0.40515 0.05441 0.0
H27 H 0.33154 0.38218 0.00984 0.0
H28 H 0.25579 0.51021 0.00707 0.0
H29 H 0.34414 0.54975 0.08719 0.0
H30 H 0.23794 0.33041 0.89814 0.0
H31 H 0.2291 0.36089 0.10046 0.0
H32 H 0.32914 0.33394 0.05328 0.0
C33 C 0.86099 0.31239 0.23194 0.0
C34 C 0.82744 0.31171 0.25162 0.0
N35 N 0.78607 0.28772 0.23681 0.0
N36 N 0.84079 0.28831 0.20498 0.0
C37 C 0.79508 0.27372 0.20872 0.0
H38 H 0.89793 0.33096 0.23657 0.0
Co39 Co 0.86953 0.28202 0.16822 0.0
C40 C 0.8305 0.18074 0.1611 0.0
O41 O 0.87077 0.18864 0.14986 0.0
N42 N 0.89769 0.27647 0.13013 0.0
C43 C 0.9007 0.25654 0.07958 0.0
C44 C 0.87206 0.25327 0.10426 0.0
C45 C 0.94229 0.29509 0.11988 0.0
N46 N 0.94485 0.28299 0.08935 0.0
O47 O 0.82936 0.29443 0.14188 0.0
H48 H 0.83451 0.23474 0.10341 0.0
H49 H 0.97253 0.3169 0.13416 0.0
O50 O 0.82464 0.21491 0.16839 0.0
C51 C 0.83637 0.33565 0.14318 0.0
O52 O 0.86644 0.36455 0.16409 0.0
N53 N 0.91132 0.27412 0.19464 0.0
C54 C 0.97186 0.28168 0.24369 0.0
C55 C 0.92858 0.24173 0.2404 0.0
C56 C 0.89829 0.23912 0.21625 0.0
C57 C 0.95395 0.31271 0.19711 0.0
C58 C 0.98492 0.3171 0.22131 0.0
H59 H 0.86311 0.21098 0.21729 0.0
H60 H 0.96233 0.3421 0.18208 0.0
H61 H 0.76909 0.25462 0.19063 0.0
H62 H 0.83336 0.32979 0.27419 0.0
H63 H 0.88995 0.24109 0.05609 0.0
H64 H 0.91653 0.21459 0.25809 0.0
H65 H 1.01759 0.34908 0.22371 0.0
C66 C 0.55561 0.8358 0.39237 0.0
C67 C 0.52108 0.79771 0.40753 0.0
N68 N 0.50995 0.76025 0.38929 0.0
N69 N 0.56663 0.82234 0.36482 0.0
C70 C 0.53841 0.77607 0.3638 0.0
H71 H 0.56962 0.87118 0.40017 0.0
Co72 Co 0.60456 0.85874 0.33143 0.0
C73 C 0.67594 0.82963 0.32558 0.0
O74 O 0.70634 0.87177 0.31678 0.0
N75 N 0.64134 0.8947 0.29662 0.0
C76 C 0.66734 0.9094 0.24653 0.0
C77 C 0.64468 0.87558 0.26894 0.0
C78 C 0.66197 0.94053 0.29004 0.0
N79 N 0.67821 0.95048 0.25972 0.0
O80 O 0.55725 0.82021 0.301 0.0
H81 H 0.63008 0.83888 0.26492 0.0
H82 H 0.66427 0.96627 0.30669 0.0
O83 O 0.63379 0.81935 0.33074 0.0
C84 C 0.52307 0.82773 0.3024 0.0
O85 O 0.5239 0.85669 0.32415 0.0
N86 N 0.6475 0.89893 0.3618 0.0
C87 C 0.68393 0.95358 0.41637 0.0
C88 C 0.6898 0.91522 0.4113 0.0
C89 C 0.6705 0.8877 0.38408 0.0
C90 C 0.64298 0.93704 0.36608 0.0
C91 C 0.66167 0.96532 0.39279 0.0
H92 H 0.67013 0.85525 0.383 0.0
H93 H 0.62059 0.94292 0.35033 0.0
H94 H 0.53709 0.7547 0.34383 0.0
H95 H 0.50322 0.79802 0.42909 0.0
H96 H 0.67346 0.90363 0.222 0.0
H97 H 0.7054 0.9042 0.42953 0.0
H98 H 0.65574 0.99424 0.39609 0.0
C99 C 0.74506 0.55416 0.55484 0.0
C100 C 0.74446 0.51708 0.56967 0.0
N101 N 0.76834 0.50264 0.55148 0.0
N102 N 0.76969 0.5634 0.52755 0.0
C103 C 0.78361 0.53158 0.52631 0.0
H104 H 0.72662 0.57154 0.56269 0.0
Co105 Co 0.776 0.60427 0.49482 0.0
C106 C 0.87947 0.66427 0.49112 0.0
O107 O 0.87472 0.69991 0.48346 0.0
N108 N 0.78114 0.64405 0.46069 0.0
C109 C 0.7956 0.67369 0.41156 0.0
C110 C 0.80646 0.65042 0.434 0.0
C111 C 0.75407 0.66276 0.45325 0.0
N112 N 0.76234 0.68135 0.4236 0.0
O113 O 0.7614 0.55624 0.46375 0.0
H114 H 0.82972 0.63681 0.43038 0.0
H115 H 0.72724 0.66114 0.46852 0.0
O116 O 0.8431 0.62446 0.49393 0.0
C117 C 0.71864 0.52524 0.46543 0.0
O118 O 0.69245 0.52964 0.48713 0.0
N119 N 0.78519 0.64904 0.52596 0.0
C120 C 0.77888 0.69641 0.57902 0.0
C121 C 0.8187 0.69287 0.57409 0.0
C122 C 0.82063 0.66786 0.54786 0.0
C123 C 0.74632 0.65241 0.53065 0.0
C124 C 0.74273 0.67658 0.55666 0.0
H125 H 0.84857 0.66022 0.54728 0.0
H126 H 0.71596 0.63229 0.51603 0.0
H127 H 0.80289 0.52847 0.50652 0.0
H128 H 0.72543 0.50027 0.59111 0.0
H129 H 0.80943 0.68196 0.38759 0.0
H130 H 0.84619 0.70572 0.59182 0.0
H131 H 0.71062 0.67704 0.56044 0.0
C132 C 0.2001 0.72079 0.7245 0.0
C133 C 0.23323 0.71998 0.74395 0.0
N134 N 0.27502 0.74517 0.73006 0.0
N135 N 0.22099 0.74689 0.69862 0.0
C136 C 0.2666 0.76119 0.70273 0.0
H137 H 0.16305 0.70232 0.72857 0.0
Co138 Co 0.19381 0.75754 0.66263 0.0
C139 C 0.24033 0.86065 0.66203 0.0
O140 O 0.20187 0.85822 0.65136 0.0
N141 N 0.16718 0.76781 0.62531 0.0
C142 C 0.16502 0.7923 0.57612 0.0
C143 C 0.19323 0.79455 0.60094 0.0
C144 C 0.12291 0.74815 0.6139 0.0
N145 N 0.12071 0.76296 0.58419 0.0
O146 O 0.23172 0.74327 0.63525 0.0
H147 H 0.23078 0.814 0.60094 0.0
H148 H 0.09264 0.72301 0.62659 0.0
O149 O 0.24203 0.82335 0.66554 0.0
C150 C 0.2204 0.70069 0.6364 0.0
O151 O 0.18705 0.67329 0.65587 0.0
N152 N 0.15389 0.76664 0.68998 0.0
C153 C 0.0933 0.75822 0.73901 0.0
C154 C 0.1379 0.79671 0.73769 0.0
C155 C 0.16815 0.79967 0.71346 0.0
C156 C 0.11018 0.72947 0.69073 0.0
C157 C 0.07908 0.72487 0.71474 0.0
H158 H 0.20402 0.82594 0.71588 0.0
H159 H 0.10087 0.70085 0.67457 0.0
H160 H 0.29304 0.78211 0.68554 0.0
H161 H 0.22679 0.70057 0.76584 0.0
H162 H 0.17634 0.80992 0.55346 0.0
H163 H 0.15079 0.82196 0.75689 0.0
H164 H 0.04538 0.69384 0.71561 0.0
C165 C 0.49295 0.18409 0.89991 0.0
C166 C 0.52483 0.2187 0.91944 0.0
N167 N 0.53916 0.25947 0.90479 0.0
N168 N 0.48685 0.20305 0.87319 0.0
C169 C 0.51528 0.24894 0.877 0.0
H170 H 0.47712 0.14744 0.90428 0.0
Co171 Co 0.4537 0.17435 0.83582 0.0
C172 C 0.39206 0.2149 0.8271 0.0
O173 O 0.35988 0.17537 0.81511 0.0
N174 N 0.42163 0.14649 0.79707 0.0
C175 C 0.40146 0.14391 0.7459 0.0
C176 C 0.42572 0.17218 0.77106 0.0
C177 C 0.39552 0.10218 0.78652 0.0
N178 N 0.38256 0.09985 0.75555 0.0
O179 O 0.50826 0.21349 0.81095 0.0
H180 H 0.44531 0.20951 0.77041 0.0
H181 H 0.38581 0.07198 0.80091 0.0
O182 O 0.43147 0.21961 0.83521 0.0
C183 C 0.53788 0.19996 0.8148 0.0
O184 O 0.52719 0.16474 0.83373 0.0
N185 N 0.40351 0.13319 0.86119 0.0
C186 C 0.36152 0.07683 0.91382 0.0
C187 C 0.35972 0.11761 0.90981 0.0
C188 C 0.38165 0.14584 0.8835 0.0
C189 C 0.4025 0.09197 0.86375 0.0
C190 C 0.38111 0.06294 0.88959 0.0
H191 H 0.38573 0.17996 0.88364 0.0
H192 H 0.42346 0.08419 0.84791 0.0
H193 H 0.5198 0.27403 0.85899 0.0
H194 H 0.5386 0.21396 0.94168 0.0
H195 H 0.39857 0.15491 0.72211 0.0
H196 H 0.34603 0.13003 0.9285 0.0
H197 H 0.38376 0.03199 0.8921 0.0
C198 C 0.5581 0.71627 0.76474 0.0
C199 C 0.524 0.71587 0.74576 0.0
N200 N 0.50956 0.74314 0.75947 0.0
N201 N 0.56571 0.74426 0.79015 0.0
C202 C 0.53542 0.75997 0.78628 0.0
H203 H 0.57506 0.69615 0.76069 0.0
Co204 Co 0.60513 0.75492 0.82537 0.0
C205 C 0.66676 0.85708 0.82412 0.0
O206 O 0.70173 0.85191 0.83356 0.0
N207 N 0.64366 0.76519 0.86185 0.0
C208 C 0.67382 0.79092 0.91033 0.0
C209 C 0.64704 0.79348 0.8862 0.0
C210 C 0.66764 0.74451 0.87255 0.0
N211 N 0.68667 0.75994 0.9018 0.0
O212 O 0.55573 0.74526 0.85371 0.0
H213 H 0.63031 0.81428 0.88664 0.0
H214 H 0.671 0.71826 0.8597 0.0
O215 O 0.6263 0.82145 0.82144 0.0
C216 C 0.52477 0.70261 0.85372 0.0
O217 O 0.53021 0.67402 0.83487 0.0
N218 N 0.65107 0.75905 0.79719 0.0
C219 C 0.69424 0.74047 0.74673 0.0
C220 C 0.69254 0.78162 0.7475 0.0
C221 C 0.66991 0.78987 0.77266 0.0
C222 C 0.65374 0.71957 0.79707 0.0
C223 C 0.67606 0.71008 0.77252 0.0
H224 H 0.66341 0.81834 0.77024 0.0
H225 H 0.634 0.69282 0.81421 0.0
H226 H 0.53165 0.78248 0.80325 0.0
H227 H 0.50939 0.69535 0.72433 0.0
H228 H 0.6821 0.80948 0.93284 0.0
H229 H 0.70451 0.80501 0.72738 0.0
H230 H 0.67576 0.67743 0.77247 0.0
C231 C 0.85062 0.53842 0.92985 0.0
C232 C 0.81507 0.50457 0.91212 0.0
N233 N 0.77475 0.49309 0.92687 0.0
N234 N 0.83282 0.54888 0.9555 0.0
C235 C 0.78643 0.52039 0.95309 0.0
H236 H 0.88717 0.55316 0.92479 0.0
Co237 Co 0.86563 0.58979 0.98896 0.0
C238 C 0.82704 0.65418 0.98891 0.0
O239 O 0.86779 0.68863 0.99739 0.0
N240 N 0.89847 0.62972 0.02368 0.0
C241 C 0.91038 0.65965 0.07285 0.0
C242 C 0.87779 0.6361 0.04946 0.0
C243 C 0.94377 0.64906 0.03252 0.0
N244 N 0.95211 0.66773 0.06228 0.0
O245 O 0.82754 0.54367 0.01961 0.0
H246 H 0.84076 0.62246 0.05177 0.0
H247 H 0.97013 0.64815 0.0181 0.0
O248 O 0.82165 0.61349 0.98638 0.0
C249 C 0.83527 0.5098 0.0205 0.0
O250 O 0.86466 0.50866 -3e-05 0.0
N251 N 0.90542 0.63262 0.95851 0.0
C252 C 0.96157 0.67077 0.905 0.0
C253 C 0.9202 0.67205 0.9082 0.0
C254 C 0.89203 0.65183 0.93482 0.0
C255 C 0.94628 0.6324 0.95597 0.0
C256 C 0.97525 0.65196 0.92977 0.0
H257 H 0.85767 0.64757 0.93426 0.0
H258 H 0.95398 0.61222 0.97242 0.0
H259 H 0.7618 0.51892 0.97066 0.0
H260 H 0.81875 0.48801 0.89089 0.0
H261 H 0.90321 0.66797 0.09642 0.0
H262 H 0.90764 0.68464 0.88895 0.0
H263 H 1.00641 0.64927 0.92778 0.0
C264 C 0.3123 0.83963 0.10224 0.0
C265 C 0.31213 0.80334 0.08619 0.0
N266 N 0.28644 0.7645 0.10306 0.0
N267 N 0.28634 0.82352 0.12888 0.0
C268 C 0.27078 0.77765 0.1285 0.0
H269 H 0.33231 0.87572 0.09589 0.0
Co270 Co 0.28109 0.85647 0.16336 0.0
C271 C 0.1795 0.82167 0.1658 0.0
O272 O 0.18895 0.86399 0.17264 0.0
N273 N 0.27699 0.88879 0.19968 0.0
C274 C 0.25829 0.89735 0.24942 0.0
C275 C 0.24684 0.86787 0.22385 0.0
C276 C 0.30822 0.93056 0.21225 0.0
N277 N 0.29733 0.93694 0.24242 0.0
O278 O 0.29321 0.81906 0.19247 0.0
H279 H 0.2196 0.83214 0.22386 0.0
H280 H 0.34041 0.95427 0.20077 0.0
O281 O 0.21291 0.81284 0.16311 0.0
C282 C 0.33557 0.8287 0.19122 0.0
O283 O 0.36321 0.85954 0.17044 0.0
N284 N 0.27385 0.89577 0.13403 0.0
C285 C 0.28064 0.95223 0.08272 0.0
C286 C 0.24302 0.90735 0.08496 0.0
C287 C 0.24093 0.87929 0.1103 0.0
C288 C 0.31031 0.93974 0.13231 0.0
C289 C 0.31415 0.96871 0.10707 0.0
H290 H 0.21509 0.8432 0.10896 0.0
H291 H 0.33893 0.9512 0.14876 0.0
H292 H 0.25054 0.75474 0.14762 0.0
H293 H 0.33217 0.8059 0.06513 0.0
H294 H 0.2398 0.88917 0.27185 0.0
H295 H 0.21763 0.89268 0.06586 0.0
H296 H 0.34454 1.00276 0.10561 0.0
C297 C 0.5086 0.32819 0.27156 0.0
C298 C 0.5455 0.33233 0.25396 0.0
N299 N 0.55932 0.30392 0.26651 0.0
N300 N 0.49886 0.29689 0.29486 0.0
C301 C 0.53061 0.28301 0.29135 0.0
H302 H 0.48993 0.3467 0.26759 0.0
Co303 Co 0.45141 0.27737 0.32513 0.0
C304 C 0.43325 0.17836 0.33368 0.0
O305 O 0.432 0.1766 0.36504 0.0
N306 N 0.40378 0.25824 0.35539 0.0
C307 C 0.33614 0.21833 0.38011 0.0
C308 C 0.364 0.21732 0.35623 0.0
C309 C 0.39888 0.28393 0.37865 0.0
N310 N 0.35792 0.26027 0.39426 0.0
O311 O 0.4961 0.2908 0.3586 0.0
H312 H 0.35475 0.18916 0.33959 0.0
H313 H 0.42442 0.3196 0.3835 0.0
O314 O 0.44024 0.21493 0.31946 0.0
C315 C 0.5227 0.33441 0.36105 0.0
O316 O 0.51486 0.3617 0.34266 0.0
N317 N 0.40908 0.26775 0.29245 0.0
C318 C 0.36465 0.2745 0.23833 0.0
C319 C 0.38084 0.24301 0.23924 0.0
C320 C 0.40302 0.24007 0.26663 0.0
C321 C 0.39081 0.29647 0.29266 0.0
C322 C 0.36801 0.30018 0.26573 0.0
H323 H 0.41899 0.21878 0.26569 0.0
H324 H 0.39699 0.31909 0.31291 0.0
H325 H 0.5323 0.25769 0.30654 0.0
H326 H 0.56145 0.35507 0.23384 0.0
H327 H 0.30141 0.19093 0.38557 0.0
H328 H 0.37953 0.22345 0.21813 0.0
H329 H 0.35665 0.32557 0.26539 0.0
C330 C 0.20792 0.48528 0.44056 0.0
C331 C 0.24423 0.52174 0.42513 0.0
N332 N 0.28371 0.53277 0.44112 0.0
N333 N 0.22467 0.47318 0.46593 0.0
C334 C 0.27089 0.50257 0.46545 0.0
H335 H 0.17154 0.47017 0.43451 0.0
Co336 Co 0.19315 0.43144 0.49882 0.0
C337 C 0.23379 0.36904 0.49581 0.0
O338 O 0.19313 0.33389 0.50334 0.0
N339 N 0.16244 0.39061 0.53329 0.0
C340 C 0.15647 0.35855 0.58098 0.0
C341 C 0.18636 0.38487 0.55732 0.0
C342 C 0.11775 0.36854 0.54379 0.0
N343 N 0.11324 0.34832 0.57259 0.0
O344 O 0.23066 0.47817 0.52978 0.0
H345 H 0.22374 0.40023 0.5581 0.0
H346 H 0.08902 0.36795 0.53125 0.0
O347 O 0.23873 0.40967 0.49485 0.0
C348 C 0.21904 0.5094 0.53048 0.0
O349 O 0.18601 0.50552 0.51114 0.0
N350 N 0.15362 0.38856 0.46801 0.0
C351 C 0.09786 0.35372 0.41359 0.0
C352 C 0.14029 0.35426 0.4156 0.0
C353 C 0.16818 0.37274 0.44276 0.0
C354 C 0.11153 0.38642 0.46679 0.0
C355 C 0.0828 0.3685 0.44008 0.0
H356 H 0.20323 0.3789 0.44153 0.0
H357 H 0.10242 0.4036 0.48495 0.0
H358 H 0.2945 0.50308 0.48354 0.0
H359 H 0.24144 0.54051 0.40499 0.0
H360 H 0.1661 0.34914 0.60328 0.0
H361 H 0.15386 0.34472 0.39519 0.0
H362 H 0.05063 0.36948 0.43921 0.0
C363 C 0.73564 0.19655 0.60278 0.0
C364 C 0.73573 0.23287 0.58697 0.0
N365 N 0.76185 0.27181 0.60395 0.0
N366 N 0.762 0.21281 0.62939 0.0
C367 C 0.77772 0.25869 0.6292 0.0
H368 H 0.71576 0.16045 0.59616 0.0
Co369 Co 0.76983 0.18149 0.66368 0.0
C370 C 0.87242 0.22207 0.66593 0.0
O371 O 0.86617 0.18154 0.67466 0.0
N372 N 0.77759 0.1511 0.6996 0.0
C373 C 0.80022 0.14512 0.74872 0.0
C374 C 0.80348 0.17505 0.72514 0.0
C375 C 0.75745 0.10626 0.70901 0.0
N376 N 0.77115 0.1018 0.73865 0.0
O377 O 0.75532 0.21766 0.69275 0.0
H378 H 0.82316 0.21233 0.72672 0.0
H379 H 0.73284 0.07718 0.69495 0.0
O380 O 0.83699 0.22763 0.66301 0.0
C381 C 0.7117 0.20273 0.69079 0.0
O382 O 0.68668 0.16785 0.67148 0.0
N383 N 0.77821 0.14323 0.63434 0.0
C384 C 0.76995 0.08533 0.58336 0.0
C385 C 0.8086 0.12969 0.58584 0.0
C386 C 0.81146 0.15858 0.61104 0.0
C387 C 0.74047 0.10012 0.63213 0.0
C388 C 0.73608 0.07026 0.60727 0.0
H389 H 0.83808 0.19434 0.60981 0.0
H390 H 0.71154 0.09024 0.6481 0.0
H391 H 0.79877 0.28177 0.64818 0.0
H392 H 0.71576 0.23035 0.56582 0.0
H393 H 0.81699 0.15458 0.7719 0.0
H394 H 0.83427 0.14339 0.567 0.0
H395 H 0.70497 0.03674 0.60568 0.0
H396 H 0.42316 0.27231 0.87919 0.0
H397 H 0.32798 0.232 0.79959 0.0
H398 H 0.2944 0.27697 0.82146 0.0
H399 H 0.28735 0.32187 0.86531 0.0
H400 H 0.37811 0.35702 0.94731 0.0
H401 H 0.41836 0.32081 0.92219 0.0
C402 C 0.39577 0.27424 0.8663 0.0
C403 C 0.37818 0.2489 0.83771 0.0
C404 C 0.37538 0.2989 0.87965 0.0
C405 C 0.34215 0.25117 0.8216 0.0
C406 C 0.32277 0.27672 0.83419 0.0
C407 C 0.31582 0.32171 0.87788 0.0
C408 C 0.32907 0.34215 0.90848 0.0
C409 C 0.33821 0.29966 0.86364 0.0
C410 C 0.36698 0.3421 0.92374 0.0
C411 C 0.39 0.32102 0.90944 0.0
H412 H 0.10314 0.2949 0.00124 0.0
H413 H 0.16792 0.43846 0.02886 0.0
H414 H 0.09955 0.42255 0.06052 0.0
H415 H 1.0223 0.36631 0.08288 0.0
H416 H 0.95802 0.22372 0.05353 0.0
H417 H 1.02526 0.24048 0.02049 0.0
C418 C 0.10212 0.32291 0.01382 0.0
C419 C 0.14071 0.36778 0.01263 0.0
C420 C 0.06295 0.31344 0.03218 0.0
C421 C 0.13861 0.40364 0.02904 0.0
C422 C 0.09966 0.39446 0.04748 0.0
C423 C 1.02339 0.33909 0.06933 0.0
C424 C 0.98556 0.29374 0.07081 0.0
C425 C 0.06194 0.34928 0.04975 0.0
C426 C 0.98679 0.25879 0.05272 0.0
C427 C 1.02516 0.26839 0.03381 0.0
H428 H 0.76711 0.15523 0.20958 0.0
H429 H 0.8217 0.10018 0.13902 0.0
H430 H 0.77861 0.0238 0.163 0.0
H431 H 0.73084 0.97421 0.20627 0.0
H432 H 0.67574 0.02828 0.27727 0.0
H433 H 0.71444 0.10344 0.25129 0.0
C434 C 0.76874 0.12628 0.19905 0.0
C435 C 0.79759 0.13346 0.17247 0.0
C436 C 0.74465 0.08242 0.21349 0.0
C437 C 0.79982 0.09567 0.15945 0.0
C438 C 0.77538 0.05198 0.17327 0.0
C439 C 0.72652 1.00201 0.21595 0.0
C440 C 0.70036 0.99505 0.24399 0.0
C441 C 0.74854 0.04518 0.2007 0.0
C442 C 0.69617 0.0323 0.25617 0.0
C443 C 0.71803 0.07543 0.24111 0.0
H444 H 0.79355 0.73985 0.37329 0.0
H445 H 0.67645 0.66963 0.4366 0.0
H446 H 0.63743 0.70598 0.41005 0.0
H447 H 0.63771 0.7607 0.3702 0.0
H448 H 0.75536 0.83113 0.30747 0.0
H449 H 0.79198 0.79065 0.33171 0.0
C450 C 0.75926 0.73187 0.38112 0.0
C451 C 0.73849 0.70207 0.40727 0.0
C452 C 0.7367 0.75277 0.36558 0.0
C453 C 0.69408 0.69295 0.41708 0.0
C454 C 0.67138 0.7135 0.40167 0.0
C455 C 0.67091 0.76646 0.36139 0.0
C456 C 0.69365 0.79891 0.33691 0.0
C457 C 0.69248 0.74381 0.37604 0.0
C458 C 0.73703 0.8064 0.32621 0.0
C459 C 0.75817 0.78341 0.3402 0.0
H460 H 0.04301 0.67899 0.57845 0.0
H461 H 0.10744 0.81959 0.54543 0.0
H462 H 0.0403 0.80052 0.51149 0.0
H463 H 0.96208 0.74491 0.49259 0.0
H464 H 0.89689 0.60362 0.52468 0.0
H465 H 0.96547 0.62162 0.55689 0.0
C466 C 0.04212 0.70537 0.56391 0.0
C467 C 0.08016 0.75078 0.56464 0.0
C468 C 1.00338 0.69394 0.54398 0.0
C469 C 0.07881 0.78442 0.54522 0.0
C470 C 0.04037 0.77353 0.5258 0.0
C471 C 0.96299 0.71778 0.50624 0.0
C472 C 0.92406 0.67295 0.5061 0.0
C473 C 1.00237 0.72848 0.52504 0.0
C474 C 0.92624 0.6384 0.52404 0.0
C475 C 0.9654 0.64877 0.54277 0.0
H476 H 0.24588 0.94486 0.66118 0.0
H477 H 0.31275 0.87331 0.70084 0.0
H478 H 0.36203 0.9406 0.73415 0.0
H479 H 0.38399 0.0193 0.75396 0.0
H480 H 0.31729 0.0901 0.71323 0.0
H481 H 0.26993 0.02369 0.67883 0.0
C482 C 0.27159 0.94406 0.6768 0.0
C483 C 0.27537 0.90385 0.67839 0.0
C484 C 0.29952 0.98271 0.69615 0.0
C485 C 0.30909 0.90374 0.69885 0.0
C486 C 0.3371 0.94215 0.71818 0.0
C487 C 0.35885 0.01987 0.73767 0.0
C488 C 0.35395 0.05947 0.73627 0.0
C489 C 0.33211 0.98161 0.71746 0.0
C490 C 0.3218 0.06013 0.71465 0.0
C491 C 0.29472 0.02216 0.69497 0.0
H492 H 0.82798 0.73639 0.98903 0.0
H493 H 0.74834 0.59589 0.95488 0.0
H494 H 0.69793 0.61613 0.92455 0.0
H495 H 0.67851 0.675 0.90555 0.0
H496 H 0.75822 0.81489 0.94044 0.0
H497 H 0.80643 0.79374 0.97238 0.0
C498 C 0.79929 0.70997 0.97527 0.0
C499 C 0.79223 0.66466 0.97431 0.0
C500 C 0.77062 0.72192 0.95763 0.0
C501 C 0.75466 0.631 0.9563 0.0
C502 C 0.72594 0.64265 0.93869 0.0
C503 C 0.70658 0.7008 0.92005 0.0
C504 C 0.71486 0.74658 0.92045 0.0
C505 C 0.73404 0.6882 0.93873 0.0
C506 C 0.75089 0.77943 0.93982 0.0
C507 C 0.77857 0.76736 0.95806 0.0
H508 H 0.15379 0.75283 0.12109 0.0
H509 H 0.09902 0.81825 0.18278 0.0
H510 H 1.0233 0.77532 0.15677 0.0
H511 H 0.97465 0.7247 0.11364 0.0
H512 H 1.02886 0.65933 0.05124 0.0
H513 H 0.10266 0.6974 0.07986 0.0
C514 C 0.12496 0.75682 0.12932 0.0
C515 C 0.13208 0.78865 0.15397 0.0
C516 C 0.08159 0.73288 0.11359 0.0
C517 C 0.09451 0.79397 0.16392 0.0
C518 C 0.05122 0.76964 0.14891 0.0
C519 C 1.00216 0.71805 0.10645 0.0
C520 C 0.99568 0.6892 0.07992 0.0
C521 C 0.04465 0.73986 0.12321 0.0
C522 C 0.03255 0.68189 0.071 0.0
C523 C 0.07491 0.70342 0.08762 0.0
H524 H 0.37828 0.08821 0.35122 0.0
H525 H 0.45517 0.17345 0.2716 0.0
H526 H 0.42067 0.10625 0.23614 0.0
H527 H 0.3639 0.02416 0.22682 0.0
H528 H 0.28999 0.93847 0.30732 0.0
H529 H 0.32778 1.00456 0.34286 0.0
C530 C 0.38814 0.09194 0.32625 0.0
C531 C 0.4185 0.13605 0.31401 0.0
C532 C 0.3681 0.05299 0.30585 0.0
C533 C 0.43091 0.14012 0.28153 0.0
C534 C 0.41128 0.10162 0.2612 0.0
C535 C 0.35641 0.0196 0.25215 0.0
C536 C 0.32306 0.97598 0.26385 0.0
C537 C 0.37893 0.05799 0.27291 0.0
C538 C 0.31421 0.97141 0.297 0.0
C539 C 0.33624 1.00934 0.31765 0.0
H540 H 0.23616 0.28874 0.49628 0.0
H541 H 0.30957 0.42775 0.4598 0.0
H542 H 0.35776 0.40748 0.42675 0.0
H543 H 0.37318 0.34756 0.40375 0.0
H544 H 0.29849 0.20882 0.44055 0.0
H545 H 0.25688 0.23165 0.47768 0.0
C546 C 0.26318 0.3149 0.4815 0.0
C547 C 0.26883 0.35962 0.48045 0.0
C548 C 0.29025 0.30282 0.46215 0.0
C549 C 0.30434 0.39305 0.46124 0.0
C550 C 0.33176 0.38137 0.44209 0.0
C551 C 0.34846 0.32259 0.42031 0.0
C552 C 0.3385 0.27625 0.4189 0.0
C553 C 0.32421 0.33598 0.44168 0.0
C554 C 0.30615 0.24439 0.44055 0.0
C555 C 0.28241 0.25747 0.46193 0.0
H556 H 0.95148 0.21672 0.66361 0.0
H557 H 0.89384 0.30104 0.63226 0.0
H558 H 0.96305 0.34742 0.59988 0.0
H559 H 0.03906 0.36176 0.57834 0.0
H560 H 0.09451 0.27576 0.60993 0.0
H561 H 1.02704 0.23219 0.6439 0.0
C562 C 0.95412 0.24558 0.65005 0.0
C563 C 0.91727 0.2552 0.65051 0.0
C564 C 0.99355 0.27152 0.63104 0.0
C565 C 0.92165 0.29287 0.63265 0.0
C566 C 0.96112 0.31921 0.61384 0.0
C567 C 0.03609 0.33328 0.59251 0.0
C568 C 0.07186 0.32202 0.59151 0.0
C569 C 0.99701 0.30835 0.61237 0.0
C570 C 0.06777 0.28541 0.61041 0.0
C571 C 1.02913 0.26042 0.62986 0.0
H572 H 0.74818 0.93845 0.82521 0.0
H573 H 0.60816 0.87549 0.78843 0.0
H574 H 0.62815 0.94545 0.75804 0.0
H575 H 0.6868 0.02407 0.74011 0.0
H576 H 0.82614 0.08592 0.77768 0.0
H577 H 0.80518 1.01696 0.80923 0.0
C578 C 0.7218 0.94007 0.81083 0.0
C579 C 0.67672 0.90155 0.80919 0.0
C580 C 0.73363 0.9802 0.79317 0.0
C581 C 0.64309 0.90457 0.79038 0.0
C582 C 0.6546 0.94452 0.77275 0.0
C583 C 0.71251 0.02218 0.75507 0.0
C584 C 0.75806 0.06007 0.75645 0.0
C585 C 0.69999 0.98236 0.77356 0.0
C586 C 0.79084 0.05743 0.77635 0.0
C587 C 0.77889 0.01795 0.79438 0.0
H588 H 0.28225 0.72285 0.04698 0.0
H589 H 0.28675 0.70793 0.14897 0.0
H590 H 0.28826 0.63605 0.14152 0.0
H591 H 0.29158 0.57888 0.1059 0.0
H592 H 0.28653 0.59308 0.00391 0.0
H593 H 0.28173 0.6634 0.01131 0.0
C594 C 0.28339 0.70365 0.06748 0.0
C595 C 0.28424 0.7206 0.09843 0.0
C596 C 0.28423 0.66224 0.063 0.0
C597 C 0.28533 0.69529 0.1249 0.0
C598 C 0.28657 0.65435 0.12066 0.0
C599 C 0.28935 0.59742 0.08537 0.0
C600 C 0.28948 0.58091 0.05446 0.0
C601 C 0.2865 0.63773 0.08983 0.0
C602 C 0.28596 0.60483 0.02797 0.0
C603 C 0.28354 0.64521 0.03218 0.0
H604 H 0.7231 0.29342 0.19947 0.0
H605 H 0.75325 0.27615 0.29694 0.0
H606 H 0.68348 0.27717 0.31496 0.0
H607 H 0.61614 0.28714 0.3031 0.0
H608 H 0.58813 0.30771 0.20576 0.0
H609 H 0.6547 0.30125 0.18745 0.0
C610 C 0.71387 0.28907 0.22456 0.0
C611 C 0.74303 0.28446 0.24687 0.0
C612 C 0.67435 0.29074 0.23474 0.0
C613 C 0.73131 0.27989 0.27942 0.0
C614 C 0.69148 0.28047 0.28968 0.0
C615 C 0.62432 0.28959 0.27787 0.0
C616 C 0.59733 0.29797 0.25581 0.0
C617 C 0.66307 0.28649 0.26759 0.0
C618 C 0.60873 0.30181 0.22321 0.0
C619 C 0.64664 0.29792 0.21273 0.0
H620 H 0.47537 0.71644 0.44468 0.0
H621 H 0.45453 0.70282 0.34268 0.0
H622 H 0.38275 0.62943 0.34963 0.0
H623 H 0.3234 0.57112 0.38509 0.0
H624 H 0.3445 0.58517 0.48708 0.0
H625 H 0.41847 0.6561 0.47989 0.0
C626 C 0.45514 0.69719 0.42404 0.0
C627 C 0.47017 0.71501 0.39328 0.0
C628 C 0.41382 0.65516 0.42824 0.0
C629 C 0.44402 0.68956 0.36661 0.0
C630 C 0.40275 0.64778 0.37058 0.0
C631 C 0.34438 0.58975 0.40564 0.0
C632 C 0.32856 0.57297 0.43651 0.0
C633 C 0.38695 0.63058 0.40131 0.0
C634 C 0.3562 0.59705 0.46303 0.0
C635 C 0.39836 0.6378 0.45896 0.0
H636 H 0.77139 0.46455 0.6072 0.0
H637 H 0.76998 0.44653 0.50508 0.0
H638 H 0.7689 0.37329 0.51223 0.0
H639 H 0.76544 0.31265 0.54777 0.0
H640 H 0.76631 0.33106 0.64985 0.0
H641 H 0.77044 0.40551 0.64254 0.0
C642 C 0.77087 0.44455 0.58655 0.0
C643 C 0.77077 0.46099 0.55571 0.0
C644 C 0.77004 0.40239 0.59085 0.0
C645 C 0.7707 0.43502 0.52911 0.0
C646 C 0.7697 0.39291 0.53317 0.0
C647 C 0.76655 0.33307 0.56832 0.0
C648 C 0.76578 0.31642 0.59925 0.0
C649 C 0.76892 0.37602 0.56394 0.0
C650 C 0.76763 0.34337 0.62577 0.0
C651 C 0.76967 0.38585 0.62163 0.0
H652 H 0.34347 0.74989 0.69287 0.0
H653 H 0.3039 0.74939 0.79098 0.0
H654 H 0.37529 0.75177 0.80911 0.0
H655 H 0.44715 0.75 0.79691 0.0
H656 H 0.48497 0.74757 0.69875 0.0
H657 H 0.4164 0.75073 0.68069 0.0
C658 C 0.35086 0.75108 0.7182 0.0
C659 C 0.31849 0.74956 0.74056 0.0
C660 C 0.3916 0.75172 0.72839 0.0
C661 C 0.32812 0.75016 0.77333 0.0
C662 C 0.36897 0.75165 0.78368 0.0
C663 C 0.44071 0.75094 0.7716 0.0
C664 C 0.47109 0.74864 0.74917 0.0
C665 C 0.40072 0.75189 0.76143 0.0
C666 C 0.46188 0.74899 0.71642 0.0
C667 C 0.42274 0.75086 0.70611 0.0
H668 H 0.7078 0.43417 0.96659 0.0
H669 H 0.74133 0.46715 0.86724 0.0
H670 H 0.66884 0.39857 0.85144 0.0
H671 H 0.59923 0.32649 0.86583 0.0
H672 H 0.56615 0.29141 0.96503 0.0
H673 H 0.63519 0.36355 0.98107 0.0
C674 C 0.69869 0.42672 0.94154 0.0
C675 C 0.72977 0.45555 0.91806 0.0
C676 C 0.65736 0.38668 0.93266 0.0
C677 C 0.71803 0.44516 0.88565 0.0
C678 C 0.67664 0.40603 0.87664 0.0
C679 C 0.60651 0.33501 0.89096 0.0
C680 C 0.57751 0.30364 0.91422 0.0
C681 C 0.64648 0.37611 0.89993 0.0
C682 C 0.58816 0.31483 0.9467 0.0
C683 C 0.62754 0.3561 0.95586 0.0
H684 H 0.28095 0.25995 0.21634 0.0
H685 H 0.42542 0.3186 0.1916 0.0
H686 H 0.41141 0.34425 0.14033 0.0
H687 H 0.35942 0.35278 0.104 0.0
H688 H 0.21334 0.29048 0.12576 0.0
H689 H 0.22667 0.26394 0.17709 0.0
C690 C 0.30901 0.27812 0.19948 0.0
C691 C 0.35403 0.28754 0.20732 0.0
C692 C 0.30053 0.2922 0.1698 0.0
C693 C 0.39048 0.31097 0.18565 0.0
C694 C 0.38252 0.32565 0.15649 0.0
C695 C 0.33005 0.3323 0.11941 0.0
C696 C 0.28537 0.32343 0.1108 0.0
C697 C 0.33778 0.31661 0.14841 0.0
C698 C 0.24822 0.29819 0.13185 0.0
C699 C 0.25577 0.28285 0.16116 0.0
H700 H 0.07475 0.28267 0.37133 0.0
H701 H 0.0678 0.40738 0.38572 0.0
H702 H 0.03086 0.39732 0.33372 0.0
H703 H 0.99971 0.35303 0.28444 0.0
H704 H 1.00264 0.22648 0.2699 0.0
H705 H 0.0424 0.23738 0.32145 0.0
C706 C 0.06501 0.30747 0.36299 0.0
C707 C 0.07345 0.34537 0.38249 0.0
C708 C 0.0435 0.30138 0.33297 0.0
C709 C 0.06075 0.37737 0.37147 0.0
C710 C 0.04002 0.37191 0.34161 0.0
C711 C 1.00977 0.32826 0.29237 0.0
C712 C 0.99915 0.28949 0.27333 0.0
C713 C 0.03126 0.33413 0.32219 0.0
C714 C 1.01101 0.25684 0.28417 0.0
C715 C 0.03351 0.263 0.31361 0.0
H716 H 0.76325 0.98671 0.45228 0.0
H717 H 0.62587 0.97081 0.4516 0.0
H718 H 0.63986 1.00802 0.50373 0.0
H719 H 0.69121 0.04677 0.54872 0.0
H720 H 0.8295 0.06547 0.55033 0.0
H721 H 0.81519 0.02539 0.49866 0.0
C722 C 0.73652 0.99143 0.46368 0.0
C723 C 0.69389 0.9767 0.44796 0.0
C724 C 0.74487 1.01314 0.49378 0.0
C725 C 0.65937 0.98283 0.46292 0.0
C726 C 0.66716 1.00376 0.49283 0.0
C727 C 0.71796 0.04132 0.53806 0.0
C728 C 0.76106 0.05835 0.55344 0.0
C729 C 0.70976 0.0192 0.50837 0.0
C730 C 0.79593 0.05236 0.53891 0.0
C731 C 0.78776 0.02956 0.50942 0.0
H732 H 0.70813 0.64878 0.61887 0.0
H733 H 0.83357 0.77975 0.60871 0.0
H734 H 0.81944 0.80523 0.66067 0.0
H735 H 0.76976 0.78991 0.7085 0.0
H736 H 0.64526 0.65732 0.71755 0.0
H737 H 0.66084 0.63256 0.66659 0.0
C738 C 0.73213 0.68307 0.62796 0.0
C739 C 0.77125 0.71281 0.60998 0.0
C740 C 0.72413 0.69691 0.65771 0.0
C741 C 0.80295 0.75661 0.62222 0.0
C742 C 0.79488 0.77105 0.65182 0.0
C743 C 0.74633 0.75558 0.69929 0.0
C744 C 0.70673 0.72534 0.7169 0.0
C745 C 0.75541 0.74148 0.66974 0.0
C746 C 0.67652 0.68089 0.70479 0.0
C747 C 0.68511 0.66682 0.6755 0.0
H748 H 0.05991 0.68157 0.77439 0.0
H749 H 0.06718 0.81414 0.77033 0.0
H750 H 1.02621 0.79885 0.82161 0.0
H751 H 0.98989 0.74773 0.86826 0.0
H752 H 0.98664 0.61678 0.87197 0.0
H753 H 1.02465 0.63147 0.82018 0.0
C754 C 0.05179 0.70677 0.7845 0.0
C755 C 0.06563 0.74849 0.76852 0.0
C756 C 1.02952 0.69822 0.81407 0.0
C757 C 0.05632 0.78157 0.78222 0.0
C758 C 0.0331 0.77287 0.8115 0.0
C759 C 0.99764 0.7226 0.85762 0.0
C760 C 0.98608 0.68155 0.87402 0.0
C761 C 1.01984 0.73139 0.82778 0.0
C762 C 0.99613 0.64908 0.86009 0.0
C763 C 1.01749 0.65724 0.83037 0.0
H764 H 0.35797 0.98834 0.04707 0.0
H765 H 0.22084 0.97226 0.05035 0.0
H766 H 0.23352 1.01022 0.99821 0.0
H767 H 0.28372 0.04641 0.9509 0.0
H768 H 0.41923 0.05808 0.94793 0.0
H769 H 0.40715 0.02341 0.00064 0.0
C770 C 0.33117 0.99387 0.03659 0.0
C771 C 0.28889 0.97834 0.05262 0.0
C772 C 0.33825 1.01441 0.00648 0.0
C773 C 0.25385 0.98439 0.03844 0.0
C774 C 0.26105 1.00591 0.00865 0.0
C775 C 0.31037 0.04115 0.96189 0.0
C776 C 0.35198 0.05409 0.94541 0.0
C777 C 0.30304 0.02073 0.99229 0.0
C778 C 0.38648 0.04741 0.95986 0.0
C779 C 0.3798 0.02796 0.99011 0.0
H780 H 0.40717 0.60295 0.97276 0.0
H781 H 0.31858 0.50841 0.8999 0.0
H782 H 0.36451 0.56417 0.85846 0.0
H783 H 0.43803 0.63287 0.84335 0.0
H784 H 0.52698 0.7271 0.9162 0.0
H785 H 0.47212 0.67898 0.95751 0.0
C786 C 0.39731 0.59516 0.94781 0.0
C787 C 0.36023 0.55154 0.93916 0.0
C788 C 0.42411 0.62714 0.92428 0.0
C789 C 0.34709 0.54182 0.90697 0.0
C790 C 0.37356 0.57352 0.88333 0.0
C791 C 0.44459 0.6435 0.86824 0.0
C792 C 0.48656 0.68293 0.87695 0.0
C793 C 0.41334 0.61529 0.89171 0.0
C794 C 0.49476 0.69689 0.90906 0.0
C795 C 0.46368 0.66911 0.93264 0.0
H796 H 0.81257 0.42029 0.01694 0.0
H797 H 0.82215 0.52434 0.0829 0.0
H798 H 0.81596 0.47499 0.12802 0.0
H799 H 0.82196 0.40862 0.14804 0.0
H800 H 0.81253 0.30477 0.08182 0.0
H801 H 0.80355 0.34716 0.0374 0.0
C802 C 0.81199 0.43154 0.04122 0.0
C803 C 0.81839 0.47599 0.04674 0.0
C804 C 0.809 0.40325 0.0669 0.0
C805 C 0.81713 0.49018 0.07815 0.0
C806 C 0.81408 0.46216 0.10391 0.0
C807 C 0.81677 0.39474 0.12395 0.0
C808 C 0.81869 0.35409 0.11809 0.0
C809 C 0.81213 0.41957 0.09853 0.0
C810 C 0.81126 0.33602 0.08692 0.0
C811 C 0.80652 0.36047 0.06148 0.0
H812 H 0.43404 0.80617 0.31108 0.0
H813 H 0.52979 0.81278 0.2389 0.0
H814 H 0.47508 0.80613 0.197 0.0
H815 H 0.40679 0.81265 0.18151 0.0
H816 H 0.3115 0.80696 0.25375 0.0
H817 H 0.35879 0.79815 0.29517 0.0
C818 C 0.44231 0.80487 0.28615 0.0
C819 C 0.48602 0.81056 0.27796 0.0
C820 C 0.41102 0.80178 0.26233 0.0
C821 C 0.4963 0.80834 0.24572 0.0
C822 C 0.46522 0.80503 0.22179 0.0
C823 C 0.39582 0.8083 0.20627 0.0
C824 C 0.35618 0.81111 0.21474 0.0
C825 C 0.42349 0.80386 0.22987 0.0
C826 C 0.34185 0.80485 0.24673 0.0
C827 C 0.36913 0.80024 0.2704 0.0
H828 H 0.60875 0.40339 0.34873 0.0
H829 H 0.52335 0.31413 0.42409 0.0
H830 H 0.5818 0.36326 0.46382 0.0
H831 H 0.65034 0.43844 0.4771 0.0
H832 H 0.73588 0.52735 0.40157 0.0
H833 H 0.68476 0.47101 0.3616 0.0
C834 C 0.60364 0.39414 0.37382 0.0
C835 C 0.56182 0.35572 0.38373 0.0
C836 C 0.63716 0.42267 0.39632 0.0
C837 C 0.55543 0.34352 0.41608 0.0
C838 C 0.58863 0.37184 0.43873 0.0
C839 C 0.65837 0.44482 0.45186 0.0
C840 C 0.69629 0.48709 0.44211 0.0
C841 C 0.62862 0.4125 0.42918 0.0
C842 C 0.7069 0.49498 0.40952 0.0
C843 C 0.67743 0.46299 0.38673 0.0
H844 H 0.24263 0.59776 0.51959 0.0
H845 H 0.23542 0.50537 0.59392 0.0
H846 H 0.24324 0.56196 0.63461 0.0
H847 H 0.23679 0.63062 0.64834 0.0
H848 H 0.24371 0.72282 0.5739 0.0
H849 H 0.25236 0.67394 0.53375 0.0
C850 C 0.24425 0.59075 0.54472 0.0
C851 C 0.23794 0.54747 0.55395 0.0
C852 C 0.2481 0.62313 0.56781 0.0
C853 C 0.24042 0.5386 0.58639 0.0
C854 C 0.24437 0.57074 0.6096 0.0
C855 C 0.24154 0.64061 0.62339 0.0
C856 C 0.23893 0.67974 0.61389 0.0
C857 C 0.24594 0.61207 0.60054 0.0
C858 C 0.24565 0.69285 0.58168 0.0
C859 C 0.25014 0.66466 0.55874 0.0
H860 H 0.71897 0.22162 0.75451 0.0
H861 H 0.64834 0.22402 0.66874 0.0
H862 H 0.59163 0.23349 0.70028 0.0
H863 H 0.55348 0.22522 0.75227 0.0
H864 H 0.62048 0.21572 0.83786 0.0
H865 H 0.68724 0.22586 0.80688 0.0
C866 C 0.69218 0.22602 0.74284 0.0
C867 C 0.68759 0.22203 0.70949 0.0
C868 C 0.6584 0.2294 0.76125 0.0
C869 C 0.65229 0.22689 0.6945 0.0
C870 C 0.61969 0.23202 0.71252 0.0
C871 C 0.58351 0.22714 0.76414 0.0
C872 C 0.58211 0.21952 0.79717 0.0
C873 C 0.62101 0.23099 0.74595 0.0
C874 C 0.62083 0.2213 0.81234 0.0
C875 C 0.65892 0.22684 0.79463 0.0
loop_
_geom_bond_atom_site_label_1
_geom_bond_atom_site_label_2
_geom_bond_distance
_geom_bond_site_symmetry_2
_ccdc_geom_bond_type
C0 C1 1.351 . S
C0 N3 1.368 . S
C0 H5 0.931 . S
C1 C0 1.351 . S
C1 N2 1.373 . S
C1 H29 0.930 . S
N2 C1 1.373 . S
N2 C4 1.340 . S
N3 C0 1.368 . S
N3 C4 1.321 . S
N3 Co6 2.135 1_554 S
C4 N2 1.340 . S
C4 N3 1.321 . S
C4 H28 0.930 . S
H5 C0 0.931 . S
Co6 N3 2.135 1_556 S
Co6 N9 2.121 . S
Co6 O14 2.055 . S
Co6 O17 2.039 . S
Co6 N20 2.140 1_556 S
C7 O8 1.227 . S
C7 O17 1.265 1_554 S
O8 C7 1.227 . S
N9 Co6 2.121 . S
N9 C11 1.375 . S
N9 C12 1.313 . S
C10 C11 1.338 . S
C10 N13 1.377 . S
C10 H30 0.930 . S
C11 N9 1.375 . S
C11 C10 1.338 . S
C11 H15 0.947 . S
C12 N9 1.313 . S
C12 N13 1.344 . S
C12 H16 0.930 . S
N13 C10 1.377 . S
N13 C12 1.344 . S
O14 Co6 2.055 . S
O14 C18 1.253 . S
H15 C11 0.947 . S
H16 C12 0.930 . S
O17 Co6 2.039 . S
O17 C7 1.265 1_556 S
C18 O14 1.253 . S
C18 O19 1.227 . S
O19 C18 1.227 . S
N20 Co6 2.140 1_554 S
N20 C23 1.346 . S
N20 C24 1.345 . S
C21 C22 1.387 . S
C21 C25 1.391 . S
C22 C21 1.387 . S
C22 C23 1.369 . S
C22 H31 0.929 . S
C23 N20 1.346 . S
C23 C22 1.369 . S
C23 H26 0.928 . S
C24 N20 1.345 . S
C24 C25 1.371 . S
C24 H27 0.931 . S
C25 C21 1.391 . S
C25 C24 1.371 . S
C25 H32 0.930 . S
H26 C23 0.928 . S
H27 C24 0.931 . S
H28 C4 0.930 . S
H29 C1 0.930 . S
H30 C10 0.930 . S
H31 C22 0.929 . S
H32 C25 0.930 . S
C33 C34 1.351 . S
C33 N36 1.368 . S
C33 H38 0.931 . S
C34 C33 1.351 . S
C34 N35 1.373 . S
C34 H62 0.930 . S
N35 C34 1.373 . S
N35 C37 1.340 . S
N36 C33 1.368 . S
N36 C37 1.321 . S
N36 Co39 2.135 . S
C37 N35 1.340 . S
C37 N36 1.321 . S
C37 H61 0.930 . S
H38 C33 0.931 . S
Co39 N36 2.135 . S
Co39 N42 2.121 . S
Co39 O47 2.055 . S
Co39 O50 2.039 . S
Co39 N53 2.140 . S
C40 O41 1.227 . S
C40 O50 1.265 . S
O41 C40 1.227 . S
N42 Co39 2.121 . S
N42 C44 1.375 . S
N42 C45 1.313 . S
C43 C44 1.338 . S
C43 N46 1.377 . S
C43 H63 0.930 . S
C44 N42 1.375 . S
C44 C43 1.338 . S
C44 H48 0.931 . S
C45 N42 1.313 . S
C45 N46 1.344 . S
C45 H49 0.930 . S
N46 C43 1.377 . S
N46 C45 1.344 . S
O47 Co39 2.055 . S
O47 C51 1.253 . S
H48 C44 0.931 . S
H49 C45 0.930 . S
O50 Co39 2.039 . S
O50 C40 1.265 . S
C51 O47 1.253 . S
C51 O52 1.227 . S
O52 C51 1.227 . S
N53 Co39 2.140 . S
N53 C56 1.346 . S
N53 C57 1.345 . S
C54 C55 1.387 . S
C54 C58 1.391 . S
C55 C54 1.387 . S
C55 C56 1.369 . S
C55 H64 0.929 . S
C56 N53 1.346 . S
C56 C55 1.369 . S
C56 H59 0.928 . S
C57 N53 1.345 . S
C57 C58 1.371 . S
C57 H60 0.931 . S
C58 C54 1.391 . S
C58 C57 1.371 . S
C58 H65 0.930 . S
H59 C56 0.928 . S
H60 C57 0.931 . S
H61 C37 0.930 . S
H62 C34 0.930 . S
H63 C43 0.930 . S
H64 C55 0.929 . S
H65 C58 0.930 . S
C66 C67 1.351 . S
C66 N69 1.368 . S
C66 H71 0.931 . S
C67 C66 1.351 . S
C67 N68 1.373 . S
C67 H95 0.930 . S
N68 C67 1.373 . S
N68 C70 1.340 . S
N69 C66 1.368 . S
N69 C70 1.321 . S
N69 Co72 2.135 . S
C70 N68 1.340 . S
C70 N69 1.321 . S
C70 H94 0.930 . S
H71 C66 0.931 . S
Co72 N69 2.135 . S
Co72 N75 2.121 . S
Co72 O80 2.055 . S
Co72 O83 2.039 . S
Co72 N86 2.140 . S
C73 O74 1.227 . S
C73 O83 1.265 . S
O74 C73 1.227 . S
N75 Co72 2.121 . S
N75 C77 1.375 . S
N75 C78 1.313 . S
C76 C77 1.338 . S
C76 N79 1.377 . S
C76 H96 0.930 . S
C77 N75 1.375 . S
C77 C76 1.338 . S
C77 H81 0.931 . S
C78 N75 1.313 . S
C78 N79 1.344 . S
C78 H82 0.930 . S
N79 C76 1.377 . S
N79 C78 1.344 . S
O80 Co72 2.055 . S
O80 C84 1.253 . S
H81 C77 0.931 . S
H82 C78 0.930 . S
O83 Co72 2.039 . S
O83 C73 1.265 . S
C84 O80 1.253 . S
C84 O85 1.227 . S
O85 C84 1.227 . S
N86 Co72 2.140 . S
N86 C89 1.346 . S
N86 C90 1.345 . S
C87 C88 1.387 . S
C87 C91 1.391 . S
C88 C87 1.387 . S
C88 C89 1.369 . S
C88 H97 0.929 . S
C89 N86 1.346 . S
C89 C88 1.369 . S
C89 H92 0.928 . S
C90 N86 1.345 . S
C90 C91 1.371 . S
C90 H93 0.931 . S
C91 C87 1.391 . S
C91 C90 1.371 . S
C91 H98 0.930 . S
H92 C89 0.928 . S
H93 C90 0.931 . S
H94 C70 0.930 . S
H95 C67 0.930 . S
H96 C76 0.930 . S
H97 C88 0.929 . S
H98 C91 0.930 . S
C99 C100 1.351 . S
C99 N102 1.368 . S
C99 H104 0.931 . S
C100 C99 1.351 . S
C100 N101 1.373 . S
C100 H128 0.930 . S
N101 C100 1.373 . S
N101 C103 1.340 . S
N102 C99 1.368 . S
N102 C103 1.321 . S
N102 Co105 2.135 . S
C103 N101 1.340 . S
C103 N102 1.321 . S
C103 H127 0.930 . S
H104 C99 0.931 . S
Co105 N102 2.135 . S
Co105 N108 2.121 . S
Co105 O113 2.055 . S
Co105 O116 2.039 . S
Co105 N119 2.140 . S
C106 O107 1.227 . S
C106 O116 1.265 . S
O107 C106 1.227 . S
N108 Co105 2.121 . S
N108 C110 1.375 . S
N108 C111 1.313 . S
C109 C110 1.338 . S
C109 N112 1.377 . S
C109 H129 0.930 . S
C110 N108 1.375 . S
C110 C109 1.338 . S
C110 H114 0.931 . S
C111 N108 1.313 . S
C111 N112 1.344 . S
C111 H115 0.930 . S
N112 C109 1.377 . S
N112 C111 1.344 . S
O113 Co105 2.055 . S
O113 C117 1.253 . S
H114 C110 0.931 . S
H115 C111 0.930 . S
O116 Co105 2.039 . S
O116 C106 1.265 . S
C117 O113 1.253 . S
C117 O118 1.227 . S
O118 C117 1.227 . S
N119 Co105 2.140 . S
N119 C122 1.346 . S
N119 C123 1.345 . S
C120 C121 1.387 . S
C120 C124 1.391 . S
C121 C120 1.387 . S
C121 C122 1.369 . S
C121 H130 0.929 . S
C122 N119 1.346 . S
C122 C121 1.369 . S
C122 H125 0.928 . S
C123 N119 1.345 . S
C123 C124 1.371 . S
C123 H126 0.931 . S
C124 C120 1.391 . S
C124 C123 1.371 . S
C124 H131 0.930 . S
H125 C122 0.928 . S
H126 C123 0.931 . S
H127 C103 0.930 . S
H128 C100 0.930 . S
H129 C109 0.930 . S
H130 C121 0.929 . S
H131 C124 0.930 . S
C132 C133 1.351 . S
C132 N135 1.368 . S
C132 H137 0.931 . S
C133 C132 1.351 . S
C133 N134 1.373 . S
C133 H161 0.930 . S
N134 C133 1.373 . S
N134 C136 1.340 . S
N135 C132 1.368 . S
N135 C136 1.321 . S
N135 Co138 2.135 . S
C136 N134 1.340 . S
C136 N135 1.321 . S
C136 H160 0.930 . S
H137 C132 0.931 . S
Co138 N135 2.135 . S
Co138 N141 2.121 . S
Co138 O146 2.055 . S
Co138 O149 2.039 . S
Co138 N152 2.140 . S
C139 O140 1.227 . S
C139 O149 1.265 . S
O140 C139 1.227 . S
N141 Co138 2.121 . S
N141 C143 1.375 . S
N141 C144 1.313 . S
C142 C143 1.338 . S
C142 N145 1.377 . S
C142 H162 0.930 . S
C143 N141 1.375 . S
C143 C142 1.338 . S
C143 H147 0.931 . S
C144 N141 1.313 . S
C144 N145 1.344 . S
C144 H148 0.930 . S
N145 C142 1.377 . S
N145 C144 1.344 . S
O146 Co138 2.055 . S
O146 C150 1.253 . S
H147 C143 0.931 . S
H148 C144 0.930 . S
O149 Co138 2.039 . S
O149 C139 1.265 . S
C150 O146 1.253 . S
C150 O151 1.227 . S
O151 C150 1.227 . S
N152 Co138 2.140 . S
N152 C155 1.346 . S
N152 C156 1.345 . S
C153 C154 1.387 . S
C153 C157 1.391 . S
C154 C153 1.387 . S
C154 C155 1.369 . S
C154 H163 0.929 . S
C155 N152 1.346 . S
C155 C154 1.369 . S
C155 H158 0.928 . S
C156 N152 1.345 . S
C156 C157 1.371 . S
C156 H159 0.931 . S
C157 C153 1.391 . S
C157 C156 1.371 . S
C157 H164 0.930 . S
H158 C155 0.928 . S
H159 C156 0.931 . S
H160 C136 0.930 . S
H161 C133 0.930 . S
H162 C142 0.930 . S
H163 C154 0.929 . S
H164 C157 0.930 . S
C165 C166 1.351 . S
C165 N168 1.368 . S
C165 H170 0.931 . S
C166 C165 1.351 . S
C166 N167 1.373 . S
C166 H194 0.930 . S
N167 C166 1.373 . S
N167 C169 1.340 . S
N168 C165 1.368 . S
N168 C169 1.321 . S
N168 Co171 2.135 . S
C169 N167 1.340 . S
C169 N168 1.321 . S
C169 H193 0.930 . S
H170 C165 0.931 . S
Co171 N168 2.135 . S
Co171 N174 2.121 . S
Co171 O179 2.055 . S
Co171 O182 2.039 . S
Co171 N185 2.140 . S
C172 O173 1.227 . S
C172 O182 1.265 . S
O173 C172 1.227 . S
N174 Co171 2.121 . S
N174 C176 1.375 . S
N174 C177 1.313 . S
C175 C176 1.338 . S
C175 N178 1.377 . S
C175 H195 0.930 . S
C176 N174 1.375 . S
C176 C175 1.338 . S
C176 H180 0.931 . S
C177 N174 1.313 . S
C177 N178 1.344 . S
C177 H181 0.930 . S
N178 C175 1.377 . S
N178 C177 1.344 . S
O179 Co171 2.055 . S
O179 C183 1.253 . S
H180 C176 0.931 . S
H181 C177 0.930 . S
O182 Co171 2.039 . S
O182 C172 1.265 . S
C183 O179 1.253 . S
C183 O184 1.227 . S
O184 C183 1.227 . S
N185 Co171 2.140 . S
N185 C188 1.346 . S
N185 C189 1.345 . S
C186 C187 1.387 . S
C186 C190 1.391 . S
C187 C186 1.387 . S
C187 C188 1.369 . S
C187 H196 0.929 . S
C188 N185 1.346 . S
C188 C187 1.369 . S
C188 H191 0.928 . S
C189 N185 1.345 . S
C189 C190 1.371 . S
C189 H192 0.931 . S
C190 C186 1.391 . S
C190 C189 1.371 . S
C190 H197 0.930 . S
H191 C188 0.928 . S
H192 C189 0.931 . S
H193 C169 0.930 . S
H194 C166 0.930 . S
H195 C175 0.930 . S
H196 C187 0.929 . S
H197 C190 0.930 . S
C198 C199 1.351 . S
C198 N201 1.368 . S
C198 H203 0.931 . S
C199 C198 1.351 . S
C199 N200 1.373 . S
C199 H227 0.930 . S
N200 C199 1.373 . S
N200 C202 1.340 . S
N201 C198 1.368 . S
N201 C202 1.321 . S
N201 Co204 2.135 . S
C202 N200 1.340 . S
C202 N201 1.321 . S
C202 H226 0.930 . S
H203 C198 0.931 . S
Co204 N201 2.135 . S
Co204 N207 2.121 . S
Co204 O212 2.055 . S
Co204 O215 2.039 . S
Co204 N218 2.140 . S
C205 O206 1.227 . S
C205 O215 1.265 . S
O206 C205 1.227 . S
N207 Co204 2.121 . S
N207 C209 1.375 . S
N207 C210 1.313 . S
C208 C209 1.338 . S
C208 N211 1.377 . S
C208 H228 0.930 . S
C209 N207 1.375 . S
C209 C208 1.338 . S
C209 H213 0.931 . S
C210 N207 1.313 . S
C210 N211 1.344 . S
C210 H214 0.930 . S
N211 C208 1.377 . S
N211 C210 1.344 . S
O212 Co204 2.055 . S
O212 C216 1.253 . S
H213 C209 0.931 . S
H214 C210 0.930 . S
O215 Co204 2.039 . S
O215 C205 1.265 . S
C216 O212 1.253 . S
C216 O217 1.227 . S
O217 C216 1.227 . S
N218 Co204 2.140 . S
N218 C221 1.346 . S
N218 C222 1.345 . S
C219 C220 1.387 . S
C219 C223 1.391 . S
C220 C219 1.387 . S
C220 C221 1.369 . S
C220 H229 0.929 . S
C221 N218 1.346 . S
C221 C220 1.369 . S
C221 H224 0.928 . S
C222 N218 1.345 . S
C222 C223 1.371 . S
C222 H225 0.931 . S
C223 C219 1.391 . S
C223 C222 1.371 . S
C223 H230 0.930 . S
H224 C221 0.928 . S
H225 C222 0.931 . S
H226 C202 0.930 . S
H227 C199 0.930 . S
H228 C208 0.930 . S
H229 C220 0.929 . S
H230 C223 0.930 . S
C231 C232 1.351 . S
C231 N234 1.368 . S
C231 H236 0.931 . S
C232 C231 1.351 . S
C232 N233 1.373 . S
C232 H260 0.930 . S
N233 C232 1.373 . S
N233 C235 1.340 . S
N234 C231 1.368 . S
N234 C235 1.321 . S
N234 Co237 2.135 1_556 S
C235 N233 1.340 . S
C235 N234 1.321 . S
C235 H259 0.930 . S
H236 C231 0.931 . S
Co237 N234 2.135 1_554 S
Co237 N240 2.121 . S
Co237 O245 2.055 . S
Co237 O248 2.039 . S
Co237 N251 2.140 1_554 S
C238 O239 1.227 . S
C238 O248 1.265 1_556 S
O239 C238 1.227 . S
N240 Co237 2.121 . S
N240 C242 1.375 . S
N240 C243 1.313 . S
C241 C242 1.338 . S
C241 N244 1.377 . S
C241 H261 0.930 . S
C242 N240 1.375 . S
C242 C241 1.338 . S
C242 H246 0.931 1_554 S
C243 N240 1.313 . S
C243 N244 1.344 . S
C243 H247 0.930 . S
N244 C241 1.377 . S
N244 C243 1.344 . S
O245 Co237 2.055 . S
O245 C249 1.253 . S
H246 C242 0.931 1_556 S
H247 C243 0.930 . S
O248 Co237 2.039 . S
O248 C238 1.265 1_554 S
C249 O245 1.253 . S
C249 O250 1.227 . S
O250 C249 1.227 . S
N251 Co237 2.140 1_556 S
N251 C254 1.346 . S
N251 C255 1.345 . S
C252 C253 1.387 . S
C252 C256 1.391 . S
C253 C252 1.387 . S
C253 C254 1.369 . S
C253 H262 0.929 . S
C254 N251 1.346 . S
C254 C253 1.369 . S
C254 H257 0.928 . S
C255 N251 1.345 . S
C255 C256 1.371 . S
C255 H258 0.931 . S
C256 C252 1.391 . S
C256 C255 1.371 . S
C256 H263 0.930 . S
H257 C254 0.928 . S
H258 C255 0.931 . S
H259 C235 0.930 . S
H260 C232 0.930 . S
H261 C241 0.930 . S
H262 C253 0.929 . S
H263 C256 0.930 . S
C264 C265 1.351 . S
C264 N267 1.368 . S
C264 H269 0.931 . S
C265 C264 1.351 . S
C265 N266 1.373 . S
C265 H293 0.930 . S
N266 C265 1.373 . S
N266 C268 1.340 . S
N267 C264 1.368 . S
N267 C268 1.321 . S
N267 Co270 2.135 . S
C268 N266 1.340 . S
C268 N267 1.321 . S
C268 H292 0.930 . S
H269 C264 0.931 . S
Co270 N267 2.135 . S
Co270 N273 2.121 . S
Co270 O278 2.055 . S
Co270 O281 2.039 . S
Co270 N284 2.140 . S
C271 O272 1.227 . S
C271 O281 1.265 . S
O272 C271 1.227 . S
N273 Co270 2.121 . S
N273 C275 1.375 . S
N273 C276 1.313 . S
C274 C275 1.338 . S
C274 N277 1.377 . S
C274 H294 0.930 . S
C275 N273 1.375 . S
C275 C274 1.338 . S
C275 H279 0.931 . S
C276 N273 1.313 . S
C276 N277 1.344 . S
C276 H280 0.930 . S
N277 C274 1.377 . S
N277 C276 1.344 . S
O278 Co270 2.055 . S
O278 C282 1.253 . S
H279 C275 0.931 . S
H280 C276 0.930 . S
O281 Co270 2.039 . S
O281 C271 1.265 . S
C282 O278 1.253 . S
C282 O283 1.227 . S
O283 C282 1.227 . S
N284 Co270 2.140 . S
N284 C287 1.346 . S
N284 C288 1.345 . S
C285 C286 1.387 . S
C285 C289 1.391 . S
C286 C285 1.387 . S
C286 C287 1.369 . S
C286 H295 0.929 . S
C287 N284 1.346 . S
C287 C286 1.369 . S
C287 H290 0.928 . S
C288 N284 1.345 . S
C288 C289 1.371 . S
C288 H291 0.931 . S
C289 C285 1.391 . S
C289 C288 1.371 . S
C289 H296 0.930 . S
H290 C287 0.928 . S
H291 C288 0.931 . S
H292 C268 0.930 . S
H293 C265 0.930 . S
H294 C274 0.930 . S
H295 C286 0.929 . S
H296 C289 0.930 . S
C297 C298 1.351 . S
C297 N300 1.368 . S
C297 H302 0.931 . S
C298 C297 1.351 . S
C298 N299 1.373 . S
C298 H326 0.930 . S
N299 C298 1.373 . S
N299 C301 1.340 . S
N300 C297 1.368 . S
N300 C301 1.321 . S
N300 Co303 2.135 . S
C301 N299 1.340 . S
C301 N300 1.321 . S
C301 H325 0.930 . S
H302 C297 0.931 . S
Co303 N300 2.135 . S
Co303 N306 2.121 . S
Co303 O311 2.055 . S
Co303 O314 2.039 . S
Co303 N317 2.140 . S
C304 O305 1.227 . S
C304 O314 1.265 . S
O305 C304 1.227 . S
N306 Co303 2.121 . S
N306 C308 1.375 . S
N306 C309 1.313 . S
C307 C308 1.338 . S
C307 N310 1.377 . S
C307 H327 0.930 . S
C308 N306 1.375 . S
C308 C307 1.338 . S
C308 H312 0.931 . S
C309 N306 1.313 . S
C309 N310 1.344 . S
C309 H313 0.930 . S
N310 C307 1.377 . S
N310 C309 1.344 . S
O311 Co303 2.055 . S
O311 C315 1.253 . S
H312 C308 0.931 . S
H313 C309 0.930 . S
O314 Co303 2.039 . S
O314 C304 1.265 . S
C315 O311 1.253 . S
C315 O316 1.227 . S
O316 C315 1.227 . S
N317 Co303 2.140 . S
N317 C320 1.346 . S
N317 C321 1.345 . S
C318 C319 1.387 . S
C318 C322 1.391 . S
C319 C318 1.387 . S
C319 C320 1.369 . S
C319 H328 0.929 . S
C320 N317 1.346 . S
C320 C319 1.369 . S
C320 H323 0.928 . S
C321 N317 1.345 . S
C321 C322 1.371 . S
C321 H324 0.931 . S
C322 C318 1.391 . S
C322 C321 1.371 . S
C322 H329 0.930 . S
H323 C320 0.928 . S
H324 C321 0.931 . S
H325 C301 0.930 . S
H326 C298 0.930 . S
H327 C307 0.930 . S
H328 C319 0.929 . S
H329 C322 0.930 . S
C330 C331 1.351 . S
C330 N333 1.368 . S
C330 H335 0.931 . S
C331 C330 1.351 . S
C331 N332 1.373 . S
C331 H359 0.930 . S
N332 C331 1.373 . S
N332 C334 1.340 . S
N333 C330 1.368 . S
N333 C334 1.321 . S
N333 Co336 2.135 . S
C334 N332 1.340 . S
C334 N333 1.321 . S
C334 H358 0.930 . S
H335 C330 0.931 . S
Co336 N333 2.135 . S
Co336 N339 2.121 . S
Co336 O344 2.055 . S
Co336 O347 2.039 . S
Co336 N350 2.140 . S
C337 O338 1.227 . S
C337 O347 1.265 . S
O338 C337 1.227 . S
N339 Co336 2.121 . S
N339 C341 1.375 . S
N339 C342 1.313 . S
C340 C341 1.338 . S
C340 N343 1.377 . S
C340 H360 0.930 . S
C341 N339 1.375 . S
C341 C340 1.338 . S
C341 H345 0.931 . S
C342 N339 1.313 . S
C342 N343 1.344 . S
C342 H346 0.930 . S
N343 C340 1.377 . S
N343 C342 1.344 . S
O344 Co336 2.055 . S
O344 C348 1.253 . S
H345 C341 0.931 . S
H346 C342 0.930 . S
O347 Co336 2.039 . S
O347 C337 1.265 . S
C348 O344 1.253 . S
C348 O349 1.227 . S
O349 C348 1.227 . S
N350 Co336 2.140 . S
N350 C353 1.346 . S
N350 C354 1.345 . S
C351 C352 1.387 . S
C351 C355 1.391 . S
C352 C351 1.387 . S
C352 C353 1.369 . S
C352 H361 0.929 . S
C353 N350 1.346 . S
C353 C352 1.369 . S
C353 H356 0.928 . S
C354 N350 1.345 . S
C354 C355 1.371 . S
C354 H357 0.931 . S
C355 C351 1.391 . S
C355 C354 1.371 . S
C355 H362 0.930 . S
H356 C353 0.928 . S
H357 C354 0.931 . S
H358 C334 0.930 . S
H359 C331 0.930 . S
H360 C340 0.930 . S
H361 C352 0.929 . S
H362 C355 0.930 . S
C363 C364 1.351 . S
C363 N366 1.368 . S
C363 H368 0.931 . S
C364 C363 1.351 . S
C364 N365 1.373 . S
C364 H392 0.930 . S
N365 C364 1.373 . S
N365 C367 1.340 . S
N366 C363 1.368 . S
N366 C367 1.321 . S
N366 Co369 2.135 . S
C367 N365 1.340 . S
C367 N366 1.321 . S
C367 H391 0.930 . S
H368 C363 0.931 . S
Co369 N366 2.135 . S
Co369 N372 2.121 . S
Co369 O377 2.055 . S
Co369 O380 2.039 . S
Co369 N383 2.140 . S
C370 O371 1.227 . S
C370 O380 1.265 . S
O371 C370 1.227 . S
N372 Co369 2.121 . S
N372 C374 1.375 . S
N372 C375 1.313 . S
C373 C374 1.338 . S
C373 N376 1.377 . S
C373 H393 0.930 . S
C374 N372 1.375 . S
C374 C373 1.338 . S
C374 H378 0.931 . S
C375 N372 1.313 . S
C375 N376 1.344 . S
C375 H379 0.930 . S
N376 C373 1.377 . S
N376 C375 1.344 . S
O377 Co369 2.055 . S
O377 C381 1.253 . S
H378 C374 0.931 . S
H379 C375 0.930 . S
O380 Co369 2.039 . S
O380 C370 1.265 . S
C381 O377 1.253 . S
C381 O382 1.227 . S
O382 C381 1.227 . S
N383 Co369 2.140 . S
N383 C386 1.346 . S
N383 C387 1.345 . S
C384 C385 1.387 . S
C384 C388 1.391 . S
C385 C384 1.387 . S
C385 C386 1.369 . S
C385 H394 0.929 . S
C386 N383 1.346 . S
C386 C385 1.369 . S
C386 H389 0.928 . S
C387 N383 1.345 . S
C387 C388 1.371 . S
C387 H390 0.931 . S
C388 C384 1.391 . S
C388 C387 1.371 . S
C388 H395 0.930 . S
H389 C386 0.928 . S
H390 C387 0.931 . S
H391 C367 0.930 . S
H392 C364 0.930 . S
H393 C373 0.930 . S
H394 C385 0.929 . S
H395 C388 0.930 . S
H396 C402 0.930 . S
H397 C405 0.930 . S
H398 C406 0.930 . S
H399 C407 0.930 . S
H400 C410 0.930 . S
H401 C411 0.930 . S
C402 H396 0.930 . S
C402 C403 1.355 . S
C402 C404 1.415 . S
C403 C402 1.355 . S
C403 C405 1.419 . S
C404 C402 1.415 . S
C404 C409 1.425 . S
C404 C411 1.409 . S
C405 H397 0.930 . S
C405 C403 1.419 . S
C405 C406 1.362 . S
C406 H398 0.930 . S
C406 C405 1.362 . S
C406 C409 1.409 . S
C407 H399 0.930 . S
C407 C408 1.355 . S
C407 C409 1.415 . S
C408 C407 1.355 . S
C408 C410 1.419 . S
C409 C404 1.425 . S
C409 C406 1.409 . S
C409 C407 1.415 . S
C410 H400 0.930 . S
C410 C408 1.419 . S
C410 C411 1.362 . S
C411 H401 0.930 . S
C411 C404 1.409 . S
C411 C410 1.362 . S
H412 C418 0.930 . S
H413 C421 0.930 . S
H414 C422 0.930 . S
H415 C423 0.930 . S
H416 C426 0.930 . S
H417 C427 0.930 . S
C418 H412 0.930 . S
C418 C419 1.355 . S
C418 C420 1.415 . S
C419 C418 1.355 . S
C419 C421 1.419 . S
C420 C418 1.415 . S
C420 C425 1.425 . S
C420 C427 1.409 . S
C421 H413 0.930 . S
C421 C419 1.419 . S
C421 C422 1.362 . S
C422 H414 0.930 . S
C422 C421 1.362 . S
C422 C425 1.409 . S
C423 H415 0.930 . S
C423 C424 1.355 1_455 S
C423 C425 1.415 . S
C424 C423 1.355 1_655 S
C424 C426 1.419 . S
C425 C420 1.425 . S
C425 C422 1.409 . S
C425 C423 1.415 . S
C426 H416 0.930 . S
C426 C424 1.419 . S
C426 C427 1.362 1_655 S
C427 H417 0.930 . S
C427 C420 1.409 . S
C427 C426 1.362 1_455 S
H428 C434 0.930 . S
H429 C437 0.930 . S
H430 C438 0.930 . S
H431 C439 0.930 . S
H432 C442 0.930 . S
H433 C443 0.930 . S
C434 H428 0.930 . S
C434 C435 1.355 . S
C434 C436 1.415 . S
C435 C434 1.355 . S
C435 C437 1.419 . S
C436 C434 1.415 . S
C436 C441 1.425 . S
C436 C443 1.409 . S
C437 H429 0.930 . S
C437 C435 1.419 . S
C437 C438 1.362 . S
C438 H430 0.930 . S
C438 C437 1.362 . S
C438 C441 1.409 . S
C439 H431 0.930 . S
C439 C440 1.355 . S
C439 C441 1.415 1_565 S
C440 C439 1.355 . S
C440 C442 1.419 1_565 S
C441 C436 1.425 . S
C441 C438 1.409 . S
C441 C439 1.415 1_545 S
C442 H432 0.930 . S
C442 C440 1.419 1_545 S
C442 C443 1.362 . S
C443 H433 0.930 . S
C443 C436 1.409 . S
C443 C442 1.362 . S
H444 C450 0.930 . S
H445 C453 0.930 . S
H446 C454 0.930 . S
H447 C455 0.930 . S
H448 C458 0.930 . S
H449 C459 0.930 . S
C450 H444 0.930 . S
C450 C451 1.355 . S
C450 C452 1.415 . S
C451 C450 1.355 . S
C451 C453 1.419 . S
C452 C450 1.415 . S
C452 C457 1.425 . S
C452 C459 1.409 . S
C453 H445 0.930 . S
C453 C451 1.419 . S
C453 C454 1.362 . S
C454 H446 0.930 . S
C454 C453 1.362 . S
C454 C457 1.409 . S
C455 H447 0.930 . S
C455 C456 1.355 . S
C455 C457 1.415 . S
C456 C455 1.355 . S
C456 C458 1.419 . S
C457 C452 1.425 . S
C457 C454 1.409 . S
C457 C455 1.415 . S
C458 H448 0.930 . S
C458 C456 1.419 . S
C458 C459 1.362 . S
C459 H449 0.930 . S
C459 C452 1.409 . S
C459 C458 1.362 . S
H460 C466 0.913 1_455 S
H461 C469 0.930 . S
H462 C470 0.930 . S
H463 C471 0.930 . S
H464 C474 0.930 . S
H465 C475 0.930 . S
C466 H460 0.913 1_655 S
C466 C467 1.356 1_655 S
C466 C468 1.430 . S
C467 C466 1.356 1_455 S
C467 C469 1.419 1_455 S
C468 C466 1.430 . S
C468 C473 1.425 . S
C468 C475 1.409 . S
C469 H461 0.930 . S
C469 C467 1.419 1_655 S
C469 C470 1.362 . S
C470 H462 0.930 . S
C470 C469 1.362 . S
C470 C473 1.409 . S
C471 H463 0.930 . S
C471 C472 1.355 . S
C471 C473 1.415 . S
C472 C471 1.355 . S
C472 C474 1.419 . S
C473 C468 1.425 . S
C473 C470 1.409 . S
C473 C471 1.415 . S
C474 H464 0.930 . S
C474 C472 1.419 . S
C474 C475 1.362 . S
C475 H465 0.930 . S
C475 C468 1.409 . S
C475 C474 1.362 . S
H476 C482 0.930 . S
H477 C485 0.930 . S
H478 C486 0.930 . S
H479 C487 0.930 . S
H480 C490 0.930 . S
H481 C491 0.930 . S
C482 H476 0.930 . S
C482 C483 1.355 . S
C482 C484 1.415 . S
C483 C482 1.355 . S
C483 C485 1.419 . S
C484 C482 1.415 . S
C484 C489 1.425 . S
C484 C491 1.409 . S
C485 H477 0.930 . S
C485 C483 1.419 . S
C485 C486 1.362 . S
C486 H478 0.930 . S
C486 C485 1.362 . S
C486 C489 1.409 . S
C487 H479 0.930 . S
C487 C488 1.355 1_565 S
C487 C489 1.415 . S
C488 C487 1.355 1_545 S
C488 C490 1.419 . S
C489 C484 1.425 . S
C489 C486 1.409 . S
C489 C487 1.415 . S
C490 H480 0.930 . S
C490 C488 1.419 . S
C490 C491 1.362 1_545 S
C491 H481 0.930 . S
C491 C484 1.409 . S
C491 C490 1.362 1_565 S
H492 C498 0.930 . S
H493 C501 0.911 1_554 S
H494 C502 0.930 . S
H495 C503 0.930 . S
H496 C506 0.930 . S
H497 C507 0.930 . S
C498 H492 0.930 . S
C498 C499 1.355 . S
C498 C500 1.415 . S
C499 C498 1.355 . S
C499 C501 1.419 . S
C500 C498 1.415 . S
C500 C505 1.425 . S
C500 C507 1.409 . S
C501 H493 0.911 1_556 S
C501 C499 1.419 . S
C501 C502 1.362 . S
C502 H494 0.930 . S
C502 C501 1.362 . S
C502 C505 1.409 . S
C503 H495 0.930 . S
C503 C504 1.355 . S
C503 C505 1.415 . S
C504 C503 1.355 . S
C504 C506 1.419 . S
C505 C500 1.425 . S
C505 C502 1.409 . S
C505 C503 1.415 . S
C506 H496 0.930 . S
C506 C504 1.419 . S
C506 C507 1.362 . S
C507 H497 0.930 . S
C507 C500 1.409 . S
C507 C506 1.362 . S
H508 C514 0.930 . S
H509 C517 0.930 . S
H510 C518 0.930 . S
H511 C519 0.930 . S
H512 C522 0.930 . S
H513 C523 0.930 . S
C514 H508 0.930 . S
C514 C515 1.355 . S
C514 C516 1.415 . S
C515 C514 1.355 . S
C515 C517 1.419 . S
C516 C514 1.415 . S
C516 C521 1.425 . S
C516 C523 1.409 . S
C517 H509 0.930 . S
C517 C515 1.419 . S
C517 C518 1.362 . S
C518 H510 0.930 . S
C518 C517 1.362 . S
C518 C521 1.409 . S
C519 H511 0.930 . S
C519 C520 1.355 . S
C519 C521 1.415 1_655 S
C520 C519 1.355 . S
C520 C522 1.419 1_655 S
C521 C516 1.425 . S
C521 C518 1.409 . S
C521 C519 1.415 1_455 S
C522 H512 0.930 . S
C522 C520 1.419 1_455 S
C522 C523 1.362 . S
C523 H513 0.930 . S
C523 C516 1.409 . S
C523 C522 1.362 . S
H524 C530 0.930 . S
H525 C533 0.930 . S
H526 C534 0.930 . S
H527 C535 0.930 . S
H528 C538 0.930 . S
H529 C539 0.930 . S
C530 H524 0.930 . S
C530 C531 1.355 . S
C530 C532 1.415 . S
C531 C530 1.355 . S
C531 C533 1.419 . S
C532 C530 1.415 . S
C532 C537 1.425 . S
C532 C539 1.409 . S
C533 H525 0.930 . S
C533 C531 1.419 . S
C533 C534 1.362 . S
C534 H526 0.930 . S
C534 C533 1.362 . S
C534 C537 1.409 . S
C535 H527 0.930 . S
C535 C536 1.355 1_545 S
C535 C537 1.415 . S
C536 C535 1.355 1_565 S
C536 C538 1.419 . S
C537 C532 1.425 . S
C537 C534 1.409 . S
C537 C535 1.415 . S
C538 H528 0.930 . S
C538 C536 1.419 . S
C538 C539 1.362 1_565 S
C539 H529 0.930 . S
C539 C532 1.409 . S
C539 C538 1.362 1_545 S
H540 C546 0.930 . S
H541 C549 0.930 . S
H542 C550 0.930 . S
H543 C551 0.930 . S
H544 C554 0.930 . S
H545 C555 0.930 . S
C546 H540 0.930 . S
C546 C547 1.355 . S
C546 C548 1.415 . S
C547 C546 1.355 . S
C547 C549 1.419 . S
C548 C546 1.415 . S
C548 C553 1.425 . S
C548 C555 1.409 . S
C549 H541 0.930 . S
C549 C547 1.419 . S
C549 C550 1.362 . S
C550 H542 0.930 . S
C550 C549 1.362 . S
C550 C553 1.409 . S
C551 H543 0.930 . S
C551 C552 1.355 . S
C551 C553 1.415 . S
C552 C551 1.355 . S
C552 C554 1.419 . S
C553 C548 1.425 . S
C553 C550 1.409 . S
C553 C551 1.415 . S
C554 H544 0.930 . S
C554 C552 1.419 . S
C554 C555 1.362 . S
C555 H545 0.930 . S
C555 C548 1.409 . S
C555 C554 1.362 . S
H556 C562 0.930 . S
H557 C565 0.930 . S
H558 C566 0.930 . S
H559 C567 0.930 1_455 S
H560 C570 0.930 . S
H561 C571 0.930 . S
C562 H556 0.930 . S
C562 C563 1.355 . S
C562 C564 1.415 . S
C563 C562 1.355 . S
C563 C565 1.419 . S
C564 C562 1.415 . S
C564 C569 1.425 . S
C564 C571 1.409 . S
C565 H557 0.930 . S
C565 C563 1.419 . S
C565 C566 1.362 . S
C566 H558 0.930 . S
C566 C565 1.362 . S
C566 C569 1.409 . S
C567 H559 0.930 1_655 S
C567 C568 1.355 1_655 S
C567 C569 1.415 . S
C568 C567 1.355 1_455 S
C568 C570 1.419 1_455 S
C569 C564 1.425 . S
C569 C566 1.409 . S
C569 C567 1.415 . S
C570 H560 0.930 . S
C570 C568 1.419 1_655 S
C570 C571 1.362 . S
C571 H561 0.930 . S
C571 C564 1.409 . S
C571 C570 1.362 . S
H572 C578 0.930 . S
H573 C581 0.930 . S
H574 C582 0.930 . S
H575 C583 0.930 . S
H576 C586 0.930 . S
H577 C587 0.930 . S
C578 H572 0.930 . S
C578 C579 1.355 . S
C578 C580 1.415 . S
C579 C578 1.355 . S
C579 C581 1.419 . S
C580 C578 1.415 . S
C580 C585 1.425 . S
C580 C587 1.409 . S
C581 H573 0.930 . S
C581 C579 1.419 . S
C581 C582 1.362 . S
C582 H574 0.930 . S
C582 C581 1.362 . S
C582 C585 1.409 . S
C583 H575 0.930 . S
C583 C584 1.355 1_565 S
C583 C585 1.415 . S
C584 C583 1.355 1_545 S
C584 C586 1.419 . S
C585 C580 1.425 . S
C585 C582 1.409 . S
C585 C583 1.415 . S
C586 H576 0.930 . S
C586 C584 1.419 . S
C586 C587 1.362 1_545 S
C587 H577 0.930 . S
C587 C580 1.409 . S
C587 C586 1.362 1_565 S
H588 C594 0.930 . S
H589 C597 0.930 . S
H590 C598 0.930 . S
H591 C599 0.930 . S
H592 C602 0.930 . S
H593 C603 0.930 . S
C594 H588 0.930 . S
C594 C595 1.355 . S
C594 C596 1.415 . S
C595 C594 1.355 . S
C595 C597 1.419 . S
C596 C594 1.415 . S
C596 C601 1.425 . S
C596 C603 1.409 . S
C597 H589 0.930 . S
C597 C595 1.419 . S
C597 C598 1.362 . S
C598 H590 0.930 . S
C598 C597 1.362 . S
C598 C601 1.409 . S
C599 H591 0.930 . S
C599 C600 1.355 . S
C599 C601 1.415 . S
C600 C599 1.355 . S
C600 C602 1.419 . S
C601 C596 1.425 . S
C601 C598 1.409 . S
C601 C599 1.415 . S
C602 H592 0.930 . S
C602 C600 1.419 . S
C602 C603 1.362 . S
C603 H593 0.930 . S
C603 C596 1.409 . S
C603 C602 1.362 . S
H604 C610 0.930 . S
H605 C613 0.930 . S
H606 C614 0.930 . S
H607 C615 0.930 . S
H608 C618 0.930 . S
H609 C619 0.930 . S
C610 H604 0.930 . S
C610 C611 1.355 . S
C610 C612 1.415 . S
C611 C610 1.355 . S
C611 C613 1.419 . S
C612 C610 1.415 . S
C612 C617 1.425 . S
C612 C619 1.409 . S
C613 H605 0.930 . S
C613 C611 1.419 . S
C613 C614 1.362 . S
C614 H606 0.930 . S
C614 C613 1.362 . S
C614 C617 1.409 . S
C615 H607 0.930 . S
C615 C616 1.355 . S
C615 C617 1.415 . S
C616 C615 1.355 . S
C616 C618 1.419 . S
C617 C612 1.425 . S
C617 C614 1.409 . S
C617 C615 1.415 . S
C618 H608 0.930 . S
C618 C616 1.419 . S
C618 C619 1.362 . S
C619 H609 0.930 . S
C619 C612 1.409 . S
C619 C618 1.362 . S
H620 C626 0.930 . S
H621 C629 0.930 . S
H622 C630 0.930 . S
H623 C631 0.930 . S
H624 C634 0.930 . S
H625 C635 0.930 . S
C626 H620 0.930 . S
C626 C627 1.355 . S
C626 C628 1.415 . S
C627 C626 1.355 . S
C627 C629 1.419 . S
C628 C626 1.415 . S
C628 C633 1.425 . S
C628 C635 1.409 . S
C629 H621 0.930 . S
C629 C627 1.419 . S
C629 C630 1.362 . S
C630 H622 0.930 . S
C630 C629 1.362 . S
C630 C633 1.409 . S
C631 H623 0.930 . S
C631 C632 1.355 . S
C631 C633 1.415 . S
C632 C631 1.355 . S
C632 C634 1.419 . S
C633 C628 1.425 . S
C633 C630 1.409 . S
C633 C631 1.415 . S
C634 H624 0.930 . S
C634 C632 1.419 . S
C634 C635 1.362 . S
C635 H625 0.930 . S
C635 C628 1.409 . S
C635 C634 1.362 . S
H636 C642 0.930 . S
H637 C645 0.930 . S
H638 C646 0.930 . S
H639 C647 0.930 . S
H640 C650 0.930 . S
H641 C651 0.930 . S
C642 H636 0.930 . S
C642 C643 1.355 . S
C642 C644 1.415 . S
C643 C642 1.355 . S
C643 C645 1.419 . S
C644 C642 1.415 . S
C644 C649 1.425 . S
C644 C651 1.409 . S
C645 H637 0.930 . S
C645 C643 1.419 . S
C645 C646 1.362 . S
C646 H638 0.930 . S
C646 C645 1.362 . S
C646 C649 1.409 . S
C647 H639 0.930 . S
C647 C648 1.355 . S
C647 C649 1.415 . S
C648 C647 1.355 . S
C648 C650 1.419 . S
C649 C644 1.425 . S
C649 C646 1.409 . S
C649 C647 1.415 . S
C650 H640 0.930 . S
C650 C648 1.419 . S
C650 C651 1.362 . S
C651 H641 0.930 . S
C651 C644 1.409 . S
C651 C650 1.362 . S
H652 C658 0.930 . S
H653 C661 0.930 . S
H654 C662 0.930 . S
H655 C663 0.930 . S
H656 C666 0.930 . S
H657 C667 0.930 . S
C658 H652 0.930 . S
C658 C659 1.355 . S
C658 C660 1.415 . S
C659 C658 1.355 . S
C659 C661 1.419 . S
C660 C658 1.415 . S
C660 C665 1.425 . S
C660 C667 1.409 . S
C661 H653 0.930 . S
C661 C659 1.419 . S
C661 C662 1.362 . S
C662 H654 0.930 . S
C662 C661 1.362 . S
C662 C665 1.409 . S
C663 H655 0.930 . S
C663 C664 1.355 . S
C663 C665 1.415 . S
C664 C663 1.355 . S
C664 C666 1.419 . S
C665 C660 1.425 . S
C665 C662 1.409 . S
C665 C663 1.415 . S
C666 H656 0.930 . S
C666 C664 1.419 . S
C666 C667 1.362 . S
C667 H657 0.930 . S
C667 C660 1.409 . S
C667 C666 1.362 . S
H668 C674 0.930 . S
H669 C677 0.930 . S
H670 C678 0.930 . S
H671 C679 0.930 . S
H672 C682 0.930 . S
H673 C683 0.930 . S
C674 H668 0.930 . S
C674 C675 1.355 . S
C674 C676 1.415 . S
C675 C674 1.355 . S
C675 C677 1.419 . S
C676 C674 1.415 . S
C676 C681 1.425 . S
C676 C683 1.409 . S
C677 H669 0.930 . S
C677 C675 1.419 . S
C677 C678 1.362 . S
C678 H670 0.930 . S
C678 C677 1.362 . S
C678 C681 1.409 . S
C679 H671 0.930 . S
C679 C680 1.355 . S
C679 C681 1.415 . S
C680 C679 1.355 . S
C680 C682 1.419 . S
C681 C676 1.425 . S
C681 C678 1.409 . S
C681 C679 1.415 . S
C682 H672 0.930 . S
C682 C680 1.419 . S
C682 C683 1.362 . S
C683 H673 0.930 . S
C683 C676 1.409 . S
C683 C682 1.362 . S
H684 C690 0.930 . S
H685 C693 0.930 . S
H686 C694 0.930 . S
H687 C695 0.930 . S
H688 C698 0.930 . S
H689 C699 0.930 . S
C690 H684 0.930 . S
C690 C691 1.355 . S
C690 C692 1.415 . S
C691 C690 1.355 . S
C691 C693 1.419 . S
C692 C690 1.415 . S
C692 C697 1.425 . S
C692 C699 1.409 . S
C693 H685 0.930 . S
C693 C691 1.419 . S
C693 C694 1.362 . S
C694 H686 0.930 . S
C694 C693 1.362 . S
C694 C697 1.409 . S
C695 H687 0.930 . S
C695 C696 1.355 . S
C695 C697 1.415 . S
C696 C695 1.355 . S
C696 C698 1.419 . S
C697 C692 1.425 . S
C697 C694 1.409 . S
C697 C695 1.415 . S
C698 H688 0.930 . S
C698 C696 1.419 . S
C698 C699 1.362 . S
C699 H689 0.930 . S
C699 C692 1.409 . S
C699 C698 1.362 . S
H700 C706 0.930 . S
H701 C709 0.930 . S
H702 C710 0.930 1_655 S
H703 C711 0.930 . S
H704 C714 0.930 . S
H705 C715 0.930 1_455 S
C706 H700 0.930 . S
C706 C707 1.355 . S
C706 C708 1.415 . S
C707 C706 1.355 . S
C707 C709 1.419 . S
C708 C706 1.415 . S
C708 C713 1.425 1_455 S
C708 C715 1.409 1_455 S
C709 H701 0.930 . S
C709 C707 1.419 . S
C709 C710 1.362 . S
C710 H702 0.930 1_455 S
C710 C709 1.362 . S
C710 C713 1.409 1_455 S
C711 H703 0.930 . S
C711 C712 1.355 . S
C711 C713 1.415 . S
C712 C711 1.355 . S
C712 C714 1.419 . S
C713 C708 1.425 1_655 S
C713 C710 1.409 1_655 S
C713 C711 1.415 . S
C714 H704 0.930 . S
C714 C712 1.419 . S
C714 C715 1.362 . S
C715 H705 0.930 1_655 S
C715 C708 1.409 1_655 S
C715 C714 1.362 . S
H716 C722 0.930 . S
H717 C725 0.930 . S
H718 C726 0.930 . S
H719 C727 0.930 . S
H720 C730 0.930 . S
H721 C731 0.930 . S
C722 H716 0.930 . S
C722 C723 1.355 . S
C722 C724 1.415 1_565 S
C723 C722 1.355 . S
C723 C725 1.419 . S
C724 C722 1.415 1_545 S
C724 C729 1.425 1_545 S
C724 C731 1.409 . S
C725 H717 0.930 . S
C725 C723 1.419 . S
C725 C726 1.362 . S
C726 H718 0.930 . S
C726 C725 1.362 . S
C726 C729 1.409 . S
C727 H719 0.930 . S
C727 C728 1.355 . S
C727 C729 1.415 1_545 S
C728 C727 1.355 . S
C728 C730 1.419 . S
C729 C724 1.425 1_565 S
C729 C726 1.409 . S
C729 C727 1.415 1_565 S
C730 H720 0.930 . S
C730 C728 1.419 . S
C730 C731 1.362 . S
C731 H721 0.930 . S
C731 C724 1.409 . S
C731 C730 1.362 . S
H732 C738 0.930 . S
H733 C741 0.930 . S
H734 C742 0.930 . S
H735 C743 0.930 . S
H736 C746 0.930 . S
H737 C747 0.930 . S
C738 H732 0.930 . S
C738 C739 1.355 . S
C738 C740 1.415 . S
C739 C738 1.355 . S
C739 C741 1.419 . S
C740 C738 1.415 . S
C740 C745 1.425 . S
C740 C747 1.409 . S
C741 H733 0.930 . S
C741 C739 1.419 . S
C741 C742 1.362 . S
C742 H734 0.930 . S
C742 C741 1.362 . S
C742 C745 1.409 . S
C743 H735 0.930 . S
C743 C744 1.355 . S
C743 C745 1.415 . S
C744 C743 1.355 . S
C744 C746 1.419 . S
C745 C740 1.425 . S
C745 C742 1.409 . S
C745 C743 1.415 . S
C746 H736 0.930 . S
C746 C744 1.419 . S
C746 C747 1.362 . S
C747 H737 0.930 . S
C747 C740 1.409 . S
C747 C746 1.362 . S
H748 C754 0.930 . S
H749 C757 0.930 . S
H750 C758 0.930 . S
H751 C759 0.930 . S
H752 C762 0.930 . S
H753 C763 0.930 . S
C754 H748 0.930 . S
C754 C755 1.355 . S
C754 C756 1.415 . S
C755 C754 1.355 . S
C755 C757 1.419 1_455 S
C756 C754 1.415 . S
C756 C761 1.425 1_455 S
C756 C763 1.409 . S
C757 H749 0.930 . S
C757 C755 1.419 1_655 S
C757 C758 1.362 . S
C758 H750 0.930 . S
C758 C757 1.362 . S
C758 C761 1.409 . S
C759 H751 0.930 . S
C759 C760 1.355 . S
C759 C761 1.415 . S
C760 C759 1.355 . S
C760 C762 1.419 1_655 S
C761 C756 1.425 1_655 S
C761 C758 1.409 . S
C761 C759 1.415 . S
C762 H752 0.930 . S
C762 C760 1.419 1_455 S
C762 C763 1.362 . S
C763 H753 0.930 . S
C763 C756 1.409 . S
C763 C762 1.362 . S
H764 C770 0.930 . S
H765 C773 0.930 . S
H766 C774 0.930 1_556 S
H767 C775 0.930 . S
H768 C778 0.930 . S
H769 C779 0.930 . S
C770 H764 0.930 . S
C770 C771 1.355 . S
C770 C772 1.405 1_565 S
C771 C770 1.355 . S
C771 C773 1.419 . S
C772 C770 1.405 1_545 S
C772 C777 1.444 1_544 S
C772 C779 1.410 1_554 S
C773 H765 0.930 . S
C773 C771 1.419 . S
C773 C774 1.362 . S
C774 H766 0.930 1_554 S
C774 C773 1.362 . S
C774 C777 1.410 1_554 S
C775 H767 0.930 . S
C775 C776 1.355 . S
C775 C777 1.405 1_545 S
C776 C775 1.355 . S
C776 C778 1.419 . S
C777 C772 1.444 1_566 S
C777 C774 1.410 1_556 S
C777 C775 1.405 1_565 S
C778 H768 0.930 . S
C778 C776 1.419 . S
C778 C779 1.362 . S
C779 H769 0.930 . S
C779 C772 1.410 1_556 S
C779 C778 1.362 . S
H780 C786 0.930 . S
H781 C789 0.930 . S
H782 C790 0.930 . S
H783 C791 0.930 . S
H784 C794 0.930 . S
H785 C795 0.930 . S
C786 H780 0.930 . S
C786 C787 1.355 . S
C786 C788 1.415 . S
C787 C786 1.355 . S
C787 C789 1.419 . S
C788 C786 1.415 . S
C788 C793 1.425 . S
C788 C795 1.409 . S
C789 H781 0.930 . S
C789 C787 1.419 . S
C789 C790 1.362 . S
C790 H782 0.930 . S
C790 C789 1.362 . S
C790 C793 1.409 . S
C791 H783 0.930 . S
C791 C792 1.355 . S
C791 C793 1.415 . S
C792 C791 1.355 . S
C792 C794 1.419 . S
C793 C788 1.425 . S
C793 C790 1.409 . S
C793 C791 1.415 . S
C794 H784 0.930 . S
C794 C792 1.419 . S
C794 C795 1.362 . S
C795 H785 0.930 . S
C795 C788 1.409 . S
C795 C794 1.362 . S
H796 C802 0.930 . S
H797 C805 0.930 . S
H798 C806 0.930 . S
H799 C807 0.930 . S
H800 C810 0.930 . S
H801 C811 0.930 . S
C802 H796 0.930 . S
C802 C803 1.355 . S
C802 C804 1.415 . S
C803 C802 1.355 . S
C803 C805 1.419 . S
C804 C802 1.415 . S
C804 C809 1.425 . S
C804 C811 1.409 . S
C805 H797 0.930 . S
C805 C803 1.419 . S
C805 C806 1.362 . S
C806 H798 0.930 . S
C806 C805 1.362 . S
C806 C809 1.409 . S
C807 H799 0.930 . S
C807 C808 1.355 . S
C807 C809 1.415 . S
C808 C807 1.355 . S
C808 C810 1.419 . S
C809 C804 1.425 . S
C809 C806 1.409 . S
C809 C807 1.415 . S
C810 H800 0.930 . S
C810 C808 1.419 . S
C810 C811 1.362 . S
C811 H801 0.930 . S
C811 C804 1.409 . S
C811 C810 1.362 . S
H812 C818 0.930 . S
H813 C821 0.930 . S
H814 C822 0.930 . S
H815 C823 0.930 . S
H816 C826 0.930 . S
H817 C827 0.930 . S
C818 H812 0.930 . S
C818 C819 1.355 . S
C818 C820 1.415 . S
C819 C818 1.355 . S
C819 C821 1.419 . S
C820 C818 1.415 . S
C820 C825 1.425 . S
C820 C827 1.409 . S
C821 H813 0.930 . S
C821 C819 1.419 . S
C821 C822 1.362 . S
C822 H814 0.930 . S
C822 C821 1.362 . S
C822 C825 1.409 . S
C823 H815 0.930 . S
C823 C824 1.355 . S
C823 C825 1.415 . S
C824 C823 1.355 . S
C824 C826 1.419 . S
C825 C820 1.425 . S
C825 C822 1.409 . S
C825 C823 1.415 . S
C826 H816 0.930 . S
C826 C824 1.419 . S
C826 C827 1.362 . S
C827 H817 0.930 . S
C827 C820 1.409 . S
C827 C826 1.362 . S
H828 C834 0.930 . S
H829 C837 0.930 . S
H830 C838 0.930 . S
H831 C839 0.930 . S
H832 C842 0.930 . S
H833 C843 0.930 . S
C834 H828 0.930 . S
C834 C835 1.355 . S
C834 C836 1.415 . S
C835 C834 1.355 . S
C835 C837 1.419 . S
C836 C834 1.415 . S
C836 C841 1.425 . S
C836 C843 1.409 . S
C837 H829 0.930 . S
C837 C835 1.419 . S
C837 C838 1.362 . S
C838 H830 0.930 . S
C838 C837 1.362 . S
C838 C841 1.409 . S
C839 H831 0.930 . S
C839 C840 1.355 . S
C839 C841 1.415 . S
C840 C839 1.355 . S
C840 C842 1.419 . S
C841 C836 1.425 . S
C841 C838 1.409 . S
C841 C839 1.415 . S
C842 H832 0.930 . S
C842 C840 1.419 . S
C842 C843 1.362 . S
C843 H833 0.930 . S
C843 C836 1.409 . S
C843 C842 1.362 . S
H844 C850 0.930 . S
H845 C853 0.930 . S
H846 C854 0.930 . S
H847 C855 0.930 . S
H848 C858 0.930 . S
H849 C859 0.930 . S
C850 H844 0.930 . S
C850 C851 1.355 . S
C850 C852 1.415 . S
C851 C850 1.355 . S
C851 C853 1.419 . S
C852 C850 1.415 . S
C852 C857 1.425 . S
C852 C859 1.409 . S
C853 H845 0.930 . S
C853 C851 1.419 . S
C853 C854 1.362 . S
C854 H846 0.930 . S
C854 C853 1.362 . S
C854 C857 1.409 . S
C855 H847 0.930 . S
C855 C856 1.355 . S
C855 C857 1.415 . S
C856 C855 1.355 . S
C856 C858 1.419 . S
C857 C852 1.425 . S
C857 C854 1.409 . S
C857 C855 1.415 . S
C858 H848 0.930 . S
C858 C856 1.419 . S
C858 C859 1.362 . S
C859 H849 0.930 . S
C859 C852 1.409 . S
C859 C858 1.362 . S
H860 C866 0.930 . S
H861 C869 0.930 . S
H862 C870 0.930 . S
H863 C871 0.930 . S
H864 C874 0.930 . S
H865 C875 0.930 . S
C866 H860 0.930 . S
C866 C867 1.355 . S
C866 C868 1.415 . S
C867 C866 1.355 . S
C867 C869 1.419 . S
C868 C866 1.415 . S
C868 C873 1.425 . S
C868 C875 1.409 . S
C869 H861 0.930 . S
C869 C867 1.419 . S
C869 C870 1.362 . S
C870 H862 0.930 . S
C870 C869 1.362 . S
C870 C873 1.409 . S
C871 H863 0.930 . S
C871 C872 1.355 . S
C871 C873 1.415 . S
C872 C871 1.355 . S
C872 C874 1.419 . S
C873 C868 1.425 . S
C873 C870 1.409 . S
C873 C871 1.415 . S
C874 H864 0.930 . S
C874 C872 1.419 . S
C874 C875 1.362 . S
C875 H865 0.930 . S
C875 C868 1.409 . S
C875 C874 1.362 . S
C403 C172 1.543 . S
C408 N13 1.590 . S
C419 C7 1.486 . S
C424 N46 1.602 . S
C435 C40 1.540 . S
C440 N79 1.590 . S
C451 N112 1.590 . S
C456 C73 1.544 . S
C467 N145 1.594 . S
C472 C106 1.528 . S
C483 C139 1.464 . S
C488 N178 1.606 . S
C499 C238 1.538 . S
C504 N211 1.592 . S
C515 C271 1.543 . S
C520 N244 1.590 . S
C531 C304 1.465 . S
C536 N277 1.606 . S
C547 C337 1.467 . S
C552 N310 1.605 . S
C563 C370 1.537 . S
C568 N343 1.592 . S
C579 C205 1.461 . S
C584 N376 1.606 . S
C595 N266 1.301 . S
C600 N2 1.240 . S
C611 N35 1.309 . S
C616 N299 1.252 . S
C627 N68 1.286 . S
C632 N332 1.228 . S
C643 N101 1.222 . S
C648 N365 1.258 . S
C659 N134 1.308 . S
C664 N200 1.297 . S
C675 N233 1.308 . S
C680 N167 1.251 . S
C691 C318 1.200 . S
C696 C21 1.183 . S
C707 C351 1.208 . S
C712 C54 1.184 . S
C723 C87 1.201 . S
C728 C384 1.183 . S
C739 C120 1.202 . S
C744 C219 1.208 . S
C755 C153 1.205 . S
C760 C252 1.205 . S
C771 C285 1.186 . S
C776 C186 1.209 . S
C787 C18 1.143 . S
C792 C216 1.146 . S
C803 C249 1.164 . S
C808 C51 1.167 . S
C819 C84 1.208 . S
C824 C282 1.207 . S
C835 C315 1.161 . S
C840 C117 1.157 . S
C851 C348 1.209 . S
C856 C150 1.210 . S
C867 C381 1.123 . S
C872 C183 1.123 . S
