# Generated by pormake.
# Topology umg, (4)-cn, num edge types: 1
# Building blocks:
#     Node 0, Type 0, BuildingBlock: MUDLON_clean_sbu_0, # of connection points: 4
#     Node 1, Type 0, BuildingBlock: MUDLON_clean_sbu_0, # of connection points: 4
#     Node 2, Type 0, BuildingBlock: MUDLON_clean_sbu_0, # of connection points: 4
#     Node 3, Type 0, BuildingBlock: MUDLON_clean_sbu_0, # of connection points: 4
#     Node 4, Type 0, BuildingBlock: MUDLON_clean_sbu_0, # of connection points: 4
#     Node 5, Type 0, BuildingBlock: MUDLON_clean_sbu_0, # of connection points: 4
#     Node 6, Type 0, BuildingBlock: MUDLON_clean_sbu_0, # of connection points: 4
#     Node 7, Type 0, BuildingBlock: MUDLON_clean_sbu_0, # of connection points: 4
#     Node 8, Type 0, BuildingBlock: MUDLON_clean_sbu_0, # of connection points: 4
#     Node 9, Type 0, BuildingBlock: MUDLON_clean_sbu_0, # of connection points: 4
#     Node 10, Type 0, BuildingBlock: MUDLON_clean_sbu_0, # of connection points: 4
#     Node 11, Type 0, BuildingBlock: MUDLON_clean_sbu_0, # of connection points: 4
#     Edge 12, Type (0, 0), BuildingBlock: TEMPAE_clean_linker_10, # of connection points: 2
#     Edge 13, Type (0, 0), BuildingBlock: TEMPAE_clean_linker_10, # of connection points: 2
#     Edge 14, Type (0, 0), BuildingBlock: TEMPAE_clean_linker_10, # of connection points: 2
#     Edge 15, Type (0, 0), BuildingBlock: TEMPAE_clean_linker_10, # of connection points: 2
#     Edge 16, Type (0, 0), BuildingBlock: TEMPAE_clean_linker_10, # of connection points: 2
#     Edge 17, Type (0, 0), BuildingBlock: TEMPAE_clean_linker_10, # of connection points: 2
#     Edge 18, Type (0, 0), BuildingBlock: TEMPAE_clean_linker_10, # of connection points: 2
#     Edge 19, Type (0, 0), BuildingBlock: TEMPAE_clean_linker_10, # of connection points: 2
#     Edge 20, Type (0, 0), BuildingBlock: TEMPAE_clean_linker_10, # of connection points: 2
#     Edge 21, Type (0, 0), BuildingBlock: TEMPAE_clean_linker_10, # of connection points: 2
#     Edge 22, Type (0, 0), BuildingBlock: TEMPAE_clean_linker_10, # of connection points: 2
#     Edge 23, Type (0, 0), BuildingBlock: TEMPAE_clean_linker_10, # of connection points: 2
#     Edge 24, Type (0, 0), BuildingBlock: TEMPAE_clean_linker_10, # of connection points: 2
#     Edge 25, Type (0, 0), BuildingBlock: TEMPAE_clean_linker_10, # of connection points: 2
#     Edge 26, Type (0, 0), BuildingBlock: TEMPAE_clean_linker_10, # of connection points: 2
#     Edge 27, Type (0, 0), BuildingBlock: TEMPAE_clean_linker_10, # of connection points: 2
#     Edge 28, Type (0, 0), BuildingBlock: TEMPAE_clean_linker_10, # of connection points: 2
#     Edge 29, Type (0, 0), BuildingBlock: TEMPAE_clean_linker_10, # of connection points: 2
#     Edge 30, Type (0, 0), BuildingBlock: TEMPAE_clean_linker_10, # of connection points: 2
#     Edge 31, Type (0, 0), BuildingBlock: TEMPAE_clean_linker_10, # of connection points: 2
#     Edge 32, Type (0, 0), BuildingBlock: TEMPAE_clean_linker_10, # of connection points: 2
#     Edge 33, Type (0, 0), BuildingBlock: TEMPAE_clean_linker_10, # of connection points: 2
#     Edge 34, Type (0, 0), BuildingBlock: TEMPAE_clean_linker_10, # of connection points: 2
#     Edge 35, Type (0, 0), BuildingBlock: TEMPAE_clean_linker_10, # of connection points: 2
# Relax obj value: 0.016
# Max RMSD: 0.186
# Mean RMSD: 0.186
data_MOF--net-umg--node1-MUDLON_clean_sbu_0--edge1-TEMPAE_clean_linker_10
_symmetry_space_group_name_H-M    P1
_symmetry_Int_Tables_number       1
_symmetry_cell_setting            triclinic
loop_
_symmetry_equiv_pos_as_xyz
'x, y, z'
_cell_length_a     30.49049
_cell_length_b     30.511435
_cell_length_c     91.055257
_cell_angle_alpha  89.956247
_cell_angle_beta   89.962634
_cell_angle_gamma 119.99651
loop_
_atom_site_label
_atom_site_type_symbol
_atom_site_fract_x
_atom_site_fract_y
_atom_site_fract_z
_atom_type_partial_charge
Mg0 Mg 0.31214 0.59229 0.09671 0.0
C1 C 0.35424 0.6693 0.06939 0.0
O2 O 0.38237 0.70734 0.07815 0.0
C3 C 0.32001 0.60723 0.12763 0.0
O4 O 0.29741 0.55841 0.12494 0.0
C5 C 0.39565 0.57131 0.09121 0.0
O6 O 0.41025 0.61405 0.08419 0.0
O7 O 0.35274 0.55007 0.09764 0.0
O8 O 0.32624 0.62536 0.07474 0.0
O9 O 0.22944 0.54966 0.09817 0.0
C10 C 0.20971 0.57668 0.09491 0.0
O11 O 0.23993 0.62401 0.09103 0.0
O12 O 0.33447 0.63749 0.11671 0.0
Mg13 Mg 0.72662 0.30121 0.43187 0.0
C14 C 0.72792 0.35384 0.40326 0.0
O15 O 0.77401 0.38568 0.40775 0.0
C16 C 0.71691 0.30192 0.46334 0.0
O17 O 0.74261 0.2788 0.46057 0.0
C18 C 0.8275 0.39238 0.43586 0.0
O19 O 0.7954 0.40669 0.44014 0.0
O20 O 0.80985 0.34659 0.43179 0.0
O21 O 0.69848 0.31779 0.41172 0.0
O22 O 0.69076 0.21834 0.43295 0.0
C23 C 0.6636 0.1905 0.42242 0.0
O24 O 0.66301 0.21194 0.40996 0.0
O25 O 0.70318 0.31881 0.45255 0.0
Mg26 Mg 0.43505 0.71702 0.76721 0.0
C27 C 0.3579 0.66811 0.74008 0.0
O28 O 0.32305 0.6337 0.74867 0.0
C29 C 0.39194 0.72701 0.79607 0.0
O30 O 0.41711 0.77466 0.79199 0.0
C31 C 0.45873 0.8218 0.76112 0.0
O32 O 0.41455 0.79351 0.75484 0.0
O33 O 0.47993 0.80005 0.76753 0.0
O34 O 0.40018 0.70108 0.74544 0.0
O35 O 0.47675 0.67564 0.76787 0.0
C36 C 0.45123 0.62999 0.76343 0.0
O37 O 0.40466 0.61326 0.75888 0.0
O38 O 0.38843 0.6933 0.78712 0.0
Mg39 Mg 0.72678 0.42263 0.09896 0.0
C40 C 0.67523 0.34762 0.07186 0.0
O41 O 0.63658 0.31715 0.08014 0.0
C42 C 0.72441 0.36493 0.12636 0.0
O43 O 0.76901 0.3753 0.12136 0.0
C44 C 0.64092 0.43961 0.09655 0.0
O45 O 0.62201 0.3907 0.09484 0.0
O46 O 0.68837 0.46706 0.09878 0.0
O47 O 0.71195 0.38735 0.07734 0.0
O48 O 0.80976 0.46414 0.10079 0.0
C49 C 0.83183 0.44371 0.09414 0.0
O50 O 0.80399 0.40161 0.08684 0.0
O51 O 0.69663 0.37552 0.11844 0.0
Mg52 Mg 0.30859 0.71888 0.43265 0.0
C53 C 0.36001 0.71936 0.40381 0.0
O54 O 0.3922 0.7654 0.40823 0.0
C55 C 0.31472 0.71574 0.46424 0.0
O56 O 0.29223 0.74188 0.46124 0.0
C57 C 0.1977 0.65758 0.42327 0.0
O58 O 0.21891 0.65898 0.41058 0.0
O59 O 0.22579 0.68291 0.43399 0.0
O60 O 0.32427 0.69011 0.4124 0.0
O61 O 0.35357 0.80219 0.43209 0.0
C62 C 0.39967 0.82035 0.43596 0.0
O63 O 0.41453 0.78874 0.44029 0.0
O64 O 0.32807 0.69805 0.45356 0.0
Mg65 Mg 0.60428 0.30095 0.7665 0.0
C66 C 0.61255 0.3044 0.7351 0.0
O67 O 0.56436 0.27632 0.73849 0.0
C68 C 0.61891 0.29683 0.79764 0.0
O69 O 0.57159 0.26269 0.7949 0.0
C70 C 0.58975 0.199 0.7622 0.0
O71 O 0.63686 0.22978 0.75822 0.0
O72 O 0.56291 0.21806 0.76632 0.0
O73 O 0.64439 0.32285 0.74555 0.0
O74 O 0.56086 0.34052 0.76719 0.0
C75 C 0.58478 0.38551 0.76212 0.0
O76 O 0.63057 0.40238 0.75683 0.0
O77 O 0.64714 0.32172 0.78687 0.0
Mg78 Mg 0.42386 0.70911 0.60134 0.0
C79 C 0.3929 0.66266 0.63121 0.0
O80 O 0.43074 0.65526 0.62806 0.0
C81 C 0.41429 0.71499 0.56985 0.0
O82 O 0.46287 0.74233 0.5728 0.0
C83 C 0.44157 0.62447 0.59445 0.0
O84 O 0.39496 0.60841 0.59004 0.0
O85 O 0.46674 0.66902 0.59973 0.0
O86 O 0.37837 0.68269 0.62149 0.0
O87 O 0.46663 0.79217 0.60254 0.0
C88 C 0.44301 0.8126 0.60827 0.0
O89 O 0.39752 0.78303 0.61366 0.0
O90 O 0.38368 0.69362 0.58048 0.0
Mg91 Mg 0.71605 0.43205 0.93362 0.0
C92 C 0.68496 0.40922 0.96445 0.0
O93 O 0.69242 0.45508 0.96237 0.0
C94 C 0.69881 0.41545 0.90208 0.0
O95 O 0.70645 0.46132 0.90422 0.0
C96 C 0.81979 0.45365 0.94079 0.0
O97 O 0.79045 0.40849 0.9464 0.0
O98 O 0.79908 0.47643 0.9347 0.0
O99 O 0.6909 0.38639 0.9536 0.0
O100 O 0.67151 0.47075 0.93261 0.0
C101 C 0.62392 0.43974 0.9325 0.0
O102 O 0.60843 0.3911 0.93309 0.0
O103 O 0.69982 0.39029 0.9131 0.0
Mg104 Mg 0.30211 0.70968 0.26427 0.0
C105 C 0.30356 0.70262 0.29577 0.0
O106 O 0.27666 0.72405 0.29244 0.0
C107 C 0.30551 0.70098 0.23286 0.0
O108 O 0.27647 0.72052 0.23556 0.0
C109 C 0.38643 0.81284 0.26948 0.0
O110 O 0.40286 0.78326 0.27449 0.0
O111 O 0.34166 0.79249 0.26429 0.0
O112 O 0.32189 0.68923 0.28526 0.0
O113 O 0.21908 0.66844 0.26385 0.0
C114 C 0.19942 0.62233 0.26783 0.0
O115 O 0.22975 0.60552 0.27186 0.0
O116 O 0.32482 0.69027 0.24371 0.0
Mg117 Mg 0.59249 0.29372 0.59958 0.0
C118 C 0.64453 0.35455 0.62706 0.0
O119 O 0.62673 0.38296 0.62205 0.0
C120 C 0.60223 0.28934 0.5679 0.0
O121 O 0.55351 0.26134 0.57061 0.0
C122 C 0.57081 0.37627 0.59232 0.0
O123 O 0.61398 0.39041 0.58559 0.0
O124 O 0.54981 0.33427 0.59925 0.0
O125 O 0.63964 0.3178 0.61926 0.0
O126 O 0.54944 0.21059 0.60085 0.0
C127 C 0.5741 0.19051 0.60608 0.0
O128 O 0.62068 0.22042 0.61061 0.0
O129 O 0.63218 0.31004 0.57867 0.0
Mg130 Mg 0.29993 0.59905 0.93295 0.0
C131 C 0.36323 0.65435 0.95966 0.0
O132 O 0.39111 0.63621 0.95443 0.0
C133 C 0.35684 0.65756 0.90501 0.0
O134 O 0.39686 0.66189 0.91178 0.0
C135 C 0.1974 0.58243 0.9394 0.0
O136 O 0.22782 0.62953 0.94339 0.0
O137 O 0.21693 0.55672 0.9346 0.0
O138 O 0.32532 0.64847 0.95222 0.0
O139 O 0.33978 0.55569 0.93413 0.0
C140 C 0.35605 0.54294 0.92297 0.0
O141 O 0.34301 0.54981 0.90979 0.0
O142 O 0.31444 0.63655 0.91164 0.0
Mg143 Mg 0.7165 0.29317 0.26401 0.0
C144 C 0.7102 0.29534 0.29554 0.0
O145 O 0.73178 0.26852 0.29231 0.0
C146 C 0.71861 0.34862 0.23609 0.0
O147 O 0.76245 0.38279 0.24151 0.0
C148 C 0.63204 0.19016 0.2689 0.0
O149 O 0.61494 0.21989 0.27327 0.0
O150 O 0.67748 0.21038 0.26422 0.0
O151 O 0.69664 0.31332 0.28499 0.0
O152 O 0.79973 0.33444 0.26321 0.0
C153 C 0.82136 0.3772 0.2697 0.0
O154 O 0.79303 0.39205 0.2765 0.0
O155 O 0.68971 0.31017 0.24385 0.0
C156 C 0.40667 0.67042 0.98402 0.0
C157 C 0.36985 0.672 0.97515 0.0
C158 C 0.40766 0.67778 0.99927 0.0
C159 C 0.37117 0.68735 1.00585 0.0
C160 C 0.33636 0.69282 0.99682 0.0
C161 C 0.33599 0.68493 0.98159 0.0
C162 C 0.44542 0.67154 1.00845 0.0
C163 C 0.29724 0.70363 1.00335 0.0
C164 C 0.32916 0.63321 0.04414 0.0
C165 C 0.357 0.67564 0.05315 0.0
C166 C 0.3329 0.63694 0.0288 0.0
C167 C 0.36503 0.68441 0.02215 0.0
C168 C 0.39229 0.72777 0.03111 0.0
C169 C 0.38812 0.72286 0.04652 0.0
C170 C 0.30324 0.58961 0.01971 0.0
C171 C 0.42651 0.77909 0.02441 0.0
H172 H 0.43327 0.66083 0.97918 0.0
H173 H 0.3076 0.68663 0.97484 0.0
H174 H 0.46427 0.703 0.01643 0.0
H175 H 0.42534 0.63584 1.01484 0.0
H176 H 0.47492 0.67017 1.00161 0.0
H177 H 0.27833 0.71447 0.99483 0.0
H178 H 0.2679 0.66936 1.0091 0.0
H179 H 0.31479 0.73443 1.01159 0.0
H180 H 0.30486 0.5965 0.04908 0.0
H181 H 0.40966 0.75589 0.05336 0.0
H182 H 0.32966 0.58207 1.01326 0.0
H183 H 0.27866 0.59487 1.01178 0.0
H184 H 0.27909 0.55581 0.02656 0.0
H185 H 0.45837 0.7788 0.01861 0.0
H186 H 0.44232 0.80961 0.03279 0.0
H187 H 0.40546 0.78807 0.01614 0.0
C188 C 0.66948 0.31402 0.3818 0.0
C189 C 0.7148 0.35351 0.38753 0.0
C190 C 0.66171 0.30751 0.36655 0.0
C191 C 0.70028 0.34107 0.35684 0.0
C192 C 0.7441 0.38344 0.36258 0.0
C193 C 0.75071 0.38926 0.37784 0.0
C194 C 0.61404 0.26233 0.36089 0.0
C195 C 0.78622 0.42016 0.35265 0.0
C196 C 0.72247 0.28634 0.32217 0.0
C197 C 0.70453 0.30554 0.31116 0.0
C198 C 0.72025 0.29692 0.33702 0.0
C199 C 0.69919 0.32729 0.34109 0.0
C200 C 0.67972 0.34582 0.33009 0.0
C201 C 0.6828 0.33488 0.31521 0.0
C202 C 0.74165 0.27645 0.34834 0.0
C203 C 0.65653 0.37785 0.33404 0.0
H204 H 0.64123 0.28646 0.38918 0.0
H205 H 0.78561 0.42027 0.38214 0.0
H206 H 0.59896 0.2729 0.35127 0.0
H207 H 0.62281 0.23286 0.35724 0.0
H208 H 0.58416 0.24565 0.36947 0.0
H209 H 0.81414 0.45472 0.3586 0.0
H210 H 0.80641 0.40148 0.34801 0.0
H211 H 0.7708 0.43156 0.34331 0.0
H212 H 0.73918 0.26348 0.3192 0.0
H213 H 0.66869 0.34971 0.30678 0.0
H214 H 0.71227 0.25346 0.3566 0.0
H215 H 0.77342 0.30824 0.35426 0.0
H216 H 0.75577 0.25258 0.34338 0.0
H217 H 0.62694 0.35866 0.34257 0.0
H218 H 0.6394 0.38584 0.32437 0.0
H219 H 0.68596 0.41436 0.33873 0.0
C220 C 0.38793 0.70546 0.71514 0.0
C221 C 0.35123 0.66629 0.72387 0.0
C222 C 0.38647 0.70225 0.69978 0.0
C223 C 0.34716 0.65886 0.69284 0.0
C224 C 0.3083 0.62043 0.70151 0.0
C225 C 0.31083 0.62454 0.71694 0.0
C226 C 0.42871 0.74422 0.69101 0.0
C227 C 0.26542 0.5739 0.69453 0.0
C228 C 0.34267 0.67367 0.65141 0.0
C229 C 0.37331 0.65434 0.64651 0.0
C230 C 0.3309 0.67255 0.66642 0.0
C231 C 0.35044 0.65186 0.67673 0.0
C232 C 0.37869 0.62954 0.67169 0.0
C233 C 0.38961 0.63093 0.65668 0.0
C234 C 0.30007 0.69611 0.67133 0.0
C235 C 0.40031 0.60704 0.68225 0.0
H236 H 0.419 0.73823 0.72034 0.0
H237 H 0.28214 0.59419 0.72356 0.0
H238 H 0.45153 0.7297 0.68559 0.0
H239 H 0.41293 0.75753 0.68223 0.0
H240 H 0.4543 0.77707 0.69796 0.0
H241 H 0.23467 0.55122 0.7025 0.0
H242 H 0.24932 0.58456 0.68518 0.0
H243 H 0.27996 0.54971 0.6901 0.0
H244 H 0.32973 0.69166 0.64364 0.0
H245 H 0.41283 0.61535 0.653 0.0
H246 H 0.32521 0.73278 0.67679 0.0
H247 H 0.27095 0.67147 0.67945 0.0
H248 H 0.28104 0.70311 0.66196 0.0
H249 H 0.42989 0.63755 0.68911 0.0
H250 H 0.41754 0.58722 0.6765 0.0
H251 H 0.37041 0.57986 0.68977 0.0
C252 C 0.62786 0.3108 0.04833 0.0
C253 C 0.67374 0.34099 0.05569 0.0
C254 C 0.62517 0.31204 0.03291 0.0
C255 C 0.66939 0.34414 0.02474 0.0
C256 C 0.71641 0.37157 0.03207 0.0
C257 C 0.71798 0.36965 0.04742 0.0
C258 C 0.57444 0.28179 0.02549 0.0
C259 C 0.76459 0.40602 0.02381 0.0
C260 C 0.67884 0.34509 0.98299 0.0
C261 C 0.67436 0.38747 0.97947 0.0
C262 C 0.67469 0.32859 0.99765 0.0
C263 C 0.66593 0.35517 1.00896 0.0
C264 C 0.65876 0.39627 1.00532 0.0
C265 C 0.66303 0.41183 0.99066 0.0
C266 C 0.6821 0.28434 1.00108 0.0
C267 C 0.64917 0.42565 0.01701 0.0
H268 H 0.59352 0.28838 0.05462 0.0
H269 H 0.75377 0.39251 0.05301 0.0
H270 H 0.56047 0.30757 0.02208 0.0
H271 H 0.57784 0.26314 1.01545 0.0
H272 H 0.54581 0.25247 0.0329 0.0
H273 H 0.7987 0.42015 0.03088 0.0
H274 H 0.76906 0.38605 1.01426 0.0
H275 H 0.76269 0.43909 0.01951 0.0
H276 H 0.68745 0.32597 0.9744 0.0
H277 H 0.65891 0.44424 0.98803 0.0
H278 H 0.65251 0.25785 1.0088 0.0
H279 H 0.71928 0.29822 1.00652 0.0
H280 H 0.68115 0.26328 0.99102 0.0
H281 H 0.61693 0.39958 0.02408 0.0
H282 H 0.64077 0.45421 1.01226 0.0
H283 H 0.683 0.44551 0.02416 0.0
C284 C 0.2947 0.71585 0.32235 0.0
C285 C 0.31329 0.6969 0.31144 0.0
C286 C 0.30466 0.71343 0.33725 0.0
C287 C 0.33373 0.69109 0.3415 0.0
C288 C 0.35167 0.67068 0.33061 0.0
C289 C 0.34143 0.67402 0.31567 0.0
C290 C 0.28493 0.73596 0.34844 0.0
C291 C 0.38228 0.64609 0.33473 0.0
C292 C 0.39561 0.74142 0.37838 0.0
C293 C 0.35917 0.70612 0.38806 0.0
C294 C 0.38988 0.73494 0.36311 0.0
C295 C 0.34686 0.69186 0.35732 0.0
C296 C 0.31236 0.65386 0.36702 0.0
C297 C 0.31881 0.6615 0.38228 0.0
C298 C 0.42762 0.77648 0.35321 0.0
C299 C 0.2664 0.60699 0.36131 0.0
H300 H 0.27282 0.73351 0.31926 0.0
H301 H 0.35577 0.65912 0.30733 0.0
H302 H 0.2611 0.70697 0.35669 0.0
H303 H 0.3171 0.76721 0.35439 0.0
H304 H 0.26209 0.75108 0.34334 0.0
H305 H 0.39014 0.62863 0.32513 0.0
H306 H 0.4189 0.67471 0.33958 0.0
H307 H 0.36199 0.61652 0.3432 0.0
H308 H 0.42728 0.77578 0.3827 0.0
H309 H 0.29065 0.63374 0.38964 0.0
H310 H 0.40997 0.79748 0.34846 0.0
H311 H 0.43863 0.76041 0.34395 0.0
H312 H 0.46236 0.80378 0.35922 0.0
H313 H 0.23791 0.61696 0.35751 0.0
H314 H 0.24866 0.5773 0.3699 0.0
H315 H 0.27652 0.59117 0.35178 0.0
C316 C 0.6781 0.34779 0.71521 0.0
C317 C 0.6277 0.31512 0.71944 0.0
C318 C 0.69119 0.35908 0.70028 0.0
C319 C 0.65294 0.33733 0.68941 0.0
C320 C 0.60226 0.30373 0.69365 0.0
C321 C 0.59037 0.29303 0.70855 0.0
C322 C 0.74566 0.39479 0.69614 0.0
C323 C 0.56015 0.27961 0.68246 0.0
C324 C 0.65588 0.39288 0.65204 0.0
C325 C 0.65921 0.35798 0.64275 0.0
C326 C 0.6583 0.38939 0.66737 0.0
C327 C 0.66448 0.35022 0.67355 0.0
C328 C 0.67278 0.31799 0.6642 0.0
C329 C 0.66996 0.32218 0.6489 0.0
C330 C 0.64949 0.42471 0.67691 0.0
C331 C 0.68017 0.27616 0.67033 0.0
H332 H 0.70717 0.36497 0.72356 0.0
H333 H 0.55134 0.26758 0.71165 0.0
H334 H 0.75841 0.37703 0.68781 0.0
H335 H 0.74913 0.42952 0.69111 0.0
H336 H 0.77136 0.40586 0.70578 0.0
H337 H 0.52287 0.25371 0.68757 0.0
H338 H 0.55704 0.30939 0.67633 0.0
H339 H 0.56876 0.25782 0.67435 0.0
H340 H 0.64817 0.42109 0.64742 0.0
H341 H 0.6732 0.29538 0.64183 0.0
H342 H 0.67646 0.43876 0.68623 0.0
H343 H 0.61068 0.40387 0.68158 0.0
H344 H 0.65332 0.45768 0.67063 0.0
H345 H 0.70641 0.28979 0.67983 0.0
H346 H 0.69523 0.26072 0.66193 0.0
H347 H 0.64327 0.24488 0.67428 0.0
C348 C 0.28215 0.69175 0.20637 0.0
C349 C 0.31384 0.69118 0.21744 0.0
C350 C 0.28797 0.68172 0.1917 0.0
C351 C 0.32701 0.67158 0.18788 0.0
C352 C 0.36017 0.67236 0.19893 0.0
C353 C 0.3529 0.68169 0.21363 0.0
C354 C 0.25108 0.68025 0.18036 0.0
C355 C 0.4027 0.66246 0.19525 0.0
C356 C 0.30004 0.58903 0.15423 0.0
C357 C 0.32516 0.62478 0.14306 0.0
C358 C 0.30168 0.60377 0.16887 0.0
C359 C 0.32975 0.65565 0.17259 0.0
C360 C 0.35667 0.69198 0.16149 0.0
C361 C 0.35374 0.67615 0.1468 0.0
C362 C 0.27168 0.56379 0.18028 0.0
C363 C 0.38761 0.74758 0.16508 0.0
H364 H 0.25178 0.69895 0.2092 0.0
H365 H 0.37782 0.68168 0.22211 0.0
H366 H 0.2718 0.70614 0.17112 0.0
H367 H 0.22902 0.64151 0.17575 0.0
H368 H 0.22415 0.6911 0.185 0.0
H369 H 0.428 0.66911 0.20478 0.0
H370 H 0.38684 0.62269 0.1916 0.0
H371 H 0.42562 0.6871 0.18603 0.0
H372 H 0.2778 0.54921 0.1515 0.0
H373 H 0.37353 0.70395 0.13826 0.0
H374 H 0.24167 0.57023 0.1849 0.0
H375 H 0.29659 0.56632 0.1895 0.0
H376 H 0.2535 0.52488 0.1757 0.0
H377 H 0.36216 0.76179 0.16863 0.0
H378 H 0.41016 0.77041 0.15552 0.0
H379 H 0.4137 0.7536 0.17433 0.0
C380 C 0.68239 0.3362 0.48247 0.0
C381 C 0.70287 0.30555 0.4787 0.0
C382 C 0.6682 0.33838 0.49705 0.0
C383 C 0.67398 0.30865 0.50801 0.0
C384 C 0.69517 0.27815 0.50426 0.0
C385 C 0.70962 0.27725 0.48971 0.0
C386 C 0.64631 0.37182 0.50068 0.0
C387 C 0.70128 0.24527 0.51555 0.0
C388 C 0.67069 0.3326 0.54893 0.0
C389 C 0.62087 0.29601 0.55257 0.0
C390 C 0.6881 0.33851 0.53435 0.0
C391 C 0.65509 0.30662 0.52323 0.0
C392 C 0.60464 0.27006 0.52684 0.0
C393 C 0.58811 0.26543 0.54142 0.0
C394 C 0.742 0.37829 0.53087 0.0
C395 C 0.56843 0.23479 0.51537 0.0
H396 H 0.67738 0.35841 0.47403 0.0
H397 H 0.72529 0.25333 0.48691 0.0
H398 H 0.60631 0.34818 0.50421 0.0
H399 H 0.66729 0.39721 0.50997 0.0
H400 H 0.64767 0.3953 0.49117 0.0
H401 H 0.71986 0.22492 0.51095 0.0
H402 H 0.72412 0.2686 0.52495 0.0
H403 H 0.66361 0.2169 0.51992 0.0
H404 H 0.69607 0.35665 0.55746 0.0
H405 H 0.54954 0.23702 0.54413 0.0
H406 H 0.74272 0.40274 0.52174 0.0
H407 H 0.76353 0.35983 0.52718 0.0
H408 H 0.76164 0.40252 0.54051 0.0
H409 H 0.5655 0.25683 0.50612 0.0
H410 H 0.52988 0.20972 0.51987 0.0
H411 H 0.583 0.21077 0.51083 0.0
C412 C 0.36163 0.66607 0.8173 0.0
C413 C 0.37679 0.71447 0.81171 0.0
C414 C 0.355 0.65632 0.83249 0.0
C415 C 0.36363 0.69585 0.84231 0.0
C416 C 0.37648 0.74404 0.83667 0.0
C417 C 0.38286 0.75274 0.82147 0.0
C418 C 0.34092 0.60429 0.83806 0.0
C419 C 0.38572 0.78714 0.84674 0.0
C420 C 0.31563 0.66241 0.88166 0.0
C421 C 0.35935 0.67066 0.88918 0.0
C422 C 0.31646 0.6707 0.86645 0.0
C423 C 0.3621 0.68769 0.85852 0.0
C424 C 0.40656 0.69697 0.86607 0.0
C425 C 0.40466 0.68839 0.88129 0.0
C426 C 0.26831 0.66053 0.85882 0.0
C427 C 0.45606 0.71531 0.85803 0.0
H428 H 0.35687 0.63625 0.80988 0.0
H429 H 0.39434 0.79022 0.81728 0.0
H430 H 0.37282 0.60644 0.8445 0.0
H431 H 0.30777 0.58982 0.84552 0.0
H432 H 0.33184 0.57673 0.82899 0.0
H433 H 0.3917 0.82115 0.84058 0.0
H434 H 0.35323 0.77532 0.85433 0.0
H435 H 0.4197 0.79773 0.85357 0.0
H436 H 0.28037 0.64865 0.88763 0.0
H437 H 0.43861 0.69478 0.88695 0.0
H438 H 0.25768 0.63048 0.85046 0.0
H439 H 0.27434 0.69503 0.85297 0.0
H440 H 0.23621 0.64848 0.8666 0.0
H441 H 0.4517 0.68736 0.84954 0.0
H442 H 0.48735 0.72134 0.86552 0.0
H443 H 0.46691 0.75143 0.85229 0.0
C444 C 0.74072 0.33738 0.15063 0.0
C445 C 0.71182 0.35183 0.14208 0.0
C446 C 0.73522 0.33316 0.16596 0.0
C447 C 0.70037 0.34424 0.17295 0.0
C448 C 0.66921 0.3563 0.16433 0.0
C449 C 0.67507 0.35963 0.14899 0.0
C450 C 0.76853 0.31925 0.17473 0.0
C451 C 0.63178 0.36858 0.17136 0.0
C452 C 0.67182 0.3055 0.21308 0.0
C453 C 0.70799 0.34968 0.22024 0.0
C454 C 0.6675 0.30358 0.1977 0.0
C455 C 0.69967 0.34703 0.18929 0.0
C456 C 0.73406 0.39256 0.19651 0.0
C457 C 0.73801 0.39325 0.21188 0.0
C458 C 0.63052 0.25428 0.19043 0.0
C459 C 0.76843 0.44002 0.18796 0.0
H460 H 0.76895 0.33097 0.14538 0.0
H461 H 0.65263 0.37098 0.14249 0.0
H462 H 0.7958 0.35229 0.18132 0.0
H463 H 0.74533 0.28814 0.18251 0.0
H464 H 0.79021 0.30725 0.1676 0.0
H465 H 0.6067 0.37189 0.16313 0.0
H466 H 0.60795 0.33913 0.17949 0.0
H467 H 0.6526 0.40499 0.17735 0.0
H468 H 0.64853 0.27155 0.21944 0.0
H469 H 0.7658 0.4276 0.21731 0.0
H470 H 0.6517 0.2388 0.18455 0.0
H471 H 0.60746 0.26043 0.18215 0.0
H472 H 0.60467 0.22559 0.19849 0.0
H473 H 0.79603 0.43419 0.18153 0.0
H474 H 0.78977 0.47333 0.19522 0.0
H475 H 0.74609 0.44858 0.18003 0.0
C476 C 0.34751 0.67369 0.55029 0.0
C477 C 0.39684 0.71009 0.55442 0.0
C478 C 0.33164 0.6693 0.53557 0.0
C479 C 0.36568 0.70256 0.52481 0.0
C480 C 0.41555 0.73908 0.52894 0.0
C481 C 0.43054 0.74217 0.54363 0.0
C482 C 0.27834 0.62953 0.53156 0.0
C483 C 0.45283 0.77584 0.5179 0.0
C484 C 0.3452 0.67822 0.48364 0.0
C485 C 0.32545 0.70944 0.47976 0.0
C486 C 0.3566 0.67388 0.49837 0.0
C487 C 0.34864 0.70189 0.50942 0.0
C488 C 0.32783 0.73265 0.50558 0.0
C489 C 0.3163 0.73582 0.49086 0.0
C490 C 0.37822 0.64025 0.50207 0.0
C491 C 0.31934 0.7637 0.51696 0.0
H492 H 0.3214 0.64852 0.55854 0.0
H493 H 0.46871 0.7705 0.5467 0.0
H494 H 0.25698 0.648 0.52771 0.0
H495 H 0.279 0.60599 0.52237 0.0
H496 H 0.25766 0.60442 0.54097 0.0
H497 H 0.49066 0.80097 0.52279 0.0
H498 H 0.4574 0.75497 0.5086 0.0
H499 H 0.43822 0.79977 0.51331 0.0
H500 H 0.35207 0.65746 0.47516 0.0
H501 H 0.30101 0.76004 0.48802 0.0
H502 H 0.35631 0.61405 0.51114 0.0
H503 H 0.41781 0.66371 0.50594 0.0
H504 H 0.37801 0.61764 0.49249 0.0
H505 H 0.29562 0.7391 0.52607 0.0
H506 H 0.30063 0.78384 0.51229 0.0
H507 H 0.35618 0.79214 0.52174 0.0
C508 C 0.70003 0.3563 0.88311 0.0
C509 C 0.68958 0.3946 0.88702 0.0
C510 C 0.69314 0.33833 0.86858 0.0
C511 C 0.67428 0.35838 0.85787 0.0
C512 C 0.66329 0.39671 0.86184 0.0
C513 C 0.67155 0.41465 0.8763 0.0
C514 C 0.70608 0.29805 0.86468 0.0
C515 C 0.64201 0.41833 0.85085 0.0
C516 C 0.6852 0.34761 0.81658 0.0
C517 C 0.6362 0.30884 0.81309 0.0
C518 C 0.6993 0.36226 0.83126 0.0
C519 C 0.66336 0.33793 0.84264 0.0
C520 C 0.6147 0.29723 0.83921 0.0
C521 C 0.60186 0.28304 0.82452 0.0
C522 C 0.75185 0.40529 0.83452 0.0
C523 C 0.57505 0.27055 0.85097 0.0
H524 H 0.71447 0.34108 0.89134 0.0
H525 H 0.66316 0.44408 0.87928 0.0
H526 H 0.67161 0.26338 0.86093 0.0
H527 H 0.73357 0.31123 0.85546 0.0
H528 H 0.7225 0.28804 0.87411 0.0
H529 H 0.63564 0.44808 0.85571 0.0
H530 H 0.66822 0.43487 0.84139 0.0
H531 H 0.60543 0.38772 0.84651 0.0
H532 H 0.71208 0.36748 0.80783 0.0
H533 H 0.56399 0.25274 0.82198 0.0
H534 H 0.76896 0.39508 0.84371 0.0
H535 H 0.74971 0.43901 0.838 0.0
H536 H 0.77722 0.41575 0.82481 0.0
H537 H 0.59052 0.25819 0.86007 0.0
H538 H 0.54056 0.23696 0.84665 0.0
H539 H 0.56392 0.29713 0.85566 0.0
C540 C 0.91698 0.49861 0.10591 0.0
C541 C 0.88751 0.465 0.09478 0.0
C542 C 0.96938 0.51637 0.10682 0.0
C543 C 0.99289 0.50082 0.0962 0.0
C544 C 0.96329 0.46736 0.08487 0.0
C545 C 0.91107 0.44963 0.08438 0.0
C546 C 0.99955 0.55155 0.11916 0.0
C547 C 0.98685 0.4506 0.07316 0.0
C548 C 0.13372 0.58355 0.08855 0.0
C549 C 0.15416 0.55655 0.09543 0.0
C550 C 0.08154 0.56617 0.0889 0.0
C551 C 0.04873 0.52091 0.09649 0.0
C552 C 0.06912 0.49373 0.10365 0.0
C553 C 0.12157 0.51165 0.10293 0.0
C554 C 0.06144 0.59585 0.08089 0.0
C555 C 0.03545 0.44562 0.112 0.0
H556 H 0.89896 0.51028 0.11406 0.0
H557 H 0.88866 0.42384 0.07569 0.0
H558 H 0.01917 0.53526 0.12546 0.0
H559 H 0.02917 0.58829 0.11461 0.0
H560 H 0.97542 0.55869 0.12681 0.0
H561 H 0.95854 0.42438 0.0651 0.0
H562 H 0.01637 0.48406 0.06715 0.0
H563 H 1.00571 0.43135 0.07828 0.0
H564 H 0.15852 0.61821 0.08269 0.0
H565 H 0.13711 0.49081 0.10837 0.0
H566 H 0.04014 0.60653 0.08859 0.0
H567 H 0.03465 0.57202 0.07219 0.0
H568 H 0.09208 0.63083 0.07573 0.0
H569 H 1.01304 0.45256 0.12033 0.0
H570 H 0.05738 0.43041 0.11762 0.0
H571 H 1.00817 0.41637 0.10437 0.0
C572 C 0.61265 0.11566 0.4389 0.0
C573 C 0.62758 0.13559 0.4247 0.0
C574 C 0.57471 0.06492 0.44111 0.0
C575 C 0.55172 0.03295 0.42884 0.0
C576 C 0.56752 0.05259 0.41449 0.0
C577 C 0.60483 0.10366 0.4126 0.0
C578 C 0.55863 0.04574 0.45659 0.0
C579 C 0.54492 0.01964 0.40111 0.0
C580 C 0.48959 0.89054 0.43446 0.0
C581 C 0.43776 0.87506 0.43439 0.0
C582 C 0.52682 0.94157 0.43266 0.0
C583 C 0.51219 0.9786 0.43099 0.0
C584 C 0.45994 0.96343 0.43111 0.0
C585 C 0.42331 0.91178 0.43266 0.0
C586 C 0.5819 0.95574 0.43233 0.0
C587 C 0.44277 1.00181 0.42959 0.0
H588 H 0.62954 0.14014 0.44832 0.0
H589 H 0.6161 0.11868 0.40159 0.0
H590 H 0.51745 0.03128 0.45792 0.0
H591 H 0.56515 0.01368 0.45877 0.0
H592 H 0.57945 0.07558 0.46494 0.0
H593 H 0.56195 0.04036 0.39072 0.0
H594 H 0.55055 0.98645 0.40171 0.0
H595 H 0.50351 1.00494 0.40077 0.0
H596 H 0.50128 0.86252 0.43568 0.0
H597 H 0.38342 0.90021 0.43264 0.0
H598 H 0.60298 0.98327 0.44118 0.0
H599 H 0.59923 0.97439 0.42173 0.0
H600 H 0.58702 0.92239 0.43371 0.0
H601 H 0.46057 0.03111 0.43825 0.0
H602 H 0.40097 0.98426 0.43043 0.0
H603 H 0.45517 0.02135 0.41884 0.0
C604 C 0.52447 0.41185 0.77222 0.0
C605 C 0.56326 0.41973 0.76242 0.0
C606 C 0.50663 0.44642 0.77303 0.0
C607 C 0.5274 0.48928 0.76363 0.0
C608 C 0.56598 0.49684 0.75357 0.0
C609 C 0.58367 0.46231 0.75318 0.0
C610 C 0.46588 0.43734 0.78403 0.0
C611 C 0.58841 0.54128 0.74312 0.0
C612 C 0.44875 0.55108 0.75486 0.0
C613 C 0.47209 0.59518 0.76344 0.0
C614 C 0.46626 0.5164 0.75487 0.0
C615 C 0.50774 0.5254 0.76388 0.0
C616 C 0.53138 0.56971 0.77265 0.0
C617 C 0.51358 0.60436 0.77222 0.0
C618 C 0.44062 0.47033 0.74511 0.0
C619 C 0.57532 0.58036 0.78254 0.0
H620 H 0.50886 0.37931 0.77947 0.0
H621 H 0.61349 0.46858 0.74552 0.0
H622 H 0.47925 0.47062 0.79137 0.0
H623 H 0.43181 0.43269 0.77824 0.0
H624 H 0.45478 0.40318 0.79086 0.0
H625 H 0.61797 0.5416 0.7359 0.0
H626 H 0.55817 0.54024 0.7361 0.0
H627 H 0.60547 0.57725 0.74938 0.0
H628 H 0.41681 0.54377 0.74797 0.0
H629 H 0.53153 0.63811 0.77896 0.0
H630 H 0.42573 0.43539 0.75181 0.0
H631 H 0.4685 0.47025 0.73728 0.0
H632 H 0.40884 0.46885 0.73874 0.0
H633 H 0.56432 0.54815 0.79018 0.0
H634 H 0.58834 0.61544 0.78908 0.0
H635 H 0.60755 0.58426 0.77588 0.0
C636 C 0.51158 0.10189 0.59781 0.0
C637 C 0.5527 0.13474 0.60663 0.0
C638 C 0.49389 0.04944 0.59769 0.0
C639 C 0.51733 0.02926 0.60678 0.0
C640 C 0.55822 0.06224 0.61589 0.0
C641 C 0.57557 0.11442 0.61562 0.0
C642 C 0.45052 0.01565 0.58771 0.0
C643 C 0.58372 0.04242 0.62596 0.0
C644 C 0.44269 0.88982 0.61732 0.0
C645 C 0.46404 0.86835 0.60818 0.0
C646 C 0.45966 0.94193 0.61697 0.0
C647 C 0.49856 0.9736 0.60707 0.0
C648 C 0.52037 0.95223 0.5978 0.0
C649 C 0.50315 0.89994 0.59855 0.0
C650 C 0.436 0.96313 0.62725 0.0
C651 C 0.56158 0.98456 0.58699 0.0
H652 H 0.49397 0.1173 0.59075 0.0
H653 H 0.60722 0.13943 0.62253 0.0
H654 H 0.46245 0.99514 0.5801 0.0
H655 H 0.41842 0.98675 0.59429 0.0
H656 H 0.43696 0.0372 0.58112 0.0
H657 H 0.61461 0.07295 0.6325 0.0
H658 H 0.5555 0.01402 0.63363 0.0
H659 H 0.59981 0.02307 0.61945 0.0
H660 H 0.41257 0.86579 0.62484 0.0
H661 H 0.51952 0.88362 0.59135 0.0
H662 H 0.4187 0.98157 0.62085 0.0
H663 H 0.46557 0.99256 0.63436 0.0
H664 H 0.40638 0.93352 0.63436 0.0
H665 H 0.54809 1.00402 0.5795 0.0
H666 H 0.57377 0.96209 0.58031 0.0
H667 H 0.59498 0.01433 0.59293 0.0
C668 C 0.41328 0.52493 0.93864 0.0
C669 C 0.3942 0.52634 0.92471 0.0
C670 C 0.45175 0.51257 0.94029 0.0
C671 C 0.47173 0.50121 0.92774 0.0
C672 C 0.45242 0.50225 0.91367 0.0
C673 C 0.41401 0.51478 0.91233 0.0
C674 C 0.47107 0.51172 0.95549 0.0
C675 C 0.47236 0.49013 0.9 0.0
C676 C 0.60027 0.50786 0.92995 0.0
C677 C 0.58583 0.45666 0.93161 0.0
C678 C 0.56365 0.52307 0.92879 0.0
C679 C 0.51137 0.48625 0.92933 0.0
C680 C 0.49673 0.43465 0.93115 0.0
C681 C 0.53396 0.42057 0.93226 0.0
C682 C 0.58084 0.57847 0.92684 0.0
C683 C 0.44156 0.3941 0.93182 0.0
H684 H 0.39857 0.53408 0.94828 0.0
H685 H 0.3998 0.51591 0.90152 0.0
H686 H 0.46461 0.47333 0.95798 0.0
H687 H 0.51251 0.5382 0.95603 0.0
H688 H 0.45232 0.52237 0.96411 0.0
H689 H 0.45403 0.49346 0.88986 0.0
H690 H 0.51383 0.51603 0.89909 0.0
H691 H 0.46591 0.45103 0.90071 0.0
H692 H 0.64016 0.53603 0.92943 0.0
H693 H 0.52218 0.38089 0.93358 0.0
H694 H 0.56504 0.59131 0.93574 0.0
H695 H 0.56631 0.58435 0.91629 0.0
H696 H 0.62276 0.6025 0.92691 0.0
H697 H 0.42232 0.4022 0.94088 0.0
H698 H 0.43642 0.35576 0.93354 0.0
H699 H 0.42236 0.39393 0.92146 0.0
C700 C 0.11089 0.59833 0.26003 0.0
C701 C 0.14378 0.58719 0.26783 0.0
C702 C 0.0584 0.56378 0.25966 0.0
C703 C 0.03828 0.51741 0.26746 0.0
C704 C 0.07136 0.50628 0.27543 0.0
C705 C 0.12356 0.54104 0.27543 0.0
C706 C 0.02445 0.57682 0.25091 0.0
C707 C 0.05155 0.45782 0.28413 0.0
C708 C 0.90012 0.45156 0.27929 0.0
C709 C 0.8771 0.41154 0.26922 0.0
C710 C 0.95234 0.48617 0.27881 0.0
C711 C 0.98249 0.48128 0.26783 0.0
C712 C 0.95954 0.44101 0.25758 0.0
C713 C 0.90716 0.40634 0.25847 0.0
C714 C 0.97528 0.52784 0.29013 0.0
C715 C 0.99029 0.43481 0.24562 0.0
H716 H 0.12623 0.6337 0.25404 0.0
H717 H 0.14861 0.53213 0.28155 0.0
H718 H 1.00252 0.54656 0.24278 0.0
H719 H 0.99674 0.57909 0.25831 0.0
H720 H 0.0461 0.61342 0.24499 0.0
H721 H 0.0823 0.45468 0.28968 0.0
H722 H 0.02438 0.45579 0.29259 0.0
H723 H 0.03075 0.4247 0.2768 0.0
H724 H 0.87726 0.45578 0.28768 0.0
H725 H 0.88959 0.37581 0.25057 0.0
H726 H 0.99389 0.5653 0.28462 0.0
H727 H 1.00491 0.525 0.29642 0.0
H728 H 0.94664 0.52635 0.29797 0.0
H729 H 1.00969 0.46985 0.23892 0.0
H730 H 0.96663 0.40245 0.23826 0.0
H731 H 0.02012 0.42877 0.25055 0.0
C732 C 0.61897 0.50702 0.10244 0.0
C733 C 0.6066 0.46088 0.09577 0.0
C734 C 0.58467 0.52528 0.10228 0.0
C735 C 0.53749 0.49723 0.09499 0.0
C736 C 0.52535 0.45108 0.08803 0.0
C737 C 0.55976 0.43331 0.08863 0.0
C738 C 0.59866 0.57429 0.11 0.0
C739 C 0.47608 0.42054 0.07985 0.0
C740 C 0.42655 0.51788 0.10346 0.0
C741 C 0.4304 0.55056 0.09206 0.0
C742 C 0.46182 0.50109 0.10476 0.0
C743 C 0.50117 0.51652 0.09424 0.0
C744 C 0.50466 0.54889 0.0826 0.0
C745 C 0.46959 0.56585 0.08174 0.0
C746 C 0.45721 0.46714 0.11743 0.0
C747 C 0.5452 0.5653 0.07095 0.0
H748 H 0.65492 0.52827 0.10807 0.0
H749 H 0.55005 0.39775 0.08335 0.0
H750 H 0.5997 0.60225 0.10201 0.0
H751 H 0.56947 0.56786 0.11834 0.0
H752 H 0.63608 0.59084 0.11552 0.0
H753 H 0.47265 0.38573 0.07488 0.0
H754 H 0.44364 0.40945 0.08741 0.0
H755 H 0.47299 0.44386 0.071 0.0
H756 H 0.39668 0.50637 0.11156 0.0
H757 H 0.47271 0.59097 0.07287 0.0
H758 H 0.4931 0.48441 0.12376 0.0
H759 H 0.45066 0.43022 0.11324 0.0
H760 H 0.42574 0.46015 0.12499 0.0
H761 H 0.58323 0.58558 0.07609 0.0
H762 H 0.54265 0.59047 0.06259 0.0
H763 H 0.54198 0.5316 0.06531 0.0
C764 C 0.9191 0.41665 0.43249 0.0
C765 C 0.88223 0.43075 0.43455 0.0
C766 C 0.97074 0.4535 0.43106 0.0
C767 C 0.98574 0.50565 0.43143 0.0
C768 C 0.9486 0.51995 0.43347 0.0
C769 C 0.89756 0.48247 0.43512 0.0
C770 C 1.00926 0.43666 0.42914 0.0
C771 C 0.96263 0.57496 0.43368 0.0
C772 C 0.12291 0.60515 0.43962 0.0
C773 C 0.14277 0.62144 0.42547 0.0
C774 C 0.07213 0.56713 0.44172 0.0
C775 C 0.04006 0.54542 0.4294 0.0
C776 C 0.0596 0.5626 0.41511 0.0
C777 C 0.11071 0.6 0.41332 0.0
C778 C 0.05301 0.54958 0.45712 0.0
C779 C 0.02653 0.54133 0.40169 0.0
H780 H 0.90765 0.37684 0.43208 0.0
H781 H 0.86943 0.49391 0.4366 0.0
H782 H 0.02869 0.45007 0.4184 0.0
H783 H 0.03865 0.45374 0.4378 0.0
H784 H 0.99182 0.39485 0.42964 0.0
H785 H 0.92922 0.57983 0.43536 0.0
H786 H 0.99032 0.59523 0.44257 0.0
H787 H 0.98109 0.59331 0.42316 0.0
H788 H 0.14747 0.62105 0.44908 0.0
H789 H 0.12566 0.61233 0.40235 0.0
H790 H 0.03869 0.50836 0.45811 0.0
H791 H 0.02084 0.55574 0.45956 0.0
H792 H 0.08287 0.56969 0.46553 0.0
H793 H 1.01186 0.50001 0.40096 0.0
H794 H 0.04719 0.55938 0.39137 0.0
H795 H 0.9933 0.54683 0.40257 0.0
C796 C 0.5958 0.12379 0.75436 0.0
C797 C 0.56986 0.14354 0.76217 0.0
C798 C 0.57904 0.07176 0.75442 0.0
C799 C 0.53557 0.03847 0.76265 0.0
C800 C 0.50932 0.05814 0.77066 0.0
C801 C 0.52653 0.11043 0.77022 0.0
C802 C 0.60759 0.05235 0.7455 0.0
C803 C 0.46311 0.02394 0.77969 0.0
C804 C 0.46308 0.90018 0.75127 0.0
C805 C 0.48075 0.87756 0.76129 0.0
C806 C 0.48071 0.95235 0.75159 0.0
C807 C 0.51649 0.98287 0.76234 0.0
C808 C 0.5347 0.96037 0.77248 0.0
C809 C 0.5169 0.90799 0.77177 0.0
C810 C 0.46099 0.97481 0.74039 0.0
C811 C 0.57252 0.99157 0.78419 0.0
H812 H 0.62922 0.14905 0.74806 0.0
H813 H 0.50655 0.12546 0.77638 0.0
H814 H 0.62076 0.03196 0.75272 0.0
H815 H 0.58208 0.02494 0.73717 0.0
H816 H 0.64093 0.08326 0.73978 0.0
H817 H 0.44816 0.04531 0.78574 0.0
H818 H 0.43279 0.99592 0.77246 0.0
H819 H 0.47239 1.00242 0.78772 0.0
H820 H 0.43531 0.877 0.74309 0.0
H821 H 0.53036 0.8907 0.77962 0.0
H822 H 0.49295 1.00463 0.73397 0.0
H823 H 0.44198 0.99304 0.74603 0.0
H824 H 0.43367 0.94598 0.73265 0.0
H825 H 0.60774 0.02167 0.77902 0.0
H826 H 0.58233 0.96833 0.79139 0.0
H827 H 0.55698 0.01059 0.79109 0.0
C828 C 0.50495 0.5988 0.60216 0.0
C829 C 0.46223 0.58948 0.59394 0.0
C830 C 0.52236 0.56383 0.6023 0.0
C831 C 0.49684 0.5188 0.59389 0.0
C832 C 0.45417 0.50965 0.58543 0.0
C833 C 0.43729 0.54485 0.58563 0.0
C834 C 0.56782 0.57485 0.61154 0.0
C835 C 0.42631 0.46264 0.57613 0.0
C836 C 0.56878 0.45197 0.58268 0.0
C837 C 0.54983 0.41101 0.59251 0.0
C838 C 0.55189 0.48716 0.58303 0.0
C839 C 0.51542 0.48179 0.59358 0.0
C840 C 0.49593 0.44045 0.60352 0.0
C841 C 0.51313 0.40536 0.60282 0.0
C842 C 0.5731 0.53011 0.57206 0.0
C843 C 0.45723 0.43356 0.61499 0.0
H844 H 0.52421 0.63296 0.6087 0.0
H845 H 0.40435 0.53734 0.57919 0.0
H846 H 0.55755 0.54369 0.61952 0.0
H847 H 0.59838 0.57684 0.60445 0.0
H848 H 0.58286 0.611 0.61767 0.0
H849 H 0.39388 0.46119 0.57013 0.0
H850 H 0.45261 0.46106 0.56799 0.0
H851 H 0.41189 0.4284 0.58313 0.0
H852 H 0.59702 0.45662 0.57463 0.0
H853 H 0.49857 0.37409 0.61052 0.0
H854 H 0.59177 0.56692 0.5779 0.0
H855 H 0.54196 0.52875 0.56542 0.0
H856 H 0.60106 0.52882 0.56451 0.0
H857 H 0.47242 0.4677 0.62205 0.0
H858 H 0.44646 0.40002 0.62208 0.0
H859 H 0.42262 0.42914 0.60961 0.0
C860 C 0.12192 0.58625 0.94839 0.0
C861 C 0.14171 0.56171 0.93991 0.0
C862 C 0.06984 0.56952 0.94856 0.0
C863 C 0.03644 0.52755 0.93986 0.0
C864 C 0.05608 0.50245 0.93128 0.0
C865 C 0.10843 0.51956 0.9315 0.0
C866 C 0.05054 0.59679 0.95809 0.0
C867 C 0.02182 0.45787 0.92175 0.0
C868 C 0.89705 0.455 0.95054 0.0
C869 C 0.8756 0.47503 0.94089 0.0
C870 C 0.94916 0.47186 0.95034 0.0
C871 C 0.98086 0.50928 0.94008 0.0
C872 C 0.95956 0.5299 0.93034 0.0
C873 C 0.90724 0.51284 0.93094 0.0
C874 C 0.97029 0.44955 0.96113 0.0
C875 C 0.99196 0.56951 0.91915 0.0
H876 H 0.14727 0.61872 0.95498 0.0
H877 H 0.12344 0.50066 0.92483 0.0
H878 H 0.0313 0.61213 0.95122 0.0
H879 H 0.02214 0.56989 0.96601 0.0
H880 H 0.08138 0.62846 0.96433 0.0
H881 H 0.04302 0.44314 0.91549 0.0
H882 H 0.99287 0.42685 0.92862 0.0
H883 H 1.00136 0.46896 0.91385 0.0
H884 H 0.87296 0.42591 0.95832 0.0
H885 H 0.89093 0.52818 0.92336 0.0
H886 H 1.0001 0.48004 0.96793 0.0
H887 H 0.98827 0.43098 0.95513 0.0
H888 H 0.9407 0.42126 0.96854 0.0
H889 H 0.02212 0.60348 0.92477 0.0
H890 H 0.9696 0.58114 0.91219 0.0
H891 H 1.01096 0.55473 0.91194 0.0
C892 C 0.4636 0.88968 0.27868 0.0
C893 C 0.42096 0.86846 0.26949 0.0
C894 C 0.49846 0.94181 0.27852 0.0
C895 C 0.49112 0.97366 0.26875 0.0
C896 C 0.44815 0.95253 0.25942 0.0
C897 C 0.41329 0.9002 0.25999 0.0
C898 C 0.54307 0.96282 0.28889 0.0
C899 C 0.43931 0.98515 0.24873 0.0
C900 C 0.554 0.11372 0.27793 0.0
C901 C 0.59762 0.13453 0.26911 0.0
C902 C 0.51924 0.06157 0.27793 0.0
C903 C 0.5277 0.02926 0.26868 0.0
C904 C 0.57167 0.04996 0.25973 0.0
C905 C 0.6064 0.10234 0.26015 0.0
C906 C 0.47352 0.04103 0.28788 0.0
C907 C 0.58173 0.01683 0.2496 0.0
H908 H 0.46969 0.86545 0.28611 0.0
H909 H 0.38067 0.88399 0.25278 0.0
H910 H 0.57899 0.98175 0.28257 0.0
H911 H 0.54253 0.99182 0.29611 0.0
H912 H 0.54311 0.93302 0.2959 0.0
H913 H 0.40488 0.9628 0.24195 0.0
H914 H 0.43522 0.01447 0.25477 0.0
H915 H 0.47247 1.00517 0.24132 0.0
H916 H 0.54706 0.1383 0.28495 0.0
H917 H 0.63979 0.11823 0.25322 0.0
H918 H 0.47327 0.0124 0.29546 0.0
H919 H 0.43832 0.02179 0.28128 0.0
H920 H 0.47272 0.07116 0.29452 0.0
H921 H 0.58509 0.98782 0.25606 0.0
H922 H 0.61692 0.03886 0.24307 0.0
H923 H 0.54944 0.99644 0.24194 0.0
loop_
_geom_bond_atom_site_label_1
_geom_bond_atom_site_label_2
_geom_bond_distance
_geom_bond_site_symmetry_2
_ccdc_geom_bond_type
Mg0 O7 2.141 . S
Mg0 O8 2.048 . S
Mg0 O9 2.048 . S
Mg0 O12 2.141 . S
C1 O2 1.313 . S
C1 O8 1.195 . S
O2 C1 1.313 . S
C3 O4 1.245 . S
C3 O12 1.289 . S
O4 C3 1.245 . S
C5 O6 1.245 . S
C5 O7 1.289 . S
O6 C5 1.245 . S
O7 Mg0 2.141 . S
O7 C5 1.289 . S
O8 Mg0 2.048 . S
O8 C1 1.195 . S
O9 Mg0 2.048 . S
O9 C10 1.195 . S
C10 O9 1.195 . S
C10 O11 1.313 . S
O11 C10 1.313 . S
O12 Mg0 2.141 . S
O12 C3 1.289 . S
Mg13 O20 2.141 . S
Mg13 O21 2.048 . S
Mg13 O22 2.048 . S
Mg13 O25 2.141 . S
C14 O15 1.313 . S
C14 O21 1.195 . S
O15 C14 1.313 . S
C16 O17 1.245 . S
C16 O25 1.289 . S
O17 C16 1.245 . S
C18 O19 1.245 . S
C18 O20 1.289 . S
O19 C18 1.245 . S
O20 Mg13 2.141 . S
O20 C18 1.289 . S
O21 Mg13 2.048 . S
O21 C14 1.195 . S
O22 Mg13 2.048 . S
O22 C23 1.195 . S
C23 O22 1.195 . S
C23 O24 1.313 . S
O24 C23 1.313 . S
O25 Mg13 2.141 . S
O25 C16 1.289 . S
Mg26 O33 2.141 . S
Mg26 O34 2.048 . S
Mg26 O35 2.048 . S
Mg26 O38 2.141 . S
C27 O28 1.313 . S
C27 O34 1.195 . S
O28 C27 1.313 . S
C29 O30 1.245 . S
C29 O38 1.289 . S
O30 C29 1.245 . S
C31 O32 1.245 . S
C31 O33 1.289 . S
O32 C31 1.245 . S
O33 Mg26 2.141 . S
O33 C31 1.289 . S
O34 Mg26 2.048 . S
O34 C27 1.195 . S
O35 Mg26 2.048 . S
O35 C36 1.195 . S
C36 O35 1.195 . S
C36 O37 1.313 . S
O37 C36 1.313 . S
O38 Mg26 2.141 . S
O38 C29 1.289 . S
Mg39 O46 2.141 . S
Mg39 O47 2.048 . S
Mg39 O48 2.048 . S
Mg39 O51 2.141 . S
C40 O41 1.313 . S
C40 O47 1.195 . S
O41 C40 1.313 . S
C42 O43 1.245 . S
C42 O51 1.289 . S
O43 C42 1.245 . S
C44 O45 1.245 . S
C44 O46 1.289 . S
O45 C44 1.245 . S
O46 Mg39 2.141 . S
O46 C44 1.289 . S
O47 Mg39 2.048 . S
O47 C40 1.195 . S
O48 Mg39 2.048 . S
O48 C49 1.195 . S
C49 O48 1.195 . S
C49 O50 1.313 . S
O50 C49 1.313 . S
O51 Mg39 2.141 . S
O51 C42 1.289 . S
Mg52 O59 2.141 . S
Mg52 O60 2.048 . S
Mg52 O61 2.048 . S
Mg52 O64 2.141 . S
C53 O54 1.313 . S
C53 O60 1.195 . S
O54 C53 1.313 . S
C55 O56 1.245 . S
C55 O64 1.289 . S
O56 C55 1.245 . S
C57 O58 1.245 . S
C57 O59 1.289 . S
O58 C57 1.245 . S
O59 Mg52 2.141 . S
O59 C57 1.289 . S
O60 Mg52 2.048 . S
O60 C53 1.195 . S
O61 Mg52 2.048 . S
O61 C62 1.195 . S
C62 O61 1.195 . S
C62 O63 1.313 . S
O63 C62 1.313 . S
O64 Mg52 2.141 . S
O64 C55 1.289 . S
Mg65 O72 2.141 . S
Mg65 O73 2.048 . S
Mg65 O74 2.048 . S
Mg65 O77 2.141 . S
C66 O67 1.313 . S
C66 O73 1.195 . S
O67 C66 1.313 . S
C68 O69 1.245 . S
C68 O77 1.289 . S
O69 C68 1.245 . S
C70 O71 1.245 . S
C70 O72 1.289 . S
O71 C70 1.245 . S
O72 Mg65 2.141 . S
O72 C70 1.289 . S
O73 Mg65 2.048 . S
O73 C66 1.195 . S
O74 Mg65 2.048 . S
O74 C75 1.195 . S
C75 O74 1.195 . S
C75 O76 1.313 . S
O76 C75 1.313 . S
O77 Mg65 2.141 . S
O77 C68 1.289 . S
Mg78 O85 2.141 . S
Mg78 O86 2.048 . S
Mg78 O87 2.048 . S
Mg78 O90 2.141 . S
C79 O80 1.313 . S
C79 O86 1.195 . S
O80 C79 1.313 . S
C81 O82 1.245 . S
C81 O90 1.289 . S
O82 C81 1.245 . S
C83 O84 1.245 . S
C83 O85 1.289 . S
O84 C83 1.245 . S
O85 Mg78 2.141 . S
O85 C83 1.289 . S
O86 Mg78 2.048 . S
O86 C79 1.195 . S
O87 Mg78 2.048 . S
O87 C88 1.195 . S
C88 O87 1.195 . S
C88 O89 1.313 . S
O89 C88 1.313 . S
O90 Mg78 2.141 . S
O90 C81 1.289 . S
Mg91 O98 2.141 . S
Mg91 O99 2.048 . S
Mg91 O100 2.048 . S
Mg91 O103 2.141 . S
C92 O93 1.313 . S
C92 O99 1.195 . S
O93 C92 1.313 . S
C94 O95 1.245 . S
C94 O103 1.289 . S
O95 C94 1.245 . S
C96 O97 1.245 . S
C96 O98 1.289 . S
O97 C96 1.245 . S
O98 Mg91 2.141 . S
O98 C96 1.289 . S
O99 Mg91 2.048 . S
O99 C92 1.195 . S
O100 Mg91 2.048 . S
O100 C101 1.195 . S
C101 O100 1.195 . S
C101 O102 1.313 . S
O102 C101 1.313 . S
O103 Mg91 2.141 . S
O103 C94 1.289 . S
Mg104 O111 2.141 . S
Mg104 O112 2.048 . S
Mg104 O113 2.048 . S
Mg104 O116 2.141 . S
C105 O106 1.313 . S
C105 O112 1.195 . S
O106 C105 1.313 . S
C107 O108 1.245 . S
C107 O116 1.289 . S
O108 C107 1.245 . S
C109 O110 1.245 . S
C109 O111 1.289 . S
O110 C109 1.245 . S
O111 Mg104 2.141 . S
O111 C109 1.289 . S
O112 Mg104 2.048 . S
O112 C105 1.195 . S
O113 Mg104 2.048 . S
O113 C114 1.195 . S
C114 O113 1.195 . S
C114 O115 1.313 . S
O115 C114 1.313 . S
O116 Mg104 2.141 . S
O116 C107 1.289 . S
Mg117 O124 2.141 . S
Mg117 O125 2.048 . S
Mg117 O126 2.048 . S
Mg117 O129 2.141 . S
C118 O119 1.313 . S
C118 O125 1.195 . S
O119 C118 1.313 . S
C120 O121 1.245 . S
C120 O129 1.289 . S
O121 C120 1.245 . S
C122 O123 1.245 . S
C122 O124 1.289 . S
O123 C122 1.245 . S
O124 Mg117 2.141 . S
O124 C122 1.289 . S
O125 Mg117 2.048 . S
O125 C118 1.195 . S
O126 Mg117 2.048 . S
O126 C127 1.195 . S
C127 O126 1.195 . S
C127 O128 1.313 . S
O128 C127 1.313 . S
O129 Mg117 2.141 . S
O129 C120 1.289 . S
Mg130 O137 2.141 . S
Mg130 O138 2.048 . S
Mg130 O139 2.048 . S
Mg130 O142 2.141 . S
C131 O132 1.313 . S
C131 O138 1.195 . S
O132 C131 1.313 . S
C133 O134 1.245 . S
C133 O142 1.289 . S
O134 C133 1.245 . S
C135 O136 1.245 . S
C135 O137 1.289 . S
O136 C135 1.245 . S
O137 Mg130 2.141 . S
O137 C135 1.289 . S
O138 Mg130 2.048 . S
O138 C131 1.195 . S
O139 Mg130 2.048 . S
O139 C140 1.195 . S
C140 O139 1.195 . S
C140 O141 1.313 . S
O141 C140 1.313 . S
O142 Mg130 2.141 . S
O142 C133 1.289 . S
Mg143 O150 2.141 . S
Mg143 O151 2.048 . S
Mg143 O152 2.048 . S
Mg143 O155 2.141 . S
C144 O145 1.313 . S
C144 O151 1.195 . S
O145 C144 1.313 . S
C146 O147 1.245 . S
C146 O155 1.289 . S
O147 C146 1.245 . S
C148 O149 1.245 . S
C148 O150 1.289 . S
O149 C148 1.245 . S
O150 Mg143 2.141 . S
O150 C148 1.289 . S
O151 Mg143 2.048 . S
O151 C144 1.195 . S
O152 Mg143 2.048 . S
O152 C153 1.195 . S
C153 O152 1.195 . S
C153 O154 1.313 . S
O154 C153 1.313 . S
O155 Mg143 2.141 . S
O155 C146 1.289 . S
C156 C157 1.391 . S
C156 C158 1.394 . S
C156 H172 0.931 . S
C157 C156 1.391 . S
C157 C161 1.376 . S
C158 C156 1.394 . S
C158 C159 1.369 . S
C158 C162 1.531 . S
C159 C158 1.369 . S
C159 C160 1.410 . S
C159 C167 1.503 1_556 S
C160 C159 1.410 . S
C160 C161 1.392 . S
C160 C163 1.511 . S
C161 C157 1.376 . S
C161 C160 1.392 . S
C161 H173 0.929 . S
C162 C158 1.531 . S
C162 H174 0.960 1_556 S
C162 H175 0.962 . S
C162 H176 0.960 . S
C163 C160 1.511 . S
C163 H177 0.961 . S
C163 H178 0.961 1_556 S
C163 H179 0.961 . S
C164 C165 1.370 . S
C164 C166 1.363 . S
C164 H180 0.931 . S
C165 C164 1.370 . S
C165 C169 1.408 . S
C166 C164 1.363 . S
C166 C167 1.370 . S
C166 C170 1.524 . S
C167 C159 1.503 1_554 S
C167 C166 1.370 . S
C167 C168 1.403 . S
C168 C167 1.403 . S
C168 C169 1.404 . S
C168 C171 1.539 . S
C169 C165 1.408 . S
C169 C168 1.404 . S
C169 H181 0.930 . S
C170 C166 1.524 . S
C170 H182 0.980 . S
C170 H183 0.918 1_554 S
C170 H184 0.961 . S
C171 C168 1.539 . S
C171 H185 0.958 . S
C171 H186 0.961 . S
C171 H187 0.971 . S
H172 C156 0.931 . S
H173 C161 0.929 . S
H174 C162 0.960 1_554 S
H175 C162 0.962 . S
H176 C162 0.960 . S
H177 C163 0.961 . S
H178 C163 0.961 1_554 S
H179 C163 0.961 . S
H180 C164 0.931 . S
H181 C169 0.930 . S
H182 C170 0.980 . S
H183 C170 0.918 1_556 S
H184 C170 0.961 . S
H185 C171 0.958 . S
H186 C171 0.961 . S
H187 C171 0.971 . S
C188 C189 1.391 . S
C188 C190 1.394 . S
C188 H204 0.931 . S
C189 C188 1.391 . S
C189 C193 1.376 . S
C190 C188 1.394 . S
C190 C191 1.369 . S
C190 C194 1.531 . S
C191 C190 1.369 . S
C191 C192 1.410 . S
C191 C199 1.503 . S
C192 C191 1.410 . S
C192 C193 1.392 . S
C192 C195 1.511 . S
C193 C189 1.376 . S
C193 C192 1.392 . S
C193 H205 0.929 . S
C194 C190 1.531 . S
C194 H206 0.960 . S
C194 H207 0.962 . S
C194 H208 0.960 . S
C195 C192 1.511 . S
C195 H209 0.961 . S
C195 H210 0.961 . S
C195 H211 0.961 . S
C196 C197 1.370 . S
C196 C198 1.363 . S
C196 H212 0.931 . S
C197 C196 1.370 . S
C197 C201 1.408 . S
C198 C196 1.363 . S
C198 C199 1.370 . S
C198 C202 1.524 . S
C199 C191 1.503 . S
C199 C198 1.370 . S
C199 C200 1.403 . S
C200 C199 1.403 . S
C200 C201 1.404 . S
C200 C203 1.539 . S
C201 C197 1.408 . S
C201 C200 1.404 . S
C201 H213 0.930 . S
C202 C198 1.524 . S
C202 H214 0.956 . S
C202 H215 0.961 . S
C202 H216 0.961 . S
C203 C200 1.539 . S
C203 H217 0.958 . S
C203 H218 0.961 . S
C203 H219 0.960 . S
H204 C188 0.931 . S
H205 C193 0.929 . S
H206 C194 0.960 . S
H207 C194 0.962 . S
H208 C194 0.960 . S
H209 C195 0.961 . S
H210 C195 0.961 . S
H211 C195 0.961 . S
H212 C196 0.931 . S
H213 C201 0.930 . S
H214 C202 0.956 . S
H215 C202 0.961 . S
H216 C202 0.961 . S
H217 C203 0.958 . S
H218 C203 0.961 . S
H219 C203 0.960 . S
C220 C221 1.391 . S
C220 C222 1.394 . S
C220 H236 0.931 . S
C221 C220 1.391 . S
C221 C225 1.376 . S
C222 C220 1.394 . S
C222 C223 1.369 . S
C222 C226 1.531 . S
C223 C222 1.369 . S
C223 C224 1.410 . S
C223 C231 1.503 . S
C224 C223 1.410 . S
C224 C225 1.392 . S
C224 C227 1.511 . S
C225 C221 1.376 . S
C225 C224 1.392 . S
C225 H237 0.929 . S
C226 C222 1.531 . S
C226 H238 0.960 . S
C226 H239 0.962 . S
C226 H240 0.960 . S
C227 C224 1.511 . S
C227 H241 0.961 . S
C227 H242 0.961 . S
C227 H243 0.961 . S
C228 C229 1.370 . S
C228 C230 1.363 . S
C228 H244 0.931 . S
C229 C228 1.370 . S
C229 C233 1.408 . S
C230 C228 1.363 . S
C230 C231 1.370 . S
C230 C234 1.524 . S
C231 C223 1.503 . S
C231 C230 1.370 . S
C231 C232 1.403 . S
C232 C231 1.403 . S
C232 C233 1.404 . S
C232 C235 1.539 . S
C233 C229 1.408 . S
C233 C232 1.404 . S
C233 H245 0.930 . S
C234 C230 1.524 . S
C234 H246 0.956 . S
C234 H247 0.961 . S
C234 H248 0.961 . S
C235 C232 1.539 . S
C235 H249 0.958 . S
C235 H250 0.961 . S
C235 H251 0.960 . S
H236 C220 0.931 . S
H237 C225 0.929 . S
H238 C226 0.960 . S
H239 C226 0.962 . S
H240 C226 0.960 . S
H241 C227 0.961 . S
H242 C227 0.961 . S
H243 C227 0.961 . S
H244 C228 0.931 . S
H245 C233 0.930 . S
H246 C234 0.956 . S
H247 C234 0.961 . S
H248 C234 0.961 . S
H249 C235 0.958 . S
H250 C235 0.961 . S
H251 C235 0.960 . S
C252 C253 1.391 . S
C252 C254 1.394 . S
C252 H268 0.931 . S
C253 C252 1.391 . S
C253 C257 1.376 . S
C254 C252 1.394 . S
C254 C255 1.369 . S
C254 C258 1.531 . S
C255 C254 1.369 . S
C255 C256 1.410 . S
C255 C263 1.503 1_554 S
C256 C255 1.410 . S
C256 C257 1.392 . S
C256 C259 1.511 . S
C257 C253 1.376 . S
C257 C256 1.392 . S
C257 H269 0.929 . S
C258 C254 1.531 . S
C258 H270 0.960 1_554 S
C258 H271 0.962 . S
C258 H272 0.960 . S
C259 C256 1.511 . S
C259 H273 0.961 . S
C259 H274 0.961 1_554 S
C259 H275 0.961 . S
C260 C261 1.370 . S
C260 C262 1.363 . S
C260 H276 0.931 . S
C261 C260 1.370 . S
C261 C265 1.408 . S
C262 C260 1.363 . S
C262 C263 1.370 . S
C262 C266 1.524 . S
C263 C255 1.503 1_556 S
C263 C262 1.370 . S
C263 C264 1.403 . S
C264 C263 1.403 . S
C264 C265 1.404 . S
C264 C267 1.539 . S
C265 C261 1.408 . S
C265 C264 1.404 . S
C265 H277 0.930 . S
C266 C262 1.524 . S
C266 H278 0.980 . S
C266 H279 0.918 1_556 S
C266 H280 0.961 . S
C267 C264 1.539 . S
C267 H281 0.958 . S
C267 H282 0.961 . S
C267 H283 0.971 . S
H268 C252 0.931 . S
H269 C257 0.929 . S
H270 C258 0.960 1_556 S
H271 C258 0.962 . S
H272 C258 0.960 . S
H273 C259 0.961 . S
H274 C259 0.961 1_556 S
H275 C259 0.961 . S
H276 C260 0.931 . S
H277 C265 0.930 . S
H278 C266 0.980 . S
H279 C266 0.918 1_554 S
H280 C266 0.961 . S
H281 C267 0.958 . S
H282 C267 0.961 . S
H283 C267 0.971 . S
C284 C285 1.391 . S
C284 C286 1.394 . S
C284 H300 0.931 . S
C285 C284 1.391 . S
C285 C289 1.376 . S
C286 C284 1.394 . S
C286 C287 1.369 . S
C286 C290 1.531 . S
C287 C286 1.369 . S
C287 C288 1.410 . S
C287 C295 1.503 . S
C288 C287 1.410 . S
C288 C289 1.392 . S
C288 C291 1.511 . S
C289 C285 1.376 . S
C289 C288 1.392 . S
C289 H301 0.929 . S
C290 C286 1.531 . S
C290 H302 0.960 . S
C290 H303 0.962 . S
C290 H304 0.960 . S
C291 C288 1.511 . S
C291 H305 0.961 . S
C291 H306 0.961 . S
C291 H307 0.961 . S
C292 C293 1.370 . S
C292 C294 1.363 . S
C292 H308 0.931 . S
C293 C292 1.370 . S
C293 C297 1.408 . S
C294 C292 1.363 . S
C294 C295 1.370 . S
C294 C298 1.524 . S
C295 C287 1.503 . S
C295 C294 1.370 . S
C295 C296 1.403 . S
C296 C295 1.403 . S
C296 C297 1.404 . S
C296 C299 1.539 . S
C297 C293 1.408 . S
C297 C296 1.404 . S
C297 H309 0.930 . S
C298 C294 1.524 . S
C298 H310 0.956 . S
C298 H311 0.961 . S
C298 H312 0.961 . S
C299 C296 1.539 . S
C299 H313 0.958 . S
C299 H314 0.961 . S
C299 H315 0.960 . S
H300 C284 0.931 . S
H301 C289 0.929 . S
H302 C290 0.960 . S
H303 C290 0.962 . S
H304 C290 0.960 . S
H305 C291 0.961 . S
H306 C291 0.961 . S
H307 C291 0.961 . S
H308 C292 0.931 . S
H309 C297 0.930 . S
H310 C298 0.956 . S
H311 C298 0.961 . S
H312 C298 0.961 . S
H313 C299 0.958 . S
H314 C299 0.961 . S
H315 C299 0.960 . S
C316 C317 1.391 . S
C316 C318 1.394 . S
C316 H332 0.931 . S
C317 C316 1.391 . S
C317 C321 1.376 . S
C318 C316 1.394 . S
C318 C319 1.369 . S
C318 C322 1.531 . S
C319 C318 1.369 . S
C319 C320 1.410 . S
C319 C327 1.503 . S
C320 C319 1.410 . S
C320 C321 1.392 . S
C320 C323 1.511 . S
C321 C317 1.376 . S
C321 C320 1.392 . S
C321 H333 0.929 . S
C322 C318 1.531 . S
C322 H334 0.960 . S
C322 H335 0.962 . S
C322 H336 0.960 . S
C323 C320 1.511 . S
C323 H337 0.961 . S
C323 H338 0.961 . S
C323 H339 0.961 . S
C324 C325 1.370 . S
C324 C326 1.363 . S
C324 H340 0.931 . S
C325 C324 1.370 . S
C325 C329 1.408 . S
C326 C324 1.363 . S
C326 C327 1.370 . S
C326 C330 1.524 . S
C327 C319 1.503 . S
C327 C326 1.370 . S
C327 C328 1.403 . S
C328 C327 1.403 . S
C328 C329 1.404 . S
C328 C331 1.539 . S
C329 C325 1.408 . S
C329 C328 1.404 . S
C329 H341 0.930 . S
C330 C326 1.524 . S
C330 H342 0.956 . S
C330 H343 0.961 . S
C330 H344 0.961 . S
C331 C328 1.539 . S
C331 H345 0.958 . S
C331 H346 0.961 . S
C331 H347 0.960 . S
H332 C316 0.931 . S
H333 C321 0.929 . S
H334 C322 0.960 . S
H335 C322 0.962 . S
H336 C322 0.960 . S
H337 C323 0.961 . S
H338 C323 0.961 . S
H339 C323 0.961 . S
H340 C324 0.931 . S
H341 C329 0.930 . S
H342 C330 0.956 . S
H343 C330 0.961 . S
H344 C330 0.961 . S
H345 C331 0.958 . S
H346 C331 0.961 . S
H347 C331 0.960 . S
C348 C349 1.391 . S
C348 C350 1.394 . S
C348 H364 0.931 . S
C349 C348 1.391 . S
C349 C353 1.376 . S
C350 C348 1.394 . S
C350 C351 1.369 . S
C350 C354 1.531 . S
C351 C350 1.369 . S
C351 C352 1.410 . S
C351 C359 1.503 . S
C352 C351 1.410 . S
C352 C353 1.392 . S
C352 C355 1.511 . S
C353 C349 1.376 . S
C353 C352 1.392 . S
C353 H365 0.929 . S
C354 C350 1.531 . S
C354 H366 0.960 . S
C354 H367 0.962 . S
C354 H368 0.960 . S
C355 C352 1.511 . S
C355 H369 0.961 . S
C355 H370 0.961 . S
C355 H371 0.961 . S
C356 C357 1.370 . S
C356 C358 1.363 . S
C356 H372 0.931 . S
C357 C356 1.370 . S
C357 C361 1.408 . S
C358 C356 1.363 . S
C358 C359 1.370 . S
C358 C362 1.524 . S
C359 C351 1.503 . S
C359 C358 1.370 . S
C359 C360 1.403 . S
C360 C359 1.403 . S
C360 C361 1.404 . S
C360 C363 1.539 . S
C361 C357 1.408 . S
C361 C360 1.404 . S
C361 H373 0.930 . S
C362 C358 1.524 . S
C362 H374 0.956 . S
C362 H375 0.961 . S
C362 H376 0.961 . S
C363 C360 1.539 . S
C363 H377 0.958 . S
C363 H378 0.961 . S
C363 H379 0.960 . S
H364 C348 0.931 . S
H365 C353 0.929 . S
H366 C354 0.960 . S
H367 C354 0.962 . S
H368 C354 0.960 . S
H369 C355 0.961 . S
H370 C355 0.961 . S
H371 C355 0.961 . S
H372 C356 0.931 . S
H373 C361 0.930 . S
H374 C362 0.956 . S
H375 C362 0.961 . S
H376 C362 0.961 . S
H377 C363 0.958 . S
H378 C363 0.961 . S
H379 C363 0.960 . S
C380 C381 1.391 . S
C380 C382 1.394 . S
C380 H396 0.931 . S
C381 C380 1.391 . S
C381 C385 1.376 . S
C382 C380 1.394 . S
C382 C383 1.369 . S
C382 C386 1.531 . S
C383 C382 1.369 . S
C383 C384 1.410 . S
C383 C391 1.503 . S
C384 C383 1.410 . S
C384 C385 1.392 . S
C384 C387 1.511 . S
C385 C381 1.376 . S
C385 C384 1.392 . S
C385 H397 0.929 . S
C386 C382 1.531 . S
C386 H398 0.960 . S
C386 H399 0.962 . S
C386 H400 0.960 . S
C387 C384 1.511 . S
C387 H401 0.961 . S
C387 H402 0.961 . S
C387 H403 0.961 . S
C388 C389 1.370 . S
C388 C390 1.363 . S
C388 H404 0.931 . S
C389 C388 1.370 . S
C389 C393 1.408 . S
C390 C388 1.363 . S
C390 C391 1.370 . S
C390 C394 1.524 . S
C391 C383 1.503 . S
C391 C390 1.370 . S
C391 C392 1.403 . S
C392 C391 1.403 . S
C392 C393 1.404 . S
C392 C395 1.539 . S
C393 C389 1.408 . S
C393 C392 1.404 . S
C393 H405 0.930 . S
C394 C390 1.524 . S
C394 H406 0.956 . S
C394 H407 0.961 . S
C394 H408 0.961 . S
C395 C392 1.539 . S
C395 H409 0.958 . S
C395 H410 0.961 . S
C395 H411 0.960 . S
H396 C380 0.931 . S
H397 C385 0.929 . S
H398 C386 0.960 . S
H399 C386 0.962 . S
H400 C386 0.960 . S
H401 C387 0.961 . S
H402 C387 0.961 . S
H403 C387 0.961 . S
H404 C388 0.931 . S
H405 C393 0.930 . S
H406 C394 0.956 . S
H407 C394 0.961 . S
H408 C394 0.961 . S
H409 C395 0.958 . S
H410 C395 0.961 . S
H411 C395 0.960 . S
C412 C413 1.391 . S
C412 C414 1.394 . S
C412 H428 0.931 . S
C413 C412 1.391 . S
C413 C417 1.376 . S
C414 C412 1.394 . S
C414 C415 1.369 . S
C414 C418 1.531 . S
C415 C414 1.369 . S
C415 C416 1.410 . S
C415 C423 1.503 . S
C416 C415 1.410 . S
C416 C417 1.392 . S
C416 C419 1.511 . S
C417 C413 1.376 . S
C417 C416 1.392 . S
C417 H429 0.929 . S
C418 C414 1.531 . S
C418 H430 0.960 . S
C418 H431 0.962 . S
C418 H432 0.960 . S
C419 C416 1.511 . S
C419 H433 0.961 . S
C419 H434 0.961 . S
C419 H435 0.961 . S
C420 C421 1.370 . S
C420 C422 1.363 . S
C420 H436 0.931 . S
C421 C420 1.370 . S
C421 C425 1.408 . S
C422 C420 1.363 . S
C422 C423 1.370 . S
C422 C426 1.524 . S
C423 C415 1.503 . S
C423 C422 1.370 . S
C423 C424 1.403 . S
C424 C423 1.403 . S
C424 C425 1.404 . S
C424 C427 1.539 . S
C425 C421 1.408 . S
C425 C424 1.404 . S
C425 H437 0.930 . S
C426 C422 1.524 . S
C426 H438 0.956 . S
C426 H439 0.961 . S
C426 H440 0.961 . S
C427 C424 1.539 . S
C427 H441 0.958 . S
C427 H442 0.961 . S
C427 H443 0.960 . S
H428 C412 0.931 . S
H429 C417 0.929 . S
H430 C418 0.960 . S
H431 C418 0.962 . S
H432 C418 0.960 . S
H433 C419 0.961 . S
H434 C419 0.961 . S
H435 C419 0.961 . S
H436 C420 0.931 . S
H437 C425 0.930 . S
H438 C426 0.956 . S
H439 C426 0.961 . S
H440 C426 0.961 . S
H441 C427 0.958 . S
H442 C427 0.961 . S
H443 C427 0.960 . S
C444 C445 1.391 . S
C444 C446 1.394 . S
C444 H460 0.931 . S
C445 C444 1.391 . S
C445 C449 1.376 . S
C446 C444 1.394 . S
C446 C447 1.369 . S
C446 C450 1.531 . S
C447 C446 1.369 . S
C447 C448 1.410 . S
C447 C455 1.503 . S
C448 C447 1.410 . S
C448 C449 1.392 . S
C448 C451 1.511 . S
C449 C445 1.376 . S
C449 C448 1.392 . S
C449 H461 0.929 . S
C450 C446 1.531 . S
C450 H462 0.960 . S
C450 H463 0.962 . S
C450 H464 0.960 . S
C451 C448 1.511 . S
C451 H465 0.961 . S
C451 H466 0.961 . S
C451 H467 0.961 . S
C452 C453 1.370 . S
C452 C454 1.363 . S
C452 H468 0.931 . S
C453 C452 1.370 . S
C453 C457 1.408 . S
C454 C452 1.363 . S
C454 C455 1.370 . S
C454 C458 1.524 . S
C455 C447 1.503 . S
C455 C454 1.370 . S
C455 C456 1.403 . S
C456 C455 1.403 . S
C456 C457 1.404 . S
C456 C459 1.539 . S
C457 C453 1.408 . S
C457 C456 1.404 . S
C457 H469 0.930 . S
C458 C454 1.524 . S
C458 H470 0.956 . S
C458 H471 0.961 . S
C458 H472 0.961 . S
C459 C456 1.539 . S
C459 H473 0.958 . S
C459 H474 0.961 . S
C459 H475 0.960 . S
H460 C444 0.931 . S
H461 C449 0.929 . S
H462 C450 0.960 . S
H463 C450 0.962 . S
H464 C450 0.960 . S
H465 C451 0.961 . S
H466 C451 0.961 . S
H467 C451 0.961 . S
H468 C452 0.931 . S
H469 C457 0.930 . S
H470 C458 0.956 . S
H471 C458 0.961 . S
H472 C458 0.961 . S
H473 C459 0.958 . S
H474 C459 0.961 . S
H475 C459 0.960 . S
C476 C477 1.391 . S
C476 C478 1.394 . S
C476 H492 0.931 . S
C477 C476 1.391 . S
C477 C481 1.376 . S
C478 C476 1.394 . S
C478 C479 1.369 . S
C478 C482 1.531 . S
C479 C478 1.369 . S
C479 C480 1.410 . S
C479 C487 1.503 . S
C480 C479 1.410 . S
C480 C481 1.392 . S
C480 C483 1.511 . S
C481 C477 1.376 . S
C481 C480 1.392 . S
C481 H493 0.929 . S
C482 C478 1.531 . S
C482 H494 0.960 . S
C482 H495 0.962 . S
C482 H496 0.960 . S
C483 C480 1.511 . S
C483 H497 0.961 . S
C483 H498 0.961 . S
C483 H499 0.961 . S
C484 C485 1.370 . S
C484 C486 1.363 . S
C484 H500 0.931 . S
C485 C484 1.370 . S
C485 C489 1.408 . S
C486 C484 1.363 . S
C486 C487 1.370 . S
C486 C490 1.524 . S
C487 C479 1.503 . S
C487 C486 1.370 . S
C487 C488 1.403 . S
C488 C487 1.403 . S
C488 C489 1.404 . S
C488 C491 1.539 . S
C489 C485 1.408 . S
C489 C488 1.404 . S
C489 H501 0.930 . S
C490 C486 1.524 . S
C490 H502 0.956 . S
C490 H503 0.961 . S
C490 H504 0.961 . S
C491 C488 1.539 . S
C491 H505 0.958 . S
C491 H506 0.961 . S
C491 H507 0.960 . S
H492 C476 0.931 . S
H493 C481 0.929 . S
H494 C482 0.960 . S
H495 C482 0.962 . S
H496 C482 0.960 . S
H497 C483 0.961 . S
H498 C483 0.961 . S
H499 C483 0.961 . S
H500 C484 0.931 . S
H501 C489 0.930 . S
H502 C490 0.956 . S
H503 C490 0.961 . S
H504 C490 0.961 . S
H505 C491 0.958 . S
H506 C491 0.961 . S
H507 C491 0.960 . S
C508 C509 1.391 . S
C508 C510 1.394 . S
C508 H524 0.931 . S
C509 C508 1.391 . S
C509 C513 1.376 . S
C510 C508 1.394 . S
C510 C511 1.369 . S
C510 C514 1.531 . S
C511 C510 1.369 . S
C511 C512 1.410 . S
C511 C519 1.503 . S
C512 C511 1.410 . S
C512 C513 1.392 . S
C512 C515 1.511 . S
C513 C509 1.376 . S
C513 C512 1.392 . S
C513 H525 0.929 . S
C514 C510 1.531 . S
C514 H526 0.960 . S
C514 H527 0.962 . S
C514 H528 0.960 . S
C515 C512 1.511 . S
C515 H529 0.961 . S
C515 H530 0.961 . S
C515 H531 0.961 . S
C516 C517 1.370 . S
C516 C518 1.363 . S
C516 H532 0.931 . S
C517 C516 1.370 . S
C517 C521 1.408 . S
C518 C516 1.363 . S
C518 C519 1.370 . S
C518 C522 1.524 . S
C519 C511 1.503 . S
C519 C518 1.370 . S
C519 C520 1.403 . S
C520 C519 1.403 . S
C520 C521 1.404 . S
C520 C523 1.539 . S
C521 C517 1.408 . S
C521 C520 1.404 . S
C521 H533 0.930 . S
C522 C518 1.524 . S
C522 H534 0.956 . S
C522 H535 0.961 . S
C522 H536 0.961 . S
C523 C520 1.539 . S
C523 H537 0.958 . S
C523 H538 0.961 . S
C523 H539 0.960 . S
H524 C508 0.931 . S
H525 C513 0.929 . S
H526 C514 0.960 . S
H527 C514 0.962 . S
H528 C514 0.960 . S
H529 C515 0.961 . S
H530 C515 0.961 . S
H531 C515 0.961 . S
H532 C516 0.931 . S
H533 C521 0.930 . S
H534 C522 0.956 . S
H535 C522 0.961 . S
H536 C522 0.961 . S
H537 C523 0.958 . S
H538 C523 0.961 . S
H539 C523 0.960 . S
C540 C541 1.391 . S
C540 C542 1.394 . S
C540 H556 0.931 . S
C541 C540 1.391 . S
C541 C545 1.376 . S
C542 C540 1.394 . S
C542 C543 1.369 . S
C542 C546 1.531 . S
C543 C542 1.369 . S
C543 C544 1.410 . S
C543 C551 1.503 1_655 S
C544 C543 1.410 . S
C544 C545 1.392 . S
C544 C547 1.511 . S
C545 C541 1.376 . S
C545 C544 1.392 . S
C545 H557 0.929 . S
C546 C542 1.531 . S
C546 H558 0.960 1_655 S
C546 H559 0.962 . S
C546 H560 0.960 . S
C547 C544 1.511 . S
C547 H561 0.961 . S
C547 H562 0.961 1_655 S
C547 H563 0.961 . S
C548 C549 1.370 . S
C548 C550 1.363 . S
C548 H564 0.931 . S
C549 C548 1.370 . S
C549 C553 1.408 . S
C550 C548 1.363 . S
C550 C551 1.370 . S
C550 C554 1.524 . S
C551 C543 1.503 1_455 S
C551 C550 1.370 . S
C551 C552 1.403 . S
C552 C551 1.403 . S
C552 C553 1.404 . S
C552 C555 1.539 . S
C553 C549 1.408 . S
C553 C552 1.404 . S
C553 H565 0.930 . S
C554 C550 1.524 . S
C554 H566 0.956 . S
C554 H567 0.961 . S
C554 H568 0.961 . S
C555 C552 1.539 . S
C555 H569 0.958 . S
C555 H570 0.961 . S
C555 H571 0.960 1_455 S
H556 C540 0.931 . S
H557 C545 0.929 . S
H558 C546 0.960 1_455 S
H559 C546 0.962 . S
H560 C546 0.960 . S
H561 C547 0.961 . S
H562 C547 0.961 1_455 S
H563 C547 0.961 . S
H564 C548 0.931 . S
H565 C553 0.930 . S
H566 C554 0.956 . S
H567 C554 0.961 . S
H568 C554 0.961 . S
H569 C555 0.958 . S
H570 C555 0.961 . S
H571 C555 0.960 1_655 S
C572 C573 1.391 . S
C572 C574 1.394 . S
C572 H588 0.931 . S
C573 C572 1.391 . S
C573 C577 1.376 . S
C574 C572 1.394 . S
C574 C575 1.369 . S
C574 C578 1.531 . S
C575 C574 1.369 . S
C575 C576 1.410 . S
C575 C583 1.503 1_545 S
C576 C575 1.410 . S
C576 C577 1.392 . S
C576 C579 1.511 . S
C577 C573 1.376 . S
C577 C576 1.392 . S
C577 H589 0.929 . S
C578 C574 1.531 . S
C578 H590 0.960 1_545 S
C578 H591 0.962 . S
C578 H592 0.960 . S
C579 C576 1.511 . S
C579 H593 0.961 . S
C579 H594 0.968 . S
C579 H595 0.961 . S
C580 C581 1.370 . S
C580 C582 1.363 . S
C580 H596 0.931 . S
C581 C580 1.370 . S
C581 C585 1.408 . S
C582 C580 1.363 . S
C582 C583 1.370 . S
C582 C586 1.524 . S
C583 C575 1.503 1_565 S
C583 C582 1.370 . S
C583 C584 1.403 . S
C584 C583 1.403 . S
C584 C585 1.404 . S
C584 C587 1.539 . S
C585 C581 1.408 . S
C585 C584 1.404 . S
C585 H597 0.930 . S
C586 C582 1.524 . S
C586 H598 0.956 . S
C586 H599 0.961 1_565 S
C586 H600 0.961 . S
C587 C584 1.539 . S
C587 H601 0.958 . S
C587 H602 0.961 . S
C587 H603 0.960 1_565 S
H588 C572 0.931 . S
H589 C577 0.929 . S
H590 C578 0.960 1_565 S
H591 C578 0.962 . S
H592 C578 0.960 . S
H593 C579 0.961 . S
H594 C579 0.968 . S
H595 C579 0.961 . S
H596 C580 0.931 . S
H597 C585 0.930 . S
H598 C586 0.956 . S
H599 C586 0.961 1_545 S
H600 C586 0.961 . S
H601 C587 0.958 . S
H602 C587 0.961 . S
H603 C587 0.960 1_545 S
C604 C605 1.391 . S
C604 C606 1.394 . S
C604 H620 0.931 . S
C605 C604 1.391 . S
C605 C609 1.376 . S
C606 C604 1.394 . S
C606 C607 1.369 . S
C606 C610 1.531 . S
C607 C606 1.369 . S
C607 C608 1.410 . S
C607 C615 1.503 . S
C608 C607 1.410 . S
C608 C609 1.392 . S
C608 C611 1.511 . S
C609 C605 1.376 . S
C609 C608 1.392 . S
C609 H621 0.929 . S
C610 C606 1.531 . S
C610 H622 0.960 . S
C610 H623 0.962 . S
C610 H624 0.960 . S
C611 C608 1.511 . S
C611 H625 0.961 . S
C611 H626 0.961 . S
C611 H627 0.961 . S
C612 C613 1.370 . S
C612 C614 1.363 . S
C612 H628 0.931 . S
C613 C612 1.370 . S
C613 C617 1.408 . S
C614 C612 1.363 . S
C614 C615 1.370 . S
C614 C618 1.524 . S
C615 C607 1.503 . S
C615 C614 1.370 . S
C615 C616 1.403 . S
C616 C615 1.403 . S
C616 C617 1.404 . S
C616 C619 1.539 . S
C617 C613 1.408 . S
C617 C616 1.404 . S
C617 H629 0.930 . S
C618 C614 1.524 . S
C618 H630 0.956 . S
C618 H631 0.961 . S
C618 H632 0.961 . S
C619 C616 1.539 . S
C619 H633 0.958 . S
C619 H634 0.961 . S
C619 H635 0.960 . S
H620 C604 0.931 . S
H621 C609 0.929 . S
H622 C610 0.960 . S
H623 C610 0.962 . S
H624 C610 0.960 . S
H625 C611 0.961 . S
H626 C611 0.961 . S
H627 C611 0.961 . S
H628 C612 0.931 . S
H629 C617 0.930 . S
H630 C618 0.956 . S
H631 C618 0.961 . S
H632 C618 0.961 . S
H633 C619 0.958 . S
H634 C619 0.961 . S
H635 C619 0.960 . S
C636 C637 1.391 . S
C636 C638 1.394 . S
C636 H652 0.931 . S
C637 C636 1.391 . S
C637 C641 1.376 . S
C638 C636 1.394 . S
C638 C639 1.369 . S
C638 C642 1.531 . S
C639 C638 1.369 . S
C639 C640 1.410 . S
C639 C647 1.503 1_545 S
C640 C639 1.410 . S
C640 C641 1.392 . S
C640 C643 1.511 . S
C641 C637 1.376 . S
C641 C640 1.392 . S
C641 H653 0.929 . S
C642 C638 1.531 . S
C642 H654 0.960 1_545 S
C642 H655 0.962 . S
C642 H656 0.960 . S
C643 C640 1.511 . S
C643 H657 0.961 . S
C643 H658 0.961 1_545 S
C643 H659 0.961 . S
C644 C645 1.370 . S
C644 C646 1.363 . S
C644 H660 0.931 . S
C645 C644 1.370 . S
C645 C649 1.408 . S
C646 C644 1.363 . S
C646 C647 1.370 . S
C646 C650 1.524 . S
C647 C639 1.503 1_565 S
C647 C646 1.370 . S
C647 C648 1.403 . S
C648 C647 1.403 . S
C648 C649 1.404 . S
C648 C651 1.539 . S
C649 C645 1.408 . S
C649 C648 1.404 . S
C649 H661 0.930 . S
C650 C646 1.524 . S
C650 H662 0.956 . S
C650 H663 0.961 . S
C650 H664 0.961 . S
C651 C648 1.539 . S
C651 H665 0.958 . S
C651 H666 0.961 . S
C651 H667 0.960 1_565 S
H652 C636 0.931 . S
H653 C641 0.929 . S
H654 C642 0.960 1_565 S
H655 C642 0.962 . S
H656 C642 0.960 . S
H657 C643 0.961 . S
H658 C643 0.961 1_565 S
H659 C643 0.961 . S
H660 C644 0.931 . S
H661 C649 0.930 . S
H662 C650 0.956 . S
H663 C650 0.961 . S
H664 C650 0.961 . S
H665 C651 0.958 . S
H666 C651 0.961 . S
H667 C651 0.960 1_545 S
C668 C669 1.391 . S
C668 C670 1.394 . S
C668 H684 0.931 . S
C669 C668 1.391 . S
C669 C673 1.376 . S
C670 C668 1.394 . S
C670 C671 1.369 . S
C670 C674 1.531 . S
C671 C670 1.369 . S
C671 C672 1.410 . S
C671 C679 1.503 . S
C672 C671 1.410 . S
C672 C673 1.392 . S
C672 C675 1.511 . S
C673 C669 1.376 . S
C673 C672 1.392 . S
C673 H685 0.929 . S
C674 C670 1.531 . S
C674 H686 0.960 . S
C674 H687 0.962 . S
C674 H688 0.960 . S
C675 C672 1.511 . S
C675 H689 0.961 . S
C675 H690 0.961 . S
C675 H691 0.961 . S
C676 C677 1.370 . S
C676 C678 1.363 . S
C676 H692 0.931 . S
C677 C676 1.370 . S
C677 C681 1.408 . S
C678 C676 1.363 . S
C678 C679 1.370 . S
C678 C682 1.524 . S
C679 C671 1.503 . S
C679 C678 1.370 . S
C679 C680 1.403 . S
C680 C679 1.403 . S
C680 C681 1.404 . S
C680 C683 1.539 . S
C681 C677 1.408 . S
C681 C680 1.404 . S
C681 H693 0.930 . S
C682 C678 1.524 . S
C682 H694 0.956 . S
C682 H695 0.961 . S
C682 H696 0.961 . S
C683 C680 1.539 . S
C683 H697 0.958 . S
C683 H698 0.961 . S
C683 H699 0.960 . S
H684 C668 0.931 . S
H685 C673 0.929 . S
H686 C674 0.960 . S
H687 C674 0.962 . S
H688 C674 0.960 . S
H689 C675 0.961 . S
H690 C675 0.961 . S
H691 C675 0.961 . S
H692 C676 0.931 . S
H693 C681 0.930 . S
H694 C682 0.956 . S
H695 C682 0.961 . S
H696 C682 0.961 . S
H697 C683 0.958 . S
H698 C683 0.961 . S
H699 C683 0.960 . S
C700 C701 1.391 . S
C700 C702 1.394 . S
C700 H716 0.931 . S
C701 C700 1.391 . S
C701 C705 1.376 . S
C702 C700 1.394 . S
C702 C703 1.369 . S
C702 C706 1.531 . S
C703 C702 1.369 . S
C703 C704 1.410 . S
C703 C711 1.503 1_455 S
C704 C703 1.410 . S
C704 C705 1.392 . S
C704 C707 1.511 . S
C705 C701 1.376 . S
C705 C704 1.392 . S
C705 H717 0.929 . S
C706 C702 1.531 . S
C706 H718 0.960 1_455 S
C706 H719 0.962 . S
C706 H720 0.960 . S
C707 C704 1.511 . S
C707 H721 0.961 . S
C707 H722 0.961 1_455 S
C707 H723 0.961 . S
C708 C709 1.370 . S
C708 C710 1.363 . S
C708 H724 0.931 . S
C709 C708 1.370 . S
C709 C713 1.408 . S
C710 C708 1.363 . S
C710 C711 1.370 . S
C710 C714 1.524 . S
C711 C703 1.503 1_655 S
C711 C710 1.370 . S
C711 C712 1.403 . S
C712 C711 1.403 . S
C712 C713 1.404 . S
C712 C715 1.539 . S
C713 C709 1.408 . S
C713 C712 1.404 . S
C713 H725 0.930 . S
C714 C710 1.524 . S
C714 H726 0.956 . S
C714 H727 0.961 . S
C714 H728 0.961 . S
C715 C712 1.539 . S
C715 H729 0.958 . S
C715 H730 0.961 . S
C715 H731 0.960 1_655 S
H716 C700 0.931 . S
H717 C705 0.929 . S
H718 C706 0.960 1_655 S
H719 C706 0.962 . S
H720 C706 0.960 . S
H721 C707 0.961 . S
H722 C707 0.961 1_655 S
H723 C707 0.961 . S
H724 C708 0.931 . S
H725 C713 0.930 . S
H726 C714 0.956 . S
H727 C714 0.961 . S
H728 C714 0.961 . S
H729 C715 0.958 . S
H730 C715 0.961 . S
H731 C715 0.960 1_455 S
C732 C733 1.391 . S
C732 C734 1.394 . S
C732 H748 0.931 . S
C733 C732 1.391 . S
C733 C737 1.376 . S
C734 C732 1.394 . S
C734 C735 1.369 . S
C734 C738 1.531 . S
C735 C734 1.369 . S
C735 C736 1.410 . S
C735 C743 1.503 . S
C736 C735 1.410 . S
C736 C737 1.392 . S
C736 C739 1.511 . S
C737 C733 1.376 . S
C737 C736 1.392 . S
C737 H749 0.929 . S
C738 C734 1.531 . S
C738 H750 0.960 . S
C738 H751 0.962 . S
C738 H752 0.960 . S
C739 C736 1.511 . S
C739 H753 0.961 . S
C739 H754 0.961 . S
C739 H755 0.961 . S
C740 C741 1.370 . S
C740 C742 1.363 . S
C740 H756 0.931 . S
C741 C740 1.370 . S
C741 C745 1.408 . S
C742 C740 1.363 . S
C742 C743 1.370 . S
C742 C746 1.524 . S
C743 C735 1.503 . S
C743 C742 1.370 . S
C743 C744 1.403 . S
C744 C743 1.403 . S
C744 C745 1.404 . S
C744 C747 1.539 . S
C745 C741 1.408 . S
C745 C744 1.404 . S
C745 H757 0.930 . S
C746 C742 1.524 . S
C746 H758 0.956 . S
C746 H759 0.961 . S
C746 H760 0.961 . S
C747 C744 1.539 . S
C747 H761 0.958 . S
C747 H762 0.961 . S
C747 H763 0.960 . S
H748 C732 0.931 . S
H749 C737 0.929 . S
H750 C738 0.960 . S
H751 C738 0.962 . S
H752 C738 0.960 . S
H753 C739 0.961 . S
H754 C739 0.961 . S
H755 C739 0.961 . S
H756 C740 0.931 . S
H757 C745 0.930 . S
H758 C746 0.956 . S
H759 C746 0.961 . S
H760 C746 0.961 . S
H761 C747 0.958 . S
H762 C747 0.961 . S
H763 C747 0.960 . S
C764 C765 1.391 . S
C764 C766 1.394 . S
C764 H780 0.931 . S
C765 C764 1.391 . S
C765 C769 1.376 . S
C766 C764 1.394 . S
C766 C767 1.369 . S
C766 C770 1.531 . S
C767 C766 1.369 . S
C767 C768 1.410 . S
C767 C775 1.503 1_655 S
C768 C767 1.410 . S
C768 C769 1.392 . S
C768 C771 1.511 . S
C769 C765 1.376 . S
C769 C768 1.392 . S
C769 H781 0.929 . S
C770 C766 1.531 . S
C770 H782 0.960 1_655 S
C770 H783 0.962 . S
C770 H784 0.960 . S
C771 C768 1.511 . S
C771 H785 0.961 . S
C771 H786 0.961 1_655 S
C771 H787 0.961 . S
C772 C773 1.370 . S
C772 C774 1.363 . S
C772 H788 0.931 . S
C773 C772 1.370 . S
C773 C777 1.408 . S
C774 C772 1.363 . S
C774 C775 1.370 . S
C774 C778 1.524 . S
C775 C767 1.503 1_455 S
C775 C774 1.370 . S
C775 C776 1.403 . S
C776 C775 1.403 . S
C776 C777 1.404 . S
C776 C779 1.539 . S
C777 C773 1.408 . S
C777 C776 1.404 . S
C777 H789 0.930 . S
C778 C774 1.524 . S
C778 H790 0.956 1_455 S
C778 H791 0.961 1_455 S
C778 H792 0.961 . S
C779 C776 1.539 . S
C779 H793 0.958 . S
C779 H794 0.961 . S
C779 H795 0.960 . S
H780 C764 0.931 . S
H781 C769 0.929 . S
H782 C770 0.960 1_455 S
H783 C770 0.962 . S
H784 C770 0.960 . S
H785 C771 0.961 . S
H786 C771 0.961 1_455 S
H787 C771 0.961 . S
H788 C772 0.931 . S
H789 C777 0.930 . S
H790 C778 0.956 1_655 S
H791 C778 0.961 1_655 S
H792 C778 0.961 . S
H793 C779 0.958 . S
H794 C779 0.961 . S
H795 C779 0.960 . S
C796 C797 1.391 . S
C796 C798 1.394 . S
C796 H812 0.931 . S
C797 C796 1.391 . S
C797 C801 1.376 . S
C798 C796 1.394 . S
C798 C799 1.369 . S
C798 C802 1.531 . S
C799 C798 1.369 . S
C799 C800 1.410 . S
C799 C807 1.503 1_545 S
C800 C799 1.410 . S
C800 C801 1.392 . S
C800 C803 1.511 . S
C801 C797 1.376 . S
C801 C800 1.392 . S
C801 H813 0.929 . S
C802 C798 1.531 . S
C802 H814 0.960 . S
C802 H815 0.962 . S
C802 H816 0.960 . S
C803 C800 1.511 . S
C803 H817 0.961 . S
C803 H818 0.961 1_545 S
C803 H819 0.961 . S
C804 C805 1.370 . S
C804 C806 1.363 . S
C804 H820 0.931 . S
C805 C804 1.370 . S
C805 C809 1.408 . S
C806 C804 1.363 . S
C806 C807 1.370 . S
C806 C810 1.524 . S
C807 C799 1.503 1_565 S
C807 C806 1.370 . S
C807 C808 1.403 . S
C808 C807 1.403 . S
C808 C809 1.404 . S
C808 C811 1.539 . S
C809 C805 1.408 . S
C809 C808 1.404 . S
C809 H821 0.930 . S
C810 C806 1.524 . S
C810 H822 0.957 . S
C810 H823 0.947 1_565 S
C810 H824 0.961 . S
C811 C808 1.539 . S
C811 H825 0.958 . S
C811 H826 0.961 . S
C811 H827 0.960 . S
H812 C796 0.931 . S
H813 C801 0.929 . S
H814 C802 0.960 . S
H815 C802 0.962 . S
H816 C802 0.960 . S
H817 C803 0.961 . S
H818 C803 0.961 1_565 S
H819 C803 0.961 . S
H820 C804 0.931 . S
H821 C809 0.930 . S
H822 C810 0.957 . S
H823 C810 0.947 1_545 S
H824 C810 0.961 . S
H825 C811 0.958 . S
H826 C811 0.961 . S
H827 C811 0.960 . S
C828 C829 1.391 . S
C828 C830 1.394 . S
C828 H844 0.931 . S
C829 C828 1.391 . S
C829 C833 1.376 . S
C830 C828 1.394 . S
C830 C831 1.369 . S
C830 C834 1.531 . S
C831 C830 1.369 . S
C831 C832 1.410 . S
C831 C839 1.503 . S
C832 C831 1.410 . S
C832 C833 1.392 . S
C832 C835 1.511 . S
C833 C829 1.376 . S
C833 C832 1.392 . S
C833 H845 0.929 . S
C834 C830 1.531 . S
C834 H846 0.960 . S
C834 H847 0.962 . S
C834 H848 0.960 . S
C835 C832 1.511 . S
C835 H849 0.961 . S
C835 H850 0.961 . S
C835 H851 0.961 . S
C836 C837 1.370 . S
C836 C838 1.363 . S
C836 H852 0.931 . S
C837 C836 1.370 . S
C837 C841 1.408 . S
C838 C836 1.363 . S
C838 C839 1.370 . S
C838 C842 1.524 . S
C839 C831 1.503 . S
C839 C838 1.370 . S
C839 C840 1.403 . S
C840 C839 1.403 . S
C840 C841 1.404 . S
C840 C843 1.539 . S
C841 C837 1.408 . S
C841 C840 1.404 . S
C841 H853 0.930 . S
C842 C838 1.524 . S
C842 H854 0.956 . S
C842 H855 0.961 . S
C842 H856 0.961 . S
C843 C840 1.539 . S
C843 H857 0.958 . S
C843 H858 0.961 . S
C843 H859 0.960 . S
H844 C828 0.931 . S
H845 C833 0.929 . S
H846 C834 0.960 . S
H847 C834 0.962 . S
H848 C834 0.960 . S
H849 C835 0.961 . S
H850 C835 0.961 . S
H851 C835 0.961 . S
H852 C836 0.931 . S
H853 C841 0.930 . S
H854 C842 0.956 . S
H855 C842 0.961 . S
H856 C842 0.961 . S
H857 C843 0.958 . S
H858 C843 0.961 . S
H859 C843 0.960 . S
C860 C861 1.391 . S
C860 C862 1.394 . S
C860 H876 0.931 . S
C861 C860 1.391 . S
C861 C865 1.376 . S
C862 C860 1.394 . S
C862 C863 1.369 . S
C862 C866 1.531 . S
C863 C862 1.369 . S
C863 C864 1.410 . S
C863 C871 1.503 1_455 S
C864 C863 1.410 . S
C864 C865 1.392 . S
C864 C867 1.511 . S
C865 C861 1.376 . S
C865 C864 1.392 . S
C865 H877 0.929 . S
C866 C862 1.531 . S
C866 H878 0.960 . S
C866 H879 0.962 . S
C866 H880 0.960 . S
C867 C864 1.511 . S
C867 H881 0.961 . S
C867 H882 0.961 1_455 S
C867 H883 0.961 . S
C868 C869 1.370 . S
C868 C870 1.363 . S
C868 H884 0.931 . S
C869 C868 1.370 . S
C869 C873 1.408 . S
C870 C868 1.363 . S
C870 C871 1.370 . S
C870 C874 1.524 . S
C871 C863 1.503 1_655 S
C871 C870 1.370 . S
C871 C872 1.403 . S
C872 C871 1.403 . S
C872 C873 1.404 . S
C872 C875 1.539 . S
C873 C869 1.408 . S
C873 C872 1.404 . S
C873 H885 0.930 . S
C874 C870 1.524 . S
C874 H886 0.956 . S
C874 H887 0.979 . S
C874 H888 0.961 . S
C875 C872 1.539 . S
C875 H889 0.958 . S
C875 H890 0.961 . S
C875 H891 0.952 1_655 S
H876 C860 0.931 . S
H877 C865 0.929 . S
H878 C866 0.960 . S
H879 C866 0.962 . S
H880 C866 0.960 . S
H881 C867 0.961 . S
H882 C867 0.961 1_655 S
H883 C867 0.961 . S
H884 C868 0.931 . S
H885 C873 0.930 . S
H886 C874 0.956 . S
H887 C874 0.979 . S
H888 C874 0.961 . S
H889 C875 0.958 . S
H890 C875 0.961 . S
H891 C875 0.952 1_455 S
C892 C893 1.391 . S
C892 C894 1.394 . S
C892 H908 0.931 . S
C893 C892 1.391 . S
C893 C897 1.376 . S
C894 C892 1.394 . S
C894 C895 1.369 . S
C894 C898 1.531 . S
C895 C894 1.369 . S
C895 C896 1.410 . S
C895 C903 1.503 1_565 S
C896 C895 1.410 . S
C896 C897 1.392 . S
C896 C899 1.511 . S
C897 C893 1.376 . S
C897 C896 1.392 . S
C897 H909 0.929 . S
C898 C894 1.531 . S
C898 H910 0.960 . S
C898 H911 0.962 . S
C898 H912 0.960 . S
C899 C896 1.511 . S
C899 H913 0.961 . S
C899 H914 0.961 1_565 S
C899 H915 0.961 . S
C900 C901 1.370 . S
C900 C902 1.363 . S
C900 H916 0.931 . S
C901 C900 1.370 . S
C901 C905 1.408 . S
C902 C900 1.363 . S
C902 C903 1.370 . S
C902 C906 1.524 . S
C903 C895 1.503 1_545 S
C903 C902 1.370 . S
C903 C904 1.403 . S
C904 C903 1.403 . S
C904 C905 1.404 . S
C904 C907 1.539 . S
C905 C901 1.408 . S
C905 C904 1.404 . S
C905 H917 0.930 . S
C906 C902 1.524 . S
C906 H918 0.946 1_545 S
C906 H919 0.961 1_545 S
C906 H920 0.961 . S
C907 C904 1.539 . S
C907 H921 0.958 . S
C907 H922 0.961 . S
C907 H923 0.960 . S
H908 C892 0.931 . S
H909 C897 0.929 . S
H910 C898 0.960 . S
H911 C898 0.962 . S
H912 C898 0.960 . S
H913 C899 0.961 . S
H914 C899 0.961 1_545 S
H915 C899 0.961 . S
H916 C900 0.931 . S
H917 C905 0.930 . S
H918 C906 0.946 1_565 S
H919 C906 0.961 1_565 S
H920 C906 0.961 . S
H921 C907 0.958 . S
H922 C907 0.961 . S
H923 C907 0.960 . S
C157 C131 1.534 . S
C165 C1 1.541 . S
C189 C14 1.534 . S
C197 C144 1.548 . S
C221 C27 1.526 . S
C229 C79 1.541 . S
C253 C40 1.535 . S
C261 C92 1.542 . S
C285 C105 1.562 . S
C293 C53 1.554 . S
C317 C66 1.559 . S
C325 C118 1.555 . S
C349 C107 1.557 . S
C357 C3 1.567 . S
C381 C16 1.552 . S
C389 C120 1.560 . S
C413 C29 1.583 . S
C421 C133 1.553 . S
C445 C42 1.583 . S
C453 C146 1.553 . S
C477 C81 1.554 . S
C485 C55 1.558 . S
C509 C94 1.555 . S
C517 C68 1.558 . S
C541 C49 1.776 . S
C549 C10 1.761 . S
C573 C23 1.771 . S
C581 C62 1.764 . S
C605 C75 1.773 . S
C613 C36 1.763 . S
C637 C127 1.776 . S
C645 C88 1.761 . S
C669 C140 1.752 . S
C677 C101 1.772 . S
C701 C114 1.776 . S
C709 C153 1.761 . S
C733 C44 1.844 . S
C741 C5 1.846 . S
C765 C18 1.832 . S
C773 C57 1.851 . S
C797 C70 1.843 . S
C805 C31 1.848 . S
C829 C83 1.850 . S
C837 C122 1.844 . S
C861 C135 1.846 . S
C869 C96 1.847 . S
C893 C109 1.841 . S
C901 C148 1.848 . S
