# Generated by pormake.
# Topology ilc, (8)-cn, num edge types: 1
# Building blocks:
#     Node 0, Type 0, BuildingBlock: NUHRAL_clean_sbu_3, # of connection points: 8
#     Node 1, Type 0, BuildingBlock: NUHRAL_clean_sbu_3, # of connection points: 8
#     Node 2, Type 0, BuildingBlock: NUHRAL_clean_sbu_3, # of connection points: 8
#     Edge 3, Type (0, 0), BuildingBlock: MIFKUJ_clean_linker_0, # of connection points: 2
#     Edge 4, Type (0, 0), BuildingBlock: MIFKUJ_clean_linker_0, # of connection points: 2
#     Edge 5, Type (0, 0), BuildingBlock: MIFKUJ_clean_linker_0, # of connection points: 2
#     Edge 6, Type (0, 0), BuildingBlock: MIFKUJ_clean_linker_0, # of connection points: 2
#     Edge 7, Type (0, 0), BuildingBlock: MIFKUJ_clean_linker_0, # of connection points: 2
#     Edge 8, Type (0, 0), BuildingBlock: MIFKUJ_clean_linker_0, # of connection points: 2
#     Edge 9, Type (0, 0), BuildingBlock: MIFKUJ_clean_linker_0, # of connection points: 2
#     Edge 10, Type (0, 0), BuildingBlock: MIFKUJ_clean_linker_0, # of connection points: 2
#     Edge 11, Type (0, 0), BuildingBlock: MIFKUJ_clean_linker_0, # of connection points: 2
#     Edge 12, Type (0, 0), BuildingBlock: MIFKUJ_clean_linker_0, # of connection points: 2
#     Edge 13, Type (0, 0), BuildingBlock: MIFKUJ_clean_linker_0, # of connection points: 2
#     Edge 14, Type (0, 0), BuildingBlock: MIFKUJ_clean_linker_0, # of connection points: 2
# Relax obj value: 0.143
# Max RMSD: 0.201
# Mean RMSD: 0.201
data_MOF--net-ilc--node1-NUHRAL_clean_sbu_3--edge1-MIFKUJ_clean_linker_0
_symmetry_space_group_name_H-M    P1
_symmetry_Int_Tables_number       1
_symmetry_cell_setting            triclinic
loop_
_symmetry_equiv_pos_as_xyz
'x, y, z'
_cell_length_a     27.599123
_cell_length_b     38.107504
_cell_length_c     23.942203
_cell_angle_alpha  100.79146
_cell_angle_beta   77.578488
_cell_angle_gamma 140.06985
loop_
_atom_site_label
_atom_site_type_symbol
_atom_site_fract_x
_atom_site_fract_y
_atom_site_fract_z
_atom_type_partial_charge
C0 C 0.06726 0.97113 0.13771 0.0
C1 C 1.00196 0.94986 0.17264 0.0
C2 C 0.97105 0.91731 0.21852 0.0
C3 C 1.00567 0.90593 0.22963 0.0
C4 C 0.0726 0.92839 0.197 0.0
C5 C 0.1031 0.96061 0.15017 0.0
O6 O 0.95541 1.00256 0.09229 0.0
Tb7 Tb 0.07315 0.05125 0.06284 0.0
O8 O 0.11108 0.11782 0.12191 0.0
O9 O 0.89963 0.92316 0.04339 0.0
Eu10 Eu 0.95551 0.96061 0.95653 0.0
O11 O 0.13676 0.05732 0.10797 0.0
C12 C 0.92164 1.0024 0.92877 0.0
O13 O 0.05458 0.98584 0.05272 0.0
O14 O 0.07863 0.0131 0.92905 0.0
O15 O 0.134 0.09141 0.98086 0.0
C16 C 0.10005 1.00747 0.09134 0.0
C17 C 0.96041 0.88657 0.88207 0.0
O18 O 1.00892 0.90956 0.91825 0.0
C19 C 0.89886 0.94877 0.08808 0.0
C20 C 0.13466 0.06668 0.93479 0.0
O21 O 0.92436 0.89754 0.88843 0.0
C22 C 0.92735 0.01992 0.87511 0.0
C23 C 0.93471 0.07394 0.82355 0.0
C24 C 0.93314 0.06031 0.8754 0.0
C25 C 0.9219 0.99318 0.82309 0.0
C26 C 0.92271 1.00656 0.77218 0.0
C27 C 0.93048 0.04734 0.7727 0.0
C28 C 0.10375 0.14618 0.11125 0.0
O29 O 0.07695 0.13501 0.06362 0.0
O30 O 0.87346 0.94956 0.93131 0.0
O31 O 0.98567 0.03224 0.949 0.0
H32 H 0.97707 0.96062 0.16575 0.0
H33 H 0.98376 0.88295 0.26695 0.0
H34 H 0.15549 0.97891 0.12511 0.0
H35 H 0.93483 0.07992 0.91534 0.0
H36 H 0.91549 0.96123 0.82224 0.0
H37 H 0.92912 0.05657 0.73318 0.0
C38 C 0.86584 0.37462 0.48583 0.0
C39 C 0.90861 0.4245 0.51676 0.0
C40 C 0.94927 0.43899 0.55984 0.0
C41 C 0.95412 0.40601 0.56685 0.0
C42 C 0.91236 0.35608 0.53629 0.0
C43 C 0.86655 0.33978 0.49631 0.0
O44 O 0.68263 0.34935 0.38644 0.0
Tb45 Tb 0.79037 0.40244 0.41824 0.0
O46 O 0.82887 0.46972 0.47603 0.0
O47 O 0.57256 0.26766 0.36032 0.0
Eu48 Eu 0.63229 0.30202 0.27191 0.0
O49 O 0.85606 0.39183 0.40225 0.0
C50 C 0.6129 0.35272 0.24188 0.0
O51 O 0.75789 0.3458 0.46792 0.0
O52 O 0.75068 0.35364 0.29159 0.0
O53 O 0.84623 0.43675 0.33349 0.0
C54 C 0.81798 0.35883 0.44509 0.0
C55 C 0.63961 0.22905 0.19563 0.0
O56 O 0.69391 0.25574 0.22749 0.0
C57 C 0.61525 0.30041 0.40185 0.0
C58 C 0.81298 0.40702 0.28675 0.0
O59 O 0.60346 0.24003 0.20325 0.0
C60 C 0.60786 0.35933 0.18547 0.0
C61 C 0.58211 0.38639 0.12247 0.0
C62 C 0.58406 0.38031 0.17825 0.0
C63 C 0.63071 0.3458 0.13751 0.0
C64 C 0.63259 0.35423 0.08265 0.0
C65 C 0.60606 0.37277 0.07516 0.0
C66 C 0.80013 0.48556 0.47574 0.0
O67 O 0.74867 0.4596 0.44115 0.0
O68 O 0.55659 0.30237 0.25967 0.0
O69 O 0.67966 0.37712 0.24887 0.0
H70 H 0.90511 0.44994 0.51046 0.0
H71 H 0.9834 0.41576 0.60114 0.0
H72 H 0.83127 0.30027 0.47408 0.0
H73 H 0.56773 0.39194 0.2153 0.0
H74 H 0.6515 0.33152 0.14296 0.0
H75 H 0.60978 0.38083 0.03239 0.0
C76 C 0.48674 0.68699 0.81312 0.0
C77 C 0.49331 0.71865 0.85901 0.0
C78 C 0.50936 0.72076 0.91173 0.0
C79 C 0.52913 0.69677 0.91613 0.0
C80 C 0.52702 0.6669 0.87006 0.0
C81 C 0.50339 0.66069 0.81842 0.0
O82 O 0.30802 0.66612 0.71977 0.0
Tb83 Tb 0.4234 0.72046 0.73882 0.0
O84 O 0.45677 0.78463 0.80043 0.0
O85 O 0.19774 0.58255 0.69364 0.0
Eu86 Eu 0.24367 0.61212 0.60267 0.0
O87 O 0.50298 0.72284 0.73178 0.0
C88 C 0.21916 0.66159 0.58013 0.0
O89 O 0.38736 0.65556 0.77287 0.0
O90 O 0.36006 0.66402 0.6241 0.0
O91 O 0.46818 0.74875 0.65075 0.0
C92 C 0.45625 0.67926 0.76266 0.0
C93 C 0.20918 0.5152 0.54376 0.0
O94 O 0.22882 0.52038 0.59267 0.0
C95 C 0.24313 0.61546 0.73423 0.0
C96 C 0.42374 0.71469 0.61002 0.0
O97 O 0.20715 0.54719 0.53522 0.0
C98 C 0.18266 0.65253 0.5337 0.0
C99 C 0.1472 0.67776 0.47963 0.0
C100 C 0.1781 0.68609 0.5274 0.0
C101 C 0.15812 0.61193 0.49194 0.0
C102 C 0.13373 0.60645 0.44221 0.0
C103 C 0.12369 0.63683 0.43836 0.0
C104 C 0.41947 0.79471 0.8079 0.0
O105 O 0.36105 0.76432 0.77925 0.0
O106 O 0.17332 0.62136 0.6157 0.0
O107 O 0.28386 0.67949 0.56394 0.0
H108 H 0.47906 0.73778 0.85506 0.0
H109 H 0.53951 0.69686 0.95734 0.0
H110 H 0.49753 0.63556 0.78318 0.0
H111 H 0.19948 0.71876 0.55868 0.0
H112 H 0.16518 0.58811 0.49558 0.0
H113 H 0.10591 0.63324 0.39951 0.0
H114 H 0.79825 0.89711 0.75203 0.0
H115 H 0.75613 0.85216 0.65714 0.0
H116 H 0.96906 1.00221 0.57721 0.0
H117 H 1.01067 0.04691 0.67102 0.0
H118 H 0.82567 0.9552 0.55366 0.0
H119 H 0.93733 0.90382 0.5801 0.0
H120 H 0.92884 0.8509 0.63612 0.0
H121 H 0.71109 0.70154 0.5808 0.0
H122 H 0.71797 0.75343 0.52509 0.0
H123 H 0.9882 0.99174 0.28087 0.0
H124 H 0.92761 0.97944 0.37623 0.0
H125 H 0.76467 0.80434 0.35401 0.0
H126 H 0.83178 0.81803 0.25925 0.0
H127 H 0.81733 0.82821 0.43973 0.0
H128 H 0.71854 0.88008 0.39754 0.0
H129 H 0.7122 0.93106 0.35659 0.0
H130 H 0.90001 0.07834 0.44362 0.0
H131 H 0.90785 0.02849 0.48497 0.0
C132 C 0.8369 0.91954 0.71398 0.0
C133 C 0.90762 0.97523 0.71828 0.0
C134 C 0.81249 0.89416 0.66016 0.0
C135 C 0.85913 0.92447 0.6108 0.0
C136 C 0.93214 0.97862 0.61517 0.0
C137 C 0.9562 1.00385 0.66851 0.0
C138 C 0.83198 0.90254 0.55409 0.0
C139 C 0.82347 0.92732 0.5282 0.0
C140 C 0.82477 0.86374 0.52295 0.0
C141 C 0.8262 0.83276 0.55058 0.0
C142 C 0.88706 0.85977 0.5805 0.0
C143 C 0.88277 0.82995 0.61207 0.0
C144 C 0.81852 0.77309 0.61319 0.0
C145 C 0.76008 0.74572 0.58084 0.0
C146 C 0.76414 0.77534 0.54928 0.0
C147 C 0.93723 0.95041 0.29526 0.0
C148 C 0.91484 0.90591 0.2632 0.0
C149 C 0.90157 0.94309 0.35013 0.0
C150 C 0.84041 0.89068 0.37315 0.0
C151 C 0.81198 0.84526 0.33781 0.0
C152 C 0.84968 0.8529 0.28345 0.0
C153 C 0.81921 0.88573 0.43627 0.0
C154 C 0.81732 0.85514 0.46432 0.0
C155 C 0.81733 0.91971 0.46963 0.0
C156 C 0.81328 0.95016 0.44447 0.0
C157 C 0.75849 0.92325 0.40774 0.0
C158 C 0.75464 0.95199 0.38452 0.0
C159 C 0.80553 1.00779 0.39735 0.0
C160 C 0.86041 0.03505 0.43374 0.0
C161 C 0.86431 1.00647 0.45734 0.0
H162 H 0.8024 0.02987 0.3791 0.0
H163 H 0.81386 0.75 0.63888 0.0
H164 H 0.86271 0.45014 0.60668 0.0
H165 H 0.84341 0.46022 0.70803 0.0
H166 H 0.05467 0.52758 0.72681 0.0
H167 H 0.07015 0.51112 0.62437 0.0
H168 H 0.95094 0.43947 0.77784 0.0
H169 H 0.98881 0.58687 0.7817 0.0
H170 H 0.97376 0.63845 0.75912 0.0
H171 H 0.73294 0.50258 0.80584 0.0
H172 H 0.74562 0.44915 0.82579 0.0
H173 H 0.77603 0.41066 0.08111 0.0
H174 H 0.86407 0.43791 0.99657 0.0
H175 H 0.68086 0.33131 0.89129 0.0
H176 H 0.5918 0.30423 0.97648 0.0
H177 H 0.80263 0.45861 0.90015 0.0
H178 H 0.81772 0.32308 0.79761 0.0
H179 H 0.81199 0.26002 0.82336 0.0
H180 H 0.9263 0.36229 0.9711 0.0
H181 H 0.93338 0.42602 0.94591 0.0
C182 C 0.90721 0.46939 0.63152 0.0
C183 C 0.96542 0.47649 0.60806 0.0
C184 C 0.89635 0.47587 0.69024 0.0
C185 C 0.94641 0.49317 0.72579 0.0
C186 C 1.01394 0.51229 0.7004 0.0
C187 C 0.02316 0.50347 0.64173 0.0
C188 C 0.9184 0.47725 0.78647 0.0
C189 C 0.92037 0.44524 0.80493 0.0
C190 C 0.876 0.48271 0.82175 0.0
C191 C 0.86851 0.51418 0.8059 0.0
C192 C 0.93256 0.5677 0.78638 0.0
C193 C 0.92429 0.59724 0.77403 0.0
C194 C 0.85239 0.57384 0.78165 0.0
C195 C 0.78852 0.52063 0.80031 0.0
C196 C 0.79624 0.49071 0.81197 0.0
C197 C 0.75371 0.39056 0.04036 0.0
C198 C 0.67753 0.35566 0.03489 0.0
C199 C 0.8042 0.406 0.99206 0.0
C200 C 0.77888 0.38632 0.93794 0.0
C201 C 0.70097 0.34621 0.93308 0.0
C202 C 0.65041 0.33123 0.98143 0.0
C203 C 0.83306 0.42 0.88849 0.0
C204 C 0.83536 0.45477 0.87277 0.0
C205 C 0.87754 0.41617 0.85546 0.0
C206 C 0.87501 0.37879 0.87035 0.0
C207 C 0.84164 0.33204 0.83555 0.0
C208 C 0.83821 0.29622 0.85002 0.0
C209 C 0.86833 0.30701 0.89905 0.0
C210 C 0.90234 0.35373 0.93349 0.0
C211 C 0.90577 0.38957 0.91927 0.0
H212 H 0.86553 0.2793 0.91034 0.0
H213 H 0.84551 0.59662 0.77349 0.0
H214 H 0.57678 0.77192 0.01164 0.0
H215 H 0.50471 0.75115 0.10549 0.0
H216 H 0.31698 0.67954 0.02557 0.0
H217 H 0.38624 0.69789 0.93236 0.0
H218 H 0.31951 0.7182 0.13509 0.0
H219 H 0.32154 0.59824 0.03323 0.0
H220 H 0.38394 0.57707 0.97881 0.0
H221 H 0.49898 0.62981 0.1234 0.0
H222 H 0.4379 0.65203 0.17848 0.0
H223 H 0.04493 0.54718 0.35278 0.0
H224 H 0.09797 0.55562 0.25319 0.0
H225 H 0.29777 0.62671 0.31064 0.0
H226 H 0.24592 0.61798 0.40872 0.0
H227 H 0.28182 0.58355 0.2068 0.0
H228 H 0.27359 0.70683 0.30422 0.0
H229 H 0.20373 0.72373 0.34978 0.0
H230 H 0.08359 0.65247 0.20259 0.0
H231 H 0.15732 0.63906 0.15436 0.0
C232 C 0.52136 0.75373 0.01417 0.0
C233 C 0.4859 0.73416 0.96453 0.0
C234 C 0.4805 0.74214 0.06776 0.0
C235 C 0.40486 0.71201 0.0717 0.0
C236 C 0.37502 0.70206 0.02297 0.0
C237 C 0.41532 0.713 0.96946 0.0
C238 C 0.35237 0.681 0.12294 0.0
C239 C 0.31073 0.68846 0.15064 0.0
C240 C 0.33993 0.64135 0.14197 0.0
C241 C 0.37573 0.62719 0.10972 0.0
C242 C 0.36043 0.60555 0.05329 0.0
C243 C 0.39544 0.59331 0.02238 0.0
C244 C 0.44544 0.60218 0.04762 0.0
C245 C 0.4603 0.62307 0.10393 0.0
C246 C 0.42543 0.63543 0.13504 0.0
C247 C 0.09851 0.56215 0.34406 0.0
C248 C 0.14273 0.58432 0.38859 0.0
C249 C 0.1289 0.56725 0.2872 0.0
C250 C 0.20345 0.59462 0.27496 0.0
C251 C 0.24083 0.60668 0.31923 0.0
C252 C 0.21047 0.60126 0.37578 0.0
C253 C 0.24879 0.62081 0.21971 0.0
C254 C 0.28977 0.61278 0.19108 0.0
C255 C 0.25903 0.65885 0.19879 0.0
C256 C 0.21839 0.66989 0.22676 0.0
C257 C 0.23198 0.69456 0.28179 0.0
C258 C 0.19183 0.70363 0.30801 0.0
C259 C 0.13682 0.68705 0.28017 0.0
C260 C 0.12475 0.66399 0.22474 0.0
C261 C 0.16644 0.65637 0.19764 0.0
H262 H 0.10524 0.69361 0.30065 0.0
H263 H 0.47246 0.59272 0.02355 0.0
H264 H 0.03514 0.6501 0.43986 0.0
H265 H 0.0492 0.70913 0.39214 0.0
H266 H 0.27413 0.85036 0.44289 0.0
H267 H 0.26313 0.79078 0.4866 0.0
H268 H 0.09238 0.80647 0.44206 0.0
H269 H 0.34393 0.88826 0.35791 0.0
H270 H 0.42712 0.88352 0.30926 0.0
H271 H 0.28546 0.78452 0.17302 0.0
H272 H 0.19921 0.78632 0.22256 0.0
H273 H 0.14821 0.97838 0.29049 0.0
H274 H 0.18255 0.95069 0.34128 0.0
H275 H 0.11402 0.83223 0.20536 0.0
H276 H 0.07989 0.86034 0.1543 0.0
H277 H 0.23715 0.87742 0.25012 0.0
H278 H 0.99533 0.79818 0.31917 0.0
H279 H 0.90214 0.79506 0.35948 0.0
H280 H 1.01159 0.87859 0.51309 0.0
H281 H 0.10701 0.88384 0.47301 0.0
C282 C 0.08779 0.6938 0.44099 0.0
C283 C 0.14863 0.7154 0.46607 0.0
C284 C 0.09594 0.72756 0.41328 0.0
C285 C 0.16464 0.78402 0.41039 0.0
C286 C 0.22266 0.8066 0.44063 0.0
C287 C 0.21526 0.77258 0.46747 0.0
C288 C 0.17165 0.81829 0.37863 0.0
C289 C 0.12518 0.82288 0.40055 0.0
C290 C 0.21318 0.83873 0.32355 0.0
C291 C 0.26261 0.83488 0.29579 0.0
C292 C 0.32843 0.86333 0.31907 0.0
C293 C 0.37676 0.86175 0.29088 0.0
C294 C 0.36106 0.8331 0.23843 0.0
C295 C 0.2973 0.80634 0.21388 0.0
C296 C 0.24843 0.80734 0.24224 0.0
C297 C 0.14313 0.94782 0.27051 0.0
C298 C 0.11238 0.92201 0.21809 0.0
C299 C 0.16203 0.9316 0.29985 0.0
C300 C 0.14983 0.8887 0.27776 0.0
C301 C 0.12403 0.86542 0.22339 0.0
C302 C 0.10497 0.88169 0.19398 0.0
C303 C 0.15725 0.86495 0.31356 0.0
C304 C 0.20544 0.86185 0.29211 0.0
C305 C 0.11618 0.84479 0.36862 0.0
C306 C 0.05943 0.84244 0.39252 0.0
C307 C 1.00051 0.81685 0.3611 0.0
C308 C 0.9471 0.81454 0.38397 0.0
C309 C 0.95116 0.8368 0.43867 0.0
C310 C 1.00862 0.86147 0.47065 0.0
C311 C 0.06257 0.8643 0.44778 0.0
H312 H 0.90963 0.83475 0.45624 0.0
H313 H 0.39867 0.83211 0.21653 0.0
H314 H 0.1803 0.50006 0.43343 0.0
H315 H 0.16505 0.44019 0.35733 0.0
H316 H 0.19089 0.38327 0.47451 0.0
H317 H 0.20684 0.4431 0.55029 0.0
H318 H 0.27425 0.4056 0.37594 0.0
H319 H 1.0072 0.29708 0.42758 0.0
H320 H 0.89823 0.27863 0.44136 0.0
H321 H 0.9569 0.33326 0.27269 0.0
H322 H 0.0639 0.34911 0.25671 0.0
H323 H 0.14049 0.16998 0.22064 0.0
H324 H 0.16134 0.23515 0.29105 0.0
H325 H 0.12714 0.28201 0.16739 0.0
H326 H 0.10467 0.21627 0.09742 0.0
H327 H 0.05242 0.26883 0.26495 0.0
H328 H 0.30268 0.36311 0.20465 0.0
H329 H 0.40965 0.37901 0.18296 0.0
H330 H 0.39606 0.36327 0.3602 0.0
H331 H 0.28783 0.34613 0.3829 0.0
C332 C 0.18203 0.4744 0.44312 0.0
C333 C 0.19495 0.47655 0.49805 0.0
C334 C 0.17296 0.43993 0.39957 0.0
C335 C 0.17593 0.4065 0.41012 0.0
C336 C 0.1881 0.40835 0.46512 0.0
C337 C 0.19723 0.44272 0.50854 0.0
C338 C 0.16836 0.3706 0.36389 0.0
C339 C 0.22524 0.37518 0.35217 0.0
C340 C 0.10626 0.33243 0.33097 0.0
C341 C 0.04355 0.32446 0.34112 0.0
C342 C 0.99681 0.30512 0.39349 0.0
C343 C 0.93537 0.2951 0.40166 0.0
C344 C 0.92125 0.30556 0.35834 0.0
C345 C 0.96798 0.32532 0.30632 0.0
C346 C 0.02854 0.33428 0.29744 0.0
C347 C 0.13795 0.19444 0.2083 0.0
C348 C 0.12096 0.18786 0.1533 0.0
C349 C 0.1501 0.23185 0.2486 0.0
C350 C 0.14644 0.26398 0.23456 0.0
C351 C 0.13011 0.25772 0.17947 0.0
C352 C 0.11755 0.22016 0.13935 0.0
C353 C 0.15759 0.30304 0.27759 0.0
C354 C 0.1016 0.29922 0.28857 0.0
C355 C 0.22143 0.34268 0.30885 0.0
C356 C 0.2864 0.35271 0.29542 0.0
C357 C 0.3217 0.36225 0.23895 0.0
C358 C 0.38273 0.37161 0.22646 0.0
C359 C 0.40949 0.37198 0.27013 0.0
C360 C 0.37523 0.36295 0.3264 0.0
C361 C 0.31404 0.35343 0.33911 0.0
H362 H 0.45688 0.3794 0.26039 0.0
H363 H 0.87384 0.29803 0.36493 0.0
H364 H 0.37098 0.64895 0.51312 0.0
H365 H 0.4281 0.67736 0.41415 0.0
H366 H 0.58951 0.84653 0.47195 0.0
H367 H 0.53398 0.81848 0.57115 0.0
H368 H 0.52556 0.81548 0.36188 0.0
H369 H 0.63629 0.79566 0.46466 0.0
H370 H 0.62233 0.74015 0.52058 0.0
H371 H 0.55533 0.63065 0.37507 0.0
H372 H 0.56208 0.68303 0.31966 0.0
H373 H 0.87125 0.98813 0.1803 0.0
H374 H 0.76704 0.93671 0.25736 0.0
H375 H 0.67585 0.78628 0.17893 0.0
H376 H 0.78024 0.83762 0.10126 0.0
H377 H 0.67929 0.78965 0.28846 0.0
H378 H 0.59039 0.8171 0.17932 0.0
H379 H 0.58195 0.86045 0.12463 0.0
H380 H 0.6015 0.94995 0.27595 0.0
H381 H 0.61138 0.9079 0.33147 0.0
C382 C 0.41746 0.69218 0.50465 0.0
C383 C 0.44838 0.73155 0.54997 0.0
C384 C 0.45001 0.70829 0.44805 0.0
C385 C 0.51324 0.76401 0.43581 0.0
C386 C 0.54055 0.80332 0.48052 0.0
C387 C 0.50901 0.78725 0.53719 0.0
C388 C 0.55699 0.78176 0.37809 0.0
C389 C 0.55995 0.81051 0.34576 0.0
C390 C 0.59864 0.77261 0.35617 0.0
C391 C 0.5978 0.74251 0.38848 0.0
C392 C 0.61703 0.75914 0.44484 0.0
C393 C 0.61048 0.7282 0.47647 0.0
C394 C 0.5885 0.68201 0.45133 0.0
C395 C 0.57221 0.66638 0.39456 0.0
C396 C 0.57651 0.69634 0.36322 0.0
C397 C 0.82882 0.94406 0.17908 0.0
C398 C 0.83418 0.91708 0.13433 0.0
C399 C 0.7688 0.91458 0.22318 0.0
C400 C 0.71274 0.85739 0.22384 0.0
C401 C 0.71802 0.8303 0.17929 0.0
C402 C 0.77779 0.85976 0.13484 0.0
C403 C 0.65201 0.82671 0.27309 0.0
C404 C 0.64502 0.79479 0.30381 0.0
C405 C 0.60609 0.83256 0.29309 0.0
C406 C 0.60327 0.85995 0.25943 0.0
C407 C 0.59427 0.84673 0.20081 0.0
C408 C 0.58878 0.87095 0.16968 0.0
C409 C 0.59153 0.9082 0.19676 0.0
C410 C 0.59977 0.9213 0.25498 0.0
C411 C 0.60544 0.89729 0.28629 0.0
H412 H 0.58703 0.9269 0.17292 0.0
H413 H 0.58412 0.65835 0.47582 0.0
H414 H 0.03346 0.38087 0.54209 0.0
H415 H 0.0353 0.33183 0.59244 0.0
H416 H 0.79044 0.20105 0.62282 0.0
H417 H 0.789 0.25109 0.57315 0.0
H418 H 0.84508 0.22936 0.71915 0.0
H419 H 0.88923 0.18391 0.53195 0.0
H420 H 0.9487 0.19801 0.43268 0.0
H421 H 0.16273 0.30107 0.49355 0.0
H422 H 0.10482 0.28818 0.59329 0.0
H423 H 0.81111 0.04739 0.82723 0.0
H424 H 0.80617 0.0953 0.77847 0.0
H425 H 0.05112 0.23121 0.75246 0.0
H426 H 0.05555 0.18184 0.79945 0.0
H427 H 0.99427 0.199 0.65411 0.0
H428 H 0.93707 0.23668 0.84613 0.0
H429 H 0.86262 0.20345 0.94123 0.0
H430 H 0.65765 0.10019 0.86494 0.0
H431 H 0.73045 0.132 0.76963 0.0
C432 C 0.97998 0.34097 0.5582 0.0
C433 C 0.91112 0.31975 0.55349 0.0
C434 C 0.98097 0.31285 0.58708 0.0
C435 C 0.91297 0.26251 0.61178 0.0
C436 C 0.84374 0.23986 0.60446 0.0
C437 C 0.84279 0.26808 0.57537 0.0
C438 C 0.91486 0.23585 0.64853 0.0
C439 C 0.87707 0.22222 0.70452 0.0
C440 C 0.95727 0.22694 0.63019 0.0
C441 C 0.99277 0.23549 0.57019 0.0
C442 C 0.94915 0.21 0.52422 0.0
C443 C 0.98253 0.21761 0.46785 0.0
C444 C 0.05951 0.25058 0.45681 0.0
C445 C 0.10312 0.27563 0.50218 0.0
C446 C 0.07004 0.26816 0.55865 0.0
C447 C 0.86387 0.08873 0.81387 0.0
C448 C 0.93376 0.11163 0.81886 0.0
C449 C 0.86111 0.11595 0.78522 0.0
C450 C 0.92832 0.16726 0.7617 0.0
C451 C 0.99841 0.19178 0.77011 0.0
C452 C 1.00108 0.16415 0.79817 0.0
C453 C 0.92532 0.19317 0.72476 0.0
C454 C 0.96291 0.20667 0.66876 0.0
C455 C 0.88158 0.20096 0.74265 0.0
C456 C 0.83916 0.18638 0.80066 0.0
C457 C 0.8761 0.207 0.84975 0.0
C458 C 0.83411 0.18819 0.90371 0.0
C459 C 0.75533 0.14941 0.90919 0.0
C460 C 0.71857 0.13012 0.86085 0.0
C461 C 0.76018 0.14859 0.80681 0.0
H462 H 0.72284 0.13425 0.95089 0.0
H463 H 0.08531 0.25661 0.41314 0.0
H464 H 0.73063 0.51264 0.50089 0.0
H465 H 0.76906 0.58776 0.56247 0.0
H466 H 0.96496 0.63979 0.59578 0.0
H467 H 0.92498 0.56298 0.53541 0.0
H468 H 0.8992 0.6409 0.69089 0.0
H469 H 0.98072 0.71573 0.5058 0.0
H470 H 0.9612 0.71109 0.4074 0.0
H471 H 0.77624 0.68257 0.47317 0.0
H472 H 0.79215 0.68429 0.57149 0.0
H473 H 0.05228 0.87896 0.84326 0.0
H474 H 0.03561 0.81938 0.76666 0.0
H475 H 0.82851 0.75308 0.73556 0.0
H476 H 0.84649 0.81462 0.81127 0.0
H477 H 0.91683 0.76885 0.633 0.0
H478 H 0.80709 0.67286 0.80864 0.0
H479 H 0.80485 0.66433 0.9091 0.0
H480 H 1.01375 0.71907 0.86641 0.0
H481 H 1.01702 0.72797 0.76565 0.0
C482 C 0.78217 0.54018 0.52103 0.0
C483 C 0.8248 0.53183 0.51312 0.0
C484 C 0.80455 0.58359 0.55589 0.0
C485 C 0.87106 0.62052 0.58281 0.0
C486 C 0.91376 0.6122 0.57515 0.0
C487 C 0.89078 0.5682 0.54074 0.0
C488 C 0.89286 0.66548 0.62175 0.0
C489 C 0.90292 0.66875 0.67824 0.0
C490 C 0.89734 0.70185 0.60534 0.0
C491 C 0.88848 0.70119 0.54608 0.0
C492 C 0.93586 0.70842 0.49923 0.0
C493 C 0.92512 0.7059 0.44348 0.0
C494 C 0.86779 0.69672 0.43412 0.0
C495 C 0.82086 0.6899 0.48046 0.0
C496 C 0.83075 0.69172 0.53618 0.0
C497 C 1.00327 0.85198 0.82001 0.0
C498 C 0.95016 0.8511 0.83392 0.0
C499 C 0.99393 0.81794 0.77605 0.0
C500 C 0.93055 0.78138 0.74545 0.0
C501 C 0.87831 0.78133 0.75807 0.0
C502 C 0.88825 0.81614 0.80173 0.0
C503 C 0.91692 0.74102 0.70324 0.0
C504 C 0.9104 0.73965 0.64611 0.0
C505 C 0.91253 0.70475 0.71938 0.0
C506 C 0.91216 0.70089 0.77986 0.0
C507 C 0.85255 0.68317 0.82084 0.0
C508 C 0.85109 0.67826 0.87775 0.0
C509 C 0.90916 0.69116 0.89414 0.0
C510 C 0.96889 0.70916 0.85366 0.0
C511 C 0.97052 0.71407 0.79666 0.0
H512 H 0.90787 0.68723 0.93819 0.0
H513 H 0.85964 0.69479 0.39094 0.0
H514 H 0.62237 0.35953 0.49078 0.0
H515 H 0.5465 0.32623 0.58398 0.0
H516 H 0.461 0.17195 0.5426 0.0
H517 H 0.53153 0.20389 0.44701 0.0
H518 H 0.35016 0.15036 0.58738 0.0
H519 H 0.60528 0.28556 0.64919 0.0
H520 H 0.73655 0.37933 0.64829 0.0
H521 H 0.65545 0.4414 0.71916 0.0
H522 H 0.52323 0.34753 0.72055 0.0
H523 H 0.17738 0.03174 0.8536 0.0
H524 H 0.26931 0.07886 0.76887 0.0
H525 H 0.32262 0.21943 0.821 0.0
H526 H 0.23209 0.17286 0.90757 0.0
H527 H 0.44729 0.25264 0.77234 0.0
H528 H 0.19722 0.12174 0.72589 0.0
H529 H 0.06302 0.03112 0.72519 0.0
H530 H 0.12721 0.96512 0.61912 0.0
H531 H 0.26262 0.05475 0.62247 0.0
C532 C 0.58892 0.31906 0.50227 0.0
C533 C 0.5839 0.28463 0.46216 0.0
C534 C 0.5454 0.29989 0.55587 0.0
C535 C 0.49859 0.24665 0.57169 0.0
C536 C 0.49627 0.21312 0.53202 0.0
C537 C 0.53737 0.23155 0.47757 0.0
C538 C 0.44887 0.22447 0.62783 0.0
C539 C 0.37204 0.17238 0.62782 0.0
C540 C 0.47538 0.25412 0.68085 0.0
C541 C 0.55463 0.30973 0.68453 0.0
C542 C 0.61557 0.31922 0.66492 0.0
C543 C 0.6902 0.37249 0.66421 0.0
C544 C 0.70461 0.41658 0.68329 0.0
C545 C 0.64431 0.40729 0.70432 0.0
C546 C 0.5695 0.35403 0.70529 0.0
C547 C 0.20926 0.07296 0.84749 0.0
C548 C 0.19684 0.09836 0.88706 0.0
C549 C 0.26174 0.09984 0.79881 0.0
C550 C 0.30167 0.15224 0.78755 0.0
C551 C 0.29221 0.17888 0.82842 0.0
C552 C 0.24041 0.15223 0.87789 0.0
C553 C 0.34998 0.17756 0.73182 0.0
C554 C 0.42581 0.23035 0.7319 0.0
C555 C 0.32206 0.14889 0.6787 0.0
C556 C 0.24048 0.0951 0.67497 0.0
C557 C 0.183 0.08789 0.70284 0.0
C558 C 0.10656 0.03659 0.702 0.0
C559 C 0.08642 0.99243 0.6717 0.0
C560 C 0.14289 0.9994 0.64257 0.0
C561 C 0.21962 0.05041 0.64428 0.0
H562 H 0.02711 0.95284 0.6709 0.0
H563 H 0.76237 0.45796 0.6817 0.0
H564 H 0.65535 0.49011 0.15095 0.0
H565 H 0.64482 0.53783 0.10897 0.0
H566 H 0.45649 0.38724 0.02299 0.0
H567 H 0.46901 0.34034 0.06338 0.0
H568 H 0.55396 0.4622 0.94879 0.0
H569 H 0.44341 0.45897 0.13891 0.0
H570 H 0.43825 0.47779 0.24331 0.0
H571 H 0.6442 0.64919 0.21852 0.0
H572 H 0.65095 0.6317 0.11421 0.0
H573 H 0.43967 0.55821 0.85095 0.0
H574 H 0.45096 0.51018 0.89154 0.0
H575 H 0.6575 0.66381 0.95851 0.0
H576 H 0.64734 0.71173 0.91727 0.0
H577 H 0.55376 0.58956 0.04215 0.0
H578 H 0.66862 0.59853 0.85909 0.0
H579 H 0.68752 0.58773 0.75462 0.0
H580 H 0.48823 0.41342 0.76511 0.0
H581 H 0.46749 0.42322 0.8696 0.0
C582 C 0.61004 0.46691 0.12474 0.0
C583 C 0.56252 0.41136 0.11093 0.0
C584 C 0.60407 0.49424 0.10048 0.0
C585 C 0.54969 0.4664 0.0625 0.0
C586 C 0.49925 0.41003 0.05171 0.0
C587 C 0.50584 0.38299 0.07532 0.0
C588 C 0.54972 0.49639 0.02962 0.0
C589 C 0.55203 0.48903 0.96955 0.0
C590 C 0.55126 0.53382 0.05583 0.0
C591 C 0.54814 0.54391 0.11875 0.0
C592 C 0.48805 0.50058 0.15576 0.0
C593 C 0.48472 0.51101 0.21487 0.0
C594 C 0.54103 0.56447 0.23744 0.0
C595 C 0.60074 0.60776 0.20099 0.0
C596 C 0.60428 0.59765 0.14189 0.0
C597 C 0.48894 0.58188 0.87242 0.0
C598 C 0.54252 0.63884 0.88085 0.0
C599 C 0.49509 0.55435 0.89608 0.0
C600 C 0.55475 0.58324 0.92875 0.0
C601 C 0.61063 0.64042 0.93403 0.0
C602 C 0.60491 0.66783 0.9101 0.0
C603 C 0.55558 0.55396 0.96174 0.0
C604 C 0.55418 0.56189 0.02161 0.0
C605 C 0.55595 0.51769 0.93534 0.0
C606 C 0.56583 0.5117 0.87215 0.0
C607 C 0.62809 0.55796 0.83904 0.0
C608 C 0.63936 0.552 0.77983 0.0
C609 C 0.58893 0.49994 0.75323 0.0
C610 C 0.52709 0.45374 0.78576 0.0
C611 C 0.51555 0.45948 0.84498 0.0
H612 H 0.59792 0.49539 0.70743 0.0
H613 H 0.53821 0.57236 0.28317 0.0
H614 H 0.54874 0.87542 0.86227 0.0
H615 H 0.5889 0.95182 0.92337 0.0
H616 H 0.38495 0.89405 0.90234 0.0
H617 H 0.34534 0.81843 0.84002 0.0
H618 H 0.515 1.00849 0.89548 0.0
H619 H 0.38501 0.87239 0.04187 0.0
H620 H 0.3618 0.8014 0.07183 0.0
H621 H 0.60234 0.91688 0.06448 0.0
H622 H 0.62643 0.98883 0.03718 0.0
H623 H 0.52064 0.15784 0.13014 0.0
H624 H 0.4842 0.08533 0.06296 0.0
H625 H 0.67407 0.13059 0.0977 0.0
H626 H 0.70985 0.20224 0.16558 0.0
H627 H 0.55159 0.0226 0.09592 0.0
H628 H 0.67245 0.16712 0.98012 0.0
H629 H 0.69597 0.23453 0.94006 0.0
H630 H 0.47846 0.10519 0.87616 0.0
H631 H 0.45277 0.03667 0.91666 0.0
C632 C 0.51232 0.87886 0.8707 0.0
C633 C 0.44361 0.84052 0.84638 0.0
C634 C 0.53528 0.92255 0.90579 0.0
C635 C 0.48952 0.92844 0.91814 0.0
C636 C 0.42133 0.89055 0.89344 0.0
C637 C 0.3986 0.8471 0.85801 0.0
C638 C 0.51144 0.97286 0.95843 0.0
C639 C 0.52225 1.01144 0.93951 0.0
C640 C 0.52206 0.9772 0.0155 0.0
C641 C 0.50743 0.93588 0.03805 0.0
C642 C 0.43271 0.88272 0.04784 0.0
C643 C 0.41938 0.84237 0.06447 0.0
C644 C 0.48046 0.85467 0.07061 0.0
C645 C 0.55491 0.90748 0.06066 0.0
C646 C 0.56845 0.94825 0.04536 0.0
C647 C 0.55476 0.15246 0.12339 0.0
C648 C 0.61826 0.186 0.1533 0.0
C649 C 0.53391 0.11098 0.08485 0.0
C650 C 0.57662 0.10255 0.07482 0.0
C651 C 0.63995 0.136 0.10473 0.0
C652 C 0.66056 0.17722 0.14342 0.0
C653 C 0.55568 0.05906 0.03321 0.0
C654 C 0.54455 0.02021 0.05199 0.0
C655 C 0.54518 0.05497 0.97582 0.0
C656 C 0.56033 0.09644 0.95192 0.0
C657 C 0.62919 0.15279 0.95792 0.0
C658 C 0.64307 0.19133 0.93501 0.0
C659 C 0.58878 0.17418 0.90557 0.0
C660 C 0.52049 0.11843 0.89899 0.0
C661 C 0.50627 0.07968 0.92191 0.0
H662 H 0.59965 0.20411 0.88786 0.0
H663 H 0.47009 0.82324 0.0828 0.0
H664 H 0.10838 0.51415 0.77197 0.0
H665 H 0.04775 0.4881 0.86979 0.0
H666 H 0.2511 0.64706 0.93247 0.0
H667 H 0.31112 0.6755 0.83347 0.0
H668 H 0.13558 0.51677 0.98293 0.0
H669 H 0.18079 0.66316 0.95955 0.0
H670 H 0.18393 0.71627 0.9106 0.0
H671 H 0.94173 0.57852 0.91106 0.0
H672 H 0.93809 0.5236 0.95657 0.0
H673 H 0.95672 0.51072 0.26626 0.0
H674 H 0.03704 0.54808 0.17536 0.0
H675 H 0.85469 0.39753 0.0871 0.0
H676 H 0.77269 0.3584 0.17861 0.0
H677 H 0.97242 0.53452 0.0558 0.0
H678 H 0.93877 0.38867 0.07613 0.0
H679 H 0.9444 0.34449 0.13314 0.0
H680 H 0.17795 0.49736 0.15331 0.0
H681 H 0.17302 0.543 0.09793 0.0
C682 C 0.14059 0.54398 0.80628 0.0
C683 C 0.21428 0.59749 0.79445 0.0
C684 C 0.10556 0.52878 0.86241 0.0
C685 C 0.14383 0.56605 0.9084 0.0
C686 C 0.21974 0.6181 0.89744 0.0
C687 C 0.25428 0.63411 0.84083 0.0
C688 C 0.10253 0.54975 0.96716 0.0
C689 C 0.1005 0.52115 0.99901 0.0
C690 C 0.05696 0.55569 0.98852 0.0
C691 C 0.0596 0.58819 0.95891 0.0
C692 C 0.12863 0.64333 0.9469 0.0
C693 C 0.13047 0.67397 0.92006 0.0
C694 C 0.06321 0.65041 0.90649 0.0
C695 C 0.99404 0.59631 0.92013 0.0
C696 C 0.99217 0.56527 0.94602 0.0
C697 C 0.93283 0.48533 0.22768 0.0
C698 C 0.85785 0.43123 0.23005 0.0
C699 C 0.97934 0.50705 0.17569 0.0
C700 C 0.95225 0.47582 0.12463 0.0
C701 C 0.87681 0.42238 0.12619 0.0
C702 C 0.82999 0.40012 0.17848 0.0
C703 C 1.00329 0.49979 0.06997 0.0
C704 C 1.00752 0.5302 0.03939 0.0
C705 C 0.05215 0.49672 0.05049 0.0
C706 C 0.05507 0.46935 0.08369 0.0
C707 C 0.99094 0.41308 0.09351 0.0
C708 C 0.99407 0.38779 0.12549 0.0
C709 C 0.06137 0.41827 0.14727 0.0
C710 C 0.12575 0.47405 0.1369 0.0
C711 C 0.12278 0.49963 0.10527 0.0
H712 H 0.06375 0.3986 0.17191 0.0
H713 H 0.06452 0.67428 0.8862 0.0
loop_
_geom_bond_atom_site_label_1
_geom_bond_atom_site_label_2
_geom_bond_distance
_geom_bond_site_symmetry_2
_ccdc_geom_bond_type
C0 C1 1.387 . S
C0 C5 1.380 1_545 S
C0 C16 1.494 . S
C1 C0 1.387 . S
C1 C2 1.386 1_545 S
C1 H32 0.930 . S
C2 C1 1.386 1_565 S
C2 C3 1.397 . S
C3 C2 1.397 . S
C3 C4 1.393 . S
C3 H33 0.930 . S
C4 C3 1.393 . S
C4 C5 1.395 . S
C5 C0 1.380 1_565 S
C5 C4 1.395 . S
C5 H34 0.930 . S
O6 Tb7 2.295 1_655 S
O6 C19 1.242 1_545 S
Tb7 O6 2.295 1_455 S
Tb7 O8 2.312 . S
Tb7 O11 2.438 . S
Tb7 O13 2.472 . S
Tb7 O15 2.308 1_554 S
Tb7 C16 2.821 . S
O8 Tb7 2.312 . S
O8 C28 1.264 . S
O9 Eu10 2.308 1_554 S
O9 C19 1.243 . S
Eu10 O9 2.308 1_556 S
Eu10 C12 2.821 . S
Eu10 O14 2.295 1_655 S
Eu10 O21 2.312 . S
Eu10 O30 2.438 . S
Eu10 O31 2.472 . S
O11 Tb7 2.438 . S
O11 C16 1.263 . S
C12 Eu10 2.821 . S
C12 C22 1.494 . S
C12 O30 1.263 . S
C12 O31 1.264 . S
O13 Tb7 2.472 . S
O13 C16 1.264 . S
O14 Eu10 2.295 1_455 S
O14 C20 1.242 1_565 S
O15 Tb7 2.308 1_556 S
O15 C20 1.243 . S
C16 C0 1.494 . S
C16 Tb7 2.821 . S
C16 O11 1.263 . S
C16 O13 1.264 . S
C17 O18 1.260 . S
C17 O21 1.264 . S
O18 C17 1.260 . S
C19 O6 1.242 1_565 S
C19 O9 1.243 . S
C20 O14 1.242 1_545 S
C20 O15 1.243 . S
O21 Eu10 2.312 . S
O21 C17 1.264 . S
C22 C12 1.494 . S
C22 C24 1.380 1_565 S
C22 C25 1.387 . S
C23 C24 1.395 . S
C23 C27 1.393 . S
C24 C22 1.380 1_545 S
C24 C23 1.395 . S
C24 H35 0.930 . S
C25 C22 1.387 . S
C25 C26 1.386 1_565 S
C25 H36 0.930 . S
C26 C25 1.386 1_545 S
C26 C27 1.397 . S
C27 C23 1.393 . S
C27 C26 1.397 . S
C27 H37 0.930 . S
C28 O8 1.264 . S
C28 O29 1.260 . S
O29 C28 1.260 . S
O30 Eu10 2.438 . S
O30 C12 1.263 . S
O31 Eu10 2.472 . S
O31 C12 1.264 . S
H32 C1 0.930 . S
H33 C3 0.930 . S
H34 C5 0.930 . S
H35 C24 0.930 . S
H36 C25 0.930 . S
H37 C27 0.930 . S
C38 C39 1.387 . S
C38 C43 1.380 . S
C38 C54 1.494 . S
C39 C38 1.387 . S
C39 C40 1.386 . S
C39 H70 0.930 . S
C40 C39 1.386 . S
C40 C41 1.397 . S
C41 C40 1.397 . S
C41 C42 1.393 . S
C41 H71 0.930 . S
C42 C41 1.393 . S
C42 C43 1.395 . S
C43 C38 1.380 . S
C43 C42 1.395 . S
C43 H72 0.930 . S
O44 Tb45 2.295 . S
O44 C57 1.242 . S
Tb45 O44 2.295 . S
Tb45 O46 2.312 . S
Tb45 O49 2.438 . S
Tb45 O51 2.472 . S
Tb45 O53 2.308 . S
Tb45 C54 2.821 . S
O46 Tb45 2.312 . S
O46 C66 1.264 . S
O47 Eu48 2.308 . S
O47 C57 1.243 . S
Eu48 O47 2.308 . S
Eu48 C50 2.821 . S
Eu48 O52 2.295 . S
Eu48 O59 2.312 . S
Eu48 O68 2.438 . S
Eu48 O69 2.472 . S
O49 Tb45 2.438 . S
O49 C54 1.263 . S
C50 Eu48 2.821 . S
C50 C60 1.494 . S
C50 O68 1.263 . S
C50 O69 1.264 . S
O51 Tb45 2.472 . S
O51 C54 1.264 . S
O52 Eu48 2.295 . S
O52 C58 1.242 . S
O53 Tb45 2.308 . S
O53 C58 1.243 . S
C54 C38 1.494 . S
C54 Tb45 2.821 . S
C54 O49 1.263 . S
C54 O51 1.264 . S
C55 O56 1.260 . S
C55 O59 1.264 . S
O56 C55 1.260 . S
C57 O44 1.242 . S
C57 O47 1.243 . S
C58 O52 1.242 . S
C58 O53 1.243 . S
O59 Eu48 2.312 . S
O59 C55 1.264 . S
C60 C50 1.494 . S
C60 C62 1.380 . S
C60 C63 1.387 . S
C61 C62 1.395 . S
C61 C65 1.393 . S
C62 C60 1.380 . S
C62 C61 1.395 . S
C62 H73 0.930 . S
C63 C60 1.387 . S
C63 C64 1.386 . S
C63 H74 0.930 . S
C64 C63 1.386 . S
C64 C65 1.397 . S
C65 C61 1.393 . S
C65 C64 1.397 . S
C65 H75 0.930 . S
C66 O46 1.264 . S
C66 O67 1.260 . S
O67 C66 1.260 . S
O68 Eu48 2.438 . S
O68 C50 1.263 . S
O69 Eu48 2.472 . S
O69 C50 1.264 . S
H70 C39 0.930 . S
H71 C41 0.930 . S
H72 C43 0.930 . S
H73 C62 0.930 . S
H74 C63 0.930 . S
H75 C65 0.930 . S
C76 C77 1.387 . S
C76 C81 1.380 . S
C76 C92 1.494 . S
C77 C76 1.387 . S
C77 C78 1.386 . S
C77 H108 0.930 . S
C78 C77 1.386 . S
C78 C79 1.397 . S
C79 C78 1.397 . S
C79 C80 1.393 . S
C79 H109 0.930 . S
C80 C79 1.393 . S
C80 C81 1.395 . S
C81 C76 1.380 . S
C81 C80 1.395 . S
C81 H110 0.930 . S
O82 Tb83 2.295 . S
O82 C95 1.242 . S
Tb83 O82 2.295 . S
Tb83 O84 2.312 . S
Tb83 O87 2.438 . S
Tb83 O89 2.472 . S
Tb83 O91 2.308 . S
Tb83 C92 2.821 . S
O84 Tb83 2.312 . S
O84 C104 1.264 . S
O85 Eu86 2.308 . S
O85 C95 1.243 . S
Eu86 O85 2.308 . S
Eu86 C88 2.821 . S
Eu86 O90 2.295 . S
Eu86 O97 2.312 . S
Eu86 O106 2.438 . S
Eu86 O107 2.472 . S
O87 Tb83 2.438 . S
O87 C92 1.263 . S
C88 Eu86 2.821 . S
C88 C98 1.494 . S
C88 O106 1.263 . S
C88 O107 1.264 . S
O89 Tb83 2.472 . S
O89 C92 1.264 . S
O90 Eu86 2.295 . S
O90 C96 1.242 . S
O91 Tb83 2.308 . S
O91 C96 1.243 . S
C92 C76 1.494 . S
C92 Tb83 2.821 . S
C92 O87 1.263 . S
C92 O89 1.264 . S
C93 O94 1.260 . S
C93 O97 1.264 . S
O94 C93 1.260 . S
C95 O82 1.242 . S
C95 O85 1.243 . S
C96 O90 1.242 . S
C96 O91 1.243 . S
O97 Eu86 2.312 . S
O97 C93 1.264 . S
C98 C88 1.494 . S
C98 C100 1.380 . S
C98 C101 1.387 . S
C99 C100 1.395 . S
C99 C103 1.393 . S
C100 C98 1.380 . S
C100 C99 1.395 . S
C100 H111 0.930 . S
C101 C98 1.387 . S
C101 C102 1.386 . S
C101 H112 0.930 . S
C102 C101 1.386 . S
C102 C103 1.397 . S
C103 C99 1.393 . S
C103 C102 1.397 . S
C103 H113 0.930 . S
C104 O84 1.264 . S
C104 O105 1.260 . S
O105 C104 1.260 . S
O106 Eu86 2.438 . S
O106 C88 1.263 . S
O107 Eu86 2.472 . S
O107 C88 1.264 . S
H108 C77 0.930 . S
H109 C79 0.930 . S
H110 C81 0.930 . S
H111 C100 0.930 . S
H112 C101 0.930 . S
H113 C103 0.930 . S
H114 C132 0.951 . S
H115 C134 0.951 . S
H116 C136 0.950 . S
H117 C137 0.950 1_455 S
H118 C139 0.950 . S
H119 C142 0.950 . S
H120 C143 0.950 . S
H121 C145 0.950 . S
H122 C146 0.950 . S
H123 C147 0.951 . S
H124 C149 0.951 . S
H125 C151 0.950 . S
H126 C152 0.950 1_655 S
H127 C154 0.950 . S
H128 C157 0.950 . S
H129 C158 0.950 . S
H130 C160 0.950 . S
H131 C161 0.950 . S
C132 H114 0.951 . S
C132 C133 1.366 1_565 S
C132 C134 1.388 . S
C133 C132 1.366 1_545 S
C133 C137 1.385 . S
C134 H115 0.951 . S
C134 C132 1.388 . S
C134 C135 1.366 1_565 S
C135 C134 1.366 1_545 S
C135 C136 1.414 1_655 S
C135 C138 1.499 . S
C136 H116 0.950 . S
C136 C135 1.414 1_455 S
C136 C137 1.374 1_455 S
C137 H117 0.950 1_655 S
C137 C133 1.385 . S
C137 C136 1.374 1_655 S
C138 C135 1.499 . S
C138 C139 1.373 1_655 S
C138 C140 1.389 1_545 S
C139 H118 0.950 . S
C139 C138 1.373 1_455 S
C139 C155 1.377 . S
C140 C138 1.389 1_565 S
C140 C141 1.524 . S
C140 C154 1.377 . S
C141 C140 1.524 . S
C141 C142 1.397 . S
C141 C146 1.363 . S
C142 H119 0.950 . S
C142 C141 1.397 . S
C142 C143 1.334 . S
C143 H120 0.950 . S
C143 C142 1.334 . S
C143 C144 1.287 . S
C144 C143 1.287 . S
C144 C145 1.524 . S
C144 H163 0.913 . S
C145 H121 0.950 . S
C145 C144 1.524 . S
C145 C146 1.415 . S
C146 H122 0.950 . S
C146 C141 1.363 . S
C146 C145 1.415 . S
C147 H123 0.951 . S
C147 C148 1.366 1_545 S
C147 C149 1.388 . S
C148 C147 1.366 1_565 S
C148 C152 1.385 . S
C149 H124 0.951 . S
C149 C147 1.388 . S
C149 C150 1.366 1_545 S
C150 C149 1.366 1_565 S
C150 C151 1.414 1_455 S
C150 C153 1.499 . S
C151 H125 0.950 . S
C151 C150 1.414 1_655 S
C151 C152 1.374 1_655 S
C152 H126 0.950 1_455 S
C152 C148 1.385 . S
C152 C151 1.374 1_455 S
C153 C150 1.499 . S
C153 C154 1.373 1_455 S
C153 C155 1.389 1_565 S
C154 H127 0.950 . S
C154 C140 1.377 . S
C154 C153 1.373 1_655 S
C155 C139 1.377 . S
C155 C153 1.389 1_545 S
C155 C156 1.524 . S
C156 C155 1.524 . S
C156 C157 1.397 . S
C156 C161 1.363 . S
C157 H128 0.950 . S
C157 C156 1.397 . S
C157 C158 1.334 . S
C158 H129 0.950 . S
C158 C157 1.334 . S
C158 C159 1.287 . S
C159 C158 1.287 . S
C159 C160 1.524 . S
C159 H162 0.999 . S
C160 H130 0.950 . S
C160 C159 1.524 . S
C160 C161 1.415 . S
C161 H131 0.950 . S
C161 C156 1.363 . S
C161 C160 1.415 . S
H162 C159 0.999 . S
H163 C144 0.913 . S
H164 C182 0.951 . S
H165 C184 0.951 . S
H166 C186 0.950 . S
H167 C187 0.950 . S
H168 C189 0.950 . S
H169 C192 0.950 . S
H170 C193 0.950 . S
H171 C195 0.950 . S
H172 C196 0.950 . S
H173 C197 0.951 . S
H174 C199 0.951 . S
H175 C201 0.950 . S
H176 C202 0.950 . S
H177 C204 0.950 . S
H178 C207 0.950 . S
H179 C208 0.950 . S
H180 C210 0.950 . S
H181 C211 0.950 . S
C182 H164 0.951 . S
C182 C183 1.366 . S
C182 C184 1.388 . S
C183 C182 1.366 . S
C183 C187 1.385 . S
C184 H165 0.951 . S
C184 C182 1.388 . S
C184 C185 1.366 . S
C185 C184 1.366 . S
C185 C186 1.414 . S
C185 C188 1.499 . S
C186 H166 0.950 . S
C186 C185 1.414 . S
C186 C187 1.374 . S
C187 H167 0.950 . S
C187 C183 1.385 . S
C187 C186 1.374 . S
C188 C185 1.499 . S
C188 C189 1.373 . S
C188 C190 1.389 . S
C189 H168 0.950 . S
C189 C188 1.373 . S
C189 C205 1.377 . S
C190 C188 1.389 . S
C190 C191 1.524 . S
C190 C204 1.377 . S
C191 C190 1.524 . S
C191 C192 1.397 . S
C191 C196 1.363 . S
C192 H169 0.950 . S
C192 C191 1.397 . S
C192 C193 1.334 . S
C193 H170 0.950 . S
C193 C192 1.334 . S
C193 C194 1.287 . S
C194 C193 1.287 . S
C194 C195 1.524 . S
C194 H213 0.913 . S
C195 H171 0.950 . S
C195 C194 1.524 . S
C195 C196 1.415 . S
C196 H172 0.950 . S
C196 C191 1.363 . S
C196 C195 1.415 . S
C197 H173 0.951 . S
C197 C198 1.366 . S
C197 C199 1.388 1_554 S
C198 C197 1.366 . S
C198 C202 1.385 . S
C199 H174 0.951 . S
C199 C197 1.388 1_556 S
C199 C200 1.366 . S
C200 C199 1.366 . S
C200 C201 1.414 . S
C200 C203 1.499 . S
C201 H175 0.950 . S
C201 C200 1.414 . S
C201 C202 1.374 1_556 S
C202 H176 0.950 . S
C202 C198 1.385 . S
C202 C201 1.374 1_554 S
C203 C200 1.499 . S
C203 C204 1.373 . S
C203 C205 1.389 . S
C204 H177 0.950 . S
C204 C190 1.377 . S
C204 C203 1.373 . S
C205 C189 1.377 . S
C205 C203 1.389 . S
C205 C206 1.524 . S
C206 C205 1.524 . S
C206 C207 1.397 . S
C206 C211 1.363 . S
C207 H178 0.950 . S
C207 C206 1.397 . S
C207 C208 1.334 . S
C208 H179 0.950 . S
C208 C207 1.334 . S
C208 C209 1.287 . S
C209 C208 1.287 . S
C209 C210 1.524 . S
C209 H212 0.999 . S
C210 H180 0.950 . S
C210 C209 1.524 . S
C210 C211 1.415 . S
C211 H181 0.950 . S
C211 C206 1.363 . S
C211 C210 1.415 . S
H212 C209 0.999 . S
H213 C194 0.913 . S
H214 C232 0.951 . S
H215 C234 0.951 . S
H216 C236 0.950 . S
H217 C237 0.950 . S
H218 C239 0.950 . S
H219 C242 0.950 . S
H220 C243 0.950 . S
H221 C245 0.950 . S
H222 C246 0.950 . S
H223 C247 0.951 . S
H224 C249 0.951 . S
H225 C251 0.950 . S
H226 C252 0.950 . S
H227 C254 0.950 . S
H228 C257 0.950 . S
H229 C258 0.950 . S
H230 C260 0.950 . S
H231 C261 0.950 . S
C232 H214 0.951 . S
C232 C233 1.366 . S
C232 C234 1.388 1_556 S
C233 C232 1.366 . S
C233 C237 1.385 . S
C234 H215 0.951 . S
C234 C232 1.388 1_554 S
C234 C235 1.366 . S
C235 C234 1.366 . S
C235 C236 1.414 . S
C235 C238 1.499 . S
C236 H216 0.950 . S
C236 C235 1.414 . S
C236 C237 1.374 1_554 S
C237 H217 0.950 . S
C237 C233 1.385 . S
C237 C236 1.374 1_556 S
C238 C235 1.499 . S
C238 C239 1.373 . S
C238 C240 1.389 . S
C239 H218 0.950 . S
C239 C238 1.373 . S
C239 C255 1.377 . S
C240 C238 1.389 . S
C240 C241 1.524 . S
C240 C254 1.377 . S
C241 C240 1.524 . S
C241 C242 1.397 . S
C241 C246 1.363 . S
C242 H219 0.950 . S
C242 C241 1.397 . S
C242 C243 1.334 . S
C243 H220 0.950 . S
C243 C242 1.334 . S
C243 C244 1.287 . S
C244 C243 1.287 . S
C244 C245 1.524 . S
C244 H263 0.913 . S
C245 H221 0.950 . S
C245 C244 1.524 . S
C245 C246 1.415 . S
C246 H222 0.950 . S
C246 C241 1.363 . S
C246 C245 1.415 . S
C247 H223 0.951 . S
C247 C248 1.366 . S
C247 C249 1.388 . S
C248 C247 1.366 . S
C248 C252 1.385 . S
C249 H224 0.951 . S
C249 C247 1.388 . S
C249 C250 1.366 . S
C250 C249 1.366 . S
C250 C251 1.414 . S
C250 C253 1.499 . S
C251 H225 0.950 . S
C251 C250 1.414 . S
C251 C252 1.374 . S
C252 H226 0.950 . S
C252 C248 1.385 . S
C252 C251 1.374 . S
C253 C250 1.499 . S
C253 C254 1.373 . S
C253 C255 1.389 . S
C254 H227 0.950 . S
C254 C240 1.377 . S
C254 C253 1.373 . S
C255 C239 1.377 . S
C255 C253 1.389 . S
C255 C256 1.524 . S
C256 C255 1.524 . S
C256 C257 1.397 . S
C256 C261 1.363 . S
C257 H228 0.950 . S
C257 C256 1.397 . S
C257 C258 1.334 . S
C258 H229 0.950 . S
C258 C257 1.334 . S
C258 C259 1.287 . S
C259 C258 1.287 . S
C259 C260 1.524 . S
C259 H262 0.999 . S
C260 H230 0.950 . S
C260 C259 1.524 . S
C260 C261 1.415 . S
C261 H231 0.950 . S
C261 C256 1.363 . S
C261 C260 1.415 . S
H262 C259 0.999 . S
H263 C244 0.913 . S
H264 C282 0.951 . S
H265 C284 0.951 . S
H266 C286 0.950 . S
H267 C287 0.950 . S
H268 C289 0.950 . S
H269 C292 0.950 . S
H270 C293 0.950 . S
H271 C295 0.950 . S
H272 C296 0.950 . S
H273 C297 0.951 . S
H274 C299 0.951 . S
H275 C301 0.950 . S
H276 C302 0.950 . S
H277 C304 0.950 . S
H278 C307 0.950 . S
H279 C308 0.950 . S
H280 C310 0.950 . S
H281 C311 0.950 . S
C282 H264 0.951 . S
C282 C283 1.366 . S
C282 C284 1.388 . S
C283 C282 1.366 . S
C283 C287 1.385 . S
C284 H265 0.951 . S
C284 C282 1.388 . S
C284 C285 1.366 . S
C285 C284 1.366 . S
C285 C286 1.414 . S
C285 C288 1.499 . S
C286 H266 0.950 . S
C286 C285 1.414 . S
C286 C287 1.374 . S
C287 H267 0.950 . S
C287 C283 1.385 . S
C287 C286 1.374 . S
C288 C285 1.499 . S
C288 C289 1.373 . S
C288 C290 1.389 . S
C289 H268 0.950 . S
C289 C288 1.373 . S
C289 C305 1.377 . S
C290 C288 1.389 . S
C290 C291 1.524 . S
C290 C304 1.377 . S
C291 C290 1.524 . S
C291 C292 1.397 . S
C291 C296 1.363 . S
C292 H269 0.950 . S
C292 C291 1.397 . S
C292 C293 1.334 . S
C293 H270 0.950 . S
C293 C292 1.334 . S
C293 C294 1.287 . S
C294 C293 1.287 . S
C294 C295 1.524 . S
C294 H313 0.913 . S
C295 H271 0.950 . S
C295 C294 1.524 . S
C295 C296 1.415 . S
C296 H272 0.950 . S
C296 C291 1.363 . S
C296 C295 1.415 . S
C297 H273 0.951 . S
C297 C298 1.366 . S
C297 C299 1.388 . S
C298 C297 1.366 . S
C298 C302 1.385 . S
C299 H274 0.951 . S
C299 C297 1.388 . S
C299 C300 1.366 . S
C300 C299 1.366 . S
C300 C301 1.414 . S
C300 C303 1.499 . S
C301 H275 0.950 . S
C301 C300 1.414 . S
C301 C302 1.374 . S
C302 H276 0.950 . S
C302 C298 1.385 . S
C302 C301 1.374 . S
C303 C300 1.499 . S
C303 C304 1.373 . S
C303 C305 1.389 . S
C304 H277 0.950 . S
C304 C290 1.377 . S
C304 C303 1.373 . S
C305 C289 1.377 . S
C305 C303 1.389 . S
C305 C306 1.524 . S
C306 C305 1.524 . S
C306 C307 1.397 1_455 S
C306 C311 1.363 . S
C307 H278 0.950 . S
C307 C306 1.397 1_655 S
C307 C308 1.334 . S
C308 H279 0.950 . S
C308 C307 1.334 . S
C308 C309 1.287 . S
C309 C308 1.287 . S
C309 C310 1.524 . S
C309 H312 0.999 . S
C310 H280 0.950 . S
C310 C309 1.524 . S
C310 C311 1.415 1_655 S
C311 H281 0.950 . S
C311 C306 1.363 . S
C311 C310 1.415 1_455 S
H312 C309 0.999 . S
H313 C294 0.913 . S
H314 C332 0.951 . S
H315 C334 0.951 . S
H316 C336 0.950 . S
H317 C337 0.950 . S
H318 C339 0.950 . S
H319 C342 0.950 . S
H320 C343 0.950 . S
H321 C345 0.950 . S
H322 C346 0.950 . S
H323 C347 0.951 . S
H324 C349 0.951 . S
H325 C351 0.950 . S
H326 C352 0.950 . S
H327 C354 0.950 . S
H328 C357 0.950 . S
H329 C358 0.950 . S
H330 C360 0.950 . S
H331 C361 0.950 . S
C332 H314 0.951 . S
C332 C333 1.366 . S
C332 C334 1.388 . S
C333 C332 1.366 . S
C333 C337 1.385 . S
C334 H315 0.951 . S
C334 C332 1.388 . S
C334 C335 1.366 . S
C335 C334 1.366 . S
C335 C336 1.414 . S
C335 C338 1.499 . S
C336 H316 0.950 . S
C336 C335 1.414 . S
C336 C337 1.374 . S
C337 H317 0.950 . S
C337 C333 1.385 . S
C337 C336 1.374 . S
C338 C335 1.499 . S
C338 C339 1.373 . S
C338 C340 1.389 . S
C339 H318 0.950 . S
C339 C338 1.373 . S
C339 C355 1.377 . S
C340 C338 1.389 . S
C340 C341 1.524 . S
C340 C354 1.377 . S
C341 C340 1.524 . S
C341 C342 1.397 . S
C341 C346 1.363 . S
C342 H319 0.950 . S
C342 C341 1.397 . S
C342 C343 1.334 1_455 S
C343 H320 0.950 . S
C343 C342 1.334 1_655 S
C343 C344 1.287 . S
C344 C343 1.287 . S
C344 C345 1.524 . S
C344 H363 0.913 . S
C345 H321 0.950 . S
C345 C344 1.524 . S
C345 C346 1.415 1_655 S
C346 H322 0.950 . S
C346 C341 1.363 . S
C346 C345 1.415 1_455 S
C347 H323 0.951 . S
C347 C348 1.366 . S
C347 C349 1.388 . S
C348 C347 1.366 . S
C348 C352 1.385 . S
C349 H324 0.951 . S
C349 C347 1.388 . S
C349 C350 1.366 . S
C350 C349 1.366 . S
C350 C351 1.414 . S
C350 C353 1.499 . S
C351 H325 0.950 . S
C351 C350 1.414 . S
C351 C352 1.374 . S
C352 H326 0.950 . S
C352 C348 1.385 . S
C352 C351 1.374 . S
C353 C350 1.499 . S
C353 C354 1.373 . S
C353 C355 1.389 . S
C354 H327 0.950 . S
C354 C340 1.377 . S
C354 C353 1.373 . S
C355 C339 1.377 . S
C355 C353 1.389 . S
C355 C356 1.524 . S
C356 C355 1.524 . S
C356 C357 1.397 . S
C356 C361 1.363 . S
C357 H328 0.950 . S
C357 C356 1.397 . S
C357 C358 1.334 . S
C358 H329 0.950 . S
C358 C357 1.334 . S
C358 C359 1.287 . S
C359 C358 1.287 . S
C359 C360 1.524 . S
C359 H362 0.999 . S
C360 H330 0.950 . S
C360 C359 1.524 . S
C360 C361 1.415 . S
C361 H331 0.950 . S
C361 C356 1.363 . S
C361 C360 1.415 . S
H362 C359 0.999 . S
H363 C344 0.913 . S
H364 C382 0.951 . S
H365 C384 0.951 . S
H366 C386 0.950 . S
H367 C387 0.950 . S
H368 C389 0.950 . S
H369 C392 0.950 . S
H370 C393 0.950 . S
H371 C395 0.950 . S
H372 C396 0.950 . S
H373 C397 0.951 . S
H374 C399 0.951 . S
H375 C401 0.950 . S
H376 C402 0.950 . S
H377 C404 0.950 . S
H378 C407 0.950 . S
H379 C408 0.950 . S
H380 C410 0.950 . S
H381 C411 0.950 . S
C382 H364 0.951 . S
C382 C383 1.366 . S
C382 C384 1.388 . S
C383 C382 1.366 . S
C383 C387 1.385 . S
C384 H365 0.951 . S
C384 C382 1.388 . S
C384 C385 1.366 . S
C385 C384 1.366 . S
C385 C386 1.414 . S
C385 C388 1.499 . S
C386 H366 0.950 . S
C386 C385 1.414 . S
C386 C387 1.374 . S
C387 H367 0.950 . S
C387 C383 1.385 . S
C387 C386 1.374 . S
C388 C385 1.499 . S
C388 C389 1.373 . S
C388 C390 1.389 . S
C389 H368 0.950 . S
C389 C388 1.373 . S
C389 C405 1.377 . S
C390 C388 1.389 . S
C390 C391 1.524 . S
C390 C404 1.377 . S
C391 C390 1.524 . S
C391 C392 1.397 . S
C391 C396 1.363 . S
C392 H369 0.950 . S
C392 C391 1.397 . S
C392 C393 1.334 . S
C393 H370 0.950 . S
C393 C392 1.334 . S
C393 C394 1.287 . S
C394 C393 1.287 . S
C394 C395 1.524 . S
C394 H413 0.913 . S
C395 H371 0.950 . S
C395 C394 1.524 . S
C395 C396 1.415 . S
C396 H372 0.950 . S
C396 C391 1.363 . S
C396 C395 1.415 . S
C397 H373 0.951 . S
C397 C398 1.366 . S
C397 C399 1.388 . S
C398 C397 1.366 . S
C398 C402 1.385 . S
C399 H374 0.951 . S
C399 C397 1.388 . S
C399 C400 1.366 . S
C400 C399 1.366 . S
C400 C401 1.414 . S
C400 C403 1.499 . S
C401 H375 0.950 . S
C401 C400 1.414 . S
C401 C402 1.374 . S
C402 H376 0.950 . S
C402 C398 1.385 . S
C402 C401 1.374 . S
C403 C400 1.499 . S
C403 C404 1.373 . S
C403 C405 1.389 . S
C404 H377 0.950 . S
C404 C390 1.377 . S
C404 C403 1.373 . S
C405 C389 1.377 . S
C405 C403 1.389 . S
C405 C406 1.524 . S
C406 C405 1.524 . S
C406 C407 1.397 . S
C406 C411 1.363 . S
C407 H378 0.950 . S
C407 C406 1.397 . S
C407 C408 1.334 1_565 S
C408 H379 0.950 . S
C408 C407 1.334 1_545 S
C408 C409 1.287 . S
C409 C408 1.287 . S
C409 C410 1.524 . S
C409 H412 0.999 . S
C410 H380 0.950 . S
C410 C409 1.524 . S
C410 C411 1.415 1_545 S
C411 H381 0.950 . S
C411 C406 1.363 . S
C411 C410 1.415 1_565 S
H412 C409 0.999 . S
H413 C394 0.913 . S
H414 C432 0.951 . S
H415 C434 0.951 . S
H416 C436 0.950 . S
H417 C437 0.950 . S
H418 C439 0.950 . S
H419 C442 0.950 . S
H420 C443 0.950 . S
H421 C445 0.950 . S
H422 C446 0.950 1_455 S
H423 C447 0.951 . S
H424 C449 0.951 . S
H425 C451 0.950 . S
H426 C452 0.950 1_455 S
H427 C454 0.950 . S
H428 C457 0.950 . S
H429 C458 0.950 . S
H430 C460 0.950 . S
H431 C461 0.950 . S
C432 H414 0.951 . S
C432 C433 1.366 . S
C432 C434 1.388 . S
C433 C432 1.366 . S
C433 C437 1.385 . S
C434 H415 0.951 . S
C434 C432 1.388 . S
C434 C435 1.366 . S
C435 C434 1.366 . S
C435 C436 1.414 . S
C435 C438 1.499 . S
C436 H416 0.950 . S
C436 C435 1.414 . S
C436 C437 1.374 . S
C437 H417 0.950 . S
C437 C433 1.385 . S
C437 C436 1.374 . S
C438 C435 1.499 . S
C438 C439 1.373 . S
C438 C440 1.389 . S
C439 H418 0.950 . S
C439 C438 1.373 . S
C439 C455 1.377 . S
C440 C438 1.389 . S
C440 C441 1.524 . S
C440 C454 1.377 . S
C441 C440 1.524 . S
C441 C442 1.397 . S
C441 C446 1.363 . S
C442 H419 0.950 . S
C442 C441 1.397 . S
C442 C443 1.334 . S
C443 H420 0.950 . S
C443 C442 1.334 . S
C443 C444 1.287 . S
C444 C443 1.287 . S
C444 C445 1.524 1_655 S
C444 H463 0.913 . S
C445 H421 0.950 . S
C445 C444 1.524 1_455 S
C445 C446 1.415 1_455 S
C446 H422 0.950 1_655 S
C446 C441 1.363 . S
C446 C445 1.415 1_655 S
C447 H423 0.951 . S
C447 C448 1.366 . S
C447 C449 1.388 . S
C448 C447 1.366 . S
C448 C452 1.385 . S
C449 H424 0.951 . S
C449 C447 1.388 . S
C449 C450 1.366 . S
C450 C449 1.366 . S
C450 C451 1.414 . S
C450 C453 1.499 . S
C451 H425 0.950 . S
C451 C450 1.414 . S
C451 C452 1.374 . S
C452 H426 0.950 1_655 S
C452 C448 1.385 . S
C452 C451 1.374 . S
C453 C450 1.499 . S
C453 C454 1.373 . S
C453 C455 1.389 . S
C454 H427 0.950 . S
C454 C440 1.377 . S
C454 C453 1.373 . S
C455 C439 1.377 . S
C455 C453 1.389 . S
C455 C456 1.524 . S
C456 C455 1.524 . S
C456 C457 1.397 . S
C456 C461 1.363 . S
C457 H428 0.950 . S
C457 C456 1.397 . S
C457 C458 1.334 . S
C458 H429 0.950 . S
C458 C457 1.334 . S
C458 C459 1.287 . S
C459 C458 1.287 . S
C459 C460 1.524 . S
C459 H462 0.999 . S
C460 H430 0.950 . S
C460 C459 1.524 . S
C460 C461 1.415 . S
C461 H431 0.950 . S
C461 C456 1.363 . S
C461 C460 1.415 . S
H462 C459 0.999 . S
H463 C444 0.913 . S
H464 C482 0.951 . S
H465 C484 0.951 . S
H466 C486 0.950 . S
H467 C487 0.950 . S
H468 C489 0.950 . S
H469 C492 0.950 . S
H470 C493 0.958 . S
H471 C495 0.950 1_455 S
H472 C496 0.950 . S
H473 C497 0.951 . S
H474 C499 0.951 . S
H475 C501 0.950 . S
H476 C502 0.950 . S
H477 C504 0.950 . S
H478 C507 0.950 . S
H479 C508 0.950 . S
H480 C510 0.950 . S
H481 C511 0.950 . S
C482 H464 0.951 . S
C482 C483 1.366 . S
C482 C484 1.388 . S
C483 C482 1.366 . S
C483 C487 1.385 . S
C484 H465 0.951 . S
C484 C482 1.388 . S
C484 C485 1.366 . S
C485 C484 1.366 . S
C485 C486 1.414 . S
C485 C488 1.499 . S
C486 H466 0.950 . S
C486 C485 1.414 . S
C486 C487 1.374 . S
C487 H467 0.950 . S
C487 C483 1.385 . S
C487 C486 1.374 . S
C488 C485 1.499 . S
C488 C489 1.373 . S
C488 C490 1.389 . S
C489 H468 0.950 . S
C489 C488 1.373 . S
C489 C505 1.377 . S
C490 C488 1.389 . S
C490 C491 1.524 . S
C490 C504 1.377 . S
C491 C490 1.524 . S
C491 C492 1.397 . S
C491 C496 1.363 . S
C492 H469 0.950 . S
C492 C491 1.397 . S
C492 C493 1.330 1_655 S
C493 H470 0.958 . S
C493 C492 1.330 1_455 S
C493 C494 1.283 . S
C494 C493 1.283 . S
C494 C495 1.524 1_455 S
C494 H513 0.913 . S
C495 H471 0.950 1_655 S
C495 C494 1.524 1_655 S
C495 C496 1.415 . S
C496 H472 0.950 . S
C496 C491 1.363 . S
C496 C495 1.415 . S
C497 H473 0.951 . S
C497 C498 1.366 . S
C497 C499 1.388 . S
C498 C497 1.366 . S
C498 C502 1.385 . S
C499 H474 0.951 . S
C499 C497 1.388 . S
C499 C500 1.366 . S
C500 C499 1.366 . S
C500 C501 1.414 . S
C500 C503 1.499 . S
C501 H475 0.950 . S
C501 C500 1.414 . S
C501 C502 1.374 . S
C502 H476 0.950 . S
C502 C498 1.385 . S
C502 C501 1.374 . S
C503 C500 1.499 . S
C503 C504 1.373 . S
C503 C505 1.389 . S
C504 H477 0.950 . S
C504 C490 1.377 . S
C504 C503 1.373 . S
C505 C489 1.377 . S
C505 C503 1.389 . S
C505 C506 1.524 . S
C506 C505 1.524 . S
C506 C507 1.397 . S
C506 C511 1.363 . S
C507 H478 0.950 . S
C507 C506 1.397 . S
C507 C508 1.334 . S
C508 H479 0.950 . S
C508 C507 1.334 . S
C508 C509 1.287 . S
C509 C508 1.287 . S
C509 C510 1.524 . S
C509 H512 0.999 . S
C510 H480 0.950 . S
C510 C509 1.524 . S
C510 C511 1.415 . S
C511 H481 0.950 . S
C511 C506 1.363 . S
C511 C510 1.415 . S
H512 C509 0.999 . S
H513 C494 0.913 . S
H514 C532 0.951 . S
H515 C534 0.951 . S
H516 C536 0.950 . S
H517 C537 0.950 . S
H518 C539 0.950 . S
H519 C542 0.950 . S
H520 C543 0.950 . S
H521 C545 0.950 . S
H522 C546 0.950 . S
H523 C547 0.951 . S
H524 C549 0.951 . S
H525 C551 0.950 . S
H526 C552 0.950 . S
H527 C554 0.950 . S
H528 C557 0.950 . S
H529 C558 0.950 . S
H530 C560 0.950 . S
H531 C561 0.950 . S
C532 H514 0.951 . S
C532 C533 1.366 . S
C532 C534 1.388 . S
C533 C532 1.366 . S
C533 C537 1.385 . S
C534 H515 0.951 . S
C534 C532 1.388 . S
C534 C535 1.366 . S
C535 C534 1.366 . S
C535 C536 1.414 . S
C535 C538 1.499 . S
C536 H516 0.950 . S
C536 C535 1.414 . S
C536 C537 1.374 . S
C537 H517 0.950 . S
C537 C533 1.385 . S
C537 C536 1.374 . S
C538 C535 1.499 . S
C538 C539 1.373 . S
C538 C540 1.389 . S
C539 H518 0.950 . S
C539 C538 1.373 . S
C539 C555 1.377 . S
C540 C538 1.389 . S
C540 C541 1.524 . S
C540 C554 1.377 . S
C541 C540 1.524 . S
C541 C542 1.397 . S
C541 C546 1.363 . S
C542 H519 0.950 . S
C542 C541 1.397 . S
C542 C543 1.334 . S
C543 H520 0.950 . S
C543 C542 1.334 . S
C543 C544 1.287 . S
C544 C543 1.287 . S
C544 C545 1.524 . S
C544 H563 0.913 . S
C545 H521 0.950 . S
C545 C544 1.524 . S
C545 C546 1.415 . S
C546 H522 0.950 . S
C546 C541 1.363 . S
C546 C545 1.415 . S
C547 H523 0.951 . S
C547 C548 1.366 . S
C547 C549 1.388 . S
C548 C547 1.366 . S
C548 C552 1.385 . S
C549 H524 0.951 . S
C549 C547 1.388 . S
C549 C550 1.366 . S
C550 C549 1.366 . S
C550 C551 1.414 . S
C550 C553 1.499 . S
C551 H525 0.950 . S
C551 C550 1.414 . S
C551 C552 1.374 . S
C552 H526 0.950 . S
C552 C548 1.385 . S
C552 C551 1.374 . S
C553 C550 1.499 . S
C553 C554 1.373 . S
C553 C555 1.389 . S
C554 H527 0.950 . S
C554 C540 1.377 . S
C554 C553 1.373 . S
C555 C539 1.377 . S
C555 C553 1.389 . S
C555 C556 1.524 . S
C556 C555 1.524 . S
C556 C557 1.397 . S
C556 C561 1.363 . S
C557 H528 0.950 . S
C557 C556 1.397 . S
C557 C558 1.334 1_545 S
C558 H529 0.950 . S
C558 C557 1.334 1_565 S
C558 C559 1.287 . S
C559 C558 1.287 . S
C559 C560 1.524 . S
C559 H562 0.999 . S
C560 H530 0.950 . S
C560 C559 1.524 . S
C560 C561 1.415 1_565 S
C561 H531 0.950 . S
C561 C556 1.363 . S
C561 C560 1.415 1_545 S
H562 C559 0.999 . S
H563 C544 0.913 . S
H564 C582 0.951 . S
H565 C584 0.951 . S
H566 C586 0.950 . S
H567 C587 0.950 . S
H568 C589 0.950 . S
H569 C592 0.950 . S
H570 C593 0.950 . S
H571 C595 0.950 . S
H572 C596 0.950 . S
H573 C597 0.951 . S
H574 C599 0.951 . S
H575 C601 0.950 . S
H576 C602 0.950 . S
H577 C604 0.950 . S
H578 C607 0.950 . S
H579 C608 0.950 . S
H580 C610 0.950 . S
H581 C611 0.950 . S
C582 H564 0.951 . S
C582 C583 1.366 . S
C582 C584 1.388 . S
C583 C582 1.366 . S
C583 C587 1.385 . S
C584 H565 0.951 . S
C584 C582 1.388 . S
C584 C585 1.366 . S
C585 C584 1.366 . S
C585 C586 1.414 . S
C585 C588 1.499 . S
C586 H566 0.950 . S
C586 C585 1.414 . S
C586 C587 1.374 . S
C587 H567 0.950 . S
C587 C583 1.385 . S
C587 C586 1.374 . S
C588 C585 1.499 . S
C588 C589 1.373 1_554 S
C588 C590 1.389 . S
C589 H568 0.950 . S
C589 C588 1.373 1_556 S
C589 C605 1.377 . S
C590 C588 1.389 . S
C590 C591 1.524 . S
C590 C604 1.377 . S
C591 C590 1.524 . S
C591 C592 1.397 . S
C591 C596 1.363 . S
C592 H569 0.950 . S
C592 C591 1.397 . S
C592 C593 1.334 . S
C593 H570 0.950 . S
C593 C592 1.334 . S
C593 C594 1.287 . S
C594 C593 1.287 . S
C594 C595 1.524 . S
C594 H613 0.913 . S
C595 H571 0.950 . S
C595 C594 1.524 . S
C595 C596 1.415 . S
C596 H572 0.950 . S
C596 C591 1.363 . S
C596 C595 1.415 . S
C597 H573 0.951 . S
C597 C598 1.366 . S
C597 C599 1.388 . S
C598 C597 1.366 . S
C598 C602 1.385 . S
C599 H574 0.951 . S
C599 C597 1.388 . S
C599 C600 1.366 . S
C600 C599 1.366 . S
C600 C601 1.414 . S
C600 C603 1.499 . S
C601 H575 0.950 . S
C601 C600 1.414 . S
C601 C602 1.374 . S
C602 H576 0.950 . S
C602 C598 1.385 . S
C602 C601 1.374 . S
C603 C600 1.499 . S
C603 C604 1.373 1_556 S
C603 C605 1.389 . S
C604 H577 0.950 . S
C604 C590 1.377 . S
C604 C603 1.373 1_554 S
C605 C589 1.377 . S
C605 C603 1.389 . S
C605 C606 1.524 . S
C606 C605 1.524 . S
C606 C607 1.397 . S
C606 C611 1.363 . S
C607 H578 0.950 . S
C607 C606 1.397 . S
C607 C608 1.334 . S
C608 H579 0.950 . S
C608 C607 1.334 . S
C608 C609 1.287 . S
C609 C608 1.287 . S
C609 C610 1.524 . S
C609 H612 0.999 . S
C610 H580 0.950 . S
C610 C609 1.524 . S
C610 C611 1.415 . S
C611 H581 0.950 . S
C611 C606 1.363 . S
C611 C610 1.415 . S
H612 C609 0.999 . S
H613 C594 0.913 . S
H614 C632 0.951 . S
H615 C634 0.951 . S
H616 C636 0.950 . S
H617 C637 0.950 . S
H618 C639 0.950 . S
H619 C642 0.950 . S
H620 C643 0.950 . S
H621 C645 0.950 . S
H622 C646 0.950 . S
H623 C647 0.951 . S
H624 C649 0.951 . S
H625 C651 0.950 . S
H626 C652 0.950 . S
H627 C654 0.950 . S
H628 C657 0.950 . S
H629 C658 0.950 . S
H630 C660 0.950 . S
H631 C661 0.950 . S
C632 H614 0.951 . S
C632 C633 1.366 . S
C632 C634 1.388 . S
C633 C632 1.366 . S
C633 C637 1.385 . S
C634 H615 0.951 . S
C634 C632 1.388 . S
C634 C635 1.366 . S
C635 C634 1.366 . S
C635 C636 1.414 . S
C635 C638 1.499 . S
C636 H616 0.950 . S
C636 C635 1.414 . S
C636 C637 1.374 . S
C637 H617 0.950 . S
C637 C633 1.385 . S
C637 C636 1.374 . S
C638 C635 1.499 . S
C638 C639 1.373 1_565 S
C638 C640 1.389 1_556 S
C639 H618 0.950 . S
C639 C638 1.373 1_545 S
C639 C655 1.377 . S
C640 C638 1.389 1_554 S
C640 C641 1.524 . S
C640 C654 1.377 . S
C641 C640 1.524 . S
C641 C642 1.397 . S
C641 C646 1.363 . S
C642 H619 0.950 . S
C642 C641 1.397 . S
C642 C643 1.334 . S
C643 H620 0.950 . S
C643 C642 1.334 . S
C643 C644 1.287 . S
C644 C643 1.287 . S
C644 C645 1.524 . S
C644 H663 0.913 . S
C645 H621 0.950 . S
C645 C644 1.524 . S
C645 C646 1.415 . S
C646 H622 0.950 . S
C646 C641 1.363 . S
C646 C645 1.415 . S
C647 H623 0.951 . S
C647 C648 1.366 . S
C647 C649 1.388 . S
C648 C647 1.366 . S
C648 C652 1.385 . S
C649 H624 0.951 . S
C649 C647 1.388 . S
C649 C650 1.366 . S
C650 C649 1.366 . S
C650 C651 1.414 . S
C650 C653 1.499 . S
C651 H625 0.950 . S
C651 C650 1.414 . S
C651 C652 1.374 . S
C652 H626 0.950 . S
C652 C648 1.385 . S
C652 C651 1.374 . S
C653 C650 1.499 . S
C653 C654 1.373 1_545 S
C653 C655 1.389 1_554 S
C654 H627 0.950 . S
C654 C640 1.377 . S
C654 C653 1.373 1_565 S
C655 C639 1.377 . S
C655 C653 1.389 1_556 S
C655 C656 1.524 . S
C656 C655 1.524 . S
C656 C657 1.397 . S
C656 C661 1.363 . S
C657 H628 0.950 . S
C657 C656 1.397 . S
C657 C658 1.334 . S
C658 H629 0.950 . S
C658 C657 1.334 . S
C658 C659 1.287 . S
C659 C658 1.287 . S
C659 C660 1.524 . S
C659 H662 0.999 . S
C660 H630 0.950 . S
C660 C659 1.524 . S
C660 C661 1.415 . S
C661 H631 0.950 . S
C661 C656 1.363 . S
C661 C660 1.415 . S
H662 C659 0.999 . S
H663 C644 0.913 . S
H664 C682 0.951 . S
H665 C684 0.951 . S
H666 C686 0.950 . S
H667 C687 0.950 . S
H668 C689 0.950 . S
H669 C692 0.950 . S
H670 C693 0.950 . S
H671 C695 0.950 . S
H672 C696 0.950 . S
H673 C697 0.951 . S
H674 C699 0.951 . S
H675 C701 0.950 . S
H676 C702 0.950 . S
H677 C704 0.950 . S
H678 C707 0.950 . S
H679 C708 0.950 . S
H680 C710 0.950 . S
H681 C711 0.950 . S
C682 H664 0.951 . S
C682 C683 1.366 . S
C682 C684 1.388 . S
C683 C682 1.366 . S
C683 C687 1.385 . S
C684 H665 0.951 . S
C684 C682 1.388 . S
C684 C685 1.366 . S
C685 C684 1.366 . S
C685 C686 1.414 . S
C685 C688 1.499 . S
C686 H666 0.950 . S
C686 C685 1.414 . S
C686 C687 1.374 . S
C687 H667 0.950 . S
C687 C683 1.385 . S
C687 C686 1.374 . S
C688 C685 1.499 . S
C688 C689 1.373 . S
C688 C690 1.389 1_455 S
C689 H668 0.950 . S
C689 C688 1.373 . S
C689 C705 1.377 1_556 S
C690 C688 1.389 1_655 S
C690 C691 1.524 . S
C690 C704 1.377 1_556 S
C691 C690 1.524 . S
C691 C692 1.397 1_655 S
C691 C696 1.363 . S
C692 H669 0.950 . S
C692 C691 1.397 1_455 S
C692 C693 1.334 . S
C693 H670 0.950 . S
C693 C692 1.334 . S
C693 C694 1.287 1_455 S
C694 C693 1.287 1_655 S
C694 C695 1.524 . S
C694 H713 0.913 . S
C695 H671 0.950 . S
C695 C694 1.524 . S
C695 C696 1.415 . S
C696 H672 0.950 . S
C696 C691 1.363 . S
C696 C695 1.415 . S
C697 H673 0.951 . S
C697 C698 1.366 . S
C697 C699 1.388 . S
C698 C697 1.366 . S
C698 C702 1.385 . S
C699 H674 0.951 . S
C699 C697 1.388 . S
C699 C700 1.366 . S
C700 C699 1.366 . S
C700 C701 1.414 . S
C700 C703 1.499 . S
C701 H675 0.950 . S
C701 C700 1.414 . S
C701 C702 1.374 . S
C702 H676 0.950 . S
C702 C698 1.385 . S
C702 C701 1.374 . S
C703 C700 1.499 . S
C703 C704 1.373 . S
C703 C705 1.389 1_655 S
C704 H677 0.950 . S
C704 C690 1.377 1_554 S
C704 C703 1.373 . S
C705 C689 1.377 1_554 S
C705 C703 1.389 1_455 S
C705 C706 1.524 . S
C706 C705 1.524 . S
C706 C707 1.397 1_455 S
C706 C711 1.363 . S
C707 H678 0.950 . S
C707 C706 1.397 1_655 S
C707 C708 1.334 . S
C708 H679 0.950 . S
C708 C707 1.334 . S
C708 C709 1.287 1_655 S
C709 C708 1.287 1_455 S
C709 C710 1.524 . S
C709 H712 0.999 . S
C710 H680 0.950 . S
C710 C709 1.524 . S
C710 C711 1.415 . S
C711 H681 0.950 . S
C711 C706 1.363 . S
C711 C710 1.415 . S
H712 C709 0.999 . S
H713 C694 0.913 . S
C133 C26 0.327 . S
C148 C2 0.327 . S
C183 C40 0.327 . S
C198 C64 0.327 . S
C233 C78 0.327 . S
C248 C102 0.327 . S
C283 C99 2.631 . S
C298 C4 2.631 . S
C333 C93 1.160 . S
C348 C28 1.157 . S
C383 C96 1.418 . S
C398 C19 1.417 . S
C433 C42 2.630 . S
C448 C23 2.630 . S
C483 C66 1.160 . S
C498 C17 1.163 . S
C533 C57 1.418 . S
C548 C20 1.419 . S
C583 C61 2.630 . S
C598 C80 2.630 . S
C633 C104 1.158 . S
C648 C55 1.158 . S
C683 C95 1.418 . S
C698 C58 1.418 . S
