# Generated by pormake.
# Topology vbm, (6)-cn, num edge types: 1
# Building blocks:
#     Node 0, Type 0, BuildingBlock: PAMTUU_clean_sbu_0, # of connection points: 6
#     Node 1, Type 0, BuildingBlock: PAMTUU_clean_sbu_0, # of connection points: 6
#     Node 2, Type 0, BuildingBlock: PAMTUU_clean_sbu_0, # of connection points: 6
#     Node 3, Type 0, BuildingBlock: PAMTUU_clean_sbu_0, # of connection points: 6
#     Node 4, Type 0, BuildingBlock: PAMTUU_clean_sbu_0, # of connection points: 6
#     Node 5, Type 0, BuildingBlock: PAMTUU_clean_sbu_0, # of connection points: 6
#     Node 6, Type 0, BuildingBlock: PAMTUU_clean_sbu_0, # of connection points: 6
#     Node 7, Type 0, BuildingBlock: PAMTUU_clean_sbu_0, # of connection points: 6
#     Node 8, Type 0, BuildingBlock: PAMTUU_clean_sbu_0, # of connection points: 6
#     Node 9, Type 0, BuildingBlock: PAMTUU_clean_sbu_0, # of connection points: 6
#     Node 10, Type 0, BuildingBlock: PAMTUU_clean_sbu_0, # of connection points: 6
#     Node 11, Type 0, BuildingBlock: PAMTUU_clean_sbu_0, # of connection points: 6
#     Node 12, Type 0, BuildingBlock: PAMTUU_clean_sbu_0, # of connection points: 6
#     Node 13, Type 0, BuildingBlock: PAMTUU_clean_sbu_0, # of connection points: 6
#     Node 14, Type 0, BuildingBlock: PAMTUU_clean_sbu_0, # of connection points: 6
#     Node 15, Type 0, BuildingBlock: PAMTUU_clean_sbu_0, # of connection points: 6
#     Edge 16, Type (0, 0), BuildingBlock: XIVTED_clean_linker_0, # of connection points: 2
#     Edge 17, Type (0, 0), BuildingBlock: XIVTED_clean_linker_0, # of connection points: 2
#     Edge 18, Type (0, 0), BuildingBlock: XIVTED_clean_linker_0, # of connection points: 2
#     Edge 19, Type (0, 0), BuildingBlock: XIVTED_clean_linker_0, # of connection points: 2
#     Edge 20, Type (0, 0), BuildingBlock: XIVTED_clean_linker_0, # of connection points: 2
#     Edge 21, Type (0, 0), BuildingBlock: XIVTED_clean_linker_0, # of connection points: 2
#     Edge 22, Type (0, 0), BuildingBlock: XIVTED_clean_linker_0, # of connection points: 2
#     Edge 23, Type (0, 0), BuildingBlock: XIVTED_clean_linker_0, # of connection points: 2
#     Edge 24, Type (0, 0), BuildingBlock: XIVTED_clean_linker_0, # of connection points: 2
#     Edge 25, Type (0, 0), BuildingBlock: XIVTED_clean_linker_0, # of connection points: 2
#     Edge 26, Type (0, 0), BuildingBlock: XIVTED_clean_linker_0, # of connection points: 2
#     Edge 27, Type (0, 0), BuildingBlock: XIVTED_clean_linker_0, # of connection points: 2
#     Edge 28, Type (0, 0), BuildingBlock: XIVTED_clean_linker_0, # of connection points: 2
#     Edge 29, Type (0, 0), BuildingBlock: XIVTED_clean_linker_0, # of connection points: 2
#     Edge 30, Type (0, 0), BuildingBlock: XIVTED_clean_linker_0, # of connection points: 2
#     Edge 31, Type (0, 0), BuildingBlock: XIVTED_clean_linker_0, # of connection points: 2
#     Edge 32, Type (0, 0), BuildingBlock: XIVTED_clean_linker_0, # of connection points: 2
#     Edge 33, Type (0, 0), BuildingBlock: XIVTED_clean_linker_0, # of connection points: 2
#     Edge 34, Type (0, 0), BuildingBlock: XIVTED_clean_linker_0, # of connection points: 2
#     Edge 35, Type (0, 0), BuildingBlock: XIVTED_clean_linker_0, # of connection points: 2
#     Edge 36, Type (0, 0), BuildingBlock: XIVTED_clean_linker_0, # of connection points: 2
#     Edge 37, Type (0, 0), BuildingBlock: XIVTED_clean_linker_0, # of connection points: 2
#     Edge 38, Type (0, 0), BuildingBlock: XIVTED_clean_linker_0, # of connection points: 2
#     Edge 39, Type (0, 0), BuildingBlock: XIVTED_clean_linker_0, # of connection points: 2
#     Edge 40, Type (0, 0), BuildingBlock: XIVTED_clean_linker_0, # of connection points: 2
#     Edge 41, Type (0, 0), BuildingBlock: XIVTED_clean_linker_0, # of connection points: 2
#     Edge 42, Type (0, 0), BuildingBlock: XIVTED_clean_linker_0, # of connection points: 2
#     Edge 43, Type (0, 0), BuildingBlock: XIVTED_clean_linker_0, # of connection points: 2
#     Edge 44, Type (0, 0), BuildingBlock: XIVTED_clean_linker_0, # of connection points: 2
#     Edge 45, Type (0, 0), BuildingBlock: XIVTED_clean_linker_0, # of connection points: 2
#     Edge 46, Type (0, 0), BuildingBlock: XIVTED_clean_linker_0, # of connection points: 2
#     Edge 47, Type (0, 0), BuildingBlock: XIVTED_clean_linker_0, # of connection points: 2
#     Edge 48, Type (0, 0), BuildingBlock: XIVTED_clean_linker_0, # of connection points: 2
#     Edge 49, Type (0, 0), BuildingBlock: XIVTED_clean_linker_0, # of connection points: 2
#     Edge 50, Type (0, 0), BuildingBlock: XIVTED_clean_linker_0, # of connection points: 2
#     Edge 51, Type (0, 0), BuildingBlock: XIVTED_clean_linker_0, # of connection points: 2
#     Edge 52, Type (0, 0), BuildingBlock: XIVTED_clean_linker_0, # of connection points: 2
#     Edge 53, Type (0, 0), BuildingBlock: XIVTED_clean_linker_0, # of connection points: 2
#     Edge 54, Type (0, 0), BuildingBlock: XIVTED_clean_linker_0, # of connection points: 2
#     Edge 55, Type (0, 0), BuildingBlock: XIVTED_clean_linker_0, # of connection points: 2
#     Edge 56, Type (0, 0), BuildingBlock: XIVTED_clean_linker_0, # of connection points: 2
#     Edge 57, Type (0, 0), BuildingBlock: XIVTED_clean_linker_0, # of connection points: 2
#     Edge 58, Type (0, 0), BuildingBlock: XIVTED_clean_linker_0, # of connection points: 2
#     Edge 59, Type (0, 0), BuildingBlock: XIVTED_clean_linker_0, # of connection points: 2
#     Edge 60, Type (0, 0), BuildingBlock: XIVTED_clean_linker_0, # of connection points: 2
#     Edge 61, Type (0, 0), BuildingBlock: XIVTED_clean_linker_0, # of connection points: 2
#     Edge 62, Type (0, 0), BuildingBlock: XIVTED_clean_linker_0, # of connection points: 2
#     Edge 63, Type (0, 0), BuildingBlock: XIVTED_clean_linker_0, # of connection points: 2
# Relax obj value: 0.044
# Max RMSD: 0.119
# Mean RMSD: 0.119
data_MOF--net-vbm--node1-PAMTUU_clean_sbu_0--edge1-XIVTED_clean_linker_0
_symmetry_space_group_name_H-M    P1
_symmetry_Int_Tables_number       1
_symmetry_cell_setting            triclinic
loop_
_symmetry_equiv_pos_as_xyz
'x, y, z'
_cell_length_a     55.07585
_cell_length_b     26.144783
_cell_length_c     58.375922
_cell_angle_alpha  89.988637
_cell_angle_beta   89.990882
_cell_angle_gamma 89.966439
loop_
_atom_site_label
_atom_site_type_symbol
_atom_site_fract_x
_atom_site_fract_y
_atom_site_fract_z
_atom_type_partial_charge
Tb0 Tb 0.11118 0.19265 0.13264 0.0
Tb1 Tb 0.13168 0.07586 0.1167 0.0
C2 C 0.12166 0.10361 0.16832 0.0
C3 C 0.10363 0.3368 0.14114 0.0
C4 C 0.11257 0.44334 0.13571 0.0
C5 C 0.09937 0.42464 0.15462 0.0
C6 C 0.09497 0.37219 0.15725 0.0
C7 C 0.11718 0.35482 0.1224 0.0
C8 C 0.12163 0.40753 0.11973 0.0
C9 C 0.09747 0.28194 0.14413 0.0
O10 O 0.15009 0.19129 0.13563 0.0
O11 O 0.16008 0.13139 0.10846 0.0
O12 O 0.11378 0.11148 0.08775 0.0
O13 O 0.11966 0.19649 0.09599 0.0
O14 O 0.15739 1.01628 0.11944 0.0
O15 O 0.12782 1.01143 0.09544 0.0
O16 O 0.09507 0.06443 0.12943 0.0
O17 O 0.07946 0.14616 0.12546 0.0
O18 O 0.10791 0.14316 0.16283 0.0
O19 O 0.13614 0.08118 0.1535 0.0
C20 C 0.16512 0.17274 0.1204 0.0
O21 O 0.08936 0.25725 0.12631 0.0
O22 O 0.11247 0.25404 0.15605 0.0
C23 C 0.11498 0.15953 0.08134 0.0
C24 C 0.1432 0.93278 0.10956 0.0
C25 C 0.13673 0.82624 0.11747 0.0
C26 C 0.15019 0.84403 0.09855 0.0
C27 C 0.15337 0.89649 0.0947 0.0
C28 C 0.12974 0.91565 0.12851 0.0
C29 C 0.12655 0.86293 0.13243 0.0
C30 C 0.14641 0.98786 0.10429 0.0
C31 C 0.07668 0.0965 0.1281 0.0
H32 H 0.0925 0.45055 0.16756 0.0
H33 H 0.08457 0.35923 0.1719 0.0
H34 H 0.12408 0.32827 0.10972 0.0
H35 H 0.13171 0.42026 0.10487 0.0
H36 H 0.15794 0.81743 0.08636 0.0
H37 H 0.16364 0.90879 0.07985 0.0
H38 H 0.12164 0.94298 0.14019 0.0
H39 H 0.11627 0.85097 0.1473 0.0
Tb40 Tb 0.87622 0.85172 0.13368 0.0
Tb41 Tb 0.85214 0.96876 0.12594 0.0
C42 C 0.8606 0.92366 0.17324 0.0
C43 C 0.88786 0.70806 0.13685 0.0
C44 C 0.87895 0.60206 0.13023 0.0
C45 C 0.8989 0.61897 0.14327 0.0
C46 C 0.90327 0.67122 0.14651 0.0
C47 C 0.86784 0.69179 0.12386 0.0
C48 C 0.86341 0.63928 0.1206 0.0
C49 C 0.89318 0.76281 0.1409 0.0
O50 O 0.83733 0.84239 0.13499 0.0
O51 O 0.82328 0.91539 0.11686 0.0
O52 O 0.87061 0.94697 0.09463 0.0
O53 O 0.86691 0.85957 0.0974 0.0
O54 O 0.84133 0.03653 0.14215 0.0
O55 O 0.83671 0.02755 0.10567 0.0
O56 O 0.89006 0.98117 0.1349 0.0
O57 O 0.90673 0.90159 0.1274 0.0
O58 O 0.87881 0.89644 0.16536 0.0
O59 O 0.84331 0.93786 0.1593 0.0
C60 C 0.82031 0.86813 0.12424 0.0
O61 O 0.8986 0.79078 0.12311 0.0
O62 O 0.87894 0.78713 0.15504 0.0
C63 C 0.86992 0.90141 0.0851 0.0
C64 C 0.84237 0.11269 0.11995 0.0
C65 C 0.85235 0.21938 0.1185 0.0
C66 C 0.83176 0.1989 0.10749 0.0
C67 C 0.82684 0.14632 0.10826 0.0
C68 C 0.86342 0.13251 0.13028 0.0
C69 C 0.86835 0.18521 0.12955 0.0
C70 C 0.83485 0.0586 0.12308 0.0
C71 C 0.90883 0.95081 0.13154 0.0
H72 H 0.91102 0.59179 0.15135 0.0
H73 H 0.91873 0.6829 0.15672 0.0
H74 H 0.8557 0.71961 0.11623 0.0
H75 H 0.84799 0.62791 0.11029 0.0
H76 H 0.81924 0.22359 0.09841 0.0
H77 H 0.81047 0.13205 0.1002 0.0
H78 H 0.8757 0.10752 0.1395 0.0
H79 H 0.88428 0.19932 0.13839 0.0
Tb80 Tb 0.11266 0.84526 0.35855 0.0
Tb81 Tb 0.13388 0.96122 0.37404 0.0
C82 C 0.12078 0.93487 0.32274 0.0
C83 C 0.10563 0.70066 0.3509 0.0
C84 C 0.11515 0.59414 0.3561 0.0
C85 C 0.10476 0.61359 0.33583 0.0
C86 C 0.10009 0.66602 0.33331 0.0
C87 C 0.11631 0.68182 0.3711 0.0
C88 C 0.12098 0.62918 0.37367 0.0
C89 C 0.09894 0.75539 0.34795 0.0
O90 O 0.15105 0.84913 0.35191 0.0
O91 O 0.16266 0.9047 0.38004 0.0
O92 O 0.11707 0.92536 0.40343 0.0
O93 O 0.12359 0.84102 0.39468 0.0
O94 O 0.15885 0.0216 0.36962 0.0
O95 O 0.13229 0.02395 0.39663 0.0
O96 O 0.09648 0.97357 0.36358 0.0
O97 O 0.08106 0.89147 0.36685 0.0
O98 O 0.10752 0.89485 0.32861 0.0
O99 O 0.13575 0.95755 0.33703 0.0
C100 C 0.16723 0.86549 0.36653 0.0
O101 O 0.09144 0.78036 0.36594 0.0
O102 O 0.11311 0.78348 0.33526 0.0
C103 C 0.11912 0.8774 0.40968 0.0
C104 C 0.14533 0.10412 0.38204 0.0
C105 C 0.13779 0.21101 0.37589 0.0
C106 C 0.14878 0.19182 0.39592 0.0
C107 C 0.15248 0.13921 0.39892 0.0
C108 C 0.13435 0.12272 0.36196 0.0
C109 C 0.1307 0.17562 0.35888 0.0
C110 C 0.14951 0.04874 0.38617 0.0
C111 C 0.07815 0.94135 0.36515 0.0
H112 H 0.09963 0.58815 0.32203 0.0
H113 H 0.0917 0.67946 0.31763 0.0
H114 H 0.12084 0.70767 0.38495 0.0
H115 H 0.12928 0.61599 0.38942 0.0
H116 H 0.15489 0.21756 0.40926 0.0
H117 H 0.16102 0.12585 0.41453 0.0
H118 H 0.12854 0.09641 0.34872 0.0
H119 H 0.12196 0.1887 0.34333 0.0
Tb120 Tb 0.87541 0.1779 0.36435 0.0
Tb121 Tb 0.85145 0.0621 0.3745 0.0
C122 C 0.86169 0.10122 0.32594 0.0
C123 C 0.88568 0.322 0.35921 0.0
C124 C 0.87631 0.42848 0.36408 0.0
C125 C 0.89167 0.41001 0.34664 0.0
C126 C 0.89625 0.35759 0.34426 0.0
C127 C 0.87025 0.33985 0.37665 0.0
C128 C 0.86564 0.39256 0.37908 0.0
C129 C 0.89171 0.26705 0.35633 0.0
O130 O 0.8366 0.18354 0.35979 0.0
O131 O 0.82294 0.11768 0.38271 0.0
O132 O 0.87017 0.08723 0.4051 0.0
O133 O 0.8653 0.17375 0.40058 0.0
O134 O 0.83697 0.99552 0.35991 0.0
O135 O 0.83923 1.00306 0.39657 0.0
O136 O 0.88931 0.04815 0.36552 0.0
O137 O 0.90608 0.12842 0.3712 0.0
O138 O 0.87926 0.1307 0.33352 0.0
O139 O 0.84425 0.08701 0.33976 0.0
C140 C 0.81953 0.16145 0.37195 0.0
O141 O 0.89666 0.24066 0.37471 0.0
O142 O 0.8785 0.2409 0.34199 0.0
C143 C 0.86906 0.13355 0.41373 0.0
C144 C 0.84206 0.91837 0.38094 0.0
C145 C 0.85213 0.81158 0.38002 0.0
C146 C 0.8348 0.83196 0.39526 0.0
C147 C 0.8298 0.88462 0.39564 0.0
C148 C 0.86002 0.89852 0.36627 0.0
C149 C 0.86495 0.8458 0.36579 0.0
C150 C 0.83409 0.97267 0.37954 0.0
C151 C 0.90816 0.07873 0.3681 0.0
H152 H 0.90061 0.43616 0.33499 0.0
H153 H 0.90833 0.34481 0.33076 0.0
H154 H 0.86182 0.31312 0.38839 0.0
H155 H 0.85352 0.40507 0.39256 0.0
H156 H 0.82439 0.807 0.40633 0.0
H157 H 0.81574 0.89879 0.40697 0.0
H158 H 0.86985 0.92354 0.35475 0.0
H159 H 0.87869 0.8318 0.3541 0.0
Tb160 Tb 0.8489 0.97329 0.87353 0.0
Tb161 Tb 0.87335 0.85765 0.86378 0.0
C162 C 0.86704 0.90322 0.91302 0.0
C163 C 0.83919 0.11702 0.87967 0.0
C164 C 0.84925 0.22385 0.87896 0.0
C165 C 0.83144 0.20351 0.8937 0.0
C166 C 0.82645 0.15085 0.89398 0.0
C167 C 0.8576 0.13684 0.86551 0.0
C168 C 0.86252 0.18956 0.86513 0.0
C169 C 0.83129 0.06268 0.87809 0.0
O170 O 0.88677 0.98761 0.86461 0.0
O171 O 0.90392 0.90759 0.87025 0.0
O172 O 0.87703 0.90461 0.83284 0.0
O173 O 0.84172 0.94732 0.83895 0.0
O174 O 0.89456 0.79494 0.87442 0.0
O175 O 0.87673 0.79454 0.84154 0.0
O176 O 0.83457 0.8514 0.85933 0.0
O177 O 0.82065 0.91731 0.88205 0.0
O178 O 0.86792 0.94935 0.90416 0.0
O179 O 0.86345 0.86262 0.90007 0.0
C180 C 0.90576 0.9573 0.86708 0.0
O181 O 0.83476 0.03982 0.85855 0.0
O182 O 0.83597 0.0323 0.89526 0.0
C183 C 0.8593 0.93362 0.82517 0.0
C184 C 0.8838 0.71348 0.85888 0.0
C185 C 0.87427 0.60699 0.86361 0.0
C186 C 0.89027 0.62534 0.84666 0.0
C187 C 0.89492 0.67776 0.84435 0.0
C188 C 0.86776 0.69575 0.87585 0.0
C189 C 0.86308 0.64305 0.87822 0.0
C190 C 0.88982 0.76846 0.85602 0.0
C191 C 0.81745 0.87313 0.87155 0.0
H192 H 0.82067 0.2285 0.90445 0.0
H193 H 0.81204 0.13671 0.90492 0.0
H194 H 0.86781 0.11178 0.85429 0.0
H195 H 0.87664 0.20351 0.85383 0.0
H196 H 0.89961 0.59911 0.83534 0.0
H197 H 0.90745 0.69043 0.83121 0.0
H198 H 0.8589 0.72258 0.88726 0.0
H199 H 0.85048 0.63065 0.89132 0.0
Tb200 Tb 0.13027 0.0749 0.87574 0.0
Tb201 Tb 0.11026 0.19183 0.85985 0.0
C202 C 0.11443 0.15916 0.91115 0.0
C203 C 0.14142 0.93166 0.8836 0.0
C204 C 0.13552 0.82489 0.87608 0.0
C205 C 0.1473 0.84337 0.89583 0.0
C206 C 0.1502 0.89595 0.89949 0.0
C207 C 0.12955 0.91385 0.86385 0.0
C208 C 0.12663 0.86099 0.86012 0.0
C209 C 0.14454 0.98687 0.88856 0.0
O210 O 0.09376 0.06392 0.86266 0.0
O211 O 0.0784 0.14558 0.86717 0.0
O212 O 0.10776 0.14308 0.82937 0.0
O213 O 0.13519 0.07969 0.83899 0.0
O214 O 0.08832 0.25619 0.86626 0.0
O215 O 0.11133 0.25325 0.83643 0.0
O216 O 0.14931 0.19182 0.85753 0.0
O217 O 0.15915 0.1295 0.88377 0.0
O218 O 0.11274 0.11118 0.90475 0.0
O219 O 0.11905 0.19591 0.89639 0.0
C220 C 0.07542 0.09601 0.86434 0.0
O221 O 0.15578 1.01487 0.87342 0.0
O222 O 0.12587 1.01072 0.89709 0.0
C223 C 0.12147 0.10344 0.82394 0.0
C224 C 0.10239 0.33593 0.85138 0.0
C225 C 0.1107 0.44269 0.85665 0.0
C226 C 0.09938 0.42317 0.83687 0.0
C227 C 0.09528 0.3706 0.83431 0.0
C228 C 0.11414 0.35478 0.87101 0.0
C229 C 0.11828 0.4076 0.8736 0.0
C230 C 0.09635 0.281 0.84843 0.0
C231 C 0.16447 0.17124 0.87217 0.0
H232 H 0.15397 0.81722 0.90876 0.0
H233 H 0.15922 0.90879 0.91495 0.0
H234 H 0.12254 0.94074 0.85137 0.0
H235 H 0.11766 0.84844 0.84462 0.0
H236 H 0.09371 0.44853 0.82321 0.0
H237 H 0.08627 0.357 0.81897 0.0
H238 H 0.11982 0.32882 0.88445 0.0
H239 H 0.1269 0.42101 0.88915 0.0
Tb240 Tb 0.85386 0.07229 0.62643 0.0
Tb241 Tb 0.87843 0.18878 0.63434 0.0
C242 C 0.87228 0.13921 0.5857 0.0
C243 C 0.84406 0.92846 0.62118 0.0
C244 C 0.85462 0.82193 0.62114 0.0
C245 C 0.83373 0.84109 0.61017 0.0
C246 C 0.82852 0.89363 0.61025 0.0
C247 C 0.8654 0.90986 0.63145 0.0
C248 C 0.8706 0.85725 0.63145 0.0
C249 C 0.83634 0.98263 0.62368 0.0
O250 O 0.89182 0.05899 0.63527 0.0
O251 O 0.9088 0.13842 0.62804 0.0
O252 O 0.88086 0.14361 0.66593 0.0
O253 O 0.84512 0.10345 0.65974 0.0
O254 O 0.90064 0.25003 0.6238 0.0
O255 O 0.88151 0.25272 0.65603 0.0
O256 O 0.83956 0.1988 0.63538 0.0
O257 O 0.82537 0.12648 0.61685 0.0
O258 O 0.87259 0.09362 0.59521 0.0
O259 O 0.86944 0.18115 0.59796 0.0
C260 C 0.91072 0.08904 0.63195 0.0
O261 O 0.84221 1.00531 0.64277 0.0
O262 O 0.83882 1.0131 0.60613 0.0
C263 C 0.86251 0.11671 0.67374 0.0
C264 C 0.89015 0.33243 0.63828 0.0
C265 C 0.88083 0.4388 0.6332 0.0
C266 C 0.90078 0.42118 0.64607 0.0
C267 C 0.90533 0.36878 0.64858 0.0
C268 C 0.87029 0.3494 0.62522 0.0
C269 C 0.86569 0.40208 0.62267 0.0
C270 C 0.89551 0.27746 0.64183 0.0
C271 C 0.82263 0.17392 0.62414 0.0
H272 H 0.82085 0.81531 0.60225 0.0
H273 H 0.81185 0.90691 0.60238 0.0
H274 H 0.87776 0.93582 0.64001 0.0
H275 H 0.88706 0.8442 0.63975 0.0
H276 H 0.91315 0.44792 0.65408 0.0
H277 H 0.92081 0.3566 0.65866 0.0
H278 H 0.85831 0.32198 0.61713 0.0
H279 H 0.85005 0.41397 0.61279 0.0
Tb280 Tb 0.13535 0.97306 0.61474 0.0
Tb281 Tb 0.11577 0.85652 0.63112 0.0
C282 C 0.12097 0.88732 0.5798 0.0
C283 C 0.14673 0.11586 0.6066 0.0
C284 C 0.14085 0.22265 0.61422 0.0
C285 C 0.15367 0.20425 0.59503 0.0
C286 C 0.15656 0.15166 0.59131 0.0
C287 C 0.13383 0.1336 0.62579 0.0
C288 C 0.13092 0.18645 0.62956 0.0
C289 C 0.14991 0.06063 0.60165 0.0
O290 O 0.09857 0.98422 0.62692 0.0
O291 O 0.0836 0.9019 0.62365 0.0
O292 O 0.11155 0.90571 0.66124 0.0
O293 O 0.13807 0.97112 0.65184 0.0
O294 O 0.09428 0.79164 0.62449 0.0
O295 O 0.11719 0.79471 0.65435 0.0
O296 O 0.15434 0.86142 0.63696 0.0
O297 O 0.16465 0.9181 0.6086 0.0
O298 O 0.11848 0.93538 0.58579 0.0
O299 O 0.12622 0.85172 0.59494 0.0
C300 C 0.08041 0.95159 0.62588 0.0
O301 O 0.161 0.03274 0.61695 0.0
O302 O 0.13131 0.03674 0.59302 0.0
C303 C 0.12436 0.94665 0.6667 0.0
C304 C 0.10837 0.7119 0.63939 0.0
C305 C 0.11653 0.60506 0.63404 0.0
C306 C 0.10481 0.62452 0.65364 0.0
C307 C 0.1008 0.67712 0.65624 0.0
C308 C 0.1205 0.69308 0.61994 0.0
C309 C 0.12458 0.64023 0.61732 0.0
C310 C 0.10231 0.76685 0.64232 0.0
C311 C 0.17024 0.88081 0.62277 0.0
H312 H 0.16118 0.23048 0.58255 0.0
H313 H 0.16641 0.1389 0.57629 0.0
H314 H 0.12601 0.10665 0.6378 0.0
H315 H 0.12112 0.1989 0.64464 0.0
H316 H 0.09874 0.59907 0.66711 0.0
H317 H 0.09147 0.69067 0.67142 0.0
H318 H 0.1265 0.71911 0.60666 0.0
H319 H 0.13351 0.62685 0.60193 0.0
Tb320 Tb 0.60796 0.69646 0.13839 0.0
Tb321 Tb 0.63129 0.58 0.12788 0.0
C322 C 0.62335 0.62012 0.17635 0.0
C323 C 0.59754 0.84006 0.14428 0.0
C324 C 0.60671 0.94641 0.13912 0.0
C325 C 0.59137 0.92813 0.1566 0.0
C326 C 0.58688 0.87574 0.15912 0.0
C327 C 0.61295 0.85772 0.1268 0.0
C328 C 0.61745 0.9104 0.12421 0.0
C329 C 0.59177 0.78515 0.1474 0.0
O330 O 0.647 0.70385 0.13972 0.0
O331 O 0.65997 0.63375 0.11886 0.0
O332 O 0.61278 0.60635 0.09722 0.0
O333 O 0.61726 0.69309 0.10201 0.0
O334 O 0.64548 0.51307 0.14242 0.0
O335 O 0.64279 0.52045 0.10577 0.0
O336 O 0.59373 0.56744 0.1379 0.0
O337 O 0.57719 0.6475 0.13129 0.0
O338 O 0.60535 0.649 0.16926 0.0
O339 O 0.64036 0.60653 0.16196 0.0
C340 C 0.66347 0.67971 0.12754 0.0
O341 O 0.58587 0.7589 0.12923 0.0
O342 O 0.60589 0.75906 0.16102 0.0
C343 C 0.61387 0.65294 0.08877 0.0
C344 C 0.63996 0.43593 0.12151 0.0
C345 C 0.62992 0.32925 0.12257 0.0
C346 C 0.64679 0.34964 0.1069 0.0
C347 C 0.65178 0.40226 0.10645 0.0
C348 C 0.62241 0.41608 0.1366 0.0
C349 C 0.6175 0.3634 0.13715 0.0
C350 C 0.64805 0.49009 0.12278 0.0
C351 C 0.57498 0.59807 0.13496 0.0
H352 H 0.58242 0.95441 0.16819 0.0
H353 H 0.57485 0.86305 0.17267 0.0
H354 H 0.62146 0.83086 0.11516 0.0
H355 H 0.62955 0.92284 0.11069 0.0
H356 H 0.65688 0.32471 0.09555 0.0
H357 H 0.66551 0.41646 0.09478 0.0
H358 H 0.61294 0.44106 0.1484 0.0
H359 H 0.6041 0.34935 0.14918 0.0
Tb360 Tb 0.37386 0.35576 0.13556 0.0
Tb361 Tb 0.34975 0.47276 0.12654 0.0
C362 C 0.35884 0.43071 0.17464 0.0
C363 C 0.38514 0.21192 0.13906 0.0
C364 C 0.37637 0.1059 0.13221 0.0
C365 C 0.39509 0.12276 0.14679 0.0
C366 C 0.39939 0.17501 0.15014 0.0
C367 C 0.36632 0.1957 0.12455 0.0
C368 C 0.36194 0.14319 0.12119 0.0
C369 C 0.3905 0.26669 0.14311 0.0
O370 O 0.33496 0.34753 0.13714 0.0
O371 O 0.32148 0.41816 0.11699 0.0
O372 O 0.36932 0.44995 0.09596 0.0
O373 O 0.36522 0.36277 0.09912 0.0
O374 O 0.3371 0.54031 0.14175 0.0
O375 O 0.33586 0.53123 0.10509 0.0
O376 O 0.38748 0.48596 0.1359 0.0
O377 O 0.40453 0.40589 0.13007 0.0
O378 O 0.37625 0.40069 0.16711 0.0
O379 O 0.34161 0.44565 0.16073 0.0
C380 C 0.31844 0.37141 0.12499 0.0
O381 O 0.39625 0.29454 0.12538 0.0
O382 O 0.37611 0.29123 0.15704 0.0
C383 C 0.36875 0.40416 0.08667 0.0
C384 C 0.33999 0.61646 0.11972 0.0
C385 C 0.35008 0.72319 0.11901 0.0
C386 C 0.33033 0.70278 0.10669 0.0
C387 C 0.32536 0.65018 0.10709 0.0
C388 C 0.36023 0.63623 0.13143 0.0
C389 C 0.36522 0.68893 0.13107 0.0
C390 C 0.33231 0.56229 0.12225 0.0
C391 C 0.40639 0.45546 0.13355 0.0
H392 H 0.40631 0.09555 0.15594 0.0
H393 H 0.41393 0.18663 0.16152 0.0
H394 H 0.3551 0.22355 0.11578 0.0
H395 H 0.34749 0.13185 0.10969 0.0
H396 H 0.31853 0.72751 0.09682 0.0
H397 H 0.30962 0.63597 0.09796 0.0
H398 H 0.3718 0.61118 0.1414 0.0
H399 H 0.38047 0.70296 0.14093 0.0
Tb400 Tb 0.6139 0.35264 0.36423 0.0
Tb401 Tb 0.6351 0.46847 0.37929 0.0
C402 C 0.62412 0.43936 0.32832 0.0
C403 C 0.60577 0.20854 0.35571 0.0
C404 C 0.61481 0.10177 0.36054 0.0
C405 C 0.6016 0.121 0.34175 0.0
C406 C 0.59717 0.17356 0.3394 0.0
C407 C 0.61918 0.18993 0.37443 0.0
C408 C 0.62363 0.13714 0.37683 0.0
C409 C 0.59955 0.26354 0.35305 0.0
O410 O 0.65268 0.35481 0.35887 0.0
O411 O 0.66381 0.41278 0.38648 0.0
O412 O 0.61899 0.43272 0.4091 0.0
O413 O 0.62444 0.34787 0.40035 0.0
O414 O 0.6596 0.5294 0.374 0.0
O415 O 0.63352 0.53207 0.40137 0.0
O416 O 0.5978 0.48023 0.36825 0.0
O417 O 0.58273 0.39872 0.3739 0.0
O418 O 0.60867 0.40358 0.33473 0.0
O419 O 0.63995 0.45893 0.34266 0.0
C420 C 0.66878 0.37374 0.37303 0.0
O421 O 0.59229 0.28812 0.37123 0.0
O422 O 0.614 0.29153 0.34059 0.0
C423 C 0.62039 0.38457 0.41531 0.0
C424 C 0.64624 0.61204 0.38629 0.0
C425 C 0.63833 0.71878 0.3801 0.0
C426 C 0.65232 0.7003 0.39853 0.0
C427 C 0.65619 0.64776 0.40155 0.0
C428 C 0.63233 0.6299 0.36776 0.0
C429 C 0.62848 0.68275 0.36465 0.0
C430 C 0.65052 0.55678 0.39057 0.0
C431 C 0.57959 0.44833 0.37138 0.0
H432 H 0.59413 0.09533 0.32903 0.0
H433 H 0.58665 0.18687 0.32489 0.0
H434 H 0.62607 0.21611 0.38726 0.0
H435 H 0.63413 0.12413 0.39139 0.0
H436 H 0.66059 0.72651 0.41058 0.0
H437 H 0.66702 0.63495 0.41595 0.0
H438 H 0.62435 0.60306 0.3558 0.0
H439 H 0.61743 0.69529 0.35037 0.0
Tb440 Tb 0.37451 0.67882 0.36773 0.0
Tb441 Tb 0.35341 0.56242 0.38112 0.0
C442 C 0.36643 0.59013 0.33133 0.0
C443 C 0.38304 0.82297 0.3601 0.0
C444 C 0.37538 0.92935 0.36699 0.0
C445 C 0.38036 0.90971 0.34503 0.0
C446 C 0.38412 0.85732 0.34167 0.0
C447 C 0.37806 0.84204 0.38212 0.0
C448 C 0.37434 0.89476 0.38553 0.0
C449 C 0.38735 0.76797 0.35547 0.0
O450 O 0.33909 0.68897 0.38233 0.0
O451 O 0.3227 0.61207 0.37168 0.0
O452 O 0.35107 0.60756 0.41194 0.0
O453 O 0.37986 0.66971 0.40487 0.0
O454 O 0.33134 0.49986 0.37225 0.0
O455 O 0.35112 0.50063 0.40421 0.0
O456 O 0.39277 0.56017 0.38582 0.0
O457 O 0.40519 0.62833 0.36343 0.0
O458 O 0.36272 0.63877 0.33629 0.0
O459 O 0.36885 0.55589 0.34745 0.0
C460 C 0.32027 0.66037 0.37783 0.0
O461 O 0.39876 0.74084 0.37086 0.0
O462 O 0.36941 0.74267 0.34637 0.0
C463 C 0.36672 0.64183 0.41912 0.0
C464 C 0.34402 0.41901 0.38743 0.0
C465 C 0.353 0.31245 0.38253 0.0
C466 C 0.34722 0.33361 0.40403 0.0
C467 C 0.34275 0.38612 0.40641 0.0
C468 C 0.35024 0.39834 0.36597 0.0
C469 C 0.35463 0.34567 0.36355 0.0
C470 C 0.33753 0.47379 0.39043 0.0
C471 C 0.40977 0.58628 0.37499 0.0
H472 H 0.38174 0.93495 0.33038 0.0
H473 H 0.38801 0.84356 0.32455 0.0
H474 H 0.37702 0.81629 0.39662 0.0
H475 H 0.37033 0.90831 0.40265 0.0
H476 H 0.34546 0.3094 0.41899 0.0
H477 H 0.33784 0.40097 0.42311 0.0
H478 H 0.35145 0.4227 0.351 0.0
H479 H 0.35935 0.331 0.34679 0.0
Tb480 Tb 0.35242 0.46437 0.87382 0.0
Tb481 Tb 0.37665 0.34758 0.86593 0.0
C482 C 0.37034 0.39702 0.91464 0.0
C483 C 0.3427 0.60834 0.87928 0.0
C484 C 0.35303 0.71489 0.87996 0.0
C485 C 0.33195 0.69537 0.89046 0.0
C486 C 0.32686 0.64282 0.89007 0.0
C487 C 0.36421 0.62728 0.86947 0.0
C488 C 0.3693 0.67992 0.86979 0.0
C489 C 0.3351 0.55423 0.8764 0.0
O490 O 0.3905 0.47699 0.86509 0.0
O491 O 0.40715 0.39735 0.8725 0.0
O492 O 0.37935 0.39312 0.83445 0.0
O493 O 0.34358 0.43299 0.84061 0.0
O494 O 0.39888 0.28625 0.87637 0.0
O495 O 0.37966 0.28375 0.84418 0.0
O496 O 0.33774 0.33758 0.86499 0.0
O497 O 0.3235 0.41082 0.88284 0.0
O498 O 0.37071 0.4427 0.90522 0.0
O499 O 0.36758 0.35517 0.90229 0.0
C500 C 0.40929 0.44663 0.86849 0.0
O501 O 0.34154 0.53183 0.8574 0.0
O502 O 0.337 0.52348 0.89392 0.0
C503 C 0.36104 0.42009 0.82663 0.0
C504 C 0.38861 0.20394 0.86173 0.0
C505 C 0.37966 0.09742 0.8664 0.0
C506 C 0.40017 0.11549 0.85447 0.0
C507 C 0.40453 0.16797 0.85217 0.0
C508 C 0.3682 0.18653 0.87388 0.0
C509 C 0.3638 0.13374 0.87624 0.0
C510 C 0.39376 0.25899 0.85829 0.0
C511 C 0.32064 0.36334 0.87564 0.0
H512 H 0.31884 0.72088 0.89825 0.0
H513 H 0.31005 0.62927 0.89757 0.0
H514 H 0.37679 0.60157 0.86103 0.0
H515 H 0.3859 0.69326 0.86185 0.0
H516 H 0.41307 0.08902 0.84702 0.0
H517 H 0.42043 0.18052 0.84279 0.0
H518 H 0.35564 0.21366 0.88138 0.0
H519 H 0.34773 0.12144 0.8854 0.0
Tb520 Tb 0.63461 0.56101 0.88255 0.0
Tb521 Tb 0.61455 0.67752 0.86676 0.0
C522 C 0.61808 0.64383 0.91787 0.0
C523 C 0.64612 0.41819 0.8904 0.0
C524 C 0.63912 0.31154 0.88344 0.0
C525 C 0.65291 0.32978 0.90204 0.0
C526 C 0.65633 0.38231 0.90545 0.0
C527 C 0.63245 0.40057 0.87169 0.0
C528 C 0.62904 0.34776 0.8682 0.0
C529 C 0.64968 0.47338 0.89515 0.0
O530 O 0.59784 0.54917 0.87023 0.0
O531 O 0.58249 0.63137 0.87331 0.0
O532 O 0.61077 0.62895 0.83637 0.0
O533 O 0.63805 0.56487 0.84561 0.0
O534 O 0.593 0.74228 0.8736 0.0
O535 O 0.61596 0.73972 0.84376 0.0
O536 O 0.65326 0.67377 0.86163 0.0
O537 O 0.6633 0.61679 0.88992 0.0
O538 O 0.61625 0.59616 0.91121 0.0
O539 O 0.62361 0.68054 0.90335 0.0
C540 C 0.57954 0.58161 0.87111 0.0
O541 O 0.66008 0.5011 0.87939 0.0
O542 O 0.63154 0.4975 0.90451 0.0
C543 C 0.62405 0.58873 0.83081 0.0
C544 C 0.60728 0.82215 0.85911 0.0
C545 C 0.61652 0.92849 0.86485 0.0
C546 C 0.60348 0.91022 0.84577 0.0
C547 C 0.59896 0.85785 0.84297 0.0
C548 C 0.62052 0.83978 0.87811 0.0
C549 C 0.62507 0.89238 0.88096 0.0
C550 C 0.60106 0.7674 0.85588 0.0
C551 C 0.66891 0.65487 0.87618 0.0
H552 H 0.66133 0.30339 0.91393 0.0
H553 H 0.66697 0.39499 0.91999 0.0
H554 H 0.62428 0.42758 0.8599 0.0
H555 H 0.61814 0.33537 0.8538 0.0
H556 H 0.59622 0.93649 0.83317 0.0
H557 H 0.5886 0.84523 0.82824 0.0
H558 H 0.62719 0.81299 0.89079 0.0
H559 H 0.63542 0.90469 0.89572 0.0
Tb560 Tb 0.35416 0.57526 0.6299 0.0
Tb561 Tb 0.37854 0.69104 0.64005 0.0
C562 C 0.37311 0.64542 0.59068 0.0
C563 C 0.34441 0.43155 0.62355 0.0
C564 C 0.35453 0.32471 0.62428 0.0
C565 C 0.33579 0.3447 0.61049 0.0
C566 C 0.33078 0.39736 0.6102 0.0
C567 C 0.36371 0.41211 0.63673 0.0
C568 C 0.36868 0.35938 0.63711 0.0
C569 C 0.33658 0.48591 0.62527 0.0
O570 O 0.39185 0.56087 0.63921 0.0
O571 O 0.40915 0.64087 0.63397 0.0
O572 O 0.38155 0.64371 0.67095 0.0
O573 O 0.34616 0.60214 0.66416 0.0
O574 O 0.40025 0.75347 0.63004 0.0
O575 O 0.38127 0.75417 0.66234 0.0
O576 O 0.33961 0.6977 0.64335 0.0
O577 O 0.32616 0.6311 0.62074 0.0
O578 O 0.37371 0.59928 0.5996 0.0
O579 O 0.36961 0.68621 0.60354 0.0
C580 C 0.41087 0.59106 0.63693 0.0
O581 O 0.34023 0.50853 0.64484 0.0
O582 O 0.34115 0.51645 0.60813 0.0
C583 C 0.36357 0.61494 0.67825 0.0
C584 C 0.38924 0.83508 0.64521 0.0
C585 C 0.37993 0.94164 0.64025 0.0
C586 C 0.39731 0.92353 0.65601 0.0
C587 C 0.40184 0.87109 0.65844 0.0
C588 C 0.37187 0.85254 0.62939 0.0
C589 C 0.3673 0.90529 0.6269 0.0
C590 C 0.39497 0.78003 0.64829 0.0
C591 C 0.32277 0.67556 0.63093 0.0
H592 H 0.32432 0.31945 0.60055 0.0
H593 H 0.31567 0.41122 0.60005 0.0
H594 H 0.3746 0.4375 0.64719 0.0
H595 H 0.38351 0.34573 0.64764 0.0
H596 H 0.40777 0.94997 0.66631 0.0
H597 H 0.41541 0.8586 0.67067 0.0
H598 H 0.36185 0.82547 0.619 0.0
H599 H 0.35363 0.9175 0.61474 0.0
Tb600 Tb 0.63425 0.46635 0.62102 0.0
Tb601 Tb 0.6134 0.34963 0.63658 0.0
C602 C 0.61769 0.38326 0.58546 0.0
C603 C 0.64582 0.60949 0.61376 0.0
C604 C 0.63886 0.71621 0.62079 0.0
C605 C 0.65451 0.69804 0.60352 0.0
C606 C 0.65791 0.64548 0.60008 0.0
C607 C 0.63036 0.62704 0.63123 0.0
C608 C 0.62698 0.67986 0.63476 0.0
C609 C 0.64902 0.55434 0.60862 0.0
O610 O 0.59788 0.47828 0.63419 0.0
O611 O 0.58182 0.39715 0.62971 0.0
O612 O 0.61086 0.39815 0.66711 0.0
O613 O 0.63893 0.46046 0.65778 0.0
O614 O 0.59133 0.28563 0.62987 0.0
O615 O 0.61427 0.28776 0.65973 0.0
O616 O 0.65237 0.34964 0.6394 0.0
O617 O 0.66267 0.41075 0.61281 0.0
O618 O 0.61622 0.43115 0.59203 0.0
O619 O 0.62226 0.34614 0.60004 0.0
C620 C 0.57929 0.44681 0.6327 0.0
O621 O 0.65995 0.52597 0.62383 0.0
O622 O 0.63046 0.53078 0.59975 0.0
C623 C 0.62477 0.43734 0.67267 0.0
C624 C 0.60525 0.20554 0.64442 0.0
C625 C 0.61477 0.09924 0.63886 0.0
C626 C 0.59936 0.11703 0.6564 0.0
C627 C 0.5947 0.16938 0.65911 0.0
C628 C 0.6208 0.18839 0.62695 0.0
C629 C 0.62548 0.13579 0.62417 0.0
C630 C 0.59922 0.2604 0.64764 0.0
C631 C 0.6676 0.36891 0.6245 0.0
H632 H 0.66434 0.72448 0.59267 0.0
H633 H 0.66992 0.63288 0.5865 0.0
H634 H 0.62071 0.59995 0.64193 0.0
H635 H 0.61464 0.69218 0.6481 0.0
H636 H 0.59042 0.09042 0.66783 0.0
H637 H 0.58257 0.18165 0.67266 0.0
H638 H 0.62924 0.21559 0.61543 0.0
H639 H 0.63766 0.12384 0.61063 0.0
H640 H 0.17028 0.27527 0.1235 0.0
H641 H 0.31313 0.26833 0.12324 0.0
H642 H 0.2103 0.13799 0.10737 0.0
H643 H 0.27292 0.40887 0.11486 0.0
H644 H 0.27591 0.21995 0.11731 0.0
H645 H 0.20751 0.32487 0.1201 0.0
C646 C 0.18698 0.25558 0.11914 0.0
C647 C 0.18738 0.20233 0.11607 0.0
C648 C 0.27522 0.26132 0.11653 0.0
C649 C 0.23008 0.25899 0.11226 0.0
C650 C 0.29642 0.28907 0.1201 0.0
C651 C 0.29601 0.3428 0.1199 0.0
C652 C 0.2533 0.28739 0.11311 0.0
C653 C 0.27397 0.36753 0.11532 0.0
C654 C 0.20818 0.28403 0.11705 0.0
C655 C 0.20932 0.17893 0.11001 0.0
N656 N 0.25336 0.33957 0.11243 0.0
N657 N 0.22998 0.20738 0.10867 0.0
H658 H 0.77529 0.91039 0.11669 0.0
H659 H 0.70765 0.63902 0.11528 0.0
H660 H 0.81235 0.76559 0.12348 0.0
H661 H 0.67169 0.78207 0.13012 0.0
H662 H 0.74596 0.68574 0.1106 0.0
H663 H 0.73661 0.86423 0.11384 0.0
C664 C 0.7753 0.86898 0.11737 0.0
C665 C 0.79696 0.84181 0.12067 0.0
C666 C 0.72961 0.70677 0.11479 0.0
C667 C 0.75308 0.789 0.11729 0.0
C668 C 0.70779 0.68017 0.11742 0.0
C669 C 0.6866 0.7066 0.12346 0.0
C670 C 0.73005 0.7601 0.11792 0.0
C671 C 0.68772 0.76002 0.12588 0.0
C672 C 0.75328 0.8427 0.11582 0.0
C673 C 0.79601 0.78812 0.12135 0.0
N674 N 0.7091 0.78498 0.12316 0.0
N675 N 0.77443 0.76349 0.11975 0.0
H676 H 0.30831 0.74429 0.40274 0.0
H677 H 0.18003 0.78086 0.34207 0.0
H678 H 0.27781 0.63447 0.35567 0.0
H679 H 0.20589 0.88002 0.39599 0.0
H680 H 0.21573 0.72754 0.34678 0.0
H681 H 0.2708 0.79339 0.40109 0.0
C682 C 0.29358 0.73021 0.39217 0.0
C683 C 0.29625 0.68537 0.37913 0.0
C684 C 0.21366 0.76089 0.35761 0.0
C685 C 0.25323 0.74199 0.37703 0.0
C686 C 0.19328 0.79176 0.35487 0.0
C687 C 0.18992 0.83539 0.36862 0.0
C688 C 0.23104 0.7736 0.37416 0.0
C689 C 0.20776 0.84702 0.38493 0.0
C690 C 0.27216 0.75838 0.39126 0.0
C691 C 0.2765 0.66876 0.36599 0.0
N692 N 0.2276 0.81632 0.38722 0.0
N693 N 0.25587 0.69743 0.36507 0.0
H694 H 0.78762 0.17001 0.4082 0.0
H695 H 0.69399 0.3391 0.33671 0.0
H696 H 0.79851 0.2151 0.33787 0.0
H697 H 0.69678 0.34826 0.4104 0.0
H698 H 0.73003 0.28518 0.33706 0.0
H699 H 0.75126 0.22532 0.40964 0.0
C700 C 0.78211 0.19082 0.39302 0.0
C701 C 0.79594 0.18802 0.37287 0.0
C702 C 0.72301 0.29932 0.3532 0.0
C703 C 0.75496 0.25105 0.37442 0.0
C704 C 0.7025 0.33026 0.35298 0.0
C705 C 0.69264 0.34845 0.37353 0.0
C706 C 0.73358 0.28548 0.37417 0.0
C707 C 0.70417 0.33554 0.39418 0.0
C708 C 0.76165 0.22276 0.39393 0.0
C709 C 0.78836 0.21628 0.35376 0.0
N710 N 0.72399 0.30422 0.39403 0.0
N711 N 0.76841 0.24642 0.355 0.0
H712 H 0.69656 0.67899 0.83986 0.0
H713 H 0.78528 0.86697 0.9078 0.0
H714 H 0.69465 0.68934 0.91351 0.0
H715 H 0.7974 0.81422 0.83872 0.0
H716 H 0.7498 0.80948 0.91039 0.0
H717 H 0.73224 0.73381 0.83933 0.0
C718 C 0.70405 0.69214 0.85599 0.0
C719 C 0.69295 0.67924 0.87676 0.0
C720 C 0.76026 0.81082 0.89469 0.0
C721 C 0.7334 0.7436 0.87634 0.0
C722 C 0.78023 0.84401 0.89311 0.0
C723 C 0.79419 0.84534 0.873 0.0
C724 C 0.75422 0.7796 0.8759 0.0
C725 C 0.78718 0.81429 0.85458 0.0
C726 C 0.72432 0.72373 0.8557 0.0
C727 C 0.70307 0.69782 0.89719 0.0
N728 N 0.76776 0.78288 0.85648 0.0
N729 N 0.72267 0.72971 0.89648 0.0
H730 H 0.27518 0.40501 0.88158 0.0
H731 H 0.20803 0.13314 0.88798 0.0
H732 H 0.31312 0.2607 0.87808 0.0
H733 H 0.17295 0.27257 0.86617 0.0
H734 H 0.24617 0.18104 0.89259 0.0
H735 H 0.23664 0.35814 0.88431 0.0
C736 C 0.27541 0.36358 0.88162 0.0
C737 C 0.2973 0.33672 0.87927 0.0
C738 C 0.23003 0.201 0.8869 0.0
C739 C 0.25354 0.28308 0.88256 0.0
C740 C 0.20833 0.17375 0.88432 0.0
C741 C 0.18747 0.19874 0.87632 0.0
C742 C 0.23061 0.25363 0.88186 0.0
C743 C 0.18875 0.25154 0.87194 0.0
C744 C 0.25347 0.33688 0.88309 0.0
C745 C 0.2966 0.28297 0.87948 0.0
N746 N 0.20994 0.27718 0.87475 0.0
N747 N 0.27509 0.25792 0.88103 0.0
H748 H 0.6739 0.26675 0.62927 0.0
H749 H 0.81672 0.27676 0.62102 0.0
H750 H 0.71212 0.40406 0.60974 0.0
H751 H 0.77676 0.13508 0.61706 0.0
H752 H 0.77888 0.32411 0.61686 0.0
H753 H 0.71129 0.21803 0.62492 0.0
C754 C 0.69023 0.28669 0.62403 0.0
C755 C 0.69006 0.33973 0.62021 0.0
C756 C 0.77837 0.2827 0.61666 0.0
C757 C 0.73298 0.28395 0.61523 0.0
C758 C 0.79994 0.25555 0.61919 0.0
C759 C 0.79981 0.20183 0.61971 0.0
C760 C 0.75638 0.25605 0.61502 0.0
C761 C 0.77763 0.17644 0.61687 0.0
C762 C 0.71152 0.25869 0.62138 0.0
C763 C 0.71156 0.36332 0.613 0.0
N764 N 0.7567 0.20384 0.61498 0.0
N765 N 0.73232 0.33532 0.61106 0.0
H766 H 0.19666 0.85678 0.65996 0.0
H767 H 0.29035 0.67633 0.59487 0.0
H768 H 0.19806 0.84995 0.5862 0.0
H769 H 0.30262 0.73834 0.66237 0.0
H770 H 0.25386 0.73072 0.59147 0.0
H771 H 0.23367 0.80582 0.6613 0.0
C772 C 0.20509 0.84513 0.64401 0.0
C773 C 0.19459 0.85789 0.62295 0.0
C774 C 0.26463 0.73216 0.60698 0.0
C775 C 0.23653 0.79817 0.6243 0.0
C776 C 0.28519 0.7008 0.60902 0.0
C777 C 0.29942 0.70285 0.62894 0.0
C778 C 0.25824 0.76481 0.62515 0.0
C779 C 0.29222 0.73567 0.64668 0.0
C780 C 0.22613 0.81588 0.64477 0.0
C781 C 0.20597 0.84145 0.60275 0.0
N782 N 0.27214 0.76512 0.64439 0.0
N783 N 0.22629 0.81174 0.6039 0.0
H784 H 0.11001 0.88835 0.28154 0.0
H785 H 0.10852 0.14866 0.20919 0.0
H786 H 0.12533 0.03535 0.31179 0.0
H787 H 0.12946 1.00391 0.17966 0.0
H788 H 0.10592 0.10696 0.24693 0.0
H789 H 0.10824 0.92973 0.24362 0.0
C790 C 0.11279 0.92925 0.28022 0.0
C791 C 0.11811 0.95834 0.29976 0.0
C792 C 0.11103 0.08447 0.23211 0.0
C793 C 0.1157 1.00585 0.25677 0.0
C794 C 0.11248 0.1082 0.21063 0.0
C795 C 0.11954 0.07992 0.19133 0.0
C796 C 0.11607 0.0319 0.23416 0.0
C797 C 0.12435 0.02742 0.19415 0.0
C798 C 0.11187 0.95278 0.25865 0.0
C799 C 0.12154 1.01132 0.29712 0.0
N800 N 0.12243 1.0051 0.2151 0.0
N801 N 0.1202 0.03337 0.27608 0.0
H802 H 0.90092 0.08823 0.29715 0.0
H803 H 0.82204 0.95862 0.19781 0.0
H804 H 0.82374 0.06213 0.30179 0.0
H805 H 0.89977 0.94031 0.20165 0.0
H806 H 0.82272 1.00349 0.23443 0.0
H807 H 0.9013 0.04258 0.26026 0.0
C808 C 0.88403 0.07358 0.29027 0.0
C809 C 0.86224 0.07914 0.30254 0.0
C810 C 0.83964 0.98938 0.2274 0.0
C811 C 0.86259 0.0267 0.26058 0.0
C812 C 0.83926 0.96362 0.20649 0.0
C813 C 0.86086 0.9454 0.1967 0.0
C814 C 0.86185 0.99789 0.23859 0.0
C815 C 0.88266 0.95323 0.20871 0.0
C816 C 0.88431 0.0471 0.26937 0.0
C817 C 0.84096 0.05874 0.29297 0.0
N818 N 0.88264 0.9793 0.22896 0.0
N819 N 0.84167 0.03364 0.27262 0.0
H820 H 0.90155 0.10097 0.70247 0.0
H821 H 0.82117 0.97039 0.80057 0.0
H822 H 0.82409 0.07895 0.69771 0.0
H823 H 0.89884 0.95053 0.79718 0.0
H824 H 0.82238 1.01668 0.76435 0.0
H825 H 0.90143 0.05403 0.73903 0.0
C826 C 0.88449 0.08696 0.70926 0.0
C827 C 0.86277 0.09405 0.69704 0.0
C828 C 0.83918 1.00194 0.77137 0.0
C829 C 0.86256 0.04007 0.73863 0.0
C830 C 0.8385 0.97536 0.79207 0.0
C831 C 0.85992 0.95627 0.80188 0.0
C832 C 0.86151 1.01039 0.7604 0.0
C833 C 0.88186 0.96409 0.79009 0.0
C834 C 0.88449 0.05974 0.72998 0.0
C835 C 0.84127 0.07442 0.7065 0.0
N836 N 0.88213 0.99096 0.77004 0.0
N837 N 0.84171 0.04852 0.72667 0.0
H838 H 0.11063 0.15208 0.78329 0.0
H839 H 0.1135 0.89772 0.70721 0.0
H840 H 0.12958 1.0046 0.81128 0.0
H841 H 0.13041 0.04629 0.67927 0.0
H842 H 0.11141 0.93628 0.74561 0.0
H843 H 0.10994 0.11368 0.74478 0.0
C844 C 0.11455 0.1117 0.78135 0.0
C845 C 0.12043 0.08166 0.80048 0.0
C846 C 0.11553 0.96031 0.73101 0.0
C847 C 0.11921 0.03744 0.75672 0.0
C848 C 0.11666 0.93838 0.70914 0.0
C849 C 0.12238 0.96869 0.69006 0.0
C850 C 0.11959 1.01308 0.73372 0.0
C851 C 0.12626 0.0213 0.69354 0.0
C852 C 0.11422 0.08988 0.75942 0.0
C853 C 0.12529 0.02941 0.79698 0.0
N854 N 0.12468 0.04185 0.71489 0.0
N855 N 0.12445 1.00894 0.77559 0.0
H856 H 0.58504 0.44785 0.29896 0.0
H857 H 0.66214 0.58325 0.20002 0.0
H858 H 0.66136 0.48247 0.3047 0.0
H859 H 0.5845 0.60192 0.20496 0.0
H860 H 0.66187 0.53694 0.23632 0.0
H861 H 0.58413 0.49362 0.26203 0.0
C862 C 0.60164 0.46436 0.29231 0.0
C863 C 0.62332 0.46128 0.30489 0.0
C864 C 0.64488 0.55142 0.22959 0.0
C865 C 0.62239 0.51364 0.26293 0.0
C866 C 0.64503 0.57798 0.20887 0.0
C867 C 0.62334 0.59687 0.19952 0.0
C868 C 0.62282 0.5427 0.241 0.0
C869 C 0.60168 0.58858 0.21171 0.0
C870 C 0.60105 0.4909 0.2714 0.0
C871 C 0.64423 0.484 0.29563 0.0
N872 N 0.60192 0.5617 0.23175 0.0
N873 N 0.64325 0.50897 0.27526 0.0
H874 H 0.34637 0.63358 0.29248 0.0
H875 H 0.38912 0.40437 0.21017 0.0
H876 H 0.38783 0.50334 0.31557 0.0
H877 H 0.33186 0.50974 0.19214 0.0
H878 H 0.39232 0.446 0.24763 0.0
H879 H 0.34479 0.59542 0.25394 0.0
C880 C 0.35536 0.59738 0.2894 0.0
C881 C 0.36711 0.57152 0.30731 0.0
C882 C 0.379 0.4599 0.23549 0.0
C883 C 0.36538 0.52768 0.26343 0.0
C884 C 0.37713 0.43603 0.21411 0.0
C885 C 0.36008 0.45322 0.19799 0.0
C886 C 0.36393 0.50176 0.24076 0.0
C887 C 0.34514 0.49478 0.20406 0.0
C888 C 0.35431 0.57543 0.26748 0.0
C889 C 0.37836 0.52449 0.30236 0.0
N890 N 0.34748 0.51772 0.22487 0.0
N891 N 0.37721 0.50419 0.28098 0.0
H892 H 0.32274 0.45653 0.80221 0.0
H893 H 0.40273 0.59768 0.70668 0.0
H894 H 0.40063 0.44069 0.79922 0.0
H895 H 0.32532 0.5752 0.70173 0.0
H896 H 0.40282 0.54778 0.74246 0.0
H897 H 0.32379 0.50581 0.76678 0.0
C898 C 0.34008 0.46297 0.79394 0.0
C899 C 0.36161 0.44417 0.80364 0.0
C900 C 0.38583 0.55406 0.73355 0.0
C901 C 0.36303 0.50176 0.76311 0.0
C902 C 0.38573 0.58297 0.71329 0.0
C903 C 0.36397 0.59077 0.70124 0.0
C904 C 0.36398 0.53338 0.74189 0.0
C905 C 0.34253 0.57017 0.71041 0.0
C906 C 0.34068 0.4913 0.77371 0.0
C907 C 0.38357 0.45397 0.79218 0.0
N908 N 0.34308 0.54259 0.73011 0.0
N909 N 0.38375 0.48249 0.7726 0.0
H910 H 0.62993 0.489 0.81876 0.0
H911 H 0.63311 0.53623 0.68501 0.0
H912 H 0.61414 0.63727 0.7899 0.0
H913 H 0.61276 0.38992 0.7133 0.0
H914 H 0.63092 0.57369 0.72332 0.0
H915 H 0.62828 0.45175 0.7804 0.0
C916 C 0.62617 0.51381 0.80432 0.0
C917 C 0.62234 0.56648 0.80751 0.0
C918 C 0.62686 0.53345 0.72114 0.0
C919 C 0.62062 0.5239 0.7635 0.0
C920 C 0.62829 0.51185 0.69932 0.0
C921 C 0.6233 0.45966 0.69598 0.0
C922 C 0.62089 0.50252 0.73992 0.0
C923 C 0.61679 0.43024 0.71512 0.0
C924 C 0.62507 0.49237 0.78246 0.0
C925 C 0.61721 0.59654 0.7882 0.0
N926 N 0.61605 0.45194 0.73634 0.0
N927 N 0.61681 0.57493 0.76694 0.0
H928 H 0.13327 0.23842 0.9372 0.0
H929 H 0.08525 0.108 0.05281 0.0
H930 H 0.0877 0.10462 0.94136 0.0
H931 H 0.13508 0.23511 0.05397 0.0
H932 H 0.08176 0.11648 0.01158 0.0
H933 H 0.13046 0.24743 0.97924 0.0
C934 C 0.12241 0.21151 0.94688 0.0
C935 C 0.11093 0.17035 0.93582 0.0
C936 C 0.09339 0.14293 0.02069 0.0
C937 C 0.10761 0.1804 0.98358 0.0
C938 C 0.09537 0.13807 0.04432 0.0
C939 C 0.1107 0.17049 0.0568 0.0
C940 C 0.10714 0.18006 0.00911 0.0
C941 C 0.12309 0.20928 0.04492 0.0
C942 C 0.1209 0.21652 0.97083 0.0
C943 C 0.09715 0.13649 0.94915 0.0
N944 N 0.12134 0.21257 0.02161 0.0
N945 N 0.096 0.14216 0.97219 0.0
H946 H 0.8596 0.81816 0.94041 0.0
H947 H 0.88299 0.97742 0.05566 0.0
H948 H 0.88032 0.97728 0.94331 0.0
H949 H 0.86153 0.81863 0.05666 0.0
H950 H 0.88414 0.97479 0.01416 0.0
H951 H 0.86212 0.81433 0.98248 0.0
C952 C 0.86481 0.85212 0.94982 0.0
C953 C 0.8696 0.8982 0.93825 0.0
C954 C 0.87923 0.94032 0.02334 0.0
C955 C 0.8725 0.89405 0.98624 0.0
C956 C 0.87856 0.94181 0.04716 0.0
C957 C 0.872 0.89826 0.05978 0.0
C958 C 0.87319 0.89501 0.01175 0.0
C959 C 0.86666 0.85316 0.04764 0.0
C960 C 0.8662 0.84992 0.97381 0.0
C961 C 0.87625 0.94097 0.95136 0.0
N962 N 0.86722 0.85276 0.02427 0.0
N963 N 0.87743 0.93783 0.97452 0.0
H964 H 0.14132 0.80297 0.43638 0.0
H965 H 0.09028 0.9343 0.5506 0.0
H966 H 0.08987 0.92717 0.43925 0.0
H967 H 0.14287 0.81221 0.55329 0.0
H968 H 0.08671 0.92247 0.50957 0.0
H969 H 0.13926 0.7962 0.4786 0.0
C970 C 0.1293 0.82807 0.44583 0.0
C971 C 0.11595 0.86608 0.43437 0.0
C972 C 0.09899 0.89783 0.51896 0.0
C973 C 0.11352 0.8587 0.48229 0.0
C974 C 0.10103 0.90466 0.54249 0.0
C975 C 0.11709 0.8746 0.55535 0.0
C976 C 0.11342 0.86113 0.50783 0.0
C977 C 0.13029 0.83624 0.54394 0.0
C978 C 0.12822 0.8244 0.46987 0.0
C979 C 0.10075 0.8978 0.44737 0.0
N980 N 0.12845 0.83103 0.5207 0.0
N981 N 0.10008 0.89355 0.47049 0.0
H982 H 0.88632 0.06342 0.5566 0.0
H983 H 0.86116 0.21912 0.44069 0.0
H984 H 0.86329 0.22129 0.55697 0.0
H985 H 0.88296 0.06066 0.44436 0.0
H986 H 0.8639 0.22415 0.48272 0.0
H987 H 0.88746 0.06529 0.5151 0.0
C988 C 0.88154 0.09868 0.54796 0.0
C989 C 0.87452 0.14217 0.56039 0.0
C990 C 0.86817 0.18844 0.47423 0.0
C991 C 0.87568 0.14453 0.51236 0.0
C992 C 0.86665 0.18555 0.45025 0.0
C993 C 0.87167 0.13929 0.43892 0.0
C994 C 0.87485 0.14482 0.48686 0.0
C995 C 0.87869 0.09706 0.45222 0.0
C996 C 0.88221 0.09973 0.52413 0.0
C997 C 0.86879 0.18683 0.54809 0.0
N998 N 0.87999 0.10087 0.47535 0.0
N999 N 0.86932 0.18679 0.52471 0.0
H1000 H 0.6281 0.73448 0.06177 0.0
H1001 H 0.59009 0.58849 0.94664 0.0
H1002 H 0.59466 0.58544 0.05836 0.0
H1003 H 0.63589 0.72226 0.94522 0.0
H1004 H 0.58637 0.59674 0.98782 0.0
H1005 H 0.62658 0.73939 0.01962 0.0
C1006 C 0.62023 0.70309 0.05221 0.0
C1007 C 0.61164 0.65929 0.06361 0.0
C1008 C 0.59719 0.62459 0.97864 0.0
C1009 C 0.60974 0.66484 0.01563 0.0
C1010 C 0.59932 0.61992 0.95503 0.0
C1011 C 0.61363 0.65431 0.94247 0.0
C1012 C 0.60962 0.66376 0.99013 0.0
C1013 C 0.62475 0.69482 0.95429 0.0
C1014 C 0.61946 0.70588 0.0282 0.0
C1015 C 0.60172 0.61974 0.05038 0.0
N1016 N 0.62276 0.69814 0.97759 0.0
N1017 N 0.60109 0.62348 0.02722 0.0
H1018 H 0.3636 0.3132 0.94284 0.0
H1019 H 0.38168 0.47968 0.05686 0.0
H1020 H 0.38187 0.47375 0.94431 0.0
H1021 H 0.36202 0.31988 0.05879 0.0
H1022 H 0.38404 0.4752 0.0154 0.0
H1023 H 0.36509 0.3119 0.98494 0.0
C1024 C 0.36808 0.34803 0.95194 0.0
C1025 C 0.37247 0.39373 0.93995 0.0
C1026 C 0.37927 0.44093 0.0248 0.0
C1027 C 0.37416 0.39248 0.98802 0.0
C1028 C 0.3779 0.44347 0.04858 0.0
C1029 C 0.37149 0.40016 0.06143 0.0
C1030 C 0.3741 0.39478 0.0135 0.0
C1031 C 0.367 0.35427 0.0496 0.0
C1032 C 0.36887 0.34726 0.97597 0.0
C1033 C 0.37815 0.43766 0.9527 0.0
N1034 N 0.36825 0.35283 0.02627 0.0
N1035 N 0.37876 0.43591 0.97591 0.0
H1036 H 0.6392 0.3054 0.44158 0.0
H1037 H 0.58875 0.43543 0.55637 0.0
H1038 H 0.59298 0.43843 0.44507 0.0
H1039 H 0.63826 0.30768 0.55843 0.0
H1040 H 0.58613 0.42709 0.51509 0.0
H1041 H 0.63562 0.29619 0.48359 0.0
C1042 C 0.62805 0.3321 0.45111 0.0
C1043 C 0.61663 0.37314 0.4399 0.0
C1044 C 0.59751 0.40047 0.52441 0.0
C1045 C 0.61241 0.36286 0.48757 0.0
C1046 C 0.59899 0.40526 0.54807 0.0
C1047 C 0.61395 0.37259 0.56082 0.0
C1048 C 0.61143 0.36318 0.51308 0.0
C1049 C 0.62653 0.3337 0.54916 0.0
C1050 C 0.6261 0.32698 0.47503 0.0
C1051 C 0.60245 0.40672 0.453 0.0
N1052 N 0.62528 0.33048 0.52583 0.0
N1053 N 0.60086 0.40094 0.476 0.0
H1054 H 0.37103 0.73234 0.5634 0.0
H1055 H 0.35924 0.56721 0.45015 0.0
H1056 H 0.38034 0.56844 0.5601 0.0
H1057 H 0.38138 0.7252 0.4454 0.0
H1058 H 0.3629 0.57146 0.49139 0.0
H1059 H 0.37179 0.73519 0.52113 0.0
C1060 C 0.37341 0.69713 0.55389 0.0
C1061 C 0.37534 0.65 0.5654 0.0
C1062 C 0.36709 0.60533 0.48146 0.0
C1063 C 0.37605 0.65311 0.51736 0.0
C1064 C 0.36484 0.60306 0.45782 0.0
C1065 C 0.36989 0.64603 0.44425 0.0
C1066 C 0.37419 0.65112 0.49199 0.0
C1067 C 0.37737 0.69117 0.45527 0.0
C1068 C 0.3739 0.69887 0.52982 0.0
C1069 C 0.37851 0.60567 0.55217 0.0
N1070 N 0.37909 0.69278 0.47863 0.0
N1071 N 0.37853 0.60834 0.529 0.0
H1072 H 0.95181 0.89887 0.13077 0.0
H1073 H 0.03393 0.15013 0.12878 0.0
H1074 H 0.92226 0.05182 0.13436 0.0
H1075 H 0.06264 0.99637 0.13151 0.0
H1076 H 0.99292 0.11533 0.13091 0.0
H1077 H 0.99252 0.93452 0.13113 0.0
C1078 C 0.95385 0.94002 0.13165 0.0
C1079 C 0.93354 0.97243 0.13243 0.0
C1080 C 0.00821 0.08926 0.13111 0.0
C1081 C 0.98029 1.01354 0.13284 0.0
C1082 C 0.03165 0.10906 0.12986 0.0
C1083 C 0.05179 0.07609 0.12987 0.0
C1084 C 0.00487 0.03614 0.1323 0.0
C1085 C 0.04768 0.02326 0.1314 0.0
C1086 C 0.97716 0.96035 0.13191 0.0
C1087 C 0.93739 0.0254 0.13372 0.0
N1088 N 0.02468 1.00494 0.13247 0.0
N1089 N 0.96035 0.04436 0.13378 0.0
H1090 H 0.92166 0.9777 0.3646 0.0
H1091 H 0.06385 0.04172 0.36378 0.0
H1092 H 0.95125 0.13038 0.36926 0.0
H1093 H 0.03536 0.88783 0.36573 0.0
H1094 H 0.02243 0.07464 0.36388 0.0
H1095 H 0.96304 0.94368 0.36319 0.0
C1096 C 0.9368 1.00407 0.36531 0.0
C1097 C 0.93292 0.05699 0.36711 0.0
C1098 C 0.02524 0.03365 0.36428 0.0
C1099 C 0.98025 1.01834 0.36546 0.0
C1100 C 0.04891 1.0148 0.36419 0.0
C1101 C 0.05314 0.9619 0.36481 0.0
C1102 C 0.00559 0.99942 0.36493 0.0
C1103 C 0.03301 0.92892 0.36531 0.0
C1104 C 0.96041 0.98462 0.36452 0.0
C1105 C 0.95327 0.08931 0.36795 0.0
N1106 N 0.01011 0.94824 0.36537 0.0
N1107 N 0.976 0.06947 0.36711 0.0
H1108 H 0.06123 0.99589 0.86104 0.0
H1109 H 0.9189 0.05862 0.86391 0.0
H1110 H 0.03254 0.14944 0.86534 0.0
H1111 H 0.94903 0.90616 0.86724 0.0
H1112 H 0.96016 0.09316 0.86207 0.0
H1113 H 0.01988 0.96282 0.86073 0.0
C1114 C 0.04626 0.02272 0.86184 0.0
C1115 C 0.05042 0.07556 0.86331 0.0
C1116 C 0.95768 0.05216 0.8632 0.0
C1117 C 0.00292 0.03782 0.86301 0.0
C1118 C 0.93413 0.0324 0.86423 0.0
C1119 C 0.93044 0.97939 0.86581 0.0
C1120 C 0.97763 1.01864 0.86365 0.0
C1121 C 0.9509 0.94729 0.86614 0.0
C1122 C 0.02262 1.00377 0.86171 0.0
C1123 C 0.03023 0.1084 0.86428 0.0
N1124 N 0.97356 0.96742 0.86507 0.0
N1125 N 0.00736 0.08898 0.86415 0.0
H1126 H 0.92397 0.98758 0.63404 0.0
H1127 H 0.06606 0.05135 0.62985 0.0
H1128 H 0.95385 0.14023 0.63105 0.0
H1129 H 0.03769 0.8975 0.62623 0.0
H1130 H 0.02476 0.08382 0.63258 0.0
H1131 H 0.96532 0.95301 0.63354 0.0
C1132 C 0.93917 1.01382 0.63337 0.0
C1133 C 0.9354 0.06689 0.63248 0.0
C1134 C 0.02754 0.04293 0.6312 0.0
C1135 C 0.98262 0.02766 0.6319 0.0
C1136 C 0.05116 0.02432 0.62963 0.0
C1137 C 0.05539 0.97158 0.62772 0.0
C1138 C 0.00792 1.00866 0.63087 0.0
C1139 C 0.0353 0.93848 0.6276 0.0
C1140 C 0.96275 0.99406 0.63304 0.0
C1141 C 0.95579 0.09905 0.63162 0.0
N1142 N 0.01241 0.95759 0.62913 0.0
N1143 N 0.97846 0.07892 0.63133 0.0
H1144 H 0.41926 0.55668 0.13643 0.0
H1145 H 0.56183 0.49728 0.13884 0.0
H1146 H 0.4497 0.40439 0.13383 0.0
H1147 H 0.53175 0.6495 0.13332 0.0
H1148 H 0.52069 0.46267 0.13965 0.0
H1149 H 0.46036 0.59164 0.13791 0.0
C1150 C 0.43454 0.53058 0.13622 0.0
C1151 C 0.431 0.47752 0.13491 0.0
C1152 C 0.52312 0.50365 0.13828 0.0
C1153 C 0.47802 0.51726 0.13662 0.0
C1154 C 0.54661 0.52346 0.13785 0.0
C1155 C 0.55027 0.57637 0.13592 0.0
C1156 C 0.50316 0.537 0.13684 0.0
C1157 C 0.52983 0.60842 0.13471 0.0
C1158 C 0.458 0.55057 0.13704 0.0
C1159 C 0.45151 0.44556 0.13471 0.0
N1160 N 0.50716 0.58821 0.13518 0.0
N1161 N 0.47412 0.46595 0.13554 0.0
H1162 H 0.45057 0.63486 0.35954 0.0
H1163 H 0.53805 0.39678 0.38253 0.0
H1164 H 0.42652 0.49368 0.39058 0.0
H1165 H 0.56395 0.54586 0.36201 0.0
H1166 H 0.49685 0.43054 0.38397 0.0
H1167 H 0.49194 0.60182 0.35889 0.0
C1168 C 0.45395 0.59689 0.36625 0.0
C1169 C 0.43498 0.56694 0.3751 0.0
C1170 C 0.51154 0.45589 0.37919 0.0
C1171 C 0.48241 0.52889 0.37433 0.0
C1172 C 0.5351 0.43663 0.37827 0.0
C1173 C 0.55454 0.46853 0.37209 0.0
C1174 C 0.50728 0.50739 0.37376 0.0
C1175 C 0.54955 0.51987 0.36688 0.0
C1176 C 0.47763 0.57812 0.3659 0.0
C1177 C 0.44055 0.51815 0.38363 0.0
N1178 N 0.52639 0.53768 0.36777 0.0
N1179 N 0.46376 0.50056 0.38295 0.0
H1180 H 0.42303 0.54754 0.86496 0.0
H1181 H 0.56505 0.48157 0.86819 0.0
H1182 H 0.45221 0.3945 0.87004 0.0
H1183 H 0.53692 0.63583 0.87019 0.0
H1184 H 0.52358 0.44934 0.86635 0.0
H1185 H 0.46454 0.58109 0.86442 0.0
C1186 C 0.43811 0.521 0.8659 0.0
C1187 C 0.43409 0.46813 0.86765 0.0
C1188 C 0.52647 0.49026 0.86717 0.0
C1189 C 0.48152 0.5062 0.867 0.0
C1190 C 0.55018 0.50872 0.8682 0.0
C1191 C 0.55452 0.56151 0.86944 0.0
C1192 C 0.50691 0.52478 0.86735 0.0
C1193 C 0.53447 0.5948 0.86934 0.0
C1194 C 0.46178 0.54017 0.86562 0.0
C1195 C 0.45435 0.43556 0.8688 0.0
N1196 N 0.51154 0.57587 0.86835 0.0
N1197 N 0.47713 0.45513 0.86848 0.0
H1198 H 0.42341 0.48937 0.63873 0.0
H1199 H 0.56609 0.54721 0.63745 0.0
H1200 H 0.4544 0.64113 0.63696 0.0
H1201 H 0.536 0.39502 0.63237 0.0
H1202 H 0.52508 0.58173 0.63979 0.0
H1203 H 0.46443 0.4535 0.63891 0.0
C1204 C 0.43879 0.51516 0.63845 0.0
C1205 C 0.43542 0.56837 0.63773 0.0
C1206 C 0.52744 0.54076 0.63819 0.0
C1207 C 0.48233 0.52757 0.63793 0.0
C1208 C 0.55088 0.52098 0.63687 0.0
C1209 C 0.55453 0.4681 0.63462 0.0
C1210 C 0.50745 0.5075 0.63729 0.0
C1211 C 0.53408 0.43606 0.634 0.0
C1212 C 0.4622 0.49464 0.63852 0.0
C1213 C 0.45605 0.59989 0.6374 0.0
N1214 N 0.5114 0.45629 0.6353 0.0
N1215 N 0.47859 0.579 0.63748 0.0
H1216 H 0.09615 0.77547 0.13365 0.0
H1217 H 0.15321 0.49387 0.11949 0.0
H1218 H 0.16909 0.7473 0.10971 0.0
H1219 H 0.08097 0.52255 0.14512 0.0
H1220 H 0.15921 0.58623 0.11539 0.0
H1221 H 0.09045 0.68325 0.13829 0.0
C1222 C 0.11108 0.75013 0.12952 0.0
C1223 C 0.13315 0.76979 0.12118 0.0
C1224 C 0.14205 0.57232 0.12194 0.0
C1225 C 0.12653 0.66323 0.12619 0.0
C1226 C 0.13853 0.51939 0.12415 0.0
C1227 C 0.11655 0.49986 0.13275 0.0
C1228 C 0.12346 0.60644 0.12828 0.0
C1229 C 0.09839 0.53541 0.13877 0.0
C1230 C 0.10772 0.69723 0.13203 0.0
C1231 C 0.1516 0.73436 0.11582 0.0
N1232 N 0.10224 0.58665 0.13641 0.0
N1233 N 0.14787 0.68312 0.11838 0.0
H1234 H 0.89578 0.272 0.1159 0.0
H1235 H 0.83524 0.55029 0.12944 0.0
H1236 H 0.81863 0.29689 0.12263 0.0
H1237 H 0.91243 0.52499 0.12363 0.0
H1238 H 0.82868 0.45809 0.12557 0.0
H1239 H 0.90213 0.36449 0.11791 0.0
C1240 C 0.88014 0.29673 0.11786 0.0
C1241 C 0.8566 0.27609 0.11907 0.0
C1242 C 0.84706 0.47271 0.12512 0.0
C1243 C 0.86379 0.38282 0.12119 0.0
C1244 C 0.85083 0.52555 0.12717 0.0
C1245 C 0.87446 0.54589 0.12699 0.0
C1246 C 0.86704 0.43956 0.1228 0.0
C1247 C 0.8939 0.51137 0.12429 0.0
C1248 C 0.88379 0.34974 0.11888 0.0
C1249 C 0.83709 0.31065 0.12126 0.0
N1250 N 0.88976 0.46017 0.12235 0.0
N1251 N 0.84113 0.36202 0.12229 0.0
H1252 H 0.12409 0.28189 0.40842 0.0
H1253 H 0.13007 0.52383 0.32367 0.0
H1254 H 0.14246 0.26999 0.33676 0.0
H1255 H 0.10974 0.53451 0.39491 0.0
H1256 H 0.13506 0.43145 0.32817 0.0
H1257 H 0.11925 0.37421 0.40382 0.0
C1258 C 0.12724 0.29856 0.3917 0.0
C1259 C 0.13386 0.26758 0.37298 0.0
C1260 C 0.12953 0.45396 0.34284 0.0
C1261 C 0.12806 0.37427 0.36755 0.0
C1262 C 0.12655 0.50692 0.34027 0.0
C1263 C 0.11934 0.5376 0.35891 0.0
C1264 C 0.12531 0.43089 0.36422 0.0
C1265 C 0.11557 0.51297 0.38007 0.0
C1266 C 0.12433 0.35149 0.38907 0.0
C1267 C 0.13714 0.29186 0.35167 0.0
N1268 N 0.11853 0.46134 0.38211 0.0
N1269 N 0.13429 0.34353 0.34958 0.0
H1270 H 0.87075 0.50047 0.32998 0.0
H1271 H 0.85347 0.73978 0.41477 0.0
H1272 H 0.87131 0.48605 0.40362 0.0
H1273 H 0.85948 0.75331 0.34133 0.0
H1274 H 0.85859 0.64698 0.41124 0.0
H1275 H 0.86529 0.59263 0.33403 0.0
C1276 C 0.86986 0.51655 0.34705 0.0
C1277 C 0.87173 0.48491 0.36648 0.0
C1278 C 0.85884 0.67026 0.3959 0.0
C1279 C 0.8651 0.59145 0.37124 0.0
C1280 C 0.85581 0.72337 0.39789 0.0
C1281 C 0.85607 0.75487 0.37833 0.0
C1282 C 0.86201 0.64803 0.37417 0.0
C1283 C 0.85949 0.73103 0.35696 0.0
C1284 C 0.86661 0.5694 0.34934 0.0
C1285 C 0.86979 0.50846 0.3881 0.0
N1286 N 0.86223 0.67932 0.35547 0.0
N1287 N 0.86666 0.56011 0.38989 0.0
H1288 H 0.84935 0.29577 0.9137 0.0
H1289 H 0.86998 0.53489 0.8294 0.0
H1290 H 0.85801 0.28211 0.8405 0.0
H1291 H 0.86771 0.54949 0.90301 0.0
H1292 H 0.8643 0.44277 0.83332 0.0
H1293 H 0.85465 0.38854 0.91029 0.0
C1294 C 0.8523 0.31214 0.89689 0.0
C1295 C 0.85325 0.28059 0.87737 0.0
C1296 C 0.86504 0.46602 0.84865 0.0
C1297 C 0.85942 0.38743 0.87336 0.0
C1298 C 0.86842 0.51886 0.84644 0.0
C1299 C 0.86957 0.55055 0.8659 0.0
C1300 C 0.86267 0.44402 0.8705 0.0
C1301 C 0.86677 0.52706 0.88746 0.0
C1302 C 0.85544 0.36524 0.89498 0.0
C1303 C 0.85746 0.3044 0.85611 0.0
N1304 N 0.86353 0.47541 0.88917 0.0
N1305 N 0.8603 0.3561 0.85469 0.0
H1306 H 0.0797 0.52079 0.84432 0.0
H1307 H 0.1675 0.74701 0.88655 0.0
H1308 H 0.14956 0.4946 0.87566 0.0
H1309 H 0.09656 0.77283 0.85733 0.0
H1310 H 0.16153 0.65497 0.88217 0.0
H1311 H 0.08593 0.61284 0.84826 0.0
C1312 C 0.09645 0.53423 0.85192 0.0
C1313 C 0.11418 0.49933 0.85954 0.0
C1314 C 0.14726 0.68072 0.87669 0.0
C1315 C 0.12132 0.6057 0.86437 0.0
C1316 C 0.15059 0.73351 0.8793 0.0
C1317 C 0.13246 0.76832 0.87245 0.0
C1318 C 0.12562 0.66197 0.86711 0.0
C1319 C 0.1112 0.74793 0.86268 0.0
C1320 C 0.09992 0.58703 0.85429 0.0
C1321 C 0.13525 0.51963 0.8697 0.0
N1322 N 0.10837 0.69633 0.86038 0.0
N1323 N 0.13823 0.57125 0.87175 0.0
H1324 H 0.87254 0.76679 0.6576 0.0
H1325 H 0.86427 0.49287 0.59553 0.0
H1326 H 0.84665 0.74733 0.58839 0.0
H1327 H 0.88635 0.51404 0.66582 0.0
H1328 H 0.85786 0.58539 0.59228 0.0
H1329 H 0.87862 0.67446 0.66034 0.0
C1330 C 0.86834 0.74328 0.64286 0.0
C1331 C 0.85911 0.76538 0.62269 0.0
C1332 C 0.8641 0.56975 0.60842 0.0
C1333 C 0.86575 0.6586 0.62587 0.0
C1334 C 0.86763 0.51674 0.61034 0.0
C1335 C 0.87602 0.49515 0.63096 0.0
C1336 C 0.86894 0.60176 0.62724 0.0
C1337 C 0.88032 0.5286 0.64943 0.0
C1338 C 0.87164 0.6903 0.64452 0.0
C1339 C 0.85356 0.73229 0.60438 0.0
N1340 N 0.87678 0.57991 0.64711 0.0
N1341 N 0.85699 0.68079 0.6064 0.0
H1342 H 0.17363 0.30014 0.60555 0.0
H1343 H 0.08492 0.52731 0.64531 0.0
H1344 H 0.10115 0.2752 0.63134 0.0
H1345 H 0.1558 0.55278 0.61596 0.0
H1346 H 0.09098 0.43519 0.64126 0.0
H1347 H 0.16778 0.3922 0.61002 0.0
C1348 C 0.1564 0.31383 0.61206 0.0
C1349 C 0.13781 0.27924 0.61791 0.0
C1350 C 0.10524 0.46085 0.6357 0.0
C1351 C 0.13111 0.38565 0.62338 0.0
C1352 C 0.10186 0.51368 0.63813 0.0
C1353 C 0.11992 0.5484 0.6311 0.0
C1354 C 0.12689 0.44197 0.62617 0.0
C1355 C 0.14124 0.52788 0.62146 0.0
C1356 C 0.15314 0.36664 0.61472 0.0
C1357 C 0.11614 0.2999 0.62677 0.0
N1358 N 0.14413 0.47624 0.61936 0.0
N1359 N 0.1134 0.3515 0.62917 0.0
H1360 H 0.6127 1.01838 0.17308 0.0
H1361 H 0.62758 0.25758 0.08784 0.0
H1362 H 0.61108 1.00369 0.09946 0.0
H1363 H 0.62383 0.27099 0.16143 0.0
H1364 H 0.62275 0.16476 0.09151 0.0
H1365 H 0.61796 0.11054 0.16888 0.0
C1366 C 0.61333 0.03443 0.15599 0.0
C1367 C 0.61122 1.00276 0.1366 0.0
C1368 C 0.62294 0.18802 0.10685 0.0
C1369 C 0.61757 0.10923 0.13167 0.0
C1370 C 0.6258 0.24113 0.10478 0.0
C1371 C 0.62609 0.27258 0.12435 0.0
C1372 C 0.62048 0.16578 0.12866 0.0
C1373 C 0.62338 0.24873 0.1458 0.0
C1374 C 0.61646 0.08726 0.15361 0.0
C1375 C 0.6128 0.02618 0.11493 0.0
N1376 N 0.62077 0.19702 0.14736 0.0
N1377 N 0.6158 0.07784 0.11306 0.0
H1378 H 0.39368 0.77559 0.11942 0.0
H1379 H 0.33274 0.05456 0.12802 0.0
H1380 H 0.31624 0.80101 0.12073 0.0
H1381 H 0.41011 0.02839 0.12852 0.0
H1382 H 0.32632 0.96235 0.12382 0.0
H1383 H 0.39999 0.86803 0.12181 0.0
C1384 C 0.37796 0.80042 0.12027 0.0
C1385 C 0.35435 0.77992 0.11985 0.0
C1386 C 0.34472 0.97679 0.12482 0.0
C1387 C 0.36153 0.88665 0.12239 0.0
C1388 C 0.34841 0.02963 0.12707 0.0
C1389 C 0.37203 0.04972 0.12876 0.0
C1390 C 0.36475 0.94339 0.12418 0.0
C1391 C 0.39155 1.01496 0.12771 0.0
C1392 C 0.38161 0.85341 0.12152 0.0
C1393 C 0.33479 0.81463 0.12065 0.0
N1394 N 0.38748 0.96379 0.12553 0.0
N1395 N 0.33881 0.866 0.12192 0.0
H1396 H 0.62383 0.02976 0.32693 0.0
H1397 H 0.63014 0.79121 0.41355 0.0
H1398 H 0.61515 0.04362 0.40015 0.0
H1399 H 0.63686 0.77605 0.34022 0.0
H1400 H 0.62497 0.88342 0.4089 0.0
H1401 H 0.62885 0.9374 0.33141 0.0
C1402 C 0.62286 1.01356 0.34398 0.0
C1403 C 0.61893 0.04514 0.36317 0.0
C1404 C 0.62757 0.86002 0.39379 0.0
C1405 C 0.62498 0.93843 0.36843 0.0
C1406 C 0.63066 0.80715 0.39643 0.0
C1407 C 0.63413 0.77528 0.37727 0.0
C1408 C 0.62793 0.88186 0.3718 0.0
C1409 C 0.63406 0.79863 0.35553 0.0
C1410 C 0.62586 0.9606 0.34652 0.0
C1411 C 0.6184 0.02138 0.38482 0.0
N1412 N 0.63112 0.85028 0.35341 0.0
N1413 N 0.62132 0.96973 0.38683 0.0
H1414 H 0.39079 0.99106 0.40254 0.0
H1415 H 0.33812 0.24995 0.34725 0.0
H1416 H 0.35108 0.99671 0.33887 0.0
H1417 H 0.376 0.24531 0.41192 0.0
H1418 H 0.34328 0.15743 0.34377 0.0
H1419 H 0.38544 0.08368 0.40654 0.0
C1420 C 0.38078 1.01156 0.38948 0.0
C1421 C 0.37149 0.98566 0.37027 0.0
C1422 C 0.35049 0.1766 0.35873 0.0
C1423 C 0.36552 0.09233 0.37463 0.0
C1424 C 0.34771 0.22966 0.36065 0.0
C1425 C 0.35664 0.2559 0.37991 0.0
C1426 C 0.36236 0.14908 0.37614 0.0
C1427 C 0.36852 0.22693 0.39689 0.0
C1428 C 0.37787 0.06463 0.3917 0.0
C1429 C 0.35896 1.01481 0.35379 0.0
N1430 N 0.37104 0.17531 0.3946 0.0
N1431 N 0.3564 0.06631 0.35633 0.0
H1432 H 0.34413 0.78847 0.91292 0.0
H1433 H 0.3868 0.02308 0.83372 0.0
H1434 H 0.37168 0.77117 0.84415 0.0
H1435 H 0.36181 0.04237 0.90325 0.0
H1436 H 0.38084 0.931 0.83734 0.0
H1437 H 0.3499 0.8811 0.90979 0.0
C1438 C 0.35135 0.804 0.89713 0.0
C1439 C 0.35742 0.77149 0.87878 0.0
C1440 C 0.37665 0.95526 0.85184 0.0
C1441 C 0.36418 0.87814 0.87513 0.0
C1442 C 0.38017 1.00806 0.84984 0.0
C1443 C 0.37501 0.041 0.86827 0.0
C1444 C 0.36783 0.93459 0.87245 0.0
C1445 C 0.3659 1.01884 0.8885 0.0
C1446 C 0.35473 0.85703 0.8954 0.0
C1447 C 0.36704 0.79424 0.8589 0.0
N1448 N 0.36268 0.96718 0.89006 0.0
N1449 N 0.37003 0.84589 0.85761 0.0
H1450 H 0.63834 0.25595 0.84316 0.0
H1451 H 0.6163 0.98479 0.90491 0.0
H1452 H 0.63125 0.23764 0.91632 0.0
H1453 H 0.6261 1.00177 0.83195 0.0
H1454 H 0.62178 0.07708 0.90936 0.0
H1455 H 0.63314 0.16345 0.8386 0.0
C1456 C 0.63554 0.23268 0.85828 0.0
C1457 C 0.63535 0.25509 0.88019 0.0
C1458 C 0.62276 0.06064 0.89236 0.0
C1459 C 0.62957 0.1484 0.87506 0.0
C1460 C 0.6198 1.00767 0.88981 0.0
C1461 C 0.62066 0.9849 0.86799 0.0
C1462 C 0.62665 0.09159 0.87299 0.0
C1463 C 0.62487 1.01727 0.84909 0.0
C1464 C 0.63273 0.17966 0.85566 0.0
C1465 C 0.63194 0.22239 0.8991 0.0
N1466 N 0.62767 0.06868 0.85203 0.0
N1467 N 0.6292 0.17102 0.8961 0.0
H1468 H 0.37897 1.01499 0.67415 0.0
H1469 H 0.35205 0.25174 0.59004 0.0
H1470 H 0.3701 0.99795 0.6011 0.0
H1471 H 0.36612 0.26746 0.66241 0.0
H1472 H 0.35746 0.15903 0.59365 0.0
H1473 H 0.37324 0.10707 0.67005 0.0
C1474 C 0.37595 0.03047 0.65718 0.0
C1475 C 0.37525 0.9981 0.63792 0.0
C1476 C 0.35941 0.18278 0.60873 0.0
C1477 C 0.36831 0.10461 0.63314 0.0
C1478 C 0.35622 0.23585 0.60672 0.0
C1479 C 0.35864 0.26798 0.62594 0.0
C1480 C 0.36496 0.16117 0.63017 0.0
C1481 C 0.3644 0.24474 0.647 0.0
C1482 C 0.37254 0.08329 0.65488 0.0
C1483 C 0.37063 0.02093 0.6165 0.0
N1484 N 0.36727 0.19305 0.64854 0.0
N1485 N 0.36742 0.07258 0.6147 0.0
H1486 H 0.6337 0.77101 0.66103 0.0
H1487 H 0.61962 0.04405 0.59873 0.0
H1488 H 0.63504 0.79104 0.58767 0.0
H1489 H 0.62004 0.02493 0.67216 0.0
H1490 H 0.62552 0.95178 0.5944 0.0
H1491 H 0.62818 0.86348 0.66547 0.0
C1492 C 0.63269 0.79464 0.64582 0.0
C1493 C 0.63496 0.77271 0.62392 0.0
C1494 C 0.62435 0.96775 0.61147 0.0
C1495 C 0.62882 0.8794 0.62893 0.0
C1496 C 0.62114 0.02069 0.61398 0.0
C1497 C 0.61923 0.04286 0.63587 0.0
C1498 C 0.62572 0.93622 0.63097 0.0
C1499 C 0.62099 1.00991 0.65491 0.0
C1500 C 0.62969 0.84765 0.64839 0.0
C1501 C 0.63381 0.80589 0.60493 0.0
N1502 N 0.62409 0.95856 0.65202 0.0
N1503 N 0.63083 0.85725 0.60787 0.0
loop_
_geom_bond_atom_site_label_1
_geom_bond_atom_site_label_2
_geom_bond_distance
_geom_bond_site_symmetry_2
_ccdc_geom_bond_type
Tb0 C9 2.764 . S
Tb0 O10 2.325 . S
Tb0 O13 2.303 . S
Tb0 O17 2.322 . S
Tb0 O18 2.349 . S
Tb0 O21 2.415 . S
Tb0 O22 2.399 . S
Tb1 O11 2.322 . S
Tb1 O12 2.349 . S
Tb1 O14 2.415 1_545 S
Tb1 O15 2.399 1_545 S
Tb1 O16 2.325 . S
Tb1 O19 2.303 . S
Tb1 C30 2.764 1_545 S
C2 O18 1.261 . S
C2 O19 1.257 . S
C3 C6 1.358 . S
C3 C7 1.332 . S
C3 C9 1.504 . S
C4 C5 1.373 . S
C4 C8 1.308 . S
C5 C4 1.373 . S
C5 C6 1.429 . S
C5 H32 0.932 . S
C6 C3 1.358 . S
C6 C5 1.429 . S
C6 H33 0.930 . S
C7 C3 1.332 . S
C7 C8 1.394 . S
C7 H34 0.932 . S
C8 C4 1.308 . S
C8 C7 1.394 . S
C8 H35 0.929 . S
C9 Tb0 2.764 . S
C9 C3 1.504 . S
C9 O21 1.239 . S
C9 O22 1.263 . S
O10 Tb0 2.325 . S
O10 C20 1.236 . S
O11 Tb1 2.322 . S
O11 C20 1.257 . S
O12 Tb1 2.349 . S
O12 C23 1.261 . S
O13 Tb0 2.303 . S
O13 C23 1.257 . S
O14 Tb1 2.415 1_565 S
O14 C30 1.239 . S
O15 Tb1 2.399 1_565 S
O15 C30 1.263 . S
O16 Tb1 2.325 . S
O16 C31 1.236 . S
O17 Tb0 2.322 . S
O17 C31 1.257 . S
O18 Tb0 2.349 . S
O18 C2 1.261 . S
O19 Tb1 2.303 . S
O19 C2 1.257 . S
C20 O10 1.236 . S
C20 O11 1.257 . S
O21 Tb0 2.415 . S
O21 C9 1.239 . S
O22 Tb0 2.399 . S
O22 C9 1.263 . S
C23 O12 1.261 . S
C23 O13 1.257 . S
C24 C27 1.358 . S
C24 C28 1.332 . S
C24 C30 1.504 . S
C25 C26 1.373 . S
C25 C29 1.308 . S
C26 C25 1.373 . S
C26 C27 1.429 . S
C26 H36 0.932 . S
C27 C24 1.358 . S
C27 C26 1.429 . S
C27 H37 0.930 . S
C28 C24 1.332 . S
C28 C29 1.394 . S
C28 H38 0.932 . S
C29 C25 1.308 . S
C29 C28 1.394 . S
C29 H39 0.929 . S
C30 Tb1 2.764 1_565 S
C30 O14 1.239 . S
C30 O15 1.263 . S
C30 C24 1.504 . S
C31 O16 1.236 . S
C31 O17 1.257 . S
H32 C5 0.932 . S
H33 C6 0.930 . S
H34 C7 0.932 . S
H35 C8 0.929 . S
H36 C26 0.932 . S
H37 C27 0.930 . S
H38 C28 0.932 . S
H39 C29 0.929 . S
Tb40 C49 2.764 . S
Tb40 O50 2.325 . S
Tb40 O53 2.303 . S
Tb40 O57 2.322 . S
Tb40 O58 2.349 . S
Tb40 O61 2.415 . S
Tb40 O62 2.399 . S
Tb41 O51 2.322 . S
Tb41 O52 2.349 . S
Tb41 O54 2.415 1_565 S
Tb41 O55 2.399 1_565 S
Tb41 O56 2.325 . S
Tb41 O59 2.303 . S
Tb41 C70 2.764 1_565 S
C42 O58 1.261 . S
C42 O59 1.257 . S
C43 C46 1.358 . S
C43 C47 1.332 . S
C43 C49 1.504 . S
C44 C45 1.373 . S
C44 C48 1.308 . S
C45 C44 1.373 . S
C45 C46 1.429 . S
C45 H72 0.932 . S
C46 C43 1.358 . S
C46 C45 1.429 . S
C46 H73 0.930 . S
C47 C43 1.332 . S
C47 C48 1.394 . S
C47 H74 0.932 . S
C48 C44 1.308 . S
C48 C47 1.394 . S
C48 H75 0.929 . S
C49 Tb40 2.764 . S
C49 C43 1.504 . S
C49 O61 1.239 . S
C49 O62 1.263 . S
O50 Tb40 2.325 . S
O50 C60 1.236 . S
O51 Tb41 2.322 . S
O51 C60 1.257 . S
O52 Tb41 2.349 . S
O52 C63 1.261 . S
O53 Tb40 2.303 . S
O53 C63 1.257 . S
O54 Tb41 2.415 1_545 S
O54 C70 1.239 . S
O55 Tb41 2.399 1_545 S
O55 C70 1.263 . S
O56 Tb41 2.325 . S
O56 C71 1.236 . S
O57 Tb40 2.322 . S
O57 C71 1.257 . S
O58 Tb40 2.349 . S
O58 C42 1.261 . S
O59 Tb41 2.303 . S
O59 C42 1.257 . S
C60 O50 1.236 . S
C60 O51 1.257 . S
O61 Tb40 2.415 . S
O61 C49 1.239 . S
O62 Tb40 2.399 . S
O62 C49 1.263 . S
C63 O52 1.261 . S
C63 O53 1.257 . S
C64 C67 1.358 . S
C64 C68 1.332 . S
C64 C70 1.504 . S
C65 C66 1.373 . S
C65 C69 1.308 . S
C66 C65 1.373 . S
C66 C67 1.429 . S
C66 H76 0.932 . S
C67 C64 1.358 . S
C67 C66 1.429 . S
C67 H77 0.930 . S
C68 C64 1.332 . S
C68 C69 1.394 . S
C68 H78 0.932 . S
C69 C65 1.308 . S
C69 C68 1.394 . S
C69 H79 0.929 . S
C70 Tb41 2.764 1_545 S
C70 O54 1.239 . S
C70 O55 1.263 . S
C70 C64 1.504 . S
C71 O56 1.236 . S
C71 O57 1.257 . S
H72 C45 0.932 . S
H73 C46 0.930 . S
H74 C47 0.932 . S
H75 C48 0.929 . S
H76 C66 0.932 . S
H77 C67 0.930 . S
H78 C68 0.932 . S
H79 C69 0.929 . S
Tb80 C89 2.764 . S
Tb80 O90 2.325 . S
Tb80 O93 2.303 . S
Tb80 O97 2.322 . S
Tb80 O98 2.349 . S
Tb80 O101 2.415 . S
Tb80 O102 2.399 . S
Tb81 O91 2.322 . S
Tb81 O92 2.349 . S
Tb81 O94 2.415 1_565 S
Tb81 O95 2.399 1_565 S
Tb81 O96 2.325 . S
Tb81 O99 2.303 . S
Tb81 C110 2.764 1_565 S
C82 O98 1.261 . S
C82 O99 1.257 . S
C83 C86 1.358 . S
C83 C87 1.332 . S
C83 C89 1.504 . S
C84 C85 1.373 . S
C84 C88 1.308 . S
C85 C84 1.373 . S
C85 C86 1.429 . S
C85 H112 0.932 . S
C86 C83 1.358 . S
C86 C85 1.429 . S
C86 H113 0.930 . S
C87 C83 1.332 . S
C87 C88 1.394 . S
C87 H114 0.932 . S
C88 C84 1.308 . S
C88 C87 1.394 . S
C88 H115 0.929 . S
C89 Tb80 2.764 . S
C89 C83 1.504 . S
C89 O101 1.239 . S
C89 O102 1.263 . S
O90 Tb80 2.325 . S
O90 C100 1.236 . S
O91 Tb81 2.322 . S
O91 C100 1.257 . S
O92 Tb81 2.349 . S
O92 C103 1.261 . S
O93 Tb80 2.303 . S
O93 C103 1.257 . S
O94 Tb81 2.415 1_545 S
O94 C110 1.239 . S
O95 Tb81 2.399 1_545 S
O95 C110 1.263 . S
O96 Tb81 2.325 . S
O96 C111 1.236 . S
O97 Tb80 2.322 . S
O97 C111 1.257 . S
O98 Tb80 2.349 . S
O98 C82 1.261 . S
O99 Tb81 2.303 . S
O99 C82 1.257 . S
C100 O90 1.236 . S
C100 O91 1.257 . S
O101 Tb80 2.415 . S
O101 C89 1.239 . S
O102 Tb80 2.399 . S
O102 C89 1.263 . S
C103 O92 1.261 . S
C103 O93 1.257 . S
C104 C107 1.358 . S
C104 C108 1.332 . S
C104 C110 1.504 . S
C105 C106 1.373 . S
C105 C109 1.308 . S
C106 C105 1.373 . S
C106 C107 1.429 . S
C106 H116 0.932 . S
C107 C104 1.358 . S
C107 C106 1.429 . S
C107 H117 0.930 . S
C108 C104 1.332 . S
C108 C109 1.394 . S
C108 H118 0.932 . S
C109 C105 1.308 . S
C109 C108 1.394 . S
C109 H119 0.929 . S
C110 Tb81 2.764 1_545 S
C110 O94 1.239 . S
C110 O95 1.263 . S
C110 C104 1.504 . S
C111 O96 1.236 . S
C111 O97 1.257 . S
H112 C85 0.932 . S
H113 C86 0.930 . S
H114 C87 0.932 . S
H115 C88 0.929 . S
H116 C106 0.932 . S
H117 C107 0.930 . S
H118 C108 0.932 . S
H119 C109 0.929 . S
Tb120 C129 2.764 . S
Tb120 O130 2.325 . S
Tb120 O133 2.303 . S
Tb120 O137 2.322 . S
Tb120 O138 2.349 . S
Tb120 O141 2.415 . S
Tb120 O142 2.399 . S
Tb121 O131 2.322 . S
Tb121 O132 2.349 . S
Tb121 O134 2.415 1_545 S
Tb121 O135 2.399 1_545 S
Tb121 O136 2.325 . S
Tb121 O139 2.303 . S
Tb121 C150 2.764 1_545 S
C122 O138 1.261 . S
C122 O139 1.257 . S
C123 C126 1.358 . S
C123 C127 1.332 . S
C123 C129 1.504 . S
C124 C125 1.373 . S
C124 C128 1.308 . S
C125 C124 1.373 . S
C125 C126 1.429 . S
C125 H152 0.932 . S
C126 C123 1.358 . S
C126 C125 1.429 . S
C126 H153 0.930 . S
C127 C123 1.332 . S
C127 C128 1.394 . S
C127 H154 0.932 . S
C128 C124 1.308 . S
C128 C127 1.394 . S
C128 H155 0.929 . S
C129 Tb120 2.764 . S
C129 C123 1.504 . S
C129 O141 1.239 . S
C129 O142 1.263 . S
O130 Tb120 2.325 . S
O130 C140 1.236 . S
O131 Tb121 2.322 . S
O131 C140 1.257 . S
O132 Tb121 2.349 . S
O132 C143 1.261 . S
O133 Tb120 2.303 . S
O133 C143 1.257 . S
O134 Tb121 2.415 1_565 S
O134 C150 1.239 . S
O135 Tb121 2.399 1_565 S
O135 C150 1.263 . S
O136 Tb121 2.325 . S
O136 C151 1.236 . S
O137 Tb120 2.322 . S
O137 C151 1.257 . S
O138 Tb120 2.349 . S
O138 C122 1.261 . S
O139 Tb121 2.303 . S
O139 C122 1.257 . S
C140 O130 1.236 . S
C140 O131 1.257 . S
O141 Tb120 2.415 . S
O141 C129 1.239 . S
O142 Tb120 2.399 . S
O142 C129 1.263 . S
C143 O132 1.261 . S
C143 O133 1.257 . S
C144 C147 1.358 . S
C144 C148 1.332 . S
C144 C150 1.504 . S
C145 C146 1.373 . S
C145 C149 1.308 . S
C146 C145 1.373 . S
C146 C147 1.429 . S
C146 H156 0.932 . S
C147 C144 1.358 . S
C147 C146 1.429 . S
C147 H157 0.930 . S
C148 C144 1.332 . S
C148 C149 1.394 . S
C148 H158 0.932 . S
C149 C145 1.308 . S
C149 C148 1.394 . S
C149 H159 0.929 . S
C150 Tb121 2.764 1_565 S
C150 O134 1.239 . S
C150 O135 1.263 . S
C150 C144 1.504 . S
C151 O136 1.236 . S
C151 O137 1.257 . S
H152 C125 0.932 . S
H153 C126 0.930 . S
H154 C127 0.932 . S
H155 C128 0.929 . S
H156 C146 0.932 . S
H157 C147 0.930 . S
H158 C148 0.932 . S
H159 C149 0.929 . S
Tb160 C169 2.764 1_565 S
Tb160 O170 2.325 . S
Tb160 O173 2.303 . S
Tb160 O177 2.322 . S
Tb160 O178 2.349 . S
Tb160 O181 2.415 1_565 S
Tb160 O182 2.399 1_565 S
Tb161 O171 2.322 . S
Tb161 O172 2.349 . S
Tb161 O174 2.415 . S
Tb161 O175 2.399 . S
Tb161 O176 2.325 . S
Tb161 O179 2.303 . S
Tb161 C190 2.764 . S
C162 O178 1.261 . S
C162 O179 1.257 . S
C163 C166 1.358 . S
C163 C167 1.332 . S
C163 C169 1.504 . S
C164 C165 1.373 . S
C164 C168 1.308 . S
C165 C164 1.373 . S
C165 C166 1.429 . S
C165 H192 0.932 . S
C166 C163 1.358 . S
C166 C165 1.429 . S
C166 H193 0.930 . S
C167 C163 1.332 . S
C167 C168 1.394 . S
C167 H194 0.932 . S
C168 C164 1.308 . S
C168 C167 1.394 . S
C168 H195 0.929 . S
C169 Tb160 2.764 1_545 S
C169 C163 1.504 . S
C169 O181 1.239 . S
C169 O182 1.263 . S
O170 Tb160 2.325 . S
O170 C180 1.236 . S
O171 Tb161 2.322 . S
O171 C180 1.257 . S
O172 Tb161 2.349 . S
O172 C183 1.261 . S
O173 Tb160 2.303 . S
O173 C183 1.257 . S
O174 Tb161 2.415 . S
O174 C190 1.239 . S
O175 Tb161 2.399 . S
O175 C190 1.263 . S
O176 Tb161 2.325 . S
O176 C191 1.236 . S
O177 Tb160 2.322 . S
O177 C191 1.257 . S
O178 Tb160 2.349 . S
O178 C162 1.261 . S
O179 Tb161 2.303 . S
O179 C162 1.257 . S
C180 O170 1.236 . S
C180 O171 1.257 . S
O181 Tb160 2.415 1_545 S
O181 C169 1.239 . S
O182 Tb160 2.399 1_545 S
O182 C169 1.263 . S
C183 O172 1.261 . S
C183 O173 1.257 . S
C184 C187 1.358 . S
C184 C188 1.332 . S
C184 C190 1.504 . S
C185 C186 1.373 . S
C185 C189 1.308 . S
C186 C185 1.373 . S
C186 C187 1.429 . S
C186 H196 0.932 . S
C187 C184 1.358 . S
C187 C186 1.429 . S
C187 H197 0.930 . S
C188 C184 1.332 . S
C188 C189 1.394 . S
C188 H198 0.932 . S
C189 C185 1.308 . S
C189 C188 1.394 . S
C189 H199 0.929 . S
C190 Tb161 2.764 . S
C190 O174 1.239 . S
C190 O175 1.263 . S
C190 C184 1.504 . S
C191 O176 1.236 . S
C191 O177 1.257 . S
H192 C165 0.932 . S
H193 C166 0.930 . S
H194 C167 0.932 . S
H195 C168 0.929 . S
H196 C186 0.932 . S
H197 C187 0.930 . S
H198 C188 0.932 . S
H199 C189 0.929 . S
Tb200 C209 2.764 1_545 S
Tb200 O210 2.325 . S
Tb200 O213 2.303 . S
Tb200 O217 2.322 . S
Tb200 O218 2.349 . S
Tb200 O221 2.415 1_545 S
Tb200 O222 2.399 1_545 S
Tb201 O211 2.322 . S
Tb201 O212 2.349 . S
Tb201 O214 2.415 . S
Tb201 O215 2.399 . S
Tb201 O216 2.325 . S
Tb201 O219 2.303 . S
Tb201 C230 2.764 . S
C202 O218 1.261 . S
C202 O219 1.257 . S
C203 C206 1.358 . S
C203 C207 1.332 . S
C203 C209 1.504 . S
C204 C205 1.373 . S
C204 C208 1.308 . S
C205 C204 1.373 . S
C205 C206 1.429 . S
C205 H232 0.932 . S
C206 C203 1.358 . S
C206 C205 1.429 . S
C206 H233 0.930 . S
C207 C203 1.332 . S
C207 C208 1.394 . S
C207 H234 0.932 . S
C208 C204 1.308 . S
C208 C207 1.394 . S
C208 H235 0.929 . S
C209 Tb200 2.764 1_565 S
C209 C203 1.504 . S
C209 O221 1.239 . S
C209 O222 1.263 . S
O210 Tb200 2.325 . S
O210 C220 1.236 . S
O211 Tb201 2.322 . S
O211 C220 1.257 . S
O212 Tb201 2.349 . S
O212 C223 1.261 . S
O213 Tb200 2.303 . S
O213 C223 1.257 . S
O214 Tb201 2.415 . S
O214 C230 1.239 . S
O215 Tb201 2.399 . S
O215 C230 1.263 . S
O216 Tb201 2.325 . S
O216 C231 1.236 . S
O217 Tb200 2.322 . S
O217 C231 1.257 . S
O218 Tb200 2.349 . S
O218 C202 1.261 . S
O219 Tb201 2.303 . S
O219 C202 1.257 . S
C220 O210 1.236 . S
C220 O211 1.257 . S
O221 Tb200 2.415 1_565 S
O221 C209 1.239 . S
O222 Tb200 2.399 1_565 S
O222 C209 1.263 . S
C223 O212 1.261 . S
C223 O213 1.257 . S
C224 C227 1.358 . S
C224 C228 1.332 . S
C224 C230 1.504 . S
C225 C226 1.373 . S
C225 C229 1.308 . S
C226 C225 1.373 . S
C226 C227 1.429 . S
C226 H236 0.932 . S
C227 C224 1.358 . S
C227 C226 1.429 . S
C227 H237 0.930 . S
C228 C224 1.332 . S
C228 C229 1.394 . S
C228 H238 0.932 . S
C229 C225 1.308 . S
C229 C228 1.394 . S
C229 H239 0.929 . S
C230 Tb201 2.764 . S
C230 O214 1.239 . S
C230 O215 1.263 . S
C230 C224 1.504 . S
C231 O216 1.236 . S
C231 O217 1.257 . S
H232 C205 0.932 . S
H233 C206 0.930 . S
H234 C207 0.932 . S
H235 C208 0.929 . S
H236 C226 0.932 . S
H237 C227 0.930 . S
H238 C228 0.932 . S
H239 C229 0.929 . S
Tb240 C249 2.764 1_545 S
Tb240 O250 2.325 . S
Tb240 O253 2.303 . S
Tb240 O257 2.322 . S
Tb240 O258 2.349 . S
Tb240 O261 2.415 1_545 S
Tb240 O262 2.399 1_545 S
Tb241 O251 2.322 . S
Tb241 O252 2.349 . S
Tb241 O254 2.415 . S
Tb241 O255 2.399 . S
Tb241 O256 2.325 . S
Tb241 O259 2.303 . S
Tb241 C270 2.764 . S
C242 O258 1.261 . S
C242 O259 1.257 . S
C243 C246 1.358 . S
C243 C247 1.332 . S
C243 C249 1.504 . S
C244 C245 1.373 . S
C244 C248 1.308 . S
C245 C244 1.373 . S
C245 C246 1.429 . S
C245 H272 0.932 . S
C246 C243 1.358 . S
C246 C245 1.429 . S
C246 H273 0.930 . S
C247 C243 1.332 . S
C247 C248 1.394 . S
C247 H274 0.932 . S
C248 C244 1.308 . S
C248 C247 1.394 . S
C248 H275 0.929 . S
C249 Tb240 2.764 1_565 S
C249 C243 1.504 . S
C249 O261 1.239 . S
C249 O262 1.263 . S
O250 Tb240 2.325 . S
O250 C260 1.236 . S
O251 Tb241 2.322 . S
O251 C260 1.257 . S
O252 Tb241 2.349 . S
O252 C263 1.261 . S
O253 Tb240 2.303 . S
O253 C263 1.257 . S
O254 Tb241 2.415 . S
O254 C270 1.239 . S
O255 Tb241 2.399 . S
O255 C270 1.263 . S
O256 Tb241 2.325 . S
O256 C271 1.236 . S
O257 Tb240 2.322 . S
O257 C271 1.257 . S
O258 Tb240 2.349 . S
O258 C242 1.261 . S
O259 Tb241 2.303 . S
O259 C242 1.257 . S
C260 O250 1.236 . S
C260 O251 1.257 . S
O261 Tb240 2.415 1_565 S
O261 C249 1.239 . S
O262 Tb240 2.399 1_565 S
O262 C249 1.263 . S
C263 O252 1.261 . S
C263 O253 1.257 . S
C264 C267 1.358 . S
C264 C268 1.332 . S
C264 C270 1.504 . S
C265 C266 1.373 . S
C265 C269 1.308 . S
C266 C265 1.373 . S
C266 C267 1.429 . S
C266 H276 0.932 . S
C267 C264 1.358 . S
C267 C266 1.429 . S
C267 H277 0.930 . S
C268 C264 1.332 . S
C268 C269 1.394 . S
C268 H278 0.932 . S
C269 C265 1.308 . S
C269 C268 1.394 . S
C269 H279 0.929 . S
C270 Tb241 2.764 . S
C270 O254 1.239 . S
C270 O255 1.263 . S
C270 C264 1.504 . S
C271 O256 1.236 . S
C271 O257 1.257 . S
H272 C245 0.932 . S
H273 C246 0.930 . S
H274 C247 0.932 . S
H275 C248 0.929 . S
H276 C266 0.932 . S
H277 C267 0.930 . S
H278 C268 0.932 . S
H279 C269 0.929 . S
Tb280 C289 2.764 1_565 S
Tb280 O290 2.325 . S
Tb280 O293 2.303 . S
Tb280 O297 2.322 . S
Tb280 O298 2.349 . S
Tb280 O301 2.415 1_565 S
Tb280 O302 2.399 1_565 S
Tb281 O291 2.322 . S
Tb281 O292 2.349 . S
Tb281 O294 2.415 . S
Tb281 O295 2.399 . S
Tb281 O296 2.325 . S
Tb281 O299 2.303 . S
Tb281 C310 2.764 . S
C282 O298 1.261 . S
C282 O299 1.257 . S
C283 C286 1.358 . S
C283 C287 1.332 . S
C283 C289 1.504 . S
C284 C285 1.373 . S
C284 C288 1.308 . S
C285 C284 1.373 . S
C285 C286 1.429 . S
C285 H312 0.932 . S
C286 C283 1.358 . S
C286 C285 1.429 . S
C286 H313 0.930 . S
C287 C283 1.332 . S
C287 C288 1.394 . S
C287 H314 0.932 . S
C288 C284 1.308 . S
C288 C287 1.394 . S
C288 H315 0.929 . S
C289 Tb280 2.764 1_545 S
C289 C283 1.504 . S
C289 O301 1.239 . S
C289 O302 1.263 . S
O290 Tb280 2.325 . S
O290 C300 1.236 . S
O291 Tb281 2.322 . S
O291 C300 1.257 . S
O292 Tb281 2.349 . S
O292 C303 1.261 . S
O293 Tb280 2.303 . S
O293 C303 1.257 . S
O294 Tb281 2.415 . S
O294 C310 1.239 . S
O295 Tb281 2.399 . S
O295 C310 1.263 . S
O296 Tb281 2.325 . S
O296 C311 1.236 . S
O297 Tb280 2.322 . S
O297 C311 1.257 . S
O298 Tb280 2.349 . S
O298 C282 1.261 . S
O299 Tb281 2.303 . S
O299 C282 1.257 . S
C300 O290 1.236 . S
C300 O291 1.257 . S
O301 Tb280 2.415 1_545 S
O301 C289 1.239 . S
O302 Tb280 2.399 1_545 S
O302 C289 1.263 . S
C303 O292 1.261 . S
C303 O293 1.257 . S
C304 C307 1.358 . S
C304 C308 1.332 . S
C304 C310 1.504 . S
C305 C306 1.373 . S
C305 C309 1.308 . S
C306 C305 1.373 . S
C306 C307 1.429 . S
C306 H316 0.932 . S
C307 C304 1.358 . S
C307 C306 1.429 . S
C307 H317 0.930 . S
C308 C304 1.332 . S
C308 C309 1.394 . S
C308 H318 0.932 . S
C309 C305 1.308 . S
C309 C308 1.394 . S
C309 H319 0.929 . S
C310 Tb281 2.764 . S
C310 O294 1.239 . S
C310 O295 1.263 . S
C310 C304 1.504 . S
C311 O296 1.236 . S
C311 O297 1.257 . S
H312 C285 0.932 . S
H313 C286 0.930 . S
H314 C287 0.932 . S
H315 C288 0.929 . S
H316 C306 0.932 . S
H317 C307 0.930 . S
H318 C308 0.932 . S
H319 C309 0.929 . S
Tb320 C329 2.764 . S
Tb320 O330 2.325 . S
Tb320 O333 2.303 . S
Tb320 O337 2.322 . S
Tb320 O338 2.349 . S
Tb320 O341 2.415 . S
Tb320 O342 2.399 . S
Tb321 O331 2.322 . S
Tb321 O332 2.349 . S
Tb321 O334 2.415 . S
Tb321 O335 2.399 . S
Tb321 O336 2.325 . S
Tb321 O339 2.303 . S
Tb321 C350 2.764 . S
C322 O338 1.261 . S
C322 O339 1.257 . S
C323 C326 1.358 . S
C323 C327 1.332 . S
C323 C329 1.504 . S
C324 C325 1.373 . S
C324 C328 1.308 . S
C325 C324 1.373 . S
C325 C326 1.429 . S
C325 H352 0.932 . S
C326 C323 1.358 . S
C326 C325 1.429 . S
C326 H353 0.930 . S
C327 C323 1.332 . S
C327 C328 1.394 . S
C327 H354 0.932 . S
C328 C324 1.308 . S
C328 C327 1.394 . S
C328 H355 0.929 . S
C329 Tb320 2.764 . S
C329 C323 1.504 . S
C329 O341 1.239 . S
C329 O342 1.263 . S
O330 Tb320 2.325 . S
O330 C340 1.236 . S
O331 Tb321 2.322 . S
O331 C340 1.257 . S
O332 Tb321 2.349 . S
O332 C343 1.261 . S
O333 Tb320 2.303 . S
O333 C343 1.257 . S
O334 Tb321 2.415 . S
O334 C350 1.239 . S
O335 Tb321 2.399 . S
O335 C350 1.263 . S
O336 Tb321 2.325 . S
O336 C351 1.236 . S
O337 Tb320 2.322 . S
O337 C351 1.257 . S
O338 Tb320 2.349 . S
O338 C322 1.261 . S
O339 Tb321 2.303 . S
O339 C322 1.257 . S
C340 O330 1.236 . S
C340 O331 1.257 . S
O341 Tb320 2.415 . S
O341 C329 1.239 . S
O342 Tb320 2.399 . S
O342 C329 1.263 . S
C343 O332 1.261 . S
C343 O333 1.257 . S
C344 C347 1.358 . S
C344 C348 1.332 . S
C344 C350 1.504 . S
C345 C346 1.373 . S
C345 C349 1.308 . S
C346 C345 1.373 . S
C346 C347 1.429 . S
C346 H356 0.932 . S
C347 C344 1.358 . S
C347 C346 1.429 . S
C347 H357 0.930 . S
C348 C344 1.332 . S
C348 C349 1.394 . S
C348 H358 0.932 . S
C349 C345 1.308 . S
C349 C348 1.394 . S
C349 H359 0.929 . S
C350 Tb321 2.764 . S
C350 O334 1.239 . S
C350 O335 1.263 . S
C350 C344 1.504 . S
C351 O336 1.236 . S
C351 O337 1.257 . S
H352 C325 0.932 . S
H353 C326 0.930 . S
H354 C327 0.932 . S
H355 C328 0.929 . S
H356 C346 0.932 . S
H357 C347 0.930 . S
H358 C348 0.932 . S
H359 C349 0.929 . S
Tb360 C369 2.764 . S
Tb360 O370 2.325 . S
Tb360 O373 2.303 . S
Tb360 O377 2.322 . S
Tb360 O378 2.349 . S
Tb360 O381 2.415 . S
Tb360 O382 2.399 . S
Tb361 O371 2.322 . S
Tb361 O372 2.349 . S
Tb361 O374 2.415 . S
Tb361 O375 2.399 . S
Tb361 O376 2.325 . S
Tb361 O379 2.303 . S
Tb361 C390 2.764 . S
C362 O378 1.261 . S
C362 O379 1.257 . S
C363 C366 1.358 . S
C363 C367 1.332 . S
C363 C369 1.504 . S
C364 C365 1.373 . S
C364 C368 1.308 . S
C365 C364 1.373 . S
C365 C366 1.429 . S
C365 H392 0.932 . S
C366 C363 1.358 . S
C366 C365 1.429 . S
C366 H393 0.930 . S
C367 C363 1.332 . S
C367 C368 1.394 . S
C367 H394 0.932 . S
C368 C364 1.308 . S
C368 C367 1.394 . S
C368 H395 0.929 . S
C369 Tb360 2.764 . S
C369 C363 1.504 . S
C369 O381 1.239 . S
C369 O382 1.263 . S
O370 Tb360 2.325 . S
O370 C380 1.236 . S
O371 Tb361 2.322 . S
O371 C380 1.257 . S
O372 Tb361 2.349 . S
O372 C383 1.261 . S
O373 Tb360 2.303 . S
O373 C383 1.257 . S
O374 Tb361 2.415 . S
O374 C390 1.239 . S
O375 Tb361 2.399 . S
O375 C390 1.263 . S
O376 Tb361 2.325 . S
O376 C391 1.236 . S
O377 Tb360 2.322 . S
O377 C391 1.257 . S
O378 Tb360 2.349 . S
O378 C362 1.261 . S
O379 Tb361 2.303 . S
O379 C362 1.257 . S
C380 O370 1.236 . S
C380 O371 1.257 . S
O381 Tb360 2.415 . S
O381 C369 1.239 . S
O382 Tb360 2.399 . S
O382 C369 1.263 . S
C383 O372 1.261 . S
C383 O373 1.257 . S
C384 C387 1.358 . S
C384 C388 1.332 . S
C384 C390 1.504 . S
C385 C386 1.373 . S
C385 C389 1.308 . S
C386 C385 1.373 . S
C386 C387 1.429 . S
C386 H396 0.932 . S
C387 C384 1.358 . S
C387 C386 1.429 . S
C387 H397 0.930 . S
C388 C384 1.332 . S
C388 C389 1.394 . S
C388 H398 0.932 . S
C389 C385 1.308 . S
C389 C388 1.394 . S
C389 H399 0.929 . S
C390 Tb361 2.764 . S
C390 O374 1.239 . S
C390 O375 1.263 . S
C390 C384 1.504 . S
C391 O376 1.236 . S
C391 O377 1.257 . S
H392 C365 0.932 . S
H393 C366 0.930 . S
H394 C367 0.932 . S
H395 C368 0.929 . S
H396 C386 0.932 . S
H397 C387 0.930 . S
H398 C388 0.932 . S
H399 C389 0.929 . S
Tb400 C409 2.764 . S
Tb400 O410 2.325 . S
Tb400 O413 2.303 . S
Tb400 O417 2.322 . S
Tb400 O418 2.349 . S
Tb400 O421 2.415 . S
Tb400 O422 2.399 . S
Tb401 O411 2.322 . S
Tb401 O412 2.349 . S
Tb401 O414 2.415 . S
Tb401 O415 2.399 . S
Tb401 O416 2.325 . S
Tb401 O419 2.303 . S
Tb401 C430 2.764 . S
C402 O418 1.261 . S
C402 O419 1.257 . S
C403 C406 1.358 . S
C403 C407 1.332 . S
C403 C409 1.504 . S
C404 C405 1.373 . S
C404 C408 1.308 . S
C405 C404 1.373 . S
C405 C406 1.429 . S
C405 H432 0.932 . S
C406 C403 1.358 . S
C406 C405 1.429 . S
C406 H433 0.930 . S
C407 C403 1.332 . S
C407 C408 1.394 . S
C407 H434 0.932 . S
C408 C404 1.308 . S
C408 C407 1.394 . S
C408 H435 0.929 . S
C409 Tb400 2.764 . S
C409 C403 1.504 . S
C409 O421 1.239 . S
C409 O422 1.263 . S
O410 Tb400 2.325 . S
O410 C420 1.236 . S
O411 Tb401 2.322 . S
O411 C420 1.257 . S
O412 Tb401 2.349 . S
O412 C423 1.261 . S
O413 Tb400 2.303 . S
O413 C423 1.257 . S
O414 Tb401 2.415 . S
O414 C430 1.239 . S
O415 Tb401 2.399 . S
O415 C430 1.263 . S
O416 Tb401 2.325 . S
O416 C431 1.236 . S
O417 Tb400 2.322 . S
O417 C431 1.257 . S
O418 Tb400 2.349 . S
O418 C402 1.261 . S
O419 Tb401 2.303 . S
O419 C402 1.257 . S
C420 O410 1.236 . S
C420 O411 1.257 . S
O421 Tb400 2.415 . S
O421 C409 1.239 . S
O422 Tb400 2.399 . S
O422 C409 1.263 . S
C423 O412 1.261 . S
C423 O413 1.257 . S
C424 C427 1.358 . S
C424 C428 1.332 . S
C424 C430 1.504 . S
C425 C426 1.373 . S
C425 C429 1.308 . S
C426 C425 1.373 . S
C426 C427 1.429 . S
C426 H436 0.932 . S
C427 C424 1.358 . S
C427 C426 1.429 . S
C427 H437 0.930 . S
C428 C424 1.332 . S
C428 C429 1.394 . S
C428 H438 0.932 . S
C429 C425 1.308 . S
C429 C428 1.394 . S
C429 H439 0.929 . S
C430 Tb401 2.764 . S
C430 O414 1.239 . S
C430 O415 1.263 . S
C430 C424 1.504 . S
C431 O416 1.236 . S
C431 O417 1.257 . S
H432 C405 0.932 . S
H433 C406 0.930 . S
H434 C407 0.932 . S
H435 C408 0.929 . S
H436 C426 0.932 . S
H437 C427 0.930 . S
H438 C428 0.932 . S
H439 C429 0.929 . S
Tb440 C449 2.764 . S
Tb440 O450 2.325 . S
Tb440 O453 2.303 . S
Tb440 O457 2.322 . S
Tb440 O458 2.349 . S
Tb440 O461 2.415 . S
Tb440 O462 2.399 . S
Tb441 O451 2.322 . S
Tb441 O452 2.349 . S
Tb441 O454 2.415 . S
Tb441 O455 2.399 . S
Tb441 O456 2.325 . S
Tb441 O459 2.303 . S
Tb441 C470 2.764 . S
C442 O458 1.261 . S
C442 O459 1.257 . S
C443 C446 1.358 . S
C443 C447 1.332 . S
C443 C449 1.504 . S
C444 C445 1.373 . S
C444 C448 1.308 . S
C445 C444 1.373 . S
C445 C446 1.429 . S
C445 H472 0.932 . S
C446 C443 1.358 . S
C446 C445 1.429 . S
C446 H473 0.930 . S
C447 C443 1.332 . S
C447 C448 1.394 . S
C447 H474 0.932 . S
C448 C444 1.308 . S
C448 C447 1.394 . S
C448 H475 0.929 . S
C449 Tb440 2.764 . S
C449 C443 1.504 . S
C449 O461 1.239 . S
C449 O462 1.263 . S
O450 Tb440 2.325 . S
O450 C460 1.236 . S
O451 Tb441 2.322 . S
O451 C460 1.257 . S
O452 Tb441 2.349 . S
O452 C463 1.261 . S
O453 Tb440 2.303 . S
O453 C463 1.257 . S
O454 Tb441 2.415 . S
O454 C470 1.239 . S
O455 Tb441 2.399 . S
O455 C470 1.263 . S
O456 Tb441 2.325 . S
O456 C471 1.236 . S
O457 Tb440 2.322 . S
O457 C471 1.257 . S
O458 Tb440 2.349 . S
O458 C442 1.261 . S
O459 Tb441 2.303 . S
O459 C442 1.257 . S
C460 O450 1.236 . S
C460 O451 1.257 . S
O461 Tb440 2.415 . S
O461 C449 1.239 . S
O462 Tb440 2.399 . S
O462 C449 1.263 . S
C463 O452 1.261 . S
C463 O453 1.257 . S
C464 C467 1.358 . S
C464 C468 1.332 . S
C464 C470 1.504 . S
C465 C466 1.373 . S
C465 C469 1.308 . S
C466 C465 1.373 . S
C466 C467 1.429 . S
C466 H476 0.932 . S
C467 C464 1.358 . S
C467 C466 1.429 . S
C467 H477 0.930 . S
C468 C464 1.332 . S
C468 C469 1.394 . S
C468 H478 0.932 . S
C469 C465 1.308 . S
C469 C468 1.394 . S
C469 H479 0.929 . S
C470 Tb441 2.764 . S
C470 O454 1.239 . S
C470 O455 1.263 . S
C470 C464 1.504 . S
C471 O456 1.236 . S
C471 O457 1.257 . S
H472 C445 0.932 . S
H473 C446 0.930 . S
H474 C447 0.932 . S
H475 C448 0.929 . S
H476 C466 0.932 . S
H477 C467 0.930 . S
H478 C468 0.932 . S
H479 C469 0.929 . S
Tb480 C489 2.764 . S
Tb480 O490 2.325 . S
Tb480 O493 2.303 . S
Tb480 O497 2.322 . S
Tb480 O498 2.349 . S
Tb480 O501 2.415 . S
Tb480 O502 2.399 . S
Tb481 O491 2.322 . S
Tb481 O492 2.349 . S
Tb481 O494 2.415 . S
Tb481 O495 2.399 . S
Tb481 O496 2.325 . S
Tb481 O499 2.303 . S
Tb481 C510 2.764 . S
C482 O498 1.261 . S
C482 O499 1.257 . S
C483 C486 1.358 . S
C483 C487 1.332 . S
C483 C489 1.504 . S
C484 C485 1.373 . S
C484 C488 1.308 . S
C485 C484 1.373 . S
C485 C486 1.429 . S
C485 H512 0.932 . S
C486 C483 1.358 . S
C486 C485 1.429 . S
C486 H513 0.930 . S
C487 C483 1.332 . S
C487 C488 1.394 . S
C487 H514 0.932 . S
C488 C484 1.308 . S
C488 C487 1.394 . S
C488 H515 0.929 . S
C489 Tb480 2.764 . S
C489 C483 1.504 . S
C489 O501 1.239 . S
C489 O502 1.263 . S
O490 Tb480 2.325 . S
O490 C500 1.236 . S
O491 Tb481 2.322 . S
O491 C500 1.257 . S
O492 Tb481 2.349 . S
O492 C503 1.261 . S
O493 Tb480 2.303 . S
O493 C503 1.257 . S
O494 Tb481 2.415 . S
O494 C510 1.239 . S
O495 Tb481 2.399 . S
O495 C510 1.263 . S
O496 Tb481 2.325 . S
O496 C511 1.236 . S
O497 Tb480 2.322 . S
O497 C511 1.257 . S
O498 Tb480 2.349 . S
O498 C482 1.261 . S
O499 Tb481 2.303 . S
O499 C482 1.257 . S
C500 O490 1.236 . S
C500 O491 1.257 . S
O501 Tb480 2.415 . S
O501 C489 1.239 . S
O502 Tb480 2.399 . S
O502 C489 1.263 . S
C503 O492 1.261 . S
C503 O493 1.257 . S
C504 C507 1.358 . S
C504 C508 1.332 . S
C504 C510 1.504 . S
C505 C506 1.373 . S
C505 C509 1.308 . S
C506 C505 1.373 . S
C506 C507 1.429 . S
C506 H516 0.932 . S
C507 C504 1.358 . S
C507 C506 1.429 . S
C507 H517 0.930 . S
C508 C504 1.332 . S
C508 C509 1.394 . S
C508 H518 0.932 . S
C509 C505 1.308 . S
C509 C508 1.394 . S
C509 H519 0.929 . S
C510 Tb481 2.764 . S
C510 O494 1.239 . S
C510 O495 1.263 . S
C510 C504 1.504 . S
C511 O496 1.236 . S
C511 O497 1.257 . S
H512 C485 0.932 . S
H513 C486 0.930 . S
H514 C487 0.932 . S
H515 C488 0.929 . S
H516 C506 0.932 . S
H517 C507 0.930 . S
H518 C508 0.932 . S
H519 C509 0.929 . S
Tb520 C529 2.764 . S
Tb520 O530 2.325 . S
Tb520 O533 2.303 . S
Tb520 O537 2.322 . S
Tb520 O538 2.349 . S
Tb520 O541 2.415 . S
Tb520 O542 2.399 . S
Tb521 O531 2.322 . S
Tb521 O532 2.349 . S
Tb521 O534 2.415 . S
Tb521 O535 2.399 . S
Tb521 O536 2.325 . S
Tb521 O539 2.303 . S
Tb521 C550 2.764 . S
C522 O538 1.261 . S
C522 O539 1.257 . S
C523 C526 1.358 . S
C523 C527 1.332 . S
C523 C529 1.504 . S
C524 C525 1.373 . S
C524 C528 1.308 . S
C525 C524 1.373 . S
C525 C526 1.429 . S
C525 H552 0.932 . S
C526 C523 1.358 . S
C526 C525 1.429 . S
C526 H553 0.930 . S
C527 C523 1.332 . S
C527 C528 1.394 . S
C527 H554 0.932 . S
C528 C524 1.308 . S
C528 C527 1.394 . S
C528 H555 0.929 . S
C529 Tb520 2.764 . S
C529 C523 1.504 . S
C529 O541 1.239 . S
C529 O542 1.263 . S
O530 Tb520 2.325 . S
O530 C540 1.236 . S
O531 Tb521 2.322 . S
O531 C540 1.257 . S
O532 Tb521 2.349 . S
O532 C543 1.261 . S
O533 Tb520 2.303 . S
O533 C543 1.257 . S
O534 Tb521 2.415 . S
O534 C550 1.239 . S
O535 Tb521 2.399 . S
O535 C550 1.263 . S
O536 Tb521 2.325 . S
O536 C551 1.236 . S
O537 Tb520 2.322 . S
O537 C551 1.257 . S
O538 Tb520 2.349 . S
O538 C522 1.261 . S
O539 Tb521 2.303 . S
O539 C522 1.257 . S
C540 O530 1.236 . S
C540 O531 1.257 . S
O541 Tb520 2.415 . S
O541 C529 1.239 . S
O542 Tb520 2.399 . S
O542 C529 1.263 . S
C543 O532 1.261 . S
C543 O533 1.257 . S
C544 C547 1.358 . S
C544 C548 1.332 . S
C544 C550 1.504 . S
C545 C546 1.373 . S
C545 C549 1.308 . S
C546 C545 1.373 . S
C546 C547 1.429 . S
C546 H556 0.932 . S
C547 C544 1.358 . S
C547 C546 1.429 . S
C547 H557 0.930 . S
C548 C544 1.332 . S
C548 C549 1.394 . S
C548 H558 0.932 . S
C549 C545 1.308 . S
C549 C548 1.394 . S
C549 H559 0.929 . S
C550 Tb521 2.764 . S
C550 O534 1.239 . S
C550 O535 1.263 . S
C550 C544 1.504 . S
C551 O536 1.236 . S
C551 O537 1.257 . S
H552 C525 0.932 . S
H553 C526 0.930 . S
H554 C527 0.932 . S
H555 C528 0.929 . S
H556 C546 0.932 . S
H557 C547 0.930 . S
H558 C548 0.932 . S
H559 C549 0.929 . S
Tb560 C569 2.764 . S
Tb560 O570 2.325 . S
Tb560 O573 2.303 . S
Tb560 O577 2.322 . S
Tb560 O578 2.349 . S
Tb560 O581 2.415 . S
Tb560 O582 2.399 . S
Tb561 O571 2.322 . S
Tb561 O572 2.349 . S
Tb561 O574 2.415 . S
Tb561 O575 2.399 . S
Tb561 O576 2.325 . S
Tb561 O579 2.303 . S
Tb561 C590 2.764 . S
C562 O578 1.261 . S
C562 O579 1.257 . S
C563 C566 1.358 . S
C563 C567 1.332 . S
C563 C569 1.504 . S
C564 C565 1.373 . S
C564 C568 1.308 . S
C565 C564 1.373 . S
C565 C566 1.429 . S
C565 H592 0.932 . S
C566 C563 1.358 . S
C566 C565 1.429 . S
C566 H593 0.930 . S
C567 C563 1.332 . S
C567 C568 1.394 . S
C567 H594 0.932 . S
C568 C564 1.308 . S
C568 C567 1.394 . S
C568 H595 0.929 . S
C569 Tb560 2.764 . S
C569 C563 1.504 . S
C569 O581 1.239 . S
C569 O582 1.263 . S
O570 Tb560 2.325 . S
O570 C580 1.236 . S
O571 Tb561 2.322 . S
O571 C580 1.257 . S
O572 Tb561 2.349 . S
O572 C583 1.261 . S
O573 Tb560 2.303 . S
O573 C583 1.257 . S
O574 Tb561 2.415 . S
O574 C590 1.239 . S
O575 Tb561 2.399 . S
O575 C590 1.263 . S
O576 Tb561 2.325 . S
O576 C591 1.236 . S
O577 Tb560 2.322 . S
O577 C591 1.257 . S
O578 Tb560 2.349 . S
O578 C562 1.261 . S
O579 Tb561 2.303 . S
O579 C562 1.257 . S
C580 O570 1.236 . S
C580 O571 1.257 . S
O581 Tb560 2.415 . S
O581 C569 1.239 . S
O582 Tb560 2.399 . S
O582 C569 1.263 . S
C583 O572 1.261 . S
C583 O573 1.257 . S
C584 C587 1.358 . S
C584 C588 1.332 . S
C584 C590 1.504 . S
C585 C586 1.373 . S
C585 C589 1.308 . S
C586 C585 1.373 . S
C586 C587 1.429 . S
C586 H596 0.932 . S
C587 C584 1.358 . S
C587 C586 1.429 . S
C587 H597 0.930 . S
C588 C584 1.332 . S
C588 C589 1.394 . S
C588 H598 0.932 . S
C589 C585 1.308 . S
C589 C588 1.394 . S
C589 H599 0.929 . S
C590 Tb561 2.764 . S
C590 O574 1.239 . S
C590 O575 1.263 . S
C590 C584 1.504 . S
C591 O576 1.236 . S
C591 O577 1.257 . S
H592 C565 0.932 . S
H593 C566 0.930 . S
H594 C567 0.932 . S
H595 C568 0.929 . S
H596 C586 0.932 . S
H597 C587 0.930 . S
H598 C588 0.932 . S
H599 C589 0.929 . S
Tb600 C609 2.764 . S
Tb600 O610 2.325 . S
Tb600 O613 2.303 . S
Tb600 O617 2.322 . S
Tb600 O618 2.349 . S
Tb600 O621 2.415 . S
Tb600 O622 2.399 . S
Tb601 O611 2.322 . S
Tb601 O612 2.349 . S
Tb601 O614 2.415 . S
Tb601 O615 2.399 . S
Tb601 O616 2.325 . S
Tb601 O619 2.303 . S
Tb601 C630 2.764 . S
C602 O618 1.261 . S
C602 O619 1.257 . S
C603 C606 1.358 . S
C603 C607 1.332 . S
C603 C609 1.504 . S
C604 C605 1.373 . S
C604 C608 1.308 . S
C605 C604 1.373 . S
C605 C606 1.429 . S
C605 H632 0.932 . S
C606 C603 1.358 . S
C606 C605 1.429 . S
C606 H633 0.930 . S
C607 C603 1.332 . S
C607 C608 1.394 . S
C607 H634 0.932 . S
C608 C604 1.308 . S
C608 C607 1.394 . S
C608 H635 0.929 . S
C609 Tb600 2.764 . S
C609 C603 1.504 . S
C609 O621 1.239 . S
C609 O622 1.263 . S
O610 Tb600 2.325 . S
O610 C620 1.236 . S
O611 Tb601 2.322 . S
O611 C620 1.257 . S
O612 Tb601 2.349 . S
O612 C623 1.261 . S
O613 Tb600 2.303 . S
O613 C623 1.257 . S
O614 Tb601 2.415 . S
O614 C630 1.239 . S
O615 Tb601 2.399 . S
O615 C630 1.263 . S
O616 Tb601 2.325 . S
O616 C631 1.236 . S
O617 Tb600 2.322 . S
O617 C631 1.257 . S
O618 Tb600 2.349 . S
O618 C602 1.261 . S
O619 Tb601 2.303 . S
O619 C602 1.257 . S
C620 O610 1.236 . S
C620 O611 1.257 . S
O621 Tb600 2.415 . S
O621 C609 1.239 . S
O622 Tb600 2.399 . S
O622 C609 1.263 . S
C623 O612 1.261 . S
C623 O613 1.257 . S
C624 C627 1.358 . S
C624 C628 1.332 . S
C624 C630 1.504 . S
C625 C626 1.373 . S
C625 C629 1.308 . S
C626 C625 1.373 . S
C626 C627 1.429 . S
C626 H636 0.932 . S
C627 C624 1.358 . S
C627 C626 1.429 . S
C627 H637 0.930 . S
C628 C624 1.332 . S
C628 C629 1.394 . S
C628 H638 0.932 . S
C629 C625 1.308 . S
C629 C628 1.394 . S
C629 H639 0.929 . S
C630 Tb601 2.764 . S
C630 O614 1.239 . S
C630 O615 1.263 . S
C630 C624 1.504 . S
C631 O616 1.236 . S
C631 O617 1.257 . S
H632 C605 0.932 . S
H633 C606 0.930 . S
H634 C607 0.932 . S
H635 C608 0.929 . S
H636 C626 0.932 . S
H637 C627 0.930 . S
H638 C628 0.932 . S
H639 C629 0.929 . S
H640 C646 0.930 . S
H641 C650 0.930 . S
H642 C655 0.929 . S
H643 C653 0.929 . S
H644 C648 0.929 . S
H645 C654 0.929 . S
C646 H640 0.930 . S
C646 C647 1.367 . S
C646 C654 1.378 . S
C647 C646 1.367 . S
C647 C655 1.433 . S
C648 H644 0.929 . S
C648 C650 1.378 . S
C648 C652 1.350 . S
C649 C652 1.463 . S
C649 C654 1.350 . S
C649 N657 1.427 . S
C650 H641 0.930 . S
C650 C648 1.378 . S
C650 C651 1.367 . S
C651 C650 1.367 . S
C651 C653 1.433 . S
C652 C648 1.350 . S
C652 C649 1.463 . S
C652 N656 1.427 . S
C653 H643 0.929 . S
C653 C651 1.433 . S
C653 N656 1.384 . S
C654 H645 0.929 . S
C654 C646 1.378 . S
C654 C649 1.350 . S
C655 H642 0.929 . S
C655 C647 1.433 . S
C655 N657 1.384 . S
N656 C652 1.427 . S
N656 C653 1.384 . S
N657 C649 1.427 . S
N657 C655 1.384 . S
H658 C664 0.930 . S
H659 C668 0.930 . S
H660 C673 0.929 . S
H661 C671 0.929 . S
H662 C666 0.929 . S
H663 C672 0.929 . S
C664 H658 0.930 . S
C664 C665 1.367 . S
C664 C672 1.378 . S
C665 C664 1.367 . S
C665 C673 1.433 . S
C666 H662 0.929 . S
C666 C668 1.378 . S
C666 C670 1.350 . S
C667 C670 1.463 . S
C667 C672 1.350 . S
C667 N675 1.427 . S
C668 H659 0.930 . S
C668 C666 1.378 . S
C668 C669 1.367 . S
C669 C668 1.367 . S
C669 C671 1.433 . S
C670 C666 1.350 . S
C670 C667 1.463 . S
C670 N674 1.427 . S
C671 H661 0.929 . S
C671 C669 1.433 . S
C671 N674 1.384 . S
C672 H663 0.929 . S
C672 C664 1.378 . S
C672 C667 1.350 . S
C673 H660 0.929 . S
C673 C665 1.433 . S
C673 N675 1.384 . S
N674 C670 1.427 . S
N674 C671 1.384 . S
N675 C667 1.427 . S
N675 C673 1.384 . S
H676 C682 0.930 . S
H677 C686 0.930 . S
H678 C691 0.929 . S
H679 C689 0.929 . S
H680 C684 0.929 . S
H681 C690 0.929 . S
C682 H676 0.930 . S
C682 C683 1.367 . S
C682 C690 1.378 . S
C683 C682 1.367 . S
C683 C691 1.433 . S
C684 H680 0.929 . S
C684 C686 1.378 . S
C684 C688 1.350 . S
C685 C688 1.463 . S
C685 C690 1.350 . S
C685 N693 1.427 . S
C686 H677 0.930 . S
C686 C684 1.378 . S
C686 C687 1.367 . S
C687 C686 1.367 . S
C687 C689 1.433 . S
C688 C684 1.350 . S
C688 C685 1.463 . S
C688 N692 1.427 . S
C689 H679 0.929 . S
C689 C687 1.433 . S
C689 N692 1.384 . S
C690 H681 0.929 . S
C690 C682 1.378 . S
C690 C685 1.350 . S
C691 H678 0.929 . S
C691 C683 1.433 . S
C691 N693 1.384 . S
N692 C688 1.427 . S
N692 C689 1.384 . S
N693 C685 1.427 . S
N693 C691 1.384 . S
H694 C700 0.930 . S
H695 C704 0.930 . S
H696 C709 0.929 . S
H697 C707 0.929 . S
H698 C702 0.929 . S
H699 C708 0.929 . S
C700 H694 0.930 . S
C700 C701 1.367 . S
C700 C708 1.378 . S
C701 C700 1.367 . S
C701 C709 1.433 . S
C702 H698 0.929 . S
C702 C704 1.378 . S
C702 C706 1.350 . S
C703 C706 1.463 . S
C703 C708 1.350 . S
C703 N711 1.427 . S
C704 H695 0.930 . S
C704 C702 1.378 . S
C704 C705 1.367 . S
C705 C704 1.367 . S
C705 C707 1.433 . S
C706 C702 1.350 . S
C706 C703 1.463 . S
C706 N710 1.427 . S
C707 H697 0.929 . S
C707 C705 1.433 . S
C707 N710 1.384 . S
C708 H699 0.929 . S
C708 C700 1.378 . S
C708 C703 1.350 . S
C709 H696 0.929 . S
C709 C701 1.433 . S
C709 N711 1.384 . S
N710 C706 1.427 . S
N710 C707 1.384 . S
N711 C703 1.427 . S
N711 C709 1.384 . S
H712 C718 0.930 . S
H713 C722 0.930 . S
H714 C727 0.929 . S
H715 C725 0.929 . S
H716 C720 0.929 . S
H717 C726 0.929 . S
C718 H712 0.930 . S
C718 C719 1.367 . S
C718 C726 1.378 . S
C719 C718 1.367 . S
C719 C727 1.433 . S
C720 H716 0.929 . S
C720 C722 1.378 . S
C720 C724 1.350 . S
C721 C724 1.463 . S
C721 C726 1.350 . S
C721 N729 1.427 . S
C722 H713 0.930 . S
C722 C720 1.378 . S
C722 C723 1.367 . S
C723 C722 1.367 . S
C723 C725 1.433 . S
C724 C720 1.350 . S
C724 C721 1.463 . S
C724 N728 1.427 . S
C725 H715 0.929 . S
C725 C723 1.433 . S
C725 N728 1.384 . S
C726 H717 0.929 . S
C726 C718 1.378 . S
C726 C721 1.350 . S
C727 H714 0.929 . S
C727 C719 1.433 . S
C727 N729 1.384 . S
N728 C724 1.427 . S
N728 C725 1.384 . S
N729 C721 1.427 . S
N729 C727 1.384 . S
H730 C736 0.930 . S
H731 C740 0.930 . S
H732 C745 0.929 . S
H733 C743 0.929 . S
H734 C738 0.929 . S
H735 C744 0.929 . S
C736 H730 0.930 . S
C736 C737 1.367 . S
C736 C744 1.378 . S
C737 C736 1.367 . S
C737 C745 1.433 . S
C738 H734 0.929 . S
C738 C740 1.378 . S
C738 C742 1.350 . S
C739 C742 1.463 . S
C739 C744 1.350 . S
C739 N747 1.427 . S
C740 H731 0.930 . S
C740 C738 1.378 . S
C740 C741 1.367 . S
C741 C740 1.367 . S
C741 C743 1.433 . S
C742 C738 1.350 . S
C742 C739 1.463 . S
C742 N746 1.427 . S
C743 H733 0.929 . S
C743 C741 1.433 . S
C743 N746 1.384 . S
C744 H735 0.929 . S
C744 C736 1.378 . S
C744 C739 1.350 . S
C745 H732 0.929 . S
C745 C737 1.433 . S
C745 N747 1.384 . S
N746 C742 1.427 . S
N746 C743 1.384 . S
N747 C739 1.427 . S
N747 C745 1.384 . S
H748 C754 0.930 . S
H749 C758 0.930 . S
H750 C763 0.929 . S
H751 C761 0.929 . S
H752 C756 0.929 . S
H753 C762 0.929 . S
C754 H748 0.930 . S
C754 C755 1.367 . S
C754 C762 1.378 . S
C755 C754 1.367 . S
C755 C763 1.433 . S
C756 H752 0.929 . S
C756 C758 1.378 . S
C756 C760 1.350 . S
C757 C760 1.463 . S
C757 C762 1.350 . S
C757 N765 1.427 . S
C758 H749 0.930 . S
C758 C756 1.378 . S
C758 C759 1.367 . S
C759 C758 1.367 . S
C759 C761 1.433 . S
C760 C756 1.350 . S
C760 C757 1.463 . S
C760 N764 1.427 . S
C761 H751 0.929 . S
C761 C759 1.433 . S
C761 N764 1.384 . S
C762 H753 0.929 . S
C762 C754 1.378 . S
C762 C757 1.350 . S
C763 H750 0.929 . S
C763 C755 1.433 . S
C763 N765 1.384 . S
N764 C760 1.427 . S
N764 C761 1.384 . S
N765 C757 1.427 . S
N765 C763 1.384 . S
H766 C772 0.930 . S
H767 C776 0.930 . S
H768 C781 0.929 . S
H769 C779 0.929 . S
H770 C774 0.929 . S
H771 C780 0.929 . S
C772 H766 0.930 . S
C772 C773 1.367 . S
C772 C780 1.378 . S
C773 C772 1.367 . S
C773 C781 1.433 . S
C774 H770 0.929 . S
C774 C776 1.378 . S
C774 C778 1.350 . S
C775 C778 1.463 . S
C775 C780 1.350 . S
C775 N783 1.427 . S
C776 H767 0.930 . S
C776 C774 1.378 . S
C776 C777 1.367 . S
C777 C776 1.367 . S
C777 C779 1.433 . S
C778 C774 1.350 . S
C778 C775 1.463 . S
C778 N782 1.427 . S
C779 H769 0.929 . S
C779 C777 1.433 . S
C779 N782 1.384 . S
C780 H771 0.929 . S
C780 C772 1.378 . S
C780 C775 1.350 . S
C781 H768 0.929 . S
C781 C773 1.433 . S
C781 N783 1.384 . S
N782 C778 1.427 . S
N782 C779 1.384 . S
N783 C775 1.427 . S
N783 C781 1.384 . S
H784 C790 0.930 . S
H785 C794 0.930 . S
H786 C799 0.929 1_545 S
H787 C797 0.929 1_565 S
H788 C792 0.929 . S
H789 C798 0.929 . S
C790 H784 0.930 . S
C790 C791 1.367 . S
C790 C798 1.378 . S
C791 C790 1.367 . S
C791 C799 1.433 . S
C792 H788 0.929 . S
C792 C794 1.378 . S
C792 C796 1.350 . S
C793 C796 1.463 1_565 S
C793 C798 1.350 . S
C793 N801 1.427 1_565 S
C794 H785 0.930 . S
C794 C792 1.378 . S
C794 C795 1.367 . S
C795 C794 1.367 . S
C795 C797 1.433 . S
C796 C792 1.350 . S
C796 C793 1.463 1_545 S
C796 N800 1.427 1_545 S
C797 H787 0.929 1_545 S
C797 C795 1.433 . S
C797 N800 1.384 1_545 S
C798 H789 0.929 . S
C798 C790 1.378 . S
C798 C793 1.350 . S
C799 H786 0.929 1_565 S
C799 C791 1.433 . S
C799 N801 1.384 1_565 S
N800 C796 1.427 1_565 S
N800 C797 1.384 1_565 S
N801 C793 1.427 1_545 S
N801 C799 1.384 1_545 S
H802 C808 0.930 . S
H803 C812 0.930 . S
H804 C817 0.929 . S
H805 C815 0.929 . S
H806 C810 0.929 . S
H807 C816 0.929 . S
C808 H802 0.930 . S
C808 C809 1.367 . S
C808 C816 1.378 . S
C809 C808 1.367 . S
C809 C817 1.433 . S
C810 H806 0.929 . S
C810 C812 1.378 . S
C810 C814 1.350 . S
C811 C814 1.463 1_545 S
C811 C816 1.350 . S
C811 N819 1.427 1_545 S
C812 H803 0.930 . S
C812 C810 1.378 . S
C812 C813 1.367 . S
C813 C812 1.367 . S
C813 C815 1.433 . S
C814 C810 1.350 . S
C814 C811 1.463 1_565 S
C814 N818 1.427 1_565 S
C815 H805 0.929 . S
C815 C813 1.433 . S
C815 N818 1.384 1_565 S
C816 H807 0.929 . S
C816 C808 1.378 . S
C816 C811 1.350 . S
C817 H804 0.929 . S
C817 C809 1.433 . S
C817 N819 1.384 1_545 S
N818 C814 1.427 1_545 S
N818 C815 1.384 1_545 S
N819 C811 1.427 1_565 S
N819 C817 1.384 1_565 S
H820 C826 0.926 1_565 S
H821 C830 0.926 1_545 S
H822 C835 0.929 . S
H823 C833 0.929 . S
H824 C828 0.929 . S
H825 C834 0.929 . S
C826 H820 0.926 1_545 S
C826 C827 1.367 . S
C826 C834 1.378 1_545 S
C827 C826 1.367 . S
C827 C835 1.433 . S
C828 H824 0.929 . S
C828 C830 1.378 1_545 S
C828 C832 1.350 1_545 S
C829 C832 1.463 1_545 S
C829 C834 1.350 1_545 S
C829 N837 1.427 . S
C830 H821 0.926 1_565 S
C830 C828 1.378 1_565 S
C830 C831 1.367 . S
C831 C830 1.367 . S
C831 C833 1.433 . S
C832 C828 1.350 1_565 S
C832 C829 1.463 1_565 S
C832 N836 1.427 . S
C833 H823 0.929 . S
C833 C831 1.433 . S
C833 N836 1.384 . S
C834 H825 0.929 . S
C834 C826 1.378 1_565 S
C834 C829 1.350 1_565 S
C835 H822 0.929 . S
C835 C827 1.433 . S
C835 N837 1.384 . S
N836 C832 1.427 . S
N836 C833 1.384 . S
N837 C829 1.427 . S
N837 C835 1.384 . S
H838 C844 0.930 . S
H839 C848 0.930 . S
H840 C853 0.929 1_565 S
H841 C851 0.929 1_545 S
H842 C846 0.929 . S
H843 C852 0.929 . S
C844 H838 0.930 . S
C844 C845 1.367 . S
C844 C852 1.378 . S
C845 C844 1.367 . S
C845 C853 1.433 . S
C846 H842 0.929 . S
C846 C848 1.378 . S
C846 C850 1.350 . S
C847 C850 1.463 1_545 S
C847 C852 1.350 . S
C847 N855 1.427 1_545 S
C848 H839 0.930 . S
C848 C846 1.378 . S
C848 C849 1.367 . S
C849 C848 1.367 . S
C849 C851 1.433 . S
C850 C846 1.350 . S
C850 C847 1.463 1_565 S
C850 N854 1.427 1_565 S
C851 H841 0.929 1_565 S
C851 C849 1.433 . S
C851 N854 1.384 1_565 S
C852 H843 0.929 . S
C852 C844 1.378 . S
C852 C847 1.350 . S
C853 H840 0.929 1_545 S
C853 C845 1.433 . S
C853 N855 1.384 1_545 S
N854 C850 1.427 1_545 S
N854 C851 1.384 1_545 S
N855 C847 1.427 1_565 S
N855 C853 1.384 1_565 S
H856 C862 0.930 . S
H857 C866 0.930 . S
H858 C871 0.929 . S
H859 C869 0.929 . S
H860 C864 0.929 . S
H861 C870 0.929 . S
C862 H856 0.930 . S
C862 C863 1.367 . S
C862 C870 1.378 . S
C863 C862 1.367 . S
C863 C871 1.433 . S
C864 H860 0.929 . S
C864 C866 1.378 . S
C864 C868 1.350 . S
C865 C868 1.463 . S
C865 C870 1.350 . S
C865 N873 1.427 . S
C866 H857 0.930 . S
C866 C864 1.378 . S
C866 C867 1.367 . S
C867 C866 1.367 . S
C867 C869 1.433 . S
C868 C864 1.350 . S
C868 C865 1.463 . S
C868 N872 1.427 . S
C869 H859 0.929 . S
C869 C867 1.433 . S
C869 N872 1.384 . S
C870 H861 0.929 . S
C870 C862 1.378 . S
C870 C865 1.350 . S
C871 H858 0.929 . S
C871 C863 1.433 . S
C871 N873 1.384 . S
N872 C868 1.427 . S
N872 C869 1.384 . S
N873 C865 1.427 . S
N873 C871 1.384 . S
H874 C880 0.930 . S
H875 C884 0.930 . S
H876 C889 0.929 . S
H877 C887 0.929 . S
H878 C882 0.929 . S
H879 C888 0.929 . S
C880 H874 0.930 . S
C880 C881 1.367 . S
C880 C888 1.378 . S
C881 C880 1.367 . S
C881 C889 1.433 . S
C882 H878 0.929 . S
C882 C884 1.378 . S
C882 C886 1.350 . S
C883 C886 1.463 . S
C883 C888 1.350 . S
C883 N891 1.427 . S
C884 H875 0.930 . S
C884 C882 1.378 . S
C884 C885 1.367 . S
C885 C884 1.367 . S
C885 C887 1.433 . S
C886 C882 1.350 . S
C886 C883 1.463 . S
C886 N890 1.427 . S
C887 H877 0.929 . S
C887 C885 1.433 . S
C887 N890 1.384 . S
C888 H879 0.929 . S
C888 C880 1.378 . S
C888 C883 1.350 . S
C889 H876 0.929 . S
C889 C881 1.433 . S
C889 N891 1.384 . S
N890 C886 1.427 . S
N890 C887 1.384 . S
N891 C883 1.427 . S
N891 C889 1.384 . S
H892 C898 0.930 . S
H893 C902 0.930 . S
H894 C907 0.929 . S
H895 C905 0.929 . S
H896 C900 0.929 . S
H897 C906 0.929 . S
C898 H892 0.930 . S
C898 C899 1.367 . S
C898 C906 1.378 . S
C899 C898 1.367 . S
C899 C907 1.433 . S
C900 H896 0.929 . S
C900 C902 1.378 . S
C900 C904 1.350 . S
C901 C904 1.463 . S
C901 C906 1.350 . S
C901 N909 1.427 . S
C902 H893 0.930 . S
C902 C900 1.378 . S
C902 C903 1.367 . S
C903 C902 1.367 . S
C903 C905 1.433 . S
C904 C900 1.350 . S
C904 C901 1.463 . S
C904 N908 1.427 . S
C905 H895 0.929 . S
C905 C903 1.433 . S
C905 N908 1.384 . S
C906 H897 0.929 . S
C906 C898 1.378 . S
C906 C901 1.350 . S
C907 H894 0.929 . S
C907 C899 1.433 . S
C907 N909 1.384 . S
N908 C904 1.427 . S
N908 C905 1.384 . S
N909 C901 1.427 . S
N909 C907 1.384 . S
H910 C916 0.930 . S
H911 C920 0.930 . S
H912 C925 0.929 . S
H913 C923 0.929 . S
H914 C918 0.929 . S
H915 C924 0.929 . S
C916 H910 0.930 . S
C916 C917 1.367 . S
C916 C924 1.378 . S
C917 C916 1.367 . S
C917 C925 1.433 . S
C918 H914 0.929 . S
C918 C920 1.378 . S
C918 C922 1.350 . S
C919 C922 1.463 . S
C919 C924 1.350 . S
C919 N927 1.427 . S
C920 H911 0.930 . S
C920 C918 1.378 . S
C920 C921 1.367 . S
C921 C920 1.367 . S
C921 C923 1.433 . S
C922 C918 1.350 . S
C922 C919 1.463 . S
C922 N926 1.427 . S
C923 H913 0.929 . S
C923 C921 1.433 . S
C923 N926 1.384 . S
C924 H915 0.929 . S
C924 C916 1.378 . S
C924 C919 1.350 . S
C925 H912 0.929 . S
C925 C917 1.433 . S
C925 N927 1.384 . S
N926 C922 1.427 . S
N926 C923 1.384 . S
N927 C919 1.427 . S
N927 C925 1.384 . S
H928 C934 0.930 . S
H929 C938 0.930 . S
H930 C943 0.929 . S
H931 C941 0.929 . S
H932 C936 0.929 . S
H933 C942 0.929 . S
C934 H928 0.930 . S
C934 C935 1.367 . S
C934 C942 1.378 . S
C935 C934 1.367 . S
C935 C943 1.433 . S
C936 H932 0.929 . S
C936 C938 1.378 . S
C936 C940 1.350 . S
C937 C940 1.463 1_556 S
C937 C942 1.350 . S
C937 N945 1.427 . S
C938 H929 0.930 . S
C938 C936 1.378 . S
C938 C939 1.367 . S
C939 C938 1.367 . S
C939 C941 1.433 . S
C940 C936 1.350 . S
C940 C937 1.463 1_554 S
C940 N944 1.427 . S
C941 H931 0.929 . S
C941 C939 1.433 . S
C941 N944 1.384 . S
C942 H933 0.929 . S
C942 C934 1.378 . S
C942 C937 1.350 . S
C943 H930 0.929 . S
C943 C935 1.433 . S
C943 N945 1.384 . S
N944 C940 1.427 . S
N944 C941 1.384 . S
N945 C937 1.427 . S
N945 C943 1.384 . S
H946 C952 0.930 . S
H947 C956 0.930 . S
H948 C961 0.929 . S
H949 C959 0.929 . S
H950 C954 0.929 . S
H951 C960 0.929 . S
C952 H946 0.930 . S
C952 C953 1.367 . S
C952 C960 1.378 . S
C953 C952 1.367 . S
C953 C961 1.433 . S
C954 H950 0.929 . S
C954 C956 1.378 . S
C954 C958 1.350 . S
C955 C958 1.463 1_556 S
C955 C960 1.350 . S
C955 N963 1.427 . S
C956 H947 0.930 . S
C956 C954 1.378 . S
C956 C957 1.367 . S
C957 C956 1.367 . S
C957 C959 1.433 . S
C958 C954 1.350 . S
C958 C955 1.463 1_554 S
C958 N962 1.427 . S
C959 H949 0.929 . S
C959 C957 1.433 . S
C959 N962 1.384 . S
C960 H951 0.929 . S
C960 C952 1.378 . S
C960 C955 1.350 . S
C961 H948 0.929 . S
C961 C953 1.433 . S
C961 N963 1.384 . S
N962 C958 1.427 . S
N962 C959 1.384 . S
N963 C955 1.427 . S
N963 C961 1.384 . S
H964 C970 0.930 . S
H965 C974 0.930 . S
H966 C979 0.929 . S
H967 C977 0.929 . S
H968 C972 0.929 . S
H969 C978 0.929 . S
C970 H964 0.930 . S
C970 C971 1.367 . S
C970 C978 1.378 . S
C971 C970 1.367 . S
C971 C979 1.433 . S
C972 H968 0.929 . S
C972 C974 1.378 . S
C972 C976 1.350 . S
C973 C976 1.463 . S
C973 C978 1.350 . S
C973 N981 1.427 . S
C974 H965 0.930 . S
C974 C972 1.378 . S
C974 C975 1.367 . S
C975 C974 1.367 . S
C975 C977 1.433 . S
C976 C972 1.350 . S
C976 C973 1.463 . S
C976 N980 1.427 . S
C977 H967 0.929 . S
C977 C975 1.433 . S
C977 N980 1.384 . S
C978 H969 0.929 . S
C978 C970 1.378 . S
C978 C973 1.350 . S
C979 H966 0.929 . S
C979 C971 1.433 . S
C979 N981 1.384 . S
N980 C976 1.427 . S
N980 C977 1.384 . S
N981 C973 1.427 . S
N981 C979 1.384 . S
H982 C988 0.930 . S
H983 C992 0.930 . S
H984 C997 0.929 . S
H985 C995 0.929 . S
H986 C990 0.929 . S
H987 C996 0.929 . S
C988 H982 0.930 . S
C988 C989 1.367 . S
C988 C996 1.378 . S
C989 C988 1.367 . S
C989 C997 1.433 . S
C990 H986 0.929 . S
C990 C992 1.378 . S
C990 C994 1.350 . S
C991 C994 1.463 . S
C991 C996 1.350 . S
C991 N999 1.427 . S
C992 H983 0.930 . S
C992 C990 1.378 . S
C992 C993 1.367 . S
C993 C992 1.367 . S
C993 C995 1.433 . S
C994 C990 1.350 . S
C994 C991 1.463 . S
C994 N998 1.427 . S
C995 H985 0.929 . S
C995 C993 1.433 . S
C995 N998 1.384 . S
C996 H987 0.929 . S
C996 C988 1.378 . S
C996 C991 1.350 . S
C997 H984 0.929 . S
C997 C989 1.433 . S
C997 N999 1.384 . S
N998 C994 1.427 . S
N998 C995 1.384 . S
N999 C991 1.427 . S
N999 C997 1.384 . S
H1000 C1006 0.930 . S
H1001 C1010 0.930 . S
H1002 C1015 0.929 . S
H1003 C1013 0.929 . S
H1004 C1008 0.929 . S
H1005 C1014 0.929 . S
C1006 H1000 0.930 . S
C1006 C1007 1.367 . S
C1006 C1014 1.378 . S
C1007 C1006 1.367 . S
C1007 C1015 1.433 . S
C1008 H1004 0.929 . S
C1008 C1010 1.378 . S
C1008 C1012 1.350 . S
C1009 C1012 1.463 1_554 S
C1009 C1014 1.350 . S
C1009 N1017 1.427 . S
C1010 H1001 0.930 . S
C1010 C1008 1.378 . S
C1010 C1011 1.367 . S
C1011 C1010 1.367 . S
C1011 C1013 1.433 . S
C1012 C1008 1.350 . S
C1012 C1009 1.463 1_556 S
C1012 N1016 1.427 . S
C1013 H1003 0.929 . S
C1013 C1011 1.433 . S
C1013 N1016 1.384 . S
C1014 H1005 0.929 . S
C1014 C1006 1.378 . S
C1014 C1009 1.350 . S
C1015 H1002 0.929 . S
C1015 C1007 1.433 . S
C1015 N1017 1.384 . S
N1016 C1012 1.427 . S
N1016 C1013 1.384 . S
N1017 C1009 1.427 . S
N1017 C1015 1.384 . S
H1018 C1024 0.930 . S
H1019 C1028 0.930 . S
H1020 C1033 0.929 . S
H1021 C1031 0.929 . S
H1022 C1026 0.929 . S
H1023 C1032 0.929 . S
C1024 H1018 0.930 . S
C1024 C1025 1.367 . S
C1024 C1032 1.378 . S
C1025 C1024 1.367 . S
C1025 C1033 1.433 . S
C1026 H1022 0.929 . S
C1026 C1028 1.378 . S
C1026 C1030 1.350 . S
C1027 C1030 1.463 1_556 S
C1027 C1032 1.350 . S
C1027 N1035 1.427 . S
C1028 H1019 0.930 . S
C1028 C1026 1.378 . S
C1028 C1029 1.367 . S
C1029 C1028 1.367 . S
C1029 C1031 1.433 . S
C1030 C1026 1.350 . S
C1030 C1027 1.463 1_554 S
C1030 N1034 1.427 . S
C1031 H1021 0.929 . S
C1031 C1029 1.433 . S
C1031 N1034 1.384 . S
C1032 H1023 0.929 . S
C1032 C1024 1.378 . S
C1032 C1027 1.350 . S
C1033 H1020 0.929 . S
C1033 C1025 1.433 . S
C1033 N1035 1.384 . S
N1034 C1030 1.427 . S
N1034 C1031 1.384 . S
N1035 C1027 1.427 . S
N1035 C1033 1.384 . S
H1036 C1042 0.930 . S
H1037 C1046 0.930 . S
H1038 C1051 0.929 . S
H1039 C1049 0.929 . S
H1040 C1044 0.929 . S
H1041 C1050 0.929 . S
C1042 H1036 0.930 . S
C1042 C1043 1.367 . S
C1042 C1050 1.378 . S
C1043 C1042 1.367 . S
C1043 C1051 1.433 . S
C1044 H1040 0.929 . S
C1044 C1046 1.378 . S
C1044 C1048 1.350 . S
C1045 C1048 1.463 . S
C1045 C1050 1.350 . S
C1045 N1053 1.427 . S
C1046 H1037 0.930 . S
C1046 C1044 1.378 . S
C1046 C1047 1.367 . S
C1047 C1046 1.367 . S
C1047 C1049 1.433 . S
C1048 C1044 1.350 . S
C1048 C1045 1.463 . S
C1048 N1052 1.427 . S
C1049 H1039 0.929 . S
C1049 C1047 1.433 . S
C1049 N1052 1.384 . S
C1050 H1041 0.929 . S
C1050 C1042 1.378 . S
C1050 C1045 1.350 . S
C1051 H1038 0.929 . S
C1051 C1043 1.433 . S
C1051 N1053 1.384 . S
N1052 C1048 1.427 . S
N1052 C1049 1.384 . S
N1053 C1045 1.427 . S
N1053 C1051 1.384 . S
H1054 C1060 0.930 . S
H1055 C1064 0.930 . S
H1056 C1069 0.929 . S
H1057 C1067 0.929 . S
H1058 C1062 0.929 . S
H1059 C1068 0.929 . S
C1060 H1054 0.930 . S
C1060 C1061 1.367 . S
C1060 C1068 1.378 . S
C1061 C1060 1.367 . S
C1061 C1069 1.433 . S
C1062 H1058 0.929 . S
C1062 C1064 1.378 . S
C1062 C1066 1.350 . S
C1063 C1066 1.463 . S
C1063 C1068 1.350 . S
C1063 N1071 1.427 . S
C1064 H1055 0.930 . S
C1064 C1062 1.378 . S
C1064 C1065 1.367 . S
C1065 C1064 1.367 . S
C1065 C1067 1.433 . S
C1066 C1062 1.350 . S
C1066 C1063 1.463 . S
C1066 N1070 1.427 . S
C1067 H1057 0.929 . S
C1067 C1065 1.433 . S
C1067 N1070 1.384 . S
C1068 H1059 0.929 . S
C1068 C1060 1.378 . S
C1068 C1063 1.350 . S
C1069 H1056 0.929 . S
C1069 C1061 1.433 . S
C1069 N1071 1.384 . S
N1070 C1066 1.427 . S
N1070 C1067 1.384 . S
N1071 C1063 1.427 . S
N1071 C1069 1.384 . S
H1072 C1078 0.930 . S
H1073 C1082 0.930 . S
H1074 C1087 0.929 . S
H1075 C1085 0.929 . S
H1076 C1080 0.929 . S
H1077 C1086 0.929 . S
C1078 H1072 0.930 . S
C1078 C1079 1.367 . S
C1078 C1086 1.378 . S
C1079 C1078 1.367 . S
C1079 C1087 1.433 1_565 S
C1080 H1076 0.929 . S
C1080 C1082 1.378 . S
C1080 C1084 1.350 . S
C1081 C1084 1.463 1_665 S
C1081 C1086 1.350 . S
C1081 N1089 1.427 1_565 S
C1082 H1073 0.930 . S
C1082 C1080 1.378 . S
C1082 C1083 1.367 . S
C1083 C1082 1.367 . S
C1083 C1085 1.433 1_545 S
C1084 C1080 1.350 . S
C1084 C1081 1.463 1_445 S
C1084 N1088 1.427 1_545 S
C1085 H1075 0.929 . S
C1085 C1083 1.433 1_565 S
C1085 N1088 1.384 . S
C1086 H1077 0.929 . S
C1086 C1078 1.378 . S
C1086 C1081 1.350 . S
C1087 H1074 0.929 . S
C1087 C1079 1.433 1_545 S
C1087 N1089 1.384 . S
N1088 C1084 1.427 1_565 S
N1088 C1085 1.384 . S
N1089 C1081 1.427 1_545 S
N1089 C1087 1.384 . S
H1090 C1096 0.930 . S
H1091 C1100 0.930 . S
H1092 C1105 0.929 . S
H1093 C1103 0.929 . S
H1094 C1098 0.929 . S
H1095 C1104 0.929 . S
C1096 H1090 0.930 . S
C1096 C1097 1.367 1_565 S
C1096 C1104 1.378 . S
C1097 C1096 1.367 1_545 S
C1097 C1105 1.433 . S
C1098 H1094 0.929 . S
C1098 C1100 1.378 . S
C1098 C1102 1.350 1_545 S
C1099 C1102 1.463 1_645 S
C1099 C1104 1.350 1_545 S
C1099 N1107 1.427 . S
C1100 H1091 0.930 . S
C1100 C1098 1.378 . S
C1100 C1101 1.367 1_545 S
C1101 C1100 1.367 1_565 S
C1101 C1103 1.433 . S
C1102 C1098 1.350 1_565 S
C1102 C1099 1.463 1_465 S
C1102 N1106 1.427 . S
C1103 H1093 0.929 . S
C1103 C1101 1.433 . S
C1103 N1106 1.384 . S
C1104 H1095 0.929 . S
C1104 C1096 1.378 . S
C1104 C1099 1.350 1_565 S
C1105 H1092 0.929 . S
C1105 C1097 1.433 . S
C1105 N1107 1.384 . S
N1106 C1102 1.427 . S
N1106 C1103 1.384 . S
N1107 C1099 1.427 . S
N1107 C1105 1.384 . S
H1108 C1114 0.930 . S
H1109 C1118 0.930 . S
H1110 C1123 0.929 . S
H1111 C1121 0.929 . S
H1112 C1116 0.929 . S
H1113 C1122 0.929 . S
C1114 H1108 0.930 . S
C1114 C1115 1.367 1_565 S
C1114 C1122 1.378 . S
C1115 C1114 1.367 1_545 S
C1115 C1123 1.433 . S
C1116 H1112 0.929 . S
C1116 C1118 1.378 . S
C1116 C1120 1.350 1_545 S
C1117 C1120 1.463 1_445 S
C1117 C1122 1.350 1_545 S
C1117 N1125 1.427 . S
C1118 H1109 0.930 . S
C1118 C1116 1.378 . S
C1118 C1119 1.367 1_545 S
C1119 C1118 1.367 1_565 S
C1119 C1121 1.433 . S
C1120 C1116 1.350 1_565 S
C1120 C1117 1.463 1_665 S
C1120 N1124 1.427 . S
C1121 H1111 0.929 . S
C1121 C1119 1.433 . S
C1121 N1124 1.384 . S
C1122 H1113 0.929 . S
C1122 C1114 1.378 . S
C1122 C1117 1.350 1_565 S
C1123 H1110 0.929 . S
C1123 C1115 1.433 . S
C1123 N1125 1.384 . S
N1124 C1120 1.427 . S
N1124 C1121 1.384 . S
N1125 C1117 1.427 . S
N1125 C1123 1.384 . S
H1126 C1132 0.930 . S
H1127 C1136 0.930 . S
H1128 C1141 0.929 . S
H1129 C1139 0.929 . S
H1130 C1134 0.929 . S
H1131 C1140 0.929 . S
C1132 H1126 0.930 . S
C1132 C1133 1.367 1_565 S
C1132 C1140 1.378 . S
C1133 C1132 1.367 1_545 S
C1133 C1141 1.433 . S
C1134 H1130 0.929 . S
C1134 C1136 1.378 . S
C1134 C1138 1.350 1_545 S
C1135 C1138 1.463 1_645 S
C1135 C1140 1.350 1_545 S
C1135 N1143 1.427 . S
C1136 H1127 0.930 . S
C1136 C1134 1.378 . S
C1136 C1137 1.367 1_545 S
C1137 C1136 1.367 1_565 S
C1137 C1139 1.433 . S
C1138 C1134 1.350 1_565 S
C1138 C1135 1.463 1_465 S
C1138 N1142 1.427 . S
C1139 H1129 0.929 . S
C1139 C1137 1.433 . S
C1139 N1142 1.384 . S
C1140 H1131 0.929 . S
C1140 C1132 1.378 . S
C1140 C1135 1.350 1_565 S
C1141 H1128 0.929 . S
C1141 C1133 1.433 . S
C1141 N1143 1.384 . S
N1142 C1138 1.427 . S
N1142 C1139 1.384 . S
N1143 C1135 1.427 . S
N1143 C1141 1.384 . S
H1144 C1150 0.930 . S
H1145 C1154 0.930 . S
H1146 C1159 0.929 . S
H1147 C1157 0.929 . S
H1148 C1152 0.929 . S
H1149 C1158 0.929 . S
C1150 H1144 0.930 . S
C1150 C1151 1.367 . S
C1150 C1158 1.378 . S
C1151 C1150 1.367 . S
C1151 C1159 1.433 . S
C1152 H1148 0.929 . S
C1152 C1154 1.378 . S
C1152 C1156 1.350 . S
C1153 C1156 1.463 . S
C1153 C1158 1.350 . S
C1153 N1161 1.427 . S
C1154 H1145 0.930 . S
C1154 C1152 1.378 . S
C1154 C1155 1.367 . S
C1155 C1154 1.367 . S
C1155 C1157 1.433 . S
C1156 C1152 1.350 . S
C1156 C1153 1.463 . S
C1156 N1160 1.427 . S
C1157 H1147 0.929 . S
C1157 C1155 1.433 . S
C1157 N1160 1.384 . S
C1158 H1149 0.929 . S
C1158 C1150 1.378 . S
C1158 C1153 1.350 . S
C1159 H1146 0.929 . S
C1159 C1151 1.433 . S
C1159 N1161 1.384 . S
N1160 C1156 1.427 . S
N1160 C1157 1.384 . S
N1161 C1153 1.427 . S
N1161 C1159 1.384 . S
H1162 C1168 0.930 . S
H1163 C1172 0.930 . S
H1164 C1177 0.929 . S
H1165 C1175 0.929 . S
H1166 C1170 0.929 . S
H1167 C1176 0.929 . S
C1168 H1162 0.930 . S
C1168 C1169 1.367 . S
C1168 C1176 1.378 . S
C1169 C1168 1.367 . S
C1169 C1177 1.433 . S
C1170 H1166 0.929 . S
C1170 C1172 1.378 . S
C1170 C1174 1.350 . S
C1171 C1174 1.463 . S
C1171 C1176 1.350 . S
C1171 N1179 1.427 . S
C1172 H1163 0.930 . S
C1172 C1170 1.378 . S
C1172 C1173 1.367 . S
C1173 C1172 1.367 . S
C1173 C1175 1.433 . S
C1174 C1170 1.350 . S
C1174 C1171 1.463 . S
C1174 N1178 1.427 . S
C1175 H1165 0.929 . S
C1175 C1173 1.433 . S
C1175 N1178 1.384 . S
C1176 H1167 0.929 . S
C1176 C1168 1.378 . S
C1176 C1171 1.350 . S
C1177 H1164 0.929 . S
C1177 C1169 1.433 . S
C1177 N1179 1.384 . S
N1178 C1174 1.427 . S
N1178 C1175 1.384 . S
N1179 C1171 1.427 . S
N1179 C1177 1.384 . S
H1180 C1186 0.930 . S
H1181 C1190 0.930 . S
H1182 C1195 0.929 . S
H1183 C1193 0.929 . S
H1184 C1188 0.929 . S
H1185 C1194 0.929 . S
C1186 H1180 0.930 . S
C1186 C1187 1.367 . S
C1186 C1194 1.378 . S
C1187 C1186 1.367 . S
C1187 C1195 1.433 . S
C1188 H1184 0.929 . S
C1188 C1190 1.378 . S
C1188 C1192 1.350 . S
C1189 C1192 1.463 . S
C1189 C1194 1.350 . S
C1189 N1197 1.427 . S
C1190 H1181 0.930 . S
C1190 C1188 1.378 . S
C1190 C1191 1.367 . S
C1191 C1190 1.367 . S
C1191 C1193 1.433 . S
C1192 C1188 1.350 . S
C1192 C1189 1.463 . S
C1192 N1196 1.427 . S
C1193 H1183 0.929 . S
C1193 C1191 1.433 . S
C1193 N1196 1.384 . S
C1194 H1185 0.929 . S
C1194 C1186 1.378 . S
C1194 C1189 1.350 . S
C1195 H1182 0.929 . S
C1195 C1187 1.433 . S
C1195 N1197 1.384 . S
N1196 C1192 1.427 . S
N1196 C1193 1.384 . S
N1197 C1189 1.427 . S
N1197 C1195 1.384 . S
H1198 C1204 0.930 . S
H1199 C1208 0.930 . S
H1200 C1213 0.929 . S
H1201 C1211 0.929 . S
H1202 C1206 0.929 . S
H1203 C1212 0.929 . S
C1204 H1198 0.930 . S
C1204 C1205 1.367 . S
C1204 C1212 1.378 . S
C1205 C1204 1.367 . S
C1205 C1213 1.433 . S
C1206 H1202 0.929 . S
C1206 C1208 1.378 . S
C1206 C1210 1.350 . S
C1207 C1210 1.463 . S
C1207 C1212 1.350 . S
C1207 N1215 1.427 . S
C1208 H1199 0.930 . S
C1208 C1206 1.378 . S
C1208 C1209 1.367 . S
C1209 C1208 1.367 . S
C1209 C1211 1.433 . S
C1210 C1206 1.350 . S
C1210 C1207 1.463 . S
C1210 N1214 1.427 . S
C1211 H1201 0.929 . S
C1211 C1209 1.433 . S
C1211 N1214 1.384 . S
C1212 H1203 0.929 . S
C1212 C1204 1.378 . S
C1212 C1207 1.350 . S
C1213 H1200 0.929 . S
C1213 C1205 1.433 . S
C1213 N1215 1.384 . S
N1214 C1210 1.427 . S
N1214 C1211 1.384 . S
N1215 C1207 1.427 . S
N1215 C1213 1.384 . S
H1216 C1222 0.930 . S
H1217 C1226 0.930 . S
H1218 C1231 0.929 . S
H1219 C1229 0.929 . S
H1220 C1224 0.929 . S
H1221 C1230 0.929 . S
C1222 H1216 0.930 . S
C1222 C1223 1.367 . S
C1222 C1230 1.378 . S
C1223 C1222 1.367 . S
C1223 C1231 1.433 . S
C1224 H1220 0.929 . S
C1224 C1226 1.378 . S
C1224 C1228 1.350 . S
C1225 C1228 1.463 . S
C1225 C1230 1.350 . S
C1225 N1233 1.427 . S
C1226 H1217 0.930 . S
C1226 C1224 1.378 . S
C1226 C1227 1.367 . S
C1227 C1226 1.367 . S
C1227 C1229 1.433 . S
C1228 C1224 1.350 . S
C1228 C1225 1.463 . S
C1228 N1232 1.427 . S
C1229 H1219 0.929 . S
C1229 C1227 1.433 . S
C1229 N1232 1.384 . S
C1230 H1221 0.929 . S
C1230 C1222 1.378 . S
C1230 C1225 1.350 . S
C1231 H1218 0.929 . S
C1231 C1223 1.433 . S
C1231 N1233 1.384 . S
N1232 C1228 1.427 . S
N1232 C1229 1.384 . S
N1233 C1225 1.427 . S
N1233 C1231 1.384 . S
H1234 C1240 0.930 . S
H1235 C1244 0.930 . S
H1236 C1249 0.929 . S
H1237 C1247 0.929 . S
H1238 C1242 0.929 . S
H1239 C1248 0.929 . S
C1240 H1234 0.930 . S
C1240 C1241 1.367 . S
C1240 C1248 1.378 . S
C1241 C1240 1.367 . S
C1241 C1249 1.433 . S
C1242 H1238 0.929 . S
C1242 C1244 1.378 . S
C1242 C1246 1.350 . S
C1243 C1246 1.463 . S
C1243 C1248 1.350 . S
C1243 N1251 1.427 . S
C1244 H1235 0.930 . S
C1244 C1242 1.378 . S
C1244 C1245 1.367 . S
C1245 C1244 1.367 . S
C1245 C1247 1.433 . S
C1246 C1242 1.350 . S
C1246 C1243 1.463 . S
C1246 N1250 1.427 . S
C1247 H1237 0.929 . S
C1247 C1245 1.433 . S
C1247 N1250 1.384 . S
C1248 H1239 0.929 . S
C1248 C1240 1.378 . S
C1248 C1243 1.350 . S
C1249 H1236 0.929 . S
C1249 C1241 1.433 . S
C1249 N1251 1.384 . S
N1250 C1246 1.427 . S
N1250 C1247 1.384 . S
N1251 C1243 1.427 . S
N1251 C1249 1.384 . S
H1252 C1258 0.930 . S
H1253 C1262 0.930 . S
H1254 C1267 0.929 . S
H1255 C1265 0.929 . S
H1256 C1260 0.929 . S
H1257 C1266 0.929 . S
C1258 H1252 0.930 . S
C1258 C1259 1.367 . S
C1258 C1266 1.378 . S
C1259 C1258 1.367 . S
C1259 C1267 1.433 . S
C1260 H1256 0.929 . S
C1260 C1262 1.378 . S
C1260 C1264 1.350 . S
C1261 C1264 1.463 . S
C1261 C1266 1.350 . S
C1261 N1269 1.427 . S
C1262 H1253 0.930 . S
C1262 C1260 1.378 . S
C1262 C1263 1.367 . S
C1263 C1262 1.367 . S
C1263 C1265 1.433 . S
C1264 C1260 1.350 . S
C1264 C1261 1.463 . S
C1264 N1268 1.427 . S
C1265 H1255 0.929 . S
C1265 C1263 1.433 . S
C1265 N1268 1.384 . S
C1266 H1257 0.929 . S
C1266 C1258 1.378 . S
C1266 C1261 1.350 . S
C1267 H1254 0.929 . S
C1267 C1259 1.433 . S
C1267 N1269 1.384 . S
N1268 C1264 1.427 . S
N1268 C1265 1.384 . S
N1269 C1261 1.427 . S
N1269 C1267 1.384 . S
H1270 C1276 0.930 . S
H1271 C1280 0.930 . S
H1272 C1285 0.929 . S
H1273 C1283 0.929 . S
H1274 C1278 0.929 . S
H1275 C1284 0.929 . S
C1276 H1270 0.930 . S
C1276 C1277 1.367 . S
C1276 C1284 1.378 . S
C1277 C1276 1.367 . S
C1277 C1285 1.433 . S
C1278 H1274 0.929 . S
C1278 C1280 1.378 . S
C1278 C1282 1.350 . S
C1279 C1282 1.463 . S
C1279 C1284 1.350 . S
C1279 N1287 1.427 . S
C1280 H1271 0.930 . S
C1280 C1278 1.378 . S
C1280 C1281 1.367 . S
C1281 C1280 1.367 . S
C1281 C1283 1.433 . S
C1282 C1278 1.350 . S
C1282 C1279 1.463 . S
C1282 N1286 1.427 . S
C1283 H1273 0.929 . S
C1283 C1281 1.433 . S
C1283 N1286 1.384 . S
C1284 H1275 0.929 . S
C1284 C1276 1.378 . S
C1284 C1279 1.350 . S
C1285 H1272 0.929 . S
C1285 C1277 1.433 . S
C1285 N1287 1.384 . S
N1286 C1282 1.427 . S
N1286 C1283 1.384 . S
N1287 C1279 1.427 . S
N1287 C1285 1.384 . S
H1288 C1294 0.930 . S
H1289 C1298 0.930 . S
H1290 C1303 0.929 . S
H1291 C1301 0.929 . S
H1292 C1296 0.929 . S
H1293 C1302 0.929 . S
C1294 H1288 0.930 . S
C1294 C1295 1.367 . S
C1294 C1302 1.378 . S
C1295 C1294 1.367 . S
C1295 C1303 1.433 . S
C1296 H1292 0.929 . S
C1296 C1298 1.378 . S
C1296 C1300 1.350 . S
C1297 C1300 1.463 . S
C1297 C1302 1.350 . S
C1297 N1305 1.427 . S
C1298 H1289 0.930 . S
C1298 C1296 1.378 . S
C1298 C1299 1.367 . S
C1299 C1298 1.367 . S
C1299 C1301 1.433 . S
C1300 C1296 1.350 . S
C1300 C1297 1.463 . S
C1300 N1304 1.427 . S
C1301 H1291 0.929 . S
C1301 C1299 1.433 . S
C1301 N1304 1.384 . S
C1302 H1293 0.929 . S
C1302 C1294 1.378 . S
C1302 C1297 1.350 . S
C1303 H1290 0.929 . S
C1303 C1295 1.433 . S
C1303 N1305 1.384 . S
N1304 C1300 1.427 . S
N1304 C1301 1.384 . S
N1305 C1297 1.427 . S
N1305 C1303 1.384 . S
H1306 C1312 0.930 . S
H1307 C1316 0.930 . S
H1308 C1321 0.929 . S
H1309 C1319 0.929 . S
H1310 C1314 0.929 . S
H1311 C1320 0.929 . S
C1312 H1306 0.930 . S
C1312 C1313 1.367 . S
C1312 C1320 1.378 . S
C1313 C1312 1.367 . S
C1313 C1321 1.433 . S
C1314 H1310 0.929 . S
C1314 C1316 1.378 . S
C1314 C1318 1.350 . S
C1315 C1318 1.463 . S
C1315 C1320 1.350 . S
C1315 N1323 1.427 . S
C1316 H1307 0.930 . S
C1316 C1314 1.378 . S
C1316 C1317 1.367 . S
C1317 C1316 1.367 . S
C1317 C1319 1.433 . S
C1318 C1314 1.350 . S
C1318 C1315 1.463 . S
C1318 N1322 1.427 . S
C1319 H1309 0.929 . S
C1319 C1317 1.433 . S
C1319 N1322 1.384 . S
C1320 H1311 0.929 . S
C1320 C1312 1.378 . S
C1320 C1315 1.350 . S
C1321 H1308 0.929 . S
C1321 C1313 1.433 . S
C1321 N1323 1.384 . S
N1322 C1318 1.427 . S
N1322 C1319 1.384 . S
N1323 C1315 1.427 . S
N1323 C1321 1.384 . S
H1324 C1330 0.930 . S
H1325 C1334 0.930 . S
H1326 C1339 0.929 . S
H1327 C1337 0.929 . S
H1328 C1332 0.929 . S
H1329 C1338 0.929 . S
C1330 H1324 0.930 . S
C1330 C1331 1.367 . S
C1330 C1338 1.378 . S
C1331 C1330 1.367 . S
C1331 C1339 1.433 . S
C1332 H1328 0.929 . S
C1332 C1334 1.378 . S
C1332 C1336 1.350 . S
C1333 C1336 1.463 . S
C1333 C1338 1.350 . S
C1333 N1341 1.427 . S
C1334 H1325 0.930 . S
C1334 C1332 1.378 . S
C1334 C1335 1.367 . S
C1335 C1334 1.367 . S
C1335 C1337 1.433 . S
C1336 C1332 1.350 . S
C1336 C1333 1.463 . S
C1336 N1340 1.427 . S
C1337 H1327 0.929 . S
C1337 C1335 1.433 . S
C1337 N1340 1.384 . S
C1338 H1329 0.929 . S
C1338 C1330 1.378 . S
C1338 C1333 1.350 . S
C1339 H1326 0.929 . S
C1339 C1331 1.433 . S
C1339 N1341 1.384 . S
N1340 C1336 1.427 . S
N1340 C1337 1.384 . S
N1341 C1333 1.427 . S
N1341 C1339 1.384 . S
H1342 C1348 0.930 . S
H1343 C1352 0.930 . S
H1344 C1357 0.929 . S
H1345 C1355 0.929 . S
H1346 C1350 0.929 . S
H1347 C1356 0.929 . S
C1348 H1342 0.930 . S
C1348 C1349 1.367 . S
C1348 C1356 1.378 . S
C1349 C1348 1.367 . S
C1349 C1357 1.433 . S
C1350 H1346 0.929 . S
C1350 C1352 1.378 . S
C1350 C1354 1.350 . S
C1351 C1354 1.463 . S
C1351 C1356 1.350 . S
C1351 N1359 1.427 . S
C1352 H1343 0.930 . S
C1352 C1350 1.378 . S
C1352 C1353 1.367 . S
C1353 C1352 1.367 . S
C1353 C1355 1.433 . S
C1354 C1350 1.350 . S
C1354 C1351 1.463 . S
C1354 N1358 1.427 . S
C1355 H1345 0.929 . S
C1355 C1353 1.433 . S
C1355 N1358 1.384 . S
C1356 H1347 0.929 . S
C1356 C1348 1.378 . S
C1356 C1351 1.350 . S
C1357 H1344 0.929 . S
C1357 C1349 1.433 . S
C1357 N1359 1.384 . S
N1358 C1354 1.427 . S
N1358 C1355 1.384 . S
N1359 C1351 1.427 . S
N1359 C1357 1.384 . S
H1360 C1366 0.941 . S
H1361 C1370 0.930 . S
H1362 C1375 0.929 . S
H1363 C1373 0.929 . S
H1364 C1368 0.929 . S
H1365 C1374 0.929 . S
C1366 H1360 0.941 . S
C1366 C1367 1.380 . S
C1366 C1374 1.354 1_565 S
C1367 C1366 1.380 . S
C1367 C1375 1.433 . S
C1368 H1364 0.929 . S
C1368 C1370 1.378 . S
C1368 C1372 1.350 . S
C1369 C1372 1.463 . S
C1369 C1374 1.350 . S
C1369 N1377 1.427 . S
C1370 H1361 0.930 . S
C1370 C1368 1.378 . S
C1370 C1371 1.367 . S
C1371 C1370 1.367 . S
C1371 C1373 1.433 . S
C1372 C1368 1.350 . S
C1372 C1369 1.463 . S
C1372 N1376 1.427 . S
C1373 H1363 0.929 . S
C1373 C1371 1.433 . S
C1373 N1376 1.384 . S
C1374 H1365 0.929 . S
C1374 C1366 1.354 1_545 S
C1374 C1369 1.350 . S
C1375 H1362 0.929 . S
C1375 C1367 1.433 . S
C1375 N1377 1.384 1_565 S
N1376 C1372 1.427 . S
N1376 C1373 1.384 . S
N1377 C1369 1.427 . S
N1377 C1375 1.384 1_545 S
H1378 C1384 0.930 . S
H1379 C1388 0.930 . S
H1380 C1393 0.929 . S
H1381 C1391 0.929 . S
H1382 C1386 0.929 . S
H1383 C1392 0.929 . S
C1384 H1378 0.930 . S
C1384 C1385 1.367 . S
C1384 C1392 1.378 . S
C1385 C1384 1.367 . S
C1385 C1393 1.433 . S
C1386 H1382 0.929 . S
C1386 C1388 1.378 1_565 S
C1386 C1390 1.350 . S
C1387 C1390 1.463 . S
C1387 C1392 1.350 . S
C1387 N1395 1.427 . S
C1388 H1379 0.930 . S
C1388 C1386 1.378 1_545 S
C1388 C1389 1.367 . S
C1389 C1388 1.367 . S
C1389 C1391 1.433 . S
C1390 C1386 1.350 . S
C1390 C1387 1.463 . S
C1390 N1394 1.427 . S
C1391 H1381 0.929 . S
C1391 C1389 1.433 . S
C1391 N1394 1.384 1_545 S
C1392 H1383 0.929 . S
C1392 C1384 1.378 . S
C1392 C1387 1.350 . S
C1393 H1380 0.929 . S
C1393 C1385 1.433 . S
C1393 N1395 1.384 . S
N1394 C1390 1.427 . S
N1394 C1391 1.384 1_565 S
N1395 C1387 1.427 . S
N1395 C1393 1.384 . S
H1396 C1402 0.930 . S
H1397 C1406 0.930 . S
H1398 C1411 0.929 . S
H1399 C1409 0.929 . S
H1400 C1404 0.929 . S
H1401 C1410 0.929 . S
C1402 H1396 0.930 . S
C1402 C1403 1.367 . S
C1402 C1410 1.378 1_545 S
C1403 C1402 1.367 . S
C1403 C1411 1.433 . S
C1404 H1400 0.929 . S
C1404 C1406 1.378 . S
C1404 C1408 1.350 . S
C1405 C1408 1.463 . S
C1405 C1410 1.350 . S
C1405 N1413 1.427 . S
C1406 H1397 0.930 . S
C1406 C1404 1.378 . S
C1406 C1407 1.367 . S
C1407 C1406 1.367 . S
C1407 C1409 1.433 . S
C1408 C1404 1.350 . S
C1408 C1405 1.463 . S
C1408 N1412 1.427 . S
C1409 H1399 0.929 . S
C1409 C1407 1.433 . S
C1409 N1412 1.384 . S
C1410 H1401 0.929 . S
C1410 C1402 1.378 1_565 S
C1410 C1405 1.350 . S
C1411 H1398 0.929 . S
C1411 C1403 1.433 . S
C1411 N1413 1.384 1_545 S
N1412 C1408 1.427 . S
N1412 C1409 1.384 . S
N1413 C1405 1.427 . S
N1413 C1411 1.384 1_565 S
H1414 C1420 0.930 . S
H1415 C1424 0.930 . S
H1416 C1429 0.929 . S
H1417 C1427 0.929 . S
H1418 C1422 0.929 . S
H1419 C1428 0.929 . S
C1420 H1414 0.930 . S
C1420 C1421 1.367 . S
C1420 C1428 1.378 1_565 S
C1421 C1420 1.367 . S
C1421 C1429 1.433 . S
C1422 H1418 0.929 . S
C1422 C1424 1.378 . S
C1422 C1426 1.350 . S
C1423 C1426 1.463 . S
C1423 C1428 1.350 . S
C1423 N1431 1.427 . S
C1424 H1415 0.930 . S
C1424 C1422 1.378 . S
C1424 C1425 1.367 . S
C1425 C1424 1.367 . S
C1425 C1427 1.433 . S
C1426 C1422 1.350 . S
C1426 C1423 1.463 . S
C1426 N1430 1.427 . S
C1427 H1417 0.929 . S
C1427 C1425 1.433 . S
C1427 N1430 1.384 . S
C1428 H1419 0.929 . S
C1428 C1420 1.378 1_545 S
C1428 C1423 1.350 . S
C1429 H1416 0.929 . S
C1429 C1421 1.433 . S
C1429 N1431 1.384 1_565 S
N1430 C1426 1.427 . S
N1430 C1427 1.384 . S
N1431 C1423 1.427 . S
N1431 C1429 1.384 1_545 S
H1432 C1438 0.930 . S
H1433 C1442 0.930 . S
H1434 C1447 0.929 . S
H1435 C1445 0.929 . S
H1436 C1440 0.929 . S
H1437 C1446 0.929 . S
C1438 H1432 0.930 . S
C1438 C1439 1.367 . S
C1438 C1446 1.378 . S
C1439 C1438 1.367 . S
C1439 C1447 1.433 . S
C1440 H1436 0.929 . S
C1440 C1442 1.378 1_565 S
C1440 C1444 1.350 . S
C1441 C1444 1.463 . S
C1441 C1446 1.350 . S
C1441 N1449 1.427 . S
C1442 H1433 0.930 . S
C1442 C1440 1.378 1_545 S
C1442 C1443 1.367 . S
C1443 C1442 1.367 . S
C1443 C1445 1.433 . S
C1444 C1440 1.350 . S
C1444 C1441 1.463 . S
C1444 N1448 1.427 . S
C1445 H1435 0.929 . S
C1445 C1443 1.433 . S
C1445 N1448 1.384 1_545 S
C1446 H1437 0.929 . S
C1446 C1438 1.378 . S
C1446 C1441 1.350 . S
C1447 H1434 0.929 . S
C1447 C1439 1.433 . S
C1447 N1449 1.384 . S
N1448 C1444 1.427 . S
N1448 C1445 1.384 1_565 S
N1449 C1441 1.427 . S
N1449 C1447 1.384 . S
H1450 C1456 0.930 . S
H1451 C1460 0.930 . S
H1452 C1465 0.929 . S
H1453 C1463 0.929 . S
H1454 C1458 0.929 . S
H1455 C1464 0.929 . S
C1456 H1450 0.930 . S
C1456 C1457 1.367 . S
C1456 C1464 1.378 . S
C1457 C1456 1.367 . S
C1457 C1465 1.433 . S
C1458 H1454 0.929 . S
C1458 C1460 1.378 1_545 S
C1458 C1462 1.350 . S
C1459 C1462 1.463 . S
C1459 C1464 1.350 . S
C1459 N1467 1.427 . S
C1460 H1451 0.930 . S
C1460 C1458 1.378 1_565 S
C1460 C1461 1.367 . S
C1461 C1460 1.367 . S
C1461 C1463 1.433 . S
C1462 C1458 1.350 . S
C1462 C1459 1.463 . S
C1462 N1466 1.427 . S
C1463 H1453 0.929 . S
C1463 C1461 1.433 . S
C1463 N1466 1.384 1_565 S
C1464 H1455 0.929 . S
C1464 C1456 1.378 . S
C1464 C1459 1.350 . S
C1465 H1452 0.929 . S
C1465 C1457 1.433 . S
C1465 N1467 1.384 . S
N1466 C1462 1.427 . S
N1466 C1463 1.384 1_545 S
N1467 C1459 1.427 . S
N1467 C1465 1.384 . S
H1468 C1474 0.930 . S
H1469 C1478 0.930 . S
H1470 C1483 0.929 . S
H1471 C1481 0.929 . S
H1472 C1476 0.929 . S
H1473 C1482 0.929 . S
C1474 H1468 0.930 . S
C1474 C1475 1.367 . S
C1474 C1482 1.378 1_565 S
C1475 C1474 1.367 . S
C1475 C1483 1.433 . S
C1476 H1472 0.929 . S
C1476 C1478 1.378 . S
C1476 C1480 1.350 . S
C1477 C1480 1.463 . S
C1477 C1482 1.350 . S
C1477 N1485 1.427 . S
C1478 H1469 0.930 . S
C1478 C1476 1.378 . S
C1478 C1479 1.367 . S
C1479 C1478 1.367 . S
C1479 C1481 1.433 . S
C1480 C1476 1.350 . S
C1480 C1477 1.463 . S
C1480 N1484 1.427 . S
C1481 H1471 0.929 . S
C1481 C1479 1.433 . S
C1481 N1484 1.384 . S
C1482 H1473 0.929 . S
C1482 C1474 1.378 1_545 S
C1482 C1477 1.350 . S
C1483 H1470 0.929 . S
C1483 C1475 1.433 . S
C1483 N1485 1.384 1_565 S
N1484 C1480 1.427 . S
N1484 C1481 1.384 . S
N1485 C1477 1.427 . S
N1485 C1483 1.384 1_545 S
H1486 C1492 0.930 . S
H1487 C1496 0.930 . S
H1488 C1501 0.929 . S
H1489 C1499 0.929 . S
H1490 C1494 0.929 . S
H1491 C1500 0.929 . S
C1492 H1486 0.930 . S
C1492 C1493 1.367 . S
C1492 C1500 1.378 . S
C1493 C1492 1.367 . S
C1493 C1501 1.433 . S
C1494 H1490 0.929 . S
C1494 C1496 1.378 1_565 S
C1494 C1498 1.350 . S
C1495 C1498 1.463 . S
C1495 C1500 1.350 . S
C1495 N1503 1.427 . S
C1496 H1487 0.930 . S
C1496 C1494 1.378 1_545 S
C1496 C1497 1.367 . S
C1497 C1496 1.367 . S
C1497 C1499 1.433 . S
C1498 C1494 1.350 . S
C1498 C1495 1.463 . S
C1498 N1502 1.427 . S
C1499 H1489 0.929 . S
C1499 C1497 1.433 . S
C1499 N1502 1.384 1_545 S
C1500 H1491 0.929 . S
C1500 C1492 1.378 . S
C1500 C1495 1.350 . S
C1501 H1488 0.929 . S
C1501 C1493 1.433 . S
C1501 N1503 1.384 . S
N1502 C1498 1.427 . S
N1502 C1499 1.384 1_565 S
N1503 C1495 1.427 . S
N1503 C1501 1.384 . S
C647 C20 1.546 . S
C651 C380 1.549 . S
C665 C60 1.551 . S
C669 C340 1.548 . S
C683 C460 1.550 . S
C687 C100 1.546 . S
C701 C140 1.549 . S
C705 C420 1.546 . S
C719 C551 1.548 . S
C723 C191 1.551 . S
C737 C511 1.550 . S
C741 C231 1.549 . S
C755 C631 1.546 . S
C759 C271 1.548 . S
C773 C311 1.546 . S
C777 C591 1.550 . S
C791 C82 1.679 . S
C795 C2 1.679 . S
C809 C122 1.679 . S
C813 C42 1.680 . S
C827 C263 1.681 . S
C831 C183 1.682 . S
C845 C223 1.679 . S
C849 C303 1.680 . S
C863 C402 1.679 . S
C867 C322 1.680 . S
C881 C442 1.680 . S
C885 C362 1.679 . S
C899 C503 1.680 . S
C903 C583 1.679 . S
C917 C543 1.681 . S
C921 C623 1.682 . S
C935 C202 1.562 . S
C939 C23 1.549 . S
C953 C162 1.562 . S
C957 C63 1.548 . S
C971 C103 1.560 . S
C975 C282 1.550 . S
C989 C242 1.547 . S
C993 C143 1.563 . S
C1007 C343 1.558 . S
C1011 C522 1.552 . S
C1025 C482 1.563 . S
C1029 C383 1.547 . S
C1043 C423 1.561 . S
C1047 C602 1.550 . S
C1061 C562 1.563 . S
C1065 C463 1.548 . S
C1079 C71 1.561 . S
C1083 C31 1.563 . S
C1097 C151 1.568 . S
C1101 C111 1.569 . S
C1115 C220 1.566 . S
C1119 C180 1.569 . S
C1133 C260 1.569 . S
C1137 C300 1.568 . S
C1151 C391 1.568 . S
C1155 C351 1.569 . S
C1169 C471 1.566 . S
C1173 C431 1.562 . S
C1187 C500 1.568 . S
C1191 C540 1.565 . S
C1205 C580 1.569 . S
C1209 C620 1.568 . S
C1223 C25 1.448 . S
C1227 C4 1.448 . S
C1241 C65 1.447 . S
C1245 C44 1.447 . S
C1259 C105 1.449 . S
C1263 C84 1.449 . S
C1277 C124 1.449 . S
C1281 C145 1.449 . S
C1295 C164 1.449 . S
C1299 C185 1.449 . S
C1313 C225 1.448 . S
C1317 C204 1.448 . S
C1331 C244 1.447 . S
C1335 C265 1.447 . S
C1349 C284 1.447 . S
C1353 C305 1.447 . S
C1367 C324 1.449 . S
C1371 C345 1.449 . S
C1385 C385 1.447 . S
C1389 C364 1.447 . S
C1403 C404 1.449 . S
C1407 C425 1.449 . S
C1421 C444 1.447 . S
C1425 C465 1.447 . S
C1439 C484 1.449 . S
C1443 C505 1.449 . S
C1457 C524 1.447 . S
C1461 C545 1.447 . S
C1475 C585 1.449 . S
C1479 C564 1.449 . S
C1493 C604 1.447 . S
C1497 C625 1.447 . S
