# Generated by pormake.
# Topology uol, (4)-cn, num edge types: 1
# Building blocks:
#     Node 0, Type 0, BuildingBlock: MUDLON_clean_sbu_0, # of connection points: 4
#     Node 1, Type 0, BuildingBlock: MUDLON_clean_sbu_0, # of connection points: 4
#     Node 2, Type 0, BuildingBlock: MUDLON_clean_sbu_0, # of connection points: 4
#     Node 3, Type 0, BuildingBlock: MUDLON_clean_sbu_0, # of connection points: 4
#     Node 4, Type 0, BuildingBlock: MUDLON_clean_sbu_0, # of connection points: 4
#     Node 5, Type 0, BuildingBlock: MUDLON_clean_sbu_0, # of connection points: 4
#     Node 6, Type 0, BuildingBlock: MUDLON_clean_sbu_0, # of connection points: 4
#     Node 7, Type 0, BuildingBlock: MUDLON_clean_sbu_0, # of connection points: 4
#     Node 8, Type 0, BuildingBlock: MUDLON_clean_sbu_0, # of connection points: 4
#     Node 9, Type 0, BuildingBlock: MUDLON_clean_sbu_0, # of connection points: 4
#     Node 10, Type 0, BuildingBlock: MUDLON_clean_sbu_0, # of connection points: 4
#     Node 11, Type 0, BuildingBlock: MUDLON_clean_sbu_0, # of connection points: 4
#     Edge 12, Type (0, 0), BuildingBlock: KIFKEQ_clean_linker_1, # of connection points: 2
#     Edge 13, Type (0, 0), BuildingBlock: KIFKEQ_clean_linker_1, # of connection points: 2
#     Edge 14, Type (0, 0), BuildingBlock: KIFKEQ_clean_linker_1, # of connection points: 2
#     Edge 15, Type (0, 0), BuildingBlock: KIFKEQ_clean_linker_1, # of connection points: 2
#     Edge 16, Type (0, 0), BuildingBlock: KIFKEQ_clean_linker_1, # of connection points: 2
#     Edge 17, Type (0, 0), BuildingBlock: KIFKEQ_clean_linker_1, # of connection points: 2
#     Edge 18, Type (0, 0), BuildingBlock: KIFKEQ_clean_linker_1, # of connection points: 2
#     Edge 19, Type (0, 0), BuildingBlock: KIFKEQ_clean_linker_1, # of connection points: 2
#     Edge 20, Type (0, 0), BuildingBlock: KIFKEQ_clean_linker_1, # of connection points: 2
#     Edge 21, Type (0, 0), BuildingBlock: KIFKEQ_clean_linker_1, # of connection points: 2
#     Edge 22, Type (0, 0), BuildingBlock: KIFKEQ_clean_linker_1, # of connection points: 2
#     Edge 23, Type (0, 0), BuildingBlock: KIFKEQ_clean_linker_1, # of connection points: 2
#     Edge 24, Type (0, 0), BuildingBlock: KIFKEQ_clean_linker_1, # of connection points: 2
#     Edge 25, Type (0, 0), BuildingBlock: KIFKEQ_clean_linker_1, # of connection points: 2
#     Edge 26, Type (0, 0), BuildingBlock: KIFKEQ_clean_linker_1, # of connection points: 2
#     Edge 27, Type (0, 0), BuildingBlock: KIFKEQ_clean_linker_1, # of connection points: 2
#     Edge 28, Type (0, 0), BuildingBlock: KIFKEQ_clean_linker_1, # of connection points: 2
#     Edge 29, Type (0, 0), BuildingBlock: KIFKEQ_clean_linker_1, # of connection points: 2
#     Edge 30, Type (0, 0), BuildingBlock: KIFKEQ_clean_linker_1, # of connection points: 2
#     Edge 31, Type (0, 0), BuildingBlock: KIFKEQ_clean_linker_1, # of connection points: 2
#     Edge 32, Type (0, 0), BuildingBlock: KIFKEQ_clean_linker_1, # of connection points: 2
#     Edge 33, Type (0, 0), BuildingBlock: KIFKEQ_clean_linker_1, # of connection points: 2
#     Edge 34, Type (0, 0), BuildingBlock: KIFKEQ_clean_linker_1, # of connection points: 2
#     Edge 35, Type (0, 0), BuildingBlock: KIFKEQ_clean_linker_1, # of connection points: 2
# Relax obj value: 0.129
# Max RMSD: 0.264
# Mean RMSD: 0.264
data_MOF--net-uol--node1-MUDLON_clean_sbu_0--edge1-KIFKEQ_clean_linker_1
_symmetry_space_group_name_H-M    P1
_symmetry_Int_Tables_number       1
_symmetry_cell_setting            triclinic
loop_
_symmetry_equiv_pos_as_xyz
'x, y, z'
_cell_length_a     33.784895
_cell_length_b     33.979872
_cell_length_c     71.910656
_cell_angle_alpha  90.244252
_cell_angle_beta   89.989415
_cell_angle_gamma 119.89699
loop_
_atom_site_label
_atom_site_type_symbol
_atom_site_fract_x
_atom_site_fract_y
_atom_site_fract_z
_atom_type_partial_charge
Mg0 Mg 0.1563 0.35187 0.12753 0.0
C1 C 0.08523 0.27634 0.15115 0.0
O2 O 0.11952 0.26885 0.15331 0.0
C3 C 0.20392 0.35845 0.09216 0.0
O4 O 0.23312 0.39531 0.10122 0.0
C5 C 0.1511 0.43172 0.11221 0.0
O6 O 0.1318 0.40277 0.09844 0.0
O7 O 0.16527 0.41974 0.12629 0.0
O8 O 0.08977 0.30739 0.14004 0.0
O9 O 0.20685 0.35188 0.14626 0.0
C10 C 0.22342 0.32618 0.14299 0.0
O11 O 0.21156 0.30186 0.12763 0.0
O12 O 0.1659 0.33173 0.09981 0.0
Mg13 Mg 0.82133 0.14413 0.29301 0.0
C14 C 0.91603 0.21182 0.30541 0.0
O15 O 0.92455 0.1935 0.29094 0.0
C16 C 0.72641 0.11941 0.2826 0.0
O17 O 0.72843 0.08361 0.27696 0.0
C18 C 0.85898 0.17955 0.25547 0.0
O19 O 0.84949 0.21028 0.26176 0.0
O20 O 0.84931 0.14528 0.26557 0.0
O21 O 0.87468 0.19879 0.30951 0.0
O22 O 0.79978 0.0809 0.30801 0.0
C23 C 0.82493 0.07897 0.32074 0.0
O24 O 0.86541 0.11447 0.32372 0.0
O25 O 0.76165 0.15217 0.29004 0.0
Mg26 Mg 0.68075 0.8021 0.45897 0.0
C27 C 0.70733 0.89299 0.47581 0.0
O28 O 0.73432 0.90546 0.46126 0.0
C29 C 0.59015 0.71542 0.46434 0.0
O30 O 0.60801 0.71787 0.48083 0.0
C31 C 0.68907 0.84785 0.42287 0.0
O32 O 0.64738 0.83625 0.42808 0.0
O33 O 0.71263 0.83689 0.43317 0.0
O34 O 0.67914 0.85101 0.47815 0.0
O35 O 0.71847 0.7748 0.47333 0.0
C36 C 0.75575 0.80129 0.48164 0.0
O37 O 0.77295 0.84535 0.48007 0.0
O38 O 0.61261 0.74661 0.4526 0.0
Mg39 Mg 0.88194 0.6705 0.62619 0.0
C40 C 0.94703 0.73905 0.65395 0.0
O41 O 0.91136 0.74426 0.65632 0.0
C42 C 0.86178 0.67821 0.58568 0.0
O43 O 0.84929 0.63489 0.58602 0.0
C44 C 0.88393 0.58462 0.63386 0.0
O45 O 0.8946 0.60384 0.65038 0.0
O46 O 0.87577 0.60465 0.62077 0.0
O47 O 0.94551 0.71177 0.64142 0.0
O48 O 0.82779 0.66402 0.64454 0.0
C49 C 0.80874 0.68753 0.6414 0.0
O50 O 0.81962 0.7122 0.62624 0.0
O51 O 0.87837 0.70192 0.60035 0.0
Mg52 Mg 0.22051 0.87948 0.7947 0.0
C53 C 0.13108 0.80876 0.81143 0.0
O54 O 0.11543 0.81779 0.79628 0.0
C55 C 0.31501 0.90404 0.78266 0.0
O56 O 0.31413 0.94086 0.77784 0.0
C57 C 0.17684 0.83959 0.75806 0.0
O58 O 0.19081 0.81148 0.76326 0.0
O59 O 0.1854 0.87321 0.76853 0.0
O60 O 0.17398 0.82836 0.81402 0.0
O61 O 0.24295 0.94411 0.80879 0.0
C62 C 0.27259 0.95395 0.82153 0.0
O63 O 0.28828 0.92607 0.82454 0.0
O64 O 0.27962 0.87146 0.78995 0.0
Mg65 Mg 0.35574 0.22325 0.9587 0.0
C66 C 0.31606 0.13092 0.97323 0.0
O67 O 0.28721 0.12765 0.96024 0.0
C68 C 0.43427 0.30991 0.94446 0.0
O69 O 0.4017 0.30477 0.93301 0.0
C70 C 0.36245 0.19156 0.92097 0.0
O71 O 0.40442 0.20931 0.92728 0.0
O72 O 0.33282 0.19404 0.93106 0.0
O73 O 0.35211 0.16899 0.97571 0.0
O74 O 0.31103 0.24223 0.97327 0.0
C75 C 0.3225 0.28319 0.977 0.0
O76 O 0.36074 0.31604 0.97015 0.0
O77 O 0.42498 0.28048 0.95709 0.0
Mg78 Mg 0.67992 0.87254 0.76207 0.0
C79 C 0.70067 0.80242 0.74607 0.0
O80 O 0.7257 0.81324 0.76123 0.0
C81 C 0.61095 0.89924 0.77267 0.0
O82 O 0.64905 0.93529 0.77797 0.0
C83 C 0.74648 0.88396 0.79355 0.0
O84 O 0.77736 0.91037 0.78142 0.0
O85 O 0.70446 0.86552 0.78921 0.0
O86 O 0.67616 0.82055 0.74322 0.0
O87 O 0.72368 0.93659 0.74799 0.0
C88 C 0.70401 0.94608 0.73512 0.0
O89 O 0.6603 0.91836 0.73212 0.0
O90 O 0.61297 0.86601 0.76551 0.0
Mg91 Mg 0.82155 0.6838 0.93021 0.0
C92 C 0.82109 0.73479 0.89688 0.0
O93 O 0.83347 0.70652 0.89021 0.0
C94 C 0.86139 0.67869 0.96597 0.0
O95 O 0.85516 0.64246 0.95684 0.0
C96 C 0.75031 0.5827 0.93177 0.0
O97 O 0.78646 0.57796 0.9302 0.0
O98 O 0.75536 0.62237 0.93196 0.0
O99 O 0.81313 0.734 0.91424 0.0
O100 O 0.87014 0.6728 0.91446 0.0
C101 C 0.91209 0.70238 0.91632 0.0
O102 O 0.92368 0.73445 0.92892 0.0
O103 O 0.84954 0.70483 0.95821 0.0
Mg104 Mg 0.15327 0.81269 0.09526 0.0
C105 C 0.18797 0.89334 0.07238 0.0
O106 O 0.15249 0.89074 0.08104 0.0
C107 C 0.15213 0.72952 0.11009 0.0
O108 O 0.13677 0.74123 0.12465 0.0
C109 C 0.14025 0.85032 0.13266 0.0
O110 O 0.09812 0.83468 0.12687 0.0
O111 O 0.168 0.84481 0.12255 0.0
O112 O 0.19952 0.86384 0.07596 0.0
O113 O 0.08654 0.794 0.08366 0.0
C114 C 0.05633 0.75309 0.08029 0.0
O115 O 0.06278 0.72023 0.08627 0.0
O116 O 0.1626 0.75385 0.09555 0.0
Mg117 Mg 0.35503 0.14003 0.26198 0.0
C118 C 0.33289 0.20903 0.24632 0.0
O119 O 0.30737 0.19715 0.26131 0.0
C120 C 0.42523 0.11414 0.272 0.0
O121 O 0.38747 0.07676 0.27636 0.0
C122 C 0.35147 0.1818 0.29819 0.0
O123 O 0.39134 0.21271 0.29173 0.0
O124 O 0.3279 0.14577 0.28872 0.0
O125 O 0.35832 0.19191 0.24339 0.0
O126 O 0.31095 0.07578 0.24788 0.0
C127 C 0.27539 0.07037 0.2395 0.0
O128 O 0.26434 0.10225 0.24092 0.0
O129 O 0.42238 0.14747 0.26562 0.0
Mg130 Mg 0.21513 0.33862 0.43119 0.0
C131 C 0.21678 0.27165 0.40399 0.0
O132 O 0.17355 0.2603 0.40287 0.0
C133 C 0.19153 0.32451 0.47232 0.0
O134 O 0.22654 0.36597 0.47321 0.0
C135 C 0.30496 0.42636 0.42694 0.0
O136 O 0.3062 0.40537 0.41176 0.0
O137 O 0.27037 0.40683 0.43754 0.0
O138 O 0.24239 0.30228 0.41557 0.0
O139 O 0.1634 0.33946 0.41355 0.0
C140 C 0.17205 0.35487 0.39707 0.0
O141 O 0.21434 0.37425 0.39105 0.0
O142 O 0.18047 0.30419 0.45667 0.0
Mg143 Mg 0.88423 0.21029 0.59618 0.0
C144 C 0.81673 0.11946 0.57974 0.0
O145 O 0.82656 0.1062 0.59535 0.0
C146 C 0.90354 0.30133 0.60998 0.0
O147 O 0.93698 0.29802 0.61774 0.0
C148 C 0.84842 0.17906 0.63452 0.0
O149 O 0.82911 0.20315 0.63021 0.0
O150 O 0.87562 0.17677 0.6229 0.0
O151 O 0.83456 0.16175 0.57664 0.0
O152 O 0.95057 0.23336 0.58337 0.0
C153 C 0.95863 0.20535 0.57474 0.0
O154 O 0.92801 0.16194 0.57519 0.0
O155 O 0.87503 0.26884 0.59979 0.0
H156 H 0.17786 0.69272 0.08182 0.0
H157 H 0.13351 0.67123 0.1391 0.0
H158 H 0.18081 0.62241 0.08224 0.0
H159 H 0.13575 0.6007 0.13939 0.0
H160 H 0.18537 0.49823 0.13897 0.0
H161 H 0.18879 0.57165 0.1383 0.0
H162 H 0.12761 0.54074 0.08359 0.0
H163 H 0.12485 0.46772 0.0841 0.0
C164 C 0.16882 0.67307 0.09451 0.0
C165 C 0.15539 0.6876 0.11042 0.0
C166 C 0.17026 0.63263 0.09471 0.0
C167 C 0.15844 0.60587 0.11084 0.0
C168 C 0.14562 0.62076 0.12681 0.0
C169 C 0.14406 0.6611 0.1266 0.0
C170 C 0.17286 0.50718 0.12675 0.0
C171 C 0.15471 0.47701 0.11161 0.0
C172 C 0.1746 0.54917 0.12642 0.0
C173 C 0.15835 0.56203 0.11091 0.0
C174 C 0.1409 0.53214 0.09566 0.0
C175 C 0.13906 0.49013 0.096 0.0
H176 H 0.70962 0.18787 0.29259 0.0
H177 H 0.64533 0.05333 0.26841 0.0
H178 H 0.63737 0.18784 0.29033 0.0
H179 H 0.57369 0.05363 0.26594 0.0
H180 H 0.44179 0.04751 0.28389 0.0
H181 H 0.51498 0.05039 0.2866 0.0
H182 H 0.5838 0.18893 0.26721 0.0
H183 H 0.51036 0.18632 0.26474 0.0
C184 C 0.6802 0.15841 0.28672 0.0
C185 C 0.68325 0.12053 0.28076 0.0
C186 C 0.63886 0.15849 0.28534 0.0
C187 C 0.59967 0.12062 0.27805 0.0
C188 C 0.60299 0.08304 0.2719 0.0
C189 C 0.64422 0.08301 0.27322 0.0
C190 C 0.47247 0.07868 0.28024 0.0
C191 C 0.47013 0.11664 0.27403 0.0
C192 C 0.51446 0.08022 0.28169 0.0
C193 C 0.55525 0.11979 0.277 0.0
C194 C 0.55305 0.15805 0.27107 0.0
C195 C 0.51094 0.15646 0.26956 0.0
H196 H 0.53367 0.64294 0.48602 0.0
H197 H 0.54618 0.69723 0.43073 0.0
H198 H 0.46316 0.57502 0.47685 0.0
H199 H 0.47528 0.62954 0.42166 0.0
H200 H 0.38256 0.47798 0.40688 0.0
H201 H 0.44934 0.54931 0.41602 0.0
H202 H 0.38369 0.54768 0.46778 0.0
H203 H 0.31697 0.47585 0.45877 0.0
C204 C 0.52119 0.64061 0.47196 0.0
C205 C 0.54575 0.67547 0.45909 0.0
C206 C 0.48059 0.60175 0.46673 0.0
C207 C 0.46363 0.59675 0.4485 0.0
C208 C 0.48772 0.63204 0.43574 0.0
C209 C 0.52824 0.67097 0.44098 0.0
C210 C 0.3822 0.4929 0.42017 0.0
C211 C 0.34444 0.47107 0.43211 0.0
C212 C 0.42043 0.53398 0.42537 0.0
C213 C 0.42192 0.55421 0.44265 0.0
C214 C 0.38386 0.53273 0.45447 0.0
C215 C 0.34551 0.49169 0.44925 0.0
H216 H 0.90095 0.53441 0.65877 0.0
H217 H 0.86638 0.53703 0.60111 0.0
H218 H 0.90361 0.46513 0.65299 0.0
H219 H 0.86987 0.46798 0.59525 0.0
H220 H 0.83854 0.31953 0.5963 0.0
H221 H 0.83152 0.38668 0.60217 0.0
H222 H 0.95224 0.44275 0.63674 0.0
H223 H 0.95881 0.37558 0.63117 0.0
C224 C 0.89388 0.52021 0.64485 0.0
C225 C 0.88362 0.54141 0.63039 0.0
C226 C 0.89568 0.48059 0.64151 0.0
C227 C 0.88728 0.46114 0.62362 0.0
C228 C 0.87614 0.48184 0.60922 0.0
C229 C 0.87437 0.52156 0.61257 0.0
C230 C 0.86354 0.34619 0.60516 0.0
C231 C 0.89918 0.34211 0.61329 0.0
C232 C 0.85964 0.38477 0.60845 0.0
C233 C 0.89121 0.42005 0.61998 0.0
C234 C 0.92689 0.41593 0.62804 0.0
C235 C 0.93082 0.37747 0.62473 0.0
H236 H 0.52547 0.83004 0.76346 0.0
H237 H 0.59654 0.96668 0.78558 0.0
H238 H 0.4533 0.83014 0.7654 0.0
H239 H 0.52454 0.96648 0.78772 0.0
H240 H 0.39731 0.96974 0.7694 0.0
H241 H 0.46789 0.96726 0.76678 0.0
H242 H 0.39977 0.8309 0.78859 0.0
H243 H 0.32877 0.83308 0.791 0.0
C244 C 0.5257 0.85999 0.76881 0.0
C245 C 0.56681 0.89839 0.77432 0.0
C246 C 0.48432 0.85996 0.77 0.0
C247 C 0.48321 0.8984 0.77663 0.0
C248 C 0.5243 0.93659 0.78228 0.0
C249 C 0.56556 0.93657 0.78116 0.0
C250 C 0.39724 0.93912 0.77358 0.0
C251 C 0.35739 0.90165 0.78046 0.0
C252 C 0.43782 0.93782 0.77218 0.0
C253 C 0.43954 0.89899 0.77759 0.0
C254 C 0.39949 0.86119 0.78417 0.0
C255 C 0.35886 0.86253 0.78563 0.0
H256 H 0.51126 0.32791 0.96398 0.0
H257 H 0.46276 0.38156 0.92079 0.0
H258 H 0.58782 0.39363 0.96092 0.0
H259 H 0.5392 0.44682 0.91766 0.0
H260 H 0.66833 0.58049 0.93255 0.0
H261 H 0.59242 0.51441 0.93581 0.0
H262 H 0.65159 0.42745 0.93824 0.0
H263 H 0.72775 0.49366 0.93515 0.0
C264 C 0.51691 0.35364 0.95382 0.0
C265 C 0.48086 0.34951 0.94265 0.0
C266 C 0.56083 0.39115 0.952 0.0
C267 C 0.56955 0.42546 0.93907 0.0
C268 C 0.53348 0.42126 0.92791 0.0
C269 C 0.4897 0.38369 0.92965 0.0
C270 C 0.66523 0.54731 0.93377 0.0
C271 C 0.70415 0.54239 0.93357 0.0
C272 C 0.62167 0.5094 0.93555 0.0
C273 C 0.61598 0.46568 0.93726 0.0
C274 C 0.65489 0.46074 0.93714 0.0
C275 C 0.6985 0.49866 0.93525 0.0
H276 H 0.37407 0.23351 0.21216 0.0
H277 H 0.27774 0.24635 0.24759 0.0
H278 H 0.35663 0.2705 0.18701 0.0
H279 H 0.25958 0.28217 0.2224 0.0
H280 H 0.24951 0.36666 0.17727 0.0
H281 H 0.28506 0.3471 0.20238 0.0
H282 H 0.29181 0.24797 0.16671 0.0
H283 H 0.25743 0.26826 0.14153 0.0
C284 C 0.34958 0.24467 0.21467 0.0
C285 C 0.32699 0.23659 0.23184 0.0
C286 C 0.33939 0.26563 0.20021 0.0
C287 C 0.30641 0.27897 0.20261 0.0
C288 C 0.28551 0.27282 0.22009 0.0
C289 C 0.29571 0.25194 0.23453 0.0
C290 C 0.25927 0.34122 0.1747 0.0
C291 C 0.2502 0.3187 0.15745 0.0
C292 C 0.27941 0.32983 0.18913 0.0
C293 C 0.2909 0.29565 0.18664 0.0
C294 C 0.28386 0.27477 0.16909 0.0
C295 C 0.26382 0.28621 0.15466 0.0
H296 H 1.00694 0.24306 0.30081 0.0
H297 H 0.91078 0.24991 0.33842 0.0
H298 H 0.0682 0.28541 0.32287 0.0
H299 H 0.97268 0.29367 0.36043 0.0
H300 H 0.08033 0.30403 0.40363 0.0
H301 H 1.01872 0.27739 0.38101 0.0
H302 H 0.11586 0.35614 0.3383 0.0
H303 H 0.17781 0.38177 0.36087 0.0
C304 C 0.99897 0.25431 0.31366 0.0
C305 C 0.95383 0.24266 0.31792 0.0
C306 C 0.03428 0.279 0.3263 0.0
C307 C 0.02545 0.29287 0.3435 0.0
C308 C 0.98059 0.28295 0.34742 0.0
C309 C 0.94514 0.2581 0.33476 0.0
C310 C 0.08854 0.31625 0.38948 0.0
C311 C 0.13412 0.34459 0.38402 0.0
C312 C 0.05308 0.30116 0.3765 0.0
C313 C 0.06229 0.31421 0.35776 0.0
C314 C 0.10763 0.34469 0.35254 0.0
C315 C 0.14314 0.35961 0.36551 0.0
H316 H 0.79488 0.1352 0.5449 0.0
H317 H 0.77944 0.02741 0.58119 0.0
H318 H 0.75979 0.08051 0.51956 0.0
H319 H 0.74551 0.97313 0.55582 0.0
H320 H 0.76605 0.98433 0.47509 0.0
H321 H 0.78451 0.03861 0.50029 0.0
H322 H 0.68192 0.93309 0.53469 0.0
H323 H 0.66411 0.87826 0.50951 0.0
C324 C 0.78358 0.0998 0.54754 0.0
C325 C 0.79039 0.08577 0.56503 0.0
C326 C 0.76369 0.06848 0.53298 0.0
C327 C 0.7502 0.02246 0.53558 0.0
C328 C 0.75503 1.00817 0.55334 0.0
C329 C 0.77483 0.03943 0.56788 0.0
C330 C 0.74697 0.97272 0.48794 0.0
C331 C 0.71393 0.92682 0.49034 0.0
C332 C 0.75735 1.00401 0.50237 0.0
C333 C 0.73488 0.99022 0.51958 0.0
C334 C 0.70034 0.9447 0.5217 0.0
C335 C 0.68994 0.91333 0.50723 0.0
H336 H 0.77086 0.7421 0.64042 0.0
H337 H 0.78428 0.64642 0.67549 0.0
H338 H 0.73628 0.76108 0.66596 0.0
H339 H 0.74829 0.66451 0.70099 0.0
H340 H 0.75601 0.76524 0.74669 0.0
H341 H 0.77292 0.72889 0.7212 0.0
H342 H 0.67339 0.73888 0.68683 0.0
H343 H 0.65736 0.7766 0.71227 0.0
C344 C 0.76553 0.72434 0.65347 0.0
C345 C 0.78092 0.69318 0.65597 0.0
C346 C 0.74534 0.73503 0.66812 0.0
C347 C 0.73984 0.71465 0.68563 0.0
C348 C 0.75278 0.68146 0.6878 0.0
C349 C 0.77315 0.67088 0.67314 0.0
C350 C 0.73723 0.75917 0.7338 0.0
C351 C 0.70576 0.77439 0.73146 0.0
C352 C 0.7467 0.73794 0.71918 0.0
C353 C 0.72479 0.73121 0.70187 0.0
C354 C 0.69148 0.74424 0.69986 0.0
C355 C 0.6821 0.76564 0.71449 0.0
H356 H 1.00383 0.76124 0.91658 0.0
H357 H 0.89705 0.65269 0.8843 0.0
H358 H 0.05718 0.77741 0.89121 0.0
H359 H 0.95094 0.66835 0.85895 0.0
H360 H 0.03792 0.7658 0.81095 0.0
H361 H 0.98621 0.73055 0.83694 0.0
H362 H 0.09998 0.75342 0.87178 0.0
H363 H 0.15203 0.78966 0.84582 0.0
C364 C 0.99198 0.74011 0.90423 0.0
C365 C 0.94603 0.70608 0.90238 0.0
C366 C 0.02272 0.7492 0.88969 0.0
C367 C 1.00824 0.72446 0.87295 0.0
C368 C 0.96297 0.68849 0.87155 0.0
C369 C 0.93218 0.67932 0.88614 0.0
C370 C 0.0519 0.76272 0.82406 0.0
C371 C 0.0992 0.78116 0.82637 0.0
C372 C 0.02214 0.74215 0.83895 0.0
C373 C 0.03898 0.73947 0.85651 0.0
C374 C 0.08601 0.75557 0.85852 0.0
C375 C 0.11581 0.77616 0.84361 0.0
H376 H 0.27091 0.92012 0.05571 0.0
H377 H 0.15701 0.94459 0.05601 0.0
H378 H 0.30674 0.97627 0.03074 0.0
H379 H 0.19229 0.99952 0.03117 0.0
H380 H 0.23782 0.04909 0.97288 0.0
H381 H 0.21078 0.9904 0.99652 0.0
H382 H 0.33724 0.06669 1.02675 0.0
H383 H 0.36465 0.12632 1.00305 0.0
C384 C 0.25362 0.93743 0.05048 0.0
C385 C 0.21112 0.9279 0.05779 0.0
C386 C 0.27414 0.96953 0.03628 0.0
C387 C 0.25197 0.99175 0.02899 0.0
C388 C 0.2098 0.98242 0.03642 0.0
C389 C 0.18976 0.95112 0.05073 0.0
C390 C 0.26028 0.0533 0.9844 0.0
C391 C 0.30317 0.09274 0.98622 0.0
C392 C 0.24469 0.01965 0.99794 0.0
C393 C 0.27176 0.02438 1.0135 0.0
C394 C 0.31581 0.06233 1.01483 0.0
C395 C 0.33135 0.09643 1.00131 0.0
H396 H 0.15158 0.28687 0.06868 0.0
H397 H 0.28507 0.40597 0.07411 0.0
H398 H 0.17432 0.26903 0.03894 0.0
H399 H 0.30814 0.38757 0.04494 0.0
H400 H 0.33265 0.36591 0.98609 0.0
H401 H 0.2988 0.38428 1.01223 0.0
H402 H 0.22285 0.24231 1.02696 0.0
H403 H 0.25548 0.22384 1.00042 0.0
C404 C 0.18571 0.30925 0.06353 0.0
C405 C 0.21649 0.34781 0.0738 0.0
C406 C 0.19885 0.29893 0.04653 0.0
C407 C 0.24309 0.32688 0.03944 0.0
C408 C 0.27352 0.36569 0.04968 0.0
C409 C 0.26037 0.37607 0.06657 0.0
C410 C 0.30817 0.33853 0.99473 0.0
C411 C 0.29713 0.29347 0.99125 0.0
C412 C 0.28899 0.34909 1.00983 0.0
C413 C 0.25861 0.31491 1.02196 0.0
C414 C 0.24582 0.26954 1.0179 0.0
C415 C 0.26472 0.25894 1.00268 0.0
H416 H 0.891 0.25324 0.23277 0.0
H417 H 0.88567 0.12415 0.23834 0.0
H418 H 0.93984 0.27052 0.20574 0.0
H419 H 0.93359 0.14083 0.21078 0.0
H420 H 0.07149 0.21794 0.1796 0.0
H421 H 1.01154 0.1897 0.20285 0.0
H422 H 0.94699 0.25441 0.17412 0.0
H423 H 1.00813 0.28409 0.15112 0.0
C424 C 0.89962 0.22814 0.22804 0.0
C425 C 0.8847 0.18745 0.23785 0.0
C426 C 0.92744 0.23793 0.21239 0.0
C427 C 0.94092 0.20718 0.20603 0.0
C428 C 0.92452 0.16565 0.21543 0.0
C429 C 0.89681 0.15594 0.23118 0.0
C430 C 0.04422 0.2257 0.17806 0.0
C431 C 0.04495 0.25374 0.16358 0.0
C432 C 1.00955 0.2092 0.19139 0.0
C433 C 0.97448 0.22004 0.19052 0.0
C434 C 0.97392 0.24612 0.17546 0.0
C435 C 1.00882 0.26289 0.16218 0.0
H436 H 0.86686 0.06885 0.35134 0.0
H437 H 0.74216 1.00023 0.31927 0.0
H438 H 0.83438 1.00897 0.37445 0.0
H439 H 0.71004 0.93944 0.34219 0.0
H440 H 0.64815 0.87958 0.39936 0.0
H441 H 0.68188 0.93086 0.37329 0.0
H442 H 0.80861 0.9311 0.38184 0.0
H443 H 0.77504 0.8805 0.40839 0.0
C444 C 0.83276 0.04056 0.34904 0.0
C445 C 0.80697 0.03961 0.33352 0.0
C446 C 0.8142 1.00598 0.36227 0.0
C447 C 0.76941 0.96942 0.3603 0.0
C448 C 0.74434 0.96749 0.34434 0.0
C449 C 0.76286 1.00221 0.33113 0.0
C450 C 0.68312 0.89023 0.39563 0.0
C451 C 0.70897 0.87612 0.40607 0.0
C452 C 0.70241 0.91945 0.38054 0.0
C453 C 0.74805 0.93526 0.37542 0.0
C454 C 0.77355 0.92011 0.38554 0.0
C455 C 0.75424 0.8909 0.4007 0.0
H456 H 0.87105 0.76257 0.582 0.0
H457 H 0.83137 0.6384 0.55159 0.0
H458 H 0.84929 0.7922 0.55554 0.0
H459 H 0.81079 0.66852 0.52491 0.0
H460 H 0.72197 0.71304 0.49238 0.0
H461 H 0.75183 0.68448 0.51636 0.0
H462 H 0.86698 0.8194 0.52429 0.0
H463 H 0.83637 0.84819 0.50065 0.0
C464 C 0.85836 0.74185 0.56956 0.0
C465 C 0.8527 0.69799 0.56897 0.0
C466 C 0.84607 0.75895 0.55431 0.0
C467 C 0.82805 0.73271 0.53806 0.0
C468 C 0.8238 0.68939 0.53729 0.0
C469 C 0.83588 0.67221 0.55257 0.0
C470 C 0.75392 0.73655 0.49908 0.0
C471 C 0.77659 0.78298 0.49466 0.0
C472 C 0.77122 0.72012 0.5128 0.0
C473 C 0.81174 0.74965 0.52239 0.0
C474 C 0.83527 0.7958 0.51745 0.0
C475 C 0.81786 0.81227 0.50379 0.0
H476 H 0.14755 0.76711 0.73451 0.0
H477 H 0.14205 0.89021 0.74309 0.0
H478 H 0.09634 0.74776 0.70805 0.0
H479 H 0.09171 0.87149 0.71617 0.0
H480 H 0.95508 0.79015 0.68462 0.0
H481 H 1.01438 0.8183 0.70828 0.0
H482 H 0.08713 0.76573 0.67685 0.0
H483 H 0.02679 0.73619 0.65339 0.0
C484 C 0.13591 0.79041 0.7306 0.0
C485 C 0.14867 0.83006 0.74103 0.0
C486 C 0.10674 0.77945 0.71529 0.0
C487 C 0.08968 0.80796 0.70994 0.0
C488 C 0.10358 0.84837 0.72005 0.0
C489 C 0.13267 0.85925 0.73543 0.0
C490 C 0.98394 0.78497 0.68262 0.0
C491 C 0.98596 0.76058 0.66715 0.0
C492 C 1.01819 0.80141 0.69617 0.0
C493 C 0.05556 0.79415 0.69458 0.0
C494 C 0.05847 0.77127 0.67872 0.0
C495 C 0.02402 0.75459 0.66518 0.0
H496 H 0.41903 0.18548 0.89561 0.0
H497 H 0.27628 0.13557 0.90706 0.0
H498 H 0.39821 0.13328 0.86941 0.0
H499 H 0.25541 0.08263 0.88087 0.0
H500 H 0.23561 1.00983 0.82455 0.0
H501 H 0.2577 0.07286 0.8465 0.0
H502 H 0.36442 0.05095 0.86812 0.0
H503 H 0.34285 0.98883 0.84628 0.0
C504 C 0.38316 0.16368 0.89243 0.0
C505 C 0.34931 0.16432 0.90358 0.0
C506 C 0.37124 0.13361 0.87744 0.0
C507 C 0.32517 0.10331 0.87322 0.0
C508 C 0.29123 0.10567 0.88371 0.0
C509 C 0.30319 0.1359 0.89875 0.0
C510 C 0.2641 0.0189 0.83386 0.0
C511 C 0.28742 0.99426 0.83369 0.0
C512 C 0.27655 0.05478 0.8465 0.0
C513 C 0.31288 0.067 0.85903 0.0
C514 C 0.33672 0.04293 0.85849 0.0
C515 C 0.32412 1.00703 0.84603 0.0
H516 H 0.83269 0.90652 0.80477 0.0
H517 H 0.69155 0.83221 0.82202 0.0
H518 H 0.85429 0.87809 0.83176 0.0
H519 H 0.71323 0.80355 0.84893 0.0
H520 H 0.77251 0.77932 0.90213 0.0
H521 H 0.75726 0.82302 0.87895 0.0
H522 H 0.84034 0.80135 0.83915 0.0
H523 H 0.85552 0.75825 0.86207 0.0
C524 C 0.80632 0.88462 0.81443 0.0
C525 C 0.76031 0.87125 0.8111 0.0
C526 C 0.81871 0.8682 0.82987 0.0
C527 C 0.78542 0.83826 0.8424 0.0
C528 C 0.73973 0.82681 0.83962 0.0
C529 C 0.72729 0.84301 0.82411 0.0
C530 C 0.78796 0.78452 0.88851 0.0
C531 C 0.81498 0.76511 0.8839 0.0
C532 C 0.77905 0.80929 0.87522 0.0
C533 C 0.79762 0.81566 0.85721 0.0
C534 C 0.82597 0.79761 0.85293 0.0
C535 C 0.83437 0.77255 0.86606 0.0
H536 H 0.89423 0.63114 0.98434 0.0
H537 H 0.87972 0.75003 0.98953 0.0
H538 H 0.93484 0.64928 1.01367 0.0
H539 H 0.91954 0.76767 1.01948 0.0
H540 H 0.04712 0.81273 0.05769 0.0
H541 H 0.99478 0.79443 0.03162 0.0
H542 H 0.92863 0.65246 0.04631 0.0
H543 H 0.98218 0.67064 0.07197 0.0
C544 C 0.89918 0.66094 0.99187 0.0
C545 C 0.88383 0.68923 0.9845 0.0
C546 C 0.9222 0.67115 1.00886 0.0
C547 C 0.93036 0.70984 1.01911 0.0
C548 C 0.91427 0.73781 1.01191 0.0
C549 C 0.89127 0.72763 0.99478 0.0
C550 C 0.0209 0.77767 0.05556 0.0
C551 C 1.01926 0.74305 0.06677 0.0
C552 C 0.99068 0.76717 0.04061 0.0
C553 C 0.95785 0.72183 0.0366 0.0
C554 C 0.95423 0.68763 0.04865 0.0
C555 C 0.98472 0.69807 0.06348 0.0
H556 H 0.09132 0.87023 0.1577 0.0
H557 H 0.22622 0.89044 0.14742 0.0
H558 H 0.11977 0.91756 0.18559 0.0
H559 H 0.25477 0.93847 0.17489 0.0
H560 H 0.29038 0.99958 0.23211 0.0
H561 H 0.25391 0.94104 0.20822 0.0
H562 H 0.16797 0.99658 0.19298 0.0
H563 H 0.20344 0.05412 0.21712 0.0
C564 C 0.12697 0.88459 0.16141 0.0
C565 C 0.1565 0.87669 0.15025 0.0
C566 C 0.14335 0.91192 0.17736 0.0
C567 C 0.18964 0.93203 0.1825 0.0
C568 C 0.21881 0.92309 0.17156 0.0
C569 C 0.20245 0.89575 0.15568 0.0
C570 C 0.26326 0.99889 0.22383 0.0
C571 C 0.25009 0.03178 0.22646 0.0
C572 C 0.24254 0.9655 0.21004 0.0
C573 C 0.20825 0.96427 0.19851 0.0
C574 C 0.19388 0.99609 0.20168 0.0
C575 C 0.21447 0.02935 0.21549 0.0
H576 H 0.27069 0.12542 0.31583 0.0
H577 H 0.39037 0.25869 0.31951 0.0
H578 H 0.23876 0.1425 0.3431 0.0
H579 H 0.35803 0.27624 0.34632 0.0
H580 H 0.3045 0.28708 0.40221 0.0
H581 H 0.33754 0.261 0.37833 0.0
H582 H 0.20629 0.18883 0.35093 0.0
H583 H 0.17311 0.21367 0.37505 0.0
C584 C 0.29026 0.15829 0.32248 0.0
C585 C 0.33301 0.19073 0.31543 0.0
C586 C 0.27184 0.16821 0.33807 0.0
C587 C 0.29567 0.21086 0.34692 0.0
C588 C 0.33892 0.24282 0.34008 0.0
C589 C 0.35738 0.23284 0.32458 0.0
C590 C 0.2826 0.26517 0.39122 0.0
C591 C 0.2362 0.25266 0.39052 0.0
C592 C 0.3016 0.25045 0.37743 0.0
C593 C 0.27472 0.22304 0.36257 0.0
C594 C 0.22799 0.20939 0.36225 0.0
C595 C 0.20896 0.22391 0.37606 0.0
H596 H 0.11094 0.24399 0.47439 0.0
H597 H 0.20578 0.35848 0.50779 0.0
H598 H 0.05909 0.21434 0.50071 0.0
H599 H 0.15438 0.3282 0.5343 0.0
H600 H 0.02241 0.29332 0.56676 0.0
H601 H 0.08217 0.31995 0.54333 0.0
H602 H 0.04599 0.18134 0.53114 0.0
H603 H 0.98538 0.15464 0.55427 0.0
C604 C 0.12111 0.26247 0.48744 0.0
C605 C 0.16239 0.30382 0.48891 0.0
C606 C 0.09143 0.24532 0.5026 0.0
C607 C 0.10236 0.26898 0.51965 0.0
C608 C 0.14448 0.30946 0.52131 0.0
C609 C 0.17411 0.32669 0.50612 0.0
C610 C 0.02754 0.26852 0.55926 0.0
C611 C 0.9988 0.22181 0.5623 0.0
C612 C 0.06203 0.28382 0.54585 0.0
C613 C 0.06876 0.2528 0.5352 0.0
C614 C 0.04126 0.20616 0.53883 0.0
C615 C 1.00668 0.19085 0.5522 0.0
H616 H 0.66853 0.98345 0.71194 0.0
H617 H 0.79696 0.99789 0.73018 0.0
H618 H 0.70848 0.04406 0.68962 0.0
H619 H 0.83733 0.05927 0.70764 0.0
H620 H 0.87352 0.11759 0.64616 0.0
H621 H 0.84287 0.06585 0.6726 0.0
H622 H 0.76165 0.12649 0.68815 0.0
H623 H 0.79173 0.17771 0.66179 0.0
C624 C 0.70542 0.9999 0.71131 0.0
C625 C 0.72955 0.98576 0.72281 0.0
C626 C 0.72838 0.0349 0.69857 0.0
C627 C 0.77611 0.05657 0.69687 0.0
C628 C 0.8005 0.04302 0.70857 0.0
C629 C 0.77744 1.00813 0.72154 0.0
C630 C 0.84961 0.12029 0.65538 0.0
C631 C 0.83465 0.15141 0.65171 0.0
C632 C 0.83223 0.09079 0.67058 0.0
C633 C 0.79945 0.09175 0.68234 0.0
C634 C 0.78628 0.12439 0.67916 0.0
C635 C 0.80367 0.15385 0.66406 0.0
loop_
_geom_bond_atom_site_label_1
_geom_bond_atom_site_label_2
_geom_bond_distance
_geom_bond_site_symmetry_2
_ccdc_geom_bond_type
Mg0 O7 2.141 . S
Mg0 O8 2.048 . S
Mg0 O9 2.048 . S
Mg0 O12 2.141 . S
C1 O2 1.313 . S
C1 O8 1.195 . S
O2 C1 1.313 . S
C3 O4 1.245 . S
C3 O12 1.289 . S
O4 C3 1.245 . S
C5 O6 1.245 . S
C5 O7 1.289 . S
O6 C5 1.245 . S
O7 Mg0 2.141 . S
O7 C5 1.289 . S
O8 Mg0 2.048 . S
O8 C1 1.195 . S
O9 Mg0 2.048 . S
O9 C10 1.195 . S
C10 O9 1.195 . S
C10 O11 1.313 . S
O11 C10 1.313 . S
O12 Mg0 2.141 . S
O12 C3 1.289 . S
Mg13 O20 2.141 . S
Mg13 O21 2.048 . S
Mg13 O22 2.048 . S
Mg13 O25 2.141 . S
C14 O15 1.313 . S
C14 O21 1.195 . S
O15 C14 1.313 . S
C16 O17 1.245 . S
C16 O25 1.289 . S
O17 C16 1.245 . S
C18 O19 1.245 . S
C18 O20 1.289 . S
O19 C18 1.245 . S
O20 Mg13 2.141 . S
O20 C18 1.289 . S
O21 Mg13 2.048 . S
O21 C14 1.195 . S
O22 Mg13 2.048 . S
O22 C23 1.195 . S
C23 O22 1.195 . S
C23 O24 1.313 . S
O24 C23 1.313 . S
O25 Mg13 2.141 . S
O25 C16 1.289 . S
Mg26 O33 2.141 . S
Mg26 O34 2.048 . S
Mg26 O35 2.048 . S
Mg26 O38 2.141 . S
C27 O28 1.313 . S
C27 O34 1.195 . S
O28 C27 1.313 . S
C29 O30 1.245 . S
C29 O38 1.289 . S
O30 C29 1.245 . S
C31 O32 1.245 . S
C31 O33 1.289 . S
O32 C31 1.245 . S
O33 Mg26 2.141 . S
O33 C31 1.289 . S
O34 Mg26 2.048 . S
O34 C27 1.195 . S
O35 Mg26 2.048 . S
O35 C36 1.195 . S
C36 O35 1.195 . S
C36 O37 1.313 . S
O37 C36 1.313 . S
O38 Mg26 2.141 . S
O38 C29 1.289 . S
Mg39 O46 2.141 . S
Mg39 O47 2.048 . S
Mg39 O48 2.048 . S
Mg39 O51 2.141 . S
C40 O41 1.313 . S
C40 O47 1.195 . S
O41 C40 1.313 . S
C42 O43 1.245 . S
C42 O51 1.289 . S
O43 C42 1.245 . S
C44 O45 1.245 . S
C44 O46 1.289 . S
O45 C44 1.245 . S
O46 Mg39 2.141 . S
O46 C44 1.289 . S
O47 Mg39 2.048 . S
O47 C40 1.195 . S
O48 Mg39 2.048 . S
O48 C49 1.195 . S
C49 O48 1.195 . S
C49 O50 1.313 . S
O50 C49 1.313 . S
O51 Mg39 2.141 . S
O51 C42 1.289 . S
Mg52 O59 2.141 . S
Mg52 O60 2.048 . S
Mg52 O61 2.048 . S
Mg52 O64 2.141 . S
C53 O54 1.313 . S
C53 O60 1.195 . S
O54 C53 1.313 . S
C55 O56 1.245 . S
C55 O64 1.289 . S
O56 C55 1.245 . S
C57 O58 1.245 . S
C57 O59 1.289 . S
O58 C57 1.245 . S
O59 Mg52 2.141 . S
O59 C57 1.289 . S
O60 Mg52 2.048 . S
O60 C53 1.195 . S
O61 Mg52 2.048 . S
O61 C62 1.195 . S
C62 O61 1.195 . S
C62 O63 1.313 . S
O63 C62 1.313 . S
O64 Mg52 2.141 . S
O64 C55 1.289 . S
Mg65 O72 2.141 . S
Mg65 O73 2.048 . S
Mg65 O74 2.048 . S
Mg65 O77 2.141 . S
C66 O67 1.313 . S
C66 O73 1.195 . S
O67 C66 1.313 . S
C68 O69 1.245 . S
C68 O77 1.289 . S
O69 C68 1.245 . S
C70 O71 1.245 . S
C70 O72 1.289 . S
O71 C70 1.245 . S
O72 Mg65 2.141 . S
O72 C70 1.289 . S
O73 Mg65 2.048 . S
O73 C66 1.195 . S
O74 Mg65 2.048 . S
O74 C75 1.195 . S
C75 O74 1.195 . S
C75 O76 1.313 . S
O76 C75 1.313 . S
O77 Mg65 2.141 . S
O77 C68 1.289 . S
Mg78 O85 2.141 . S
Mg78 O86 2.048 . S
Mg78 O87 2.048 . S
Mg78 O90 2.141 . S
C79 O80 1.313 . S
C79 O86 1.195 . S
O80 C79 1.313 . S
C81 O82 1.245 . S
C81 O90 1.289 . S
O82 C81 1.245 . S
C83 O84 1.245 . S
C83 O85 1.289 . S
O84 C83 1.245 . S
O85 Mg78 2.141 . S
O85 C83 1.289 . S
O86 Mg78 2.048 . S
O86 C79 1.195 . S
O87 Mg78 2.048 . S
O87 C88 1.195 . S
C88 O87 1.195 . S
C88 O89 1.313 . S
O89 C88 1.313 . S
O90 Mg78 2.141 . S
O90 C81 1.289 . S
Mg91 O98 2.141 . S
Mg91 O99 2.048 . S
Mg91 O100 2.048 . S
Mg91 O103 2.141 . S
C92 O93 1.313 . S
C92 O99 1.195 . S
O93 C92 1.313 . S
C94 O95 1.245 . S
C94 O103 1.289 . S
O95 C94 1.245 . S
C96 O97 1.245 . S
C96 O98 1.289 . S
O97 C96 1.245 . S
O98 Mg91 2.141 . S
O98 C96 1.289 . S
O99 Mg91 2.048 . S
O99 C92 1.195 . S
O100 Mg91 2.048 . S
O100 C101 1.195 . S
C101 O100 1.195 . S
C101 O102 1.313 . S
O102 C101 1.313 . S
O103 Mg91 2.141 . S
O103 C94 1.289 . S
Mg104 O111 2.141 . S
Mg104 O112 2.048 . S
Mg104 O113 2.048 . S
Mg104 O116 2.141 . S
C105 O106 1.313 . S
C105 O112 1.195 . S
O106 C105 1.313 . S
C107 O108 1.245 . S
C107 O116 1.289 . S
O108 C107 1.245 . S
C109 O110 1.245 . S
C109 O111 1.289 . S
O110 C109 1.245 . S
O111 Mg104 2.141 . S
O111 C109 1.289 . S
O112 Mg104 2.048 . S
O112 C105 1.195 . S
O113 Mg104 2.048 . S
O113 C114 1.195 . S
C114 O113 1.195 . S
C114 O115 1.313 . S
O115 C114 1.313 . S
O116 Mg104 2.141 . S
O116 C107 1.289 . S
Mg117 O124 2.141 . S
Mg117 O125 2.048 . S
Mg117 O126 2.048 . S
Mg117 O129 2.141 . S
C118 O119 1.313 . S
C118 O125 1.195 . S
O119 C118 1.313 . S
C120 O121 1.245 . S
C120 O129 1.289 . S
O121 C120 1.245 . S
C122 O123 1.245 . S
C122 O124 1.289 . S
O123 C122 1.245 . S
O124 Mg117 2.141 . S
O124 C122 1.289 . S
O125 Mg117 2.048 . S
O125 C118 1.195 . S
O126 Mg117 2.048 . S
O126 C127 1.195 . S
C127 O126 1.195 . S
C127 O128 1.313 . S
O128 C127 1.313 . S
O129 Mg117 2.141 . S
O129 C120 1.289 . S
Mg130 O137 2.141 . S
Mg130 O138 2.048 . S
Mg130 O139 2.048 . S
Mg130 O142 2.141 . S
C131 O132 1.313 . S
C131 O138 1.195 . S
O132 C131 1.313 . S
C133 O134 1.245 . S
C133 O142 1.289 . S
O134 C133 1.245 . S
C135 O136 1.245 . S
C135 O137 1.289 . S
O136 C135 1.245 . S
O137 Mg130 2.141 . S
O137 C135 1.289 . S
O138 Mg130 2.048 . S
O138 C131 1.195 . S
O139 Mg130 2.048 . S
O139 C140 1.195 . S
C140 O139 1.195 . S
C140 O141 1.313 . S
O141 C140 1.313 . S
O142 Mg130 2.141 . S
O142 C133 1.289 . S
Mg143 O150 2.141 . S
Mg143 O151 2.048 . S
Mg143 O152 2.048 . S
Mg143 O155 2.141 . S
C144 O145 1.313 . S
C144 O151 1.195 . S
O145 C144 1.313 . S
C146 O147 1.245 . S
C146 O155 1.289 . S
O147 C146 1.245 . S
C148 O149 1.245 . S
C148 O150 1.289 . S
O149 C148 1.245 . S
O150 Mg143 2.141 . S
O150 C148 1.289 . S
O151 Mg143 2.048 . S
O151 C144 1.195 . S
O152 Mg143 2.048 . S
O152 C153 1.195 . S
C153 O152 1.195 . S
C153 O154 1.313 . S
O154 C153 1.313 . S
O155 Mg143 2.141 . S
O155 C146 1.289 . S
H156 C164 0.950 . S
H157 C169 0.950 . S
H158 C166 0.950 . S
H159 C168 0.950 . S
H160 C170 0.950 . S
H161 C172 0.950 . S
H162 C174 0.950 . S
H163 C175 0.950 . S
C164 H156 0.950 . S
C164 C165 1.386 . S
C164 C166 1.391 . S
C165 C164 1.386 . S
C165 C169 1.393 . S
C166 H158 0.950 . S
C166 C164 1.391 . S
C166 C167 1.400 . S
C167 C166 1.400 . S
C167 C168 1.398 . S
C167 C173 1.491 . S
C168 H159 0.950 . S
C168 C167 1.398 . S
C168 C169 1.391 . S
C169 H157 0.950 . S
C169 C165 1.393 . S
C169 C168 1.391 . S
C170 H160 0.950 . S
C170 C171 1.386 . S
C170 C172 1.391 . S
C171 C170 1.386 . S
C171 C175 1.393 . S
C172 H161 0.950 . S
C172 C170 1.391 . S
C172 C173 1.400 . S
C173 C167 1.491 . S
C173 C172 1.400 . S
C173 C174 1.398 . S
C174 H162 0.950 . S
C174 C173 1.398 . S
C174 C175 1.391 . S
C175 H163 0.950 . S
C175 C171 1.393 . S
C175 C174 1.391 . S
H176 C184 0.950 . S
H177 C189 0.950 . S
H178 C186 0.950 . S
H179 C188 0.950 . S
H180 C190 0.950 . S
H181 C192 0.950 . S
H182 C194 0.950 . S
H183 C195 0.950 . S
C184 H176 0.950 . S
C184 C185 1.386 . S
C184 C186 1.391 . S
C185 C184 1.386 . S
C185 C189 1.393 . S
C186 H178 0.950 . S
C186 C184 1.391 . S
C186 C187 1.400 . S
C187 C186 1.400 . S
C187 C188 1.398 . S
C187 C193 1.491 . S
C188 H179 0.950 . S
C188 C187 1.398 . S
C188 C189 1.391 . S
C189 H177 0.950 . S
C189 C185 1.393 . S
C189 C188 1.391 . S
C190 H180 0.950 . S
C190 C191 1.386 . S
C190 C192 1.391 . S
C191 C190 1.386 . S
C191 C195 1.393 . S
C192 H181 0.950 . S
C192 C190 1.391 . S
C192 C193 1.400 . S
C193 C187 1.491 . S
C193 C192 1.400 . S
C193 C194 1.398 . S
C194 H182 0.950 . S
C194 C193 1.398 . S
C194 C195 1.391 . S
C195 H183 0.950 . S
C195 C191 1.393 . S
C195 C194 1.391 . S
H196 C204 0.950 . S
H197 C209 0.950 . S
H198 C206 0.950 . S
H199 C208 0.950 . S
H200 C210 0.950 . S
H201 C212 0.950 . S
H202 C214 0.950 . S
H203 C215 0.950 . S
C204 H196 0.950 . S
C204 C205 1.386 . S
C204 C206 1.391 . S
C205 C204 1.386 . S
C205 C209 1.393 . S
C206 H198 0.950 . S
C206 C204 1.391 . S
C206 C207 1.400 . S
C207 C206 1.400 . S
C207 C208 1.398 . S
C207 C213 1.491 . S
C208 H199 0.950 . S
C208 C207 1.398 . S
C208 C209 1.391 . S
C209 H197 0.950 . S
C209 C205 1.393 . S
C209 C208 1.391 . S
C210 H200 0.950 . S
C210 C211 1.386 . S
C210 C212 1.391 . S
C211 C210 1.386 . S
C211 C215 1.393 . S
C212 H201 0.950 . S
C212 C210 1.391 . S
C212 C213 1.400 . S
C213 C207 1.491 . S
C213 C212 1.400 . S
C213 C214 1.398 . S
C214 H202 0.950 . S
C214 C213 1.398 . S
C214 C215 1.391 . S
C215 H203 0.950 . S
C215 C211 1.393 . S
C215 C214 1.391 . S
H216 C224 0.950 . S
H217 C229 0.950 . S
H218 C226 0.950 . S
H219 C228 0.950 . S
H220 C230 0.950 . S
H221 C232 0.950 . S
H222 C234 0.950 . S
H223 C235 0.950 . S
C224 H216 0.950 . S
C224 C225 1.386 . S
C224 C226 1.391 . S
C225 C224 1.386 . S
C225 C229 1.393 . S
C226 H218 0.950 . S
C226 C224 1.391 . S
C226 C227 1.400 . S
C227 C226 1.400 . S
C227 C228 1.398 . S
C227 C233 1.491 . S
C228 H219 0.950 . S
C228 C227 1.398 . S
C228 C229 1.391 . S
C229 H217 0.950 . S
C229 C225 1.393 . S
C229 C228 1.391 . S
C230 H220 0.950 . S
C230 C231 1.386 . S
C230 C232 1.391 . S
C231 C230 1.386 . S
C231 C235 1.393 . S
C232 H221 0.950 . S
C232 C230 1.391 . S
C232 C233 1.400 . S
C233 C227 1.491 . S
C233 C232 1.400 . S
C233 C234 1.398 . S
C234 H222 0.950 . S
C234 C233 1.398 . S
C234 C235 1.391 . S
C235 H223 0.950 . S
C235 C231 1.393 . S
C235 C234 1.391 . S
H236 C244 0.950 . S
H237 C249 0.950 . S
H238 C246 0.950 . S
H239 C248 0.950 . S
H240 C250 0.950 . S
H241 C252 0.950 . S
H242 C254 0.950 . S
H243 C255 0.950 . S
C244 H236 0.950 . S
C244 C245 1.386 . S
C244 C246 1.391 . S
C245 C244 1.386 . S
C245 C249 1.393 . S
C246 H238 0.950 . S
C246 C244 1.391 . S
C246 C247 1.400 . S
C247 C246 1.400 . S
C247 C248 1.398 . S
C247 C253 1.491 . S
C248 H239 0.950 . S
C248 C247 1.398 . S
C248 C249 1.391 . S
C249 H237 0.950 . S
C249 C245 1.393 . S
C249 C248 1.391 . S
C250 H240 0.950 . S
C250 C251 1.386 . S
C250 C252 1.391 . S
C251 C250 1.386 . S
C251 C255 1.393 . S
C252 H241 0.950 . S
C252 C250 1.391 . S
C252 C253 1.400 . S
C253 C247 1.491 . S
C253 C252 1.400 . S
C253 C254 1.398 . S
C254 H242 0.950 . S
C254 C253 1.398 . S
C254 C255 1.391 . S
C255 H243 0.950 . S
C255 C251 1.393 . S
C255 C254 1.391 . S
H256 C264 0.950 . S
H257 C269 0.950 . S
H258 C266 0.950 . S
H259 C268 0.950 . S
H260 C270 0.950 . S
H261 C272 0.950 . S
H262 C274 0.950 . S
H263 C275 0.950 . S
C264 H256 0.950 . S
C264 C265 1.386 . S
C264 C266 1.391 . S
C265 C264 1.386 . S
C265 C269 1.393 . S
C266 H258 0.950 . S
C266 C264 1.391 . S
C266 C267 1.400 . S
C267 C266 1.400 . S
C267 C268 1.398 . S
C267 C273 1.491 . S
C268 H259 0.950 . S
C268 C267 1.398 . S
C268 C269 1.391 . S
C269 H257 0.950 . S
C269 C265 1.393 . S
C269 C268 1.391 . S
C270 H260 0.950 . S
C270 C271 1.386 . S
C270 C272 1.391 . S
C271 C270 1.386 . S
C271 C275 1.393 . S
C272 H261 0.950 . S
C272 C270 1.391 . S
C272 C273 1.400 . S
C273 C267 1.491 . S
C273 C272 1.400 . S
C273 C274 1.398 . S
C274 H262 0.950 . S
C274 C273 1.398 . S
C274 C275 1.391 . S
C275 H263 0.950 . S
C275 C271 1.393 . S
C275 C274 1.391 . S
H276 C284 0.950 . S
H277 C289 0.950 . S
H278 C286 0.950 . S
H279 C288 0.950 . S
H280 C290 0.950 . S
H281 C292 0.950 . S
H282 C294 0.950 . S
H283 C295 0.950 . S
C284 H276 0.950 . S
C284 C285 1.386 . S
C284 C286 1.391 . S
C285 C284 1.386 . S
C285 C289 1.393 . S
C286 H278 0.950 . S
C286 C284 1.391 . S
C286 C287 1.400 . S
C287 C286 1.400 . S
C287 C288 1.398 . S
C287 C293 1.491 . S
C288 H279 0.950 . S
C288 C287 1.398 . S
C288 C289 1.391 . S
C289 H277 0.950 . S
C289 C285 1.393 . S
C289 C288 1.391 . S
C290 H280 0.950 . S
C290 C291 1.386 . S
C290 C292 1.391 . S
C291 C290 1.386 . S
C291 C295 1.393 . S
C292 H281 0.950 . S
C292 C290 1.391 . S
C292 C293 1.400 . S
C293 C287 1.491 . S
C293 C292 1.400 . S
C293 C294 1.398 . S
C294 H282 0.950 . S
C294 C293 1.398 . S
C294 C295 1.391 . S
C295 H283 0.950 . S
C295 C291 1.393 . S
C295 C294 1.391 . S
H296 C304 0.950 . S
H297 C309 0.950 . S
H298 C306 0.950 1_455 S
H299 C308 0.950 . S
H300 C310 0.950 . S
H301 C312 0.950 1_655 S
H302 C314 0.950 . S
H303 C315 0.950 . S
C304 H296 0.950 . S
C304 C305 1.386 . S
C304 C306 1.391 . S
C305 C304 1.386 . S
C305 C309 1.393 . S
C306 H298 0.950 1_655 S
C306 C304 1.391 . S
C306 C307 1.400 . S
C307 C306 1.400 . S
C307 C308 1.398 . S
C307 C313 1.491 1_655 S
C308 H299 0.950 . S
C308 C307 1.398 . S
C308 C309 1.391 . S
C309 H297 0.950 . S
C309 C305 1.393 . S
C309 C308 1.391 . S
C310 H300 0.950 . S
C310 C311 1.386 . S
C310 C312 1.391 . S
C311 C310 1.386 . S
C311 C315 1.393 . S
C312 H301 0.950 1_455 S
C312 C310 1.391 . S
C312 C313 1.400 . S
C313 C307 1.491 1_455 S
C313 C312 1.400 . S
C313 C314 1.398 . S
C314 H302 0.950 . S
C314 C313 1.398 . S
C314 C315 1.391 . S
C315 H303 0.950 . S
C315 C311 1.393 . S
C315 C314 1.391 . S
H316 C324 0.950 . S
H317 C329 0.950 . S
H318 C326 0.950 . S
H319 C328 0.950 . S
H320 C330 0.950 . S
H321 C332 0.950 . S
H322 C334 0.950 . S
H323 C335 0.950 . S
C324 H316 0.950 . S
C324 C325 1.386 . S
C324 C326 1.391 . S
C325 C324 1.386 . S
C325 C329 1.393 . S
C326 H318 0.950 . S
C326 C324 1.391 . S
C326 C327 1.400 . S
C327 C326 1.400 . S
C327 C328 1.398 . S
C327 C333 1.491 1_545 S
C328 H319 0.950 . S
C328 C327 1.398 . S
C328 C329 1.391 . S
C329 H317 0.950 . S
C329 C325 1.393 . S
C329 C328 1.391 . S
C330 H320 0.950 . S
C330 C331 1.386 . S
C330 C332 1.391 . S
C331 C330 1.386 . S
C331 C335 1.393 . S
C332 H321 0.950 . S
C332 C330 1.391 . S
C332 C333 1.400 . S
C333 C327 1.491 1_565 S
C333 C332 1.400 . S
C333 C334 1.398 . S
C334 H322 0.950 . S
C334 C333 1.398 . S
C334 C335 1.391 . S
C335 H323 0.950 . S
C335 C331 1.393 . S
C335 C334 1.391 . S
H336 C344 0.950 . S
H337 C349 0.950 . S
H338 C346 0.950 . S
H339 C348 0.950 . S
H340 C350 0.950 . S
H341 C352 0.950 . S
H342 C354 0.950 . S
H343 C355 0.950 . S
C344 H336 0.950 . S
C344 C345 1.386 . S
C344 C346 1.391 . S
C345 C344 1.386 . S
C345 C349 1.393 . S
C346 H338 0.950 . S
C346 C344 1.391 . S
C346 C347 1.400 . S
C347 C346 1.400 . S
C347 C348 1.398 . S
C347 C353 1.491 . S
C348 H339 0.950 . S
C348 C347 1.398 . S
C348 C349 1.391 . S
C349 H337 0.950 . S
C349 C345 1.393 . S
C349 C348 1.391 . S
C350 H340 0.950 . S
C350 C351 1.386 . S
C350 C352 1.391 . S
C351 C350 1.386 . S
C351 C355 1.393 . S
C352 H341 0.950 . S
C352 C350 1.391 . S
C352 C353 1.400 . S
C353 C347 1.491 . S
C353 C352 1.400 . S
C353 C354 1.398 . S
C354 H342 0.950 . S
C354 C353 1.398 . S
C354 C355 1.391 . S
C355 H343 0.950 . S
C355 C351 1.393 . S
C355 C354 1.391 . S
H356 C364 0.950 . S
H357 C369 0.950 . S
H358 C366 0.950 . S
H359 C368 0.950 . S
H360 C370 0.950 . S
H361 C372 0.950 . S
H362 C374 0.950 . S
H363 C375 0.950 . S
C364 H356 0.950 . S
C364 C365 1.386 . S
C364 C366 1.391 . S
C365 C364 1.386 . S
C365 C369 1.393 . S
C366 H358 0.950 . S
C366 C364 1.391 . S
C366 C367 1.400 . S
C367 C366 1.400 . S
C367 C368 1.398 . S
C367 C373 1.491 1_655 S
C368 H359 0.950 . S
C368 C367 1.398 . S
C368 C369 1.391 . S
C369 H357 0.950 . S
C369 C365 1.393 . S
C369 C368 1.391 . S
C370 H360 0.950 . S
C370 C371 1.386 . S
C370 C372 1.391 . S
C371 C370 1.386 . S
C371 C375 1.393 . S
C372 H361 0.950 . S
C372 C370 1.391 . S
C372 C373 1.400 . S
C373 C367 1.491 1_455 S
C373 C372 1.400 . S
C373 C374 1.398 . S
C374 H362 0.950 . S
C374 C373 1.398 . S
C374 C375 1.391 . S
C375 H363 0.950 . S
C375 C371 1.393 . S
C375 C374 1.391 . S
H376 C384 0.950 . S
H377 C389 0.950 . S
H378 C386 0.950 . S
H379 C388 0.950 . S
H380 C390 0.950 . S
H381 C392 0.950 . S
H382 C394 0.950 . S
H383 C395 0.950 . S
C384 H376 0.950 . S
C384 C385 1.386 . S
C384 C386 1.391 . S
C385 C384 1.386 . S
C385 C389 1.393 . S
C386 H378 0.950 . S
C386 C384 1.391 . S
C386 C387 1.400 . S
C387 C386 1.400 . S
C387 C388 1.398 . S
C387 C393 1.491 1_564 S
C388 H379 0.950 . S
C388 C387 1.398 . S
C388 C389 1.391 . S
C389 H377 0.950 . S
C389 C385 1.393 . S
C389 C388 1.391 . S
C390 H380 0.950 . S
C390 C391 1.386 . S
C390 C392 1.391 . S
C391 C390 1.386 . S
C391 C395 1.393 . S
C392 H381 0.950 . S
C392 C390 1.391 . S
C392 C393 1.400 . S
C393 C387 1.491 1_546 S
C393 C392 1.400 . S
C393 C394 1.398 . S
C394 H382 0.950 . S
C394 C393 1.398 . S
C394 C395 1.391 . S
C395 H383 0.950 . S
C395 C391 1.393 . S
C395 C394 1.391 . S
H396 C404 0.950 . S
H397 C409 0.950 . S
H398 C406 0.950 . S
H399 C408 0.950 . S
H400 C410 0.950 . S
H401 C412 0.950 . S
H402 C414 0.950 . S
H403 C415 0.950 . S
C404 H396 0.950 . S
C404 C405 1.386 . S
C404 C406 1.391 . S
C405 C404 1.386 . S
C405 C409 1.393 . S
C406 H398 0.950 . S
C406 C404 1.391 . S
C406 C407 1.400 . S
C407 C406 1.400 . S
C407 C408 1.398 . S
C407 C413 1.491 . S
C408 H399 0.950 . S
C408 C407 1.398 . S
C408 C409 1.391 . S
C409 H397 0.950 . S
C409 C405 1.393 . S
C409 C408 1.391 . S
C410 H400 0.950 . S
C410 C411 1.386 1_554 S
C410 C412 1.391 . S
C411 C410 1.386 1_556 S
C411 C415 1.393 . S
C412 H401 0.950 . S
C412 C410 1.391 . S
C412 C413 1.400 . S
C413 C407 1.491 . S
C413 C412 1.400 . S
C413 C414 1.398 . S
C414 H402 0.950 . S
C414 C413 1.398 . S
C414 C415 1.391 1_554 S
C415 H403 0.950 . S
C415 C411 1.393 . S
C415 C414 1.391 1_556 S
H416 C424 0.950 . S
H417 C429 0.950 . S
H418 C426 0.950 . S
H419 C428 0.950 . S
H420 C430 0.950 . S
H421 C432 0.950 . S
H422 C434 0.950 . S
H423 C435 0.950 . S
C424 H416 0.950 . S
C424 C425 1.386 . S
C424 C426 1.391 . S
C425 C424 1.386 . S
C425 C429 1.393 . S
C426 H418 0.950 . S
C426 C424 1.391 . S
C426 C427 1.400 . S
C427 C426 1.400 . S
C427 C428 1.398 . S
C427 C433 1.491 . S
C428 H419 0.950 . S
C428 C427 1.398 . S
C428 C429 1.391 . S
C429 H417 0.950 . S
C429 C425 1.393 . S
C429 C428 1.391 . S
C430 H420 0.950 . S
C430 C431 1.386 . S
C430 C432 1.391 . S
C431 C430 1.386 . S
C431 C435 1.393 1_455 S
C432 H421 0.950 . S
C432 C430 1.391 . S
C432 C433 1.400 1_455 S
C433 C427 1.491 . S
C433 C432 1.400 1_655 S
C433 C434 1.398 . S
C434 H422 0.950 . S
C434 C433 1.398 . S
C434 C435 1.391 . S
C435 H423 0.950 . S
C435 C431 1.393 1_655 S
C435 C434 1.391 . S
H436 C444 0.950 . S
H437 C449 0.950 . S
H438 C446 0.950 . S
H439 C448 0.950 . S
H440 C450 0.950 . S
H441 C452 0.950 . S
H442 C454 0.950 . S
H443 C455 0.950 . S
C444 H436 0.950 . S
C444 C445 1.386 . S
C444 C446 1.391 1_545 S
C445 C444 1.386 . S
C445 C449 1.393 . S
C446 H438 0.950 . S
C446 C444 1.391 1_565 S
C446 C447 1.400 . S
C447 C446 1.400 . S
C447 C448 1.398 . S
C447 C453 1.491 . S
C448 H439 0.950 . S
C448 C447 1.398 . S
C448 C449 1.391 1_565 S
C449 H437 0.950 . S
C449 C445 1.393 . S
C449 C448 1.391 1_545 S
C450 H440 0.950 . S
C450 C451 1.386 . S
C450 C452 1.391 . S
C451 C450 1.386 . S
C451 C455 1.393 . S
C452 H441 0.950 . S
C452 C450 1.391 . S
C452 C453 1.400 . S
C453 C447 1.491 . S
C453 C452 1.400 . S
C453 C454 1.398 . S
C454 H442 0.950 . S
C454 C453 1.398 . S
C454 C455 1.391 . S
C455 H443 0.950 . S
C455 C451 1.393 . S
C455 C454 1.391 . S
H456 C464 0.950 . S
H457 C469 0.950 . S
H458 C466 0.950 . S
H459 C468 0.950 . S
H460 C470 0.950 . S
H461 C472 0.950 . S
H462 C474 0.950 . S
H463 C475 0.950 . S
C464 H456 0.950 . S
C464 C465 1.386 . S
C464 C466 1.391 . S
C465 C464 1.386 . S
C465 C469 1.393 . S
C466 H458 0.950 . S
C466 C464 1.391 . S
C466 C467 1.400 . S
C467 C466 1.400 . S
C467 C468 1.398 . S
C467 C473 1.491 . S
C468 H459 0.950 . S
C468 C467 1.398 . S
C468 C469 1.391 . S
C469 H457 0.950 . S
C469 C465 1.393 . S
C469 C468 1.391 . S
C470 H460 0.950 . S
C470 C471 1.386 . S
C470 C472 1.391 . S
C471 C470 1.386 . S
C471 C475 1.393 . S
C472 H461 0.950 . S
C472 C470 1.391 . S
C472 C473 1.400 . S
C473 C467 1.491 . S
C473 C472 1.400 . S
C473 C474 1.398 . S
C474 H462 0.950 . S
C474 C473 1.398 . S
C474 C475 1.391 . S
C475 H463 0.950 . S
C475 C471 1.393 . S
C475 C474 1.391 . S
H476 C484 0.950 . S
H477 C489 0.950 . S
H478 C486 0.950 . S
H479 C488 0.950 . S
H480 C490 0.950 . S
H481 C492 0.950 . S
H482 C494 0.950 . S
H483 C495 0.950 . S
C484 H476 0.950 . S
C484 C485 1.386 . S
C484 C486 1.391 . S
C485 C484 1.386 . S
C485 C489 1.393 . S
C486 H478 0.950 . S
C486 C484 1.391 . S
C486 C487 1.400 . S
C487 C486 1.400 . S
C487 C488 1.398 . S
C487 C493 1.491 . S
C488 H479 0.950 . S
C488 C487 1.398 . S
C488 C489 1.391 . S
C489 H477 0.950 . S
C489 C485 1.393 . S
C489 C488 1.391 . S
C490 H480 0.950 . S
C490 C491 1.386 . S
C490 C492 1.391 . S
C491 C490 1.386 . S
C491 C495 1.393 1_655 S
C492 H481 0.950 . S
C492 C490 1.391 . S
C492 C493 1.400 1_655 S
C493 C487 1.491 . S
C493 C492 1.400 1_455 S
C493 C494 1.398 . S
C494 H482 0.950 . S
C494 C493 1.398 . S
C494 C495 1.391 . S
C495 H483 0.950 . S
C495 C491 1.393 1_455 S
C495 C494 1.391 . S
H496 C504 0.950 . S
H497 C509 0.950 . S
H498 C506 0.950 . S
H499 C508 0.950 . S
H500 C510 0.950 . S
H501 C512 0.950 . S
H502 C514 0.950 . S
H503 C515 0.950 . S
C504 H496 0.950 . S
C504 C505 1.386 . S
C504 C506 1.391 . S
C505 C504 1.386 . S
C505 C509 1.393 . S
C506 H498 0.950 . S
C506 C504 1.391 . S
C506 C507 1.400 . S
C507 C506 1.400 . S
C507 C508 1.398 . S
C507 C513 1.491 . S
C508 H499 0.950 . S
C508 C507 1.398 . S
C508 C509 1.391 . S
C509 H497 0.950 . S
C509 C505 1.393 . S
C509 C508 1.391 . S
C510 H500 0.950 . S
C510 C511 1.386 . S
C510 C512 1.391 . S
C511 C510 1.386 . S
C511 C515 1.393 1_565 S
C512 H501 0.950 . S
C512 C510 1.391 . S
C512 C513 1.400 1_565 S
C513 C507 1.491 . S
C513 C512 1.400 1_545 S
C513 C514 1.398 . S
C514 H502 0.950 . S
C514 C513 1.398 . S
C514 C515 1.391 . S
C515 H503 0.950 . S
C515 C511 1.393 1_545 S
C515 C514 1.391 . S
H516 C524 0.950 . S
H517 C529 0.950 . S
H518 C526 0.950 . S
H519 C528 0.950 . S
H520 C530 0.950 . S
H521 C532 0.950 . S
H522 C534 0.950 . S
H523 C535 0.950 . S
C524 H516 0.950 . S
C524 C525 1.386 . S
C524 C526 1.391 . S
C525 C524 1.386 . S
C525 C529 1.393 . S
C526 H518 0.950 . S
C526 C524 1.391 . S
C526 C527 1.400 . S
C527 C526 1.400 . S
C527 C528 1.398 . S
C527 C533 1.491 . S
C528 H519 0.950 . S
C528 C527 1.398 . S
C528 C529 1.391 . S
C529 H517 0.950 . S
C529 C525 1.393 . S
C529 C528 1.391 . S
C530 H520 0.950 . S
C530 C531 1.386 . S
C530 C532 1.391 . S
C531 C530 1.386 . S
C531 C535 1.393 . S
C532 H521 0.950 . S
C532 C530 1.391 . S
C532 C533 1.400 . S
C533 C527 1.491 . S
C533 C532 1.400 . S
C533 C534 1.398 . S
C534 H522 0.950 . S
C534 C533 1.398 . S
C534 C535 1.391 . S
C535 H523 0.950 . S
C535 C531 1.393 . S
C535 C534 1.391 . S
H536 C544 0.950 . S
H537 C549 0.950 . S
H538 C546 0.950 . S
H539 C548 0.950 . S
H540 C550 0.950 . S
H541 C552 0.950 . S
H542 C554 0.950 . S
H543 C555 0.950 1_554 S
C544 H536 0.950 . S
C544 C545 1.386 . S
C544 C546 1.391 . S
C545 C544 1.386 . S
C545 C549 1.393 . S
C546 H538 0.950 . S
C546 C544 1.391 . S
C546 C547 1.400 . S
C547 C546 1.400 . S
C547 C548 1.398 . S
C547 C553 1.491 . S
C548 H539 0.950 . S
C548 C547 1.398 . S
C548 C549 1.391 . S
C549 H537 0.950 . S
C549 C545 1.393 . S
C549 C548 1.391 . S
C550 H540 0.950 . S
C550 C551 1.386 . S
C550 C552 1.391 1_454 S
C551 C550 1.386 . S
C551 C555 1.393 1_554 S
C552 H541 0.950 . S
C552 C550 1.391 1_656 S
C552 C553 1.400 . S
C553 C547 1.491 . S
C553 C552 1.400 . S
C553 C554 1.398 . S
C554 H542 0.950 . S
C554 C553 1.398 . S
C554 C555 1.391 1_655 S
C555 H543 0.950 1_556 S
C555 C551 1.393 1_556 S
C555 C554 1.391 1_455 S
H556 C564 0.950 . S
H557 C569 0.950 . S
H558 C566 0.950 . S
H559 C568 0.950 . S
H560 C570 0.950 . S
H561 C572 0.950 . S
H562 C574 0.950 . S
H563 C575 0.946 . S
C564 H556 0.950 . S
C564 C565 1.386 . S
C564 C566 1.391 . S
C565 C564 1.386 . S
C565 C569 1.393 . S
C566 H558 0.950 . S
C566 C564 1.391 . S
C566 C567 1.400 . S
C567 C566 1.400 . S
C567 C568 1.398 . S
C567 C573 1.491 . S
C568 H559 0.950 . S
C568 C567 1.398 . S
C568 C569 1.391 . S
C569 H557 0.950 . S
C569 C565 1.393 . S
C569 C568 1.391 . S
C570 H560 0.950 . S
C570 C571 1.386 . S
C570 C572 1.391 . S
C571 C570 1.386 . S
C571 C575 1.393 . S
C572 H561 0.950 . S
C572 C570 1.391 . S
C572 C573 1.400 1_545 S
C573 C567 1.491 . S
C573 C572 1.400 1_565 S
C573 C574 1.398 . S
C574 H562 0.950 . S
C574 C573 1.398 . S
C574 C575 1.391 1_565 S
C575 H563 0.946 . S
C575 C571 1.393 . S
C575 C574 1.391 1_545 S
H576 C584 0.950 . S
H577 C589 0.950 . S
H578 C586 0.950 . S
H579 C588 0.950 . S
H580 C590 0.950 . S
H581 C592 0.950 . S
H582 C594 0.950 . S
H583 C595 0.950 . S
C584 H576 0.950 . S
C584 C585 1.386 . S
C584 C586 1.391 . S
C585 C584 1.386 . S
C585 C589 1.393 . S
C586 H578 0.950 . S
C586 C584 1.391 . S
C586 C587 1.400 . S
C587 C586 1.400 . S
C587 C588 1.398 . S
C587 C593 1.491 . S
C588 H579 0.950 . S
C588 C587 1.398 . S
C588 C589 1.391 . S
C589 H577 0.950 . S
C589 C585 1.393 . S
C589 C588 1.391 . S
C590 H580 0.950 . S
C590 C591 1.386 . S
C590 C592 1.391 . S
C591 C590 1.386 . S
C591 C595 1.393 . S
C592 H581 0.950 . S
C592 C590 1.391 . S
C592 C593 1.400 . S
C593 C587 1.491 . S
C593 C592 1.400 . S
C593 C594 1.398 . S
C594 H582 0.950 . S
C594 C593 1.398 . S
C594 C595 1.391 . S
C595 H583 0.950 . S
C595 C591 1.393 . S
C595 C594 1.391 . S
H596 C604 0.950 . S
H597 C609 0.950 . S
H598 C606 0.950 . S
H599 C608 0.950 . S
H600 C610 0.950 . S
H601 C612 0.950 . S
H602 C614 0.950 . S
H603 C615 0.950 . S
C604 H596 0.950 . S
C604 C605 1.386 . S
C604 C606 1.391 . S
C605 C604 1.386 . S
C605 C609 1.393 . S
C606 H598 0.950 . S
C606 C604 1.391 . S
C606 C607 1.400 . S
C607 C606 1.400 . S
C607 C608 1.398 . S
C607 C613 1.491 . S
C608 H599 0.950 . S
C608 C607 1.398 . S
C608 C609 1.391 . S
C609 H597 0.950 . S
C609 C605 1.393 . S
C609 C608 1.391 . S
C610 H600 0.950 . S
C610 C611 1.386 . S
C610 C612 1.391 . S
C611 C610 1.386 . S
C611 C615 1.393 1_655 S
C612 H601 0.950 . S
C612 C610 1.391 . S
C612 C613 1.400 1_655 S
C613 C607 1.491 . S
C613 C612 1.400 1_455 S
C613 C614 1.398 . S
C614 H602 0.950 . S
C614 C613 1.398 . S
C614 C615 1.391 . S
C615 H603 0.950 . S
C615 C611 1.393 1_455 S
C615 C614 1.391 . S
H616 C624 0.950 . S
H617 C629 0.950 . S
H618 C626 0.950 . S
H619 C628 0.950 . S
H620 C630 0.950 . S
H621 C632 0.950 . S
H622 C634 0.950 . S
H623 C635 0.950 . S
C624 H616 0.950 . S
C624 C625 1.386 1_545 S
C624 C626 1.391 . S
C625 C624 1.386 1_565 S
C625 C629 1.393 . S
C626 H618 0.950 . S
C626 C624 1.391 . S
C626 C627 1.400 . S
C627 C626 1.400 . S
C627 C628 1.398 1_545 S
C627 C633 1.491 . S
C628 H619 0.950 . S
C628 C627 1.398 1_565 S
C628 C629 1.391 . S
C629 H617 0.950 . S
C629 C625 1.393 . S
C629 C628 1.391 . S
C630 H620 0.950 . S
C630 C631 1.386 . S
C630 C632 1.391 . S
C631 C630 1.386 . S
C631 C635 1.393 . S
C632 H621 0.950 . S
C632 C630 1.391 . S
C632 C633 1.400 . S
C633 C627 1.491 . S
C633 C632 1.400 . S
C633 C634 1.398 . S
C634 H622 0.950 . S
C634 C633 1.398 . S
C634 C635 1.391 . S
C635 H623 0.950 . S
C635 C631 1.393 . S
C635 C634 1.391 . S
C165 C107 1.657 . S
C171 C5 1.586 . S
C185 C16 1.655 . S
C191 C120 1.657 . S
C205 C29 1.651 . S
C211 C135 1.587 . S
C225 C44 1.570 . S
C231 C146 1.654 . S
C245 C81 1.655 . S
C251 C55 1.657 . S
C265 C68 1.657 . S
C271 C96 1.580 . S
C285 C118 1.434 . S
C291 C10 1.388 . S
C305 C14 1.435 . S
C311 C140 1.406 . S
C325 C144 1.432 . S
C331 C27 1.433 . S
C345 C49 1.390 . S
C351 C79 1.432 . S
C365 C101 1.392 . S
C371 C53 1.432 . S
C385 C105 1.432 . S
C391 C66 1.432 . S
C405 C3 1.894 . S
C411 C75 1.832 . S
C425 C18 1.858 . S
C431 C1 1.874 . S
C445 C23 1.824 . S
C451 C31 1.849 . S
C465 C42 1.892 . S
C471 C36 1.823 . S
C485 C57 1.860 . S
C491 C40 1.873 . S
C505 C70 1.859 . S
C511 C62 1.819 . S
C525 C83 1.849 . S
C531 C92 1.881 . S
C545 C94 1.886 . S
C551 C114 1.826 . S
C565 C109 1.860 . S
C571 C127 1.826 . S
C585 C122 1.845 . S
C591 C131 1.884 . S
C605 C133 1.890 . S
C611 C153 1.820 . S
C625 C88 1.822 . S
C631 C148 1.861 . S
