# Generated by pormake.
# Topology unn, (4)-cn, num edge types: 1
# Building blocks:
#     Node 0, Type 0, BuildingBlock: KUFVIS_clean_sbu_0, # of connection points: 4
#     Node 1, Type 0, BuildingBlock: KUFVIS_clean_sbu_0, # of connection points: 4
#     Node 2, Type 0, BuildingBlock: KUFVIS_clean_sbu_0, # of connection points: 4
#     Node 3, Type 0, BuildingBlock: KUFVIS_clean_sbu_0, # of connection points: 4
#     Node 4, Type 0, BuildingBlock: KUFVIS_clean_sbu_0, # of connection points: 4
#     Node 5, Type 0, BuildingBlock: KUFVIS_clean_sbu_0, # of connection points: 4
#     Node 6, Type 0, BuildingBlock: KUFVIS_clean_sbu_0, # of connection points: 4
#     Node 7, Type 0, BuildingBlock: KUFVIS_clean_sbu_0, # of connection points: 4
#     Node 8, Type 0, BuildingBlock: KUFVIS_clean_sbu_0, # of connection points: 4
#     Node 9, Type 0, BuildingBlock: KUFVIS_clean_sbu_0, # of connection points: 4
#     Node 10, Type 0, BuildingBlock: KUFVIS_clean_sbu_0, # of connection points: 4
#     Node 11, Type 0, BuildingBlock: KUFVIS_clean_sbu_0, # of connection points: 4
#     Node 12, Type 0, BuildingBlock: KUFVIS_clean_sbu_0, # of connection points: 4
#     Node 13, Type 0, BuildingBlock: KUFVIS_clean_sbu_0, # of connection points: 4
#     Node 14, Type 0, BuildingBlock: KUFVIS_clean_sbu_0, # of connection points: 4
#     Node 15, Type 0, BuildingBlock: KUFVIS_clean_sbu_0, # of connection points: 4
#     Node 16, Type 0, BuildingBlock: KUFVIS_clean_sbu_0, # of connection points: 4
#     Node 17, Type 0, BuildingBlock: KUFVIS_clean_sbu_0, # of connection points: 4
#     Edge 18, Type (0, 0), BuildingBlock: OJICUG_clean_linker_0, # of connection points: 2
#     Edge 19, Type (0, 0), BuildingBlock: OJICUG_clean_linker_0, # of connection points: 2
#     Edge 20, Type (0, 0), BuildingBlock: OJICUG_clean_linker_0, # of connection points: 2
#     Edge 21, Type (0, 0), BuildingBlock: OJICUG_clean_linker_0, # of connection points: 2
#     Edge 22, Type (0, 0), BuildingBlock: OJICUG_clean_linker_0, # of connection points: 2
#     Edge 23, Type (0, 0), BuildingBlock: OJICUG_clean_linker_0, # of connection points: 2
#     Edge 24, Type (0, 0), BuildingBlock: OJICUG_clean_linker_0, # of connection points: 2
#     Edge 25, Type (0, 0), BuildingBlock: OJICUG_clean_linker_0, # of connection points: 2
#     Edge 26, Type (0, 0), BuildingBlock: OJICUG_clean_linker_0, # of connection points: 2
#     Edge 27, Type (0, 0), BuildingBlock: OJICUG_clean_linker_0, # of connection points: 2
#     Edge 28, Type (0, 0), BuildingBlock: OJICUG_clean_linker_0, # of connection points: 2
#     Edge 29, Type (0, 0), BuildingBlock: OJICUG_clean_linker_0, # of connection points: 2
#     Edge 30, Type (0, 0), BuildingBlock: OJICUG_clean_linker_0, # of connection points: 2
#     Edge 31, Type (0, 0), BuildingBlock: OJICUG_clean_linker_0, # of connection points: 2
#     Edge 32, Type (0, 0), BuildingBlock: OJICUG_clean_linker_0, # of connection points: 2
#     Edge 33, Type (0, 0), BuildingBlock: OJICUG_clean_linker_0, # of connection points: 2
#     Edge 34, Type (0, 0), BuildingBlock: OJICUG_clean_linker_0, # of connection points: 2
#     Edge 35, Type (0, 0), BuildingBlock: OJICUG_clean_linker_0, # of connection points: 2
#     Edge 36, Type (0, 0), BuildingBlock: OJICUG_clean_linker_0, # of connection points: 2
#     Edge 37, Type (0, 0), BuildingBlock: OJICUG_clean_linker_0, # of connection points: 2
#     Edge 38, Type (0, 0), BuildingBlock: OJICUG_clean_linker_0, # of connection points: 2
#     Edge 39, Type (0, 0), BuildingBlock: OJICUG_clean_linker_0, # of connection points: 2
#     Edge 40, Type (0, 0), BuildingBlock: OJICUG_clean_linker_0, # of connection points: 2
#     Edge 41, Type (0, 0), BuildingBlock: OJICUG_clean_linker_0, # of connection points: 2
#     Edge 42, Type (0, 0), BuildingBlock: OJICUG_clean_linker_0, # of connection points: 2
#     Edge 43, Type (0, 0), BuildingBlock: OJICUG_clean_linker_0, # of connection points: 2
#     Edge 44, Type (0, 0), BuildingBlock: OJICUG_clean_linker_0, # of connection points: 2
#     Edge 45, Type (0, 0), BuildingBlock: OJICUG_clean_linker_0, # of connection points: 2
#     Edge 46, Type (0, 0), BuildingBlock: OJICUG_clean_linker_0, # of connection points: 2
#     Edge 47, Type (0, 0), BuildingBlock: OJICUG_clean_linker_0, # of connection points: 2
#     Edge 48, Type (0, 0), BuildingBlock: OJICUG_clean_linker_0, # of connection points: 2
#     Edge 49, Type (0, 0), BuildingBlock: OJICUG_clean_linker_0, # of connection points: 2
#     Edge 50, Type (0, 0), BuildingBlock: OJICUG_clean_linker_0, # of connection points: 2
#     Edge 51, Type (0, 0), BuildingBlock: OJICUG_clean_linker_0, # of connection points: 2
#     Edge 52, Type (0, 0), BuildingBlock: OJICUG_clean_linker_0, # of connection points: 2
#     Edge 53, Type (0, 0), BuildingBlock: OJICUG_clean_linker_0, # of connection points: 2
# Relax obj value: 0.184
# Max RMSD: 0.284
# Mean RMSD: 0.268
data_MOF--net-unn--node1-KUFVIS_clean_sbu_0--edge1-OJICUG_clean_linker_0
_symmetry_space_group_name_H-M    P1
_symmetry_Int_Tables_number       1
_symmetry_cell_setting            triclinic
loop_
_symmetry_equiv_pos_as_xyz
'x, y, z'
_cell_length_a     32.834486
_cell_length_b     33.701089
_cell_length_c     28.395927
_cell_angle_alpha  90.889096
_cell_angle_beta   89.953059
_cell_angle_gamma 118.79107
loop_
_atom_site_label
_atom_site_type_symbol
_atom_site_fract_x
_atom_site_fract_y
_atom_site_fract_z
_atom_type_partial_charge
Mn0 Mn 0.9901 0.76741 0.214 0.0
Mn1 Mn 0.95782 0.82116 0.29204 0.0
C2 C 0.9136 0.75118 0.21398 0.0
C3 C 0.0175 0.76561 0.13974 0.0
C4 C 0.96155 0.73672 0.31589 0.0
O5 O 0.05276 0.81653 0.23805 0.0
O6 O 0.02642 0.84344 0.29599 0.0
C7 C 1.0067 0.90991 0.2451 0.0
N8 N 0.96658 0.87483 0.26121 0.0
C9 C 0.92297 0.9125 0.24032 0.0
C10 C 0.96379 0.949 0.2235 0.0
C11 C 1.00581 0.94761 0.22577 0.0
C12 C 0.92594 0.8756 0.25866 0.0
H13 H 0.03922 0.90935 0.24721 0.0
C14 C 0.0596 0.84111 0.27467 0.0
O15 O 0.02122 0.74146 0.17316 0.0
O16 O 1.00151 0.79276 0.15061 0.0
N17 N 0.89362 0.80481 0.29328 0.0
C18 C 0.85777 0.76741 0.31196 0.0
C19 C 0.81343 0.76367 0.31252 0.0
C20 C 0.80678 0.7993 0.29613 0.0
C21 C 0.84414 0.83731 0.2768 0.0
C22 C 0.88737 0.83868 0.27595 0.0
H23 H 0.863 0.74052 0.32585 0.0
O24 O 0.92635 0.72397 0.19493 0.0
O25 O 0.94726 0.78958 0.231 0.0
O26 O 0.97997 0.73397 0.27691 0.0
O27 O 0.94833 0.76619 0.32469 0.0
C28 C 0.84028 0.87413 0.25894 0.0
C29 C 0.87961 0.91158 0.24035 0.0
H30 H 0.96334 0.97835 0.20906 0.0
H31 H 0.03751 0.9757 0.21302 0.0
H32 H 0.78468 0.73334 0.32551 0.0
H33 H 0.77302 0.79741 0.29859 0.0
H34 H 0.80732 0.8741 0.25964 0.0
H35 H 0.87623 0.9397 0.22668 0.0
Mn36 Mn 0.28963 0.26634 0.23245 0.0
Mn37 Mn 0.19874 0.18563 0.17395 0.0
C38 C 0.2178 0.26076 0.24533 0.0
C39 C 0.33464 0.28844 0.29924 0.0
C40 C 0.26286 0.27688 0.13259 0.0
O41 O 0.31687 0.22812 0.20583 0.0
O42 O 0.25454 0.17564 0.16656 0.0
C43 C 0.18589 0.10901 0.23341 0.0
N44 N 0.16892 0.13532 0.21514 0.0
C45 C 0.09486 0.09065 0.25196 0.0
C46 C 0.1115 0.06299 0.27102 0.0
C47 C 0.15728 0.07233 0.26184 0.0
C48 C 0.12517 0.12705 0.22435 0.0
H49 H 0.22094 0.11581 0.22627 0.0
C50 C 0.29737 0.19308 0.17936 0.0
O51 O 0.34993 0.31159 0.26087 0.0
O52 O 0.29654 0.25038 0.29663 0.0
N53 N 0.14253 0.18938 0.17778 0.0
C54 C 0.13094 0.21762 0.15453 0.0
C55 C 0.08612 0.21247 0.15952 0.0
C56 C 0.05337 0.17765 0.18735 0.0
C57 C 0.06578 0.14845 0.21027 0.0
C58 C 0.11114 0.15555 0.20442 0.0
H59 H 0.15569 0.24367 0.13217 0.0
O60 O 0.25574 0.29695 0.25604 0.0
O61 O 0.22271 0.22644 0.22922 0.0
O62 O 0.29079 0.29222 0.16771 0.0
O63 O 0.22737 0.23733 0.13049 0.0
C64 C 0.0346 0.11187 0.23771 0.0
C65 C 0.0492 0.08313 0.25873 0.0
H66 H 0.08938 0.0344 0.29257 0.0
H67 H 0.17038 0.05114 0.2764 0.0
H68 H 0.07655 0.23482 0.14143 0.0
H69 H 0.01855 0.17312 0.1901 0.0
H70 H 0.99915 0.1052 0.24248 0.0
H71 H 0.02486 0.05503 0.27958 0.0
Mn72 Mn 0.74993 0.04812 0.20471 0.0
Mn73 Mn 0.63801 0.97019 0.19944 0.0
C74 C 0.72393 0.99773 0.14283 0.0
C75 C 0.80103 0.12451 0.1824 0.0
C76 C 0.70393 0.95558 0.25864 0.0
O77 O 0.72179 0.07159 0.25213 0.0
O78 O 0.65057 0.01163 0.25499 0.0
C79 C 0.60967 0.03767 0.17188 0.0
N80 N 0.61166 0.99893 0.16234 0.0
C81 C 0.58 0.99303 0.08475 0.0
C82 C 0.57735 0.03277 0.09368 0.0
C83 C 0.59201 0.05505 0.13759 0.0
C84 C 0.5971 0.97692 0.12048 0.0
H85 H 0.62185 0.05536 0.20523 0.0
C86 C 0.683 0.04895 0.27184 0.0
O87 O 0.81302 0.10537 0.21517 0.0
O88 O 0.76156 0.09957 0.16288 0.0
N89 N 0.62092 0.92704 0.14898 0.0
C90 C 0.62441 0.88837 0.14676 0.0
C91 C 0.6089 0.86067 0.10612 0.0
C92 C 0.59018 0.87322 0.06831 0.0
C93 C 0.5864 0.9129 0.07193 0.0
C94 C 0.60121 0.93839 0.11376 0.0
H95 H 0.63919 0.87895 0.17567 0.0
O96 O 0.76782 0.01922 0.1531 0.0
O97 O 0.69729 1.00717 0.16934 0.0
O98 O 0.73999 0.99528 0.2522 0.0
O99 O 0.66558 0.94109 0.23609 0.0
C100 C 0.56932 0.92862 0.03544 0.0
C101 C 0.56713 0.9692 0.04151 0.0
H102 H 0.56421 0.04649 0.06708 0.0
H103 H 0.59019 0.08578 0.14476 0.0
H104 H 0.6119 0.83009 0.10374 0.0
H105 H 0.57901 0.85227 0.03663 0.0
H106 H 0.55845 0.90998 0.00246 0.0
H107 H 0.55601 0.98222 0.01272 0.0
Mn108 Mn 0.99998 0.26905 0.74566 0.0
Mn109 Mn 0.98287 0.35954 0.72782 0.0
C110 C 0.96979 0.29766 0.80601 0.0
C111 C 0.07595 0.32499 0.78754 0.0
C112 C 0.91123 0.2679 0.69997 0.0
O113 O 0.03423 0.29129 0.68541 0.0
O114 O 1.00967 0.3425 0.67212 0.0
C115 C 0.0816 0.42951 0.71885 0.0
N116 N 0.04074 0.4124 0.74271 0.0
C117 C 0.07135 0.47749 0.79502 0.0
C118 C 0.11419 0.49494 0.77203 0.0
C119 C 0.11908 0.47121 0.73328 0.0
C120 C 0.03501 0.43614 0.77855 0.0
H121 H 0.0856 0.41153 0.68897 0.0
C122 C 0.0296 0.31922 0.65938 0.0
O123 O 0.05971 0.28268 0.78495 0.0
O124 O 0.04953 0.33664 0.76617 0.0
N125 N 0.958 0.37901 0.77874 0.0
C126 C 0.91367 0.35902 0.79529 0.0
C127 C 0.90259 0.37915 0.83331 0.0
C128 C 0.93699 0.41988 0.85353 0.0
C129 C 0.98219 0.44018 0.83548 0.0
C130 C 0.99128 0.41838 0.79773 0.0
H131 H 0.88714 0.32762 0.77997 0.0
O132 O 0.96379 0.2572 0.80601 0.0
O133 O 0.99519 0.32168 0.77152 0.0
O134 O 0.93841 0.25101 0.70682 0.0
O135 O 0.92223 0.30836 0.71201 0.0
C136 C 0.01855 0.48122 0.85341 0.0
C137 C 0.06302 0.50001 0.83297 0.0
H138 H 0.14331 0.52687 0.78332 0.0
H139 H 0.15181 0.4848 0.71484 0.0
H140 H 0.86759 0.36331 0.847 0.0
H141 H 0.92829 0.43536 0.88279 0.0
H142 H 1.01258 0.49884 0.88258 0.0
H143 H 0.09045 0.53202 0.84644 0.0
Mn144 Mn 0.78733 0.73426 0.73232 0.0
Mn145 Mn 0.67476 0.66038 0.70689 0.0
C146 C 0.75574 0.73633 0.65876 0.0
C147 C 0.80373 0.67656 0.68836 0.0
C148 C 0.69793 0.74802 0.74857 0.0
O149 O 0.77073 0.69371 0.78795 0.0
O150 O 0.6942 0.66055 0.77324 0.0
C151 C 0.68871 0.58046 0.71885 0.0
N152 N 0.67625 0.60559 0.69112 0.0
C153 C 0.64897 0.54825 0.63007 0.0
C154 C 0.66221 0.52219 0.65768 0.0
C155 C 0.68246 0.53852 0.70213 0.0
C156 C 0.65734 0.59048 0.64802 0.0
H157 H 0.70302 0.5921 0.75364 0.0
C158 C 0.72882 0.67111 0.80082 0.0
O159 O 0.83418 0.71372 0.70613 0.0
O160 O 0.7633 0.67176 0.69456 0.0
N161 N 0.64955 0.65558 0.64543 0.0
C162 C 0.63094 0.68058 0.62735 0.0
C163 C 0.60732 0.66766 0.58409 0.0
C164 C 0.60167 0.6283 0.5609 0.0
C165 C 0.61917 0.60193 0.58106 0.0
C166 C 0.64304 0.61685 0.62393 0.0
H167 H 0.63397 0.71008 0.64595 0.0
O168 O 0.79431 0.769 0.67358 0.0
O169 O 0.73873 0.69973 0.68392 0.0
O170 O 0.73993 0.75642 0.7582 0.0
O171 O 0.67062 0.71456 0.72261 0.0
C172 C 0.61147 0.56014 0.56168 0.0
C173 C 0.62595 0.53312 0.58639 0.0
H174 H 0.65587 0.48907 0.64582 0.0
H175 H 0.69234 0.51839 0.72386 0.0
H176 H 0.5927 0.68741 0.56915 0.0
H177 H 0.58221 0.61767 0.52864 0.0
H178 H 0.59334 0.54782 0.52845 0.0
H179 H 0.61834 0.50034 0.57189 0.0
Mn180 Mn 0.31957 0.05176 0.74712 0.0
Mn181 Mn 0.43041 0.09976 0.71269 0.0
C182 C 0.37887 0.09577 0.79862 0.0
C183 C 0.26475 0.98177 0.78464 0.0
C184 C 0.36968 0.14156 0.69057 0.0
O185 O 0.31262 0.01814 0.68643 0.0
O186 O 0.38737 0.0558 0.66532 0.0
C187 C 0.44113 0.01747 0.7165 0.0
N188 N 0.45401 0.06046 0.73173 0.0
C189 C 0.51459 0.06201 0.78066 0.0
C190 C 0.50237 0.01805 0.76505 0.0
C191 C 0.46539 0.99559 0.73295 0.0
C192 C 0.4896 0.08233 0.76258 0.0
H193 H 0.41296 1.00028 0.69153 0.0
C194 C 0.3448 0.02713 0.65715 0.0
O195 O 0.2507 1.00721 0.76388 0.0
O196 O 0.30838 0.99684 0.78317 0.0
N197 N 0.47455 0.14277 0.75627 0.0
C198 C 0.4823 0.18533 0.76735 0.0
C199 C 0.51725 0.21181 0.80019 0.0
C200 C 0.54409 0.19443 0.82087 0.0
C201 C 0.53573 0.15067 0.80853 0.0
C202 C 0.50027 0.12579 0.7758 0.0
H203 H 0.46175 0.19879 0.75145 0.0
O204 O 0.33693 0.08816 0.80648 0.0
O205 O 0.38416 0.07711 0.76075 0.0
O206 O 0.33108 0.11016 0.70828 0.0
O207 O 0.40829 0.14115 0.69329 0.0
C208 C 0.56113 0.13076 0.82745 0.0
C209 C 0.55072 0.08653 0.81334 0.0
H210 H 0.52135 1.00142 0.77741 0.0
H211 H 0.45575 0.96158 0.7208 0.0
H212 H 0.52353 0.24557 0.80948 0.0
H213 H 0.57105 0.21498 0.84614 0.0
H214 H 0.58882 0.1492 0.85279 0.0
H215 H 0.57062 0.07163 0.82794 0.0
Mn216 Mn 0.66417 0.09541 0.53944 0.0
Mn217 Mn 0.63057 0.15248 0.61169 0.0
C218 C 0.58862 0.08279 0.53188 0.0
C219 C 0.6953 0.0923 0.46778 0.0
C220 C 0.62716 0.0652 0.63921 0.0
O221 O 0.7262 0.14151 0.56881 0.0
O222 O 0.69823 0.17267 0.62051 0.0
C223 C 0.68552 0.24087 0.5654 0.0
N224 N 0.64366 0.20664 0.57916 0.0
C225 C 0.60401 0.24611 0.5515 0.0
C226 C 0.64666 0.28179 0.5371 0.0
C227 C 0.68759 0.27909 0.54401 0.0
C228 C 0.60414 0.20879 0.57239 0.0
H229 H 0.71718 0.23923 0.57093 0.0
C230 C 0.73179 0.16798 0.60353 0.0
O231 O 0.69402 0.06615 0.50172 0.0
O232 O 0.68317 0.12265 0.47737 0.0
N233 N 0.56734 0.13843 0.60789 0.0
C234 C 0.52952 0.10146 0.62432 0.0
C235 C 0.48577 0.0982 0.61881 0.0
C236 C 0.48153 0.13425 0.59942 0.0
C237 C 0.52112 0.17215 0.58309 0.0
C238 C 0.56372 0.17269 0.5877 0.0
H239 H 0.53269 0.07414 0.64022 0.0
O240 O 0.60138 0.05506 0.51451 0.0
O241 O 0.62217 0.12002 0.55142 0.0
O242 O 0.64638 0.0605 0.60169 0.0
O243 O 0.61681 0.097 0.64612 0.0
C244 C 0.52004 0.20939 0.56246 0.0
C245 C 0.56143 0.24629 0.54649 0.0
H246 H 0.64841 0.31147 0.52091 0.0
H247 H 0.7207 0.30655 0.53316 0.0
H248 H 0.45586 0.06747 0.62896 0.0
H249 H 0.44799 0.13278 0.59695 0.0
H250 H 0.48766 0.21009 0.55881 0.0
H251 H 0.56016 0.27472 0.53067 0.0
Mn252 Mn 0.9609 0.597 0.56434 0.0
Mn253 Mn 0.86333 0.52501 0.50715 0.0
C254 C 0.89339 0.60015 0.58112 0.0
C255 C 1.01053 0.61235 0.62748 0.0
C256 C 0.93405 0.61357 0.46601 0.0
O257 O 0.98006 0.55357 0.53383 0.0
O258 O 0.91383 0.50835 0.49549 0.0
C259 C 0.84388 0.44453 0.56335 0.0
N260 N 0.83047 0.47439 0.54727 0.0
C261 C 0.75553 0.43311 0.58339 0.0
C262 C 0.76844 0.40181 0.60017 0.0
C263 C 0.81293 0.40772 0.59034 0.0
C264 C 0.78814 0.46956 0.55736 0.0
H265 H 0.87782 0.44859 0.55543 0.0
C266 C 0.95621 0.52025 0.50628 0.0
O267 O 0.02477 0.63581 0.58928 0.0
O268 O 0.96891 0.57838 0.62756 0.0
N269 N 0.81129 0.5353 0.51459 0.0
C270 C 0.80365 0.56757 0.49447 0.0
C271 C 0.76082 0.56658 0.5012 0.0
C272 C 0.72589 0.53171 0.5271 0.0
C273 C 0.73421 0.49841 0.54679 0.0
C274 C 0.77791 0.50168 0.53989 0.0
H275 H 0.83004 0.59372 0.47341 0.0
O276 O 0.93394 0.63285 0.5923 0.0
O277 O 0.89295 0.56384 0.56271 0.0
O278 O 0.96308 0.62561 0.50032 0.0
O279 O 0.89528 0.57679 0.46467 0.0
C280 C 0.70049 0.46148 0.57195 0.0
C281 C 0.71127 0.4291 0.59067 0.0
H282 H 0.74441 0.37301 0.62041 0.0
H283 H 0.82317 0.3837 0.60313 0.0
H284 H 0.75422 0.59208 0.48592 0.0
H285 H 0.69263 0.53053 0.53089 0.0
H286 H 0.66593 0.45728 0.57649 0.0
H287 H 0.68505 0.40091 0.61003 0.0
Mn288 Mn 0.40225 0.37713 0.57179 0.0
Mn289 Mn 0.3329 0.42186 0.55205 0.0
C290 C 0.39294 0.41917 0.62904 0.0
C291 C 0.39678 0.30791 0.60106 0.0
C292 C 0.43242 0.46988 0.52208 0.0
O293 O 0.36877 0.34436 0.51395 0.0
O294 O 0.33284 0.38443 0.49625 0.0
C295 C 0.24655 0.33375 0.5563 0.0
N296 N 0.27356 0.37656 0.57354 0.0
C297 C 0.21887 0.36515 0.63531 0.0
C298 C 0.19054 0.32091 0.61821 0.0
C299 C 0.20437 0.30522 0.57844 0.0
C300 C 0.26039 0.39211 0.61161 0.0
H301 H 0.25718 0.3214 0.52597 0.0
C302 C 0.34645 0.35553 0.4859 0.0
O303 O 0.43245 0.33577 0.57649 0.0
O304 O 0.36649 0.32061 0.60825 0.0
N305 N 0.32994 0.45881 0.6024 0.0
C306 C 0.36115 0.5024 0.61421 0.0
C307 C 0.35252 0.52325 0.6533 0.0
C308 C 0.31179 0.49919 0.67957 0.0
C309 C 0.27978 0.45464 0.66618 0.0
C310 C 0.29014 0.43573 0.62675 0.0
H311 H 0.39269 0.52081 0.59436 0.0
O312 O 0.4282 0.41195 0.63033 0.0
O313 O 0.36341 0.39994 0.59458 0.0
O314 O 0.4417 0.43736 0.53213 0.0
O315 O 0.39359 0.46839 0.53153 0.0
C316 C 0.23814 0.42817 0.69056 0.0
C317 C 0.20771 0.38345 0.67514 0.0
H318 H 0.15812 0.29869 0.63535 0.0
H319 H 0.18265 0.27114 0.56501 0.0
H320 H 0.37735 0.55767 0.66336 0.0
H321 H 0.30544 0.51527 0.70991 0.0
H322 H 0.22924 0.44182 0.72125 0.0
H323 H 0.17584 0.3634 0.69422 0.0
Mn324 Mn 0.6629 0.60762 0.08 0.0
Mn325 Mn 0.64622 0.69998 0.07318 0.0
C326 C 0.63559 0.6333 0.14529 0.0
C327 C 0.74049 0.66123 0.12011 0.0
C328 C 0.5735 0.60955 0.04141 0.0
O329 O 0.69443 0.63321 0.0194 0.0
O330 O 0.6739 0.68837 0.01478 0.0
C331 C 0.74488 0.77113 0.06852 0.0
N332 N 0.70352 0.75197 0.09153 0.0
C333 C 0.73219 0.81358 0.14828 0.0
C334 C 0.77552 0.83307 0.1261 0.0
C335 C 0.78171 0.81202 0.08573 0.0
C336 C 0.69669 0.77296 0.12934 0.0
H337 H 0.74977 0.75533 0.03725 0.0
C338 C 0.69196 0.66474 -0.0023 0.0
O339 O 0.72404 0.61909 0.11479 0.0
O340 O 0.7134 0.6741 0.10248 0.0
N341 N 0.6204 0.71439 0.12713 0.0
C342 C 0.57607 0.69206 0.14361 0.0
C343 C 0.564 0.70901 0.18362 0.0
C344 C 0.59737 0.74906 0.20589 0.0
C345 C 0.64259 0.77174 0.18799 0.0
C346 C 0.65275 0.75297 0.14828 0.0
H347 H 0.55028 0.66123 0.12667 0.0
O348 O 0.62958 0.59287 0.14226 0.0
O349 O 0.65934 0.65889 0.11102 0.0
O350 O 0.59999 0.5916 0.04568 0.0
O351 O 0.58585 0.65003 0.05443 0.0
C352 C 0.67794 0.81225 0.20797 0.0
C353 C 0.72259 0.83335 0.18789 0.0
H354 H 0.80407 0.86449 0.13937 0.0
H355 H 0.81485 0.82722 0.06797 0.0
H356 H 0.52901 0.69129 0.19722 0.0
H357 H 0.5879 0.76212 0.23667 0.0
H358 H 0.67104 0.82769 0.23851 0.0
H359 H 0.74916 0.86501 0.20293 0.0
Mn360 Mn 0.46207 0.08516 0.07032 0.0
Mn361 Mn 0.36096 0.98793 0.04847 0.0
C362 C 0.42535 0.02933 0.12975 0.0
C363 C 0.41155 0.11585 0.10689 0.0
C364 C 0.44863 0.99401 0.02001 0.0
O365 O 0.44438 0.10104 0.00978 0.0
O366 O 0.38472 0.03079 -0.00604 0.0
C367 C 0.29931 0.02852 0.03628 0.0
N368 N 0.31191 1.00191 0.06134 0.0
C369 C 0.2447 0.97701 0.11087 0.0
C370 C 0.23183 1.00521 0.08652 0.0
C371 C 0.25897 0.03066 0.04869 0.0
C372 C 0.28484 0.97571 0.09636 0.0
H373 H 0.31975 0.04783 0.00691 0.0
C374 C 0.41386 0.07169 -0.01755 0.0
O375 O 0.45543 0.13607 0.10742 0.0
O376 O 0.39544 0.077 0.08715 0.0
N377 N 0.33532 0.9455 0.0984 0.0
C378 C 0.35021 0.91711 0.11553 0.0
C379 C 0.32641 0.8887 0.15306 0.0
C380 C 0.28719 0.8893 0.17208 0.0
C381 C 0.27203 0.91821 0.15328 0.0
C382 C 0.29749 0.94618 0.11628 0.0
H383 H 0.38047 0.91671 0.10112 0.0
O384 O 0.46859 0.05848 0.13115 0.0
O385 O 0.40324 0.03426 0.09439 0.0
O386 O 0.47081 0.03656 0.03015 0.0
O387 O 0.40722 0.96882 0.03337 0.0
C388 C 0.23255 0.92025 0.16969 0.0
C389 C 0.21869 0.94938 0.14826 0.0
H390 H 0.20093 1.00719 0.09621 0.0
H391 H 0.24894 0.05203 0.0293 0.0
H392 H 0.33826 0.86641 0.1673 0.0
H393 H 0.26885 0.86725 0.20095 0.0
H394 H 0.21222 0.8991 0.19833 0.0
H395 H 0.18774 0.94997 0.16053 0.0
Mn396 Mn 0.96513 0.37808 0.08623 0.0
Mn397 Mn 0.0787 0.42493 0.06213 0.0
C398 C 0.01947 0.41042 0.14585 0.0
C399 C 0.90353 0.30452 0.10689 0.0
C400 C 0.02362 0.47388 0.0433 0.0
O401 O 0.96321 0.35511 0.02087 0.0
O402 O 0.03988 0.38666 0.00843 0.0
C403 C 0.08476 0.34 0.06113 0.0
N404 N 0.09869 0.3823 0.0792 0.0
C405 C 0.15457 0.37736 0.13012 0.0
C406 C 0.14158 0.3342 0.11128 0.0
C407 C 0.10634 0.31532 0.07683 0.0
C408 C 0.13224 0.40057 0.11269 0.0
H409 H 0.05784 0.32554 0.03447 0.0
C410 C 0.99753 0.36293 -0.0049 0.0
O411 O 0.89409 0.33575 0.09266 0.0
O412 O 0.94662 0.31649 0.10976 0.0
N413 N 0.11935 0.46261 0.11128 0.0
C414 C 0.12714 0.50426 0.12641 0.0
C415 C 0.15972 0.52685 0.16258 0.0
C416 C 0.18426 0.50661 0.18241 0.0
C417 C 0.17603 0.46395 0.16583 0.0
C418 C 0.14303 0.443 0.12983 0.0
H419 H 0.10837 0.51994 0.11121 0.0
O420 O 0.97744 0.40317 0.1519 0.0
O421 O 0.02775 0.39794 0.10531 0.0
O422 O 0.98337 0.44267 0.05794 0.0
O423 O 0.06049 0.47013 0.04505 0.0
C424 C 0.1991 0.4413 0.18376 0.0
C425 C 0.18864 0.3982 0.16564 0.0
H426 H 0.15836 0.31527 0.12316 0.0
H427 H 0.09598 0.2819 0.0623 0.0
H428 H 0.16591 0.55978 0.17514 0.0
H429 H 0.20931 0.52411 0.21035 0.0
H430 H 0.22493 0.45672 0.21148 0.0
H431 H 0.20684 0.38129 0.17952 0.0
Mn432 Mn 0.3241 0.43891 0.88873 0.0
Mn433 Mn 0.28731 0.49035 0.96485 0.0
C434 C 0.24817 0.42345 0.8821 0.0
C435 C 0.35955 0.44228 0.81883 0.0
C436 C 0.28778 0.40351 -0.01281 0.0
O437 O 0.38441 0.48508 0.91929 0.0
O438 O 0.35593 0.51395 0.97297 0.0
C439 C 0.33754 0.58028 0.92043 0.0
N440 N 0.29694 0.5446 0.93471 0.0
C441 C 0.25338 0.58142 0.91067 0.0
C442 C 0.29472 0.61862 0.89587 0.0
C443 C 0.33697 0.61793 0.90059 0.0
C444 C 0.25613 0.54467 0.92968 0.0
H445 H 0.37016 0.58012 0.92426 0.0
C446 C 0.38978 0.51061 0.95459 0.0
O447 O 0.35769 0.41427 0.85091 0.0
O448 O 0.34331 0.4695 0.82844 0.0
N449 N 0.2231 0.47305 0.96233 0.0
C450 C 0.18672 0.43454 -0.02173 0.0
C451 C 0.14202 0.42947 0.97521 0.0
C452 C 0.13539 0.46514 0.95881 0.0
C453 C 0.17337 0.50436 0.94232 0.0
C454 C 0.21706 0.5069 0.94463 0.0
H455 H 0.19176 0.40757 -0.00775 0.0
O456 O 0.26256 0.39784 0.86235 0.0
O457 O 0.28041 0.46057 0.90312 0.0
O458 O 0.30714 0.40114 0.94881 0.0
O459 O 0.27666 0.43442 -0.00339 0.0
C460 C 0.16961 0.54103 0.92379 0.0
C461 C 0.2096 0.57947 0.90768 0.0
H462 H 0.29447 0.64788 0.88092 0.0
H463 H 0.36903 0.64645 0.88919 0.0
H464 H 0.1132 0.3978 -0.01493 0.0
H465 H 0.1012 0.46239 0.95885 0.0
H466 H 0.13616 0.53996 0.92171 0.0
H467 H 0.20632 0.6074 0.89333 0.0
Mn468 Mn 0.6193 0.92736 0.89081 0.0
Mn469 Mn 0.5201 0.85646 0.83529 0.0
C470 C 0.55331 0.93281 0.90825 0.0
C471 C 0.66918 0.94125 0.95354 0.0
C472 C 0.59248 0.9434 0.79241 0.0
O473 O 0.63602 0.88238 0.86046 0.0
O474 O 0.56877 0.83686 0.82368 0.0
C475 C 0.49764 0.77658 0.89376 0.0
N476 N 0.48598 0.80745 0.87696 0.0
C477 C 0.41421 0.77391 0.91995 0.0
C478 C 0.42531 0.74159 0.93746 0.0
C479 C 0.46723 0.74296 0.92433 0.0
C480 C 0.44579 0.80649 0.88948 0.0
H481 H 0.52991 0.77762 0.88394 0.0
C482 C 0.61132 0.84855 0.83388 0.0
O483 O 0.68377 0.96468 0.91533 0.0
O484 O 0.627 0.90838 0.95385 0.0
N485 N 0.47023 0.8701 0.84301 0.0
C486 C 0.46454 0.90346 0.82272 0.0
C487 C 0.42475 0.9074 0.83291 0.0
C488 C 0.39082 0.87643 0.86314 0.0
C489 C 0.39688 0.84162 0.88265 0.0
C490 C 0.43735 0.83955 0.87133 0.0
H491 H 0.49034 0.92691 0.79918 0.0
O492 O 0.59442 0.96499 0.91867 0.0
O493 O 0.55157 0.89583 0.89008 0.0
O494 O 0.62161 0.9556 0.82664 0.0
O495 O 0.55336 0.90696 0.79155 0.0
C496 C 0.36454 0.8091 0.91315 0.0
C497 C 0.37318 0.77524 0.93175 0.0
H498 H 0.40198 0.71564 0.96109 0.0
H499 H 0.47609 0.7182 0.93779 0.0
H500 H 0.4202 0.93419 0.81751 0.0
H501 H 0.36021 0.8796 0.87099 0.0
H502 H 0.33297 0.80988 0.92261 0.0
H503 H 0.3481 0.75047 0.95522 0.0
Mn504 Mn 0.10272 0.7212 0.87907 0.0
Mn505 Mn 0.9876 0.65309 0.87245 0.0
C506 C 0.0724 0.67478 0.81424 0.0
C507 C 0.15532 0.79916 0.85888 0.0
C508 C 0.04953 0.6287 0.93054 0.0
O509 O 0.07919 0.74277 0.93248 0.0
O510 O 1.00198 0.69858 0.9247 0.0
C511 C 0.96844 0.72435 0.83664 0.0
N512 N 0.96559 0.68288 0.8312 0.0
C513 C 0.93215 0.6732 0.75382 0.0
C514 C 0.9344 0.71569 0.75864 0.0
C515 C 0.95253 0.74133 0.8003 0.0
C516 C 0.94822 0.65793 0.79131 0.0
H517 H 0.98321 0.74445 0.86828 0.0
C518 C 0.03806 0.72885 0.9464 0.0
O519 O 0.16799 0.77752 0.88792 0.0
O520 O 0.11446 0.77569 0.84211 0.0
N521 N 0.96796 0.60686 0.82472 0.0
C522 C 0.96866 0.56677 0.82565 0.0
C523 C 0.95067 0.5365 0.78711 0.0
C524 C 0.93214 0.5478 0.74818 0.0
C525 C 0.93123 0.589 0.74846 0.0
C526 C 0.94871 0.6173 0.78824 0.0
H527 H 0.983 0.55808 0.85549 0.0
O528 O 0.1166 0.69422 0.82251 0.0
O529 O 0.04824 0.68481 0.84363 0.0
O530 O 0.0894 0.66388 0.92081 0.0
O531 O 1.01066 0.62217 0.91341 0.0
C532 C 0.91439 0.60344 0.71055 0.0
C533 C 0.91553 0.64583 0.71292 0.0
H534 H 0.92271 0.72912 0.73043 0.0
H535 H 0.95467 0.77428 0.80417 0.0
H536 H 0.95145 0.50477 0.78722 0.0
H537 H 0.91896 0.52473 0.71818 0.0
H538 H 0.90121 0.58242 0.67919 0.0
H539 H 0.904 0.65736 0.68302 0.0
Mn540 Mn 0.33323 0.93509 0.40188 0.0
Mn541 Mn 0.31482 0.02619 0.39529 0.0
C542 C 0.306 0.96015 0.46806 0.0
C543 C 0.41168 0.98999 0.44118 0.0
C544 C 0.24288 0.93557 0.36339 0.0
O545 O 0.36337 0.96035 0.34046 0.0
O546 O 0.34248 0.01521 0.33629 0.0
C547 C 0.41312 0.09816 0.39055 0.0
N548 N 0.37172 0.07867 0.41347 0.0
C549 C 0.3998 0.14004 0.47045 0.0
C550 C 0.44314 0.15998 0.44826 0.0
C551 C 0.44966 0.13919 0.40786 0.0
C552 C 0.36457 0.09936 0.45134 0.0
H553 H 0.41824 0.08249 0.35928 0.0
C554 C 0.36 0.99133 0.31855 0.0
O555 O 0.39549 0.94788 0.43595 0.0
O556 O 0.38377 1.00206 0.42403 0.0
N557 N 0.28877 0.03988 0.44949 0.0
C558 C 0.24475 0.01654 0.46654 0.0
C559 C 0.23255 0.0328 0.507 0.0
C560 C 0.26551 0.07311 0.52917 0.0
C561 C 0.31044 0.09675 0.51072 0.0
C562 C 0.32073 0.0787 0.47053 0.0
H563 H 0.21934 0.98541 0.44978 0.0
O564 O 0.3007 0.92 0.46475 0.0
O565 O 0.32889 0.98571 0.43329 0.0
O566 O 0.26948 0.91773 0.36794 0.0
O567 O 0.25492 0.9759 0.37664 0.0
C568 C 0.34544 0.13743 0.53072 0.0
C569 C 0.38993 0.15927 0.51034 0.0
H570 H 0.47147 0.19151 0.46159 0.0
H571 H 0.48283 0.15469 0.39015 0.0
H572 H 0.19781 0.01429 0.52106 0.0
H573 H 0.25597 0.08558 0.56036 0.0
H574 H 0.33837 0.15242 0.56153 0.0
H575 H 0.4161 0.19106 0.5254 0.0
Mn576 Mn 0.12725 0.40299 0.3978 0.0
Mn577 Mn 1.01329 0.32913 0.37254 0.0
C578 C 0.0948 0.40627 0.32404 0.0
C579 C 0.13793 0.34177 0.35441 0.0
C580 C 0.03944 0.41649 0.42142 0.0
O581 O 0.10972 0.36259 0.4537 0.0
O582 O 0.03407 0.31966 0.43535 0.0
C583 C 0.0256 0.2476 0.36442 0.0
N584 N 1.01296 0.27676 0.34479 0.0
C585 C 0.98786 0.23183 0.2735 0.0
C586 C 1.00158 0.20193 0.29253 0.0
C587 C 0.02064 0.2099 0.33814 0.0
C588 C 0.99436 0.26923 0.30107 0.0
H589 H 0.03967 0.25334 0.39976 0.0
C590 C 0.06874 0.33244 0.46362 0.0
O591 O 0.17071 0.37819 0.3711 0.0
O592 O 0.09896 0.34036 0.36064 0.0
N593 N 0.98728 0.33392 0.31454 0.0
C594 C 0.97102 0.36306 0.30383 0.0
C595 C 0.94823 0.35808 0.26078 0.0
C596 C 0.9418 0.32282 0.2297 0.0
C597 C 0.95798 0.29265 0.24181 0.0
C598 C 0.9801 0.29909 0.28539 0.0
H599 H 0.97548 0.38997 0.32792 0.0
O600 O 0.13435 0.43778 0.33836 0.0
O601 O 0.07718 0.37018 0.34996 0.0
O602 O 0.08288 0.42767 0.42494 0.0
O603 O 1.01006 0.38067 0.39992 0.0
C604 C 0.95242 0.25609 0.21284 0.0
C605 C 0.9671 0.22556 0.22868 0.0
H606 H 0.99678 0.17227 0.27285 0.0
H607 H 0.031 0.18677 0.35318 0.0
H608 H 0.93547 0.3812 0.25164 0.0
H609 H 0.92378 0.31909 0.19708 0.0
H610 H 0.93672 0.25096 0.17848 0.0
H611 H 0.96153 0.19701 0.20638 0.0
Mn612 Mn 0.62854 0.71402 0.422 0.0
Mn613 Mn 0.74341 0.76349 0.40176 0.0
C614 C 0.68048 0.74552 0.483 0.0
C615 C 0.5648 0.64138 0.43914 0.0
C616 C 0.6858 0.80908 0.37839 0.0
O617 O 0.63068 0.69232 0.35743 0.0
O618 O 0.70807 0.72253 0.34824 0.0
C619 C 0.75758 0.68319 0.40482 0.0
N620 N 0.76685 0.72455 0.42237 0.0
C621 C 0.82501 0.72636 0.47519 0.0
C622 C 0.81692 0.68435 0.45686 0.0
C623 C 0.783 0.66263 0.42155 0.0
C624 C 0.79936 0.74567 0.4564 0.0
H625 H 0.73179 0.66661 0.37741 0.0
C626 C 0.66595 0.69861 0.33396 0.0
O627 O 0.55772 0.67376 0.42348 0.0
O628 O 0.60743 0.65177 0.44526 0.0
N629 N 0.78028 0.80357 0.45155 0.0
C630 C 0.78377 0.84397 0.46548 0.0
C631 C 0.81438 0.86889 0.50232 0.0
C632 C 0.84147 0.8523 0.52402 0.0
C633 C 0.83756 0.81083 0.50875 0.0
C634 C 0.80611 0.78728 0.47221 0.0
H635 H 0.76314 0.85692 0.44878 0.0
O636 O 0.63813 0.738 0.48785 0.0
O637 O 0.69057 0.73437 0.44267 0.0
O638 O 0.64607 0.77815 0.39395 0.0
O639 O 0.72287 0.80582 0.38046 0.0
C640 C 0.86364 0.79195 0.52831 0.0
C641 C 0.85778 0.75002 0.51112 0.0
H642 H 0.83654 0.6685 0.46972 0.0
H643 H 0.77661 0.63021 0.40714 0.0
H644 H 0.81721 0.90088 0.51387 0.0
H645 H 0.86515 0.87169 0.55233 0.0
H646 H 0.88851 0.80951 0.55639 0.0
H647 H 0.87864 0.73627 0.52584 0.0
C648 C 0.99529 0.76153 0.05566 0.0
C649 C 0.0245 0.75848 0.09012 0.0
H650 H 0.97586 0.75344 -0.01759 0.0
C651 C 0.05839 0.74692 0.0768 0.0
H652 H 0.96838 0.76989 0.06548 0.0
C653 C 0.06336 0.73891 0.02948 0.0
C654 C 0.03362 0.74106 -0.00495 0.0
H655 H 0.08099 0.74419 0.10284 0.0
H656 H 0.08965 0.7296 0.01991 0.0
C657 C 0.99929 0.75207 0.00838 0.0
C658 C 0.27163 0.32618 0.01193 0.0
C659 C 0.27979 0.37008 0.02387 0.0
H660 H 0.25888 0.26149 0.03746 0.0
C661 C 0.28177 0.38255 0.07157 0.0
H662 H 0.26964 0.31567 0.97537 0.0
C663 C 0.27707 0.35224 0.10668 0.0
C664 C 0.26908 0.3085 0.0948 0.0
H665 H 0.28802 0.41614 0.08182 0.0
H666 H 0.279 0.36278 0.14324 0.0
C667 C 0.26551 0.29529 0.04723 0.0
C668 C 0.7023 1.00989 0.06388 0.0
C669 C 0.71138 0.98257 0.09407 0.0
H670 H 0.68407 0.01874 -0.00588 0.0
C671 C 0.71362 0.94474 0.07594 0.0
H672 H 0.70183 0.03999 0.07718 0.0
C673 C 0.7026 0.93209 0.02854 0.0
C674 C 0.69235 0.95895 -0.00131 0.0
H675 H 0.72192 0.92412 0.09877 0.0
H676 H 0.70068 0.90083 0.01557 0.0
C677 C 0.69331 0.9984 0.01638 0.0
C678 C 0.71257 0.11604 0.38499 0.0
C679 C 0.69761 0.08141 0.41815 0.0
H680 H 0.71834 0.13275 0.31195 0.0
C681 C 0.67479 0.03606 0.40274 0.0
H682 H 0.72929 0.15127 0.39626 0.0
C683 C 0.66648 0.0255 0.3548 0.0
C684 C 0.68164 0.06017 0.3216 0.0
H685 H 0.6617 1.00881 0.4278 0.0
H686 H 0.64976 0.99024 0.34361 0.0
C687 C 0.70519 0.10552 0.33704 0.0
C688 C 0.93557 0.62957 0.38017 0.0
C689 C 0.94396 0.64526 0.42715 0.0
H690 H 0.93582 0.64677 0.30759 0.0
C691 C 0.95892 0.69113 0.43713 0.0
H692 H 0.9237 0.59419 0.3718 0.0
C693 C 0.96437 0.72069 0.40079 0.0
C694 C 0.95627 0.70517 0.35373 0.0
H695 H 0.96492 0.70379 0.47318 0.0
H696 H 0.97515 0.7558 0.40948 0.0
C697 C 0.94249 0.65952 0.34359 0.0
C698 C 0.34032 0.2961 0.42965 0.0
C699 C 0.34286 0.3385 0.4375 0.0
H700 H 0.33807 0.24769 0.37874 0.0
C701 C 0.34995 0.36698 0.39932 0.0
H702 H 0.33581 0.27391 0.45871 0.0
C703 C 0.35321 0.35265 0.35373 0.0
C704 C 0.3487 0.30945 0.34587 0.0
H705 H 0.35351 0.4004 0.40477 0.0
H706 H 0.35614 0.37407 0.32444 0.0
C707 C 0.34291 0.2816 0.38421 0.0
C708 C 0.93736 0.29537 0.88545 0.0
C709 C 0.97154 0.31861 0.85174 0.0
H710 H 0.91882 0.29139 0.9583 0.0
C711 C 1.01296 0.35689 0.86525 0.0
H712 H 0.90554 0.26509 0.87574 0.0
C713 C 0.02116 0.37071 0.91184 0.0
C714 C 0.98799 0.3471 0.94605 0.0
H715 H 0.04045 0.37504 0.84045 0.0
H716 H 0.05383 0.39965 0.92079 0.0
C717 C 0.94527 0.30998 0.93247 0.0
C718 C 0.67704 0.67761 0.91595 0.0
C719 C 0.70452 0.66965 0.948 0.0
H720 H 0.66244 0.68258 0.84397 0.0
C721 C 0.73998 0.66109 0.93151 0.0
H722 H 0.64904 0.68357 0.92785 0.0
C723 C 0.74795 0.66079 0.88324 0.0
C724 C 0.71944 0.66749 0.85126 0.0
H725 H 0.76133 0.65457 0.9559 0.0
H726 H 0.7759 0.65497 0.87091 0.0
C727 C 0.68409 0.67604 0.86798 0.0
C728 C 0.41561 0.12437 0.92189 0.0
C729 C 0.41546 0.0841 0.93367 0.0
H730 H 0.40528 0.161 0.8664 0.0
C731 C 0.41679 0.05531 0.89847 0.0
H732 H 0.41574 0.14737 0.94906 0.0
C733 C 0.41317 0.06418 0.85164 0.0
C734 C 0.40686 0.10117 0.84004 0.0
H735 H 0.41825 0.02484 0.9073 0.0
H736 H 0.40936 0.03897 0.82532 0.0
C737 C 0.41073 0.13266 0.87494 0.0
C738 C 0.28981 0.97024 0.59799 0.0
C739 C 0.33218 1.00899 0.60903 0.0
H740 H 0.24759 0.92412 0.54296 0.0
C741 C 0.36229 0.0331 0.57274 0.0
H742 H 0.2656 0.95127 0.62543 0.0
C743 C 0.35183 0.01849 0.52673 0.0
C744 C 0.31047 0.97943 0.51528 0.0
H745 H 0.39425 0.06353 0.57954 0.0
H746 H 0.37745 0.03729 0.50052 0.0
C747 C 0.27925 0.95514 0.55111 0.0
C748 C 0.08554 0.33223 0.59473 0.0
C749 C 0.0402 0.31868 0.60974 0.0
H750 H 0.13055 0.34639 0.53549 0.0
C751 C 1.00369 0.30269 0.57705 0.0
H752 H 0.11381 0.34401 0.62 0.0
C753 C 1.01265 0.30261 0.52926 0.0
C754 C 0.05856 0.31972 0.51335 0.0
H755 H 0.96825 0.29096 0.5885 0.0
H756 H 0.98382 0.29201 0.50481 0.0
C757 C 0.09483 0.3331 0.54662 0.0
C758 C 0.71672 0.71253 0.53328 0.0
C759 C 0.70646 0.74775 0.52509 0.0
H760 H 0.74036 0.68108 0.58341 0.0
C761 C 0.71322 0.77949 0.56067 0.0
H762 H 0.7102 0.6869 0.50645 0.0
C763 C 0.72993 0.77587 0.60446 0.0
C764 C 0.73806 0.73946 0.61318 0.0
H765 H 0.70456 0.80627 0.55488 0.0
H766 H 0.73497 0.80047 0.63201 0.0
C767 C 0.73284 0.70857 0.57722 0.0
C768 C 0.40535 0.47298 0.74683 0.0
C769 C 0.36918 0.43706 0.77023 0.0
H770 H 0.44115 0.4954 0.68134 0.0
C771 C 0.3369 0.39867 0.74514 0.0
H772 H 0.42945 0.50345 0.76588 0.0
C773 C 0.34185 0.39529 0.69695 0.0
C774 C 0.37948 0.43006 0.67381 0.0
H775 H 0.30773 0.37151 0.76279 0.0
H776 H 0.31797 0.36441 0.67831 0.0
C777 C 0.41121 0.46897 0.69877 0.0
C778 C 0.60212 0.98735 0.66894 0.0
C779 C 0.61838 0.03364 0.67798 0.0
H780 H 0.58017 0.922 0.69869 0.0
C781 C 0.62691 0.05006 0.72471 0.0
H782 H 0.59514 0.97397 0.63318 0.0
C783 C 0.62001 0.02081 0.76178 0.0
C784 C 0.60297 0.97442 0.75286 0.0
H785 H 0.63956 0.08567 0.73254 0.0
H786 H 0.6267 0.03423 0.79754 0.0
C787 C 0.59363 0.95778 0.70624 0.0
C788 C 0.04892 0.68514 0.73542 0.0
C789 C 0.05644 0.65759 0.76669 0.0
H790 H 0.03028 0.69262 0.6653 0.0
C791 C 0.05511 0.61754 0.75026 0.0
H792 H 0.05138 0.71693 0.74739 0.0
C793 C 0.04229 0.60322 0.70354 0.0
C794 C 0.03376 0.63044 0.67254 0.0
H795 H 0.06242 0.59675 0.77386 0.0
H796 H 0.03806 0.57067 0.69191 0.0
C797 C 0.03802 0.67182 0.68848 0.0
C798 C 0.69044 0.70433 0.25159 0.0
C799 C 0.65741 0.68102 0.28589 0.0
H800 H 0.7084 0.70883 0.17994 0.0
C801 C 0.61469 0.64352 0.27299 0.0
H802 H 0.72302 0.73366 0.26026 0.0
C803 C 0.606 0.62893 0.22615 0.0
C804 C 0.63946 0.65256 0.1921 0.0
H805 H 0.58846 0.6252 0.29911 0.0
H806 H 0.57384 0.59893 0.21665 0.0
C807 C 0.68148 0.69042 0.20516 0.0
C808 C 0.4224 0.99364 0.20609 0.0
C809 C 0.40266 0.01137 0.17472 0.0
H810 H 0.42425 0.97331 0.27669 0.0
C811 C 0.36784 0.02106 0.19045 0.0
H812 H 0.45003 0.98688 0.19478 0.0
C813 C 0.35399 0.01459 0.23728 0.0
C814 C 0.37464 0.99809 0.26911 0.0
H815 H 0.35286 0.03571 0.16722 0.0
H816 H 0.32746 0.02292 0.24862 0.0
C817 C 0.40805 0.98646 0.25288 0.0
C818 C 0.07208 0.37643 0.24263 0.0
C819 C 0.07812 0.40877 0.27731 0.0
H820 H 0.04899 0.35231 0.17242 0.0
C821 C 0.07158 0.44569 0.26616 0.0
H822 H 0.07783 0.34822 0.25058 0.0
C823 C 0.05509 0.44807 0.22167 0.0
C824 C 0.04712 0.41464 0.18754 0.0
H825 H 0.07728 0.47151 0.29249 0.0
H826 H 0.04712 0.47506 0.21436 0.0
C827 C 0.0565 0.37927 0.1979 0.0
C828 C 0.18529 0.87477 0.30769 0.0
C829 C 0.19588 0.90969 0.34112 0.0
H830 H 0.13449 0.82646 0.2595 0.0
C831 C 0.16166 0.92239 0.35124 0.0
H832 H 0.21098 0.86458 0.2985 0.0
C833 C 0.11808 0.9007 0.32913 0.0
C834 C 0.10733 0.86593 0.29559 0.0
H835 H 0.16845 0.94924 0.3766 0.0
H836 H 0.09274 0.91133 0.3384 0.0
C837 C 0.14162 0.85336 0.28491 0.0
C838 C 0.16532 0.29326 0.24493 0.0
C839 C 0.17529 0.26035 0.26351 0.0
H840 H 0.14789 0.34598 0.25939 0.0
C841 C 0.16405 0.24872 0.31105 0.0
H842 H 0.17498 0.30423 0.20908 0.0
C843 C 0.14926 0.27344 0.3404 0.0
C844 C 0.1448 0.30987 0.32261 0.0
H845 H 0.17262 0.22467 0.32707 0.0
H846 H 0.1445 0.26615 0.37763 0.0
C847 C 0.15074 0.31799 0.27412 0.0
C848 C 0.65872 0.89264 0.31466 0.0
C849 C 0.70235 0.92328 0.29519 0.0
H850 H 0.61885 0.83317 0.35556 0.0
C851 C 0.74097 0.91852 0.30751 0.0
H852 H 0.628 0.89552 0.30663 0.0
C853 C 0.7355 0.88263 0.33622 0.0
C854 C 0.69123 0.85034 0.35344 0.0
H855 H 0.77485 0.94105 0.29325 0.0
H856 H 0.76614 0.87939 0.34347 0.0
C857 C 0.65319 0.85672 0.34308 0.0
C858 C 0.8197 0.20627 0.1815 0.0
C859 C 0.82926 0.17169 0.16578 0.0
H860 H 0.83439 0.27563 0.17428 0.0
C861 C 0.85738 0.17977 0.12605 0.0
H862 H 0.79633 0.20027 0.21072 0.0
C863 C 0.87759 0.22204 0.1042 0.0
C864 C 0.86993 0.25748 0.12102 0.0
H865 H 0.86361 0.15322 0.11167 0.0
H866 H 0.90109 0.22775 0.07513 0.0
C867 C 0.84009 0.24887 0.1596 0.0
C868 C 0.81355 0.73485 0.13951 0.0
C869 C 0.78147 0.69 0.15086 0.0
H870 H 0.8811 0.79187 0.15329 0.0
C871 C 0.78954 0.67179 0.19169 0.0
H872 H 0.80882 0.7494 0.10779 0.0
C873 C 0.83042 0.6963 0.21822 0.0
C874 C 0.8647 0.7396 0.20453 0.0
H875 H 0.76518 0.63761 0.20195 0.0
H876 H 0.83744 0.67943 0.24679 0.0
C877 C 0.85478 0.75947 0.16607 0.0
C878 C 0.37513 0.19917 0.15901 0.0
C879 C 0.32638 0.17261 0.16191 0.0
H880 H 0.43987 0.20252 0.13905 0.0
C881 C 0.30625 0.12671 0.14816 0.0
H882 H 0.39205 0.23464 0.16933 0.0
C883 C 0.33408 0.10817 0.13184 0.0
C884 C 0.38246 0.13503 0.12726 0.0
H885 H 0.26907 0.1049 0.15068 0.0
H886 H 0.31779 0.0726 0.12332 0.0
C887 C 0.40268 0.18074 0.14165 0.0
C888 C 0.81301 0.18039 0.62151 0.0
C889 C 0.77846 0.19359 0.62688 0.0
H890 H 0.8816 0.19262 0.64091 0.0
C891 C 0.78799 0.23057 0.65707 0.0
H892 H 0.80682 0.15183 0.59888 0.0
C893 C 0.83061 0.25383 0.68089 0.0
C894 C 0.86516 0.24067 0.67592 0.0
H895 H 0.76247 0.24185 0.66227 0.0
H896 H 0.83639 0.28229 0.70348 0.0
C897 C 0.85572 0.20345 0.64601 0.0
C898 C 0.85767 0.64959 0.58344 0.0
C899 C 0.85333 0.60714 0.59451 0.0
H900 H 0.84661 0.70492 0.60524 0.0
C901 C 0.82428 0.58359 0.63233 0.0
H902 H 0.88016 0.66886 0.55496 0.0
C903 C 0.80494 0.60461 0.66153 0.0
C904 C 0.81473 0.64953 0.65347 0.0
H905 H 0.82084 0.55129 0.64252 0.0
H906 H 0.78593 0.58734 0.69259 0.0
C907 C 0.83922 0.67069 0.61277 0.0
C908 C 0.41392 0.20855 0.63808 0.0
C909 C 0.37332 0.1818 0.66472 0.0
H910 H 0.45336 0.26834 0.59738 0.0
C911 C 0.33981 0.19612 0.66773 0.0
H912 H 0.44074 0.19885 0.63415 0.0
C913 C 0.34754 0.2366 0.64632 0.0
C914 C 0.38887 0.26389 0.6211 0.0
H915 H 0.30833 0.17686 0.68761 0.0
H916 H 0.32115 0.24691 0.65027 0.0
C917 C 0.42154 0.24878 0.61669 0.0
C918 C 0.25666 0.91739 0.83513 0.0
C919 C 0.23517 0.93707 0.80764 0.0
H920 H 0.24921 0.85933 0.8731 0.0
C921 C 0.18712 0.91191 0.80009 0.0
H922 H 0.29373 0.93573 0.84201 0.0
C923 C 0.16176 0.86786 0.81789 0.0
C924 C 0.18348 0.84759 0.84407 0.0
H925 H 0.16936 0.92558 0.77918 0.0
H926 H 0.12485 0.84927 0.81027 0.0
C927 C 0.23123 0.87343 0.8532 0.0
C928 C 0.12517 0.33984 0.86034 0.0
C929 C 0.1164 0.3558 0.81822 0.0
H930 H 0.17331 0.35124 0.91652 0.0
C931 C 0.14741 0.40055 0.80549 0.0
H932 H 0.1018 0.30575 0.87163 0.0
C933 C 0.1881 0.4274 0.83217 0.0
C934 C 0.19876 0.41003 0.8723 0.0
H935 H 0.14239 0.41335 0.77274 0.0
H936 H 0.21366 0.45964 0.81834 0.0
C937 C 0.1656 0.36654 0.88694 0.0
C938 C 0.63172 0.76549 0.75767 0.0
C939 C 0.67749 0.77555 0.76998 0.0
H940 H 0.57522 0.77955 0.76788 0.0
C941 C 0.70119 0.8099 0.80399 0.0
H942 H 0.61188 0.73933 0.7317 0.0
C943 C 0.6797 0.83325 0.82494 0.0
C944 C 0.63378 0.82281 0.81267 0.0
H945 H 0.73616 0.81852 0.81475 0.0
H946 H 0.69918 0.85952 0.85093 0.0
C947 C 0.61029 0.78854 0.77866 0.0
C948 C 0.45556 0.54847 0.49346 0.0
C949 C 0.46628 0.51253 0.49779 0.0
H950 H 0.47703 0.61627 0.47091 0.0
C951 C 0.5077 0.51826 0.47754 0.0
H952 H 0.42391 0.54588 0.50804 0.0
C953 C 0.53803 0.55917 0.45546 0.0
C954 C 0.52789 0.59549 0.45314 0.0
H955 H 0.51702 0.49157 0.47931 0.0
H956 H 0.57055 0.5631 0.44177 0.0
C957 C 0.48573 0.58909 0.47145 0.0
C958 C 0.5283 0.08925 0.48326 0.0
C959 C 0.53922 0.0705 0.52212 0.0
H960 H 0.48052 0.0781 0.42621 0.0
C961 C 0.50514 0.02737 0.53677 0.0
H962 H 0.55431 0.12129 0.46946 0.0
C963 C 0.46337 1.00237 0.5115 0.0
C964 C 0.45388 0.01964 0.4707 0.0
H965 H 0.51276 0.01107 0.56546 0.0
H966 H 0.43928 0.96849 0.52279 0.0
C967 C 0.48607 0.06417 0.45799 0.0
C968 C 0.04625 0.4825 0.47298 0.0
C969 C 0.02012 0.44487 0.44316 0.0
H970 H 0.04689 0.53566 0.51653 0.0
C971 C 0.9731 0.4328 0.43467 0.0
H972 H 0.08234 0.49286 0.48061 0.0
C973 C 0.95282 0.457 0.45518 0.0
C974 C 0.97857 0.49442 0.48513 0.0
H975 H 0.95133 0.40419 0.41201 0.0
H976 H 0.91663 0.44613 0.44742 0.0
C977 C 0.02572 0.50692 0.49373 0.0
C978 C 0.44822 0.57328 0.00679 0.0
C979 C 0.43698 0.53609 0.97642 0.0
H980 H 0.49968 0.62541 0.05072 0.0
C981 C 0.47093 0.52254 0.96825 0.0
H982 H 0.42307 0.58467 0.01398 0.0
C983 C 0.51486 0.54551 -0.00997 0.0
C984 C 0.52625 0.58309 0.01991 0.0
H985 H 0.46339 0.49377 0.94537 0.0
H986 H 0.54013 0.53428 -0.01717 0.0
C987 C 0.4923 0.59666 0.02788 0.0
C988 C 0.51954 0.98372 0.91929 0.0
C989 C 0.5141 0.93992 0.92462 0.0
H990 H 0.50502 0.03543 0.94593 0.0
C991 C 0.4823 0.91183 0.95843 0.0
H992 H 0.54396 1.00642 0.89385 0.0
C993 C 0.45951 0.9286 -0.01154 0.0
C994 C 0.46938 0.97423 -0.01366 0.0
H995 H 0.47823 0.87851 0.96461 0.0
H996 H 0.43665 0.90681 0.01539 0.0
C997 C 0.49807 1.00081 0.94996 0.0
C998 C 0.08258 0.58715 -0.02123 0.0
C999 C 0.04471 0.59189 0.96327 0.0
H1000 H 0.10579 0.5473 0.01645 0.0
C1001 C 0.99966 0.55896 -0.02205 0.0
H1002 H 0.11757 0.61134 0.96857 0.0
C1003 C 0.99251 0.52183 0.00537 0.0
C1004 C 0.03013 0.51616 0.01946 0.0
H1005 H 0.96911 0.56117 0.96749 0.0
H1006 H 0.95736 0.49692 0.01425 0.0
C1007 C 0.07542 0.54999 0.0064 0.0
loop_
_geom_bond_atom_site_label_1
_geom_bond_atom_site_label_2
_geom_bond_distance
_geom_bond_site_symmetry_2
_ccdc_geom_bond_type
Mn0 O5 2.095 . S
Mn0 O15 2.162 . S
Mn0 O16 2.297 . S
Mn0 O24 2.385 1_455 S
Mn0 O25 2.209 1_455 S
Mn0 O26 2.094 1_455 S
Mn1 O6 2.121 1_655 S
Mn1 N8 2.257 . S
Mn1 N17 2.282 . S
Mn1 O25 2.215 . S
Mn1 O27 2.117 . S
C2 O24 1.234 . S
C2 O25 1.283 . S
C3 O15 1.281 . S
C3 O16 1.236 . S
C4 O26 1.240 . S
C4 O27 1.264 . S
O5 Mn0 2.095 . S
O5 C14 1.250 . S
O6 Mn1 2.121 1_455 S
O6 C14 1.258 . S
C7 N8 1.326 . S
C7 C11 1.460 . S
C7 H13 0.929 1_655 S
N8 Mn1 2.257 . S
N8 C7 1.326 . S
N8 C12 1.362 . S
C9 C10 1.258 . S
C9 C12 1.431 . S
C9 C29 1.449 . S
C10 C9 1.258 . S
C10 C11 1.477 . S
C10 H30 0.931 . S
C11 C7 1.460 . S
C11 C10 1.477 . S
C11 H31 0.931 . S
C12 N8 1.362 . S
C12 C9 1.431 . S
C12 C22 1.476 . S
H13 C7 0.929 1_455 S
C14 O5 1.250 . S
C14 O6 1.258 . S
O15 Mn0 2.162 . S
O15 C3 1.281 . S
O16 Mn0 2.297 . S
O16 C3 1.236 . S
N17 Mn1 2.282 . S
N17 C18 1.328 . S
N17 C22 1.318 . S
C18 N17 1.328 . S
C18 C19 1.457 . S
C18 H23 0.929 . S
C19 C18 1.457 . S
C19 C20 1.291 . S
C19 H32 0.931 . S
C20 C19 1.291 . S
C20 C21 1.373 . S
C20 H33 0.929 . S
C21 C20 1.373 . S
C21 C22 1.396 . S
C21 C28 1.403 . S
C22 C12 1.476 . S
C22 N17 1.318 . S
C22 C21 1.396 . S
H23 C18 0.929 . S
O24 Mn0 2.385 1_655 S
O24 C2 1.234 . S
O25 Mn0 2.209 1_655 S
O25 Mn1 2.215 . S
O25 C2 1.283 . S
O26 Mn0 2.094 1_655 S
O26 C4 1.240 . S
O27 Mn1 2.117 . S
O27 C4 1.264 . S
C28 C21 1.403 . S
C28 C29 1.399 . S
C28 H34 0.929 . S
C29 C9 1.449 . S
C29 C28 1.399 . S
C29 H35 0.930 . S
H30 C10 0.931 . S
H31 C11 0.931 . S
H32 C19 0.931 . S
H33 C20 0.929 . S
H34 C28 0.929 . S
H35 C29 0.930 . S
Mn36 O41 2.095 . S
Mn36 O51 2.162 . S
Mn36 O52 2.297 . S
Mn36 O60 2.385 . S
Mn36 O61 2.209 . S
Mn36 O62 2.094 . S
Mn37 O42 2.121 . S
Mn37 N44 2.257 . S
Mn37 N53 2.282 . S
Mn37 O61 2.215 . S
Mn37 O63 2.117 . S
C38 O60 1.234 . S
C38 O61 1.283 . S
C39 O51 1.281 . S
C39 O52 1.236 . S
C40 O62 1.240 . S
C40 O63 1.264 . S
O41 Mn36 2.095 . S
O41 C50 1.250 . S
O42 Mn37 2.121 . S
O42 C50 1.258 . S
C43 N44 1.326 . S
C43 C47 1.460 . S
C43 H49 0.929 . S
N44 Mn37 2.257 . S
N44 C43 1.326 . S
N44 C48 1.362 . S
C45 C46 1.258 . S
C45 C48 1.431 . S
C45 C65 1.449 1_455 S
C46 C45 1.258 . S
C46 C47 1.477 . S
C46 H66 0.931 1_455 S
C47 C43 1.460 . S
C47 C46 1.477 . S
C47 H67 0.930 . S
C48 N44 1.362 . S
C48 C45 1.431 . S
C48 C58 1.476 . S
H49 C43 0.929 . S
C50 O41 1.250 . S
C50 O42 1.258 . S
O51 Mn36 2.162 . S
O51 C39 1.281 . S
O52 Mn36 2.297 . S
O52 C39 1.236 . S
N53 Mn37 2.282 . S
N53 C54 1.328 . S
N53 C58 1.318 . S
C54 N53 1.328 . S
C54 C55 1.457 . S
C54 H59 0.929 . S
C55 C54 1.457 . S
C55 C56 1.291 . S
C55 H68 0.931 . S
C56 C55 1.291 . S
C56 C57 1.373 . S
C56 H69 0.929 . S
C57 C56 1.373 . S
C57 C58 1.396 . S
C57 C64 1.403 . S
C58 C48 1.476 . S
C58 N53 1.318 . S
C58 C57 1.396 . S
H59 C54 0.929 . S
O60 Mn36 2.385 . S
O60 C38 1.234 . S
O61 Mn36 2.209 . S
O61 Mn37 2.215 . S
O61 C38 1.283 . S
O62 Mn36 2.094 . S
O62 C40 1.240 . S
O63 Mn37 2.117 . S
O63 C40 1.264 . S
C64 C57 1.403 . S
C64 C65 1.399 1_455 S
C64 H70 0.929 1_455 S
C65 C45 1.449 1_655 S
C65 C64 1.399 1_655 S
C65 H71 0.930 . S
H66 C46 0.931 1_655 S
H67 C47 0.930 . S
H68 C55 0.931 . S
H69 C56 0.929 . S
H70 C64 0.929 1_655 S
H71 C65 0.930 . S
Mn72 O77 2.095 . S
Mn72 O87 2.162 . S
Mn72 O88 2.297 . S
Mn72 O96 2.385 1_545 S
Mn72 O97 2.209 1_545 S
Mn72 O98 2.094 1_545 S
Mn73 O78 2.121 1_565 S
Mn73 N80 2.257 . S
Mn73 N89 2.282 . S
Mn73 O97 2.215 . S
Mn73 O99 2.117 . S
C74 O96 1.234 . S
C74 O97 1.283 . S
C75 O87 1.281 . S
C75 O88 1.236 . S
C76 O98 1.240 . S
C76 O99 1.264 . S
O77 Mn72 2.095 . S
O77 C86 1.250 . S
O78 Mn73 2.121 1_545 S
O78 C86 1.258 . S
C79 N80 1.326 . S
C79 C83 1.460 . S
C79 H85 0.937 . S
N80 Mn73 2.257 . S
N80 C79 1.326 . S
N80 C84 1.362 . S
C81 C82 1.258 . S
C81 C84 1.431 . S
C81 C101 1.449 . S
C82 C81 1.258 . S
C82 C83 1.477 . S
C82 H102 0.931 . S
C83 C79 1.460 . S
C83 C82 1.477 . S
C83 H103 0.930 . S
C84 N80 1.362 . S
C84 C81 1.431 . S
C84 C94 1.476 . S
H85 C79 0.937 . S
C86 O77 1.250 . S
C86 O78 1.258 . S
O87 Mn72 2.162 . S
O87 C75 1.281 . S
O88 Mn72 2.297 . S
O88 C75 1.236 . S
N89 Mn73 2.282 . S
N89 C90 1.328 . S
N89 C94 1.318 . S
C90 N89 1.328 . S
C90 C91 1.457 . S
C90 H95 0.929 . S
C91 C90 1.457 . S
C91 C92 1.291 . S
C91 H104 0.931 . S
C92 C91 1.291 . S
C92 C93 1.373 . S
C92 H105 0.929 . S
C93 C92 1.373 . S
C93 C94 1.396 . S
C93 C100 1.403 . S
C94 C84 1.476 . S
C94 N89 1.318 . S
C94 C93 1.396 . S
H95 C90 0.929 . S
O96 Mn72 2.385 1_565 S
O96 C74 1.234 . S
O97 Mn72 2.209 1_565 S
O97 Mn73 2.215 . S
O97 C74 1.283 . S
O98 Mn72 2.094 1_565 S
O98 C76 1.240 . S
O99 Mn73 2.117 . S
O99 C76 1.264 . S
C100 C93 1.403 . S
C100 C101 1.399 . S
C100 H106 0.929 . S
C101 C81 1.449 . S
C101 C100 1.399 . S
C101 H107 0.930 . S
H102 C82 0.931 . S
H103 C83 0.930 . S
H104 C91 0.931 . S
H105 C92 0.929 . S
H106 C100 0.929 . S
H107 C101 0.930 . S
Mn108 O113 2.095 . S
Mn108 O123 2.162 . S
Mn108 O124 2.297 . S
Mn108 O132 2.385 1_455 S
Mn108 O133 2.209 1_455 S
Mn108 O134 2.094 1_455 S
Mn109 O114 2.121 . S
Mn109 N116 2.257 . S
Mn109 N125 2.282 . S
Mn109 O133 2.215 . S
Mn109 O135 2.117 . S
C110 O132 1.234 . S
C110 O133 1.283 . S
C111 O123 1.281 . S
C111 O124 1.236 . S
C112 O134 1.240 . S
C112 O135 1.264 . S
O113 Mn108 2.095 . S
O113 C122 1.250 . S
O114 Mn109 2.121 . S
O114 C122 1.258 1_655 S
C115 N116 1.326 . S
C115 C119 1.460 . S
C115 H121 0.929 . S
N116 Mn109 2.257 . S
N116 C115 1.326 . S
N116 C120 1.362 . S
C117 C118 1.258 . S
C117 C120 1.431 . S
C117 C137 1.449 . S
C118 C117 1.258 . S
C118 C119 1.477 . S
C118 H138 0.931 . S
C119 C115 1.460 . S
C119 C118 1.477 . S
C119 H139 0.930 . S
C120 N116 1.362 . S
C120 C117 1.431 . S
C120 C130 1.476 . S
H121 C115 0.929 . S
C122 O113 1.250 . S
C122 O114 1.258 1_455 S
O123 Mn108 2.162 . S
O123 C111 1.281 . S
O124 Mn108 2.297 . S
O124 C111 1.236 . S
N125 Mn109 2.282 . S
N125 C126 1.328 . S
N125 C130 1.318 . S
C126 N125 1.328 . S
C126 C127 1.457 . S
C126 H131 0.929 . S
C127 C126 1.457 . S
C127 C128 1.291 . S
C127 H140 0.931 . S
C128 C127 1.291 . S
C128 C129 1.373 . S
C128 H141 0.929 . S
C129 C128 1.373 . S
C129 C130 1.396 . S
C129 C136 1.403 . S
C130 C120 1.476 . S
C130 N125 1.318 . S
C130 C129 1.396 . S
H131 C126 0.929 . S
O132 Mn108 2.385 1_655 S
O132 C110 1.234 . S
O133 Mn108 2.209 1_655 S
O133 Mn109 2.215 . S
O133 C110 1.283 . S
O134 Mn108 2.094 1_655 S
O134 C112 1.240 . S
O135 Mn109 2.117 . S
O135 C112 1.264 . S
C136 C129 1.403 . S
C136 C137 1.399 . S
C136 H142 0.929 . S
C137 C117 1.449 . S
C137 C136 1.399 . S
C137 H143 0.930 . S
H138 C118 0.931 . S
H139 C119 0.930 . S
H140 C127 0.931 . S
H141 C128 0.929 . S
H142 C136 0.929 . S
H143 C137 0.930 . S
Mn144 O149 2.095 . S
Mn144 O159 2.162 . S
Mn144 O160 2.297 . S
Mn144 O168 2.385 . S
Mn144 O169 2.209 . S
Mn144 O170 2.094 . S
Mn145 O150 2.121 . S
Mn145 N152 2.257 . S
Mn145 N161 2.282 . S
Mn145 O169 2.215 . S
Mn145 O171 2.117 . S
C146 O168 1.234 . S
C146 O169 1.283 . S
C147 O159 1.281 . S
C147 O160 1.236 . S
C148 O170 1.240 . S
C148 O171 1.264 . S
O149 Mn144 2.095 . S
O149 C158 1.250 . S
O150 Mn145 2.121 . S
O150 C158 1.258 . S
C151 N152 1.326 . S
C151 C155 1.460 . S
C151 H157 0.929 . S
N152 Mn145 2.257 . S
N152 C151 1.326 . S
N152 C156 1.362 . S
C153 C154 1.258 . S
C153 C156 1.431 . S
C153 C173 1.449 . S
C154 C153 1.258 . S
C154 C155 1.477 . S
C154 H174 0.931 . S
C155 C151 1.460 . S
C155 C154 1.477 . S
C155 H175 0.930 . S
C156 N152 1.362 . S
C156 C153 1.431 . S
C156 C166 1.476 . S
H157 C151 0.929 . S
C158 O149 1.250 . S
C158 O150 1.258 . S
O159 Mn144 2.162 . S
O159 C147 1.281 . S
O160 Mn144 2.297 . S
O160 C147 1.236 . S
N161 Mn145 2.282 . S
N161 C162 1.328 . S
N161 C166 1.318 . S
C162 N161 1.328 . S
C162 C163 1.457 . S
C162 H167 0.929 . S
C163 C162 1.457 . S
C163 C164 1.291 . S
C163 H176 0.931 . S
C164 C163 1.291 . S
C164 C165 1.373 . S
C164 H177 0.929 . S
C165 C164 1.373 . S
C165 C166 1.396 . S
C165 C172 1.403 . S
C166 C156 1.476 . S
C166 N161 1.318 . S
C166 C165 1.396 . S
H167 C162 0.929 . S
O168 Mn144 2.385 . S
O168 C146 1.234 . S
O169 Mn144 2.209 . S
O169 Mn145 2.215 . S
O169 C146 1.283 . S
O170 Mn144 2.094 . S
O170 C148 1.240 . S
O171 Mn145 2.117 . S
O171 C148 1.264 . S
C172 C165 1.403 . S
C172 C173 1.399 . S
C172 H178 0.929 . S
C173 C153 1.449 . S
C173 C172 1.399 . S
C173 H179 0.930 . S
H174 C154 0.931 . S
H175 C155 0.930 . S
H176 C163 0.931 . S
H177 C164 0.929 . S
H178 C172 0.929 . S
H179 C173 0.930 . S
Mn180 O185 2.095 1_545 S
Mn180 O195 2.162 1_545 S
Mn180 O196 2.297 1_545 S
Mn180 O204 2.385 . S
Mn180 O205 2.209 . S
Mn180 O206 2.094 . S
Mn181 O186 2.121 . S
Mn181 N188 2.257 . S
Mn181 N197 2.282 . S
Mn181 O205 2.215 . S
Mn181 O207 2.117 . S
C182 O204 1.234 . S
C182 O205 1.283 . S
C183 O195 1.281 . S
C183 O196 1.236 . S
C184 O206 1.240 . S
C184 O207 1.264 . S
O185 Mn180 2.095 1_565 S
O185 C194 1.250 . S
O186 Mn181 2.121 . S
O186 C194 1.258 1_545 S
C187 N188 1.326 . S
C187 C191 1.460 . S
C187 H193 0.929 . S
N188 Mn181 2.257 . S
N188 C187 1.326 . S
N188 C192 1.362 . S
C189 C190 1.258 . S
C189 C192 1.431 . S
C189 C209 1.449 . S
C190 C189 1.258 . S
C190 C191 1.477 . S
C190 H210 0.931 . S
C191 C187 1.460 . S
C191 C190 1.477 . S
C191 H211 0.930 . S
C192 N188 1.362 . S
C192 C189 1.431 . S
C192 C202 1.476 . S
H193 C187 0.929 . S
C194 O185 1.250 . S
C194 O186 1.258 1_565 S
O195 Mn180 2.162 1_565 S
O195 C183 1.281 . S
O196 Mn180 2.297 1_565 S
O196 C183 1.236 . S
N197 Mn181 2.282 . S
N197 C198 1.328 . S
N197 C202 1.318 . S
C198 N197 1.328 . S
C198 C199 1.457 . S
C198 H203 0.929 . S
C199 C198 1.457 . S
C199 C200 1.291 . S
C199 H212 0.931 . S
C200 C199 1.291 . S
C200 C201 1.373 . S
C200 H213 0.929 . S
C201 C200 1.373 . S
C201 C202 1.396 . S
C201 C208 1.403 . S
C202 C192 1.476 . S
C202 N197 1.318 . S
C202 C201 1.396 . S
H203 C198 0.929 . S
O204 Mn180 2.385 . S
O204 C182 1.234 . S
O205 Mn180 2.209 . S
O205 Mn181 2.215 . S
O205 C182 1.283 . S
O206 Mn180 2.094 . S
O206 C184 1.240 . S
O207 Mn181 2.117 . S
O207 C184 1.264 . S
C208 C201 1.403 . S
C208 C209 1.399 . S
C208 H214 0.929 . S
C209 C189 1.449 . S
C209 C208 1.399 . S
C209 H215 0.930 . S
H210 C190 0.931 . S
H211 C191 0.930 . S
H212 C199 0.931 . S
H213 C200 0.929 . S
H214 C208 0.929 . S
H215 C209 0.930 . S
Mn216 O221 2.095 . S
Mn216 O231 2.162 . S
Mn216 O232 2.297 . S
Mn216 O240 2.385 . S
Mn216 O241 2.209 . S
Mn216 O242 2.094 . S
Mn217 O222 2.121 . S
Mn217 N224 2.257 . S
Mn217 N233 2.282 . S
Mn217 O241 2.215 . S
Mn217 O243 2.117 . S
C218 O240 1.234 . S
C218 O241 1.283 . S
C219 O231 1.281 . S
C219 O232 1.236 . S
C220 O242 1.240 . S
C220 O243 1.264 . S
O221 Mn216 2.095 . S
O221 C230 1.250 . S
O222 Mn217 2.121 . S
O222 C230 1.258 . S
C223 N224 1.326 . S
C223 C227 1.460 . S
C223 H229 0.929 . S
N224 Mn217 2.257 . S
N224 C223 1.326 . S
N224 C228 1.362 . S
C225 C226 1.258 . S
C225 C228 1.431 . S
C225 C245 1.449 . S
C226 C225 1.258 . S
C226 C227 1.477 . S
C226 H246 0.931 . S
C227 C223 1.460 . S
C227 C226 1.477 . S
C227 H247 0.930 . S
C228 N224 1.362 . S
C228 C225 1.431 . S
C228 C238 1.476 . S
H229 C223 0.929 . S
C230 O221 1.250 . S
C230 O222 1.258 . S
O231 Mn216 2.162 . S
O231 C219 1.281 . S
O232 Mn216 2.297 . S
O232 C219 1.236 . S
N233 Mn217 2.282 . S
N233 C234 1.328 . S
N233 C238 1.318 . S
C234 N233 1.328 . S
C234 C235 1.457 . S
C234 H239 0.929 . S
C235 C234 1.457 . S
C235 C236 1.291 . S
C235 H248 0.931 . S
C236 C235 1.291 . S
C236 C237 1.373 . S
C236 H249 0.929 . S
C237 C236 1.373 . S
C237 C238 1.396 . S
C237 C244 1.403 . S
C238 C228 1.476 . S
C238 N233 1.318 . S
C238 C237 1.396 . S
H239 C234 0.929 . S
O240 Mn216 2.385 . S
O240 C218 1.234 . S
O241 Mn216 2.209 . S
O241 Mn217 2.215 . S
O241 C218 1.283 . S
O242 Mn216 2.094 . S
O242 C220 1.240 . S
O243 Mn217 2.117 . S
O243 C220 1.264 . S
C244 C237 1.403 . S
C244 C245 1.399 . S
C244 H250 0.929 . S
C245 C225 1.449 . S
C245 C244 1.399 . S
C245 H251 0.930 . S
H246 C226 0.931 . S
H247 C227 0.930 . S
H248 C235 0.931 . S
H249 C236 0.929 . S
H250 C244 0.929 . S
H251 C245 0.930 . S
Mn252 O257 2.095 . S
Mn252 O267 2.162 . S
Mn252 O268 2.297 . S
Mn252 O276 2.385 . S
Mn252 O277 2.209 . S
Mn252 O278 2.094 . S
Mn253 O258 2.121 . S
Mn253 N260 2.257 . S
Mn253 N269 2.282 . S
Mn253 O277 2.215 . S
Mn253 O279 2.117 . S
C254 O276 1.234 . S
C254 O277 1.283 . S
C255 O267 1.281 . S
C255 O268 1.236 . S
C256 O278 1.240 . S
C256 O279 1.264 . S
O257 Mn252 2.095 . S
O257 C266 1.250 . S
O258 Mn253 2.121 . S
O258 C266 1.258 . S
C259 N260 1.326 . S
C259 C263 1.460 . S
C259 H265 0.929 . S
N260 Mn253 2.257 . S
N260 C259 1.326 . S
N260 C264 1.362 . S
C261 C262 1.258 . S
C261 C264 1.431 . S
C261 C281 1.449 . S
C262 C261 1.258 . S
C262 C263 1.477 . S
C262 H282 0.931 . S
C263 C259 1.460 . S
C263 C262 1.477 . S
C263 H283 0.930 . S
C264 N260 1.362 . S
C264 C261 1.431 . S
C264 C274 1.476 . S
H265 C259 0.929 . S
C266 O257 1.250 . S
C266 O258 1.258 . S
O267 Mn252 2.162 . S
O267 C255 1.281 . S
O268 Mn252 2.297 . S
O268 C255 1.236 . S
N269 Mn253 2.282 . S
N269 C270 1.328 . S
N269 C274 1.318 . S
C270 N269 1.328 . S
C270 C271 1.457 . S
C270 H275 0.929 . S
C271 C270 1.457 . S
C271 C272 1.291 . S
C271 H284 0.931 . S
C272 C271 1.291 . S
C272 C273 1.373 . S
C272 H285 0.929 . S
C273 C272 1.373 . S
C273 C274 1.396 . S
C273 C280 1.403 . S
C274 C264 1.476 . S
C274 N269 1.318 . S
C274 C273 1.396 . S
H275 C270 0.929 . S
O276 Mn252 2.385 . S
O276 C254 1.234 . S
O277 Mn252 2.209 . S
O277 Mn253 2.215 . S
O277 C254 1.283 . S
O278 Mn252 2.094 . S
O278 C256 1.240 . S
O279 Mn253 2.117 . S
O279 C256 1.264 . S
C280 C273 1.403 . S
C280 C281 1.399 . S
C280 H286 0.929 . S
C281 C261 1.449 . S
C281 C280 1.399 . S
C281 H287 0.930 . S
H282 C262 0.931 . S
H283 C263 0.930 . S
H284 C271 0.931 . S
H285 C272 0.929 . S
H286 C280 0.929 . S
H287 C281 0.930 . S
Mn288 O293 2.095 . S
Mn288 O303 2.162 . S
Mn288 O304 2.297 . S
Mn288 O312 2.385 . S
Mn288 O313 2.209 . S
Mn288 O314 2.094 . S
Mn289 O294 2.121 . S
Mn289 N296 2.257 . S
Mn289 N305 2.282 . S
Mn289 O313 2.215 . S
Mn289 O315 2.117 . S
C290 O312 1.234 . S
C290 O313 1.283 . S
C291 O303 1.281 . S
C291 O304 1.236 . S
C292 O314 1.240 . S
C292 O315 1.264 . S
O293 Mn288 2.095 . S
O293 C302 1.250 . S
O294 Mn289 2.121 . S
O294 C302 1.258 . S
C295 N296 1.326 . S
C295 C299 1.460 . S
C295 H301 0.929 . S
N296 Mn289 2.257 . S
N296 C295 1.326 . S
N296 C300 1.362 . S
C297 C298 1.258 . S
C297 C300 1.431 . S
C297 C317 1.449 . S
C298 C297 1.258 . S
C298 C299 1.477 . S
C298 H318 0.931 . S
C299 C295 1.460 . S
C299 C298 1.477 . S
C299 H319 0.930 . S
C300 N296 1.362 . S
C300 C297 1.431 . S
C300 C310 1.476 . S
H301 C295 0.929 . S
C302 O293 1.250 . S
C302 O294 1.258 . S
O303 Mn288 2.162 . S
O303 C291 1.281 . S
O304 Mn288 2.297 . S
O304 C291 1.236 . S
N305 Mn289 2.282 . S
N305 C306 1.328 . S
N305 C310 1.318 . S
C306 N305 1.328 . S
C306 C307 1.457 . S
C306 H311 0.929 . S
C307 C306 1.457 . S
C307 C308 1.291 . S
C307 H320 0.931 . S
C308 C307 1.291 . S
C308 C309 1.373 . S
C308 H321 0.929 . S
C309 C308 1.373 . S
C309 C310 1.396 . S
C309 C316 1.403 . S
C310 C300 1.476 . S
C310 N305 1.318 . S
C310 C309 1.396 . S
H311 C306 0.929 . S
O312 Mn288 2.385 . S
O312 C290 1.234 . S
O313 Mn288 2.209 . S
O313 Mn289 2.215 . S
O313 C290 1.283 . S
O314 Mn288 2.094 . S
O314 C292 1.240 . S
O315 Mn289 2.117 . S
O315 C292 1.264 . S
C316 C309 1.403 . S
C316 C317 1.399 . S
C316 H322 0.929 . S
C317 C297 1.449 . S
C317 C316 1.399 . S
C317 H323 0.930 . S
H318 C298 0.931 . S
H319 C299 0.930 . S
H320 C307 0.931 . S
H321 C308 0.929 . S
H322 C316 0.929 . S
H323 C317 0.930 . S
Mn324 O329 2.095 . S
Mn324 O339 2.162 . S
Mn324 O340 2.297 . S
Mn324 O348 2.385 . S
Mn324 O349 2.209 . S
Mn324 O350 2.094 . S
Mn325 O330 2.121 . S
Mn325 N332 2.257 . S
Mn325 N341 2.282 . S
Mn325 O349 2.215 . S
Mn325 O351 2.117 . S
C326 O348 1.234 . S
C326 O349 1.283 . S
C327 O339 1.281 . S
C327 O340 1.236 . S
C328 O350 1.240 . S
C328 O351 1.264 . S
O329 Mn324 2.095 . S
O329 C338 1.245 1_554 S
O330 Mn325 2.121 . S
O330 C338 1.255 1_554 S
C331 N332 1.326 . S
C331 C335 1.460 . S
C331 H337 0.929 . S
N332 Mn325 2.257 . S
N332 C331 1.326 . S
N332 C336 1.362 . S
C333 C334 1.258 . S
C333 C336 1.431 . S
C333 C353 1.449 . S
C334 C333 1.258 . S
C334 C335 1.477 . S
C334 H354 0.931 . S
C335 C331 1.460 . S
C335 C334 1.477 . S
C335 H355 0.930 . S
C336 N332 1.362 . S
C336 C333 1.431 . S
C336 C346 1.476 . S
H337 C331 0.929 . S
C338 O329 1.245 1_556 S
C338 O330 1.255 1_556 S
O339 Mn324 2.162 . S
O339 C327 1.281 . S
O340 Mn324 2.297 . S
O340 C327 1.236 . S
N341 Mn325 2.282 . S
N341 C342 1.328 . S
N341 C346 1.318 . S
C342 N341 1.328 . S
C342 C343 1.457 . S
C342 H347 0.929 . S
C343 C342 1.457 . S
C343 C344 1.291 . S
C343 H356 0.931 . S
C344 C343 1.291 . S
C344 C345 1.373 . S
C344 H357 0.929 . S
C345 C344 1.373 . S
C345 C346 1.396 . S
C345 C352 1.403 . S
C346 C336 1.476 . S
C346 N341 1.318 . S
C346 C345 1.396 . S
H347 C342 0.929 . S
O348 Mn324 2.385 . S
O348 C326 1.234 . S
O349 Mn324 2.209 . S
O349 Mn325 2.215 . S
O349 C326 1.283 . S
O350 Mn324 2.094 . S
O350 C328 1.240 . S
O351 Mn325 2.117 . S
O351 C328 1.264 . S
C352 C345 1.403 . S
C352 C353 1.399 . S
C352 H358 0.929 . S
C353 C333 1.449 . S
C353 C352 1.399 . S
C353 H359 0.930 . S
H354 C334 0.931 . S
H355 C335 0.930 . S
H356 C343 0.931 . S
H357 C344 0.929 . S
H358 C352 0.929 . S
H359 C353 0.930 . S
Mn360 O365 2.095 . S
Mn360 O375 2.162 . S
Mn360 O376 2.297 . S
Mn360 O384 2.385 . S
Mn360 O385 2.209 . S
Mn360 O386 2.094 . S
Mn361 O366 2.121 1_565 S
Mn361 N368 2.257 . S
Mn361 N377 2.282 . S
Mn361 O385 2.215 1_565 S
Mn361 O387 2.117 1_565 S
C362 O384 1.234 . S
C362 O385 1.283 . S
C363 O375 1.281 . S
C363 O376 1.236 . S
C364 O386 1.240 . S
C364 O387 1.264 . S
O365 Mn360 2.095 . S
O365 C374 1.245 1_554 S
O366 Mn361 2.121 1_545 S
O366 C374 1.254 1_554 S
C367 N368 1.326 . S
C367 C371 1.460 . S
C367 H373 0.929 . S
N368 Mn361 2.257 . S
N368 C367 1.326 . S
N368 C372 1.362 . S
C369 C370 1.258 . S
C369 C372 1.431 . S
C369 C389 1.449 . S
C370 C369 1.258 . S
C370 C371 1.477 . S
C370 H390 0.931 . S
C371 C367 1.460 . S
C371 C370 1.477 . S
C371 H391 0.930 . S
C372 N368 1.362 . S
C372 C369 1.431 . S
C372 C382 1.476 . S
H373 C367 0.929 . S
C374 O365 1.245 1_556 S
C374 O366 1.254 1_556 S
O375 Mn360 2.162 . S
O375 C363 1.281 . S
O376 Mn360 2.297 . S
O376 C363 1.236 . S
N377 Mn361 2.282 . S
N377 C378 1.328 . S
N377 C382 1.318 . S
C378 N377 1.328 . S
C378 C379 1.457 . S
C378 H383 0.929 1_565 S
C379 C378 1.457 . S
C379 C380 1.291 . S
C379 H392 0.931 . S
C380 C379 1.291 . S
C380 C381 1.373 . S
C380 H393 0.929 . S
C381 C380 1.373 . S
C381 C382 1.396 . S
C381 C388 1.403 . S
C382 C372 1.476 . S
C382 N377 1.318 . S
C382 C381 1.396 . S
H383 C378 0.929 1_545 S
O384 Mn360 2.385 . S
O384 C362 1.234 . S
O385 Mn360 2.209 . S
O385 Mn361 2.215 1_545 S
O385 C362 1.283 . S
O386 Mn360 2.094 . S
O386 C364 1.240 . S
O387 Mn361 2.117 1_545 S
O387 C364 1.264 . S
C388 C381 1.403 . S
C388 C389 1.399 . S
C388 H394 0.929 . S
C389 C369 1.449 . S
C389 C388 1.399 . S
C389 H395 0.930 . S
H390 C370 0.931 . S
H391 C371 0.930 . S
H392 C379 0.931 . S
H393 C380 0.929 . S
H394 C388 0.929 . S
H395 C389 0.930 . S
Mn396 O401 2.095 . S
Mn396 O411 2.162 . S
Mn396 O412 2.297 . S
Mn396 O420 2.385 . S
Mn396 O421 2.209 . S
Mn396 O422 2.094 . S
Mn397 O402 2.121 . S
Mn397 N404 2.257 . S
Mn397 N413 2.282 . S
Mn397 O421 2.215 1_455 S
Mn397 O423 2.117 1_455 S
C398 O420 1.234 . S
C398 O421 1.283 . S
C399 O411 1.281 . S
C399 O412 1.236 . S
C400 O422 1.240 . S
C400 O423 1.264 . S
O401 Mn396 2.095 . S
O401 C410 1.250 1_554 S
O402 Mn397 2.121 . S
O402 C410 1.258 1_454 S
C403 N404 1.326 . S
C403 C407 1.460 . S
C403 H409 0.929 . S
N404 Mn397 2.257 . S
N404 C403 1.326 . S
N404 C408 1.362 . S
C405 C406 1.258 . S
C405 C408 1.431 . S
C405 C425 1.449 . S
C406 C405 1.258 . S
C406 C407 1.477 . S
C406 H426 0.931 . S
C407 C403 1.460 . S
C407 C406 1.477 . S
C407 H427 0.930 . S
C408 N404 1.362 . S
C408 C405 1.431 . S
C408 C418 1.476 . S
H409 C403 0.929 . S
C410 O401 1.250 1_556 S
C410 O402 1.258 1_656 S
O411 Mn396 2.162 . S
O411 C399 1.281 . S
O412 Mn396 2.297 . S
O412 C399 1.236 . S
N413 Mn397 2.282 . S
N413 C414 1.328 . S
N413 C418 1.318 . S
C414 N413 1.328 . S
C414 C415 1.457 . S
C414 H419 0.929 . S
C415 C414 1.457 . S
C415 C416 1.291 . S
C415 H428 0.931 . S
C416 C415 1.291 . S
C416 C417 1.373 . S
C416 H429 0.929 . S
C417 C416 1.373 . S
C417 C418 1.396 . S
C417 C424 1.403 . S
C418 C408 1.476 . S
C418 N413 1.318 . S
C418 C417 1.396 . S
H419 C414 0.929 . S
O420 Mn396 2.385 . S
O420 C398 1.234 . S
O421 Mn396 2.209 . S
O421 Mn397 2.215 1_655 S
O421 C398 1.283 . S
O422 Mn396 2.094 . S
O422 C400 1.240 . S
O423 Mn397 2.117 1_655 S
O423 C400 1.264 . S
C424 C417 1.403 . S
C424 C425 1.399 . S
C424 H430 0.929 . S
C425 C405 1.449 . S
C425 C424 1.399 . S
C425 H431 0.930 . S
H426 C406 0.931 . S
H427 C407 0.930 . S
H428 C415 0.931 . S
H429 C416 0.929 . S
H430 C424 0.929 . S
H431 C425 0.930 . S
Mn432 O437 2.095 . S
Mn432 O447 2.162 . S
Mn432 O448 2.297 . S
Mn432 O456 2.385 . S
Mn432 O457 2.209 . S
Mn432 O458 2.094 . S
Mn433 O438 2.121 . S
Mn433 N440 2.257 . S
Mn433 N449 2.282 . S
Mn433 O457 2.215 . S
Mn433 O459 2.117 1_556 S
C434 O456 1.234 . S
C434 O457 1.283 . S
C435 O447 1.281 . S
C435 O448 1.236 . S
C436 O458 1.240 1_554 S
C436 O459 1.264 . S
O437 Mn432 2.095 . S
O437 C446 1.250 . S
O438 Mn433 2.121 . S
O438 C446 1.258 . S
C439 N440 1.326 . S
C439 C443 1.460 . S
C439 H445 0.929 . S
N440 Mn433 2.257 . S
N440 C439 1.326 . S
N440 C444 1.362 . S
C441 C442 1.258 . S
C441 C444 1.431 . S
C441 C461 1.449 . S
C442 C441 1.258 . S
C442 C443 1.477 . S
C442 H462 0.931 . S
C443 C439 1.460 . S
C443 C442 1.477 . S
C443 H463 0.930 . S
C444 N440 1.362 . S
C444 C441 1.431 . S
C444 C454 1.476 . S
H445 C439 0.929 . S
C446 O437 1.250 . S
C446 O438 1.258 . S
O447 Mn432 2.162 . S
O447 C435 1.281 . S
O448 Mn432 2.297 . S
O448 C435 1.236 . S
N449 Mn433 2.282 . S
N449 C450 1.328 . S
N449 C454 1.318 . S
C450 N449 1.328 . S
C450 C451 1.457 . S
C450 H455 0.929 1_556 S
C451 C450 1.457 . S
C451 C452 1.291 . S
C451 H464 0.931 1_556 S
C452 C451 1.291 . S
C452 C453 1.373 . S
C452 H465 0.929 . S
C453 C452 1.373 . S
C453 C454 1.396 . S
C453 C460 1.403 . S
C454 C444 1.476 . S
C454 N449 1.318 . S
C454 C453 1.396 . S
H455 C450 0.929 1_554 S
O456 Mn432 2.385 . S
O456 C434 1.234 . S
O457 Mn432 2.209 . S
O457 Mn433 2.215 . S
O457 C434 1.283 . S
O458 Mn432 2.094 . S
O458 C436 1.240 1_556 S
O459 Mn433 2.117 1_554 S
O459 C436 1.264 . S
C460 C453 1.403 . S
C460 C461 1.399 . S
C460 H466 0.929 . S
C461 C441 1.449 . S
C461 C460 1.399 . S
C461 H467 0.930 . S
H462 C442 0.931 . S
H463 C443 0.930 . S
H464 C451 0.931 1_554 S
H465 C452 0.929 . S
H466 C460 0.929 . S
H467 C461 0.930 . S
Mn468 O473 2.095 . S
Mn468 O483 2.162 . S
Mn468 O484 2.297 1_556 S
Mn468 O492 2.385 . S
Mn468 O493 2.209 . S
Mn468 O494 2.094 . S
Mn469 O474 2.121 . S
Mn469 N476 2.257 . S
Mn469 N485 2.282 . S
Mn469 O493 2.215 . S
Mn469 O495 2.117 . S
C470 O492 1.234 . S
C470 O493 1.283 . S
C471 O483 1.281 1_554 S
C471 O484 1.236 . S
C472 O494 1.240 . S
C472 O495 1.264 . S
O473 Mn468 2.095 . S
O473 C482 1.250 . S
O474 Mn469 2.121 . S
O474 C482 1.258 . S
C475 N476 1.326 . S
C475 C479 1.460 . S
C475 H481 0.929 . S
N476 Mn469 2.257 . S
N476 C475 1.326 . S
N476 C480 1.362 . S
C477 C478 1.258 . S
C477 C480 1.431 . S
C477 C497 1.449 . S
C478 C477 1.258 . S
C478 C479 1.477 . S
C478 H498 0.931 . S
C479 C475 1.460 . S
C479 C478 1.477 . S
C479 H499 0.930 . S
C480 N476 1.362 . S
C480 C477 1.431 . S
C480 C490 1.476 . S
H481 C475 0.929 . S
C482 O473 1.250 . S
C482 O474 1.258 . S
O483 Mn468 2.162 . S
O483 C471 1.281 1_556 S
O484 Mn468 2.297 1_554 S
O484 C471 1.236 . S
N485 Mn469 2.282 . S
N485 C486 1.328 . S
N485 C490 1.318 . S
C486 N485 1.328 . S
C486 C487 1.457 . S
C486 H491 0.929 . S
C487 C486 1.457 . S
C487 C488 1.291 . S
C487 H500 0.931 . S
C488 C487 1.291 . S
C488 C489 1.373 . S
C488 H501 0.929 . S
C489 C488 1.373 . S
C489 C490 1.396 . S
C489 C496 1.403 . S
C490 C480 1.476 . S
C490 N485 1.318 . S
C490 C489 1.396 . S
H491 C486 0.929 . S
O492 Mn468 2.385 . S
O492 C470 1.234 . S
O493 Mn468 2.209 . S
O493 Mn469 2.215 . S
O493 C470 1.283 . S
O494 Mn468 2.094 . S
O494 C472 1.240 . S
O495 Mn469 2.117 . S
O495 C472 1.264 . S
C496 C489 1.403 . S
C496 C497 1.399 . S
C496 H502 0.929 . S
C497 C477 1.449 . S
C497 C496 1.399 . S
C497 H503 0.930 . S
H498 C478 0.931 . S
H499 C479 0.930 . S
H500 C487 0.931 . S
H501 C488 0.929 . S
H502 C496 0.929 . S
H503 C497 0.930 . S
Mn504 O509 2.095 . S
Mn504 O519 2.162 . S
Mn504 O520 2.297 . S
Mn504 O528 2.385 . S
Mn504 O529 2.209 . S
Mn504 O530 2.094 . S
Mn505 O510 2.121 . S
Mn505 N512 2.257 1_455 S
Mn505 N521 2.282 1_455 S
Mn505 O529 2.215 . S
Mn505 O531 2.117 . S
C506 O528 1.234 . S
C506 O529 1.283 . S
C507 O519 1.281 . S
C507 O520 1.236 . S
C508 O530 1.240 . S
C508 O531 1.264 . S
O509 Mn504 2.095 . S
O509 C518 1.245 1_556 S
O510 Mn505 2.121 . S
O510 C518 1.255 1_556 S
C511 N512 1.326 . S
C511 C515 1.460 . S
C511 H517 0.929 . S
N512 Mn505 2.257 1_655 S
N512 C511 1.326 . S
N512 C516 1.362 . S
C513 C514 1.258 . S
C513 C516 1.431 . S
C513 C533 1.449 . S
C514 C513 1.258 . S
C514 C515 1.477 . S
C514 H534 0.931 . S
C515 C511 1.460 . S
C515 C514 1.477 . S
C515 H535 0.930 . S
C516 N512 1.362 . S
C516 C513 1.431 . S
C516 C526 1.476 . S
H517 C511 0.929 . S
C518 O509 1.245 1_554 S
C518 O510 1.255 1_554 S
O519 Mn504 2.162 . S
O519 C507 1.281 . S
O520 Mn504 2.297 . S
O520 C507 1.236 . S
N521 Mn505 2.282 1_655 S
N521 C522 1.328 . S
N521 C526 1.318 . S
C522 N521 1.328 . S
C522 C523 1.457 . S
C522 H527 0.929 1_655 S
C523 C522 1.457 . S
C523 C524 1.291 . S
C523 H536 0.931 . S
C524 C523 1.291 . S
C524 C525 1.373 . S
C524 H537 0.929 . S
C525 C524 1.373 . S
C525 C526 1.396 . S
C525 C532 1.403 . S
C526 C516 1.476 . S
C526 N521 1.318 . S
C526 C525 1.396 . S
H527 C522 0.929 1_455 S
O528 Mn504 2.385 . S
O528 C506 1.234 . S
O529 Mn504 2.209 . S
O529 Mn505 2.215 . S
O529 C506 1.283 . S
O530 Mn504 2.094 . S
O530 C508 1.240 . S
O531 Mn505 2.117 . S
O531 C508 1.264 . S
C532 C525 1.403 . S
C532 C533 1.399 . S
C532 H538 0.929 . S
C533 C513 1.449 . S
C533 C532 1.399 . S
C533 H539 0.930 . S
H534 C514 0.931 . S
H535 C515 0.930 . S
H536 C523 0.931 . S
H537 C524 0.929 . S
H538 C532 0.929 . S
H539 C533 0.930 . S
Mn540 O545 2.095 . S
Mn540 O555 2.162 . S
Mn540 O556 2.297 . S
Mn540 O564 2.385 . S
Mn540 O565 2.209 . S
Mn540 O566 2.094 . S
Mn541 O546 2.121 . S
Mn541 N548 2.257 1_565 S
Mn541 N557 2.282 . S
Mn541 O565 2.215 . S
Mn541 O567 2.117 . S
C542 O564 1.234 . S
C542 O565 1.283 . S
C543 O555 1.281 . S
C543 O556 1.236 . S
C544 O566 1.240 . S
C544 O567 1.264 . S
O545 Mn540 2.095 . S
O545 C554 1.250 . S
O546 Mn541 2.121 . S
O546 C554 1.258 . S
C547 N548 1.326 . S
C547 C551 1.460 . S
C547 H553 0.929 . S
N548 Mn541 2.257 1_545 S
N548 C547 1.326 . S
N548 C552 1.362 . S
C549 C550 1.258 . S
C549 C552 1.431 . S
C549 C569 1.449 . S
C550 C549 1.258 . S
C550 C551 1.477 . S
C550 H570 0.931 . S
C551 C547 1.460 . S
C551 C550 1.477 . S
C551 H571 0.930 . S
C552 N548 1.362 . S
C552 C549 1.431 . S
C552 C562 1.476 1_545 S
H553 C547 0.929 . S
C554 O545 1.250 . S
C554 O546 1.258 . S
O555 Mn540 2.162 . S
O555 C543 1.281 . S
O556 Mn540 2.297 . S
O556 C543 1.236 . S
N557 Mn541 2.282 . S
N557 C558 1.328 . S
N557 C562 1.318 . S
C558 N557 1.328 . S
C558 C559 1.457 . S
C558 H563 0.929 . S
C559 C558 1.457 . S
C559 C560 1.291 . S
C559 H572 0.931 . S
C560 C559 1.291 . S
C560 C561 1.373 . S
C560 H573 0.929 . S
C561 C560 1.373 . S
C561 C562 1.396 . S
C561 C568 1.403 1_565 S
C562 C552 1.476 1_565 S
C562 N557 1.318 . S
C562 C561 1.396 . S
H563 C558 0.929 . S
O564 Mn540 2.385 . S
O564 C542 1.234 . S
O565 Mn540 2.209 . S
O565 Mn541 2.215 . S
O565 C542 1.283 . S
O566 Mn540 2.094 . S
O566 C544 1.240 . S
O567 Mn541 2.117 . S
O567 C544 1.264 . S
C568 C561 1.403 1_545 S
C568 C569 1.399 . S
C568 H574 0.929 1_545 S
C569 C549 1.449 . S
C569 C568 1.399 . S
C569 H575 0.930 . S
H570 C550 0.931 . S
H571 C551 0.930 . S
H572 C559 0.931 . S
H573 C560 0.929 . S
H574 C568 0.929 1_565 S
H575 C569 0.930 . S
Mn576 O581 2.095 . S
Mn576 O591 2.162 . S
Mn576 O592 2.297 . S
Mn576 O600 2.385 . S
Mn576 O601 2.209 . S
Mn576 O602 2.094 . S
Mn577 O582 2.121 1_655 S
Mn577 N584 2.257 . S
Mn577 N593 2.282 . S
Mn577 O601 2.215 1_655 S
Mn577 O603 2.117 1_655 S
C578 O600 1.234 . S
C578 O601 1.283 . S
C579 O591 1.281 . S
C579 O592 1.236 . S
C580 O602 1.240 . S
C580 O603 1.264 . S
O581 Mn576 2.095 . S
O581 C590 1.250 . S
O582 Mn577 2.121 1_455 S
O582 C590 1.258 . S
C583 N584 1.326 . S
C583 C587 1.460 . S
C583 H589 0.929 . S
N584 Mn577 2.257 . S
N584 C583 1.326 . S
N584 C588 1.362 . S
C585 C586 1.258 . S
C585 C588 1.431 . S
C585 C605 1.449 . S
C586 C585 1.258 . S
C586 C587 1.477 . S
C586 H606 0.931 . S
C587 C583 1.460 . S
C587 C586 1.477 . S
C587 H607 0.930 . S
C588 N584 1.362 . S
C588 C585 1.431 . S
C588 C598 1.476 . S
H589 C583 0.929 . S
C590 O581 1.250 . S
C590 O582 1.258 . S
O591 Mn576 2.162 . S
O591 C579 1.281 . S
O592 Mn576 2.297 . S
O592 C579 1.236 . S
N593 Mn577 2.282 . S
N593 C594 1.328 . S
N593 C598 1.318 . S
C594 N593 1.328 . S
C594 C595 1.457 . S
C594 H599 0.929 1_655 S
C595 C594 1.457 . S
C595 C596 1.291 . S
C595 H608 0.931 . S
C596 C595 1.291 . S
C596 C597 1.373 . S
C596 H609 0.929 . S
C597 C596 1.373 . S
C597 C598 1.396 . S
C597 C604 1.403 . S
C598 C588 1.476 . S
C598 N593 1.318 . S
C598 C597 1.396 . S
H599 C594 0.929 1_455 S
O600 Mn576 2.385 . S
O600 C578 1.234 . S
O601 Mn576 2.209 . S
O601 Mn577 2.215 1_455 S
O601 C578 1.283 . S
O602 Mn576 2.094 . S
O602 C580 1.240 . S
O603 Mn577 2.117 1_455 S
O603 C580 1.264 . S
C604 C597 1.403 . S
C604 C605 1.399 . S
C604 H610 0.929 . S
C605 C585 1.449 . S
C605 C604 1.399 . S
C605 H611 0.930 . S
H606 C586 0.931 . S
H607 C587 0.930 . S
H608 C595 0.931 . S
H609 C596 0.929 . S
H610 C604 0.929 . S
H611 C605 0.930 . S
Mn612 O617 2.095 . S
Mn612 O627 2.162 . S
Mn612 O628 2.297 . S
Mn612 O636 2.385 . S
Mn612 O637 2.209 . S
Mn612 O638 2.094 . S
Mn613 O618 2.121 . S
Mn613 N620 2.257 . S
Mn613 N629 2.282 . S
Mn613 O637 2.215 . S
Mn613 O639 2.117 . S
C614 O636 1.234 . S
C614 O637 1.283 . S
C615 O627 1.281 . S
C615 O628 1.236 . S
C616 O638 1.240 . S
C616 O639 1.264 . S
O617 Mn612 2.095 . S
O617 C626 1.250 . S
O618 Mn613 2.121 . S
O618 C626 1.258 . S
C619 N620 1.326 . S
C619 C623 1.460 . S
C619 H625 0.929 . S
N620 Mn613 2.257 . S
N620 C619 1.326 . S
N620 C624 1.362 . S
C621 C622 1.258 . S
C621 C624 1.431 . S
C621 C641 1.449 . S
C622 C621 1.258 . S
C622 C623 1.477 . S
C622 H642 0.931 . S
C623 C619 1.460 . S
C623 C622 1.477 . S
C623 H643 0.930 . S
C624 N620 1.362 . S
C624 C621 1.431 . S
C624 C634 1.476 . S
H625 C619 0.929 . S
C626 O617 1.250 . S
C626 O618 1.258 . S
O627 Mn612 2.162 . S
O627 C615 1.281 . S
O628 Mn612 2.297 . S
O628 C615 1.236 . S
N629 Mn613 2.282 . S
N629 C630 1.328 . S
N629 C634 1.318 . S
C630 N629 1.328 . S
C630 C631 1.457 . S
C630 H635 0.929 . S
C631 C630 1.457 . S
C631 C632 1.291 . S
C631 H644 0.931 . S
C632 C631 1.291 . S
C632 C633 1.373 . S
C632 H645 0.929 . S
C633 C632 1.373 . S
C633 C634 1.396 . S
C633 C640 1.403 . S
C634 C624 1.476 . S
C634 N629 1.318 . S
C634 C633 1.396 . S
H635 C630 0.929 . S
O636 Mn612 2.385 . S
O636 C614 1.234 . S
O637 Mn612 2.209 . S
O637 Mn613 2.215 . S
O637 C614 1.283 . S
O638 Mn612 2.094 . S
O638 C616 1.240 . S
O639 Mn613 2.117 . S
O639 C616 1.264 . S
C640 C633 1.403 . S
C640 C641 1.399 . S
C640 H646 0.929 . S
C641 C621 1.449 . S
C641 C640 1.399 . S
C641 H647 0.930 . S
H642 C622 0.931 . S
H643 C623 0.930 . S
H644 C631 0.931 . S
H645 C632 0.929 . S
H646 C640 0.929 . S
H647 C641 0.930 . S
C648 C649 1.387 . S
C648 H652 0.950 . S
C648 C657 1.390 . S
C649 C648 1.387 . S
C649 C651 1.387 . S
H650 C657 0.950 . S
C651 C649 1.387 . S
C651 C653 1.390 . S
C651 H655 0.950 . S
H652 C648 0.950 . S
C653 C651 1.390 . S
C653 C654 1.387 . S
C653 H656 0.950 . S
C654 C653 1.387 . S
C654 C657 1.387 . S
H655 C651 0.950 . S
H656 C653 0.950 . S
C657 C648 1.390 . S
C657 H650 0.950 . S
C657 C654 1.387 . S
C658 C659 1.387 . S
C658 H662 0.950 . S
C658 C667 1.390 . S
C659 C658 1.387 . S
C659 C661 1.387 . S
H660 C667 0.950 . S
C661 C659 1.387 . S
C661 C663 1.390 . S
C661 H665 0.950 . S
H662 C658 0.950 . S
C663 C661 1.390 . S
C663 C664 1.387 . S
C663 H666 0.950 . S
C664 C663 1.387 . S
C664 C667 1.387 . S
H665 C661 0.950 . S
H666 C663 0.950 . S
C667 C658 1.390 . S
C667 H660 0.950 . S
C667 C664 1.387 . S
C668 C669 1.387 1_545 S
C668 H672 0.950 . S
C668 C677 1.390 1_545 S
C669 C668 1.387 1_565 S
C669 C671 1.387 . S
H670 C677 0.950 1_545 S
C671 C669 1.387 . S
C671 C673 1.390 . S
C671 H675 0.950 . S
H672 C668 0.950 . S
C673 C671 1.390 . S
C673 C674 1.387 . S
C673 H676 0.950 . S
C674 C673 1.387 . S
C674 C677 1.387 . S
H675 C671 0.950 . S
H676 C673 0.950 . S
C677 C668 1.390 1_565 S
C677 H670 0.950 1_565 S
C677 C674 1.387 . S
C678 C679 1.387 . S
C678 H682 0.950 . S
C678 C687 1.390 . S
C679 C678 1.387 . S
C679 C681 1.387 . S
H680 C687 0.950 . S
C681 C679 1.387 . S
C681 C683 1.390 . S
C681 H685 0.950 . S
H682 C678 0.950 . S
C683 C681 1.390 . S
C683 C684 1.387 . S
C683 H686 0.950 1_545 S
C684 C683 1.387 . S
C684 C687 1.387 . S
H685 C681 0.950 . S
H686 C683 0.950 1_565 S
C687 C678 1.390 . S
C687 H680 0.950 . S
C687 C684 1.387 . S
C688 C689 1.387 . S
C688 H692 0.950 . S
C688 C697 1.390 . S
C689 C688 1.387 . S
C689 C691 1.387 . S
H690 C697 0.950 . S
C691 C689 1.387 . S
C691 C693 1.390 1_655 S
C691 H695 0.950 1_655 S
H692 C688 0.950 . S
C693 C691 1.390 1_455 S
C693 C694 1.387 1_455 S
C693 H696 0.950 . S
C694 C693 1.387 1_655 S
C694 C697 1.387 . S
H695 C691 0.950 1_455 S
H696 C693 0.950 . S
C697 C688 1.390 . S
C697 H690 0.950 . S
C697 C694 1.387 . S
C698 C699 1.387 . S
C698 H702 0.950 . S
C698 C707 1.390 . S
C699 C698 1.387 . S
C699 C701 1.387 . S
H700 C707 0.950 . S
C701 C699 1.387 . S
C701 C703 1.390 . S
C701 H705 0.950 . S
H702 C698 0.950 . S
C703 C701 1.390 . S
C703 C704 1.387 . S
C703 H706 0.950 . S
C704 C703 1.387 . S
C704 C707 1.387 . S
H705 C701 0.950 . S
H706 C703 0.950 . S
C707 C698 1.390 . S
C707 H700 0.950 . S
C707 C704 1.387 . S
C708 C709 1.387 . S
C708 H712 0.950 . S
C708 C717 1.390 . S
C709 C708 1.387 . S
C709 C711 1.387 1_655 S
H710 C717 0.950 . S
C711 C709 1.387 1_455 S
C711 C713 1.390 . S
C711 H715 0.950 . S
H712 C708 0.950 . S
C713 C711 1.390 . S
C713 C714 1.387 1_455 S
C713 H716 0.950 . S
C714 C713 1.387 1_655 S
C714 C717 1.387 . S
H715 C711 0.950 . S
H716 C713 0.950 . S
C717 C708 1.390 . S
C717 H710 0.950 . S
C717 C714 1.387 . S
C718 C719 1.387 . S
C718 H722 0.950 . S
C718 C727 1.390 . S
C719 C718 1.387 . S
C719 C721 1.387 . S
H720 C727 0.950 . S
C721 C719 1.387 . S
C721 C723 1.390 . S
C721 H725 0.950 . S
H722 C718 0.950 . S
C723 C721 1.390 . S
C723 C724 1.387 . S
C723 H726 0.950 . S
C724 C723 1.387 . S
C724 C727 1.387 . S
H725 C721 0.950 . S
H726 C723 0.950 . S
C727 C718 1.390 . S
C727 H720 0.950 . S
C727 C724 1.387 . S
C728 C729 1.387 . S
C728 H732 0.950 . S
C728 C737 1.390 . S
C729 C728 1.387 . S
C729 C731 1.387 . S
H730 C737 0.950 . S
C731 C729 1.387 . S
C731 C733 1.390 . S
C731 H735 0.950 1_545 S
H732 C728 0.950 . S
C733 C731 1.390 . S
C733 C734 1.387 . S
C733 H736 0.950 1_545 S
C734 C733 1.387 . S
C734 C737 1.387 . S
H735 C731 0.950 1_565 S
H736 C733 0.950 1_565 S
C737 C728 1.390 . S
C737 H730 0.950 . S
C737 C734 1.387 . S
C738 C739 1.387 . S
C738 H742 0.950 . S
C738 C747 1.390 . S
C739 C738 1.387 . S
C739 C741 1.387 1_565 S
H740 C747 0.950 . S
C741 C739 1.387 1_545 S
C741 C743 1.390 . S
C741 H745 0.950 . S
H742 C738 0.950 . S
C743 C741 1.390 . S
C743 C744 1.387 1_545 S
C743 H746 0.950 . S
C744 C743 1.387 1_565 S
C744 C747 1.387 . S
H745 C741 0.950 . S
H746 C743 0.950 . S
C747 C738 1.390 . S
C747 H740 0.950 . S
C747 C744 1.387 . S
C748 C749 1.387 . S
C748 H752 0.950 . S
C748 C757 1.390 . S
C749 C748 1.387 . S
C749 C751 1.387 . S
H750 C757 0.950 . S
C751 C749 1.387 . S
C751 C753 1.390 . S
C751 H755 0.950 1_455 S
H752 C748 0.950 . S
C753 C751 1.390 . S
C753 C754 1.387 . S
C753 H756 0.950 1_455 S
C754 C753 1.387 . S
C754 C757 1.387 . S
H755 C751 0.950 1_655 S
H756 C753 0.950 1_655 S
C757 C748 1.390 . S
C757 H750 0.950 . S
C757 C754 1.387 . S
C758 C759 1.387 . S
C758 H762 0.950 . S
C758 C767 1.390 . S
C759 C758 1.387 . S
C759 C761 1.387 . S
H760 C767 0.950 . S
C761 C759 1.387 . S
C761 C763 1.390 . S
C761 H765 0.950 . S
H762 C758 0.950 . S
C763 C761 1.390 . S
C763 C764 1.387 . S
C763 H766 0.950 . S
C764 C763 1.387 . S
C764 C767 1.387 . S
H765 C761 0.950 . S
H766 C763 0.950 . S
C767 C758 1.390 . S
C767 H760 0.950 . S
C767 C764 1.387 . S
C768 C769 1.387 . S
C768 H772 0.950 . S
C768 C777 1.390 . S
C769 C768 1.387 . S
C769 C771 1.387 . S
H770 C777 0.950 . S
C771 C769 1.387 . S
C771 C773 1.390 . S
C771 H775 0.950 . S
H772 C768 0.950 . S
C773 C771 1.390 . S
C773 C774 1.387 . S
C773 H776 0.950 . S
C774 C773 1.387 . S
C774 C777 1.387 . S
H775 C771 0.950 . S
H776 C773 0.950 . S
C777 C768 1.390 . S
C777 H770 0.950 . S
C777 C774 1.387 . S
C778 C779 1.387 . S
C778 H782 0.950 . S
C778 C787 1.390 1_545 S
C779 C778 1.387 . S
C779 C781 1.387 . S
H780 C787 0.950 . S
C781 C779 1.387 . S
C781 C783 1.390 . S
C781 H785 0.950 . S
H782 C778 0.950 . S
C783 C781 1.390 . S
C783 C784 1.387 1_545 S
C783 H786 0.950 . S
C784 C783 1.387 1_565 S
C784 C787 1.387 . S
H785 C781 0.950 . S
H786 C783 0.950 . S
C787 C778 1.390 1_565 S
C787 H780 0.950 . S
C787 C784 1.387 . S
C788 C789 1.387 1_655 S
C788 H792 0.950 . S
C788 C797 1.390 . S
C789 C788 1.387 1_455 S
C789 C791 1.387 . S
H790 C797 0.950 . S
C791 C789 1.387 . S
C791 C793 1.390 . S
C791 H795 0.950 . S
H792 C788 0.950 . S
C793 C791 1.390 . S
C793 C794 1.387 1_455 S
C793 H796 0.950 . S
C794 C793 1.387 1_655 S
C794 C797 1.387 . S
H795 C791 0.950 . S
H796 C793 0.950 . S
C797 C788 1.390 . S
C797 H790 0.950 . S
C797 C794 1.387 . S
C798 C799 1.387 . S
C798 H802 0.950 . S
C798 C807 1.390 . S
C799 C798 1.387 . S
C799 C801 1.387 . S
H800 C807 0.950 . S
C801 C799 1.387 . S
C801 C803 1.390 . S
C801 H805 0.950 . S
H802 C798 0.950 . S
C803 C801 1.390 . S
C803 C804 1.387 . S
C803 H806 0.950 . S
C804 C803 1.387 . S
C804 C807 1.387 . S
H805 C801 0.950 . S
H806 C803 0.950 . S
C807 C798 1.390 . S
C807 H800 0.950 . S
C807 C804 1.387 . S
C808 C809 1.387 . S
C808 H812 0.950 . S
C808 C817 1.390 . S
C809 C808 1.387 . S
C809 C811 1.387 . S
H810 C817 0.950 . S
C811 C809 1.387 . S
C811 C813 1.389 1_545 S
C811 H815 0.950 . S
H812 C808 0.950 . S
C813 C811 1.389 1_565 S
C813 C814 1.390 . S
C813 H816 0.949 . S
C814 C813 1.390 . S
C814 C817 1.387 1_565 S
H815 C811 0.950 . S
H816 C813 0.949 . S
C817 C808 1.390 . S
C817 H810 0.950 . S
C817 C814 1.387 1_545 S
C818 C819 1.387 . S
C818 H822 0.950 1_455 S
C818 C827 1.390 1_455 S
C819 C818 1.387 . S
C819 C821 1.387 . S
H820 C827 0.950 . S
C821 C819 1.387 . S
C821 C823 1.390 . S
C821 H825 0.950 . S
H822 C818 0.950 1_655 S
C823 C821 1.390 . S
C823 C824 1.387 1_455 S
C823 H826 0.950 . S
C824 C823 1.387 1_655 S
C824 C827 1.387 . S
H825 C821 0.950 . S
H826 C823 0.950 . S
C827 C818 1.390 1_655 S
C827 H820 0.950 . S
C827 C824 1.387 . S
C828 C829 1.387 . S
C828 H832 0.950 . S
C828 C837 1.390 . S
C829 C828 1.387 . S
C829 C831 1.387 . S
H830 C837 0.950 . S
C831 C829 1.387 . S
C831 C833 1.390 . S
C831 H835 0.950 . S
H832 C828 0.950 . S
C833 C831 1.390 . S
C833 C834 1.387 . S
C833 H836 0.950 . S
C834 C833 1.387 . S
C834 C837 1.387 . S
H835 C831 0.950 . S
H836 C833 0.950 . S
C837 C828 1.390 . S
C837 H830 0.950 . S
C837 C834 1.387 . S
C838 C839 1.387 . S
C838 H842 0.950 . S
C838 C847 1.390 . S
C839 C838 1.387 . S
C839 C841 1.387 . S
H840 C847 0.950 . S
C841 C839 1.387 . S
C841 C843 1.390 . S
C841 H845 0.950 . S
H842 C838 0.950 . S
C843 C841 1.390 . S
C843 C844 1.387 . S
C843 H846 0.950 . S
C844 C843 1.387 . S
C844 C847 1.387 . S
H845 C841 0.950 . S
H846 C843 0.950 . S
C847 C838 1.390 . S
C847 H840 0.950 . S
C847 C844 1.387 . S
C848 C849 1.387 . S
C848 H852 0.950 . S
C848 C857 1.390 . S
C849 C848 1.387 . S
C849 C851 1.387 . S
H850 C857 0.950 . S
C851 C849 1.387 . S
C851 C853 1.390 . S
C851 H855 0.950 . S
H852 C848 0.950 . S
C853 C851 1.390 . S
C853 C854 1.387 . S
C853 H856 0.950 . S
C854 C853 1.387 . S
C854 C857 1.387 . S
H855 C851 0.950 . S
H856 C853 0.950 . S
C857 C848 1.390 . S
C857 H850 0.950 . S
C857 C854 1.387 . S
C858 C859 1.387 . S
C858 H862 0.950 . S
C858 C867 1.390 . S
C859 C858 1.387 . S
C859 C861 1.387 . S
H860 C867 0.950 . S
C861 C859 1.387 . S
C861 C863 1.390 . S
C861 H865 0.950 . S
H862 C858 0.950 . S
C863 C861 1.390 . S
C863 C864 1.387 . S
C863 H866 0.950 . S
C864 C863 1.387 . S
C864 C867 1.387 . S
H865 C861 0.950 . S
H866 C863 0.950 . S
C867 C858 1.390 . S
C867 H860 0.950 . S
C867 C864 1.387 . S
C868 C869 1.387 . S
C868 H872 0.950 . S
C868 C877 1.390 . S
C869 C868 1.387 . S
C869 C871 1.387 . S
H870 C877 0.950 . S
C871 C869 1.387 . S
C871 C873 1.390 . S
C871 H875 0.950 . S
H872 C868 0.950 . S
C873 C871 1.390 . S
C873 C874 1.387 . S
C873 H876 0.950 . S
C874 C873 1.387 . S
C874 C877 1.387 . S
H875 C871 0.950 . S
H876 C873 0.950 . S
C877 C868 1.390 . S
C877 H870 0.950 . S
C877 C874 1.387 . S
C878 C879 1.387 . S
C878 H882 0.950 . S
C878 C887 1.390 . S
C879 C878 1.387 . S
C879 C881 1.387 . S
H880 C887 0.950 . S
C881 C879 1.387 . S
C881 C883 1.390 . S
C881 H885 0.950 . S
H882 C878 0.950 . S
C883 C881 1.390 . S
C883 C884 1.387 . S
C883 H886 0.950 . S
C884 C883 1.387 . S
C884 C887 1.387 . S
H885 C881 0.950 . S
H886 C883 0.950 . S
C887 C878 1.390 . S
C887 H880 0.950 . S
C887 C884 1.387 . S
C888 C889 1.387 . S
C888 H892 0.950 . S
C888 C897 1.390 . S
C889 C888 1.387 . S
C889 C891 1.387 . S
H890 C897 0.950 . S
C891 C889 1.387 . S
C891 C893 1.390 . S
C891 H895 0.950 . S
H892 C888 0.950 . S
C893 C891 1.390 . S
C893 C894 1.387 . S
C893 H896 0.950 . S
C894 C893 1.387 . S
C894 C897 1.387 . S
H895 C891 0.950 . S
H896 C893 0.950 . S
C897 C888 1.390 . S
C897 H890 0.950 . S
C897 C894 1.387 . S
C898 C899 1.387 . S
C898 H902 0.950 . S
C898 C907 1.390 . S
C899 C898 1.387 . S
C899 C901 1.387 . S
H900 C907 0.950 . S
C901 C899 1.387 . S
C901 C903 1.390 . S
C901 H905 0.950 . S
H902 C898 0.950 . S
C903 C901 1.390 . S
C903 C904 1.387 . S
C903 H906 0.950 . S
C904 C903 1.387 . S
C904 C907 1.387 . S
H905 C901 0.950 . S
H906 C903 0.950 . S
C907 C898 1.390 . S
C907 H900 0.950 . S
C907 C904 1.387 . S
C908 C909 1.387 . S
C908 H912 0.950 . S
C908 C917 1.390 . S
C909 C908 1.387 . S
C909 C911 1.387 . S
H910 C917 0.950 . S
C911 C909 1.387 . S
C911 C913 1.390 . S
C911 H915 0.950 . S
H912 C908 0.950 . S
C913 C911 1.390 . S
C913 C914 1.387 . S
C913 H916 0.950 . S
C914 C913 1.387 . S
C914 C917 1.387 . S
H915 C911 0.950 . S
H916 C913 0.950 . S
C917 C908 1.390 . S
C917 H910 0.950 . S
C917 C914 1.387 . S
C918 C919 1.387 . S
C918 H922 0.950 . S
C918 C927 1.390 . S
C919 C918 1.387 . S
C919 C921 1.387 . S
H920 C927 0.950 . S
C921 C919 1.387 . S
C921 C923 1.390 . S
C921 H925 0.950 . S
H922 C918 0.950 . S
C923 C921 1.390 . S
C923 C924 1.387 . S
C923 H926 0.950 . S
C924 C923 1.387 . S
C924 C927 1.387 . S
H925 C921 0.950 . S
H926 C923 0.950 . S
C927 C918 1.390 . S
C927 H920 0.950 . S
C927 C924 1.387 . S
C928 C929 1.387 . S
C928 H932 0.950 . S
C928 C937 1.390 . S
C929 C928 1.387 . S
C929 C931 1.387 . S
H930 C937 0.950 . S
C931 C929 1.387 . S
C931 C933 1.390 . S
C931 H935 0.950 . S
H932 C928 0.950 . S
C933 C931 1.390 . S
C933 C934 1.387 . S
C933 H936 0.950 . S
C934 C933 1.387 . S
C934 C937 1.387 . S
H935 C931 0.950 . S
H936 C933 0.950 . S
C937 C928 1.390 . S
C937 H930 0.950 . S
C937 C934 1.387 . S
C938 C939 1.387 . S
C938 H942 0.950 . S
C938 C947 1.390 . S
C939 C938 1.387 . S
C939 C941 1.387 . S
H940 C947 0.950 . S
C941 C939 1.387 . S
C941 C943 1.390 . S
C941 H945 0.950 . S
H942 C938 0.950 . S
C943 C941 1.390 . S
C943 C944 1.387 . S
C943 H946 0.950 . S
C944 C943 1.387 . S
C944 C947 1.387 . S
H945 C941 0.950 . S
H946 C943 0.950 . S
C947 C938 1.390 . S
C947 H940 0.950 . S
C947 C944 1.387 . S
C948 C949 1.387 . S
C948 H952 0.950 . S
C948 C957 1.390 . S
C949 C948 1.387 . S
C949 C951 1.387 . S
H950 C957 0.950 . S
C951 C949 1.387 . S
C951 C953 1.390 . S
C951 H955 0.950 . S
H952 C948 0.950 . S
C953 C951 1.390 . S
C953 C954 1.387 . S
C953 H956 0.950 . S
C954 C953 1.387 . S
C954 C957 1.387 . S
H955 C951 0.950 . S
H956 C953 0.950 . S
C957 C948 1.390 . S
C957 H950 0.950 . S
C957 C954 1.387 . S
C958 C959 1.387 . S
C958 H962 0.950 . S
C958 C967 1.390 . S
C959 C958 1.387 . S
C959 C961 1.387 . S
H960 C967 0.950 . S
C961 C959 1.387 . S
C961 C963 1.390 1_545 S
C961 H965 0.950 . S
H962 C958 0.950 . S
C963 C961 1.390 1_565 S
C963 C964 1.387 . S
C963 H966 0.950 . S
C964 C963 1.387 . S
C964 C967 1.387 1_565 S
H965 C961 0.950 . S
H966 C963 0.950 . S
C967 C958 1.390 . S
C967 H960 0.950 . S
C967 C964 1.387 1_545 S
C968 C969 1.387 . S
C968 H972 0.950 . S
C968 C977 1.390 . S
C969 C968 1.387 . S
C969 C971 1.387 . S
H970 C977 0.951 . S
C971 C969 1.387 . S
C971 C973 1.390 1_455 S
C971 H975 0.950 . S
H972 C968 0.950 . S
C973 C971 1.390 1_655 S
C973 C974 1.387 . S
C973 H976 0.950 . S
C974 C973 1.387 . S
C974 C977 1.387 1_655 S
H975 C971 0.950 . S
H976 C973 0.950 . S
C977 C968 1.390 . S
C977 H970 0.951 . S
C977 C974 1.387 1_455 S
C978 C979 1.387 1_554 S
C978 H982 0.950 . S
C978 C987 1.390 . S
C979 C978 1.387 1_556 S
C979 C981 1.387 . S
H980 C987 0.950 . S
C981 C979 1.387 . S
C981 C983 1.390 . S
C981 H985 0.950 . S
H982 C978 0.950 . S
C983 C981 1.390 . S
C983 C984 1.387 1_556 S
C983 H986 0.950 . S
C984 C983 1.387 1_554 S
C984 C987 1.387 . S
H985 C981 0.950 . S
H986 C983 0.950 . S
C987 C978 1.390 . S
C987 H980 0.950 . S
C987 C984 1.387 . S
C988 C989 1.387 1_545 S
C988 H992 0.950 . S
C988 C997 1.390 . S
C989 C988 1.387 1_565 S
C989 C991 1.387 1_556 S
H990 C997 0.950 . S
C991 C989 1.387 1_554 S
C991 C993 1.390 1_565 S
C991 H995 0.950 . S
H992 C988 0.950 . S
C993 C991 1.390 1_545 S
C993 C994 1.387 . S
C993 H996 0.950 . S
C994 C993 1.387 . S
C994 C997 1.387 1_554 S
H995 C991 0.950 . S
H996 C993 0.950 . S
C997 C988 1.390 . S
C997 H990 0.950 . S
C997 C994 1.387 1_556 S
C998 C999 1.387 . S
C998 H1002 0.950 . S
C998 C1007 1.390 1_455 S
C999 C998 1.387 . S
C999 C1001 1.387 1_556 S
H1000 C1007 0.950 . S
C1001 C999 1.387 1_554 S
C1001 C1003 1.390 . S
C1001 H1005 0.950 . S
H1002 C998 0.950 . S
C1003 C1001 1.390 . S
C1003 C1004 1.387 1_455 S
C1003 H1006 0.950 . S
C1004 C1003 1.387 1_655 S
C1004 C1007 1.387 1_554 S
H1005 C1001 0.950 . S
H1006 C1003 0.950 . S
C1007 C998 1.390 1_655 S
C1007 H1000 0.950 . S
C1007 C1004 1.387 1_556 S
C649 C3 1.101 . S
C654 C518 1.080 . S
C659 C436 1.125 . S
C664 C40 1.125 . S
C669 C74 1.125 . S
C674 C471 1.137 . S
C679 C219 1.093 . S
C684 C86 1.058 . S
C689 C256 1.122 . S
C694 C4 1.123 . S
C699 C302 1.071 . S
C704 C39 1.102 . S
C709 C110 1.241 . S
C714 C410 1.215 . S
C719 C338 1.202 . S
C724 C158 1.191 . S
C729 C374 1.224 . S
C734 C182 1.238 . S
C739 C194 1.214 . S
C744 C542 1.241 . S
C749 C122 1.199 . S
C754 C590 1.204 . S
C759 C614 1.270 . S
C764 C146 1.273 . S
C769 C435 1.129 . S
C774 C290 1.115 . S
C779 C220 1.140 . S
C784 C472 1.139 . S
C789 C506 1.126 . S
C794 C255 1.140 . S
C799 C626 1.231 . S
C804 C326 1.255 . S
C809 C362 1.254 . S
C814 C554 1.228 . S
C819 C578 1.276 . S
C824 C398 1.272 . S
C829 C544 1.861 . S
C834 C14 1.983 . S
C839 C38 1.723 . S
C844 C579 1.900 . S
C849 C76 1.793 . S
C854 C616 1.792 . S
C859 C75 1.901 . S
C864 C399 1.901 . S
C869 C327 1.952 . S
C874 C2 1.770 . S
C879 C50 1.940 . S
C884 C363 1.948 . S
C889 C230 1.984 . S
C894 C112 1.859 . S
C899 C254 1.720 . S
C904 C147 1.896 . S
C909 C184 1.777 . S
C914 C291 1.897 . S
C919 C183 1.898 . S
C924 C507 1.899 . S
C929 C111 1.947 . S
C934 C434 1.767 . S
C939 C148 1.840 . S
C944 C482 1.946 . S
C949 C292 1.788 . S
C954 C615 1.905 . S
C959 C218 1.778 . S
C964 C543 1.961 . S
C969 C580 1.839 . S
C974 C266 1.946 . S
C979 C446 1.989 . S
C984 C328 1.866 . S
C989 C470 1.723 . S
C994 C364 1.777 . S
C999 C508 1.787 . S
C1004 C400 1.788 . S
