# Generated by pormake.
# Topology fny, (5)-cn, num edge types: 1
# Building blocks:
#     Node 0, Type 0, BuildingBlock: XOMCOT_clean_sbu_0, # of connection points: 5
#     Node 1, Type 0, BuildingBlock: XOMCOT_clean_sbu_0, # of connection points: 5
#     Node 2, Type 0, BuildingBlock: XOMCOT_clean_sbu_0, # of connection points: 5
#     Node 3, Type 0, BuildingBlock: XOMCOT_clean_sbu_0, # of connection points: 5
#     Node 4, Type 0, BuildingBlock: XOMCOT_clean_sbu_0, # of connection points: 5
#     Node 5, Type 0, BuildingBlock: XOMCOT_clean_sbu_0, # of connection points: 5
#     Node 6, Type 0, BuildingBlock: XOMCOT_clean_sbu_0, # of connection points: 5
#     Node 7, Type 0, BuildingBlock: XOMCOT_clean_sbu_0, # of connection points: 5
#     Node 8, Type 0, BuildingBlock: XOMCOT_clean_sbu_0, # of connection points: 5
#     Node 9, Type 0, BuildingBlock: XOMCOT_clean_sbu_0, # of connection points: 5
#     Node 10, Type 0, BuildingBlock: XOMCOT_clean_sbu_0, # of connection points: 5
#     Node 11, Type 0, BuildingBlock: XOMCOT_clean_sbu_0, # of connection points: 5
#     Edge 12, Type (0, 0), BuildingBlock: OJICUG_clean_linker_0, # of connection points: 2
#     Edge 13, Type (0, 0), BuildingBlock: OJICUG_clean_linker_0, # of connection points: 2
#     Edge 14, Type (0, 0), BuildingBlock: OJICUG_clean_linker_0, # of connection points: 2
#     Edge 15, Type (0, 0), BuildingBlock: OJICUG_clean_linker_0, # of connection points: 2
#     Edge 16, Type (0, 0), BuildingBlock: OJICUG_clean_linker_0, # of connection points: 2
#     Edge 17, Type (0, 0), BuildingBlock: OJICUG_clean_linker_0, # of connection points: 2
#     Edge 18, Type (0, 0), BuildingBlock: OJICUG_clean_linker_0, # of connection points: 2
#     Edge 19, Type (0, 0), BuildingBlock: OJICUG_clean_linker_0, # of connection points: 2
#     Edge 20, Type (0, 0), BuildingBlock: OJICUG_clean_linker_0, # of connection points: 2
#     Edge 21, Type (0, 0), BuildingBlock: OJICUG_clean_linker_0, # of connection points: 2
#     Edge 22, Type (0, 0), BuildingBlock: OJICUG_clean_linker_0, # of connection points: 2
#     Edge 23, Type (0, 0), BuildingBlock: OJICUG_clean_linker_0, # of connection points: 2
#     Edge 24, Type (0, 0), BuildingBlock: OJICUG_clean_linker_0, # of connection points: 2
#     Edge 25, Type (0, 0), BuildingBlock: OJICUG_clean_linker_0, # of connection points: 2
#     Edge 26, Type (0, 0), BuildingBlock: OJICUG_clean_linker_0, # of connection points: 2
#     Edge 27, Type (0, 0), BuildingBlock: OJICUG_clean_linker_0, # of connection points: 2
#     Edge 28, Type (0, 0), BuildingBlock: OJICUG_clean_linker_0, # of connection points: 2
#     Edge 29, Type (0, 0), BuildingBlock: OJICUG_clean_linker_0, # of connection points: 2
#     Edge 30, Type (0, 0), BuildingBlock: OJICUG_clean_linker_0, # of connection points: 2
#     Edge 31, Type (0, 0), BuildingBlock: OJICUG_clean_linker_0, # of connection points: 2
#     Edge 32, Type (0, 0), BuildingBlock: OJICUG_clean_linker_0, # of connection points: 2
#     Edge 33, Type (0, 0), BuildingBlock: OJICUG_clean_linker_0, # of connection points: 2
#     Edge 34, Type (0, 0), BuildingBlock: OJICUG_clean_linker_0, # of connection points: 2
#     Edge 35, Type (0, 0), BuildingBlock: OJICUG_clean_linker_0, # of connection points: 2
#     Edge 36, Type (0, 0), BuildingBlock: OJICUG_clean_linker_0, # of connection points: 2
#     Edge 37, Type (0, 0), BuildingBlock: OJICUG_clean_linker_0, # of connection points: 2
#     Edge 38, Type (0, 0), BuildingBlock: OJICUG_clean_linker_0, # of connection points: 2
#     Edge 39, Type (0, 0), BuildingBlock: OJICUG_clean_linker_0, # of connection points: 2
#     Edge 40, Type (0, 0), BuildingBlock: OJICUG_clean_linker_0, # of connection points: 2
#     Edge 41, Type (0, 0), BuildingBlock: OJICUG_clean_linker_0, # of connection points: 2
# Relax obj value: 0.307
# Max RMSD: 0.232
# Mean RMSD: 0.232
data_MOF--net-fny--node1-XOMCOT_clean_sbu_0--edge1-OJICUG_clean_linker_0
_symmetry_space_group_name_H-M    P1
_symmetry_Int_Tables_number       1
_symmetry_cell_setting            triclinic
loop_
_symmetry_equiv_pos_as_xyz
'x, y, z'
_cell_length_a     45.251838
_cell_length_b     45.47921
_cell_length_c     18.000007
_cell_angle_alpha  90.23516
_cell_angle_beta   89.582543
_cell_angle_gamma 119.8244
loop_
_atom_site_label
_atom_site_type_symbol
_atom_site_fract_x
_atom_site_fract_y
_atom_site_fract_z
_atom_type_partial_charge
Co0 Co 0.39174 0.56449 0.30392 0.0
C1 C 0.45272 0.58595 0.38451 0.0
C2 C 0.46089 0.62255 0.30123 0.0
C3 C 0.4921 0.62645 0.32073 0.0
N4 N 0.43617 0.59636 0.34004 0.0
N5 N 0.48645 0.60228 0.37078 0.0
H6 H 0.4397 0.56425 0.42088 0.0
H7 H 0.45655 0.63573 0.25652 0.0
C8 C 0.40297 0.56902 0.13671 0.0
O9 O 0.38557 0.53571 0.13711 0.0
N10 N 0.34715 0.53274 0.2666 0.0
C11 C 0.32935 0.4986 0.26987 0.0
C12 C 0.30552 0.48695 0.21425 0.0
C13 C 0.33205 0.54123 0.21384 0.0
N14 N 0.3083 0.51388 0.17704 0.0
C15 C 0.39832 0.50573 0.33612 0.0
C16 C 0.45145 0.52013 0.23944 0.0
C17 C 0.4402 0.49221 0.28684 0.0
C18 C 0.4133 0.48519 0.33582 0.0
C19 C 0.43609 0.54029 0.24227 0.0
N20 N 0.40875 0.53237 0.28799 0.0
H21 H 0.37934 0.50104 0.37808 0.0
H22 H 0.44802 0.56355 0.21099 0.0
H23 H 0.3347 0.4827 0.30471 0.0
H24 H 0.3418 0.56715 0.19618 0.0
O25 O 0.37401 0.55128 0.40494 0.0
O26 O 0.37275 0.59233 0.34384 0.0
O27 O 0.40737 0.58503 0.1985 0.0
C28 C 0.36471 0.57402 0.40418 0.0
H29 H 0.51667 0.64435 0.29735 0.0
H30 H 0.29068 0.46078 0.1967 0.0
H31 H 0.47323 0.52751 0.2032 0.0
H32 H 0.40431 0.46438 0.37485 0.0
Co33 Co 0.85262 0.37118 0.80832 0.0
C34 C 0.88264 0.44438 0.82025 0.0
C35 C 0.83741 0.41977 0.8871 0.0
C36 C 0.85386 0.454 0.90121 0.0
N37 N 0.85637 0.41369 0.83834 0.0
N38 N 0.88337 0.46943 0.86171 0.0
H39 H 0.90347 0.44808 0.78445 0.0
H40 H 0.81494 0.40074 0.91559 0.0
C41 C 0.8335 0.39768 0.67389 0.0
O42 O 0.81292 0.40251 0.71757 0.0
N43 N 0.84931 0.32957 0.77562 0.0
C44 C 0.87203 0.31876 0.78304 0.0
C45 C 0.86531 0.29441 0.72949 0.0
C46 C 0.82865 0.31116 0.72057 0.0
N47 N 0.83801 0.28989 0.69066 0.0
C48 C 0.9205 0.40093 0.8655 0.0
C49 C 0.9549 0.4158 0.73131 0.0
C50 C 0.97413 0.42439 0.79714 0.0
C51 C 0.95599 0.41592 0.86482 0.0
C52 C 0.91923 0.39954 0.7344 0.0
N53 N 0.90241 0.39304 0.80102 0.0
H54 H 0.90757 0.39586 0.91847 0.0
H55 H 0.90544 0.39242 0.68279 0.0
H56 H 0.89385 0.33 0.81938 0.0
H57 H 0.80982 0.31636 0.69669 0.0
O58 O 0.84718 0.35581 0.91131 0.0
O59 O 0.80409 0.34552 0.83927 0.0
O60 O 0.84978 0.38366 0.70027 0.0
C61 C 0.81448 0.34136 0.90397 0.0
H62 H 0.84719 0.46559 0.94613 0.0
H63 H 0.88074 0.28297 0.71636 0.0
H64 H 0.96703 0.42179 0.67724 0.0
H65 H 0.96883 0.42072 0.91762 0.0
Co66 Co 0.51404 0.84004 0.32844 0.0
C67 C 0.50796 0.8836 0.43154 0.0
C68 C 0.46922 0.8691 0.34997 0.0
C69 C 0.47385 0.89824 0.38483 0.0
N70 N 0.49106 0.8602 0.37918 0.0
N71 N 0.49917 0.90784 0.4345 0.0
H72 H 0.52852 0.88431 0.46304 0.0
H73 H 0.45319 0.85729 0.30243 0.0
C74 C 0.49246 0.83564 0.1652 0.0
O75 O 0.52413 0.84605 0.14515 0.0
N76 N 0.53883 0.82141 0.27993 0.0
C77 C 0.57244 0.83253 0.28364 0.0
C78 C 0.58033 0.81513 0.2326 0.0
C79 C 0.52634 0.79565 0.23164 0.0
N80 N 0.55142 0.79267 0.19782 0.0
C81 C 0.57751 0.90345 0.33947 0.0
C82 C 0.56092 0.93979 0.2427 0.0
C83 C 0.59061 0.95742 0.28489 0.0
C84 C 0.59913 0.93856 0.33276 0.0
C85 C 0.53989 0.90486 0.25163 0.0
N86 N 0.54824 0.8866 0.29885 0.0
H87 H 0.58321 0.89039 0.38194 0.0
H88 H 0.5156 0.89362 0.22469 0.0
H89 H 0.59055 0.8529 0.31789 0.0
H90 H 0.4997 0.78162 0.21711 0.0
O91 O 0.53392 0.83599 0.42155 0.0
O92 O 0.48536 0.79591 0.37708 0.0
O93 O 0.48462 0.83271 0.23488 0.0
C94 C 0.50849 0.80529 0.42836 0.0
H95 H 0.46045 0.91182 0.37282 0.0
H96 H 0.60593 0.82129 0.21735 0.0
H97 H 0.55297 0.95308 0.20522 0.0
H98 H 0.62117 0.95104 0.36843 0.0
Co99 Co 0.72385 0.51157 0.80604 0.0
C100 C 0.66393 0.50515 0.88295 0.0
C101 C 0.66119 0.4568 0.87475 0.0
C102 C 0.63308 0.45306 0.91321 0.0
N103 N 0.68047 0.48965 0.85597 0.0
N104 N 0.63506 0.48368 0.9185 0.0
H105 H 0.67386 0.53209 0.88274 0.0
H106 H 0.66773 0.43733 0.86367 0.0
C107 C 0.66991 0.46796 0.69168 0.0
O108 O 0.64792 0.47261 0.73049 0.0
N109 N 0.76756 0.53505 0.75768 0.0
C110 C 0.79882 0.55211 0.78859 0.0
C111 C 0.82213 0.57105 0.73474 0.0
C112 C 0.77226 0.54433 0.68611 0.0
N113 N 0.80519 0.56636 0.67074 0.0
C114 C 0.72973 0.57695 0.82455 0.0
C115 C 0.68491 0.57118 0.71481 0.0
C116 C 0.69343 0.59609 0.76974 0.0
C117 C 0.71781 0.60005 0.82243 0.0
C118 C 0.69746 0.54861 0.71907 0.0
N119 N 0.71684 0.54953 0.77794 0.0
H120 H 0.74712 0.57967 0.86812 0.0
H121 H 0.69058 0.53016 0.67573 0.0
H122 H 0.8047 0.55208 0.84641 0.0
H123 H 0.75185 0.53526 0.64611 0.0
O124 O 0.74579 0.52844 0.90198 0.0
O125 O 0.73641 0.48022 0.8533 0.0
O126 O 0.7017 0.48375 0.70998 0.0
C127 C 0.74903 0.50174 0.90798 0.0
H128 H 0.61461 0.43032 0.94189 0.0
H129 H 0.84929 0.58723 0.74217 0.0
H130 H 0.66724 0.56786 0.67099 0.0
H131 H 0.72655 0.61995 0.86383 0.0
Co132 Co 0.23988 0.68788 0.31028 0.0
C133 C 0.19395 0.64095 0.41563 0.0
C134 C 0.20389 0.61347 0.33239 0.0
C135 C 0.1751 0.59105 0.37169 0.0
N136 N 0.21582 0.64494 0.36057 0.0
N137 N 0.16846 0.60874 0.42291 0.0
H138 H 0.19559 0.6619 0.44729 0.0
H139 H 0.21342 0.60713 0.28343 0.0
C140 C 0.26258 0.65311 0.19864 0.0
O141 O 0.28369 0.65397 0.24941 0.0
N142 N 0.26113 0.73056 0.25931 0.0
C143 C 0.27712 0.76246 0.28661 0.0
C144 C 0.28118 0.78449 0.23018 0.0
C145 C 0.25522 0.73365 0.18774 0.0
N146 N 0.26701 0.76612 0.16837 0.0
C147 C 0.1829 0.6987 0.32074 0.0
C148 C 0.13926 0.64427 0.23346 0.0
C149 C 0.12569 0.66011 0.27789 0.0
C150 C 0.1481 0.68828 0.32029 0.0
C151 C 0.17404 0.65493 0.23687 0.0
N152 N 0.19524 0.68109 0.2823 0.0
H153 H 0.19955 0.7196 0.35608 0.0
H154 H 0.18303 0.64031 0.20694 0.0
H155 H 0.28441 0.76957 0.34361 0.0
H156 H 0.24201 0.71232 0.15069 0.0
O157 O 0.2459 0.7117 0.40454 0.0
O158 O 0.28346 0.69925 0.35946 0.0
O159 O 0.24285 0.66498 0.21425 0.0
C160 C 0.27517 0.71346 0.41258 0.0
H161 H 0.15993 0.56404 0.3622 0.0
H162 H 0.29319 0.81178 0.23465 0.0
H163 H 0.12276 0.6223 0.20021 0.0
H164 H 0.13864 0.70142 0.35476 0.0
Co165 Co 0.5826 0.21484 0.83314 0.0
C166 C 0.58931 0.16932 0.92813 0.0
C167 C 0.63 0.18835 0.84908 0.0
C168 C 0.62682 0.15921 0.88052 0.0
N169 N 0.60607 0.19436 0.87895 0.0
N170 N 0.60035 0.14675 0.9287 0.0
H171 H 0.56758 0.16648 0.95937 0.0
H172 H 0.64695 0.20252 0.80407 0.0
C173 C 0.60183 0.21745 0.66783 0.0
O174 O 0.56978 0.20574 0.65007 0.0
N175 N 0.55729 0.23399 0.78944 0.0
C176 C 0.52454 0.22507 0.80335 0.0
C177 C 0.51442 0.24044 0.75217 0.0
C178 C 0.5674 0.2568 0.73448 0.0
N179 N 0.54127 0.25972 0.708 0.0
C180 C 0.51822 0.15196 0.84424 0.0
C181 C 0.5355 0.11485 0.7499 0.0
C182 C 0.50553 0.09757 0.79195 0.0
C183 C 0.49658 0.11678 0.83838 0.0
C184 C 0.55647 0.14981 0.75787 0.0
N185 N 0.54785 0.16846 0.80394 0.0
H186 H 0.5125 0.16515 0.88671 0.0
H187 H 0.58109 0.16078 0.73167 0.0
H188 H 0.50839 0.20761 0.84541 0.0
H189 H 0.59241 0.26834 0.70902 0.0
O190 O 0.56432 0.21854 0.92966 0.0
O191 O 0.61231 0.2586 0.88168 0.0
O192 O 0.61063 0.22205 0.73673 0.0
C193 C 0.59022 0.24901 0.93584 0.0
H194 H 0.6423 0.1478 0.86779 0.0
H195 H 0.48872 0.23569 0.74415 0.0
H196 H 0.54378 0.10126 0.71361 0.0
H197 H 0.47429 0.10452 0.87396 0.0
Co198 Co 0.52168 0.68501 0.74746 0.0
C199 C 0.52255 0.62959 0.66678 0.0
C200 C 0.473 0.62476 0.66222 0.0
C201 C 0.47345 0.60014 0.61813 0.0
N202 N 0.50402 0.64327 0.69257 0.0
N203 N 0.50492 0.60362 0.62039 0.0
H204 H 0.5496 0.64062 0.67352 0.0
H205 H 0.45232 0.63009 0.66792 0.0
C206 C 0.47419 0.62808 0.85601 0.0
O207 O 0.47377 0.6054 0.81017 0.0
N208 N 0.5406 0.72699 0.80004 0.0
C209 C 0.57083 0.75514 0.78668 0.0
C210 C 0.57866 0.77654 0.84648 0.0
C211 C 0.52983 0.73209 0.86563 0.0
N212 N 0.55274 0.76174 0.89534 0.0
C213 C 0.59014 0.69684 0.73731 0.0
C214 C 0.58354 0.64852 0.83855 0.0
C215 C 0.61177 0.66237 0.79027 0.0
C216 C 0.61565 0.6881 0.74184 0.0
C217 C 0.55858 0.65807 0.83241 0.0
N218 N 0.56084 0.68034 0.77872 0.0
H219 H 0.59286 0.71478 0.6952 0.0
H220 H 0.53692 0.64594 0.86871 0.0
H221 H 0.5871 0.7591 0.7392 0.0
H222 H 0.50719 0.71352 0.89448 0.0
O223 O 0.54037 0.7105 0.6554 0.0
O224 O 0.48953 0.69623 0.69887 0.0
O225 O 0.49283 0.65986 0.84079 0.0
C226 C 0.51286 0.71244 0.64845 0.0
H227 H 0.4536 0.58399 0.5797 0.0
H228 H 0.60224 0.8 0.85555 0.0
H229 H 0.5796 0.62892 0.87789 0.0
H230 H 0.63748 0.70034 0.70496 0.0
Co231 Co 0.86543 0.50459 0.25315 0.0
C232 C 0.91796 0.50287 0.16753 0.0
C233 C 0.87449 0.45308 0.17287 0.0
C234 C 0.89513 0.45452 0.11474 0.0
N235 N 0.88876 0.48374 0.20557 0.0
N236 N 0.92183 0.48641 0.10965 0.0
H237 H 0.93218 0.53016 0.17112 0.0
H238 H 0.84873 0.43285 0.18297 0.0
C239 C 0.86208 0.45337 0.37082 0.0
O240 O 0.87795 0.44321 0.32535 0.0
N241 N 0.84389 0.52779 0.2978 0.0
C242 C 0.82656 0.54135 0.26524 0.0
C243 C 0.82214 0.56151 0.31574 0.0
C244 C 0.84988 0.5401 0.36723 0.0
N245 N 0.83716 0.56092 0.37947 0.0
C246 C 0.92197 0.57208 0.25963 0.0
C247 C 0.96448 0.55706 0.34059 0.0
C248 C 0.97859 0.5882 0.30336 0.0
C249 C 0.95666 0.59611 0.26474 0.0
C250 C 0.92984 0.53345 0.3327 0.0
N251 N 0.90935 0.5405 0.28971 0.0
H252 H 0.90576 0.57782 0.22616 0.0
H253 H 0.92055 0.50867 0.35607 0.0
H254 H 0.81826 0.53803 0.20848 0.0
H255 H 0.86354 0.53403 0.40782 0.0
O256 O 0.86472 0.52385 0.15698 0.0
O257 O 0.82341 0.47495 0.19779 0.0
O258 O 0.85602 0.47701 0.35048 0.0
C259 C 0.83496 0.49755 0.14494 0.0
H260 H 0.88753 0.43559 0.07132 0.0
H261 H 0.80908 0.57563 0.30613 0.0
H262 H 0.98057 0.5499 0.37078 0.0
H263 H 0.9665 0.62007 0.23591 0.0
Co264 Co 0.38821 0.83153 0.75909 0.0
C265 C 0.44582 0.87588 0.67414 0.0
C266 C 0.46092 0.85083 0.75242 0.0
C267 C 0.48966 0.87997 0.72848 0.0
N268 N 0.43336 0.8489 0.71919 0.0
N269 N 0.47964 0.89626 0.68139 0.0
H270 H 0.42959 0.88212 0.64203 0.0
H271 H 0.46014 0.83409 0.79557 0.0
C272 C 0.40339 0.83236 0.9267 0.0
O273 O 0.38663 0.84856 0.94005 0.0
N274 N 0.34238 0.81527 0.79617 0.0
C275 C 0.31849 0.82107 0.76562 0.0
C276 C 0.29122 0.80993 0.81334 0.0
C277 C 0.32806 0.79836 0.85916 0.0
N278 N 0.29762 0.79596 0.87198 0.0
C279 C 0.3881 0.89523 0.74941 0.0
C280 C 0.44482 0.93242 0.83637 0.0
C281 C 0.43146 0.94972 0.79741 0.0
C282 C 0.40219 0.93049 0.75474 0.0
C283 C 0.43016 0.89734 0.82925 0.0
N284 N 0.40183 0.8787 0.78661 0.0
H285 H 0.36796 0.88192 0.71017 0.0
H286 H 0.44363 0.88591 0.85374 0.0
H287 H 0.3208 0.8336 0.71342 0.0
H288 H 0.34011 0.78952 0.89763 0.0
O289 O 0.37073 0.82994 0.65921 0.0
O290 O 0.37254 0.78717 0.7109 0.0
O291 O 0.40506 0.8231 0.85964 0.0
C292 C 0.36354 0.79855 0.65407 0.0
H293 H 0.51553 0.88911 0.74667 0.0
H294 H 0.26972 0.81403 0.80821 0.0
H295 H 0.46748 0.94602 0.86987 0.0
H296 H 0.3915 0.94275 0.72174 0.0
Co297 Co 0.58749 0.37097 0.26752 0.0
C298 C 0.603 0.42652 0.17335 0.0
C299 C 0.64208 0.44146 0.25457 0.0
C300 C 0.64341 0.47022 0.22624 0.0
N301 N 0.61615 0.41405 0.22208 0.0
N302 N 0.61795 0.46052 0.17683 0.0
H303 H 0.58088 0.4105 0.14022 0.0
H304 H 0.65714 0.44079 0.30014 0.0
C305 C 0.59995 0.38682 0.43233 0.0
O306 O 0.56671 0.36895 0.44088 0.0
N307 N 0.55835 0.32773 0.31306 0.0
C308 C 0.52421 0.30805 0.31022 0.0
C309 C 0.51398 0.28474 0.36659 0.0
C310 C 0.5685 0.31437 0.36645 0.0
N311 N 0.54187 0.28964 0.40365 0.0
C312 C 0.52658 0.37529 0.24459 0.0
C313 C 0.5435 0.43027 0.33587 0.0
C314 C 0.51416 0.41796 0.29245 0.0
C315 C 0.50579 0.39002 0.24643 0.0
C316 C 0.56388 0.41514 0.3315 0.0
N317 N 0.55491 0.38708 0.28822 0.0
H318 H 0.52086 0.35567 0.20411 0.0
H319 H 0.58809 0.42789 0.35913 0.0
H320 H 0.50732 0.31141 0.27407 0.0
H321 H 0.59481 0.32539 0.38304 0.0
O322 O 0.5704 0.34973 0.17096 0.0
O323 O 0.61502 0.35227 0.225 0.0
O324 O 0.61275 0.39016 0.36678 0.0
C325 C 0.59406 0.34152 0.16902 0.0
H326 H 0.66101 0.49605 0.2425 0.0
H327 H 0.48785 0.2683 0.38394 0.0
H328 H 0.55183 0.45275 0.36971 0.0
H329 H 0.48379 0.38012 0.2105 0.0
Co330 Co 0.24418 0.56615 0.75452 0.0
C331 C 0.20349 0.58409 0.66889 0.0
C332 C 0.22888 0.6219 0.75213 0.0
C333 C 0.20132 0.62423 0.72698 0.0
N334 N 0.22964 0.59615 0.7162 0.0
N335 N 0.18477 0.59944 0.67656 0.0
H336 H 0.19654 0.56216 0.63423 0.0
H337 H 0.24501 0.63592 0.79819 0.0
C338 C 0.24443 0.57725 0.92281 0.0
O339 O 0.22857 0.54419 0.9314 0.0
N340 N 0.25814 0.53529 0.79189 0.0
C341 C 0.24548 0.50204 0.77695 0.0
C342 C 0.25837 0.48887 0.82751 0.0
C343 C 0.28068 0.54237 0.84634 0.0
N344 N 0.27992 0.51427 0.87202 0.0
C345 C 0.17793 0.50608 0.73702 0.0
C346 C 0.14267 0.52602 0.83074 0.0
C347 C 0.12391 0.496 0.7898 0.0
C348 C 0.14244 0.48598 0.74329 0.0
C349 C 0.17819 0.54473 0.82465 0.0
N350 N 0.19586 0.53461 0.77909 0.0
H351 H 0.19046 0.49975 0.69403 0.0
H352 H 0.19088 0.56889 0.8524 0.0
H353 H 0.22725 0.48763 0.73473 0.0
H354 H 0.29453 0.56701 0.87237 0.0
O355 O 0.24622 0.55041 0.65407 0.0
O356 O 0.28965 0.59331 0.70842 0.0
O357 O 0.25257 0.59004 0.85699 0.0
C358 C 0.27815 0.57365 0.65032 0.0
H359 H 0.19324 0.64165 0.74669 0.0
H360 H 0.25065 0.46237 0.83442 0.0
H361 H 0.13018 0.53635 0.86461 0.0
H362 H 0.12982 0.46333 0.70967 0.0
Co363 Co 0.71029 0.22423 0.26203 0.0
C364 C 0.65552 0.18152 0.16939 0.0
C365 C 0.63793 0.20475 0.24791 0.0
C366 C 0.61011 0.17574 0.22092 0.0
N367 N 0.66649 0.20765 0.21672 0.0
N368 N 0.62165 0.16056 0.17373 0.0
H369 H 0.67276 0.1761 0.13828 0.0
H370 H 0.63736 0.22047 0.2923 0.0
C371 C 0.69037 0.21986 0.42704 0.0
O372 O 0.70615 0.20269 0.43934 0.0
N373 N 0.75466 0.2401 0.30646 0.0
C374 C 0.77901 0.23282 0.28527 0.0
C375 C 0.80299 0.24271 0.34057 0.0
C376 C 0.76577 0.25679 0.37112 0.0
N377 N 0.79396 0.25695 0.39529 0.0
C378 C 0.71024 0.16042 0.24892 0.0
C379 C 0.65111 0.12205 0.32932 0.0
C380 C 0.66541 0.10525 0.29102 0.0
C381 C 0.69583 0.12503 0.25158 0.0
C382 C 0.66608 0.15719 0.32481 0.0
N383 N 0.69572 0.17648 0.2859 0.0
H384 H 0.73137 0.17432 0.21174 0.0
H385 H 0.65194 0.16825 0.34839 0.0
H386 H 0.77904 0.2201 0.23462 0.0
H387 H 0.75264 0.26721 0.4023 0.0
O388 O 0.73046 0.22757 0.16321 0.0
O389 O 0.72729 0.26933 0.21731 0.0
O390 O 0.69039 0.2307 0.36094 0.0
C391 C 0.73671 0.25867 0.1593 0.0
H392 H 0.58382 0.16581 0.23756 0.0
H393 H 0.82386 0.23751 0.34281 0.0
H394 H 0.62754 0.10804 0.36031 0.0
H395 H 0.70728 0.11317 0.21907 0.0
C396 C 0.41131 0.56742 0.99909 0.0
C397 C 0.41968 0.58661 0.06499 0.0
H398 H 0.42121 0.56528 0.88367 0.0
C399 C 0.44504 0.62115 0.06066 0.0
H400 H 0.39178 0.54093 0.99911 0.0
C401 C 0.46224 0.63549 0.99272 0.0
C402 C 0.45457 0.61553 0.92776 0.0
H403 H 0.45227 0.63683 0.11003 0.0
H404 H 0.48224 0.66178 0.9917 0.0
C405 C 0.42837 0.58151 0.9322 0.0
C406 C 0.85828 0.40292 0.54449 0.0
C407 C 0.83968 0.41098 0.5955 0.0
H408 H 0.87953 0.40946 0.43502 0.0
C409 C 0.82802 0.43297 0.57143 0.0
H410 H 0.86772 0.38617 0.56047 0.0
C411 C 0.83511 0.44676 0.49909 0.0
C412 C 0.8538 0.43873 0.44815 0.0
H413 H 0.81377 0.44003 0.60895 0.0
H414 H 0.82598 0.46378 0.48319 0.0
C415 C 0.86505 0.4164 0.4721 0.0
C416 C 0.47259 0.82453 1.03182 0.0
C417 C 0.46716 0.8309 0.10603 0.0
H418 H 0.45648 0.81864 0.91828 0.0
C419 C 0.43877 0.83484 0.12113 0.0
H420 H 0.49399 0.82108 1.01781 0.0
C421 C 0.41759 0.83422 0.06332 0.0
C422 C 0.42367 0.82892 0.98869 0.0
H423 H 0.43361 0.83974 0.17721 0.0
H424 H 0.39674 0.83857 0.0771 0.0
C425 C 0.45097 0.82313 0.97432 0.0
C426 C 0.65513 0.43245 0.4928 0.0
C427 C 0.6212 0.40543 0.49853 0.0
H428 H 0.69783 0.47358 0.54947 0.0
C429 C 0.60604 0.39741 0.56949 0.0
H430 H 0.66773 0.43938 0.4392 0.0
C431 C 0.62309 0.41677 0.63169 0.0
C432 C 0.65613 0.44485 0.62594 0.0
H433 H 0.58027 0.37663 0.57702 0.0
H434 H 0.60975 0.41029 0.6846 0.0
C435 C 0.67249 0.45197 0.55604 0.0
C436 C 0.26732 0.60891 0.12216 0.0
C437 C 0.25933 0.63513 0.12626 0.0
H438 H 0.26849 0.57013 0.05566 0.0
C439 C 0.24795 0.64338 0.06096 0.0
H440 H 0.27602 0.60167 0.17102 0.0
C441 C 0.24468 0.62587 0.9937 0.0
C442 C 0.2517 0.59897 0.99063 0.0
H443 H 0.24164 0.66344 0.06181 0.0
H444 H 0.23545 0.63252 0.94484 0.0
C445 C 0.26302 0.59079 0.05585 0.0
C446 C 0.67634 0.21866 0.56351 0.0
C447 C 0.66998 0.22335 0.48911 0.0
H448 H 0.66077 0.21397 0.67776 0.0
C449 C 0.64242 0.22868 0.47523 0.0
H450 H 0.69729 0.21453 0.57679 0.0
C451 C 0.6209 0.22755 0.53342 0.0
C452 C 0.62678 0.22194 0.60751 0.0
H453 H 0.63664 0.23246 0.41912 0.0
H454 H 0.59929 0.23064 0.52016 0.0
C455 C 0.65535 0.21838 0.62183 0.0
C456 C 0.63875 0.512 0.10357 0.0
C457 C 0.61125 0.48114 0.12723 0.0
H458 H 0.66793 0.53864 1.00926 0.0
C459 C 0.5828 0.46498 0.08017 0.0
H460 H 0.65995 0.52701 0.14 0.0
C461 C 0.58803 0.47024 1.00392 0.0
C462 C 0.62069 0.49353 0.97812 0.0
H463 H 0.5594 0.44328 0.09934 0.0
H464 H 0.56917 0.45207 0.96627 0.0
C465 C 0.64331 0.51855 1.02774 0.0
C466 C 0.14416 0.62033 0.53322 0.0
C467 C 0.14485 0.59635 0.48439 0.0
H468 H 0.16029 0.6419 0.64118 0.0
C469 C 0.13588 0.56449 0.51389 0.0
H470 H 0.14644 0.64361 0.51197 0.0
C471 C 0.14052 0.56222 0.58966 0.0
C472 C 0.15575 0.59229 0.63197 0.0
H473 H 0.13251 0.54383 0.47829 0.0
H474 H 0.13954 0.53941 0.61025 0.0
C475 C 0.15163 0.61926 0.60784 0.0
C476 C 0.62124 0.11861 0.08752 0.0
C477 C 0.60287 0.13042 0.12981 0.0
H478 H 0.63459 0.11405 0.97591 0.0
C479 C 0.57021 0.12176 0.10522 0.0
H480 H 0.64447 0.12049 0.1086 0.0
C481 C 0.56272 0.11384 1.03023 0.0
C482 C 0.58992 0.11985 0.98219 0.0
H483 H 0.55353 0.12726 0.13849 0.0
H484 H 0.54001 0.11295 1.00859 0.0
C485 C 0.61517 0.11404 1.01137 0.0
C486 C 0.50149 0.5651 0.52254 0.0
C487 C 0.52026 0.59637 0.55836 0.0
H488 H 0.47822 0.54189 0.42013 0.0
C489 C 0.54415 0.62421 0.51591 0.0
H490 H 0.48436 0.54269 0.55401 0.0
C491 C 0.53881 0.62432 0.43987 0.0
C492 C 0.51051 0.59622 0.40925 0.0
H493 H 0.56097 0.64829 0.54207 0.0
H494 H 0.55112 0.64837 0.41093 0.0
C495 C 0.4979 0.56486 0.44571 0.0
C496 C 0.92151 0.52317 1.01155 0.0
C497 C 0.93418 0.50256 0.03904 0.0
H498 H 0.89501 0.52958 0.92121 0.0
C499 C 0.94727 0.48857 0.98828 0.0
H500 H 0.91268 0.53586 0.04905 0.0
C501 C 0.93927 0.48757 0.91333 0.0
C502 C 0.91438 0.49612 0.89318 0.0
H503 H 0.95868 0.47397 1.00752 0.0
H504 H 0.9454 0.47241 0.87689 0.0
C505 C 0.91183 0.52018 0.93736 0.0
C506 C 0.48728 0.94217 0.52056 0.0
C507 C 0.51097 0.93421 0.48973 0.0
H508 H 0.4603 0.93947 0.62018 0.0
C509 C 0.53803 0.93869 0.53565 0.0
H510 H 0.46798 0.94278 0.48653 0.0
C511 C 0.53153 0.93278 0.6116 0.0
C512 C 0.49982 0.92653 0.63869 0.0
H513 H 0.55953 0.93746 0.51239 0.0
H514 H 0.54753 0.92627 0.64393 0.0
C515 C 0.48262 0.93967 0.59743 0.0
C516 C 0.2669 0.48422 0.99169 0.0
C517 C 0.28928 0.51141 0.94612 0.0
H518 H 0.25489 0.46426 0.10231 0.0
C519 C 0.31767 0.53907 0.97754 0.0
H520 H 0.24425 0.46291 0.96903 0.0
C521 C 0.32282 0.54053 0.05339 0.0
C522 C 0.30041 0.51369 0.09982 0.0
H523 H 0.33524 0.56027 0.94347 0.0
H524 H 0.34479 0.56276 0.07471 0.0
C525 C 0.27254 0.4853 0.06803 0.0
C526 C 0.79233 0.26042 0.60207 0.0
C527 C 0.82685 0.27471 0.61921 0.0
H528 H 0.75512 0.2446 0.51786 0.0
C529 C 0.85048 0.28042 0.56214 0.0
H530 H 0.77379 0.25587 0.6454 0.0
C531 C 0.83973 0.27389 0.48812 0.0
C532 C 0.80541 0.26204 0.47085 0.0
H533 H 0.87738 0.29199 0.57423 0.0
H534 H 0.85834 0.27958 0.44436 0.0
C535 C 0.78179 0.25446 0.52884 0.0
C536 C 0.52187 0.77262 0.07809 0.0
C537 C 0.54994 0.78017 0.1238 0.0
H538 H 0.50165 0.76201 0.96812 0.0
C539 C 0.57867 0.78052 0.09234 0.0
H540 H 0.49913 0.77192 0.09905 0.0
C541 C 0.58023 0.77591 1.01637 0.0
C542 C 0.55276 0.76998 0.97133 0.0
H543 H 0.60031 0.78519 0.12585 0.0
H544 H 0.60252 0.77631 0.99284 0.0
C545 C 0.52334 0.76752 1.0026 0.0
C546 C 0.79873 0.57908 0.54196 0.0
C547 C 0.81921 0.57753 0.5982 0.0
H548 H 0.78842 0.57474 0.42609 0.0
C549 C 0.8507 0.58046 0.57962 0.0
H550 H 0.77496 0.57825 0.55531 0.0
C551 C 0.85879 0.57916 0.50554 0.0
C552 C 0.8353 0.57457 0.44987 0.0
H553 H 0.86732 0.58003 0.62198 0.0
H554 H 0.88186 0.57855 0.49245 0.0
C555 C 0.80664 0.57744 0.46795 0.0
C556 C 0.29532 0.8097 0.07271 0.0
C557 C 0.26838 0.77799 0.09417 0.0
H558 H 0.32528 0.84041 0.98187 0.0
C559 C 0.24633 0.75574 0.03952 0.0
H560 H 0.31255 0.82752 0.11315 0.0
C561 C 0.25422 0.76292 0.96453 0.0
C562 C 0.28358 0.7927 0.94417 0.0
H563 H 0.22449 0.73168 0.05453 0.0
H564 H 0.23911 0.74424 0.92299 0.0
C565 C 0.30278 0.81702 0.99787 0.0
C566 C 0.51281 0.24672 0.58733 0.0
C567 C 0.53975 0.26896 0.63319 0.0
H568 H 0.49319 0.23507 0.477 0.0
C569 C 0.56783 0.29726 0.60236 0.0
H570 H 0.49137 0.224 0.60975 0.0
C571 C 0.56918 0.30328 0.52666 0.0
C572 C 0.54227 0.28112 0.48014 0.0
H573 H 0.58899 0.31437 0.63695 0.0
H574 H 0.59113 0.32578 0.50558 0.0
C575 C 0.51412 0.2527 0.51134 0.0
C576 C 0.76587 0.46802 0.99434 0.0
C577 C 0.7705 0.49923 0.96811 0.0
H578 H 0.78189 0.44267 0.07219 0.0
C579 C 0.797 0.52916 0.99896 0.0
H580 H 0.74578 0.44446 0.97175 0.0
C581 C 0.81854 0.52815 0.05314 0.0
C582 C 0.81338 0.49716 0.08157 0.0
H583 H 0.80152 0.5537 0.98048 0.0
H584 H 0.8387 0.55194 0.07473 0.0
C585 C 0.78662 0.46699 0.05167 0.0
C586 C 0.32407 0.72866 0.50406 0.0
C587 C 0.29873 0.73453 0.47409 0.0
H588 H 0.36387 0.74342 0.58581 0.0
C589 C 0.29556 0.76155 0.50384 0.0
H590 H 0.32724 0.70806 0.48292 0.0
C591 C 0.31717 0.78237 0.56027 0.0
C592 C 0.34206 0.77634 0.59145 0.0
H593 H 0.27647 0.76703 0.48269 0.0
H594 H 0.31379 0.80294 0.58079 0.0
C595 C 0.34504 0.74891 0.5631 0.0
C596 C 0.62447 0.3204 0.08202 0.0
C597 C 0.5942 0.31806 0.11006 0.0
H598 H 0.64722 0.30122 1.0037 0.0
C599 C 0.56306 0.2925 0.08116 0.0
H600 H 0.6489 0.33975 0.10286 0.0
C601 C 0.56205 0.26978 1.02664 0.0
C602 C 0.59219 0.27249 0.9971 0.0
H603 H 0.53922 0.28972 0.10156 0.0
H604 H 0.5375 0.25048 1.0062 0.0
C605 C 0.6235 0.29832 1.02515 0.0
C606 C 0.34875 0.60587 0.49972 0.0
C607 C 0.34254 0.57538 0.46543 0.0
H608 H 0.3342 0.62942 0.58633 0.0
C609 C 0.31494 0.54495 0.49211 0.0
H610 H 0.36988 0.62976 0.48109 0.0
C611 C 0.29394 0.54484 0.55031 0.0
C612 C 0.30045 0.57505 0.58613 0.0
H613 H 0.30933 0.52099 0.46726 0.0
H614 H 0.27292 0.52077 0.56859 0.0
C615 C 0.32836 0.60564 0.56029 0.0
C616 C 0.77777 0.31546 0.1006 0.0
C617 C 0.75425 0.28065 0.09271 0.0
H618 H 0.81549 0.36158 0.04778 0.0
C619 C 0.74888 0.26668 1.02055 0.0
H620 H 0.7828 0.32711 0.15508 0.0
C621 C 0.76669 0.28681 0.95841 0.0
C622 C 0.79124 0.32126 0.96693 0.0
H623 H 0.73099 0.24001 1.01217 0.0
H624 H 0.7624 0.27502 0.90418 0.0
C625 C 0.79648 0.33526 0.03895 0.0
C626 C 0.53957 0.78661 0.51473 0.0
C627 C 0.50846 0.7814 0.48602 0.0
H628 H 0.56522 0.76884 0.58584 0.0
C629 C 0.47827 0.75272 0.51097 0.0
H630 H 0.56338 0.80812 0.49659 0.0
C631 C 0.47928 0.73035 0.56411 0.0
C632 C 0.5106 0.7354 0.59158 0.0
H633 H 0.45384 0.74777 0.49001 0.0
H634 H 0.45562 0.70884 0.58284 0.0
C635 C 0.54064 0.76382 0.56567 0.0
C636 C 0.46652 0.46156 0.222 0.0
C637 C 0.45797 0.47202 0.28842 0.0
H638 H 0.49069 0.43615 0.17121 0.0
C639 C 0.46743 0.46394 0.35632 0.0
H640 H 0.45956 0.46734 0.16884 0.0
C641 C 0.48542 0.44623 0.35769 0.0
C642 C 0.49397 0.43575 0.29126 0.0
H643 H 0.46161 0.47201 0.40843 0.0
H644 H 0.49263 0.44067 0.41082 0.0
C645 C 0.4841 0.44344 0.22341 0.0
C646 C 0.06755 0.47876 0.85472 0.0
C647 C 0.08548 0.47672 0.79239 0.0
H648 H 1.01978 0.46618 0.90392 0.0
C649 C 0.06615 0.45678 0.73188 0.0
H650 H 0.08087 0.49306 0.90348 0.0
C651 C 1.03044 0.43944 0.73394 0.0
C652 C 1.01254 0.44218 0.79557 0.0
H653 H 0.07836 0.45475 0.6818 0.0
H654 H 1.01707 0.4238 0.68671 0.0
C655 C 1.0319 0.46239 0.85573 0.0
C656 C 0.66425 0.04894 0.29131 0.0
C657 C 0.6469 0.0674 0.28762 0.0
H658 H 0.66031 0.99988 0.29302 0.0
C659 C 0.61122 0.04934 0.28093 0.0
H660 H 0.6917 0.062 0.29659 0.0
C661 C 0.59329 1.01396 0.27965 0.0
C662 C 0.61043 0.99534 0.28415 0.0
H663 H 0.59695 0.06258 0.27642 0.0
H664 H 0.56577 1.00122 0.27652 0.0
C665 C 0.64621 1.01332 0.2899 0.0
C666 C 0.64659 0.64309 0.71639 0.0
C667 C 0.6353 0.64817 0.7859 0.0
H668 H 0.67406 0.62334 0.65659 0.0
C669 C 0.64502 0.63769 0.85012 0.0
H670 H 0.63925 0.65034 0.66554 0.0
C671 C 0.66481 0.62189 0.84484 0.0
C672 C 0.67532 0.616 0.77517 0.0
H673 H 0.63701 0.64134 0.90456 0.0
H674 H 0.67084 0.61321 0.89541 0.0
C675 C 0.66628 0.62721 0.7111 0.0
C676 C 0.07235 0.6365 0.35511 0.0
C677 C 0.08816 0.64527 0.28482 0.0
H678 H 1.0252 0.61135 0.41618 0.0
C679 C 0.06768 0.63722 0.22134 0.0
H680 H 0.08752 0.64202 0.40492 0.0
C681 C 1.0321 0.62022 0.2279 0.0
C682 C 1.01623 0.61024 0.29797 0.0
H683 H 0.0792 0.64358 0.16653 0.0
H684 H 1.01695 0.61353 0.17783 0.0
C685 C 1.03674 0.61884 0.36157 0.0
C686 C 0.48567 1.00588 0.79267 0.0
C687 C 0.44987 0.98762 0.79619 0.0
H688 H 0.53097 0.05422 0.79014 0.0
C689 C 0.43226 1.00588 0.79751 0.0
H690 H 0.50018 0.99282 0.79014 0.0
C691 C 0.45011 0.04151 0.79616 0.0
C692 C 0.48595 0.05967 0.79274 0.0
H693 H 0.40471 0.99267 0.80042 0.0
H694 H 0.43583 0.05481 0.79709 0.0
C695 C 0.5034 0.04127 0.79134 0.0
loop_
_geom_bond_atom_site_label_1
_geom_bond_atom_site_label_2
_geom_bond_distance
_geom_bond_site_symmetry_2
_ccdc_geom_bond_type
Co0 N4 2.148 . S
Co0 N10 2.128 . S
Co0 N20 2.194 . S
Co0 O25 2.351 . S
Co0 O26 2.155 . S
Co0 O27 2.096 . S
C1 N4 1.301 . S
C1 N5 1.328 . S
C1 H6 0.930 . S
C2 C3 1.333 . S
C2 N4 1.317 . S
C2 H7 0.930 . S
C3 C2 1.333 . S
C3 N5 1.350 . S
C3 H29 0.931 . S
N4 Co0 2.148 . S
N4 C1 1.301 . S
N4 C2 1.317 . S
N5 C1 1.328 . S
N5 C3 1.350 . S
H6 C1 0.930 . S
H7 C2 0.930 . S
C8 O9 1.224 . S
C8 O27 1.247 . S
O9 C8 1.224 . S
N10 Co0 2.128 . S
N10 C11 1.355 . S
N10 C13 1.311 . S
C11 N10 1.355 . S
C11 C12 1.363 . S
C11 H23 0.929 . S
C12 C11 1.363 . S
C12 N14 1.375 . S
C12 H30 0.931 . S
C13 N10 1.311 . S
C13 N14 1.347 . S
C13 H24 0.929 . S
N14 C12 1.375 . S
N14 C13 1.347 . S
C15 C18 1.365 . S
C15 N20 1.328 . S
C15 H21 0.929 . S
C16 C17 1.362 . S
C16 C19 1.378 . S
C16 H31 0.929 . S
C17 C16 1.362 . S
C17 C18 1.366 . S
C18 C15 1.365 . S
C18 C17 1.366 . S
C18 H32 0.930 . S
C19 C16 1.378 . S
C19 N20 1.315 . S
C19 H22 0.930 . S
N20 Co0 2.194 . S
N20 C15 1.328 . S
N20 C19 1.315 . S
H21 C15 0.929 . S
H22 C19 0.930 . S
H23 C11 0.929 . S
H24 C13 0.929 . S
O25 Co0 2.351 . S
O25 C28 1.244 . S
O26 Co0 2.155 . S
O26 C28 1.240 . S
O27 Co0 2.096 . S
O27 C8 1.247 . S
C28 O25 1.244 . S
C28 O26 1.240 . S
H29 C3 0.931 . S
H30 C12 0.931 . S
H31 C16 0.929 . S
H32 C18 0.930 . S
Co33 N37 2.148 . S
Co33 N43 2.128 . S
Co33 N53 2.194 . S
Co33 O58 2.351 . S
Co33 O59 2.155 . S
Co33 O60 2.096 . S
C34 N37 1.301 . S
C34 N38 1.328 . S
C34 H39 0.930 . S
C35 C36 1.333 . S
C35 N37 1.317 . S
C35 H40 0.930 . S
C36 C35 1.333 . S
C36 N38 1.350 . S
C36 H62 0.931 . S
N37 Co33 2.148 . S
N37 C34 1.301 . S
N37 C35 1.317 . S
N38 C34 1.328 . S
N38 C36 1.350 . S
H39 C34 0.930 . S
H40 C35 0.930 . S
C41 O42 1.224 . S
C41 O60 1.247 . S
O42 C41 1.224 . S
N43 Co33 2.128 . S
N43 C44 1.355 . S
N43 C46 1.311 . S
C44 N43 1.355 . S
C44 C45 1.363 . S
C44 H56 0.929 . S
C45 C44 1.363 . S
C45 N47 1.375 . S
C45 H63 0.931 . S
C46 N43 1.311 . S
C46 N47 1.347 . S
C46 H57 0.929 . S
N47 C45 1.375 . S
N47 C46 1.347 . S
C48 C51 1.365 . S
C48 N53 1.328 . S
C48 H54 0.929 . S
C49 C50 1.362 . S
C49 C52 1.378 . S
C49 H64 0.929 . S
C50 C49 1.362 . S
C50 C51 1.366 . S
C51 C48 1.365 . S
C51 C50 1.366 . S
C51 H65 0.930 . S
C52 C49 1.378 . S
C52 N53 1.315 . S
C52 H55 0.930 . S
N53 Co33 2.194 . S
N53 C48 1.328 . S
N53 C52 1.315 . S
H54 C48 0.929 . S
H55 C52 0.930 . S
H56 C44 0.929 . S
H57 C46 0.929 . S
O58 Co33 2.351 . S
O58 C61 1.244 . S
O59 Co33 2.155 . S
O59 C61 1.240 . S
O60 Co33 2.096 . S
O60 C41 1.247 . S
C61 O58 1.244 . S
C61 O59 1.240 . S
H62 C36 0.931 . S
H63 C45 0.931 . S
H64 C49 0.929 . S
H65 C51 0.930 . S
Co66 N70 2.148 . S
Co66 N76 2.128 . S
Co66 N86 2.194 . S
Co66 O91 2.351 . S
Co66 O92 2.155 . S
Co66 O93 2.096 . S
C67 N70 1.301 . S
C67 N71 1.328 . S
C67 H72 0.930 . S
C68 C69 1.333 . S
C68 N70 1.317 . S
C68 H73 0.930 . S
C69 C68 1.333 . S
C69 N71 1.350 . S
C69 H95 0.931 . S
N70 Co66 2.148 . S
N70 C67 1.301 . S
N70 C68 1.317 . S
N71 C67 1.328 . S
N71 C69 1.350 . S
H72 C67 0.930 . S
H73 C68 0.930 . S
C74 O75 1.224 . S
C74 O93 1.247 . S
O75 C74 1.224 . S
N76 Co66 2.128 . S
N76 C77 1.355 . S
N76 C79 1.311 . S
C77 N76 1.355 . S
C77 C78 1.363 . S
C77 H89 0.929 . S
C78 C77 1.363 . S
C78 N80 1.375 . S
C78 H96 0.931 . S
C79 N76 1.311 . S
C79 N80 1.347 . S
C79 H90 0.929 . S
N80 C78 1.375 . S
N80 C79 1.347 . S
C81 C84 1.365 . S
C81 N86 1.328 . S
C81 H87 0.929 . S
C82 C83 1.362 . S
C82 C85 1.378 . S
C82 H97 0.929 . S
C83 C82 1.362 . S
C83 C84 1.366 . S
C84 C81 1.365 . S
C84 C83 1.366 . S
C84 H98 0.930 . S
C85 C82 1.378 . S
C85 N86 1.315 . S
C85 H88 0.930 . S
N86 Co66 2.194 . S
N86 C81 1.328 . S
N86 C85 1.315 . S
H87 C81 0.929 . S
H88 C85 0.930 . S
H89 C77 0.929 . S
H90 C79 0.929 . S
O91 Co66 2.351 . S
O91 C94 1.244 . S
O92 Co66 2.155 . S
O92 C94 1.240 . S
O93 Co66 2.096 . S
O93 C74 1.247 . S
C94 O91 1.244 . S
C94 O92 1.240 . S
H95 C69 0.931 . S
H96 C78 0.931 . S
H97 C82 0.929 . S
H98 C84 0.930 . S
Co99 N103 2.148 . S
Co99 N109 2.128 . S
Co99 N119 2.194 . S
Co99 O124 2.351 . S
Co99 O125 2.155 . S
Co99 O126 2.096 . S
C100 N103 1.301 . S
C100 N104 1.328 . S
C100 H105 0.930 . S
C101 C102 1.333 . S
C101 N103 1.317 . S
C101 H106 0.930 . S
C102 C101 1.333 . S
C102 N104 1.350 . S
C102 H128 0.931 . S
N103 Co99 2.148 . S
N103 C100 1.301 . S
N103 C101 1.317 . S
N104 C100 1.328 . S
N104 C102 1.350 . S
H105 C100 0.930 . S
H106 C101 0.930 . S
C107 O108 1.224 . S
C107 O126 1.247 . S
O108 C107 1.224 . S
N109 Co99 2.128 . S
N109 C110 1.355 . S
N109 C112 1.311 . S
C110 N109 1.355 . S
C110 C111 1.363 . S
C110 H122 0.929 . S
C111 C110 1.363 . S
C111 N113 1.375 . S
C111 H129 0.931 . S
C112 N109 1.311 . S
C112 N113 1.347 . S
C112 H123 0.929 . S
N113 C111 1.375 . S
N113 C112 1.347 . S
C114 C117 1.365 . S
C114 N119 1.328 . S
C114 H120 0.929 . S
C115 C116 1.362 . S
C115 C118 1.378 . S
C115 H130 0.929 . S
C116 C115 1.362 . S
C116 C117 1.366 . S
C117 C114 1.365 . S
C117 C116 1.366 . S
C117 H131 0.930 . S
C118 C115 1.378 . S
C118 N119 1.315 . S
C118 H121 0.930 . S
N119 Co99 2.194 . S
N119 C114 1.328 . S
N119 C118 1.315 . S
H120 C114 0.929 . S
H121 C118 0.930 . S
H122 C110 0.929 . S
H123 C112 0.929 . S
O124 Co99 2.351 . S
O124 C127 1.244 . S
O125 Co99 2.155 . S
O125 C127 1.240 . S
O126 Co99 2.096 . S
O126 C107 1.247 . S
C127 O124 1.244 . S
C127 O125 1.240 . S
H128 C102 0.931 . S
H129 C111 0.931 . S
H130 C115 0.929 . S
H131 C117 0.930 . S
Co132 N136 2.148 . S
Co132 N142 2.128 . S
Co132 N152 2.194 . S
Co132 O157 2.351 . S
Co132 O158 2.155 . S
Co132 O159 2.096 . S
C133 N136 1.301 . S
C133 N137 1.328 . S
C133 H138 0.930 . S
C134 C135 1.333 . S
C134 N136 1.317 . S
C134 H139 0.930 . S
C135 C134 1.333 . S
C135 N137 1.350 . S
C135 H161 0.931 . S
N136 Co132 2.148 . S
N136 C133 1.301 . S
N136 C134 1.317 . S
N137 C133 1.328 . S
N137 C135 1.350 . S
H138 C133 0.930 . S
H139 C134 0.930 . S
C140 O141 1.224 . S
C140 O159 1.247 . S
O141 C140 1.224 . S
N142 Co132 2.128 . S
N142 C143 1.355 . S
N142 C145 1.311 . S
C143 N142 1.355 . S
C143 C144 1.363 . S
C143 H155 0.929 . S
C144 C143 1.363 . S
C144 N146 1.375 . S
C144 H162 0.931 . S
C145 N142 1.311 . S
C145 N146 1.347 . S
C145 H156 0.929 . S
N146 C144 1.375 . S
N146 C145 1.347 . S
C147 C150 1.365 . S
C147 N152 1.328 . S
C147 H153 0.929 . S
C148 C149 1.362 . S
C148 C151 1.378 . S
C148 H163 0.929 . S
C149 C148 1.362 . S
C149 C150 1.366 . S
C150 C147 1.365 . S
C150 C149 1.366 . S
C150 H164 0.930 . S
C151 C148 1.378 . S
C151 N152 1.315 . S
C151 H154 0.930 . S
N152 Co132 2.194 . S
N152 C147 1.328 . S
N152 C151 1.315 . S
H153 C147 0.929 . S
H154 C151 0.930 . S
H155 C143 0.929 . S
H156 C145 0.929 . S
O157 Co132 2.351 . S
O157 C160 1.244 . S
O158 Co132 2.155 . S
O158 C160 1.240 . S
O159 Co132 2.096 . S
O159 C140 1.247 . S
C160 O157 1.244 . S
C160 O158 1.240 . S
H161 C135 0.931 . S
H162 C144 0.931 . S
H163 C148 0.929 . S
H164 C150 0.930 . S
Co165 N169 2.148 . S
Co165 N175 2.128 . S
Co165 N185 2.194 . S
Co165 O190 2.351 . S
Co165 O191 2.155 . S
Co165 O192 2.096 . S
C166 N169 1.301 . S
C166 N170 1.328 . S
C166 H171 0.930 . S
C167 C168 1.333 . S
C167 N169 1.317 . S
C167 H172 0.930 . S
C168 C167 1.333 . S
C168 N170 1.350 . S
C168 H194 0.931 . S
N169 Co165 2.148 . S
N169 C166 1.301 . S
N169 C167 1.317 . S
N170 C166 1.328 . S
N170 C168 1.350 . S
H171 C166 0.930 . S
H172 C167 0.930 . S
C173 O174 1.224 . S
C173 O192 1.247 . S
O174 C173 1.224 . S
N175 Co165 2.128 . S
N175 C176 1.355 . S
N175 C178 1.311 . S
C176 N175 1.355 . S
C176 C177 1.363 . S
C176 H188 0.929 . S
C177 C176 1.363 . S
C177 N179 1.375 . S
C177 H195 0.931 . S
C178 N175 1.311 . S
C178 N179 1.347 . S
C178 H189 0.929 . S
N179 C177 1.375 . S
N179 C178 1.347 . S
C180 C183 1.365 . S
C180 N185 1.328 . S
C180 H186 0.929 . S
C181 C182 1.362 . S
C181 C184 1.378 . S
C181 H196 0.929 . S
C182 C181 1.362 . S
C182 C183 1.366 . S
C183 C180 1.365 . S
C183 C182 1.366 . S
C183 H197 0.930 . S
C184 C181 1.378 . S
C184 N185 1.315 . S
C184 H187 0.930 . S
N185 Co165 2.194 . S
N185 C180 1.328 . S
N185 C184 1.315 . S
H186 C180 0.929 . S
H187 C184 0.930 . S
H188 C176 0.929 . S
H189 C178 0.929 . S
O190 Co165 2.351 . S
O190 C193 1.244 . S
O191 Co165 2.155 . S
O191 C193 1.240 . S
O192 Co165 2.096 . S
O192 C173 1.247 . S
C193 O190 1.244 . S
C193 O191 1.240 . S
H194 C168 0.931 . S
H195 C177 0.931 . S
H196 C181 0.929 . S
H197 C183 0.930 . S
Co198 N202 2.148 . S
Co198 N208 2.128 . S
Co198 N218 2.194 . S
Co198 O223 2.351 . S
Co198 O224 2.155 . S
Co198 O225 2.096 . S
C199 N202 1.301 . S
C199 N203 1.328 . S
C199 H204 0.930 . S
C200 C201 1.333 . S
C200 N202 1.317 . S
C200 H205 0.930 . S
C201 C200 1.333 . S
C201 N203 1.350 . S
C201 H227 0.931 . S
N202 Co198 2.148 . S
N202 C199 1.301 . S
N202 C200 1.317 . S
N203 C199 1.328 . S
N203 C201 1.350 . S
H204 C199 0.930 . S
H205 C200 0.930 . S
C206 O207 1.224 . S
C206 O225 1.247 . S
O207 C206 1.224 . S
N208 Co198 2.128 . S
N208 C209 1.355 . S
N208 C211 1.311 . S
C209 N208 1.355 . S
C209 C210 1.363 . S
C209 H221 0.929 . S
C210 C209 1.363 . S
C210 N212 1.375 . S
C210 H228 0.931 . S
C211 N208 1.311 . S
C211 N212 1.347 . S
C211 H222 0.929 . S
N212 C210 1.375 . S
N212 C211 1.347 . S
C213 C216 1.365 . S
C213 N218 1.328 . S
C213 H219 0.929 . S
C214 C215 1.362 . S
C214 C217 1.378 . S
C214 H229 0.929 . S
C215 C214 1.362 . S
C215 C216 1.366 . S
C216 C213 1.365 . S
C216 C215 1.366 . S
C216 H230 0.930 . S
C217 C214 1.378 . S
C217 N218 1.315 . S
C217 H220 0.930 . S
N218 Co198 2.194 . S
N218 C213 1.328 . S
N218 C217 1.315 . S
H219 C213 0.929 . S
H220 C217 0.930 . S
H221 C209 0.929 . S
H222 C211 0.929 . S
O223 Co198 2.351 . S
O223 C226 1.244 . S
O224 Co198 2.155 . S
O224 C226 1.240 . S
O225 Co198 2.096 . S
O225 C206 1.247 . S
C226 O223 1.244 . S
C226 O224 1.240 . S
H227 C201 0.931 . S
H228 C210 0.931 . S
H229 C214 0.929 . S
H230 C216 0.930 . S
Co231 N235 2.148 . S
Co231 N241 2.128 . S
Co231 N251 2.194 . S
Co231 O256 2.351 . S
Co231 O257 2.155 . S
Co231 O258 2.096 . S
C232 N235 1.301 . S
C232 N236 1.328 . S
C232 H237 0.930 . S
C233 C234 1.333 . S
C233 N235 1.317 . S
C233 H238 0.930 . S
C234 C233 1.333 . S
C234 N236 1.350 . S
C234 H260 0.931 . S
N235 Co231 2.148 . S
N235 C232 1.301 . S
N235 C233 1.317 . S
N236 C232 1.328 . S
N236 C234 1.350 . S
H237 C232 0.930 . S
H238 C233 0.930 . S
C239 O240 1.224 . S
C239 O258 1.247 . S
O240 C239 1.224 . S
N241 Co231 2.128 . S
N241 C242 1.355 . S
N241 C244 1.311 . S
C242 N241 1.355 . S
C242 C243 1.363 . S
C242 H254 0.929 . S
C243 C242 1.363 . S
C243 N245 1.375 . S
C243 H261 0.931 . S
C244 N241 1.311 . S
C244 N245 1.347 . S
C244 H255 0.929 . S
N245 C243 1.375 . S
N245 C244 1.347 . S
C246 C249 1.365 . S
C246 N251 1.328 . S
C246 H252 0.929 . S
C247 C248 1.362 . S
C247 C250 1.378 . S
C247 H262 0.929 . S
C248 C247 1.362 . S
C248 C249 1.366 . S
C249 C246 1.365 . S
C249 C248 1.366 . S
C249 H263 0.930 . S
C250 C247 1.378 . S
C250 N251 1.315 . S
C250 H253 0.930 . S
N251 Co231 2.194 . S
N251 C246 1.328 . S
N251 C250 1.315 . S
H252 C246 0.929 . S
H253 C250 0.930 . S
H254 C242 0.929 . S
H255 C244 0.929 . S
O256 Co231 2.351 . S
O256 C259 1.244 . S
O257 Co231 2.155 . S
O257 C259 1.240 . S
O258 Co231 2.096 . S
O258 C239 1.247 . S
C259 O256 1.244 . S
C259 O257 1.240 . S
H260 C234 0.931 . S
H261 C243 0.931 . S
H262 C247 0.929 . S
H263 C249 0.930 . S
Co264 N268 2.148 . S
Co264 N274 2.128 . S
Co264 N284 2.194 . S
Co264 O289 2.351 . S
Co264 O290 2.155 . S
Co264 O291 2.096 . S
C265 N268 1.301 . S
C265 N269 1.328 . S
C265 H270 0.930 . S
C266 C267 1.333 . S
C266 N268 1.317 . S
C266 H271 0.930 . S
C267 C266 1.333 . S
C267 N269 1.350 . S
C267 H293 0.931 . S
N268 Co264 2.148 . S
N268 C265 1.301 . S
N268 C266 1.317 . S
N269 C265 1.328 . S
N269 C267 1.350 . S
H270 C265 0.930 . S
H271 C266 0.930 . S
C272 O273 1.224 . S
C272 O291 1.247 . S
O273 C272 1.224 . S
N274 Co264 2.128 . S
N274 C275 1.355 . S
N274 C277 1.311 . S
C275 N274 1.355 . S
C275 C276 1.363 . S
C275 H287 0.929 . S
C276 C275 1.363 . S
C276 N278 1.375 . S
C276 H294 0.931 . S
C277 N274 1.311 . S
C277 N278 1.347 . S
C277 H288 0.929 . S
N278 C276 1.375 . S
N278 C277 1.347 . S
C279 C282 1.365 . S
C279 N284 1.328 . S
C279 H285 0.929 . S
C280 C281 1.362 . S
C280 C283 1.378 . S
C280 H295 0.929 . S
C281 C280 1.362 . S
C281 C282 1.366 . S
C282 C279 1.365 . S
C282 C281 1.366 . S
C282 H296 0.930 . S
C283 C280 1.378 . S
C283 N284 1.315 . S
C283 H286 0.930 . S
N284 Co264 2.194 . S
N284 C279 1.328 . S
N284 C283 1.315 . S
H285 C279 0.929 . S
H286 C283 0.930 . S
H287 C275 0.929 . S
H288 C277 0.929 . S
O289 Co264 2.351 . S
O289 C292 1.244 . S
O290 Co264 2.155 . S
O290 C292 1.240 . S
O291 Co264 2.096 . S
O291 C272 1.247 . S
C292 O289 1.244 . S
C292 O290 1.240 . S
H293 C267 0.931 . S
H294 C276 0.931 . S
H295 C280 0.929 . S
H296 C282 0.930 . S
Co297 N301 2.148 . S
Co297 N307 2.128 . S
Co297 N317 2.194 . S
Co297 O322 2.351 . S
Co297 O323 2.155 . S
Co297 O324 2.096 . S
C298 N301 1.301 . S
C298 N302 1.328 . S
C298 H303 0.930 . S
C299 C300 1.333 . S
C299 N301 1.317 . S
C299 H304 0.930 . S
C300 C299 1.333 . S
C300 N302 1.350 . S
C300 H326 0.931 . S
N301 Co297 2.148 . S
N301 C298 1.301 . S
N301 C299 1.317 . S
N302 C298 1.328 . S
N302 C300 1.350 . S
H303 C298 0.930 . S
H304 C299 0.930 . S
C305 O306 1.224 . S
C305 O324 1.247 . S
O306 C305 1.224 . S
N307 Co297 2.128 . S
N307 C308 1.355 . S
N307 C310 1.311 . S
C308 N307 1.355 . S
C308 C309 1.363 . S
C308 H320 0.929 . S
C309 C308 1.363 . S
C309 N311 1.375 . S
C309 H327 0.931 . S
C310 N307 1.311 . S
C310 N311 1.347 . S
C310 H321 0.929 . S
N311 C309 1.375 . S
N311 C310 1.347 . S
C312 C315 1.365 . S
C312 N317 1.328 . S
C312 H318 0.929 . S
C313 C314 1.362 . S
C313 C316 1.378 . S
C313 H328 0.929 . S
C314 C313 1.362 . S
C314 C315 1.366 . S
C315 C312 1.365 . S
C315 C314 1.366 . S
C315 H329 0.930 . S
C316 C313 1.378 . S
C316 N317 1.315 . S
C316 H319 0.930 . S
N317 Co297 2.194 . S
N317 C312 1.328 . S
N317 C316 1.315 . S
H318 C312 0.929 . S
H319 C316 0.930 . S
H320 C308 0.929 . S
H321 C310 0.929 . S
O322 Co297 2.351 . S
O322 C325 1.244 . S
O323 Co297 2.155 . S
O323 C325 1.240 . S
O324 Co297 2.096 . S
O324 C305 1.247 . S
C325 O322 1.244 . S
C325 O323 1.240 . S
H326 C300 0.931 . S
H327 C309 0.931 . S
H328 C313 0.929 . S
H329 C315 0.930 . S
Co330 N334 2.148 . S
Co330 N340 2.128 . S
Co330 N350 2.194 . S
Co330 O355 2.351 . S
Co330 O356 2.155 . S
Co330 O357 2.096 . S
C331 N334 1.301 . S
C331 N335 1.328 . S
C331 H336 0.930 . S
C332 C333 1.333 . S
C332 N334 1.317 . S
C332 H337 0.930 . S
C333 C332 1.333 . S
C333 N335 1.350 . S
C333 H359 0.931 . S
N334 Co330 2.148 . S
N334 C331 1.301 . S
N334 C332 1.317 . S
N335 C331 1.328 . S
N335 C333 1.350 . S
H336 C331 0.930 . S
H337 C332 0.930 . S
C338 O339 1.224 . S
C338 O357 1.247 . S
O339 C338 1.224 . S
N340 Co330 2.128 . S
N340 C341 1.355 . S
N340 C343 1.311 . S
C341 N340 1.355 . S
C341 C342 1.363 . S
C341 H353 0.929 . S
C342 C341 1.363 . S
C342 N344 1.375 . S
C342 H360 0.931 . S
C343 N340 1.311 . S
C343 N344 1.347 . S
C343 H354 0.929 . S
N344 C342 1.375 . S
N344 C343 1.347 . S
C345 C348 1.365 . S
C345 N350 1.328 . S
C345 H351 0.929 . S
C346 C347 1.362 . S
C346 C349 1.378 . S
C346 H361 0.929 . S
C347 C346 1.362 . S
C347 C348 1.366 . S
C348 C345 1.365 . S
C348 C347 1.366 . S
C348 H362 0.930 . S
C349 C346 1.378 . S
C349 N350 1.315 . S
C349 H352 0.930 . S
N350 Co330 2.194 . S
N350 C345 1.328 . S
N350 C349 1.315 . S
H351 C345 0.929 . S
H352 C349 0.930 . S
H353 C341 0.929 . S
H354 C343 0.929 . S
O355 Co330 2.351 . S
O355 C358 1.244 . S
O356 Co330 2.155 . S
O356 C358 1.240 . S
O357 Co330 2.096 . S
O357 C338 1.247 . S
C358 O355 1.244 . S
C358 O356 1.240 . S
H359 C333 0.931 . S
H360 C342 0.931 . S
H361 C346 0.929 . S
H362 C348 0.930 . S
Co363 N367 2.148 . S
Co363 N373 2.128 . S
Co363 N383 2.194 . S
Co363 O388 2.351 . S
Co363 O389 2.155 . S
Co363 O390 2.096 . S
C364 N367 1.301 . S
C364 N368 1.328 . S
C364 H369 0.930 . S
C365 C366 1.333 . S
C365 N367 1.317 . S
C365 H370 0.930 . S
C366 C365 1.333 . S
C366 N368 1.350 . S
C366 H392 0.931 . S
N367 Co363 2.148 . S
N367 C364 1.301 . S
N367 C365 1.317 . S
N368 C364 1.328 . S
N368 C366 1.350 . S
H369 C364 0.930 . S
H370 C365 0.930 . S
C371 O372 1.224 . S
C371 O390 1.247 . S
O372 C371 1.224 . S
N373 Co363 2.128 . S
N373 C374 1.355 . S
N373 C376 1.311 . S
C374 N373 1.355 . S
C374 C375 1.363 . S
C374 H386 0.929 . S
C375 C374 1.363 . S
C375 N377 1.375 . S
C375 H393 0.931 . S
C376 N373 1.311 . S
C376 N377 1.347 . S
C376 H387 0.929 . S
N377 C375 1.375 . S
N377 C376 1.347 . S
C378 C381 1.365 . S
C378 N383 1.328 . S
C378 H384 0.929 . S
C379 C380 1.362 . S
C379 C382 1.378 . S
C379 H394 0.929 . S
C380 C379 1.362 . S
C380 C381 1.366 . S
C381 C378 1.365 . S
C381 C380 1.366 . S
C381 H395 0.930 . S
C382 C379 1.378 . S
C382 N383 1.315 . S
C382 H385 0.930 . S
N383 Co363 2.194 . S
N383 C378 1.328 . S
N383 C382 1.315 . S
H384 C378 0.929 . S
H385 C382 0.930 . S
H386 C374 0.929 . S
H387 C376 0.929 . S
O388 Co363 2.351 . S
O388 C391 1.244 . S
O389 Co363 2.155 . S
O389 C391 1.240 . S
O390 Co363 2.096 . S
O390 C371 1.247 . S
C391 O388 1.244 . S
C391 O389 1.240 . S
H392 C366 0.931 . S
H393 C375 0.931 . S
H394 C379 0.929 . S
H395 C381 0.930 . S
C396 C397 1.387 1_556 S
C396 H400 0.950 . S
C396 C405 1.390 . S
C397 C396 1.387 1_554 S
C397 C399 1.387 . S
H398 C405 0.950 . S
C399 C397 1.387 . S
C399 C401 1.390 . S
C399 H403 0.950 . S
H400 C396 0.950 . S
C401 C399 1.390 . S
C401 C402 1.387 1_554 S
C401 H404 0.950 . S
C402 C401 1.387 1_556 S
C402 C405 1.387 . S
H403 C399 0.950 . S
H404 C401 0.950 . S
C405 C396 1.390 . S
C405 H398 0.950 . S
C405 C402 1.387 . S
C406 C407 1.387 . S
C406 H410 0.950 . S
C406 C415 1.390 . S
C407 C406 1.387 . S
C407 C409 1.387 . S
H408 C415 0.950 . S
C409 C407 1.387 . S
C409 C411 1.390 . S
C409 H413 0.950 . S
H410 C406 0.950 . S
C411 C409 1.390 . S
C411 C412 1.387 . S
C411 H414 0.950 . S
C412 C411 1.387 . S
C412 C415 1.387 . S
H413 C409 0.950 . S
H414 C411 0.950 . S
C415 C406 1.390 . S
C415 H408 0.950 . S
C415 C412 1.387 . S
C416 C417 1.387 . S
C416 H420 0.950 . S
C416 C425 1.390 1_554 S
C417 C416 1.387 . S
C417 C419 1.387 . S
H418 C425 0.950 . S
C419 C417 1.387 . S
C419 C421 1.390 1_554 S
C419 H423 0.950 . S
H420 C416 0.950 . S
C421 C419 1.390 1_556 S
C421 C422 1.387 . S
C421 H424 0.950 . S
C422 C421 1.387 . S
C422 C425 1.387 . S
H423 C419 0.950 . S
H424 C421 0.950 . S
C425 C416 1.390 1_556 S
C425 H418 0.950 . S
C425 C422 1.387 . S
C426 C427 1.387 . S
C426 H430 0.950 . S
C426 C435 1.390 . S
C427 C426 1.387 . S
C427 C429 1.387 . S
H428 C435 0.950 . S
C429 C427 1.387 . S
C429 C431 1.390 . S
C429 H433 0.950 . S
H430 C426 0.950 . S
C431 C429 1.390 . S
C431 C432 1.387 . S
C431 H434 0.950 . S
C432 C431 1.387 . S
C432 C435 1.387 . S
H433 C429 0.950 . S
H434 C431 0.950 . S
C435 C426 1.390 . S
C435 H428 0.950 . S
C435 C432 1.387 . S
C436 C437 1.387 . S
C436 H440 0.950 . S
C436 C445 1.390 . S
C437 C436 1.387 . S
C437 C439 1.387 1_554 S
H438 C445 0.950 . S
C439 C437 1.387 1_556 S
C439 C441 1.390 . S
C439 H443 0.950 . S
H440 C436 0.950 . S
C441 C439 1.390 . S
C441 C442 1.387 . S
C441 H444 0.950 . S
C442 C441 1.387 . S
C442 C445 1.387 1_556 S
H443 C439 0.950 . S
H444 C441 0.950 . S
C445 C436 1.390 . S
C445 H438 0.950 . S
C445 C442 1.387 1_554 S
C446 C447 1.387 . S
C446 H450 0.950 . S
C446 C455 1.390 . S
C447 C446 1.387 . S
C447 C449 1.387 . S
H448 C455 0.950 . S
C449 C447 1.387 . S
C449 C451 1.390 . S
C449 H453 0.950 . S
H450 C446 0.950 . S
C451 C449 1.390 . S
C451 C452 1.387 . S
C451 H454 0.950 . S
C452 C451 1.387 . S
C452 C455 1.387 . S
H453 C449 0.950 . S
H454 C451 0.950 . S
C455 C446 1.390 . S
C455 H448 0.950 . S
C455 C452 1.387 . S
C456 C457 1.387 . S
C456 H460 0.950 . S
C456 C465 1.390 1_554 S
C457 C456 1.387 . S
C457 C459 1.387 . S
H458 C465 0.950 . S
C459 C457 1.387 . S
C459 C461 1.390 1_554 S
C459 H463 0.950 . S
H460 C456 0.950 . S
C461 C459 1.390 1_556 S
C461 C462 1.387 . S
C461 H464 0.950 . S
C462 C461 1.387 . S
C462 C465 1.387 . S
H463 C459 0.950 . S
H464 C461 0.950 . S
C465 C456 1.390 1_556 S
C465 H458 0.950 . S
C465 C462 1.387 . S
C466 C467 1.387 . S
C466 H470 0.950 . S
C466 C475 1.390 . S
C467 C466 1.387 . S
C467 C469 1.387 . S
H468 C475 0.950 . S
C469 C467 1.387 . S
C469 C471 1.390 . S
C469 H473 0.950 . S
H470 C466 0.950 . S
C471 C469 1.390 . S
C471 C472 1.387 . S
C471 H474 0.950 . S
C472 C471 1.387 . S
C472 C475 1.387 . S
H473 C469 0.950 . S
H474 C471 0.950 . S
C475 C466 1.390 . S
C475 H468 0.950 . S
C475 C472 1.387 . S
C476 C477 1.387 . S
C476 H480 0.950 . S
C476 C485 1.390 1_554 S
C477 C476 1.387 . S
C477 C479 1.387 . S
H478 C485 0.950 . S
C479 C477 1.387 . S
C479 C481 1.390 1_554 S
C479 H483 0.950 . S
H480 C476 0.950 . S
C481 C479 1.390 1_556 S
C481 C482 1.387 . S
C481 H484 0.950 . S
C482 C481 1.387 . S
C482 C485 1.387 . S
H483 C479 0.950 . S
H484 C481 0.950 . S
C485 C476 1.390 1_556 S
C485 H478 0.950 . S
C485 C482 1.387 . S
C486 C487 1.387 . S
C486 H490 0.950 . S
C486 C495 1.390 . S
C487 C486 1.387 . S
C487 C489 1.387 . S
H488 C495 0.950 . S
C489 C487 1.387 . S
C489 C491 1.390 . S
C489 H493 0.950 . S
H490 C486 0.950 . S
C491 C489 1.390 . S
C491 C492 1.387 . S
C491 H494 0.950 . S
C492 C491 1.387 . S
C492 C495 1.387 . S
H493 C489 0.950 . S
H494 C491 0.950 . S
C495 C486 1.390 . S
C495 H488 0.950 . S
C495 C492 1.387 . S
C496 C497 1.387 1_556 S
C496 H500 0.950 . S
C496 C505 1.390 . S
C497 C496 1.387 1_554 S
C497 C499 1.387 . S
H498 C505 0.950 . S
C499 C497 1.387 . S
C499 C501 1.390 . S
C499 H503 0.950 . S
H500 C496 0.950 . S
C501 C499 1.390 . S
C501 C502 1.387 1_554 S
C501 H504 0.950 . S
C502 C501 1.387 1_556 S
C502 C505 1.387 . S
H503 C499 0.950 . S
H504 C501 0.950 . S
C505 C496 1.390 . S
C505 H498 0.950 . S
C505 C502 1.387 . S
C506 C507 1.387 . S
C506 H510 0.950 . S
C506 C515 1.390 . S
C507 C506 1.387 . S
C507 C509 1.387 . S
H508 C515 0.950 . S
C509 C507 1.387 . S
C509 C511 1.390 . S
C509 H513 0.950 . S
H510 C506 0.950 . S
C511 C509 1.390 . S
C511 C512 1.387 . S
C511 H514 0.950 . S
C512 C511 1.387 . S
C512 C515 1.387 . S
H513 C509 0.950 . S
H514 C511 0.950 . S
C515 C506 1.390 . S
C515 H508 0.950 . S
C515 C512 1.387 . S
C516 C517 1.387 . S
C516 H520 0.950 . S
C516 C525 1.390 1_556 S
C517 C516 1.387 . S
C517 C519 1.387 . S
H518 C525 0.950 . S
C519 C517 1.387 . S
C519 C521 1.390 1_556 S
C519 H523 0.950 . S
H520 C516 0.950 . S
C521 C519 1.390 1_554 S
C521 C522 1.387 . S
C521 H524 0.950 . S
C522 C521 1.387 . S
C522 C525 1.387 . S
H523 C519 0.950 . S
H524 C521 0.950 . S
C525 C516 1.390 1_554 S
C525 H518 0.950 . S
C525 C522 1.387 . S
C526 C527 1.387 . S
C526 H530 0.950 . S
C526 C535 1.390 . S
C527 C526 1.387 . S
C527 C529 1.387 . S
H528 C535 0.950 . S
C529 C527 1.387 . S
C529 C531 1.390 . S
C529 H533 0.950 . S
H530 C526 0.950 . S
C531 C529 1.390 . S
C531 C532 1.387 . S
C531 H534 0.950 . S
C532 C531 1.387 . S
C532 C535 1.387 . S
H533 C529 0.950 . S
H534 C531 0.950 . S
C535 C526 1.390 . S
C535 H528 0.950 . S
C535 C532 1.387 . S
C536 C537 1.387 1_556 S
C536 H540 0.950 . S
C536 C545 1.390 . S
C537 C536 1.387 1_554 S
C537 C539 1.387 . S
H538 C545 0.950 . S
C539 C537 1.387 . S
C539 C541 1.390 . S
C539 H543 0.950 . S
H540 C536 0.950 . S
C541 C539 1.390 . S
C541 C542 1.387 1_554 S
C541 H544 0.950 . S
C542 C541 1.387 1_556 S
C542 C545 1.387 . S
H543 C539 0.950 . S
H544 C541 0.950 . S
C545 C536 1.390 . S
C545 H538 0.950 . S
C545 C542 1.387 . S
C546 C547 1.387 . S
C546 H550 0.950 . S
C546 C555 1.390 . S
C547 C546 1.387 . S
C547 C549 1.387 . S
H548 C555 0.950 . S
C549 C547 1.387 . S
C549 C551 1.390 . S
C549 H553 0.950 . S
H550 C546 0.950 . S
C551 C549 1.390 . S
C551 C552 1.387 . S
C551 H554 0.950 . S
C552 C551 1.387 . S
C552 C555 1.387 . S
H553 C549 0.950 . S
H554 C551 0.950 . S
C555 C546 1.390 . S
C555 H548 0.950 . S
C555 C552 1.387 . S
C556 C557 1.387 . S
C556 H560 0.950 . S
C556 C565 1.390 . S
C557 C556 1.387 . S
C557 C559 1.387 1_554 S
H558 C565 0.950 . S
C559 C557 1.387 1_556 S
C559 C561 1.390 . S
C559 H563 0.950 . S
H560 C556 0.950 . S
C561 C559 1.390 . S
C561 C562 1.387 . S
C561 H564 0.950 . S
C562 C561 1.387 . S
C562 C565 1.387 1_556 S
H563 C559 0.950 . S
H564 C561 0.950 . S
C565 C556 1.390 . S
C565 H558 0.950 . S
C565 C562 1.387 1_554 S
C566 C567 1.387 . S
C566 H570 0.950 . S
C566 C575 1.390 . S
C567 C566 1.387 . S
C567 C569 1.387 . S
H568 C575 0.950 . S
C569 C567 1.387 . S
C569 C571 1.390 . S
C569 H573 0.950 . S
H570 C566 0.950 . S
C571 C569 1.390 . S
C571 C572 1.387 . S
C571 H574 0.950 . S
C572 C571 1.387 . S
C572 C575 1.387 . S
H573 C569 0.950 . S
H574 C571 0.950 . S
C575 C566 1.390 . S
C575 H568 0.950 . S
C575 C572 1.387 . S
C576 C577 1.387 . S
C576 H580 0.950 . S
C576 C585 1.390 1_556 S
C577 C576 1.387 . S
C577 C579 1.387 . S
H578 C585 0.950 . S
C579 C577 1.387 . S
C579 C581 1.390 1_556 S
C579 H583 0.950 . S
H580 C576 0.950 . S
C581 C579 1.390 1_554 S
C581 C582 1.387 . S
C581 H584 0.950 . S
C582 C581 1.387 . S
C582 C585 1.387 . S
H583 C579 0.950 . S
H584 C581 0.950 . S
C585 C576 1.390 1_554 S
C585 H578 0.950 . S
C585 C582 1.387 . S
C586 C587 1.387 . S
C586 H590 0.950 . S
C586 C595 1.390 . S
C587 C586 1.387 . S
C587 C589 1.387 . S
H588 C595 0.950 . S
C589 C587 1.387 . S
C589 C591 1.390 . S
C589 H593 0.950 . S
H590 C586 0.950 . S
C591 C589 1.390 . S
C591 C592 1.387 . S
C591 H594 0.950 . S
C592 C591 1.387 . S
C592 C595 1.387 . S
H593 C589 0.950 . S
H594 C591 0.950 . S
C595 C586 1.390 . S
C595 H588 0.950 . S
C595 C592 1.387 . S
C596 C597 1.387 . S
C596 H600 0.950 . S
C596 C605 1.390 1_554 S
C597 C596 1.387 . S
C597 C599 1.387 . S
H598 C605 0.950 . S
C599 C597 1.387 . S
C599 C601 1.390 1_554 S
C599 H603 0.950 . S
H600 C596 0.950 . S
C601 C599 1.390 1_556 S
C601 C602 1.387 . S
C601 H604 0.950 . S
C602 C601 1.387 . S
C602 C605 1.387 . S
H603 C599 0.950 . S
H604 C601 0.950 . S
C605 C596 1.390 1_556 S
C605 H598 0.950 . S
C605 C602 1.387 . S
C606 C607 1.387 . S
C606 H610 0.950 . S
C606 C615 1.390 . S
C607 C606 1.387 . S
C607 C609 1.387 . S
H608 C615 0.950 . S
C609 C607 1.387 . S
C609 C611 1.390 . S
C609 H613 0.950 . S
H610 C606 0.950 . S
C611 C609 1.390 . S
C611 C612 1.387 . S
C611 H614 0.950 . S
C612 C611 1.387 . S
C612 C615 1.387 . S
H613 C609 0.950 . S
H614 C611 0.950 . S
C615 C606 1.390 . S
C615 H608 0.950 . S
C615 C612 1.387 . S
C616 C617 1.387 . S
C616 H620 0.950 . S
C616 C625 1.390 1_554 S
C617 C616 1.387 . S
C617 C619 1.387 . S
H618 C625 0.950 . S
C619 C617 1.387 . S
C619 C621 1.390 1_554 S
C619 H623 0.950 . S
H620 C616 0.950 . S
C621 C619 1.390 1_556 S
C621 C622 1.387 . S
C621 H624 0.950 . S
C622 C621 1.387 . S
C622 C625 1.387 . S
H623 C619 0.950 . S
H624 C621 0.950 . S
C625 C616 1.390 1_556 S
C625 H618 0.950 . S
C625 C622 1.387 . S
C626 C627 1.387 . S
C626 H630 0.950 . S
C626 C635 1.390 . S
C627 C626 1.387 . S
C627 C629 1.387 . S
H628 C635 0.950 . S
C629 C627 1.387 . S
C629 C631 1.390 . S
C629 H633 0.950 . S
H630 C626 0.950 . S
C631 C629 1.390 . S
C631 C632 1.387 . S
C631 H634 0.950 . S
C632 C631 1.387 . S
C632 C635 1.387 . S
H633 C629 0.950 . S
H634 C631 0.950 . S
C635 C626 1.390 . S
C635 H628 0.950 . S
C635 C632 1.387 . S
C636 C637 1.387 . S
C636 H640 0.950 . S
C636 C645 1.390 . S
C637 C636 1.387 . S
C637 C639 1.387 . S
H638 C645 0.950 . S
C639 C637 1.387 . S
C639 C641 1.390 . S
C639 H643 0.950 . S
H640 C636 0.950 . S
C641 C639 1.390 . S
C641 C642 1.387 . S
C641 H644 0.950 . S
C642 C641 1.387 . S
C642 C645 1.387 . S
H643 C639 0.950 . S
H644 C641 0.950 . S
C645 C636 1.390 . S
C645 H638 0.950 . S
C645 C642 1.387 . S
C646 C647 1.387 . S
C646 H650 0.950 . S
C646 C655 1.390 1_455 S
C647 C646 1.387 . S
C647 C649 1.387 . S
H648 C655 0.950 . S
C649 C647 1.387 . S
C649 C651 1.390 1_455 S
C649 H653 0.950 . S
H650 C646 0.950 . S
C651 C649 1.390 1_655 S
C651 C652 1.387 . S
C651 H654 0.950 . S
C652 C651 1.387 . S
C652 C655 1.387 . S
H653 C649 0.950 . S
H654 C651 0.950 . S
C655 C646 1.390 1_655 S
C655 H648 0.950 . S
C655 C652 1.387 . S
C656 C657 1.387 . S
C656 H660 0.950 . S
C656 C665 1.390 1_545 S
C657 C656 1.387 . S
C657 C659 1.387 . S
H658 C665 0.950 . S
C659 C657 1.387 . S
C659 C661 1.390 1_545 S
C659 H663 0.950 . S
H660 C656 0.950 . S
C661 C659 1.390 1_565 S
C661 C662 1.387 . S
C661 H664 0.950 . S
C662 C661 1.387 . S
C662 C665 1.387 . S
H663 C659 0.950 . S
H664 C661 0.950 . S
C665 C656 1.390 1_565 S
C665 H658 0.950 . S
C665 C662 1.387 . S
C666 C667 1.387 . S
C666 H670 0.950 . S
C666 C675 1.390 . S
C667 C666 1.387 . S
C667 C669 1.387 . S
H668 C675 0.950 . S
C669 C667 1.387 . S
C669 C671 1.390 . S
C669 H673 0.950 . S
H670 C666 0.950 . S
C671 C669 1.390 . S
C671 C672 1.387 . S
C671 H674 0.950 . S
C672 C671 1.387 . S
C672 C675 1.387 . S
H673 C669 0.950 . S
H674 C671 0.950 . S
C675 C666 1.390 . S
C675 H668 0.950 . S
C675 C672 1.387 . S
C676 C677 1.387 . S
C676 H680 0.950 . S
C676 C685 1.390 1_455 S
C677 C676 1.387 . S
C677 C679 1.387 . S
H678 C685 0.950 . S
C679 C677 1.387 . S
C679 C681 1.390 1_455 S
C679 H683 0.950 . S
H680 C676 0.950 . S
C681 C679 1.390 1_655 S
C681 C682 1.387 . S
C681 H684 0.950 . S
C682 C681 1.387 . S
C682 C685 1.387 . S
H683 C679 0.950 . S
H684 C681 0.950 . S
C685 C676 1.390 1_655 S
C685 H678 0.950 . S
C685 C682 1.387 . S
C686 C687 1.387 . S
C686 H690 0.950 . S
C686 C695 1.390 1_565 S
C687 C686 1.387 . S
C687 C689 1.387 . S
H688 C695 0.950 . S
C689 C687 1.387 . S
C689 C691 1.390 1_565 S
C689 H693 0.950 . S
H690 C686 0.950 . S
C691 C689 1.390 1_545 S
C691 C692 1.387 . S
C691 H694 0.950 . S
C692 C691 1.387 . S
C692 C695 1.387 . S
H693 C689 0.950 . S
H694 C691 0.950 . S
C695 C686 1.390 1_545 S
C695 H688 0.950 . S
C695 C692 1.387 . S
C397 C8 2.351 . S
C402 C206 2.352 . S
C407 C41 2.351 . S
C412 C239 2.353 . S
C417 C74 2.352 . S
C422 C272 2.352 . S
C427 C305 2.352 . S
C432 C107 2.352 . S
C437 C140 2.353 . S
C442 C338 2.351 . S
C447 C371 2.352 . S
C452 C173 2.352 . S
C457 N302 0.896 . S
C462 N104 0.895 . S
C467 N137 0.895 . S
C472 N335 0.896 . S
C477 N368 0.889 . S
C482 N170 0.889 . S
C487 N203 0.891 . S
C492 N5 0.889 . S
C497 N236 0.892 . S
C502 N38 0.895 . S
C507 N71 0.896 . S
C512 N269 0.896 . S
C517 N344 0.937 . S
C522 N14 0.937 . S
C527 N47 0.932 . S
C532 N377 0.932 . S
C537 N80 0.934 . S
C542 N212 0.934 . S
C547 N113 0.937 . S
C552 N245 0.937 . S
C557 N146 0.936 . S
C562 N278 0.936 . S
C567 N179 0.936 . S
C572 N311 0.936 . S
C577 C127 1.963 . S
C582 C259 1.963 . S
C587 C160 1.963 . S
C592 C292 1.963 . S
C597 C325 1.963 . S
C602 C193 1.963 . S
C607 C28 1.963 . S
C612 C358 1.963 . S
C617 C391 1.964 . S
C622 C61 1.964 . S
C627 C94 1.964 . S
C632 C226 1.964 . S
C637 C17 1.396 . S
C642 C314 1.394 . S
C647 C347 1.396 . S
C652 C50 1.394 . S
C657 C380 1.395 . S
C662 C83 1.395 . S
C667 C215 1.394 . S
C672 C116 1.396 . S
C677 C149 1.394 . S
C682 C248 1.396 . S
C687 C281 1.395 . S
C692 C182 1.395 . S
