# Generated by pormake.
# Topology snk, (6)-cn, num edge types: 1
# Building blocks:
#     Node 0, Type 0, BuildingBlock: GEDQOX_clean_sbu_0, # of connection points: 6
#     Node 1, Type 0, BuildingBlock: GEDQOX_clean_sbu_0, # of connection points: 6
#     Node 2, Type 0, BuildingBlock: GEDQOX_clean_sbu_0, # of connection points: 6
#     Node 3, Type 0, BuildingBlock: GEDQOX_clean_sbu_0, # of connection points: 6
#     Node 4, Type 0, BuildingBlock: GEDQOX_clean_sbu_0, # of connection points: 6
#     Node 5, Type 0, BuildingBlock: GEDQOX_clean_sbu_0, # of connection points: 6
#     Node 6, Type 0, BuildingBlock: GEDQOX_clean_sbu_0, # of connection points: 6
#     Node 7, Type 0, BuildingBlock: GEDQOX_clean_sbu_0, # of connection points: 6
#     Edge 8, Type (0, 0), BuildingBlock: EYOCIG_clean_linker_4, # of connection points: 2
#     Edge 9, Type (0, 0), BuildingBlock: EYOCIG_clean_linker_4, # of connection points: 2
#     Edge 10, Type (0, 0), BuildingBlock: EYOCIG_clean_linker_4, # of connection points: 2
#     Edge 11, Type (0, 0), BuildingBlock: EYOCIG_clean_linker_4, # of connection points: 2
#     Edge 12, Type (0, 0), BuildingBlock: EYOCIG_clean_linker_4, # of connection points: 2
#     Edge 13, Type (0, 0), BuildingBlock: EYOCIG_clean_linker_4, # of connection points: 2
#     Edge 14, Type (0, 0), BuildingBlock: EYOCIG_clean_linker_4, # of connection points: 2
#     Edge 15, Type (0, 0), BuildingBlock: EYOCIG_clean_linker_4, # of connection points: 2
#     Edge 16, Type (0, 0), BuildingBlock: EYOCIG_clean_linker_4, # of connection points: 2
#     Edge 17, Type (0, 0), BuildingBlock: EYOCIG_clean_linker_4, # of connection points: 2
#     Edge 18, Type (0, 0), BuildingBlock: EYOCIG_clean_linker_4, # of connection points: 2
#     Edge 19, Type (0, 0), BuildingBlock: EYOCIG_clean_linker_4, # of connection points: 2
#     Edge 20, Type (0, 0), BuildingBlock: EYOCIG_clean_linker_4, # of connection points: 2
#     Edge 21, Type (0, 0), BuildingBlock: EYOCIG_clean_linker_4, # of connection points: 2
#     Edge 22, Type (0, 0), BuildingBlock: EYOCIG_clean_linker_4, # of connection points: 2
#     Edge 23, Type (0, 0), BuildingBlock: EYOCIG_clean_linker_4, # of connection points: 2
#     Edge 24, Type (0, 0), BuildingBlock: EYOCIG_clean_linker_4, # of connection points: 2
#     Edge 25, Type (0, 0), BuildingBlock: EYOCIG_clean_linker_4, # of connection points: 2
#     Edge 26, Type (0, 0), BuildingBlock: EYOCIG_clean_linker_4, # of connection points: 2
#     Edge 27, Type (0, 0), BuildingBlock: EYOCIG_clean_linker_4, # of connection points: 2
#     Edge 28, Type (0, 0), BuildingBlock: EYOCIG_clean_linker_4, # of connection points: 2
#     Edge 29, Type (0, 0), BuildingBlock: EYOCIG_clean_linker_4, # of connection points: 2
#     Edge 30, Type (0, 0), BuildingBlock: EYOCIG_clean_linker_4, # of connection points: 2
#     Edge 31, Type (0, 0), BuildingBlock: EYOCIG_clean_linker_4, # of connection points: 2
# Relax obj value: 0.116
# Max RMSD: 0.188
# Mean RMSD: 0.188
data_MOF--net-snk--node1-GEDQOX_clean_sbu_0--edge1-EYOCIG_clean_linker_4
_symmetry_space_group_name_H-M    P1
_symmetry_Int_Tables_number       1
_symmetry_cell_setting            triclinic
loop_
_symmetry_equiv_pos_as_xyz
'x, y, z'
_cell_length_a     47.639509
_cell_length_b     47.640985
_cell_length_c     12.393903
_cell_angle_alpha  89.992455
_cell_angle_beta   89.999162
_cell_angle_gamma 90.002562
loop_
_atom_site_label
_atom_site_type_symbol
_atom_site_fract_x
_atom_site_fract_y
_atom_site_fract_z
_atom_type_partial_charge
Nd0 Nd 0.04102 0.04697 0.53588 0.0
Nd1 Nd 1.0023 0.99649 0.52916 0.0
C2 C 0.0667 0.09605 0.51642 0.0
C3 C 0.08985 0.11126 0.46257 0.0
C4 C 0.08373 0.13538 0.40162 0.0
C5 C 0.10537 0.15252 0.36312 0.0
C6 C 0.13339 0.1458 0.38537 0.0
C7 C 0.13971 0.12124 0.44259 0.0
C8 C 0.1181 0.10404 0.48093 0.0
C9 C 0.06837 0.99637 0.54738 0.0
C10 C 0.02323 1.0201 0.30241 0.0
C11 C 0.97651 0.94747 0.54849 0.0
C12 C 0.95338 0.93226 0.6025 0.0
C13 C 0.95953 0.90819 0.66367 0.0
C14 C 0.93792 0.89103 0.70226 0.0
C15 C 0.90989 0.89769 0.67986 0.0
C16 C 0.90354 0.92221 0.62245 0.0
C17 C 0.92512 0.93943 0.58403 0.0
C18 C 0.97508 0.0472 0.51746 0.0
C19 C 1.02011 0.02332 0.76268 0.0
O20 O 0.04473 0.08908 0.45892 0.0
O21 O 0.07335 0.07718 0.58859 0.0
O22 O 0.0768 1.01869 0.59691 0.0
O23 O 0.04782 1.00148 0.48701 0.0
O24 O 0.03012 0.04319 0.3548 0.0
O25 O 1.01679 0.99674 0.35345 0.0
O26 O 0.99855 0.95433 0.60571 0.0
O27 O 0.96982 0.96641 0.47666 0.0
O28 O 0.96666 0.02493 0.46754 0.0
O29 O 0.9955 0.04194 0.57822 0.0
O30 O 1.01318 1.00025 0.71026 0.0
O31 O 0.02658 0.04668 0.71167 0.0
H32 H 0.06216 0.14152 0.38711 0.0
H33 H 0.10018 0.17147 0.319 0.0
H34 H 0.16131 0.11579 0.46038 0.0
H35 H 0.12355 0.08565 0.52786 0.0
H36 H 0.98111 0.90209 0.67827 0.0
H37 H 0.94313 0.87211 0.74652 0.0
H38 H 0.88193 0.9276 0.60454 0.0
H39 H 0.91965 0.95778 0.53692 0.0
Nd40 Nd 0.24653 0.79115 0.78525 0.0
Nd41 Nd 0.2969 0.75236 0.77839 0.0
C42 C 0.19751 0.81694 0.76588 0.0
C43 C 0.18233 0.8401 0.71198 0.0
C44 C 0.15824 0.834 0.6509 0.0
C45 C 0.1411 0.85565 0.6124 0.0
C46 C 0.14782 0.88366 0.63481 0.0
C47 C 0.17236 0.88996 0.69213 0.0
C48 C 0.18955 0.86835 0.73046 0.0
C49 C 0.29717 0.81842 0.79697 0.0
C50 C 0.27336 0.77338 0.55169 0.0
C51 C 0.34586 0.72645 0.79762 0.0
C52 C 0.36105 0.70333 0.85178 0.0
C53 C 0.38515 0.70949 0.9127 0.0
C54 C 0.4023 0.68787 0.95135 0.0
C55 C 0.39558 0.65984 0.92927 0.0
C56 C 0.37102 0.65349 0.87213 0.0
C57 C 0.35382 0.67507 0.83364 0.0
C58 C 0.24615 0.72523 0.76648 0.0
C59 C 0.2701 0.77015 1.01198 0.0
O60 O 0.20441 0.79494 0.70848 0.0
O61 O 0.21642 0.82358 0.8379 0.0
O62 O 0.27487 0.82684 0.84662 0.0
O63 O 0.29204 0.79791 0.73642 0.0
O64 O 0.25029 0.78031 0.60412 0.0
O65 O 0.29671 0.76689 0.60271 0.0
O66 O 0.33909 0.74856 0.85464 0.0
O67 O 0.32686 0.71976 0.72603 0.0
O68 O 0.2684 0.71682 0.71642 0.0
O69 O 0.25143 0.74561 0.82742 0.0
O70 O 0.29315 0.76318 0.95954 0.0
O71 O 0.24675 0.77667 0.96098 0.0
H72 H 0.1521 0.81243 0.63629 0.0
H73 H 0.12217 0.85047 0.56821 0.0
H74 H 0.1778 0.91156 0.71003 0.0
H75 H 0.20793 0.87379 0.77749 0.0
H76 H 0.3913 0.73106 0.92704 0.0
H77 H 0.42125 0.69308 0.9954 0.0
H78 H 0.36558 0.63188 0.85447 0.0
H79 H 0.33543 0.6696 0.78673 0.0
Nd80 Nd 0.50234 0.99649 0.03625 0.0
Nd81 Nd 0.54109 0.04693 1.02946 0.0
C82 C 0.47661 0.94745 1.01683 0.0
C83 C 0.45346 0.93225 0.9629 0.0
C84 C 0.45958 0.90816 0.90186 0.0
C85 C 0.43794 0.89103 0.86326 0.0
C86 C 0.40992 0.89776 0.88551 0.0
C87 C 0.4036 0.92229 0.94284 0.0
C88 C 0.4252 0.93948 0.98127 0.0
C89 C 0.47503 0.04711 0.04785 0.0
C90 C 0.52013 0.02336 0.80274 0.0
C91 C 0.56693 0.09593 0.04876 0.0
C92 C 0.59006 0.11112 0.10282 0.0
C93 C 0.58391 0.13517 0.16405 0.0
C94 C 0.60553 0.15232 0.20269 0.0
C95 C 0.63355 0.14565 0.18028 0.0
C96 C 0.6399 0.12115 0.12281 0.0
C97 C 0.61832 0.10394 0.08434 0.0
C98 C 0.56828 0.99621 1.01765 0.0
C99 C 0.52329 1.0201 0.26302 0.0
O100 O 0.4986 0.95438 0.95942 0.0
O101 O 0.46996 0.96633 0.08891 0.0
O102 O 0.4666 0.0248 0.09745 0.0
O103 O 0.49556 0.042 0.98739 0.0
O104 O 0.51322 1.00028 0.85515 0.0
O105 O 0.52658 0.04672 0.85377 0.0
O106 O 0.54486 0.08909 0.10592 0.0
O107 O 0.57361 0.07697 0.97699 0.0
O108 O 0.57669 1.01847 0.96768 0.0
O109 O 0.54787 1.00147 0.0785 0.0
O110 O 0.53024 0.04316 0.21059 0.0
O111 O 0.5168 0.99674 0.21202 0.0
H112 H 0.48115 0.90203 0.88733 0.0
H113 H 0.44313 0.87211 0.81906 0.0
H114 H 0.382 0.92774 0.96063 0.0
H115 H 0.41976 0.95785 1.02827 0.0
H116 H 0.56233 0.14127 0.17866 0.0
H117 H 0.60032 0.17122 0.24699 0.0
H118 H 0.66151 0.11575 0.10489 0.0
H119 H 0.62379 0.0856 0.03719 0.0
Nd120 Nd 0.29686 0.25233 0.28574 0.0
Nd121 Nd 0.24648 0.29114 0.27888 0.0
C122 C 0.34588 0.22653 0.26644 0.0
C123 C 0.36107 0.20338 0.21257 0.0
C124 C 0.38517 0.20949 0.15152 0.0
C125 C 0.40231 0.18784 0.11305 0.0
C126 C 0.39559 0.15983 0.13545 0.0
C127 C 0.37105 0.15352 0.19276 0.0
C128 C 0.35385 0.17512 0.23106 0.0
C129 C 0.2462 0.22509 0.29733 0.0
C130 C 0.27005 0.27015 0.05219 0.0
C131 C 0.19753 0.31705 0.29804 0.0
C132 C 0.18234 0.34017 0.35215 0.0
C133 C 0.15822 0.33402 0.41304 0.0
C134 C 0.14108 0.35563 0.45165 0.0
C135 C 0.1478 0.38366 0.42954 0.0
C136 C 0.17237 0.39001 0.37244 0.0
C137 C 0.18958 0.36843 0.334 0.0
C138 C 0.29725 0.31826 0.26713 0.0
C139 C 0.27327 0.27332 0.51247 0.0
O140 O 0.33899 0.24854 0.20903 0.0
O141 O 0.32696 0.21989 0.33842 0.0
O142 O 0.26849 0.21664 0.34698 0.0
O143 O 0.25135 0.24561 0.23684 0.0
O144 O 0.29311 0.2632 0.10462 0.0
O145 O 0.2467 0.27664 0.10319 0.0
O146 O 0.2043 0.29494 0.35508 0.0
O147 O 0.21653 0.32374 0.22646 0.0
O148 O 0.275 0.32669 0.21708 0.0
O149 O 0.29195 0.29787 0.32799 0.0
O150 O 0.25022 0.2803 0.46003 0.0
O151 O 0.29662 0.2668 0.46148 0.0
H152 H 0.3913 0.23106 0.1369 0.0
H153 H 0.42124 0.19302 0.06886 0.0
H154 H 0.36561 0.13192 0.21067 0.0
H155 H 0.33547 0.16969 0.27808 0.0
H156 H 0.15208 0.31244 0.42739 0.0
H157 H 0.12212 0.35043 0.49566 0.0
H158 H 0.17781 0.41162 0.35476 0.0
H159 H 0.20797 0.3739 0.28712 0.0
Nd160 Nd 0.74649 0.29107 0.28581 0.0
Nd161 Nd 0.79695 0.25234 0.27909 0.0
C162 C 0.69743 0.31677 0.26636 0.0
C163 C 0.68222 0.33992 0.21252 0.0
C164 C 0.6581 0.33381 0.15164 0.0
C165 C 0.64096 0.35546 0.11315 0.0
C166 C 0.64771 0.38347 0.13533 0.0
C167 C 0.67228 0.38978 0.19248 0.0
C168 C 0.68947 0.36818 0.23082 0.0
C169 C 0.79711 0.3184 0.29733 0.0
C170 C 0.77336 0.27327 0.05233 0.0
C171 C 0.84596 0.22653 0.29843 0.0
C172 C 0.86115 0.2034 0.35251 0.0
C173 C 0.8852 0.20955 0.4138 0.0
C174 C 0.90234 0.18794 0.45248 0.0
C175 C 0.89568 0.15991 0.43005 0.0
C176 C 0.87119 0.15356 0.3725 0.0
C177 C 0.85398 0.17514 0.33399 0.0
C178 C 0.74624 0.22513 0.26738 0.0
C179 C 0.77012 0.27014 0.51261 0.0
O180 O 0.70439 0.2948 0.20887 0.0
O181 O 0.7163 0.32341 0.33852 0.0
O182 O 0.77479 0.32683 0.34689 0.0
O183 O 0.79199 0.29786 0.23693 0.0
O184 O 0.75028 0.28017 0.10473 0.0
O185 O 0.79672 0.26683 0.10337 0.0
O186 O 0.83911 0.24859 0.3556 0.0
O187 O 0.82701 0.21985 0.22661 0.0
O188 O 0.7685 0.21672 0.21744 0.0
O189 O 0.7515 0.24555 0.32815 0.0
O190 O 0.79319 0.26321 0.46019 0.0
O191 O 0.74676 0.27661 0.46159 0.0
H192 H 0.65194 0.31224 0.13718 0.0
H193 H 0.62201 0.35028 0.06908 0.0
H194 H 0.67774 0.41138 0.21022 0.0
H195 H 0.70787 0.37361 0.27769 0.0
H196 H 0.89129 0.23113 0.42844 0.0
H197 H 0.92124 0.19315 0.49685 0.0
H198 H 0.8658 0.13196 0.35456 0.0
H199 H 0.83565 0.16967 0.28678 0.0
Nd200 Nd 0.79685 0.75234 0.78536 0.0
Nd201 Nd 0.74642 0.79111 0.77864 0.0
C202 C 0.8459 0.7266 0.76591 0.0
C203 C 0.86109 0.70344 0.71205 0.0
C204 C 0.88514 0.70956 0.65072 0.0
C205 C 0.90228 0.68792 0.61219 0.0
C206 C 0.89561 0.65991 0.63479 0.0
C207 C 0.87112 0.65359 0.6924 0.0
C208 C 0.85392 0.67519 0.73077 0.0
C209 C 0.74622 0.72504 0.79683 0.0
C210 C 0.77001 0.77017 0.55189 0.0
C211 C 0.69742 0.81695 0.79801 0.0
C212 C 0.68223 0.84006 0.85217 0.0
C213 C 0.65817 0.83389 0.91337 0.0
C214 C 0.64103 0.8555 0.95211 0.0
C215 C 0.64769 0.88353 0.92983 0.0
C216 C 0.6722 0.88989 0.87238 0.0
C217 C 0.68941 0.86833 0.83381 0.0
C218 C 0.79716 0.81828 0.76695 0.0
C219 C 0.77324 0.77326 1.01216 0.0
O220 O 0.83896 0.74858 0.70845 0.0
O221 O 0.82702 0.71996 0.83805 0.0
O222 O 0.76853 0.71659 0.84639 0.0
O223 O 0.75135 0.74559 0.73646 0.0
O224 O 0.79308 0.76325 0.60429 0.0
O225 O 0.74665 0.77664 0.60291 0.0
O226 O 0.70425 0.79486 0.85507 0.0
O227 O 0.71639 0.82365 0.72629 0.0
O228 O 0.7749 0.82671 0.71701 0.0
O229 O 0.79188 0.79786 0.82771 0.0
O230 O 0.75018 0.78022 0.95974 0.0
O231 O 0.79659 0.76677 0.96115 0.0
H232 H 0.89124 0.73113 0.63593 0.0
H233 H 0.92118 0.69311 0.56777 0.0
H234 H 0.86571 0.63199 0.71047 0.0
H235 H 0.83558 0.66975 0.778 0.0
H236 H 0.65207 0.81231 0.92789 0.0
H237 H 0.62212 0.85027 0.9964 0.0
H238 H 0.6776 0.9115 0.85457 0.0
H239 H 0.70775 0.87381 0.78668 0.0
Nd240 Nd 0.54107 0.54686 0.03527 0.0
Nd241 Nd 0.5023 0.49648 1.02845 0.0
C242 C 0.56685 0.59589 1.01581 0.0
C243 C 0.58999 0.61107 0.9618 0.0
C244 C 0.58386 0.63512 0.90051 0.0
C245 C 0.60549 0.65227 0.8619 0.0
C246 C 0.63351 0.6456 0.88439 0.0
C247 C 0.63984 0.6211 0.94192 0.0
C248 C 0.61825 0.6039 0.98036 0.0
C249 C 0.56835 0.49623 0.04704 0.0
C250 C 0.52329 0.52003 0.80174 0.0
C251 C 0.47641 0.44752 0.04782 0.0
C252 C 0.45331 0.43234 0.10217 0.0
C253 C 0.4595 0.4083 0.16344 0.0
C254 C 0.43791 0.39114 0.20228 0.0
C255 C 0.40988 0.39779 0.18005 0.0
C256 C 0.40349 0.42229 0.12258 0.0
C257 C 0.42504 0.4395 0.0839 0.0
C258 C 0.47514 0.54722 1.01649 0.0
C259 C 0.52007 0.5233 0.26203 0.0
O260 O 0.54483 0.58899 0.95852 0.0
O261 O 0.57351 0.57697 0.08779 0.0
O262 O 0.57676 0.51853 0.09671 0.0
O263 O 0.54784 0.50136 0.98647 0.0
O264 O 0.53023 0.54309 0.85415 0.0
O265 O 0.5168 0.49667 0.85276 0.0
O266 O 0.49854 0.45429 0.10467 0.0
O267 O 0.46968 0.46652 0.97628 0.0
O268 O 0.46675 0.52497 0.96642 0.0
O269 O 0.49553 0.54195 0.07745 0.0
O270 O 0.5131 0.50025 0.20961 0.0
O271 O 0.52659 0.54665 0.21101 0.0
H272 H 0.56228 0.64122 0.88583 0.0
H273 H 0.60029 0.67117 0.81754 0.0
H274 H 0.66144 0.6157 0.9599 0.0
H275 H 0.62371 0.58556 1.02756 0.0
H276 H 0.48109 0.40221 0.1779 0.0
H277 H 0.44316 0.37225 0.24659 0.0
H278 H 0.38187 0.42767 0.10479 0.0
H279 H 0.41954 0.45783 0.03673 0.0
Nd280 Nd 1.00232 0.49657 0.53496 0.0
Nd281 Nd 0.04105 0.54702 0.52814 0.0
C282 C 0.97661 0.44752 0.51559 0.0
C283 C 0.95343 0.43232 0.46182 0.0
C284 C 0.95953 0.40822 0.40077 0.0
C285 C 0.93788 0.39109 0.36235 0.0
C286 C 0.90987 0.3978 0.3848 0.0
C287 C 0.90357 0.42235 0.44212 0.0
C288 C 0.92519 0.43954 0.48037 0.0
C289 C 0.97499 0.54718 0.54656 0.0
C290 C 1.02011 0.52343 0.30143 0.0
C291 C 0.06689 0.59602 0.54738 0.0
C292 C 0.09 0.61122 0.60151 0.0
C293 C 0.08384 0.63532 0.66244 0.0
C294 C 0.10545 0.65247 0.70112 0.0
C295 C 0.13348 0.64576 0.67905 0.0
C296 C 0.13984 0.62121 0.62188 0.0
C297 C 0.11827 0.604 0.58338 0.0
C298 C 0.06826 0.4963 0.51635 0.0
C299 C 0.02328 0.52018 0.76171 0.0
O300 O 0.99856 0.45447 0.45803 0.0
O301 O 0.96998 0.46639 0.58777 0.0
O302 O 0.96658 0.52487 0.59616 0.0
O303 O 0.99552 0.54207 0.48609 0.0
O304 O 1.01321 0.50035 0.35386 0.0
O305 O 0.02655 0.54679 0.35245 0.0
O306 O 0.0448 0.58919 0.60447 0.0
O307 O 0.07359 0.57704 0.4757 0.0
O308 O 0.07666 0.51857 0.46635 0.0
O309 O 0.04785 0.50156 0.57721 0.0
O310 O 0.03021 0.54325 0.70928 0.0
O311 O 1.0168 0.49682 0.7107 0.0
H312 H 0.9811 0.40209 0.38611 0.0
H313 H 0.94305 0.37215 0.31816 0.0
H314 H 0.88198 0.42779 0.46006 0.0
H315 H 0.91976 0.45792 0.52738 0.0
H316 H 0.06225 0.64145 0.67678 0.0
H317 H 0.10023 0.67141 0.74519 0.0
H318 H 0.16145 0.61578 0.60423 0.0
H319 H 0.12374 0.58562 0.53646 0.0
C320 C 0.17495 0.17994 0.33206 0.0
C321 C 0.15558 0.1648 0.35527 0.0
C322 C 0.1986 0.19708 0.31259 0.0
C323 C 0.21977 0.21069 0.30234 0.0
C324 C 0.09648 0.94884 0.56239 0.0
C325 C 0.08282 0.96998 0.55229 0.0
C326 C 0.11365 0.92521 0.5817 0.0
C327 C 0.12881 0.90585 0.60483 0.0
C328 C 0.34475 0.84646 0.8124 0.0
C329 C 0.32359 0.83283 0.80206 0.0
C330 C 0.36837 0.86362 0.83199 0.0
C331 C 0.38773 0.87876 0.85532 0.0
C332 C 0.44693 0.09466 0.06295 0.0
C333 C 0.46058 0.07351 0.05279 0.0
C334 C 0.42976 0.11828 0.08231 0.0
C335 C 0.4146 0.13764 0.10546 0.0
C336 C 0.86838 0.86348 0.73309 0.0
C337 C 0.88773 0.87865 0.70993 0.0
C338 C 0.84475 0.84631 0.75236 0.0
C339 C 0.82358 0.83268 0.76235 0.0
C340 C 0.94704 0.09477 0.50275 0.0
C341 C 0.96067 0.07361 0.51279 0.0
C342 C 0.92987 0.1184 0.48342 0.0
C343 C 0.91471 0.13775 0.4602 0.0
C344 C 0.69868 0.19705 0.25281 0.0
C345 C 0.71983 0.2107 0.26279 0.0
C346 C 0.67506 0.17986 0.23354 0.0
C347 C 0.65572 0.16469 0.21035 0.0
C348 C 0.6135 0.92502 0.98337 0.0
C349 C 0.62867 0.90568 0.96006 0.0
C350 C 0.59632 0.94864 1.00282 0.0
C351 C 0.58269 0.96979 1.01294 0.0
C352 C 0.67503 0.67979 0.83112 0.0
C353 C 0.65568 0.66463 0.8543 0.0
C354 C 0.69866 0.69696 0.81179 0.0
C355 C 0.71981 0.71061 0.80169 0.0
C356 C 0.61356 0.42503 0.08199 0.0
C357 C 0.62871 0.40567 0.10524 0.0
C358 C 0.5964 0.44867 0.06246 0.0
C359 C 0.58277 0.46982 0.05214 0.0
C360 C 0.8683 0.36365 0.33173 0.0
C361 C 0.88767 0.3788 0.35484 0.0
C362 C 0.84466 0.34649 0.3124 0.0
C363 C 0.82351 0.33284 0.30227 0.0
C364 C 0.92977 0.61837 0.5814 0.0
C365 C 0.91462 0.63772 0.60465 0.0
C366 C 0.94693 0.59474 0.5619 0.0
C367 C 0.96057 0.57359 0.55163 0.0
C368 C 0.34481 0.34634 0.25275 0.0
C369 C 0.32366 0.33268 0.26268 0.0
C370 C 0.36842 0.36355 0.23348 0.0
C371 C 0.38774 0.37873 0.21022 0.0
C372 C 0.44703 0.59475 1.00187 0.0
C373 C 0.4607 0.57362 1.01191 0.0
C374 C 0.42981 0.61835 0.98253 0.0
C375 C 0.41462 0.63768 0.95931 0.0
C376 C 0.19858 0.69716 0.7518 0.0
C377 C 0.21973 0.71081 0.76187 0.0
C378 C 0.17497 0.67997 0.73242 0.0
C379 C 0.15564 0.66479 0.70916 0.0
C380 C 0.11358 0.42516 0.48266 0.0
C381 C 0.12876 0.40583 0.45952 0.0
C382 C 0.09637 0.44877 0.50189 0.0
C383 C 0.08271 0.46991 0.51183 0.0
C384 C 1.02122 0.02221 0.97564 0.0
C385 C 1.02076 0.02287 0.87841 0.0
C386 C 0.0221 1.02121 0.08945 0.0
C387 C 0.02257 1.02055 0.18667 0.0
C388 C 0.27223 0.7722 0.33874 0.0
C389 C 0.2729 0.7727 0.43596 0.0
C390 C 0.27122 0.77129 0.22494 0.0
C391 C 0.27056 0.77081 0.12771 0.0
C392 C 0.52128 0.02225 0.58978 0.0
C393 C 0.5208 0.02291 0.687 0.0
C394 C 0.52217 1.02122 0.47598 0.0
C395 C 0.52263 1.02055 0.37876 0.0
C396 C 0.27117 0.27131 0.83923 0.0
C397 C 0.27051 0.27083 0.93645 0.0
C398 C 0.27217 0.27221 0.72543 0.0
C399 C 0.27282 0.27267 0.62821 0.0
C400 C 0.77225 0.27213 0.83937 0.0
C401 C 0.77291 0.27261 0.93659 0.0
C402 C 0.77123 0.27125 0.72557 0.0
C403 C 0.77057 0.27079 0.62834 0.0
C404 C 0.77111 0.7713 0.33893 0.0
C405 C 0.77045 0.77083 0.43615 0.0
C406 C 0.77212 0.77216 0.22512 0.0
C407 C 0.77279 0.77262 0.1279 0.0
C408 C 0.52212 0.52116 0.58879 0.0
C409 C 0.52261 0.52049 0.686 0.0
C410 C 0.52121 0.52218 0.47498 0.0
C411 C 0.52073 0.52285 0.37776 0.0
C412 C 0.02216 0.52128 0.97467 0.0
C413 C 0.02263 0.52062 0.87744 0.0
C414 C 1.02127 0.5223 0.08847 0.0
C415 C 1.02078 0.52297 0.18569 0.0
loop_
_geom_bond_atom_site_label_1
_geom_bond_atom_site_label_2
_geom_bond_distance
_geom_bond_site_symmetry_2
_ccdc_geom_bond_type
Nd0 C2 2.836 . S
Nd0 O20 2.500 . S
Nd0 O21 2.492 . S
Nd0 O22 2.487 1_545 S
Nd0 O23 2.682 1_545 S
Nd0 O24 2.410 . S
Nd0 O29 2.414 1_455 S
Nd0 O31 2.424 . S
Nd1 C11 2.836 . S
Nd1 O23 2.414 1_655 S
Nd1 O25 2.424 . S
Nd1 O26 2.500 . S
Nd1 O27 2.492 . S
Nd1 O28 2.487 1_565 S
Nd1 O29 2.682 1_565 S
Nd1 O30 2.410 . S
C2 Nd0 2.836 . S
C2 C3 1.498 . S
C2 O20 1.258 . S
C2 O21 1.239 . S
C3 C2 1.498 . S
C3 C4 1.366 . S
C3 C8 1.407 . S
C4 C3 1.366 . S
C4 C5 1.392 . S
C4 H32 0.930 . S
C5 C4 1.392 . S
C5 C6 1.398 . S
C5 H33 0.929 . S
C6 C5 1.398 . S
C6 C7 1.352 . S
C7 C6 1.352 . S
C7 C8 1.384 . S
C7 H34 0.930 . S
C8 C3 1.407 . S
C8 C7 1.384 . S
C8 H35 0.929 . S
C9 O22 1.241 . S
C9 O23 1.273 . S
C10 O24 1.251 . S
C10 O25 1.268 1_445 S
C11 Nd1 2.836 . S
C11 C12 1.498 . S
C11 O26 1.258 . S
C11 O27 1.239 . S
C12 C11 1.498 . S
C12 C13 1.366 . S
C12 C17 1.407 . S
C13 C12 1.366 . S
C13 C14 1.392 . S
C13 H36 0.930 . S
C14 C13 1.392 . S
C14 C15 1.398 . S
C14 H37 0.929 . S
C15 C14 1.398 . S
C15 C16 1.352 . S
C16 C15 1.352 . S
C16 C17 1.384 . S
C16 H38 0.930 . S
C17 C12 1.407 . S
C17 C16 1.384 . S
C17 H39 0.929 . S
C18 O28 1.241 . S
C18 O29 1.273 . S
C19 O30 1.251 . S
C19 O31 1.268 1_665 S
O20 Nd0 2.500 . S
O20 C2 1.258 . S
O21 Nd0 2.492 . S
O21 C2 1.239 . S
O22 Nd0 2.487 1_565 S
O22 C9 1.241 . S
O23 Nd0 2.682 1_565 S
O23 Nd1 2.414 1_455 S
O23 C9 1.273 . S
O24 Nd0 2.410 . S
O24 C10 1.251 . S
O25 Nd1 2.424 . S
O25 C10 1.268 1_665 S
O26 Nd1 2.500 . S
O26 C11 1.258 . S
O27 Nd1 2.492 . S
O27 C11 1.239 . S
O28 Nd1 2.487 1_545 S
O28 C18 1.241 . S
O29 Nd0 2.414 1_655 S
O29 Nd1 2.682 1_545 S
O29 C18 1.273 . S
O30 Nd1 2.410 . S
O30 C19 1.251 . S
O31 Nd0 2.424 . S
O31 C19 1.268 1_445 S
H32 C4 0.930 . S
H33 C5 0.929 . S
H34 C7 0.930 . S
H35 C8 0.929 . S
H36 C13 0.930 . S
H37 C14 0.929 . S
H38 C16 0.930 . S
H39 C17 0.929 . S
Nd40 C42 2.836 . S
Nd40 O60 2.500 . S
Nd40 O61 2.492 . S
Nd40 O62 2.487 . S
Nd40 O63 2.682 . S
Nd40 O64 2.410 . S
Nd40 O69 2.414 . S
Nd40 O71 2.424 . S
Nd41 C51 2.836 . S
Nd41 O63 2.414 . S
Nd41 O65 2.424 . S
Nd41 O66 2.500 . S
Nd41 O67 2.492 . S
Nd41 O68 2.487 . S
Nd41 O69 2.682 . S
Nd41 O70 2.410 . S
C42 Nd40 2.836 . S
C42 C43 1.498 . S
C42 O60 1.258 . S
C42 O61 1.239 . S
C43 C42 1.498 . S
C43 C44 1.366 . S
C43 C48 1.407 . S
C44 C43 1.366 . S
C44 C45 1.392 . S
C44 H72 0.930 . S
C45 C44 1.392 . S
C45 C46 1.398 . S
C45 H73 0.929 . S
C46 C45 1.398 . S
C46 C47 1.352 . S
C47 C46 1.352 . S
C47 C48 1.384 . S
C47 H74 0.930 . S
C48 C43 1.407 . S
C48 C47 1.384 . S
C48 H75 0.929 . S
C49 O62 1.241 . S
C49 O63 1.273 . S
C50 O64 1.251 . S
C50 O65 1.268 . S
C51 Nd41 2.836 . S
C51 C52 1.498 . S
C51 O66 1.258 . S
C51 O67 1.239 . S
C52 C51 1.498 . S
C52 C53 1.366 . S
C52 C57 1.407 . S
C53 C52 1.366 . S
C53 C54 1.392 1_556 S
C53 H76 0.930 . S
C54 C53 1.392 1_554 S
C54 C55 1.398 . S
C54 H77 0.929 . S
C55 C54 1.398 . S
C55 C56 1.352 1_554 S
C56 C55 1.352 1_556 S
C56 C57 1.384 . S
C56 H78 0.930 . S
C57 C52 1.407 . S
C57 C56 1.384 . S
C57 H79 0.929 . S
C58 O68 1.241 . S
C58 O69 1.273 . S
C59 O70 1.251 . S
C59 O71 1.268 . S
O60 Nd40 2.500 . S
O60 C42 1.258 . S
O61 Nd40 2.492 . S
O61 C42 1.239 . S
O62 Nd40 2.487 . S
O62 C49 1.241 . S
O63 Nd40 2.682 . S
O63 Nd41 2.414 . S
O63 C49 1.273 . S
O64 Nd40 2.410 . S
O64 C50 1.251 . S
O65 Nd41 2.424 . S
O65 C50 1.268 . S
O66 Nd41 2.500 . S
O66 C51 1.258 . S
O67 Nd41 2.492 . S
O67 C51 1.239 . S
O68 Nd41 2.487 . S
O68 C58 1.241 . S
O69 Nd40 2.414 . S
O69 Nd41 2.682 . S
O69 C58 1.273 . S
O70 Nd41 2.410 . S
O70 C59 1.251 . S
O71 Nd40 2.424 . S
O71 C59 1.268 . S
H72 C44 0.930 . S
H73 C45 0.929 . S
H74 C47 0.930 . S
H75 C48 0.929 . S
H76 C53 0.930 . S
H77 C54 0.929 . S
H78 C56 0.930 . S
H79 C57 0.929 . S
Nd80 C82 2.836 1_554 S
Nd80 O100 2.500 1_554 S
Nd80 O101 2.492 1_554 S
Nd80 O102 2.487 1_565 S
Nd80 O103 2.682 1_565 S
Nd80 O104 2.410 1_554 S
Nd80 O109 2.414 1_554 S
Nd80 O111 2.424 . S
Nd81 C91 2.836 1_556 S
Nd81 O103 2.414 1_556 S
Nd81 O105 2.424 . S
Nd81 O106 2.500 1_556 S
Nd81 O107 2.492 1_556 S
Nd81 O108 2.487 1_545 S
Nd81 O109 2.682 1_545 S
Nd81 O110 2.410 1_556 S
C82 Nd80 2.836 1_556 S
C82 C83 1.498 . S
C82 O100 1.258 . S
C82 O101 1.239 . S
C83 C82 1.498 . S
C83 C84 1.366 . S
C83 C88 1.407 . S
C84 C83 1.366 . S
C84 C85 1.392 . S
C84 H112 0.930 . S
C85 C84 1.392 . S
C85 C86 1.398 . S
C85 H113 0.929 . S
C86 C85 1.398 . S
C86 C87 1.352 . S
C87 C86 1.352 . S
C87 C88 1.384 . S
C87 H114 0.930 . S
C88 C83 1.407 . S
C88 C87 1.384 . S
C88 H115 0.929 . S
C89 O102 1.241 . S
C89 O103 1.273 . S
C90 O104 1.251 . S
C90 O105 1.268 1_565 S
C91 Nd81 2.836 1_554 S
C91 C92 1.498 . S
C91 O106 1.258 . S
C91 O107 1.239 . S
C92 C91 1.498 . S
C92 C93 1.366 . S
C92 C97 1.407 . S
C93 C92 1.366 . S
C93 C94 1.392 . S
C93 H116 0.930 . S
C94 C93 1.392 . S
C94 C95 1.398 . S
C94 H117 0.929 . S
C95 C94 1.398 . S
C95 C96 1.352 . S
C96 C95 1.352 . S
C96 C97 1.384 . S
C96 H118 0.930 . S
C97 C92 1.407 . S
C97 C96 1.384 . S
C97 H119 0.929 . S
C98 O108 1.241 . S
C98 O109 1.273 . S
C99 O110 1.251 . S
C99 O111 1.268 1_545 S
O100 Nd80 2.500 1_556 S
O100 C82 1.258 . S
O101 Nd80 2.492 1_556 S
O101 C82 1.239 . S
O102 Nd80 2.487 1_545 S
O102 C89 1.241 . S
O103 Nd80 2.682 1_545 S
O103 Nd81 2.414 1_554 S
O103 C89 1.273 . S
O104 Nd80 2.410 1_556 S
O104 C90 1.251 . S
O105 Nd81 2.424 . S
O105 C90 1.268 1_545 S
O106 Nd81 2.500 1_554 S
O106 C91 1.258 . S
O107 Nd81 2.492 1_554 S
O107 C91 1.239 . S
O108 Nd81 2.487 1_565 S
O108 C98 1.241 . S
O109 Nd80 2.414 1_556 S
O109 Nd81 2.682 1_565 S
O109 C98 1.273 . S
O110 Nd81 2.410 1_554 S
O110 C99 1.251 . S
O111 Nd80 2.424 . S
O111 C99 1.268 1_565 S
H112 C84 0.930 . S
H113 C85 0.929 . S
H114 C87 0.930 . S
H115 C88 0.929 . S
H116 C93 0.930 . S
H117 C94 0.929 . S
H118 C96 0.930 . S
H119 C97 0.929 . S
Nd120 C122 2.836 . S
Nd120 O140 2.500 . S
Nd120 O141 2.492 . S
Nd120 O142 2.487 . S
Nd120 O143 2.682 . S
Nd120 O144 2.410 . S
Nd120 O149 2.414 . S
Nd120 O151 2.424 . S
Nd121 C131 2.836 . S
Nd121 O143 2.414 . S
Nd121 O145 2.424 . S
Nd121 O146 2.500 . S
Nd121 O147 2.492 . S
Nd121 O148 2.487 . S
Nd121 O149 2.682 . S
Nd121 O150 2.410 . S
C122 Nd120 2.836 . S
C122 C123 1.498 . S
C122 O140 1.258 . S
C122 O141 1.239 . S
C123 C122 1.498 . S
C123 C124 1.366 . S
C123 C128 1.407 . S
C124 C123 1.366 . S
C124 C125 1.392 1_554 S
C124 H152 0.930 . S
C125 C124 1.392 1_556 S
C125 C126 1.398 . S
C125 H153 0.929 . S
C126 C125 1.398 . S
C126 C127 1.352 1_556 S
C127 C126 1.352 1_554 S
C127 C128 1.384 . S
C127 H154 0.930 . S
C128 C123 1.407 . S
C128 C127 1.384 . S
C128 H155 0.929 . S
C129 O142 1.241 . S
C129 O143 1.273 . S
C130 O144 1.251 . S
C130 O145 1.268 . S
C131 Nd121 2.836 . S
C131 C132 1.498 . S
C131 O146 1.258 . S
C131 O147 1.239 . S
C132 C131 1.498 . S
C132 C133 1.366 . S
C132 C137 1.407 . S
C133 C132 1.366 . S
C133 C134 1.392 . S
C133 H156 0.930 . S
C134 C133 1.392 . S
C134 C135 1.398 . S
C134 H157 0.929 . S
C135 C134 1.398 . S
C135 C136 1.352 . S
C136 C135 1.352 . S
C136 C137 1.384 . S
C136 H158 0.930 . S
C137 C132 1.407 . S
C137 C136 1.384 . S
C137 H159 0.929 . S
C138 O148 1.241 . S
C138 O149 1.273 . S
C139 O150 1.251 . S
C139 O151 1.268 . S
O140 Nd120 2.500 . S
O140 C122 1.258 . S
O141 Nd120 2.492 . S
O141 C122 1.239 . S
O142 Nd120 2.487 . S
O142 C129 1.241 . S
O143 Nd120 2.682 . S
O143 Nd121 2.414 . S
O143 C129 1.273 . S
O144 Nd120 2.410 . S
O144 C130 1.251 . S
O145 Nd121 2.424 . S
O145 C130 1.268 . S
O146 Nd121 2.500 . S
O146 C131 1.258 . S
O147 Nd121 2.492 . S
O147 C131 1.239 . S
O148 Nd121 2.487 . S
O148 C138 1.241 . S
O149 Nd120 2.414 . S
O149 Nd121 2.682 . S
O149 C138 1.273 . S
O150 Nd121 2.410 . S
O150 C139 1.251 . S
O151 Nd120 2.424 . S
O151 C139 1.268 . S
H152 C124 0.930 . S
H153 C125 0.929 . S
H154 C127 0.930 . S
H155 C128 0.929 . S
H156 C133 0.930 . S
H157 C134 0.929 . S
H158 C136 0.930 . S
H159 C137 0.929 . S
Nd160 C162 2.836 . S
Nd160 O180 2.500 . S
Nd160 O181 2.492 . S
Nd160 O182 2.487 . S
Nd160 O183 2.682 . S
Nd160 O184 2.410 . S
Nd160 O189 2.414 . S
Nd160 O191 2.424 . S
Nd161 C171 2.836 . S
Nd161 O183 2.414 . S
Nd161 O185 2.424 . S
Nd161 O186 2.500 . S
Nd161 O187 2.492 . S
Nd161 O188 2.487 . S
Nd161 O189 2.682 . S
Nd161 O190 2.410 . S
C162 Nd160 2.836 . S
C162 C163 1.498 . S
C162 O180 1.258 . S
C162 O181 1.239 . S
C163 C162 1.498 . S
C163 C164 1.366 . S
C163 C168 1.407 . S
C164 C163 1.366 . S
C164 C165 1.392 1_554 S
C164 H192 0.930 . S
C165 C164 1.392 1_556 S
C165 C166 1.398 . S
C165 H193 0.929 . S
C166 C165 1.398 . S
C166 C167 1.352 1_556 S
C167 C166 1.352 1_554 S
C167 C168 1.384 . S
C167 H194 0.930 . S
C168 C163 1.407 . S
C168 C167 1.384 . S
C168 H195 0.929 . S
C169 O182 1.241 . S
C169 O183 1.273 . S
C170 O184 1.251 . S
C170 O185 1.268 . S
C171 Nd161 2.836 . S
C171 C172 1.498 . S
C171 O186 1.258 . S
C171 O187 1.239 . S
C172 C171 1.498 . S
C172 C173 1.366 . S
C172 C177 1.407 . S
C173 C172 1.366 . S
C173 C174 1.392 . S
C173 H196 0.930 . S
C174 C173 1.392 . S
C174 C175 1.398 . S
C174 H197 0.929 . S
C175 C174 1.398 . S
C175 C176 1.352 . S
C176 C175 1.352 . S
C176 C177 1.384 . S
C176 H198 0.930 . S
C177 C172 1.407 . S
C177 C176 1.384 . S
C177 H199 0.929 . S
C178 O188 1.241 . S
C178 O189 1.273 . S
C179 O190 1.251 . S
C179 O191 1.268 . S
O180 Nd160 2.500 . S
O180 C162 1.258 . S
O181 Nd160 2.492 . S
O181 C162 1.239 . S
O182 Nd160 2.487 . S
O182 C169 1.241 . S
O183 Nd160 2.682 . S
O183 Nd161 2.414 . S
O183 C169 1.273 . S
O184 Nd160 2.410 . S
O184 C170 1.251 . S
O185 Nd161 2.424 . S
O185 C170 1.268 . S
O186 Nd161 2.500 . S
O186 C171 1.258 . S
O187 Nd161 2.492 . S
O187 C171 1.239 . S
O188 Nd161 2.487 . S
O188 C178 1.241 . S
O189 Nd160 2.414 . S
O189 Nd161 2.682 . S
O189 C178 1.273 . S
O190 Nd161 2.410 . S
O190 C179 1.251 . S
O191 Nd160 2.424 . S
O191 C179 1.268 . S
H192 C164 0.930 . S
H193 C165 0.929 . S
H194 C167 0.930 . S
H195 C168 0.929 . S
H196 C173 0.930 . S
H197 C174 0.929 . S
H198 C176 0.930 . S
H199 C177 0.929 . S
Nd200 C202 2.836 . S
Nd200 O220 2.500 . S
Nd200 O221 2.492 . S
Nd200 O222 2.487 . S
Nd200 O223 2.682 . S
Nd200 O224 2.410 . S
Nd200 O229 2.414 . S
Nd200 O231 2.424 . S
Nd201 C211 2.836 . S
Nd201 O223 2.414 . S
Nd201 O225 2.424 . S
Nd201 O226 2.500 . S
Nd201 O227 2.492 . S
Nd201 O228 2.487 . S
Nd201 O229 2.682 . S
Nd201 O230 2.410 . S
C202 Nd200 2.836 . S
C202 C203 1.498 . S
C202 O220 1.258 . S
C202 O221 1.239 . S
C203 C202 1.498 . S
C203 C204 1.366 . S
C203 C208 1.407 . S
C204 C203 1.366 . S
C204 C205 1.392 . S
C204 H232 0.930 . S
C205 C204 1.392 . S
C205 C206 1.398 . S
C205 H233 0.929 . S
C206 C205 1.398 . S
C206 C207 1.352 . S
C207 C206 1.352 . S
C207 C208 1.384 . S
C207 H234 0.930 . S
C208 C203 1.407 . S
C208 C207 1.384 . S
C208 H235 0.929 . S
C209 O222 1.241 . S
C209 O223 1.273 . S
C210 O224 1.251 . S
C210 O225 1.268 . S
C211 Nd201 2.836 . S
C211 C212 1.498 . S
C211 O226 1.258 . S
C211 O227 1.239 . S
C212 C211 1.498 . S
C212 C213 1.366 . S
C212 C217 1.407 . S
C213 C212 1.366 . S
C213 C214 1.392 1_556 S
C213 H236 0.930 . S
C214 C213 1.392 1_554 S
C214 C215 1.398 . S
C214 H237 0.929 . S
C215 C214 1.398 . S
C215 C216 1.352 1_554 S
C216 C215 1.352 1_556 S
C216 C217 1.384 . S
C216 H238 0.930 . S
C217 C212 1.407 . S
C217 C216 1.384 . S
C217 H239 0.929 . S
C218 O228 1.241 . S
C218 O229 1.273 . S
C219 O230 1.251 . S
C219 O231 1.268 . S
O220 Nd200 2.500 . S
O220 C202 1.258 . S
O221 Nd200 2.492 . S
O221 C202 1.239 . S
O222 Nd200 2.487 . S
O222 C209 1.241 . S
O223 Nd200 2.682 . S
O223 Nd201 2.414 . S
O223 C209 1.273 . S
O224 Nd200 2.410 . S
O224 C210 1.251 . S
O225 Nd201 2.424 . S
O225 C210 1.268 . S
O226 Nd201 2.500 . S
O226 C211 1.258 . S
O227 Nd201 2.492 . S
O227 C211 1.239 . S
O228 Nd201 2.487 . S
O228 C218 1.241 . S
O229 Nd200 2.414 . S
O229 Nd201 2.682 . S
O229 C218 1.273 . S
O230 Nd201 2.410 . S
O230 C219 1.251 . S
O231 Nd200 2.424 . S
O231 C219 1.268 . S
H232 C204 0.930 . S
H233 C205 0.929 . S
H234 C207 0.930 . S
H235 C208 0.929 . S
H236 C213 0.930 . S
H237 C214 0.929 . S
H238 C216 0.930 . S
H239 C217 0.929 . S
Nd240 C242 2.836 1_554 S
Nd240 O260 2.500 1_554 S
Nd240 O261 2.492 1_554 S
Nd240 O262 2.487 . S
Nd240 O263 2.682 . S
Nd240 O264 2.410 1_554 S
Nd240 O269 2.414 1_554 S
Nd240 O271 2.424 . S
Nd241 C251 2.836 1_556 S
Nd241 O263 2.414 1_556 S
Nd241 O265 2.424 . S
Nd241 O266 2.500 1_556 S
Nd241 O267 2.492 1_556 S
Nd241 O268 2.487 . S
Nd241 O269 2.682 . S
Nd241 O270 2.410 1_556 S
C242 Nd240 2.836 1_556 S
C242 C243 1.498 . S
C242 O260 1.258 . S
C242 O261 1.239 . S
C243 C242 1.498 . S
C243 C244 1.366 . S
C243 C248 1.407 . S
C244 C243 1.366 . S
C244 C245 1.392 . S
C244 H272 0.930 . S
C245 C244 1.392 . S
C245 C246 1.398 . S
C245 H273 0.929 . S
C246 C245 1.398 . S
C246 C247 1.352 . S
C247 C246 1.352 . S
C247 C248 1.384 . S
C247 H274 0.930 . S
C248 C243 1.407 . S
C248 C247 1.384 . S
C248 H275 0.929 . S
C249 O262 1.241 . S
C249 O263 1.273 . S
C250 O264 1.251 . S
C250 O265 1.268 . S
C251 Nd241 2.836 1_554 S
C251 C252 1.498 . S
C251 O266 1.258 . S
C251 O267 1.239 . S
C252 C251 1.498 . S
C252 C253 1.366 . S
C252 C257 1.407 . S
C253 C252 1.366 . S
C253 C254 1.392 . S
C253 H276 0.930 . S
C254 C253 1.392 . S
C254 C255 1.398 . S
C254 H277 0.929 . S
C255 C254 1.398 . S
C255 C256 1.352 . S
C256 C255 1.352 . S
C256 C257 1.384 . S
C256 H278 0.930 . S
C257 C252 1.407 . S
C257 C256 1.384 . S
C257 H279 0.929 . S
C258 O268 1.241 . S
C258 O269 1.273 . S
C259 O270 1.251 . S
C259 O271 1.268 . S
O260 Nd240 2.500 1_556 S
O260 C242 1.258 . S
O261 Nd240 2.492 1_556 S
O261 C242 1.239 . S
O262 Nd240 2.487 . S
O262 C249 1.241 . S
O263 Nd240 2.682 . S
O263 Nd241 2.414 1_554 S
O263 C249 1.273 . S
O264 Nd240 2.410 1_556 S
O264 C250 1.251 . S
O265 Nd241 2.424 . S
O265 C250 1.268 . S
O266 Nd241 2.500 1_554 S
O266 C251 1.258 . S
O267 Nd241 2.492 1_554 S
O267 C251 1.239 . S
O268 Nd241 2.487 . S
O268 C258 1.241 . S
O269 Nd240 2.414 1_556 S
O269 Nd241 2.682 . S
O269 C258 1.273 . S
O270 Nd241 2.410 1_554 S
O270 C259 1.251 . S
O271 Nd240 2.424 . S
O271 C259 1.268 . S
H272 C244 0.930 . S
H273 C245 0.929 . S
H274 C247 0.930 . S
H275 C248 0.929 . S
H276 C253 0.930 . S
H277 C254 0.929 . S
H278 C256 0.930 . S
H279 C257 0.929 . S
Nd280 C282 2.836 . S
Nd280 O300 2.500 . S
Nd280 O301 2.492 . S
Nd280 O302 2.487 . S
Nd280 O303 2.682 . S
Nd280 O304 2.410 . S
Nd280 O309 2.414 1_655 S
Nd280 O311 2.424 . S
Nd281 C291 2.836 . S
Nd281 O303 2.414 1_455 S
Nd281 O305 2.424 . S
Nd281 O306 2.500 . S
Nd281 O307 2.492 . S
Nd281 O308 2.487 . S
Nd281 O309 2.682 . S
Nd281 O310 2.410 . S
C282 Nd280 2.836 . S
C282 C283 1.498 . S
C282 O300 1.258 . S
C282 O301 1.239 . S
C283 C282 1.498 . S
C283 C284 1.366 . S
C283 C288 1.407 . S
C284 C283 1.366 . S
C284 C285 1.392 . S
C284 H312 0.930 . S
C285 C284 1.392 . S
C285 C286 1.398 . S
C285 H313 0.929 . S
C286 C285 1.398 . S
C286 C287 1.352 . S
C287 C286 1.352 . S
C287 C288 1.384 . S
C287 H314 0.930 . S
C288 C283 1.407 . S
C288 C287 1.384 . S
C288 H315 0.929 . S
C289 O302 1.241 . S
C289 O303 1.273 . S
C290 O304 1.251 . S
C290 O305 1.268 1_655 S
C291 Nd281 2.836 . S
C291 C292 1.498 . S
C291 O306 1.258 . S
C291 O307 1.239 . S
C292 C291 1.498 . S
C292 C293 1.366 . S
C292 C297 1.407 . S
C293 C292 1.366 . S
C293 C294 1.392 . S
C293 H316 0.930 . S
C294 C293 1.392 . S
C294 C295 1.398 . S
C294 H317 0.929 . S
C295 C294 1.398 . S
C295 C296 1.352 . S
C296 C295 1.352 . S
C296 C297 1.384 . S
C296 H318 0.930 . S
C297 C292 1.407 . S
C297 C296 1.384 . S
C297 H319 0.929 . S
C298 O308 1.241 . S
C298 O309 1.273 . S
C299 O310 1.251 . S
C299 O311 1.268 1_455 S
O300 Nd280 2.500 . S
O300 C282 1.258 . S
O301 Nd280 2.492 . S
O301 C282 1.239 . S
O302 Nd280 2.487 . S
O302 C289 1.241 . S
O303 Nd280 2.682 . S
O303 Nd281 2.414 1_655 S
O303 C289 1.273 . S
O304 Nd280 2.410 . S
O304 C290 1.251 . S
O305 Nd281 2.424 . S
O305 C290 1.268 1_455 S
O306 Nd281 2.500 . S
O306 C291 1.258 . S
O307 Nd281 2.492 . S
O307 C291 1.239 . S
O308 Nd281 2.487 . S
O308 C298 1.241 . S
O309 Nd280 2.414 1_455 S
O309 Nd281 2.682 . S
O309 C298 1.273 . S
O310 Nd281 2.410 . S
O310 C299 1.251 . S
O311 Nd280 2.424 . S
O311 C299 1.268 1_655 S
H312 C284 0.930 . S
H313 C285 0.929 . S
H314 C287 0.930 . S
H315 C288 0.929 . S
H316 C293 0.930 . S
H317 C294 0.929 . S
H318 C296 0.930 . S
H319 C297 0.929 . S
C320 C321 1.170 . S
C320 C322 1.380 . S
C321 C320 1.170 . S
C322 C320 1.380 . S
C322 C323 1.170 . S
C323 C322 1.170 . S
C324 C325 1.170 . S
C324 C326 1.380 . S
C325 C324 1.170 . S
C326 C324 1.380 . S
C326 C327 1.170 . S
C327 C326 1.170 . S
C328 C329 1.170 . S
C328 C330 1.380 . S
C329 C328 1.170 . S
C330 C328 1.380 . S
C330 C331 1.170 . S
C331 C330 1.170 . S
C332 C333 1.170 . S
C332 C334 1.379 1_554 S
C333 C332 1.170 . S
C334 C332 1.379 1_556 S
C334 C335 1.172 . S
C335 C334 1.172 . S
C336 C337 1.170 . S
C336 C338 1.380 . S
C337 C336 1.170 . S
C338 C336 1.380 . S
C338 C339 1.170 . S
C339 C338 1.170 . S
C340 C341 1.170 . S
C340 C342 1.380 . S
C341 C340 1.170 . S
C342 C340 1.380 . S
C342 C343 1.170 . S
C343 C342 1.170 . S
C344 C345 1.170 . S
C344 C346 1.380 . S
C345 C344 1.170 . S
C346 C344 1.380 . S
C346 C347 1.170 . S
C347 C346 1.170 . S
C348 C349 1.170 . S
C348 C350 1.380 1_554 S
C349 C348 1.170 . S
C350 C348 1.380 1_556 S
C350 C351 1.170 . S
C351 C350 1.170 . S
C352 C353 1.170 . S
C352 C354 1.380 . S
C353 C352 1.170 . S
C354 C352 1.380 . S
C354 C355 1.170 . S
C355 C354 1.170 . S
C356 C357 1.168 1_554 S
C356 C358 1.382 . S
C357 C356 1.168 1_556 S
C358 C356 1.382 . S
C358 C359 1.170 . S
C359 C358 1.170 . S
C360 C361 1.170 . S
C360 C362 1.380 . S
C361 C360 1.170 . S
C362 C360 1.380 . S
C362 C363 1.170 . S
C363 C362 1.170 . S
C364 C365 1.170 . S
C364 C366 1.380 . S
C365 C364 1.170 . S
C366 C364 1.380 . S
C366 C367 1.170 . S
C367 C366 1.170 . S
C368 C369 1.170 . S
C368 C370 1.380 . S
C369 C368 1.170 . S
C370 C368 1.380 . S
C370 C371 1.170 . S
C371 C370 1.170 . S
C372 C373 1.170 . S
C372 C374 1.378 1_556 S
C373 C372 1.170 . S
C374 C372 1.378 1_554 S
C374 C375 1.173 . S
C375 C374 1.173 . S
C376 C377 1.170 . S
C376 C378 1.380 . S
C377 C376 1.170 . S
C378 C376 1.380 . S
C378 C379 1.170 . S
C379 C378 1.170 . S
C380 C381 1.170 . S
C380 C382 1.380 . S
C381 C380 1.170 . S
C382 C380 1.380 . S
C382 C383 1.170 . S
C383 C382 1.170 . S
C384 C385 1.170 . S
C384 C386 1.380 1_666 S
C385 C384 1.170 . S
C386 C384 1.380 1_444 S
C386 C387 1.170 . S
C387 C386 1.170 . S
C388 C389 1.170 . S
C388 C390 1.380 . S
C389 C388 1.170 . S
C390 C388 1.380 . S
C390 C391 1.170 . S
C391 C390 1.170 . S
C392 C393 1.170 . S
C392 C394 1.378 1_565 S
C393 C392 1.170 . S
C394 C392 1.378 1_545 S
C394 C395 1.173 . S
C395 C394 1.173 . S
C396 C397 1.170 . S
C396 C398 1.380 . S
C397 C396 1.170 . S
C398 C396 1.380 . S
C398 C399 1.170 . S
C399 C398 1.170 . S
C400 C401 1.170 . S
C400 C402 1.380 . S
C401 C400 1.170 . S
C402 C400 1.380 . S
C402 C403 1.170 . S
C403 C402 1.170 . S
C404 C405 1.170 . S
C404 C406 1.380 . S
C405 C404 1.170 . S
C406 C404 1.380 . S
C406 C407 1.170 . S
C407 C406 1.170 . S
C408 C409 1.170 . S
C408 C410 1.380 . S
C409 C408 1.170 . S
C410 C408 1.380 . S
C410 C411 1.170 . S
C411 C410 1.170 . S
C412 C413 1.170 . S
C412 C414 1.380 1_456 S
C413 C412 1.170 . S
C414 C412 1.380 1_654 S
C414 C415 1.170 . S
C415 C414 1.170 . S
C321 C6 1.694 . S
C323 C129 1.751 . S
C325 C9 1.725 . S
C327 C46 1.713 . S
C329 C49 1.740 . S
C331 C86 1.695 . S
C333 C89 1.742 . S
C335 C126 1.688 . S
C337 C15 1.726 . S
C339 C218 1.747 . S
C341 C18 1.732 . S
C343 C175 1.721 . S
C345 C178 1.723 . S
C347 C95 1.708 . S
C349 C215 1.726 . S
C351 C98 1.748 . S
C353 C246 1.726 . S
C355 C209 1.723 . S
C357 C166 1.685 . S
C359 C249 1.751 . S
C361 C286 1.710 . S
C363 C169 1.727 . S
C365 C206 1.718 . S
C367 C289 1.723 . S
C369 C138 1.744 . S
C371 C255 1.726 . S
C373 C258 1.750 . S
C375 C55 1.694 . S
C377 C58 1.753 . S
C379 C295 1.697 . S
C381 C135 1.685 . S
C383 C298 1.732 . S
C385 C19 2.083 . S
C387 C10 2.111 . S
C389 C50 2.097 . S
C391 C59 2.090 1_554 S
C393 C90 2.105 . S
C395 C99 2.099 . S
C397 C130 2.085 1_556 S
C399 C139 2.112 . S
C401 C170 2.100 1_556 S
C403 C179 2.088 . S
C405 C210 2.083 . S
C407 C219 2.110 1_554 S
C409 C250 2.085 . S
C411 C259 2.103 . S
C413 C299 2.112 . S
C415 C290 2.084 . S
