# Generated by pormake.
# Topology ecc, (8)-cn, num edge types: 1
# Building blocks:
#     Node 0, Type 0, BuildingBlock: LIZSOE_clean_sbu_0, # of connection points: 8
#     Node 1, Type 0, BuildingBlock: LIZSOE_clean_sbu_0, # of connection points: 8
#     Node 2, Type 0, BuildingBlock: LIZSOE_clean_sbu_0, # of connection points: 8
#     Node 3, Type 0, BuildingBlock: LIZSOE_clean_sbu_0, # of connection points: 8
#     Node 4, Type 0, BuildingBlock: LIZSOE_clean_sbu_0, # of connection points: 8
#     Node 5, Type 0, BuildingBlock: LIZSOE_clean_sbu_0, # of connection points: 8
#     Node 6, Type 0, BuildingBlock: LIZSOE_clean_sbu_0, # of connection points: 8
#     Node 7, Type 0, BuildingBlock: LIZSOE_clean_sbu_0, # of connection points: 8
#     Node 8, Type 0, BuildingBlock: LIZSOE_clean_sbu_0, # of connection points: 8
#     Node 9, Type 0, BuildingBlock: LIZSOE_clean_sbu_0, # of connection points: 8
#     Node 10, Type 0, BuildingBlock: LIZSOE_clean_sbu_0, # of connection points: 8
#     Node 11, Type 0, BuildingBlock: LIZSOE_clean_sbu_0, # of connection points: 8
#     Node 12, Type 0, BuildingBlock: LIZSOE_clean_sbu_0, # of connection points: 8
#     Node 13, Type 0, BuildingBlock: LIZSOE_clean_sbu_0, # of connection points: 8
#     Node 14, Type 0, BuildingBlock: LIZSOE_clean_sbu_0, # of connection points: 8
#     Node 15, Type 0, BuildingBlock: LIZSOE_clean_sbu_0, # of connection points: 8
#     Node 16, Type 0, BuildingBlock: LIZSOE_clean_sbu_0, # of connection points: 8
#     Node 17, Type 0, BuildingBlock: LIZSOE_clean_sbu_0, # of connection points: 8
#     Edge 18, Type (0, 0), BuildingBlock: AJUNOK_clean_linker_0, # of connection points: 2
#     Edge 19, Type (0, 0), BuildingBlock: AJUNOK_clean_linker_0, # of connection points: 2
#     Edge 20, Type (0, 0), BuildingBlock: AJUNOK_clean_linker_0, # of connection points: 2
#     Edge 21, Type (0, 0), BuildingBlock: AJUNOK_clean_linker_0, # of connection points: 2
#     Edge 22, Type (0, 0), BuildingBlock: AJUNOK_clean_linker_0, # of connection points: 2
#     Edge 23, Type (0, 0), BuildingBlock: AJUNOK_clean_linker_0, # of connection points: 2
#     Edge 24, Type (0, 0), BuildingBlock: AJUNOK_clean_linker_0, # of connection points: 2
#     Edge 25, Type (0, 0), BuildingBlock: AJUNOK_clean_linker_0, # of connection points: 2
#     Edge 26, Type (0, 0), BuildingBlock: AJUNOK_clean_linker_0, # of connection points: 2
#     Edge 27, Type (0, 0), BuildingBlock: AJUNOK_clean_linker_0, # of connection points: 2
#     Edge 28, Type (0, 0), BuildingBlock: AJUNOK_clean_linker_0, # of connection points: 2
#     Edge 29, Type (0, 0), BuildingBlock: AJUNOK_clean_linker_0, # of connection points: 2
#     Edge 30, Type (0, 0), BuildingBlock: AJUNOK_clean_linker_0, # of connection points: 2
#     Edge 31, Type (0, 0), BuildingBlock: AJUNOK_clean_linker_0, # of connection points: 2
#     Edge 32, Type (0, 0), BuildingBlock: AJUNOK_clean_linker_0, # of connection points: 2
#     Edge 33, Type (0, 0), BuildingBlock: AJUNOK_clean_linker_0, # of connection points: 2
#     Edge 34, Type (0, 0), BuildingBlock: AJUNOK_clean_linker_0, # of connection points: 2
#     Edge 35, Type (0, 0), BuildingBlock: AJUNOK_clean_linker_0, # of connection points: 2
#     Edge 36, Type (0, 0), BuildingBlock: AJUNOK_clean_linker_0, # of connection points: 2
#     Edge 37, Type (0, 0), BuildingBlock: AJUNOK_clean_linker_0, # of connection points: 2
#     Edge 38, Type (0, 0), BuildingBlock: AJUNOK_clean_linker_0, # of connection points: 2
#     Edge 39, Type (0, 0), BuildingBlock: AJUNOK_clean_linker_0, # of connection points: 2
#     Edge 40, Type (0, 0), BuildingBlock: AJUNOK_clean_linker_0, # of connection points: 2
#     Edge 41, Type (0, 0), BuildingBlock: AJUNOK_clean_linker_0, # of connection points: 2
#     Edge 42, Type (0, 0), BuildingBlock: AJUNOK_clean_linker_0, # of connection points: 2
#     Edge 43, Type (0, 0), BuildingBlock: AJUNOK_clean_linker_0, # of connection points: 2
#     Edge 44, Type (0, 0), BuildingBlock: AJUNOK_clean_linker_0, # of connection points: 2
#     Edge 45, Type (0, 0), BuildingBlock: AJUNOK_clean_linker_0, # of connection points: 2
#     Edge 46, Type (0, 0), BuildingBlock: AJUNOK_clean_linker_0, # of connection points: 2
#     Edge 47, Type (0, 0), BuildingBlock: AJUNOK_clean_linker_0, # of connection points: 2
#     Edge 48, Type (0, 0), BuildingBlock: AJUNOK_clean_linker_0, # of connection points: 2
#     Edge 49, Type (0, 0), BuildingBlock: AJUNOK_clean_linker_0, # of connection points: 2
#     Edge 50, Type (0, 0), BuildingBlock: AJUNOK_clean_linker_0, # of connection points: 2
#     Edge 51, Type (0, 0), BuildingBlock: AJUNOK_clean_linker_0, # of connection points: 2
#     Edge 52, Type (0, 0), BuildingBlock: AJUNOK_clean_linker_0, # of connection points: 2
#     Edge 53, Type (0, 0), BuildingBlock: AJUNOK_clean_linker_0, # of connection points: 2
#     Edge 54, Type (0, 0), BuildingBlock: AJUNOK_clean_linker_0, # of connection points: 2
#     Edge 55, Type (0, 0), BuildingBlock: AJUNOK_clean_linker_0, # of connection points: 2
#     Edge 56, Type (0, 0), BuildingBlock: AJUNOK_clean_linker_0, # of connection points: 2
#     Edge 57, Type (0, 0), BuildingBlock: AJUNOK_clean_linker_0, # of connection points: 2
#     Edge 58, Type (0, 0), BuildingBlock: AJUNOK_clean_linker_0, # of connection points: 2
#     Edge 59, Type (0, 0), BuildingBlock: AJUNOK_clean_linker_0, # of connection points: 2
#     Edge 60, Type (0, 0), BuildingBlock: AJUNOK_clean_linker_0, # of connection points: 2
#     Edge 61, Type (0, 0), BuildingBlock: AJUNOK_clean_linker_0, # of connection points: 2
#     Edge 62, Type (0, 0), BuildingBlock: AJUNOK_clean_linker_0, # of connection points: 2
#     Edge 63, Type (0, 0), BuildingBlock: AJUNOK_clean_linker_0, # of connection points: 2
#     Edge 64, Type (0, 0), BuildingBlock: AJUNOK_clean_linker_0, # of connection points: 2
#     Edge 65, Type (0, 0), BuildingBlock: AJUNOK_clean_linker_0, # of connection points: 2
#     Edge 66, Type (0, 0), BuildingBlock: AJUNOK_clean_linker_0, # of connection points: 2
#     Edge 67, Type (0, 0), BuildingBlock: AJUNOK_clean_linker_0, # of connection points: 2
#     Edge 68, Type (0, 0), BuildingBlock: AJUNOK_clean_linker_0, # of connection points: 2
#     Edge 69, Type (0, 0), BuildingBlock: AJUNOK_clean_linker_0, # of connection points: 2
#     Edge 70, Type (0, 0), BuildingBlock: AJUNOK_clean_linker_0, # of connection points: 2
#     Edge 71, Type (0, 0), BuildingBlock: AJUNOK_clean_linker_0, # of connection points: 2
#     Edge 72, Type (0, 0), BuildingBlock: AJUNOK_clean_linker_0, # of connection points: 2
#     Edge 73, Type (0, 0), BuildingBlock: AJUNOK_clean_linker_0, # of connection points: 2
#     Edge 74, Type (0, 0), BuildingBlock: AJUNOK_clean_linker_0, # of connection points: 2
#     Edge 75, Type (0, 0), BuildingBlock: AJUNOK_clean_linker_0, # of connection points: 2
#     Edge 76, Type (0, 0), BuildingBlock: AJUNOK_clean_linker_0, # of connection points: 2
#     Edge 77, Type (0, 0), BuildingBlock: AJUNOK_clean_linker_0, # of connection points: 2
#     Edge 78, Type (0, 0), BuildingBlock: AJUNOK_clean_linker_0, # of connection points: 2
#     Edge 79, Type (0, 0), BuildingBlock: AJUNOK_clean_linker_0, # of connection points: 2
#     Edge 80, Type (0, 0), BuildingBlock: AJUNOK_clean_linker_0, # of connection points: 2
#     Edge 81, Type (0, 0), BuildingBlock: AJUNOK_clean_linker_0, # of connection points: 2
#     Edge 82, Type (0, 0), BuildingBlock: AJUNOK_clean_linker_0, # of connection points: 2
#     Edge 83, Type (0, 0), BuildingBlock: AJUNOK_clean_linker_0, # of connection points: 2
#     Edge 84, Type (0, 0), BuildingBlock: AJUNOK_clean_linker_0, # of connection points: 2
#     Edge 85, Type (0, 0), BuildingBlock: AJUNOK_clean_linker_0, # of connection points: 2
#     Edge 86, Type (0, 0), BuildingBlock: AJUNOK_clean_linker_0, # of connection points: 2
#     Edge 87, Type (0, 0), BuildingBlock: AJUNOK_clean_linker_0, # of connection points: 2
#     Edge 88, Type (0, 0), BuildingBlock: AJUNOK_clean_linker_0, # of connection points: 2
#     Edge 89, Type (0, 0), BuildingBlock: AJUNOK_clean_linker_0, # of connection points: 2
# Relax obj value: 0.352
# Max RMSD: 0.269
# Mean RMSD: 0.269
data_MOF--net-ecc--node1-LIZSOE_clean_sbu_0--edge1-AJUNOK_clean_linker_0
_symmetry_space_group_name_H-M    P1
_symmetry_Int_Tables_number       1
_symmetry_cell_setting            triclinic
loop_
_symmetry_equiv_pos_as_xyz
'x, y, z'
_cell_length_a     34.171451
_cell_length_b     34.002976
_cell_length_c     25.292267
_cell_angle_alpha  90.081861
_cell_angle_beta   89.943091
_cell_angle_gamma 119.87348
loop_
_atom_site_label
_atom_site_type_symbol
_atom_site_fract_x
_atom_site_fract_y
_atom_site_fract_z
_atom_type_partial_charge
Co0 Co 0.22933 0.04648 0.89096 0.0
N1 N 0.24275 0.08675 0.94539 0.0
C2 C 0.24928 0.12891 0.93775 0.0
N3 N 0.28073 0.13064 1.01403 0.0
C4 C 0.26163 0.0886 0.99298 0.0
C5 C 0.27262 0.15574 0.9795 0.0
Co6 Co 0.20745 1.0181 0.64603 0.0
N7 N 0.17589 0.98188 0.58688 0.0
N8 N 0.15699 0.93778 0.51406 0.0
C9 C 0.11949 0.92608 0.54214 0.0
C10 C 0.13104 0.95247 0.58637 0.0
C11 C 0.1908 0.97222 0.54109 0.0
Co12 Co 0.23877 0.03124 0.76898 0.0
C13 C 0.27619 0.06209 0.66214 0.0
H14 H 0.10804 0.94704 0.61792 0.0
O15 O 0.222 1.00587 0.841 0.0
O16 O 0.25828 0.98593 0.73621 0.0
O17 O 0.30672 0.07203 0.79732 0.0
O18 O 0.22075 0.08006 0.78275 0.0
O19 O 0.18732 0.06473 0.86036 0.0
O20 O 0.20699 0.96601 0.67422 0.0
O21 O 0.24579 0.05575 0.69714 0.0
O22 O 0.14979 1.00066 0.68372 0.0
O23 O 0.27885 0.09562 0.85695 0.0
O24 O 0.26471 1.02395 0.9128 0.0
O25 O 0.17159 0.98642 0.75944 0.0
O26 O 0.26209 0.03789 0.61934 0.0
C27 C 0.31284 0.09386 0.84178 0.0
C28 C 0.23915 0.99463 0.52344 0.0
H29 H 0.25881 0.98775 0.55225 0.0
H30 H 0.24368 0.98162 0.48528 0.0
H31 H 0.2534 0.03177 0.52029 0.0
C32 C 0.24152 0.96546 0.69107 0.0
C33 C 0.19261 0.0822 0.81438 0.0
H34 H 0.24032 0.14049 0.90245 0.0
H35 H 0.23291 1.01682 1.00657 0.0
H36 H 0.26443 0.05218 0.06212 0.0
H37 H 0.29393 0.04929 1.00562 0.0
C38 C 0.26288 0.04932 1.01843 0.0
C39 C 0.2438 0.9952 0.87476 0.0
C40 C 0.13997 0.9838 0.7303 0.0
H41 H 0.2814 0.19074 0.9853 0.0
H42 H 0.08636 0.89816 0.53308 0.0
Co43 Co 0.05537 0.20815 0.6657 0.0
N44 N 0.0931 0.21504 0.61108 0.0
C45 C 0.13393 0.21812 0.61364 0.0
N46 N 0.12704 0.23792 0.53275 0.0
C47 C 0.08993 0.22737 0.56096 0.0
C48 C 0.15461 0.23152 0.56508 0.0
Co49 Co 1.03693 0.20184 0.89593 0.0
N50 N 1.00087 0.17844 0.95671 0.0
N51 N 0.95706 0.17411 0.02554 0.0
C52 C 0.93595 0.13511 0.99832 0.0
C53 C 0.96238 0.13781 0.95648 0.0
C54 C 0.99688 0.19974 1.00045 0.0
Co55 Co 0.04443 0.22261 0.77178 0.0
C56 C 0.08737 0.26643 0.87242 0.0
H57 H 0.95157 0.11286 0.92543 0.0
O58 O 1.01249 0.20378 0.70728 0.0
O59 O 1.00476 0.24928 0.80348 0.0
O60 O 0.08619 0.28582 0.72838 0.0
O61 O 0.09082 0.20249 0.75597 0.0
O62 O 0.05966 0.15478 0.6923 0.0
O63 O 0.98547 0.20091 0.86741 0.0
O64 O 0.074 0.23241 0.84057 0.0
O65 O 1.01531 0.13981 0.86803 0.0
O66 O 0.05609 0.25962 0.64708 0.0
O67 O 1.00293 0.1673 0.63322 0.0
O68 O 0.99896 0.15748 0.79071 0.0
O69 O 0.06187 0.261 0.91318 0.0
C70 C 0.0809 0.29292 0.67714 0.0
C71 C 1.03057 0.24735 1.01632 0.0
H72 H 1.02675 0.27146 0.99085 0.0
H73 H 1.02571 0.25563 0.05715 0.0
H74 H 0.06512 0.2529 1.01135 0.0
C75 C 0.98489 0.2348 0.84893 0.0
C76 C 0.08562 0.16725 0.73236 0.0
H77 H 0.14822 0.21214 0.64872 0.0
H78 H 1.02234 0.21993 0.56465 0.0
H79 H 1.04263 0.21898 0.4995 0.0
H80 H 0.06558 0.27103 0.53487 0.0
C81 C 0.05259 0.23411 0.53948 0.0
C82 C 0.98569 0.17086 0.6773 0.0
C83 C 0.99677 0.12749 0.82255 0.0
H84 H 0.18685 0.23524 0.55385 0.0
H85 H 0.90297 0.10695 1.00744 0.0
Co86 Co 0.86192 0.86824 0.65919 0.0
N87 N 0.8507 0.89787 0.6061 0.0
C88 C 0.8477 0.9356 0.61345 0.0
N89 N 0.82109 0.91059 0.5339 0.0
C90 C 0.83489 0.88384 0.5567 0.0
C91 C 0.83013 0.94367 0.56909 0.0
Co92 Co 0.88115 0.86669 0.90386 0.0
N93 N 0.90866 0.8674 0.96584 0.0
N94 N 0.92264 0.85073 0.04588 0.0
C95 C 0.9603 0.88742 0.02865 0.0
C96 C 0.95154 0.89779 0.97929 0.0
C97 C 0.89164 0.83925 1.00803 0.0
Co98 Co 0.85074 0.84068 0.78007 0.0
C99 C 0.81458 0.85066 0.88534 0.0
H100 H 0.97489 0.92593 0.95503 0.0
O101 O 0.86759 0.83168 0.70791 0.0
O102 O 0.83451 0.77718 0.81617 0.0
O103 O 0.78315 0.81306 0.75104 0.0
O104 O 0.86663 0.90565 0.7669 0.0
O105 O 0.90313 0.92723 0.69237 0.0
O106 O 0.86655 0.8065 0.89496 0.0
O107 O 0.84579 0.86273 0.84966 0.0
O108 O 0.94065 0.89055 0.86673 0.0
O109 O 0.81189 0.86656 0.69329 0.0
O110 O 0.82669 0.8119 0.63444 0.0
O111 O 0.91755 0.86477 0.78707 0.0
O112 O 0.8266 0.84677 0.93274 0.0
C113 C 0.77789 0.83008 0.70703 0.0
C114 C 0.84317 0.80326 1.0161 0.0
H115 H 0.82698 0.7859 0.97924 0.0
H116 H 0.84002 0.77728 0.0449 0.0
H117 H 0.82433 0.81942 0.03212 0.0
C118 C 0.84417 0.77224 0.86567 0.0
C119 C 0.89745 0.93683 0.73939 0.0
H120 H 0.85567 0.95501 0.64963 0.0
H121 H 0.85975 0.83804 0.54666 0.0
H122 H 0.83607 0.84755 0.48705 0.0
H123 H 0.79938 0.81312 0.53895 0.0
C124 C 0.83265 0.84338 0.53057 0.0
C125 C 0.84475 0.80076 0.67269 0.0
C126 C 0.94984 0.88654 0.81888 0.0
H127 H 0.82468 0.97195 0.56306 0.0
H128 H 0.99167 0.90534 0.05041 0.0
Co129 Co 0.88083 0.05745 0.38377 0.0
N130 N 0.90044 0.09298 0.44423 0.0
C131 C 0.93639 0.1352 0.44584 0.0
N132 N 0.90044 0.12573 0.52146 0.0
C133 C 0.87912 0.088 0.4912 0.0
C134 C 0.93632 0.15523 0.49276 0.0
Co135 Co 0.88028 0.03438 0.13193 0.0
N136 N 0.87296 1.00215 0.06833 0.0
N137 N 0.83868 0.95734 0.99791 0.0
C138 C 0.87014 0.94809 1.01608 0.0
C139 C 0.8916 0.97599 0.05837 0.0
C140 C 0.84116 0.99046 0.02948 0.0
Co141 Co 0.86162 0.04461 0.25886 0.0
C142 C 0.87006 0.08884 0.15325 0.0
H143 H 0.91737 0.97499 0.08209 0.0
O144 O 0.85378 1.02018 0.32943 0.0
O145 O 0.79629 0.99957 0.22558 0.0
O146 O 0.83536 0.08662 0.28743 0.0
O147 O 0.92754 0.08998 0.27651 0.0
O148 O 0.9432 0.08033 0.3593 0.0
O149 O 0.82005 0.9931 0.14496 0.0
O150 O 0.88236 0.06875 0.18733 0.0
O151 O 0.90282 0.99709 0.16904 0.0
O152 O 0.88369 0.10767 0.35062 0.0
O153 O 0.82103 0.03202 0.39782 0.0
O154 O 0.88244 0.99894 0.25093 0.0
O155 O 0.86326 0.07282 0.10527 0.0
C156 C 0.84932 0.10704 0.33314 0.0
C157 C 0.81173 1.01113 1.02145 0.0
H158 H 0.79986 1.01714 0.05917 0.0
H159 H 0.78194 0.98927 0.9966 0.0
H160 H 0.83136 0.04412 1.00107 0.0
C161 C 0.78798 0.98385 0.17651 0.0
C162 C 0.95632 0.09524 0.3123 0.0
H163 H 0.96015 0.15129 0.41396 0.0
H164 H 0.83321 1.01617 0.49115 0.0
H165 H 0.82625 0.04502 0.54767 0.0
H166 H 0.80715 0.05076 0.48556 0.0
C167 C 0.83435 0.04759 0.50513 0.0
C168 C 0.82112 1.0041 0.36288 0.0
C169 C 0.90087 0.9855 0.21757 0.0
H170 H 0.96123 0.18892 0.50521 0.0
H171 H 0.87594 0.92168 1.001 0.0
Co172 Co 0.07706 0.87507 0.16308 0.0
N173 N 0.11838 0.89948 0.10967 0.0
C174 C 0.16201 0.92705 0.1216 0.0
N175 N 0.16083 0.90554 0.03894 0.0
C176 C 0.11833 0.88639 0.05899 0.0
C177 C 0.18793 0.93161 0.07839 0.0
Co178 Co 1.02695 0.85354 0.39638 0.0
N179 N 0.98353 0.83773 0.45057 0.0
N180 N 0.93392 0.8015 0.51678 0.0
C181 C 0.91492 0.81615 0.48117 0.0
C182 C 0.945 0.83843 0.44166 0.0
C183 C 0.97549 0.81413 0.49696 0.0
Co184 Co 0.05276 0.84878 0.27347 0.0
C185 C 0.0779 0.83627 0.38055 0.0
H186 H 0.93703 0.85038 0.40607 0.0
O187 O 1.03537 0.84762 0.20505 0.0
O188 O 1.00723 0.78062 0.29747 0.0
O189 O 0.09428 0.82371 0.23287 0.0
O190 O 0.10125 0.91518 0.26553 0.0
O191 O 0.09168 0.93584 0.18633 0.0
O192 O 0.98071 0.80654 0.35697 0.0
O193 O 0.07112 0.86155 0.34797 0.0
O194 O 1.00895 0.89648 0.36405 0.0
O195 O 0.06785 0.82036 0.1493 0.0
O196 O 1.02318 0.86491 0.12754 0.0
O197 O 1.00828 0.8723 0.28313 0.0
O198 O 0.04876 0.81792 0.41872 0.0
C199 C 0.08957 0.80992 0.18155 0.0
C200 C 1.00429 0.79546 0.51737 0.0
H201 H 1.00551 0.77237 0.488 0.0
H202 H 0.99014 0.77413 0.55292 0.0
H203 H 1.03915 0.82305 0.52478 0.0
C204 C 0.98324 0.77315 0.34034 0.0
C205 C 0.10757 0.94662 0.23331 0.0
H206 H 0.17434 0.93999 0.16062 0.0
H207 H 0.06106 0.86854 1.00963 0.0
H208 H 0.08514 0.83206 1.00207 0.0
H209 H 0.05095 0.82713 0.05864 0.0
C210 C 0.07666 0.8513 0.03093 0.0
C211 C 1.0068 0.84756 0.17367 0.0
C212 C 0.99932 0.89597 0.31494 0.0
H213 H 0.22427 0.95261 0.07645 0.0
H214 H 0.88039 0.80871 0.48157 0.0
Co215 Co 0.21578 0.22654 0.15594 0.0
N216 N 0.19012 0.24189 0.10058 0.0
C217 C 0.15655 0.25117 0.10895 0.0
N218 N 0.18244 0.27667 0.02904 0.0
C219 C 0.20504 0.25734 0.05091 0.0
C220 C 0.15203 0.2725 0.06569 0.0
Co221 Co 0.24785 0.2039 0.40319 0.0
N222 N 0.25374 0.17027 0.45772 0.0
N223 N 0.27636 0.14859 0.52947 0.0
C224 C 0.23833 0.11278 0.5118 0.0
C225 C 0.22425 0.12614 0.46824 0.0
C226 C 0.28462 0.18374 0.49758 0.0
Co227 Co 0.2468 0.2339 0.27895 0.0
C228 C 0.20493 0.22593 0.38762 0.0
H229 H 0.19375 0.10459 0.44646 0.0
O230 O 0.24669 0.21745 0.20514 0.0
O231 O 0.3141 0.25543 0.30186 0.0
O232 O 0.2728 0.30219 0.25113 0.0
O233 O 0.17931 0.21489 0.27161 0.0
O234 O 0.15707 0.19054 0.18932 0.0
O235 O 0.29583 0.20562 0.3663 0.0
O236 O 0.23992 0.24034 0.35628 0.0
O237 O 0.205 0.14618 0.36698 0.0
O238 O 0.22155 0.27757 0.19043 0.0
O239 O 0.27349 0.25628 0.13145 0.0
O240 O 0.22737 0.16728 0.28565 0.0
O241 O 0.20301 0.20459 0.43131 0.0
C242 C 0.25871 0.30929 0.20588 0.0
C243 C 0.32718 0.23075 0.50396 0.0
H244 H 0.34194 0.22556 0.54101 0.0
H245 H 0.34955 0.22308 0.47814 0.0
H246 H 0.33625 0.31228 0.49581 0.0
C247 C 0.32457 0.24337 0.34665 0.0
C248 C 0.14762 0.19281 0.23775 0.0
H249 H 0.13837 0.24568 0.1457 0.0
H250 H 0.24599 0.22663 0.03718 0.0
H251 H 0.24662 0.26167 0.98299 0.0
H252 H 0.27644 0.28766 0.0417 0.0
C253 C 0.2454 0.25795 0.02642 0.0
C254 C 0.27751 0.23261 0.16937 0.0
C255 C 0.20525 0.13595 0.31875 0.0
H256 H 0.12824 0.28448 0.06178 0.0
H257 H 0.22173 0.07942 0.52957 0.0
Co258 Co 0.87826 0.34729 0.98372 0.0
N259 N 0.85358 0.31141 0.9246 0.0
C260 C 0.82368 0.2666 0.92468 0.0
N261 N 0.8508 0.28349 0.84341 0.0
C262 C 0.86898 0.32094 0.8741 0.0
C263 C 0.8222 0.24949 0.87512 0.0
Co264 Co 0.89524 0.37721 0.22633 0.0
N265 N 0.88853 0.40823 0.28191 0.0
N266 N 0.91249 0.45049 0.35522 0.0
C267 C 0.89154 0.46646 0.3243 0.0
C268 C 0.8776 0.44119 0.27922 0.0
C269 C 0.90786 0.41339 0.32988 0.0
Co270 Co 0.90876 0.3641 0.10574 0.0
C271 C 0.8675 0.31138 0.204 0.0
H272 H 0.86569 0.45047 0.24465 0.0
O273 O 0.91006 0.3859 0.03492 0.0
O274 O 0.97413 0.40981 0.1361 0.0
O275 O 0.93292 0.32213 0.07388 0.0
O276 O 0.84064 0.31764 0.09675 0.0
O277 O 0.81802 0.32428 1.0166 0.0
O278 O 0.9435 0.43129 0.19911 0.0
O279 O 0.90147 0.34269 0.1784 0.0
O280 O 0.85046 0.38751 0.18758 0.0
O281 O 0.88031 0.29811 1.01462 0.0
O282 O 0.93611 0.37244 0.96117 0.0
O283 O 0.89151 0.41192 0.1177 0.0
O284 O 0.8519 0.32339 0.24456 0.0
C285 C 0.9162 0.30022 0.02978 0.0
C286 C 0.92633 0.38419 0.34906 0.0
H287 H 0.9347 0.36891 0.31516 0.0
H288 H 0.95621 0.40352 0.37476 0.0
H289 H 0.9 0.35616 0.37302 0.0
C290 C 0.97799 0.43025 0.18194 0.0
C291 C 0.80859 0.31159 0.06504 0.0
H292 H 0.80598 0.24715 0.95926 0.0
H293 H 0.90362 0.39358 0.87818 0.0
H294 H 0.90395 0.37179 0.81333 0.0
H295 H 0.93886 0.36923 0.86328 0.0
C296 C 0.90559 0.36654 0.85614 0.0
C297 C 0.94078 0.40051 0.9988 0.0
C298 C 0.85949 0.4095 0.1447 0.0
H299 H 0.80177 0.21465 0.86304 0.0
H300 H 0.89019 0.49697 0.33129 0.0
Co301 Co 0.70603 0.53359 0.23736 0.0
N302 N 0.67138 0.52897 0.30424 0.0
C303 C 0.63677 0.48652 0.30904 0.0
N304 N 0.61819 0.52675 0.36076 0.0
C305 C 0.65985 0.55639 0.33752 0.0
C306 C 0.60414 0.48606 0.33919 0.0
Co307 Co 0.74007 0.55048 0.98375 0.0
N308 N 0.78212 0.56503 0.9292 0.0
N309 N 0.82683 0.60122 0.85963 0.0
C310 C 0.851 0.59331 0.89564 0.0
C311 C 0.8237 0.57091 0.93761 0.0
C312 C 0.785 0.58359 0.88079 0.0
Co313 Co 0.71805 0.55591 0.10788 0.0
C314 C 0.68965 0.56781 1.00099 0.0
H315 H 0.83477 0.56284 0.97393 0.0
O316 O 0.7399 0.55411 0.17786 0.0
O317 O 0.76386 0.62371 0.08252 0.0
O318 O 0.6794 0.58589 0.13986 0.0
O319 O 0.67038 0.48947 0.11972 0.0
O320 O 0.66199 0.47047 0.20556 0.0
O321 O 0.78781 0.59723 1.02134 0.0
O322 O 0.69753 0.54324 0.03364 0.0
O323 O 0.75752 0.50779 1.01396 0.0
O324 O 0.6671 0.54836 0.21213 0.0
O325 O 0.75732 0.58905 0.25216 0.0
O326 O 0.76075 0.5321 0.09555 0.0
O327 O 0.71852 0.58688 0.96263 0.0
C328 C 0.6691 0.58162 0.19051 0.0
C329 C 0.74845 0.59025 0.85788 0.0
H330 H 0.75353 0.62365 0.87074 0.0
H331 H 0.74842 0.59014 0.8142 0.0
H332 H 0.71564 0.56332 0.87284 0.0
C333 C 0.78627 0.63087 0.03853 0.0
C334 C 0.65316 0.45908 0.15595 0.0
H335 H 0.63381 0.45702 0.28967 0.0
H336 H 0.7497 0.68477 0.33263 0.0
H337 H 0.71624 0.68177 0.38582 0.0
H338 H 0.70063 0.68581 0.32318 0.0
C339 C 0.71325 0.66566 0.34582 0.0
C340 C 0.76831 0.5883 0.20399 0.0
C341 C 0.76787 0.50816 0.06262 0.0
H342 H 0.57143 0.45717 0.34634 0.0
H343 H 0.8864 0.60398 0.8925 0.0
Co344 Co 0.54661 0.1653 0.22586 0.0
N345 N 0.57656 0.1569 0.28052 0.0
C346 C 0.61359 0.15258 0.27828 0.0
N347 N 0.58007 0.1227 0.35461 0.0
C348 C 0.55715 0.13905 0.32768 0.0
C349 C 0.61574 0.13164 0.32375 0.0
Co350 Co 0.53205 0.20058 0.98011 0.0
N351 N 0.51935 0.23024 0.92632 0.0
N352 N 0.48378 0.24237 0.85891 0.0
C353 C 0.49487 0.27512 0.89525 0.0
C354 C 0.51638 0.26773 0.93609 0.0
C355 C 0.49956 0.21572 0.87804 0.0
Co356 Co 0.51964 0.16602 0.10189 0.0
C357 C 0.51906 0.13388 0.99077 0.0
H358 H 0.52597 0.28699 0.9724 0.0
O359 O 0.51107 0.1728 0.17802 0.0
O360 O 0.45257 0.14045 0.07119 0.0
O361 O 0.49789 0.0981 0.12975 0.0
O362 O 0.58613 0.18853 0.11219 0.0
O363 O 0.6051 0.2123 0.19388 0.0
O364 O 0.47941 0.19423 1.01274 0.0
O365 O 0.53885 0.16432 0.0276 0.0
O366 O 0.56925 0.25918 1.01792 0.0
O367 O 0.55173 0.12227 0.18784 0.0
O368 O 0.54101 0.20742 0.25592 0.0
O369 O 0.53682 0.23394 0.09551 0.0
O370 O 0.50118 0.14456 0.95199 0.0
C371 C 0.51401 0.09078 0.17375 0.0
C372 C 0.49119 0.1724 0.85207 0.0
H373 H 0.46154 0.14347 0.87079 0.0
H374 H 0.48293 0.17085 0.80964 0.0
H375 H 0.52102 0.16799 0.85679 0.0
C376 C 0.44651 0.15705 0.02711 0.0
C377 C 0.61623 0.21356 0.1453 0.0
H378 H 0.63557 0.16091 0.2443 0.0
H379 H 0.49273 0.1333 0.3105 0.0
H380 H 0.51982 0.16381 0.36969 0.0
H381 H 0.49385 0.10314 0.36932 0.0
C382 C 0.51305 0.13414 0.34505 0.0
C383 C 0.52196 0.20632 0.21072 0.0
C384 C 0.56216 0.2675 0.06524 0.0
H385 H 0.64101 0.12265 0.33316 0.0
H386 H 0.48719 0.30229 0.8929 0.0
Co387 Co 0.56102 0.39081 0.72711 0.0
N388 N 0.59027 0.42943 0.78407 0.0
C389 C 0.62967 0.46815 0.77607 0.0
N390 N 0.6022 0.47867 0.85003 0.0
C391 C 0.57407 0.43684 0.83019 0.0
C392 C 0.63635 0.49819 0.8153 0.0
Co393 Co 0.55412 0.36637 0.48563 0.0
N394 N 0.54999 0.32774 0.43174 0.0
N395 N 0.52827 0.2933 0.35349 0.0
C396 C 0.52227 0.26189 0.38972 0.0
C397 C 0.53604 0.28318 0.43777 0.0
C398 C 0.54701 0.33309 0.37951 0.0
Co399 Co 0.5338 0.37966 0.60598 0.0
C400 C 0.53298 0.4145 0.49713 0.0
H401 H 0.53217 0.26648 0.47535 0.0
O402 O 0.5257 0.35299 0.67653 0.0
O403 O 0.46881 0.33694 0.57437 0.0
O404 O 0.50943 0.42195 0.6372 0.0
O405 O 0.59939 0.42708 0.61866 0.0
O406 O 0.62057 0.40818 0.69134 0.0
O407 O 0.50001 0.31677 0.51331 0.0
O408 O 0.55355 0.40537 0.53415 0.0
O409 O 0.5919 0.34764 0.5237 0.0
O410 O 0.56064 0.44173 0.6974 0.0
O411 O 0.50375 0.36836 0.75166 0.0
O412 O 0.55359 0.33257 0.59708 0.0
O413 O 0.52135 0.38902 0.45498 0.0
C414 C 0.52538 0.4415 0.68283 0.0
C415 C 0.5568 0.37681 0.35593 0.0
H416 H 0.58125 0.40418 0.38215 0.0
H417 H 0.5249 0.37783 0.35316 0.0
H418 H 0.57103 0.3814 0.31569 0.0
C419 C 0.46565 0.31866 0.52809 0.0
C420 C 0.63041 0.42615 0.64524 0.0
H421 H 0.64987 0.4769 0.74065 0.0
H422 H 0.5189 0.37109 0.85056 0.0
H423 H 0.52048 0.41675 0.88954 0.0
H424 H 0.50275 0.41013 0.82448 0.0
C425 C 0.52686 0.40687 0.85035 0.0
C426 C 0.49374 0.34214 0.71057 0.0
C427 C 0.5834 0.33013 0.56955 0.0
H428 H 0.66258 0.53315 0.81559 0.0
H429 H 0.50731 0.22594 0.38218 0.0
Co430 Co 0.69211 0.17122 0.7243 0.0
N431 N 0.65819 0.15809 0.78616 0.0
C432 C 0.6358 0.1787 0.8026 0.0
N433 N 0.62038 0.12327 0.85958 0.0
C434 C 0.65018 0.12313 0.8218 0.0
C435 C 0.61319 0.15786 0.84721 0.0
Co436 Co 0.71616 0.20411 0.47277 0.0
N437 N 0.7448 0.22805 0.40931 0.0
N438 N 0.78579 0.23845 0.33643 0.0
C439 C 0.79353 0.2792 0.35334 0.0
C440 C 0.76778 0.27268 0.39762 0.0
C441 C 0.75588 0.20788 0.37003 0.0
Co442 Co 0.70927 0.17337 0.59882 0.0
C443 C 0.66192 0.14157 0.49435 0.0
H444 H 0.76781 0.2992 0.42131 0.0
O445 O 0.73066 0.18012 0.67187 0.0
O446 O 0.75493 0.15459 0.56171 0.0
O447 O 0.66631 0.10517 0.6247 0.0
O448 O 0.6629 0.19086 0.61852 0.0
O449 O 0.67795 0.2198 0.69855 0.0
O450 O 0.75455 0.18159 0.481 0.0
O451 O 0.68473 0.17296 0.5287 0.0
O452 O 0.75796 0.26146 0.50912 0.0
O453 O 0.64112 0.12983 0.68859 0.0
O454 O 0.74341 0.21397 0.75127 0.0
O455 O 0.75333 0.24061 0.59257 0.0
O456 O 0.67464 0.15106 0.44539 0.0
C457 C 0.64413 0.09752 0.66964 0.0
C458 C 0.7391 0.15804 0.36343 0.0
H459 H 0.72457 0.13761 0.39908 0.0
H460 H 0.76698 0.15308 0.34935 0.0
H461 H 0.71361 0.14464 0.33163 0.0
C462 C 0.76748 0.16101 0.51124 0.0
C463 C 0.66383 0.21963 0.65134 0.0
H464 H 0.63533 0.20665 0.78297 0.0
H465 H 0.73763 0.08363 0.80068 0.0
H466 H 0.70952 0.05471 0.85742 0.0
H467 H 0.68795 0.03404 0.7964 0.0
C468 C 0.70279 0.06707 0.81889 0.0
C469 C 0.75755 0.21254 0.70357 0.0
C470 C 0.76872 0.27149 0.55757 0.0
H471 H 0.59139 0.16677 0.86901 0.0
H472 H 0.81698 0.31149 0.33586 0.0
Co473 Co 0.90182 0.5344 0.71273 0.0
N474 N 0.91696 0.50957 0.76757 0.0
C475 C 0.92672 0.47595 0.76162 0.0
N476 N 0.95472 0.50752 0.83878 0.0
C477 C 0.93405 0.52788 0.81533 0.0
C478 C 0.95033 0.47515 0.80473 0.0
Co479 Co 0.88726 0.55388 0.46647 0.0
N480 N 0.86392 0.56818 0.4072 0.0
N481 N 0.86097 0.60221 0.33222 0.0
C482 C 0.82477 0.59293 0.3619 0.0
C483 C 0.82669 0.57241 0.40779 0.0
C484 C 0.88384 0.58629 0.35981 0.0
Co485 Co 0.91166 0.56156 0.59108 0.0
C486 C 0.95257 0.56803 0.48661 0.0
H487 H 0.80333 0.56302 0.44051 0.0
O488 O 0.89286 0.56616 0.66262 0.0
O489 O 0.93372 0.62892 0.56336 0.0
O490 O 0.97925 0.58839 0.62129 0.0
O491 O 0.89284 0.4942 0.60284 0.0
O492 O 0.86243 0.47416 0.68258 0.0
O493 O 0.88474 0.60109 0.50034 0.0
O494 O 0.91896 0.54631 0.51866 0.0
O495 O 0.82538 0.5128 0.49607 0.0
O496 O 0.95088 0.53534 0.67818 0.0
O497 O 0.93553 0.59288 0.73389 0.0
O498 O 0.84483 0.53884 0.57809 0.0
O499 O 0.94624 0.58975 0.44833 0.0
C500 C 0.98482 0.57164 0.66515 0.0
C501 C 0.92818 0.59236 0.34148 0.0
H502 H 0.95556 0.62621 0.35412 0.0
H503 H 0.92974 0.59089 0.29782 0.0
H504 H 0.9341 0.56613 0.35855 0.0
C505 C 0.9187 0.63508 0.51847 0.0
C506 C 0.86756 0.46311 0.63582 0.0
H507 H 0.9198 0.45522 0.72661 0.0
H508 H 0.90086 0.56691 0.82408 0.0
H509 H 0.93028 0.565 0.88299 0.0
H510 H 0.96185 0.59897 0.8284 0.0
C511 C 0.9312 0.5667 0.83923 0.0
C512 C 0.91319 0.59884 0.69608 0.0
C513 C 0.81432 0.51499 0.54428 0.0
H514 H 0.96201 0.45134 0.81174 0.0
H515 H 0.79838 0.59979 0.35039 0.0
Co516 Co 0.53845 0.67531 0.3311 0.0
N517 N 0.50611 0.63801 0.27552 0.0
C518 C 0.47482 0.59443 0.28422 0.0
N519 N 0.49714 0.59796 0.20161 0.0
C520 C 0.51706 0.63996 0.22363 0.0
C521 C 0.47027 0.56987 0.23987 0.0
Co522 Co 0.56936 0.7216 0.57537 0.0
N523 N 0.58743 0.76866 0.62643 0.0
N524 N 0.62749 0.82325 0.68729 0.0
C525 C 0.61437 0.84103 0.64846 0.0
C526 C 0.59009 0.80821 0.61218 0.0
C527 C 0.61074 0.77897 0.67307 0.0
Co528 Co 0.57263 0.6943 0.45245 0.0
C529 C 0.58523 0.66956 0.56031 0.0
H530 H 0.57828 0.81452 0.57537 0.0
O531 O 0.5752 0.71395 0.37924 0.0
O532 O 0.64133 0.7371 0.47604 0.0
O533 O 0.59278 0.64786 0.42239 0.0
O534 O 0.50564 0.64869 0.4462 0.0
O535 O 0.48173 0.65722 0.36822 0.0
O536 O 0.61668 0.76537 0.5345 0.0
O537 O 0.55986 0.67646 0.52806 0.0
O538 O 0.52809 0.73959 0.5424 0.0
O539 O 0.5408 0.62525 0.36182 0.0
O540 O 0.59417 0.69566 0.3031 0.0
O541 O 0.55423 0.74326 0.46177 0.0
O542 O 0.60294 0.69772 0.5998 0.0
C543 C 0.57639 0.62637 0.37744 0.0
C544 C 0.62059 0.74648 0.70236 0.0
H545 H 0.63916 0.73505 0.67702 0.0
H546 H 0.64257 0.76205 0.73713 0.0
H547 H 0.58833 0.7165 0.71435 0.0
C548 C 0.64907 0.76085 0.51923 0.0
C549 C 0.47353 0.64304 0.41581 0.0
H550 H 0.46122 0.58013 0.32244 0.0
H551 H 0.53453 0.6918 0.16545 0.0
H552 H 0.57766 0.67724 0.17756 0.0
H553 H 0.56674 0.71169 0.22376 0.0
C554 C 0.55132 0.68254 0.19646 0.0
C555 C 0.60363 0.72537 0.34053 0.0
C556 C 0.53044 0.75174 0.49414 0.0
H557 H 0.45234 0.53339 0.23842 0.0
H558 H 0.62215 0.87588 0.64579 0.0
Co559 Co 0.35972 0.8708 0.56646 0.0
N560 N 0.31989 0.84803 0.62407 0.0
C561 C 0.2787 0.81048 0.62225 0.0
N562 N 0.28085 0.84445 0.69754 0.0
C563 C 0.32026 0.86784 0.67113 0.0
C564 C 0.25496 0.80811 0.66715 0.0
Co565 Co 0.40372 0.88291 0.3216 0.0
N566 N 0.44566 0.89626 0.2675 0.0
N567 N 0.49348 0.9325 0.20057 0.0
C568 C 0.51455 0.92026 0.23615 0.0
C569 C 0.48542 0.89795 0.27648 0.0
C570 C 0.45167 0.91801 0.22039 0.0
Co571 Co 0.38054 0.8944 0.4423 0.0
C572 C 0.3511 0.89721 0.33446 0.0
H573 H 0.4948 0.88793 0.31255 0.0
O574 O 0.40029 0.90151 0.51554 0.0
O575 O 0.42409 0.96182 0.41173 0.0
O576 O 0.33615 0.91861 0.4661 0.0
O577 O 0.33389 0.828 0.45549 0.0
O578 O 0.33875 0.80866 0.53817 0.0
O579 O 0.45039 0.93314 0.35625 0.0
O580 O 0.36119 0.87606 0.36942 0.0
O581 O 0.4238 0.84396 0.35776 0.0
O582 O 0.3124 0.86907 0.5289 0.0
O583 O 0.38383 0.93057 0.58384 0.0
O584 O 0.42692 0.87295 0.43689 0.0
O585 O 0.37946 0.91581 0.29585 0.0
C586 C 0.31366 0.90358 0.51024 0.0
C587 C 0.41955 0.93207 0.19818 0.0
H588 H 0.41933 0.95828 0.22351 0.0
H589 H 0.42982 0.94897 0.15937 0.0
H590 H 0.38496 0.90241 0.19625 0.0
C591 C 0.44724 0.9671 0.36851 0.0
C592 C 0.32547 0.79738 0.4901 0.0
H593 H 0.26588 0.78698 0.58945 0.0
H594 H 0.39035 0.91922 0.67342 0.0
H595 H 0.36031 0.91441 0.73364 0.0
H596 H 0.35145 0.9399 0.67699 0.0
C597 C 0.35789 0.91261 0.68998 0.0
C598 C 0.41206 0.93593 0.54622 0.0
C599 C 0.43515 0.84773 0.40661 0.0
H600 H 0.22151 0.78106 0.6774 0.0
H601 H 0.54947 0.92883 0.23451 0.0
Co602 Co 0.19625 0.54123 0.31438 0.0
N603 N 0.19331 0.57204 0.25565 0.0
C604 C 0.2254 0.61453 0.24219 0.0
N605 N 0.17626 0.59019 0.17742 0.0
C606 C 0.16408 0.55719 0.214 0.0
C607 C 0.21459 0.62593 0.19468 0.0
Co608 Co 0.20888 0.51201 0.56397 0.0
N609 N 0.22895 0.49494 0.62118 0.0
N610 N 0.2331 0.47219 0.70273 0.0
C611 C 0.26252 0.46756 0.6714 0.0
C612 C 0.25999 0.4816 0.62148 0.0
C613 C 0.21313 0.48877 0.67109 0.0
Co614 Co 0.18957 0.51064 0.4399 0.0
C615 C 0.14704 0.50362 0.5429 0.0
H616 H 0.27994 0.48261 0.58771 0.0
O617 O 0.20167 0.50634 0.3647 0.0
O618 O 0.16155 0.44151 0.46288 0.0
O619 O 0.12457 0.4916 0.41115 0.0
O620 O 0.21324 0.57782 0.43407 0.0
O621 O 0.23384 0.60006 0.35199 0.0
O622 O 0.20893 0.4639 0.52761 0.0
O623 O 0.18224 0.52382 0.51284 0.0
O624 O 0.27064 0.55063 0.53878 0.0
O625 O 0.14605 0.53993 0.34416 0.0
O626 O 0.24427 0.54148 0.29333 0.0
O627 O 0.25526 0.52725 0.45513 0.0
O628 O 0.14905 0.4788 0.58089 0.0
C629 C 0.11599 0.50389 0.36544 0.0
C630 C 0.17806 0.49977 0.68932 0.0
H631 H 0.14437 0.47003 0.68146 0.0
H632 H 0.18005 0.50659 0.73239 0.0
H633 H 0.18164 0.52934 0.66709 0.0
C634 C 0.17449 0.43193 0.50715 0.0
C635 C 0.2336 0.60948 0.40081 0.0
H636 H 0.25511 0.63617 0.26523 0.0
H637 H 0.10249 0.42789 0.2235 0.0
H638 H 0.0987 0.523 0.23423 0.0
H639 H 0.10516 0.51675 0.17206 0.0
C640 C 0.119 0.51169 0.20989 0.0
C641 C 0.23878 0.51998 0.33786 0.0
C642 C 0.28402 0.54854 0.49208 0.0
H643 H 0.23251 0.65852 0.1751 0.0
H644 H 0.28726 0.45877 0.68494 0.0
Co645 Co 0.21582 0.72246 0.05676 0.0
N646 N 0.24395 0.76395 0.11087 0.0
C647 C 0.28146 0.80439 0.10241 0.0
N648 N 0.25442 0.81045 0.179 0.0
C649 C 0.22859 0.76825 0.15883 0.0
C650 C 0.2879 0.83266 0.14386 0.0
Co651 Co 0.21495 0.69422 0.80876 0.0
N652 N 0.21332 0.66752 0.74435 0.0
N653 N 0.19071 0.63109 0.66679 0.0
C654 C 0.2272 0.62922 0.68309 0.0
C655 C 0.24136 0.65218 0.73035 0.0
C656 C 0.18343 0.65512 0.70369 0.0
Co657 Co 0.19148 0.70342 0.93377 0.0
C658 C 0.20837 0.75028 0.83064 0.0
H659 H 0.26921 0.65602 0.75418 0.0
O660 O 0.18144 0.68106 1.00727 0.0
O661 O 0.12704 0.65741 0.89656 0.0
O662 O 0.16507 0.74576 0.95863 0.0
O663 O 0.25653 0.75218 0.94871 0.0
O664 O 0.27504 0.73828 0.02664 0.0
O665 O 0.15321 0.65618 0.81483 0.0
O666 O 0.21355 0.7247 0.86368 0.0
O667 O 0.22915 0.64992 0.84654 0.0
O668 O 0.21628 0.77108 1.01922 0.0
O669 O 0.15883 0.70195 0.07864 0.0
O670 O 0.21454 0.65958 0.92879 0.0
O671 O 0.20534 0.73854 0.78119 0.0
C672 C 0.18054 0.76869 1.00269 0.0
C673 C 0.14766 0.66797 0.69686 0.0
H674 H 0.14474 0.68698 0.73018 0.0
H675 H 0.11484 0.63696 0.68989 0.0
H676 H 0.15525 0.68899 0.6607 0.0
C677 C 0.12019 0.64521 0.84564 0.0
C678 C 0.2865 0.75381 0.97993 0.0
H679 H 0.30139 0.81418 0.06665 0.0
H680 H 0.18195 0.69825 0.17607 0.0
H681 H 0.18393 0.7369 0.22655 0.0
H682 H 0.15658 0.73308 0.16587 0.0
C683 C 0.18568 0.73207 0.18359 0.0
C684 C 0.1492 0.67285 0.04033 0.0
C685 C 0.22925 0.64171 0.89614 0.0
H686 H 0.31523 0.86724 0.14784 0.0
H687 H 0.24103 0.61041 0.6637 0.0
Co688 Co 0.36942 0.52003 0.06 0.0
N689 N 0.33252 0.508 0.11866 0.0
C690 C 0.29484 0.51134 0.12167 0.0
N691 N 0.30248 0.48702 0.1996 0.0
C692 C 0.33617 0.4931 0.16722 0.0
C693 C 0.27686 0.49918 0.17149 0.0
Co694 Co 0.42237 0.53762 0.81654 0.0
N695 N 0.46426 0.56974 0.76636 0.0
N696 N 0.51038 0.57712 0.69946 0.0
C697 C 0.53194 0.61274 0.73275 0.0
C698 C 0.5038 0.6081 0.77367 0.0
C699 C 0.46869 0.5518 0.72068 0.0
Co700 Co 0.38872 0.50902 0.93805 0.0
C701 C 0.35642 0.51282 0.82578 0.0
H702 H 0.51308 0.62904 0.80875 0.0
O703 O 0.40818 0.52759 1.00985 0.0
O704 O 0.43526 0.48717 0.91419 0.0
O705 O 0.3466 0.44128 0.97015 0.0
O706 O 0.33922 0.52746 0.94601 0.0
O707 O 0.34577 0.55637 0.02689 0.0
O708 O 0.46811 0.54298 0.85937 0.0
O709 O 0.37608 0.50068 0.86106 0.0
O710 O 0.43085 0.59562 0.84668 0.0
O711 O 0.32159 0.47029 0.02766 0.0
O712 O 0.39545 0.4871 0.08176 0.0
O713 O 0.43311 0.57641 0.92878 0.0
O714 O 0.37697 0.53164 0.78151 0.0
C715 C 0.32412 0.43626 1.01435 0.0
C716 C 0.43248 0.50682 0.70071 0.0
H717 H 0.44685 0.48912 0.67795 0.0
H718 H 0.40922 0.51217 0.67507 0.0
H719 H 0.41181 0.48544 0.73399 0.0
C720 C 0.46181 0.50503 0.87314 0.0
C721 C 0.33004 0.55051 0.97957 0.0
H722 H 0.28146 0.52259 0.09013 0.0
H723 H 0.40594 0.51356 0.1697 0.0
H724 H 0.37526 0.48355 0.22824 0.0
H725 H 0.36818 0.45279 0.16873 0.0
C726 C 0.37371 0.48556 0.18464 0.0
C727 C 0.4223 0.5085 0.04277 0.0
C728 C 0.43953 0.60688 0.89518 0.0
H729 H 0.24887 0.50192 0.18715 0.0
H730 H 0.56653 0.63975 0.72874 0.0
Co731 Co 0.54089 0.87854 0.81531 0.0
N732 N 0.50622 0.87868 0.75911 0.0
C733 C 0.466 0.87609 0.76713 0.0
N734 N 0.48792 0.90499 0.68766 0.0
C735 C 0.51765 0.89411 0.70886 0.0
C736 C 0.45491 0.89196 0.72385 0.0
Co737 Co 0.56637 0.86824 0.05564 0.0
N738 N 0.58273 0.84078 0.10648 0.0
N739 N 0.6179 0.83176 0.17604 0.0
C740 C 0.6117 0.80048 0.13938 0.0
C741 C 0.59022 0.80601 0.0969 0.0
C742 C 0.59984 0.85566 0.15521 0.0
Co743 Co 0.57186 0.89815 0.93562 0.0
C744 C 0.57971 0.93485 0.04272 0.0
H745 H 0.58193 0.7867 0.06059 0.0
O746 O 0.57879 0.88221 0.86417 0.0
O747 O 0.64021 0.92577 0.96166 0.0
O748 O 0.5887 0.96356 0.90582 0.0
O749 O 0.50477 0.87509 0.92616 0.0
O750 O 0.48536 0.83567 0.85249 0.0
O751 O 0.61514 0.87121 1.01721 0.0
O752 O 0.55646 0.90283 1.0091 0.0
O753 O 0.52552 0.80864 0.02345 0.0
O754 O 0.53777 0.9297 0.8441 0.0
O755 O 0.59632 0.91706 0.78713 0.0
O756 O 0.55537 0.83187 0.94482 0.0
O757 O 0.60059 0.92583 0.07969 0.0
C758 C 0.57068 0.96648 0.86119 0.0
C759 C 0.59903 0.89425 0.18274 0.0
H760 H 0.63008 0.92635 0.17246 0.0
H761 H 0.59858 0.89082 0.22634 0.0
H762 H 0.56912 0.89614 0.16947 0.0
C763 C 0.64802 0.90819 1.00323 0.0
C764 C 0.47466 0.84384 0.89768 0.0
H765 H 0.44816 0.8687 0.80424 0.0
H766 H 0.55462 0.89333 0.64017 0.0
H767 H 0.58649 0.93833 0.68609 0.0
H768 H 0.57201 0.88067 0.70166 0.0
C769 C 0.5602 0.90215 0.68263 0.0
C770 C 0.6095 0.90566 0.82999 0.0
C771 C 0.52916 0.79946 0.97535 0.0
H772 H 0.4269 0.8978 0.72204 0.0
H773 H 0.61947 0.7735 0.14456 0.0
C774 C 0.16076 0.16998 0.75701 0.0
C775 C 0.11316 0.1447 0.75027 0.0
C776 C 0.18621 0.15038 0.77797 0.0
C777 C 0.16557 0.10491 0.79603 0.0
H778 H 0.17873 0.2054 0.74576 0.0
H779 H 0.22234 0.17156 0.78173 0.0
S780 S 1.04223 1.02626 0.7965 0.0
N781 N 0.04758 0.07161 0.7664 0.0
N782 N 0.09374 0.0379 0.8119 0.0
C783 C 0.11818 0.08054 0.79261 0.0
C784 C 0.09267 0.09945 0.76831 0.0
C785 C 0.96325 0.06807 0.74932 0.0
C786 C 0.97059 0.07795 0.80415 0.0
C787 C 0.94053 1.0233 0.72864 0.0
C788 C 0.92298 0.98502 0.76169 0.0
H789 H 0.97743 0.09551 0.72135 0.0
H790 H 0.9367 1.01883 0.68619 0.0
S791 S 0.93664 0.99004 0.90812 0.0
N792 N 0.96101 0.0439 0.89075 0.0
N793 N 0.91756 0.96045 0.85301 0.0
C794 C 0.93075 0.99405 0.81675 0.0
C795 C 0.9545 0.03993 0.83766 0.0
C796 C 1.03702 0.92148 0.82738 0.0
C797 C 0.9984 0.9102 0.7964 0.0
C798 C 0.08163 0.94415 0.80558 0.0
C799 C 0.09104 0.95826 0.75176 0.0
H800 H 1.0329 0.91282 0.86897 0.0
H801 H 0.10933 0.95257 0.83216 0.0
S802 S 1.00272 0.94116 0.65409 0.0
N803 N 0.974 0.91615 0.70805 0.0
N804 N 0.05619 0.9618 0.66992 0.0
C805 C 0.0528 0.94837 0.72102 0.0
C806 C 1.0074 0.9238 0.7425 0.0
C807 C 0.93409 0.91512 0.31205 0.0
C808 C 0.9755 0.92123 0.29205 0.0
C809 C 0.90933 0.93359 0.28641 0.0
C810 C 0.92428 0.95997 0.23936 0.0
H811 H 0.91973 0.89468 0.34706 0.0
H812 H 0.87751 0.92661 0.30358 0.0
S813 S 1.02784 0.98343 0.16665 0.0
N814 N 1.02722 0.95337 0.21812 0.0
N815 N 0.98272 0.98881 0.17286 0.0
C816 C 0.96476 0.9654 0.21829 0.0
C817 C 0.98967 0.9463 0.24387 0.0
C818 C 0.1362 0.05577 0.3129 0.0
C819 C 0.18147 0.08687 0.29957 0.0
C820 C 0.11276 1.01125 0.29098 0.0
C821 C 0.13269 0.99559 0.2533 0.0
H822 H 0.11841 0.06609 0.34001 0.0
H823 H 0.07853 0.98886 0.30394 0.0
S824 S 0.2534 0.05994 0.21367 0.0
N825 N 0.2472 0.09568 0.25232 0.0
N826 N 0.20326 1.01375 0.21054 0.0
C827 C 0.1786 1.02568 0.24185 0.0
C828 C 0.20271 0.07065 0.26482 0.0
C829 C 0.06976 0.12199 0.2477 0.0
C830 C 0.09848 0.16907 0.2558 0.0
C831 C 1.02478 0.09842 0.2675 0.0
C832 C 1.00606 0.12037 0.29718 0.0
H833 H 0.08236 0.10292 0.22636 0.0
H834 H 1.00432 0.06251 0.25928 0.0
S835 S 0.06482 0.24391 0.32571 0.0
N836 N 0.10268 0.23717 0.29229 0.0
N837 N 1.01977 0.19295 0.33087 0.0
C838 C 1.03413 0.16747 0.30498 0.0
C839 C 0.07961 0.19169 0.28383 0.0
C840 C 0.84955 0.46084 0.07889 0.0
C841 C 0.83554 0.43486 0.12601 0.0
C842 C 0.82673 0.48244 0.05728 0.0
C843 C 0.79038 0.48225 0.08366 0.0
H844 H 0.87941 0.46548 0.05887 0.0
H845 H 0.83906 0.50119 1.02076 0.0
S846 S 0.74684 0.42947 0.21554 0.0
N847 N 0.78467 0.41444 0.2009 0.0
N848 N 0.74731 0.46097 0.16568 0.0
C849 C 0.77884 0.46025 0.13364 0.0
C850 C 0.79992 0.43537 0.15355 0.0
C851 C 0.65181 0.39164 0.10656 0.0
C852 C 0.62819 0.40895 0.1362 0.0
C853 C 0.63066 0.34722 0.08366 0.0
C854 C 0.58357 0.31705 0.08622 0.0
H855 H 0.68748 0.4129 0.09994 0.0
H856 H 0.65176 0.33637 0.06378 0.0
S857 S 0.50298 0.34807 0.14653 0.0
N858 N 0.55276 0.39272 0.15957 0.0
N859 N 0.51298 0.31196 0.11351 0.0
C860 C 0.55875 0.33521 0.11151 0.0
C861 C 0.58073 0.37991 0.13702 0.0
C862 C 0.72155 0.26678 0.05164 0.0
C863 C 0.75928 0.28805 0.08581 0.0
C864 C 0.67615 0.24417 0.07089 0.0
C865 C 0.66524 0.24096 0.12564 0.0
H866 H 0.72698 0.26696 1.00943 0.0
H867 H 0.6492 0.2287 0.04213 0.0
S868 S 0.74944 0.29676 0.23204 0.0
N869 N 0.7801 0.30748 0.17791 0.0
N870 N 0.69662 0.2664 0.21267 0.0
C871 C 0.70215 0.26417 0.15976 0.0
C872 C 0.74824 0.28697 0.14033 0.0
C873 C 0.60565 0.29404 0.64535 0.0
C874 C 0.60534 0.30331 0.59051 0.0
C875 C 0.62526 0.26847 0.66557 0.0
C876 C 0.64512 0.24997 0.632 0.0
H877 H 0.59077 0.30696 0.67328 0.0
H878 H 0.62393 0.26241 0.70772 0.0
S879 S 0.65521 0.26543 0.48542 0.0
N880 N 0.62876 0.29265 0.50377 0.0
N881 N 0.66419 0.24503 0.54032 0.0
C882 C 0.64545 0.25968 0.5772 0.0
C883 C 0.62617 0.28608 0.55695 0.0
C884 C 0.79822 0.38336 0.63017 0.0
C885 C 0.84418 0.41329 0.61853 0.0
C886 C 0.77427 0.33868 0.60901 0.0
C887 C 0.79508 0.32063 0.57613 0.0
H888 H 0.78006 0.39495 0.65488 0.0
H889 H 0.73899 0.31783 0.61902 0.0
S890 S 0.91757 0.37904 0.54654 0.0
N891 N 0.91121 0.41729 0.58003 0.0
N892 N 0.86665 0.33419 0.54096 0.0
C893 C 0.84166 0.34889 0.56721 0.0
C894 C 0.866 0.39463 0.58834 0.0
C895 C 0.74504 0.44687 0.58619 0.0
C896 C 0.76529 0.49099 0.56414 0.0
C897 C 0.70313 0.42694 0.61439 0.0
C898 C 0.67837 0.44979 0.62171 0.0
H899 H 0.76207 0.4276 0.58168 0.0
H900 H 0.68954 0.39282 0.62951 0.0
S901 S 0.71528 0.56601 0.57151 0.0
N902 N 0.75639 0.55684 0.55274 0.0
N903 N 0.67802 0.51959 0.60262 0.0
C904 C 0.69791 0.49367 0.59891 0.0
C905 C 0.74096 0.51416 0.57131 0.0
C906 C 0.51514 0.79667 0.42258 0.0
C907 C 0.50711 0.77808 0.47427 0.0
C908 C 0.49158 0.81769 0.40061 0.0
C909 C 0.45989 0.824 0.42994 0.0
H910 H 0.54093 0.79585 0.39898 0.0
H911 H 0.49941 0.8303 0.36055 0.0
S912 S 0.43077 0.78902 0.57071 0.0
N913 N 0.46651 0.77133 0.55564 0.0
N914 N 0.42568 0.81351 0.51684 0.0
C915 C 0.45368 0.80835 0.48308 0.0
C916 C 0.47633 0.78519 0.50462 0.0
C917 C 0.3127 0.71614 0.48357 0.0
C918 C 0.29896 0.74801 0.47147 0.0
C919 C 0.29186 0.67227 0.45985 0.0
C920 C 0.25717 0.65799 0.4217 0.0
H921 H 0.34035 0.72534 0.51078 0.0
H922 H 0.30303 0.64899 0.47118 0.0
S923 S 0.2018 0.72388 0.38411 0.0
N924 N 0.24256 0.75821 0.42466 0.0
N925 N 0.20603 0.67771 0.3788 0.0
C926 C 0.24184 0.68865 0.41092 0.0
C927 C 0.26212 0.7329 0.43589 0.0
C928 C 0.36388 0.61731 0.48867 0.0
C929 C 0.33406 0.5707 0.47914 0.0
C930 C 0.40827 0.64039 0.4674 0.0
C931 C 0.42576 0.61774 0.43705 0.0
H932 H 0.35271 0.63653 0.51196 0.0
H933 H 0.42908 0.67641 0.47476 0.0
S934 S 0.36685 0.49339 0.41386 0.0
N935 N 0.32903 0.50141 0.44551 0.0
N936 N 0.41219 0.54402 0.40773 0.0
C937 C 0.39805 0.57034 0.43207 0.0
C938 C 0.35256 0.54704 0.45276 0.0
C939 C 0.27249 0.55511 0.91662 0.0
C940 C 0.30007 0.57055 0.96233 0.0
C941 C 0.25089 0.57807 0.89414 0.0
C942 C 0.25115 0.61516 0.91967 0.0
H943 H 0.26625 0.52374 0.8991 0.0
H944 H 0.23232 0.56542 0.85757 0.0
S945 S 0.29781 0.65386 0.0555 0.0
N946 N 0.31526 0.61802 0.03974 0.0
N947 N 0.26844 0.65482 1.00421 0.0
C948 C 0.27154 0.62527 0.9708 0.0
C949 C 0.29685 0.60449 0.99089 0.0
C950 C 0.46344 0.66701 0.9687 0.0
C951 C 0.46121 0.6564 0.91401 0.0
C952 C 0.4848 0.71242 0.98813 0.0
C953 C 0.5057 0.75045 0.95419 0.0
H954 H 0.44811 0.63979 0.99726 0.0
H955 H 0.48516 0.71764 0.03042 0.0
S956 S 0.50675 0.74267 0.80702 0.0
N957 N 0.47989 0.68918 0.82617 0.0
N958 N 0.52022 0.77317 0.86175 0.0
C959 C 0.50288 0.7403 0.89926 0.0
C960 C 0.48067 0.69403 0.87953 0.0
C961 C 0.40424 0.77565 0.93501 0.0
C962 C 0.42601 0.82064 0.91607 0.0
C963 C 0.36021 0.75493 0.95727 0.0
C964 C 0.33548 0.77802 0.96182 0.0
H965 H 0.42156 0.75631 0.93316 0.0
H966 H 0.34532 0.72018 0.96995 0.0
S967 S 0.37745 0.89699 0.91923 0.0
N968 N 0.41911 0.88765 0.90368 0.0
N969 N 0.33769 0.84952 0.94619 0.0
C970 C 0.35711 0.82312 0.9431 0.0
C971 C 0.40178 0.8441 0.92018 0.0
C972 C 0.34154 0.11014 0.61028 0.0
C973 C 0.31838 0.10653 0.6579 0.0
C974 C 0.329 0.12581 0.56548 0.0
C975 C 0.30305 0.14712 0.57211 0.0
H976 H 0.35597 0.08848 0.60388 0.0
H977 H 0.33568 0.11768 0.5263 0.0
S978 S 0.28448 0.18917 0.69885 0.0
N979 N 0.30325 0.15452 0.71581 0.0
N980 N 0.28242 0.18883 0.63354 0.0
C981 C 0.29893 0.16074 0.62308 0.0
C982 C 0.31041 0.14258 0.66711 0.0
C983 C 0.91037 0.10965 0.66337 0.0
C984 C 0.93729 0.15567 0.67617 0.0
C985 C 0.89337 0.09765 0.61218 0.0
C986 C 0.89561 0.1308 0.5771 0.0
H987 H 0.91179 0.08408 0.68683 0.0
H988 H 0.88492 0.0642 0.59853 0.0
S989 S 0.93149 0.24984 0.61164 0.0
N990 N 0.94492 0.22985 0.66385 0.0
N991 N 0.90681 0.20702 0.56969 0.0
C992 C 0.90774 0.17369 0.59809 0.0
C993 C 0.92779 0.18586 0.64912 0.0
C994 C 0.83988 0.74262 0.61232 0.0
C995 C 0.86095 0.76922 0.65714 0.0
C996 C 0.86514 0.74945 0.5662 0.0
C997 C 0.91227 0.77904 0.56562 0.0
H998 H 0.80347 0.72593 0.60859 0.0
H999 H 0.84681 0.73642 0.52982 0.0
S1000 S 0.98307 0.82557 0.68591 0.0
N1001 N 0.93063 0.80255 0.70762 0.0
N1002 N 0.97937 0.81823 0.62122 0.0
C1003 C 0.93393 0.79395 0.61494 0.0
C1004 C 0.90762 0.78614 0.66165 0.0
C1005 C 0.15651 0.2642 0.88653 0.0
C1006 C 0.13606 0.29139 0.88404 0.0
C1007 C 0.1771 0.26226 0.93343 0.0
C1008 C 0.18272 0.29149 0.97569 0.0
H1009 H 0.14759 0.23709 0.85819 0.0
H1010 H 0.1821 0.23355 0.93893 0.0
S1011 S 0.15965 0.38703 0.97221 0.0
N1012 N 0.13933 0.36007 0.91575 0.0
N1013 N 0.18172 0.3596 1.00236 0.0
C1014 C 0.17423 0.32731 0.96604 0.0
C1015 C 0.15148 0.32773 0.91925 0.0
C1016 C 0.77162 0.88596 0.97081 0.0
C1017 C 0.80518 0.93081 0.95896 0.0
C1018 C 0.754 0.85323 0.92999 0.0
C1019 C 0.77879 0.86362 0.88223 0.0
H1020 H 0.76312 0.8753 1.01154 0.0
H1021 H 0.7332 0.81807 0.94151 0.0
S1022 S 0.82738 0.978 0.82376 0.0
N1023 N 0.83279 0.98688 0.88843 0.0
N1024 N 0.8019 0.92236 0.81507 0.0
C1025 C 0.79558 0.90873 0.8662 0.0
C1026 C 0.81187 0.94334 0.90555 0.0
C1027 C 0.17415 0.92526 0.8942 0.0
C1028 C 0.22152 0.9472 0.89168 0.0
C1029 C 0.15199 0.90692 0.94204 0.0
C1030 C 0.17602 0.90458 0.9859 0.0
H1031 H 0.15552 0.93074 0.86355 0.0
H1032 H 0.11777 0.90023 0.94581 0.0
S1033 S 0.29369 0.92668 0.98314 0.0
N1034 N 0.28711 0.94599 0.92585 0.0
N1035 N 0.24463 0.90548 1.01375 0.0
C1036 C 0.22018 0.91293 0.97693 0.0
C1037 C 0.24309 0.93447 0.92937 0.0
C1038 C 0.77489 0.91252 0.4613 0.0
C1039 C 0.81485 0.91478 0.47903 0.0
C1040 C 0.7747 0.93588 0.41605 0.0
C1041 C 0.81484 0.96261 0.38829 0.0
H1042 H 0.74509 0.89715 0.48531 0.0
H1043 H 0.74479 0.938 0.40714 0.0
S1044 S 0.9272 0.97441 0.41715 0.0
N1045 N 0.89329 0.93983 0.46291 0.0
N1046 N 0.89468 0.98515 0.37881 0.0
C1047 C 0.85362 0.9598 0.40197 0.0
C1048 C 0.85319 0.93546 0.44744 0.0
C1049 C 0.12974 0.83231 0.44123 0.0
C1050 C 0.12512 0.84734 0.39119 0.0
C1051 C 0.14147 0.86304 0.48322 0.0
C1052 C 0.15972 0.90972 0.4735 0.0
H1053 H 0.11039 0.79647 0.45052 0.0
H1054 H 0.13077 0.84985 0.52252 0.0
S1055 S 0.19472 0.96424 0.34224 0.0
N1056 N 0.16731 0.90918 0.32965 0.0
N1057 N 0.19358 0.96939 0.40713 0.0
C1058 C 0.17164 0.92502 0.42132 0.0
C1059 C 0.15724 0.89259 0.37961 0.0
C1060 C 0.18318 0.28067 0.40441 0.0
C1061 C 0.17003 0.23813 0.38179 0.0
C1062 C 0.16605 0.2823 0.45426 0.0
C1063 C 0.13132 0.24247 0.47675 0.0
H1064 H 0.21412 0.31016 0.39148 0.0
H1065 H 0.18302 0.3131 0.4775 0.0
S1066 S 0.06994 0.12878 0.41647 0.0
N1067 N 0.11042 0.15986 0.37409 0.0
N1068 N 0.07401 0.16393 0.46395 0.0
C1069 C 0.10881 0.2035 0.44553 0.0
C1070 C 0.1277 0.20171 0.3963 0.0
C1071 C 0.9352 0.84272 0.18729 0.0
C1072 C 0.9582 0.81851 0.18295 0.0
C1073 C 0.91861 0.85179 0.14143 0.0
C1074 C 0.9175 0.82886 0.09507 0.0
H1075 H 0.93689 0.86029 0.22288 0.0
H1076 H 0.9107 0.87893 0.14093 0.0
S1077 S 0.93663 0.7313 0.08505 0.0
N1078 N 0.95177 0.75037 0.14581 0.0
N1079 N 0.91861 0.7635 0.05733 0.0
C1080 C 0.92327 0.79085 0.09861 0.0
C1081 C 0.94074 0.78357 0.14609 0.0
C1082 C 0.32767 0.21205 0.12109 0.0
C1083 C 0.28792 0.19822 0.14999 0.0
C1084 C 0.32874 0.18451 0.08065 0.0
C1085 C 0.28995 0.14317 0.06817 0.0
H1086 H 0.35563 0.2464 0.1249 0.0
H1087 H 0.35729 0.19858 0.05399 0.0
S1088 S 0.17979 0.08918 0.13621 0.0
N1089 N 0.211 0.13716 0.16805 0.0
N1090 N 0.21376 0.08691 0.09169 0.0
C1091 C 0.25292 0.12595 0.10219 0.0
C1092 C 0.25157 0.15346 0.14325 0.0
C1093 C 0.89327 0.17146 0.07311 0.0
C1094 C 0.93893 0.18238 0.07276 0.0
C1095 C 0.86668 0.15271 0.11857 0.0
C1096 C 0.88411 0.13754 0.15906 0.0
H1097 H 0.87646 0.17012 0.03648 0.0
H1098 H 0.83044 0.1376 0.11444 0.0
S1099 S 1.00456 0.18744 0.1908 0.0
N1100 N 1.00342 0.19832 0.12759 0.0
N1101 N 0.95179 0.16319 0.2117 0.0
C1102 C 0.93085 0.16431 0.16676 0.0
C1103 C 0.95885 0.18382 0.12158 0.0
C1104 C 0.99272 0.47298 0.95464 0.0
C1105 C 0.95044 0.44423 0.97727 0.0
C1106 C 0.99658 0.50205 0.91333 0.0
C1107 C 0.95824 0.50253 0.89413 0.0
H1108 H 1.02137 0.46882 0.96413 0.0
H1109 H 1.02793 0.51907 0.89143 0.0
S1110 S 0.84087 0.43553 0.94118 0.0
N1111 N 0.87013 0.41982 0.97843 0.0
N1112 N 0.87873 0.47659 0.90414 0.0
C1113 C 0.91763 0.47937 0.92194 0.0
C1114 C 0.91318 0.449 0.96255 0.0
C1115 C 0.61572 0.54712 0.89804 0.0
C1116 C 0.60004 0.50009 0.8982 0.0
C1117 C 0.63518 0.57326 0.9435 0.0
C1118 C 0.64182 0.55271 0.98815 0.0
H1119 H 0.61895 0.56452 0.86109 0.0
H1120 H 0.65441 0.6098 0.93914 0.0
S1121 S 0.5839 0.43052 1.0178 0.0
N1122 N 0.57852 0.43367 0.95343 0.0
N1123 N 0.60838 0.48327 0.03953 0.0
C1124 C 0.6123 0.50586 0.9938 0.0
C1125 C 0.59513 0.47892 0.94741 0.0
C1126 C 0.54692 0.07022 0.89491 0.0
C1127 C 0.59397 0.09398 0.90254 0.0
C1128 C 0.51846 0.07536 0.93094 0.0
C1129 C 0.53622 0.10241 0.97664 0.0
H1130 H 0.53363 0.05682 0.85604 0.0
H1131 H 0.48454 0.06498 0.91816 0.0
S1132 S 0.65036 0.14029 0.03069 0.0
N1133 N 0.65244 0.12457 0.96943 0.0
N1134 N 0.59837 0.13068 0.03951 0.0
C1135 C 0.57989 0.11258 0.99189 0.0
C1136 C 0.60905 0.10873 0.95425 0.0
C1137 C 0.83464 0.58371 0.192 0.0
C1138 C 0.81642 0.61278 0.18966 0.0
C1139 C 0.85629 0.58279 0.23869 0.0
C1140 C 0.86614 0.61584 0.27782 0.0
H1141 H 0.82138 0.55418 0.16682 0.0
H1142 H 0.85879 0.55293 0.24735 0.0
S1143 S 0.86129 0.72131 0.26006 0.0
N1144 N 0.83453 0.68983 0.20812 0.0
N1145 N 0.87881 0.69166 0.29437 0.0
C1146 C 0.86406 0.65459 0.26328 0.0
C1147 C 0.8408 0.65391 0.21645 0.0
C1148 C 0.55166 0.30467 0.26124 0.0
C1149 C 0.51699 0.28487 0.29877 0.0
C1150 C 0.54679 0.2836 0.21248 0.0
C1151 C 0.50904 0.24061 0.20338 0.0
H1152 H 0.58488 0.33157 0.27241 0.0
H1153 H 0.57761 0.29373 0.1906 0.0
S1154 S 0.40213 0.18753 0.27654 0.0
N1155 N 0.43838 0.22878 0.3153 0.0
N1156 N 0.4296 0.19212 0.22101 0.0
C1157 C 0.46991 0.22955 0.23189 0.0
C1158 C 0.47469 0.24924 0.28276 0.0
C1159 C 0.85494 0.24725 0.29616 0.0
C1160 C 0.8081 0.23031 0.29366 0.0
C1161 C 0.88014 0.25932 0.24906 0.0
C1162 C 0.85942 0.2646 0.20362 0.0
H1163 H 0.87227 0.25647 0.33374 0.0
H1164 H 0.91661 0.27812 0.25241 0.0
S1165 S 0.73952 0.18739 0.17222 0.0
N1166 N 0.7417 0.18999 0.2376 0.0
N1167 N 0.79203 0.21929 0.15105 0.0
C1168 C 0.81379 0.23204 0.19813 0.0
C1169 C 0.7869 0.21625 0.24441 0.0
C1170 C 0.48561 0.26717 0.7175 0.0
C1171 C 0.46415 0.29331 0.72147 0.0
C1172 C 0.48842 0.24443 0.7621 0.0
C1173 C 0.46453 0.24213 0.80834 0.0
H1174 H 0.50888 0.27295 0.68544 0.0
H1175 H 0.51439 0.23509 0.76259 0.0
S1176 S 0.37946 0.27846 0.82208 0.0
N1177 N 0.40321 0.29838 0.76396 0.0
N1178 N 0.4034 0.25022 0.84556 0.0
C1179 C 0.43165 0.25532 0.80505 0.0
C1180 C 0.43135 0.28108 0.76098 0.0
C1181 C 0.84057 0.30462 0.75397 0.0
C1182 C 0.85332 0.27968 0.78709 0.0
C1183 C 0.82028 0.28683 0.70504 0.0
C1184 C 0.80593 0.24121 0.69365 0.0
H1185 H 0.8393 0.33381 0.76884 0.0
H1186 H 0.80409 0.30319 0.68557 0.0
S1187 S 0.85242 0.17377 0.75154 0.0
N1188 N 0.86868 0.21732 0.79211 0.0
N1189 N 0.82596 0.1825 0.70221 0.0
C1190 C 0.83088 0.22321 0.71667 0.0
C1191 C 0.8534 0.24166 0.76548 0.0
C1192 C 0.81867 0.59015 0.76343 0.0
C1193 C 0.84225 0.6175 0.80688 0.0
C1194 C 0.84103 0.59383 0.71575 0.0
C1195 C 0.88833 0.62176 0.71273 0.0
H1196 H 0.78494 0.56164 0.76823 0.0
H1197 H 0.823 0.56788 0.68618 0.0
S1198 S 0.96041 0.7125 0.80569 0.0
N1199 N 0.91141 0.68343 0.83609 0.0
N1200 N 0.95329 0.68876 0.74693 0.0
C1201 C 0.9091 0.65628 0.75005 0.0
C1202 C 0.88642 0.65328 0.79823 0.0
C1203 C 0.57021 0.12951 0.45012 0.0
C1204 C 0.57293 0.10436 0.40729 0.0
C1205 C 0.58739 0.12712 0.49991 0.0
C1206 C 0.61445 0.10671 0.50292 0.0
H1207 H 0.56106 0.15535 0.44376 0.0
H1208 H 0.591 0.1517 0.52962 0.0
S1209 S 0.6032 1.01417 0.41721 0.0
N1210 N 0.58135 0.03978 0.38262 0.0
N1211 N 0.61638 0.03945 0.47559 0.0
C1212 C 0.60134 0.06935 0.46941 0.0
C1213 C 0.58294 0.06988 0.41902 0.0
C1214 C 0.95699 0.49878 0.487 0.0
C1215 C 0.97839 0.54491 0.47238 0.0
C1216 C 0.93712 0.46531 0.44768 0.0
C1217 C 0.94525 0.47764 0.39438 0.0
H1218 H 0.94542 0.48948 0.52712 0.0
H1219 H 0.9115 0.4313 0.45839 0.0
S1220 S 1.03116 0.59018 0.34283 0.0
N1221 N 1.02904 0.59812 0.40703 0.0
N1222 N 0.99454 0.53606 0.33194 0.0
C1223 C 0.98001 0.52179 0.38199 0.0
C1224 C 0.99881 0.55522 0.42242 0.0
C1225 C 0.59191 0.49424 0.49674 0.0
C1226 C 0.54608 0.46247 0.48818 0.0
C1227 C 0.61706 0.5253 0.45702 0.0
C1228 C 0.59618 0.5269 0.40976 0.0
H1229 H 0.61044 0.4888 0.52783 0.0
H1230 H 0.65344 0.54121 0.45905 0.0
S1231 S 0.47324 0.4705 0.38587 0.0
N1232 N 0.47814 0.44781 0.44146 0.0
N1233 N 0.52506 0.50923 0.36886 0.0
C1234 C 0.54877 0.50604 0.41006 0.0
C1235 C 0.52343 0.47275 0.44915 0.0
C1236 C 0.65616 0.79482 0.2914 0.0
C1237 C 0.61465 0.769 0.3172 0.0
C1238 C 0.65963 0.82231 0.24838 0.0
C1239 C 0.62175 0.8244 0.23071 0.0
H1240 H 0.68417 0.78945 0.30018 0.0
H1241 H 0.69019 0.83744 0.22487 0.0
S1242 S 0.50612 0.76408 0.28471 0.0
N1243 N 0.53548 0.74871 0.3223 0.0
N1244 N 0.54321 0.80159 0.24359 0.0
C1245 C 0.58193 0.80333 0.26018 0.0
C1246 C 0.578 0.77505 0.30307 0.0
C1247 C 0.27951 0.82901 0.31989 0.0
C1248 C 0.30335 0.87671 0.31943 0.0
C1249 C 0.25665 0.805 0.2748 0.0
C1250 C 0.25377 0.82798 0.23035 0.0
H1251 H 0.28752 0.81079 0.34885 0.0
H1252 H 0.24853 0.76999 0.27191 0.0
S1253 S 0.28927 0.94995 0.22269 0.0
N1254 N 0.30823 0.9441 0.28054 0.0
N1255 N 0.26208 0.89861 0.19659 0.0
C1256 C 0.26662 0.874 0.23589 0.0
C1257 C 0.29142 0.89856 0.28116 0.0
C1258 C 0.2666 0.45014 0.28264 0.0
C1259 C 0.30282 0.48588 0.25594 0.0
C1260 C 0.25231 0.45838 0.33127 0.0
C1261 C 0.27012 0.50353 0.34787 0.0
H1262 H 0.24598 0.41804 0.26285 0.0
H1263 H 0.22017 0.43237 0.34678 0.0
S1264 S 0.37617 0.60259 0.30389 0.0
N1265 N 0.36654 0.56226 0.2608 0.0
N1266 N 0.33599 0.57852 0.34876 0.0
C1267 C 0.31393 0.53495 0.33111 0.0
C1268 C 0.32989 0.52652 0.28305 0.0
C1269 C 0.485 0.93975 0.54958 0.0
C1270 C 0.46075 0.9626 0.5598 0.0
C1271 C 0.49759 0.92215 0.59223 0.0
C1272 C 0.49376 0.93455 0.64411 0.0
H1273 H 0.4832 0.9252 0.51095 0.0
H1274 H 0.50475 0.89509 0.58469 0.0
S1275 S 0.46867 1.02513 0.68212 0.0
N1276 N 0.45829 1.018 0.61797 0.0
N1277 N 0.4864 0.98966 0.69881 0.0
C1278 C 0.4855 0.97095 0.651 0.0
C1279 C 0.47087 0.98667 0.60743 0.0
C1280 C 0.14713 0.57551 0.5374 0.0
C1281 C 0.1243 0.53017 0.55555 0.0
C1282 C 0.16786 0.61085 0.57428 0.0
C1283 C 0.15895 0.60164 0.62823 0.0
H1284 H 0.15825 0.58289 0.49677 0.0
H1285 H 0.19362 0.64416 0.56125 0.0
S1286 S 0.07189 0.4936 0.68715 0.0
N1287 N 0.07376 0.48148 0.62422 0.0
N1288 N 0.10871 0.54825 0.69396 0.0
C1289 C 0.12324 0.55908 0.6433 0.0
C1290 C 0.10435 0.52316 0.60572 0.0
C1291 C 0.57789 0.59144 0.65062 0.0
C1292 C 0.53046 0.57186 0.65168 0.0
C1293 C 0.60241 0.61711 0.60682 0.0
C1294 C 0.57906 0.62337 0.56502 0.0
H1295 H 0.59611 0.59447 0.68681 0.0
H1296 H 0.63826 0.64003 0.6117 0.0
S1297 S 0.45949 0.54771 0.53164 0.0
N1298 N 0.46346 0.53957 0.59527 0.0
N1299 N 0.51144 0.58301 0.51168 0.0
C1300 C 0.53451 0.58849 0.55733 0.0
C1301 C 0.50868 0.56482 0.60247 0.0
C1302 C 0.137 0.59661 0.04226 0.0
C1303 C 0.11857 0.62465 0.05438 0.0
C1304 C 0.1563 0.58428 0.08331 0.0
C1305 C 0.14909 0.59218 0.13584 0.0
H1306 H 0.14746 0.59514 1.00218 0.0
H1307 H 0.17908 0.57171 0.07418 0.0
S1308 S 0.06837 0.62699 0.18272 0.0
N1309 N 0.07032 0.63386 0.11786 0.0
N1310 N 0.10237 0.60678 0.19618 0.0
C1311 C 0.11608 0.60405 0.14658 0.0
C1312 C 0.09833 0.61791 0.10439 0.0
C1313 C 0.48953 0.58124 0.05647 0.0
C1314 C 0.47069 0.53377 0.05676 0.0
C1315 C 0.50275 0.60508 0.10432 0.0
C1316 C 0.5042 0.58321 0.15077 0.0
H1317 H 0.48359 0.59767 0.02334 0.0
H1318 H 0.50577 0.63815 0.10544 0.0
S1319 S 0.49302 0.46906 0.15757 0.0
N1320 N 0.47649 0.47231 0.09713 0.0
N1321 N 0.5084 0.51855 0.18571 0.0
C1322 C 0.50114 0.54045 0.14534 0.0
C1323 C 0.48468 0.5157 0.09738 0.0
C1324 C 0.58325 0.99358 0.10137 0.0
C1325 C 0.56202 0.96518 0.0578 0.0
C1326 C 0.55899 0.98656 0.14838 0.0
C1327 C 0.51283 0.95363 0.15087 0.0
H1328 H 0.6197 1.01285 0.10337 0.0
H1329 H 0.57753 1.00237 0.18419 0.0
S1330 S 0.43992 0.89233 0.03676 0.0
N1331 N 0.49075 0.92333 1.01125 0.0
N1332 N 0.44562 0.90305 0.10058 0.0
C1333 C 0.4901 0.93469 0.10328 0.0
C1334 C 0.51478 0.94475 0.05523 0.0
C1335 C 0.2764 0.45788 0.82541 0.0
C1336 C 0.31045 0.50327 0.83033 0.0
C1337 C 0.24169 0.44648 0.7888 0.0
C1338 C 0.2411 0.48052 0.75794 0.0
H1339 H 0.28133 0.43105 0.84121 0.0
H1340 H 0.22091 0.41123 0.77753 0.0
S1341 S 0.31318 0.60456 0.77405 0.0
N1342 N 0.33384 0.58228 0.8156 0.0
N1343 N 0.26838 0.56112 0.74753 0.0
C1344 C 0.26801 0.52593 0.77343 0.0
C1345 C 0.30337 0.53737 0.8097 0.0
C1346 C 0.6334 0.85009 0.83049 0.0
C1347 C 0.64712 0.89636 0.82494 0.0
C1348 C 0.62977 0.82478 0.78515 0.0
C1349 C 0.64733 0.84668 0.73646 0.0
H1350 H 0.61444 0.83169 0.86508 0.0
H1351 H 0.60799 0.78849 0.78736 0.0
S1352 S 0.71873 0.97181 0.71949 0.0
N1353 N 0.70036 0.96515 0.78091 0.0
N1354 N 0.69765 0.92003 0.69551 0.0
C1355 C 0.67525 0.89451 0.7379 0.0
C1356 C 0.67704 0.91919 0.78407 0.0
C1357 C 0.27524 0.81984 0.83842 0.0
C1358 C 0.22794 0.7987 0.84183 0.0
C1359 C 0.29639 0.84189 0.79132 0.0
C1360 C 0.27135 0.84871 0.75195 0.0
H1361 H 0.29281 0.80716 0.86218 0.0
H1362 H 0.32938 0.84637 0.78247 0.0
S1363 S 0.15748 0.83447 0.77012 0.0
N1364 N 0.1649 0.80981 0.82238 0.0
N1365 N 0.20454 0.85474 0.73532 0.0
C1366 C 0.22908 0.84288 0.76645 0.0
C1367 C 0.20791 0.81919 0.81365 0.0
C1368 C 0.30731 0.97767 0.62643 0.0
C1369 C 0.26391 0.94927 0.64919 0.0
C1370 C 0.32211 0.96622 0.57802 0.0
C1371 C 0.29468 0.92542 0.54906 0.0
H1372 H 0.32966 1.00983 0.64515 0.0
H1373 H 0.35603 0.98904 0.56423 0.0
S1374 S 0.18093 0.83651 0.59439 0.0
N1375 N 0.19455 0.87817 0.63678 0.0
N1376 N 0.22361 0.85484 0.55273 0.0
C1377 C 0.2521 0.89673 0.57267 0.0
C1378 C 0.23661 0.90899 0.62015 0.0
C1379 C 0.0845 0.35158 0.61069 0.0
C1380 C 0.10808 0.33598 0.64342 0.0
C1381 C 0.10363 0.37893 0.5642 0.0
C1382 C 0.14757 0.39175 0.54573 0.0
H1383 H 0.04978 0.34116 0.62028 0.0
H1384 H 0.08404 0.39106 0.54338 0.0
S1385 S 0.2226 0.35582 0.61097 0.0
N1386 N 0.17736 0.33333 0.64913 0.0
N1387 N 0.21287 0.3835 0.5639 0.0
C1388 C 0.17096 0.37534 0.57724 0.0
C1389 C 0.15165 0.34807 0.62476 0.0
C1390 C 0.7006 0.74954 0.59004 0.0
C1391 C 0.68856 0.77768 0.5602 0.0
C1392 C 0.72591 0.76399 0.63932 0.0
C1393 C 0.74109 0.80769 0.66243 0.0
H1394 H 0.68902 0.71535 0.57635 0.0
H1395 H 0.7345 0.74094 0.6587 0.0
S1396 S 0.72351 0.89598 0.597 0.0
N1397 N 0.69611 0.85167 0.55836 0.0
N1398 N 0.74479 0.87962 0.64517 0.0
C1399 C 0.73052 0.83598 0.63125 0.0
C1400 C 0.70443 0.82101 0.58251 0.0
C1401 C 0.91136 0.24284 0.96077 0.0
C1402 C 0.93869 0.28449 0.98753 0.0
C1403 C 0.92531 0.22918 0.91436 0.0
C1404 C 0.96658 0.2573 0.88775 0.0
H1405 H 0.87777 0.22025 0.97561 0.0
H1406 H 0.9032 0.19537 0.89921 0.0
S1407 S 0.04928 0.37363 0.9343 0.0
N1408 N 1.00913 0.35574 0.97957 0.0
N1409 N 1.03366 0.33181 0.89121 0.0
C1410 C 0.99344 0.30047 0.91186 0.0
C1411 C 0.97999 0.31361 0.96113 0.0
C1412 C 0.77121 0.68274 0.97304 0.0
C1413 C 0.80109 0.67034 0.99755 0.0
C1414 C 0.78259 0.7099 0.92543 0.0
C1415 C 0.82532 0.7283 0.89943 0.0
H1416 H 0.73795 0.67029 0.98982 0.0
H1417 H 0.75846 0.71912 0.91087 0.0
S1418 S 0.91827 0.71181 0.95042 0.0
N1419 N 0.87548 0.67907 0.98929 0.0
N1420 N 0.89937 0.73649 0.90968 0.0
C1421 C 0.85578 0.71789 0.92553 0.0
C1422 C 0.84317 0.68773 0.97118 0.0
C1423 C 0.36355 0.14925 0.91471 0.0
C1424 C 0.35159 0.10951 0.88438 0.0
C1425 C 0.39098 0.16187 0.96152 0.0
C1426 C 0.40721 0.13475 0.98517 0.0
H1427 H 0.35111 0.17142 0.9021 0.0
H1428 H 0.40021 0.19433 0.97927 0.0
S1429 S 0.38818 1.02703 0.92315 0.0
N1430 N 0.36102 0.04335 0.88268 0.0
N1431 N 0.40958 0.06537 0.97076 0.0
C1432 C 0.3954 0.09445 0.95571 0.0
C1433 C 0.36858 0.08232 0.90631 0.0
C1434 C 0.7828 0.09057 0.39956 0.0
C1435 C 0.82499 0.12113 0.37555 0.0
C1436 C 0.76721 0.10056 0.44839 0.0
C1437 C 0.79238 0.14172 0.47775 0.0
H1438 H 0.76149 0.0581 0.38087 0.0
H1439 H 0.73343 0.07654 0.46162 0.0
S1440 S 0.90457 0.2344 0.43314 0.0
N1441 N 0.89175 0.19466 0.38802 0.0
N1442 N 0.86156 0.21399 0.4746 0.0
C1443 C 0.83427 0.17227 0.45369 0.0
C1444 C 0.85051 0.16192 0.40492 0.0
C1445 C 0.99414 0.71703 0.40361 0.0
C1446 C 0.9666 0.73324 0.3809 0.0
C1447 C 0.98148 0.68932 0.45099 0.0
C1448 C 0.94033 0.67569 0.47908 0.0
H1449 H 1.02669 0.72724 0.38599 0.0
H1450 H 1.0039 0.67769 0.46494 0.0
S1451 S 0.8531 0.70298 0.43307 0.0
N1452 N 0.89529 0.73136 0.39183 0.0
N1453 N 0.87024 0.67699 0.47413 0.0
C1454 C 0.91224 0.69028 0.45514 0.0
C1455 C 0.9256 0.71934 0.40866 0.0
C1456 C 0.43689 0.30241 0.42991 0.0
C1457 C 0.42957 0.30916 0.48457 0.0
C1458 C 0.40584 0.28879 0.38536 0.0
C1459 C 0.35961 0.27649 0.38693 0.0
H1460 H 0.46891 0.30635 0.42018 0.0
H1461 H 0.41857 0.28539 0.34766 0.0
S1462 S 0.28975 0.26669 0.54328 0.0
N1463 N 0.36125 0.29619 0.55075 0.0
N1464 N 0.29366 0.26257 0.45881 0.0
C1465 C 0.34643 0.28298 0.43716 0.0
C1466 C 0.38694 0.30294 0.49276 0.0
C1467 C 0.16024 0.81941 0.13319 0.0
C1468 C 0.11451 0.79118 0.14759 0.0
C1469 C 0.17946 0.81306 0.08556 0.0
C1470 C 0.15447 0.77927 0.04644 0.0
H1471 H 0.18107 0.84845 0.15772 0.0
H1472 H 0.21518 0.83546 0.07935 0.0
S1473 S 1.0319 0.69741 0.06055 0.0
N1474 N 0.04417 0.72796 0.11523 0.0
N1475 N 0.07956 0.71741 0.02703 0.0
C1476 C 0.10845 0.75119 0.05958 0.0
C1477 C 0.08912 0.75674 0.109 0.0
C1478 C 0.33303 0.38055 0.0825 0.0
C1479 C 0.3077 0.39942 0.05982 0.0
C1480 C 0.32092 0.35569 0.13234 0.0
C1481 C 0.283 0.34834 0.16407 0.0
H1482 H 0.3632 0.38579 0.06231 0.0
H1483 H 0.34095 0.3409 0.14521 0.0
S1484 S 0.20655 0.39213 0.12688 0.0
N1485 N 0.24387 0.41018 0.07846 0.0
N1486 N 0.22126 0.36353 0.16688 0.0
C1487 C 0.25842 0.36766 0.14204 0.0
C1488 C 0.27059 0.39281 0.09229 0.0
C1489 C 0.6992 0.90379 0.07519 0.0
C1490 C 0.68599 0.9312 0.04617 0.0
C1491 C 0.72701 0.91877 0.12161 0.0
C1492 C 0.74276 0.962 0.14531 0.0
H1493 H 0.6881 0.86969 0.06131 0.0
H1494 H 0.73807 0.89651 0.13796 0.0
S1495 S 0.71963 0.04915 0.08699 0.0
N1496 N 0.6925 1.00557 0.04647 0.0
N1497 N 0.74276 0.03279 0.13304 0.0
C1498 C 0.72878 0.98954 0.11765 0.0
C1499 C 0.70145 0.97472 0.06898 0.0
C1500 C 0.61037 0.60228 0.23202 0.0
C1501 C 0.65408 0.60671 0.23073 0.0
C1502 C 0.5876 0.60708 0.27878 0.0
C1503 C 0.60174 0.61439 0.33355 0.0
H1504 H 0.59179 0.59321 0.19526 0.0
H1505 H 0.55504 0.60204 0.27151 0.0
S1506 S 0.72468 0.60909 0.3825 0.0
N1507 N 0.71796 0.61385 0.30025 0.0
N1508 N 0.66407 0.60857 0.39421 0.0
C1509 C 0.64015 0.61124 0.33948 0.0
C1510 C 0.67217 0.61384 0.2826 0.0
C1511 C 0.51409 0.03632 0.24365 0.0
C1512 C 0.48958 0.05486 0.21892 0.0
C1513 C 0.50136 1.01179 0.29247 0.0
C1514 C 0.4636 1.00442 0.32367 0.0
H1515 H 0.54491 0.04172 0.22519 0.0
H1516 H 0.52161 0.99733 0.30554 0.0
S1517 S 0.39054 0.05242 0.28472 0.0
N1518 N 0.42715 0.06835 0.23542 0.0
N1519 N 0.40323 1.02263 0.3259 0.0
C1520 C 0.4394 1.02462 0.30122 0.0
C1521 C 0.45236 0.04959 0.25023 0.0
C1522 C 1.03773 0.46914 0.32281 0.0
C1523 C 0.08027 0.47186 0.32623 0.0
C1524 C 1.00886 0.45696 0.27661 0.0
C1525 C 1.01446 0.44194 0.22534 0.0
H1526 H 1.02753 0.4807 0.3571 0.0
H1527 H 0.98085 0.46258 0.28108 0.0
S1528 S 0.15248 0.46971 0.17674 0.0
N1529 N 0.14632 0.47686 0.26046 0.0
N1530 N 0.08212 0.44523 0.16506 0.0
C1531 C 0.05504 0.4422 0.221 0.0
C1532 C 0.09337 0.46079 0.2787 0.0
C1533 C 0.53288 0.495 0.75875 0.0
C1534 C 0.50361 0.45743 0.72654 0.0
C1535 C 0.51933 0.50686 0.80694 0.0
C1536 C 0.47554 0.48155 0.82939 0.0
H1537 H 0.56771 0.51594 0.74664 0.0
H1538 H 0.54379 0.53766 0.82658 0.0
S1539 S 0.38232 0.38186 0.76065 0.0
N1540 N 0.42599 0.39574 0.72125 0.0
N1541 N 0.40101 0.41802 0.81067 0.0
C1542 C 0.44514 0.444 0.79752 0.0
C1543 C 0.45892 0.432 0.7473 0.0
C1544 C 0.59408 1.0222 0.71762 0.0
C1545 C 0.63642 0.06251 0.71283 0.0
C1546 C 0.5743 0.99617 0.76557 0.0
C1547 C 0.59177 1.00533 0.81868 0.0
H1548 H 0.57408 1.01053 0.68206 0.0
H1549 H 0.54144 0.96729 0.7606 0.0
S1550 S 0.71868 0.13609 0.85707 0.0
N1551 N 0.70538 0.12407 0.77533 0.0
N1552 N 0.65851 0.07591 0.87485 0.0
C1553 C 0.62962 0.04859 0.82228 0.0
C1554 C 0.65746 0.07757 0.76239 0.0
C1555 C 1.0317 0.566 0.74221 0.0
C1556 C 1.02142 0.59419 0.71022 0.0
C1557 C 0.05847 0.58065 0.78967 0.0
C1558 C 0.07586 0.62458 0.81207 0.0
H1559 H 1.01905 0.53134 0.72977 0.0
H1560 H 0.06739 0.55738 0.80785 0.0
S1561 S 0.0616 0.71469 0.74552 0.0
N1562 N 1.03309 0.67051 0.70623 0.0
N1563 N 0.08138 0.69735 0.79437 0.0
C1564 C 0.06511 0.65322 0.78111 0.0
C1565 C 1.03875 0.63854 0.73148 0.0
loop_
_geom_bond_atom_site_label_1
_geom_bond_atom_site_label_2
_geom_bond_distance
_geom_bond_site_symmetry_2
_ccdc_geom_bond_type
Co0 N1 2.034 . S
Co0 O15 2.262 1_545 S
Co0 O19 1.958 . S
Co0 O23 1.950 . S
Co0 O24 2.057 1_545 S
N1 Co0 2.034 . S
N1 C2 1.366 . S
N1 C4 1.332 . S
C2 N1 1.366 . S
C2 C5 1.377 . S
C2 H34 0.931 . S
N3 C4 1.346 1_554 S
N3 C5 1.337 1_554 S
C4 N1 1.332 . S
C4 N3 1.346 1_556 S
C4 C38 1.361 . S
C5 C2 1.377 . S
C5 N3 1.337 1_556 S
C5 H41 0.930 1_556 S
Co6 N7 2.034 . S
Co6 O20 1.950 . S
Co6 O21 2.262 1_565 S
Co6 O22 1.958 . S
Co6 O26 2.057 1_565 S
N7 Co6 2.034 . S
N7 C10 1.366 . S
N7 C11 1.332 . S
N8 C9 1.337 . S
N8 C11 1.346 . S
C9 N8 1.337 . S
C9 C10 1.377 . S
C9 H42 0.930 . S
C10 N7 1.366 . S
C10 C9 1.377 . S
C10 H14 0.931 . S
C11 N7 1.332 . S
C11 N8 1.346 . S
C11 C28 1.361 . S
Co12 O15 2.097 1_545 S
Co12 O16 2.065 1_545 S
Co12 O17 2.065 . S
Co12 O18 2.042 . S
Co12 O21 2.097 . S
Co12 O25 2.042 1_545 S
C13 O21 1.253 . S
C13 O26 1.263 . S
H14 C10 0.931 . S
O15 Co0 2.262 1_565 S
O15 Co12 2.097 1_565 S
O15 C39 1.253 . S
O16 Co12 2.065 1_565 S
O16 C32 1.221 . S
O17 Co12 2.065 . S
O17 C27 1.221 . S
O18 Co12 2.042 . S
O18 C33 1.237 . S
O19 Co0 1.958 . S
O19 C33 1.278 . S
O20 Co6 1.950 . S
O20 C32 1.277 . S
O21 Co6 2.262 1_545 S
O21 Co12 2.097 . S
O21 C13 1.253 . S
O22 Co6 1.958 . S
O22 C40 1.278 . S
O23 Co0 1.950 . S
O23 C27 1.277 . S
O24 Co0 2.057 1_565 S
O24 C39 1.263 . S
O25 Co12 2.042 1_565 S
O25 C40 1.237 . S
O26 Co6 2.057 1_545 S
O26 C13 1.263 . S
C27 O17 1.221 . S
C27 O23 1.277 . S
C28 C11 1.361 . S
C28 H29 0.960 . S
C28 H30 0.961 . S
C28 H31 0.961 . S
H29 C28 0.960 . S
H30 C28 0.961 . S
H31 C28 0.961 . S
C32 O16 1.221 . S
C32 O20 1.277 . S
C33 O18 1.237 . S
C33 O19 1.278 . S
H34 C2 0.931 . S
H35 C38 0.968 . S
H36 C38 0.961 . S
H37 C38 0.960 . S
C38 C4 1.361 . S
C38 H35 0.968 . S
C38 H36 0.961 . S
C38 H37 0.960 . S
C39 O15 1.253 . S
C39 O24 1.263 . S
C40 O22 1.278 . S
C40 O25 1.237 . S
H41 C5 0.930 1_554 S
H42 C9 0.930 . S
Co43 N44 2.034 . S
Co43 O58 2.262 1_455 S
Co43 O62 1.958 . S
Co43 O66 1.950 . S
Co43 O67 2.057 1_455 S
N44 Co43 2.034 . S
N44 C45 1.366 . S
N44 C47 1.332 . S
C45 N44 1.366 . S
C45 C48 1.377 . S
C45 H77 0.931 . S
N46 C47 1.346 . S
N46 C48 1.337 . S
C47 N44 1.332 . S
C47 N46 1.346 . S
C47 C81 1.361 . S
C48 C45 1.377 . S
C48 N46 1.337 . S
C48 H84 0.930 . S
Co49 N50 2.034 . S
Co49 O63 1.950 . S
Co49 O64 2.262 1_655 S
Co49 O65 1.958 . S
Co49 O69 2.057 1_655 S
N50 Co49 2.034 . S
N50 C53 1.366 . S
N50 C54 1.332 . S
N51 C52 1.337 1_554 S
N51 C54 1.346 1_554 S
C52 N51 1.337 1_556 S
C52 C53 1.377 . S
C52 H85 0.930 1_556 S
C53 N50 1.366 . S
C53 C52 1.377 . S
C53 H57 0.931 . S
C54 N50 1.332 . S
C54 N51 1.346 1_556 S
C54 C71 1.361 . S
Co55 O58 2.097 1_455 S
Co55 O59 2.065 1_455 S
Co55 O60 2.065 . S
Co55 O61 2.042 . S
Co55 O64 2.097 . S
Co55 O68 2.042 1_455 S
C56 O64 1.253 . S
C56 O69 1.263 . S
H57 C53 0.931 . S
O58 Co43 2.262 1_655 S
O58 Co55 2.097 1_655 S
O58 C82 1.253 . S
O59 Co55 2.065 1_655 S
O59 C75 1.221 . S
O60 Co55 2.065 . S
O60 C70 1.221 . S
O61 Co55 2.042 . S
O61 C76 1.237 . S
O62 Co43 1.958 . S
O62 C76 1.278 . S
O63 Co49 1.950 . S
O63 C75 1.277 . S
O64 Co49 2.262 1_455 S
O64 Co55 2.097 . S
O64 C56 1.253 . S
O65 Co49 1.958 . S
O65 C83 1.278 . S
O66 Co43 1.950 . S
O66 C70 1.277 . S
O67 Co43 2.057 1_655 S
O67 C82 1.263 . S
O68 Co55 2.042 1_655 S
O68 C83 1.237 . S
O69 Co49 2.057 1_455 S
O69 C56 1.263 . S
C70 O60 1.221 . S
C70 O66 1.277 . S
C71 C54 1.361 . S
C71 H72 0.960 . S
C71 H73 0.961 . S
C71 H74 0.968 . S
H72 C71 0.960 . S
H73 C71 0.961 . S
H74 C71 0.968 . S
C75 O59 1.221 . S
C75 O63 1.277 . S
C76 O61 1.237 . S
C76 O62 1.278 . S
H77 C45 0.931 . S
H78 C81 0.961 . S
H79 C81 0.961 . S
H80 C81 0.960 . S
C81 C47 1.361 . S
C81 H78 0.961 . S
C81 H79 0.961 . S
C81 H80 0.960 . S
C82 O58 1.253 . S
C82 O67 1.263 . S
C83 O65 1.278 . S
C83 O68 1.237 . S
H84 C48 0.930 . S
H85 C52 0.930 1_554 S
Co86 N87 2.034 . S
Co86 O101 2.262 . S
Co86 O105 1.958 . S
Co86 O109 1.950 . S
Co86 O110 2.057 . S
N87 Co86 2.034 . S
N87 C88 1.366 . S
N87 C90 1.332 . S
C88 N87 1.366 . S
C88 C91 1.377 . S
C88 H120 0.931 . S
N89 C90 1.346 . S
N89 C91 1.337 . S
C90 N87 1.332 . S
C90 N89 1.346 . S
C90 C124 1.361 . S
C91 C88 1.377 . S
C91 N89 1.337 . S
C91 H127 0.930 . S
Co92 N93 2.034 . S
Co92 O106 1.950 . S
Co92 O107 2.262 . S
Co92 O108 1.958 . S
Co92 O112 2.057 . S
N93 Co92 2.034 . S
N93 C96 1.366 . S
N93 C97 1.332 . S
N94 C95 1.337 1_554 S
N94 C97 1.346 1_554 S
C95 N94 1.337 1_556 S
C95 C96 1.377 . S
C95 H128 0.930 1_556 S
C96 N93 1.366 . S
C96 C95 1.377 . S
C96 H100 0.931 . S
C97 N93 1.332 . S
C97 N94 1.346 1_556 S
C97 C114 1.361 . S
Co98 O101 2.097 . S
Co98 O102 2.065 . S
Co98 O103 2.065 . S
Co98 O104 2.042 . S
Co98 O107 2.097 . S
Co98 O111 2.042 . S
C99 O107 1.253 . S
C99 O112 1.263 . S
H100 C96 0.931 . S
O101 Co86 2.262 . S
O101 Co98 2.097 . S
O101 C125 1.253 . S
O102 Co98 2.065 . S
O102 C118 1.221 . S
O103 Co98 2.065 . S
O103 C113 1.221 . S
O104 Co98 2.042 . S
O104 C119 1.237 . S
O105 Co86 1.958 . S
O105 C119 1.278 . S
O106 Co92 1.950 . S
O106 C118 1.277 . S
O107 Co92 2.262 . S
O107 Co98 2.097 . S
O107 C99 1.253 . S
O108 Co92 1.958 . S
O108 C126 1.278 . S
O109 Co86 1.950 . S
O109 C113 1.277 . S
O110 Co86 2.057 . S
O110 C125 1.263 . S
O111 Co98 2.042 . S
O111 C126 1.237 . S
O112 Co92 2.057 . S
O112 C99 1.263 . S
C113 O103 1.221 . S
C113 O109 1.277 . S
C114 C97 1.361 . S
C114 H115 0.960 . S
C114 H116 0.961 . S
C114 H117 0.968 . S
H115 C114 0.960 . S
H116 C114 0.961 . S
H117 C114 0.968 . S
C118 O102 1.221 . S
C118 O106 1.277 . S
C119 O104 1.237 . S
C119 O105 1.278 . S
H120 C88 0.931 . S
H121 C124 0.961 . S
H122 C124 0.961 . S
H123 C124 0.960 . S
C124 C90 1.361 . S
C124 H121 0.961 . S
C124 H122 0.961 . S
C124 H123 0.960 . S
C125 O101 1.253 . S
C125 O110 1.263 . S
C126 O108 1.278 . S
C126 O111 1.237 . S
H127 C91 0.930 . S
H128 C95 0.930 1_554 S
Co129 N130 2.034 . S
Co129 O144 2.262 1_545 S
Co129 O148 1.958 . S
Co129 O152 1.950 . S
Co129 O153 2.057 1_545 S
N130 Co129 2.034 . S
N130 C131 1.366 . S
N130 C133 1.332 . S
C131 N130 1.366 . S
C131 C134 1.377 . S
C131 H163 0.931 . S
N132 C133 1.346 . S
N132 C134 1.337 . S
C133 N130 1.332 . S
C133 N132 1.346 . S
C133 C167 1.361 . S
C134 C131 1.377 . S
C134 N132 1.337 . S
C134 H170 0.930 . S
Co135 N136 2.034 . S
Co135 O149 1.950 . S
Co135 O150 2.262 1_565 S
Co135 O151 1.958 . S
Co135 O155 2.057 1_565 S
N136 Co135 2.034 . S
N136 C139 1.366 . S
N136 C140 1.332 . S
N137 C138 1.337 1_556 S
N137 C140 1.346 1_556 S
C138 N137 1.337 1_554 S
C138 C139 1.377 . S
C138 H171 0.930 1_554 S
C139 N136 1.366 . S
C139 C138 1.377 . S
C139 H143 0.931 . S
C140 N136 1.332 . S
C140 N137 1.346 1_554 S
C140 C157 1.361 . S
Co141 O144 2.097 1_545 S
Co141 O145 2.065 1_545 S
Co141 O146 2.065 . S
Co141 O147 2.042 . S
Co141 O150 2.097 . S
Co141 O154 2.042 1_545 S
C142 O150 1.253 . S
C142 O155 1.263 . S
H143 C139 0.931 . S
O144 Co129 2.262 1_565 S
O144 Co141 2.097 1_565 S
O144 C168 1.253 . S
O145 Co141 2.065 1_565 S
O145 C161 1.221 . S
O146 Co141 2.065 . S
O146 C156 1.221 . S
O147 Co141 2.042 . S
O147 C162 1.237 . S
O148 Co129 1.958 . S
O148 C162 1.278 . S
O149 Co135 1.950 . S
O149 C161 1.277 . S
O150 Co135 2.262 1_545 S
O150 Co141 2.097 . S
O150 C142 1.253 . S
O151 Co135 1.958 . S
O151 C169 1.278 . S
O152 Co129 1.950 . S
O152 C156 1.277 . S
O153 Co129 2.057 1_565 S
O153 C168 1.263 . S
O154 Co141 2.042 1_565 S
O154 C169 1.237 . S
O155 Co135 2.057 1_545 S
O155 C142 1.263 . S
C156 O146 1.221 . S
C156 O152 1.277 . S
C157 C140 1.361 . S
C157 H158 0.960 . S
C157 H159 0.961 . S
C157 H160 0.968 . S
H158 C157 0.960 . S
H159 C157 0.961 . S
H160 C157 0.968 . S
C161 O145 1.221 . S
C161 O149 1.277 . S
C162 O147 1.237 . S
C162 O148 1.278 . S
H163 C131 0.931 . S
H164 C167 0.961 . S
H165 C167 0.961 . S
H166 C167 0.960 . S
C167 C133 1.361 . S
C167 H164 0.961 . S
C167 H165 0.961 . S
C167 H166 0.960 . S
C168 O144 1.253 . S
C168 O153 1.263 . S
C169 O151 1.278 . S
C169 O154 1.237 . S
H170 C134 0.930 . S
H171 C138 0.930 1_556 S
Co172 N173 2.034 . S
Co172 O187 2.262 1_455 S
Co172 O191 1.958 . S
Co172 O195 1.950 . S
Co172 O196 2.057 1_455 S
N173 Co172 2.034 . S
N173 C174 1.366 . S
N173 C176 1.332 . S
C174 N173 1.366 . S
C174 C177 1.377 . S
C174 H206 0.931 . S
N175 C176 1.346 1_556 S
N175 C177 1.337 1_556 S
C176 N173 1.332 . S
C176 N175 1.346 1_554 S
C176 C210 1.361 . S
C177 C174 1.377 . S
C177 N175 1.337 1_554 S
C177 H213 0.930 1_554 S
Co178 N179 2.034 . S
Co178 O192 1.950 . S
Co178 O193 2.262 1_655 S
Co178 O194 1.958 . S
Co178 O198 2.057 1_655 S
N179 Co178 2.034 . S
N179 C182 1.366 . S
N179 C183 1.332 . S
N180 C181 1.337 . S
N180 C183 1.346 . S
C181 N180 1.337 . S
C181 C182 1.377 . S
C181 H214 0.930 . S
C182 N179 1.366 . S
C182 C181 1.377 . S
C182 H186 0.931 . S
C183 N179 1.332 . S
C183 N180 1.346 . S
C183 C200 1.361 . S
Co184 O187 2.097 1_455 S
Co184 O188 2.065 1_455 S
Co184 O189 2.065 . S
Co184 O190 2.042 . S
Co184 O193 2.097 . S
Co184 O197 2.042 1_455 S
C185 O193 1.253 . S
C185 O198 1.263 . S
H186 C182 0.931 . S
O187 Co172 2.262 1_655 S
O187 Co184 2.097 1_655 S
O187 C211 1.253 . S
O188 Co184 2.065 1_655 S
O188 C204 1.221 . S
O189 Co184 2.065 . S
O189 C199 1.221 . S
O190 Co184 2.042 . S
O190 C205 1.237 . S
O191 Co172 1.958 . S
O191 C205 1.278 . S
O192 Co178 1.950 . S
O192 C204 1.277 . S
O193 Co178 2.262 1_455 S
O193 Co184 2.097 . S
O193 C185 1.253 . S
O194 Co178 1.958 . S
O194 C212 1.278 . S
O195 Co172 1.950 . S
O195 C199 1.277 . S
O196 Co172 2.057 1_655 S
O196 C211 1.263 . S
O197 Co184 2.042 1_655 S
O197 C212 1.237 . S
O198 Co178 2.057 1_455 S
O198 C185 1.263 . S
C199 O189 1.221 . S
C199 O195 1.277 . S
C200 C183 1.361 . S
C200 H201 0.960 . S
C200 H202 0.961 . S
C200 H203 0.961 . S
H201 C200 0.960 . S
H202 C200 0.961 . S
H203 C200 0.961 . S
C204 O188 1.221 . S
C204 O192 1.277 . S
C205 O190 1.237 . S
C205 O191 1.278 . S
H206 C174 0.931 . S
H207 C210 0.968 . S
H208 C210 0.961 . S
H209 C210 0.960 . S
C210 C176 1.361 . S
C210 H207 0.968 . S
C210 H208 0.961 . S
C210 H209 0.960 . S
C211 O187 1.253 . S
C211 O196 1.263 . S
C212 O194 1.278 . S
C212 O197 1.237 . S
H213 C177 0.930 1_556 S
H214 C181 0.930 . S
Co215 N216 2.034 . S
Co215 O230 2.262 . S
Co215 O234 1.958 . S
Co215 O238 1.950 . S
Co215 O239 2.057 . S
N216 Co215 2.034 . S
N216 C217 1.366 . S
N216 C219 1.332 . S
C217 N216 1.366 . S
C217 C220 1.377 . S
C217 H249 0.931 . S
N218 C219 1.346 1_556 S
N218 C220 1.337 1_556 S
C219 N216 1.332 . S
C219 N218 1.346 1_554 S
C219 C253 1.361 . S
C220 C217 1.377 . S
C220 N218 1.337 1_554 S
C220 H256 0.930 1_554 S
Co221 N222 2.034 . S
Co221 O235 1.950 . S
Co221 O236 2.262 . S
Co221 O237 1.958 . S
Co221 O241 2.057 . S
N222 Co221 2.034 . S
N222 C225 1.366 . S
N222 C226 1.332 . S
N223 C224 1.337 . S
N223 C226 1.346 . S
C224 N223 1.337 . S
C224 C225 1.377 . S
C224 H257 0.930 . S
C225 N222 1.366 . S
C225 C224 1.377 . S
C225 H229 0.931 . S
C226 N222 1.332 . S
C226 N223 1.346 . S
C226 C243 1.361 . S
Co227 O230 2.097 . S
Co227 O231 2.065 . S
Co227 O232 2.065 . S
Co227 O233 2.042 . S
Co227 O236 2.097 . S
Co227 O240 2.042 . S
C228 O236 1.253 . S
C228 O241 1.263 . S
H229 C225 0.931 . S
O230 Co215 2.262 . S
O230 Co227 2.097 . S
O230 C254 1.253 . S
O231 Co227 2.065 . S
O231 C247 1.221 . S
O232 Co227 2.065 . S
O232 C242 1.221 . S
O233 Co227 2.042 . S
O233 C248 1.237 . S
O234 Co215 1.958 . S
O234 C248 1.278 . S
O235 Co221 1.950 . S
O235 C247 1.277 . S
O236 Co221 2.262 . S
O236 Co227 2.097 . S
O236 C228 1.253 . S
O237 Co221 1.958 . S
O237 C255 1.278 . S
O238 Co215 1.950 . S
O238 C242 1.277 . S
O239 Co215 2.057 . S
O239 C254 1.263 . S
O240 Co227 2.042 . S
O240 C255 1.237 . S
O241 Co221 2.057 . S
O241 C228 1.263 . S
C242 O232 1.221 . S
C242 O238 1.277 . S
C243 C226 1.361 . S
C243 H244 0.960 . S
C243 H245 0.961 . S
C243 H246 0.961 . S
H244 C243 0.960 . S
H245 C243 0.961 . S
H246 C243 0.961 . S
C247 O231 1.221 . S
C247 O235 1.277 . S
C248 O233 1.237 . S
C248 O234 1.278 . S
H249 C217 0.931 . S
H250 C253 0.968 . S
H251 C253 0.961 . S
H252 C253 0.960 . S
C253 C219 1.361 . S
C253 H250 0.968 . S
C253 H251 0.961 . S
C253 H252 0.960 . S
C254 O230 1.253 . S
C254 O239 1.263 . S
C255 O237 1.278 . S
C255 O240 1.237 . S
H256 C220 0.930 1_556 S
H257 C224 0.930 . S
Co258 N259 2.034 . S
Co258 O273 2.262 1_556 S
Co258 O277 1.958 . S
Co258 O281 1.950 . S
Co258 O282 2.057 . S
N259 Co258 2.034 . S
N259 C260 1.366 . S
N259 C262 1.332 . S
C260 N259 1.366 . S
C260 C263 1.377 . S
C260 H292 0.931 . S
N261 C262 1.346 . S
N261 C263 1.337 . S
C262 N259 1.332 . S
C262 N261 1.346 . S
C262 C296 1.361 . S
C263 C260 1.377 . S
C263 N261 1.337 . S
C263 H299 0.930 . S
Co264 N265 2.034 . S
Co264 O278 1.950 . S
Co264 O279 2.262 . S
Co264 O280 1.958 . S
Co264 O284 2.057 . S
N265 Co264 2.034 . S
N265 C268 1.366 . S
N265 C269 1.332 . S
N266 C267 1.337 . S
N266 C269 1.346 . S
C267 N266 1.337 . S
C267 C268 1.377 . S
C267 H300 0.930 . S
C268 N265 1.366 . S
C268 C267 1.377 . S
C268 H272 0.931 . S
C269 N265 1.332 . S
C269 N266 1.346 . S
C269 C286 1.361 . S
Co270 O273 2.097 . S
Co270 O274 2.065 . S
Co270 O275 2.065 . S
Co270 O276 2.042 . S
Co270 O279 2.097 . S
Co270 O283 2.042 . S
C271 O279 1.253 . S
C271 O284 1.263 . S
H272 C268 0.931 . S
O273 Co258 2.262 1_554 S
O273 Co270 2.097 . S
O273 C297 1.253 1_554 S
O274 Co270 2.065 . S
O274 C290 1.221 . S
O275 Co270 2.065 . S
O275 C285 1.221 . S
O276 Co270 2.042 . S
O276 C291 1.237 . S
O277 Co258 1.958 . S
O277 C291 1.278 1_556 S
O278 Co264 1.950 . S
O278 C290 1.277 . S
O279 Co264 2.262 . S
O279 Co270 2.097 . S
O279 C271 1.253 . S
O280 Co264 1.958 . S
O280 C298 1.278 . S
O281 Co258 1.950 . S
O281 C285 1.277 1_556 S
O282 Co258 2.057 . S
O282 C297 1.263 . S
O283 Co270 2.042 . S
O283 C298 1.237 . S
O284 Co264 2.057 . S
O284 C271 1.263 . S
C285 O275 1.221 . S
C285 O281 1.277 1_554 S
C286 C269 1.361 . S
C286 H287 0.960 . S
C286 H288 0.961 . S
C286 H289 0.961 . S
H287 C286 0.960 . S
H288 C286 0.961 . S
H289 C286 0.961 . S
C290 O274 1.221 . S
C290 O278 1.277 . S
C291 O276 1.237 . S
C291 O277 1.278 1_554 S
H292 C260 0.931 . S
H293 C296 0.961 . S
H294 C296 0.961 . S
H295 C296 0.960 . S
C296 C262 1.361 . S
C296 H293 0.961 . S
C296 H294 0.961 . S
C296 H295 0.960 . S
C297 O273 1.253 1_556 S
C297 O282 1.263 . S
C298 O280 1.278 . S
C298 O283 1.237 . S
H299 C263 0.930 . S
H300 C267 0.930 . S
Co301 N302 2.034 . S
Co301 O316 2.262 . S
Co301 O320 1.958 . S
Co301 O324 1.950 . S
Co301 O325 2.057 . S
N302 Co301 2.034 . S
N302 C303 1.366 . S
N302 C305 1.332 . S
C303 N302 1.366 . S
C303 C306 1.377 . S
C303 H335 0.931 . S
N304 C305 1.346 . S
N304 C306 1.337 . S
C305 N302 1.332 . S
C305 N304 1.346 . S
C305 C339 1.361 . S
C306 C303 1.377 . S
C306 N304 1.337 . S
C306 H342 0.930 . S
Co307 N308 2.034 . S
Co307 O321 1.950 . S
Co307 O322 2.262 1_556 S
Co307 O323 1.958 . S
Co307 O327 2.057 . S
N308 Co307 2.034 . S
N308 C311 1.366 . S
N308 C312 1.332 . S
N309 C310 1.337 . S
N309 C312 1.346 . S
C310 N309 1.337 . S
C310 C311 1.377 . S
C310 H343 0.930 . S
C311 N308 1.366 . S
C311 C310 1.377 . S
C311 H315 0.931 . S
C312 N308 1.332 . S
C312 N309 1.346 . S
C312 C329 1.361 . S
Co313 O316 2.097 . S
Co313 O317 2.065 . S
Co313 O318 2.065 . S
Co313 O319 2.042 . S
Co313 O322 2.097 . S
Co313 O326 2.042 . S
C314 O322 1.253 1_556 S
C314 O327 1.263 . S
H315 C311 0.931 . S
O316 Co301 2.262 . S
O316 Co313 2.097 . S
O316 C340 1.253 . S
O317 Co313 2.065 . S
O317 C333 1.221 . S
O318 Co313 2.065 . S
O318 C328 1.221 . S
O319 Co313 2.042 . S
O319 C334 1.237 . S
O320 Co301 1.958 . S
O320 C334 1.278 . S
O321 Co307 1.950 . S
O321 C333 1.277 1_556 S
O322 Co307 2.262 1_554 S
O322 Co313 2.097 . S
O322 C314 1.253 1_554 S
O323 Co307 1.958 . S
O323 C341 1.278 1_556 S
O324 Co301 1.950 . S
O324 C328 1.277 . S
O325 Co301 2.057 . S
O325 C340 1.263 . S
O326 Co313 2.042 . S
O326 C341 1.237 . S
O327 Co307 2.057 . S
O327 C314 1.263 . S
C328 O318 1.221 . S
C328 O324 1.277 . S
C329 C312 1.361 . S
C329 H330 0.960 . S
C329 H331 0.961 . S
C329 H332 0.961 . S
H330 C329 0.960 . S
H331 C329 0.961 . S
H332 C329 0.961 . S
C333 O317 1.221 . S
C333 O321 1.277 1_554 S
C334 O319 1.237 . S
C334 O320 1.278 . S
H335 C303 0.931 . S
H336 C339 0.961 . S
H337 C339 0.961 . S
H338 C339 0.960 . S
C339 C305 1.361 . S
C339 H336 0.961 . S
C339 H337 0.961 . S
C339 H338 0.960 . S
C340 O316 1.253 . S
C340 O325 1.263 . S
C341 O323 1.278 1_554 S
C341 O326 1.237 . S
H342 C306 0.930 . S
H343 C310 0.930 . S
Co344 N345 2.034 . S
Co344 O359 2.262 . S
Co344 O363 1.958 . S
Co344 O367 1.950 . S
Co344 O368 2.057 . S
N345 Co344 2.034 . S
N345 C346 1.366 . S
N345 C348 1.332 . S
C346 N345 1.366 . S
C346 C349 1.377 . S
C346 H378 0.931 . S
N347 C348 1.346 . S
N347 C349 1.337 . S
C348 N345 1.332 . S
C348 N347 1.346 . S
C348 C382 1.361 . S
C349 C346 1.377 . S
C349 N347 1.337 . S
C349 H385 0.930 . S
Co350 N351 2.034 . S
Co350 O364 1.950 . S
Co350 O365 2.262 1_556 S
Co350 O366 1.958 . S
Co350 O370 2.057 . S
N351 Co350 2.034 . S
N351 C354 1.366 . S
N351 C355 1.332 . S
N352 C353 1.337 . S
N352 C355 1.346 . S
C353 N352 1.337 . S
C353 C354 1.377 . S
C353 H386 0.930 . S
C354 N351 1.366 . S
C354 C353 1.377 . S
C354 H358 0.931 . S
C355 N351 1.332 . S
C355 N352 1.346 . S
C355 C372 1.361 . S
Co356 O359 2.097 . S
Co356 O360 2.065 . S
Co356 O361 2.065 . S
Co356 O362 2.042 . S
Co356 O365 2.097 . S
Co356 O369 2.042 . S
C357 O365 1.253 1_556 S
C357 O370 1.263 . S
H358 C354 0.931 . S
O359 Co344 2.262 . S
O359 Co356 2.097 . S
O359 C383 1.253 . S
O360 Co356 2.065 . S
O360 C376 1.221 . S
O361 Co356 2.065 . S
O361 C371 1.221 . S
O362 Co356 2.042 . S
O362 C377 1.237 . S
O363 Co344 1.958 . S
O363 C377 1.278 . S
O364 Co350 1.950 . S
O364 C376 1.277 1_556 S
O365 Co350 2.262 1_554 S
O365 Co356 2.097 . S
O365 C357 1.253 1_554 S
O366 Co350 1.958 . S
O366 C384 1.278 1_556 S
O367 Co344 1.950 . S
O367 C371 1.277 . S
O368 Co344 2.057 . S
O368 C383 1.263 . S
O369 Co356 2.042 . S
O369 C384 1.237 . S
O370 Co350 2.057 . S
O370 C357 1.263 . S
C371 O361 1.221 . S
C371 O367 1.277 . S
C372 C355 1.361 . S
C372 H373 0.960 . S
C372 H374 0.961 . S
C372 H375 0.961 . S
H373 C372 0.960 . S
H374 C372 0.961 . S
H375 C372 0.961 . S
C376 O360 1.221 . S
C376 O364 1.277 1_554 S
C377 O362 1.237 . S
C377 O363 1.278 . S
H378 C346 0.931 . S
H379 C382 0.961 . S
H380 C382 0.961 . S
H381 C382 0.960 . S
C382 C348 1.361 . S
C382 H379 0.961 . S
C382 H380 0.961 . S
C382 H381 0.960 . S
C383 O359 1.253 . S
C383 O368 1.263 . S
C384 O366 1.278 1_554 S
C384 O369 1.237 . S
H385 C349 0.930 . S
H386 C353 0.930 . S
Co387 N388 2.034 . S
Co387 O402 2.262 . S
Co387 O406 1.958 . S
Co387 O410 1.950 . S
Co387 O411 2.057 . S
N388 Co387 2.034 . S
N388 C389 1.366 . S
N388 C391 1.332 . S
C389 N388 1.366 . S
C389 C392 1.377 . S
C389 H421 0.931 . S
N390 C391 1.346 . S
N390 C392 1.337 . S
C391 N388 1.332 . S
C391 N390 1.346 . S
C391 C425 1.361 . S
C392 C389 1.377 . S
C392 N390 1.337 . S
C392 H428 0.930 . S
Co393 N394 2.034 . S
Co393 O407 1.950 . S
Co393 O408 2.262 . S
Co393 O409 1.958 . S
Co393 O413 2.057 . S
N394 Co393 2.034 . S
N394 C397 1.366 . S
N394 C398 1.332 . S
N395 C396 1.337 . S
N395 C398 1.346 . S
C396 N395 1.337 . S
C396 C397 1.377 . S
C396 H429 0.930 . S
C397 N394 1.366 . S
C397 C396 1.377 . S
C397 H401 0.931 . S
C398 N394 1.332 . S
C398 N395 1.346 . S
C398 C415 1.361 . S
Co399 O402 2.097 . S
Co399 O403 2.065 . S
Co399 O404 2.065 . S
Co399 O405 2.042 . S
Co399 O408 2.097 . S
Co399 O412 2.042 . S
C400 O408 1.253 . S
C400 O413 1.263 . S
H401 C397 0.931 . S
O402 Co387 2.262 . S
O402 Co399 2.097 . S
O402 C426 1.253 . S
O403 Co399 2.065 . S
O403 C419 1.221 . S
O404 Co399 2.065 . S
O404 C414 1.221 . S
O405 Co399 2.042 . S
O405 C420 1.237 . S
O406 Co387 1.958 . S
O406 C420 1.278 . S
O407 Co393 1.950 . S
O407 C419 1.277 . S
O408 Co393 2.262 . S
O408 Co399 2.097 . S
O408 C400 1.253 . S
O409 Co393 1.958 . S
O409 C427 1.278 . S
O410 Co387 1.950 . S
O410 C414 1.277 . S
O411 Co387 2.057 . S
O411 C426 1.263 . S
O412 Co399 2.042 . S
O412 C427 1.237 . S
O413 Co393 2.057 . S
O413 C400 1.263 . S
C414 O404 1.221 . S
C414 O410 1.277 . S
C415 C398 1.361 . S
C415 H416 0.960 . S
C415 H417 0.961 . S
C415 H418 0.961 . S
H416 C415 0.960 . S
H417 C415 0.961 . S
H418 C415 0.961 . S
C419 O403 1.221 . S
C419 O407 1.277 . S
C420 O405 1.237 . S
C420 O406 1.278 . S
H421 C389 0.931 . S
H422 C425 0.961 . S
H423 C425 0.961 . S
H424 C425 0.960 . S
C425 C391 1.361 . S
C425 H422 0.961 . S
C425 H423 0.961 . S
C425 H424 0.960 . S
C426 O402 1.253 . S
C426 O411 1.263 . S
C427 O409 1.278 . S
C427 O412 1.237 . S
H428 C392 0.930 . S
H429 C396 0.930 . S
Co430 N431 2.034 . S
Co430 O445 2.262 . S
Co430 O449 1.958 . S
Co430 O453 1.950 . S
Co430 O454 2.057 . S
N431 Co430 2.034 . S
N431 C432 1.366 . S
N431 C434 1.332 . S
C432 N431 1.366 . S
C432 C435 1.377 . S
C432 H464 0.931 . S
N433 C434 1.346 . S
N433 C435 1.337 . S
C434 N431 1.332 . S
C434 N433 1.346 . S
C434 C468 1.361 . S
C435 C432 1.377 . S
C435 N433 1.337 . S
C435 H471 0.930 . S
Co436 N437 2.034 . S
Co436 O450 1.950 . S
Co436 O451 2.262 . S
Co436 O452 1.958 . S
Co436 O456 2.057 . S
N437 Co436 2.034 . S
N437 C440 1.366 . S
N437 C441 1.332 . S
N438 C439 1.337 . S
N438 C441 1.346 . S
C439 N438 1.337 . S
C439 C440 1.377 . S
C439 H472 0.930 . S
C440 N437 1.366 . S
C440 C439 1.377 . S
C440 H444 0.931 . S
C441 N437 1.332 . S
C441 N438 1.346 . S
C441 C458 1.361 . S
Co442 O445 2.097 . S
Co442 O446 2.065 . S
Co442 O447 2.065 . S
Co442 O448 2.042 . S
Co442 O451 2.097 . S
Co442 O455 2.042 . S
C443 O451 1.253 . S
C443 O456 1.263 . S
H444 C440 0.931 . S
O445 Co430 2.262 . S
O445 Co442 2.097 . S
O445 C469 1.253 . S
O446 Co442 2.065 . S
O446 C462 1.221 . S
O447 Co442 2.065 . S
O447 C457 1.221 . S
O448 Co442 2.042 . S
O448 C463 1.237 . S
O449 Co430 1.958 . S
O449 C463 1.278 . S
O450 Co436 1.950 . S
O450 C462 1.277 . S
O451 Co436 2.262 . S
O451 Co442 2.097 . S
O451 C443 1.253 . S
O452 Co436 1.958 . S
O452 C470 1.278 . S
O453 Co430 1.950 . S
O453 C457 1.277 . S
O454 Co430 2.057 . S
O454 C469 1.263 . S
O455 Co442 2.042 . S
O455 C470 1.237 . S
O456 Co436 2.057 . S
O456 C443 1.263 . S
C457 O447 1.221 . S
C457 O453 1.277 . S
C458 C441 1.361 . S
C458 H459 0.960 . S
C458 H460 0.961 . S
C458 H461 0.961 . S
H459 C458 0.960 . S
H460 C458 0.961 . S
H461 C458 0.961 . S
C462 O446 1.221 . S
C462 O450 1.277 . S
C463 O448 1.237 . S
C463 O449 1.278 . S
H464 C432 0.931 . S
H465 C468 0.961 . S
H466 C468 0.961 . S
H467 C468 0.960 . S
C468 C434 1.361 . S
C468 H465 0.961 . S
C468 H466 0.961 . S
C468 H467 0.960 . S
C469 O445 1.253 . S
C469 O454 1.263 . S
C470 O452 1.278 . S
C470 O455 1.237 . S
H471 C435 0.930 . S
H472 C439 0.930 . S
Co473 N474 2.034 . S
Co473 O488 2.262 . S
Co473 O492 1.958 . S
Co473 O496 1.950 . S
Co473 O497 2.057 . S
N474 Co473 2.034 . S
N474 C475 1.366 . S
N474 C477 1.332 . S
C475 N474 1.366 . S
C475 C478 1.377 . S
C475 H507 0.931 . S
N476 C477 1.346 . S
N476 C478 1.337 . S
C477 N474 1.332 . S
C477 N476 1.346 . S
C477 C511 1.361 . S
C478 C475 1.377 . S
C478 N476 1.337 . S
C478 H514 0.930 . S
Co479 N480 2.034 . S
Co479 O493 1.950 . S
Co479 O494 2.262 . S
Co479 O495 1.958 . S
Co479 O499 2.057 . S
N480 Co479 2.034 . S
N480 C483 1.366 . S
N480 C484 1.332 . S
N481 C482 1.337 . S
N481 C484 1.346 . S
C482 N481 1.337 . S
C482 C483 1.377 . S
C482 H515 0.930 . S
C483 N480 1.366 . S
C483 C482 1.377 . S
C483 H487 0.931 . S
C484 N480 1.332 . S
C484 N481 1.346 . S
C484 C501 1.361 . S
Co485 O488 2.097 . S
Co485 O489 2.065 . S
Co485 O490 2.065 . S
Co485 O491 2.042 . S
Co485 O494 2.097 . S
Co485 O498 2.042 . S
C486 O494 1.253 . S
C486 O499 1.263 . S
H487 C483 0.931 . S
O488 Co473 2.262 . S
O488 Co485 2.097 . S
O488 C512 1.253 . S
O489 Co485 2.065 . S
O489 C505 1.221 . S
O490 Co485 2.065 . S
O490 C500 1.221 . S
O491 Co485 2.042 . S
O491 C506 1.237 . S
O492 Co473 1.958 . S
O492 C506 1.278 . S
O493 Co479 1.950 . S
O493 C505 1.277 . S
O494 Co479 2.262 . S
O494 Co485 2.097 . S
O494 C486 1.253 . S
O495 Co479 1.958 . S
O495 C513 1.278 . S
O496 Co473 1.950 . S
O496 C500 1.277 . S
O497 Co473 2.057 . S
O497 C512 1.263 . S
O498 Co485 2.042 . S
O498 C513 1.237 . S
O499 Co479 2.057 . S
O499 C486 1.263 . S
C500 O490 1.221 . S
C500 O496 1.277 . S
C501 C484 1.361 . S
C501 H502 0.960 . S
C501 H503 0.961 . S
C501 H504 0.961 . S
H502 C501 0.960 . S
H503 C501 0.961 . S
H504 C501 0.961 . S
C505 O489 1.221 . S
C505 O493 1.277 . S
C506 O491 1.237 . S
C506 O492 1.278 . S
H507 C475 0.931 . S
H508 C511 0.961 . S
H509 C511 0.961 . S
H510 C511 0.960 . S
C511 C477 1.361 . S
C511 H508 0.961 . S
C511 H509 0.961 . S
C511 H510 0.960 . S
C512 O488 1.253 . S
C512 O497 1.263 . S
C513 O495 1.278 . S
C513 O498 1.237 . S
H514 C478 0.930 . S
H515 C482 0.930 . S
Co516 N517 2.034 . S
Co516 O531 2.262 . S
Co516 O535 1.958 . S
Co516 O539 1.950 . S
Co516 O540 2.057 . S
N517 Co516 2.034 . S
N517 C518 1.366 . S
N517 C520 1.332 . S
C518 N517 1.366 . S
C518 C521 1.377 . S
C518 H550 0.931 . S
N519 C520 1.346 . S
N519 C521 1.337 . S
C520 N517 1.332 . S
C520 N519 1.346 . S
C520 C554 1.361 . S
C521 C518 1.377 . S
C521 N519 1.337 . S
C521 H557 0.930 . S
Co522 N523 2.034 . S
Co522 O536 1.950 . S
Co522 O537 2.262 . S
Co522 O538 1.958 . S
Co522 O542 2.057 . S
N523 Co522 2.034 . S
N523 C526 1.366 . S
N523 C527 1.332 . S
N524 C525 1.337 . S
N524 C527 1.346 . S
C525 N524 1.337 . S
C525 C526 1.377 . S
C525 H558 0.930 . S
C526 N523 1.366 . S
C526 C525 1.377 . S
C526 H530 0.931 . S
C527 N523 1.332 . S
C527 N524 1.346 . S
C527 C544 1.361 . S
Co528 O531 2.097 . S
Co528 O532 2.065 . S
Co528 O533 2.065 . S
Co528 O534 2.042 . S
Co528 O537 2.097 . S
Co528 O541 2.042 . S
C529 O537 1.253 . S
C529 O542 1.263 . S
H530 C526 0.931 . S
O531 Co516 2.262 . S
O531 Co528 2.097 . S
O531 C555 1.253 . S
O532 Co528 2.065 . S
O532 C548 1.221 . S
O533 Co528 2.065 . S
O533 C543 1.221 . S
O534 Co528 2.042 . S
O534 C549 1.237 . S
O535 Co516 1.958 . S
O535 C549 1.278 . S
O536 Co522 1.950 . S
O536 C548 1.277 . S
O537 Co522 2.262 . S
O537 Co528 2.097 . S
O537 C529 1.253 . S
O538 Co522 1.958 . S
O538 C556 1.278 . S
O539 Co516 1.950 . S
O539 C543 1.277 . S
O540 Co516 2.057 . S
O540 C555 1.263 . S
O541 Co528 2.042 . S
O541 C556 1.237 . S
O542 Co522 2.057 . S
O542 C529 1.263 . S
C543 O533 1.221 . S
C543 O539 1.277 . S
C544 C527 1.361 . S
C544 H545 0.960 . S
C544 H546 0.961 . S
C544 H547 0.961 . S
H545 C544 0.960 . S
H546 C544 0.961 . S
H547 C544 0.961 . S
C548 O532 1.221 . S
C548 O536 1.277 . S
C549 O534 1.237 . S
C549 O535 1.278 . S
H550 C518 0.931 . S
H551 C554 0.961 . S
H552 C554 0.961 . S
H553 C554 0.960 . S
C554 C520 1.361 . S
C554 H551 0.961 . S
C554 H552 0.961 . S
C554 H553 0.960 . S
C555 O531 1.253 . S
C555 O540 1.263 . S
C556 O538 1.278 . S
C556 O541 1.237 . S
H557 C521 0.930 . S
H558 C525 0.930 . S
Co559 N560 2.034 . S
Co559 O574 2.262 . S
Co559 O578 1.958 . S
Co559 O582 1.950 . S
Co559 O583 2.057 . S
N560 Co559 2.034 . S
N560 C561 1.366 . S
N560 C563 1.332 . S
C561 N560 1.366 . S
C561 C564 1.377 . S
C561 H593 0.931 . S
N562 C563 1.346 . S
N562 C564 1.337 . S
C563 N560 1.332 . S
C563 N562 1.346 . S
C563 C597 1.361 . S
C564 C561 1.377 . S
C564 N562 1.337 . S
C564 H600 0.930 . S
Co565 N566 2.034 . S
Co565 O579 1.950 . S
Co565 O580 2.262 . S
Co565 O581 1.958 . S
Co565 O585 2.057 . S
N566 Co565 2.034 . S
N566 C569 1.366 . S
N566 C570 1.332 . S
N567 C568 1.337 . S
N567 C570 1.346 . S
C568 N567 1.337 . S
C568 C569 1.377 . S
C568 H601 0.930 . S
C569 N566 1.366 . S
C569 C568 1.377 . S
C569 H573 0.931 . S
C570 N566 1.332 . S
C570 N567 1.346 . S
C570 C587 1.361 . S
Co571 O574 2.097 . S
Co571 O575 2.065 . S
Co571 O576 2.065 . S
Co571 O577 2.042 . S
Co571 O580 2.097 . S
Co571 O584 2.042 . S
C572 O580 1.253 . S
C572 O585 1.263 . S
H573 C569 0.931 . S
O574 Co559 2.262 . S
O574 Co571 2.097 . S
O574 C598 1.253 . S
O575 Co571 2.065 . S
O575 C591 1.221 . S
O576 Co571 2.065 . S
O576 C586 1.221 . S
O577 Co571 2.042 . S
O577 C592 1.237 . S
O578 Co559 1.958 . S
O578 C592 1.278 . S
O579 Co565 1.950 . S
O579 C591 1.277 . S
O580 Co565 2.262 . S
O580 Co571 2.097 . S
O580 C572 1.253 . S
O581 Co565 1.958 . S
O581 C599 1.278 . S
O582 Co559 1.950 . S
O582 C586 1.277 . S
O583 Co559 2.057 . S
O583 C598 1.263 . S
O584 Co571 2.042 . S
O584 C599 1.237 . S
O585 Co565 2.057 . S
O585 C572 1.263 . S
C586 O576 1.221 . S
C586 O582 1.277 . S
C587 C570 1.361 . S
C587 H588 0.960 . S
C587 H589 0.961 . S
C587 H590 0.961 . S
H588 C587 0.960 . S
H589 C587 0.961 . S
H590 C587 0.961 . S
C591 O575 1.221 . S
C591 O579 1.277 . S
C592 O577 1.237 . S
C592 O578 1.278 . S
H593 C561 0.931 . S
H594 C597 0.961 . S
H595 C597 0.961 . S
H596 C597 0.960 . S
C597 C563 1.361 . S
C597 H594 0.961 . S
C597 H595 0.961 . S
C597 H596 0.960 . S
C598 O574 1.253 . S
C598 O583 1.263 . S
C599 O581 1.278 . S
C599 O584 1.237 . S
H600 C564 0.930 . S
H601 C568 0.930 . S
Co602 N603 2.034 . S
Co602 O617 2.262 . S
Co602 O621 1.958 . S
Co602 O625 1.950 . S
Co602 O626 2.057 . S
N603 Co602 2.034 . S
N603 C604 1.366 . S
N603 C606 1.332 . S
C604 N603 1.366 . S
C604 C607 1.377 . S
C604 H636 0.931 . S
N605 C606 1.346 . S
N605 C607 1.337 . S
C606 N603 1.332 . S
C606 N605 1.346 . S
C606 C640 1.361 . S
C607 C604 1.377 . S
C607 N605 1.337 . S
C607 H643 0.930 . S
Co608 N609 2.034 . S
Co608 O622 1.950 . S
Co608 O623 2.262 . S
Co608 O624 1.958 . S
Co608 O628 2.057 . S
N609 Co608 2.034 . S
N609 C612 1.366 . S
N609 C613 1.332 . S
N610 C611 1.337 . S
N610 C613 1.346 . S
C611 N610 1.337 . S
C611 C612 1.377 . S
C611 H644 0.930 . S
C612 N609 1.366 . S
C612 C611 1.377 . S
C612 H616 0.931 . S
C613 N609 1.332 . S
C613 N610 1.346 . S
C613 C630 1.361 . S
Co614 O617 2.097 . S
Co614 O618 2.065 . S
Co614 O619 2.065 . S
Co614 O620 2.042 . S
Co614 O623 2.097 . S
Co614 O627 2.042 . S
C615 O623 1.253 . S
C615 O628 1.263 . S
H616 C612 0.931 . S
O617 Co602 2.262 . S
O617 Co614 2.097 . S
O617 C641 1.253 . S
O618 Co614 2.065 . S
O618 C634 1.221 . S
O619 Co614 2.065 . S
O619 C629 1.221 . S
O620 Co614 2.042 . S
O620 C635 1.237 . S
O621 Co602 1.958 . S
O621 C635 1.278 . S
O622 Co608 1.950 . S
O622 C634 1.277 . S
O623 Co608 2.262 . S
O623 Co614 2.097 . S
O623 C615 1.253 . S
O624 Co608 1.958 . S
O624 C642 1.278 . S
O625 Co602 1.950 . S
O625 C629 1.277 . S
O626 Co602 2.057 . S
O626 C641 1.263 . S
O627 Co614 2.042 . S
O627 C642 1.237 . S
O628 Co608 2.057 . S
O628 C615 1.263 . S
C629 O619 1.221 . S
C629 O625 1.277 . S
C630 C613 1.361 . S
C630 H631 0.960 . S
C630 H632 0.961 . S
C630 H633 0.961 . S
H631 C630 0.960 . S
H632 C630 0.961 . S
H633 C630 0.961 . S
C634 O618 1.221 . S
C634 O622 1.277 . S
C635 O620 1.237 . S
C635 O621 1.278 . S
H636 C604 0.931 . S
H637 C640 0.961 . S
H638 C640 0.961 . S
H639 C640 0.960 . S
C640 C606 1.361 . S
C640 H637 0.961 . S
C640 H638 0.961 . S
C640 H639 0.960 . S
C641 O617 1.253 . S
C641 O626 1.263 . S
C642 O624 1.278 . S
C642 O627 1.237 . S
H643 C607 0.930 . S
H644 C611 0.930 . S
Co645 N646 2.034 . S
Co645 O660 2.262 1_554 S
Co645 O664 1.958 . S
Co645 O668 1.950 . S
Co645 O669 2.057 . S
N646 Co645 2.034 . S
N646 C647 1.366 . S
N646 C649 1.332 . S
C647 N646 1.366 . S
C647 C650 1.377 . S
C647 H679 0.931 . S
N648 C649 1.346 . S
N648 C650 1.337 . S
C649 N646 1.332 . S
C649 N648 1.346 . S
C649 C683 1.361 . S
C650 C647 1.377 . S
C650 N648 1.337 . S
C650 H686 0.930 . S
Co651 N652 2.034 . S
Co651 O665 1.950 . S
Co651 O666 2.262 . S
Co651 O667 1.958 . S
Co651 O671 2.057 . S
N652 Co651 2.034 . S
N652 C655 1.366 . S
N652 C656 1.332 . S
N653 C654 1.337 . S
N653 C656 1.346 . S
C654 N653 1.337 . S
C654 C655 1.377 . S
C654 H687 0.930 . S
C655 N652 1.366 . S
C655 C654 1.377 . S
C655 H659 0.931 . S
C656 N652 1.332 . S
C656 N653 1.346 . S
C656 C673 1.361 . S
Co657 O660 2.097 . S
Co657 O661 2.065 . S
Co657 O662 2.065 . S
Co657 O663 2.042 . S
Co657 O666 2.097 . S
Co657 O670 2.042 . S
C658 O666 1.253 . S
C658 O671 1.263 . S
H659 C655 0.931 . S
O660 Co645 2.262 1_556 S
O660 Co657 2.097 . S
O660 C684 1.253 1_556 S
O661 Co657 2.065 . S
O661 C677 1.221 . S
O662 Co657 2.065 . S
O662 C672 1.221 . S
O663 Co657 2.042 . S
O663 C678 1.237 . S
O664 Co645 1.958 . S
O664 C678 1.278 1_554 S
O665 Co651 1.950 . S
O665 C677 1.277 . S
O666 Co651 2.262 . S
O666 Co657 2.097 . S
O666 C658 1.253 . S
O667 Co651 1.958 . S
O667 C685 1.278 . S
O668 Co645 1.950 . S
O668 C672 1.277 1_554 S
O669 Co645 2.057 . S
O669 C684 1.263 . S
O670 Co657 2.042 . S
O670 C685 1.237 . S
O671 Co651 2.057 . S
O671 C658 1.263 . S
C672 O662 1.221 . S
C672 O668 1.277 1_556 S
C673 C656 1.361 . S
C673 H674 0.960 . S
C673 H675 0.961 . S
C673 H676 0.961 . S
H674 C673 0.960 . S
H675 C673 0.961 . S
H676 C673 0.961 . S
C677 O661 1.221 . S
C677 O665 1.277 . S
C678 O663 1.237 . S
C678 O664 1.278 1_556 S
H679 C647 0.931 . S
H680 C683 0.961 . S
H681 C683 0.961 . S
H682 C683 0.960 . S
C683 C649 1.361 . S
C683 H680 0.961 . S
C683 H681 0.961 . S
C683 H682 0.960 . S
C684 O660 1.253 1_554 S
C684 O669 1.263 . S
C685 O667 1.278 . S
C685 O670 1.237 . S
H686 C650 0.930 . S
H687 C654 0.930 . S
Co688 N689 2.034 . S
Co688 O703 2.262 1_554 S
Co688 O707 1.958 . S
Co688 O711 1.950 . S
Co688 O712 2.057 . S
N689 Co688 2.034 . S
N689 C690 1.366 . S
N689 C692 1.332 . S
C690 N689 1.366 . S
C690 C693 1.377 . S
C690 H722 0.931 . S
N691 C692 1.346 . S
N691 C693 1.337 . S
C692 N689 1.332 . S
C692 N691 1.346 . S
C692 C726 1.361 . S
C693 C690 1.377 . S
C693 N691 1.337 . S
C693 H729 0.930 . S
Co694 N695 2.034 . S
Co694 O708 1.950 . S
Co694 O709 2.262 . S
Co694 O710 1.958 . S
Co694 O714 2.057 . S
N695 Co694 2.034 . S
N695 C698 1.366 . S
N695 C699 1.332 . S
N696 C697 1.337 . S
N696 C699 1.346 . S
C697 N696 1.337 . S
C697 C698 1.377 . S
C697 H730 0.930 . S
C698 N695 1.366 . S
C698 C697 1.377 . S
C698 H702 0.931 . S
C699 N695 1.332 . S
C699 N696 1.346 . S
C699 C716 1.361 . S
Co700 O703 2.097 . S
Co700 O704 2.065 . S
Co700 O705 2.065 . S
Co700 O706 2.042 . S
Co700 O709 2.097 . S
Co700 O713 2.042 . S
C701 O709 1.253 . S
C701 O714 1.263 . S
H702 C698 0.931 . S
O703 Co688 2.262 1_556 S
O703 Co700 2.097 . S
O703 C727 1.253 1_556 S
O704 Co700 2.065 . S
O704 C720 1.221 . S
O705 Co700 2.065 . S
O705 C715 1.221 . S
O706 Co700 2.042 . S
O706 C721 1.237 . S
O707 Co688 1.958 . S
O707 C721 1.278 1_554 S
O708 Co694 1.950 . S
O708 C720 1.277 . S
O709 Co694 2.262 . S
O709 Co700 2.097 . S
O709 C701 1.253 . S
O710 Co694 1.958 . S
O710 C728 1.278 . S
O711 Co688 1.950 . S
O711 C715 1.277 1_554 S
O712 Co688 2.057 . S
O712 C727 1.263 . S
O713 Co700 2.042 . S
O713 C728 1.237 . S
O714 Co694 2.057 . S
O714 C701 1.263 . S
C715 O705 1.221 . S
C715 O711 1.277 1_556 S
C716 C699 1.361 . S
C716 H717 0.960 . S
C716 H718 0.961 . S
C716 H719 0.961 . S
H717 C716 0.960 . S
H718 C716 0.961 . S
H719 C716 0.961 . S
C720 O704 1.221 . S
C720 O708 1.277 . S
C721 O706 1.237 . S
C721 O707 1.278 1_556 S
H722 C690 0.931 . S
H723 C726 0.961 . S
H724 C726 0.961 . S
H725 C726 0.960 . S
C726 C692 1.361 . S
C726 H723 0.961 . S
C726 H724 0.961 . S
C726 H725 0.960 . S
C727 O703 1.253 1_554 S
C727 O712 1.263 . S
C728 O710 1.278 . S
C728 O713 1.237 . S
H729 C693 0.930 . S
H730 C697 0.930 . S
Co731 N732 2.034 . S
Co731 O746 2.262 . S
Co731 O750 1.958 . S
Co731 O754 1.950 . S
Co731 O755 2.057 . S
N732 Co731 2.034 . S
N732 C733 1.366 . S
N732 C735 1.332 . S
C733 N732 1.366 . S
C733 C736 1.377 . S
C733 H765 0.931 . S
N734 C735 1.346 . S
N734 C736 1.337 . S
C735 N732 1.332 . S
C735 N734 1.346 . S
C735 C769 1.361 . S
C736 C733 1.377 . S
C736 N734 1.337 . S
C736 H772 0.930 . S
Co737 N738 2.034 . S
Co737 O751 1.950 . S
Co737 O752 2.262 1_554 S
Co737 O753 1.958 . S
Co737 O757 2.057 . S
N738 Co737 2.034 . S
N738 C741 1.366 . S
N738 C742 1.332 . S
N739 C740 1.337 . S
N739 C742 1.346 . S
C740 N739 1.337 . S
C740 C741 1.377 . S
C740 H773 0.930 . S
C741 N738 1.366 . S
C741 C740 1.377 . S
C741 H745 0.931 . S
C742 N738 1.332 . S
C742 N739 1.346 . S
C742 C759 1.361 . S
Co743 O746 2.097 . S
Co743 O747 2.065 . S
Co743 O748 2.065 . S
Co743 O749 2.042 . S
Co743 O752 2.097 . S
Co743 O756 2.042 . S
C744 O752 1.253 1_554 S
C744 O757 1.263 . S
H745 C741 0.931 . S
O746 Co731 2.262 . S
O746 Co743 2.097 . S
O746 C770 1.253 . S
O747 Co743 2.065 . S
O747 C763 1.221 . S
O748 Co743 2.065 . S
O748 C758 1.221 . S
O749 Co743 2.042 . S
O749 C764 1.237 . S
O750 Co731 1.958 . S
O750 C764 1.278 . S
O751 Co737 1.950 . S
O751 C763 1.277 1_554 S
O752 Co737 2.262 1_556 S
O752 Co743 2.097 . S
O752 C744 1.253 1_556 S
O753 Co737 1.958 . S
O753 C771 1.278 1_554 S
O754 Co731 1.950 . S
O754 C758 1.277 . S
O755 Co731 2.057 . S
O755 C770 1.263 . S
O756 Co743 2.042 . S
O756 C771 1.237 . S
O757 Co737 2.057 . S
O757 C744 1.263 . S
C758 O748 1.221 . S
C758 O754 1.277 . S
C759 C742 1.361 . S
C759 H760 0.960 . S
C759 H761 0.961 . S
C759 H762 0.961 . S
H760 C759 0.960 . S
H761 C759 0.961 . S
H762 C759 0.961 . S
C763 O747 1.221 . S
C763 O751 1.277 1_556 S
C764 O749 1.237 . S
C764 O750 1.278 . S
H765 C733 0.931 . S
H766 C769 0.961 . S
H767 C769 0.961 . S
H768 C769 0.960 . S
C769 C735 1.361 . S
C769 H766 0.961 . S
C769 H767 0.961 . S
C769 H768 0.960 . S
C770 O746 1.253 . S
C770 O755 1.263 . S
C771 O753 1.278 1_556 S
C771 O756 1.237 . S
H772 C736 0.930 . S
H773 C740 0.930 . S
C774 C775 1.369 . S
C774 C776 1.419 . S
C774 H778 0.930 . S
C775 C774 1.369 . S
C775 C784 1.429 . S
C776 C774 1.419 . S
C776 C777 1.363 . S
C776 H779 0.929 . S
C777 C776 1.363 . S
C777 C783 1.428 . S
H778 C774 0.930 . S
H779 C776 0.929 . S
S780 N781 1.613 . S
S780 N782 1.610 . S
N781 S780 1.613 . S
N781 C784 1.350 . S
N782 S780 1.610 . S
N782 C783 1.351 . S
C783 C777 1.428 . S
C783 N782 1.351 . S
C783 C784 1.434 . S
C784 C775 1.429 . S
C784 N781 1.350 . S
C784 C783 1.434 . S
C785 C786 1.369 . S
C785 C787 1.406 1_545 S
C785 H789 0.930 . S
C786 C785 1.369 . S
C786 C795 1.429 . S
C787 C785 1.406 1_565 S
C787 C788 1.372 . S
C787 H790 0.933 . S
C788 C787 1.372 . S
C788 C794 1.428 . S
H789 C785 0.930 . S
H790 C787 0.933 . S
S791 N792 1.613 1_565 S
S791 N793 1.610 . S
N792 S791 1.613 1_545 S
N792 C795 1.350 . S
N793 S791 1.610 . S
N793 C794 1.351 . S
C794 C788 1.428 . S
C794 N793 1.351 . S
C794 C795 1.434 1_565 S
C795 C786 1.429 . S
C795 N792 1.350 . S
C795 C794 1.434 1_545 S
C796 C797 1.369 . S
C796 C798 1.419 1_655 S
C796 H800 0.930 . S
C797 C796 1.369 . S
C797 C806 1.429 . S
C798 C796 1.419 1_455 S
C798 C799 1.363 . S
C798 H801 0.929 . S
C799 C798 1.363 . S
C799 C805 1.428 . S
H800 C796 0.930 . S
H801 C798 0.929 . S
S802 N803 1.613 . S
S802 N804 1.610 1_655 S
N803 S802 1.613 . S
N803 C806 1.350 . S
N804 S802 1.610 1_455 S
N804 C805 1.351 . S
C805 C799 1.428 . S
C805 N804 1.351 . S
C805 C806 1.434 1_455 S
C806 C797 1.429 . S
C806 N803 1.350 . S
C806 C805 1.434 1_655 S
C807 C808 1.369 . S
C807 C809 1.419 . S
C807 H811 0.930 . S
C808 C807 1.369 . S
C808 C817 1.429 . S
C809 C807 1.419 . S
C809 C810 1.363 . S
C809 H812 0.929 . S
C810 C809 1.363 . S
C810 C816 1.428 . S
H811 C807 0.930 . S
H812 C809 0.929 . S
S813 N814 1.613 . S
S813 N815 1.610 . S
N814 S813 1.613 . S
N814 C817 1.350 . S
N815 S813 1.610 . S
N815 C816 1.351 . S
C816 C810 1.428 . S
C816 N815 1.351 . S
C816 C817 1.434 . S
C817 C808 1.429 . S
C817 N814 1.350 . S
C817 C816 1.434 . S
C818 C819 1.369 . S
C818 C820 1.419 1_545 S
C818 H822 0.930 . S
C819 C818 1.369 . S
C819 C828 1.429 . S
C820 C818 1.419 1_565 S
C820 C821 1.363 . S
C820 H823 0.929 . S
C821 C820 1.363 . S
C821 C827 1.428 . S
H822 C818 0.930 . S
H823 C820 0.929 . S
S824 N825 1.613 . S
S824 N826 1.610 1_545 S
N825 S824 1.613 . S
N825 C828 1.350 . S
N826 S824 1.610 1_565 S
N826 C827 1.351 . S
C827 C821 1.428 . S
C827 N826 1.351 . S
C827 C828 1.434 1_565 S
C828 C819 1.429 . S
C828 N825 1.350 . S
C828 C827 1.434 1_545 S
C829 C830 1.369 . S
C829 C831 1.419 1_455 S
C829 H833 0.930 . S
C830 C829 1.369 . S
C830 C839 1.429 . S
C831 C829 1.419 1_655 S
C831 C832 1.363 . S
C831 H834 0.929 . S
C832 C831 1.363 . S
C832 C838 1.428 . S
H833 C829 0.930 . S
H834 C831 0.929 . S
S835 N836 1.613 . S
S835 N837 1.610 1_455 S
N836 S835 1.613 . S
N836 C839 1.350 . S
N837 S835 1.610 1_655 S
N837 C838 1.351 . S
C838 C832 1.428 . S
C838 N837 1.351 . S
C838 C839 1.434 1_655 S
C839 C830 1.429 . S
C839 N836 1.350 . S
C839 C838 1.434 1_455 S
C840 C841 1.369 . S
C840 C842 1.419 . S
C840 H844 0.930 . S
C841 C840 1.369 . S
C841 C850 1.429 . S
C842 C840 1.419 . S
C842 C843 1.363 . S
C842 H845 0.929 . S
C843 C842 1.363 . S
C843 C849 1.428 . S
H844 C840 0.930 . S
H845 C842 0.929 . S
S846 N847 1.613 . S
S846 N848 1.610 . S
N847 S846 1.613 . S
N847 C850 1.350 . S
N848 S846 1.610 . S
N848 C849 1.351 . S
C849 C843 1.428 . S
C849 N848 1.351 . S
C849 C850 1.434 . S
C850 C841 1.429 . S
C850 N847 1.350 . S
C850 C849 1.434 . S
C851 C852 1.369 . S
C851 C853 1.419 . S
C851 H855 0.930 . S
C852 C851 1.369 . S
C852 C861 1.429 . S
C853 C851 1.419 . S
C853 C854 1.363 . S
C853 H856 0.929 . S
C854 C853 1.363 . S
C854 C860 1.428 . S
H855 C851 0.930 . S
H856 C853 0.929 . S
S857 N858 1.613 . S
S857 N859 1.610 . S
N858 S857 1.613 . S
N858 C861 1.350 . S
N859 S857 1.610 . S
N859 C860 1.351 . S
C860 C854 1.428 . S
C860 N859 1.351 . S
C860 C861 1.434 . S
C861 C852 1.429 . S
C861 N858 1.350 . S
C861 C860 1.434 . S
C862 C863 1.369 . S
C862 C864 1.419 . S
C862 H866 0.939 . S
C863 C862 1.369 . S
C863 C872 1.429 . S
C864 C862 1.419 . S
C864 C865 1.363 . S
C864 H867 0.929 . S
C865 C864 1.363 . S
C865 C871 1.428 . S
H866 C862 0.939 . S
H867 C864 0.929 . S
S868 N869 1.613 . S
S868 N870 1.610 . S
N869 S868 1.613 . S
N869 C872 1.350 . S
N870 S868 1.610 . S
N870 C871 1.351 . S
C871 C865 1.428 . S
C871 N870 1.351 . S
C871 C872 1.434 . S
C872 C863 1.429 . S
C872 N869 1.350 . S
C872 C871 1.434 . S
C873 C874 1.369 . S
C873 C875 1.419 . S
C873 H877 0.930 . S
C874 C873 1.369 . S
C874 C883 1.429 . S
C875 C873 1.419 . S
C875 C876 1.363 . S
C875 H878 0.929 . S
C876 C875 1.363 . S
C876 C882 1.428 . S
H877 C873 0.930 . S
H878 C875 0.929 . S
S879 N880 1.613 . S
S879 N881 1.610 . S
N880 S879 1.613 . S
N880 C883 1.350 . S
N881 S879 1.610 . S
N881 C882 1.351 . S
C882 C876 1.428 . S
C882 N881 1.351 . S
C882 C883 1.434 . S
C883 C874 1.429 . S
C883 N880 1.350 . S
C883 C882 1.434 . S
C884 C885 1.369 . S
C884 C886 1.419 . S
C884 H888 0.930 . S
C885 C884 1.369 . S
C885 C894 1.429 . S
C886 C884 1.419 . S
C886 C887 1.363 . S
C886 H889 0.929 . S
C887 C886 1.363 . S
C887 C893 1.428 . S
H888 C884 0.930 . S
H889 C886 0.929 . S
S890 N891 1.613 . S
S890 N892 1.610 . S
N891 S890 1.613 . S
N891 C894 1.350 . S
N892 S890 1.610 . S
N892 C893 1.351 . S
C893 C887 1.428 . S
C893 N892 1.351 . S
C893 C894 1.434 . S
C894 C885 1.429 . S
C894 N891 1.350 . S
C894 C893 1.434 . S
C895 C896 1.369 . S
C895 C897 1.419 . S
C895 H899 0.930 . S
C896 C895 1.369 . S
C896 C905 1.429 . S
C897 C895 1.419 . S
C897 C898 1.363 . S
C897 H900 0.929 . S
C898 C897 1.363 . S
C898 C904 1.428 . S
H899 C895 0.930 . S
H900 C897 0.929 . S
S901 N902 1.613 . S
S901 N903 1.610 . S
N902 S901 1.613 . S
N902 C905 1.350 . S
N903 S901 1.610 . S
N903 C904 1.351 . S
C904 C898 1.428 . S
C904 N903 1.351 . S
C904 C905 1.434 . S
C905 C896 1.429 . S
C905 N902 1.350 . S
C905 C904 1.434 . S
C906 C907 1.369 . S
C906 C908 1.419 . S
C906 H910 0.930 . S
C907 C906 1.369 . S
C907 C916 1.429 . S
C908 C906 1.419 . S
C908 C909 1.363 . S
C908 H911 0.929 . S
C909 C908 1.363 . S
C909 C915 1.428 . S
H910 C906 0.930 . S
H911 C908 0.929 . S
S912 N913 1.613 . S
S912 N914 1.610 . S
N913 S912 1.613 . S
N913 C916 1.350 . S
N914 S912 1.610 . S
N914 C915 1.351 . S
C915 C909 1.428 . S
C915 N914 1.351 . S
C915 C916 1.434 . S
C916 C907 1.429 . S
C916 N913 1.350 . S
C916 C915 1.434 . S
C917 C918 1.369 . S
C917 C919 1.419 . S
C917 H921 0.930 . S
C918 C917 1.369 . S
C918 C927 1.429 . S
C919 C917 1.419 . S
C919 C920 1.363 . S
C919 H922 0.929 . S
C920 C919 1.363 . S
C920 C926 1.428 . S
H921 C917 0.930 . S
H922 C919 0.929 . S
S923 N924 1.613 . S
S923 N925 1.610 . S
N924 S923 1.613 . S
N924 C927 1.350 . S
N925 S923 1.610 . S
N925 C926 1.351 . S
C926 C920 1.428 . S
C926 N925 1.351 . S
C926 C927 1.434 . S
C927 C918 1.429 . S
C927 N924 1.350 . S
C927 C926 1.434 . S
C928 C929 1.369 . S
C928 C930 1.419 . S
C928 H932 0.930 . S
C929 C928 1.369 . S
C929 C938 1.429 . S
C930 C928 1.419 . S
C930 C931 1.363 . S
C930 H933 0.929 . S
C931 C930 1.363 . S
C931 C937 1.428 . S
H932 C928 0.930 . S
H933 C930 0.929 . S
S934 N935 1.613 . S
S934 N936 1.610 . S
N935 S934 1.613 . S
N935 C938 1.350 . S
N936 S934 1.610 . S
N936 C937 1.351 . S
C937 C931 1.428 . S
C937 N936 1.351 . S
C937 C938 1.434 . S
C938 C929 1.429 . S
C938 N935 1.350 . S
C938 C937 1.434 . S
C939 C940 1.369 . S
C939 C941 1.419 . S
C939 H943 0.930 . S
C940 C939 1.369 . S
C940 C949 1.429 . S
C941 C939 1.419 . S
C941 C942 1.363 . S
C941 H944 0.929 . S
C942 C941 1.363 . S
C942 C948 1.428 . S
H943 C939 0.930 . S
H944 C941 0.929 . S
S945 N946 1.613 . S
S945 N947 1.610 1_554 S
N946 S945 1.613 . S
N946 C949 1.350 1_554 S
N947 S945 1.610 1_556 S
N947 C948 1.351 . S
C948 C942 1.428 . S
C948 N947 1.351 . S
C948 C949 1.434 . S
C949 C940 1.429 . S
C949 N946 1.350 1_556 S
C949 C948 1.434 . S
C950 C951 1.369 . S
C950 C952 1.419 . S
C950 H954 0.930 . S
C951 C950 1.369 . S
C951 C960 1.429 . S
C952 C950 1.419 . S
C952 C953 1.363 . S
C952 H955 0.929 . S
C953 C952 1.363 . S
C953 C959 1.428 . S
H954 C950 0.930 . S
H955 C952 0.929 . S
S956 N957 1.613 . S
S956 N958 1.610 . S
N957 S956 1.613 . S
N957 C960 1.350 . S
N958 S956 1.610 . S
N958 C959 1.351 . S
C959 C953 1.428 . S
C959 N958 1.351 . S
C959 C960 1.434 . S
C960 C951 1.429 . S
C960 N957 1.350 . S
C960 C959 1.434 . S
C961 C962 1.369 . S
C961 C963 1.419 . S
C961 H965 0.930 . S
C962 C961 1.369 . S
C962 C971 1.429 . S
C963 C961 1.419 . S
C963 C964 1.363 . S
C963 H966 0.929 . S
C964 C963 1.363 . S
C964 C970 1.428 . S
H965 C961 0.930 . S
H966 C963 0.929 . S
S967 N968 1.613 . S
S967 N969 1.610 . S
N968 S967 1.613 . S
N968 C971 1.350 . S
N969 S967 1.610 . S
N969 C970 1.351 . S
C970 C964 1.428 . S
C970 N969 1.351 . S
C970 C971 1.434 . S
C971 C962 1.429 . S
C971 N968 1.350 . S
C971 C970 1.434 . S
C972 C973 1.369 . S
C972 C974 1.419 . S
C972 H976 0.930 . S
C973 C972 1.369 . S
C973 C982 1.429 . S
C974 C972 1.419 . S
C974 C975 1.363 . S
C974 H977 0.929 . S
C975 C974 1.363 . S
C975 C981 1.428 . S
H976 C972 0.930 . S
H977 C974 0.929 . S
S978 N979 1.613 . S
S978 N980 1.610 . S
N979 S978 1.613 . S
N979 C982 1.350 . S
N980 S978 1.610 . S
N980 C981 1.351 . S
C981 C975 1.428 . S
C981 N980 1.351 . S
C981 C982 1.434 . S
C982 C973 1.429 . S
C982 N979 1.350 . S
C982 C981 1.434 . S
C983 C984 1.369 . S
C983 C985 1.419 . S
C983 H987 0.930 . S
C984 C983 1.369 . S
C984 C993 1.429 . S
C985 C983 1.419 . S
C985 C986 1.363 . S
C985 H988 0.929 . S
C986 C985 1.363 . S
C986 C992 1.428 . S
H987 C983 0.930 . S
H988 C985 0.929 . S
S989 N990 1.613 . S
S989 N991 1.610 . S
N990 S989 1.613 . S
N990 C993 1.350 . S
N991 S989 1.610 . S
N991 C992 1.351 . S
C992 C986 1.428 . S
C992 N991 1.351 . S
C992 C993 1.434 . S
C993 C984 1.429 . S
C993 N990 1.350 . S
C993 C992 1.434 . S
C994 C995 1.369 . S
C994 C996 1.419 . S
C994 H998 0.930 . S
C995 C994 1.369 . S
C995 C1004 1.429 . S
C996 C994 1.419 . S
C996 C997 1.363 . S
C996 H999 0.929 . S
C997 C996 1.363 . S
C997 C1003 1.428 . S
H998 C994 0.930 . S
H999 C996 0.929 . S
S1000 N1001 1.613 . S
S1000 N1002 1.610 . S
N1001 S1000 1.613 . S
N1001 C1004 1.350 . S
N1002 S1000 1.610 . S
N1002 C1003 1.351 . S
C1003 C997 1.428 . S
C1003 N1002 1.351 . S
C1003 C1004 1.434 . S
C1004 C995 1.429 . S
C1004 N1001 1.350 . S
C1004 C1003 1.434 . S
C1005 C1006 1.369 . S
C1005 C1007 1.419 . S
C1005 H1009 0.930 . S
C1006 C1005 1.369 . S
C1006 C1015 1.429 . S
C1007 C1005 1.419 . S
C1007 C1008 1.363 . S
C1007 H1010 0.929 . S
C1008 C1007 1.363 . S
C1008 C1014 1.428 . S
H1009 C1005 0.930 . S
H1010 C1007 0.929 . S
S1011 N1012 1.613 . S
S1011 N1013 1.610 . S
N1012 S1011 1.613 . S
N1012 C1015 1.350 . S
N1013 S1011 1.610 . S
N1013 C1014 1.351 . S
C1014 C1008 1.428 . S
C1014 N1013 1.351 . S
C1014 C1015 1.434 . S
C1015 C1006 1.429 . S
C1015 N1012 1.350 . S
C1015 C1014 1.434 . S
C1016 C1017 1.369 . S
C1016 C1018 1.419 . S
C1016 H1020 0.953 . S
C1017 C1016 1.369 . S
C1017 C1026 1.429 . S
C1018 C1016 1.419 . S
C1018 C1019 1.363 . S
C1018 H1021 0.929 . S
C1019 C1018 1.363 . S
C1019 C1025 1.428 . S
H1020 C1016 0.953 . S
H1021 C1018 0.929 . S
S1022 N1023 1.613 . S
S1022 N1024 1.610 . S
N1023 S1022 1.613 . S
N1023 C1026 1.350 . S
N1024 S1022 1.610 . S
N1024 C1025 1.351 . S
C1025 C1019 1.428 . S
C1025 N1024 1.351 . S
C1025 C1026 1.434 . S
C1026 C1017 1.429 . S
C1026 N1023 1.350 . S
C1026 C1025 1.434 . S
C1027 C1028 1.369 . S
C1027 C1029 1.419 . S
C1027 H1031 0.930 . S
C1028 C1027 1.369 . S
C1028 C1037 1.429 . S
C1029 C1027 1.419 . S
C1029 C1030 1.363 . S
C1029 H1032 0.929 . S
C1030 C1029 1.363 . S
C1030 C1036 1.428 . S
H1031 C1027 0.930 . S
H1032 C1029 0.929 . S
S1033 N1034 1.613 . S
S1033 N1035 1.610 . S
N1034 S1033 1.613 . S
N1034 C1037 1.350 . S
N1035 S1033 1.610 . S
N1035 C1036 1.351 . S
C1036 C1030 1.428 . S
C1036 N1035 1.351 . S
C1036 C1037 1.434 . S
C1037 C1028 1.429 . S
C1037 N1034 1.350 . S
C1037 C1036 1.434 . S
C1038 C1039 1.369 . S
C1038 C1040 1.419 . S
C1038 H1042 0.930 . S
C1039 C1038 1.369 . S
C1039 C1048 1.429 . S
C1040 C1038 1.419 . S
C1040 C1041 1.363 . S
C1040 H1043 0.929 . S
C1041 C1040 1.363 . S
C1041 C1047 1.428 . S
H1042 C1038 0.930 . S
H1043 C1040 0.929 . S
S1044 N1045 1.613 . S
S1044 N1046 1.610 . S
N1045 S1044 1.613 . S
N1045 C1048 1.350 . S
N1046 S1044 1.610 . S
N1046 C1047 1.351 . S
C1047 C1041 1.428 . S
C1047 N1046 1.351 . S
C1047 C1048 1.434 . S
C1048 C1039 1.429 . S
C1048 N1045 1.350 . S
C1048 C1047 1.434 . S
C1049 C1050 1.369 . S
C1049 C1051 1.419 . S
C1049 H1053 0.930 . S
C1050 C1049 1.369 . S
C1050 C1059 1.429 . S
C1051 C1049 1.419 . S
C1051 C1052 1.363 . S
C1051 H1054 0.929 . S
C1052 C1051 1.363 . S
C1052 C1058 1.428 . S
H1053 C1049 0.930 . S
H1054 C1051 0.929 . S
S1055 N1056 1.613 . S
S1055 N1057 1.610 . S
N1056 S1055 1.613 . S
N1056 C1059 1.350 . S
N1057 S1055 1.610 . S
N1057 C1058 1.351 . S
C1058 C1052 1.428 . S
C1058 N1057 1.351 . S
C1058 C1059 1.434 . S
C1059 C1050 1.429 . S
C1059 N1056 1.350 . S
C1059 C1058 1.434 . S
C1060 C1061 1.369 . S
C1060 C1062 1.419 . S
C1060 H1064 0.930 . S
C1061 C1060 1.369 . S
C1061 C1070 1.429 . S
C1062 C1060 1.419 . S
C1062 C1063 1.363 . S
C1062 H1065 0.929 . S
C1063 C1062 1.363 . S
C1063 C1069 1.428 . S
H1064 C1060 0.930 . S
H1065 C1062 0.929 . S
S1066 N1067 1.613 . S
S1066 N1068 1.610 . S
N1067 S1066 1.613 . S
N1067 C1070 1.350 . S
N1068 S1066 1.610 . S
N1068 C1069 1.351 . S
C1069 C1063 1.428 . S
C1069 N1068 1.351 . S
C1069 C1070 1.434 . S
C1070 C1061 1.429 . S
C1070 N1067 1.350 . S
C1070 C1069 1.434 . S
C1071 C1072 1.369 . S
C1071 C1073 1.419 . S
C1071 H1075 0.930 . S
C1072 C1071 1.369 . S
C1072 C1081 1.429 . S
C1073 C1071 1.419 . S
C1073 C1074 1.363 . S
C1073 H1076 0.929 . S
C1074 C1073 1.363 . S
C1074 C1080 1.428 . S
H1075 C1071 0.930 . S
H1076 C1073 0.929 . S
S1077 N1078 1.613 1_556 S
S1077 N1079 1.610 . S
N1078 S1077 1.613 1_554 S
N1078 C1081 1.350 . S
N1079 S1077 1.610 . S
N1079 C1080 1.351 1_556 S
C1080 C1074 1.428 . S
C1080 N1079 1.351 1_554 S
C1080 C1081 1.434 . S
C1081 C1072 1.429 . S
C1081 N1078 1.350 . S
C1081 C1080 1.434 . S
C1082 C1083 1.369 . S
C1082 C1084 1.419 . S
C1082 H1086 0.930 . S
C1083 C1082 1.369 . S
C1083 C1092 1.429 . S
C1084 C1082 1.419 . S
C1084 C1085 1.363 . S
C1084 H1087 0.929 . S
C1085 C1084 1.363 . S
C1085 C1091 1.428 . S
H1086 C1082 0.930 . S
H1087 C1084 0.929 . S
S1088 N1089 1.613 . S
S1088 N1090 1.610 . S
N1089 S1088 1.613 . S
N1089 C1092 1.350 . S
N1090 S1088 1.610 . S
N1090 C1091 1.351 . S
C1091 C1085 1.428 . S
C1091 N1090 1.351 . S
C1091 C1092 1.434 . S
C1092 C1083 1.429 . S
C1092 N1089 1.350 . S
C1092 C1091 1.434 . S
C1093 C1094 1.369 . S
C1093 C1095 1.419 . S
C1093 H1097 0.930 . S
C1094 C1093 1.369 . S
C1094 C1103 1.429 . S
C1095 C1093 1.419 . S
C1095 C1096 1.363 . S
C1095 H1098 0.929 . S
C1096 C1095 1.363 . S
C1096 C1102 1.428 . S
H1097 C1093 0.930 . S
H1098 C1095 0.929 . S
S1099 N1100 1.613 . S
S1099 N1101 1.610 . S
N1100 S1099 1.613 . S
N1100 C1103 1.350 . S
N1101 S1099 1.610 . S
N1101 C1102 1.351 . S
C1102 C1096 1.428 . S
C1102 N1101 1.351 . S
C1102 C1103 1.434 . S
C1103 C1094 1.429 . S
C1103 N1100 1.350 . S
C1103 C1102 1.434 . S
C1104 C1105 1.369 . S
C1104 C1106 1.419 . S
C1104 H1108 0.930 . S
C1105 C1104 1.369 . S
C1105 C1114 1.429 . S
C1106 C1104 1.419 . S
C1106 C1107 1.363 . S
C1106 H1109 0.929 . S
C1107 C1106 1.363 . S
C1107 C1113 1.428 . S
H1108 C1104 0.930 . S
H1109 C1106 0.929 . S
S1110 N1111 1.613 . S
S1110 N1112 1.610 . S
N1111 S1110 1.613 . S
N1111 C1114 1.350 . S
N1112 S1110 1.610 . S
N1112 C1113 1.351 . S
C1113 C1107 1.428 . S
C1113 N1112 1.351 . S
C1113 C1114 1.434 . S
C1114 C1105 1.429 . S
C1114 N1111 1.350 . S
C1114 C1113 1.434 . S
C1115 C1116 1.369 . S
C1115 C1117 1.419 . S
C1115 H1119 0.930 . S
C1116 C1115 1.369 . S
C1116 C1125 1.429 . S
C1117 C1115 1.419 . S
C1117 C1118 1.363 . S
C1117 H1120 0.929 . S
C1118 C1117 1.363 . S
C1118 C1124 1.428 . S
H1119 C1115 0.930 . S
H1120 C1117 0.929 . S
S1121 N1122 1.613 . S
S1121 N1123 1.610 . S
N1122 S1121 1.613 . S
N1122 C1125 1.350 . S
N1123 S1121 1.610 . S
N1123 C1124 1.351 . S
C1124 C1118 1.428 . S
C1124 N1123 1.351 . S
C1124 C1125 1.434 . S
C1125 C1116 1.429 . S
C1125 N1122 1.350 . S
C1125 C1124 1.434 . S
C1126 C1127 1.369 . S
C1126 C1128 1.419 . S
C1126 H1130 0.930 . S
C1127 C1126 1.369 . S
C1127 C1136 1.429 . S
C1128 C1126 1.419 . S
C1128 C1129 1.363 . S
C1128 H1131 0.929 . S
C1129 C1128 1.363 . S
C1129 C1135 1.428 . S
H1130 C1126 0.930 . S
H1131 C1128 0.929 . S
S1132 N1133 1.613 1_554 S
S1132 N1134 1.610 . S
N1133 S1132 1.613 1_556 S
N1133 C1136 1.350 . S
N1134 S1132 1.610 . S
N1134 C1135 1.351 1_554 S
C1135 C1129 1.428 . S
C1135 N1134 1.351 1_556 S
C1135 C1136 1.434 . S
C1136 C1127 1.429 . S
C1136 N1133 1.350 . S
C1136 C1135 1.434 . S
C1137 C1138 1.369 . S
C1137 C1139 1.419 . S
C1137 H1141 0.930 . S
C1138 C1137 1.369 . S
C1138 C1147 1.429 . S
C1139 C1137 1.419 . S
C1139 C1140 1.363 . S
C1139 H1142 0.929 . S
C1140 C1139 1.363 . S
C1140 C1146 1.428 . S
H1141 C1137 0.930 . S
H1142 C1139 0.929 . S
S1143 N1144 1.613 . S
S1143 N1145 1.610 . S
N1144 S1143 1.613 . S
N1144 C1147 1.350 . S
N1145 S1143 1.610 . S
N1145 C1146 1.351 . S
C1146 C1140 1.428 . S
C1146 N1145 1.351 . S
C1146 C1147 1.434 . S
C1147 C1138 1.429 . S
C1147 N1144 1.350 . S
C1147 C1146 1.434 . S
C1148 C1149 1.369 . S
C1148 C1150 1.419 . S
C1148 H1152 0.930 . S
C1149 C1148 1.369 . S
C1149 C1158 1.429 . S
C1150 C1148 1.419 . S
C1150 C1151 1.363 . S
C1150 H1153 0.929 . S
C1151 C1150 1.363 . S
C1151 C1157 1.428 . S
H1152 C1148 0.930 . S
H1153 C1150 0.929 . S
S1154 N1155 1.613 . S
S1154 N1156 1.610 . S
N1155 S1154 1.613 . S
N1155 C1158 1.350 . S
N1156 S1154 1.610 . S
N1156 C1157 1.351 . S
C1157 C1151 1.428 . S
C1157 N1156 1.351 . S
C1157 C1158 1.434 . S
C1158 C1149 1.429 . S
C1158 N1155 1.350 . S
C1158 C1157 1.434 . S
C1159 C1160 1.369 . S
C1159 C1161 1.419 . S
C1159 H1163 0.930 . S
C1160 C1159 1.369 . S
C1160 C1169 1.429 . S
C1161 C1159 1.419 . S
C1161 C1162 1.363 . S
C1161 H1164 0.929 . S
C1162 C1161 1.363 . S
C1162 C1168 1.428 . S
H1163 C1159 0.930 . S
H1164 C1161 0.929 . S
S1165 N1166 1.613 . S
S1165 N1167 1.610 . S
N1166 S1165 1.613 . S
N1166 C1169 1.350 . S
N1167 S1165 1.610 . S
N1167 C1168 1.351 . S
C1168 C1162 1.428 . S
C1168 N1167 1.351 . S
C1168 C1169 1.434 . S
C1169 C1160 1.429 . S
C1169 N1166 1.350 . S
C1169 C1168 1.434 . S
C1170 C1171 1.369 . S
C1170 C1172 1.419 . S
C1170 H1174 0.930 . S
C1171 C1170 1.369 . S
C1171 C1180 1.429 . S
C1172 C1170 1.419 . S
C1172 C1173 1.363 . S
C1172 H1175 0.929 . S
C1173 C1172 1.363 . S
C1173 C1179 1.428 . S
H1174 C1170 0.930 . S
H1175 C1172 0.929 . S
S1176 N1177 1.613 . S
S1176 N1178 1.610 . S
N1177 S1176 1.613 . S
N1177 C1180 1.350 . S
N1178 S1176 1.610 . S
N1178 C1179 1.351 . S
C1179 C1173 1.428 . S
C1179 N1178 1.351 . S
C1179 C1180 1.434 . S
C1180 C1171 1.429 . S
C1180 N1177 1.350 . S
C1180 C1179 1.434 . S
C1181 C1182 1.369 . S
C1181 C1183 1.419 . S
C1181 H1185 0.930 . S
C1182 C1181 1.369 . S
C1182 C1191 1.429 . S
C1183 C1181 1.419 . S
C1183 C1184 1.363 . S
C1183 H1186 0.929 . S
C1184 C1183 1.363 . S
C1184 C1190 1.428 . S
H1185 C1181 0.930 . S
H1186 C1183 0.929 . S
S1187 N1188 1.613 . S
S1187 N1189 1.610 . S
N1188 S1187 1.613 . S
N1188 C1191 1.350 . S
N1189 S1187 1.610 . S
N1189 C1190 1.351 . S
C1190 C1184 1.428 . S
C1190 N1189 1.351 . S
C1190 C1191 1.434 . S
C1191 C1182 1.429 . S
C1191 N1188 1.350 . S
C1191 C1190 1.434 . S
C1192 C1193 1.369 . S
C1192 C1194 1.419 . S
C1192 H1196 0.930 . S
C1193 C1192 1.369 . S
C1193 C1202 1.429 . S
C1194 C1192 1.419 . S
C1194 C1195 1.363 . S
C1194 H1197 0.929 . S
C1195 C1194 1.363 . S
C1195 C1201 1.428 . S
H1196 C1192 0.930 . S
H1197 C1194 0.929 . S
S1198 N1199 1.613 . S
S1198 N1200 1.610 . S
N1199 S1198 1.613 . S
N1199 C1202 1.350 . S
N1200 S1198 1.610 . S
N1200 C1201 1.351 . S
C1201 C1195 1.428 . S
C1201 N1200 1.351 . S
C1201 C1202 1.434 . S
C1202 C1193 1.429 . S
C1202 N1199 1.350 . S
C1202 C1201 1.434 . S
C1203 C1204 1.369 . S
C1203 C1205 1.419 . S
C1203 H1207 0.930 . S
C1204 C1203 1.369 . S
C1204 C1213 1.429 . S
C1205 C1203 1.419 . S
C1205 C1206 1.363 . S
C1205 H1208 0.929 . S
C1206 C1205 1.363 . S
C1206 C1212 1.428 . S
H1207 C1203 0.930 . S
H1208 C1205 0.929 . S
S1209 N1210 1.613 . S
S1209 N1211 1.610 . S
N1210 S1209 1.613 . S
N1210 C1213 1.350 . S
N1211 S1209 1.610 . S
N1211 C1212 1.351 . S
C1212 C1206 1.428 . S
C1212 N1211 1.351 . S
C1212 C1213 1.434 . S
C1213 C1204 1.429 . S
C1213 N1210 1.350 . S
C1213 C1212 1.434 . S
C1214 C1215 1.369 . S
C1214 C1216 1.419 . S
C1214 H1218 0.930 . S
C1215 C1214 1.369 . S
C1215 C1224 1.429 . S
C1216 C1214 1.419 . S
C1216 C1217 1.363 . S
C1216 H1219 0.929 . S
C1217 C1216 1.363 . S
C1217 C1223 1.428 . S
H1218 C1214 0.930 . S
H1219 C1216 0.929 . S
S1220 N1221 1.613 . S
S1220 N1222 1.610 . S
N1221 S1220 1.613 . S
N1221 C1224 1.350 . S
N1222 S1220 1.610 . S
N1222 C1223 1.351 . S
C1223 C1217 1.428 . S
C1223 N1222 1.351 . S
C1223 C1224 1.434 . S
C1224 C1215 1.429 . S
C1224 N1221 1.350 . S
C1224 C1223 1.434 . S
C1225 C1226 1.369 . S
C1225 C1227 1.419 . S
C1225 H1229 0.930 . S
C1226 C1225 1.369 . S
C1226 C1235 1.429 . S
C1227 C1225 1.419 . S
C1227 C1228 1.363 . S
C1227 H1230 0.929 . S
C1228 C1227 1.363 . S
C1228 C1234 1.428 . S
H1229 C1225 0.930 . S
H1230 C1227 0.929 . S
S1231 N1232 1.613 . S
S1231 N1233 1.610 . S
N1232 S1231 1.613 . S
N1232 C1235 1.350 . S
N1233 S1231 1.610 . S
N1233 C1234 1.351 . S
C1234 C1228 1.428 . S
C1234 N1233 1.351 . S
C1234 C1235 1.434 . S
C1235 C1226 1.429 . S
C1235 N1232 1.350 . S
C1235 C1234 1.434 . S
C1236 C1237 1.369 . S
C1236 C1238 1.419 . S
C1236 H1240 0.930 . S
C1237 C1236 1.369 . S
C1237 C1246 1.429 . S
C1238 C1236 1.419 . S
C1238 C1239 1.363 . S
C1238 H1241 0.929 . S
C1239 C1238 1.363 . S
C1239 C1245 1.428 . S
H1240 C1236 0.930 . S
H1241 C1238 0.929 . S
S1242 N1243 1.613 . S
S1242 N1244 1.610 . S
N1243 S1242 1.613 . S
N1243 C1246 1.350 . S
N1244 S1242 1.610 . S
N1244 C1245 1.351 . S
C1245 C1239 1.428 . S
C1245 N1244 1.351 . S
C1245 C1246 1.434 . S
C1246 C1237 1.429 . S
C1246 N1243 1.350 . S
C1246 C1245 1.434 . S
C1247 C1248 1.369 . S
C1247 C1249 1.419 . S
C1247 H1251 0.930 . S
C1248 C1247 1.369 . S
C1248 C1257 1.429 . S
C1249 C1247 1.419 . S
C1249 C1250 1.363 . S
C1249 H1252 0.929 . S
C1250 C1249 1.363 . S
C1250 C1256 1.428 . S
H1251 C1247 0.930 . S
H1252 C1249 0.929 . S
S1253 N1254 1.613 . S
S1253 N1255 1.610 . S
N1254 S1253 1.613 . S
N1254 C1257 1.350 . S
N1255 S1253 1.610 . S
N1255 C1256 1.351 . S
C1256 C1250 1.428 . S
C1256 N1255 1.351 . S
C1256 C1257 1.434 . S
C1257 C1248 1.429 . S
C1257 N1254 1.350 . S
C1257 C1256 1.434 . S
C1258 C1259 1.369 . S
C1258 C1260 1.419 . S
C1258 H1262 0.930 . S
C1259 C1258 1.369 . S
C1259 C1268 1.429 . S
C1260 C1258 1.419 . S
C1260 C1261 1.363 . S
C1260 H1263 0.929 . S
C1261 C1260 1.363 . S
C1261 C1267 1.428 . S
H1262 C1258 0.930 . S
H1263 C1260 0.929 . S
S1264 N1265 1.613 . S
S1264 N1266 1.610 . S
N1265 S1264 1.613 . S
N1265 C1268 1.350 . S
N1266 S1264 1.610 . S
N1266 C1267 1.351 . S
C1267 C1261 1.428 . S
C1267 N1266 1.351 . S
C1267 C1268 1.434 . S
C1268 C1259 1.429 . S
C1268 N1265 1.350 . S
C1268 C1267 1.434 . S
C1269 C1270 1.369 . S
C1269 C1271 1.419 . S
C1269 H1273 0.930 . S
C1270 C1269 1.369 . S
C1270 C1279 1.429 . S
C1271 C1269 1.419 . S
C1271 C1272 1.363 . S
C1271 H1274 0.929 . S
C1272 C1271 1.363 . S
C1272 C1278 1.428 . S
H1273 C1269 0.930 . S
H1274 C1271 0.929 . S
S1275 N1276 1.613 . S
S1275 N1277 1.610 . S
N1276 S1275 1.613 . S
N1276 C1279 1.350 . S
N1277 S1275 1.610 . S
N1277 C1278 1.351 . S
C1278 C1272 1.428 . S
C1278 N1277 1.351 . S
C1278 C1279 1.434 . S
C1279 C1270 1.429 . S
C1279 N1276 1.350 . S
C1279 C1278 1.434 . S
C1280 C1281 1.369 . S
C1280 C1282 1.419 . S
C1280 H1284 0.930 . S
C1281 C1280 1.369 . S
C1281 C1290 1.429 . S
C1282 C1280 1.419 . S
C1282 C1283 1.363 . S
C1282 H1285 0.929 . S
C1283 C1282 1.363 . S
C1283 C1289 1.428 . S
H1284 C1280 0.930 . S
H1285 C1282 0.929 . S
S1286 N1287 1.613 . S
S1286 N1288 1.610 . S
N1287 S1286 1.613 . S
N1287 C1290 1.350 . S
N1288 S1286 1.610 . S
N1288 C1289 1.351 . S
C1289 C1283 1.428 . S
C1289 N1288 1.351 . S
C1289 C1290 1.434 . S
C1290 C1281 1.429 . S
C1290 N1287 1.350 . S
C1290 C1289 1.434 . S
C1291 C1292 1.369 . S
C1291 C1293 1.419 . S
C1291 H1295 0.930 . S
C1292 C1291 1.369 . S
C1292 C1301 1.429 . S
C1293 C1291 1.419 . S
C1293 C1294 1.363 . S
C1293 H1296 0.929 . S
C1294 C1293 1.363 . S
C1294 C1300 1.428 . S
H1295 C1291 0.930 . S
H1296 C1293 0.929 . S
S1297 N1298 1.613 . S
S1297 N1299 1.610 . S
N1298 S1297 1.613 . S
N1298 C1301 1.350 . S
N1299 S1297 1.610 . S
N1299 C1300 1.351 . S
C1300 C1294 1.428 . S
C1300 N1299 1.351 . S
C1300 C1301 1.434 . S
C1301 C1292 1.429 . S
C1301 N1298 1.350 . S
C1301 C1300 1.434 . S
C1302 C1303 1.369 . S
C1302 C1304 1.419 . S
C1302 H1306 0.930 . S
C1303 C1302 1.369 . S
C1303 C1312 1.429 . S
C1304 C1302 1.419 . S
C1304 C1305 1.363 . S
C1304 H1307 0.929 . S
C1305 C1304 1.363 . S
C1305 C1311 1.428 . S
H1306 C1302 0.930 . S
H1307 C1304 0.929 . S
S1308 N1309 1.613 . S
S1308 N1310 1.610 . S
N1309 S1308 1.613 . S
N1309 C1312 1.350 . S
N1310 S1308 1.610 . S
N1310 C1311 1.351 . S
C1311 C1305 1.428 . S
C1311 N1310 1.351 . S
C1311 C1312 1.434 . S
C1312 C1303 1.429 . S
C1312 N1309 1.350 . S
C1312 C1311 1.434 . S
C1313 C1314 1.369 . S
C1313 C1315 1.419 . S
C1313 H1317 0.930 . S
C1314 C1313 1.369 . S
C1314 C1323 1.429 . S
C1315 C1313 1.419 . S
C1315 C1316 1.363 . S
C1315 H1318 0.929 . S
C1316 C1315 1.363 . S
C1316 C1322 1.428 . S
H1317 C1313 0.930 . S
H1318 C1315 0.929 . S
S1319 N1320 1.613 . S
S1319 N1321 1.610 . S
N1320 S1319 1.613 . S
N1320 C1323 1.350 . S
N1321 S1319 1.610 . S
N1321 C1322 1.351 . S
C1322 C1316 1.428 . S
C1322 N1321 1.351 . S
C1322 C1323 1.434 . S
C1323 C1314 1.429 . S
C1323 N1320 1.350 . S
C1323 C1322 1.434 . S
C1324 C1325 1.369 . S
C1324 C1326 1.419 . S
C1324 H1328 0.930 . S
C1325 C1324 1.369 . S
C1325 C1334 1.429 . S
C1326 C1324 1.419 . S
C1326 C1327 1.363 . S
C1326 H1329 0.929 . S
C1327 C1326 1.363 . S
C1327 C1333 1.428 . S
H1328 C1324 0.930 . S
H1329 C1326 0.929 . S
S1330 N1331 1.613 1_554 S
S1330 N1332 1.610 . S
N1331 S1330 1.613 1_556 S
N1331 C1334 1.350 1_556 S
N1332 S1330 1.610 . S
N1332 C1333 1.351 . S
C1333 C1327 1.428 . S
C1333 N1332 1.351 . S
C1333 C1334 1.434 . S
C1334 C1325 1.429 . S
C1334 N1331 1.350 1_554 S
C1334 C1333 1.434 . S
C1335 C1336 1.369 . S
C1335 C1337 1.419 . S
C1335 H1339 0.930 . S
C1336 C1335 1.369 . S
C1336 C1345 1.429 . S
C1337 C1335 1.419 . S
C1337 C1338 1.363 . S
C1337 H1340 0.929 . S
C1338 C1337 1.363 . S
C1338 C1344 1.428 . S
H1339 C1335 0.930 . S
H1340 C1337 0.929 . S
S1341 N1342 1.613 . S
S1341 N1343 1.610 . S
N1342 S1341 1.613 . S
N1342 C1345 1.350 . S
N1343 S1341 1.610 . S
N1343 C1344 1.351 . S
C1344 C1338 1.428 . S
C1344 N1343 1.351 . S
C1344 C1345 1.434 . S
C1345 C1336 1.429 . S
C1345 N1342 1.350 . S
C1345 C1344 1.434 . S
C1346 C1347 1.369 . S
C1346 C1348 1.419 . S
C1346 H1350 0.930 . S
C1347 C1346 1.369 . S
C1347 C1356 1.429 . S
C1348 C1346 1.419 . S
C1348 C1349 1.363 . S
C1348 H1351 0.929 . S
C1349 C1348 1.363 . S
C1349 C1355 1.428 . S
H1350 C1346 0.930 . S
H1351 C1348 0.929 . S
S1352 N1353 1.613 . S
S1352 N1354 1.610 . S
N1353 S1352 1.613 . S
N1353 C1356 1.350 . S
N1354 S1352 1.610 . S
N1354 C1355 1.351 . S
C1355 C1349 1.428 . S
C1355 N1354 1.351 . S
C1355 C1356 1.434 . S
C1356 C1347 1.429 . S
C1356 N1353 1.350 . S
C1356 C1355 1.434 . S
C1357 C1358 1.369 . S
C1357 C1359 1.419 . S
C1357 H1361 0.930 . S
C1358 C1357 1.369 . S
C1358 C1367 1.429 . S
C1359 C1357 1.419 . S
C1359 C1360 1.363 . S
C1359 H1362 0.929 . S
C1360 C1359 1.363 . S
C1360 C1366 1.428 . S
H1361 C1357 0.930 . S
H1362 C1359 0.929 . S
S1363 N1364 1.613 . S
S1363 N1365 1.610 . S
N1364 S1363 1.613 . S
N1364 C1367 1.350 . S
N1365 S1363 1.610 . S
N1365 C1366 1.351 . S
C1366 C1360 1.428 . S
C1366 N1365 1.351 . S
C1366 C1367 1.434 . S
C1367 C1358 1.429 . S
C1367 N1364 1.350 . S
C1367 C1366 1.434 . S
C1368 C1369 1.369 . S
C1368 C1370 1.419 . S
C1368 H1372 0.930 . S
C1369 C1368 1.369 . S
C1369 C1378 1.429 . S
C1370 C1368 1.419 . S
C1370 C1371 1.363 . S
C1370 H1373 0.929 . S
C1371 C1370 1.363 . S
C1371 C1377 1.428 . S
H1372 C1368 0.930 . S
H1373 C1370 0.929 . S
S1374 N1375 1.613 . S
S1374 N1376 1.610 . S
N1375 S1374 1.613 . S
N1375 C1378 1.350 . S
N1376 S1374 1.610 . S
N1376 C1377 1.351 . S
C1377 C1371 1.428 . S
C1377 N1376 1.351 . S
C1377 C1378 1.434 . S
C1378 C1369 1.429 . S
C1378 N1375 1.350 . S
C1378 C1377 1.434 . S
C1379 C1380 1.369 . S
C1379 C1381 1.419 . S
C1379 H1383 0.930 . S
C1380 C1379 1.369 . S
C1380 C1389 1.429 . S
C1381 C1379 1.419 . S
C1381 C1382 1.363 . S
C1381 H1384 0.929 . S
C1382 C1381 1.363 . S
C1382 C1388 1.428 . S
H1383 C1379 0.930 . S
H1384 C1381 0.929 . S
S1385 N1386 1.613 . S
S1385 N1387 1.610 . S
N1386 S1385 1.613 . S
N1386 C1389 1.350 . S
N1387 S1385 1.610 . S
N1387 C1388 1.351 . S
C1388 C1382 1.428 . S
C1388 N1387 1.351 . S
C1388 C1389 1.434 . S
C1389 C1380 1.429 . S
C1389 N1386 1.350 . S
C1389 C1388 1.434 . S
C1390 C1391 1.369 . S
C1390 C1392 1.419 . S
C1390 H1394 0.930 . S
C1391 C1390 1.369 . S
C1391 C1400 1.429 . S
C1392 C1390 1.419 . S
C1392 C1393 1.363 . S
C1392 H1395 0.929 . S
C1393 C1392 1.363 . S
C1393 C1399 1.428 . S
H1394 C1390 0.930 . S
H1395 C1392 0.929 . S
S1396 N1397 1.613 . S
S1396 N1398 1.610 . S
N1397 S1396 1.613 . S
N1397 C1400 1.350 . S
N1398 S1396 1.610 . S
N1398 C1399 1.351 . S
C1399 C1393 1.428 . S
C1399 N1398 1.351 . S
C1399 C1400 1.434 . S
C1400 C1391 1.429 . S
C1400 N1397 1.350 . S
C1400 C1399 1.434 . S
C1401 C1402 1.369 . S
C1401 C1403 1.419 . S
C1401 H1405 0.930 . S
C1402 C1401 1.369 . S
C1402 C1411 1.429 . S
C1403 C1401 1.419 . S
C1403 C1404 1.363 . S
C1403 H1406 0.929 . S
C1404 C1403 1.363 . S
C1404 C1410 1.428 . S
H1405 C1401 0.930 . S
H1406 C1403 0.929 . S
S1407 N1408 1.613 . S
S1407 N1409 1.610 . S
N1408 S1407 1.613 . S
N1408 C1411 1.350 . S
N1409 S1407 1.610 . S
N1409 C1410 1.351 . S
C1410 C1404 1.428 . S
C1410 N1409 1.351 . S
C1410 C1411 1.434 . S
C1411 C1402 1.429 . S
C1411 N1408 1.350 . S
C1411 C1410 1.434 . S
C1412 C1413 1.369 . S
C1412 C1414 1.419 . S
C1412 H1416 0.930 . S
C1413 C1412 1.369 . S
C1413 C1422 1.429 . S
C1414 C1412 1.419 . S
C1414 C1415 1.363 . S
C1414 H1417 0.929 . S
C1415 C1414 1.363 . S
C1415 C1421 1.428 . S
H1416 C1412 0.930 . S
H1417 C1414 0.929 . S
S1418 N1419 1.613 . S
S1418 N1420 1.610 . S
N1419 S1418 1.613 . S
N1419 C1422 1.350 . S
N1420 S1418 1.610 . S
N1420 C1421 1.351 . S
C1421 C1415 1.428 . S
C1421 N1420 1.351 . S
C1421 C1422 1.434 . S
C1422 C1413 1.429 . S
C1422 N1419 1.350 . S
C1422 C1421 1.434 . S
C1423 C1424 1.369 . S
C1423 C1425 1.419 . S
C1423 H1427 0.930 . S
C1424 C1423 1.369 . S
C1424 C1433 1.429 . S
C1425 C1423 1.419 . S
C1425 C1426 1.363 . S
C1425 H1428 0.929 . S
C1426 C1425 1.363 . S
C1426 C1432 1.428 . S
H1427 C1423 0.930 . S
H1428 C1425 0.929 . S
S1429 N1430 1.613 1_565 S
S1429 N1431 1.610 1_565 S
N1430 S1429 1.613 1_545 S
N1430 C1433 1.350 . S
N1431 S1429 1.610 1_545 S
N1431 C1432 1.351 . S
C1432 C1426 1.428 . S
C1432 N1431 1.351 . S
C1432 C1433 1.434 . S
C1433 C1424 1.429 . S
C1433 N1430 1.350 . S
C1433 C1432 1.434 . S
C1434 C1435 1.369 . S
C1434 C1436 1.419 . S
C1434 H1438 0.930 . S
C1435 C1434 1.369 . S
C1435 C1444 1.429 . S
C1436 C1434 1.419 . S
C1436 C1437 1.363 . S
C1436 H1439 0.929 . S
C1437 C1436 1.363 . S
C1437 C1443 1.428 . S
H1438 C1434 0.930 . S
H1439 C1436 0.929 . S
S1440 N1441 1.613 . S
S1440 N1442 1.610 . S
N1441 S1440 1.613 . S
N1441 C1444 1.350 . S
N1442 S1440 1.610 . S
N1442 C1443 1.351 . S
C1443 C1437 1.428 . S
C1443 N1442 1.351 . S
C1443 C1444 1.434 . S
C1444 C1435 1.429 . S
C1444 N1441 1.350 . S
C1444 C1443 1.434 . S
C1445 C1446 1.369 . S
C1445 C1447 1.419 . S
C1445 H1449 0.930 . S
C1446 C1445 1.369 . S
C1446 C1455 1.429 . S
C1447 C1445 1.419 . S
C1447 C1448 1.363 . S
C1447 H1450 0.929 . S
C1448 C1447 1.363 . S
C1448 C1454 1.428 . S
H1449 C1445 0.930 . S
H1450 C1447 0.929 . S
S1451 N1452 1.613 . S
S1451 N1453 1.610 . S
N1452 S1451 1.613 . S
N1452 C1455 1.350 . S
N1453 S1451 1.610 . S
N1453 C1454 1.351 . S
C1454 C1448 1.428 . S
C1454 N1453 1.351 . S
C1454 C1455 1.434 . S
C1455 C1446 1.429 . S
C1455 N1452 1.350 . S
C1455 C1454 1.434 . S
C1456 C1457 1.369 . S
C1456 C1458 1.419 . S
C1456 H1460 0.930 . S
C1457 C1456 1.369 . S
C1457 C1466 1.429 . S
C1458 C1456 1.419 . S
C1458 C1459 1.363 . S
C1458 H1461 0.929 . S
C1459 C1458 1.363 . S
C1459 C1465 1.428 . S
H1460 C1456 0.930 . S
H1461 C1458 0.929 . S
S1462 N1463 1.613 . S
S1462 N1464 1.610 . S
N1463 S1462 1.613 . S
N1463 C1466 1.350 . S
N1464 S1462 1.610 . S
N1464 C1465 1.351 . S
C1465 C1459 1.428 . S
C1465 N1464 1.351 . S
C1465 C1466 1.434 . S
C1466 C1457 1.429 . S
C1466 N1463 1.350 . S
C1466 C1465 1.434 . S
C1467 C1468 1.369 . S
C1467 C1469 1.419 . S
C1467 H1471 0.930 . S
C1468 C1467 1.369 . S
C1468 C1477 1.429 . S
C1469 C1467 1.419 . S
C1469 C1470 1.363 . S
C1469 H1472 0.929 . S
C1470 C1469 1.363 . S
C1470 C1476 1.428 . S
H1471 C1467 0.930 . S
H1472 C1469 0.929 . S
S1473 N1474 1.613 1_655 S
S1473 N1475 1.610 1_655 S
N1474 S1473 1.613 1_455 S
N1474 C1477 1.350 . S
N1475 S1473 1.610 1_455 S
N1475 C1476 1.351 . S
C1476 C1470 1.428 . S
C1476 N1475 1.351 . S
C1476 C1477 1.434 . S
C1477 C1468 1.429 . S
C1477 N1474 1.350 . S
C1477 C1476 1.434 . S
C1478 C1479 1.369 . S
C1478 C1480 1.419 . S
C1478 H1482 0.930 . S
C1479 C1478 1.369 . S
C1479 C1488 1.429 . S
C1480 C1478 1.419 . S
C1480 C1481 1.363 . S
C1480 H1483 0.929 . S
C1481 C1480 1.363 . S
C1481 C1487 1.428 . S
H1482 C1478 0.930 . S
H1483 C1480 0.929 . S
S1484 N1485 1.613 . S
S1484 N1486 1.610 . S
N1485 S1484 1.613 . S
N1485 C1488 1.350 . S
N1486 S1484 1.610 . S
N1486 C1487 1.351 . S
C1487 C1481 1.428 . S
C1487 N1486 1.351 . S
C1487 C1488 1.434 . S
C1488 C1479 1.429 . S
C1488 N1485 1.350 . S
C1488 C1487 1.434 . S
C1489 C1490 1.369 . S
C1489 C1491 1.419 . S
C1489 H1493 0.930 . S
C1490 C1489 1.369 . S
C1490 C1499 1.429 . S
C1491 C1489 1.419 . S
C1491 C1492 1.363 . S
C1491 H1494 0.929 . S
C1492 C1491 1.363 . S
C1492 C1498 1.428 . S
H1493 C1489 0.930 . S
H1494 C1491 0.929 . S
S1495 N1496 1.613 1_545 S
S1495 N1497 1.610 1_545 S
N1496 S1495 1.613 1_565 S
N1496 C1499 1.350 . S
N1497 S1495 1.610 1_565 S
N1497 C1498 1.351 . S
C1498 C1492 1.428 . S
C1498 N1497 1.351 . S
C1498 C1499 1.434 . S
C1499 C1490 1.429 . S
C1499 N1496 1.350 . S
C1499 C1498 1.434 . S
C1500 C1501 1.369 . S
C1500 C1502 1.419 . S
C1500 H1504 0.930 . S
C1501 C1500 1.369 . S
C1501 C1510 1.429 . S
C1502 C1500 1.419 . S
C1502 C1503 1.363 . S
C1502 H1505 0.929 . S
C1503 C1502 1.363 . S
C1503 C1509 1.428 . S
H1504 C1500 0.930 . S
H1505 C1502 0.929 . S
S1506 N1507 1.613 . S
S1506 N1508 1.610 . S
N1507 S1506 1.613 . S
N1507 C1510 1.350 . S
N1508 S1506 1.610 . S
N1508 C1509 1.351 . S
C1509 C1503 1.428 . S
C1509 N1508 1.351 . S
C1509 C1510 1.434 . S
C1510 C1501 1.429 . S
C1510 N1507 1.350 . S
C1510 C1509 1.434 . S
C1511 C1512 1.369 1_565 S
C1511 C1513 1.419 . S
C1511 H1515 0.930 . S
C1512 C1511 1.369 1_545 S
C1512 C1521 1.429 . S
C1513 C1511 1.419 . S
C1513 C1514 1.363 . S
C1513 H1516 0.929 . S
C1514 C1513 1.363 . S
C1514 C1520 1.428 1_565 S
H1515 C1511 0.930 . S
H1516 C1513 0.929 . S
S1517 N1518 1.613 . S
S1517 N1519 1.610 . S
N1518 S1517 1.613 . S
N1518 C1521 1.350 . S
N1519 S1517 1.610 . S
N1519 C1520 1.351 . S
C1520 C1514 1.428 1_545 S
C1520 N1519 1.351 . S
C1520 C1521 1.434 . S
C1521 C1512 1.429 . S
C1521 N1518 1.350 . S
C1521 C1520 1.434 . S
C1522 C1523 1.369 1_655 S
C1522 C1524 1.419 . S
C1522 H1526 0.930 . S
C1523 C1522 1.369 1_455 S
C1523 C1532 1.429 . S
C1524 C1522 1.419 . S
C1524 C1525 1.363 . S
C1524 H1527 0.929 . S
C1525 C1524 1.363 . S
C1525 C1531 1.428 1_655 S
H1526 C1522 0.930 . S
H1527 C1524 0.929 . S
S1528 N1529 1.613 . S
S1528 N1530 1.610 . S
N1529 S1528 1.613 . S
N1529 C1532 1.350 . S
N1530 S1528 1.610 . S
N1530 C1531 1.351 . S
C1531 C1525 1.428 1_455 S
C1531 N1530 1.351 . S
C1531 C1532 1.434 . S
C1532 C1523 1.429 . S
C1532 N1529 1.350 . S
C1532 C1531 1.434 . S
C1533 C1534 1.369 . S
C1533 C1535 1.419 . S
C1533 H1537 0.930 . S
C1534 C1533 1.369 . S
C1534 C1543 1.429 . S
C1535 C1533 1.419 . S
C1535 C1536 1.363 . S
C1535 H1538 0.929 . S
C1536 C1535 1.363 . S
C1536 C1542 1.428 . S
H1537 C1533 0.930 . S
H1538 C1535 0.929 . S
S1539 N1540 1.613 . S
S1539 N1541 1.610 . S
N1540 S1539 1.613 . S
N1540 C1543 1.350 . S
N1541 S1539 1.610 . S
N1541 C1542 1.351 . S
C1542 C1536 1.428 . S
C1542 N1541 1.351 . S
C1542 C1543 1.434 . S
C1543 C1534 1.429 . S
C1543 N1540 1.350 . S
C1543 C1542 1.434 . S
C1544 C1545 1.369 1_565 S
C1544 C1546 1.419 . S
C1544 H1548 0.930 . S
C1545 C1544 1.369 1_545 S
C1545 C1554 1.429 . S
C1546 C1544 1.419 . S
C1546 C1547 1.363 . S
C1546 H1549 0.929 . S
C1547 C1546 1.363 . S
C1547 C1553 1.428 1_565 S
H1548 C1544 0.930 . S
H1549 C1546 0.929 . S
S1550 N1551 1.613 . S
S1550 N1552 1.610 . S
N1551 S1550 1.613 . S
N1551 C1554 1.350 . S
N1552 S1550 1.610 . S
N1552 C1553 1.351 . S
C1553 C1547 1.428 1_545 S
C1553 N1552 1.351 . S
C1553 C1554 1.434 . S
C1554 C1545 1.429 . S
C1554 N1551 1.350 . S
C1554 C1553 1.434 . S
C1555 C1556 1.369 . S
C1555 C1557 1.419 1_655 S
C1555 H1559 0.930 . S
C1556 C1555 1.369 . S
C1556 C1565 1.429 1_655 S
C1557 C1555 1.419 1_455 S
C1557 C1558 1.363 . S
C1557 H1560 0.929 . S
C1558 C1557 1.363 . S
C1558 C1564 1.428 . S
H1559 C1555 0.930 . S
H1560 C1557 0.929 . S
S1561 N1562 1.613 . S
S1561 N1563 1.610 . S
N1562 S1561 1.613 . S
N1562 C1565 1.350 . S
N1563 S1561 1.610 . S
N1563 C1564 1.351 . S
C1564 C1558 1.428 . S
C1564 N1563 1.351 . S
C1564 C1565 1.434 . S
C1565 C1556 1.429 1_455 S
C1565 N1562 1.350 . S
C1565 C1564 1.434 . S
C775 C76 1.918 . S
C777 C33 1.918 . S
C786 C83 1.919 . S
C788 C119 1.917 . S
C797 C126 1.917 . S
C799 C40 1.919 . S
C808 C212 1.917 . S
C810 C169 1.919 . S
C819 C255 1.917 . S
C821 C205 1.919 . S
C830 C248 1.917 . S
C832 C162 1.919 . S
C841 C298 1.918 . S
C843 C341 1.918 . S
C852 C334 1.919 . S
C854 C384 1.918 . S
C863 C291 1.917 . S
C865 C377 1.919 . S
C874 C427 1.919 . S
C876 C463 1.918 . S
C885 C506 1.917 . S
C887 C470 1.919 . S
C896 C513 1.918 . S
C898 C420 1.918 . S
C907 C556 1.918 . S
C909 C599 1.918 . S
C918 C592 1.918 . S
C920 C635 1.918 . S
C929 C642 1.918 . S
C931 C549 1.919 . S
C940 C721 1.919 . S
C942 C685 1.917 . S
C951 C728 1.919 . S
C953 C771 1.917 . S
C962 C764 1.918 . S
C964 C678 1.918 . S
C973 C13 1.109 . S
C975 N223 1.018 . S
C984 C82 1.112 . S
C986 N132 1.020 . S
C995 C125 1.109 . S
C997 N180 1.018 . S
C1006 C56 1.122 . S
C1008 N218 1.032 . S
C1017 N137 1.037 . S
C1019 C99 1.122 . S
C1028 C39 1.124 . S
C1030 N175 1.035 . S
C1039 N89 1.018 . S
C1041 C168 1.112 . S
C1050 C185 1.124 . S
C1052 N8 1.035 . S
C1061 C228 1.119 . S
C1063 N46 1.030 . S
C1072 C211 1.109 . S
C1074 N94 1.018 . S
C1083 C254 1.115 . S
C1085 N3 1.026 . S
C1094 N51 1.024 . S
C1096 C142 1.115 . S
C1105 C297 1.109 . S
C1107 N476 1.018 . S
C1116 N390 1.021 . S
C1118 C314 1.112 . S
C1127 N433 1.037 . S
C1129 C357 1.122 . S
C1138 C340 1.123 . S
C1140 N481 1.035 . S
C1149 N395 1.036 . S
C1151 C383 1.122 . S
C1160 N438 1.035 . S
C1162 C271 1.120 . S
C1171 C426 1.122 . S
C1173 N352 1.033 . S
C1182 N261 1.028 . S
C1184 C469 1.117 . S
C1193 N309 1.031 . S
C1195 C512 1.119 . S
C1204 N347 1.016 . S
C1206 C443 1.111 . S
C1215 C486 1.112 . S
C1217 N266 1.021 . S
C1226 C400 1.118 . S
C1228 N304 1.028 . S
C1237 C555 1.118 . S
C1239 N739 1.031 . S
C1248 C572 1.123 . S
C1250 N648 1.035 . S
C1259 N691 1.030 . S
C1261 C641 1.117 . S
C1270 C598 1.117 . S
C1272 N734 1.026 . S
C1281 C615 1.110 . S
C1283 N653 1.018 . S
C1292 N696 1.017 . S
C1294 C529 1.111 . S
C1303 C684 1.121 . S
C1305 N605 1.031 . S
C1314 C727 1.119 . S
C1316 N519 1.028 . S
C1325 C744 1.122 . S
C1327 N567 1.034 . S
C1336 C701 1.118 . S
C1338 N610 1.029 . S
C1347 C770 1.111 . S
C1349 N524 1.020 . S
C1358 C658 1.123 . S
C1360 N562 1.034 . S
C1369 C32 2.184 . S
C1371 C586 2.187 . S
C1380 C70 2.186 . S
C1382 C634 2.186 . S
C1391 C548 2.190 . S
C1393 C113 2.183 . S
C1402 C285 2.180 1_556 S
C1404 C75 2.191 . S
C1413 C333 2.188 1_556 S
C1415 C118 2.184 . S
C1424 C27 2.181 . S
C1426 C376 2.191 1_556 S
C1435 C156 2.181 . S
C1437 C462 2.189 . S
C1446 C204 2.181 . S
C1448 C505 2.190 . S
C1457 C419 2.191 . S
C1459 C247 2.182 . S
C1468 C199 2.189 . S
C1470 C672 2.186 1_554 S
C1479 C715 2.181 1_554 S
C1481 C242 2.190 . S
C1490 C763 2.189 1_554 S
C1492 C161 2.186 . S
C1501 C328 2.181 . S
C1503 C543 2.189 . S
C1512 C371 2.180 . S
C1514 C591 2.191 . S
C1523 C629 2.181 . S
C1525 C290 2.190 . S
C1534 C414 2.192 . S
C1536 C720 2.182 . S
C1545 C457 2.180 . S
C1547 C758 2.191 . S
C1556 C500 2.190 . S
C1558 C677 2.184 . S
