# Generated by pormake.
# Topology smk, (6)-cn, num edge types: 1
# Building blocks:
#     Node 0, Type 0, BuildingBlock: IZENUY_clean_sbu_0, # of connection points: 6
#     Node 1, Type 0, BuildingBlock: IZENUY_clean_sbu_0, # of connection points: 6
#     Node 2, Type 0, BuildingBlock: IZENUY_clean_sbu_0, # of connection points: 6
#     Node 3, Type 0, BuildingBlock: IZENUY_clean_sbu_0, # of connection points: 6
#     Node 4, Type 0, BuildingBlock: IZENUY_clean_sbu_0, # of connection points: 6
#     Node 5, Type 0, BuildingBlock: IZENUY_clean_sbu_0, # of connection points: 6
#     Edge 6, Type (0, 0), BuildingBlock: OJICUG_clean_linker_0, # of connection points: 2
#     Edge 7, Type (0, 0), BuildingBlock: OJICUG_clean_linker_0, # of connection points: 2
#     Edge 8, Type (0, 0), BuildingBlock: OJICUG_clean_linker_0, # of connection points: 2
#     Edge 9, Type (0, 0), BuildingBlock: OJICUG_clean_linker_0, # of connection points: 2
#     Edge 10, Type (0, 0), BuildingBlock: OJICUG_clean_linker_0, # of connection points: 2
#     Edge 11, Type (0, 0), BuildingBlock: OJICUG_clean_linker_0, # of connection points: 2
#     Edge 12, Type (0, 0), BuildingBlock: OJICUG_clean_linker_0, # of connection points: 2
#     Edge 13, Type (0, 0), BuildingBlock: OJICUG_clean_linker_0, # of connection points: 2
#     Edge 14, Type (0, 0), BuildingBlock: OJICUG_clean_linker_0, # of connection points: 2
#     Edge 15, Type (0, 0), BuildingBlock: OJICUG_clean_linker_0, # of connection points: 2
#     Edge 16, Type (0, 0), BuildingBlock: OJICUG_clean_linker_0, # of connection points: 2
#     Edge 17, Type (0, 0), BuildingBlock: OJICUG_clean_linker_0, # of connection points: 2
#     Edge 18, Type (0, 0), BuildingBlock: OJICUG_clean_linker_0, # of connection points: 2
#     Edge 19, Type (0, 0), BuildingBlock: OJICUG_clean_linker_0, # of connection points: 2
#     Edge 20, Type (0, 0), BuildingBlock: OJICUG_clean_linker_0, # of connection points: 2
#     Edge 21, Type (0, 0), BuildingBlock: OJICUG_clean_linker_0, # of connection points: 2
#     Edge 22, Type (0, 0), BuildingBlock: OJICUG_clean_linker_0, # of connection points: 2
#     Edge 23, Type (0, 0), BuildingBlock: OJICUG_clean_linker_0, # of connection points: 2
# Relax obj value: 0.171
# Max RMSD: 0.207
# Mean RMSD: 0.207
data_MOF--net-smk--node1-IZENUY_clean_sbu_0--edge1-OJICUG_clean_linker_0
_symmetry_space_group_name_H-M    P1
_symmetry_Int_Tables_number       1
_symmetry_cell_setting            triclinic
loop_
_symmetry_equiv_pos_as_xyz
'x, y, z'
_cell_length_a     31.235589
_cell_length_b     31.246431
_cell_length_c     11.148975
_cell_angle_alpha  90.035453
_cell_angle_beta   89.927273
_cell_angle_gamma 119.96981
loop_
_atom_site_label
_atom_site_type_symbol
_atom_site_fract_x
_atom_site_fract_y
_atom_site_fract_z
_atom_type_partial_charge
Fe0 Fe 0.48815 0.27965 0.71348 0.0
Fe1 Fe 0.38911 0.20021 0.60868 0.0
O2 O 0.45468 0.23168 0.60941 0.0
Fe3 Fe 0.48741 0.21593 0.50584 0.0
O4 O 0.51625 0.19968 0.62484 0.0
O5 O 0.54083 0.26875 0.72378 0.0
O6 O 0.46072 0.23751 0.83666 0.0
C7 C 0.41498 0.21395 0.85768 0.0
C8 C 0.5453 0.32089 0.51793 0.0
O9 O 0.38369 0.20432 0.77416 0.0
C10 C 0.41533 0.21276 0.36179 0.0
O11 O 0.44188 0.29955 0.72468 0.0
O12 O 0.38835 0.2573 0.58364 0.0
O13 O 0.54088 0.2791 0.49458 0.0
O14 O 0.51767 0.32467 0.59462 0.0
C15 C 0.4041 0.12277 0.56491 0.0
O16 O 0.3835 0.19087 0.44384 0.0
O17 O 0.4609 0.23145 0.38169 0.0
C18 C 0.40762 0.2936 0.65427 0.0
O19 O 0.38472 0.14083 0.6324 0.0
O20 O 0.44011 0.15011 0.49721 0.0
C21 C 0.54445 0.23095 0.70071 0.0
Fe22 Fe 0.22656 0.47968 0.87895 0.0
Fe23 Fe 0.20848 0.38106 0.77462 0.0
O24 O 0.2409 0.44652 0.77369 0.0
Fe25 Fe 0.28782 0.47924 0.66672 0.0
O26 O 0.33429 0.50872 0.7827 0.0
O27 O 0.29007 0.53247 0.88713 0.0
O28 O 0.24233 0.45278 1.00156 0.0
C29 C 0.22079 0.40714 1.02311 0.0
C30 C 0.24067 0.53679 0.68435 0.0
O31 O 0.19947 0.3757 0.93992 0.0
C32 C 0.21855 0.40628 0.52724 0.0
O33 O 0.16066 0.43287 0.89105 0.0
O34 O 0.14956 0.37841 0.7518 0.0
O35 O 0.27786 0.53249 0.65836 0.0
O36 O 0.20989 0.50893 0.76167 0.0
C37 C 0.30106 0.39822 0.72516 0.0
O38 O 0.21148 0.37513 0.60917 0.0
O39 O 0.24395 0.45203 0.54649 0.0
C40 C 0.13245 0.39796 0.82182 0.0
O41 O 0.26523 0.37936 0.7976 0.0
O42 O 0.30649 0.43207 0.65375 0.0
C43 C 0.33148 0.5366 0.86042 0.0
Fe44 Fe 0.84726 0.2009 0.94077 0.0
Fe45 Fe 0.82684 0.27909 0.83198 0.0
O46 O 0.81232 0.23151 0.93757 0.0
Fe47 Fe 0.76284 0.21526 0.03823 0.0
O48 O 0.80285 0.22938 0.16589 0.0
O49 O 0.84298 0.19184 0.10564 0.0
O50 O 0.90445 0.25857 0.9657 0.0
C51 C 0.92137 0.29398 0.89259 0.0
C52 C 0.75451 0.12249 0.98133 0.0
O53 O 0.8929 0.29863 0.82005 0.0
C54 C 0.72217 0.23108 0.84183 0.0
O55 O 0.85655 0.20409 0.77496 0.0
O56 O 0.81153 0.23594 0.71092 0.0
O57 O 0.74401 0.14943 0.04547 0.0
O58 O 0.79305 0.14087 0.91764 0.0
C59 C 0.81089 0.32057 0.02684 0.0
O60 O 0.76362 0.26901 0.82087 0.0
O61 O 0.71889 0.19954 0.9168 0.0
C62 C 0.83226 0.21078 0.69254 0.0
O63 O 0.84237 0.32442 0.95001 0.0
O64 O 0.77329 0.27878 0.04986 0.0
C65 C 0.82905 0.21014 0.18833 0.0
Fe66 Fe 0.66323 0.83571 0.10701 0.0
Fe67 Fe 0.56471 0.81892 1.00331 0.0
O68 O 0.59757 0.80267 0.10546 0.0
Fe69 Fe 0.56384 0.75276 0.2049 0.0
O70 O 0.59015 0.79235 0.33294 0.0
O71 O 0.66787 0.83077 0.27205 0.0
O72 O 0.66577 0.89402 0.13311 0.0
C73 C 0.64704 0.91225 0.06472 0.0
C74 C 0.64689 0.74241 0.1462 0.0
O75 O 0.61149 0.88497 0.99618 0.0
C76 C 0.50788 0.71405 1.00693 0.0
O77 O 0.6692 0.8456 0.94184 0.0
O78 O 0.59189 0.80476 0.87843 0.0
O79 O 0.6102 0.733 0.21193 0.0
O80 O 0.66677 0.78041 0.08116 0.0
C81 C 0.50716 0.80145 0.19848 0.0
O82 O 0.51146 0.75578 0.98889 0.0
O83 O 0.53557 0.70977 0.08191 0.0
C84 C 0.63755 0.82367 0.85926 0.0
O85 O 0.5354 0.83365 0.12419 0.0
O86 O 0.51086 0.76337 0.21805 0.0
C87 C 0.63572 0.81774 0.355 0.0
Fe88 Fe 0.84485 0.6528 0.26926 0.0
Fe89 Fe 0.76161 0.55364 0.17137 0.0
O90 O 0.81152 0.58716 0.27078 0.0
Fe91 Fe 0.82758 0.55411 0.37287 0.0
O92 O 0.81332 0.58125 0.49776 0.0
O93 O 0.85466 0.65857 0.43443 0.0
O94 O 0.78971 0.65665 0.29518 0.0
C95 C 0.75164 0.6369 0.23038 0.0
C96 C 0.9211 0.63613 0.31158 0.0
O97 O 0.74195 0.60009 0.16492 0.0
C98 C 0.81035 0.49707 0.177 0.0
O99 O 0.84002 0.65765 0.10425 0.0
O100 O 0.80118 0.58002 0.04327 0.0
O101 O 0.89365 0.60076 0.38041 0.0
O102 O 0.90306 0.65502 0.24307 0.0
C103 C 0.72265 0.49718 0.36861 0.0
O104 O 0.77224 0.50074 0.15769 0.0
O105 O 0.84241 0.52498 0.25187 0.0
C106 C 0.82674 0.62556 1.02124 0.0
O107 O 0.71851 0.52518 0.29429 0.0
O108 O 0.76439 0.50083 0.38691 0.0
C109 C 0.83246 0.62692 0.51695 0.0
Fe110 Fe 0.20809 0.83603 0.43712 0.0
Fe111 Fe 0.22459 0.75306 0.33926 0.0
O112 O 0.24074 0.80298 0.43868 0.0
Fe113 Fe 0.28986 0.81922 0.54081 0.0
O114 O 0.24854 0.8051 0.66571 0.0
O115 O 0.21196 0.84587 0.60228 0.0
O116 O 0.14922 0.78071 0.46277 0.0
C117 C 0.13117 0.74265 0.39789 0.0
C118 C 0.30086 0.91259 0.47947 0.0
O119 O 0.15848 0.73327 0.33225 0.0
C120 C 0.32992 0.80168 0.3457 0.0
O121 O 0.19858 0.83114 0.27206 0.0
O122 O 0.23782 0.79262 0.2112 0.0
O123 O 0.30914 0.88528 0.54789 0.0
O124 O 0.26385 0.8944 0.41123 0.0
C125 C 0.24187 0.71433 0.53721 0.0
O126 O 0.28816 0.76365 0.32609 0.0
O127 O 0.33389 0.83391 0.41994 0.0
C128 C 0.21765 0.81804 0.18913 0.0
O129 O 0.2099 0.71006 0.46225 0.0
O130 O 0.27999 0.75606 0.55531 0.0
C131 C 0.22174 0.82398 0.68487 0.0
C132 C 0.42236 0.25662 0.17312 0.0
C133 C 0.40056 0.21194 0.23637 0.0
H134 H 0.44233 0.29167 1.00166 0.0
C135 C 0.37488 0.16715 0.17301 0.0
H136 H 0.44272 0.29149 0.22022 0.0
C137 C 0.37515 0.16716 0.04687 0.0
C138 C 0.40083 0.212 0.98429 0.0
H139 H 0.35862 0.13224 0.22046 0.0
H140 H 0.35896 0.13236 0.99903 0.0
C141 C 0.42224 0.25665 0.04832 0.0
C142 C 0.1822 0.41243 0.33702 0.0
C143 C 0.20532 0.3912 0.40163 0.0
H144 H 0.16827 0.43276 0.16479 0.0
C145 C 0.22608 0.36674 0.33928 0.0
H146 H 0.16648 0.43191 0.38328 0.0
C147 C 0.22765 0.36771 0.21319 0.0
C148 C 0.20827 0.39296 0.14959 0.0
H149 H 0.24499 0.351 0.38771 0.0
H150 H 0.24734 0.35238 0.16638 0.0
C151 C 0.18348 0.41312 0.21226 0.0
C152 C 0.87732 0.21852 0.37624 0.0
C153 C 0.83207 0.19883 0.31517 0.0
H154 H 0.91302 0.23679 0.54888 0.0
C155 C 0.78779 0.17405 0.38033 0.0
H156 H 0.91186 0.23809 0.32747 0.0
C157 C 0.78841 0.173 0.50503 0.0
C158 C 0.83333 0.19661 0.56727 0.0
H159 H 0.75246 0.1584 0.33487 0.0
H160 H 0.75363 0.15724 0.5532 0.0
C161 C 0.87795 0.21745 0.50239 0.0
C162 C 0.67637 0.86639 0.5419 0.0
C163 C 0.64991 0.82095 0.48199 0.0
H164 H 0.69417 0.90303 0.71351 0.0
C165 C 0.62887 0.77697 0.54859 0.0
H166 H 0.69245 0.90071 0.49204 0.0
C167 C 0.62997 0.77825 0.6733 0.0
C168 C 0.65234 0.82352 0.73412 0.0
H169 H 0.6084 0.7415 0.50409 0.0
H170 H 0.60988 0.74383 0.72242 0.0
C171 C 0.67756 0.86767 0.66808 0.0
C172 C 0.78718 0.61969 0.70313 0.0
C173 C 0.83243 0.64176 0.64209 0.0
H174 H 0.75048 0.59859 0.87256 0.0
C175 C 0.87665 0.66692 0.70785 0.0
H176 H 0.75272 0.59968 0.65422 0.0
C177 C 0.87543 0.66594 0.83404 0.0
C178 C 0.82998 0.63978 0.89424 0.0
H179 H 0.91199 0.68332 0.66222 0.0
H180 H 0.90978 0.68192 0.8837 0.0
C181 C 0.78596 0.61885 0.82786 0.0
C182 C 0.22563 0.8667 1.00222 0.0
C183 C 0.20668 0.82126 0.06214 0.0
H184 H 0.24445 0.90333 0.83061 0.0
C185 C 0.18376 0.77728 0.99554 0.0
H186 H 0.24385 0.90102 0.05208 0.0
C187 C 0.18393 0.77855 0.87082 0.0
C188 C 0.2068 0.82382 0.81001 0.0
H189 H 0.16878 0.74181 0.04004 0.0
H190 H 0.16962 0.74414 0.82171 0.0
C191 C 0.22572 0.86797 0.87605 0.0
C192 C 0.32672 0.04247 0.53531 0.0
C193 C 0.37836 0.0688 0.54688 0.0
H194 H 0.2621 0.97263 0.50089 0.0
C195 C 0.40484 0.0436 0.5339 0.0
H196 H 0.30554 0.06119 0.54337 0.0
C197 C 0.3798 0.99253 0.51238 0.0
C198 C 0.3282 0.96652 0.49849 0.0
H199 H 0.44474 0.06329 0.54182 0.0
H200 H 0.40069 0.97351 0.50492 0.0
C201 C 0.30197 0.992 0.50959 0.0
C202 C 0.37384 0.33364 0.78847 0.0
C203 C 0.3834 0.32335 0.67183 0.0
H204 H 0.33901 0.36449 0.89683 0.0
C205 C 0.36721 0.33932 0.57323 0.0
H206 H 0.38552 0.32118 0.86597 0.0
C207 C 0.34203 0.36535 0.59099 0.0
C208 C 0.33107 0.37426 0.70761 0.0
H209 H 0.37402 0.33163 0.4826 0.0
H210 H 0.32963 0.37707 0.51345 0.0
C211 C 0.34712 0.35813 0.80621 0.0
C212 C 1.00745 0.34064 0.97323 0.0
C213 C 0.9753 0.32359 0.87468 0.0
H214 H 0.08275 0.37902 0.03299 0.0
C215 C 0.99515 0.33259 0.75805 0.0
H216 H 0.99296 0.33394 0.06386 0.0
C217 C 0.04635 0.35689 0.7404 0.0
C218 C 0.0785 0.3741 0.83897 0.0
H219 H 0.97102 0.31931 0.68061 0.0
H220 H 0.06083 0.36228 0.6499 0.0
C221 C 0.05865 0.36647 0.95545 0.0
C222 C 0.64823 0.99219 0.02999 0.0
C223 C 0.67372 0.96616 0.04572 0.0
H224 H 0.65423 0.06297 0.99962 0.0
C225 C 0.72548 0.99162 0.03671 0.0
H226 H 0.60828 0.97317 0.03581 0.0
C227 C 0.75137 0.04211 1.01145 0.0
C228 C 0.72615 0.06847 0.99821 0.0
H229 H 0.74592 0.97223 0.04684 0.0
H230 H 0.79131 0.06082 1.0052 0.0
C231 C 0.67439 0.04327 1.00887 0.0
C232 C 0.67224 0.63714 0.19806 0.0
C233 C 0.72383 0.66308 0.21246 0.0
H234 H 0.60691 0.6423 0.16815 0.0
C235 C 0.74962 0.71477 0.2023 0.0
H236 H 0.65166 0.59722 0.2048 0.0
C237 C 0.72449 0.74011 0.17676 0.0
C238 C 0.67288 0.71444 0.16436 0.0
H239 H 0.78947 0.73558 0.21139 0.0
H240 H 0.74538 0.78002 0.16935 0.0
C241 C 0.64679 0.66278 0.17665 0.0
C242 C 1.00086 0.63686 0.346 0.0
C243 C 0.975 0.66255 0.33085 0.0
H244 H 0.0715 0.64247 0.37672 0.0
C245 C 1.00058 0.71424 0.34109 0.0
H246 H 0.98173 0.59694 0.33925 0.0
C247 C 0.051 0.73985 0.36715 0.0
C248 C 0.0772 0.71443 0.37997 0.0
H249 H 0.98132 0.73483 0.33144 0.0
H250 H 0.06979 0.77975 0.37443 0.0
C251 C 0.0519 0.66276 0.36789 0.0
C252 C 0.63409 0.36533 0.45878 0.0
C253 C 0.58998 0.3661 0.47718 0.0
H254 H 0.71081 0.4065 0.41329 0.0
C255 C 0.59 0.41079 0.46293 0.0
H256 H 0.63537 0.33158 0.47082 0.0
C257 C 0.63325 0.45375 0.42841 0.0
C258 C 0.67744 0.45295 0.41126 0.0
H259 H 0.55649 0.41235 0.47727 0.0
H260 H 0.63226 0.48762 0.4158 0.0
C261 C 0.67747 0.4084 0.42749 0.0
C262 C 0.19539 0.58176 0.63219 0.0
C263 C 0.24002 0.58164 0.64593 0.0
H264 H 0.16093 0.62418 0.58525 0.0
C265 C 0.28492 0.62573 0.628 0.0
H266 H 0.16033 0.54827 0.64622 0.0
C267 C 0.2853 0.66914 0.59704 0.0
C268 C 0.24077 0.66919 0.58064 0.0
H269 H 0.31993 0.62691 0.63972 0.0
H270 H 0.32055 0.70241 0.58284 0.0
C271 C 0.19575 0.62508 0.59792 0.0
C272 C 0.63224 0.18524 0.78654 0.0
C273 C 0.67665 0.23009 0.80195 0.0
H274 H 0.55521 0.15024 0.7405 0.0
C275 C 0.67682 0.27476 0.78598 0.0
H276 H 0.63116 0.15033 0.79898 0.0
C277 C 0.63345 0.2747 0.75649 0.0
C278 C 0.5891 0.22998 0.73964 0.0
H279 H 0.71034 0.30991 0.79886 0.0
H280 H 0.63491 0.30982 0.74455 0.0
C281 C 0.58891 0.18518 0.75372 0.0
C282 C 0.46476 0.62481 0.94616 0.0
C283 C 0.46386 0.66893 0.96349 0.0
H284 H 0.42333 0.54798 0.89796 0.0
C285 C 0.41931 0.66893 0.94717 0.0
H286 H 0.49867 0.62388 0.95875 0.0
C287 C 0.37628 0.62555 0.91633 0.0
C288 C 0.37705 0.58142 0.89846 0.0
H289 H 0.41734 0.70222 0.96138 0.0
H290 H 0.34247 0.62678 0.90472 0.0
C291 C 0.42179 0.5815 0.912 0.0
C292 C 0.85618 0.45338 0.11778 0.0
C293 C 0.81127 0.45278 0.13454 0.0
H294 H 0.89134 0.41177 0.06882 0.0
C295 C 0.76663 0.40835 0.1178 0.0
H296 H 0.89108 0.48714 0.13081 0.0
C297 C 0.7668 0.36524 0.08623 0.0
C298 C 0.8116 0.36581 0.06807 0.0
H299 H 0.73145 0.40659 0.13171 0.0
H300 H 0.73172 0.3316 0.07372 0.0
C301 C 0.85633 0.41036 0.08296 0.0
C302 C 0.46294 0.84706 0.25523 0.0
C303 C 0.4626 0.80224 0.23984 0.0
H304 H 0.42104 0.8821 0.3023 0.0
C305 C 0.41818 0.75757 0.25684 0.0
H306 H 0.49666 0.88199 0.24198 0.0
C307 C 0.37489 0.75763 0.28749 0.0
C308 C 0.37523 0.80236 0.30444 0.0
H309 H 0.4166 0.72243 0.24394 0.0
H310 H 0.34131 0.72253 0.30039 0.0
C311 C 0.41975 0.84712 0.28906 0.0
loop_
_geom_bond_atom_site_label_1
_geom_bond_atom_site_label_2
_geom_bond_distance
_geom_bond_site_symmetry_2
_ccdc_geom_bond_type
Fe0 O2 1.918 . S
Fe0 O5 1.997 . S
Fe0 O6 2.002 . S
Fe0 O11 1.976 . S
Fe0 O14 1.996 . S
Fe1 O2 1.918 . S
Fe1 O9 1.997 . S
Fe1 O12 1.996 . S
Fe1 O16 1.976 . S
Fe1 O19 2.002 . S
O2 Fe0 1.918 . S
O2 Fe1 1.918 . S
O2 Fe3 1.918 . S
Fe3 O2 1.918 . S
Fe3 O4 2.002 . S
Fe3 O13 1.976 . S
Fe3 O17 1.996 . S
Fe3 O20 1.997 . S
O4 Fe3 2.002 . S
O4 C21 1.295 . S
O5 Fe0 1.997 . S
O5 C21 1.235 . S
O6 Fe0 2.002 . S
O6 C7 1.295 . S
C7 O6 1.295 . S
C7 O9 1.235 . S
C8 O13 1.287 . S
C8 O14 1.255 . S
O9 Fe1 1.997 . S
O9 C7 1.235 . S
C10 O16 1.287 . S
C10 O17 1.255 . S
O11 Fe0 1.976 . S
O11 C18 1.287 . S
O12 Fe1 1.996 . S
O12 C18 1.255 . S
O13 Fe3 1.976 . S
O13 C8 1.287 . S
O14 Fe0 1.996 . S
O14 C8 1.255 . S
C15 O19 1.295 . S
C15 O20 1.235 . S
O16 Fe1 1.976 . S
O16 C10 1.287 . S
O17 Fe3 1.996 . S
O17 C10 1.255 . S
C18 O11 1.287 . S
C18 O12 1.255 . S
O19 Fe1 2.002 . S
O19 C15 1.295 . S
O20 Fe3 1.997 . S
O20 C15 1.235 . S
C21 O4 1.295 . S
C21 O5 1.235 . S
Fe22 O24 1.918 . S
Fe22 O27 1.997 . S
Fe22 O28 2.002 . S
Fe22 O33 1.976 . S
Fe22 O36 1.996 . S
Fe23 O24 1.918 . S
Fe23 O31 1.997 . S
Fe23 O34 1.996 . S
Fe23 O38 1.976 . S
Fe23 O41 2.002 . S
O24 Fe22 1.918 . S
O24 Fe23 1.918 . S
O24 Fe25 1.918 . S
Fe25 O24 1.918 . S
Fe25 O26 2.002 . S
Fe25 O35 1.976 . S
Fe25 O39 1.996 . S
Fe25 O42 1.997 . S
O26 Fe25 2.002 . S
O26 C43 1.295 . S
O27 Fe22 1.997 . S
O27 C43 1.235 . S
O28 Fe22 2.002 . S
O28 C29 1.296 . S
C29 O28 1.296 . S
C29 O31 1.243 . S
C30 O35 1.287 . S
C30 O36 1.255 . S
O31 Fe23 1.997 . S
O31 C29 1.243 . S
C32 O38 1.287 . S
C32 O39 1.255 . S
O33 Fe22 1.976 . S
O33 C40 1.287 . S
O34 Fe23 1.996 . S
O34 C40 1.255 . S
O35 Fe25 1.976 . S
O35 C30 1.287 . S
O36 Fe22 1.996 . S
O36 C30 1.255 . S
C37 O41 1.295 . S
C37 O42 1.235 . S
O38 Fe23 1.976 . S
O38 C32 1.287 . S
O39 Fe25 1.996 . S
O39 C32 1.255 . S
C40 O33 1.287 . S
C40 O34 1.255 . S
O41 Fe23 2.002 . S
O41 C37 1.295 . S
O42 Fe25 1.997 . S
O42 C37 1.235 . S
C43 O26 1.295 . S
C43 O27 1.235 . S
Fe44 O46 1.918 . S
Fe44 O49 1.997 1_556 S
Fe44 O50 2.002 . S
Fe44 O55 1.976 . S
Fe44 O58 1.996 . S
Fe45 O46 1.918 . S
Fe45 O53 1.997 . S
Fe45 O56 1.996 . S
Fe45 O60 1.976 . S
Fe45 O63 2.002 . S
O46 Fe44 1.918 . S
O46 Fe45 1.918 . S
O46 Fe47 1.918 1_556 S
Fe47 O46 1.918 1_554 S
Fe47 O48 2.002 . S
Fe47 O57 1.976 . S
Fe47 O61 1.996 1_554 S
Fe47 O64 1.997 . S
O48 Fe47 2.002 . S
O48 C65 1.295 . S
O49 Fe44 1.997 1_554 S
O49 C65 1.235 . S
O50 Fe44 2.002 . S
O50 C51 1.295 . S
C51 O50 1.295 . S
C51 O53 1.235 . S
C52 O57 1.287 1_556 S
C52 O58 1.255 . S
O53 Fe45 1.997 . S
O53 C51 1.235 . S
C54 O60 1.287 . S
C54 O61 1.255 . S
O55 Fe44 1.976 . S
O55 C62 1.287 . S
O56 Fe45 1.996 . S
O56 C62 1.255 . S
O57 Fe47 1.976 . S
O57 C52 1.287 1_554 S
O58 Fe44 1.996 . S
O58 C52 1.255 . S
C59 O63 1.295 1_554 S
C59 O64 1.235 . S
O60 Fe45 1.976 . S
O60 C54 1.287 . S
O61 Fe47 1.996 1_556 S
O61 C54 1.255 . S
C62 O55 1.287 . S
C62 O56 1.255 . S
O63 Fe45 2.002 . S
O63 C59 1.295 1_556 S
O64 Fe47 1.997 . S
O64 C59 1.235 . S
C65 O48 1.295 . S
C65 O49 1.235 . S
Fe66 O68 1.918 . S
Fe66 O71 1.997 . S
Fe66 O72 2.002 . S
Fe66 O77 1.976 1_554 S
Fe66 O80 1.996 . S
Fe67 O68 1.918 1_556 S
Fe67 O75 1.997 . S
Fe67 O78 1.996 . S
Fe67 O82 1.976 . S
Fe67 O85 2.002 1_556 S
O68 Fe66 1.918 . S
O68 Fe67 1.918 1_554 S
O68 Fe69 1.918 . S
Fe69 O68 1.918 . S
Fe69 O70 2.002 . S
Fe69 O79 1.976 . S
Fe69 O83 1.996 . S
Fe69 O86 1.997 . S
O70 Fe69 2.002 . S
O70 C87 1.295 . S
O71 Fe66 1.997 . S
O71 C87 1.235 . S
O72 Fe66 2.002 . S
O72 C73 1.295 . S
C73 O72 1.295 . S
C73 O75 1.235 1_554 S
C74 O79 1.287 . S
C74 O80 1.255 . S
O75 Fe67 1.997 . S
O75 C73 1.235 1_556 S
C76 O82 1.287 . S
C76 O83 1.255 1_556 S
O77 Fe66 1.976 1_556 S
O77 C84 1.287 . S
O78 Fe67 1.996 . S
O78 C84 1.255 . S
O79 Fe69 1.976 . S
O79 C74 1.287 . S
O80 Fe66 1.996 . S
O80 C74 1.255 . S
C81 O85 1.295 . S
C81 O86 1.235 . S
O82 Fe67 1.976 . S
O82 C76 1.287 . S
O83 Fe69 1.996 . S
O83 C76 1.255 1_554 S
C84 O77 1.287 . S
C84 O78 1.255 . S
O85 Fe67 2.002 1_554 S
O85 C81 1.295 . S
O86 Fe69 1.997 . S
O86 C81 1.235 . S
C87 O70 1.295 . S
C87 O71 1.235 . S
Fe88 O90 1.918 . S
Fe88 O93 1.997 . S
Fe88 O94 2.002 . S
Fe88 O99 1.976 . S
Fe88 O102 1.996 . S
Fe89 O90 1.918 . S
Fe89 O97 1.997 . S
Fe89 O100 1.996 1_554 S
Fe89 O104 1.976 . S
Fe89 O107 2.002 . S
O90 Fe88 1.918 . S
O90 Fe89 1.918 . S
O90 Fe91 1.918 . S
Fe91 O90 1.918 . S
Fe91 O92 2.002 . S
Fe91 O101 1.976 . S
Fe91 O105 1.996 . S
Fe91 O108 1.997 . S
O92 Fe91 2.002 . S
O92 C109 1.295 . S
O93 Fe88 1.997 . S
O93 C109 1.235 . S
O94 Fe88 2.002 . S
O94 C95 1.295 . S
C95 O94 1.295 . S
C95 O97 1.235 . S
C96 O101 1.287 . S
C96 O102 1.255 . S
O97 Fe89 1.997 . S
O97 C95 1.235 . S
C98 O104 1.287 . S
C98 O105 1.255 . S
O99 Fe88 1.976 . S
O99 C106 1.287 1_554 S
O100 Fe89 1.996 1_556 S
O100 C106 1.255 . S
O101 Fe91 1.976 . S
O101 C96 1.287 . S
O102 Fe88 1.996 . S
O102 C96 1.255 . S
C103 O107 1.295 . S
C103 O108 1.235 . S
O104 Fe89 1.976 . S
O104 C98 1.287 . S
O105 Fe91 1.996 . S
O105 C98 1.255 . S
C106 O99 1.287 1_556 S
C106 O100 1.255 . S
O107 Fe89 2.002 . S
O107 C103 1.295 . S
O108 Fe91 1.997 . S
O108 C103 1.235 . S
C109 O92 1.295 . S
C109 O93 1.235 . S
Fe110 O112 1.918 . S
Fe110 O115 1.997 . S
Fe110 O116 2.002 . S
Fe110 O121 1.976 . S
Fe110 O124 1.996 . S
Fe111 O112 1.918 . S
Fe111 O119 1.997 . S
Fe111 O122 1.996 . S
Fe111 O126 1.976 . S
Fe111 O129 2.002 . S
O112 Fe110 1.918 . S
O112 Fe111 1.918 . S
O112 Fe113 1.918 . S
Fe113 O112 1.918 . S
Fe113 O114 2.002 . S
Fe113 O123 1.976 . S
Fe113 O127 1.996 . S
Fe113 O130 1.997 . S
O114 Fe113 2.002 . S
O114 C131 1.295 . S
O115 Fe110 1.997 . S
O115 C131 1.235 . S
O116 Fe110 2.002 . S
O116 C117 1.295 . S
C117 O116 1.295 . S
C117 O119 1.235 . S
C118 O123 1.287 . S
C118 O124 1.255 . S
O119 Fe111 1.997 . S
O119 C117 1.235 . S
C120 O126 1.287 . S
C120 O127 1.255 . S
O121 Fe110 1.976 . S
O121 C128 1.287 . S
O122 Fe111 1.996 . S
O122 C128 1.255 . S
O123 Fe113 1.976 . S
O123 C118 1.287 . S
O124 Fe110 1.996 . S
O124 C118 1.255 . S
C125 O129 1.295 . S
C125 O130 1.235 . S
O126 Fe111 1.976 . S
O126 C120 1.287 . S
O127 Fe113 1.996 . S
O127 C120 1.255 . S
C128 O121 1.287 . S
C128 O122 1.255 . S
O129 Fe111 2.002 . S
O129 C125 1.295 . S
O130 Fe113 1.997 . S
O130 C125 1.235 . S
C131 O114 1.295 . S
C131 O115 1.235 . S
C132 C133 1.387 . S
C132 H136 0.950 . S
C132 C141 1.390 . S
C133 C132 1.387 . S
C133 C135 1.387 . S
H134 C141 0.950 1_556 S
C135 C133 1.387 . S
C135 C137 1.390 . S
C135 H139 0.950 . S
H136 C132 0.950 . S
C137 C135 1.390 . S
C137 C138 1.387 1_554 S
C137 H140 0.950 1_554 S
C138 C137 1.387 1_556 S
C138 C141 1.387 1_556 S
H139 C135 0.950 . S
H140 C137 0.950 1_556 S
C141 C132 1.390 . S
C141 H134 0.950 1_554 S
C141 C138 1.387 1_554 S
C142 C143 1.387 . S
C142 H146 0.950 . S
C142 C151 1.390 . S
C143 C142 1.387 . S
C143 C145 1.387 . S
H144 C151 0.950 . S
C145 C143 1.387 . S
C145 C147 1.390 . S
C145 H149 0.950 . S
H146 C142 0.950 . S
C147 C145 1.390 . S
C147 C148 1.387 . S
C147 H150 0.950 . S
C148 C147 1.387 . S
C148 C151 1.387 . S
H149 C145 0.950 . S
H150 C147 0.950 . S
C151 C142 1.390 . S
C151 H144 0.950 . S
C151 C148 1.387 . S
C152 C153 1.387 . S
C152 H156 0.950 . S
C152 C161 1.390 . S
C153 C152 1.387 . S
C153 C155 1.387 . S
H154 C161 0.950 . S
C155 C153 1.387 . S
C155 C157 1.390 . S
C155 H159 0.950 . S
H156 C152 0.950 . S
C157 C155 1.390 . S
C157 C158 1.387 . S
C157 H160 0.950 . S
C158 C157 1.387 . S
C158 C161 1.387 . S
H159 C155 0.950 . S
H160 C157 0.950 . S
C161 C152 1.390 . S
C161 H154 0.950 . S
C161 C158 1.387 . S
C162 C163 1.387 . S
C162 H166 0.950 . S
C162 C171 1.390 . S
C163 C162 1.387 . S
C163 C165 1.387 . S
H164 C171 0.950 . S
C165 C163 1.387 . S
C165 C167 1.390 . S
C165 H169 0.950 . S
H166 C162 0.950 . S
C167 C165 1.390 . S
C167 C168 1.387 . S
C167 H170 0.950 . S
C168 C167 1.387 . S
C168 C171 1.387 . S
H169 C165 0.950 . S
H170 C167 0.950 . S
C171 C162 1.390 . S
C171 H164 0.950 . S
C171 C168 1.387 . S
C172 C173 1.387 . S
C172 H176 0.950 . S
C172 C181 1.390 . S
C173 C172 1.387 . S
C173 C175 1.387 . S
H174 C181 0.950 . S
C175 C173 1.387 . S
C175 C177 1.390 . S
C175 H179 0.950 . S
H176 C172 0.950 . S
C177 C175 1.390 . S
C177 C178 1.387 . S
C177 H180 0.950 . S
C178 C177 1.387 . S
C178 C181 1.387 . S
H179 C175 0.950 . S
H180 C177 0.950 . S
C181 C172 1.390 . S
C181 H174 0.950 . S
C181 C178 1.387 . S
C182 C183 1.387 1_556 S
C182 H186 0.950 . S
C182 C191 1.390 . S
C183 C182 1.387 1_554 S
C183 C185 1.387 1_554 S
H184 C191 0.950 . S
C185 C183 1.387 1_556 S
C185 C187 1.390 . S
C185 H189 0.950 1_556 S
H186 C182 0.950 . S
C187 C185 1.390 . S
C187 C188 1.387 . S
C187 H190 0.950 . S
C188 C187 1.387 . S
C188 C191 1.387 . S
H189 C185 0.950 1_554 S
H190 C187 0.950 . S
C191 C182 1.390 . S
C191 H184 0.950 . S
C191 C188 1.387 . S
C192 C193 1.387 . S
C192 H196 0.950 . S
C192 C201 1.390 1_545 S
C193 C192 1.387 . S
C193 C195 1.387 . S
H194 C201 0.950 . S
C195 C193 1.387 . S
C195 C197 1.390 1_545 S
C195 H199 0.950 . S
H196 C192 0.950 . S
C197 C195 1.390 1_565 S
C197 C198 1.387 . S
C197 H200 0.950 . S
C198 C197 1.387 . S
C198 C201 1.387 . S
H199 C195 0.950 . S
H200 C197 0.950 . S
C201 C192 1.390 1_565 S
C201 H194 0.950 . S
C201 C198 1.387 . S
C202 C203 1.387 . S
C202 H206 0.950 . S
C202 C211 1.390 . S
C203 C202 1.387 . S
C203 C205 1.387 . S
H204 C211 0.950 . S
C205 C203 1.387 . S
C205 C207 1.390 . S
C205 H209 0.950 . S
H206 C202 0.950 . S
C207 C205 1.390 . S
C207 C208 1.387 . S
C207 H210 0.950 . S
C208 C207 1.387 . S
C208 C211 1.387 . S
H209 C205 0.950 . S
H210 C207 0.950 . S
C211 C202 1.390 . S
C211 H204 0.950 . S
C211 C208 1.387 . S
C212 C213 1.387 . S
C212 H216 0.950 1_556 S
C212 C221 1.390 1_655 S
C213 C212 1.387 . S
C213 C215 1.387 . S
H214 C221 0.950 . S
C215 C213 1.387 . S
C215 C217 1.390 1_655 S
C215 H219 0.950 . S
H216 C212 0.950 1_554 S
C217 C215 1.390 1_455 S
C217 C218 1.387 . S
C217 H220 0.950 . S
C218 C217 1.387 . S
C218 C221 1.387 . S
H219 C215 0.950 . S
H220 C217 0.950 . S
C221 C212 1.390 1_455 S
C221 H214 0.950 . S
C221 C218 1.387 . S
C222 C223 1.387 . S
C222 H226 0.950 . S
C222 C231 1.390 1_564 S
C223 C222 1.387 . S
C223 C225 1.387 . S
H224 C231 0.950 . S
C225 C223 1.387 . S
C225 C227 1.390 1_565 S
C225 H229 0.950 . S
H226 C222 0.950 . S
C227 C225 1.390 1_545 S
C227 C228 1.387 1_554 S
C227 H230 0.950 . S
C228 C227 1.387 1_556 S
C228 C231 1.387 . S
H229 C225 0.950 . S
H230 C227 0.950 . S
C231 C222 1.390 1_546 S
C231 H224 0.950 . S
C231 C228 1.387 . S
C232 C233 1.387 . S
C232 H236 0.950 . S
C232 C241 1.390 . S
C233 C232 1.387 . S
C233 C235 1.387 . S
H234 C241 0.950 . S
C235 C233 1.387 . S
C235 C237 1.390 . S
C235 H239 0.950 . S
H236 C232 0.950 . S
C237 C235 1.390 . S
C237 C238 1.387 . S
C237 H240 0.950 . S
C238 C237 1.387 . S
C238 C241 1.387 . S
H239 C235 0.950 . S
H240 C237 0.950 . S
C241 C232 1.390 . S
C241 H234 0.950 . S
C241 C238 1.387 . S
C242 C243 1.387 . S
C242 H246 0.950 . S
C242 C251 1.390 1_655 S
C243 C242 1.387 . S
C243 C245 1.387 . S
H244 C251 0.950 . S
C245 C243 1.387 . S
C245 C247 1.390 1_655 S
C245 H249 0.950 . S
H246 C242 0.950 . S
C247 C245 1.390 1_455 S
C247 C248 1.387 . S
C247 H250 0.950 . S
C248 C247 1.387 . S
C248 C251 1.387 . S
H249 C245 0.950 . S
H250 C247 0.950 . S
C251 C242 1.390 1_455 S
C251 H244 0.950 . S
C251 C248 1.387 . S
C252 C253 1.387 . S
C252 H256 0.950 . S
C252 C261 1.390 . S
C253 C252 1.387 . S
C253 C255 1.387 . S
H254 C261 0.950 . S
C255 C253 1.387 . S
C255 C257 1.390 . S
C255 H259 0.950 . S
H256 C252 0.950 . S
C257 C255 1.390 . S
C257 C258 1.387 . S
C257 H260 0.950 . S
C258 C257 1.387 . S
C258 C261 1.387 . S
H259 C255 0.950 . S
H260 C257 0.950 . S
C261 C252 1.390 . S
C261 H254 0.950 . S
C261 C258 1.387 . S
C262 C263 1.387 . S
C262 H266 0.950 . S
C262 C271 1.390 . S
C263 C262 1.387 . S
C263 C265 1.387 . S
H264 C271 0.950 . S
C265 C263 1.387 . S
C265 C267 1.390 . S
C265 H269 0.950 . S
H266 C262 0.950 . S
C267 C265 1.390 . S
C267 C268 1.387 . S
C267 H270 0.950 . S
C268 C267 1.387 . S
C268 C271 1.387 . S
H269 C265 0.950 . S
H270 C267 0.950 . S
C271 C262 1.390 . S
C271 H264 0.950 . S
C271 C268 1.387 . S
C272 C273 1.387 . S
C272 H276 0.950 . S
C272 C281 1.390 . S
C273 C272 1.387 . S
C273 C275 1.387 . S
H274 C281 0.950 . S
C275 C273 1.387 . S
C275 C277 1.390 . S
C275 H279 0.950 . S
H276 C272 0.950 . S
C277 C275 1.390 . S
C277 C278 1.387 . S
C277 H280 0.950 . S
C278 C277 1.387 . S
C278 C281 1.387 . S
H279 C275 0.950 . S
H280 C277 0.950 . S
C281 C272 1.390 . S
C281 H274 0.950 . S
C281 C278 1.387 . S
C282 C283 1.387 1_554 S
C282 H286 0.950 . S
C282 C291 1.390 . S
C283 C282 1.387 1_556 S
C283 C285 1.387 . S
H284 C291 0.950 . S
C285 C283 1.387 . S
C285 C287 1.390 . S
C285 H289 0.950 . S
H286 C282 0.950 . S
C287 C285 1.390 . S
C287 C288 1.387 . S
C287 H290 0.950 . S
C288 C287 1.387 . S
C288 C291 1.387 1_556 S
H289 C285 0.950 . S
H290 C287 0.950 . S
C291 C282 1.390 . S
C291 H284 0.950 . S
C291 C288 1.387 1_554 S
C292 C293 1.387 . S
C292 H296 0.950 . S
C292 C301 1.390 . S
C293 C292 1.387 . S
C293 C295 1.387 1_554 S
H294 C301 0.950 . S
C295 C293 1.387 1_556 S
C295 C297 1.390 . S
C295 H299 0.950 . S
H296 C292 0.950 . S
C297 C295 1.390 . S
C297 C298 1.387 1_556 S
C297 H300 0.950 . S
C298 C297 1.387 1_554 S
C298 C301 1.387 . S
H299 C295 0.950 . S
H300 C297 0.950 . S
C301 C292 1.390 . S
C301 H294 0.950 . S
C301 C298 1.387 . S
C302 C303 1.387 . S
C302 H306 0.950 . S
C302 C311 1.390 . S
C303 C302 1.387 . S
C303 C305 1.387 . S
H304 C311 0.950 . S
C305 C303 1.387 . S
C305 C307 1.390 . S
C305 H309 0.950 . S
H306 C302 0.950 . S
C307 C305 1.390 . S
C307 C308 1.387 . S
C307 H310 0.950 . S
C308 C307 1.387 . S
C308 C311 1.387 . S
H309 C305 0.950 . S
H310 C307 0.950 . S
C311 C302 1.390 . S
C311 H304 0.950 . S
C311 C308 1.387 . S
C133 C10 1.532 . S
C138 C7 1.525 . S
C143 C32 1.531 . S
C148 C29 1.517 1_554 S
C153 C65 1.526 . S
C158 C62 1.529 . S
C163 C87 1.526 . S
C168 C84 1.529 . S
C173 C109 1.527 . S
C178 C106 1.531 . S
C183 C128 1.532 . S
C188 C131 1.524 . S
C193 C15 1.556 . S
C198 C118 1.569 . S
C203 C18 1.568 . S
C208 C37 1.557 . S
C213 C51 1.556 . S
C218 C40 1.568 . S
C223 C73 1.555 . S
C228 C52 1.568 . S
C233 C95 1.555 . S
C238 C74 1.569 . S
C243 C96 1.568 . S
C248 C117 1.555 . S
C253 C8 1.374 . S
C258 C103 1.359 . S
C263 C30 1.374 . S
C268 C125 1.361 . S
C273 C54 1.375 . S
C278 C21 1.360 . S
C283 C76 1.374 . S
C288 C43 1.359 . S
C293 C98 1.374 . S
C298 C59 1.359 . S
C303 C81 1.361 . S
C308 C120 1.375 . S
