# Generated by pormake.
# Topology umd, (4)-cn, num edge types: 1
# Building blocks:
#     Node 0, Type 0, BuildingBlock: ESEHIV_clean_sbu_0, # of connection points: 4
#     Node 1, Type 0, BuildingBlock: ESEHIV_clean_sbu_0, # of connection points: 4
#     Node 2, Type 0, BuildingBlock: ESEHIV_clean_sbu_0, # of connection points: 4
#     Node 3, Type 0, BuildingBlock: ESEHIV_clean_sbu_0, # of connection points: 4
#     Node 4, Type 0, BuildingBlock: ESEHIV_clean_sbu_0, # of connection points: 4
#     Node 5, Type 0, BuildingBlock: ESEHIV_clean_sbu_0, # of connection points: 4
#     Node 6, Type 0, BuildingBlock: ESEHIV_clean_sbu_0, # of connection points: 4
#     Node 7, Type 0, BuildingBlock: ESEHIV_clean_sbu_0, # of connection points: 4
#     Node 8, Type 0, BuildingBlock: ESEHIV_clean_sbu_0, # of connection points: 4
#     Node 9, Type 0, BuildingBlock: ESEHIV_clean_sbu_0, # of connection points: 4
#     Node 10, Type 0, BuildingBlock: ESEHIV_clean_sbu_0, # of connection points: 4
#     Node 11, Type 0, BuildingBlock: ESEHIV_clean_sbu_0, # of connection points: 4
#     Node 12, Type 0, BuildingBlock: ESEHIV_clean_sbu_0, # of connection points: 4
#     Node 13, Type 0, BuildingBlock: ESEHIV_clean_sbu_0, # of connection points: 4
#     Node 14, Type 0, BuildingBlock: ESEHIV_clean_sbu_0, # of connection points: 4
#     Node 15, Type 0, BuildingBlock: ESEHIV_clean_sbu_0, # of connection points: 4
#     Edge 16, Type (0, 0), BuildingBlock: EZIPEK_clean_linker_0, # of connection points: 2
#     Edge 17, Type (0, 0), BuildingBlock: EZIPEK_clean_linker_0, # of connection points: 2
#     Edge 18, Type (0, 0), BuildingBlock: EZIPEK_clean_linker_0, # of connection points: 2
#     Edge 19, Type (0, 0), BuildingBlock: EZIPEK_clean_linker_0, # of connection points: 2
#     Edge 20, Type (0, 0), BuildingBlock: EZIPEK_clean_linker_0, # of connection points: 2
#     Edge 21, Type (0, 0), BuildingBlock: EZIPEK_clean_linker_0, # of connection points: 2
#     Edge 22, Type (0, 0), BuildingBlock: EZIPEK_clean_linker_0, # of connection points: 2
#     Edge 23, Type (0, 0), BuildingBlock: EZIPEK_clean_linker_0, # of connection points: 2
#     Edge 24, Type (0, 0), BuildingBlock: EZIPEK_clean_linker_0, # of connection points: 2
#     Edge 25, Type (0, 0), BuildingBlock: EZIPEK_clean_linker_0, # of connection points: 2
#     Edge 26, Type (0, 0), BuildingBlock: EZIPEK_clean_linker_0, # of connection points: 2
#     Edge 27, Type (0, 0), BuildingBlock: EZIPEK_clean_linker_0, # of connection points: 2
#     Edge 28, Type (0, 0), BuildingBlock: EZIPEK_clean_linker_0, # of connection points: 2
#     Edge 29, Type (0, 0), BuildingBlock: EZIPEK_clean_linker_0, # of connection points: 2
#     Edge 30, Type (0, 0), BuildingBlock: EZIPEK_clean_linker_0, # of connection points: 2
#     Edge 31, Type (0, 0), BuildingBlock: EZIPEK_clean_linker_0, # of connection points: 2
#     Edge 32, Type (0, 0), BuildingBlock: EZIPEK_clean_linker_0, # of connection points: 2
#     Edge 33, Type (0, 0), BuildingBlock: EZIPEK_clean_linker_0, # of connection points: 2
#     Edge 34, Type (0, 0), BuildingBlock: EZIPEK_clean_linker_0, # of connection points: 2
#     Edge 35, Type (0, 0), BuildingBlock: EZIPEK_clean_linker_0, # of connection points: 2
#     Edge 36, Type (0, 0), BuildingBlock: EZIPEK_clean_linker_0, # of connection points: 2
#     Edge 37, Type (0, 0), BuildingBlock: EZIPEK_clean_linker_0, # of connection points: 2
#     Edge 38, Type (0, 0), BuildingBlock: EZIPEK_clean_linker_0, # of connection points: 2
#     Edge 39, Type (0, 0), BuildingBlock: EZIPEK_clean_linker_0, # of connection points: 2
#     Edge 40, Type (0, 0), BuildingBlock: EZIPEK_clean_linker_0, # of connection points: 2
#     Edge 41, Type (0, 0), BuildingBlock: EZIPEK_clean_linker_0, # of connection points: 2
#     Edge 42, Type (0, 0), BuildingBlock: EZIPEK_clean_linker_0, # of connection points: 2
#     Edge 43, Type (0, 0), BuildingBlock: EZIPEK_clean_linker_0, # of connection points: 2
#     Edge 44, Type (0, 0), BuildingBlock: EZIPEK_clean_linker_0, # of connection points: 2
#     Edge 45, Type (0, 0), BuildingBlock: EZIPEK_clean_linker_0, # of connection points: 2
#     Edge 46, Type (0, 0), BuildingBlock: EZIPEK_clean_linker_0, # of connection points: 2
#     Edge 47, Type (0, 0), BuildingBlock: EZIPEK_clean_linker_0, # of connection points: 2
# Relax obj value: 0.041
# Max RMSD: 0.131
# Mean RMSD: 0.131
data_MOF--net-umd--node1-ESEHIV_clean_sbu_0--edge1-EZIPEK_clean_linker_0
_symmetry_space_group_name_H-M    P1
_symmetry_Int_Tables_number       1
_symmetry_cell_setting            triclinic
loop_
_symmetry_equiv_pos_as_xyz
'x, y, z'
_cell_length_a     36.436194
_cell_length_b     36.399112
_cell_length_c     40.259736
_cell_angle_alpha  89.859486
_cell_angle_beta   90.297957
_cell_angle_gamma 90.051888
loop_
_atom_site_label
_atom_site_type_symbol
_atom_site_fract_x
_atom_site_fract_y
_atom_site_fract_z
_atom_type_partial_charge
Cu0 Cu 0.19185 0.45633 0.16219 0.0
N1 N 0.14072 0.45585 0.15951 0.0
N2 N 0.08274 0.47504 0.16047 0.0
C3 C 0.11823 0.48473 0.16399 0.0
C4 C 0.08262 0.43889 0.15351 0.0
C5 C 0.11858 0.42708 0.15287 0.0
O6 O 0.20478 0.49022 0.19791 0.0
C7 C 0.20211 0.44812 0.09454 0.0
O8 O 0.18429 0.4176 0.10106 0.0
H9 H 0.12762 0.5122 0.16985 0.0
H10 H 0.12794 0.39944 0.14798 0.0
N11 N 0.20814 0.40942 0.17377 0.0
N12 N 0.24231 0.35896 0.17841 0.0
C13 C 0.23911 0.39236 0.16414 0.0
C14 C 0.19157 0.38612 0.19497 0.0
C15 C 0.21262 0.35485 0.19784 0.0
C16 C 0.2318 0.48531 0.21765 0.0
O17 O 0.25559 0.45908 0.2117 0.0
H18 H 0.25914 0.40433 0.14757 0.0
H19 H 0.16618 0.39177 0.20777 0.0
O20 O 0.21024 0.46979 0.11831 0.0
H21 H 0.05832 0.42238 0.1493 0.0
H22 H 0.20696 0.33115 0.21329 0.0
Cu23 Cu 0.60083 0.1867 0.64714 0.0
N24 N 0.59872 0.13552 0.64509 0.0
N25 N 0.57515 0.079 0.64542 0.0
C26 C 0.56935 0.11466 0.65258 0.0
C27 C 0.60926 0.07715 0.63282 0.0
C28 C 0.62371 0.11222 0.63245 0.0
O29 O 0.56801 0.20164 0.68275 0.0
C30 C 0.58048 0.23636 0.59383 0.0
O31 O 0.58083 0.26332 0.61544 0.0
H32 H 0.54383 0.12549 0.66212 0.0
H33 H 0.65006 0.12033 0.6226 0.0
N34 N 0.64887 0.20226 0.656 0.0
N35 N 0.69829 0.23779 0.66199 0.0
C36 C 0.66261 0.23652 0.65304 0.0
C37 C 0.67689 0.18148 0.66735 0.0
C38 C 0.70749 0.20338 0.67099 0.0
C39 C 0.57916 0.19802 0.71264 0.0
O40 O 0.61308 0.18749 0.71831 0.0
H41 H 0.64686 0.26006 0.64488 0.0
H42 H 0.67505 0.15253 0.67314 0.0
O43 O 0.58648 0.20355 0.60323 0.0
H44 H 0.6222 0.05243 0.62366 0.0
H45 H 0.73426 0.19494 0.67993 0.0
Cu46 Cu 0.85363 0.59905 0.16692 0.0
N47 N 0.90406 0.59422 0.17427 0.0
N48 N 0.96026 0.57022 0.1757 0.0
C49 C 0.9258 0.56672 0.16378 0.0
C50 C 0.96035 0.60074 0.19451 0.0
C51 C 0.92551 0.61542 0.19374 0.0
O52 O 0.82993 0.56965 0.20097 0.0
C53 C 0.86048 0.59696 0.0986 0.0
O54 O 0.88761 0.61941 0.10571 0.0
H55 H 0.91639 0.54414 0.14849 0.0
H56 H 0.9162 0.63926 0.20725 0.0
N57 N 0.83995 0.64835 0.16991 0.0
N58 N 0.80581 0.69907 0.17087 0.0
C59 C 0.80583 0.6621 0.17329 0.0
C60 C 0.86189 0.67762 0.16487 0.0
C61 C 0.84088 0.70901 0.16558 0.0
C62 C 0.83297 0.57968 0.23116 0.0
O63 O 0.84836 0.6114 0.23806 0.0
H64 H 0.78146 0.64541 0.17627 0.0
H65 H 0.89091 0.67618 0.15963 0.0
O66 O 0.84167 0.58309 0.12207 0.0
H67 H 0.98367 0.61096 0.20848 0.0
H68 H 0.85028 0.73686 0.16144 0.0
Cu69 Cu 0.4475 0.85538 0.66742 0.0
N70 N 0.44846 0.90652 0.6634 0.0
N71 N 0.47125 0.96294 0.65748 0.0
C72 C 0.47911 0.92704 0.66126 0.0
C73 C 0.43439 0.96535 0.65681 0.0
C74 C 0.42032 0.93033 0.66037 0.0
O75 O 0.48207 0.84189 0.70249 0.0
C76 C 0.43864 0.84544 0.60041 0.0
O77 O 0.40902 0.86445 0.6072 0.0
H78 H 0.50662 0.91587 0.66208 0.0
H79 H 0.39163 0.92277 0.66014 0.0
N80 N 0.40068 0.8386 0.67862 0.0
N81 N 0.35098 0.80306 0.68157 0.0
C82 C 0.38535 0.80636 0.6697 0.0
C83 C 0.3752 0.85589 0.69699 0.0
C84 C 0.34439 0.834 0.69878 0.0
C85 C 0.47737 0.85667 0.73081 0.0
O86 O 0.44987 0.87946 0.73496 0.0
H87 H 0.399 0.7858 0.65484 0.0
H88 H 0.3788 0.88252 0.70841 0.0
O89 O 0.46026 0.83628 0.62396 0.0
H90 H 0.41894 0.99052 0.65368 0.0
H91 H 0.31921 0.84007 0.71182 0.0
Cu92 Cu 0.1928 0.59408 0.39736 0.0
N93 N 0.14166 0.59201 0.39804 0.0
N94 N 0.08496 0.56902 0.39756 0.0
C95 C 0.12082 0.56203 0.39254 0.0
C96 C 0.08298 0.60453 0.40669 0.0
C97 C 0.11812 0.61868 0.40703 0.0
O98 O 0.20803 0.56039 0.36235 0.0
C99 C 0.24068 0.57773 0.45382 0.0
O100 O 0.26891 0.57924 0.43371 0.0
H101 H 0.13176 0.53535 0.38609 0.0
H102 H 0.12609 0.64614 0.41433 0.0
N103 N 0.20736 0.64203 0.3868 0.0
N104 N 0.2406 0.69311 0.38117 0.0
C105 C 0.23934 0.65894 0.39412 0.0
C106 C 0.1881 0.66637 0.36846 0.0
C107 C 0.20853 0.69801 0.36503 0.0
C108 C 0.233 0.5676 0.34125 0.0
O109 O 0.25414 0.59645 0.34547 0.0
H110 H 0.2616 0.64629 0.40779 0.0
H111 H 0.16133 0.66115 0.35773 0.0
O112 O 0.20827 0.58159 0.44245 0.0
H113 H 0.05807 0.61873 0.41358 0.0
H114 H 0.20094 0.72237 0.35114 0.0
Cu115 Cu 0.44862 0.19414 0.88628 0.0
N116 N 0.44926 0.14302 0.89083 0.0
N117 N 0.47152 0.08644 0.89718 0.0
C118 C 0.47971 0.12219 0.89274 0.0
C119 C 0.43466 0.08447 0.89855 0.0
C120 C 0.42093 0.11958 0.89473 0.0
O121 O 0.48315 0.20708 0.85132 0.0
C122 C 0.44007 0.20532 0.95312 0.0
O123 O 0.41006 0.18672 0.94639 0.0
H124 H 0.50733 0.13304 0.89135 0.0
H125 H 0.39236 0.12747 0.89544 0.0
N126 N 0.40183 0.2109 0.87448 0.0
N127 N 0.35253 0.24675 0.86976 0.0
C128 C 0.38688 0.24368 0.88206 0.0
C129 C 0.37612 0.19302 0.85657 0.0
C130 C 0.34557 0.2151 0.8537 0.0
C131 C 0.47795 0.19252 0.82293 0.0
O132 O 0.44997 0.17025 0.8186 0.0
H133 H 0.40083 0.26482 0.89617 0.0
H134 H 0.37944 0.16592 0.84609 0.0
O135 O 0.46175 0.21377 0.92959 0.0
H136 H 0.419 0.05955 0.9024 0.0
H137 H 0.32036 0.20871 0.84057 0.0
Cu138 Cu 0.85655 0.44828 0.39665 0.0
N139 N 0.90771 0.44777 0.39595 0.0
N140 N 0.9653 0.46835 0.39537 0.0
C141 C 0.92957 0.47738 0.3926 0.0
C142 C 0.96618 0.43182 0.40075 0.0
C143 C 0.93046 0.41915 0.40116 0.0
O144 O 0.84185 0.48719 0.36615 0.0
C145 C 0.81286 0.467 0.45434 0.0
O146 O 0.78615 0.47664 0.43411 0.0
H147 H 0.91951 0.50512 0.3892 0.0
H148 H 0.92164 0.39124 0.40583 0.0
N149 N 0.83871 0.40295 0.38199 0.0
N150 N 0.80352 0.35335 0.37556 0.0
C151 C 0.80692 0.3864 0.3903 0.0
C152 C 0.85555 0.37969 0.36104 0.0
C153 C 0.8339 0.34892 0.35712 0.0
C154 C 0.8155 0.48486 0.3454 0.0
O155 O 0.79317 0.45657 0.34638 0.0
H156 H 0.78668 0.39827 0.40663 0.0
H157 H 0.8818 0.38476 0.34949 0.0
O158 O 0.8431 0.4554 0.44282 0.0
H159 H 0.99079 0.41581 0.40503 0.0
H160 H 0.83984 0.32517 0.34194 0.0
Cu161 Cu 0.59933 0.86145 0.9081 0.0
N162 N 0.59736 0.91264 0.91046 0.0
N163 N 0.57409 0.96927 0.91006 0.0
C164 C 0.56832 0.93374 0.90225 0.0
C165 C 0.60782 0.97079 0.92381 0.0
C166 C 0.62206 0.93567 0.92425 0.0
O167 O 0.5667 0.84679 0.87194 0.0
C168 C 0.57971 0.81133 0.96109 0.0
O169 O 0.58145 0.78432 0.9396 0.0
H170 H 0.54302 0.92314 0.89178 0.0
H171 H 0.648 0.9273 0.935 0.0
N172 N 0.64741 0.84586 0.89989 0.0
N173 N 0.69673 0.81029 0.89413 0.0
C174 C 0.66077 0.81136 0.90176 0.0
C175 C 0.67594 0.86697 0.89042 0.0
C176 C 0.70647 0.84506 0.88693 0.0
C177 C 0.57821 0.85008 0.84225 0.0
O178 O 0.61237 0.86006 0.83713 0.0
H179 H 0.64459 0.78751 0.90825 0.0
H180 H 0.67455 0.89619 0.8858 0.0
O181 O 0.58465 0.84431 0.95173 0.0
H182 H 0.62058 0.99529 0.9338 0.0
H183 H 0.73357 0.85375 0.8793 0.0
Cu184 Cu 0.8601 0.60359 0.89076 0.0
N185 N 0.91134 0.60382 0.89197 0.0
N186 N 0.9686 0.58234 0.89237 0.0
C187 C 0.93297 0.57442 0.88681 0.0
C188 C 0.96965 0.61791 0.90145 0.0
C189 C 0.93415 0.63111 0.90129 0.0
O190 O 0.84589 0.57092 0.85457 0.0
C191 C 0.85088 0.60784 0.95858 0.0
O192 O 0.86474 0.64054 0.95288 0.0
H193 H 0.92274 0.54747 0.88017 0.0
H194 H 0.92549 0.65831 0.9086 0.0
N195 N 0.84201 0.65107 0.88337 0.0
N196 N 0.80538 0.70007 0.88293 0.0
C197 C 0.80881 0.66444 0.8917 0.0
C198 C 0.85987 0.67923 0.86883 0.0
C199 C 0.83727 0.70952 0.86849 0.0
C200 C 0.84672 0.58284 0.82479 0.0
O201 O 0.85392 0.61765 0.81928 0.0
H202 H 0.78771 0.64854 0.90398 0.0
H203 H 0.88732 0.67772 0.85887 0.0
O204 O 0.84459 0.58638 0.93426 0.0
H205 H 0.99416 0.63278 0.90866 0.0
H206 H 0.84357 0.73637 0.85838 0.0
Cu207 Cu 0.44591 0.85686 0.39316 0.0
N208 N 0.44722 0.90795 0.39712 0.0
N209 N 0.47059 0.96435 0.40107 0.0
C210 C 0.47804 0.92835 0.39769 0.0
C211 C 0.43381 0.96695 0.40315 0.0
C212 C 0.41938 0.93193 0.40082 0.0
O213 O 0.48017 0.84365 0.35819 0.0
C214 C 0.43678 0.84449 0.45993 0.0
O215 O 0.40584 0.86135 0.45295 0.0
H216 H 0.50541 0.91705 0.39566 0.0
H217 H 0.39068 0.9245 0.40194 0.0
N218 N 0.39897 0.84028 0.38154 0.0
N219 N 0.34957 0.80448 0.37687 0.0
C220 C 0.38364 0.80779 0.38974 0.0
C221 C 0.37372 0.8578 0.36277 0.0
C222 C 0.34314 0.83571 0.35986 0.0
C223 C 0.47489 0.85823 0.32975 0.0
O224 O 0.44687 0.88041 0.32538 0.0
H225 H 0.39716 0.78699 0.40464 0.0
H226 H 0.37737 0.88467 0.35176 0.0
O227 O 0.45924 0.83762 0.43663 0.0
H228 H 0.41865 0.99229 0.40604 0.0
H229 H 0.3182 0.84188 0.34622 0.0
Cu230 Cu 0.19516 0.45651 0.88613 0.0
N231 N 0.14405 0.45815 0.88804 0.0
N232 N 0.08734 0.48084 0.88965 0.0
C233 C 0.12321 0.48858 0.88564 0.0
C234 C 0.08533 0.44433 0.89488 0.0
C235 C 0.1205 0.43035 0.89389 0.0
O236 O 0.2095 0.48984 0.85042 0.0
C237 C 0.20539 0.44753 0.95375 0.0
O238 O 0.18857 0.41657 0.94674 0.0
H239 H 0.13411 0.51592 0.88172 0.0
H240 H 0.12843 0.40204 0.89781 0.0
N241 N 0.21023 0.409 0.87524 0.0
N242 N 0.24412 0.35843 0.87011 0.0
C243 C 0.24121 0.39158 0.88474 0.0
C244 C 0.19329 0.38611 0.85385 0.0
C245 C 0.21417 0.3548 0.85066 0.0
C246 C 0.23615 0.48377 0.83082 0.0
O247 O 0.25889 0.45661 0.83698 0.0
H248 H 0.26167 0.40332 0.90116 0.0
H249 H 0.16799 0.39226 0.84083 0.0
O250 O 0.21304 0.4698 0.93028 0.0
H251 H 0.06033 0.42916 0.89965 0.0
H252 H 0.20842 0.33157 0.83471 0.0
Cu253 Cu 0.60077 0.18782 0.39829 0.0
N254 N 0.59924 0.13656 0.40028 0.0
N255 N 0.57578 0.08006 0.40231 0.0
C256 C 0.56836 0.11627 0.4015 0.0
C257 C 0.61262 0.07717 0.402 0.0
C258 C 0.62711 0.11225 0.4009 0.0
O259 O 0.56486 0.20336 0.36509 0.0
C260 C 0.57852 0.23593 0.45165 0.0
O261 O 0.57034 0.26088 0.4292 0.0
H262 H 0.54099 0.12779 0.40164 0.0
H263 H 0.65589 0.11945 0.40052 0.0
N264 N 0.64714 0.20448 0.38543 0.0
N265 N 0.69587 0.2407 0.37849 0.0
C266 C 0.66334 0.23647 0.39386 0.0
C267 C 0.67024 0.18823 0.36397 0.0
C268 C 0.70041 0.21056 0.35967 0.0
C269 C 0.56755 0.18887 0.33641 0.0
O270 O 0.59366 0.16484 0.33092 0.0
H271 H 0.6513 0.25654 0.41031 0.0
H272 H 0.66519 0.16228 0.35176 0.0
O273 O 0.59051 0.20467 0.44293 0.0
H274 H 0.62777 0.05161 0.40229 0.0
H275 H 0.7236 0.20546 0.34362 0.0
Cu276 Cu 0.85956 0.44585 0.65479 0.0
N277 N 0.91084 0.44503 0.65503 0.0
N278 N 0.96827 0.46602 0.65465 0.0
C279 C 0.93248 0.47488 0.65257 0.0
C280 C 0.96953 0.42924 0.65807 0.0
C281 C 0.9339 0.41626 0.65809 0.0
O282 O 0.84442 0.48317 0.68661 0.0
C283 C 0.81373 0.46326 0.5977 0.0
O284 O 0.78577 0.46601 0.61799 0.0
H285 H 0.92223 0.5026 0.64957 0.0
H286 H 0.92551 0.38788 0.66026 0.0
N287 N 0.84072 0.40029 0.66813 0.0
N288 N 0.80456 0.3511 0.67274 0.0
C289 C 0.80967 0.38374 0.65754 0.0
C290 C 0.85519 0.37743 0.69109 0.0
C291 C 0.83296 0.34697 0.6939 0.0
C292 C 0.85827 0.48078 0.71568 0.0
O293 O 0.8814 0.45413 0.72242 0.0
H294 H 0.79112 0.39526 0.63925 0.0
H295 H 0.88011 0.38258 0.705 0.0
O296 O 0.84555 0.45593 0.609 0.0
H297 H 0.99436 0.41313 0.66051 0.0
H298 H 0.83714 0.32365 0.71023 0.0
Cu299 Cu 0.60085 0.86266 0.15557 0.0
N300 N 0.59938 0.91385 0.15295 0.0
N301 N 0.57628 0.97051 0.15122 0.0
C302 C 0.56956 0.93489 0.15805 0.0
C303 C 0.61149 0.97216 0.1413 0.0
C304 C 0.62567 0.93701 0.14222 0.0
O305 O 0.56683 0.84814 0.19043 0.0
C306 C 0.57892 0.81286 0.10317 0.0
O307 O 0.57511 0.78711 0.1258 0.0
H308 H 0.54315 0.92419 0.16562 0.0
H309 H 0.65281 0.92876 0.13448 0.0
N310 N 0.64829 0.84652 0.16578 0.0
N311 N 0.69724 0.81039 0.17155 0.0
C312 C 0.66187 0.8124 0.16175 0.0
C313 C 0.676 0.86646 0.17882 0.0
C314 C 0.70631 0.84418 0.18237 0.0
C315 C 0.57726 0.8516 0.22052 0.0
O316 O 0.61107 0.86202 0.22688 0.0
H317 H 0.6463 0.78957 0.15184 0.0
H318 H 0.67418 0.89511 0.18561 0.0
O319 O 0.58789 0.84529 0.11156 0.0
H320 H 0.62543 0.99679 0.13303 0.0
H321 H 0.7329 0.85201 0.19218 0.0
Cu322 Cu 0.19374 0.59451 0.65322 0.0
N323 N 0.14266 0.59204 0.65296 0.0
N324 N 0.08627 0.56844 0.65333 0.0
C325 C 0.12245 0.56115 0.65511 0.0
C326 C 0.08336 0.60513 0.64986 0.0
C327 C 0.11836 0.61969 0.64954 0.0
O328 O 0.20996 0.55929 0.68679 0.0
C329 C 0.24012 0.57494 0.59725 0.0
O330 O 0.26683 0.56795 0.61837 0.0
H331 H 0.13399 0.53387 0.65756 0.0
H332 H 0.12559 0.64833 0.6466 0.0
N333 N 0.20837 0.64155 0.66617 0.0
N334 N 0.242 0.69195 0.67416 0.0
C335 C 0.2389 0.66006 0.65737 0.0
C336 C 0.1919 0.66245 0.68927 0.0
C337 C 0.21261 0.69365 0.69422 0.0
C338 C 0.23687 0.56498 0.70644 0.0
O339 O 0.25927 0.59258 0.70092 0.0
H340 H 0.25909 0.6498 0.64011 0.0
H341 H 0.16722 0.65485 0.70242 0.0
O342 O 0.20888 0.58506 0.60772 0.0
H343 H 0.05783 0.62009 0.64728 0.0
H344 H 0.20726 0.71534 0.7119 0.0
Cu345 Cu 0.44491 0.19315 0.16022 0.0
N346 N 0.44679 0.14206 0.15675 0.0
N347 N 0.47089 0.08592 0.15374 0.0
C348 C 0.47718 0.1215 0.16095 0.0
C349 C 0.43535 0.0838 0.14458 0.0
C350 C 0.42053 0.11862 0.14632 0.0
O351 O 0.47789 0.20643 0.19657 0.0
C352 C 0.43759 0.20655 0.09326 0.0
O353 O 0.40574 0.1911 0.09929 0.0
H354 H 0.50365 0.13255 0.16808 0.0
H355 H 0.39295 0.12645 0.13927 0.0
N356 N 0.39715 0.20908 0.16908 0.0
N357 N 0.34806 0.24512 0.17337 0.0
C358 C 0.38362 0.24317 0.16447 0.0
C359 C 0.36918 0.18907 0.18138 0.0
C360 C 0.33877 0.21131 0.18403 0.0
C361 C 0.46624 0.20477 0.22633 0.0
O362 O 0.43149 0.19748 0.23174 0.0
H363 H 0.39942 0.26603 0.15493 0.0
H364 H 0.37093 0.16046 0.18846 0.0
O365 O 0.4599 0.21214 0.11719 0.0
H366 H 0.42159 0.0591 0.13621 0.0
H367 H 0.31206 0.20353 0.19339 0.0
C368 C 0.03293 0.49991 0.19488 0.0
C369 C 0.05128 0.49845 0.16403 0.0
C370 C 1.0097 0.54493 0.14094 0.0
C371 C 0.99031 0.54514 0.17134 0.0
N372 N 0.97921 0.51976 0.22548 0.0
N373 N 0.05575 0.51542 0.10657 0.0
C374 C 1.00078 0.52172 0.19788 0.0
C375 C 0.03919 0.5198 0.13666 0.0
N376 N 0.04698 0.48104 0.22141 0.0
N377 N 1.0005 0.56969 0.11676 0.0
H378 H 0.07784 0.49761 0.10317 0.0
H379 H 0.04641 0.52749 0.08466 0.0
H380 H 0.97892 0.58826 0.11941 0.0
H381 H 1.01541 0.57353 0.09506 0.0
H382 H 0.03726 0.48359 0.24555 0.0
H383 H 0.07022 0.46446 0.21956 0.0
H384 H 0.98318 0.50091 0.24464 0.0
H385 H 0.95541 0.53538 0.22808 0.0
C386 C 0.50663 1.0057 0.62247 0.0
C387 C 0.49717 0.99251 0.65439 0.0
C388 C 0.54161 0.03437 0.68003 0.0
C389 C 0.54908 0.04948 0.64836 0.0
N390 N 0.53582 0.05371 0.58995 0.0
N391 N 0.50119 0.99669 0.71377 0.0
C392 C 0.53081 0.03623 0.61964 0.0
C393 C 0.51344 1.00757 0.6833 0.0
N394 N 0.49306 0.98832 0.595 0.0
N395 N 0.56238 0.04496 0.70666 0.0
H396 H 0.48055 0.97706 0.71662 0.0
H397 H 0.50944 1.00883 0.73598 0.0
H398 H 0.58348 0.06421 0.7046 0.0
H399 H 0.56073 0.03279 0.73003 0.0
H400 H 0.50157 0.99407 0.57089 0.0
H401 H 0.47498 0.96614 0.59658 0.0
H402 H 0.52082 0.04773 0.56856 0.0
H403 H 0.55326 0.07627 0.58734 0.0
C404 C 0.03889 0.53333 0.36612 0.0
C405 C 0.05529 0.54293 0.39686 0.0
C406 C 1.01111 0.50444 0.42665 0.0
C407 C 0.99595 0.49328 0.39583 0.0
N408 N 0.99681 0.49314 0.33625 0.0
N409 N 0.06132 0.5345 0.4558 0.0
C410 C 1.01027 0.50667 0.36549 0.0
C411 C 0.04257 0.52757 0.42701 0.0
N412 N 0.05025 0.55056 0.33781 0.0
N413 N 0.99454 0.49375 0.45545 0.0
H414 H 0.0844 0.55146 0.45663 0.0
H415 H 0.05582 0.5215 0.47828 0.0
H416 H 0.97149 0.47674 0.45578 0.0
H417 H 1.00183 0.50368 0.47879 0.0
H418 H 0.03751 0.54752 0.31478 0.0
H419 H 0.07143 0.56988 0.33782 0.0
H420 H 1.0079 0.49911 0.31308 0.0
H421 H 0.97563 0.47384 0.33539 0.0
C422 C 0.5407 1.01402 0.87512 0.0
C423 C 0.54821 0.99894 0.90687 0.0
C424 C 0.50668 0.04347 0.93246 0.0
C425 C 0.49712 0.05662 0.90047 0.0
N426 N 0.50039 0.05185 0.84111 0.0
N427 N 0.53498 0.99497 0.9652 0.0
C428 C 0.51286 0.04112 0.87167 0.0
C429 C 0.53028 1.01253 0.93547 0.0
N430 N 0.56118 1.00316 0.8486 0.0
N431 N 0.49377 0.06126 0.95984 0.0
H432 H 0.55181 0.97198 0.96792 0.0
H433 H 0.52015 1.00127 0.98647 0.0
H434 H 0.47619 0.08381 0.95814 0.0
H435 H 0.50246 0.05549 0.98397 0.0
H436 H 0.5595 1.0153 0.8252 0.0
H437 H 0.5821 0.98375 0.85079 0.0
H438 H 0.50823 0.03941 0.81901 0.0
H439 H 0.47992 0.07163 0.83813 0.0
C440 C 1.0142 0.54676 0.86084 0.0
C441 C 0.99886 0.557 0.89169 0.0
C442 C 0.04382 0.51883 0.92122 0.0
C443 C 0.05751 0.50666 0.89031 0.0
N444 N 0.05423 0.50517 0.83079 0.0
N445 N 0.99507 0.54994 0.95091 0.0
C446 C 0.04226 0.51961 0.86007 0.0
C447 C 1.01264 0.54227 0.92186 0.0
N448 N 1.00243 0.5639 0.83253 0.0
N449 N 0.06142 0.5086 0.94982 0.0
H450 H 0.97226 0.56719 0.95196 0.0
H451 H 1.0013 0.53735 0.97347 0.0
H452 H 0.08421 0.49127 0.9499 0.0
H453 H 0.05524 0.51923 0.97311 0.0
H454 H 1.01433 0.5602 0.80934 0.0
H455 H 0.98207 0.58404 0.83275 0.0
H456 H 0.04218 0.51071 0.80783 0.0
H457 H 0.07503 0.48551 0.82978 0.0
C458 C 0.53514 0.03802 0.37132 0.0
C459 C 0.54947 0.05057 0.40203 0.0
C460 C 0.51248 1.00518 0.43204 0.0
C461 C 0.49678 0.99392 0.40148 0.0
N462 N 0.4897 1.00068 0.34249 0.0
N463 N 0.55038 0.04957 0.4616 0.0
C464 C 0.50718 1.0107 0.37118 0.0
C465 C 0.53776 0.03503 0.43245 0.0
N466 N 0.54906 0.05188 0.34243 0.0
N467 N 0.50349 0.9867 0.46044 0.0
H468 H 0.56941 0.07101 0.4623 0.0
H469 H 0.54076 0.042 0.48492 0.0
H470 H 0.48431 0.96539 0.46068 0.0
H471 H 0.51617 0.99096 0.48332 0.0
H472 H 0.54232 0.04209 0.31893 0.0
H473 H 0.56928 0.07219 0.3421 0.0
H474 H 0.49343 1.0137 0.31972 0.0
H475 H 0.46962 0.98024 0.34185 0.0
C476 C 1.01517 0.50072 0.62383 0.0
C477 C 0.99875 0.49111 0.65443 0.0
C478 C 0.0414 0.53139 0.68446 0.0
C479 C 0.05678 0.54218 0.65372 0.0
N480 N 0.05834 0.53981 0.5942 0.0
N481 N 0.99356 0.49762 0.7135 0.0
C482 C 0.04367 0.52749 0.62335 0.0
C483 C 1.01122 0.50652 0.68472 0.0
N484 N 1.00354 0.48366 0.59546 0.0
N485 N 0.05625 0.54475 0.71324 0.0
H486 H 0.9721 0.47863 0.71425 0.0
H487 H 0.99876 0.50991 0.73634 0.0
H488 H 0.07781 0.56364 0.71339 0.0
H489 H 0.04863 0.5362 0.73688 0.0
H490 H 1.01575 0.48694 0.57236 0.0
H491 H 0.98221 0.46451 0.59536 0.0
H492 H 0.04855 0.53274 0.57077 0.0
H493 H 0.07986 0.55872 0.59347 0.0
C494 C 0.51072 0.0417 0.18327 0.0
C495 C 0.49762 0.05687 0.15306 0.0
C496 C 0.53506 1.01342 0.12158 0.0
C497 C 0.55016 1.00011 0.15177 0.0
N498 N 0.5573 1.00479 0.21089 0.0
N499 N 0.50124 0.06203 0.09364 0.0
C500 C 0.53934 1.01519 0.18256 0.0
C501 C 0.5109 0.04405 0.12219 0.0
N502 N 0.49487 0.05197 0.21246 0.0
N503 N 0.543 0.99594 0.09253 0.0
H504 H 0.48385 0.08478 0.09351 0.0
H505 H 0.51271 0.05639 0.07058 0.0
H506 H 0.56049 0.9733 0.09148 0.0
H507 H 0.53015 1.00194 0.07 0.0
H508 H 0.50077 0.0397 0.23525 0.0
H509 H 0.47346 0.07094 0.21335 0.0
H510 H 0.55311 1.01697 0.23392 0.0
H511 H 0.57873 0.98579 0.21071 0.0
C512 C 0.22996 0.56521 0.27872 0.0
C513 C 0.2345 0.5466 0.30959 0.0
C514 C 0.2345 0.48756 0.28027 0.0
C515 C 0.23395 0.50642 0.24925 0.0
N516 N 0.23852 0.56354 0.21909 0.0
N517 N 0.24805 0.49057 0.33922 0.0
C518 C 0.23386 0.54538 0.24853 0.0
C519 C 0.23884 0.50789 0.3102 0.0
N520 N 0.21986 0.60138 0.27807 0.0
N521 N 0.2288 0.45044 0.28141 0.0
H522 H 0.25183 0.50458 0.36156 0.0
H523 H 0.25537 0.46293 0.34046 0.0
H524 H 0.22398 0.43452 0.26035 0.0
H525 H 0.22507 0.43597 0.3035 0.0
H526 H 0.21241 0.61513 0.25634 0.0
H527 H 0.21513 0.61675 0.29944 0.0
H528 H 0.24255 0.59184 0.21755 0.0
H529 H 0.24201 0.55 0.19653 0.0
C530 C 0.54664 0.16397 0.75768 0.0
C531 C 0.55269 0.19753 0.74052 0.0
C532 C 0.50938 0.22869 0.77765 0.0
C533 C 0.50569 0.19567 0.79622 0.0
N534 N 0.5264 0.13414 0.80808 0.0
N535 N 0.54386 0.26295 0.73628 0.0
C536 C 0.52597 0.16398 0.78741 0.0
C537 C 0.53512 0.23027 0.75105 0.0
N538 N 0.55935 0.13168 0.74482 0.0
N539 N 0.48743 0.25804 0.78475 0.0
H540 H 0.56214 0.26489 0.71649 0.0
H541 H 0.53507 0.28834 0.74502 0.0
H542 H 0.46894 0.258 0.80446 0.0
H543 H 0.48577 0.28147 0.76995 0.0
H544 H 0.55211 0.10597 0.75413 0.0
H545 H 0.5743 0.13023 0.72287 0.0
H546 H 0.5439 0.11181 0.80498 0.0
H547 H 0.51185 0.13325 0.83025 0.0
C548 C 0.79929 0.5628 0.28336 0.0
C549 C 0.8254 0.55355 0.25866 0.0
C550 C 0.84003 0.49656 0.28857 0.0
C551 C 0.81696 0.50777 0.31496 0.0
N552 N 0.77661 0.55238 0.33932 0.0
N553 N 0.87524 0.51479 0.24049 0.0
C554 C 0.79699 0.54109 0.31283 0.0
C555 C 0.8468 0.52109 0.2618 0.0
N556 N 0.77615 0.59182 0.27816 0.0
N557 N 0.85536 0.46225 0.28899 0.0
H558 H 0.88179 0.53221 0.22082 0.0
H559 H 0.89453 0.49403 0.24401 0.0
H560 H 0.85193 0.44374 0.30855 0.0
H561 H 0.86889 0.45092 0.26873 0.0
H562 H 0.75419 0.59805 0.29358 0.0
H563 H 0.77706 0.60805 0.25678 0.0
H564 H 0.76461 0.57824 0.34098 0.0
H565 H 0.77356 0.53652 0.36077 0.0
C566 C 0.54674 0.88432 0.79643 0.0
C567 C 0.552 0.8508 0.81391 0.0
C568 C 0.50815 0.82017 0.77648 0.0
C569 C 0.50519 0.8531 0.75767 0.0
N570 N 0.52735 0.91405 0.74554 0.0
N571 N 0.54183 0.7856 0.81846 0.0
C572 C 0.52618 0.88443 0.76645 0.0
C573 C 0.5338 0.81832 0.80339 0.0
N574 N 0.56004 0.91649 0.80924 0.0
N575 N 0.48561 0.79119 0.76934 0.0
H576 H 0.56005 0.78346 0.83845 0.0
H577 H 0.53253 0.76031 0.80978 0.0
H578 H 0.46719 0.79141 0.74941 0.0
H579 H 0.48341 0.76793 0.78429 0.0
H580 H 0.55342 0.94224 0.79961 0.0
H581 H 0.57485 0.91787 0.83142 0.0
H582 H 0.54531 0.93605 0.74869 0.0
H583 H 0.51292 0.91497 0.72316 0.0
C584 C 0.8819 0.55355 0.77891 0.0
C585 C 0.84846 0.55681 0.79657 0.0
C586 C 0.81991 0.51105 0.75978 0.0
C587 C 0.85271 0.5098 0.74094 0.0
N588 N 0.91185 0.53557 0.72803 0.0
N589 N 0.78408 0.54291 0.80159 0.0
C590 C 0.88275 0.53284 0.74916 0.0
C591 C 0.81694 0.53673 0.78638 0.0
N592 N 0.91339 0.56881 0.7914 0.0
N593 N 0.7922 0.48684 0.75297 0.0
H594 H 0.78122 0.56106 0.82142 0.0
H595 H 0.75928 0.53209 0.79318 0.0
H596 H 0.79314 0.46851 0.73311 0.0
H597 H 0.76932 0.48339 0.76804 0.0
H598 H 0.93929 0.56381 0.78158 0.0
H599 H 0.91428 0.58362 0.81352 0.0
H600 H 0.93285 0.55477 0.73082 0.0
H601 H 0.9131 0.52111 0.70579 0.0
C602 C 0.52215 0.88696 0.29329 0.0
C603 C 0.5025 0.85506 0.30297 0.0
C604 C 0.53288 0.81975 0.25898 0.0
C605 C 0.55009 0.85247 0.24778 0.0
N606 N 0.55575 0.91849 0.25017 0.0
N607 N 0.48531 0.79208 0.29305 0.0
C608 C 0.54325 0.88642 0.26383 0.0
C609 C 0.50688 0.82161 0.28534 0.0
N610 N 0.52162 0.91755 0.31292 0.0
N611 N 0.54218 0.78685 0.24507 0.0
H612 H 0.46652 0.79237 0.31251 0.0
H613 H 0.48418 0.76822 0.27888 0.0
H614 H 0.56054 0.78473 0.22537 0.0
H615 H 0.53371 0.76155 0.25439 0.0
H616 H 0.53873 0.94014 0.30932 0.0
H617 H 0.50654 0.91905 0.33475 0.0
H618 H 0.54799 0.94436 0.25857 0.0
H619 H 0.57114 0.91946 0.22845 0.0
C620 C 0.23717 0.48542 0.76819 0.0
C621 C 0.23869 0.50449 0.79899 0.0
C622 C 0.237 0.56325 0.76905 0.0
C623 C 0.23915 0.54422 0.73828 0.0
N624 N 0.24832 0.48741 0.70887 0.0
N625 N 0.24749 0.56137 0.82852 0.0
C626 C 0.24136 0.50534 0.73796 0.0
C627 C 0.24085 0.54338 0.79934 0.0
N628 N 0.22962 0.44862 0.76757 0.0
N629 N 0.22914 0.59998 0.76955 0.0
H630 H 0.25086 0.54772 0.85115 0.0
H631 H 0.25319 0.58938 0.82977 0.0
H632 H 0.22464 0.61555 0.74816 0.0
H633 H 0.22336 0.61429 0.79128 0.0
H634 H 0.2243 0.43421 0.74575 0.0
H635 H 0.22498 0.43305 0.78891 0.0
H636 H 0.25407 0.45942 0.70768 0.0
H637 H 0.25182 0.50111 0.68632 0.0
C638 C 0.53819 0.22866 0.29234 0.0
C639 C 0.53941 0.19502 0.31026 0.0
C640 C 0.49591 0.16742 0.271 0.0
C641 C 0.4925 0.20172 0.25444 0.0
N642 N 0.50637 0.26632 0.25137 0.0
N643 N 0.51408 0.13498 0.32091 0.0
C644 C 0.51255 0.23279 0.26566 0.0
C645 C 0.51664 0.16518 0.30082 0.0
N646 N 0.56242 0.25607 0.30005 0.0
N647 N 0.48063 0.13651 0.25745 0.0
H648 H 0.52862 0.13255 0.34313 0.0
H649 H 0.49498 0.11404 0.31732 0.0
H650 H 0.46575 0.13668 0.23526 0.0
H651 H 0.48562 0.11013 0.26645 0.0
H652 H 0.56583 0.27962 0.28566 0.0
H653 H 0.58094 0.25422 0.31983 0.0
H654 H 0.51713 0.29078 0.26059 0.0
H655 H 0.4883 0.27003 0.23145 0.0
C656 C 0.1882 0.48071 1.0061 0.0
C657 C 0.21232 0.45659 0.98918 0.0
C658 C 0.2365 0.43389 0.0424 0.0
C659 C 0.21112 0.4566 0.05936 0.0
N660 N 0.16901 0.50757 0.05847 0.0
N661 N 0.26526 0.41736 0.99011 0.0
C662 C 0.1893 0.4823 0.04151 0.0
C663 C 0.2385 0.43559 1.0071 0.0
N664 N 0.16257 0.50014 0.98843 0.0
N665 N 0.25768 0.40974 0.06011 0.0
H666 H 0.26729 0.41854 0.96427 0.0
H667 H 0.28712 0.40377 1.00143 0.0
H668 H 0.25843 0.4095 0.08602 0.0
H669 H 0.27346 0.38917 0.0494 0.0
H670 H 0.14107 0.51457 0.99921 0.0
H671 H 0.1616 0.50039 0.96253 0.0
H672 H 0.15509 0.52922 0.04714 0.0
H673 H 0.1684 0.50871 0.08433 0.0
C674 C 0.60028 0.2652 0.50453 0.0
C675 C 0.57393 0.24336 0.4876 0.0
C676 C 0.54579 0.2267 0.54083 0.0
C677 C 0.57553 0.24359 0.55778 0.0
N678 N 0.63284 0.27691 0.55611 0.0
N679 N 0.52139 0.20317 0.48884 0.0
C680 C 0.60292 0.26296 0.53979 0.0
C681 C 0.54638 0.22432 0.50556 0.0
N682 N 0.6232 0.28756 0.48685 0.0
N683 N 0.51672 0.2135 0.5586 0.0
H684 H 0.51958 0.20267 0.46296 0.0
H685 H 0.50356 0.18489 0.50043 0.0
H686 H 0.51542 0.21534 0.58444 0.0
H687 H 0.49258 0.2038 0.54781 0.0
H688 H 0.64044 0.30695 0.49777 0.0
H689 H 0.62276 0.28902 0.46099 0.0
H690 H 0.65593 0.28717 0.5441 0.0
H691 H 0.63596 0.27594 0.58183 0.0
C692 C 0.87434 0.56896 0.04361 0.0
C693 C 0.85082 0.59084 0.06327 0.0
C694 C 0.81903 0.61252 1.01306 0.0
C695 C 0.8465 0.59574 0.99349 0.0
N696 N 0.90027 0.55753 0.98918 0.0
N697 N 0.80008 0.6329 0.06777 0.0
C698 C 0.87372 0.57312 1.00844 0.0
C699 C 0.82241 0.6119 0.04831 0.0
N700 N 0.89728 0.54436 0.05881 0.0
N701 N 0.78986 0.6291 0.99769 0.0
H702 H 0.80102 0.63208 0.09366 0.0
H703 H 0.78176 0.65232 0.05846 0.0
H704 H 0.78693 0.62974 0.97188 0.0
H705 H 0.76718 0.63937 1.01022 0.0
H706 H 0.91306 0.52523 0.04609 0.0
H707 H 0.89807 0.54094 0.08456 0.0
H708 H 0.92345 0.54449 0.99872 0.0
H709 H 0.90009 0.55913 0.96331 0.0
C710 C 0.47263 0.85827 0.54778 0.0
C711 C 0.44653 0.83676 0.56522 0.0
C712 C 0.42425 0.81085 0.51263 0.0
C713 C 0.4458 0.83686 0.49519 0.0
N714 N 0.49049 0.88576 0.49525 0.0
N715 N 0.39837 0.79146 0.56533 0.0
C716 C 0.4707 0.86012 0.51246 0.0
C717 C 0.42295 0.81227 0.54792 0.0
N718 N 0.49857 0.87763 0.56508 0.0
N719 N 0.40513 0.78487 0.4952 0.0
H720 H 0.3983 0.79033 0.59123 0.0
H721 H 0.37727 0.7764 0.55438 0.0
H722 H 0.40597 0.78328 0.46933 0.0
H723 H 0.39105 0.76316 0.50617 0.0
H724 H 0.52048 0.8912 0.55397 0.0
H725 H 0.49998 0.87777 0.59094 0.0
H726 H 0.50549 0.90672 0.50644 0.0
H727 H 0.49044 0.88739 0.46939 0.0
C728 C 0.26406 0.60206 0.50868 0.0
C729 C 0.24601 0.5739 0.49038 0.0
C730 C 0.22732 0.54417 0.54254 0.0
C731 C 0.24588 0.57196 0.56079 0.0
N732 N 0.28793 0.62315 0.56172 0.0
N733 N 0.21745 0.51425 0.48935 0.0
C734 C 0.26647 0.59935 0.54396 0.0
C735 C 0.22973 0.54375 0.50722 0.0
N736 N 0.27665 0.6327 0.49263 0.0
N737 N 0.20679 0.51855 0.55902 0.0
H738 H 0.21932 0.51291 0.46353 0.0
H739 H 0.20849 0.48981 0.50008 0.0
H740 H 0.20634 0.5165 0.58487 0.0
H741 H 0.18882 0.50048 0.54725 0.0
H742 H 0.28583 0.65618 0.50484 0.0
H743 H 0.27532 0.63606 0.46696 0.0
H744 H 0.30672 0.64101 0.55084 0.0
H745 H 0.28922 0.6231 0.58758 0.0
C746 C 0.47384 0.19197 1.00605 0.0
C747 C 0.44842 0.21415 0.98827 0.0
C748 C 0.42692 0.2409 0.04055 0.0
C749 C 0.44749 0.21423 0.05828 0.0
N750 N 0.49068 0.16408 0.05883 0.0
N751 N 0.4019 0.26103 0.98748 0.0
C752 C 0.47175 0.19026 0.04136 0.0
C753 C 0.42568 0.23947 1.00523 0.0
N754 N 0.49924 0.17186 0.98908 0.0
N755 N 0.40858 0.26746 0.05773 0.0
H756 H 0.40195 0.26203 0.96156 0.0
H757 H 0.38136 0.27688 0.99813 0.0
H758 H 0.4094 0.26904 0.08362 0.0
H759 H 0.39521 0.28957 0.04659 0.0
H760 H 0.52068 0.15768 1.00047 0.0
H761 H 0.50073 0.17172 0.96323 0.0
H762 H 0.50509 0.14268 0.04784 0.0
H763 H 0.49049 0.16249 0.08469 0.0
C764 C 0.80885 0.43173 0.50761 0.0
C765 C 0.80721 0.46605 0.49088 0.0
C766 C 0.80122 0.49768 0.54449 0.0
C767 C 0.80799 0.4639 0.56114 0.0
N768 N 0.81951 0.39864 0.55903 0.0
N769 N 0.80388 0.53212 0.49275 0.0
C770 C 0.81201 0.43086 0.54281 0.0
C771 C 0.80338 0.49916 0.50911 0.0
N772 N 0.8062 0.39988 0.48979 0.0
N773 N 0.79308 0.52835 0.56252 0.0
H774 H 0.80504 0.53424 0.46694 0.0
H775 H 0.80554 0.55742 0.50465 0.0
H776 H 0.79268 0.52853 0.58842 0.0
H777 H 0.78412 0.5529 0.55196 0.0
H778 H 0.8033 0.374 0.50052 0.0
H779 H 0.80339 0.39951 0.46403 0.0
H780 H 0.82759 0.37467 0.54706 0.0
H781 H 0.81961 0.39619 0.58481 0.0
C782 C 0.60357 0.78606 0.05053 0.0
C783 C 0.57484 0.80455 0.06729 0.0
C784 C 0.54448 0.81736 1.01391 0.0
C785 C 0.57581 0.80389 0.99714 0.0
N786 N 0.63649 0.77739 0.99891 0.0
N787 N 0.51778 0.83786 0.06581 0.0
C788 C 0.60545 0.78808 1.01524 0.0
C789 C 0.54502 0.81992 0.0492 0.0
N790 N 0.62944 0.76717 0.06838 0.0
N791 N 0.51408 0.82722 0.99595 0.0
H792 H 0.51619 0.83825 0.09168 0.0
H793 H 0.49766 0.85366 0.05417 0.0
H794 H 0.51294 0.82531 0.9701 0.0
H795 H 0.48906 0.83421 1.00655 0.0
H796 H 0.64889 0.75002 0.05766 0.0
H797 H 0.62974 0.76619 0.09424 0.0
H798 H 0.66084 0.77013 1.01086 0.0
H799 H 0.63894 0.77806 0.97314 0.0
C800 C 0.27422 0.3108 0.14662 0.0
C801 C 0.27204 0.3333 0.17519 0.0
C802 C 0.32251 0.29937 0.20141 0.0
C803 C 0.32466 0.27686 0.17288 0.0
N804 N 0.30788 0.2639 0.11645 0.0
N805 N 0.29738 0.35433 0.22687 0.0
C806 C 0.30219 0.28363 0.14477 0.0
C807 C 0.29733 0.32919 0.20173 0.0
N808 N 0.24844 0.31451 0.12208 0.0
N809 N 0.34386 0.29129 0.22843 0.0
H810 H 0.27923 0.37648 0.22733 0.0
H811 H 0.31689 0.355 0.24582 0.0
H812 H 0.36321 0.27018 0.22831 0.0
H813 H 0.34128 0.30408 0.25139 0.0
H814 H 0.24609 0.29688 0.10188 0.0
H815 H 0.22783 0.33435 0.12291 0.0
H816 H 0.29477 0.26926 0.09394 0.0
H817 H 0.32788 0.24346 0.11496 0.0
C818 C 0.74784 0.3219 0.6928 0.0
C819 C 0.77488 0.32554 0.6679 0.0
C820 C 0.7463 0.27572 0.63611 0.0
C821 C 0.72199 0.26938 0.66279 0.0
N822 N 0.6998 0.28425 0.71714 0.0
N823 N 0.80206 0.30542 0.61685 0.0
C824 C 0.72258 0.29213 0.69124 0.0
C825 C 0.77447 0.30256 0.63955 0.0
N826 N 0.74624 0.34741 0.71757 0.0
N827 N 0.74208 0.25601 0.60753 0.0
H828 H 0.82298 0.32488 0.61887 0.0
H829 H 0.80561 0.28729 0.59719 0.0
H830 H 0.72178 0.23597 0.60482 0.0
H831 H 0.75664 0.2612 0.58585 0.0
H832 H 0.72543 0.34844 0.73515 0.0
H833 H 0.76446 0.3695 0.71892 0.0
H834 H 0.70115 0.29728 0.74009 0.0
H835 H 0.68063 0.26296 0.71622 0.0
C836 C 0.75945 0.73488 0.20122 0.0
C837 C 0.77469 0.72332 0.17075 0.0
C838 C 0.73638 0.7674 0.14031 0.0
C839 C 0.721 0.77887 0.1708 0.0
N840 N 0.71186 0.7697 0.22919 0.0
N841 N 0.77371 0.72264 0.11117 0.0
C842 C 0.73069 0.76128 0.20098 0.0
C843 C 0.76173 0.73773 0.14018 0.0
N844 N 0.77367 0.72161 0.23031 0.0
N845 N 0.72797 0.78613 0.11183 0.0
H846 H 0.7925 0.70104 0.1107 0.0
H847 H 0.76313 0.7294 0.08789 0.0
H848 H 0.7095 0.808 0.11131 0.0
H849 H 0.74083 0.78167 0.08918 0.0
H850 H 0.76654 0.73147 0.25364 0.0
H851 H 0.79442 0.70187 0.23097 0.0
H852 H 0.71523 0.75587 0.25166 0.0
H853 H 0.69057 0.78886 0.22934 0.0
C854 C 0.27414 0.74446 0.64853 0.0
C855 C 0.27223 0.71738 0.67376 0.0
C856 C 0.32448 0.74536 0.70278 0.0
C857 C 0.32631 0.77251 0.67762 0.0
N858 N 0.30767 0.79575 0.62435 0.0
N859 N 0.29812 0.68758 0.72165 0.0
C860 C 0.30264 0.77123 0.64966 0.0
C861 C 0.29832 0.71649 0.69994 0.0
N862 N 0.24764 0.74527 0.62442 0.0
N863 N 0.34729 0.748 0.72971 0.0
H864 H 0.27911 0.66622 0.7199 0.0
H865 H 0.31799 0.68329 0.73989 0.0
H866 H 0.36754 0.76819 0.73161 0.0
H867 H 0.34532 0.73144 0.75072 0.0
H868 H 0.24504 0.76613 0.60686 0.0
H869 H 0.22679 0.72566 0.62305 0.0
H870 H 0.29364 0.7947 0.6018 0.0
H871 H 0.32783 0.81611 0.62519 0.0
C872 C 0.3016 0.77117 0.40778 0.0
C873 C 0.32495 0.77375 0.37986 0.0
C874 C 0.29464 0.72071 0.35421 0.0
C875 C 0.27093 0.71844 0.38191 0.0
N876 N 0.25398 0.73706 0.43683 0.0
N877 N 0.34829 0.74912 0.32902 0.0
C878 C 0.27528 0.74228 0.40939 0.0
C879 C 0.32285 0.74779 0.35381 0.0
N880 N 0.30394 0.79733 0.43198 0.0
N881 N 0.28942 0.69728 0.32814 0.0
H882 H 0.36899 0.76894 0.32837 0.0
H883 H 0.35047 0.72968 0.31026 0.0
H884 H 0.26994 0.67626 0.32863 0.0
H885 H 0.30324 0.69917 0.30567 0.0
H886 H 0.2859 0.7994 0.45181 0.0
H887 H 0.32344 0.81834 0.43141 0.0
H888 H 0.25732 0.75131 0.459 0.0
H889 H 0.23388 0.71667 0.438 0.0
C890 C 0.30491 0.28128 0.89973 0.0
C891 C 0.3283 0.27781 0.87195 0.0
C892 C 0.30019 0.332 0.84608 0.0
C893 C 0.27436 0.33314 0.8722 0.0
N894 N 0.25042 0.30945 0.92335 0.0
N895 N 0.34907 0.29844 0.81862 0.0
C896 C 0.27653 0.30817 0.89916 0.0
C897 C 0.32635 0.30303 0.84517 0.0
N898 N 0.31003 0.25863 0.92646 0.0
N899 N 0.29971 0.35908 0.82253 0.0
H900 H 0.3694 0.27827 0.81814 0.0
H901 H 0.34705 0.31337 0.79663 0.0
H902 H 0.28067 0.38047 0.82286 0.0
H903 H 0.31934 0.36195 0.80404 0.0
H904 H 0.29616 0.26131 0.94884 0.0
H905 H 0.33008 0.23819 0.92688 0.0
H906 H 0.24803 0.29019 0.94233 0.0
H907 H 0.22971 0.32923 0.92348 0.0
C908 C 0.71804 0.29945 0.35561 0.0
C909 C 0.72034 0.27168 0.3802 0.0
C910 C 0.77406 0.30179 0.40501 0.0
C911 C 0.77376 0.32759 0.37863 0.0
N912 N 0.74685 0.35203 0.3288 0.0
N913 N 0.74982 0.24472 0.42772 0.0
C914 C 0.74588 0.32687 0.35402 0.0
C915 C 0.74799 0.27262 0.40502 0.0
N916 N 0.68895 0.2994 0.33406 0.0
N917 N 0.79946 0.30544 0.42986 0.0
H918 H 0.73051 0.22355 0.42844 0.0
H919 H 0.77103 0.24145 0.44486 0.0
H920 H 0.81938 0.32604 0.42975 0.0
H921 H 0.79975 0.28962 0.45141 0.0
H922 H 0.68365 0.3201 0.31685 0.0
H923 H 0.66856 0.27927 0.33476 0.0
H924 H 0.72955 0.35152 0.30818 0.0
H925 H 0.76628 0.3731 0.32796 0.0
C926 C 0.75128 0.73156 0.85972 0.0
C927 C 0.77419 0.72372 0.88732 0.0
C928 C 0.74021 0.76783 0.92126 0.0
C929 C 0.7202 0.77861 0.89264 0.0
N930 N 0.70572 0.77206 0.83477 0.0
N931 N 0.79211 0.73391 0.94401 0.0
C932 C 0.72522 0.76052 0.86192 0.0
C933 C 0.76876 0.74138 0.91821 0.0
N934 N 0.75455 0.71086 0.83164 0.0
N935 N 0.73175 0.78319 0.95117 0.0
H936 H 0.81293 0.71435 0.94234 0.0
H937 H 0.7922 0.74808 0.96641 0.0
H938 H 0.71142 0.80316 0.95361 0.0
H939 H 0.74293 0.77469 0.97373 0.0
H940 H 0.73707 0.7129 0.81121 0.0
H941 H 0.77355 0.68953 0.82976 0.0
H942 H 0.71025 0.76276 0.81073 0.0
H943 H 0.68565 0.79242 0.8362 0.0
loop_
_geom_bond_atom_site_label_1
_geom_bond_atom_site_label_2
_geom_bond_distance
_geom_bond_site_symmetry_2
_ccdc_geom_bond_type
Cu0 N1 1.999 . S
Cu0 O6 1.974 . S
Cu0 N11 1.985 . S
Cu0 O20 1.959 . S
N1 Cu0 1.999 . S
N1 C3 1.263 . S
N1 C5 1.389 . S
N2 C3 1.358 . S
N2 C4 1.400 . S
C3 N1 1.263 . S
C3 N2 1.358 . S
C3 H9 0.930 . S
C4 N2 1.400 . S
C4 C5 1.351 . S
C4 H21 0.930 . S
C5 N1 1.389 . S
C5 C4 1.351 . S
C5 H10 0.930 . S
O6 Cu0 1.974 . S
O6 C16 1.282 . S
C7 O8 1.261 . S
C7 O20 1.251 . S
O8 C7 1.261 . S
H9 C3 0.930 . S
H10 C5 0.930 . S
N11 Cu0 1.985 . S
N11 C13 1.335 . S
N11 C14 1.390 . S
N12 C13 1.345 . S
N12 C15 1.336 . S
C13 N11 1.335 . S
C13 N12 1.345 . S
C13 H18 0.930 . S
C14 N11 1.390 . S
C14 C15 1.346 . S
C14 H19 0.930 . S
C15 N12 1.336 . S
C15 C14 1.346 . S
C15 H22 0.929 . S
C16 O6 1.282 . S
C16 O17 1.216 . S
O17 C16 1.216 . S
H18 C13 0.930 . S
H19 C14 0.930 . S
O20 Cu0 1.959 . S
O20 C7 1.251 . S
H21 C4 0.930 . S
H22 C15 0.929 . S
Cu23 N24 1.999 . S
Cu23 O29 1.974 . S
Cu23 N34 1.985 . S
Cu23 O43 1.959 . S
N24 Cu23 1.999 . S
N24 C26 1.263 . S
N24 C28 1.389 . S
N25 C26 1.358 . S
N25 C27 1.400 . S
C26 N24 1.263 . S
C26 N25 1.358 . S
C26 H32 0.930 . S
C27 N25 1.400 . S
C27 C28 1.351 . S
C27 H44 0.930 . S
C28 N24 1.389 . S
C28 C27 1.351 . S
C28 H33 0.930 . S
O29 Cu23 1.974 . S
O29 C39 1.282 . S
C30 O31 1.261 . S
C30 O43 1.251 . S
O31 C30 1.261 . S
H32 C26 0.930 . S
H33 C28 0.930 . S
N34 Cu23 1.985 . S
N34 C36 1.335 . S
N34 C37 1.390 . S
N35 C36 1.345 . S
N35 C38 1.336 . S
C36 N34 1.335 . S
C36 N35 1.345 . S
C36 H41 0.930 . S
C37 N34 1.390 . S
C37 C38 1.346 . S
C37 H42 0.930 . S
C38 N35 1.336 . S
C38 C37 1.346 . S
C38 H45 0.929 . S
C39 O29 1.282 . S
C39 O40 1.216 . S
O40 C39 1.216 . S
H41 C36 0.930 . S
H42 C37 0.930 . S
O43 Cu23 1.959 . S
O43 C30 1.251 . S
H44 C27 0.930 . S
H45 C38 0.929 . S
Cu46 N47 1.999 . S
Cu46 O52 1.974 . S
Cu46 N57 1.985 . S
Cu46 O66 1.959 . S
N47 Cu46 1.999 . S
N47 C49 1.263 . S
N47 C51 1.389 . S
N48 C49 1.358 . S
N48 C50 1.400 . S
C49 N47 1.263 . S
C49 N48 1.358 . S
C49 H55 0.930 . S
C50 N48 1.400 . S
C50 C51 1.351 . S
C50 H67 0.930 . S
C51 N47 1.389 . S
C51 C50 1.351 . S
C51 H56 0.930 . S
O52 Cu46 1.974 . S
O52 C62 1.282 . S
C53 O54 1.261 . S
C53 O66 1.251 . S
O54 C53 1.261 . S
H55 C49 0.930 . S
H56 C51 0.930 . S
N57 Cu46 1.985 . S
N57 C59 1.335 . S
N57 C60 1.390 . S
N58 C59 1.345 . S
N58 C61 1.336 . S
C59 N57 1.335 . S
C59 N58 1.345 . S
C59 H64 0.930 . S
C60 N57 1.390 . S
C60 C61 1.346 . S
C60 H65 0.930 . S
C61 N58 1.336 . S
C61 C60 1.346 . S
C61 H68 0.929 . S
C62 O52 1.282 . S
C62 O63 1.216 . S
O63 C62 1.216 . S
H64 C59 0.930 . S
H65 C60 0.930 . S
O66 Cu46 1.959 . S
O66 C53 1.251 . S
H67 C50 0.930 . S
H68 C61 0.929 . S
Cu69 N70 1.999 . S
Cu69 O75 1.974 . S
Cu69 N80 1.985 . S
Cu69 O89 1.959 . S
N70 Cu69 1.999 . S
N70 C72 1.263 . S
N70 C74 1.389 . S
N71 C72 1.358 . S
N71 C73 1.400 . S
C72 N70 1.263 . S
C72 N71 1.358 . S
C72 H78 0.930 . S
C73 N71 1.400 . S
C73 C74 1.351 . S
C73 H90 0.930 . S
C74 N70 1.389 . S
C74 C73 1.351 . S
C74 H79 0.930 . S
O75 Cu69 1.974 . S
O75 C85 1.282 . S
C76 O77 1.261 . S
C76 O89 1.251 . S
O77 C76 1.261 . S
H78 C72 0.930 . S
H79 C74 0.930 . S
N80 Cu69 1.985 . S
N80 C82 1.335 . S
N80 C83 1.390 . S
N81 C82 1.345 . S
N81 C84 1.336 . S
C82 N80 1.335 . S
C82 N81 1.345 . S
C82 H87 0.930 . S
C83 N80 1.390 . S
C83 C84 1.346 . S
C83 H88 0.930 . S
C84 N81 1.336 . S
C84 C83 1.346 . S
C84 H91 0.929 . S
C85 O75 1.282 . S
C85 O86 1.216 . S
O86 C85 1.216 . S
H87 C82 0.930 . S
H88 C83 0.930 . S
O89 Cu69 1.959 . S
O89 C76 1.251 . S
H90 C73 0.930 . S
H91 C84 0.929 . S
Cu92 N93 1.999 . S
Cu92 O98 1.974 . S
Cu92 N103 1.985 . S
Cu92 O112 1.959 . S
N93 Cu92 1.999 . S
N93 C95 1.263 . S
N93 C97 1.389 . S
N94 C95 1.358 . S
N94 C96 1.400 . S
C95 N93 1.263 . S
C95 N94 1.358 . S
C95 H101 0.930 . S
C96 N94 1.400 . S
C96 C97 1.351 . S
C96 H113 0.930 . S
C97 N93 1.389 . S
C97 C96 1.351 . S
C97 H102 0.930 . S
O98 Cu92 1.974 . S
O98 C108 1.282 . S
C99 O100 1.261 . S
C99 O112 1.251 . S
O100 C99 1.261 . S
H101 C95 0.930 . S
H102 C97 0.930 . S
N103 Cu92 1.985 . S
N103 C105 1.335 . S
N103 C106 1.390 . S
N104 C105 1.345 . S
N104 C107 1.336 . S
C105 N103 1.335 . S
C105 N104 1.345 . S
C105 H110 0.930 . S
C106 N103 1.390 . S
C106 C107 1.346 . S
C106 H111 0.930 . S
C107 N104 1.336 . S
C107 C106 1.346 . S
C107 H114 0.929 . S
C108 O98 1.282 . S
C108 O109 1.216 . S
O109 C108 1.216 . S
H110 C105 0.930 . S
H111 C106 0.930 . S
O112 Cu92 1.959 . S
O112 C99 1.251 . S
H113 C96 0.930 . S
H114 C107 0.929 . S
Cu115 N116 1.999 . S
Cu115 O121 1.974 . S
Cu115 N126 1.985 . S
Cu115 O135 1.959 . S
N116 Cu115 1.999 . S
N116 C118 1.263 . S
N116 C120 1.389 . S
N117 C118 1.358 . S
N117 C119 1.400 . S
C118 N116 1.263 . S
C118 N117 1.358 . S
C118 H124 0.930 . S
C119 N117 1.400 . S
C119 C120 1.351 . S
C119 H136 0.930 . S
C120 N116 1.389 . S
C120 C119 1.351 . S
C120 H125 0.930 . S
O121 Cu115 1.974 . S
O121 C131 1.282 . S
C122 O123 1.261 . S
C122 O135 1.251 . S
O123 C122 1.261 . S
H124 C118 0.930 . S
H125 C120 0.930 . S
N126 Cu115 1.985 . S
N126 C128 1.335 . S
N126 C129 1.390 . S
N127 C128 1.345 . S
N127 C130 1.336 . S
C128 N126 1.335 . S
C128 N127 1.345 . S
C128 H133 0.930 . S
C129 N126 1.390 . S
C129 C130 1.346 . S
C129 H134 0.930 . S
C130 N127 1.336 . S
C130 C129 1.346 . S
C130 H137 0.929 . S
C131 O121 1.282 . S
C131 O132 1.216 . S
O132 C131 1.216 . S
H133 C128 0.930 . S
H134 C129 0.930 . S
O135 Cu115 1.959 . S
O135 C122 1.251 . S
H136 C119 0.930 . S
H137 C130 0.929 . S
Cu138 N139 1.999 . S
Cu138 O144 1.974 . S
Cu138 N149 1.985 . S
Cu138 O158 1.959 . S
N139 Cu138 1.999 . S
N139 C141 1.263 . S
N139 C143 1.389 . S
N140 C141 1.358 . S
N140 C142 1.400 . S
C141 N139 1.263 . S
C141 N140 1.358 . S
C141 H147 0.930 . S
C142 N140 1.400 . S
C142 C143 1.351 . S
C142 H159 0.930 . S
C143 N139 1.389 . S
C143 C142 1.351 . S
C143 H148 0.930 . S
O144 Cu138 1.974 . S
O144 C154 1.282 . S
C145 O146 1.261 . S
C145 O158 1.251 . S
O146 C145 1.261 . S
H147 C141 0.930 . S
H148 C143 0.930 . S
N149 Cu138 1.985 . S
N149 C151 1.335 . S
N149 C152 1.390 . S
N150 C151 1.345 . S
N150 C153 1.336 . S
C151 N149 1.335 . S
C151 N150 1.345 . S
C151 H156 0.930 . S
C152 N149 1.390 . S
C152 C153 1.346 . S
C152 H157 0.930 . S
C153 N150 1.336 . S
C153 C152 1.346 . S
C153 H160 0.929 . S
C154 O144 1.282 . S
C154 O155 1.216 . S
O155 C154 1.216 . S
H156 C151 0.930 . S
H157 C152 0.930 . S
O158 Cu138 1.959 . S
O158 C145 1.251 . S
H159 C142 0.930 . S
H160 C153 0.929 . S
Cu161 N162 1.999 . S
Cu161 O167 1.974 . S
Cu161 N172 1.985 . S
Cu161 O181 1.959 . S
N162 Cu161 1.999 . S
N162 C164 1.263 . S
N162 C166 1.389 . S
N163 C164 1.358 . S
N163 C165 1.400 . S
C164 N162 1.263 . S
C164 N163 1.358 . S
C164 H170 0.930 . S
C165 N163 1.400 . S
C165 C166 1.351 . S
C165 H182 0.930 . S
C166 N162 1.389 . S
C166 C165 1.351 . S
C166 H171 0.930 . S
O167 Cu161 1.974 . S
O167 C177 1.282 . S
C168 O169 1.261 . S
C168 O181 1.251 . S
O169 C168 1.261 . S
H170 C164 0.930 . S
H171 C166 0.930 . S
N172 Cu161 1.985 . S
N172 C174 1.335 . S
N172 C175 1.390 . S
N173 C174 1.345 . S
N173 C176 1.336 . S
C174 N172 1.335 . S
C174 N173 1.345 . S
C174 H179 0.930 . S
C175 N172 1.390 . S
C175 C176 1.346 . S
C175 H180 0.930 . S
C176 N173 1.336 . S
C176 C175 1.346 . S
C176 H183 0.929 . S
C177 O167 1.282 . S
C177 O178 1.216 . S
O178 C177 1.216 . S
H179 C174 0.930 . S
H180 C175 0.930 . S
O181 Cu161 1.959 . S
O181 C168 1.251 . S
H182 C165 0.930 . S
H183 C176 0.929 . S
Cu184 N185 1.999 . S
Cu184 O190 1.974 . S
Cu184 N195 1.985 . S
Cu184 O204 1.959 . S
N185 Cu184 1.999 . S
N185 C187 1.263 . S
N185 C189 1.389 . S
N186 C187 1.358 . S
N186 C188 1.400 . S
C187 N185 1.263 . S
C187 N186 1.358 . S
C187 H193 0.930 . S
C188 N186 1.400 . S
C188 C189 1.351 . S
C188 H205 0.930 . S
C189 N185 1.389 . S
C189 C188 1.351 . S
C189 H194 0.930 . S
O190 Cu184 1.974 . S
O190 C200 1.282 . S
C191 O192 1.261 . S
C191 O204 1.251 . S
O192 C191 1.261 . S
H193 C187 0.930 . S
H194 C189 0.930 . S
N195 Cu184 1.985 . S
N195 C197 1.335 . S
N195 C198 1.390 . S
N196 C197 1.345 . S
N196 C199 1.336 . S
C197 N195 1.335 . S
C197 N196 1.345 . S
C197 H202 0.930 . S
C198 N195 1.390 . S
C198 C199 1.346 . S
C198 H203 0.930 . S
C199 N196 1.336 . S
C199 C198 1.346 . S
C199 H206 0.929 . S
C200 O190 1.282 . S
C200 O201 1.216 . S
O201 C200 1.216 . S
H202 C197 0.930 . S
H203 C198 0.930 . S
O204 Cu184 1.959 . S
O204 C191 1.251 . S
H205 C188 0.930 . S
H206 C199 0.929 . S
Cu207 N208 1.999 . S
Cu207 O213 1.974 . S
Cu207 N218 1.985 . S
Cu207 O227 1.959 . S
N208 Cu207 1.999 . S
N208 C210 1.263 . S
N208 C212 1.389 . S
N209 C210 1.358 . S
N209 C211 1.400 . S
C210 N208 1.263 . S
C210 N209 1.358 . S
C210 H216 0.930 . S
C211 N209 1.400 . S
C211 C212 1.351 . S
C211 H228 0.930 . S
C212 N208 1.389 . S
C212 C211 1.351 . S
C212 H217 0.930 . S
O213 Cu207 1.974 . S
O213 C223 1.282 . S
C214 O215 1.261 . S
C214 O227 1.251 . S
O215 C214 1.261 . S
H216 C210 0.930 . S
H217 C212 0.930 . S
N218 Cu207 1.985 . S
N218 C220 1.335 . S
N218 C221 1.390 . S
N219 C220 1.345 . S
N219 C222 1.336 . S
C220 N218 1.335 . S
C220 N219 1.345 . S
C220 H225 0.930 . S
C221 N218 1.390 . S
C221 C222 1.346 . S
C221 H226 0.930 . S
C222 N219 1.336 . S
C222 C221 1.346 . S
C222 H229 0.929 . S
C223 O213 1.282 . S
C223 O224 1.216 . S
O224 C223 1.216 . S
H225 C220 0.930 . S
H226 C221 0.930 . S
O227 Cu207 1.959 . S
O227 C214 1.251 . S
H228 C211 0.930 . S
H229 C222 0.929 . S
Cu230 N231 1.999 . S
Cu230 O236 1.974 . S
Cu230 N241 1.985 . S
Cu230 O250 1.959 . S
N231 Cu230 1.999 . S
N231 C233 1.263 . S
N231 C235 1.389 . S
N232 C233 1.358 . S
N232 C234 1.400 . S
C233 N231 1.263 . S
C233 N232 1.358 . S
C233 H239 0.930 . S
C234 N232 1.400 . S
C234 C235 1.351 . S
C234 H251 0.930 . S
C235 N231 1.389 . S
C235 C234 1.351 . S
C235 H240 0.930 . S
O236 Cu230 1.974 . S
O236 C246 1.282 . S
C237 O238 1.261 . S
C237 O250 1.251 . S
O238 C237 1.261 . S
H239 C233 0.930 . S
H240 C235 0.930 . S
N241 Cu230 1.985 . S
N241 C243 1.335 . S
N241 C244 1.390 . S
N242 C243 1.345 . S
N242 C245 1.336 . S
C243 N241 1.335 . S
C243 N242 1.345 . S
C243 H248 0.930 . S
C244 N241 1.390 . S
C244 C245 1.346 . S
C244 H249 0.930 . S
C245 N242 1.336 . S
C245 C244 1.346 . S
C245 H252 0.929 . S
C246 O236 1.282 . S
C246 O247 1.216 . S
O247 C246 1.216 . S
H248 C243 0.930 . S
H249 C244 0.930 . S
O250 Cu230 1.959 . S
O250 C237 1.251 . S
H251 C234 0.930 . S
H252 C245 0.929 . S
Cu253 N254 1.999 . S
Cu253 O259 1.974 . S
Cu253 N264 1.985 . S
Cu253 O273 1.959 . S
N254 Cu253 1.999 . S
N254 C256 1.263 . S
N254 C258 1.389 . S
N255 C256 1.358 . S
N255 C257 1.400 . S
C256 N254 1.263 . S
C256 N255 1.358 . S
C256 H262 0.930 . S
C257 N255 1.400 . S
C257 C258 1.351 . S
C257 H274 0.930 . S
C258 N254 1.389 . S
C258 C257 1.351 . S
C258 H263 0.930 . S
O259 Cu253 1.974 . S
O259 C269 1.282 . S
C260 O261 1.261 . S
C260 O273 1.251 . S
O261 C260 1.261 . S
H262 C256 0.930 . S
H263 C258 0.930 . S
N264 Cu253 1.985 . S
N264 C266 1.335 . S
N264 C267 1.390 . S
N265 C266 1.345 . S
N265 C268 1.336 . S
C266 N264 1.335 . S
C266 N265 1.345 . S
C266 H271 0.930 . S
C267 N264 1.390 . S
C267 C268 1.346 . S
C267 H272 0.930 . S
C268 N265 1.336 . S
C268 C267 1.346 . S
C268 H275 0.929 . S
C269 O259 1.282 . S
C269 O270 1.216 . S
O270 C269 1.216 . S
H271 C266 0.930 . S
H272 C267 0.930 . S
O273 Cu253 1.959 . S
O273 C260 1.251 . S
H274 C257 0.930 . S
H275 C268 0.929 . S
Cu276 N277 1.999 . S
Cu276 O282 1.974 . S
Cu276 N287 1.985 . S
Cu276 O296 1.959 . S
N277 Cu276 1.999 . S
N277 C279 1.263 . S
N277 C281 1.389 . S
N278 C279 1.358 . S
N278 C280 1.400 . S
C279 N277 1.263 . S
C279 N278 1.358 . S
C279 H285 0.930 . S
C280 N278 1.400 . S
C280 C281 1.351 . S
C280 H297 0.930 . S
C281 N277 1.389 . S
C281 C280 1.351 . S
C281 H286 0.930 . S
O282 Cu276 1.974 . S
O282 C292 1.282 . S
C283 O284 1.261 . S
C283 O296 1.251 . S
O284 C283 1.261 . S
H285 C279 0.930 . S
H286 C281 0.930 . S
N287 Cu276 1.985 . S
N287 C289 1.335 . S
N287 C290 1.390 . S
N288 C289 1.345 . S
N288 C291 1.336 . S
C289 N287 1.335 . S
C289 N288 1.345 . S
C289 H294 0.930 . S
C290 N287 1.390 . S
C290 C291 1.346 . S
C290 H295 0.930 . S
C291 N288 1.336 . S
C291 C290 1.346 . S
C291 H298 0.929 . S
C292 O282 1.282 . S
C292 O293 1.216 . S
O293 C292 1.216 . S
H294 C289 0.930 . S
H295 C290 0.930 . S
O296 Cu276 1.959 . S
O296 C283 1.251 . S
H297 C280 0.930 . S
H298 C291 0.929 . S
Cu299 N300 1.999 . S
Cu299 O305 1.974 . S
Cu299 N310 1.985 . S
Cu299 O319 1.959 . S
N300 Cu299 1.999 . S
N300 C302 1.263 . S
N300 C304 1.389 . S
N301 C302 1.358 . S
N301 C303 1.400 . S
C302 N300 1.263 . S
C302 N301 1.358 . S
C302 H308 0.930 . S
C303 N301 1.400 . S
C303 C304 1.351 . S
C303 H320 0.930 . S
C304 N300 1.389 . S
C304 C303 1.351 . S
C304 H309 0.930 . S
O305 Cu299 1.974 . S
O305 C315 1.282 . S
C306 O307 1.261 . S
C306 O319 1.251 . S
O307 C306 1.261 . S
H308 C302 0.930 . S
H309 C304 0.930 . S
N310 Cu299 1.985 . S
N310 C312 1.335 . S
N310 C313 1.390 . S
N311 C312 1.345 . S
N311 C314 1.336 . S
C312 N310 1.335 . S
C312 N311 1.345 . S
C312 H317 0.930 . S
C313 N310 1.390 . S
C313 C314 1.346 . S
C313 H318 0.930 . S
C314 N311 1.336 . S
C314 C313 1.346 . S
C314 H321 0.929 . S
C315 O305 1.282 . S
C315 O316 1.216 . S
O316 C315 1.216 . S
H317 C312 0.930 . S
H318 C313 0.930 . S
O319 Cu299 1.959 . S
O319 C306 1.251 . S
H320 C303 0.930 . S
H321 C314 0.929 . S
Cu322 N323 1.999 . S
Cu322 O328 1.974 . S
Cu322 N333 1.985 . S
Cu322 O342 1.959 . S
N323 Cu322 1.999 . S
N323 C325 1.263 . S
N323 C327 1.389 . S
N324 C325 1.358 . S
N324 C326 1.400 . S
C325 N323 1.263 . S
C325 N324 1.358 . S
C325 H331 0.930 . S
C326 N324 1.400 . S
C326 C327 1.351 . S
C326 H343 0.930 . S
C327 N323 1.389 . S
C327 C326 1.351 . S
C327 H332 0.930 . S
O328 Cu322 1.974 . S
O328 C338 1.282 . S
C329 O330 1.261 . S
C329 O342 1.251 . S
O330 C329 1.261 . S
H331 C325 0.930 . S
H332 C327 0.930 . S
N333 Cu322 1.985 . S
N333 C335 1.335 . S
N333 C336 1.390 . S
N334 C335 1.345 . S
N334 C337 1.336 . S
C335 N333 1.335 . S
C335 N334 1.345 . S
C335 H340 0.930 . S
C336 N333 1.390 . S
C336 C337 1.346 . S
C336 H341 0.930 . S
C337 N334 1.336 . S
C337 C336 1.346 . S
C337 H344 0.929 . S
C338 O328 1.282 . S
C338 O339 1.216 . S
O339 C338 1.216 . S
H340 C335 0.930 . S
H341 C336 0.930 . S
O342 Cu322 1.959 . S
O342 C329 1.251 . S
H343 C326 0.930 . S
H344 C337 0.929 . S
Cu345 N346 1.999 . S
Cu345 O351 1.974 . S
Cu345 N356 1.985 . S
Cu345 O365 1.959 . S
N346 Cu345 1.999 . S
N346 C348 1.263 . S
N346 C350 1.389 . S
N347 C348 1.358 . S
N347 C349 1.400 . S
C348 N346 1.263 . S
C348 N347 1.358 . S
C348 H354 0.930 . S
C349 N347 1.400 . S
C349 C350 1.351 . S
C349 H366 0.930 . S
C350 N346 1.389 . S
C350 C349 1.351 . S
C350 H355 0.930 . S
O351 Cu345 1.974 . S
O351 C361 1.282 . S
C352 O353 1.261 . S
C352 O365 1.251 . S
O353 C352 1.261 . S
H354 C348 0.930 . S
H355 C350 0.930 . S
N356 Cu345 1.985 . S
N356 C358 1.335 . S
N356 C359 1.390 . S
N357 C358 1.345 . S
N357 C360 1.336 . S
C358 N356 1.335 . S
C358 N357 1.345 . S
C358 H363 0.930 . S
C359 N356 1.390 . S
C359 C360 1.346 . S
C359 H364 0.930 . S
C360 N357 1.336 . S
C360 C359 1.346 . S
C360 H367 0.929 . S
C361 O351 1.282 . S
C361 O362 1.216 . S
O362 C361 1.216 . S
H363 C358 0.930 . S
H364 C359 0.930 . S
O365 Cu345 1.959 . S
O365 C352 1.251 . S
H366 C349 0.930 . S
H367 C360 0.929 . S
C368 C369 1.363 . S
C368 C374 1.379 1_455 S
C368 N376 1.356 . S
C369 C368 1.363 . S
C369 C375 1.363 . S
C370 C371 1.363 . S
C370 C375 1.379 1_655 S
C370 N377 1.356 . S
C371 C370 1.363 . S
C371 C374 1.363 . S
N372 C374 1.356 . S
N372 H384 0.984 . S
N372 H385 0.985 . S
N373 C375 1.356 . S
N373 H378 0.984 . S
N373 H379 0.985 . S
C374 C368 1.379 1_655 S
C374 C371 1.363 . S
C374 N372 1.356 . S
C375 C369 1.363 . S
C375 C370 1.379 1_455 S
C375 N373 1.356 . S
N376 C368 1.356 . S
N376 H382 0.984 . S
N376 H383 0.984 . S
N377 C370 1.356 . S
N377 H380 0.984 . S
N377 H381 0.985 . S
H378 N373 0.984 . S
H379 N373 0.985 . S
H380 N377 0.984 . S
H381 N377 0.985 . S
H382 N376 0.984 . S
H383 N376 0.984 . S
H384 N372 0.984 . S
H385 N372 0.985 . S
C386 C387 1.363 . S
C386 C392 1.379 1_565 S
C386 N394 1.356 . S
C387 C386 1.363 . S
C387 C393 1.363 . S
C388 C389 1.363 . S
C388 C393 1.379 1_545 S
C388 N395 1.356 . S
C389 C388 1.363 . S
C389 C392 1.363 . S
N390 C392 1.356 . S
N390 H402 0.984 . S
N390 H403 0.985 . S
N391 C393 1.356 . S
N391 H396 0.984 . S
N391 H397 0.985 . S
C392 C386 1.379 1_545 S
C392 C389 1.363 . S
C392 N390 1.356 . S
C393 C387 1.363 . S
C393 C388 1.379 1_565 S
C393 N391 1.356 . S
N394 C386 1.356 . S
N394 H400 0.984 . S
N394 H401 0.984 . S
N395 C388 1.356 . S
N395 H398 0.984 . S
N395 H399 0.985 . S
H396 N391 0.984 . S
H397 N391 0.985 . S
H398 N395 0.984 . S
H399 N395 0.985 . S
H400 N394 0.984 . S
H401 N394 0.984 . S
H402 N390 0.984 . S
H403 N390 0.985 . S
C404 C405 1.363 . S
C404 C410 1.379 1_455 S
C404 N412 1.356 . S
C405 C404 1.363 . S
C405 C411 1.363 . S
C406 C407 1.363 . S
C406 C411 1.379 1_655 S
C406 N413 1.356 . S
C407 C406 1.363 . S
C407 C410 1.363 . S
N408 C410 1.356 . S
N408 H420 0.984 . S
N408 H421 0.985 . S
N409 C411 1.356 . S
N409 H414 0.984 . S
N409 H415 0.985 . S
C410 C404 1.379 1_655 S
C410 C407 1.363 . S
C410 N408 1.356 . S
C411 C405 1.363 . S
C411 C406 1.379 1_455 S
C411 N409 1.356 . S
N412 C404 1.356 . S
N412 H418 0.984 . S
N412 H419 0.984 . S
N413 C406 1.356 . S
N413 H416 0.984 . S
N413 H417 0.985 . S
H414 N409 0.984 . S
H415 N409 0.985 . S
H416 N413 0.984 . S
H417 N413 0.985 . S
H418 N412 0.984 . S
H419 N412 0.984 . S
H420 N408 0.984 . S
H421 N408 0.985 . S
C422 C423 1.363 . S
C422 C428 1.379 1_565 S
C422 N430 1.356 . S
C423 C422 1.363 . S
C423 C429 1.363 . S
C424 C425 1.363 . S
C424 C429 1.379 1_545 S
C424 N431 1.356 . S
C425 C424 1.363 . S
C425 C428 1.363 . S
N426 C428 1.356 . S
N426 H438 0.984 . S
N426 H439 0.985 . S
N427 C429 1.356 . S
N427 H432 0.984 . S
N427 H433 0.985 . S
C428 C422 1.379 1_545 S
C428 C425 1.363 . S
C428 N426 1.356 . S
C429 C423 1.363 . S
C429 C424 1.379 1_565 S
C429 N427 1.356 . S
N430 C422 1.356 . S
N430 H436 0.984 . S
N430 H437 0.984 . S
N431 C424 1.356 . S
N431 H434 0.984 . S
N431 H435 0.985 . S
H432 N427 0.984 . S
H433 N427 0.985 . S
H434 N431 0.984 . S
H435 N431 0.985 . S
H436 N430 0.984 . S
H437 N430 0.984 . S
H438 N426 0.984 . S
H439 N426 0.985 . S
C440 C441 1.363 . S
C440 C446 1.379 1_655 S
C440 N448 1.356 . S
C441 C440 1.363 . S
C441 C447 1.363 . S
C442 C443 1.363 . S
C442 C447 1.379 1_455 S
C442 N449 1.356 . S
C443 C442 1.363 . S
C443 C446 1.363 . S
N444 C446 1.356 . S
N444 H456 0.984 . S
N444 H457 0.985 . S
N445 C447 1.356 . S
N445 H450 0.984 . S
N445 H451 0.985 . S
C446 C440 1.379 1_455 S
C446 C443 1.363 . S
C446 N444 1.356 . S
C447 C441 1.363 . S
C447 C442 1.379 1_655 S
C447 N445 1.356 . S
N448 C440 1.356 . S
N448 H454 0.984 . S
N448 H455 0.984 . S
N449 C442 1.356 . S
N449 H452 0.984 . S
N449 H453 0.985 . S
H450 N445 0.984 . S
H451 N445 0.985 . S
H452 N449 0.984 . S
H453 N449 0.985 . S
H454 N448 0.984 . S
H455 N448 0.984 . S
H456 N444 0.984 . S
H457 N444 0.985 . S
C458 C459 1.363 . S
C458 C464 1.379 1_545 S
C458 N466 1.356 . S
C459 C458 1.363 . S
C459 C465 1.363 . S
C460 C461 1.363 . S
C460 C465 1.379 1_565 S
C460 N467 1.356 . S
C461 C460 1.363 . S
C461 C464 1.363 . S
N462 C464 1.356 . S
N462 H474 0.984 . S
N462 H475 0.985 . S
N463 C465 1.356 . S
N463 H468 0.984 . S
N463 H469 0.985 . S
C464 C458 1.379 1_565 S
C464 C461 1.363 . S
C464 N462 1.356 . S
C465 C459 1.363 . S
C465 C460 1.379 1_545 S
C465 N463 1.356 . S
N466 C458 1.356 . S
N466 H472 0.984 . S
N466 H473 0.984 . S
N467 C460 1.356 . S
N467 H470 0.984 . S
N467 H471 0.985 . S
H468 N463 0.984 . S
H469 N463 0.985 . S
H470 N467 0.984 . S
H471 N467 0.985 . S
H472 N466 0.984 . S
H473 N466 0.984 . S
H474 N462 0.984 . S
H475 N462 0.985 . S
C476 C477 1.363 . S
C476 C482 1.379 1_655 S
C476 N484 1.356 . S
C477 C476 1.363 . S
C477 C483 1.363 . S
C478 C479 1.363 . S
C478 C483 1.379 1_455 S
C478 N485 1.356 . S
C479 C478 1.363 . S
C479 C482 1.363 . S
N480 C482 1.356 . S
N480 H492 0.984 . S
N480 H493 0.985 . S
N481 C483 1.356 . S
N481 H486 0.984 . S
N481 H487 0.985 . S
C482 C476 1.379 1_455 S
C482 C479 1.363 . S
C482 N480 1.356 . S
C483 C477 1.363 . S
C483 C478 1.379 1_655 S
C483 N481 1.356 . S
N484 C476 1.356 . S
N484 H490 0.984 . S
N484 H491 0.984 . S
N485 C478 1.356 . S
N485 H488 0.984 . S
N485 H489 0.985 . S
H486 N481 0.984 . S
H487 N481 0.985 . S
H488 N485 0.984 . S
H489 N485 0.985 . S
H490 N484 0.984 . S
H491 N484 0.984 . S
H492 N480 0.984 . S
H493 N480 0.985 . S
C494 C495 1.363 . S
C494 C500 1.379 1_545 S
C494 N502 1.356 . S
C495 C494 1.363 . S
C495 C501 1.363 . S
C496 C497 1.363 . S
C496 C501 1.379 1_565 S
C496 N503 1.356 . S
C497 C496 1.363 . S
C497 C500 1.363 . S
N498 C500 1.356 . S
N498 H510 0.984 . S
N498 H511 0.985 . S
N499 C501 1.356 . S
N499 H504 0.984 . S
N499 H505 0.985 . S
C500 C494 1.379 1_565 S
C500 C497 1.363 . S
C500 N498 1.356 . S
C501 C495 1.363 . S
C501 C496 1.379 1_545 S
C501 N499 1.356 . S
N502 C494 1.356 . S
N502 H508 0.984 . S
N502 H509 0.984 . S
N503 C496 1.356 . S
N503 H506 0.984 . S
N503 H507 0.985 . S
H504 N499 0.984 . S
H505 N499 0.985 . S
H506 N503 0.984 . S
H507 N503 0.985 . S
H508 N502 0.984 . S
H509 N502 0.984 . S
H510 N498 0.984 . S
H511 N498 0.985 . S
C512 C513 1.363 . S
C512 C518 1.379 . S
C512 N520 1.356 . S
C513 C512 1.363 . S
C513 C519 1.363 . S
C514 C515 1.363 . S
C514 C519 1.379 . S
C514 N521 1.356 . S
C515 C514 1.363 . S
C515 C518 1.363 . S
N516 C518 1.356 . S
N516 H528 0.984 . S
N516 H529 0.985 . S
N517 C519 1.356 . S
N517 H522 0.984 . S
N517 H523 0.985 . S
C518 C512 1.379 . S
C518 C515 1.363 . S
C518 N516 1.356 . S
C519 C513 1.363 . S
C519 C514 1.379 . S
C519 N517 1.356 . S
N520 C512 1.356 . S
N520 H526 0.984 . S
N520 H527 0.984 . S
N521 C514 1.356 . S
N521 H524 0.984 . S
N521 H525 0.985 . S
H522 N517 0.984 . S
H523 N517 0.985 . S
H524 N521 0.984 . S
H525 N521 0.985 . S
H526 N520 0.984 . S
H527 N520 0.984 . S
H528 N516 0.984 . S
H529 N516 0.985 . S
C530 C531 1.363 . S
C530 C536 1.379 . S
C530 N538 1.356 . S
C531 C530 1.363 . S
C531 C537 1.363 . S
C532 C533 1.363 . S
C532 C537 1.379 . S
C532 N539 1.356 . S
C533 C532 1.363 . S
C533 C536 1.363 . S
N534 C536 1.356 . S
N534 H546 0.984 . S
N534 H547 0.985 . S
N535 C537 1.356 . S
N535 H540 0.984 . S
N535 H541 0.985 . S
C536 C530 1.379 . S
C536 C533 1.363 . S
C536 N534 1.356 . S
C537 C531 1.363 . S
C537 C532 1.379 . S
C537 N535 1.356 . S
N538 C530 1.356 . S
N538 H544 0.984 . S
N538 H545 0.984 . S
N539 C532 1.356 . S
N539 H542 0.984 . S
N539 H543 0.985 . S
H540 N535 0.984 . S
H541 N535 0.985 . S
H542 N539 0.984 . S
H543 N539 0.985 . S
H544 N538 0.984 . S
H545 N538 0.984 . S
H546 N534 0.984 . S
H547 N534 0.985 . S
C548 C549 1.363 . S
C548 C554 1.379 . S
C548 N556 1.356 . S
C549 C548 1.363 . S
C549 C555 1.363 . S
C550 C551 1.363 . S
C550 C555 1.379 . S
C550 N557 1.356 . S
C551 C550 1.363 . S
C551 C554 1.363 . S
N552 C554 1.356 . S
N552 H564 0.984 . S
N552 H565 0.985 . S
N553 C555 1.356 . S
N553 H558 0.984 . S
N553 H559 0.985 . S
C554 C548 1.379 . S
C554 C551 1.363 . S
C554 N552 1.356 . S
C555 C549 1.363 . S
C555 C550 1.379 . S
C555 N553 1.356 . S
N556 C548 1.356 . S
N556 H562 0.984 . S
N556 H563 0.984 . S
N557 C550 1.356 . S
N557 H560 0.984 . S
N557 H561 0.985 . S
H558 N553 0.984 . S
H559 N553 0.985 . S
H560 N557 0.984 . S
H561 N557 0.985 . S
H562 N556 0.984 . S
H563 N556 0.984 . S
H564 N552 0.984 . S
H565 N552 0.985 . S
C566 C567 1.363 . S
C566 C572 1.379 . S
C566 N574 1.356 . S
C567 C566 1.363 . S
C567 C573 1.363 . S
C568 C569 1.363 . S
C568 C573 1.379 . S
C568 N575 1.356 . S
C569 C568 1.363 . S
C569 C572 1.363 . S
N570 C572 1.356 . S
N570 H582 0.984 . S
N570 H583 0.985 . S
N571 C573 1.356 . S
N571 H576 0.984 . S
N571 H577 0.985 . S
C572 C566 1.379 . S
C572 C569 1.363 . S
C572 N570 1.356 . S
C573 C567 1.363 . S
C573 C568 1.379 . S
C573 N571 1.356 . S
N574 C566 1.356 . S
N574 H580 0.984 . S
N574 H581 0.984 . S
N575 C568 1.356 . S
N575 H578 0.984 . S
N575 H579 0.985 . S
H576 N571 0.984 . S
H577 N571 0.985 . S
H578 N575 0.984 . S
H579 N575 0.985 . S
H580 N574 0.984 . S
H581 N574 0.984 . S
H582 N570 0.984 . S
H583 N570 0.985 . S
C584 C585 1.363 . S
C584 C590 1.379 . S
C584 N592 1.356 . S
C585 C584 1.363 . S
C585 C591 1.363 . S
C586 C587 1.363 . S
C586 C591 1.379 . S
C586 N593 1.356 . S
C587 C586 1.363 . S
C587 C590 1.363 . S
N588 C590 1.356 . S
N588 H600 0.984 . S
N588 H601 0.985 . S
N589 C591 1.356 . S
N589 H594 0.984 . S
N589 H595 0.985 . S
C590 C584 1.379 . S
C590 C587 1.363 . S
C590 N588 1.356 . S
C591 C585 1.363 . S
C591 C586 1.379 . S
C591 N589 1.356 . S
N592 C584 1.356 . S
N592 H598 0.984 . S
N592 H599 0.984 . S
N593 C586 1.356 . S
N593 H596 0.984 . S
N593 H597 0.985 . S
H594 N589 0.984 . S
H595 N589 0.985 . S
H596 N593 0.984 . S
H597 N593 0.985 . S
H598 N592 0.984 . S
H599 N592 0.984 . S
H600 N588 0.984 . S
H601 N588 0.985 . S
C602 C603 1.363 . S
C602 C608 1.379 . S
C602 N610 1.356 . S
C603 C602 1.363 . S
C603 C609 1.363 . S
C604 C605 1.363 . S
C604 C609 1.379 . S
C604 N611 1.356 . S
C605 C604 1.363 . S
C605 C608 1.363 . S
N606 C608 1.356 . S
N606 H618 0.984 . S
N606 H619 0.985 . S
N607 C609 1.356 . S
N607 H612 0.984 . S
N607 H613 0.985 . S
C608 C602 1.379 . S
C608 C605 1.363 . S
C608 N606 1.356 . S
C609 C603 1.363 . S
C609 C604 1.379 . S
C609 N607 1.356 . S
N610 C602 1.356 . S
N610 H616 0.984 . S
N610 H617 0.984 . S
N611 C604 1.356 . S
N611 H614 0.984 . S
N611 H615 0.985 . S
H612 N607 0.984 . S
H613 N607 0.985 . S
H614 N611 0.984 . S
H615 N611 0.985 . S
H616 N610 0.984 . S
H617 N610 0.984 . S
H618 N606 0.984 . S
H619 N606 0.985 . S
C620 C621 1.363 . S
C620 C626 1.379 . S
C620 N628 1.356 . S
C621 C620 1.363 . S
C621 C627 1.363 . S
C622 C623 1.363 . S
C622 C627 1.379 . S
C622 N629 1.356 . S
C623 C622 1.363 . S
C623 C626 1.363 . S
N624 C626 1.356 . S
N624 H636 0.984 . S
N624 H637 0.985 . S
N625 C627 1.356 . S
N625 H630 0.984 . S
N625 H631 0.985 . S
C626 C620 1.379 . S
C626 C623 1.363 . S
C626 N624 1.356 . S
C627 C621 1.363 . S
C627 C622 1.379 . S
C627 N625 1.356 . S
N628 C620 1.356 . S
N628 H634 0.984 . S
N628 H635 0.984 . S
N629 C622 1.356 . S
N629 H632 0.984 . S
N629 H633 0.985 . S
H630 N625 0.984 . S
H631 N625 0.985 . S
H632 N629 0.984 . S
H633 N629 0.985 . S
H634 N628 0.984 . S
H635 N628 0.984 . S
H636 N624 0.984 . S
H637 N624 0.985 . S
C638 C639 1.363 . S
C638 C644 1.379 . S
C638 N646 1.356 . S
C639 C638 1.363 . S
C639 C645 1.363 . S
C640 C641 1.363 . S
C640 C645 1.379 . S
C640 N647 1.356 . S
C641 C640 1.363 . S
C641 C644 1.363 . S
N642 C644 1.356 . S
N642 H654 0.984 . S
N642 H655 0.985 . S
N643 C645 1.356 . S
N643 H648 0.984 . S
N643 H649 0.985 . S
C644 C638 1.379 . S
C644 C641 1.363 . S
C644 N642 1.356 . S
C645 C639 1.363 . S
C645 C640 1.379 . S
C645 N643 1.356 . S
N646 C638 1.356 . S
N646 H652 0.984 . S
N646 H653 0.984 . S
N647 C640 1.356 . S
N647 H650 0.984 . S
N647 H651 0.985 . S
H648 N643 0.984 . S
H649 N643 0.985 . S
H650 N647 0.984 . S
H651 N647 0.985 . S
H652 N646 0.984 . S
H653 N646 0.984 . S
H654 N642 0.984 . S
H655 N642 0.985 . S
C656 C657 1.363 . S
C656 C662 1.379 1_556 S
C656 N664 1.356 . S
C657 C656 1.363 . S
C657 C663 1.363 . S
C658 C659 1.363 . S
C658 C663 1.379 1_554 S
C658 N665 1.356 . S
C659 C658 1.363 . S
C659 C662 1.363 . S
N660 C662 1.356 . S
N660 H672 0.984 . S
N660 H673 0.985 . S
N661 C663 1.356 . S
N661 H666 0.984 . S
N661 H667 0.985 . S
C662 C656 1.379 1_554 S
C662 C659 1.363 . S
C662 N660 1.356 . S
C663 C657 1.363 . S
C663 C658 1.379 1_556 S
C663 N661 1.356 . S
N664 C656 1.356 . S
N664 H670 0.984 . S
N664 H671 0.984 . S
N665 C658 1.356 . S
N665 H668 0.984 . S
N665 H669 0.985 . S
H666 N661 0.984 . S
H667 N661 0.985 . S
H668 N665 0.984 . S
H669 N665 0.985 . S
H670 N664 0.984 . S
H671 N664 0.984 . S
H672 N660 0.984 . S
H673 N660 0.985 . S
C674 C675 1.363 . S
C674 C680 1.379 . S
C674 N682 1.356 . S
C675 C674 1.363 . S
C675 C681 1.363 . S
C676 C677 1.363 . S
C676 C681 1.379 . S
C676 N683 1.356 . S
C677 C676 1.363 . S
C677 C680 1.363 . S
N678 C680 1.356 . S
N678 H690 0.984 . S
N678 H691 0.985 . S
N679 C681 1.356 . S
N679 H684 0.984 . S
N679 H685 0.985 . S
C680 C674 1.379 . S
C680 C677 1.363 . S
C680 N678 1.356 . S
C681 C675 1.363 . S
C681 C676 1.379 . S
C681 N679 1.356 . S
N682 C674 1.356 . S
N682 H688 0.984 . S
N682 H689 0.984 . S
N683 C676 1.356 . S
N683 H686 0.984 . S
N683 H687 0.985 . S
H684 N679 0.984 . S
H685 N679 0.985 . S
H686 N683 0.984 . S
H687 N683 0.985 . S
H688 N682 0.984 . S
H689 N682 0.984 . S
H690 N678 0.984 . S
H691 N678 0.985 . S
C692 C693 1.363 . S
C692 C698 1.379 1_554 S
C692 N700 1.356 . S
C693 C692 1.363 . S
C693 C699 1.363 . S
C694 C695 1.363 . S
C694 C699 1.379 1_556 S
C694 N701 1.356 . S
C695 C694 1.363 . S
C695 C698 1.363 . S
N696 C698 1.356 . S
N696 H708 0.984 . S
N696 H709 0.985 . S
N697 C699 1.356 . S
N697 H702 0.984 . S
N697 H703 0.985 . S
C698 C692 1.379 1_556 S
C698 C695 1.363 . S
C698 N696 1.356 . S
C699 C693 1.363 . S
C699 C694 1.379 1_554 S
C699 N697 1.356 . S
N700 C692 1.356 . S
N700 H706 0.984 . S
N700 H707 0.984 . S
N701 C694 1.356 . S
N701 H704 0.984 . S
N701 H705 0.985 . S
H702 N697 0.984 . S
H703 N697 0.985 . S
H704 N701 0.984 . S
H705 N701 0.985 . S
H706 N700 0.984 . S
H707 N700 0.984 . S
H708 N696 0.984 . S
H709 N696 0.985 . S
C710 C711 1.363 . S
C710 C716 1.379 . S
C710 N718 1.356 . S
C711 C710 1.363 . S
C711 C717 1.363 . S
C712 C713 1.363 . S
C712 C717 1.379 . S
C712 N719 1.356 . S
C713 C712 1.363 . S
C713 C716 1.363 . S
N714 C716 1.356 . S
N714 H726 0.984 . S
N714 H727 0.985 . S
N715 C717 1.356 . S
N715 H720 0.984 . S
N715 H721 0.985 . S
C716 C710 1.379 . S
C716 C713 1.363 . S
C716 N714 1.356 . S
C717 C711 1.363 . S
C717 C712 1.379 . S
C717 N715 1.356 . S
N718 C710 1.356 . S
N718 H724 0.984 . S
N718 H725 0.984 . S
N719 C712 1.356 . S
N719 H722 0.984 . S
N719 H723 0.985 . S
H720 N715 0.984 . S
H721 N715 0.985 . S
H722 N719 0.984 . S
H723 N719 0.985 . S
H724 N718 0.984 . S
H725 N718 0.984 . S
H726 N714 0.984 . S
H727 N714 0.985 . S
C728 C729 1.363 . S
C728 C734 1.379 . S
C728 N736 1.356 . S
C729 C728 1.363 . S
C729 C735 1.363 . S
C730 C731 1.363 . S
C730 C735 1.379 . S
C730 N737 1.356 . S
C731 C730 1.363 . S
C731 C734 1.363 . S
N732 C734 1.356 . S
N732 H744 0.984 . S
N732 H745 0.985 . S
N733 C735 1.356 . S
N733 H738 0.984 . S
N733 H739 0.985 . S
C734 C728 1.379 . S
C734 C731 1.363 . S
C734 N732 1.356 . S
C735 C729 1.363 . S
C735 C730 1.379 . S
C735 N733 1.356 . S
N736 C728 1.356 . S
N736 H742 0.984 . S
N736 H743 0.984 . S
N737 C730 1.356 . S
N737 H740 0.984 . S
N737 H741 0.985 . S
H738 N733 0.984 . S
H739 N733 0.985 . S
H740 N737 0.984 . S
H741 N737 0.985 . S
H742 N736 0.984 . S
H743 N736 0.984 . S
H744 N732 0.984 . S
H745 N732 0.985 . S
C746 C747 1.363 . S
C746 C752 1.379 1_556 S
C746 N754 1.356 . S
C747 C746 1.363 . S
C747 C753 1.363 . S
C748 C749 1.363 . S
C748 C753 1.379 1_554 S
C748 N755 1.356 . S
C749 C748 1.363 . S
C749 C752 1.363 . S
N750 C752 1.356 . S
N750 H762 0.984 . S
N750 H763 0.985 . S
N751 C753 1.356 . S
N751 H756 0.984 . S
N751 H757 0.985 . S
C752 C746 1.379 1_554 S
C752 C749 1.363 . S
C752 N750 1.356 . S
C753 C747 1.363 . S
C753 C748 1.379 1_556 S
C753 N751 1.356 . S
N754 C746 1.356 . S
N754 H760 0.984 . S
N754 H761 0.984 . S
N755 C748 1.356 . S
N755 H758 0.984 . S
N755 H759 0.985 . S
H756 N751 0.984 . S
H757 N751 0.985 . S
H758 N755 0.984 . S
H759 N755 0.985 . S
H760 N754 0.984 . S
H761 N754 0.984 . S
H762 N750 0.984 . S
H763 N750 0.985 . S
C764 C765 1.363 . S
C764 C770 1.379 . S
C764 N772 1.356 . S
C765 C764 1.363 . S
C765 C771 1.363 . S
C766 C767 1.363 . S
C766 C771 1.379 . S
C766 N773 1.356 . S
C767 C766 1.363 . S
C767 C770 1.363 . S
N768 C770 1.356 . S
N768 H780 0.984 . S
N768 H781 0.985 . S
N769 C771 1.356 . S
N769 H774 0.984 . S
N769 H775 0.985 . S
C770 C764 1.379 . S
C770 C767 1.363 . S
C770 N768 1.356 . S
C771 C765 1.363 . S
C771 C766 1.379 . S
C771 N769 1.356 . S
N772 C764 1.356 . S
N772 H778 0.984 . S
N772 H779 0.984 . S
N773 C766 1.356 . S
N773 H776 0.984 . S
N773 H777 0.985 . S
H774 N769 0.984 . S
H775 N769 0.985 . S
H776 N773 0.984 . S
H777 N773 0.985 . S
H778 N772 0.984 . S
H779 N772 0.984 . S
H780 N768 0.984 . S
H781 N768 0.985 . S
C782 C783 1.363 . S
C782 C788 1.379 1_554 S
C782 N790 1.356 . S
C783 C782 1.363 . S
C783 C789 1.363 . S
C784 C785 1.363 . S
C784 C789 1.379 1_556 S
C784 N791 1.356 . S
C785 C784 1.363 . S
C785 C788 1.363 . S
N786 C788 1.356 . S
N786 H798 0.984 . S
N786 H799 0.985 . S
N787 C789 1.356 . S
N787 H792 0.984 . S
N787 H793 0.985 . S
C788 C782 1.379 1_556 S
C788 C785 1.363 . S
C788 N786 1.356 . S
C789 C783 1.363 . S
C789 C784 1.379 1_554 S
C789 N787 1.356 . S
N790 C782 1.356 . S
N790 H796 0.984 . S
N790 H797 0.984 . S
N791 C784 1.356 . S
N791 H794 0.984 . S
N791 H795 0.985 . S
H792 N787 0.984 . S
H793 N787 0.985 . S
H794 N791 0.984 . S
H795 N791 0.985 . S
H796 N790 0.984 . S
H797 N790 0.984 . S
H798 N786 0.984 . S
H799 N786 0.985 . S
C800 C801 1.363 . S
C800 C806 1.379 . S
C800 N808 1.356 . S
C801 C800 1.363 . S
C801 C807 1.363 . S
C802 C803 1.363 . S
C802 C807 1.379 . S
C802 N809 1.356 . S
C803 C802 1.363 . S
C803 C806 1.363 . S
N804 C806 1.356 . S
N804 H816 0.984 . S
N804 H817 0.985 . S
N805 C807 1.356 . S
N805 H810 0.984 . S
N805 H811 0.985 . S
C806 C800 1.379 . S
C806 C803 1.363 . S
C806 N804 1.356 . S
C807 C801 1.363 . S
C807 C802 1.379 . S
C807 N805 1.356 . S
N808 C800 1.356 . S
N808 H814 0.984 . S
N808 H815 0.984 . S
N809 C802 1.356 . S
N809 H812 0.984 . S
N809 H813 0.985 . S
H810 N805 0.984 . S
H811 N805 0.985 . S
H812 N809 0.984 . S
H813 N809 0.985 . S
H814 N808 0.984 . S
H815 N808 0.984 . S
H816 N804 0.984 . S
H817 N804 0.985 . S
C818 C819 1.363 . S
C818 C824 1.379 . S
C818 N826 1.356 . S
C819 C818 1.363 . S
C819 C825 1.363 . S
C820 C821 1.363 . S
C820 C825 1.379 . S
C820 N827 1.356 . S
C821 C820 1.363 . S
C821 C824 1.363 . S
N822 C824 1.356 . S
N822 H834 0.984 . S
N822 H835 0.985 . S
N823 C825 1.356 . S
N823 H828 0.984 . S
N823 H829 0.985 . S
C824 C818 1.379 . S
C824 C821 1.363 . S
C824 N822 1.356 . S
C825 C819 1.363 . S
C825 C820 1.379 . S
C825 N823 1.356 . S
N826 C818 1.356 . S
N826 H832 0.984 . S
N826 H833 0.984 . S
N827 C820 1.356 . S
N827 H830 0.984 . S
N827 H831 0.985 . S
H828 N823 0.984 . S
H829 N823 0.985 . S
H830 N827 0.984 . S
H831 N827 0.985 . S
H832 N826 0.984 . S
H833 N826 0.984 . S
H834 N822 0.984 . S
H835 N822 0.985 . S
C836 C837 1.363 . S
C836 C842 1.379 . S
C836 N844 1.356 . S
C837 C836 1.363 . S
C837 C843 1.363 . S
C838 C839 1.363 . S
C838 C843 1.379 . S
C838 N845 1.356 . S
C839 C838 1.363 . S
C839 C842 1.363 . S
N840 C842 1.356 . S
N840 H852 0.984 . S
N840 H853 0.985 . S
N841 C843 1.356 . S
N841 H846 0.984 . S
N841 H847 0.985 . S
C842 C836 1.379 . S
C842 C839 1.363 . S
C842 N840 1.356 . S
C843 C837 1.363 . S
C843 C838 1.379 . S
C843 N841 1.356 . S
N844 C836 1.356 . S
N844 H850 0.984 . S
N844 H851 0.984 . S
N845 C838 1.356 . S
N845 H848 0.984 . S
N845 H849 0.985 . S
H846 N841 0.984 . S
H847 N841 0.985 . S
H848 N845 0.984 . S
H849 N845 0.985 . S
H850 N844 0.984 . S
H851 N844 0.984 . S
H852 N840 0.984 . S
H853 N840 0.985 . S
C854 C855 1.363 . S
C854 C860 1.379 . S
C854 N862 1.356 . S
C855 C854 1.363 . S
C855 C861 1.363 . S
C856 C857 1.363 . S
C856 C861 1.379 . S
C856 N863 1.356 . S
C857 C856 1.363 . S
C857 C860 1.363 . S
N858 C860 1.356 . S
N858 H870 0.984 . S
N858 H871 0.985 . S
N859 C861 1.356 . S
N859 H864 0.984 . S
N859 H865 0.985 . S
C860 C854 1.379 . S
C860 C857 1.363 . S
C860 N858 1.356 . S
C861 C855 1.363 . S
C861 C856 1.379 . S
C861 N859 1.356 . S
N862 C854 1.356 . S
N862 H868 0.984 . S
N862 H869 0.984 . S
N863 C856 1.356 . S
N863 H866 0.984 . S
N863 H867 0.985 . S
H864 N859 0.984 . S
H865 N859 0.985 . S
H866 N863 0.984 . S
H867 N863 0.985 . S
H868 N862 0.984 . S
H869 N862 0.984 . S
H870 N858 0.984 . S
H871 N858 0.985 . S
C872 C873 1.363 . S
C872 C878 1.379 . S
C872 N880 1.356 . S
C873 C872 1.363 . S
C873 C879 1.363 . S
C874 C875 1.363 . S
C874 C879 1.379 . S
C874 N881 1.356 . S
C875 C874 1.363 . S
C875 C878 1.363 . S
N876 C878 1.356 . S
N876 H888 0.984 . S
N876 H889 0.985 . S
N877 C879 1.356 . S
N877 H882 0.984 . S
N877 H883 0.985 . S
C878 C872 1.379 . S
C878 C875 1.363 . S
C878 N876 1.356 . S
C879 C873 1.363 . S
C879 C874 1.379 . S
C879 N877 1.356 . S
N880 C872 1.356 . S
N880 H886 0.984 . S
N880 H887 0.984 . S
N881 C874 1.356 . S
N881 H884 0.984 . S
N881 H885 0.985 . S
H882 N877 0.984 . S
H883 N877 0.985 . S
H884 N881 0.984 . S
H885 N881 0.985 . S
H886 N880 0.984 . S
H887 N880 0.984 . S
H888 N876 0.984 . S
H889 N876 0.985 . S
C890 C891 1.363 . S
C890 C896 1.379 . S
C890 N898 1.356 . S
C891 C890 1.363 . S
C891 C897 1.363 . S
C892 C893 1.363 . S
C892 C897 1.379 . S
C892 N899 1.356 . S
C893 C892 1.363 . S
C893 C896 1.363 . S
N894 C896 1.356 . S
N894 H906 0.984 . S
N894 H907 0.985 . S
N895 C897 1.356 . S
N895 H900 0.984 . S
N895 H901 0.985 . S
C896 C890 1.379 . S
C896 C893 1.363 . S
C896 N894 1.356 . S
C897 C891 1.363 . S
C897 C892 1.379 . S
C897 N895 1.356 . S
N898 C890 1.356 . S
N898 H904 0.984 . S
N898 H905 0.984 . S
N899 C892 1.356 . S
N899 H902 0.984 . S
N899 H903 0.985 . S
H900 N895 0.984 . S
H901 N895 0.985 . S
H902 N899 0.984 . S
H903 N899 0.985 . S
H904 N898 0.984 . S
H905 N898 0.984 . S
H906 N894 0.984 . S
H907 N894 0.985 . S
C908 C909 1.363 . S
C908 C914 1.379 . S
C908 N916 1.356 . S
C909 C908 1.363 . S
C909 C915 1.363 . S
C910 C911 1.363 . S
C910 C915 1.379 . S
C910 N917 1.356 . S
C911 C910 1.363 . S
C911 C914 1.363 . S
N912 C914 1.356 . S
N912 H924 0.984 . S
N912 H925 0.985 . S
N913 C915 1.356 . S
N913 H918 0.984 . S
N913 H919 0.985 . S
C914 C908 1.379 . S
C914 C911 1.363 . S
C914 N912 1.356 . S
C915 C909 1.363 . S
C915 C910 1.379 . S
C915 N913 1.356 . S
N916 C908 1.356 . S
N916 H922 0.984 . S
N916 H923 0.984 . S
N917 C910 1.356 . S
N917 H920 0.984 . S
N917 H921 0.985 . S
H918 N913 0.984 . S
H919 N913 0.985 . S
H920 N917 0.984 . S
H921 N917 0.985 . S
H922 N916 0.984 . S
H923 N916 0.984 . S
H924 N912 0.984 . S
H925 N912 0.985 . S
C926 C927 1.363 . S
C926 C932 1.379 . S
C926 N934 1.356 . S
C927 C926 1.363 . S
C927 C933 1.363 . S
C928 C929 1.363 . S
C928 C933 1.379 . S
C928 N935 1.356 . S
C929 C928 1.363 . S
C929 C932 1.363 . S
N930 C932 1.356 . S
N930 H942 0.984 . S
N930 H943 0.985 . S
N931 C933 1.356 . S
N931 H936 0.984 . S
N931 H937 0.985 . S
C932 C926 1.379 . S
C932 C929 1.363 . S
C932 N930 1.356 . S
C933 C927 1.363 . S
C933 C928 1.379 . S
C933 N931 1.356 . S
N934 C926 1.356 . S
N934 H940 0.984 . S
N934 H941 0.984 . S
N935 C928 1.356 . S
N935 H938 0.984 . S
N935 H939 0.985 . S
H936 N931 0.984 . S
H937 N931 0.985 . S
H938 N935 0.984 . S
H939 N935 0.985 . S
H940 N934 0.984 . S
H941 N934 0.984 . S
H942 N930 0.984 . S
H943 N930 0.985 . S
C369 N2 1.523 . S
C371 N48 1.523 . S
C387 N71 1.523 . S
C389 N25 1.523 . S
C405 N94 1.523 . S
C407 N140 1.523 . S
C423 N163 1.523 . S
C425 N117 1.523 . S
C441 N186 1.523 . S
C443 N232 1.523 . S
C459 N255 1.523 . S
C461 N209 1.523 . S
C477 N278 1.523 . S
C479 N324 1.523 . S
C495 N347 1.523 . S
C497 N301 1.523 . S
C513 C108 1.599 . S
C515 C16 1.599 . S
C531 C39 1.599 . S
C533 C131 1.599 . S
C549 C62 1.599 . S
C551 C154 1.599 . S
C567 C177 1.599 . S
C569 C85 1.599 . S
C585 C200 1.599 . S
C587 C292 1.599 . S
C603 C223 1.599 . S
C605 C315 1.599 . S
C621 C246 1.599 . S
C623 C338 1.599 . S
C639 C269 1.599 . S
C641 C361 1.599 . S
C657 C237 1.630 . S
C659 C7 1.630 . S
C675 C260 1.630 . S
C677 C30 1.630 . S
C693 C53 1.630 . S
C695 C191 1.630 . S
C711 C76 1.630 . S
C713 C214 1.630 . S
C729 C99 1.630 . S
C731 C329 1.630 . S
C747 C122 1.630 . S
C749 C352 1.630 . S
C765 C145 1.630 . S
C767 C283 1.630 . S
C783 C306 1.630 . S
C785 C168 1.630 . S
C801 N12 1.557 . S
C803 N357 1.557 . S
C819 N288 1.557 . S
C821 N35 1.557 . S
C837 N58 1.557 . S
C839 N311 1.557 . S
C855 N334 1.557 . S
C857 N81 1.557 . S
C873 N219 1.557 . S
C875 N104 1.557 . S
C891 N127 1.557 . S
C893 N242 1.557 . S
C909 N265 1.557 . S
C911 N150 1.557 . S
C927 N196 1.557 . S
C929 N173 1.557 . S
