# Generated by pormake.
# Topology ecv, (8)-cn, num edge types: 1
# Building blocks:
#     Node 0, Type 0, BuildingBlock: AJUNOK_clean_sbu_0, # of connection points: 8
#     Node 1, Type 0, BuildingBlock: AJUNOK_clean_sbu_0, # of connection points: 8
#     Node 2, Type 0, BuildingBlock: AJUNOK_clean_sbu_0, # of connection points: 8
#     Node 3, Type 0, BuildingBlock: AJUNOK_clean_sbu_0, # of connection points: 8
#     Node 4, Type 0, BuildingBlock: AJUNOK_clean_sbu_0, # of connection points: 8
#     Node 5, Type 0, BuildingBlock: AJUNOK_clean_sbu_0, # of connection points: 8
#     Node 6, Type 0, BuildingBlock: AJUNOK_clean_sbu_0, # of connection points: 8
#     Node 7, Type 0, BuildingBlock: AJUNOK_clean_sbu_0, # of connection points: 8
#     Node 8, Type 0, BuildingBlock: AJUNOK_clean_sbu_0, # of connection points: 8
#     Node 9, Type 0, BuildingBlock: AJUNOK_clean_sbu_0, # of connection points: 8
#     Node 10, Type 0, BuildingBlock: AJUNOK_clean_sbu_0, # of connection points: 8
#     Node 11, Type 0, BuildingBlock: AJUNOK_clean_sbu_0, # of connection points: 8
#     Node 12, Type 0, BuildingBlock: AJUNOK_clean_sbu_0, # of connection points: 8
#     Node 13, Type 0, BuildingBlock: AJUNOK_clean_sbu_0, # of connection points: 8
#     Node 14, Type 0, BuildingBlock: AJUNOK_clean_sbu_0, # of connection points: 8
#     Node 15, Type 0, BuildingBlock: AJUNOK_clean_sbu_0, # of connection points: 8
#     Edge 16, Type (0, 0), BuildingBlock: OJICUG_clean_linker_0, # of connection points: 2
#     Edge 17, Type (0, 0), BuildingBlock: OJICUG_clean_linker_0, # of connection points: 2
#     Edge 18, Type (0, 0), BuildingBlock: OJICUG_clean_linker_0, # of connection points: 2
#     Edge 19, Type (0, 0), BuildingBlock: OJICUG_clean_linker_0, # of connection points: 2
#     Edge 20, Type (0, 0), BuildingBlock: OJICUG_clean_linker_0, # of connection points: 2
#     Edge 21, Type (0, 0), BuildingBlock: OJICUG_clean_linker_0, # of connection points: 2
#     Edge 22, Type (0, 0), BuildingBlock: OJICUG_clean_linker_0, # of connection points: 2
#     Edge 23, Type (0, 0), BuildingBlock: OJICUG_clean_linker_0, # of connection points: 2
#     Edge 24, Type (0, 0), BuildingBlock: OJICUG_clean_linker_0, # of connection points: 2
#     Edge 25, Type (0, 0), BuildingBlock: OJICUG_clean_linker_0, # of connection points: 2
#     Edge 26, Type (0, 0), BuildingBlock: OJICUG_clean_linker_0, # of connection points: 2
#     Edge 27, Type (0, 0), BuildingBlock: OJICUG_clean_linker_0, # of connection points: 2
#     Edge 28, Type (0, 0), BuildingBlock: OJICUG_clean_linker_0, # of connection points: 2
#     Edge 29, Type (0, 0), BuildingBlock: OJICUG_clean_linker_0, # of connection points: 2
#     Edge 30, Type (0, 0), BuildingBlock: OJICUG_clean_linker_0, # of connection points: 2
#     Edge 31, Type (0, 0), BuildingBlock: OJICUG_clean_linker_0, # of connection points: 2
#     Edge 32, Type (0, 0), BuildingBlock: OJICUG_clean_linker_0, # of connection points: 2
#     Edge 33, Type (0, 0), BuildingBlock: OJICUG_clean_linker_0, # of connection points: 2
#     Edge 34, Type (0, 0), BuildingBlock: OJICUG_clean_linker_0, # of connection points: 2
#     Edge 35, Type (0, 0), BuildingBlock: OJICUG_clean_linker_0, # of connection points: 2
#     Edge 36, Type (0, 0), BuildingBlock: OJICUG_clean_linker_0, # of connection points: 2
#     Edge 37, Type (0, 0), BuildingBlock: OJICUG_clean_linker_0, # of connection points: 2
#     Edge 38, Type (0, 0), BuildingBlock: OJICUG_clean_linker_0, # of connection points: 2
#     Edge 39, Type (0, 0), BuildingBlock: OJICUG_clean_linker_0, # of connection points: 2
#     Edge 40, Type (0, 0), BuildingBlock: OJICUG_clean_linker_0, # of connection points: 2
#     Edge 41, Type (0, 0), BuildingBlock: OJICUG_clean_linker_0, # of connection points: 2
#     Edge 42, Type (0, 0), BuildingBlock: OJICUG_clean_linker_0, # of connection points: 2
#     Edge 43, Type (0, 0), BuildingBlock: OJICUG_clean_linker_0, # of connection points: 2
#     Edge 44, Type (0, 0), BuildingBlock: OJICUG_clean_linker_0, # of connection points: 2
#     Edge 45, Type (0, 0), BuildingBlock: OJICUG_clean_linker_0, # of connection points: 2
#     Edge 46, Type (0, 0), BuildingBlock: OJICUG_clean_linker_0, # of connection points: 2
#     Edge 47, Type (0, 0), BuildingBlock: OJICUG_clean_linker_0, # of connection points: 2
#     Edge 48, Type (0, 0), BuildingBlock: OJICUG_clean_linker_0, # of connection points: 2
#     Edge 49, Type (0, 0), BuildingBlock: OJICUG_clean_linker_0, # of connection points: 2
#     Edge 50, Type (0, 0), BuildingBlock: OJICUG_clean_linker_0, # of connection points: 2
#     Edge 51, Type (0, 0), BuildingBlock: OJICUG_clean_linker_0, # of connection points: 2
#     Edge 52, Type (0, 0), BuildingBlock: OJICUG_clean_linker_0, # of connection points: 2
#     Edge 53, Type (0, 0), BuildingBlock: OJICUG_clean_linker_0, # of connection points: 2
#     Edge 54, Type (0, 0), BuildingBlock: OJICUG_clean_linker_0, # of connection points: 2
#     Edge 55, Type (0, 0), BuildingBlock: OJICUG_clean_linker_0, # of connection points: 2
#     Edge 56, Type (0, 0), BuildingBlock: OJICUG_clean_linker_0, # of connection points: 2
#     Edge 57, Type (0, 0), BuildingBlock: OJICUG_clean_linker_0, # of connection points: 2
#     Edge 58, Type (0, 0), BuildingBlock: OJICUG_clean_linker_0, # of connection points: 2
#     Edge 59, Type (0, 0), BuildingBlock: OJICUG_clean_linker_0, # of connection points: 2
#     Edge 60, Type (0, 0), BuildingBlock: OJICUG_clean_linker_0, # of connection points: 2
#     Edge 61, Type (0, 0), BuildingBlock: OJICUG_clean_linker_0, # of connection points: 2
#     Edge 62, Type (0, 0), BuildingBlock: OJICUG_clean_linker_0, # of connection points: 2
#     Edge 63, Type (0, 0), BuildingBlock: OJICUG_clean_linker_0, # of connection points: 2
#     Edge 64, Type (0, 0), BuildingBlock: OJICUG_clean_linker_0, # of connection points: 2
#     Edge 65, Type (0, 0), BuildingBlock: OJICUG_clean_linker_0, # of connection points: 2
#     Edge 66, Type (0, 0), BuildingBlock: OJICUG_clean_linker_0, # of connection points: 2
#     Edge 67, Type (0, 0), BuildingBlock: OJICUG_clean_linker_0, # of connection points: 2
#     Edge 68, Type (0, 0), BuildingBlock: OJICUG_clean_linker_0, # of connection points: 2
#     Edge 69, Type (0, 0), BuildingBlock: OJICUG_clean_linker_0, # of connection points: 2
#     Edge 70, Type (0, 0), BuildingBlock: OJICUG_clean_linker_0, # of connection points: 2
#     Edge 71, Type (0, 0), BuildingBlock: OJICUG_clean_linker_0, # of connection points: 2
#     Edge 72, Type (0, 0), BuildingBlock: OJICUG_clean_linker_0, # of connection points: 2
#     Edge 73, Type (0, 0), BuildingBlock: OJICUG_clean_linker_0, # of connection points: 2
#     Edge 74, Type (0, 0), BuildingBlock: OJICUG_clean_linker_0, # of connection points: 2
#     Edge 75, Type (0, 0), BuildingBlock: OJICUG_clean_linker_0, # of connection points: 2
#     Edge 76, Type (0, 0), BuildingBlock: OJICUG_clean_linker_0, # of connection points: 2
#     Edge 77, Type (0, 0), BuildingBlock: OJICUG_clean_linker_0, # of connection points: 2
#     Edge 78, Type (0, 0), BuildingBlock: OJICUG_clean_linker_0, # of connection points: 2
#     Edge 79, Type (0, 0), BuildingBlock: OJICUG_clean_linker_0, # of connection points: 2
# Relax obj value: 0.323
# Max RMSD: 0.226
# Mean RMSD: 0.226
data_MOF--net-ecv--node1-AJUNOK_clean_sbu_0--edge1-OJICUG_clean_linker_0
_symmetry_space_group_name_H-M    P1
_symmetry_Int_Tables_number       1
_symmetry_cell_setting            triclinic
loop_
_symmetry_equiv_pos_as_xyz
'x, y, z'
_cell_length_a     18.320319
_cell_length_b     18.371175
_cell_length_c     107.5719
_cell_angle_alpha  105.75249
_cell_angle_beta   89.978832
_cell_angle_gamma 89.999336
loop_
_atom_site_label
_atom_site_type_symbol
_atom_site_fract_x
_atom_site_fract_y
_atom_site_fract_z
_atom_type_partial_charge
Cd0 Cd 0.32569 0.15457 0.39278 0.0
Cd1 Cd 0.25695 0.13988 0.42524 0.0
C2 C 0.50173 0.19255 0.3963 0.0
N3 N 0.43933 0.21393 0.39138 0.0
C4 C 0.50935 0.27198 0.37786 0.0
C5 C 0.57411 0.24409 0.38186 0.0
C6 C 0.56991 0.20787 0.39177 0.0
C7 C 0.44233 0.25637 0.38281 0.0
H8 H 0.49935 0.15921 0.4031 0.0
H9 H 0.3925 0.27322 0.379 0.0
C10 C 0.16348 0.27712 0.40924 0.0
C11 C 0.10646 0.08128 0.43378 0.0
C12 C 0.06691 0.06282 0.44363 0.0
C13 C 0.10144 1.02312 0.45149 0.0
C14 C 0.17242 0.99546 0.44822 0.0
C15 C 0.20987 1.01515 0.43831 0.0
N16 N 0.1774 0.05971 0.4317 0.0
H17 H 0.08339 0.12001 0.42886 0.0
H18 H 0.26727 1.00176 0.43684 0.0
C19 C 0.32156 0.29969 0.42778 0.0
N20 N 0.34278 0.22696 0.42611 0.0
C21 C 0.46754 0.2606 0.42692 0.0
C22 C 0.44679 0.33254 0.42608 0.0
C23 C 0.37343 0.35443 0.42783 0.0
C24 C 0.41371 0.20795 0.42688 0.0
H25 H 0.26457 0.31473 0.42875 0.0
H26 H 0.42861 0.1516 0.42707 0.0
C27 C 0.4189 1.01498 0.40887 0.0
C28 C 0.28783 0.1188 0.36575 0.0
N29 N 0.24474 0.06481 0.39438 0.0
C30 C 0.2636 0.99183 0.39326 0.0
C31 C 0.21241 0.94261 0.39591 0.0
C32 C 0.14131 0.96901 0.39913 0.0
C33 C 0.12095 0.04029 0.39794 0.0
C34 C 0.17405 0.08679 0.39519 0.0
C35 C 0.26591 0.21012 0.45249 0.0
O36 O 0.21976 0.26762 0.40158 0.0
O37 O 0.15995 0.23335 0.41689 0.0
O38 O 0.36602 1.0291 0.41727 0.0
O39 O 0.41866 0.05359 0.40038 0.0
O40 O 0.28431 0.18516 0.37316 0.0
O41 O 0.31488 0.06902 0.37053 0.0
O42 O 0.3122 0.16134 0.4467 0.0
O43 O 0.2138 0.2239 0.44574 0.0
H44 H 0.31802 0.97185 0.39048 0.0
H45 H 0.15914 0.14074 0.39389 0.0
H46 H 0.50962 0.30011 0.37023 0.0
H47 H 0.61854 0.18669 0.39533 0.0
H48 H 1.01258 0.08586 0.44587 0.0
H49 H 0.20068 0.96372 0.45388 0.0
H50 H 0.52386 0.24207 0.42608 0.0
H51 H 0.35604 0.41107 0.42801 0.0
H52 H 0.2287 0.88598 0.39595 0.0
H53 H 0.06602 0.06211 0.39993 0.0
Cd54 Cd 0.32048 0.17689 0.81526 0.0
Cd55 Cd 0.25444 0.18646 0.78253 0.0
C56 C 0.47738 0.20438 0.82619 0.0
N57 N 0.44026 0.14433 0.81873 0.0
C58 C 0.5385 0.06149 0.8203 0.0
C59 C 0.57784 0.12274 0.82817 0.0
C60 C 0.54634 0.1951 0.8309 0.0
C61 C 0.46903 0.07353 0.81572 0.0
H62 H 0.45164 0.25939 0.82905 0.0
H63 H 0.43677 1.02638 0.81032 0.0
C64 C 0.16125 0.05057 0.79867 0.0
C65 C 0.10412 0.23074 0.77153 0.0
C66 C 0.06612 0.24528 0.76119 0.0
C67 C 0.10064 0.28552 0.75342 0.0
C68 C 0.17003 0.31652 0.75706 0.0
C69 C 0.20591 0.30085 0.76747 0.0
N70 N 0.17343 0.25684 0.77419 0.0
H71 H 0.08133 0.19241 0.77657 0.0
H72 H 0.26231 0.3175 0.7694 0.0
C73 C 0.30747 1.02149 0.7787 0.0
N74 N 0.33162 0.094 0.78269 0.0
C75 C 0.45367 0.05477 0.78339 0.0
C76 C 0.42953 0.97956 0.78062 0.0
C77 C 0.35611 0.96246 0.77763 0.0
C78 C 0.40323 0.11141 0.78428 0.0
H79 H 0.25067 1.00957 0.77634 0.0
H80 H 0.4212 0.16894 0.78618 0.0
C81 C 0.41378 0.31448 0.79866 0.0
C82 C 0.28656 0.2092 0.8423 0.0
N83 N 0.23501 0.26146 0.81405 0.0
C84 C 0.24767 0.33315 0.81349 0.0
C85 C 0.1912 0.37384 0.81005 0.0
C86 C 0.12298 0.33848 0.80696 0.0
C87 C 0.1092 0.27037 0.81002 0.0
C88 C 0.16656 0.23399 0.81405 0.0
C89 C 0.26988 0.1151 0.75539 0.0
O90 O 0.2184 0.05901 0.80615 0.0
O91 O 0.15685 0.09544 0.79122 0.0
O92 O 0.36204 0.29905 0.79007 0.0
O93 O 0.41235 0.27695 0.80728 0.0
O94 O 0.30027 0.14257 0.83553 0.0
O95 O 0.29358 0.26137 0.83675 0.0
O96 O 0.31857 0.15934 0.76162 0.0
O97 O 0.21414 0.10534 0.76171 0.0
H98 H 0.3014 0.3576 0.81525 0.0
H99 H 0.15741 0.18157 0.81645 0.0
H100 H 0.55994 1.00472 0.81814 0.0
H101 H 0.57236 0.24384 0.83734 0.0
H102 H 1.01302 0.21971 0.75863 0.0
H103 H 0.19821 0.34843 0.75141 0.0
H104 H 0.50991 0.07066 0.78579 0.0
H105 H 0.33624 0.90477 0.77519 0.0
H106 H 0.20219 0.42961 0.80892 0.0
H107 H 0.05698 0.24193 0.80835 0.0
Cd108 Cd 0.81622 0.94133 0.53186 0.0
Cd109 Cd 0.75798 0.93827 0.56521 0.0
C110 C 0.96514 0.97492 0.51937 0.0
N111 N 0.89734 1.00512 0.52216 0.0
C112 C 0.90287 0.0599 0.50441 0.0
C113 C 0.971 1.02555 0.5008 0.0
C114 C 1.00363 0.98542 0.50876 0.0
C115 C 0.86657 0.04853 0.51515 0.0
H116 H 0.98642 0.93713 0.52464 0.0
H117 H 0.81113 0.06849 0.51719 0.0
C118 C 0.66141 0.07481 0.54891 0.0
C119 C 0.58172 0.89977 0.56189 0.0
C120 C 0.51458 0.88173 0.56645 0.0
C121 C 0.51261 0.8409 0.57576 0.0
C122 C 0.57853 0.81141 0.579 0.0
C123 C 0.64432 0.82911 0.57392 0.0
N124 N 0.64526 0.87601 0.56607 0.0
H125 H 0.5824 0.93653 0.55562 0.0
H126 H 0.69504 0.81011 0.57709 0.0
C127 C 0.83725 0.0826 0.55994 0.0
N128 N 0.84907 1.01278 0.56148 0.0
C129 C 0.97532 1.01935 0.55724 0.0
C130 C 0.96206 0.08456 0.55323 0.0
C131 C 0.89376 0.12026 0.55581 0.0
C132 C 0.91769 0.98625 0.56196 0.0
H133 H 0.78447 0.10881 0.5618 0.0
H134 H 0.9272 0.93767 0.56551 0.0
C135 C 0.91308 0.80755 0.5482 0.0
C136 C 0.79719 0.86537 0.50516 0.0
N137 N 0.73151 0.85564 0.53213 0.0
C138 C 0.7526 0.7827 0.53026 0.0
C139 C 0.70075 0.7279 0.53011 0.0
C140 C 0.62755 0.74991 0.532 0.0
C141 C 0.60673 0.82269 0.53166 0.0
C142 C 0.66053 0.87541 0.53176 0.0
C143 C 0.79355 0.98052 0.5924 0.0
O144 O 0.7106 0.05594 0.53986 0.0
O145 O 0.66506 0.04053 0.55798 0.0
O146 O 0.85903 0.81981 0.55637 0.0
O147 O 0.91472 0.84919 0.54019 0.0
O148 O 0.7546 0.91839 0.51086 0.0
O149 O 0.84856 0.84913 0.5118 0.0
O150 O 0.78715 0.91253 0.58582 0.0
O151 O 0.77837 1.03041 0.58669 0.0
H152 H 0.80945 0.7673 0.52905 0.0
H153 H 0.64569 0.93227 0.53186 0.0
H154 H 0.87612 0.09167 0.49858 0.0
H155 H 0.05565 0.9573 0.50623 0.0
H156 H 0.46508 0.90403 0.56339 0.0
H157 H 0.58024 0.77963 0.58612 0.0
H158 H 1.02782 0.99139 0.55611 0.0
H159 H 0.8831 0.17469 0.55409 0.0
H160 H 0.71802 0.67088 0.5297 0.0
H161 H 0.55045 0.84137 0.53276 0.0
Cd162 Cd 0.81696 0.8784 0.17603 0.0
Cd163 Cd 0.75839 0.88201 0.14271 0.0
C164 C 0.9658 0.8447 0.18852 0.0
N165 N 0.89802 0.81448 0.18572 0.0
C166 C 0.90344 0.75968 0.20346 0.0
C167 C 0.97152 0.79408 0.20709 0.0
C168 C 1.00421 0.83422 0.19913 0.0
C169 C 0.86722 0.77103 0.19272 0.0
H170 H 0.9871 0.88252 0.18325 0.0
H171 H 0.8118 0.75106 0.19068 0.0
C172 C 0.66199 0.74521 0.15899 0.0
C173 C 0.58213 0.92056 0.14609 0.0
C174 C 0.51494 0.93869 0.14156 0.0
C175 C 0.51287 0.97964 0.13228 0.0
C176 C 0.57877 1.00911 0.12901 0.0
C177 C 0.64461 0.99131 0.13406 0.0
N178 N 0.64563 0.94433 0.1419 0.0
H179 H 0.58289 0.88372 0.15234 0.0
H180 H 0.6953 1.01032 0.13088 0.0
C181 C 0.83777 0.73748 0.14787 0.0
N182 N 0.84953 0.80735 0.14635 0.0
C183 C 0.97581 0.80078 0.15054 0.0
C184 C 0.9626 0.73554 0.15455 0.0
C185 C 0.89433 0.69979 0.15197 0.0
C186 C 0.91813 0.8339 0.14585 0.0
H187 H 0.78498 0.71129 0.14603 0.0
H188 H 0.92758 0.88254 0.14231 0.0
C189 C 0.91365 1.01243 0.15971 0.0
C190 C 0.79808 0.95425 0.20275 0.0
N191 N 0.73223 0.9641 0.17582 0.0
C192 C 0.75334 0.03704 0.1777 0.0
C193 C 0.70151 0.09189 0.17788 0.0
C194 C 0.6283 0.06993 0.17599 0.0
C195 C 0.60746 0.99713 0.17633 0.0
C196 C 0.66125 0.94436 0.1762 0.0
C197 C 0.79371 0.84001 0.11549 0.0
O198 O 0.71126 0.7639 0.16802 0.0
O199 O 0.66558 0.77967 0.14994 0.0
O200 O 0.85954 1.00034 0.15156 0.0
O201 O 0.91536 0.97064 0.16769 0.0
O202 O 0.75538 0.90138 0.19705 0.0
O203 O 0.84951 0.9704 0.1961 0.0
O204 O 0.78744 0.90797 0.1221 0.0
O205 O 0.77853 0.79006 0.1212 0.0
H206 H 0.81019 0.0524 0.1789 0.0
H207 H 0.6464 0.8875 0.17609 0.0
H208 H 0.87666 0.72791 0.20929 0.0
H209 H 0.05619 0.86238 0.20167 0.0
H210 H 0.46548 0.91641 0.14465 0.0
H211 H 0.58042 0.04097 0.1219 0.0
H212 H 1.02829 0.82877 0.15168 0.0
H213 H 0.88372 0.64532 0.15368 0.0
H214 H 0.7188 0.14891 0.1783 0.0
H215 H 0.55117 0.97849 0.17524 0.0
Cd216 Cd 0.31858 0.64177 0.89284 0.0
Cd217 Cd 0.25864 0.63655 0.92608 0.0
C218 C 0.49513 0.67882 0.89599 0.0
N219 N 0.4318 0.70237 0.89169 0.0
C220 C 0.49903 0.76389 0.87836 0.0
C221 C 0.56466 0.73443 0.88171 0.0
C222 C 0.56242 0.69511 0.89123 0.0
C223 C 0.43313 0.7477 0.88358 0.0
H224 H 0.49408 0.64339 0.90247 0.0
H225 H 0.38262 0.76672 0.88035 0.0
C226 C 0.16304 0.77177 0.90991 0.0
C227 C 0.1108 0.59381 0.93749 0.0
C228 C 0.07261 0.57906 0.94778 0.0
C229 C 0.10625 0.53687 0.95531 0.0
C230 C 0.17513 0.50482 0.95155 0.0
C231 C 0.21119 0.52063 0.94115 0.0
N232 N 0.17931 0.56587 0.9346 0.0
H233 H 0.08873 0.63324 0.93261 0.0
H234 H 0.26719 0.50276 0.93908 0.0
C235 C 0.32617 0.7936 0.92811 0.0
N236 N 0.34599 0.7205 0.92644 0.0
C237 C 0.47137 0.75096 0.92683 0.0
C238 C 0.45188 0.82353 0.92615 0.0
C239 C 0.37909 0.84719 0.92813 0.0
C240 C 0.41657 0.69966 0.92696 0.0
H241 H 0.26944 0.80978 0.92911 0.0
H242 H 0.43038 0.64287 0.92705 0.0
C243 C 0.4143 0.50426 0.90906 0.0
C244 C 0.28273 0.60035 0.86566 0.0
N245 N 0.22868 0.56482 0.89611 0.0
C246 C 0.24126 0.49373 0.897 0.0
C247 C 0.18517 0.45369 0.90071 0.0
C248 C 0.11662 0.48847 0.9036 0.0
C249 C 0.10266 0.55571 0.90026 0.0
C250 C 0.15984 0.59129 0.89592 0.0
C251 C 0.27078 0.70964 0.95309 0.0
O252 O 0.21727 0.75991 0.90178 0.0
O253 O 0.16123 0.7297 0.91785 0.0
O254 O 0.36444 0.5223 0.918 0.0
O255 O 0.41135 0.53944 0.9001 0.0
O256 O 0.28719 0.66825 0.87238 0.0
O257 O 0.29979 0.55035 0.87124 0.0
O258 O 0.3155 0.65879 0.9474 0.0
O259 O 0.22018 0.72576 0.94628 0.0
H260 H 0.29436 0.46834 0.89496 0.0
H261 H 0.14972 0.6414 0.89285 0.0
H262 H 0.49764 0.79453 0.87107 0.0
H263 H 0.61176 0.6728 0.89435 0.0
H264 H 1.02003 0.60561 0.95047 0.0
H265 H 0.20266 0.47169 0.95706 0.0
H266 H 0.52725 0.73103 0.92573 0.0
H267 H 0.36282 0.90425 0.92836 0.0
H268 H 0.19642 0.39819 0.90194 0.0
H269 H 0.04999 0.58333 0.90166 0.0
Cd270 Cd 0.32557 0.66545 0.31514 0.0
Cd271 Cd 0.25681 0.68033 0.2827 0.0
C272 C 0.50166 0.62762 0.31165 0.0
N273 N 0.43925 0.60619 0.31657 0.0
C274 C 0.50923 0.5482 0.33009 0.0
C275 C 0.57401 0.5761 0.32609 0.0
C276 C 0.56983 0.61233 0.31619 0.0
C277 C 0.44222 0.56377 0.32515 0.0
H278 H 0.49931 0.66096 0.30485 0.0
H279 H 0.39239 0.54689 0.32895 0.0
C280 C 0.16325 0.54305 0.29869 0.0
C281 C 0.10637 0.73893 0.27417 0.0
C282 C 0.06689 0.7573 0.2643 0.0
C283 C 0.10147 0.79696 0.25644 0.0
C284 C 0.1724 0.8247 0.25972 0.0
C285 C 0.20979 0.80509 0.26964 0.0
N286 N 0.17729 0.76054 0.27625 0.0
H287 H 0.08328 0.70021 0.27909 0.0
H288 H 0.26717 0.8185 0.27111 0.0
C289 C 0.32136 0.52056 0.28021 0.0
N290 N 0.34261 0.59324 0.28185 0.0
C291 C 0.46736 0.55952 0.28107 0.0
C292 C 0.44654 0.48767 0.28194 0.0
C293 C 0.37317 0.46584 0.2802 0.0
C294 C 0.41357 0.61218 0.28108 0.0
H295 H 0.26437 0.50555 0.27924 0.0
H296 H 0.42852 0.66847 0.28086 0.0
C297 C 0.41878 0.80509 0.29905 0.0
C298 C 0.28776 0.70128 0.34218 0.0
N299 N 0.24461 0.75528 0.31358 0.0
C300 C 0.26346 0.82826 0.31469 0.0
C301 C 0.21225 0.87748 0.31205 0.0
C302 C 0.14114 0.85109 0.30885 0.0
C303 C 0.1208 0.77982 0.31004 0.0
C304 C 0.17392 0.73331 0.31278 0.0
C305 C 0.2658 0.61013 0.25545 0.0
O306 O 0.21955 0.55246 0.30634 0.0
O307 O 0.15974 0.5869 0.29105 0.0
O308 O 0.36589 0.79105 0.29066 0.0
O309 O 0.41852 0.76643 0.30753 0.0
O310 O 0.28417 0.63492 0.33477 0.0
O311 O 0.31482 0.75103 0.33739 0.0
O312 O 0.31214 0.65882 0.26124 0.0
O313 O 0.21366 0.59637 0.26221 0.0
H314 H 0.3179 0.84822 0.31745 0.0
H315 H 0.15904 0.67935 0.31408 0.0
H316 H 0.50948 0.52007 0.33773 0.0
H317 H 0.61847 0.63351 0.31262 0.0
H318 H 1.01259 0.73421 0.26206 0.0
H319 H 0.20069 0.85641 0.25405 0.0
H320 H 0.52369 0.57798 0.28189 0.0
H321 H 0.35572 0.40926 0.28005 0.0
H322 H 0.22852 0.93411 0.31201 0.0
H323 H 0.06587 0.758 0.30807 0.0
Cd324 Cd 0.82 0.43525 0.0332 0.0
Cd325 Cd 0.75599 0.42839 0.06623 0.0
C326 C 0.97121 0.47796 0.02235 0.0
N327 N 0.90189 0.50434 0.02486 0.0
C328 C 0.90725 0.56432 0.00779 0.0
C329 C 0.9768 0.53321 0.00432 0.0
C330 C 1.0103 0.49261 0.01213 0.0
C331 C 0.87024 0.54843 0.01808 0.0
H332 H 0.99329 0.43953 0.02743 0.0
H333 H 0.81379 0.56523 0.01988 0.0
C334 C 0.66163 0.56462 0.04948 0.0
C335 C 0.59763 0.45216 0.07669 0.0
C336 C 0.52859 0.44124 0.08122 0.0
C337 C 0.49895 0.36807 0.07852 0.0
C338 C 0.54033 0.30763 0.07089 0.0
C339 C 0.6098 0.3213 0.06649 0.0
N340 N 0.63664 0.39291 0.06943 0.0
H341 H 0.62191 0.50787 0.07955 0.0
H342 H 0.6435 0.2748 0.06127 0.0
C343 C 0.82917 0.58316 0.06375 0.0
N344 N 0.84174 0.51192 0.06455 0.0
C345 C 0.96746 0.51995 0.06033 0.0
C346 C 0.95374 0.58744 0.05705 0.0
C347 C 0.88557 0.62305 0.06008 0.0
C348 C 0.91019 0.48448 0.06459 0.0
H349 H 0.7756 0.60797 0.06553 0.0
H350 H 0.91942 0.43279 0.06722 0.0
C351 C 0.91489 0.30148 0.0496 0.0
C352 C 0.80135 0.36194 0.00612 0.0
N353 N 0.74541 0.34199 0.03387 0.0
C354 C 0.77036 0.26984 0.02967 0.0
C355 C 0.72262 0.21007 0.02857 0.0
C356 C 0.64915 0.22607 0.03163 0.0
C357 C 0.6241 0.30106 0.03471 0.0
C358 C 0.67376 0.35854 0.03574 0.0
C359 C 0.78977 0.46264 0.0933 0.0
O360 O 0.71257 0.548 0.04074 0.0
O361 O 0.66377 0.52824 0.05826 0.0
O362 O 0.85821 0.31052 0.05721 0.0
O363 O 0.91859 0.34546 0.04199 0.0
O364 O 0.75278 0.40585 0.01247 0.0
O365 O 0.85851 0.35412 0.01223 0.0
O366 O 0.78287 0.51429 0.08764 0.0
O367 O 0.77606 0.39582 0.08664 0.0
H368 H 0.82702 0.25875 0.02709 0.0
H369 H 0.65517 0.41601 0.03789 0.0
H370 H 0.87984 0.59651 0.0021 0.0
H371 H 0.06346 0.46692 0.00969 0.0
H372 H 0.50104 0.4895 0.0875 0.0
H373 H 0.52043 0.2503 0.06878 0.0
H374 H 1.01962 0.49138 0.05872 0.0
H375 H 0.87462 0.67852 0.05882 0.0
H376 H 0.74313 0.1526 0.02595 0.0
H377 H 0.56774 0.31594 0.03722 0.0
Cd378 Cd 0.82128 0.38428 0.67466 0.0
Cd379 Cd 0.75553 0.39316 0.64183 0.0
C380 C 0.97155 0.34086 0.6858 0.0
N381 N 0.90232 0.31454 0.68313 0.0
C382 C 0.90568 0.25521 0.7003 0.0
C383 C 0.975 0.28636 0.70395 0.0
C384 C 1.0095 0.32656 0.69618 0.0
C385 C 0.86985 0.27063 0.68986 0.0
H386 H 0.99432 0.37912 0.68076 0.0
H387 H 0.81351 0.25381 0.68792 0.0
C388 C 0.66209 0.25601 0.6585 0.0
C389 C 0.59768 0.36761 0.63119 0.0
C390 C 0.52863 0.37788 0.6266 0.0
C391 C 0.49813 0.4507 0.62936 0.0
C392 C 0.53864 0.51142 0.63711 0.0
C393 C 0.60813 0.4984 0.64157 0.0
N394 N 0.63587 0.42717 0.63856 0.0
H395 H 0.62262 0.31222 0.6283 0.0
H396 H 0.6412 0.54514 0.64688 0.0
C397 C 0.82873 0.2376 0.64386 0.0
N398 N 0.84125 0.30911 0.6432 0.0
C399 C 0.967 0.30083 0.64734 0.0
C400 C 0.95332 0.23302 0.65051 0.0
C401 C 0.88523 0.19737 0.64741 0.0
C402 C 0.90966 0.33668 0.64319 0.0
H403 H 0.77511 0.21292 0.64209 0.0
H404 H 0.91877 0.3888 0.64069 0.0
C405 C 0.91464 0.51982 0.65845 0.0
C406 C 0.8053 0.45586 0.70178 0.0
N407 N 0.74452 0.47691 0.67444 0.0
C408 C 0.7688 0.54934 0.6785 0.0
C409 C 0.72029 0.60852 0.67962 0.0
C410 C 0.64685 0.59165 0.67662 0.0
C411 C 0.62259 0.51645 0.67375 0.0
C412 C 0.67291 0.45964 0.67279 0.0
C413 C 0.78899 0.3597 0.61475 0.0
O414 O 0.71367 0.27173 0.66712 0.0
O415 O 0.66368 0.29321 0.64983 0.0
O416 O 0.85767 0.5111 0.65092 0.0
O417 O 0.91888 0.47521 0.66595 0.0
O418 O 0.75663 0.41165 0.69554 0.0
O419 O 0.86118 0.46549 0.6955 0.0
O420 O 0.77535 0.42646 0.62146 0.0
O421 O 0.78217 0.30786 0.62037 0.0
H422 H 0.82559 0.5611 0.68089 0.0
H423 H 0.65485 0.40209 0.6708 0.0
H424 H 0.87752 0.22334 0.70596 0.0
H425 H 0.06254 0.35226 0.69873 0.0
H426 H 0.50174 0.32946 0.62024 0.0
H427 H 0.51805 0.5685 0.63927 0.0
H428 H 1.01911 0.32947 0.649 0.0
H429 H 0.87432 0.14171 0.6486 0.0
H430 H 0.74025 0.66619 0.68213 0.0
H431 H 0.56633 0.50075 0.67132 0.0
Cd432 Cd 0.82433 0.14782 0.89351 0.0
Cd433 Cd 0.75016 0.12772 0.92537 0.0
C434 C 0.98312 0.12538 0.88333 0.0
N435 N 0.94318 0.18422 0.89047 0.0
C436 C 1.03792 0.27097 0.88893 0.0
C437 C 0.08009 0.21096 0.88139 0.0
C438 C 0.05192 0.13725 0.87883 0.0
C439 C 0.96886 0.25626 0.89336 0.0
H440 H 0.9597 0.06928 0.88051 0.0
H441 H 0.93436 0.30228 0.89848 0.0
C442 C 0.65883 0.26625 0.90956 0.0
C443 C 0.5966 0.0727 0.93374 0.0
C444 C 0.55646 0.05747 0.94383 0.0
C445 C 0.58987 1.01909 0.952 0.0
C446 C 0.6604 0.98974 0.9489 0.0
C447 C 0.6986 1.00654 0.93879 0.0
N448 N 0.66732 0.04994 0.93184 0.0
H449 H 0.57433 0.11024 0.92851 0.0
H450 H 0.75596 0.99258 0.93749 0.0
C451 C 0.7972 0.29675 0.93012 0.0
N452 N 0.82341 0.22504 0.92594 0.0
C453 C 0.94415 0.26842 0.92545 0.0
C454 C 0.91792 0.34295 0.92842 0.0
C455 C 0.84399 0.35751 0.93129 0.0
C456 C 0.89548 0.2101 0.92437 0.0
H457 H 0.74023 0.30673 0.93255 0.0
H458 H 0.91519 0.15321 0.92241 0.0
C459 C 0.91644 1.00805 0.90981 0.0
C460 C 0.79005 0.123 0.86657 0.0
N461 N 0.74755 0.05308 0.89319 0.0
C462 C 0.76773 0.98038 0.89195 0.0
C463 C 0.71677 0.92982 0.89421 0.0
C464 C 0.64524 0.95526 0.89731 0.0
C465 C 0.624 1.02651 0.89623 0.0
C466 C 0.67676 0.0744 0.8939 0.0
C467 C 0.76269 0.19418 0.95276 0.0
O468 O 0.71737 0.2598 0.90247 0.0
O469 O 0.65318 0.21978 0.91672 0.0
O470 O 0.86193 1.01959 0.91787 0.0
O471 O 0.91721 0.04869 0.90165 0.0
O472 O 0.8017 0.18874 0.87388 0.0
O473 O 0.80026 0.06857 0.87148 0.0
O474 O 0.81278 0.15271 0.94639 0.0
O475 O 0.70608 0.20227 0.94652 0.0
H476 H 0.82324 0.96227 0.88965 0.0
H477 H 0.66193 0.12965 0.89315 0.0
H478 H 0.05675 0.32868 0.89091 0.0
H479 H 0.08028 0.0893 0.87263 0.0
H480 H 0.50198 0.08054 0.94583 0.0
H481 H 0.68858 0.9607 0.955 0.0
H482 H 1.00087 0.25442 0.92313 0.0
H483 H 0.82252 0.4146 0.93388 0.0
H484 H 0.73376 0.87347 0.89429 0.0
H485 H 0.56891 0.0478 0.89825 0.0
Cd486 Cd 0.8264 0.16428 0.31518 0.0
Cd487 Cd 0.7537 0.18479 0.28332 0.0
C488 C 1.00223 0.12636 0.31161 0.0
N489 N 0.93986 0.10461 0.31649 0.0
C490 C 1.00986 0.0453 0.32981 0.0
C491 C 0.07462 0.07355 0.32588 0.0
C492 C 0.07041 0.11058 0.31608 0.0
C493 C 0.94284 0.06138 0.32494 0.0
H494 H 0.9998 0.16036 0.30491 0.0
H495 H 0.893 0.04425 0.32871 0.0
C496 C 0.66256 0.04411 0.29885 0.0
C497 C 0.60254 0.23569 0.27364 0.0
C498 C 0.56415 0.24805 0.26314 0.0
C499 C 0.59822 0.28625 0.255 0.0
C500 C 0.6673 0.3185 0.25856 0.0
C501 C 0.70373 0.3047 0.2691 0.0
N502 N 0.67222 0.26112 0.27601 0.0
H503 H 0.58007 0.19823 0.27887 0.0
H504 H 0.76036 0.32105 0.27079 0.0
C505 C 0.81885 1.02389 0.28012 0.0
N506 N 0.83987 0.09677 0.28191 0.0
C507 C 0.96474 0.06314 0.28088 0.0
C508 C 0.94427 0.9909 0.28161 0.0
C509 C 0.87089 0.96902 0.27989 0.0
C510 C 0.91074 0.11586 0.28106 0.0
H511 H 0.76188 1.00878 0.27921 0.0
H512 H 0.9255 0.1723 0.28091 0.0
C513 C 0.91777 0.30642 0.29929 0.0
C514 C 0.78904 0.19861 0.34222 0.0
N515 N 0.74552 0.25506 0.31428 0.0
C516 C 0.76449 0.32809 0.31548 0.0
C517 C 0.71315 0.37766 0.31301 0.0
C518 C 0.64192 0.35143 0.30989 0.0
C519 C 0.62148 0.28027 0.31112 0.0
C520 C 0.67478 0.23338 0.31367 0.0
C521 C 0.76201 0.11681 0.25617 0.0
O522 O 0.71982 0.0521 0.30626 0.0
O523 O 0.65786 0.08972 0.29153 0.0
O524 O 0.86344 0.29453 0.2912 0.0
O525 O 0.91868 0.26593 0.3075 0.0
O526 O 0.81683 0.24847 0.33753 0.0
O527 O 0.78492 0.13252 0.33471 0.0
O528 O 0.80734 0.16687 0.26189 0.0
O529 O 0.71199 0.0999 0.26303 0.0
H530 H 0.8192 0.34764 0.31811 0.0
H531 H 0.66009 0.17915 0.31488 0.0
H532 H 1.01012 1.01657 0.33737 0.0
H533 H 0.11904 0.13206 0.31256 0.0
H534 H 0.5106 0.22307 0.26086 0.0
H535 H 0.69602 0.34769 0.25254 0.0
H536 H 1.02102 0.08175 0.28167 0.0
H537 H 0.85363 0.91217 0.2796 0.0
H538 H 0.7295 0.43419 0.31292 0.0
H539 H 0.56642 0.25868 0.30922 0.0
Cd540 Cd 0.32319 0.94005 0.03378 0.0
Cd541 Cd 0.25676 0.92671 0.06641 0.0
C542 C 0.47322 0.97794 0.02157 0.0
N543 N 0.40475 1.00623 0.02443 0.0
C544 C 0.40725 0.06104 0.00666 0.0
C545 C 0.47536 1.02721 0.00279 0.0
C546 C 0.50991 0.98826 0.01076 0.0
C547 C 0.37247 0.0492 0.0175 0.0
H548 H 0.49612 0.94095 0.02685 0.0
H549 H 0.31661 0.06756 0.01959 0.0
C550 C 0.16269 0.0664 0.05007 0.0
C551 C 0.09226 0.93606 0.07486 0.0
C552 C 1.02468 0.91783 0.07907 0.0
C553 C 1.00627 0.84183 0.07775 0.0
C554 C 0.05715 0.78581 0.07176 0.0
C555 C 0.12425 0.80669 0.06744 0.0
N556 N 0.14034 0.88097 0.06909 0.0
H557 H 0.10812 0.99476 0.077 0.0
H558 H 0.16493 0.76416 0.06343 0.0
C559 C 0.3295 0.08283 0.06463 0.0
N560 N 0.34239 1.01128 0.06524 0.0
C561 C 0.46839 1.02104 0.06144 0.0
C562 C 0.45426 0.08858 0.05822 0.0
C563 C 0.38584 0.12361 0.06118 0.0
C564 C 0.411 0.98446 0.06543 0.0
H565 H 0.27571 0.10711 0.06635 0.0
H566 H 0.4203 0.9323 0.06792 0.0
C567 C 0.41701 0.80321 0.04953 0.0
C568 C 0.30373 0.8683 0.00684 0.0
N569 N 0.24876 0.84566 0.03424 0.0
C570 C 0.2734 0.77342 0.02991 0.0
C571 C 0.22546 0.71371 0.02874 0.0
C572 C 0.15212 0.72982 0.0319 0.0
C573 C 0.12751 0.80496 0.0353 0.0
C574 C 0.17723 0.86228 0.03628 0.0
C575 C 0.29566 0.95625 0.09323 0.0
O576 O 0.21449 0.05143 0.04146 0.0
O577 O 0.16441 1.02862 0.05867 0.0
O578 O 0.35969 0.81088 0.05695 0.0
O579 O 0.42175 0.84904 0.04225 0.0
O580 O 0.25594 0.91357 0.01314 0.0
O581 O 0.35971 0.85782 0.01301 0.0
O582 O 0.27943 1.00957 0.08833 0.0
O583 O 0.2868 0.88971 0.08604 0.0
H584 H 0.32991 0.76216 0.02723 0.0
H585 H 0.15867 0.91967 0.03848 0.0
H586 H 0.37811 0.09063 0.00076 0.0
H587 H 0.56273 0.96198 0.00822 0.0
H588 H 0.98962 0.96367 0.08418 0.0
H589 H 0.04658 0.72694 0.07095 0.0
H590 H 0.5209 0.99311 0.05988 0.0
H591 H 0.37463 0.17903 0.05991 0.0
H592 H 0.24565 0.65612 0.0259 0.0
H593 H 0.07132 0.81996 0.03793 0.0
Cd594 Cd 0.32159 0.88322 0.67454 0.0
Cd595 Cd 0.25644 0.89509 0.64177 0.0
C596 C 0.47189 0.8389 0.68563 0.0
N597 N 0.40242 0.81318 0.68302 0.0
C598 C 0.40543 0.75477 0.70032 0.0
C599 C 0.47498 0.78546 0.7039 0.0
C600 C 0.50978 0.82484 0.69603 0.0
C601 C 0.36968 0.76992 0.68985 0.0
H602 H 0.49494 0.87664 0.6805 0.0
H603 H 0.31319 0.75353 0.68796 0.0
C604 C 0.16158 0.75613 0.65816 0.0
C605 C 0.09217 0.8852 0.63316 0.0
C606 C 1.02469 0.90323 0.62889 0.0
C607 C 1.00624 0.97916 0.63015 0.0
C608 C 0.05699 0.0353 0.63613 0.0
C609 C 0.12393 1.01464 0.64054 0.0
N610 N 0.14004 0.94042 0.63895 0.0
H611 H 0.1081 0.82654 0.63106 0.0
H612 H 0.16449 0.05727 0.64455 0.0
C613 C 0.32778 0.73825 0.64353 0.0
N614 N 0.34134 0.81006 0.64312 0.0
C615 C 0.46697 0.79907 0.64708 0.0
C616 C 0.45218 0.73084 0.65003 0.0
C617 C 0.38355 0.69655 0.64692 0.0
C618 C 0.41019 0.83659 0.64313 0.0
H619 H 0.27393 0.71432 0.64165 0.0
H620 H 0.42018 0.88898 0.64077 0.0
C621 C 0.41617 1.01919 0.65869 0.0
C622 C 0.30422 0.95452 0.70164 0.0
N623 N 0.2471 0.97715 0.67406 0.0
C624 C 0.27149 0.04944 0.67841 0.0
C625 C 0.22343 0.10898 0.67949 0.0
C626 C 0.15025 0.09257 0.67622 0.0
C627 C 0.12589 1.01735 0.67282 0.0
C628 C 0.1757 0.96025 0.67193 0.0
C629 C 0.29602 0.8651 0.61496 0.0
O630 O 0.21297 0.77165 0.66683 0.0
O631 O 0.16362 0.79353 0.6495 0.0
O632 O 0.35924 1.01107 0.65118 0.0
O633 O 0.42039 0.97396 0.66608 0.0
O634 O 0.25526 0.91116 0.6953 0.0
O635 O 0.36082 0.96328 0.69546 0.0
O636 O 0.27979 0.81189 0.61988 0.0
O637 O 0.28702 0.93169 0.62212 0.0
H638 H 0.32793 0.0608 0.68114 0.0
H639 H 0.15734 0.9028 0.6697 0.0
H640 H 0.37703 0.72349 0.70605 0.0
H641 H 0.56303 0.85014 0.69853 0.0
H642 H 0.98977 0.85729 0.62378 0.0
H643 H 0.04646 0.09409 0.63686 0.0
H644 H 0.51961 0.82665 0.64877 0.0
H645 H 0.37178 0.64079 0.64799 0.0
H646 H 0.24342 0.16664 0.68233 0.0
H647 H 0.06986 1.00207 0.6701 0.0
Cd648 Cd 0.82646 0.65567 0.39272 0.0
Cd649 Cd 0.7538 0.63517 0.42457 0.0
C650 C 1.00219 0.69387 0.39634 0.0
N651 N 0.93984 0.71552 0.39144 0.0
C652 C 1.00989 0.77492 0.37813 0.0
C653 C 0.07464 0.74673 0.38208 0.0
C654 C 0.07039 0.70973 0.39189 0.0
C655 C 0.94285 0.75875 0.383 0.0
H656 H 0.99973 0.65987 0.40304 0.0
H657 H 0.89303 0.7758 0.37922 0.0
C658 C 0.66258 0.77583 0.40907 0.0
C659 C 0.60353 0.58183 0.43434 0.0
C660 C 0.56592 0.56844 0.44484 0.0
C661 C 0.60144 0.53116 0.45297 0.0
C662 C 0.67101 0.5004 0.44936 0.0
C663 C 0.70642 0.51471 0.43876 0.0
N664 N 0.67362 0.55776 0.4319 0.0
H665 H 0.58012 0.61917 0.42917 0.0
H666 H 0.76316 0.49905 0.43697 0.0
C667 C 0.81904 0.79592 0.42782 0.0
N668 N 0.84013 0.72306 0.42603 0.0
C669 C 0.96497 0.75683 0.42709 0.0
C670 C 0.94445 0.82906 0.42637 0.0
C671 C 0.87105 0.85087 0.42807 0.0
C672 C 0.911 0.70403 0.42689 0.0
H673 H 0.76205 0.81095 0.42871 0.0
H674 H 0.9258 0.64758 0.42703 0.0
C675 C 0.918 0.51366 0.40859 0.0
C676 C 0.78907 0.6214 0.36569 0.0
N677 N 0.74565 0.56486 0.39365 0.0
C678 C 0.76466 0.49184 0.39245 0.0
C679 C 0.71335 0.44226 0.39493 0.0
C680 C 0.64211 0.46846 0.39805 0.0
C681 C 0.62163 0.53962 0.39683 0.0
C682 C 0.6749 0.58652 0.39427 0.0
C683 C 0.76156 0.70317 0.45172 0.0
O684 O 0.71985 0.76784 0.40165 0.0
O685 O 0.65782 0.73021 0.41638 0.0
O686 O 0.86368 0.52561 0.41669 0.0
O687 O 0.91889 0.55406 0.40037 0.0
O688 O 0.78499 0.68748 0.3732 0.0
O689 O 0.81686 0.57151 0.37037 0.0
O690 O 0.80734 0.65361 0.446 0.0
O691 O 0.71133 0.71968 0.44487 0.0
H692 H 0.81937 0.47229 0.38981 0.0
H693 H 0.66018 0.64074 0.39305 0.0
H694 H 1.01019 0.80362 0.37057 0.0
H695 H 0.11901 0.68829 0.39541 0.0
H696 H 0.51256 0.59359 0.4473 0.0
H697 H 0.69995 0.47033 0.45522 0.0
H698 H 1.02127 0.73826 0.42631 0.0
H699 H 0.85374 0.90772 0.42837 0.0
H700 H 0.72973 0.38573 0.39501 0.0
H701 H 0.56657 0.56121 0.39874 0.0
Cd702 Cd 0.81953 0.67553 0.81541 0.0
Cd703 Cd 0.75416 0.68744 0.78267 0.0
C704 C 0.98228 0.68893 0.82456 0.0
N705 N 0.93636 0.63241 0.8185 0.0
C706 C 1.02205 0.53974 0.82131 0.0
C707 C 0.0708 0.5973 0.82757 0.0
C708 C 0.05002 0.67275 0.82898 0.0
C709 C 0.95468 0.55862 0.81679 0.0
H710 H 0.96454 0.74708 0.82672 0.0
H711 H 0.91555 0.51487 0.81257 0.0
C712 C 0.6598 0.55133 0.79852 0.0
C713 C 0.60376 0.7325 0.77172 0.0
C714 C 0.56581 0.7468 0.76134 0.0
C715 C 0.60061 0.78623 0.75347 0.0
C716 C 0.67023 0.8168 0.75705 0.0
C717 C 0.70603 0.8014 0.7675 0.0
N718 N 0.6733 0.75803 0.7743 0.0
H719 H 0.5807 0.69467 0.77682 0.0
H720 H 0.76257 0.81764 0.76937 0.0
C721 C 0.80483 0.52136 0.77885 0.0
N722 N 0.82914 0.59372 0.78309 0.0
C723 C 0.95047 0.55385 0.78433 0.0
C724 C 0.92617 0.47861 0.78109 0.0
C725 C 0.85298 0.46197 0.77785 0.0
C726 C 0.90057 0.61077 0.78514 0.0
H727 H 0.74836 0.50982 0.77616 0.0
H728 H 0.91887 0.6682 0.78725 0.0
C729 C 0.91426 0.81435 0.79898 0.0
C730 C 0.78002 0.70613 0.84223 0.0
N731 N 0.73491 0.76093 0.81412 0.0
C732 C 0.7486 0.83284 0.81378 0.0
C733 C 0.69287 0.87486 0.81045 0.0
C734 C 0.62416 0.8408 0.80734 0.0
C735 C 0.60927 0.77235 0.81021 0.0
C736 C 0.66603 0.73446 0.81408 0.0
C737 C 0.77098 0.61631 0.75555 0.0
O738 O 0.71681 0.55937 0.80601 0.0
O739 O 0.65553 0.59663 0.79114 0.0
O740 O 0.86269 0.79907 0.79035 0.0
O741 O 0.91239 0.77675 0.80761 0.0
O742 O 0.78876 0.63936 0.83512 0.0
O743 O 0.79625 0.75904 0.83724 0.0
O744 O 0.81994 0.65976 0.76187 0.0
O745 O 0.71455 0.60736 0.76175 0.0
H746 H 0.80253 0.85659 0.81566 0.0
H747 H 0.65598 0.68186 0.81637 0.0
H748 H 1.03449 0.48116 0.82043 0.0
H749 H 0.08334 0.71958 0.83428 0.0
H750 H 0.51252 0.7216 0.75885 0.0
H751 H 0.69863 0.84812 0.75133 0.0
H752 H 1.00651 0.56932 0.78701 0.0
H753 H 0.83304 0.40429 0.77512 0.0
H754 H 0.70474 0.9307 0.80943 0.0
H755 H 0.55658 0.74489 0.8085 0.0
Cd756 Cd 0.32462 0.45056 0.53268 0.0
Cd757 Cd 0.25039 0.42952 0.56451 0.0
C758 C 0.47729 0.49999 0.52266 0.0
N759 N 0.40708 0.52402 0.52493 0.0
C760 C 0.41033 0.57896 0.50718 0.0
C761 C 0.48001 0.54808 0.50373 0.0
C762 C 0.51527 0.51205 0.51207 0.0
C763 C 0.3745 0.56581 0.51783 0.0
H764 H 0.50056 0.46367 0.52803 0.0
H765 H 0.31768 0.58139 0.51951 0.0
C766 C 0.15857 0.57007 0.54827 0.0
C767 C 0.09027 0.44782 0.57407 0.0
C768 C 1.02146 0.43424 0.57837 0.0
C769 C 0.99508 0.35982 0.57579 0.0
C770 C 1.03903 0.30081 0.56842 0.0
C771 C 0.10808 0.31724 0.5642 0.0
N772 N 0.13199 0.38997 0.56712 0.0
H773 H 0.1123 0.50451 0.57696 0.0
H774 H 0.14388 0.27202 0.55922 0.0
C775 C 0.30925 0.59592 0.56581 0.0
N776 N 0.32843 0.52343 0.56498 0.0
C777 C 0.45271 0.54786 0.56211 0.0
C778 C 0.43252 0.61817 0.56048 0.0
C779 C 0.36117 0.64491 0.56335 0.0
C780 C 0.39899 0.50155 0.56465 0.0
H781 H 0.25384 0.61491 0.56789 0.0
H782 H 0.41288 0.44681 0.56576 0.0
C783 C 0.4169 0.31286 0.5485 0.0
C784 C 0.307 0.3815 0.50552 0.0
N785 N 0.25409 0.35152 0.53238 0.0
C786 C 0.28176 0.28054 0.52789 0.0
C787 C 0.23644 0.21846 0.52647 0.0
C788 C 0.16231 0.23093 0.5293 0.0
C789 C 0.13448 0.30491 0.53274 0.0
C790 C 0.18184 0.3647 0.53416 0.0
C791 C 0.28386 0.45347 0.59146 0.0
O792 O 0.21297 0.55835 0.54019 0.0
O793 O 0.15786 0.5296 0.55647 0.0
O794 O 0.35797 0.31841 0.55548 0.0
O795 O 0.42273 0.35998 0.54146 0.0
O796 O 0.25768 0.42367 0.512 0.0
O797 O 0.36475 0.37428 0.51153 0.0
O798 O 0.27288 0.50824 0.58665 0.0
O799 O 0.27298 0.38785 0.58405 0.0
H800 H 0.3387 0.27209 0.52533 0.0
H801 H 0.16098 0.42134 0.53646 0.0
H802 H 0.38159 0.6082 0.50117 0.0
H803 H 0.56873 0.4869 0.50975 0.0
H804 H 0.99169 0.48153 0.58446 0.0
H805 H 1.0216 0.2426 0.56642 0.0
H806 H 0.5077 0.52586 0.56034 0.0
H807 H 0.34504 0.70085 0.56288 0.0
H808 H 0.25907 0.16186 0.52361 0.0
H809 H 0.07745 0.31699 0.53508 0.0
Cd810 Cd 0.325 0.36975 0.17526 0.0
Cd811 Cd 0.25105 0.39028 0.14337 0.0
C812 C 0.47847 0.32213 0.18515 0.0
N813 N 0.40853 0.29712 0.18297 0.0
C814 C 0.41424 0.24105 0.20057 0.0
C815 C 0.48376 0.27266 0.20391 0.0
C816 C 0.51743 0.31019 0.19563 0.0
C817 C 0.37717 0.2546 0.19007 0.0
H818 H 0.50082 0.35882 0.17976 0.0
H819 H 0.32035 0.23871 0.18852 0.0
C820 C 0.15911 0.24999 0.15966 0.0
C821 C 0.09044 0.37297 0.13395 0.0
C822 C 1.02176 0.38713 0.12968 0.0
C823 C 0.99623 0.46182 0.13216 0.0
C824 C 0.04091 0.52054 0.1394 0.0
C825 C 0.10977 0.50354 0.1436 0.0
N826 N 0.13285 0.43054 0.14079 0.0
H827 H 0.11182 0.316 0.13112 0.0
H828 H 0.14612 0.54849 0.14849 0.0
C829 C 0.31008 0.22422 0.14222 0.0
N830 N 0.32923 0.29667 0.14302 0.0
C831 C 0.45346 0.27242 0.14596 0.0
C832 C 0.43325 0.20217 0.14761 0.0
C833 C 0.36195 0.17537 0.14474 0.0
C834 C 0.39978 0.31858 0.14337 0.0
H835 H 0.25473 0.20512 0.14011 0.0
H836 H 0.4137 0.37322 0.14221 0.0
C837 C 0.41733 0.50729 0.15938 0.0
C838 C 0.30702 0.43875 0.20242 0.0
N839 N 0.25474 0.46887 0.1755 0.0
C840 C 0.28229 0.5399 0.17999 0.0
C841 C 0.23692 0.60191 0.18137 0.0
C842 C 0.16287 0.58932 0.17849 0.0
C843 C 0.13515 0.51531 0.17504 0.0
C844 C 0.18255 0.45559 0.17367 0.0
C845 C 0.28454 0.36529 0.11639 0.0
O846 O 0.21342 0.26182 0.16775 0.0
O847 O 0.15849 0.29032 0.15144 0.0
O848 O 0.35857 0.50153 0.15236 0.0
O849 O 0.42299 0.4604 0.16646 0.0
O850 O 0.25788 0.39633 0.19594 0.0
O851 O 0.36472 0.44618 0.1964 0.0
O852 O 0.27354 0.31082 0.12126 0.0
O853 O 0.27371 0.43108 0.12374 0.0
H854 H 0.33916 0.54843 0.1826 0.0
H855 H 0.16177 0.39893 0.17136 0.0
H856 H 0.38577 0.2125 0.20671 0.0
H857 H 0.57123 0.3348 0.19777 0.0
H858 H 0.99143 0.33999 0.12368 0.0
H859 H 1.02419 0.57892 0.1413 0.0
H860 H 0.50842 0.29447 0.14774 0.0
H861 H 0.34582 0.11944 0.14521 0.0
H862 H 0.25946 0.65854 0.18423 0.0
H863 H 0.07818 0.50313 0.17266 0.0
C864 C 0.46991 0.40249 0.40992 0.0
C865 C 0.49659 0.37425 0.41995 0.0
H866 H 0.49577 0.45062 0.39457 0.0
C867 C 0.57184 0.37309 0.42214 0.0
H868 H 0.41236 0.40089 0.40756 0.0
C869 C 0.61968 0.39842 0.41427 0.0
C870 C 0.59272 0.42815 0.40446 0.0
H871 H 0.59376 0.35145 0.42979 0.0
H872 H 0.67759 0.39758 0.41621 0.0
C873 C 0.51762 0.42932 0.40226 0.0
C874 C 1.01646 0.92987 0.40317 0.0
C875 C 0.09153 0.92807 0.40538 0.0
H876 H 0.91096 0.90083 0.40824 0.0
C877 C 0.1181 0.89633 0.41497 0.0
H878 H 0.99484 0.95248 0.39561 0.0
C879 C 0.06995 0.8697 0.42264 0.0
C880 C 0.99472 0.8716 0.42045 0.0
H881 H 0.17597 0.8947 0.41689 0.0
H882 H 0.09164 0.84659 0.43013 0.0
C883 C 0.96844 0.90182 0.41063 0.0
C884 C 0.44978 0.88554 0.79264 0.0
C885 C 0.47695 0.92464 0.78409 0.0
H886 H 0.47474 0.83383 0.80753 0.0
C887 C 0.55217 0.92914 0.78228 0.0
H888 H 0.39178 0.88253 0.7944 0.0
C889 C 0.59965 0.9043 0.79021 0.0
C890 C 0.57276 0.87003 0.79947 0.0
H891 H 0.57409 0.95788 0.77554 0.0
H892 H 0.65749 0.91198 0.789 0.0
C893 C 0.49742 0.85905 0.80038 0.0
C894 C 0.99567 0.35382 0.79987 0.0
C895 C 0.07085 0.36641 0.79903 0.0
H896 H 0.88942 0.37772 0.79416 0.0
C897 C 0.09687 0.40194 0.78988 0.0
H898 H 0.97353 0.32747 0.80691 0.0
C899 C 0.04873 0.42717 0.78211 0.0
C900 C 0.9737 0.42225 0.78405 0.0
H901 H 0.15452 0.41068 0.78867 0.0
H902 H 0.06995 0.45723 0.7755 0.0
C903 C 0.94732 0.38128 0.79236 0.0
C904 C 0.55706 0.65498 0.55595 0.0
C905 C 0.48201 0.65601 0.5537 0.0
H906 H 0.66237 0.68247 0.55054 0.0
C907 C 0.45519 0.68302 0.54358 0.0
H908 H 0.57877 0.63535 0.56383 0.0
C909 C 0.50314 0.70744 0.53562 0.0
C910 C 0.57821 0.7073 0.53798 0.0
H911 H 0.39734 0.68288 0.54151 0.0
H912 H 0.48153 0.72814 0.52784 0.0
C913 C 0.60486 0.68032 0.54813 0.0
C914 C 0.99236 0.14513 0.5359 0.0
C915 C 1.01617 0.11144 0.54545 0.0
H916 H 1.0223 0.20119 0.52178 0.0
C917 C 0.09123 0.10197 0.54711 0.0
H918 H 0.93511 0.15261 0.5342 0.0
C919 C 0.14122 0.13139 0.5401 0.0
C920 C 0.11641 0.17102 0.53147 0.0
H921 H 0.1117 0.07703 0.55445 0.0
H922 H 0.19851 0.13088 0.54257 0.0
C923 C 0.04218 0.17186 0.52859 0.0
C924 C 0.60561 0.13988 0.15992 0.0
C925 C 0.57894 0.11267 0.17005 0.0
H926 H 0.57956 0.18519 0.14426 0.0
C927 C 0.50386 0.11244 0.17241 0.0
H928 H 0.66313 0.1378 0.15751 0.0
C929 C 0.45593 0.137 0.16447 0.0
C930 C 0.48277 0.16429 0.15438 0.0
H931 H 0.48224 0.09155 0.18017 0.0
H932 H 0.39807 0.13701 0.16653 0.0
C933 C 0.55782 0.1654 0.15213 0.0
C934 C 0.09177 0.71831 0.16068 0.0
C935 C 1.01671 0.70871 0.16234 0.0
H936 H 0.19907 0.6895 0.16524 0.0
C937 C 0.99288 0.67489 0.17187 0.0
H938 H 0.11226 0.74334 0.15336 0.0
C939 C 0.04268 0.6482 0.17918 0.0
C940 C 0.11693 0.64918 0.17632 0.0
H941 H 0.93563 0.66731 0.17356 0.0
H942 H 1.0228 0.6188 0.18599 0.0
C943 C 0.14176 0.6889 0.1677 0.0
C944 C 0.52138 0.9167 0.90182 0.0
C945 C 0.59661 0.91494 0.90382 0.0
H946 H 0.41643 0.89056 0.90756 0.0
C947 C 0.62429 0.88585 0.91365 0.0
H948 H 0.49897 0.93758 0.89412 0.0
C949 C 0.57695 0.86144 0.92172 0.0
C950 C 0.50156 0.8637 0.91976 0.0
H951 H 0.68233 0.88514 0.91552 0.0
H952 H 0.59926 0.83999 0.92935 0.0
C953 C 0.4742 0.89143 0.90973 0.0
C954 C 0.93918 0.44119 0.91726 0.0
C955 C 0.96495 0.40058 0.92569 0.0
H956 H 0.96681 0.49648 0.90294 0.0
C957 C 0.03973 0.39736 0.92798 0.0
H958 H 0.88151 0.44345 0.91518 0.0
C959 C 0.08854 0.42363 0.92045 0.0
C960 C 0.06348 0.45935 0.91126 0.0
H961 H 0.06054 0.36759 0.93467 0.0
H962 H 0.14599 0.41515 0.92183 0.0
C963 C 0.98826 0.47017 0.91003 0.0
C964 C 0.61943 0.42141 0.29368 0.0
C965 C 0.59251 0.39175 0.30349 0.0
H966 H 0.59345 0.46847 0.27817 0.0
C967 C 0.51743 0.3907 0.30573 0.0
H968 H 0.67733 0.42213 0.2917 0.0
C969 C 0.46969 0.41766 0.29809 0.0
C970 C 0.49634 0.44589 0.28806 0.0
H971 H 0.49563 0.36943 0.31343 0.0
H972 H 0.41217 0.41938 0.30047 0.0
C973 C 0.57157 0.44688 0.28582 0.0
C974 C 0.06977 0.95035 0.28534 0.0
C975 C 0.99454 0.94841 0.28753 0.0
H976 H 0.17579 0.9254 0.29108 0.0
C977 C 0.96825 0.9182 0.29736 0.0
H978 H 0.09147 0.97344 0.27785 0.0
C979 C 1.01627 0.89018 0.30482 0.0
C980 C 0.09134 0.89202 0.30261 0.0
H981 H 0.91076 0.91916 0.29974 0.0
H982 H 0.99464 0.86758 0.31237 0.0
C983 C 0.11792 0.92375 0.29302 0.0
C984 C 0.58133 0.10514 0.05121 0.0
C985 C 0.50604 0.11579 0.05015 0.0
H986 H 0.68725 0.12936 0.04541 0.0
C987 C 0.47958 0.14862 0.04068 0.0
H988 H 0.60363 0.08082 0.0585 0.0
C989 C 0.52742 0.17298 0.03275 0.0
C990 C 0.60246 0.16977 0.03481 0.0
H991 H 0.42179 0.15606 0.03937 0.0
H992 H 0.50586 0.20126 0.02591 0.0
C993 C 0.62934 0.13145 0.04349 0.0
C994 C 0.98094 0.65105 0.04001 0.0
C995 C 1.00634 0.61511 0.04915 0.0
H996 H 1.00889 0.70783 0.02587 0.0
C997 C 0.08146 0.6025 0.05009 0.0
H998 H 0.9234 0.65978 0.03871 0.0
C999 C 0.13032 0.63085 0.04277 0.0
C1000 C 0.1045 0.67258 0.03455 0.0
H1001 H 0.10321 0.57583 0.05711 0.0
H1002 H 0.18809 0.62743 0.0447 0.0
C1003 C 1.02963 0.67717 0.03243 0.0
C1004 C 0.4768 0.66753 0.66719 0.0
C1005 C 0.50362 0.70194 0.65794 0.0
H1006 H 0.50247 0.61361 0.68181 0.0
C1007 C 0.57895 0.71302 0.65703 0.0
H1008 H 0.41898 0.65973 0.66839 0.0
C1009 C 0.62665 0.68631 0.66474 0.0
C1010 C 0.59953 0.64697 0.67326 0.0
H1011 H 0.6016 0.73832 0.64989 0.0
H1012 H 0.68463 0.68926 0.66296 0.0
C1013 C 0.52434 0.64256 0.67509 0.0
C1014 C 0.97954 0.16966 0.66761 0.0
C1015 C 1.00548 0.20552 0.65849 0.0
H1016 H 1.00659 0.11392 0.68192 0.0
C1017 C 0.08063 0.21858 0.65771 0.0
H1018 H 0.92193 0.16061 0.66879 0.0
C1019 C 0.12904 0.19088 0.66518 0.0
C1020 C 0.10274 0.14941 0.67342 0.0
H1021 H 0.10278 0.2452 0.65071 0.0
H1022 H 0.18693 0.19461 0.66338 0.0
C1023 C 1.02774 0.14436 0.67536 0.0
C1024 C 0.54314 0.94059 0.40046 0.0
C1025 C 0.48125 0.95334 0.40891 0.0
H1026 H 0.64451 0.88036 0.39373 0.0
C1027 C 0.48152 0.90554 0.41743 0.0
H1028 H 0.54829 0.97405 0.39363 0.0
C1029 C 0.53814 0.85007 0.41746 0.0
C1030 C 0.60015 0.83744 0.40903 0.0
H1031 H 0.43703 0.91069 0.42424 0.0
H1032 H 0.53298 0.81659 0.42428 0.0
C1033 C 0.59998 0.8854 0.40053 0.0
C1034 C 1.03833 0.35034 0.41743 0.0
C1035 C 0.10062 0.33808 0.40907 0.0
H1036 H 0.93652 0.40996 0.42404 0.0
C1037 C 0.10026 0.3857 0.40052 0.0
H1038 H 1.03326 0.31705 0.42429 0.0
C1039 C 0.04305 0.44034 0.40035 0.0
C1040 C 0.98081 0.45263 0.40872 0.0
H1041 H 0.145 0.38089 0.39377 0.0
H1042 H 0.04813 0.47367 0.39349 0.0
C1043 C 0.98122 0.40509 0.41728 0.0
C1044 C 0.53771 0.3888 0.80728 0.0
C1045 C 0.4767 0.37556 0.79863 0.0
H1046 H 0.63892 0.44885 0.81417 0.0
C1047 C 0.47852 0.42225 0.78993 0.0
H1048 H 0.54165 0.3562 0.81426 0.0
C1049 C 0.53572 0.47717 0.78993 0.0
C1050 C 0.59687 0.49022 0.79855 0.0
H1051 H 0.43481 0.41667 0.78297 0.0
H1052 H 0.53171 0.50985 0.78296 0.0
C1053 C 0.59517 0.44336 0.80722 0.0
C1054 C 0.97958 0.92172 0.79021 0.0
C1055 C 0.97751 0.87527 0.79894 0.0
H1056 H 1.03305 1.00888 0.78316 0.0
C1057 C 1.03857 0.88856 0.80759 0.0
H1058 H 0.93591 0.91613 0.78323 0.0
C1059 C 0.09625 0.94293 0.80749 0.0
C1060 C 0.09818 0.98955 0.79877 0.0
H1061 H 0.04239 0.85615 0.8146 0.0
H1062 H 0.13998 0.94846 0.81444 0.0
C1063 C 1.03697 0.97641 0.79016 0.0
C1064 C 0.4809 0.20525 0.55737 0.0
C1065 C 0.47966 0.25171 0.54863 0.0
H1066 H 0.5338 0.11829 0.56455 0.0
C1067 C 0.54083 0.23791 0.54001 0.0
H1068 H 0.43705 0.21126 0.56432 0.0
C1069 C 0.59756 0.18257 0.54006 0.0
C1070 C 0.59904 0.13645 0.54885 0.0
H1071 H 0.54511 0.27014 0.53298 0.0
H1072 H 0.64123 0.17628 0.53307 0.0
C1073 C 0.53807 0.15053 0.55752 0.0
C1074 C 0.09386 0.67775 0.53953 0.0
C1075 C 0.09565 0.63116 0.54824 0.0
H1076 H 0.04063 0.76516 0.53252 0.0
C1077 C 1.03483 0.64475 0.55694 0.0
H1078 H 0.13745 0.67193 0.53253 0.0
C1079 C 0.97767 0.6997 0.55693 0.0
C1080 C 0.97586 0.74627 0.54821 0.0
H1081 H 1.03095 0.61232 0.56395 0.0
H1082 H 0.93412 0.70557 0.56394 0.0
C1083 C 1.0367 0.7327 0.53952 0.0
C1084 C 0.48147 0.61485 0.15051 0.0
C1085 C 0.48012 0.56841 0.15926 0.0
H1086 H 0.53449 0.70177 0.14333 0.0
C1087 C 0.54122 0.58221 0.16788 0.0
H1088 H 0.43768 0.60884 0.14355 0.0
C1089 C 0.598 0.6375 0.16783 0.0
C1090 C 0.59958 0.68361 0.15904 0.0
H1091 H 0.54542 0.54999 0.17492 0.0
H1092 H 0.6416 0.64378 0.17483 0.0
C1093 C 0.53868 0.66955 0.15036 0.0
C1094 C 1.03542 0.1753 0.15098 0.0
C1095 C 0.0962 0.18888 0.15968 0.0
H1096 H 0.93474 0.11449 0.14399 0.0
C1097 C 0.09439 0.14226 0.16839 0.0
H1098 H 1.03155 0.20776 0.14398 0.0
C1099 C 1.03724 0.08728 0.16839 0.0
C1100 C 0.97643 0.07373 0.1597 0.0
H1101 H 0.13795 0.14806 0.17539 0.0
H1102 H 0.04116 0.05479 0.17539 0.0
C1103 C 0.97826 0.12034 0.15099 0.0
C1104 C 0.53786 0.42868 0.9005 0.0
C1105 C 0.47672 0.44266 0.90913 0.0
H1106 H 0.63898 0.36799 0.89375 0.0
C1107 C 0.47805 0.39648 0.91792 0.0
H1108 H 0.54226 0.46096 0.89348 0.0
C1109 C 0.53481 0.34122 0.918 0.0
C1110 C 0.59615 0.32748 0.90942 0.0
H1111 H 0.43425 0.40269 0.92488 0.0
H1112 H 0.5304 0.30896 0.92502 0.0
C1113 C 0.59503 0.37396 0.90068 0.0
C1114 C 1.03899 0.84587 0.91856 0.0
C1115 C 0.10003 0.83283 0.90991 0.0
H1116 H 0.93783 0.90593 0.9255 0.0
C1117 C 0.09811 0.87959 0.90122 0.0
H1118 H 1.03512 0.8132 0.92553 0.0
C1119 C 0.04065 0.93422 0.9012 0.0
C1120 C 0.97964 0.94728 0.90986 0.0
H1121 H 0.14176 0.8741 0.89424 0.0
H1122 H 0.04446 0.96683 0.89422 0.0
C1123 C 0.98155 0.90052 0.91854 0.0
C1124 C 0.48147 0.91453 0.2905 0.0
C1125 C 0.48115 0.8667 0.29901 0.0
H1126 H 0.53299 1.00348 0.28365 0.0
C1127 C 0.54304 0.87939 0.30746 0.0
H1128 H 0.437 0.90943 0.28369 0.0
C1129 C 0.5999 0.93454 0.30739 0.0
C1130 C 0.60011 0.98253 0.29889 0.0
H1131 H 0.54815 0.84589 0.31429 0.0
H1132 H 0.64442 0.93954 0.31418 0.0
C1133 C 0.53812 0.96997 0.29047 0.0
C1134 C 0.10002 0.43434 0.30738 0.0
C1135 C 0.10039 0.48208 0.29885 0.0
H1136 H 0.04788 0.34625 0.31438 0.0
C1137 C 1.0381 0.46991 0.29049 0.0
H1138 H 0.14474 0.43907 0.31412 0.0
C1139 C 0.98099 0.41514 0.29063 0.0
C1140 C 0.98057 0.36747 0.29918 0.0
H1141 H 1.03304 0.50329 0.28365 0.0
H1142 H 0.9363 0.41035 0.28388 0.0
C1143 C 0.04281 0.37968 0.30754 0.0
C1144 C 0.48123 0.69495 0.0582 0.0
C1145 C 0.47962 0.7417 0.04951 0.0
H1146 H 0.53443 0.60757 0.06522 0.0
C1147 C 0.54047 0.72804 0.04081 0.0
H1148 H 0.43769 0.70089 0.0652 0.0
C1149 C 0.5973 0.67264 0.04076 0.0
C1150 C 0.59905 0.62612 0.04949 0.0
H1151 H 0.5445 0.76057 0.03382 0.0
H1152 H 0.64078 0.6666 0.03374 0.0
C1153 C 0.53837 0.64 0.05822 0.0
C1154 C 0.09692 0.17313 0.0412 0.0
C1155 C 0.0993 0.12712 0.05 0.0
H1156 H 0.04299 0.25965 0.03405 0.0
C1157 C 1.03832 0.14054 0.05868 0.0
H1158 H 0.14049 0.16739 0.0342 0.0
C1159 C 0.98047 0.19466 0.05854 0.0
C1160 C 0.97822 0.24082 0.04975 0.0
H1161 H 1.03472 0.10844 0.06574 0.0
H1162 H 0.93682 0.20032 0.06552 0.0
C1163 C 1.03932 0.22753 0.04111 0.0
C1164 C 0.48087 0.12692 0.64995 0.0
C1165 C 0.47909 0.08028 0.65865 0.0
H1166 H 0.53444 0.2139 0.64286 0.0
C1167 C 0.54014 0.09354 0.6673 0.0
H1168 H 0.4372 0.12126 0.64298 0.0
C1169 C 0.59732 0.14846 0.66728 0.0
C1170 C 0.59921 0.19492 0.65855 0.0
H1171 H 0.54407 0.06103 0.67429 0.0
H1172 H 0.64094 0.15422 0.67426 0.0
C1173 C 0.53831 0.18147 0.64987 0.0
C1174 C 0.97982 0.62723 0.6496 0.0
C1175 C 0.97771 0.58085 0.65835 0.0
H1176 H 1.03381 0.71384 0.64246 0.0
C1177 C 1.03872 0.59425 0.66701 0.0
H1178 H 0.93624 0.6215 0.64261 0.0
C1179 C 0.09611 0.64896 0.66696 0.0
C1180 C 0.09836 0.69517 0.65819 0.0
H1181 H 0.0425 0.56198 0.67404 0.0
H1182 H 0.13962 0.65476 0.67397 0.0
C1183 C 1.03749 0.68162 0.6495 0.0
C1184 C 0.66174 0.29962 0.36878 0.0
C1185 C 0.64222 0.24052 0.37415 0.0
H1186 H 0.72632 0.33355 0.35469 0.0
C1187 C 0.68186 0.17238 0.37045 0.0
H1188 H 0.63249 0.35283 0.37144 0.0
C1189 C 0.73481 0.16109 0.36078 0.0
C1190 C 0.75021 0.21801 0.35472 0.0
H1191 H 0.6679 0.12521 0.37423 0.0
H1192 H 0.7603 0.10598 0.35745 0.0
C1193 C 0.71591 0.28876 0.35925 0.0
C1194 C 0.18202 0.14517 0.3374 0.0
C1195 C 0.14262 0.07693 0.33361 0.0
H1196 H 0.25979 0.21158 0.35053 0.0
C1197 C 0.16205 1.01764 0.33894 0.0
H1198 H 0.16817 0.19248 0.33365 0.0
C1199 C 0.21567 1.02852 0.34856 0.0
C1200 C 0.24958 0.09939 0.35319 0.0
H1201 H 0.13307 0.96429 0.33618 0.0
H1202 H 0.22594 0.98362 0.3531 0.0
C1203 C 0.23451 0.1564 0.34714 0.0
C1204 C 0.70646 0.04893 0.84946 0.0
C1205 C 0.75219 0.11198 0.85406 0.0
H1206 H 0.61458 1.00291 0.83774 0.0
C1207 C 0.75033 0.17051 0.84799 0.0
H1208 H 0.70682 1.00273 0.85394 0.0
C1209 C 0.69853 0.16978 0.83843 0.0
C1210 C 0.64604 0.11166 0.83503 0.0
H1211 H 0.78578 0.21921 0.8512 0.0
H1212 H 0.69641 0.21759 0.83436 0.0
C1213 C 0.65347 0.04898 0.8401 0.0
C1214 C 0.20271 0.16886 0.87158 0.0
C1215 C 0.1474 0.22418 0.87452 0.0
H1216 H 0.29068 0.12043 0.8589 0.0
C1217 C 0.15069 0.28454 0.8688 0.0
H1218 H 0.20356 0.12307 0.87614 0.0
C1219 C 0.20221 0.2841 0.85918 0.0
C1220 C 0.25051 0.22282 0.855 0.0
H1221 H 0.10948 0.32844 0.87083 0.0
H1222 H 0.19929 0.32786 0.85418 0.0
C1223 C 0.25307 0.16755 0.86177 0.0
C1224 C 0.34844 0.91079 0.59703 0.0
C1225 C 0.33676 0.85125 0.60266 0.0
H1226 H 0.41256 0.95409 0.5841 0.0
C1227 C 0.37538 0.78325 0.59784 0.0
H1228 H 0.31959 0.9639 0.60055 0.0
C1229 C 0.42963 0.77773 0.58845 0.0
C1230 C 0.4453 0.83947 0.5835 0.0
H1231 H 0.36776 0.73631 0.602 0.0
H1232 H 0.4616 0.72633 0.58554 0.0
C1233 C 0.40178 0.90487 0.58752 0.0
C1234 C 0.88689 0.05341 0.60757 0.0
C1235 C 0.83155 0.99843 0.60494 0.0
H1236 H 0.98685 0.09007 0.61753 0.0
C1237 C 0.82508 0.94925 0.61282 0.0
H1238 H 0.89316 0.09188 0.60158 0.0
C1239 C 0.87764 0.94943 0.62222 0.0
C1240 C 0.93929 0.99679 0.62358 0.0
H1241 H 0.78234 0.9069 0.61107 0.0
H1242 H 0.87293 0.90811 0.6277 0.0
C1243 C 0.94078 0.05223 0.61674 0.0
C1244 C 0.40172 0.91603 0.12059 0.0
C1245 C 0.44545 0.98129 0.12458 0.0
H1246 H 0.31916 0.85732 0.10762 0.0
C1247 C 0.42983 0.04309 0.11964 0.0
H1248 H 0.41244 0.86677 0.12399 0.0
C1249 C 0.37537 0.03779 0.11031 0.0
C1250 C 0.33651 0.96993 0.10551 0.0
H1251 H 0.46196 0.09437 0.12253 0.0
H1252 H 0.36781 0.08477 0.10615 0.0
C1253 C 0.34818 0.91033 0.11113 0.0
C1254 C 0.82507 0.87144 0.09508 0.0
C1255 C 0.83161 0.82216 0.10294 0.0
H1256 H 0.87286 0.91276 0.08021 0.0
C1257 C 0.88693 0.76716 0.10028 0.0
H1258 H 0.78234 0.91381 0.09685 0.0
C1259 C 0.94078 0.76842 0.09109 0.0
C1260 C 0.93926 0.82399 0.08428 0.0
H1261 H 0.89325 0.72862 0.10625 0.0
H1262 H 0.98687 0.73057 0.09029 0.0
C1263 C 0.87759 0.87134 0.08567 0.0
C1264 C 0.72719 0.66135 0.86025 0.0
C1265 C 0.73967 0.72062 0.85458 0.0
H1266 H 0.66269 0.61948 0.87332 0.0
C1267 C 0.70234 0.78937 0.85946 0.0
H1268 H 0.7551 0.60771 0.85669 0.0
C1269 C 0.64846 0.79598 0.86893 0.0
C1270 C 0.63191 0.73458 0.87391 0.0
H1271 H 0.71063 0.83615 0.85528 0.0
H1272 H 0.61737 0.84795 0.87189 0.0
C1273 C 0.67423 0.66836 0.86985 0.0
C1274 C 0.25047 0.63211 0.84532 0.0
C1275 C 0.24524 0.58211 0.85307 0.0
H1276 H 0.20184 0.67269 0.83045 0.0
C1277 C 0.19159 0.52537 0.85023 0.0
H1278 H 0.29192 0.67582 0.84723 0.0
C1279 C 0.13794 0.52534 0.84095 0.0
C1280 C 0.13803 0.58136 0.83423 0.0
H1281 H 0.18633 0.4862 0.85611 0.0
H1282 H 0.093 0.48595 0.83999 0.0
C1283 C 0.19821 0.63077 0.83582 0.0
C1284 C 0.66163 0.52052 0.33916 0.0
C1285 C 0.64211 0.57964 0.3338 0.0
H1286 H 0.72625 0.48651 0.35323 0.0
C1287 C 0.68176 0.64776 0.33749 0.0
H1288 H 0.63236 0.46732 0.3365 0.0
C1289 C 0.73475 0.659 0.34715 0.0
C1290 C 0.75017 0.60205 0.3532 0.0
H1291 H 0.6678 0.69495 0.33372 0.0
H1292 H 0.76026 0.71409 0.35048 0.0
C1293 C 0.71584 0.53132 0.34867 0.0
C1294 C 0.16212 0.80259 0.36902 0.0
C1295 C 0.14266 0.74332 0.37435 0.0
H1296 H 0.22598 0.83654 0.35484 0.0
C1297 C 0.18205 0.67506 0.37056 0.0
H1298 H 0.13315 0.85596 0.37177 0.0
C1299 C 0.2345 0.66377 0.36081 0.0
C1300 C 0.24958 0.72075 0.35475 0.0
H1301 H 0.16818 0.62777 0.37431 0.0
H1302 H 0.25976 0.60858 0.35741 0.0
C1303 C 0.21572 0.79166 0.35939 0.0
C1304 C 0.32407 0.41237 0.09776 0.0
C1305 C 0.32289 0.35424 0.10393 0.0
H1306 H 0.37799 0.45995 0.0842 0.0
C1307 C 0.37007 0.29217 0.09953 0.0
H1308 H 0.28754 0.4603 0.10082 0.0
C1309 C 0.42376 0.29308 0.09032 0.0
C1310 C 0.43041 0.35559 0.08518 0.0
H1311 H 0.3703 0.24634 0.10409 0.0
H1312 H 0.4637 0.24796 0.08814 0.0
C1313 C 0.37652 0.41241 0.08833 0.0
C1314 C 0.87188 0.4237 0.1228 0.0
C1315 C 0.92908 0.47695 0.12543 0.0
H1316 H 0.7824 0.37705 0.11038 0.0
C1317 C 0.92766 0.53639 0.11948 0.0
H1318 H 0.86959 0.37878 0.12755 0.0
C1319 C 0.87606 0.53658 0.10991 0.0
C1320 C 0.82586 0.47685 0.10601 0.0
H1321 H 0.97033 0.57873 0.12128 0.0
H1322 H 0.88042 0.57924 0.10469 0.0
C1323 C 0.82148 0.42293 0.11303 0.0
C1324 C 0.36875 0.52653 0.60842 0.0
C1325 C 0.32219 0.46408 0.6039 0.0
H1326 H 0.46184 0.5712 0.61991 0.0
C1327 C 0.32396 0.40539 0.60994 0.0
H1328 H 0.36854 0.5728 0.60396 0.0
C1329 C 0.37638 0.40531 0.61937 0.0
C1330 C 0.42963 0.46272 0.62265 0.0
H1331 H 0.28793 0.35712 0.60679 0.0
H1332 H 0.3783 0.35739 0.62341 0.0
C1333 C 0.42239 0.52563 0.61764 0.0
C1334 C 0.92585 0.28535 0.58839 0.0
C1335 C 0.92781 0.34513 0.58253 0.0
H1336 H 0.87837 0.24234 0.60315 0.0
C1337 C 0.87121 0.39906 0.58528 0.0
H1338 H 0.96806 0.24249 0.5865 0.0
C1339 C 0.82094 0.40003 0.59509 0.0
C1340 C 0.82486 0.34566 0.60203 0.0
H1341 H 0.86934 0.44432 0.5806 0.0
H1342 H 0.78236 0.44634 0.59783 0.0
C1343 C 0.87439 0.28537 0.598 0.0
C1344 C 0.23202 0.34675 0.4853 0.0
C1345 C 0.29648 0.33897 0.49189 0.0
H1346 H 0.17149 0.31151 0.46765 0.0
C1347 C 0.34995 0.28743 0.4855 0.0
H1348 H 0.18969 0.38573 0.49001 0.0
C1349 C 0.33923 0.24445 0.47279 0.0
C1350 C 0.275 0.25242 0.46617 0.0
H1351 H 0.40008 0.27985 0.49034 0.0
H1352 H 0.38171 0.20557 0.46811 0.0
C1353 C 0.22146 0.30399 0.47254 0.0
C1354 C 0.96134 1.01051 0.47693 0.0
C1355 C 1.00439 1.02525 0.48818 0.0
H1356 H 0.95826 0.99619 0.45647 0.0
C1357 C 0.07964 0.03669 0.48718 0.0
H1358 H 0.90336 0.99982 0.47734 0.0
C1359 C 0.11103 1.03437 0.47523 0.0
C1360 C 0.06804 1.01999 0.46396 0.0
H1361 H 0.11409 0.04867 0.49568 0.0
H1362 H 0.16888 0.04583 0.47489 0.0
C1363 C 0.99279 1.00793 0.46495 0.0
C1364 C 0.23069 0.9882 0.722 0.0
C1365 C 0.29546 0.9948 0.71542 0.0
H1366 H 0.17164 1.02161 0.73981 0.0
C1367 C 0.35154 0.04183 0.72205 0.0
H1368 H 0.18645 0.95262 0.71713 0.0
C1369 C 0.34301 0.08154 0.73502 0.0
C1370 C 0.27829 0.0749 0.7416 0.0
H1371 H 0.40212 0.04812 0.71723 0.0
H1372 H 0.38729 0.1171 0.73988 0.0
C1373 C 0.22218 1.02789 0.73498 0.0
C1374 C 0.11242 0.27328 0.72968 0.0
C1375 C 0.06844 0.28759 0.74083 0.0
H1376 H 0.11734 0.26017 0.70927 0.0
C1377 C 0.99346 0.30012 0.73969 0.0
H1378 H 0.17015 0.26166 0.73018 0.0
C1379 C 0.96322 0.29871 0.72769 0.0
C1380 C 1.0072 0.28439 0.71654 0.0
H1381 H 0.9583 0.31182 0.7481 0.0
H1382 H 0.90549 0.31031 0.7272 0.0
C1383 C 0.08218 0.27187 0.71768 0.0
C1384 C 0.82672 0.72526 0.47273 0.0
C1385 C 0.76862 0.74251 0.46552 0.0
H1386 H 0.88147 0.75105 0.49093 0.0
C1387 C 0.71927 0.79995 0.47148 0.0
H1388 H 0.86564 0.68133 0.46838 0.0
C1389 C 0.72847 0.84013 0.48439 0.0
C1390 C 0.7871 0.8234 0.49154 0.0
H1391 H 0.674 0.81449 0.46613 0.0
H1392 H 0.68987 0.88439 0.48874 0.0
C1393 C 0.83589 0.76536 0.48562 0.0
C1394 C 0.72885 0.98014 0.22349 0.0
C1395 C 0.78801 0.9962 0.21637 0.0
H1396 H 0.6738 1.00647 0.2417 0.0
C1397 C 0.83728 0.05365 0.22233 0.0
H1398 H 0.68986 0.93637 0.21911 0.0
C1399 C 0.828 0.09387 0.23522 0.0
C1400 C 0.76931 0.07733 0.24238 0.0
H1401 H 0.88331 0.06741 0.21706 0.0
H1402 H 0.8673 0.13732 0.2396 0.0
C1403 C 0.71955 1.02043 0.23639 0.0
C1404 C 0.11131 0.78555 0.2327 0.0
C1405 C 0.06819 0.79995 0.24396 0.0
H1406 H 0.11458 0.77114 0.21224 0.0
C1407 C 0.99294 0.81192 0.24294 0.0
H1408 H 0.16916 0.77417 0.23305 0.0
C1409 C 0.96161 0.80922 0.23096 0.0
C1410 C 1.00478 0.79447 0.21971 0.0
H1411 H 0.95831 0.82367 0.25142 0.0
H1412 H 0.90363 0.81984 0.23053 0.0
C1413 C 0.08004 0.78312 0.22074 0.0
C1414 C 0.23299 0.8404 -0.0138 0.0
C1415 C 0.29476 0.82823 -0.00691 0.0
H1416 H 0.17684 0.81201 0.96808 0.0
C1417 C 0.34806 0.77627 -0.01324 0.0
H1418 H 0.191 0.88001 -0.00915 0.0
C1419 C 0.33981 0.73714 0.9738 0.0
C1420 C 0.27829 0.7495 0.96688 0.0
H1421 H 0.39627 0.76563 -0.00817 0.0
H1422 H 0.38195 0.69765 0.96917 0.0
C1423 C 0.22489 0.80144 0.97319 0.0
C1424 C 0.11662 0.54677 0.97897 0.0
C1425 C 0.07335 0.53351 0.96776 0.0
H1426 H 0.11994 0.55873 -0.00064 0.0
C1427 C 0.99822 0.52113 0.96871 0.0
H1428 H 0.17449 0.5581 0.9786 0.0
C1429 C 0.96703 0.52195 -0.01939 0.0
C1430 C 1.01019 0.53553 -0.00816 0.0
H1431 H 0.96366 0.51019 0.96023 0.0
H1432 H 0.90917 0.51056 -0.01904 0.0
C1433 C 0.0854 0.54766 -0.00912 0.0
C1434 C 0.33926 0.57562 0.23516 0.0
C1435 C 0.2749 0.56787 0.24177 0.0
H1436 H 0.40025 0.54 0.21762 0.0
C1437 C 0.22122 0.51656 0.23539 0.0
H1438 H 0.38184 0.61429 0.23985 0.0
C1439 C 0.23179 0.4738 0.22262 0.0
C1440 C 0.29641 0.48132 0.21605 0.0
H1441 H 0.17113 0.50924 0.24026 0.0
H1442 H 0.18936 0.43502 0.2179 0.0
C1443 C 0.34999 0.53264 0.22245 0.0
C1444 C 0.71522 0.2814 0.97325 0.0
C1445 C 0.77148 0.23492 0.96654 0.0
H1446 H 0.68066 0.3585 -0.00897 0.0
C1447 C 0.83748 0.23076 0.97294 0.0
H1448 H 0.66375 0.2859 0.96857 0.0
C1449 C 0.84724 0.27257 -0.01424 0.0
C1450 C 0.79119 0.31942 -0.00754 0.0
H1451 H 0.88198 0.19579 0.968 0.0
H1452 H 0.89884 0.26822 -0.00958 0.0
C1453 C 0.725 0.32328 -0.01391 0.0
C1454 C 0.72354 0.52911 0.73512 0.0
C1455 C 0.77963 0.57612 0.74176 0.0
H1456 H 0.6878 0.45387 0.71729 0.0
C1457 C 0.84438 0.58277 0.73517 0.0
H1458 H 0.67298 0.52279 0.73995 0.0
C1459 C 0.85288 0.54311 0.7222 0.0
C1460 C 0.79678 0.49609 0.71557 0.0
H1461 H 0.88862 0.61834 0.74005 0.0
H1462 H 0.90343 0.54941 0.71737 0.0
C1463 C 0.73206 0.48943 0.72216 0.0
C1464 C 0.56137 0.95557 0.96946 0.0
C1465 C 0.55665 1.01934 0.96466 0.0
H1466 H 0.53921 0.9079 -0.01484 0.0
C1467 C 0.52579 0.08611 0.97257 0.0
H1468 H 0.58457 0.90323 0.9636 0.0
C1469 C 0.50067 0.08918 -0.015 0.0
C1470 C 0.50575 1.02557 -0.01016 0.0
H1471 H 0.52295 0.13687 0.96931 0.0
H1472 H 0.47809 0.14178 -0.00912 0.0
C1473 C 0.53609 0.95859 -0.01812 0.0
C1474 C 0.57228 0.3465 0.23697 0.0
C1475 C 0.56688 0.28389 0.24208 0.0
H1476 H 0.55041 0.39211 0.22102 0.0
C1477 C 0.53597 0.21662 0.23432 0.0
H1478 H 0.59542 0.39926 0.24268 0.0
C1479 C 0.51076 0.21223 0.22185 0.0
C1480 C 0.51597 0.2749 0.21676 0.0
H1481 H 0.53263 0.16658 0.23778 0.0
H1482 H 0.48753 0.1595 0.21615 0.0
C1483 C 0.5471 0.3421 0.22449 0.0
C1484 C 0.61231 0.7728 0.72969 0.0
C1485 C 0.56841 0.78787 0.74086 0.0
H1486 H 0.61719 0.75871 0.70925 0.0
C1487 C 0.49351 0.80079 0.73971 0.0
H1488 H 0.66997 0.76087 0.73019 0.0
C1489 C 0.46328 0.799 0.72769 0.0
C1490 C 0.50718 0.78392 0.71652 0.0
H1491 H 0.4584 0.81308 0.74813 0.0
H1492 H 0.40561 0.81091 0.72719 0.0
C1493 C 0.58208 0.77102 0.71767 0.0
C1494 C 0.46636 0.52794 0.47974 0.0
C1495 C 0.51135 0.54513 0.49078 0.0
H1496 H 0.45935 0.50849 0.45918 0.0
C1497 C 0.58638 0.55566 0.4892 0.0
H1498 H 0.40858 0.51755 0.48053 0.0
C1499 C 0.61551 0.54981 0.47692 0.0
C1500 C 0.57045 0.53289 0.46589 0.0
H1501 H 0.62249 0.5694 0.49748 0.0
H1502 H 0.67328 0.56026 0.47613 0.0
C1503 C 0.49548 0.52211 0.46746 0.0
loop_
_geom_bond_atom_site_label_1
_geom_bond_atom_site_label_2
_geom_bond_distance
_geom_bond_site_symmetry_2
_ccdc_geom_bond_type
Cd0 N3 2.334 . S
Cd0 N29 2.304 . S
Cd0 O36 2.268 . S
Cd0 O39 2.273 . S
Cd0 O40 2.417 . S
Cd0 O41 2.337 . S
Cd1 N16 2.304 . S
Cd1 N20 2.334 . S
Cd1 O37 2.273 . S
Cd1 O38 2.268 . S
Cd1 O42 2.417 . S
Cd1 O43 2.330 . S
C2 N3 1.332 . S
C2 C6 1.381 . S
C2 H8 0.931 . S
N3 Cd0 2.334 . S
N3 C2 1.332 . S
N3 C7 1.328 . S
C4 C5 1.396 . S
C4 C7 1.378 . S
C4 H46 0.931 . S
C5 C4 1.396 . S
C5 C6 1.382 . S
C6 C2 1.381 . S
C6 C5 1.382 . S
C6 H47 0.930 . S
C7 N3 1.328 . S
C7 C4 1.378 . S
C7 H9 0.930 . S
H8 C2 0.931 . S
H9 C7 0.930 . S
C10 O36 1.238 . S
C10 O37 1.253 . S
C11 C12 1.379 . S
C11 N16 1.337 . S
C11 H17 0.929 . S
C12 C11 1.379 . S
C12 C13 1.380 . S
C12 H48 0.929 1_455 S
C13 C12 1.380 . S
C13 C14 1.399 . S
C14 C13 1.399 . S
C14 C15 1.376 . S
C14 H49 0.931 1_545 S
C15 C14 1.376 . S
C15 N16 1.338 . S
C15 H18 0.930 . S
N16 Cd1 2.304 . S
N16 C11 1.337 . S
N16 C15 1.338 . S
H17 C11 0.929 . S
H18 C15 0.930 . S
C19 N20 1.332 . S
C19 C23 1.381 . S
C19 H25 0.931 . S
N20 Cd1 2.334 . S
N20 C19 1.332 . S
N20 C24 1.328 . S
C21 C22 1.396 . S
C21 C24 1.378 . S
C21 H50 0.931 . S
C22 C21 1.396 . S
C22 C23 1.382 . S
C23 C19 1.381 . S
C23 C22 1.382 . S
C23 H51 0.930 . S
C24 N20 1.328 . S
C24 C21 1.378 . S
C24 H26 0.930 . S
H25 C19 0.931 . S
H26 C24 0.930 . S
C27 O38 1.238 . S
C27 O39 1.253 . S
C28 O40 1.239 . S
C28 O41 1.240 . S
N29 Cd0 2.304 . S
N29 C30 1.337 1_545 S
N29 C34 1.338 . S
C30 N29 1.337 1_565 S
C30 C31 1.379 . S
C30 H44 0.929 . S
C31 C30 1.379 . S
C31 C32 1.380 1_455 S
C31 H52 0.929 . S
C32 C31 1.380 1_655 S
C32 C33 1.399 1_565 S
C33 C32 1.399 1_545 S
C33 C34 1.376 1_655 S
C33 H53 0.931 . S
C34 N29 1.338 . S
C34 C33 1.376 1_455 S
C34 H45 0.930 . S
C35 O42 1.239 . S
C35 O43 1.230 . S
O36 Cd0 2.268 . S
O36 C10 1.238 . S
O37 Cd1 2.273 . S
O37 C10 1.253 . S
O38 Cd1 2.268 . S
O38 C27 1.238 . S
O39 Cd0 2.273 . S
O39 C27 1.253 . S
O40 Cd0 2.417 . S
O40 C28 1.239 . S
O41 Cd0 2.337 . S
O41 C28 1.240 . S
O42 Cd1 2.417 . S
O42 C35 1.239 . S
O43 Cd1 2.330 . S
O43 C35 1.230 . S
H44 C30 0.929 . S
H45 C34 0.930 . S
H46 C4 0.931 . S
H47 C6 0.930 . S
H48 C12 0.929 1_655 S
H49 C14 0.931 1_565 S
H50 C21 0.931 . S
H51 C23 0.930 . S
H52 C31 0.929 . S
H53 C33 0.931 . S
Cd54 N57 2.334 . S
Cd54 N83 2.304 . S
Cd54 O90 2.268 . S
Cd54 O93 2.273 . S
Cd54 O94 2.417 . S
Cd54 O95 2.330 . S
Cd55 N70 2.304 . S
Cd55 N74 2.334 . S
Cd55 O91 2.273 . S
Cd55 O92 2.268 . S
Cd55 O96 2.417 . S
Cd55 O97 2.330 . S
C56 N57 1.332 . S
C56 C60 1.381 . S
C56 H62 0.931 . S
N57 Cd54 2.334 . S
N57 C56 1.332 . S
N57 C61 1.328 . S
C58 C59 1.396 . S
C58 C61 1.378 . S
C58 H100 0.931 1_545 S
C59 C58 1.396 . S
C59 C60 1.382 . S
C60 C56 1.381 . S
C60 C59 1.382 . S
C60 H101 0.930 . S
C61 N57 1.328 . S
C61 C58 1.378 . S
C61 H63 0.930 . S
H62 C56 0.931 . S
H63 C61 0.930 . S
C64 O90 1.238 . S
C64 O91 1.253 . S
C65 C66 1.379 . S
C65 N70 1.337 . S
C65 H71 0.929 . S
C66 C65 1.379 . S
C66 C67 1.380 . S
C66 H102 0.929 1_455 S
C67 C66 1.380 . S
C67 C68 1.399 . S
C68 C67 1.399 . S
C68 C69 1.376 . S
C68 H103 0.931 . S
C69 C68 1.376 . S
C69 N70 1.338 . S
C69 H72 0.930 . S
N70 Cd55 2.304 . S
N70 C65 1.337 . S
N70 C69 1.338 . S
H71 C65 0.929 . S
H72 C69 0.930 . S
C73 N74 1.332 1_565 S
C73 C77 1.381 . S
C73 H79 0.931 . S
N74 Cd55 2.334 . S
N74 C73 1.332 1_545 S
N74 C78 1.328 . S
C75 C76 1.396 1_545 S
C75 C78 1.378 . S
C75 H104 0.931 . S
C76 C75 1.396 1_565 S
C76 C77 1.382 . S
C77 C73 1.381 . S
C77 C76 1.382 . S
C77 H105 0.930 . S
C78 N74 1.328 . S
C78 C75 1.378 . S
C78 H80 0.930 . S
H79 C73 0.931 . S
H80 C78 0.930 . S
C81 O92 1.238 . S
C81 O93 1.253 . S
C82 O94 1.239 . S
C82 O95 1.230 . S
N83 Cd54 2.304 . S
N83 C84 1.337 . S
N83 C88 1.338 . S
C84 N83 1.337 . S
C84 C85 1.379 . S
C84 H98 0.929 . S
C85 C84 1.379 . S
C85 C86 1.380 1_455 S
C85 H106 0.929 . S
C86 C85 1.380 1_655 S
C86 C87 1.399 . S
C87 C86 1.399 . S
C87 C88 1.376 1_655 S
C87 H107 0.931 . S
C88 N83 1.338 . S
C88 C87 1.376 1_455 S
C88 H99 0.930 . S
C89 O96 1.239 . S
C89 O97 1.230 . S
O90 Cd54 2.268 . S
O90 C64 1.238 . S
O91 Cd55 2.273 . S
O91 C64 1.253 . S
O92 Cd55 2.268 . S
O92 C81 1.238 . S
O93 Cd54 2.273 . S
O93 C81 1.253 . S
O94 Cd54 2.417 . S
O94 C82 1.239 . S
O95 Cd54 2.330 . S
O95 C82 1.230 . S
O96 Cd55 2.417 . S
O96 C89 1.239 . S
O97 Cd55 2.330 . S
O97 C89 1.230 . S
H98 C84 0.929 . S
H99 C88 0.930 . S
H100 C58 0.931 1_565 S
H101 C60 0.930 . S
H102 C66 0.929 1_655 S
H103 C68 0.931 . S
H104 C75 0.931 . S
H105 C77 0.930 . S
H106 C85 0.929 . S
H107 C87 0.931 . S
Cd108 N111 2.334 . S
Cd108 N137 2.304 . S
Cd108 O144 2.268 . S
Cd108 O147 2.273 . S
Cd108 O148 2.417 . S
Cd108 O149 2.330 . S
Cd109 N124 2.304 . S
Cd109 N128 2.334 . S
Cd109 O145 2.273 . S
Cd109 O146 2.268 . S
Cd109 O150 2.417 . S
Cd109 O151 2.330 . S
C110 N111 1.332 . S
C110 C114 1.381 . S
C110 H116 0.931 . S
N111 Cd108 2.334 . S
N111 C110 1.332 . S
N111 C115 1.328 . S
C112 C113 1.396 . S
C112 C115 1.378 . S
C112 H154 0.931 1_565 S
C113 C112 1.396 . S
C113 C114 1.382 . S
C114 C110 1.381 . S
C114 C113 1.382 . S
C114 H155 0.930 1_655 S
C115 N111 1.328 . S
C115 C112 1.378 . S
C115 H117 0.930 . S
H116 C110 0.931 . S
H117 C115 0.930 . S
C118 O144 1.238 . S
C118 O145 1.253 . S
C119 C120 1.379 . S
C119 N124 1.337 . S
C119 H125 0.929 . S
C120 C119 1.379 . S
C120 C121 1.380 . S
C120 H156 0.929 . S
C121 C120 1.380 . S
C121 C122 1.399 . S
C122 C121 1.399 . S
C122 C123 1.376 . S
C122 H157 0.931 . S
C123 C122 1.376 . S
C123 N124 1.338 . S
C123 H126 0.930 . S
N124 Cd109 2.304 . S
N124 C119 1.337 . S
N124 C123 1.338 . S
H125 C119 0.929 . S
H126 C123 0.930 . S
C127 N128 1.332 1_545 S
C127 C131 1.381 . S
C127 H133 0.931 . S
N128 Cd109 2.334 . S
N128 C127 1.332 1_565 S
N128 C132 1.328 . S
C129 C130 1.396 1_565 S
C129 C132 1.378 1_455 S
C129 H158 0.931 . S
C130 C129 1.396 1_545 S
C130 C131 1.382 1_455 S
C131 C127 1.381 . S
C131 C130 1.382 1_655 S
C131 H159 0.930 . S
C132 N128 1.328 . S
C132 C129 1.378 1_655 S
C132 H134 0.930 . S
H133 C127 0.931 . S
H134 C132 0.930 . S
C135 O146 1.238 . S
C135 O147 1.253 . S
C136 O148 1.239 . S
C136 O149 1.230 . S
N137 Cd108 2.304 . S
N137 C138 1.337 . S
N137 C142 1.338 . S
C138 N137 1.337 . S
C138 C139 1.379 . S
C138 H152 0.929 . S
C139 C138 1.379 . S
C139 C140 1.380 . S
C139 H160 0.929 . S
C140 C139 1.380 . S
C140 C141 1.399 . S
C141 C140 1.399 . S
C141 C142 1.376 . S
C141 H161 0.931 . S
C142 N137 1.338 . S
C142 C141 1.376 . S
C142 H153 0.930 . S
C143 O150 1.239 . S
C143 O151 1.230 . S
O144 Cd108 2.268 . S
O144 C118 1.238 . S
O145 Cd109 2.273 . S
O145 C118 1.253 . S
O146 Cd109 2.268 . S
O146 C135 1.238 . S
O147 Cd108 2.273 . S
O147 C135 1.253 . S
O148 Cd108 2.417 . S
O148 C136 1.239 . S
O149 Cd108 2.330 . S
O149 C136 1.230 . S
O150 Cd109 2.417 . S
O150 C143 1.239 . S
O151 Cd109 2.330 . S
O151 C143 1.230 . S
H152 C138 0.929 . S
H153 C142 0.930 . S
H154 C112 0.931 1_545 S
H155 C114 0.930 1_455 S
H156 C120 0.929 . S
H157 C122 0.931 . S
H158 C129 0.931 . S
H159 C131 0.930 . S
H160 C139 0.929 . S
H161 C141 0.931 . S
Cd162 N165 2.334 . S
Cd162 N191 2.304 . S
Cd162 O198 2.268 . S
Cd162 O201 2.273 . S
Cd162 O202 2.417 . S
Cd162 O203 2.330 . S
Cd163 N178 2.304 . S
Cd163 N182 2.334 . S
Cd163 O199 2.273 . S
Cd163 O200 2.268 . S
Cd163 O204 2.417 . S
Cd163 O205 2.330 . S
C164 N165 1.332 . S
C164 C168 1.381 . S
C164 H170 0.931 . S
N165 Cd162 2.334 . S
N165 C164 1.332 . S
N165 C169 1.328 . S
C166 C167 1.396 . S
C166 C169 1.378 . S
C166 H208 0.931 . S
C167 C166 1.396 . S
C167 C168 1.382 . S
C168 C164 1.381 . S
C168 C167 1.382 . S
C168 H209 0.930 1_655 S
C169 N165 1.328 . S
C169 C166 1.378 . S
C169 H171 0.930 . S
H170 C164 0.931 . S
H171 C169 0.930 . S
C172 O198 1.238 . S
C172 O199 1.253 . S
C173 C174 1.379 . S
C173 N178 1.337 . S
C173 H179 0.929 . S
C174 C173 1.379 . S
C174 C175 1.380 . S
C174 H210 0.929 . S
C175 C174 1.380 . S
C175 C176 1.399 . S
C176 C175 1.399 . S
C176 C177 1.376 . S
C176 H211 0.931 1_565 S
C177 C176 1.376 . S
C177 N178 1.338 . S
C177 H180 0.930 . S
N178 Cd163 2.304 . S
N178 C173 1.337 . S
N178 C177 1.338 . S
H179 C173 0.929 . S
H180 C177 0.930 . S
C181 N182 1.332 . S
C181 C185 1.381 . S
C181 H187 0.931 . S
N182 Cd163 2.334 . S
N182 C181 1.332 . S
N182 C186 1.328 . S
C183 C184 1.396 . S
C183 C186 1.378 1_455 S
C183 H212 0.931 . S
C184 C183 1.396 . S
C184 C185 1.382 1_455 S
C185 C181 1.381 . S
C185 C184 1.382 1_655 S
C185 H213 0.930 . S
C186 N182 1.328 . S
C186 C183 1.378 1_655 S
C186 H188 0.930 . S
H187 C181 0.931 . S
H188 C186 0.930 . S
C189 O200 1.238 . S
C189 O201 1.253 . S
C190 O202 1.239 . S
C190 O203 1.230 . S
N191 Cd162 2.304 . S
N191 C192 1.337 1_565 S
N191 C196 1.338 . S
C192 N191 1.337 1_545 S
C192 C193 1.379 . S
C192 H206 0.929 . S
C193 C192 1.379 . S
C193 C194 1.380 . S
C193 H214 0.929 . S
C194 C193 1.380 . S
C194 C195 1.399 1_545 S
C195 C194 1.399 1_565 S
C195 C196 1.376 . S
C195 H215 0.931 . S
C196 N191 1.338 . S
C196 C195 1.376 . S
C196 H207 0.930 . S
C197 O204 1.239 . S
C197 O205 1.230 . S
O198 Cd162 2.268 . S
O198 C172 1.238 . S
O199 Cd163 2.273 . S
O199 C172 1.253 . S
O200 Cd163 2.268 . S
O200 C189 1.238 . S
O201 Cd162 2.273 . S
O201 C189 1.253 . S
O202 Cd162 2.417 . S
O202 C190 1.239 . S
O203 Cd162 2.330 . S
O203 C190 1.230 . S
O204 Cd163 2.417 . S
O204 C197 1.239 . S
O205 Cd163 2.330 . S
O205 C197 1.230 . S
H206 C192 0.929 . S
H207 C196 0.930 . S
H208 C166 0.931 . S
H209 C168 0.930 1_455 S
H210 C174 0.929 . S
H211 C176 0.931 1_545 S
H212 C183 0.931 . S
H213 C185 0.930 . S
H214 C193 0.929 . S
H215 C195 0.931 . S
Cd216 N219 2.334 . S
Cd216 N245 2.304 . S
Cd216 O252 2.268 . S
Cd216 O255 2.273 . S
Cd216 O256 2.417 . S
Cd216 O257 2.330 . S
Cd217 N232 2.304 . S
Cd217 N236 2.334 . S
Cd217 O253 2.273 . S
Cd217 O254 2.268 . S
Cd217 O258 2.417 . S
Cd217 O259 2.330 . S
C218 N219 1.332 . S
C218 C222 1.381 . S
C218 H224 0.931 . S
N219 Cd216 2.334 . S
N219 C218 1.332 . S
N219 C223 1.328 . S
C220 C221 1.396 . S
C220 C223 1.378 . S
C220 H262 0.931 . S
C221 C220 1.396 . S
C221 C222 1.382 . S
C222 C218 1.381 . S
C222 C221 1.382 . S
C222 H263 0.930 . S
C223 N219 1.328 . S
C223 C220 1.378 . S
C223 H225 0.930 . S
H224 C218 0.931 . S
H225 C223 0.930 . S
C226 O252 1.238 . S
C226 O253 1.253 . S
C227 C228 1.379 . S
C227 N232 1.337 . S
C227 H233 0.929 . S
C228 C227 1.379 . S
C228 C229 1.380 . S
C228 H264 0.929 1_455 S
C229 C228 1.380 . S
C229 C230 1.399 . S
C230 C229 1.399 . S
C230 C231 1.376 . S
C230 H265 0.931 . S
C231 C230 1.376 . S
C231 N232 1.338 . S
C231 H234 0.930 . S
N232 Cd217 2.304 . S
N232 C227 1.337 . S
N232 C231 1.338 . S
H233 C227 0.929 . S
H234 C231 0.930 . S
C235 N236 1.332 . S
C235 C239 1.381 . S
C235 H241 0.931 . S
N236 Cd217 2.334 . S
N236 C235 1.332 . S
N236 C240 1.328 . S
C237 C238 1.396 . S
C237 C240 1.378 . S
C237 H266 0.931 . S
C238 C237 1.396 . S
C238 C239 1.382 . S
C239 C235 1.381 . S
C239 C238 1.382 . S
C239 H267 0.930 . S
C240 N236 1.328 . S
C240 C237 1.378 . S
C240 H242 0.930 . S
H241 C235 0.931 . S
H242 C240 0.930 . S
C243 O254 1.238 . S
C243 O255 1.253 . S
C244 O256 1.239 . S
C244 O257 1.230 . S
N245 Cd216 2.304 . S
N245 C246 1.337 . S
N245 C250 1.338 . S
C246 N245 1.337 . S
C246 C247 1.379 . S
C246 H260 0.929 . S
C247 C246 1.379 . S
C247 C248 1.380 1_455 S
C247 H268 0.929 . S
C248 C247 1.380 1_655 S
C248 C249 1.399 . S
C249 C248 1.399 . S
C249 C250 1.376 1_655 S
C249 H269 0.931 . S
C250 N245 1.338 . S
C250 C249 1.376 1_455 S
C250 H261 0.930 . S
C251 O258 1.239 . S
C251 O259 1.230 . S
O252 Cd216 2.268 . S
O252 C226 1.238 . S
O253 Cd217 2.273 . S
O253 C226 1.253 . S
O254 Cd217 2.268 . S
O254 C243 1.238 . S
O255 Cd216 2.273 . S
O255 C243 1.253 . S
O256 Cd216 2.417 . S
O256 C244 1.239 . S
O257 Cd216 2.330 . S
O257 C244 1.230 . S
O258 Cd217 2.417 . S
O258 C251 1.239 . S
O259 Cd217 2.330 . S
O259 C251 1.230 . S
H260 C246 0.929 . S
H261 C250 0.930 . S
H262 C220 0.931 . S
H263 C222 0.930 . S
H264 C228 0.929 1_655 S
H265 C230 0.931 . S
H266 C237 0.931 . S
H267 C239 0.930 . S
H268 C247 0.929 . S
H269 C249 0.931 . S
Cd270 N273 2.334 . S
Cd270 N299 2.304 . S
Cd270 O306 2.268 . S
Cd270 O309 2.273 . S
Cd270 O310 2.417 . S
Cd270 O311 2.330 . S
Cd271 N286 2.304 . S
Cd271 N290 2.334 . S
Cd271 O307 2.273 . S
Cd271 O308 2.268 . S
Cd271 O312 2.417 . S
Cd271 O313 2.330 . S
C272 N273 1.332 . S
C272 C276 1.381 . S
C272 H278 0.931 . S
N273 Cd270 2.334 . S
N273 C272 1.332 . S
N273 C277 1.328 . S
C274 C275 1.396 . S
C274 C277 1.378 . S
C274 H316 0.931 . S
C275 C274 1.396 . S
C275 C276 1.382 . S
C276 C272 1.381 . S
C276 C275 1.382 . S
C276 H317 0.930 . S
C277 N273 1.328 . S
C277 C274 1.378 . S
C277 H279 0.930 . S
H278 C272 0.931 . S
H279 C277 0.930 . S
C280 O306 1.238 . S
C280 O307 1.253 . S
C281 C282 1.379 . S
C281 N286 1.337 . S
C281 H287 0.929 . S
C282 C281 1.379 . S
C282 C283 1.380 . S
C282 H318 0.929 1_455 S
C283 C282 1.380 . S
C283 C284 1.399 . S
C284 C283 1.399 . S
C284 C285 1.376 . S
C284 H319 0.931 . S
C285 C284 1.376 . S
C285 N286 1.338 . S
C285 H288 0.930 . S
N286 Cd271 2.304 . S
N286 C281 1.337 . S
N286 C285 1.338 . S
H287 C281 0.929 . S
H288 C285 0.930 . S
C289 N290 1.332 . S
C289 C293 1.381 . S
C289 H295 0.931 . S
N290 Cd271 2.334 . S
N290 C289 1.332 . S
N290 C294 1.328 . S
C291 C292 1.396 . S
C291 C294 1.378 . S
C291 H320 0.931 . S
C292 C291 1.396 . S
C292 C293 1.382 . S
C293 C289 1.381 . S
C293 C292 1.382 . S
C293 H321 0.930 . S
C294 N290 1.328 . S
C294 C291 1.378 . S
C294 H296 0.930 . S
H295 C289 0.931 . S
H296 C294 0.930 . S
C297 O308 1.238 . S
C297 O309 1.253 . S
C298 O310 1.239 . S
C298 O311 1.230 . S
N299 Cd270 2.304 . S
N299 C300 1.337 . S
N299 C304 1.338 . S
C300 N299 1.337 . S
C300 C301 1.379 . S
C300 H314 0.929 . S
C301 C300 1.379 . S
C301 C302 1.380 1_455 S
C301 H322 0.929 . S
C302 C301 1.380 1_655 S
C302 C303 1.399 . S
C303 C302 1.399 . S
C303 C304 1.376 1_655 S
C303 H323 0.931 . S
C304 N299 1.338 . S
C304 C303 1.376 1_455 S
C304 H315 0.930 . S
C305 O312 1.239 . S
C305 O313 1.230 . S
O306 Cd270 2.268 . S
O306 C280 1.238 . S
O307 Cd271 2.273 . S
O307 C280 1.253 . S
O308 Cd271 2.268 . S
O308 C297 1.238 . S
O309 Cd270 2.273 . S
O309 C297 1.253 . S
O310 Cd270 2.417 . S
O310 C298 1.239 . S
O311 Cd270 2.330 . S
O311 C298 1.230 . S
O312 Cd271 2.417 . S
O312 C305 1.239 . S
O313 Cd271 2.330 . S
O313 C305 1.230 . S
H314 C300 0.929 . S
H315 C304 0.930 . S
H316 C274 0.931 . S
H317 C276 0.930 . S
H318 C282 0.929 1_655 S
H319 C284 0.931 . S
H320 C291 0.931 . S
H321 C293 0.930 . S
H322 C301 0.929 . S
H323 C303 0.931 . S
Cd324 N327 2.334 . S
Cd324 N353 2.304 . S
Cd324 O360 2.268 . S
Cd324 O363 2.273 . S
Cd324 O364 2.417 . S
Cd324 O365 2.330 . S
Cd325 N340 2.304 . S
Cd325 N344 2.334 . S
Cd325 O361 2.273 . S
Cd325 O362 2.268 . S
Cd325 O366 2.417 . S
Cd325 O367 2.330 . S
C326 N327 1.332 . S
C326 C330 1.381 . S
C326 H332 0.931 . S
N327 Cd324 2.334 . S
N327 C326 1.332 . S
N327 C331 1.328 . S
C328 C329 1.396 . S
C328 C331 1.378 . S
C328 H370 0.931 . S
C329 C328 1.396 . S
C329 C330 1.382 . S
C330 C326 1.381 . S
C330 C329 1.382 . S
C330 H371 0.930 1_655 S
C331 N327 1.328 . S
C331 C328 1.378 . S
C331 H333 0.930 . S
H332 C326 0.931 . S
H333 C331 0.930 . S
C334 O360 1.238 . S
C334 O361 1.253 . S
C335 C336 1.379 . S
C335 N340 1.337 . S
C335 H341 0.929 . S
C336 C335 1.379 . S
C336 C337 1.380 . S
C336 H372 0.929 . S
C337 C336 1.380 . S
C337 C338 1.399 . S
C338 C337 1.399 . S
C338 C339 1.376 . S
C338 H373 0.931 . S
C339 C338 1.376 . S
C339 N340 1.338 . S
C339 H342 0.930 . S
N340 Cd325 2.304 . S
N340 C335 1.337 . S
N340 C339 1.338 . S
H341 C335 0.929 . S
H342 C339 0.930 . S
C343 N344 1.332 . S
C343 C347 1.381 . S
C343 H349 0.931 . S
N344 Cd325 2.334 . S
N344 C343 1.332 . S
N344 C348 1.328 . S
C345 C346 1.396 . S
C345 C348 1.378 1_455 S
C345 H374 0.931 . S
C346 C345 1.396 . S
C346 C347 1.382 1_455 S
C347 C343 1.381 . S
C347 C346 1.382 1_655 S
C347 H375 0.930 . S
C348 N344 1.328 . S
C348 C345 1.378 1_655 S
C348 H350 0.930 . S
H349 C343 0.931 . S
H350 C348 0.930 . S
C351 O362 1.238 . S
C351 O363 1.253 . S
C352 O364 1.239 . S
C352 O365 1.230 . S
N353 Cd324 2.304 . S
N353 C354 1.337 . S
N353 C358 1.338 . S
C354 N353 1.337 . S
C354 C355 1.379 . S
C354 H368 0.929 . S
C355 C354 1.379 . S
C355 C356 1.380 . S
C355 H376 0.929 . S
C356 C355 1.380 . S
C356 C357 1.399 . S
C357 C356 1.399 . S
C357 C358 1.376 . S
C357 H377 0.931 . S
C358 N353 1.338 . S
C358 C357 1.376 . S
C358 H369 0.930 . S
C359 O366 1.239 . S
C359 O367 1.230 . S
O360 Cd324 2.268 . S
O360 C334 1.238 . S
O361 Cd325 2.273 . S
O361 C334 1.253 . S
O362 Cd325 2.268 . S
O362 C351 1.238 . S
O363 Cd324 2.273 . S
O363 C351 1.253 . S
O364 Cd324 2.417 . S
O364 C352 1.239 . S
O365 Cd324 2.330 . S
O365 C352 1.230 . S
O366 Cd325 2.417 . S
O366 C359 1.239 . S
O367 Cd325 2.330 . S
O367 C359 1.230 . S
H368 C354 0.929 . S
H369 C358 0.930 . S
H370 C328 0.931 . S
H371 C330 0.930 1_455 S
H372 C336 0.929 . S
H373 C338 0.931 . S
H374 C345 0.931 . S
H375 C347 0.930 . S
H376 C355 0.929 . S
H377 C357 0.931 . S
Cd378 N381 2.334 . S
Cd378 N407 2.304 . S
Cd378 O414 2.268 . S
Cd378 O417 2.273 . S
Cd378 O418 2.417 . S
Cd378 O419 2.330 . S
Cd379 N394 2.304 . S
Cd379 N398 2.334 . S
Cd379 O415 2.273 . S
Cd379 O416 2.268 . S
Cd379 O420 2.417 . S
Cd379 O421 2.330 . S
C380 N381 1.332 . S
C380 C384 1.381 . S
C380 H386 0.931 . S
N381 Cd378 2.334 . S
N381 C380 1.332 . S
N381 C385 1.328 . S
C382 C383 1.396 . S
C382 C385 1.378 . S
C382 H424 0.931 . S
C383 C382 1.396 . S
C383 C384 1.382 . S
C384 C380 1.381 . S
C384 C383 1.382 . S
C384 H425 0.930 1_655 S
C385 N381 1.328 . S
C385 C382 1.378 . S
C385 H387 0.930 . S
H386 C380 0.931 . S
H387 C385 0.930 . S
C388 O414 1.238 . S
C388 O415 1.253 . S
C389 C390 1.379 . S
C389 N394 1.337 . S
C389 H395 0.929 . S
C390 C389 1.379 . S
C390 C391 1.380 . S
C390 H426 0.929 . S
C391 C390 1.380 . S
C391 C392 1.399 . S
C392 C391 1.399 . S
C392 C393 1.376 . S
C392 H427 0.931 . S
C393 C392 1.376 . S
C393 N394 1.338 . S
C393 H396 0.930 . S
N394 Cd379 2.304 . S
N394 C389 1.337 . S
N394 C393 1.338 . S
H395 C389 0.929 . S
H396 C393 0.930 . S
C397 N398 1.332 . S
C397 C401 1.381 . S
C397 H403 0.931 . S
N398 Cd379 2.334 . S
N398 C397 1.332 . S
N398 C402 1.328 . S
C399 C400 1.396 . S
C399 C402 1.378 1_455 S
C399 H428 0.931 . S
C400 C399 1.396 . S
C400 C401 1.382 1_455 S
C401 C397 1.381 . S
C401 C400 1.382 1_655 S
C401 H429 0.930 . S
C402 N398 1.328 . S
C402 C399 1.378 1_655 S
C402 H404 0.930 . S
H403 C397 0.931 . S
H404 C402 0.930 . S
C405 O416 1.238 . S
C405 O417 1.253 . S
C406 O418 1.239 . S
C406 O419 1.230 . S
N407 Cd378 2.304 . S
N407 C408 1.337 . S
N407 C412 1.338 . S
C408 N407 1.337 . S
C408 C409 1.379 . S
C408 H422 0.929 . S
C409 C408 1.379 . S
C409 C410 1.380 . S
C409 H430 0.929 . S
C410 C409 1.380 . S
C410 C411 1.399 . S
C411 C410 1.399 . S
C411 C412 1.376 . S
C411 H431 0.931 . S
C412 N407 1.338 . S
C412 C411 1.376 . S
C412 H423 0.930 . S
C413 O420 1.239 . S
C413 O421 1.230 . S
O414 Cd378 2.268 . S
O414 C388 1.238 . S
O415 Cd379 2.273 . S
O415 C388 1.253 . S
O416 Cd379 2.268 . S
O416 C405 1.238 . S
O417 Cd378 2.273 . S
O417 C405 1.253 . S
O418 Cd378 2.417 . S
O418 C406 1.239 . S
O419 Cd378 2.330 . S
O419 C406 1.230 . S
O420 Cd379 2.417 . S
O420 C413 1.239 . S
O421 Cd379 2.330 . S
O421 C413 1.230 . S
H422 C408 0.929 . S
H423 C412 0.930 . S
H424 C382 0.931 . S
H425 C384 0.930 1_455 S
H426 C390 0.929 . S
H427 C392 0.931 . S
H428 C399 0.931 . S
H429 C401 0.930 . S
H430 C409 0.929 . S
H431 C411 0.931 . S
Cd432 N435 2.334 . S
Cd432 N461 2.304 . S
Cd432 O468 2.268 . S
Cd432 O471 2.273 . S
Cd432 O472 2.417 . S
Cd432 O473 2.337 . S
Cd433 N448 2.304 . S
Cd433 N452 2.334 . S
Cd433 O469 2.273 . S
Cd433 O470 2.268 . S
Cd433 O474 2.417 . S
Cd433 O475 2.330 . S
C434 N435 1.332 . S
C434 C438 1.381 . S
C434 H440 0.931 . S
N435 Cd432 2.334 . S
N435 C434 1.332 . S
N435 C439 1.328 . S
C436 C437 1.396 . S
C436 C439 1.378 . S
C436 H478 0.931 . S
C437 C436 1.396 . S
C437 C438 1.382 . S
C438 C434 1.381 . S
C438 C437 1.382 . S
C438 H479 0.930 . S
C439 N435 1.328 . S
C439 C436 1.378 . S
C439 H441 0.930 . S
H440 C434 0.931 . S
H441 C439 0.930 . S
C442 O468 1.238 . S
C442 O469 1.253 . S
C443 C444 1.379 . S
C443 N448 1.337 . S
C443 H449 0.929 . S
C444 C443 1.379 . S
C444 C445 1.380 . S
C444 H480 0.929 . S
C445 C444 1.380 . S
C445 C446 1.399 . S
C446 C445 1.399 . S
C446 C447 1.376 . S
C446 H481 0.931 1_545 S
C447 C446 1.376 . S
C447 N448 1.338 . S
C447 H450 0.930 . S
N448 Cd433 2.304 . S
N448 C443 1.337 . S
N448 C447 1.338 . S
H449 C443 0.929 . S
H450 C447 0.930 . S
C451 N452 1.332 . S
C451 C455 1.381 . S
C451 H457 0.931 . S
N452 Cd433 2.334 . S
N452 C451 1.332 . S
N452 C456 1.328 . S
C453 C454 1.396 . S
C453 C456 1.378 . S
C453 H482 0.931 . S
C454 C453 1.396 . S
C454 C455 1.382 . S
C455 C451 1.381 . S
C455 C454 1.382 . S
C455 H483 0.930 . S
C456 N452 1.328 . S
C456 C453 1.378 . S
C456 H458 0.930 . S
H457 C451 0.931 . S
H458 C456 0.930 . S
C459 O470 1.238 . S
C459 O471 1.253 . S
C460 O472 1.239 . S
C460 O473 1.241 . S
N461 Cd432 2.304 . S
N461 C462 1.337 1_545 S
N461 C466 1.338 . S
C462 N461 1.337 1_565 S
C462 C463 1.379 . S
C462 H476 0.929 . S
C463 C462 1.379 . S
C463 C464 1.380 . S
C463 H484 0.929 . S
C464 C463 1.380 . S
C464 C465 1.399 1_565 S
C465 C464 1.399 1_545 S
C465 C466 1.376 . S
C465 H485 0.931 . S
C466 N461 1.338 . S
C466 C465 1.376 . S
C466 H477 0.930 . S
C467 O474 1.239 . S
C467 O475 1.230 . S
O468 Cd432 2.268 . S
O468 C442 1.238 . S
O469 Cd433 2.273 . S
O469 C442 1.253 . S
O470 Cd433 2.268 . S
O470 C459 1.238 . S
O471 Cd432 2.273 . S
O471 C459 1.253 . S
O472 Cd432 2.417 . S
O472 C460 1.239 . S
O473 Cd432 2.337 . S
O473 C460 1.241 . S
O474 Cd433 2.417 . S
O474 C467 1.239 . S
O475 Cd433 2.330 . S
O475 C467 1.230 . S
H476 C462 0.929 . S
H477 C466 0.930 . S
H478 C436 0.931 . S
H479 C438 0.930 . S
H480 C444 0.929 . S
H481 C446 0.931 1_565 S
H482 C453 0.931 . S
H483 C455 0.930 . S
H484 C463 0.929 . S
H485 C465 0.931 . S
Cd486 N489 2.334 . S
Cd486 N515 2.304 . S
Cd486 O522 2.268 . S
Cd486 O525 2.273 . S
Cd486 O526 2.417 . S
Cd486 O527 2.330 . S
Cd487 N502 2.304 . S
Cd487 N506 2.334 . S
Cd487 O523 2.273 . S
Cd487 O524 2.268 . S
Cd487 O528 2.417 . S
Cd487 O529 2.330 . S
C488 N489 1.332 . S
C488 C492 1.381 . S
C488 H494 0.931 . S
N489 Cd486 2.334 . S
N489 C488 1.332 . S
N489 C493 1.328 . S
C490 C491 1.396 . S
C490 C493 1.378 . S
C490 H532 0.931 1_545 S
C491 C490 1.396 . S
C491 C492 1.382 . S
C492 C488 1.381 . S
C492 C491 1.382 . S
C492 H533 0.930 . S
C493 N489 1.328 . S
C493 C490 1.378 . S
C493 H495 0.930 . S
H494 C488 0.931 . S
H495 C493 0.930 . S
C496 O522 1.238 . S
C496 O523 1.253 . S
C497 C498 1.379 . S
C497 N502 1.337 . S
C497 H503 0.929 . S
C498 C497 1.379 . S
C498 C499 1.380 . S
C498 H534 0.929 . S
C499 C498 1.380 . S
C499 C500 1.399 . S
C500 C499 1.399 . S
C500 C501 1.376 . S
C500 H535 0.931 . S
C501 C500 1.376 . S
C501 N502 1.338 . S
C501 H504 0.930 . S
N502 Cd487 2.304 . S
N502 C497 1.337 . S
N502 C501 1.338 . S
H503 C497 0.929 . S
H504 C501 0.930 . S
C505 N506 1.332 1_565 S
C505 C509 1.381 . S
C505 H511 0.931 . S
N506 Cd487 2.334 . S
N506 C505 1.332 1_545 S
N506 C510 1.328 . S
C507 C508 1.396 1_545 S
C507 C510 1.378 . S
C507 H536 0.931 . S
C508 C507 1.396 1_565 S
C508 C509 1.382 . S
C509 C505 1.381 . S
C509 C508 1.382 . S
C509 H537 0.930 . S
C510 N506 1.328 . S
C510 C507 1.378 . S
C510 H512 0.930 . S
H511 C505 0.931 . S
H512 C510 0.930 . S
C513 O524 1.238 . S
C513 O525 1.253 . S
C514 O526 1.239 . S
C514 O527 1.230 . S
N515 Cd486 2.304 . S
N515 C516 1.337 . S
N515 C520 1.338 . S
C516 N515 1.337 . S
C516 C517 1.379 . S
C516 H530 0.929 . S
C517 C516 1.379 . S
C517 C518 1.380 . S
C517 H538 0.929 . S
C518 C517 1.380 . S
C518 C519 1.399 . S
C519 C518 1.399 . S
C519 C520 1.376 . S
C519 H539 0.931 . S
C520 N515 1.338 . S
C520 C519 1.376 . S
C520 H531 0.930 . S
C521 O528 1.239 . S
C521 O529 1.230 . S
O522 Cd486 2.268 . S
O522 C496 1.238 . S
O523 Cd487 2.273 . S
O523 C496 1.253 . S
O524 Cd487 2.268 . S
O524 C513 1.238 . S
O525 Cd486 2.273 . S
O525 C513 1.253 . S
O526 Cd486 2.417 . S
O526 C514 1.239 . S
O527 Cd486 2.330 . S
O527 C514 1.230 . S
O528 Cd487 2.417 . S
O528 C521 1.239 . S
O529 Cd487 2.330 . S
O529 C521 1.230 . S
H530 C516 0.929 . S
H531 C520 0.930 . S
H532 C490 0.931 1_565 S
H533 C492 0.930 . S
H534 C498 0.929 . S
H535 C500 0.931 . S
H536 C507 0.931 . S
H537 C509 0.930 . S
H538 C517 0.929 . S
H539 C519 0.931 . S
Cd540 N543 2.334 . S
Cd540 N569 2.304 . S
Cd540 O576 2.268 . S
Cd540 O579 2.273 . S
Cd540 O580 2.417 . S
Cd540 O581 2.330 . S
Cd541 N556 2.304 . S
Cd541 N560 2.334 . S
Cd541 O577 2.273 . S
Cd541 O578 2.268 . S
Cd541 O582 2.417 . S
Cd541 O583 2.330 . S
C542 N543 1.332 . S
C542 C546 1.381 . S
C542 H548 0.931 . S
N543 Cd540 2.334 . S
N543 C542 1.332 . S
N543 C547 1.328 . S
C544 C545 1.396 . S
C544 C547 1.378 . S
C544 H586 0.931 1_565 S
C545 C544 1.396 . S
C545 C546 1.382 . S
C546 C542 1.381 . S
C546 C545 1.382 . S
C546 H587 0.930 . S
C547 N543 1.328 . S
C547 C544 1.378 . S
C547 H549 0.930 . S
H548 C542 0.931 . S
H549 C547 0.930 . S
C550 O576 1.238 . S
C550 O577 1.253 . S
C551 C552 1.379 . S
C551 N556 1.337 . S
C551 H557 0.929 . S
C552 C551 1.379 . S
C552 C553 1.380 . S
C552 H588 0.929 . S
C553 C552 1.380 . S
C553 C554 1.399 . S
C554 C553 1.399 . S
C554 C555 1.376 . S
C554 H589 0.931 . S
C555 C554 1.376 . S
C555 N556 1.338 . S
C555 H558 0.930 . S
N556 Cd541 2.304 . S
N556 C551 1.337 . S
N556 C555 1.338 . S
H557 C551 0.929 . S
H558 C555 0.930 . S
C559 N560 1.332 1_545 S
C559 C563 1.381 . S
C559 H565 0.931 . S
N560 Cd541 2.334 . S
N560 C559 1.332 1_565 S
N560 C564 1.328 . S
C561 C562 1.396 1_565 S
C561 C564 1.378 . S
C561 H590 0.931 . S
C562 C561 1.396 1_545 S
C562 C563 1.382 . S
C563 C559 1.381 . S
C563 C562 1.382 . S
C563 H591 0.930 . S
C564 N560 1.328 . S
C564 C561 1.378 . S
C564 H566 0.930 . S
H565 C559 0.931 . S
H566 C564 0.930 . S
C567 O578 1.238 . S
C567 O579 1.253 . S
C568 O580 1.239 . S
C568 O581 1.230 . S
N569 Cd540 2.304 . S
N569 C570 1.337 . S
N569 C574 1.338 . S
C570 N569 1.337 . S
C570 C571 1.379 . S
C570 H584 0.929 . S
C571 C570 1.379 . S
C571 C572 1.380 . S
C571 H592 0.929 . S
C572 C571 1.380 . S
C572 C573 1.399 . S
C573 C572 1.399 . S
C573 C574 1.376 . S
C573 H593 0.931 . S
C574 N569 1.338 . S
C574 C573 1.376 . S
C574 H585 0.930 . S
C575 O582 1.239 . S
C575 O583 1.230 . S
O576 Cd540 2.268 . S
O576 C550 1.238 . S
O577 Cd541 2.273 . S
O577 C550 1.253 . S
O578 Cd541 2.268 . S
O578 C567 1.238 . S
O579 Cd540 2.273 . S
O579 C567 1.253 . S
O580 Cd540 2.417 . S
O580 C568 1.239 . S
O581 Cd540 2.330 . S
O581 C568 1.230 . S
O582 Cd541 2.417 . S
O582 C575 1.239 . S
O583 Cd541 2.330 . S
O583 C575 1.230 . S
H584 C570 0.929 . S
H585 C574 0.930 . S
H586 C544 0.931 1_545 S
H587 C546 0.930 . S
H588 C552 0.929 . S
H589 C554 0.931 . S
H590 C561 0.931 . S
H591 C563 0.930 . S
H592 C571 0.929 . S
H593 C573 0.931 . S
Cd594 N597 2.334 . S
Cd594 N623 2.304 . S
Cd594 O630 2.268 . S
Cd594 O633 2.273 . S
Cd594 O634 2.417 . S
Cd594 O635 2.330 . S
Cd595 N610 2.304 . S
Cd595 N614 2.334 . S
Cd595 O631 2.273 . S
Cd595 O632 2.268 . S
Cd595 O636 2.417 . S
Cd595 O637 2.330 . S
C596 N597 1.332 . S
C596 C600 1.381 . S
C596 H602 0.931 . S
N597 Cd594 2.334 . S
N597 C596 1.332 . S
N597 C601 1.328 . S
C598 C599 1.396 . S
C598 C601 1.378 . S
C598 H640 0.931 . S
C599 C598 1.396 . S
C599 C600 1.382 . S
C600 C596 1.381 . S
C600 C599 1.382 . S
C600 H641 0.930 . S
C601 N597 1.328 . S
C601 C598 1.378 . S
C601 H603 0.930 . S
H602 C596 0.931 . S
H603 C601 0.930 . S
C604 O630 1.238 . S
C604 O631 1.253 . S
C605 C606 1.379 . S
C605 N610 1.337 . S
C605 H611 0.929 . S
C606 C605 1.379 . S
C606 C607 1.380 . S
C606 H642 0.929 . S
C607 C606 1.380 . S
C607 C608 1.399 . S
C608 C607 1.399 . S
C608 C609 1.376 . S
C608 H643 0.931 1_565 S
C609 C608 1.376 . S
C609 N610 1.338 . S
C609 H612 0.930 . S
N610 Cd595 2.304 . S
N610 C605 1.337 . S
N610 C609 1.338 . S
H611 C605 0.929 . S
H612 C609 0.930 . S
C613 N614 1.332 . S
C613 C617 1.381 . S
C613 H619 0.931 . S
N614 Cd595 2.334 . S
N614 C613 1.332 . S
N614 C618 1.328 . S
C615 C616 1.396 . S
C615 C618 1.378 . S
C615 H644 0.931 . S
C616 C615 1.396 . S
C616 C617 1.382 . S
C617 C613 1.381 . S
C617 C616 1.382 . S
C617 H645 0.930 . S
C618 N614 1.328 . S
C618 C615 1.378 . S
C618 H620 0.930 . S
H619 C613 0.931 . S
H620 C618 0.930 . S
C621 O632 1.238 . S
C621 O633 1.253 . S
C622 O634 1.239 . S
C622 O635 1.230 . S
N623 Cd594 2.304 . S
N623 C624 1.337 1_565 S
N623 C628 1.338 . S
C624 N623 1.337 1_545 S
C624 C625 1.379 . S
C624 H638 0.929 . S
C625 C624 1.379 . S
C625 C626 1.380 . S
C625 H646 0.929 . S
C626 C625 1.380 . S
C626 C627 1.399 1_545 S
C627 C626 1.399 1_565 S
C627 C628 1.376 . S
C627 H647 0.931 . S
C628 N623 1.338 . S
C628 C627 1.376 . S
C628 H639 0.930 . S
C629 O636 1.239 . S
C629 O637 1.230 . S
O630 Cd594 2.268 . S
O630 C604 1.238 . S
O631 Cd595 2.273 . S
O631 C604 1.253 . S
O632 Cd595 2.268 . S
O632 C621 1.238 . S
O633 Cd594 2.273 . S
O633 C621 1.253 . S
O634 Cd594 2.417 . S
O634 C622 1.239 . S
O635 Cd594 2.330 . S
O635 C622 1.230 . S
O636 Cd595 2.417 . S
O636 C629 1.239 . S
O637 Cd595 2.330 . S
O637 C629 1.230 . S
H638 C624 0.929 . S
H639 C628 0.930 . S
H640 C598 0.931 . S
H641 C600 0.930 . S
H642 C606 0.929 . S
H643 C608 0.931 1_545 S
H644 C615 0.931 . S
H645 C617 0.930 . S
H646 C625 0.929 . S
H647 C627 0.931 . S
Cd648 N651 2.334 . S
Cd648 N677 2.304 . S
Cd648 O684 2.268 . S
Cd648 O687 2.273 . S
Cd648 O688 2.417 . S
Cd648 O689 2.330 . S
Cd649 N664 2.304 . S
Cd649 N668 2.334 . S
Cd649 O685 2.273 . S
Cd649 O686 2.268 . S
Cd649 O690 2.417 . S
Cd649 O691 2.330 . S
C650 N651 1.332 . S
C650 C654 1.381 . S
C650 H656 0.931 . S
N651 Cd648 2.334 . S
N651 C650 1.332 . S
N651 C655 1.328 . S
C652 C653 1.396 . S
C652 C655 1.378 . S
C652 H694 0.931 . S
C653 C652 1.396 . S
C653 C654 1.382 . S
C654 C650 1.381 . S
C654 C653 1.382 . S
C654 H695 0.930 . S
C655 N651 1.328 . S
C655 C652 1.378 . S
C655 H657 0.930 . S
H656 C650 0.931 . S
H657 C655 0.930 . S
C658 O684 1.238 . S
C658 O685 1.253 . S
C659 C660 1.379 . S
C659 N664 1.337 . S
C659 H665 0.929 . S
C660 C659 1.379 . S
C660 C661 1.380 . S
C660 H696 0.929 . S
C661 C660 1.380 . S
C661 C662 1.399 . S
C662 C661 1.399 . S
C662 C663 1.376 . S
C662 H697 0.931 . S
C663 C662 1.376 . S
C663 N664 1.338 . S
C663 H666 0.930 . S
N664 Cd649 2.304 . S
N664 C659 1.337 . S
N664 C663 1.338 . S
H665 C659 0.929 . S
H666 C663 0.930 . S
C667 N668 1.332 . S
C667 C671 1.381 . S
C667 H673 0.931 . S
N668 Cd649 2.334 . S
N668 C667 1.332 . S
N668 C672 1.328 . S
C669 C670 1.396 . S
C669 C672 1.378 . S
C669 H698 0.931 . S
C670 C669 1.396 . S
C670 C671 1.382 . S
C671 C667 1.381 . S
C671 C670 1.382 . S
C671 H699 0.930 . S
C672 N668 1.328 . S
C672 C669 1.378 . S
C672 H674 0.930 . S
H673 C667 0.931 . S
H674 C672 0.930 . S
C675 O686 1.238 . S
C675 O687 1.253 . S
C676 O688 1.239 . S
C676 O689 1.230 . S
N677 Cd648 2.304 . S
N677 C678 1.337 . S
N677 C682 1.338 . S
C678 N677 1.337 . S
C678 C679 1.379 . S
C678 H692 0.929 . S
C679 C678 1.379 . S
C679 C680 1.380 . S
C679 H700 0.929 . S
C680 C679 1.380 . S
C680 C681 1.399 . S
C681 C680 1.399 . S
C681 C682 1.376 . S
C681 H701 0.931 . S
C682 N677 1.338 . S
C682 C681 1.376 . S
C682 H693 0.930 . S
C683 O690 1.239 . S
C683 O691 1.230 . S
O684 Cd648 2.268 . S
O684 C658 1.238 . S
O685 Cd649 2.273 . S
O685 C658 1.253 . S
O686 Cd649 2.268 . S
O686 C675 1.238 . S
O687 Cd648 2.273 . S
O687 C675 1.253 . S
O688 Cd648 2.417 . S
O688 C676 1.239 . S
O689 Cd648 2.330 . S
O689 C676 1.230 . S
O690 Cd649 2.417 . S
O690 C683 1.239 . S
O691 Cd649 2.330 . S
O691 C683 1.230 . S
H692 C678 0.929 . S
H693 C682 0.930 . S
H694 C652 0.931 . S
H695 C654 0.930 . S
H696 C660 0.929 . S
H697 C662 0.931 . S
H698 C669 0.931 . S
H699 C671 0.930 . S
H700 C679 0.929 . S
H701 C681 0.931 . S
Cd702 N705 2.334 . S
Cd702 N731 2.304 . S
Cd702 O738 2.268 . S
Cd702 O741 2.273 . S
Cd702 O742 2.417 . S
Cd702 O743 2.330 . S
Cd703 N718 2.304 . S
Cd703 N722 2.334 . S
Cd703 O739 2.273 . S
Cd703 O740 2.268 . S
Cd703 O744 2.417 . S
Cd703 O745 2.330 . S
C704 N705 1.332 . S
C704 C708 1.381 . S
C704 H710 0.931 . S
N705 Cd702 2.334 . S
N705 C704 1.332 . S
N705 C709 1.328 . S
C706 C707 1.396 . S
C706 C709 1.378 . S
C706 H748 0.931 . S
C707 C706 1.396 . S
C707 C708 1.382 . S
C708 C704 1.381 . S
C708 C707 1.382 . S
C708 H749 0.930 . S
C709 N705 1.328 . S
C709 C706 1.378 . S
C709 H711 0.930 . S
H710 C704 0.931 . S
H711 C709 0.930 . S
C712 O738 1.238 . S
C712 O739 1.253 . S
C713 C714 1.379 . S
C713 N718 1.337 . S
C713 H719 0.929 . S
C714 C713 1.379 . S
C714 C715 1.380 . S
C714 H750 0.929 . S
C715 C714 1.380 . S
C715 C716 1.399 . S
C716 C715 1.399 . S
C716 C717 1.376 . S
C716 H751 0.931 . S
C717 C716 1.376 . S
C717 N718 1.338 . S
C717 H720 0.930 . S
N718 Cd703 2.304 . S
N718 C713 1.337 . S
N718 C717 1.338 . S
H719 C713 0.929 . S
H720 C717 0.930 . S
C721 N722 1.332 . S
C721 C725 1.381 . S
C721 H727 0.931 . S
N722 Cd703 2.334 . S
N722 C721 1.332 . S
N722 C726 1.328 . S
C723 C724 1.396 . S
C723 C726 1.378 . S
C723 H752 0.931 . S
C724 C723 1.396 . S
C724 C725 1.382 . S
C725 C721 1.381 . S
C725 C724 1.382 . S
C725 H753 0.930 . S
C726 N722 1.328 . S
C726 C723 1.378 . S
C726 H728 0.930 . S
H727 C721 0.931 . S
H728 C726 0.930 . S
C729 O740 1.238 . S
C729 O741 1.253 . S
C730 O742 1.239 . S
C730 O743 1.230 . S
N731 Cd702 2.304 . S
N731 C732 1.337 . S
N731 C736 1.338 . S
C732 N731 1.337 . S
C732 C733 1.379 . S
C732 H746 0.929 . S
C733 C732 1.379 . S
C733 C734 1.380 . S
C733 H754 0.929 . S
C734 C733 1.380 . S
C734 C735 1.399 . S
C735 C734 1.399 . S
C735 C736 1.376 . S
C735 H755 0.931 . S
C736 N731 1.338 . S
C736 C735 1.376 . S
C736 H747 0.930 . S
C737 O744 1.239 . S
C737 O745 1.230 . S
O738 Cd702 2.268 . S
O738 C712 1.238 . S
O739 Cd703 2.273 . S
O739 C712 1.253 . S
O740 Cd703 2.268 . S
O740 C729 1.238 . S
O741 Cd702 2.273 . S
O741 C729 1.253 . S
O742 Cd702 2.417 . S
O742 C730 1.239 . S
O743 Cd702 2.330 . S
O743 C730 1.230 . S
O744 Cd703 2.417 . S
O744 C737 1.239 . S
O745 Cd703 2.330 . S
O745 C737 1.230 . S
H746 C732 0.929 . S
H747 C736 0.930 . S
H748 C706 0.931 . S
H749 C708 0.930 . S
H750 C714 0.929 . S
H751 C716 0.931 . S
H752 C723 0.931 . S
H753 C725 0.930 . S
H754 C733 0.929 . S
H755 C735 0.931 . S
Cd756 N759 2.334 . S
Cd756 N785 2.304 . S
Cd756 O792 2.268 . S
Cd756 O795 2.273 . S
Cd756 O796 2.417 . S
Cd756 O797 2.330 . S
Cd757 N772 2.304 . S
Cd757 N776 2.334 . S
Cd757 O793 2.273 . S
Cd757 O794 2.268 . S
Cd757 O798 2.417 . S
Cd757 O799 2.330 . S
C758 N759 1.332 . S
C758 C762 1.381 . S
C758 H764 0.931 . S
N759 Cd756 2.334 . S
N759 C758 1.332 . S
N759 C763 1.328 . S
C760 C761 1.396 . S
C760 C763 1.378 . S
C760 H802 0.931 . S
C761 C760 1.396 . S
C761 C762 1.382 . S
C762 C758 1.381 . S
C762 C761 1.382 . S
C762 H803 0.930 . S
C763 N759 1.328 . S
C763 C760 1.378 . S
C763 H765 0.930 . S
H764 C758 0.931 . S
H765 C763 0.930 . S
C766 O792 1.238 . S
C766 O793 1.253 . S
C767 C768 1.379 . S
C767 N772 1.337 . S
C767 H773 0.929 . S
C768 C767 1.379 . S
C768 C769 1.380 . S
C768 H804 0.929 . S
C769 C768 1.380 . S
C769 C770 1.399 . S
C770 C769 1.399 . S
C770 C771 1.376 . S
C770 H805 0.931 . S
C771 C770 1.376 . S
C771 N772 1.338 . S
C771 H774 0.930 . S
N772 Cd757 2.304 . S
N772 C767 1.337 . S
N772 C771 1.338 . S
H773 C767 0.929 . S
H774 C771 0.930 . S
C775 N776 1.332 . S
C775 C779 1.381 . S
C775 H781 0.931 . S
N776 Cd757 2.334 . S
N776 C775 1.332 . S
N776 C780 1.328 . S
C777 C778 1.396 . S
C777 C780 1.378 . S
C777 H806 0.931 . S
C778 C777 1.396 . S
C778 C779 1.382 . S
C779 C775 1.381 . S
C779 C778 1.382 . S
C779 H807 0.930 . S
C780 N776 1.328 . S
C780 C777 1.378 . S
C780 H782 0.930 . S
H781 C775 0.931 . S
H782 C780 0.930 . S
C783 O794 1.238 . S
C783 O795 1.253 . S
C784 O796 1.239 . S
C784 O797 1.230 . S
N785 Cd756 2.304 . S
N785 C786 1.337 . S
N785 C790 1.338 . S
C786 N785 1.337 . S
C786 C787 1.379 . S
C786 H800 0.929 . S
C787 C786 1.379 . S
C787 C788 1.380 . S
C787 H808 0.929 . S
C788 C787 1.380 . S
C788 C789 1.399 . S
C789 C788 1.399 . S
C789 C790 1.376 . S
C789 H809 0.931 . S
C790 N785 1.338 . S
C790 C789 1.376 . S
C790 H801 0.930 . S
C791 O798 1.239 . S
C791 O799 1.230 . S
O792 Cd756 2.268 . S
O792 C766 1.238 . S
O793 Cd757 2.273 . S
O793 C766 1.253 . S
O794 Cd757 2.268 . S
O794 C783 1.238 . S
O795 Cd756 2.273 . S
O795 C783 1.253 . S
O796 Cd756 2.417 . S
O796 C784 1.239 . S
O797 Cd756 2.330 . S
O797 C784 1.230 . S
O798 Cd757 2.417 . S
O798 C791 1.239 . S
O799 Cd757 2.330 . S
O799 C791 1.230 . S
H800 C786 0.929 . S
H801 C790 0.930 . S
H802 C760 0.931 . S
H803 C762 0.930 . S
H804 C768 0.929 . S
H805 C770 0.931 . S
H806 C777 0.931 . S
H807 C779 0.930 . S
H808 C787 0.929 . S
H809 C789 0.931 . S
Cd810 N813 2.334 . S
Cd810 N839 2.304 . S
Cd810 O846 2.268 . S
Cd810 O849 2.273 . S
Cd810 O850 2.417 . S
Cd810 O851 2.330 . S
Cd811 N826 2.304 . S
Cd811 N830 2.334 . S
Cd811 O847 2.273 . S
Cd811 O848 2.268 . S
Cd811 O852 2.417 . S
Cd811 O853 2.330 . S
C812 N813 1.332 . S
C812 C816 1.381 . S
C812 H818 0.931 . S
N813 Cd810 2.334 . S
N813 C812 1.332 . S
N813 C817 1.328 . S
C814 C815 1.396 . S
C814 C817 1.378 . S
C814 H856 0.931 . S
C815 C814 1.396 . S
C815 C816 1.382 . S
C816 C812 1.381 . S
C816 C815 1.382 . S
C816 H857 0.930 . S
C817 N813 1.328 . S
C817 C814 1.378 . S
C817 H819 0.930 . S
H818 C812 0.931 . S
H819 C817 0.930 . S
C820 O846 1.238 . S
C820 O847 1.253 . S
C821 C822 1.379 . S
C821 N826 1.337 . S
C821 H827 0.929 . S
C822 C821 1.379 . S
C822 C823 1.380 . S
C822 H858 0.929 . S
C823 C822 1.380 . S
C823 C824 1.399 . S
C824 C823 1.399 . S
C824 C825 1.376 . S
C824 H859 0.931 . S
C825 C824 1.376 . S
C825 N826 1.338 . S
C825 H828 0.930 . S
N826 Cd811 2.304 . S
N826 C821 1.337 . S
N826 C825 1.338 . S
H827 C821 0.929 . S
H828 C825 0.930 . S
C829 N830 1.332 . S
C829 C833 1.381 . S
C829 H835 0.931 . S
N830 Cd811 2.334 . S
N830 C829 1.332 . S
N830 C834 1.328 . S
C831 C832 1.396 . S
C831 C834 1.378 . S
C831 H860 0.931 . S
C832 C831 1.396 . S
C832 C833 1.382 . S
C833 C829 1.381 . S
C833 C832 1.382 . S
C833 H861 0.930 . S
C834 N830 1.328 . S
C834 C831 1.378 . S
C834 H836 0.930 . S
H835 C829 0.931 . S
H836 C834 0.930 . S
C837 O848 1.238 . S
C837 O849 1.253 . S
C838 O850 1.239 . S
C838 O851 1.230 . S
N839 Cd810 2.304 . S
N839 C840 1.337 . S
N839 C844 1.338 . S
C840 N839 1.337 . S
C840 C841 1.379 . S
C840 H854 0.929 . S
C841 C840 1.379 . S
C841 C842 1.380 . S
C841 H862 0.929 . S
C842 C841 1.380 . S
C842 C843 1.399 . S
C843 C842 1.399 . S
C843 C844 1.376 . S
C843 H863 0.931 . S
C844 N839 1.338 . S
C844 C843 1.376 . S
C844 H855 0.930 . S
C845 O852 1.239 . S
C845 O853 1.230 . S
O846 Cd810 2.268 . S
O846 C820 1.238 . S
O847 Cd811 2.273 . S
O847 C820 1.253 . S
O848 Cd811 2.268 . S
O848 C837 1.238 . S
O849 Cd810 2.273 . S
O849 C837 1.253 . S
O850 Cd810 2.417 . S
O850 C838 1.239 . S
O851 Cd810 2.330 . S
O851 C838 1.230 . S
O852 Cd811 2.417 . S
O852 C845 1.239 . S
O853 Cd811 2.330 . S
O853 C845 1.230 . S
H854 C840 0.929 . S
H855 C844 0.930 . S
H856 C814 0.931 . S
H857 C816 0.930 . S
H858 C822 0.929 . S
H859 C824 0.931 . S
H860 C831 0.931 . S
H861 C833 0.930 . S
H862 C841 0.929 . S
H863 C843 0.931 . S
C864 C865 1.387 . S
C864 H868 0.950 . S
C864 C873 1.390 . S
C865 C864 1.387 . S
C865 C867 1.387 . S
H866 C873 0.950 . S
C867 C865 1.387 . S
C867 C869 1.390 . S
C867 H871 0.950 . S
H868 C864 0.950 . S
C869 C867 1.390 . S
C869 C870 1.387 . S
C869 H872 0.950 . S
C870 C869 1.387 . S
C870 C873 1.387 . S
H871 C867 0.950 . S
H872 C869 0.950 . S
C873 C864 1.390 . S
C873 H866 0.950 . S
C873 C870 1.387 . S
C874 C875 1.387 . S
C874 H878 0.950 1_655 S
C874 C883 1.390 . S
C875 C874 1.387 . S
C875 C877 1.387 . S
H876 C883 0.950 . S
C877 C875 1.387 . S
C877 C879 1.390 . S
C877 H881 0.950 . S
H878 C874 0.950 1_455 S
C879 C877 1.390 . S
C879 C880 1.387 . S
C879 H882 0.950 . S
C880 C879 1.387 . S
C880 C883 1.387 . S
H881 C877 0.950 . S
H882 C879 0.950 . S
C883 C874 1.390 . S
C883 H876 0.950 . S
C883 C880 1.387 . S
C884 C885 1.387 . S
C884 H888 0.950 . S
C884 C893 1.390 . S
C885 C884 1.387 . S
C885 C887 1.387 . S
H886 C893 0.950 . S
C887 C885 1.387 . S
C887 C889 1.390 . S
C887 H891 0.950 . S
H888 C884 0.950 . S
C889 C887 1.390 . S
C889 C890 1.387 . S
C889 H892 0.950 . S
C890 C889 1.387 . S
C890 C893 1.387 . S
H891 C887 0.950 . S
H892 C889 0.950 . S
C893 C884 1.390 . S
C893 H886 0.950 . S
C893 C890 1.387 . S
C894 C895 1.387 . S
C894 H898 0.948 1_655 S
C894 C903 1.390 . S
C895 C894 1.387 . S
C895 C897 1.387 . S
H896 C903 0.950 . S
C897 C895 1.387 . S
C897 C899 1.390 . S
C897 H901 0.950 . S
H898 C894 0.948 1_455 S
C899 C897 1.390 . S
C899 C900 1.387 . S
C899 H902 0.950 . S
C900 C899 1.387 . S
C900 C903 1.387 . S
H901 C897 0.950 . S
H902 C899 0.950 . S
C903 C894 1.390 . S
C903 H896 0.950 . S
C903 C900 1.387 . S
C904 C905 1.387 . S
C904 H908 0.950 . S
C904 C913 1.390 . S
C905 C904 1.387 . S
C905 C907 1.387 . S
H906 C913 0.950 . S
C907 C905 1.387 . S
C907 C909 1.390 . S
C907 H911 0.950 . S
H908 C904 0.950 . S
C909 C907 1.390 . S
C909 C910 1.387 . S
C909 H912 0.950 . S
C910 C909 1.387 . S
C910 C913 1.387 . S
H911 C907 0.950 . S
H912 C909 0.950 . S
C913 C904 1.390 . S
C913 H906 0.950 . S
C913 C910 1.387 . S
C914 C915 1.387 . S
C914 H918 0.950 . S
C914 C923 1.390 . S
C915 C914 1.387 . S
C915 C917 1.387 . S
H916 C923 0.950 . S
C917 C915 1.387 . S
C917 C919 1.390 . S
C917 H921 0.950 . S
H918 C914 0.950 . S
C919 C917 1.390 . S
C919 C920 1.387 . S
C919 H922 0.950 . S
C920 C919 1.387 . S
C920 C923 1.387 . S
H921 C917 0.950 . S
H922 C919 0.950 . S
C923 C914 1.390 . S
C923 H916 0.950 . S
C923 C920 1.387 . S
C924 C925 1.387 . S
C924 H928 0.950 . S
C924 C933 1.390 . S
C925 C924 1.387 . S
C925 C927 1.387 . S
H926 C933 0.950 . S
C927 C925 1.387 . S
C927 C929 1.390 . S
C927 H931 0.950 . S
H928 C924 0.950 . S
C929 C927 1.390 . S
C929 C930 1.387 . S
C929 H932 0.950 . S
C930 C929 1.387 . S
C930 C933 1.387 . S
H931 C927 0.950 . S
H932 C929 0.950 . S
C933 C924 1.390 . S
C933 H926 0.950 . S
C933 C930 1.387 . S
C934 C935 1.387 . S
C934 H938 0.950 . S
C934 C943 1.390 . S
C935 C934 1.387 . S
C935 C937 1.387 . S
H936 C943 0.950 . S
C937 C935 1.387 . S
C937 C939 1.390 . S
C937 H941 0.950 1_455 S
H938 C934 0.950 . S
C939 C937 1.390 . S
C939 C940 1.387 . S
C939 H942 0.950 . S
C940 C939 1.387 . S
C940 C943 1.387 . S
H941 C937 0.950 1_655 S
H942 C939 0.950 . S
C943 C934 1.390 . S
C943 H936 0.950 . S
C943 C940 1.387 . S
C944 C945 1.387 . S
C944 H948 0.950 . S
C944 C953 1.390 . S
C945 C944 1.387 . S
C945 C947 1.387 . S
H946 C953 0.950 . S
C947 C945 1.387 . S
C947 C949 1.390 . S
C947 H951 0.950 . S
H948 C944 0.950 . S
C949 C947 1.390 . S
C949 C950 1.387 . S
C949 H952 0.950 . S
C950 C949 1.387 . S
C950 C953 1.387 . S
H951 C947 0.950 . S
H952 C949 0.950 . S
C953 C944 1.390 . S
C953 H946 0.950 . S
C953 C950 1.387 . S
C954 C955 1.387 . S
C954 H958 0.950 . S
C954 C963 1.390 . S
C955 C954 1.387 . S
C955 C957 1.387 . S
H956 C963 0.950 . S
C957 C955 1.387 . S
C957 C959 1.390 . S
C957 H961 0.950 . S
H958 C954 0.950 . S
C959 C957 1.390 . S
C959 C960 1.387 . S
C959 H962 0.950 . S
C960 C959 1.387 . S
C960 C963 1.387 . S
H961 C957 0.950 . S
H962 C959 0.950 . S
C963 C954 1.390 . S
C963 H956 0.950 . S
C963 C960 1.387 . S
C964 C965 1.387 . S
C964 H968 0.950 . S
C964 C973 1.390 . S
C965 C964 1.387 . S
C965 C967 1.387 . S
H966 C973 0.950 . S
C967 C965 1.387 . S
C967 C969 1.390 . S
C967 H971 0.950 . S
H968 C964 0.950 . S
C969 C967 1.390 . S
C969 C970 1.387 . S
C969 H972 0.950 . S
C970 C969 1.387 . S
C970 C973 1.387 . S
H971 C967 0.950 . S
H972 C969 0.950 . S
C973 C964 1.390 . S
C973 H966 0.950 . S
C973 C970 1.387 . S
C974 C975 1.387 . S
C974 H978 0.950 . S
C974 C983 1.390 . S
C975 C974 1.387 . S
C975 C977 1.387 . S
H976 C983 0.950 . S
C977 C975 1.387 . S
C977 C979 1.390 . S
C977 H981 0.950 . S
H978 C974 0.950 . S
C979 C977 1.390 . S
C979 C980 1.387 . S
C979 H982 0.950 . S
C980 C979 1.387 . S
C980 C983 1.387 . S
H981 C977 0.950 . S
H982 C979 0.950 . S
C983 C974 1.390 . S
C983 H976 0.950 . S
C983 C980 1.387 . S
C984 C985 1.387 . S
C984 H988 0.950 . S
C984 C993 1.390 . S
C985 C984 1.387 . S
C985 C987 1.387 . S
H986 C993 0.950 . S
C987 C985 1.387 . S
C987 C989 1.390 . S
C987 H991 0.950 . S
H988 C984 0.950 . S
C989 C987 1.390 . S
C989 C990 1.387 . S
C989 H992 0.950 . S
C990 C989 1.387 . S
C990 C993 1.387 . S
H991 C987 0.950 . S
H992 C989 0.950 . S
C993 C984 1.390 . S
C993 H986 0.950 . S
C993 C990 1.387 . S
C994 C995 1.387 . S
C994 H998 0.950 . S
C994 C1003 1.390 . S
C995 C994 1.387 . S
C995 C997 1.387 . S
H996 C1003 0.950 . S
C997 C995 1.387 . S
C997 C999 1.390 . S
C997 H1001 0.950 . S
H998 C994 0.950 . S
C999 C997 1.390 . S
C999 C1000 1.387 . S
C999 H1002 0.950 . S
C1000 C999 1.387 . S
C1000 C1003 1.387 . S
H1001 C997 0.950 . S
H1002 C999 0.950 . S
C1003 C994 1.390 . S
C1003 H996 0.950 . S
C1003 C1000 1.387 . S
C1004 C1005 1.387 . S
C1004 H1008 0.950 . S
C1004 C1013 1.390 . S
C1005 C1004 1.387 . S
C1005 C1007 1.387 . S
H1006 C1013 0.950 . S
C1007 C1005 1.387 . S
C1007 C1009 1.390 . S
C1007 H1011 0.950 . S
H1008 C1004 0.950 . S
C1009 C1007 1.390 . S
C1009 C1010 1.387 . S
C1009 H1012 0.950 . S
C1010 C1009 1.387 . S
C1010 C1013 1.387 . S
H1011 C1007 0.950 . S
H1012 C1009 0.950 . S
C1013 C1004 1.390 . S
C1013 H1006 0.950 . S
C1013 C1010 1.387 . S
C1014 C1015 1.387 . S
C1014 H1018 0.950 . S
C1014 C1023 1.390 . S
C1015 C1014 1.387 . S
C1015 C1017 1.387 . S
H1016 C1023 0.950 . S
C1017 C1015 1.387 . S
C1017 C1019 1.390 . S
C1017 H1021 0.950 . S
H1018 C1014 0.950 . S
C1019 C1017 1.390 . S
C1019 C1020 1.387 . S
C1019 H1022 0.950 . S
C1020 C1019 1.387 . S
C1020 C1023 1.387 . S
H1021 C1017 0.950 . S
H1022 C1019 0.950 . S
C1023 C1014 1.390 . S
C1023 H1016 0.950 . S
C1023 C1020 1.387 . S
C1024 C1025 1.387 . S
C1024 H1028 0.950 . S
C1024 C1033 1.390 . S
C1025 C1024 1.387 . S
C1025 C1027 1.387 . S
H1026 C1033 0.950 . S
C1027 C1025 1.387 . S
C1027 C1029 1.390 . S
C1027 H1031 0.950 . S
H1028 C1024 0.950 . S
C1029 C1027 1.390 . S
C1029 C1030 1.387 . S
C1029 H1032 0.950 . S
C1030 C1029 1.387 . S
C1030 C1033 1.387 . S
H1031 C1027 0.950 . S
H1032 C1029 0.950 . S
C1033 C1024 1.390 . S
C1033 H1026 0.950 . S
C1033 C1030 1.387 . S
C1034 C1035 1.387 . S
C1034 H1038 0.950 . S
C1034 C1043 1.390 . S
C1035 C1034 1.387 . S
C1035 C1037 1.387 . S
H1036 C1043 0.950 . S
C1037 C1035 1.387 . S
C1037 C1039 1.390 . S
C1037 H1041 0.950 1_655 S
H1038 C1034 0.950 . S
C1039 C1037 1.390 . S
C1039 C1040 1.387 . S
C1039 H1042 0.950 . S
C1040 C1039 1.387 . S
C1040 C1043 1.387 . S
H1041 C1037 0.950 1_455 S
H1042 C1039 0.950 . S
C1043 C1034 1.390 . S
C1043 H1036 0.950 . S
C1043 C1040 1.387 . S
C1044 C1045 1.387 . S
C1044 H1048 0.950 . S
C1044 C1053 1.390 . S
C1045 C1044 1.387 . S
C1045 C1047 1.387 . S
H1046 C1053 0.950 . S
C1047 C1045 1.387 . S
C1047 C1049 1.390 . S
C1047 H1051 0.950 . S
H1048 C1044 0.950 . S
C1049 C1047 1.390 . S
C1049 C1050 1.387 . S
C1049 H1052 0.950 . S
C1050 C1049 1.387 . S
C1050 C1053 1.387 . S
H1051 C1047 0.950 . S
H1052 C1049 0.950 . S
C1053 C1044 1.390 . S
C1053 H1046 0.950 . S
C1053 C1050 1.387 . S
C1054 C1055 1.387 . S
C1054 H1058 0.950 . S
C1054 C1063 1.390 . S
C1055 C1054 1.387 . S
C1055 C1057 1.387 . S
H1056 C1063 0.950 . S
C1057 C1055 1.387 . S
C1057 C1059 1.390 . S
C1057 H1061 0.950 . S
H1058 C1054 0.950 . S
C1059 C1057 1.390 . S
C1059 C1060 1.387 . S
C1059 H1062 0.950 . S
C1060 C1059 1.387 . S
C1060 C1063 1.387 . S
H1061 C1057 0.950 . S
H1062 C1059 0.950 . S
C1063 C1054 1.390 . S
C1063 H1056 0.950 . S
C1063 C1060 1.387 . S
C1064 C1065 1.387 . S
C1064 H1068 0.950 . S
C1064 C1073 1.390 . S
C1065 C1064 1.387 . S
C1065 C1067 1.387 . S
H1066 C1073 0.950 . S
C1067 C1065 1.387 . S
C1067 C1069 1.390 . S
C1067 H1071 0.950 . S
H1068 C1064 0.950 . S
C1069 C1067 1.390 . S
C1069 C1070 1.387 . S
C1069 H1072 0.950 . S
C1070 C1069 1.387 . S
C1070 C1073 1.387 . S
H1071 C1067 0.950 . S
H1072 C1069 0.950 . S
C1073 C1064 1.390 . S
C1073 H1066 0.950 . S
C1073 C1070 1.387 . S
C1074 C1075 1.387 . S
C1074 H1078 0.950 . S
C1074 C1083 1.390 . S
C1075 C1074 1.387 . S
C1075 C1077 1.387 . S
H1076 C1083 0.950 . S
C1077 C1075 1.387 . S
C1077 C1079 1.390 . S
C1077 H1081 0.950 . S
H1078 C1074 0.950 . S
C1079 C1077 1.390 . S
C1079 C1080 1.387 . S
C1079 H1082 0.950 . S
C1080 C1079 1.387 . S
C1080 C1083 1.387 . S
H1081 C1077 0.950 . S
H1082 C1079 0.950 . S
C1083 C1074 1.390 . S
C1083 H1076 0.950 . S
C1083 C1080 1.387 . S
C1084 C1085 1.387 . S
C1084 H1088 0.950 . S
C1084 C1093 1.390 . S
C1085 C1084 1.387 . S
C1085 C1087 1.387 . S
H1086 C1093 0.950 . S
C1087 C1085 1.387 . S
C1087 C1089 1.390 . S
C1087 H1091 0.950 . S
H1088 C1084 0.950 . S
C1089 C1087 1.390 . S
C1089 C1090 1.387 . S
C1089 H1092 0.950 . S
C1090 C1089 1.387 . S
C1090 C1093 1.387 . S
H1091 C1087 0.950 . S
H1092 C1089 0.950 . S
C1093 C1084 1.390 . S
C1093 H1086 0.950 . S
C1093 C1090 1.387 . S
C1094 C1095 1.387 . S
C1094 H1098 0.950 . S
C1094 C1103 1.390 . S
C1095 C1094 1.387 . S
C1095 C1097 1.387 . S
H1096 C1103 0.950 . S
C1097 C1095 1.387 . S
C1097 C1099 1.390 . S
C1097 H1101 0.950 . S
H1098 C1094 0.950 . S
C1099 C1097 1.390 . S
C1099 C1100 1.387 . S
C1099 H1102 0.949 . S
C1100 C1099 1.387 . S
C1100 C1103 1.387 . S
H1101 C1097 0.950 . S
H1102 C1099 0.949 . S
C1103 C1094 1.390 . S
C1103 H1096 0.950 . S
C1103 C1100 1.387 . S
C1104 C1105 1.387 . S
C1104 H1108 0.950 . S
C1104 C1113 1.390 . S
C1105 C1104 1.387 . S
C1105 C1107 1.387 . S
H1106 C1113 0.950 . S
C1107 C1105 1.387 . S
C1107 C1109 1.390 . S
C1107 H1111 0.950 . S
H1108 C1104 0.950 . S
C1109 C1107 1.390 . S
C1109 C1110 1.387 . S
C1109 H1112 0.950 . S
C1110 C1109 1.387 . S
C1110 C1113 1.387 . S
H1111 C1107 0.950 . S
H1112 C1109 0.950 . S
C1113 C1104 1.390 . S
C1113 H1106 0.950 . S
C1113 C1110 1.387 . S
C1114 C1115 1.387 . S
C1114 H1118 0.950 . S
C1114 C1123 1.390 . S
C1115 C1114 1.387 . S
C1115 C1117 1.387 . S
H1116 C1123 0.950 . S
C1117 C1115 1.387 . S
C1117 C1119 1.390 . S
C1117 H1121 0.950 . S
H1118 C1114 0.950 . S
C1119 C1117 1.390 . S
C1119 C1120 1.387 . S
C1119 H1122 0.950 . S
C1120 C1119 1.387 . S
C1120 C1123 1.387 . S
H1121 C1117 0.950 . S
H1122 C1119 0.950 . S
C1123 C1114 1.390 . S
C1123 H1116 0.950 . S
C1123 C1120 1.387 . S
C1124 C1125 1.387 . S
C1124 H1128 0.950 . S
C1124 C1133 1.390 . S
C1125 C1124 1.387 . S
C1125 C1127 1.387 . S
H1126 C1133 0.950 . S
C1127 C1125 1.387 . S
C1127 C1129 1.390 . S
C1127 H1131 0.950 . S
H1128 C1124 0.950 . S
C1129 C1127 1.390 . S
C1129 C1130 1.387 . S
C1129 H1132 0.950 . S
C1130 C1129 1.387 . S
C1130 C1133 1.387 . S
H1131 C1127 0.950 . S
H1132 C1129 0.950 . S
C1133 C1124 1.390 . S
C1133 H1126 0.950 . S
C1133 C1130 1.387 . S
C1134 C1135 1.387 . S
C1134 H1138 0.950 . S
C1134 C1143 1.390 . S
C1135 C1134 1.387 . S
C1135 C1137 1.387 . S
H1136 C1143 0.950 . S
C1137 C1135 1.387 . S
C1137 C1139 1.390 . S
C1137 H1141 0.950 1_655 S
H1138 C1134 0.950 . S
C1139 C1137 1.390 . S
C1139 C1140 1.387 . S
C1139 H1142 0.950 . S
C1140 C1139 1.387 . S
C1140 C1143 1.387 . S
H1141 C1137 0.950 1_455 S
H1142 C1139 0.950 . S
C1143 C1134 1.390 . S
C1143 H1136 0.950 . S
C1143 C1140 1.387 . S
C1144 C1145 1.387 . S
C1144 H1148 0.950 . S
C1144 C1153 1.390 . S
C1145 C1144 1.387 . S
C1145 C1147 1.387 . S
H1146 C1153 0.950 . S
C1147 C1145 1.387 . S
C1147 C1149 1.390 . S
C1147 H1151 0.950 . S
H1148 C1144 0.950 . S
C1149 C1147 1.390 . S
C1149 C1150 1.387 . S
C1149 H1152 0.950 . S
C1150 C1149 1.387 . S
C1150 C1153 1.387 . S
H1151 C1147 0.950 . S
H1152 C1149 0.950 . S
C1153 C1144 1.390 . S
C1153 H1146 0.950 . S
C1153 C1150 1.387 . S
C1154 C1155 1.387 . S
C1154 H1158 0.950 . S
C1154 C1163 1.390 . S
C1155 C1154 1.387 . S
C1155 C1157 1.387 . S
H1156 C1163 0.950 . S
C1157 C1155 1.387 . S
C1157 C1159 1.390 . S
C1157 H1161 0.950 . S
H1158 C1154 0.950 . S
C1159 C1157 1.390 . S
C1159 C1160 1.387 . S
C1159 H1162 0.950 . S
C1160 C1159 1.387 . S
C1160 C1163 1.387 . S
H1161 C1157 0.950 . S
H1162 C1159 0.950 . S
C1163 C1154 1.390 . S
C1163 H1156 0.950 . S
C1163 C1160 1.387 . S
C1164 C1165 1.387 . S
C1164 H1168 0.950 . S
C1164 C1173 1.390 . S
C1165 C1164 1.387 . S
C1165 C1167 1.387 . S
H1166 C1173 0.950 . S
C1167 C1165 1.387 . S
C1167 C1169 1.390 . S
C1167 H1171 0.950 . S
H1168 C1164 0.950 . S
C1169 C1167 1.390 . S
C1169 C1170 1.387 . S
C1169 H1172 0.950 . S
C1170 C1169 1.387 . S
C1170 C1173 1.387 . S
H1171 C1167 0.950 . S
H1172 C1169 0.950 . S
C1173 C1164 1.390 . S
C1173 H1166 0.950 . S
C1173 C1170 1.387 . S
C1174 C1175 1.387 . S
C1174 H1178 0.950 . S
C1174 C1183 1.390 . S
C1175 C1174 1.387 . S
C1175 C1177 1.387 . S
H1176 C1183 0.950 . S
C1177 C1175 1.387 . S
C1177 C1179 1.390 . S
C1177 H1181 0.950 . S
H1178 C1174 0.950 . S
C1179 C1177 1.390 . S
C1179 C1180 1.387 . S
C1179 H1182 0.950 . S
C1180 C1179 1.387 . S
C1180 C1183 1.387 . S
H1181 C1177 0.950 . S
H1182 C1179 0.950 . S
C1183 C1174 1.390 . S
C1183 H1176 0.950 . S
C1183 C1180 1.387 . S
C1184 C1185 1.387 . S
C1184 H1188 0.950 . S
C1184 C1193 1.390 . S
C1185 C1184 1.387 . S
C1185 C1187 1.387 . S
H1186 C1193 0.950 . S
C1187 C1185 1.387 . S
C1187 C1189 1.390 . S
C1187 H1191 0.950 . S
H1188 C1184 0.950 . S
C1189 C1187 1.390 . S
C1189 C1190 1.387 . S
C1189 H1192 0.950 . S
C1190 C1189 1.387 . S
C1190 C1193 1.387 . S
H1191 C1187 0.950 . S
H1192 C1189 0.950 . S
C1193 C1184 1.390 . S
C1193 H1186 0.950 . S
C1193 C1190 1.387 . S
C1194 C1195 1.387 . S
C1194 H1198 0.950 . S
C1194 C1203 1.390 . S
C1195 C1194 1.387 . S
C1195 C1197 1.387 1_545 S
H1196 C1203 0.950 1_455 S
C1197 C1195 1.387 1_565 S
C1197 C1199 1.390 . S
C1197 H1201 0.950 . S
H1198 C1194 0.950 . S
C1199 C1197 1.390 . S
C1199 C1200 1.387 1_665 S
C1199 H1202 0.950 1_655 S
C1200 C1199 1.387 1_445 S
C1200 C1203 1.387 1_455 S
H1201 C1197 0.950 . S
H1202 C1199 0.950 1_455 S
C1203 C1194 1.390 . S
C1203 H1196 0.950 1_655 S
C1203 C1200 1.387 1_655 S
C1204 C1205 1.387 . S
C1204 H1208 0.950 . S
C1204 C1213 1.390 . S
C1205 C1204 1.387 . S
C1205 C1207 1.387 1_545 S
H1206 C1213 0.950 . S
C1207 C1205 1.387 1_565 S
C1207 C1209 1.390 . S
C1207 H1211 0.950 . S
H1208 C1204 0.950 . S
C1209 C1207 1.390 . S
C1209 C1210 1.387 1_565 S
C1209 H1212 0.950 . S
C1210 C1209 1.387 1_545 S
C1210 C1213 1.387 . S
H1211 C1207 0.950 . S
H1212 C1209 0.950 . S
C1213 C1204 1.390 . S
C1213 H1206 0.950 . S
C1213 C1210 1.387 . S
C1214 C1215 1.387 . S
C1214 H1218 0.950 . S
C1214 C1223 1.390 . S
C1215 C1214 1.387 . S
C1215 C1217 1.387 . S
H1216 C1223 0.950 1_455 S
C1217 C1215 1.387 . S
C1217 C1219 1.390 . S
C1217 H1221 0.950 . S
H1218 C1214 0.950 . S
C1219 C1217 1.390 . S
C1219 C1220 1.387 1_655 S
C1219 H1222 0.950 1_655 S
C1220 C1219 1.387 1_455 S
C1220 C1223 1.387 1_455 S
H1221 C1217 0.950 . S
H1222 C1219 0.950 1_455 S
C1223 C1214 1.390 . S
C1223 H1216 0.950 1_655 S
C1223 C1220 1.387 1_655 S
C1224 C1225 1.387 . S
C1224 H1228 0.950 . S
C1224 C1233 1.390 . S
C1225 C1224 1.387 . S
C1225 C1227 1.387 . S
H1226 C1233 0.950 . S
C1227 C1225 1.387 . S
C1227 C1229 1.390 . S
C1227 H1231 0.950 . S
H1228 C1224 0.950 . S
C1229 C1227 1.390 . S
C1229 C1230 1.387 . S
C1229 H1232 0.950 . S
C1230 C1229 1.387 . S
C1230 C1233 1.387 . S
H1231 C1227 0.950 . S
H1232 C1229 0.950 . S
C1233 C1224 1.390 . S
C1233 H1226 0.950 . S
C1233 C1230 1.387 . S
C1234 C1235 1.387 1_455 S
C1234 H1238 0.950 1_455 S
C1234 C1243 1.390 . S
C1235 C1234 1.387 1_655 S
C1235 C1237 1.387 1_665 S
H1236 C1243 0.950 . S
C1237 C1235 1.387 1_445 S
C1237 C1239 1.390 . S
C1237 H1241 0.950 1_455 S
H1238 C1234 0.950 1_655 S
C1239 C1237 1.390 . S
C1239 C1240 1.387 1_545 S
C1239 H1242 0.950 . S
C1240 C1239 1.387 1_565 S
C1240 C1243 1.387 . S
H1241 C1237 0.950 1_655 S
H1242 C1239 0.950 . S
C1243 C1234 1.390 . S
C1243 H1236 0.950 . S
C1243 C1240 1.387 . S
C1244 C1245 1.387 . S
C1244 H1248 0.950 . S
C1244 C1253 1.390 . S
C1245 C1244 1.387 . S
C1245 C1247 1.387 1_565 S
H1246 C1253 0.950 . S
C1247 C1245 1.387 1_545 S
C1247 C1249 1.390 . S
C1247 H1251 0.950 . S
H1248 C1244 0.950 . S
C1249 C1247 1.390 . S
C1249 C1250 1.387 1_545 S
C1249 H1252 0.950 . S
C1250 C1249 1.387 1_565 S
C1250 C1253 1.387 . S
H1251 C1247 0.950 . S
H1252 C1249 0.950 . S
C1253 C1244 1.390 . S
C1253 H1246 0.950 . S
C1253 C1250 1.387 . S
C1254 C1255 1.387 1_455 S
C1254 H1258 0.950 1_455 S
C1254 C1263 1.390 . S
C1255 C1254 1.387 1_655 S
C1255 C1257 1.387 1_655 S
H1256 C1263 0.950 . S
C1257 C1255 1.387 1_455 S
C1257 C1259 1.390 . S
C1257 H1261 0.950 1_455 S
H1258 C1254 0.950 1_655 S
C1259 C1257 1.390 . S
C1259 C1260 1.387 . S
C1259 H1262 0.950 . S
C1260 C1259 1.387 . S
C1260 C1263 1.387 . S
H1261 C1257 0.950 1_655 S
H1262 C1259 0.950 . S
C1263 C1254 1.390 . S
C1263 H1256 0.950 . S
C1263 C1260 1.387 . S
C1264 C1265 1.387 . S
C1264 H1268 0.950 . S
C1264 C1273 1.390 . S
C1265 C1264 1.387 . S
C1265 C1267 1.387 . S
H1266 C1273 0.950 . S
C1267 C1265 1.387 . S
C1267 C1269 1.390 . S
C1267 H1271 0.950 . S
H1268 C1264 0.950 . S
C1269 C1267 1.390 . S
C1269 C1270 1.387 . S
C1269 H1272 0.950 . S
C1270 C1269 1.387 . S
C1270 C1273 1.387 . S
H1271 C1267 0.950 . S
H1272 C1269 0.950 . S
C1273 C1264 1.390 . S
C1273 H1266 0.950 . S
C1273 C1270 1.387 . S
C1274 C1275 1.387 1_655 S
C1274 H1278 0.950 1_655 S
C1274 C1283 1.390 . S
C1275 C1274 1.387 1_455 S
C1275 C1277 1.387 1_455 S
H1276 C1283 0.950 . S
C1277 C1275 1.387 1_655 S
C1277 C1279 1.390 . S
C1277 H1281 0.952 . S
H1278 C1274 0.950 1_455 S
C1279 C1277 1.390 . S
C1279 C1280 1.387 . S
C1279 H1282 0.950 . S
C1280 C1279 1.387 . S
C1280 C1283 1.387 . S
H1281 C1277 0.952 . S
H1282 C1279 0.950 . S
C1283 C1274 1.390 . S
C1283 H1276 0.950 . S
C1283 C1280 1.387 . S
C1284 C1285 1.387 . S
C1284 H1288 0.950 . S
C1284 C1293 1.390 . S
C1285 C1284 1.387 . S
C1285 C1287 1.387 . S
H1286 C1293 0.950 . S
C1287 C1285 1.387 . S
C1287 C1289 1.390 . S
C1287 H1291 0.950 . S
H1288 C1284 0.950 . S
C1289 C1287 1.390 . S
C1289 C1290 1.387 . S
C1289 H1292 0.950 . S
C1290 C1289 1.387 . S
C1290 C1293 1.387 . S
H1291 C1287 0.950 . S
H1292 C1289 0.950 . S
C1293 C1284 1.390 . S
C1293 H1286 0.950 . S
C1293 C1290 1.387 . S
C1294 C1295 1.387 . S
C1294 H1298 0.950 . S
C1294 C1303 1.390 . S
C1295 C1294 1.387 . S
C1295 C1297 1.387 . S
H1296 C1303 0.950 1_455 S
C1297 C1295 1.387 . S
C1297 C1299 1.390 . S
C1297 H1301 0.950 . S
H1298 C1294 0.950 . S
C1299 C1297 1.390 . S
C1299 C1300 1.387 1_655 S
C1299 H1302 0.950 1_655 S
C1300 C1299 1.387 1_455 S
C1300 C1303 1.387 1_455 S
H1301 C1297 0.950 . S
H1302 C1299 0.950 1_455 S
C1303 C1294 1.390 . S
C1303 H1296 0.950 1_655 S
C1303 C1300 1.387 1_655 S
C1304 C1305 1.387 . S
C1304 H1308 0.950 . S
C1304 C1313 1.390 . S
C1305 C1304 1.387 . S
C1305 C1307 1.387 . S
H1306 C1313 0.950 . S
C1307 C1305 1.387 . S
C1307 C1309 1.390 . S
C1307 H1311 0.950 . S
H1308 C1304 0.950 . S
C1309 C1307 1.390 . S
C1309 C1310 1.387 . S
C1309 H1312 0.950 . S
C1310 C1309 1.387 . S
C1310 C1313 1.387 . S
H1311 C1307 0.950 . S
H1312 C1309 0.950 . S
C1313 C1304 1.390 . S
C1313 H1306 0.950 . S
C1313 C1310 1.387 . S
C1314 C1315 1.387 . S
C1314 H1318 0.950 . S
C1314 C1323 1.390 . S
C1315 C1314 1.387 . S
C1315 C1317 1.387 . S
H1316 C1323 0.950 1_655 S
C1317 C1315 1.387 . S
C1317 C1319 1.390 . S
C1317 H1321 0.950 . S
H1318 C1314 0.950 . S
C1319 C1317 1.390 . S
C1319 C1320 1.387 1_455 S
C1319 H1322 0.950 1_455 S
C1320 C1319 1.387 1_655 S
C1320 C1323 1.387 1_655 S
H1321 C1317 0.950 . S
H1322 C1319 0.950 1_655 S
C1323 C1314 1.390 . S
C1323 H1316 0.950 1_455 S
C1323 C1320 1.387 1_455 S
C1324 C1325 1.387 . S
C1324 H1328 0.950 . S
C1324 C1333 1.390 . S
C1325 C1324 1.387 . S
C1325 C1327 1.387 . S
H1326 C1333 0.950 . S
C1327 C1325 1.387 . S
C1327 C1329 1.390 . S
C1327 H1331 0.950 . S
H1328 C1324 0.950 . S
C1329 C1327 1.390 . S
C1329 C1330 1.387 . S
C1329 H1332 0.950 . S
C1330 C1329 1.387 . S
C1330 C1333 1.387 . S
H1331 C1327 0.950 . S
H1332 C1329 0.950 . S
C1333 C1324 1.390 . S
C1333 H1326 0.950 . S
C1333 C1330 1.387 . S
C1334 C1335 1.387 . S
C1334 H1338 0.950 . S
C1334 C1343 1.390 . S
C1335 C1334 1.387 . S
C1335 C1337 1.387 . S
H1336 C1343 0.950 . S
C1337 C1335 1.387 . S
C1337 C1339 1.390 . S
C1337 H1341 0.950 . S
H1338 C1334 0.950 . S
C1339 C1337 1.390 . S
C1339 C1340 1.387 1_455 S
C1339 H1342 0.950 1_455 S
C1340 C1339 1.387 1_655 S
C1340 C1343 1.387 1_655 S
H1341 C1337 0.950 . S
H1342 C1339 0.950 1_655 S
C1343 C1334 1.390 . S
C1343 H1336 0.950 . S
C1343 C1340 1.387 1_455 S
C1344 C1345 1.387 . S
C1344 H1348 0.950 . S
C1344 C1353 1.390 . S
C1345 C1344 1.387 . S
C1345 C1347 1.387 . S
H1346 C1353 0.950 . S
C1347 C1345 1.387 . S
C1347 C1349 1.390 . S
C1347 H1351 0.950 . S
H1348 C1344 0.950 . S
C1349 C1347 1.390 . S
C1349 C1350 1.387 . S
C1349 H1352 0.950 . S
C1350 C1349 1.387 . S
C1350 C1353 1.387 . S
H1351 C1347 0.950 . S
H1352 C1349 0.950 . S
C1353 C1344 1.390 . S
C1353 H1346 0.950 . S
C1353 C1350 1.387 . S
C1354 C1355 1.393 1_545 S
C1354 H1358 0.950 . S
C1354 C1363 1.390 . S
C1355 C1354 1.393 1_565 S
C1355 C1357 1.382 1_655 S
H1356 C1363 0.950 . S
C1357 C1355 1.382 1_455 S
C1357 C1359 1.390 . S
C1357 H1361 0.950 . S
H1358 C1354 0.950 . S
C1359 C1357 1.390 . S
C1359 C1360 1.387 1_565 S
C1359 H1362 0.950 . S
C1360 C1359 1.387 1_545 S
C1360 C1363 1.387 1_455 S
H1361 C1357 0.950 . S
H1362 C1359 0.950 . S
C1363 C1354 1.390 . S
C1363 H1356 0.950 . S
C1363 C1360 1.387 1_655 S
C1364 C1365 1.387 . S
C1364 H1368 0.950 . S
C1364 C1373 1.390 . S
C1365 C1364 1.387 . S
C1365 C1367 1.387 1_565 S
H1366 C1373 0.950 . S
C1367 C1365 1.387 1_545 S
C1367 C1369 1.390 . S
C1367 H1371 0.950 . S
H1368 C1364 0.950 . S
C1369 C1367 1.390 . S
C1369 C1370 1.387 . S
C1369 H1372 0.950 . S
C1370 C1369 1.387 . S
C1370 C1373 1.387 1_545 S
H1371 C1367 0.950 . S
H1372 C1369 0.950 . S
C1373 C1364 1.390 . S
C1373 H1366 0.950 . S
C1373 C1370 1.387 1_565 S
C1374 C1375 1.387 . S
C1374 H1378 0.950 . S
C1374 C1383 1.390 . S
C1375 C1374 1.387 . S
C1375 C1377 1.387 1_455 S
H1376 C1383 0.950 . S
C1377 C1375 1.387 1_655 S
C1377 C1379 1.390 . S
C1377 H1381 0.950 . S
H1378 C1374 0.950 . S
C1379 C1377 1.390 . S
C1379 C1380 1.392 . S
C1379 H1382 0.950 . S
C1380 C1379 1.392 . S
C1380 C1383 1.382 1_655 S
H1381 C1377 0.950 . S
H1382 C1379 0.950 . S
C1383 C1374 1.390 . S
C1383 H1376 0.950 . S
C1383 C1380 1.382 1_455 S
C1384 C1385 1.387 . S
C1384 H1388 0.950 . S
C1384 C1393 1.390 . S
C1385 C1384 1.387 . S
C1385 C1387 1.387 . S
H1386 C1393 0.950 . S
C1387 C1385 1.387 . S
C1387 C1389 1.390 . S
C1387 H1391 0.950 . S
H1388 C1384 0.950 . S
C1389 C1387 1.390 . S
C1389 C1390 1.387 . S
C1389 H1392 0.950 . S
C1390 C1389 1.387 . S
C1390 C1393 1.387 . S
H1391 C1387 0.950 . S
H1392 C1389 0.950 . S
C1393 C1384 1.390 . S
C1393 H1386 0.950 . S
C1393 C1390 1.387 . S
C1394 C1395 1.387 . S
C1394 H1398 0.950 . S
C1394 C1403 1.390 . S
C1395 C1394 1.387 . S
C1395 C1397 1.387 1_565 S
H1396 C1403 0.950 . S
C1397 C1395 1.387 1_545 S
C1397 C1399 1.390 . S
C1397 H1401 0.950 . S
H1398 C1394 0.950 . S
C1399 C1397 1.390 . S
C1399 C1400 1.387 . S
C1399 H1402 0.950 . S
C1400 C1399 1.387 . S
C1400 C1403 1.387 1_545 S
H1401 C1397 0.950 . S
H1402 C1399 0.950 . S
C1403 C1394 1.390 . S
C1403 H1396 0.950 . S
C1403 C1400 1.387 1_565 S
C1404 C1405 1.387 . S
C1404 H1408 0.950 . S
C1404 C1413 1.390 . S
C1405 C1404 1.387 . S
C1405 C1407 1.387 1_455 S
H1406 C1413 0.950 . S
C1407 C1405 1.387 1_655 S
C1407 C1409 1.390 . S
C1407 H1411 0.950 . S
H1408 C1404 0.950 . S
C1409 C1407 1.390 . S
C1409 C1410 1.393 . S
C1409 H1412 0.950 . S
C1410 C1409 1.393 . S
C1410 C1413 1.382 1_655 S
H1411 C1407 0.950 . S
H1412 C1409 0.950 . S
C1413 C1404 1.390 . S
C1413 H1406 0.950 . S
C1413 C1410 1.382 1_455 S
C1414 C1415 1.387 . S
C1414 H1418 0.950 . S
C1414 C1423 1.390 1_554 S
C1415 C1414 1.387 . S
C1415 C1417 1.387 . S
H1416 C1423 0.950 . S
C1417 C1415 1.387 . S
C1417 C1419 1.390 1_554 S
C1417 H1421 0.950 . S
H1418 C1414 0.950 . S
C1419 C1417 1.390 1_556 S
C1419 C1420 1.387 . S
C1419 H1422 0.950 . S
C1420 C1419 1.387 . S
C1420 C1423 1.387 . S
H1421 C1417 0.950 . S
H1422 C1419 0.950 . S
C1423 C1414 1.390 1_556 S
C1423 H1416 0.950 . S
C1423 C1420 1.387 . S
C1424 C1425 1.387 . S
C1424 H1428 0.950 . S
C1424 C1433 1.390 1_556 S
C1425 C1424 1.387 . S
C1425 C1427 1.387 1_455 S
H1426 C1433 0.950 . S
C1427 C1425 1.387 1_655 S
C1427 C1429 1.390 1_556 S
C1427 H1431 0.950 . S
H1428 C1424 0.950 . S
C1429 C1427 1.390 1_554 S
C1429 C1430 1.392 . S
C1429 H1432 0.950 . S
C1430 C1429 1.392 . S
C1430 C1433 1.383 1_655 S
H1431 C1427 0.950 . S
H1432 C1429 0.950 . S
C1433 C1424 1.390 1_554 S
C1433 H1426 0.950 . S
C1433 C1430 1.383 1_455 S
C1434 C1435 1.387 . S
C1434 H1438 0.950 . S
C1434 C1443 1.390 . S
C1435 C1434 1.387 . S
C1435 C1437 1.387 . S
H1436 C1443 0.950 . S
C1437 C1435 1.387 . S
C1437 C1439 1.390 . S
C1437 H1441 0.950 . S
H1438 C1434 0.950 . S
C1439 C1437 1.390 . S
C1439 C1440 1.387 . S
C1439 H1442 0.950 . S
C1440 C1439 1.387 . S
C1440 C1443 1.387 . S
H1441 C1437 0.950 . S
H1442 C1439 0.950 . S
C1443 C1434 1.390 . S
C1443 H1436 0.950 . S
C1443 C1440 1.387 . S
C1444 C1445 1.387 . S
C1444 H1448 0.950 . S
C1444 C1453 1.390 1_556 S
C1445 C1444 1.387 . S
C1445 C1447 1.387 . S
H1446 C1453 0.950 . S
C1447 C1445 1.387 . S
C1447 C1449 1.390 1_556 S
C1447 H1451 0.950 . S
H1448 C1444 0.950 . S
C1449 C1447 1.390 1_554 S
C1449 C1450 1.387 . S
C1449 H1452 0.950 . S
C1450 C1449 1.387 . S
C1450 C1453 1.387 . S
H1451 C1447 0.950 . S
H1452 C1449 0.950 . S
C1453 C1444 1.390 1_554 S
C1453 H1446 0.950 . S
C1453 C1450 1.387 . S
C1454 C1455 1.387 . S
C1454 H1458 0.950 . S
C1454 C1463 1.390 . S
C1455 C1454 1.387 . S
C1455 C1457 1.387 . S
H1456 C1463 0.950 . S
C1457 C1455 1.387 . S
C1457 C1459 1.390 . S
C1457 H1461 0.950 . S
H1458 C1454 0.950 . S
C1459 C1457 1.390 . S
C1459 C1460 1.387 . S
C1459 H1462 0.950 . S
C1460 C1459 1.387 . S
C1460 C1463 1.387 . S
H1461 C1457 0.950 . S
H1462 C1459 0.950 . S
C1463 C1454 1.390 . S
C1463 H1456 0.950 . S
C1463 C1460 1.387 . S
C1464 C1465 1.387 1_565 S
C1464 H1468 0.950 . S
C1464 C1473 1.390 1_556 S
C1465 C1464 1.387 1_545 S
C1465 C1467 1.387 . S
H1466 C1473 0.950 . S
C1467 C1465 1.387 . S
C1467 C1469 1.390 1_556 S
C1467 H1471 0.950 . S
H1468 C1464 0.950 . S
C1469 C1467 1.390 1_554 S
C1469 C1470 1.387 1_545 S
C1469 H1472 0.950 . S
C1470 C1469 1.387 1_565 S
C1470 C1473 1.387 . S
H1471 C1467 0.950 . S
H1472 C1469 0.950 . S
C1473 C1464 1.390 1_554 S
C1473 H1466 0.950 . S
C1473 C1470 1.387 . S
C1474 C1475 1.387 . S
C1474 H1478 0.950 . S
C1474 C1483 1.390 . S
C1475 C1474 1.387 . S
C1475 C1477 1.387 . S
H1476 C1483 0.950 . S
C1477 C1475 1.387 . S
C1477 C1479 1.390 . S
C1477 H1481 0.950 . S
H1478 C1474 0.950 . S
C1479 C1477 1.390 . S
C1479 C1480 1.387 . S
C1479 H1482 0.950 . S
C1480 C1479 1.387 . S
C1480 C1483 1.387 . S
H1481 C1477 0.950 . S
H1482 C1479 0.950 . S
C1483 C1474 1.390 . S
C1483 H1476 0.950 . S
C1483 C1480 1.387 . S
C1484 C1485 1.387 . S
C1484 H1488 0.950 . S
C1484 C1493 1.390 . S
C1485 C1484 1.387 . S
C1485 C1487 1.387 . S
H1486 C1493 0.950 . S
C1487 C1485 1.387 . S
C1487 C1489 1.390 . S
C1487 H1491 0.950 . S
H1488 C1484 0.950 . S
C1489 C1487 1.390 . S
C1489 C1490 1.387 . S
C1489 H1492 0.950 . S
C1490 C1489 1.387 . S
C1490 C1493 1.387 . S
H1491 C1487 0.950 . S
H1492 C1489 0.950 . S
C1493 C1484 1.390 . S
C1493 H1486 0.950 . S
C1493 C1490 1.387 . S
C1494 C1495 1.387 . S
C1494 H1498 0.950 . S
C1494 C1503 1.390 . S
C1495 C1494 1.387 . S
C1495 C1497 1.387 . S
H1496 C1503 0.950 . S
C1497 C1495 1.387 . S
C1497 C1499 1.390 . S
C1497 H1501 0.950 . S
H1498 C1494 0.950 . S
C1499 C1497 1.390 . S
C1499 C1500 1.387 . S
C1499 H1502 0.950 . S
C1500 C1499 1.387 . S
C1500 C1503 1.387 . S
H1501 C1497 0.950 . S
H1502 C1499 0.950 . S
C1503 C1494 1.390 . S
C1503 H1496 0.950 . S
C1503 C1500 1.387 . S
C865 C22 0.734 . S
C870 C680 0.733 . S
C875 C32 0.731 . S
C880 C670 0.732 . S
C885 C76 0.736 . S
C890 C734 0.736 . S
C895 C86 0.732 . S
C900 C724 0.732 . S
C905 C778 0.731 . S
C910 C140 0.730 . S
C915 C130 0.736 . S
C920 C788 0.736 . S
C925 C194 0.731 . S
C930 C832 0.732 . S
C935 C184 0.728 . S
C940 C842 0.728 . S
C945 C464 0.732 . S
C950 C238 0.732 . S
C955 C454 0.735 . S
C960 C248 0.734 . S
C965 C518 0.729 . S
C970 C292 0.729 . S
C975 C508 0.731 . S
C980 C302 0.731 . S
C985 C562 0.728 . S
C990 C356 0.728 . S
C995 C346 0.738 . S
C1000 C572 0.737 . S
C1005 C616 0.738 . S
C1010 C410 0.738 . S
C1015 C400 0.737 . S
C1020 C626 0.736 . S
C1025 C27 3.306 1_565 S
C1030 C658 3.306 . S
C1035 C10 3.306 1_655 S
C1040 C675 3.306 . S
C1045 C81 3.306 . S
C1050 C712 3.306 . S
C1055 C729 3.306 . S
C1060 C64 3.306 1_665 S
C1065 C783 3.305 . S
C1070 C118 3.306 1_545 S
C1075 C766 3.305 . S
C1080 C135 3.305 1_455 S
C1085 C837 3.305 . S
C1090 C172 3.306 . S
C1095 C820 3.306 . S
C1100 C189 3.305 1_445 S
C1105 C243 3.306 . S
C1110 C442 3.306 . S
C1115 C226 3.306 1_655 S
C1120 C459 3.306 1_565 S
C1125 C297 3.306 . S
C1130 C496 3.306 1_565 S
C1135 C280 3.306 1_655 S
C1140 C513 3.306 . S
C1145 C567 3.305 . S
C1150 C334 3.306 . S
C1155 C550 3.305 1_545 S
C1160 C351 3.305 1_455 S
C1165 C621 3.305 1_545 S
C1170 C388 3.306 . S
C1175 C405 3.305 1_455 S
C1180 C604 3.306 . S
C1185 C5 2.003 . S
C1190 C514 1.995 . S
C1195 C491 2.003 . S
C1200 C28 1.993 . S
C1205 C460 1.993 . S
C1210 C59 2.003 . S
C1215 C437 2.003 . S
C1220 C82 1.995 . S
C1225 C629 1.996 . S
C1230 C121 2.008 . S
C1235 C143 1.996 . S
C1240 C607 2.008 . S
C1245 C175 2.008 . S
C1250 C575 1.996 . S
C1255 C197 1.994 . S
C1260 C553 2.008 . S
C1265 C730 1.993 . S
C1270 C221 2.003 . S
C1275 C244 1.995 . S
C1280 C707 2.003 . S
C1285 C275 2.003 . S
C1290 C676 1.995 . S
C1295 C653 2.003 . S
C1300 C298 1.995 . S
C1305 C845 1.994 . S
C1310 C337 2.008 . S
C1315 C823 2.008 . S
C1320 C359 1.994 . S
C1325 C791 1.996 . S
C1330 C391 2.008 . S
C1335 C769 2.008 . S
C1340 C413 1.995 . S
C1345 C784 0.907 . S
C1350 C35 0.910 . S
C1355 C113 1.737 . S
C1360 C13 1.732 . S
C1365 C622 0.907 . S
C1370 C89 0.910 . S
C1375 C67 1.734 . S
C1380 C383 1.739 . S
C1385 C683 0.903 . S
C1390 C136 0.900 . S
C1395 C190 0.906 . S
C1400 C521 0.909 . S
C1405 C283 1.733 . S
C1410 C167 1.739 . S
C1415 C568 0.908 . S
C1420 C251 0.910 . S
C1425 C229 1.734 . S
C1430 C329 1.739 . S
C1435 C305 0.903 . S
C1440 C838 0.900 . S
C1445 C467 0.910 . S
C1450 C352 0.908 . S
C1455 C737 0.905 . S
C1460 C406 0.902 . S
C1465 C445 1.735 . S
C1470 C545 1.738 . S
C1475 C499 1.735 . S
C1480 C815 1.738 . S
C1485 C715 1.734 . S
C1490 C599 1.737 . S
C1495 C761 1.737 . S
C1500 C661 1.734 . S
