# Generated by pormake.
# Topology vbe, (5)-cn, num edge types: 1
# Building blocks:
#     Node 0, Type 0, BuildingBlock: XOMCOT_clean_sbu_1, # of connection points: 5
#     Node 1, Type 0, BuildingBlock: XOMCOT_clean_sbu_1, # of connection points: 5
#     Node 2, Type 0, BuildingBlock: XOMCOT_clean_sbu_1, # of connection points: 5
#     Node 3, Type 0, BuildingBlock: XOMCOT_clean_sbu_1, # of connection points: 5
#     Node 4, Type 0, BuildingBlock: XOMCOT_clean_sbu_1, # of connection points: 5
#     Node 5, Type 0, BuildingBlock: XOMCOT_clean_sbu_1, # of connection points: 5
#     Node 6, Type 0, BuildingBlock: XOMCOT_clean_sbu_1, # of connection points: 5
#     Node 7, Type 0, BuildingBlock: XOMCOT_clean_sbu_1, # of connection points: 5
#     Node 8, Type 0, BuildingBlock: XOMCOT_clean_sbu_1, # of connection points: 5
#     Node 9, Type 0, BuildingBlock: XOMCOT_clean_sbu_1, # of connection points: 5
#     Node 10, Type 0, BuildingBlock: XOMCOT_clean_sbu_1, # of connection points: 5
#     Node 11, Type 0, BuildingBlock: XOMCOT_clean_sbu_1, # of connection points: 5
#     Node 12, Type 0, BuildingBlock: XOMCOT_clean_sbu_1, # of connection points: 5
#     Node 13, Type 0, BuildingBlock: XOMCOT_clean_sbu_1, # of connection points: 5
#     Node 14, Type 0, BuildingBlock: XOMCOT_clean_sbu_1, # of connection points: 5
#     Node 15, Type 0, BuildingBlock: XOMCOT_clean_sbu_1, # of connection points: 5
#     Edge 16, Type (0, 0), BuildingBlock: ZUJKAS_clean_linker_0, # of connection points: 2
#     Edge 17, Type (0, 0), BuildingBlock: ZUJKAS_clean_linker_0, # of connection points: 2
#     Edge 18, Type (0, 0), BuildingBlock: ZUJKAS_clean_linker_0, # of connection points: 2
#     Edge 19, Type (0, 0), BuildingBlock: ZUJKAS_clean_linker_0, # of connection points: 2
#     Edge 20, Type (0, 0), BuildingBlock: ZUJKAS_clean_linker_0, # of connection points: 2
#     Edge 21, Type (0, 0), BuildingBlock: ZUJKAS_clean_linker_0, # of connection points: 2
#     Edge 22, Type (0, 0), BuildingBlock: ZUJKAS_clean_linker_0, # of connection points: 2
#     Edge 23, Type (0, 0), BuildingBlock: ZUJKAS_clean_linker_0, # of connection points: 2
#     Edge 24, Type (0, 0), BuildingBlock: ZUJKAS_clean_linker_0, # of connection points: 2
#     Edge 25, Type (0, 0), BuildingBlock: ZUJKAS_clean_linker_0, # of connection points: 2
#     Edge 26, Type (0, 0), BuildingBlock: ZUJKAS_clean_linker_0, # of connection points: 2
#     Edge 27, Type (0, 0), BuildingBlock: ZUJKAS_clean_linker_0, # of connection points: 2
#     Edge 28, Type (0, 0), BuildingBlock: ZUJKAS_clean_linker_0, # of connection points: 2
#     Edge 29, Type (0, 0), BuildingBlock: ZUJKAS_clean_linker_0, # of connection points: 2
#     Edge 30, Type (0, 0), BuildingBlock: ZUJKAS_clean_linker_0, # of connection points: 2
#     Edge 31, Type (0, 0), BuildingBlock: ZUJKAS_clean_linker_0, # of connection points: 2
#     Edge 32, Type (0, 0), BuildingBlock: ZUJKAS_clean_linker_0, # of connection points: 2
#     Edge 33, Type (0, 0), BuildingBlock: ZUJKAS_clean_linker_0, # of connection points: 2
#     Edge 34, Type (0, 0), BuildingBlock: ZUJKAS_clean_linker_0, # of connection points: 2
#     Edge 35, Type (0, 0), BuildingBlock: ZUJKAS_clean_linker_0, # of connection points: 2
#     Edge 36, Type (0, 0), BuildingBlock: ZUJKAS_clean_linker_0, # of connection points: 2
#     Edge 37, Type (0, 0), BuildingBlock: ZUJKAS_clean_linker_0, # of connection points: 2
#     Edge 38, Type (0, 0), BuildingBlock: ZUJKAS_clean_linker_0, # of connection points: 2
#     Edge 39, Type (0, 0), BuildingBlock: ZUJKAS_clean_linker_0, # of connection points: 2
#     Edge 40, Type (0, 0), BuildingBlock: ZUJKAS_clean_linker_0, # of connection points: 2
#     Edge 41, Type (0, 0), BuildingBlock: ZUJKAS_clean_linker_0, # of connection points: 2
#     Edge 42, Type (0, 0), BuildingBlock: ZUJKAS_clean_linker_0, # of connection points: 2
#     Edge 43, Type (0, 0), BuildingBlock: ZUJKAS_clean_linker_0, # of connection points: 2
#     Edge 44, Type (0, 0), BuildingBlock: ZUJKAS_clean_linker_0, # of connection points: 2
#     Edge 45, Type (0, 0), BuildingBlock: ZUJKAS_clean_linker_0, # of connection points: 2
#     Edge 46, Type (0, 0), BuildingBlock: ZUJKAS_clean_linker_0, # of connection points: 2
#     Edge 47, Type (0, 0), BuildingBlock: ZUJKAS_clean_linker_0, # of connection points: 2
#     Edge 48, Type (0, 0), BuildingBlock: ZUJKAS_clean_linker_0, # of connection points: 2
#     Edge 49, Type (0, 0), BuildingBlock: ZUJKAS_clean_linker_0, # of connection points: 2
#     Edge 50, Type (0, 0), BuildingBlock: ZUJKAS_clean_linker_0, # of connection points: 2
#     Edge 51, Type (0, 0), BuildingBlock: ZUJKAS_clean_linker_0, # of connection points: 2
#     Edge 52, Type (0, 0), BuildingBlock: ZUJKAS_clean_linker_0, # of connection points: 2
#     Edge 53, Type (0, 0), BuildingBlock: ZUJKAS_clean_linker_0, # of connection points: 2
#     Edge 54, Type (0, 0), BuildingBlock: ZUJKAS_clean_linker_0, # of connection points: 2
#     Edge 55, Type (0, 0), BuildingBlock: ZUJKAS_clean_linker_0, # of connection points: 2
# Relax obj value: 0.482
# Max RMSD: 0.268
# Mean RMSD: 0.268
data_MOF--net-vbe--node1-XOMCOT_clean_sbu_1--edge1-ZUJKAS_clean_linker_0
_symmetry_space_group_name_H-M    P1
_symmetry_Int_Tables_number       1
_symmetry_cell_setting            triclinic
loop_
_symmetry_equiv_pos_as_xyz
'x, y, z'
_cell_length_a     49.491006
_cell_length_b     53.186603
_cell_length_c     62.232636
_cell_angle_alpha  89.928276
_cell_angle_beta   90.102677
_cell_angle_gamma 89.968031
loop_
_atom_site_label
_atom_site_type_symbol
_atom_site_fract_x
_atom_site_fract_y
_atom_site_fract_z
_atom_type_partial_charge
C0 C 0.12652 0.1111 0.34091 0.0
C1 C 0.12792 0.12673 0.3233 0.0
N2 N 0.11247 0.14713 0.32702 0.0
N3 N 0.11038 0.12149 0.35592 0.0
C4 C 0.10192 0.14337 0.34683 0.0
H5 H 0.13666 0.09322 0.3425 0.0
Co6 Co 0.10118 0.10698 0.38273 0.0
C7 C 0.10764 0.16079 0.39642 0.0
O8 O 0.13153 0.16416 0.38771 0.0
N9 N 0.09202 0.0929 0.40948 0.0
C10 C 0.09066 0.08752 0.4449 0.0
C11 C 0.1017 0.10129 0.42844 0.0
C12 C 0.07535 0.07373 0.41486 0.0
N13 N 0.07392 0.07023 0.43637 0.0
O14 O 0.13841 0.10552 0.39109 0.0
H15 H 0.11588 0.11662 0.43022 0.0
H16 H 0.06396 0.06285 0.40336 0.0
O17 O 0.09604 0.13954 0.39508 0.0
C18 C 0.14621 0.08321 0.38689 0.0
O19 O 0.12932 0.06786 0.37724 0.0
N20 N 0.06529 0.10584 0.37414 0.0
C21 C 0.01333 0.09689 0.35872 0.0
C22 C 0.01997 0.12006 0.36819 0.0
C23 C 0.04606 0.12411 0.37601 0.0
C24 C 0.05933 0.08339 0.36488 0.0
C25 C 0.03335 0.07822 0.35768 0.0
H26 H 0.05068 0.14216 0.38292 0.0
H27 H 0.07489 0.0692 0.36351 0.0
H28 H 0.08788 0.15615 0.35443 0.0
H29 H 0.13976 0.12344 0.30898 0.0
H30 H 0.09475 0.0901 0.46184 0.0
H31 H 0.00554 0.13534 0.3689 0.0
H32 H 0.02925 0.05982 0.35102 0.0
C33 C 0.34271 0.87048 0.34757 0.0
C34 C 0.34248 0.85602 0.3293 0.0
N35 N 0.36548 0.84242 0.32859 0.0
N36 N 0.36563 0.86604 0.35866 0.0
C37 C 0.37918 0.84899 0.34661 0.0
H38 H 0.32697 0.88337 0.35233 0.0
Co39 Co 0.37623 0.88092 0.3848 0.0
C40 C 0.38395 0.82627 0.39619 0.0
O41 O 0.36068 0.81837 0.38858 0.0
N42 N 0.38691 0.89508 0.41089 0.0
C43 C 0.39385 0.89863 0.44598 0.0
C44 C 0.38166 0.88468 0.43021 0.0
C45 C 0.40206 0.91557 0.41531 0.0
N46 N 0.40687 0.91796 0.43659 0.0
O47 O 0.34097 0.8756 0.39674 0.0
H48 H 0.37008 0.86768 0.43265 0.0
H49 H 0.41027 0.92792 0.40314 0.0
O50 O 0.39021 0.8494 0.39498 0.0
C51 C 0.33 0.89715 0.39413 0.0
O52 O 0.34339 0.91455 0.38359 0.0
N53 N 0.40927 0.8892 0.37296 0.0
C54 C 0.45507 0.91274 0.35714 0.0
C55 C 0.45749 0.89159 0.3705 0.0
C56 C 0.43415 0.88015 0.37851 0.0
C57 C 0.40666 0.90923 0.35952 0.0
C58 C 0.42929 0.92134 0.35146 0.0
H59 H 0.4362 0.86475 0.38965 0.0
H60 H 0.38675 0.91632 0.35564 0.0
H61 H 0.39887 0.84175 0.35097 0.0
H62 H 0.32625 0.8554 0.31766 0.0
H63 H 0.39324 0.89475 0.46304 0.0
H64 H 0.47716 0.8844 0.37506 0.0
H65 H 0.42663 0.93723 0.34075 0.0
C66 C 0.64958 0.89044 0.16081 0.0
C67 C 0.65476 0.87369 0.17703 0.0
N68 N 0.64576 0.8509 0.17097 0.0
N69 N 0.63753 0.87844 0.14429 0.0
C70 C 0.63522 0.85427 0.15104 0.0
H71 H 0.65351 0.91041 0.16139 0.0
Co72 Co 0.62531 0.89584 0.11976 0.0
C73 C 0.5781 0.86863 0.10356 0.0
O74 O 0.56731 0.89105 0.10132 0.0
N75 N 0.61386 0.91348 0.09479 0.0
C76 C 0.60699 0.91969 0.05977 0.0
C77 C 0.61696 0.90351 0.07495 0.0
C78 C 0.60165 0.93591 0.09108 0.0
N79 N 0.59727 0.94003 0.06992 0.0
O80 O 0.65638 0.88495 0.10364 0.0
H81 H 0.62535 0.88513 0.07169 0.0
H82 H 0.59544 0.94889 0.10341 0.0
O83 O 0.60231 0.86667 0.11096 0.0
C84 C 0.67399 0.90182 0.10797 0.0
O85 O 0.66824 0.91831 0.12294 0.0
N86 N 0.59791 0.90937 0.1367 0.0
C87 C 0.57396 0.93019 0.17291 0.0
C88 C 0.56707 0.90586 0.16616 0.0
C89 C 0.57973 0.89554 0.14824 0.0
C90 C 0.60386 0.9334 0.14258 0.0
C91 C 0.59173 0.94439 0.16039 0.0
H92 H 0.57692 0.87575 0.14517 0.0
H93 H 0.62012 0.9433 0.13465 0.0
H94 H 0.62573 0.83955 0.14172 0.0
H95 H 0.66356 0.87819 0.1925 0.0
H96 H 0.60584 0.91623 0.04265 0.0
H97 H 0.55368 0.89418 0.17564 0.0
H98 H 0.59826 0.9629 0.16545 0.0
C99 C 0.84938 0.11597 0.15476 0.0
C100 C 0.84592 0.13015 0.17298 0.0
N101 N 0.85678 0.15304 0.16966 0.0
N102 N 0.86227 0.12966 0.13969 0.0
C103 C 0.86618 0.15238 0.14919 0.0
H104 H 0.84425 0.09633 0.15322 0.0
Co105 Co 0.87657 0.11524 0.11422 0.0
C106 C 0.91 0.15365 0.09338 0.0
O107 O 0.92698 0.13536 0.08911 0.0
N108 N 0.89005 0.10032 0.08862 0.0
C109 C 0.89485 0.09483 0.05336 0.0
C110 C 0.88148 0.10789 0.06899 0.0
C111 C 0.90859 0.08218 0.08432 0.0
N112 N 0.91204 0.07875 0.06294 0.0
O113 O 0.84163 0.11718 0.10062 0.0
H114 H 0.86687 0.12264 0.06613 0.0
H115 H 0.92016 0.07237 0.09644 0.0
O116 O 0.88815 0.14891 0.10375 0.0
C117 C 0.83148 0.09543 0.10402 0.0
O118 O 0.8453 0.07929 0.11564 0.0
N119 N 0.90898 0.11018 0.12897 0.0
C120 C 0.92304 0.10315 0.17144 0.0
C121 C 0.92945 0.12579 0.16112 0.0
C122 C 0.9224 0.12893 0.13957 0.0
C123 C 0.90761 0.08668 0.13762 0.0
C124 C 0.91451 0.08272 0.15903 0.0
H125 H 0.92327 0.14774 0.1332 0.0
H126 H 0.89633 0.07216 0.12944 0.0
H127 H 0.8775 0.16749 0.1419 0.0
H128 H 0.83685 0.1237 0.1878 0.0
H129 H 0.8922 0.09712 0.0362 0.0
H130 H 0.93622 0.14198 0.1702 0.0
H131 H 0.90985 0.0648 0.16643 0.0
C132 C 0.8864 0.89809 0.67297 0.0
C133 C 0.88562 0.88315 0.69098 0.0
N134 N 0.87962 0.85942 0.685 0.0
N135 N 0.8808 0.8841 0.6555 0.0
C136 C 0.87664 0.86059 0.66332 0.0
H137 H 0.89106 0.91796 0.67257 0.0
Co138 Co 0.88144 0.89697 0.62724 0.0
C139 C 0.89 0.85073 0.59998 0.0
O140 O 0.87645 0.85884 0.58317 0.0
N141 N 0.8824 0.91019 0.59911 0.0
C142 C 0.87303 0.9339 0.57059 0.0
C143 C 0.86349 0.92496 0.58985 0.0
C144 C 0.90332 0.91053 0.58509 0.0
N145 N 0.89823 0.92502 0.56769 0.0
O146 O 0.84317 0.89101 0.6242 0.0
H147 H 0.84463 0.93038 0.59714 0.0
H148 H 0.92244 0.90126 0.58806 0.0
O149 O 0.89127 0.86405 0.61692 0.0
C150 C 0.83057 0.90809 0.6346 0.0
O151 O 0.84483 0.9237 0.64638 0.0
N152 N 0.91775 0.9051 0.63078 0.0
C153 C 0.96998 0.92206 0.63839 0.0
C154 C 0.96422 0.89622 0.63817 0.0
C155 C 0.93787 0.8881 0.63452 0.0
C156 C 0.92305 0.93023 0.63044 0.0
C157 C 0.94914 0.93914 0.63394 0.0
H158 H 0.93354 0.86829 0.63575 0.0
H159 H 0.90673 0.94343 0.62781 0.0
H160 H 0.87216 0.84457 0.65324 0.0
H161 H 0.88911 0.88949 0.70725 0.0
H162 H 0.86295 0.94742 0.56032 0.0
H163 H 0.97949 0.88244 0.64231 0.0
H164 H 0.95271 0.95922 0.63422 0.0
C165 C 0.6098 0.09805 0.66134 0.0
C166 C 0.61864 0.10809 0.6805 0.0
N167 N 0.61874 0.1333 0.67861 0.0
N168 N 0.60423 0.11688 0.64747 0.0
C169 C 0.6102 0.13811 0.65844 0.0
H170 H 0.60547 0.07843 0.65849 0.0
Co171 Co 0.58323 0.11472 0.62253 0.0
C172 C 0.60357 0.15658 0.59527 0.0
O173 O 0.60635 0.14201 0.57837 0.0
N174 N 0.5614 0.11276 0.59765 0.0
C175 C 0.53307 0.12274 0.57109 0.0
C176 C 0.54678 0.13156 0.58869 0.0
C177 C 0.55578 0.09257 0.5852 0.0
N178 N 0.53871 0.09815 0.56891 0.0
O179 O 0.6122 0.09688 0.60849 0.0
H180 H 0.54602 0.15067 0.59436 0.0
H181 H 0.56336 0.0739 0.58825 0.0
O182 O 0.5971 0.14689 0.61326 0.0
C183 C 0.61036 0.07313 0.6111 0.0
O184 O 0.58916 0.06413 0.6212 0.0
N185 N 0.55502 0.1304 0.63755 0.0
C186 C 0.52816 0.15078 0.67248 0.0
C187 C 0.5363 0.16626 0.65551 0.0
C188 C 0.54988 0.15567 0.63812 0.0
C189 C 0.54388 0.1148 0.65245 0.0
C190 C 0.53059 0.12465 0.67029 0.0
H191 H 0.55813 0.16824 0.62631 0.0
H192 H 0.54806 0.09485 0.65174 0.0
H193 H 0.60568 0.15682 0.65261 0.0
H194 H 0.62306 0.09774 0.69508 0.0
H195 H 0.52003 0.13369 0.56069 0.0
H196 H 0.53463 0.18653 0.65661 0.0
H197 H 0.52419 0.11211 0.68303 0.0
C198 C 0.36003 0.12192 0.85309 0.0
C199 C 0.35879 0.13649 0.83476 0.0
N200 N 0.37337 0.1576 0.83794 0.0
N201 N 0.37523 0.13367 0.86801 0.0
C202 C 0.38299 0.15527 0.85822 0.0
H203 H 0.35047 0.10383 0.85519 0.0
Co204 Co 0.38487 0.12291 0.89613 0.0
C205 C 0.35644 0.17225 0.91531 0.0
O206 O 0.33341 0.16965 0.92551 0.0
N207 N 0.39418 0.11282 0.92367 0.0
C208 C 0.39336 0.10609 0.95881 0.0
C209 C 0.37996 0.11682 0.94179 0.0
C210 C 0.41595 0.09941 0.92995 0.0
N211 N 0.41603 0.09507 0.95137 0.0
O212 O 0.35169 0.10427 0.89886 0.0
H213 H 0.36089 0.12667 0.9426 0.0
H214 H 0.43113 0.09264 0.91889 0.0
O215 O 0.36819 0.15294 0.90757 0.0
C216 C 0.35608 0.08117 0.89451 0.0
O217 O 0.3803 0.07482 0.88776 0.0
N218 N 0.41821 0.13872 0.89334 0.0
C219 C 0.46227 0.16435 0.87712 0.0
C220 C 0.44794 0.17409 0.89464 0.0
C221 C 0.42632 0.16039 0.9031 0.0
C222 C 0.43406 0.12744 0.87836 0.0
C223 C 0.4563 0.13997 0.86997 0.0
H224 H 0.41514 0.16795 0.91643 0.0
H225 H 0.42781 0.10972 0.87142 0.0
H226 H 0.39623 0.16873 0.8657 0.0
H227 H 0.34782 0.1317 0.8203 0.0
H228 H 0.38687 0.10658 0.97539 0.0
H229 H 0.4523 0.19271 0.90066 0.0
H230 H 0.46682 0.13174 0.85644 0.0
C231 C 0.14472 0.88107 0.84815 0.0
C232 C 0.14931 0.86778 0.82952 0.0
N233 N 0.13555 0.84593 0.83051 0.0
N234 N 0.12817 0.86779 0.86103 0.0
C235 C 0.12301 0.84641 0.84985 0.0
H236 H 0.15234 0.89963 0.85178 0.0
Co237 Co 0.11334 0.88008 0.88691 0.0
C238 C 0.10277 0.82579 0.89982 0.0
O239 O 0.12793 0.81896 0.90321 0.0
N240 N 0.09845 0.89179 0.91304 0.0
C241 C 0.0906 0.89246 0.94824 0.0
C242 C 0.10283 0.87969 0.93183 0.0
C243 C 0.08321 0.91197 0.91856 0.0
N244 N 0.07827 0.91281 0.93994 0.0
O245 O 0.14701 0.87356 0.90145 0.0
H246 H 0.11446 0.86259 0.93356 0.0
H247 H 0.07622 0.92607 0.90735 0.0
O248 O 0.09742 0.84801 0.89352 0.0
C249 C 0.15761 0.8955 0.90158 0.0
O250 O 0.14405 0.91428 0.8931 0.0
N251 N 0.08283 0.88962 0.87169 0.0
C252 C 0.06381 0.90493 0.83211 0.0
C253 C 0.05708 0.88103 0.84001 0.0
C254 C 0.06682 0.87364 0.86015 0.0
C255 C 0.08593 0.91401 0.86553 0.0
C256 C 0.07635 0.92217 0.84577 0.0
H257 H 0.06482 0.85415 0.8647 0.0
H258 H 0.09938 0.92619 0.87437 0.0
H259 H 0.10922 0.832 0.85527 0.0
H260 H 0.16171 0.87394 0.81622 0.0
H261 H 0.09055 0.88701 0.96501 0.0
H262 H 0.04739 0.86725 0.82976 0.0
H263 H 0.08161 0.94085 0.84019 0.0
C264 C 0.64946 0.62146 0.34797 0.0
C265 C 0.65933 0.63459 0.33063 0.0
N266 N 0.65116 0.65869 0.3322 0.0
N267 N 0.63516 0.63712 0.36064 0.0
C268 C 0.63736 0.65984 0.3509 0.0
H269 H 0.65034 0.6013 0.34977 0.0
Co270 Co 0.60808 0.62719 0.38008 0.0
C271 C 0.60913 0.66376 0.41493 0.0
O272 O 0.61276 0.64546 0.42885 0.0
N273 N 0.5802 0.61742 0.39913 0.0
C274 C 0.54294 0.61919 0.41912 0.0
C275 C 0.55755 0.63081 0.40328 0.0
C276 C 0.57853 0.59744 0.41259 0.0
N277 N 0.55622 0.59824 0.42504 0.0
O278 O 0.63511 0.61212 0.39841 0.0
H279 H 0.55226 0.64853 0.39596 0.0
H280 H 0.59371 0.58298 0.41394 0.0
O281 O 0.61078 0.65906 0.39489 0.0
C282 C 0.63938 0.58918 0.39352 0.0
O283 O 0.62448 0.57866 0.37854 0.0
N284 N 0.58246 0.64017 0.36089 0.0
C285 C 0.56398 0.65838 0.32178 0.0
C286 C 0.56541 0.6743 0.33969 0.0
C287 C 0.57446 0.66472 0.35929 0.0
C288 C 0.57758 0.6238 0.3446 0.0
C289 C 0.56816 0.63249 0.32486 0.0
H290 H 0.57764 0.67775 0.37227 0.0
H291 H 0.58379 0.60438 0.34624 0.0
H292 H 0.62641 0.67634 0.35607 0.0
H293 H 0.66986 0.6265 0.31707 0.0
H294 H 0.52409 0.62581 0.42585 0.0
H295 H 0.56204 0.69435 0.33823 0.0
H296 H 0.56615 0.6193 0.31171 0.0
C297 C 0.84978 0.38829 0.34043 0.0
C298 C 0.84633 0.3726 0.32314 0.0
N299 N 0.85973 0.35102 0.32698 0.0
N300 N 0.86526 0.37686 0.35539 0.0
C301 C 0.87073 0.35391 0.34682 0.0
H302 H 0.84274 0.40748 0.34136 0.0
Co303 Co 0.87959 0.39464 0.37921 0.0
C304 C 0.92013 0.3624 0.39937 0.0
O305 O 0.93492 0.38282 0.40092 0.0
N306 N 0.89312 0.41298 0.40327 0.0
C307 C 0.89912 0.42278 0.43775 0.0
C308 C 0.88639 0.40693 0.42369 0.0
C309 C 0.91029 0.43274 0.40551 0.0
N310 N 0.91423 0.439 0.42638 0.0
O311 O 0.84649 0.38927 0.39473 0.0
H312 H 0.87361 0.39134 0.42825 0.0
H313 H 0.92021 0.44209 0.39229 0.0
O314 O 0.89667 0.36363 0.39059 0.0
C315 C 0.83289 0.40922 0.39097 0.0
O316 O 0.84352 0.42659 0.37859 0.0
N317 N 0.90956 0.40249 0.36234 0.0
C318 C 0.91806 0.40871 0.31886 0.0
C319 C 0.92833 0.38744 0.32938 0.0
C320 C 0.92404 0.38471 0.35142 0.0
C321 C 0.90422 0.42518 0.35308 0.0
C322 C 0.90828 0.42871 0.33119 0.0
H323 H 0.92787 0.36645 0.35829 0.0
H324 H 0.89202 0.4388 0.36153 0.0
H325 H 0.88417 0.34035 0.35419 0.0
H326 H 0.83548 0.37714 0.30853 0.0
H327 H 0.89816 0.42177 0.45511 0.0
H328 H 0.93612 0.37162 0.32035 0.0
H329 H 0.9006 0.44561 0.32359 0.0
C330 C 0.07908 0.40143 0.1774 0.0
C331 C 0.08038 0.38528 0.19461 0.0
N332 N 0.09133 0.36336 0.18806 0.0
N333 N 0.08911 0.38998 0.15985 0.0
C334 C 0.09648 0.36677 0.16683 0.0
H335 H 0.07072 0.42022 0.17751 0.0
Co336 Co 0.08906 0.40501 0.13239 0.0
C337 C 0.08957 0.36134 0.10161 0.0
O338 O 0.09971 0.37374 0.08524 0.0
N339 N 0.0887 0.42066 0.10487 0.0
C340 C 0.09873 0.44713 0.07828 0.0
C341 C 0.10758 0.43663 0.09717 0.0
C342 C 0.06854 0.42178 0.09006 0.0
N343 N 0.07398 0.43804 0.07391 0.0
O344 O 0.12795 0.40493 0.13202 0.0
H345 H 0.12599 0.4418 0.10527 0.0
H346 H 0.04967 0.41167 0.09155 0.0
O347 O 0.08671 0.37211 0.11971 0.0
C348 C 0.13721 0.42252 0.14391 0.0
O349 O 0.12007 0.4349 0.15604 0.0
N350 N 0.05144 0.4069 0.13355 0.0
C351 C 0.99591 0.41394 0.13733 0.0
C352 C 0.00701 0.38963 0.13703 0.0
C353 C 0.03486 0.3865 0.13523 0.0
C354 C 0.04111 0.43064 0.13378 0.0
C355 C 0.01335 0.43458 0.13513 0.0
H356 H 0.04305 0.36772 0.13615 0.0
H357 H 0.05461 0.4466 0.13289 0.0
H358 H 0.1053 0.35264 0.1565 0.0
H359 H 0.07295 0.38924 0.21059 0.0
H360 H 0.10891 0.46181 0.06937 0.0
H361 H 0.99455 0.37315 0.13948 0.0
H362 H 0.00574 0.45367 0.13526 0.0
C363 C 0.37681 0.61497 0.15325 0.0
C364 C 0.37508 0.62782 0.17237 0.0
N365 N 0.3886 0.64968 0.17036 0.0
N366 N 0.39112 0.62871 0.13907 0.0
C367 C 0.39846 0.64958 0.15011 0.0
H368 H 0.36795 0.59682 0.1499 0.0
Co369 Co 0.39795 0.61985 0.11034 0.0
C370 C 0.37869 0.67401 0.10551 0.0
O371 O 0.35883 0.67334 0.11948 0.0
N372 N 0.4044 0.61122 0.08191 0.0
C373 C 0.40095 0.60812 0.0465 0.0
C374 C 0.39133 0.62011 0.06447 0.0
C375 C 0.42182 0.59391 0.07428 0.0
N376 N 0.42011 0.59161 0.05272 0.0
O377 O 0.36063 0.61035 0.1068 0.0
H378 H 0.37549 0.63413 0.06483 0.0
H379 H 0.43492 0.58274 0.08446 0.0
O380 O 0.39208 0.65414 0.10148 0.0
C381 C 0.35917 0.58638 0.10605 0.0
O382 O 0.38157 0.57326 0.10786 0.0
N383 N 0.43458 0.62733 0.11397 0.0
C384 C 0.48525 0.64445 0.12613 0.0
C385 C 0.47317 0.65332 0.10722 0.0
C386 C 0.44788 0.64418 0.10123 0.0
C387 C 0.4475 0.61611 0.13074 0.0
C388 C 0.47281 0.62459 0.13728 0.0
H389 H 0.43847 0.65146 0.08689 0.0
H390 H 0.43722 0.6019 0.14011 0.0
H391 H 0.41021 0.66473 0.14322 0.0
H392 H 0.36463 0.62151 0.18665 0.0
H393 H 0.39435 0.61134 0.03014 0.0
H394 H 0.48246 0.66813 0.09783 0.0
H395 H 0.48136 0.6171 0.15199 0.0
C396 C 0.42365 0.40922 0.68771 0.0
C397 C 0.42066 0.39383 0.70533 0.0
N398 N 0.41466 0.37045 0.69847 0.0
N399 N 0.41964 0.39575 0.66965 0.0
C400 C 0.41397 0.37223 0.67676 0.0
H401 H 0.42847 0.42903 0.68812 0.0
Co402 Co 0.42224 0.40796 0.64129 0.0
C403 C 0.41861 0.3567 0.61877 0.0
O404 O 0.39706 0.36026 0.60684 0.0
N405 N 0.42469 0.41985 0.61267 0.0
C406 C 0.41463 0.42678 0.57825 0.0
C407 C 0.40605 0.4161 0.5971 0.0
C408 C 0.4444 0.43316 0.60272 0.0
N409 N 0.43882 0.43748 0.58179 0.0
O410 O 0.38341 0.4075 0.63864 0.0
H411 H 0.38721 0.4062 0.59911 0.0
H412 H 0.46282 0.43928 0.61038 0.0
O413 O 0.42711 0.37399 0.6312 0.0
C414 C 0.37557 0.42853 0.64639 0.0
O415 O 0.39362 0.44278 0.65594 0.0
N416 N 0.45961 0.41151 0.64473 0.0
C417 C 0.51348 0.42531 0.64959 0.0
C418 C 0.50672 0.40138 0.64188 0.0
C419 C 0.47953 0.39488 0.6393 0.0
C420 C 0.46595 0.43466 0.65259 0.0
C421 C 0.49276 0.44205 0.65496 0.0
H422 H 0.47486 0.3767 0.6327 0.0
H423 H 0.44998 0.44777 0.65643 0.0
H424 H 0.4098 0.35657 0.66622 0.0
H425 H 0.42251 0.3996 0.72194 0.0
H426 H 0.40365 0.42698 0.56319 0.0
H427 H 0.52231 0.38793 0.63775 0.0
H428 H 0.49724 0.46054 0.66132 0.0
C429 C 0.12968 0.61389 0.65436 0.0
C430 C 0.1316 0.62722 0.67322 0.0
N431 N 0.12856 0.6519 0.66881 0.0
N432 N 0.12539 0.6299 0.63792 0.0
C433 C 0.12509 0.65298 0.64719 0.0
H434 H 0.13055 0.59366 0.6528 0.0
Co435 Co 0.11816 0.61877 0.60975 0.0
C436 C 0.0921 0.66116 0.58679 0.0
O437 O 0.07839 0.6444 0.57583 0.0
N438 N 0.11157 0.60685 0.58121 0.0
C439 C 0.1164 0.60234 0.54578 0.0
C440 C 0.12635 0.61378 0.56393 0.0
C441 C 0.09274 0.591 0.57295 0.0
N442 N 0.09514 0.58806 0.55145 0.0
O443 O 0.15609 0.62112 0.60327 0.0
H444 H 0.14295 0.62698 0.56432 0.0
H445 H 0.07715 0.58202 0.58226 0.0
O446 O 0.10982 0.65387 0.6006 0.0
C447 C 0.16422 0.59847 0.60586 0.0
O448 O 0.14652 0.58119 0.61122 0.0
N449 N 0.08255 0.61323 0.61808 0.0
C450 C 0.0478 0.59982 0.65097 0.0
C451 C 0.04863 0.62474 0.64363 0.0
C452 C 0.06636 0.63115 0.62711 0.0
C453 C 0.07941 0.58854 0.62334 0.0
C454 C 0.06162 0.58132 0.63942 0.0
H455 H 0.0698 0.65084 0.62425 0.0
H456 H 0.09336 0.5747 0.61715 0.0
H457 H 0.12144 0.67017 0.63841 0.0
H458 H 0.13484 0.6192 0.68901 0.0
H459 H 0.12373 0.60507 0.52957 0.0
H460 H 0.03853 0.63963 0.65236 0.0
H461 H 0.06133 0.56185 0.64455 0.0
C462 C 0.83086 0.62094 0.85125 0.0
C463 C 0.82912 0.63568 0.83313 0.0
N464 N 0.84561 0.65566 0.83549 0.0
N465 N 0.84814 0.63149 0.86536 0.0
C466 C 0.8569 0.65258 0.85521 0.0
H467 H 0.82038 0.60338 0.85366 0.0
Co468 Co 0.85859 0.6175 0.89213 0.0
C469 C 0.87273 0.66273 0.91919 0.0
O470 O 0.86256 0.65374 0.93707 0.0
N471 N 0.86933 0.60301 0.91916 0.0
C472 C 0.86761 0.58845 0.95281 0.0
C473 C 0.85376 0.60084 0.93693 0.0
C474 C 0.89288 0.5917 0.92503 0.0
N475 N 0.89227 0.58258 0.94534 0.0
O476 O 0.82204 0.62143 0.90246 0.0
H477 H 0.83355 0.6081 0.93868 0.0
H478 H 0.91036 0.59019 0.91476 0.0
O479 O 0.8703 0.6505 0.90169 0.0
C480 C 0.81123 0.60008 0.89848 0.0
O481 O 0.82631 0.58241 0.88992 0.0
N482 N 0.89238 0.61104 0.88071 0.0
C483 C 0.93631 0.59593 0.85627 0.0
C484 C 0.93527 0.62031 0.86491 0.0
C485 C 0.91306 0.62753 0.87723 0.0
C486 C 0.89374 0.587 0.87338 0.0
C487 C 0.9158 0.57887 0.86153 0.0
H488 H 0.912 0.64669 0.88278 0.0
H489 H 0.87715 0.57425 0.87634 0.0
H490 H 0.87194 0.665 0.86187 0.0
H491 H 0.81652 0.63178 0.81932 0.0
H492 H 0.85978 0.58368 0.96852 0.0
H493 H 0.95049 0.63421 0.86103 0.0
H494 H 0.91605 0.55973 0.85561 0.0
C495 C 0.62849 0.34628 0.8704 0.0
C496 C 0.63622 0.32468 0.85984 0.0
N497 N 0.62354 0.32422 0.84074 0.0
N498 N 0.61196 0.36003 0.85762 0.0
C499 C 0.60878 0.3455 0.83995 0.0
H500 H 0.63347 0.35086 0.88685 0.0
Co501 Co 0.59056 0.38816 0.86521 0.0
C502 C 0.55328 0.35682 0.87559 0.0
O503 O 0.55036 0.36231 0.85511 0.0
N504 N 0.56851 0.4148 0.87274 0.0
C505 C 0.53849 0.44575 0.87204 0.0
C506 C 0.55197 0.42819 0.85986 0.0
C507 C 0.56451 0.42415 0.89261 0.0
N508 N 0.54642 0.44312 0.89266 0.0
O509 O 0.61738 0.40006 0.88649 0.0
H510 H 0.54962 0.42516 0.84278 0.0
H511 H 0.57466 0.41704 0.90678 0.0
O512 O 0.57244 0.36741 0.88589 0.0
C513 C 0.64312 0.40232 0.88533 0.0
O514 O 0.65592 0.39263 0.86881 0.0
N515 N 0.60599 0.4084 0.84345 0.0
C516 C 0.62043 0.43789 0.80828 0.0
C517 C 0.60469 0.41632 0.80556 0.0
C518 C 0.59726 0.4022 0.82339 0.0
C519 C 0.61977 0.43047 0.84651 0.0
C520 C 0.62802 0.4451 0.829 0.0
H521 H 0.58281 0.38729 0.82129 0.0
H522 H 0.62317 0.43783 0.86239 0.0
H523 H 0.59461 0.34939 0.82722 0.0
H524 H 0.64874 0.30974 0.86625 0.0
H525 H 0.52352 0.45896 0.86623 0.0
H526 H 0.59729 0.41097 0.78982 0.0
H527 H 0.63887 0.4625 0.83169 0.0
H528 H 0.87923 0.08605 0.19319 0.0
H529 H 0.87091 0.08781 0.23182 0.0
H530 H 0.94935 0.12154 0.24127 0.0
H531 H 0.9575 0.12031 0.20254 0.0
H532 H 0.89626 0.06469 0.26268 0.0
H533 H 0.90354 0.16537 0.27884 0.0
H534 H 0.90078 0.15348 0.25174 0.0
H535 H 0.93344 0.15713 0.26432 0.0
C536 C 0.89479 0.09368 0.20355 0.0
C537 C 0.91926 0.10269 0.19496 0.0
C538 C 0.88981 0.09498 0.22556 0.0
C539 C 0.90917 0.10536 0.23936 0.0
C540 C 0.93369 0.11425 0.23082 0.0
H541 H 0.00337 0.06964 0.32243 0.0
H542 H 0.96293 0.06884 0.30117 0.0
C543 C 0.93857 0.11318 0.20877 0.0
C544 C 0.90552 0.10437 0.2629 0.0
H545 H 0.92535 0.13722 0.30696 0.0
C546 C 0.90152 0.08078 0.27252 0.0
C547 C 0.91095 0.12545 0.27602 0.0
C548 C 0.91205 0.1518 0.2671 0.0
C549 C 0.90772 0.07701 0.29424 0.0
C550 C 0.9188 0.09712 0.30613 0.0
C551 C 0.9177 0.12155 0.29762 0.0
C552 C 0.93953 0.09227 0.32268 0.0
C553 C 0.90557 0.05092 0.30354 0.0
C554 C 0.93989 0.10544 0.34218 0.0
C555 C 0.96331 0.10563 0.35484 0.0
C556 C 0.98687 0.09318 0.34783 0.0
C557 C 0.9857 0.07896 0.32883 0.0
C558 C 0.96232 0.07841 0.31653 0.0
H559 H 0.88708 0.04142 0.29748 0.0
H560 H 0.9232 0.03957 0.2983 0.0
H561 H 0.90508 0.0513 0.32138 0.0
H562 H 0.92259 0.11654 0.34704 0.0
H563 H 0.96327 0.11637 0.3696 0.0
H564 H 0.55673 0.97711 0.18521 0.0
H565 H 0.54766 0.99155 0.22203 0.0
H566 H 0.56637 0.91741 0.24606 0.0
H567 H 0.57601 0.90319 0.20981 0.0
H568 H 0.50896 0.97253 0.24849 0.0
H569 H 0.6077 0.96135 0.28791 0.0
H570 H 0.60413 0.96357 0.25904 0.0
H571 H 0.6002 0.93376 0.27253 0.0
C572 C 0.55904 0.96403 0.19844 0.0
C573 C 0.56669 0.93895 0.19466 0.0
C574 C 0.55407 0.97233 0.21939 0.0
C575 C 0.55717 0.95574 0.23677 0.0
C576 C 0.56474 0.93075 0.23294 0.0
H577 H 0.49705 0.89036 0.33667 0.0
H578 H 0.52845 0.91094 0.31213 0.0
C579 C 0.56959 0.92246 0.21215 0.0
C580 C 0.54919 0.96298 0.25873 0.0
H581 H 0.56786 0.95113 0.31048 0.0
C582 C 0.522 0.96894 0.26219 0.0
C583 C 0.56643 0.95865 0.27649 0.0
C584 C 0.59632 0.95426 0.27376 0.0
C585 C 0.51067 0.96708 0.28272 0.0
C586 C 0.52728 0.95947 0.30013 0.0
C587 C 0.55517 0.95669 0.29706 0.0
C588 C 0.51508 0.9487 0.31967 0.0
C589 C 0.4805 0.97042 0.28511 0.0
C590 C 0.49859 0.96326 0.33304 0.0
C591 C 0.48045 0.95148 0.34693 0.0
C592 C 0.47893 0.92509 0.34771 0.0
C593 C 0.49782 0.91072 0.33632 0.0
C594 C 0.51578 0.92248 0.32233 0.0
H595 H 0.47036 0.97442 0.26953 0.0
H596 H 0.47134 0.95322 0.29212 0.0
H597 H 0.47633 0.98632 0.29613 0.0
H598 H 0.49815 0.98354 0.33144 0.0
H599 H 0.46631 0.96292 0.35591 0.0
H600 H 0.02151 0.9052 0.63012 0.0
H601 H 0.05933 0.9081 0.65551 0.0
H602 H 0.0133 0.96017 0.694 0.0
H603 H 0.9764 0.95809 0.66866 0.0
H604 H 0.06645 0.9654 0.7016 0.0
H605 H 0.03739 0.8639 0.70475 0.0
H606 H 0.05347 0.87534 0.68086 0.0
H607 H 0.01981 0.88554 0.68746 0.0
C608 C 0.02008 0.9181 0.64353 0.0
C609 C 0.99573 0.93078 0.64783 0.0
C610 C 0.04162 0.91969 0.65803 0.0
C611 C 0.03854 0.93338 0.67713 0.0
C612 C 0.01602 0.94917 0.67951 0.0
H613 H 0.02154 0.89997 0.80407 0.0
H614 H 0.02265 0.90667 0.76503 0.0
C615 C 0.99478 0.94794 0.66493 0.0
C616 C 0.05405 0.92706 0.69673 0.0
H617 H 0.05474 0.88175 0.7356 0.0
C618 C 0.06472 0.94695 0.70891 0.0
C619 C 0.05164 0.90288 0.70619 0.0
C620 C 0.0399 0.88066 0.69427 0.0
C621 C 0.07004 0.94406 0.73092 0.0
C622 C 0.06538 0.92043 0.74065 0.0
C623 C 0.05777 0.8999 0.72798 0.0
C624 C 0.06497 0.91714 0.76418 0.0
C625 C 0.07828 0.96677 0.74389 0.0
C626 C 0.08835 0.92077 0.77644 0.0
C627 C 0.08757 0.91732 0.79862 0.0
C628 C 0.06348 0.90994 0.80883 0.0
C629 C 0.04018 0.90593 0.79653 0.0
C630 C 0.04089 0.90966 0.77433 0.0
H631 H 0.07657 0.98449 0.73451 0.0
H632 H 0.06561 0.96846 0.75852 0.0
H633 H 0.09961 0.96464 0.74908 0.0
H634 H 0.10724 0.92586 0.76885 0.0
H635 H 0.10604 0.9198 0.80776 0.0
H636 H 0.49189 0.1883 0.68194 0.0
H637 H 0.48356 0.20722 0.71747 0.0
H638 H 0.5435 0.15813 0.74545 0.0
H639 H 0.55133 0.13893 0.71041 0.0
H640 H 0.46839 0.17526 0.75526 0.0
H641 H 0.56144 0.23113 0.76849 0.0
H642 H 0.54945 0.22273 0.74197 0.0
H643 H 0.56714 0.20003 0.75816 0.0
C644 C 0.50318 0.18163 0.69574 0.0
C645 C 0.52191 0.16192 0.69362 0.0
C646 C 0.49861 0.19254 0.71588 0.0
C647 C 0.51334 0.18436 0.73388 0.0
C648 C 0.53231 0.16499 0.73164 0.0
H649 H 0.5124 0.15498 0.86078 0.0
H650 H 0.52786 0.17102 0.82614 0.0
C651 C 0.53647 0.1538 0.71172 0.0
C652 C 0.50704 0.19364 0.75561 0.0
H653 H 0.53697 0.21863 0.80021 0.0
C654 C 0.4829 0.1855 0.76497 0.0
C655 C 0.52636 0.20657 0.76817 0.0
C656 C 0.55249 0.21583 0.75866 0.0
C657 C 0.47841 0.18822 0.78704 0.0
C658 C 0.4982 0.20032 0.79985 0.0
C659 C 0.52169 0.20979 0.79025 0.0
C660 C 0.4964 0.1991 0.82348 0.0
C661 C 0.4537 0.17609 0.79684 0.0
C662 C 0.4752 0.21124 0.83421 0.0
C663 C 0.46638 0.20212 0.85404 0.0
C664 C 0.47866 0.18073 0.86312 0.0
C665 C 0.50252 0.17135 0.85396 0.0
C666 C 0.51138 0.18053 0.8342 0.0
H667 H 0.44192 0.16499 0.78497 0.0
H668 H 0.4596 0.16345 0.81027 0.0
H669 H 0.44036 0.19086 0.80348 0.0
H670 H 0.4635 0.22568 0.82614 0.0
H671 H 0.4479 0.20969 0.86075 0.0
H672 H 0.58991 0.64231 0.28575 0.0
H673 H 0.58519 0.65778 0.24941 0.0
H674 H 0.53089 0.71582 0.27141 0.0
H675 H 0.5337 0.6989 0.30792 0.0
H676 H 0.50996 0.69485 0.23958 0.0
H677 H 0.6136 0.71393 0.21582 0.0
H678 H 0.61377 0.68128 0.22278 0.0
H679 H 0.60591 0.70446 0.24296 0.0
C680 C 0.57659 0.65814 0.28293 0.0
C681 C 0.56159 0.6689 0.29974 0.0
C682 C 0.57457 0.6675 0.26212 0.0
C683 C 0.55822 0.68842 0.25763 0.0
C684 C 0.54388 0.69981 0.27449 0.0
H685 H 0.49082 0.69536 0.12905 0.0
H686 H 0.51561 0.71721 0.15739 0.0
C687 C 0.5455 0.69012 0.29537 0.0
C688 C 0.55309 0.69551 0.23492 0.0
H689 H 0.58393 0.69508 0.18589 0.0
C690 C 0.52614 0.69596 0.22789 0.0
C691 C 0.57413 0.69729 0.21955 0.0
C692 C 0.60343 0.69946 0.22584 0.0
C693 C 0.51975 0.69483 0.20601 0.0
C694 C 0.54095 0.69343 0.19081 0.0
C695 C 0.56778 0.69586 0.19763 0.0
C696 C 0.53552 0.68376 0.16906 0.0
C697 C 0.49041 0.69247 0.19948 0.0
C698 C 0.54082 0.65829 0.16506 0.0
C699 C 0.5269 0.64574 0.14883 0.0
C700 C 0.50744 0.65857 0.13655 0.0
C701 C 0.50545 0.68489 0.13842 0.0
C702 C 0.5195 0.69745 0.15464 0.0
H703 H 0.47659 0.6923 0.21353 0.0
H704 H 0.48472 0.70853 0.18901 0.0
H705 H 0.4872 0.6749 0.1902 0.0
H706 H 0.55338 0.64748 0.17597 0.0
H707 H 0.52932 0.62557 0.14736 0.0
H708 H 0.87024 0.41953 0.29951 0.0
H709 H 0.85854 0.41524 0.26155 0.0
H710 H 0.93999 0.39089 0.24806 0.0
H711 H 0.95153 0.39447 0.28615 0.0
H712 H 0.87585 0.43927 0.22843 0.0
H713 H 0.89841 0.34029 0.21432 0.0
H714 H 0.89561 0.35276 0.24122 0.0
H715 H 0.92763 0.35296 0.22733 0.0
C716 C 0.8857 0.41338 0.28839 0.0
C717 C 0.91196 0.40766 0.29565 0.0
C718 C 0.87885 0.41067 0.26677 0.0
C719 C 0.89814 0.40216 0.25204 0.0
C720 C 0.92445 0.39663 0.25927 0.0
H721 H 0.97612 0.44977 0.16416 0.0
H722 H 0.9348 0.4477 0.18401 0.0
C723 C 0.93121 0.39904 0.28093 0.0
C724 C 0.89208 0.40155 0.22876 0.0
H725 H 0.91328 0.36973 0.18472 0.0
C726 C 0.8831 0.42372 0.21876 0.0
C727 C 0.89965 0.38086 0.21591 0.0
C728 C 0.90548 0.35531 0.22537 0.0
C729 C 0.88646 0.4272 0.19661 0.0
C730 C 0.90017 0.40856 0.18468 0.0
C731 C 0.9039 0.38467 0.19392 0.0
C732 C 0.91854 0.41554 0.16685 0.0
C733 C 0.87786 0.45179 0.18667 0.0
C734 C 0.923 0.39904 0.1496 0.0
C735 C 0.94727 0.40008 0.13813 0.0
C736 C 0.96734 0.4176 0.14383 0.0
C737 C 0.96119 0.4361 0.15914 0.0
C738 C 0.93712 0.43504 0.17053 0.0
H739 H 0.8572 0.45676 0.19217 0.0
H740 H 0.89157 0.46701 0.19215 0.0
H741 H 0.87802 0.451 0.16883 0.0
H742 H 0.90895 0.38389 0.14637 0.0
H743 H 0.95117 0.38593 0.12602 0.0
H744 H 0.66905 0.44764 0.78917 0.0
H745 H 0.67532 0.46444 0.75265 0.0
H746 H 0.5894 0.47842 0.74858 0.0
H747 H 0.58364 0.46269 0.78474 0.0
H748 H 0.65857 0.44172 0.72023 0.0
H749 H 0.61162 0.53278 0.71055 0.0
H750 H 0.62276 0.52239 0.73679 0.0
H751 H 0.58844 0.51685 0.72779 0.0
C752 C 0.65188 0.45549 0.78067 0.0
C753 C 0.62586 0.45387 0.78948 0.0
C754 C 0.65542 0.46503 0.75984 0.0
C755 C 0.63294 0.47304 0.74774 0.0
C756 C 0.60734 0.47329 0.75755 0.0
H757 H 0.54945 0.39965 0.67382 0.0
H758 H 0.5913 0.41558 0.68869 0.0
C759 C 0.60389 0.46393 0.7782 0.0
C760 C 0.63418 0.47519 0.72394 0.0
H761 H 0.59086 0.49773 0.68627 0.0
C762 C 0.64471 0.45467 0.71247 0.0
C763 C 0.61788 0.49279 0.71286 0.0
C764 C 0.60993 0.51757 0.72273 0.0
C765 C 0.63444 0.44845 0.69215 0.0
C766 C 0.61244 0.46242 0.68383 0.0
C767 C 0.60655 0.48591 0.69308 0.0
C768 C 0.59128 0.45036 0.67029 0.0
C769 C 0.64562 0.42572 0.68077 0.0
C770 C 0.5769 0.4643 0.65482 0.0
C771 C 0.55221 0.45543 0.64689 0.0
C772 C 0.54182 0.43229 0.65397 0.0
C773 C 0.55725 0.41739 0.6679 0.0
C774 C 0.58151 0.42646 0.67621 0.0
H775 H 0.66806 0.42615 0.68123 0.0
H776 H 0.63922 0.40839 0.68931 0.0
H777 H 0.6389 0.42478 0.66375 0.0
H778 H 0.58383 0.48276 0.64995 0.0
H779 H 0.54059 0.46719 0.63605 0.0
H780 H 0.92687 0.56923 0.81986 0.0
H781 H 0.95631 0.5642 0.78925 0.0
H782 H 0.01956 0.60443 0.82232 0.0
H783 H 0.99003 0.60925 0.85369 0.0
H784 H 0.00654 0.62503 0.78364 0.0
H785 H 0.02179 0.52314 0.77314 0.0
H786 H 0.98674 0.52975 0.77757 0.0
H787 H 0.01104 0.53662 0.79836 0.0
C788 C 0.94738 0.57613 0.82115 0.0
C789 C 0.95613 0.58955 0.83933 0.0
C790 C 0.96425 0.5732 0.80354 0.0
C791 C 0.99025 0.58355 0.80367 0.0
C792 C -0.0004 0.59609 0.82206 0.0
H793 H 0.07488 0.57312 0.68123 0.0
H794 H 0.064 0.56892 0.71918 0.0
C795 C 0.98268 0.59896 0.83986 0.0
C796 C 0.00538 0.58451 0.78333 0.0
H797 H 0.02117 0.54815 0.7401 0.0
C798 C 0.01043 0.60821 0.77429 0.0
C799 C 0.0107 0.56256 0.77128 0.0
C800 C 0.00754 0.5366 0.78073 0.0
C801 C 0.0187 0.61058 0.75289 0.0
C802 C 0.02131 0.58869 0.74022 0.0
C803 C 0.01836 0.56493 0.74973 0.0
C804 C 0.02679 0.59008 0.717 0.0
C805 C 0.02402 0.6365 0.74395 0.0
C806 C 0.00891 0.6027 0.70313 0.0
C807 C 0.01495 0.60502 0.6813 0.0
C808 C 0.03874 0.5944 0.67308 0.0
C809 C 0.05602 0.58096 0.68696 0.0
C810 C 0.05003 0.57877 0.7087 0.0
H811 H 0.02899 0.65009 0.75691 0.0
H812 H 0.04089 0.63622 0.73221 0.0
H813 H 0.0056 0.64338 0.73561 0.0
H814 H 0.99051 0.61106 0.70925 0.0
H815 H 0.00136 0.61548 0.67095 0.0
H816 H 0.11525 0.14754 0.28345 0.0
H817 H 0.11183 0.18397 0.25957 0.0
H818 H 0.09754 0.23192 0.31416 0.0
H819 H 0.1013 0.19552 0.33825 0.0
H820 H 0.06804 0.21954 0.25424 0.0
H821 H 0.16274 0.26488 0.28251 0.0
H822 H 0.15519 0.2322 0.28764 0.0
H823 H 0.13905 0.25636 0.30314 0.0
C824 C 0.11152 0.16582 0.29044 0.0
C825 C 0.10881 0.16854 0.31285 0.0
C826 C 0.1094 0.18665 0.27672 0.0
C827 C 0.10481 0.21078 0.28504 0.0
C828 C 0.10148 0.21355 0.30736 0.0
H829 H 0.09616 0.36097 0.23154 0.0
H830 H 0.09904 0.32352 0.25391 0.0
C831 C 0.10339 0.19266 0.32112 0.0
C832 C 0.1037 0.23297 0.27033 0.0
H833 H 0.13622 0.28772 0.25766 0.0
C834 C 0.08297 0.23443 0.25493 0.0
C835 C 0.12321 0.25238 0.27119 0.0
C836 C 0.14647 0.25143 0.28687 0.0
C837 C 0.08081 0.25506 0.24077 0.0
C838 C 0.10037 0.27452 0.24158 0.0
C839 C 0.12123 0.27288 0.25691 0.0
C840 C 0.09899 0.29726 0.2274 0.0
C841 C 0.05704 0.25617 0.22558 0.0
C842 C 0.09852 0.29528 0.20484 0.0
C843 C 0.09649 0.31686 0.19185 0.0
C844 C 0.09511 0.34098 0.20113 0.0
C845 C 0.09653 0.34284 0.2237 0.0
C846 C 0.09841 0.32133 0.23661 0.0
H847 H 0.04031 0.24374 0.23094 0.0
H848 H 0.04916 0.27564 0.22409 0.0
H849 H 0.06353 0.24976 0.20943 0.0
H850 H 0.09966 0.27702 0.19723 0.0
H851 H 0.09545 0.31457 0.1746 0.0
H852 H 0.42913 0.68381 0.17537 0.0
H853 H 0.43189 0.71707 0.20264 0.0
H854 H 0.35447 0.69433 0.22769 0.0
H855 H 0.35178 0.66114 0.20086 0.0
H856 H 0.40159 0.75711 0.21097 0.0
H857 H 0.39787 0.69492 0.2819 0.0
H858 H 0.40308 0.68296 0.25511 0.0
H859 H 0.36942 0.68937 0.26471 0.0
C860 C 0.41276 0.6859 0.18674 0.0
C861 C 0.39042 0.66953 0.18614 0.0
C862 C 0.4144 0.70485 0.20237 0.0
C863 C 0.39377 0.70778 0.21769 0.0
C864 C 0.37115 0.69191 0.21664 0.0
H865 H 0.34453 0.83773 0.28826 0.0
H866 H 0.35492 0.80575 0.2618 0.0
C867 C 0.3696 0.67292 0.20121 0.0
C868 C 0.39518 0.72785 0.23437 0.0
H869 H 0.38598 0.73828 0.28804 0.0
C870 C 0.39855 0.75295 0.22786 0.0
C871 C 0.39193 0.72252 0.25654 0.0
C872 C 0.39069 0.69594 0.26499 0.0
C873 C 0.39729 0.77286 0.2427 0.0
C874 C 0.39169 0.76764 0.26459 0.0
C875 C 0.3898 0.74245 0.27125 0.0
C876 C 0.38634 0.78787 0.28063 0.0
C877 C 0.40206 0.79926 0.23468 0.0
C878 C 0.39986 0.78823 0.30052 0.0
C879 C 0.39339 0.80626 0.31613 0.0
C880 C 0.37318 0.82439 0.31223 0.0
C881 C 0.35996 0.82408 0.29215 0.0
C882 C 0.36625 0.80594 0.2767 0.0
H883 H 0.41551 0.79931 0.2204 0.0
H884 H 0.38249 0.80767 0.22972 0.0
H885 H 0.41124 0.8113 0.24728 0.0
H886 H 0.41528 0.77436 0.30408 0.0
H887 H 0.40386 0.80555 0.33138 0.0
H888 H 0.64927 0.70947 0.3364 0.0
H889 H 0.64655 0.74067 0.30741 0.0
H890 H 0.64845 0.68114 0.26047 0.0
H891 H 0.65116 0.65006 0.28917 0.0
H892 H 0.68247 0.71847 0.24971 0.0
H893 H 0.58192 0.75749 0.26948 0.0
H894 H 0.60527 0.75999 0.29151 0.0
H895 H 0.59514 0.72948 0.28204 0.0
C896 C 0.64909 0.70306 0.3199 0.0
C897 C 0.65078 0.67724 0.31518 0.0
C898 C 0.64737 0.7209 0.30334 0.0
C899 C 0.64702 0.71328 0.28172 0.0
C900 C 0.64878 0.68754 0.27699 0.0
H901 H 0.60855 0.8132 0.17248 0.0
H902 H 0.60801 0.7776 0.19787 0.0
C903 C 0.65058 0.66975 0.29349 0.0
C904 C 0.64561 0.73203 0.26394 0.0
H905 H 0.60784 0.78037 0.24348 0.0
C906 C 0.6661 0.73195 0.24835 0.0
C907 C 0.6239 0.74924 0.26179 0.0
C908 C 0.60015 0.74894 0.27695 0.0
C909 C 0.66596 0.74906 0.23114 0.0
C910 C 0.64504 0.76713 0.22962 0.0
C911 C 0.62404 0.7667 0.24477 0.0
C912 C 0.6457 0.78763 0.21333 0.0
C913 C 0.68823 0.74758 0.21466 0.0
C914 C 0.66705 0.80495 0.2135 0.0
C915 C 0.66741 0.82506 0.19908 0.0
C916 C 0.64635 0.82852 0.18415 0.0
C917 C 0.62518 0.81088 0.18362 0.0
C918 C 0.62476 0.79069 0.19822 0.0
H919 H 0.69754 0.72858 0.21426 0.0
H920 H 0.68057 0.75221 0.19834 0.0
H921 H 0.70428 0.76129 0.21887 0.0
H922 H 0.68322 0.80323 0.22516 0.0
H923 H 0.6841 0.83818 0.1998 0.0
H924 H 0.86594 0.30123 0.33584 0.0
H925 H 0.86909 0.26664 0.3097 0.0
H926 H 0.86455 0.32008 0.25771 0.0
H927 H 0.86198 0.35448 0.28354 0.0
H928 H 0.83014 0.25458 0.27755 0.0
H929 H 0.92931 0.27612 0.24066 0.0
H930 H 0.91888 0.28919 0.26611 0.0
H931 H 0.90656 0.30238 0.24137 0.0
C932 C 0.86602 0.30557 0.31885 0.0
C933 C 0.86344 0.33062 0.31184 0.0
C934 C 0.86771 0.28581 0.30391 0.0
C935 C 0.86734 0.29073 0.28167 0.0
C936 C 0.86533 0.31577 0.27471 0.0
H937 H 0.86134 0.20348 0.16274 0.0
H938 H 0.86447 0.23665 0.19009 0.0
C939 C 0.86349 0.33544 0.28956 0.0
C940 C 0.86749 0.26979 0.26566 0.0
H941 H 0.90156 0.24659 0.22213 0.0
C942 C 0.8459 0.25268 0.26557 0.0
C943 C 0.88791 0.2674 0.24986 0.0
C944 C 0.91213 0.28459 0.24955 0.0
C945 C 0.84378 0.23372 0.24986 0.0
C946 C 0.86415 0.23135 0.23398 0.0
C947 C 0.88587 0.24837 0.23418 0.0
C948 C 0.86335 0.21118 0.21722 0.0
C949 C 0.8192 0.21694 0.25005 0.0
C950 C 0.86244 0.18574 0.22322 0.0
C951 C 0.86072 0.16681 0.20766 0.0
C952 C 0.85991 0.17275 0.18558 0.0
C953 C 0.86182 0.1982 0.17954 0.0
C954 C 0.86355 0.2172 0.19519 0.0
H955 H 0.80213 0.22571 0.25888 0.0
H956 H 0.81238 0.21253 0.23347 0.0
H957 H 0.8243 0.19903 0.25828 0.0
H958 H 0.86301 0.18048 0.24002 0.0
H959 H 0.86017 0.14746 0.21302 0.0
H960 H 0.86823 0.70189 0.84254 0.0
H961 H 0.87499 0.73555 0.8162 0.0
H962 H 0.8404 0.68899 0.76673 0.0
H963 H 0.83411 0.65514 0.79256 0.0
H964 H 0.90462 0.73386 0.77524 0.0
H965 H 0.79556 0.75536 0.76431 0.0
H966 H 0.80828 0.73821 0.78727 0.0
H967 H 0.8048 0.72281 0.76175 0.0
C968 C 0.86222 0.69862 0.82606 0.0
C969 C 0.85031 0.67562 0.81994 0.0
C970 C 0.86602 0.718 0.81101 0.0
C971 C 0.8578 0.71498 0.78954 0.0
C972 C 0.8464 0.69199 0.78328 0.0
H973 H 0.85343 0.81508 0.67733 0.0
H974 H 0.84938 0.77908 0.70177 0.0
C975 C 0.84274 0.67259 0.79822 0.0
C976 C 0.86125 0.73569 0.77358 0.0
H977 H 0.82607 0.77613 0.74114 0.0
C978 C 0.88746 0.74318 0.76784 0.0
C979 C 0.83887 0.74767 0.76373 0.0
C980 C 0.81025 0.74082 0.76963 0.0
C981 C 0.89189 0.7621 0.75237 0.0
C982 C 0.86949 0.77442 0.74274 0.0
C983 C 0.84327 0.76675 0.74842 0.0
C984 C 0.87277 0.79589 0.72742 0.0
C985 C 0.92059 0.76825 0.74615 0.0
C986 C 0.88709 0.81747 0.73361 0.0
C987 C 0.88966 0.83794 0.71961 0.0
C988 C 0.87761 0.83767 0.69906 0.0
C989 C 0.86322 0.816 0.69286 0.0
C990 C 0.86074 0.79541 0.70691 0.0
H991 H 0.93439 0.75218 0.74934 0.0
H992 H 0.92206 0.77337 0.72889 0.0
H993 H 0.92775 0.78442 0.75587 0.0
H994 H 0.89606 0.81868 0.74945 0.0
H995 H 0.9012 0.85398 0.72503 0.0
H996 H 0.66619 0.29595 0.82865 0.0
H997 H 0.66672 0.26321 0.80089 0.0
H998 H 0.58116 0.2737 0.79083 0.0
H999 H 0.58087 0.30694 0.81797 0.0
H1000 H 0.64234 0.21931 0.79735 0.0
H1001 H 0.60741 0.27994 0.73048 0.0
H1002 H 0.61708 0.29258 0.75623 0.0
H1003 H 0.58391 0.27937 0.75235 0.0
C1004 C 0.64757 0.29121 0.82045 0.0
C1005 C 0.62361 0.3042 0.82518 0.0
C1006 C 0.64785 0.27257 0.8046 0.0
C1007 C 0.62411 0.2664 0.79334 0.0
C1008 C 0.59993 0.27871 0.79869 0.0
H1009 H 0.60123 0.12898 0.71956 0.0
H1010 H 0.60285 0.16125 0.74749 0.0
C1011 C 0.59975 0.29763 0.81426 0.0
C1012 C 0.62461 0.24688 0.77624 0.0
H1013 H 0.60765 0.23582 0.72388 0.0
C1014 C 0.63493 0.22297 0.78124 0.0
C1015 C 0.61536 0.25173 0.75508 0.0
C1016 C 0.60558 0.27738 0.74814 0.0
C1017 C 0.63591 0.20372 0.76582 0.0
C1018 C 0.62544 0.20821 0.74495 0.0
C1019 C 0.61553 0.23225 0.73987 0.0
C1020 C 0.62459 0.18838 0.72811 0.0
C1021 C 0.64877 0.17901 0.772 0.0
C1022 C 0.63525 0.19311 0.70757 0.0
C1023 C 0.63361 0.17492 0.69142 0.0
C1024 C 0.62167 0.15148 0.69556 0.0
C1025 C 0.61114 0.14666 0.71611 0.0
C1026 C 0.61218 0.16508 0.73211 0.0
H1027 H 0.66343 0.1814 0.78538 0.0
H1028 H 0.63285 0.16586 0.77758 0.0
H1029 H 0.65944 0.17033 0.75819 0.0
H1030 H 0.64477 0.21097 0.70399 0.0
H1031 H 0.64174 0.17908 0.67567 0.0
H1032 H 0.38708 0.32778 0.6879 0.0
H1033 H 0.3796 0.29083 0.71065 0.0
H1034 H 0.42511 0.32558 0.76168 0.0
H1035 H 0.43294 0.36234 0.73912 0.0
H1036 H 0.41721 0.25828 0.73061 0.0
H1037 H 0.35395 0.30678 0.7912 0.0
H1038 H 0.3612 0.32028 0.76522 0.0
H1039 H 0.38588 0.32176 0.78642 0.0
C1040 C 0.39565 0.32757 0.7039 0.0
C1041 C 0.41041 0.34832 0.71166 0.0
C1042 C 0.39125 0.30642 0.71694 0.0
C1043 C 0.40134 0.3056 0.73804 0.0
C1044 C 0.41651 0.32601 0.74566 0.0
H1045 H 0.39701 0.20326 0.84612 0.0
H1046 H 0.40426 0.23759 0.82114 0.0
C1047 C 0.42094 0.34711 0.73269 0.0
C1048 C 0.39641 0.28335 0.75205 0.0
H1049 H 0.36897 0.26569 0.8001 0.0
C1050 C 0.40651 0.25982 0.74575 0.0
C1051 C 0.38244 0.28536 0.7718 0.0
C1052 C 0.37 0.30984 0.77902 0.0
C1053 C 0.40377 0.23844 0.75893 0.0
C1054 C 0.39007 0.2405 0.77887 0.0
C1055 C 0.37965 0.26402 0.78497 0.0
C1056 C 0.3864 0.21874 0.7938 0.0
C1057 C 0.41628 0.21411 0.7515 0.0
C1058 C 0.3738 0.19648 0.78697 0.0
C1059 C 0.3698 0.17644 0.80128 0.0
C1060 C 0.37794 0.17821 0.82297 0.0
C1061 C 0.39045 0.2007 0.82972 0.0
C1062 C 0.39455 0.22063 0.81537 0.0
H1063 H 0.4334 0.21748 0.74033 0.0
H1064 H 0.4237 0.20279 0.76522 0.0
H1065 H 0.40084 0.20296 0.74276 0.0
H1066 H 0.3667 0.19466 0.77058 0.0
H1067 H 0.36023 0.15964 0.79518 0.0
H1068 H 0.11592 0.64898 0.71127 0.0
H1069 H 0.11627 0.68281 0.73763 0.0
H1070 H 0.13953 0.73549 0.68836 0.0
H1071 H 0.1394 0.70154 0.66174 0.0
H1072 H 0.15893 0.71281 0.75015 0.0
H1073 H 0.07618 0.77161 0.71677 0.0
H1074 H 0.08182 0.73958 0.70833 0.0
H1075 H 0.1027 0.76448 0.69808 0.0
C1076 C 0.12129 0.66767 0.70593 0.0
C1077 C 0.12784 0.67234 0.68425 0.0
C1078 C 0.12132 0.68711 0.7211 0.0
C1079 C 0.12767 0.71184 0.71506 0.0
C1080 C 0.13403 0.7167 0.69341 0.0
H1081 H 0.14376 0.85167 0.78749 0.0
H1082 H 0.14215 0.81917 0.75983 0.0
C1083 C 0.134 0.69721 0.67817 0.0
C1084 C 0.12856 0.73216 0.73166 0.0
H1085 H 0.10079 0.78864 0.74604 0.0
C1086 C 0.14614 0.72935 0.74927 0.0
C1087 C 0.11196 0.75383 0.73055 0.0
C1088 C 0.09191 0.75756 0.71254 0.0
C1089 C 0.14784 0.74763 0.76557 0.0
C1090 C 0.13107 0.76921 0.76458 0.0
C1091 C 0.1136 0.77212 0.74689 0.0
C1092 C 0.13157 0.78905 0.78161 0.0
C1093 C 0.16808 0.74391 0.78345 0.0
C1094 C 0.12573 0.78319 0.80316 0.0
C1095 C 0.12686 0.80178 0.81914 0.0
C1096 C 0.13374 0.82676 0.81397 0.0
C1097 C 0.13896 0.83264 0.79227 0.0
C1098 C 0.13782 0.81405 0.77633 0.0
H1099 H 0.18423 0.73044 0.77883 0.0
H1100 H 0.17765 0.762 0.78807 0.0
H1101 H 0.1576 0.73617 0.79775 0.0
H1102 H 0.12028 0.76419 0.80766 0.0
H1103 H 0.12274 0.79644 0.83559 0.0
H1104 H 0.05365 0.02564 0.42217 0.0
H1105 H 0.02347 0.99717 0.44174 0.0
H1106 H 0.02594 0.04649 0.49662 0.0
H1107 H 0.05526 0.07528 0.4771 0.0
H1108 H 0.03112 0.97195 0.48177 0.0
H1109 H 0.94479 0.03832 0.48453 0.0
H1110 H 0.97316 0.04266 0.46671 0.0
H1111 H 0.97575 0.05146 0.49453 0.0
C1112 C 0.0476 0.03054 0.43832 0.0
C1113 C 0.05686 0.05287 0.44798 0.0
C1114 C 0.03051 0.01415 0.44954 0.0
C1115 C 0.02219 0.01989 0.47052 0.0
C1116 C 0.03178 0.04188 0.48032 0.0
H1117 H 0.95227 0.93168 0.57239 0.0
H1118 H 0.9828 0.95179 0.54678 0.0
C1119 C 0.04883 0.05821 0.46918 0.0
C1120 C 0.00336 1.00312 0.48228 0.0
H1121 H 0.94227 1.00264 0.5076 0.0
C1122 C 0.01157 0.97852 0.48727 0.0
C1123 C 0.97772 0.01163 0.48916 0.0
C1124 C 0.96716 0.03737 0.4833 0.0
C1125 C 0.99517 0.96249 0.49963 0.0
C1126 C 0.9701 0.97146 0.50742 0.0
C1127 C 0.96156 0.99578 0.50178 0.0
C1128 C 0.95255 0.9564 0.5219 0.0
C1129 C 0.00479 0.93609 0.50414 0.0
C1130 C 0.92536 0.95225 0.51651 0.0
C1131 C 0.90783 0.94091 0.5312 0.0
C1132 C 0.9171 0.93349 0.55161 0.0
C1133 C 0.94459 0.93676 0.55668 0.0
C1134 C 0.9621 0.94826 0.54201 0.0
H1135 H 0.01966 0.92973 0.49193 0.0
H1136 H 0.01491 0.93562 0.52006 0.0
H1137 H 0.98766 0.92263 0.50444 0.0
H1138 H 0.91752 0.95839 0.50111 0.0
H1139 H 0.88683 0.93846 0.52679 0.0
H1140 H 0.41656 0.966 0.42396 0.0
H1141 H 0.44247 0.99782 0.44373 0.0
H1142 H 0.46061 0.94324 0.493 0.0
H1143 H 0.43509 0.9115 0.47338 0.0
H1144 H 0.43753 0.98812 0.50817 0.0
H1145 H 0.52502 1.0059 0.45427 0.0
H1146 H 0.49217 1.00737 0.44191 0.0
H1147 H 0.50438 0.97798 0.45229 0.0
C1148 C 0.42645 0.96072 0.43882 0.0
C1149 C 0.42349 0.93634 0.44725 0.0
C1150 C 0.44128 0.97887 0.45005 0.0
C1151 C 0.45353 0.97279 0.46975 0.0
C1152 C 0.45125 0.94829 0.47784 0.0
H1153 H 0.5611 0.05477 0.5543 0.0
H1154 H 0.5408 0.02488 0.5291 0.0
C1155 C 0.43646 0.93024 0.46669 0.0
C1156 C 0.46691 0.99224 0.48294 0.0
H1157 H 0.52097 0.03205 0.48497 0.0
C1158 C 0.45576 0.99775 0.5031 0.0
C1159 C 0.4908 1.00454 0.4763 0.0
C1160 C 0.50402 0.9986 0.45509 0.0
C1161 C 0.46781 0.01531 0.51683 0.0
C1162 C 0.49142 0.02797 0.51007 0.0
C1163 C 0.50274 0.02239 0.48997 0.0
C1164 C 0.5046 0.04688 0.52392 0.0
C1165 C 0.45545 0.01988 0.53865 0.0
C1166 C 0.49112 0.06925 0.52901 0.0
C1167 C 0.50248 0.08621 0.54351 0.0
C1168 C 0.52765 0.08115 0.55316 0.0
C1169 C 0.54149 0.05902 0.54748 0.0
C1170 C 0.53007 0.04205 0.53293 0.0
H1171 H 0.44111 1.00473 0.54323 0.0
H1172 H 0.47135 0.02126 0.5512 0.0
H1173 H 0.44417 0.03792 0.53835 0.0
H1174 H 0.47152 0.07337 0.52205 0.0
H1175 H 0.49115 0.10292 0.5476 0.0
H1176 H 0.40873 0.07316 0.99038 0.0
H1177 H 0.44207 0.05045 0.0116 0.0
H1178 H 0.50119 0.0612 0.96161 0.0
H1179 H 0.46828 0.08515 0.94062 0.0
H1180 H 0.46763 1.00733 1.00159 0.0
H1181 H 0.54306 0.08308 0.01432 0.0
H1182 H 0.50948 0.08925 0.00424 0.0
H1183 H 0.53523 0.07741 0.98657 0.0
C1184 C 0.42892 0.0712 0.98398 0.0
C1185 C 0.43577 0.08126 0.96378 0.0
C1186 C 0.44794 0.058 0.99611 0.0
C1187 C 0.47424 0.05449 0.98836 0.0
C1188 C 0.48117 0.06419 0.96813 0.0
H1189 H 0.60598 0.96024 0.03077 0.0
H1190 H 0.57667 0.99004 0.01176 0.0
C1191 C 0.46217 0.07758 0.956 0.0
C1192 C 0.49387 0.03963 1.00114 0.0
H1193 H 0.55599 0.04181 0.02515 0.0
C1194 C 0.48686 0.01495 0.00686 0.0
C1195 C 0.51897 0.04961 0.00797 0.0
C1196 C 0.52709 0.07637 0.00315 0.0
C1197 C 0.50438 0.99985 0.019 0.0
C1198 C 0.52947 1.00979 0.02572 0.0
C1199 C 0.53663 0.03439 0.01999 0.0
C1200 C 0.54876 0.99439 0.03818 0.0
C1201 C 0.49621 0.97322 0.02427 0.0
C1202 C 0.5431 0.98767 0.05951 0.0
C1203 C 0.55982 0.97072 0.07041 0.0
C1204 C 0.58231 0.96015 0.06003 0.0
C1205 C 0.58858 0.96789 0.03902 0.0
C1206 C 0.57198 0.98496 0.0282 0.0
H1207 H 0.47816 0.96714 0.015 0.0
H1208 H 0.51308 0.96003 0.02089 0.0
H1209 H 0.49143 0.97184 0.04165 0.0
H1210 H 0.52526 0.99492 0.06745 0.0
H1211 H 0.5544 0.96493 0.08651 0.0
H1212 H 0.93702 0.08789 0.02522 0.0
H1213 H 0.96627 0.05945 0.00518 0.0
H1214 H 0.95991 1.00445 0.05588 0.0
H1215 H 0.93 0.03291 0.076 0.0
H1216 H 0.0162 0.03737 0.01744 0.0
H1217 H 0.93662 0.96623 1.00046 0.0
H1218 H 0.9288 0.99762 0.00957 0.0
H1219 H 0.94125 0.97458 0.02822 0.0
C1220 C 0.94168 0.06969 0.03209 0.0
C1221 C 0.93089 0.06249 0.05207 0.0
C1222 C 0.95856 0.05353 0.02067 0.0
C1223 C 0.96494 0.02972 0.02888 0.0
C1224 C 0.95488 0.02263 0.04912 0.0
H1225 H 0.08721 0.92769 0.98083 0.0
H1226 H 0.05987 0.95667 0.00207 0.0
C1227 C 0.93803 0.03894 0.06067 0.0
C1228 C 0.98197 0.01247 0.01599 0.0
H1229 H 0.98064 0.95731 0.98792 0.0
C1230 C 0.00849 0.01981 0.01105 0.0
C1231 C 0.97166 0.98981 0.00738 0.0
C1232 C 0.94297 0.98156 0.01147 0.0
C1233 C 0.02508 1.00496 0.9979 0.0
C1234 C 0.01493 0.98209 0.98959 0.0
C1235 C 0.98835 0.97484 0.99436 0.0
C1236 C 0.03186 0.96514 0.97635 0.0
C1237 C 0.05321 0.01401 0.99269 0.0
C1238 C 0.02508 0.96016 0.95484 0.0
C1239 C 0.04072 0.94351 0.94262 0.0
C1240 C 0.06313 0.9313 0.95184 0.0
C1241 C 0.06991 0.93657 0.97333 0.0
C1242 C 0.05444 0.95328 0.98545 0.0
H1243 H 0.05566 0.0344 0.99604 0.0
H1244 H 0.06802 1.00357 0.0027 0.0
H1245 H 0.05811 0.01049 0.97555 0.0
H1246 H 0.00763 0.96907 0.94756 0.0
H1247 H 0.03485 0.93964 0.92619 0.0
H1248 H 0.56769 0.54839 0.42748 0.0
H1249 H 0.55175 0.51875 0.45491 0.0
H1250 H 0.51169 0.57938 0.48799 0.0
H1251 H 0.52759 0.60901 0.46084 0.0
H1252 H 0.5572 0.51833 0.50153 0.0
H1253 H 0.45098 0.52825 0.47382 0.0
H1254 H 0.47936 0.53861 0.45794 0.0
H1255 H 0.46747 0.55746 0.47993 0.0
C1256 C 0.55575 0.55543 0.44073 0.0
C1257 C 0.54849 0.58097 0.44179 0.0
C1258 C 0.54665 0.53849 0.45635 0.0
C1259 C 0.53019 0.54687 0.47322 0.0
C1260 C 0.52393 0.5725 0.47483 0.0
H1261 H 0.47438 0.47517 0.58982 0.0
H1262 H 0.49927 0.4999 0.56324 0.0
C1263 C 0.53292 0.58937 0.45925 0.0
C1264 C 0.51839 0.52879 0.48863 0.0
H1265 H 0.45801 0.50606 0.5064 0.0
C1266 C 0.53554 0.51548 0.50257 0.0
C1267 C 0.49016 0.52495 0.4897 0.0
C1268 C 0.47088 0.53787 0.47443 0.0
C1269 C 0.52505 0.49883 0.518 0.0
C1270 C 0.49674 0.49571 0.51955 0.0
C1271 C 0.47971 0.50861 0.50526 0.0
C1272 C 0.48406 0.47922 0.53584 0.0
C1273 C 0.5443 0.48456 0.53234 0.0
C1274 C 0.46719 0.4595 0.52924 0.0
C1275 C 0.45287 0.44546 0.54436 0.0
C1276 C 0.45503 0.45093 0.56639 0.0
C1277 C 0.47251 0.4703 0.57301 0.0
C1278 C 0.48681 0.4844 0.55784 0.0
H1279 H 0.56503 0.48402 0.52553 0.0
H1280 H 0.54536 0.49399 0.54822 0.0
H1281 H 0.53722 0.46498 0.53493 0.0
H1282 H 0.46478 0.45523 0.51233 0.0
H1283 H 0.43996 0.43042 0.53876 0.0
H1284 H 0.10819 0.56809 0.51268 0.0
H1285 H 0.0783 0.5454 0.48809 0.0
H1286 H 0.01305 0.55223 0.53351 0.0
H1287 H 0.04246 0.57563 0.55784 0.0
H1288 H 0.05062 0.50073 0.49429 0.0
H1289 H 0.97889 0.57856 0.47821 0.0
H1290 H 0.0114 0.58355 0.49069 0.0
H1291 H 0.98339 0.57218 0.50631 0.0
C1292 C 0.08741 0.56504 0.51736 0.0
C1293 C 0.07776 0.57386 0.53725 0.0
C1294 C 0.07038 0.55193 0.50332 0.0
C1295 C 0.0433 0.54751 0.50878 0.0
C1296 C 0.03372 0.55588 0.52875 0.0
H1297 H 0.90707 0.46525 0.46299 0.0
H1298 H 0.93974 0.49267 0.48074 0.0
C1299 C 0.05071 0.56898 0.5428 0.0
C1300 C 0.02523 0.53359 0.49386 0.0
H1301 H 0.96494 0.53755 0.46722 0.0
C1302 C 0.03205 0.50886 0.48814 0.0
C1303 C 0.00106 0.54428 0.48577 0.0
C1304 C 0.99333 0.57118 0.49037 0.0
C1305 C 0.01477 0.49415 0.47534 0.0
C1306 C 0.99022 0.50462 0.46778 0.0
C1307 C 0.98376 0.52957 0.47302 0.0
C1308 C 0.97001 0.48936 0.45588 0.0
C1309 C 0.02236 0.4672 0.47079 0.0
C1310 C 0.97585 0.47893 0.43567 0.0
C1311 C 0.95712 0.46314 0.42546 0.0
C1312 C 0.93231 0.45752 0.43534 0.0
C1313 C 0.92617 0.46889 0.45514 0.0
C1314 C 0.94477 0.48467 0.46525 0.0
H1315 H 0.03928 0.46064 0.48114 0.0
H1316 H 0.00477 0.45458 0.47327 0.0
H1317 H 0.02877 0.46549 0.45378 0.0
H1318 H 0.99505 0.48265 0.42799 0.0
H1319 H 0.96247 0.4546 0.41027 0.0
H1320 H 0.0869 0.45744 0.03504 0.0
H1321 H 0.05681 0.48039 0.01062 0.0
H1322 H 0.98932 0.46447 0.05209 0.0
H1323 H 0.01932 0.44187 0.07683 0.0
H1324 H 0.98632 0.45931 0.99911 0.0
H1325 H 0.01793 0.54993 0.03641 0.0
H1326 H 0.04298 0.52604 0.03126 0.0
H1327 H 0.01786 0.52087 0.05147 0.0
C1328 C 0.06561 0.4586 0.03886 0.0
C1329 C 0.05558 0.44794 0.05796 0.0
C1330 C 0.04846 0.47163 0.02486 0.0
C1331 C 0.02095 0.47418 0.02965 0.0
C1332 C 0.01053 0.46258 0.04812 0.0
H1333 H 0.89904 0.57865 0.98846 0.0
H1334 H 0.93106 0.5519 0.00757 0.0
C1335 C 0.02769 0.44954 0.06217 0.0
C1336 C 0.00351 0.49052 0.01625 0.0
H1337 H 0.98633 0.552 0.00825 0.0
C1338 C 0.98632 0.47958 1.00098 0.0
C1339 C 0.00358 0.51689 0.01889 0.0
C1340 C 0.02146 0.52933 0.0354 0.0
C1341 C 0.96893 0.49442 0.98832 0.0
C1342 C 0.96905 0.5209 0.99089 0.0
C1343 C 0.98639 0.53175 0.00617 0.0
C1344 C 0.95022 0.53758 0.97886 0.0
C1345 C 0.95002 0.48159 0.97278 0.0
C1346 C 0.95066 0.5389 0.95632 0.0
C1347 C 0.93209 0.55408 0.94526 0.0
C1348 C 0.91281 0.56834 0.95657 0.0
C1349 C 0.91315 0.56758 0.97918 0.0
C1350 C 0.93161 0.5524 0.99017 0.0
H1351 H 0.948 0.46119 0.9763 0.0
H1352 H 0.92964 0.49031 0.97323 0.0
H1353 H 0.95805 0.48359 0.95623 0.0
H1354 H 0.96524 0.52807 0.94726 0.0
H1355 H 0.93243 0.55412 0.92788 0.0
H1356 H 0.527 0.49073 0.89286 0.0
H1357 H 0.50967 0.51396 0.92375 0.0
H1358 H 0.52758 0.4509 0.96501 0.0
H1359 H 0.54425 0.42724 0.93408 0.0
H1360 H 0.47575 0.46977 0.97035 0.0
H1361 H 0.55145 0.54636 0.97343 0.0
H1362 H 0.5367 0.5425 0.94727 0.0
H1363 H 0.55688 0.51764 0.95859 0.0
C1364 C 0.52721 0.48177 0.90848 0.0
C1365 C 0.53703 0.45713 0.91099 0.0
C1366 C 0.51763 0.49519 0.92617 0.0
C1367 C 0.51779 0.48429 0.9467 0.0
C1368 C 0.52757 0.45972 0.94931 0.0
H1369 H 0.4705 0.57312 0.05948 0.0
H1370 H 0.4957 0.54459 0.03591 0.0
C1371 C 0.53722 0.4463 0.93163 0.0
C1372 C 0.5062 0.49805 0.96516 0.0
H1373 H 0.51011 0.55342 0.99262 0.0
C1374 C 0.48346 0.48791 0.97543 0.0
C1375 C 0.51658 0.52149 0.97198 0.0
C1376 C 0.54192 0.53254 0.9624 0.0
C1377 C 0.46997 0.50122 0.99161 0.0
C1378 C 0.47928 0.52541 0.99741 0.0
C1379 C 0.50285 0.53498 0.98795 0.0
C1380 C 0.46386 0.54173 0.01218 0.0
C1381 C 0.44565 0.48944 0.00218 0.0
C1382 C 0.43778 0.54965 0.00651 0.0
C1383 C 0.4234 0.56585 0.01988 0.0
C1384 C 0.43487 0.57453 0.03917 0.0
C1385 C 0.46102 0.56651 0.04486 0.0
C1386 C 0.47547 0.55034 0.03139 0.0
H1387 H 0.44596 0.46862 1.0007 0.0
H1388 H 0.4446 0.49447 0.01948 0.0
H1389 H 0.42703 0.49642 0.9942 0.0
H1390 H 0.42865 0.54354 0.99157 0.0
H1391 H 0.40323 0.57144 0.01515 0.0
H1392 H 0.15701 0.07139 0.42832 0.0
H1393 H 0.18957 0.03926 0.44011 0.0
H1394 H 0.22212 0.03597 0.37595 0.0
H1395 H 0.18931 0.06759 0.36415 0.0
H1396 H 0.1876 0.99031 0.41825 0.0
H1397 H 0.28983 0.033 0.41658 0.0
H1398 H 0.25941 0.05142 0.41996 0.0
H1399 H 0.26901 0.04049 0.39375 0.0
C1400 C 0.17209 0.06472 0.41708 0.0
C1401 C 0.17125 0.07235 0.39548 0.0
C1402 C 0.19041 0.04617 0.42374 0.0
C1403 C 0.20834 0.03534 0.40893 0.0
C1404 C 0.20878 0.04437 0.38773 0.0
H1405 H 0.28046 0.89975 0.37616 0.0
H1406 H 0.24684 0.9314 0.38594 0.0
C1407 C 0.19022 0.06257 0.38102 0.0
C1408 C 0.22382 0.01233 0.41447 0.0
H1409 H 0.28763 0.9881 0.41437 0.0
C1410 C 0.20951 0.98986 0.41789 0.0
C1411 C 0.25233 0.0118 0.41404 0.0
C1412 C 0.26863 0.03549 0.41107 0.0
C1413 C 0.22298 0.96665 0.41959 0.0
C1414 C 0.25142 0.96595 0.41782 0.0
C1415 C 0.26579 0.98862 0.41572 0.0
C1416 C 0.26663 0.94201 0.41561 0.0
C1417 C 0.20665 0.943 0.42263 0.0
C1418 C 0.28814 0.93648 0.42958 0.0
C1419 C 0.30707 0.91799 0.42417 0.0
C1420 C 0.3049 0.905 0.40461 0.0
C1421 C 0.28203 0.90887 0.39167 0.0
C1422 C 0.26295 0.92717 0.39718 0.0
H1423 H 0.18664 0.9471 0.42989 0.0
H1424 H 0.20315 0.93411 0.40674 0.0
H1425 H 0.21755 0.92931 0.43297 0.0
H1426 H 0.2915 0.94784 0.44378 0.0
H1427 H 0.32503 0.91595 0.43402 0.0
H1428 H 0.82802 0.08259 0.06196 0.0
H1429 H 0.79887 0.04891 0.04825 0.0
H1430 H 0.75493 0.04889 0.10804 0.0
H1431 H 0.78398 0.08234 0.12159 0.0
H1432 H 0.80053 1.00341 0.06822 0.0
H1433 H 0.69459 0.03543 0.06572 0.0
H1434 H 0.72264 0.05716 0.06584 0.0
H1435 H 0.71022 0.04406 0.09065 0.0
C1436 C 0.81101 0.07649 0.07158 0.0
C1437 C 0.80775 0.08551 0.09262 0.0
C1438 C 0.79462 0.05695 0.06387 0.0
C1439 C 0.77456 0.04635 0.07704 0.0
C1440 C 0.76978 0.05702 0.09733 0.0
H1441 H 0.72619 0.90808 0.11859 0.0
H1442 H 0.75418 0.941 0.10313 0.0
C1443 C 0.78628 0.07635 0.10505 0.0
C1444 C 0.76189 0.02176 0.07154 0.0
H1445 H 0.70151 0.9909 0.07325 0.0
C1446 C 0.77881 1.00076 0.06873 0.0
C1447 C 0.73359 0.01816 0.07189 0.0
C1448 C 0.71423 0.03998 0.07346 0.0
C1449 C 0.76831 0.9762 0.06808 0.0
C1450 C 0.7402 0.97246 0.07055 0.0
C1451 C 0.72313 0.99359 0.07152 0.0
C1452 C 0.72838 0.94734 0.07551 0.0
C1453 C 0.78759 0.95445 0.06553 0.0
C1454 C 0.70535 0.93864 0.06453 0.0
C1455 C 0.68948 0.91934 0.07329 0.0
C1456 C 0.69611 0.90889 0.09337 0.0
C1457 C 0.72089 0.91541 0.10288 0.0
C1458 C 0.73684 0.93449 0.09408 0.0
H1459 H 0.80539 0.95999 0.05576 0.0
H1460 H 0.7951 0.94865 0.0816 0.0
H1461 H 0.77763 0.93806 0.05783 0.0
H1462 H 0.69838 0.94823 0.05019 0.0
H1463 H 0.67035 0.91505 0.06573 0.0
H1464 H 0.60484 0.02542 0.59682 0.0
H1465 H 0.63982 0.99306 0.59477 0.0
H1466 H 0.70019 0.04798 0.61191 0.0
H1467 H 0.66515 0.08076 0.61318 0.0
H1468 H 0.71974 0.01301 0.58311 0.0
H1469 H 0.66811 0.96495 0.65074 0.0
H1470 H 0.64725 0.96868 0.62735 0.0
H1471 H 0.65869 0.99598 0.6418 0.0
C1472 C 0.62568 0.03071 0.59964 0.0
C1473 C 0.6323 0.05554 0.60529 0.0
C1474 C 0.64563 0.01215 0.59864 0.0
C1475 C 0.67252 0.01787 0.60386 0.0
C1476 C 0.67952 0.04306 0.608 0.0
H1477 H 0.79632 0.93145 0.66161 0.0
H1478 H 0.75578 0.95479 0.65192 0.0
C1479 C 0.65954 0.06181 0.60862 0.0
C1480 C 0.69276 0.99736 0.60664 0.0
H1481 H 0.70619 0.94458 0.63626 0.0
C1482 C 0.71673 0.99794 0.59462 0.0
C1483 C 0.68897 0.97782 0.62187 0.0
C1484 C 0.66451 0.97687 0.63634 0.0
C1485 C 0.73712 0.97977 0.59759 0.0
C1486 C 0.73319 0.96014 0.6127 0.0
C1487 C 0.70901 0.95934 0.62442 0.0
C1488 C 0.75528 0.94245 0.6188 0.0
C1489 C 0.76321 0.98245 0.58529 0.0
C1490 C 0.76771 0.92645 0.60375 0.0
C1491 C 0.79102 0.91279 0.60937 0.0
C1492 C 0.80217 0.9151 0.63007 0.0
C1493 C 0.78827 0.92937 0.6455 0.0
C1494 C 0.76511 0.94284 0.63995 0.0
H1495 H 0.76496 1.00114 0.57741 0.0
H1496 H 0.78087 0.97978 0.59609 0.0
H1497 H 0.76411 0.96784 0.5726 0.0
H1498 H 0.76009 0.92535 0.58746 0.0
H1499 H 0.80136 0.90203 0.59712 0.0
H1500 H 0.30871 0.08299 0.91785 0.0
H1501 H 0.27751 0.04793 0.92498 0.0
H1502 H 0.32581 0.99952 0.8849 0.0
H1503 H 0.35704 0.03393 0.87816 0.0
H1504 H 0.24657 0.01949 0.89852 0.0
H1505 H 0.32095 0.95739 0.93844 0.0
H1506 H 0.32765 0.99018 0.93317 0.0
H1507 H 0.33218 0.96706 0.91234 0.0
C1508 C 0.31255 0.06487 0.91053 0.0
C1509 C 0.33548 0.06121 0.8976 0.0
C1510 C 0.29481 0.04482 0.91469 0.0
C1511 C 0.29974 0.02081 0.90601 0.0
C1512 C 0.32205 0.01752 0.89244 0.0
H1513 H 0.2057 0.88932 0.8817 0.0
H1514 H 0.24363 0.9185 0.88639 0.0
C1515 C 0.33978 0.03737 0.88842 0.0
C1516 C 0.28123 0.99929 0.91035 0.0
H1517 H 0.28007 0.93754 0.92611 0.0
C1518 C 0.25384 1.00172 0.90486 0.0
C1519 C 0.29066 0.97601 0.91867 0.0
C1520 C 0.31941 0.97256 0.9262 0.0
C1521 C 0.23594 0.98132 0.90662 0.0
C1522 C 0.2456 0.95786 0.91421 0.0
C1523 C 0.27278 0.9555 0.9202 0.0
C1524 C 0.22755 0.93559 0.91517 0.0
C1525 C 0.20689 0.98471 0.89977 0.0
C1526 C 0.20702 0.93436 0.93064 0.0
C1527 C 0.18562 0.91741 0.92815 0.0
C1528 C 0.18448 0.90145 0.91019 0.0
C1529 C 0.20655 0.9008 0.89606 0.0
C1530 C 0.22801 0.91775 0.89855 0.0
H1531 H 0.20338 1.00313 0.8918 0.0
H1532 H 0.20081 0.96948 0.88857 0.0
H1533 H 0.19361 0.98354 0.91409 0.0
H1534 H 0.20629 0.94798 0.94355 0.0
H1535 H 0.16846 0.91883 0.93888 0.0
H1536 H 0.78499 0.41458 0.37131 0.0
H1537 H 0.74901 0.4425 0.38347 0.0
H1538 H 0.78778 0.44877 0.44535 0.0
H1539 H 0.82417 0.42088 0.43296 0.0
H1540 H 0.71198 0.44851 0.41692 0.0
H1541 H 0.79444 0.51969 0.42011 0.0
H1542 H 0.79951 0.48879 0.40896 0.0
H1543 H 0.79782 0.49293 0.43756 0.0
C1544 C 0.78503 0.42081 0.38789 0.0
C1545 C 0.80706 0.41531 0.40131 0.0
C1546 C 0.7646 0.43699 0.39478 0.0
C1547 C 0.76601 0.44823 0.41515 0.0
C1548 C 0.78651 0.44063 0.42945 0.0
H1549 H 0.63966 0.56507 0.43224 0.0
H1550 H 0.67128 0.53163 0.44329 0.0
C1551 C 0.80702 0.42432 0.42252 0.0
C1552 C 0.7484 0.47028 0.41973 0.0
H1553 H 0.75012 0.5345 0.42243 0.0
C1554 C 0.72025 0.46728 0.41865 0.0
C1555 C 0.75929 0.49484 0.42163 0.0
C1556 C 0.78939 0.49946 0.42199 0.0
C1557 C 0.70277 0.48816 0.41839 0.0
C1558 C 0.71373 0.51272 0.41956 0.0
C1559 C 0.74178 0.51566 0.42172 0.0
C1560 C 0.69695 0.53543 0.41534 0.0
C1561 C 0.67287 0.48382 0.41536 0.0
C1562 C 0.7017 0.54951 0.39662 0.0
C1563 C 0.68393 0.56863 0.39049 0.0
C1564 C 0.66132 0.5743 0.40312 0.0
C1565 C 0.65734 0.56132 0.42252 0.0
C1566 C 0.67515 0.54204 0.42865 0.0
H1567 H 0.66819 0.46393 0.41139 0.0
H1568 H 0.6621 0.48871 0.43041 0.0
H1569 H 0.66485 0.49602 0.40233 0.0
H1570 H 0.71834 0.54476 0.38608 0.0
H1571 H 0.68703 0.57809 0.37526 0.0
H1572 H 0.35024 0.54398 0.08358 0.0
H1573 H 0.3116 0.51568 0.0863 0.0
H1574 H 0.27236 0.56787 0.12918 0.0
H1575 H 0.31087 0.59677 0.1258 0.0
H1576 H 0.29744 0.49276 0.12199 0.0
H1577 H 0.20953 0.54725 0.09237 0.0
H1578 H 0.24391 0.55718 0.08775 0.0
H1579 H 0.22776 0.56342 0.11309 0.0
C1580 C 0.33299 0.54975 0.09308 0.0
C1581 C 0.33341 0.57257 0.10441 0.0
C1582 C 0.31097 0.5335 0.09471 0.0
C1583 C 0.28897 0.53956 0.10791 0.0
C1584 C 0.2888 0.56295 0.11853 0.0
H1585 H 0.16223 0.4574 0.16866 0.0
H1586 H 0.20055 0.48375 0.15884 0.0
C1587 C 0.31078 0.57948 0.11661 0.0
C1588 C 0.26783 0.52026 0.11215 0.0
H1589 H 0.19967 0.50996 0.11259 0.0
C1590 C 0.27609 0.49647 0.11964 0.0
C1591 C 0.23993 0.52498 0.10907 0.0
C1592 C 0.22975 0.5495 0.09992 0.0
C1593 C 0.25725 0.47762 0.12466 0.0
C1594 C 0.22946 0.48267 0.12222 0.0
C1595 C 0.2211 0.50621 0.11443 0.0
C1596 C 0.2086 0.46438 0.12904 0.0
C1597 C 0.26698 0.45263 0.13314 0.0
C1598 C 0.20111 0.44412 0.11586 0.0
C1599 C 0.17909 0.42883 0.12146 0.0
C1600 C 0.16422 0.43381 0.14025 0.0
C1601 C 0.17308 0.45312 0.15401 0.0
C1602 C 0.19492 0.46831 0.1484 0.0
H1603 H 0.28932 0.45193 0.13485 0.0
H1604 H 0.25766 0.44883 0.14904 0.0
H1605 H 0.2605 0.43742 0.12208 0.0
H1606 H 0.21155 0.44081 0.10085 0.0
H1607 H 0.17271 0.41422 0.11046 0.0
H1608 H 0.34809 0.46063 0.67167 0.0
H1609 H 0.31237 0.48951 0.66066 0.0
H1610 H 0.30831 0.45329 0.59879 0.0
H1611 H 0.34406 0.4239 0.60995 0.0
H1612 H 0.32064 0.52232 0.62559 0.0
H1613 H 0.22797 0.46446 0.61476 0.0
H1614 H 0.25636 0.45388 0.63067 0.0
H1615 H 0.25817 0.45325 0.60188 0.0
C1616 C 0.33897 0.45822 0.65596 0.0
C1617 C 0.34893 0.43999 0.64167 0.0
C1618 C 0.31868 0.4749 0.64963 0.0
C1619 C 0.30779 0.47377 0.62885 0.0
C1620 C 0.31626 0.45442 0.61498 0.0
H1621 H 0.18479 0.5719 0.57295 0.0
H1622 H 0.2235 0.54333 0.57553 0.0
C1623 C 0.33661 0.43752 0.6214 0.0
C1624 C 0.28961 0.49434 0.62138 0.0
H1625 H 0.22482 0.50749 0.60613 0.0
C1626 C 0.2997 0.51906 0.62123 0.0
C1627 C 0.26241 0.49009 0.61551 0.0
C1628 C 0.25038 0.46405 0.6158 0.0
C1629 C 0.28325 0.53965 0.61568 0.0
C1630 C 0.25578 0.53553 0.6105 0.0
C1631 C 0.24589 0.51071 0.61006 0.0
C1632 C 0.23642 0.5566 0.60675 0.0
C1633 C 0.29554 0.56559 0.61536 0.0
C1634 C 0.23151 0.5745 0.62292 0.0
C1635 C 0.20969 0.59121 0.62121 0.0
C1636 C 0.19238 0.59024 0.60335 0.0
C1637 C 0.1984 0.57359 0.58653 0.0
C1638 C 0.22025 0.55697 0.58817 0.0
H1639 H 0.3177 0.56477 0.61264 0.0
H1640 H 0.28626 0.5775 0.60266 0.0
H1641 H 0.2921 0.57474 0.63113 0.0
H1642 H 0.24322 0.57426 0.63764 0.0
H1643 H 0.20481 0.60313 0.63477 0.0
H1644 H 0.69695 0.41315 0.88608 0.0
H1645 H 0.71804 0.45179 0.89849 0.0
H1646 H 0.64197 0.47661 0.92469 0.0
H1647 H 0.62045 0.43801 0.91185 0.0
H1648 H 0.66296 0.51169 0.89902 0.0
H1649 H 0.74323 0.4806 0.95439 0.0
H1650 H 0.74543 0.46347 0.92969 0.0
H1651 H 0.71591 0.46013 0.9464 0.0
C1652 C 0.68478 0.42644 0.89503 0.0
C1653 C 0.65692 0.42242 0.89784 0.0
C1654 C 0.69697 0.44858 0.90225 0.0
C1655 C 0.68172 0.46715 0.91273 0.0
C1656 C 0.65422 0.46256 0.91672 0.0
H1657 H 0.78754 0.59575 0.9381 0.0
H1658 H 0.74924 0.56797 0.94596 0.0
C1659 C 0.64196 0.44034 0.90948 0.0
C1660 C 0.69392 0.4923 0.91698 0.0
H1661 H 0.75177 0.51991 0.9353 0.0
C1662 C 0.68206 0.5136 0.90743 0.0
C1663 C 0.71855 0.49511 0.92831 0.0
C1664 C 0.73132 0.47361 0.94047 0.0
C1665 C 0.69525 0.53702 0.90737 0.0
C1666 C 0.72124 0.53914 0.91673 0.0
C1667 C 0.73201 0.51838 0.92785 0.0
C1668 C 0.73924 0.5611 0.91259 0.0
C1669 C 0.68147 0.55906 0.89672 0.0
C1670 C 0.74561 0.56754 0.8913 0.0
C1671 C 0.76726 0.58353 0.88686 0.0
C1672 C 0.78307 0.59344 0.90356 0.0
C1673 C 0.77534 0.58889 0.92491 0.0
C1674 C 0.75362 0.57273 0.9294 0.0
H1675 H 0.65918 0.55773 0.89847 0.0
H1676 H 0.68836 0.57724 0.90357 0.0
H1677 H 0.68606 0.55887 0.87927 0.0
H1678 H 0.73546 0.55844 0.87799 0.0
H1679 H 0.77324 0.58621 0.87027 0.0
H1680 H 0.06312 0.15958 0.42181 0.0
H1681 H 0.02881 0.19219 0.42537 0.0
H1682 H 0.079 0.24357 0.38958 0.0
H1683 H 0.11311 0.21051 0.38516 0.0
H1684 H 0.02528 0.23793 0.44179 0.0
H1685 H 0.01121 0.24316 0.35353 0.0
H1686 H 0.03166 0.21927 0.36618 0.0
H1687 H 0.04513 0.25027 0.36172 0.0
C1688 C 0.06707 0.17795 0.41494 0.0
C1689 C 0.09065 0.18237 0.40291 0.0
C1690 C 0.04739 0.19657 0.41698 0.0
C1691 C 0.05093 0.22008 0.40718 0.0
C1692 C 0.07548 0.22528 0.39671 0.0
H1693 H 0.96242 0.35534 0.42617 0.0
H1694 H 0.99075 0.31827 0.42945 0.0
C1695 C 0.09516 0.20652 0.39449 0.0
C1696 C 0.02841 0.23858 0.40726 0.0
H1697 H 0.9883 0.27403 0.37434 0.0
C1698 C 0.01712 0.24573 0.42702 0.0
C1699 C 0.0171 0.24815 0.38798 0.0
C1700 C 0.02668 0.23963 0.36615 0.0
C1701 C 0.99558 0.26289 0.42807 0.0
C1702 C 0.9855 0.27373 0.40887 0.0
C1703 C 0.9961 0.26587 0.38908 0.0
C1704 C 0.96588 0.29489 0.40899 0.0
C1705 C 0.98378 0.26908 0.44977 0.0
C1706 C 0.94224 0.29423 0.39637 0.0
C1707 C 0.92594 0.31571 0.39428 0.0
C1708 C 0.9333 0.33818 0.40458 0.0
C1709 C 0.9562 0.33832 0.41798 0.0
C1710 C 0.97237 0.31701 0.42004 0.0
H1711 H 0.98618 0.25309 0.46112 0.0
H1712 H 0.99471 0.28541 0.45667 0.0
H1713 H 0.96199 0.27388 0.44858 0.0
H1714 H 0.93692 0.27737 0.38758 0.0
H1715 H 0.90854 0.3151 0.38371 0.0
H1716 H 0.3864 0.77502 0.39037 0.0
H1717 H 0.42431 0.74713 0.39937 0.0
H1718 H 0.46723 0.80985 0.42705 0.0
H1719 H 0.42909 0.8372 0.41937 0.0
H1720 H 0.47322 0.749 0.38394 0.0
H1721 H 0.48202 0.75882 0.47191 0.0
H1722 H 0.4529 0.76999 0.45727 0.0
H1723 H 0.48292 0.78905 0.45923 0.0
C1724 C 0.40363 0.78267 0.39888 0.0
C1725 C 0.40484 0.80839 0.40391 0.0
C1726 C 0.42537 0.76676 0.40391 0.0
C1727 C 0.44863 0.77628 0.4141 0.0
C1728 C 0.44939 0.80181 0.41968 0.0
H1729 H 0.60702 0.70993 0.39578 0.0
H1730 H 0.56911 0.73944 0.39774 0.0
C1731 C 0.42765 0.81757 0.41492 0.0
C1732 C 0.47304 0.76026 0.41718 0.0
H1733 H 0.52181 0.74384 0.4536 0.0
C1734 C 0.48364 0.74768 0.39925 0.0
C1735 C 0.4866 0.75822 0.43719 0.0
C1736 C 0.47532 0.76953 0.45751 0.0
C1737 C 0.50765 0.73369 0.40061 0.0
C1738 C 0.5221 0.733 0.42028 0.0
C1739 C 0.51114 0.74494 0.43839 0.0
C1740 C 0.54785 0.71879 0.4225 0.0
C1741 C 0.51694 0.71936 0.38101 0.0
C1742 C 0.54977 0.69883 0.4372 0.0
C1743 C 0.57182 0.6824 0.43655 0.0
C1744 C 0.59211 0.6855 0.42097 0.0
C1745 C 0.59158 0.70701 0.40785 0.0
C1746 C 0.56972 0.72365 0.40874 0.0
H1747 H 0.50009 0.71611 0.36952 0.0
H1748 H 0.53268 0.7304 0.37253 0.0
H1749 H 0.52571 0.70086 0.38552 0.0
H1750 H 0.53331 0.69488 0.44815 0.0
H1751 H 0.57154 0.66595 0.44683 0.0
H1752 H 0.58535 0.81903 0.1163 0.0
H1753 H 0.5519 0.78481 0.11374 0.0
H1754 H 0.49623 0.83531 0.08225 0.0
H1755 H 0.52936 0.86867 0.08386 0.0
H1756 H 0.50266 0.78154 0.13126 0.0
H1757 H 0.49004 0.77657 0.04341 0.0
H1758 H 0.51748 0.79361 0.0557 0.0
H1759 H 0.48478 0.80814 0.05243 0.0
C1760 C 0.56623 0.82255 0.10836 0.0
C1761 C 0.56014 0.84658 0.10022 0.0
C1762 C 0.54704 0.80307 0.10703 0.0
C1763 C 0.52161 0.80731 0.09745 0.0
C1764 C 0.51586 0.83122 0.08914 0.0
H1765 H 0.37673 0.71897 0.12741 0.0
H1766 H 0.40957 0.75324 0.12447 0.0
C1767 C 0.53489 0.85044 0.09029 0.0
C1768 C 0.50019 0.78759 0.09712 0.0
H1769 H 0.45289 0.76075 0.0644 0.0
C1770 C 0.49202 0.77664 0.1166 0.0
C1771 C 0.48637 0.78099 0.07799 0.0
C1772 C 0.49535 0.79026 0.0562 0.0
C1773 C 0.47007 0.75984 0.11758 0.0
C1774 C 0.45518 0.75442 0.09859 0.0
C1775 C 0.46381 0.76504 0.07907 0.0
C1776 C 0.43193 0.73643 0.0982 0.0
C1777 C 0.46354 0.74789 0.13897 0.0
C1778 C 0.43134 0.71711 0.08282 0.0
C1779 C 0.41154 0.69847 0.08361 0.0
C1780 C 0.39246 0.69802 0.10031 0.0
C1781 C 0.39134 0.71857 0.11447 0.0
C1782 C 0.41064 0.73784 0.11317 0.0
H1783 H 0.48121 0.74819 0.14998 0.0
H1784 H 0.44716 0.75871 0.14685 0.0
H1785 H 0.45679 0.72813 0.13704 0.0
H1786 H 0.447 0.71567 0.07074 0.0
H1787 H 0.41234 0.68335 0.07199 0.0
H1788 H 0.9405 0.16989 0.06036 0.0
H1789 H 0.96858 0.20762 0.05964 0.0
H1790 H 0.93195 0.23298 0.11855 0.0
H1791 H 0.90346 0.19513 0.11927 0.0
H1792 H 0.94653 0.27257 0.08386 0.0
H1793 H 0.02903 0.20759 0.10863 0.0
H1794 H 0.00961 0.19805 0.08559 0.0
H1795 H 0.99372 0.19971 0.11146 0.0
C1796 C 0.93774 0.18392 0.07279 0.0
C1797 C 0.91993 0.17952 0.08995 0.0
C1798 C 0.95388 0.20539 0.07239 0.0
C1799 C 0.95266 0.22279 0.08923 0.0
C1800 C 0.9332 0.21966 0.10543 0.0
H1801 H 0.07624 0.32627 0.13169 0.0
H1802 H 0.04334 0.29232 0.128 0.0
C1803 C 0.91681 0.19813 0.10577 0.0
C1804 C 0.97389 0.24229 0.09108 0.0
H1805 H 0.04155 0.24936 0.10031 0.0
C1806 C 0.96729 0.26758 0.08747 0.0
C1807 C 0.0009 0.23566 0.09605 0.0
C1808 C 0.00885 0.20882 0.10084 0.0
C1809 C 0.98722 0.28642 0.08833 0.0
C1810 C 0.01437 0.27966 0.09266 0.0
C1811 C 0.0208 0.25442 0.09668 0.0
C1812 C 0.03619 0.29868 0.09413 0.0
C1813 C 0.97905 0.31348 0.08496 0.0
C1814 C 0.04399 0.31276 0.07607 0.0
C1815 C 0.0631 0.33205 0.07807 0.0
C1816 C 0.07453 0.33762 0.09821 0.0
C1817 C 0.06778 0.32248 0.11596 0.0
C1818 C 0.04887 0.30315 0.11391 0.0
H1819 H 0.95681 0.31605 0.08603 0.0
H1820 H 0.98894 0.32581 0.09703 0.0
H1821 H 0.98568 0.3197 0.06878 0.0
H1822 H 0.03476 0.30927 0.06056 0.0
H1823 H 0.06771 0.34347 0.06413 0.0
H1824 H 0.91497 0.82528 0.63252 0.0
H1825 H 0.95262 0.79589 0.62969 0.0
H1826 H 0.94585 0.79751 0.56061 0.0
H1827 H 0.90867 0.82782 0.56329 0.0
H1828 H 0.9584 0.74987 0.61318 0.0
H1829 H 0.02442 0.81602 0.56866 0.0
H1830 H 0.99314 0.82576 0.58096 0.0
H1831 H 0.99286 0.80997 0.55541 0.0
C1832 C 0.92137 0.81934 0.61669 0.0
C1833 C 0.90905 0.82926 0.59811 0.0
C1834 C 0.94294 0.80249 0.61511 0.0
C1835 C 0.95267 0.79503 0.59493 0.0
C1836 C 0.93928 0.8036 0.57635 0.0
H1837 H 0.0682 0.68552 0.5536 0.0
H1838 H 0.03728 0.72121 0.55615 0.0
C1839 C 0.91773 0.82063 0.57791 0.0
C1840 C 0.97684 0.77841 0.59353 0.0
H1841 H 0.0405 0.77403 0.57243 0.0
C1842 C 0.9764 0.75526 0.6044 0.0
C1843 C 0.00049 0.78552 0.58222 0.0
C1844 C 0.00295 0.81077 0.57132 0.0
C1845 C -0.00142 0.73878 0.60381 0.0
C1846 C 0.02199 0.74569 0.59219 0.0
C1847 C 0.02258 0.76887 0.58142 0.0
C1848 C 0.04506 0.72806 0.58982 0.0
C1849 C 0.99657 0.71373 0.61513 0.0
C1850 C 0.06094 0.72108 0.60759 0.0
C1851 C 0.07898 0.70081 0.60611 0.0
C1852 C 0.08107 0.68707 0.58689 0.0
C1853 C 0.06696 0.69567 0.56865 0.0
C1854 C 0.0492 0.71602 0.57009 0.0
H1855 H 0.97564 0.70961 0.62051 0.0
H1856 H 0.00341 0.69832 0.6044 0.0
H1857 H 0.00993 0.71382 0.62947 0.0
H1858 H 0.05823 0.73035 0.62293 0.0
H1859 H 0.08937 0.69465 0.62047 0.0
H1860 H 0.42305 0.32653 0.58317 0.0
H1861 H 0.45679 0.29343 0.57693 0.0
H1862 H 0.48791 0.30412 0.64104 0.0
H1863 H 0.45411 0.33664 0.64749 0.0
H1864 H 0.51311 0.29945 0.57833 0.0
H1865 H 0.48024 0.22814 0.63779 0.0
H1866 H 0.45871 0.25371 0.6293 0.0
H1867 H 0.48451 0.25883 0.64922 0.0
C1868 C 0.43667 0.32137 0.59609 0.0
C1869 C 0.43594 0.33422 0.61581 0.0
C1870 C 0.45608 0.30263 0.59245 0.0
C1871 C 0.4748 0.29618 0.60856 0.0
C1872 C 0.47347 0.30846 0.62847 0.0
H1873 H 0.60875 0.19437 0.62444 0.0
H1874 H 0.58026 0.2319 0.62578 0.0
C1875 C 0.45419 0.32715 0.6321 0.0
C1876 C 0.49664 0.27761 0.60437 0.0
H1877 H 0.52431 0.22302 0.6232 0.0
C1878 C 0.51546 0.28261 0.588 0.0
C1879 C 0.49976 0.2557 0.61706 0.0
C1880 C 0.47959 0.2486 0.63419 0.0
C1881 C 0.53765 0.26661 0.58437 0.0
C1882 C 0.54095 0.24496 0.5973 0.0
C1883 C 0.52197 0.23983 0.61347 0.0
C1884 C 0.56327 0.22665 0.59406 0.0
C1885 C 0.55773 0.27327 0.56708 0.0
C1886 C 0.56444 0.2121 0.57526 0.0
C1887 C 0.58093 0.19072 0.57439 0.0
C1888 C 0.59615 0.18337 0.59246 0.0
C1889 C 0.59727 0.19958 0.61028 0.0
C1890 C 0.58079 0.22091 0.61114 0.0
H1891 H 0.55614 0.29334 0.56226 0.0
H1892 H 0.57871 0.26945 0.57255 0.0
H1893 H 0.55377 0.26154 0.55269 0.0
H1894 H 0.55091 0.21599 0.56197 0.0
H1895 H 0.57938 0.17853 0.56051 0.0
H1896 H 0.37291 0.20076 0.88172 0.0
H1897 H 0.40523 0.23553 0.88269 0.0
H1898 H 0.40387 0.23391 0.95204 0.0
H1899 H 0.37271 0.19789 0.95088 0.0
H1900 H 0.40317 0.28211 0.8992 0.0
H1901 H 0.48363 0.22747 0.94079 0.0
H1902 H 0.45177 0.21346 0.93356 0.0
H1903 H 0.45405 0.23344 0.95664 0.0
C1904 C 0.37979 0.2077 0.89709 0.0
C1905 C 0.37106 0.19633 0.91615 0.0
C1906 C 0.39799 0.22773 0.89771 0.0
C1907 C 0.40756 0.23698 0.91746 0.0
C1908 C 0.39735 0.2267 0.93662 0.0
H1909 H 0.5407 0.35008 0.91858 0.0
H1910 H 0.50469 0.32284 0.9332 0.0
C1911 C 0.37927 0.20642 0.93596 0.0
C1912 C 0.42849 0.25705 0.91753 0.0
H1913 H 0.49504 0.26836 0.92904 0.0
C1914 C 0.42313 0.27919 0.906 0.0
C1915 C 0.45446 0.25357 0.9268 0.0
C1916 C 0.46146 0.23064 0.94 0.0
C1917 C 0.44332 0.29716 0.90235 0.0
C1918 C 0.4698 0.2927 0.91006 0.0
C1919 C 0.47478 0.27155 0.92295 0.0
C1920 C 0.49292 0.30789 0.90223 0.0
C1921 C 0.43636 0.32042 0.88958 0.0
C1922 C 0.49881 0.30771 0.88024 0.0
C1923 C 0.51904 0.32305 0.87198 0.0
C1924 C 0.53415 0.33885 0.88552 0.0
C1925 C 0.52931 0.33814 0.90778 0.0
C1926 C 0.50875 0.32269 0.91611 0.0
H1927 H 0.41454 0.32509 0.89094 0.0
H1928 H 0.4484 0.33685 0.89501 0.0
H1929 H 0.44084 0.31702 0.87236 0.0
H1930 H 0.48732 0.29597 0.86932 0.0
H1931 H 0.52253 0.32278 0.85479 0.0
H1932 H 0.88781 0.6944 0.88673 0.0
H1933 H 0.92723 0.72205 0.88594 0.0
H1934 H 0.94371 0.70456 0.95236 0.0
H1935 H 0.90406 0.67704 0.95331 0.0
H1936 H 0.95287 0.75403 0.94342 0.0
H1937 H 0.00354 0.69433 0.88275 0.0
H1938 H 0.97112 0.70546 0.87396 0.0
H1939 H 0.97335 0.68453 0.89664 0.0
C1940 C 0.89965 0.69663 0.90123 0.0
C1941 C 0.893 0.68324 0.91998 0.0
C1942 C 0.92231 0.71231 0.90072 0.0
C1943 C 0.93896 0.71475 0.91889 0.0
C1944 C 0.93136 0.70274 0.93806 0.0
H1945 H 0.10434 0.77521 0.90979 0.0
H1946 H 0.06568 0.74724 0.91639 0.0
C1947 C 0.90856 0.68714 0.93862 0.0
C1948 C 0.96459 0.72932 0.9177 0.0
H1949 H 0.02375 0.73427 0.88972 0.0
C1950 C 0.96844 0.74961 0.93178 0.0
C1951 C 0.98526 0.72319 0.90286 0.0
C1952 C 0.9833 0.70053 0.88835 0.0
C1953 C 0.99185 0.76452 0.93084 0.0
C1954 C 0.01176 0.75933 0.91511 0.0
C1955 C 0.0084 0.73844 0.90161 0.0
C1956 C 0.0354 0.77612 0.91165 0.0
C1957 C 0.99506 0.78566 0.94679 0.0
C1958 C 0.03126 0.80149 0.9065 0.0
C1959 C 0.05316 0.81742 0.90282 0.0
C1960 C 0.07988 0.80834 0.90389 0.0
C1961 C 0.08408 0.78283 0.90887 0.0
C1962 C 0.062 0.76683 0.91263 0.0
H1963 H 0.98324 0.78206 0.96164 0.0
H1964 H 0.01658 0.78842 0.95127 0.0
H1965 H 0.9874 0.80335 0.93953 0.0
H1966 H 0.01099 0.80901 0.90512 0.0
H1967 H 0.04902 0.83696 0.89918 0.0
loop_
_geom_bond_atom_site_label_1
_geom_bond_atom_site_label_2
_geom_bond_distance
_geom_bond_site_symmetry_2
_ccdc_geom_bond_type
C0 C1 1.351 . S
C0 N3 1.368 . S
C0 H5 0.931 . S
C1 C0 1.351 . S
C1 N2 1.373 . S
C1 H29 0.930 . S
N2 C1 1.373 . S
N2 C4 1.340 . S
N3 C0 1.368 . S
N3 C4 1.321 . S
N3 Co6 2.135 . S
C4 N2 1.340 . S
C4 N3 1.321 . S
C4 H28 0.930 . S
H5 C0 0.931 . S
Co6 N3 2.135 . S
Co6 N9 2.121 . S
Co6 O14 2.055 . S
Co6 O17 2.039 . S
Co6 N20 2.140 . S
C7 O8 1.227 . S
C7 O17 1.265 . S
O8 C7 1.227 . S
N9 Co6 2.121 . S
N9 C11 1.375 . S
N9 C12 1.313 . S
C10 C11 1.338 . S
C10 N13 1.377 . S
C10 H30 0.930 . S
C11 N9 1.375 . S
C11 C10 1.338 . S
C11 H15 0.931 . S
C12 N9 1.313 . S
C12 N13 1.344 . S
C12 H16 0.930 . S
N13 C10 1.377 . S
N13 C12 1.344 . S
O14 Co6 2.055 . S
O14 C18 1.253 . S
H15 C11 0.931 . S
H16 C12 0.930 . S
O17 Co6 2.039 . S
O17 C7 1.265 . S
C18 O14 1.253 . S
C18 O19 1.227 . S
O19 C18 1.227 . S
N20 Co6 2.140 . S
N20 C23 1.346 . S
N20 C24 1.345 . S
C21 C22 1.387 . S
C21 C25 1.391 . S
C22 C21 1.387 . S
C22 C23 1.369 . S
C22 H31 0.929 . S
C23 N20 1.346 . S
C23 C22 1.369 . S
C23 H26 0.928 . S
C24 N20 1.345 . S
C24 C25 1.371 . S
C24 H27 0.931 . S
C25 C21 1.391 . S
C25 C24 1.371 . S
C25 H32 0.930 . S
H26 C23 0.928 . S
H27 C24 0.931 . S
H28 C4 0.930 . S
H29 C1 0.930 . S
H30 C10 0.930 . S
H31 C22 0.929 . S
H32 C25 0.930 . S
C33 C34 1.351 . S
C33 N36 1.368 . S
C33 H38 0.931 . S
C34 C33 1.351 . S
C34 N35 1.373 . S
C34 H62 0.930 . S
N35 C34 1.373 . S
N35 C37 1.340 . S
N36 C33 1.368 . S
N36 C37 1.321 . S
N36 Co39 2.135 . S
C37 N35 1.340 . S
C37 N36 1.321 . S
C37 H61 0.930 . S
H38 C33 0.931 . S
Co39 N36 2.135 . S
Co39 N42 2.121 . S
Co39 O47 2.055 . S
Co39 O50 2.039 . S
Co39 N53 2.140 . S
C40 O41 1.227 . S
C40 O50 1.265 . S
O41 C40 1.227 . S
N42 Co39 2.121 . S
N42 C44 1.375 . S
N42 C45 1.313 . S
C43 C44 1.338 . S
C43 N46 1.377 . S
C43 H63 0.930 . S
C44 N42 1.375 . S
C44 C43 1.338 . S
C44 H48 0.931 . S
C45 N42 1.313 . S
C45 N46 1.344 . S
C45 H49 0.930 . S
N46 C43 1.377 . S
N46 C45 1.344 . S
O47 Co39 2.055 . S
O47 C51 1.253 . S
H48 C44 0.931 . S
H49 C45 0.930 . S
O50 Co39 2.039 . S
O50 C40 1.265 . S
C51 O47 1.253 . S
C51 O52 1.227 . S
O52 C51 1.227 . S
N53 Co39 2.140 . S
N53 C56 1.346 . S
N53 C57 1.345 . S
C54 C55 1.387 . S
C54 C58 1.391 . S
C55 C54 1.387 . S
C55 C56 1.369 . S
C55 H64 0.929 . S
C56 N53 1.346 . S
C56 C55 1.369 . S
C56 H59 0.928 . S
C57 N53 1.345 . S
C57 C58 1.371 . S
C57 H60 0.931 . S
C58 C54 1.391 . S
C58 C57 1.371 . S
C58 H65 0.930 . S
H59 C56 0.928 . S
H60 C57 0.931 . S
H61 C37 0.930 . S
H62 C34 0.930 . S
H63 C43 0.930 . S
H64 C55 0.929 . S
H65 C58 0.930 . S
C66 C67 1.351 . S
C66 N69 1.368 . S
C66 H71 0.931 . S
C67 C66 1.351 . S
C67 N68 1.373 . S
C67 H95 0.930 . S
N68 C67 1.373 . S
N68 C70 1.340 . S
N69 C66 1.368 . S
N69 C70 1.321 . S
N69 Co72 2.135 . S
C70 N68 1.340 . S
C70 N69 1.321 . S
C70 H94 0.930 . S
H71 C66 0.931 . S
Co72 N69 2.135 . S
Co72 N75 2.121 . S
Co72 O80 2.055 . S
Co72 O83 2.039 . S
Co72 N86 2.140 . S
C73 O74 1.227 . S
C73 O83 1.265 . S
O74 C73 1.227 . S
N75 Co72 2.121 . S
N75 C77 1.375 . S
N75 C78 1.313 . S
C76 C77 1.338 . S
C76 N79 1.377 . S
C76 H96 0.930 . S
C77 N75 1.375 . S
C77 C76 1.338 . S
C77 H81 0.931 . S
C78 N75 1.313 . S
C78 N79 1.344 . S
C78 H82 0.930 . S
N79 C76 1.377 . S
N79 C78 1.344 . S
O80 Co72 2.055 . S
O80 C84 1.253 . S
H81 C77 0.931 . S
H82 C78 0.930 . S
O83 Co72 2.039 . S
O83 C73 1.265 . S
C84 O80 1.253 . S
C84 O85 1.227 . S
O85 C84 1.227 . S
N86 Co72 2.140 . S
N86 C89 1.346 . S
N86 C90 1.345 . S
C87 C88 1.387 . S
C87 C91 1.391 . S
C88 C87 1.387 . S
C88 C89 1.369 . S
C88 H97 0.929 . S
C89 N86 1.346 . S
C89 C88 1.369 . S
C89 H92 0.928 . S
C90 N86 1.345 . S
C90 C91 1.371 . S
C90 H93 0.931 . S
C91 C87 1.391 . S
C91 C90 1.371 . S
C91 H98 0.930 . S
H92 C89 0.928 . S
H93 C90 0.931 . S
H94 C70 0.930 . S
H95 C67 0.930 . S
H96 C76 0.930 . S
H97 C88 0.929 . S
H98 C91 0.930 . S
C99 C100 1.351 . S
C99 N102 1.368 . S
C99 H104 0.931 . S
C100 C99 1.351 . S
C100 N101 1.373 . S
C100 H128 0.930 . S
N101 C100 1.373 . S
N101 C103 1.340 . S
N102 C99 1.368 . S
N102 C103 1.321 . S
N102 Co105 2.135 . S
C103 N101 1.340 . S
C103 N102 1.321 . S
C103 H127 0.930 . S
H104 C99 0.931 . S
Co105 N102 2.135 . S
Co105 N108 2.121 . S
Co105 O113 2.055 . S
Co105 O116 2.039 . S
Co105 N119 2.140 . S
C106 O107 1.227 . S
C106 O116 1.265 . S
O107 C106 1.227 . S
N108 Co105 2.121 . S
N108 C110 1.375 . S
N108 C111 1.313 . S
C109 C110 1.338 . S
C109 N112 1.377 . S
C109 H129 0.930 . S
C110 N108 1.375 . S
C110 C109 1.338 . S
C110 H114 0.931 . S
C111 N108 1.313 . S
C111 N112 1.344 . S
C111 H115 0.930 . S
N112 C109 1.377 . S
N112 C111 1.344 . S
O113 Co105 2.055 . S
O113 C117 1.253 . S
H114 C110 0.931 . S
H115 C111 0.930 . S
O116 Co105 2.039 . S
O116 C106 1.265 . S
C117 O113 1.253 . S
C117 O118 1.227 . S
O118 C117 1.227 . S
N119 Co105 2.140 . S
N119 C122 1.346 . S
N119 C123 1.345 . S
C120 C121 1.387 . S
C120 C124 1.391 . S
C121 C120 1.387 . S
C121 C122 1.369 . S
C121 H130 0.929 . S
C122 N119 1.346 . S
C122 C121 1.369 . S
C122 H125 0.928 . S
C123 N119 1.345 . S
C123 C124 1.371 . S
C123 H126 0.931 . S
C124 C120 1.391 . S
C124 C123 1.371 . S
C124 H131 0.930 . S
H125 C122 0.928 . S
H126 C123 0.931 . S
H127 C103 0.930 . S
H128 C100 0.930 . S
H129 C109 0.930 . S
H130 C121 0.929 . S
H131 C124 0.930 . S
C132 C133 1.351 . S
C132 N135 1.368 . S
C132 H137 0.931 . S
C133 C132 1.351 . S
C133 N134 1.373 . S
C133 H161 0.930 . S
N134 C133 1.373 . S
N134 C136 1.340 . S
N135 C132 1.368 . S
N135 C136 1.321 . S
N135 Co138 2.135 . S
C136 N134 1.340 . S
C136 N135 1.321 . S
C136 H160 0.930 . S
H137 C132 0.931 . S
Co138 N135 2.135 . S
Co138 N141 2.121 . S
Co138 O146 2.055 . S
Co138 O149 2.039 . S
Co138 N152 2.140 . S
C139 O140 1.227 . S
C139 O149 1.265 . S
O140 C139 1.227 . S
N141 Co138 2.121 . S
N141 C143 1.375 . S
N141 C144 1.313 . S
C142 C143 1.338 . S
C142 N145 1.377 . S
C142 H162 0.930 . S
C143 N141 1.375 . S
C143 C142 1.338 . S
C143 H147 0.931 . S
C144 N141 1.313 . S
C144 N145 1.344 . S
C144 H148 0.930 . S
N145 C142 1.377 . S
N145 C144 1.344 . S
O146 Co138 2.055 . S
O146 C150 1.253 . S
H147 C143 0.931 . S
H148 C144 0.930 . S
O149 Co138 2.039 . S
O149 C139 1.265 . S
C150 O146 1.253 . S
C150 O151 1.227 . S
O151 C150 1.227 . S
N152 Co138 2.140 . S
N152 C155 1.346 . S
N152 C156 1.345 . S
C153 C154 1.387 . S
C153 C157 1.391 . S
C154 C153 1.387 . S
C154 C155 1.369 . S
C154 H163 0.929 . S
C155 N152 1.346 . S
C155 C154 1.369 . S
C155 H158 0.928 . S
C156 N152 1.345 . S
C156 C157 1.371 . S
C156 H159 0.931 . S
C157 C153 1.391 . S
C157 C156 1.371 . S
C157 H164 0.930 . S
H158 C155 0.928 . S
H159 C156 0.931 . S
H160 C136 0.930 . S
H161 C133 0.930 . S
H162 C142 0.930 . S
H163 C154 0.929 . S
H164 C157 0.930 . S
C165 C166 1.351 . S
C165 N168 1.368 . S
C165 H170 0.931 . S
C166 C165 1.351 . S
C166 N167 1.373 . S
C166 H194 0.930 . S
N167 C166 1.373 . S
N167 C169 1.340 . S
N168 C165 1.368 . S
N168 C169 1.321 . S
N168 Co171 2.135 . S
C169 N167 1.340 . S
C169 N168 1.321 . S
C169 H193 0.930 . S
H170 C165 0.931 . S
Co171 N168 2.135 . S
Co171 N174 2.121 . S
Co171 O179 2.055 . S
Co171 O182 2.039 . S
Co171 N185 2.140 . S
C172 O173 1.227 . S
C172 O182 1.265 . S
O173 C172 1.227 . S
N174 Co171 2.121 . S
N174 C176 1.375 . S
N174 C177 1.313 . S
C175 C176 1.338 . S
C175 N178 1.377 . S
C175 H195 0.930 . S
C176 N174 1.375 . S
C176 C175 1.338 . S
C176 H180 0.931 . S
C177 N174 1.313 . S
C177 N178 1.344 . S
C177 H181 0.930 . S
N178 C175 1.377 . S
N178 C177 1.344 . S
O179 Co171 2.055 . S
O179 C183 1.253 . S
H180 C176 0.931 . S
H181 C177 0.930 . S
O182 Co171 2.039 . S
O182 C172 1.265 . S
C183 O179 1.253 . S
C183 O184 1.227 . S
O184 C183 1.227 . S
N185 Co171 2.140 . S
N185 C188 1.346 . S
N185 C189 1.345 . S
C186 C187 1.387 . S
C186 C190 1.391 . S
C187 C186 1.387 . S
C187 C188 1.369 . S
C187 H196 0.929 . S
C188 N185 1.346 . S
C188 C187 1.369 . S
C188 H191 0.928 . S
C189 N185 1.345 . S
C189 C190 1.371 . S
C189 H192 0.931 . S
C190 C186 1.391 . S
C190 C189 1.371 . S
C190 H197 0.930 . S
H191 C188 0.928 . S
H192 C189 0.931 . S
H193 C169 0.930 . S
H194 C166 0.930 . S
H195 C175 0.930 . S
H196 C187 0.929 . S
H197 C190 0.930 . S
C198 C199 1.351 . S
C198 N201 1.368 . S
C198 H203 0.931 . S
C199 C198 1.351 . S
C199 N200 1.373 . S
C199 H227 0.930 . S
N200 C199 1.373 . S
N200 C202 1.340 . S
N201 C198 1.368 . S
N201 C202 1.321 . S
N201 Co204 2.135 . S
C202 N200 1.340 . S
C202 N201 1.321 . S
C202 H226 0.930 . S
H203 C198 0.931 . S
Co204 N201 2.135 . S
Co204 N207 2.121 . S
Co204 O212 2.055 . S
Co204 O215 2.039 . S
Co204 N218 2.140 . S
C205 O206 1.227 . S
C205 O215 1.265 . S
O206 C205 1.227 . S
N207 Co204 2.121 . S
N207 C209 1.375 . S
N207 C210 1.313 . S
C208 C209 1.338 . S
C208 N211 1.377 . S
C208 H228 0.930 . S
C209 N207 1.375 . S
C209 C208 1.338 . S
C209 H213 0.931 . S
C210 N207 1.313 . S
C210 N211 1.344 . S
C210 H214 0.930 . S
N211 C208 1.377 . S
N211 C210 1.344 . S
O212 Co204 2.055 . S
O212 C216 1.253 . S
H213 C209 0.931 . S
H214 C210 0.930 . S
O215 Co204 2.039 . S
O215 C205 1.265 . S
C216 O212 1.253 . S
C216 O217 1.227 . S
O217 C216 1.227 . S
N218 Co204 2.140 . S
N218 C221 1.346 . S
N218 C222 1.345 . S
C219 C220 1.387 . S
C219 C223 1.391 . S
C220 C219 1.387 . S
C220 C221 1.369 . S
C220 H229 0.929 . S
C221 N218 1.346 . S
C221 C220 1.369 . S
C221 H224 0.928 . S
C222 N218 1.345 . S
C222 C223 1.371 . S
C222 H225 0.931 . S
C223 C219 1.391 . S
C223 C222 1.371 . S
C223 H230 0.930 . S
H224 C221 0.928 . S
H225 C222 0.931 . S
H226 C202 0.930 . S
H227 C199 0.930 . S
H228 C208 0.930 . S
H229 C220 0.929 . S
H230 C223 0.930 . S
C231 C232 1.351 . S
C231 N234 1.368 . S
C231 H236 0.931 . S
C232 C231 1.351 . S
C232 N233 1.373 . S
C232 H260 0.930 . S
N233 C232 1.373 . S
N233 C235 1.340 . S
N234 C231 1.368 . S
N234 C235 1.321 . S
N234 Co237 2.135 . S
C235 N233 1.340 . S
C235 N234 1.321 . S
C235 H259 0.930 . S
H236 C231 0.931 . S
Co237 N234 2.135 . S
Co237 N240 2.121 . S
Co237 O245 2.055 . S
Co237 O248 2.039 . S
Co237 N251 2.140 . S
C238 O239 1.227 . S
C238 O248 1.265 . S
O239 C238 1.227 . S
N240 Co237 2.121 . S
N240 C242 1.375 . S
N240 C243 1.313 . S
C241 C242 1.338 . S
C241 N244 1.377 . S
C241 H261 0.930 . S
C242 N240 1.375 . S
C242 C241 1.338 . S
C242 H246 0.931 . S
C243 N240 1.313 . S
C243 N244 1.344 . S
C243 H247 0.930 . S
N244 C241 1.377 . S
N244 C243 1.344 . S
O245 Co237 2.055 . S
O245 C249 1.253 . S
H246 C242 0.931 . S
H247 C243 0.930 . S
O248 Co237 2.039 . S
O248 C238 1.265 . S
C249 O245 1.253 . S
C249 O250 1.227 . S
O250 C249 1.227 . S
N251 Co237 2.140 . S
N251 C254 1.346 . S
N251 C255 1.345 . S
C252 C253 1.387 . S
C252 C256 1.391 . S
C253 C252 1.387 . S
C253 C254 1.369 . S
C253 H262 0.929 . S
C254 N251 1.346 . S
C254 C253 1.369 . S
C254 H257 0.928 . S
C255 N251 1.345 . S
C255 C256 1.371 . S
C255 H258 0.931 . S
C256 C252 1.391 . S
C256 C255 1.371 . S
C256 H263 0.930 . S
H257 C254 0.928 . S
H258 C255 0.931 . S
H259 C235 0.930 . S
H260 C232 0.930 . S
H261 C241 0.930 . S
H262 C253 0.929 . S
H263 C256 0.930 . S
C264 C265 1.351 . S
C264 N267 1.368 . S
C264 H269 0.931 . S
C265 C264 1.351 . S
C265 N266 1.373 . S
C265 H293 0.930 . S
N266 C265 1.373 . S
N266 C268 1.340 . S
N267 C264 1.368 . S
N267 C268 1.321 . S
N267 Co270 2.135 . S
C268 N266 1.340 . S
C268 N267 1.321 . S
C268 H292 0.930 . S
H269 C264 0.931 . S
Co270 N267 2.135 . S
Co270 N273 2.121 . S
Co270 O278 2.055 . S
Co270 O281 2.039 . S
Co270 N284 2.140 . S
C271 O272 1.227 . S
C271 O281 1.265 . S
O272 C271 1.227 . S
N273 Co270 2.121 . S
N273 C275 1.375 . S
N273 C276 1.313 . S
C274 C275 1.338 . S
C274 N277 1.377 . S
C274 H294 0.930 . S
C275 N273 1.375 . S
C275 C274 1.338 . S
C275 H279 0.931 . S
C276 N273 1.313 . S
C276 N277 1.344 . S
C276 H280 0.930 . S
N277 C274 1.377 . S
N277 C276 1.344 . S
O278 Co270 2.055 . S
O278 C282 1.253 . S
H279 C275 0.931 . S
H280 C276 0.930 . S
O281 Co270 2.039 . S
O281 C271 1.265 . S
C282 O278 1.253 . S
C282 O283 1.227 . S
O283 C282 1.227 . S
N284 Co270 2.140 . S
N284 C287 1.346 . S
N284 C288 1.345 . S
C285 C286 1.387 . S
C285 C289 1.391 . S
C286 C285 1.387 . S
C286 C287 1.369 . S
C286 H295 0.929 . S
C287 N284 1.346 . S
C287 C286 1.369 . S
C287 H290 0.928 . S
C288 N284 1.345 . S
C288 C289 1.371 . S
C288 H291 0.931 . S
C289 C285 1.391 . S
C289 C288 1.371 . S
C289 H296 0.930 . S
H290 C287 0.928 . S
H291 C288 0.931 . S
H292 C268 0.930 . S
H293 C265 0.930 . S
H294 C274 0.930 . S
H295 C286 0.929 . S
H296 C289 0.930 . S
C297 C298 1.351 . S
C297 N300 1.368 . S
C297 H302 0.931 . S
C298 C297 1.351 . S
C298 N299 1.373 . S
C298 H326 0.930 . S
N299 C298 1.373 . S
N299 C301 1.340 . S
N300 C297 1.368 . S
N300 C301 1.321 . S
N300 Co303 2.135 . S
C301 N299 1.340 . S
C301 N300 1.321 . S
C301 H325 0.930 . S
H302 C297 0.931 . S
Co303 N300 2.135 . S
Co303 N306 2.121 . S
Co303 O311 2.055 . S
Co303 O314 2.039 . S
Co303 N317 2.140 . S
C304 O305 1.227 . S
C304 O314 1.265 . S
O305 C304 1.227 . S
N306 Co303 2.121 . S
N306 C308 1.375 . S
N306 C309 1.313 . S
C307 C308 1.338 . S
C307 N310 1.377 . S
C307 H327 0.930 . S
C308 N306 1.375 . S
C308 C307 1.338 . S
C308 H312 0.931 . S
C309 N306 1.313 . S
C309 N310 1.344 . S
C309 H313 0.930 . S
N310 C307 1.377 . S
N310 C309 1.344 . S
O311 Co303 2.055 . S
O311 C315 1.253 . S
H312 C308 0.931 . S
H313 C309 0.930 . S
O314 Co303 2.039 . S
O314 C304 1.265 . S
C315 O311 1.253 . S
C315 O316 1.227 . S
O316 C315 1.227 . S
N317 Co303 2.140 . S
N317 C320 1.346 . S
N317 C321 1.345 . S
C318 C319 1.387 . S
C318 C322 1.391 . S
C319 C318 1.387 . S
C319 C320 1.369 . S
C319 H328 0.929 . S
C320 N317 1.346 . S
C320 C319 1.369 . S
C320 H323 0.928 . S
C321 N317 1.345 . S
C321 C322 1.371 . S
C321 H324 0.931 . S
C322 C318 1.391 . S
C322 C321 1.371 . S
C322 H329 0.930 . S
H323 C320 0.928 . S
H324 C321 0.931 . S
H325 C301 0.930 . S
H326 C298 0.930 . S
H327 C307 0.930 . S
H328 C319 0.929 . S
H329 C322 0.930 . S
C330 C331 1.351 . S
C330 N333 1.368 . S
C330 H335 0.931 . S
C331 C330 1.351 . S
C331 N332 1.373 . S
C331 H359 0.930 . S
N332 C331 1.373 . S
N332 C334 1.340 . S
N333 C330 1.368 . S
N333 C334 1.321 . S
N333 Co336 2.135 . S
C334 N332 1.340 . S
C334 N333 1.321 . S
C334 H358 0.930 . S
H335 C330 0.931 . S
Co336 N333 2.135 . S
Co336 N339 2.121 . S
Co336 O344 2.055 . S
Co336 O347 2.039 . S
Co336 N350 2.140 . S
C337 O338 1.227 . S
C337 O347 1.265 . S
O338 C337 1.227 . S
N339 Co336 2.121 . S
N339 C341 1.375 . S
N339 C342 1.313 . S
C340 C341 1.338 . S
C340 N343 1.377 . S
C340 H360 0.930 . S
C341 N339 1.375 . S
C341 C340 1.338 . S
C341 H345 0.931 . S
C342 N339 1.313 . S
C342 N343 1.344 . S
C342 H346 0.930 . S
N343 C340 1.377 . S
N343 C342 1.344 . S
O344 Co336 2.055 . S
O344 C348 1.253 . S
H345 C341 0.931 . S
H346 C342 0.930 . S
O347 Co336 2.039 . S
O347 C337 1.265 . S
C348 O344 1.253 . S
C348 O349 1.227 . S
O349 C348 1.227 . S
N350 Co336 2.140 . S
N350 C353 1.346 . S
N350 C354 1.345 . S
C351 C352 1.387 . S
C351 C355 1.391 . S
C352 C351 1.387 . S
C352 C353 1.369 . S
C352 H361 0.929 . S
C353 N350 1.346 . S
C353 C352 1.369 . S
C353 H356 0.928 . S
C354 N350 1.345 . S
C354 C355 1.371 . S
C354 H357 0.931 . S
C355 C351 1.391 . S
C355 C354 1.371 . S
C355 H362 0.930 . S
H356 C353 0.928 . S
H357 C354 0.931 . S
H358 C334 0.930 . S
H359 C331 0.930 . S
H360 C340 0.930 . S
H361 C352 0.929 . S
H362 C355 0.930 . S
C363 C364 1.351 . S
C363 N366 1.368 . S
C363 H368 0.931 . S
C364 C363 1.351 . S
C364 N365 1.373 . S
C364 H392 0.930 . S
N365 C364 1.373 . S
N365 C367 1.340 . S
N366 C363 1.368 . S
N366 C367 1.321 . S
N366 Co369 2.135 . S
C367 N365 1.340 . S
C367 N366 1.321 . S
C367 H391 0.930 . S
H368 C363 0.931 . S
Co369 N366 2.135 . S
Co369 N372 2.121 . S
Co369 O377 2.055 . S
Co369 O380 2.039 . S
Co369 N383 2.140 . S
C370 O371 1.227 . S
C370 O380 1.265 . S
O371 C370 1.227 . S
N372 Co369 2.121 . S
N372 C374 1.375 . S
N372 C375 1.313 . S
C373 C374 1.338 . S
C373 N376 1.377 . S
C373 H393 0.930 . S
C374 N372 1.375 . S
C374 C373 1.338 . S
C374 H378 0.931 . S
C375 N372 1.313 . S
C375 N376 1.344 . S
C375 H379 0.930 . S
N376 C373 1.377 . S
N376 C375 1.344 . S
O377 Co369 2.055 . S
O377 C381 1.253 . S
H378 C374 0.931 . S
H379 C375 0.930 . S
O380 Co369 2.039 . S
O380 C370 1.265 . S
C381 O377 1.253 . S
C381 O382 1.227 . S
O382 C381 1.227 . S
N383 Co369 2.140 . S
N383 C386 1.346 . S
N383 C387 1.345 . S
C384 C385 1.387 . S
C384 C388 1.391 . S
C385 C384 1.387 . S
C385 C386 1.369 . S
C385 H394 0.929 . S
C386 N383 1.346 . S
C386 C385 1.369 . S
C386 H389 0.928 . S
C387 N383 1.345 . S
C387 C388 1.371 . S
C387 H390 0.931 . S
C388 C384 1.391 . S
C388 C387 1.371 . S
C388 H395 0.930 . S
H389 C386 0.928 . S
H390 C387 0.931 . S
H391 C367 0.930 . S
H392 C364 0.930 . S
H393 C373 0.930 . S
H394 C385 0.929 . S
H395 C388 0.930 . S
C396 C397 1.351 . S
C396 N399 1.368 . S
C396 H401 0.931 . S
C397 C396 1.351 . S
C397 N398 1.373 . S
C397 H425 0.930 . S
N398 C397 1.373 . S
N398 C400 1.340 . S
N399 C396 1.368 . S
N399 C400 1.321 . S
N399 Co402 2.135 . S
C400 N398 1.340 . S
C400 N399 1.321 . S
C400 H424 0.930 . S
H401 C396 0.931 . S
Co402 N399 2.135 . S
Co402 N405 2.121 . S
Co402 O410 2.055 . S
Co402 O413 2.039 . S
Co402 N416 2.140 . S
C403 O404 1.227 . S
C403 O413 1.265 . S
O404 C403 1.227 . S
N405 Co402 2.121 . S
N405 C407 1.375 . S
N405 C408 1.313 . S
C406 C407 1.338 . S
C406 N409 1.377 . S
C406 H426 0.930 . S
C407 N405 1.375 . S
C407 C406 1.338 . S
C407 H411 0.931 . S
C408 N405 1.313 . S
C408 N409 1.344 . S
C408 H412 0.930 . S
N409 C406 1.377 . S
N409 C408 1.344 . S
O410 Co402 2.055 . S
O410 C414 1.253 . S
H411 C407 0.931 . S
H412 C408 0.930 . S
O413 Co402 2.039 . S
O413 C403 1.265 . S
C414 O410 1.253 . S
C414 O415 1.227 . S
O415 C414 1.227 . S
N416 Co402 2.140 . S
N416 C419 1.346 . S
N416 C420 1.345 . S
C417 C418 1.387 . S
C417 C421 1.391 . S
C418 C417 1.387 . S
C418 C419 1.369 . S
C418 H427 0.929 . S
C419 N416 1.346 . S
C419 C418 1.369 . S
C419 H422 0.928 . S
C420 N416 1.345 . S
C420 C421 1.371 . S
C420 H423 0.931 . S
C421 C417 1.391 . S
C421 C420 1.371 . S
C421 H428 0.930 . S
H422 C419 0.928 . S
H423 C420 0.931 . S
H424 C400 0.930 . S
H425 C397 0.930 . S
H426 C406 0.930 . S
H427 C418 0.929 . S
H428 C421 0.930 . S
C429 C430 1.351 . S
C429 N432 1.368 . S
C429 H434 0.931 . S
C430 C429 1.351 . S
C430 N431 1.373 . S
C430 H458 0.930 . S
N431 C430 1.373 . S
N431 C433 1.340 . S
N432 C429 1.368 . S
N432 C433 1.321 . S
N432 Co435 2.135 . S
C433 N431 1.340 . S
C433 N432 1.321 . S
C433 H457 0.930 . S
H434 C429 0.931 . S
Co435 N432 2.135 . S
Co435 N438 2.121 . S
Co435 O443 2.055 . S
Co435 O446 2.039 . S
Co435 N449 2.140 . S
C436 O437 1.227 . S
C436 O446 1.265 . S
O437 C436 1.227 . S
N438 Co435 2.121 . S
N438 C440 1.375 . S
N438 C441 1.313 . S
C439 C440 1.338 . S
C439 N442 1.377 . S
C439 H459 0.930 . S
C440 N438 1.375 . S
C440 C439 1.338 . S
C440 H444 0.931 . S
C441 N438 1.313 . S
C441 N442 1.344 . S
C441 H445 0.930 . S
N442 C439 1.377 . S
N442 C441 1.344 . S
O443 Co435 2.055 . S
O443 C447 1.253 . S
H444 C440 0.931 . S
H445 C441 0.930 . S
O446 Co435 2.039 . S
O446 C436 1.265 . S
C447 O443 1.253 . S
C447 O448 1.227 . S
O448 C447 1.227 . S
N449 Co435 2.140 . S
N449 C452 1.346 . S
N449 C453 1.345 . S
C450 C451 1.387 . S
C450 C454 1.391 . S
C451 C450 1.387 . S
C451 C452 1.369 . S
C451 H460 0.929 . S
C452 N449 1.346 . S
C452 C451 1.369 . S
C452 H455 0.928 . S
C453 N449 1.345 . S
C453 C454 1.371 . S
C453 H456 0.931 . S
C454 C450 1.391 . S
C454 C453 1.371 . S
C454 H461 0.930 . S
H455 C452 0.928 . S
H456 C453 0.931 . S
H457 C433 0.930 . S
H458 C430 0.930 . S
H459 C439 0.930 . S
H460 C451 0.929 . S
H461 C454 0.930 . S
C462 C463 1.351 . S
C462 N465 1.368 . S
C462 H467 0.931 . S
C463 C462 1.351 . S
C463 N464 1.373 . S
C463 H491 0.930 . S
N464 C463 1.373 . S
N464 C466 1.340 . S
N465 C462 1.368 . S
N465 C466 1.321 . S
N465 Co468 2.135 . S
C466 N464 1.340 . S
C466 N465 1.321 . S
C466 H490 0.930 . S
H467 C462 0.931 . S
Co468 N465 2.135 . S
Co468 N471 2.121 . S
Co468 O476 2.055 . S
Co468 O479 2.039 . S
Co468 N482 2.140 . S
C469 O470 1.227 . S
C469 O479 1.265 . S
O470 C469 1.227 . S
N471 Co468 2.121 . S
N471 C473 1.375 . S
N471 C474 1.313 . S
C472 C473 1.338 . S
C472 N475 1.377 . S
C472 H492 0.930 . S
C473 N471 1.375 . S
C473 C472 1.338 . S
C473 H477 0.931 . S
C474 N471 1.313 . S
C474 N475 1.344 . S
C474 H478 0.930 . S
N475 C472 1.377 . S
N475 C474 1.344 . S
O476 Co468 2.055 . S
O476 C480 1.253 . S
H477 C473 0.931 . S
H478 C474 0.930 . S
O479 Co468 2.039 . S
O479 C469 1.265 . S
C480 O476 1.253 . S
C480 O481 1.227 . S
O481 C480 1.227 . S
N482 Co468 2.140 . S
N482 C485 1.346 . S
N482 C486 1.345 . S
C483 C484 1.387 . S
C483 C487 1.391 . S
C484 C483 1.387 . S
C484 C485 1.369 . S
C484 H493 0.929 . S
C485 N482 1.346 . S
C485 C484 1.369 . S
C485 H488 0.928 . S
C486 N482 1.345 . S
C486 C487 1.371 . S
C486 H489 0.931 . S
C487 C483 1.391 . S
C487 C486 1.371 . S
C487 H494 0.930 . S
H488 C485 0.928 . S
H489 C486 0.931 . S
H490 C466 0.930 . S
H491 C463 0.930 . S
H492 C472 0.930 . S
H493 C484 0.929 . S
H494 C487 0.930 . S
C495 C496 1.351 . S
C495 N498 1.368 . S
C495 H500 0.931 . S
C496 C495 1.351 . S
C496 N497 1.373 . S
C496 H524 0.930 . S
N497 C496 1.373 . S
N497 C499 1.340 . S
N498 C495 1.368 . S
N498 C499 1.321 . S
N498 Co501 2.135 . S
C499 N497 1.340 . S
C499 N498 1.321 . S
C499 H523 0.930 . S
H500 C495 0.931 . S
Co501 N498 2.135 . S
Co501 N504 2.121 . S
Co501 O509 2.055 . S
Co501 O512 2.039 . S
Co501 N515 2.140 . S
C502 O503 1.227 . S
C502 O512 1.265 . S
O503 C502 1.227 . S
N504 Co501 2.121 . S
N504 C506 1.375 . S
N504 C507 1.313 . S
C505 C506 1.338 . S
C505 N508 1.377 . S
C505 H525 0.930 . S
C506 N504 1.375 . S
C506 C505 1.338 . S
C506 H510 0.931 . S
C507 N504 1.313 . S
C507 N508 1.344 . S
C507 H511 0.930 . S
N508 C505 1.377 . S
N508 C507 1.344 . S
O509 Co501 2.055 . S
O509 C513 1.253 . S
H510 C506 0.931 . S
H511 C507 0.930 . S
O512 Co501 2.039 . S
O512 C502 1.265 . S
C513 O509 1.253 . S
C513 O514 1.227 . S
O514 C513 1.227 . S
N515 Co501 2.140 . S
N515 C518 1.346 . S
N515 C519 1.345 . S
C516 C517 1.387 . S
C516 C520 1.391 . S
C517 C516 1.387 . S
C517 C518 1.369 . S
C517 H526 0.929 . S
C518 N515 1.346 . S
C518 C517 1.369 . S
C518 H521 0.928 . S
C519 N515 1.345 . S
C519 C520 1.371 . S
C519 H522 0.931 . S
C520 C516 1.391 . S
C520 C519 1.371 . S
C520 H527 0.930 . S
H521 C518 0.928 . S
H522 C519 0.931 . S
H523 C499 0.930 . S
H524 C496 0.930 . S
H525 C505 0.930 . S
H526 C517 0.929 . S
H527 C520 0.930 . S
H528 C536 0.929 . S
H529 C538 0.930 . S
H530 C540 0.930 1_455 S
H531 C543 0.929 . S
H532 C546 0.930 . S
H533 C548 0.960 . S
H534 C548 0.960 1_655 S
H535 C548 0.960 . S
C536 H528 0.929 . S
C536 C537 1.377 . S
C536 C538 1.384 . S
C537 C536 1.377 . S
C537 C543 1.390 . S
C538 H529 0.930 . S
C538 C536 1.384 . S
C538 C539 1.372 . S
C539 C538 1.372 . S
C539 C540 1.400 . S
C539 C544 1.490 . S
C540 H530 0.930 1_655 S
C540 C539 1.400 . S
C540 C543 1.386 . S
H541 C557 0.930 . S
H542 C558 0.931 . S
C543 H531 0.929 . S
C543 C537 1.390 . S
C543 C540 1.386 . S
C544 C539 1.490 . S
C544 C546 1.395 . S
C544 C547 1.403 1_655 S
H545 C551 0.930 . S
C546 H532 0.930 . S
C546 C544 1.395 . S
C546 C549 1.403 . S
C547 C544 1.403 1_455 S
C547 C548 1.524 . S
C547 C551 1.400 . S
C548 H533 0.960 . S
C548 H534 0.960 1_455 S
C548 H535 0.960 . S
C548 C547 1.524 . S
C549 C546 1.403 . S
C549 C550 1.392 1_655 S
C549 C553 1.495 . S
C550 C549 1.392 1_455 S
C550 C551 1.385 . S
C550 C552 1.478 . S
C551 H545 0.930 . S
C551 C547 1.400 . S
C551 C550 1.385 . S
C552 C550 1.478 . S
C552 C554 1.381 . S
C552 C558 1.383 . S
C553 C549 1.495 . S
C553 H559 0.959 . S
C553 H560 0.961 1_655 S
C553 H561 0.960 . S
C554 C552 1.381 . S
C554 C555 1.394 . S
C554 H562 0.930 1_455 S
C555 C554 1.394 . S
C555 C556 1.383 . S
C555 H563 0.929 . S
C556 C555 1.383 . S
C556 C557 1.377 . S
C557 H541 0.930 . S
C557 C556 1.377 . S
C557 C558 1.379 . S
C558 H542 0.931 . S
C558 C552 1.383 . S
C558 C557 1.379 . S
H559 C553 0.959 . S
H560 C553 0.961 1_455 S
H561 C553 0.960 . S
H562 C554 0.930 1_655 S
H563 C555 0.929 . S
H564 C572 0.929 . S
H565 C574 0.930 . S
H566 C576 0.930 . S
H567 C579 0.929 . S
H568 C582 0.930 . S
H569 C584 0.960 . S
H570 C584 0.960 . S
H571 C584 0.960 . S
C572 H564 0.929 . S
C572 C573 1.377 . S
C572 C574 1.384 . S
C573 C572 1.377 . S
C573 C579 1.390 . S
C574 H565 0.930 . S
C574 C572 1.384 . S
C574 C575 1.372 . S
C575 C574 1.372 . S
C575 C576 1.400 . S
C575 C580 1.490 . S
C576 H566 0.930 . S
C576 C575 1.400 . S
C576 C579 1.386 . S
H577 C593 0.930 . S
H578 C594 0.931 . S
C579 H567 0.929 . S
C579 C573 1.390 . S
C579 C576 1.386 . S
C580 C575 1.490 . S
C580 C582 1.395 . S
C580 C583 1.403 . S
H581 C587 0.930 . S
C582 H568 0.930 . S
C582 C580 1.395 . S
C582 C585 1.403 . S
C583 C580 1.403 . S
C583 C584 1.524 . S
C583 C587 1.400 . S
C584 H569 0.960 . S
C584 H570 0.960 . S
C584 H571 0.960 . S
C584 C583 1.524 . S
C585 C582 1.403 . S
C585 C586 1.392 . S
C585 C589 1.495 . S
C586 C585 1.392 . S
C586 C587 1.385 . S
C586 C588 1.478 . S
C587 H581 0.930 . S
C587 C583 1.400 . S
C587 C586 1.385 . S
C588 C586 1.478 . S
C588 C590 1.381 . S
C588 C594 1.383 . S
C589 C585 1.495 . S
C589 H595 0.959 . S
C589 H596 0.961 . S
C589 H597 0.960 . S
C590 C588 1.381 . S
C590 C591 1.394 . S
C590 H598 0.930 . S
C591 C590 1.394 . S
C591 C592 1.383 . S
C591 H599 0.929 . S
C592 C591 1.383 . S
C592 C593 1.377 . S
C593 H577 0.930 . S
C593 C592 1.377 . S
C593 C594 1.379 . S
C594 H578 0.931 . S
C594 C588 1.383 . S
C594 C593 1.379 . S
H595 C589 0.959 . S
H596 C589 0.961 . S
H597 C589 0.960 . S
H598 C590 0.930 . S
H599 C591 0.929 . S
H600 C608 0.929 . S
H601 C610 0.930 1_455 S
H602 C612 0.930 . S
H603 C615 0.929 . S
H604 C618 0.930 . S
H605 C620 0.960 . S
H606 C620 0.960 . S
H607 C620 0.960 . S
C608 H600 0.929 . S
C608 C609 1.377 . S
C608 C610 1.384 . S
C609 C608 1.377 . S
C609 C615 1.390 . S
C610 H601 0.930 1_655 S
C610 C608 1.384 . S
C610 C611 1.372 . S
C611 C610 1.372 . S
C611 C612 1.400 . S
C611 C616 1.490 . S
C612 H602 0.930 . S
C612 C611 1.400 . S
C612 C615 1.386 . S
H613 C629 0.930 . S
H614 C630 0.931 . S
C615 H603 0.929 . S
C615 C609 1.390 . S
C615 C612 1.386 . S
C616 C611 1.490 . S
C616 C618 1.395 1_655 S
C616 C619 1.403 . S
H617 C623 0.930 . S
C618 H604 0.930 . S
C618 C616 1.395 1_455 S
C618 C621 1.403 . S
C619 C616 1.403 . S
C619 C620 1.524 . S
C619 C623 1.400 . S
C620 H605 0.960 . S
C620 H606 0.960 . S
C620 H607 0.960 . S
C620 C619 1.524 . S
C621 C618 1.403 . S
C621 C622 1.392 . S
C621 C625 1.495 . S
C622 C621 1.392 . S
C622 C623 1.385 1_455 S
C622 C624 1.478 . S
C623 H617 0.930 . S
C623 C619 1.400 . S
C623 C622 1.385 1_655 S
C624 C622 1.478 . S
C624 C626 1.381 . S
C624 C630 1.383 . S
C625 C621 1.495 . S
C625 H631 0.959 . S
C625 H632 0.961 . S
C625 H633 0.960 . S
C626 C624 1.381 . S
C626 C627 1.394 . S
C626 H634 0.930 . S
C627 C626 1.394 . S
C627 C628 1.383 . S
C627 H635 0.929 . S
C628 C627 1.383 . S
C628 C629 1.377 . S
C629 H613 0.930 . S
C629 C628 1.377 . S
C629 C630 1.379 . S
C630 H614 0.931 . S
C630 C624 1.383 . S
C630 C629 1.379 . S
H631 C625 0.959 . S
H632 C625 0.961 . S
H633 C625 0.960 . S
H634 C626 0.930 . S
H635 C627 0.929 . S
H636 C644 0.929 . S
H637 C646 0.930 . S
H638 C648 0.930 . S
H639 C651 0.929 . S
H640 C654 0.930 . S
H641 C656 0.960 . S
H642 C656 0.960 . S
H643 C656 0.960 . S
C644 H636 0.929 . S
C644 C645 1.377 . S
C644 C646 1.384 . S
C645 C644 1.377 . S
C645 C651 1.390 . S
C646 H637 0.930 . S
C646 C644 1.384 . S
C646 C647 1.372 . S
C647 C646 1.372 . S
C647 C648 1.400 . S
C647 C652 1.490 . S
C648 H638 0.930 . S
C648 C647 1.400 . S
C648 C651 1.386 . S
H649 C665 0.930 . S
H650 C666 0.931 . S
C651 H639 0.929 . S
C651 C645 1.390 . S
C651 C648 1.386 . S
C652 C647 1.490 . S
C652 C654 1.395 . S
C652 C655 1.403 . S
H653 C659 0.930 . S
C654 H640 0.930 . S
C654 C652 1.395 . S
C654 C657 1.403 . S
C655 C652 1.403 . S
C655 C656 1.524 . S
C655 C659 1.400 . S
C656 H641 0.960 . S
C656 H642 0.960 . S
C656 H643 0.960 . S
C656 C655 1.524 . S
C657 C654 1.403 . S
C657 C658 1.392 . S
C657 C661 1.495 . S
C658 C657 1.392 . S
C658 C659 1.385 . S
C658 C660 1.478 . S
C659 H653 0.930 . S
C659 C655 1.400 . S
C659 C658 1.385 . S
C660 C658 1.478 . S
C660 C662 1.381 . S
C660 C666 1.383 . S
C661 C657 1.495 . S
C661 H667 0.959 . S
C661 H668 0.961 . S
C661 H669 0.960 . S
C662 C660 1.381 . S
C662 C663 1.394 . S
C662 H670 0.930 . S
C663 C662 1.394 . S
C663 C664 1.383 . S
C663 H671 0.929 . S
C664 C663 1.383 . S
C664 C665 1.377 . S
C665 H649 0.930 . S
C665 C664 1.377 . S
C665 C666 1.379 . S
C666 H650 0.931 . S
C666 C660 1.383 . S
C666 C665 1.379 . S
H667 C661 0.959 . S
H668 C661 0.961 . S
H669 C661 0.960 . S
H670 C662 0.930 . S
H671 C663 0.929 . S
H672 C680 0.929 . S
H673 C682 0.930 . S
H674 C684 0.930 . S
H675 C687 0.929 . S
H676 C690 0.930 . S
H677 C692 0.960 . S
H678 C692 0.960 . S
H679 C692 0.960 . S
C680 H672 0.929 . S
C680 C681 1.377 . S
C680 C682 1.384 . S
C681 C680 1.377 . S
C681 C687 1.390 . S
C682 H673 0.930 . S
C682 C680 1.384 . S
C682 C683 1.372 . S
C683 C682 1.372 . S
C683 C684 1.400 . S
C683 C688 1.490 . S
C684 H674 0.930 . S
C684 C683 1.400 . S
C684 C687 1.386 . S
H685 C701 0.930 . S
H686 C702 0.931 . S
C687 H675 0.929 . S
C687 C681 1.390 . S
C687 C684 1.386 . S
C688 C683 1.490 . S
C688 C690 1.395 . S
C688 C691 1.403 . S
H689 C695 0.930 . S
C690 H676 0.930 . S
C690 C688 1.395 . S
C690 C693 1.403 . S
C691 C688 1.403 . S
C691 C692 1.524 . S
C691 C695 1.400 . S
C692 H677 0.960 . S
C692 H678 0.960 . S
C692 H679 0.960 . S
C692 C691 1.524 . S
C693 C690 1.403 . S
C693 C694 1.392 . S
C693 C697 1.495 . S
C694 C693 1.392 . S
C694 C695 1.385 . S
C694 C696 1.478 . S
C695 H689 0.930 . S
C695 C691 1.400 . S
C695 C694 1.385 . S
C696 C694 1.478 . S
C696 C698 1.381 . S
C696 C702 1.383 . S
C697 C693 1.495 . S
C697 H703 0.959 . S
C697 H704 0.961 . S
C697 H705 0.960 . S
C698 C696 1.381 . S
C698 C699 1.394 . S
C698 H706 0.930 . S
C699 C698 1.394 . S
C699 C700 1.383 . S
C699 H707 0.929 . S
C700 C699 1.383 . S
C700 C701 1.377 . S
C701 H685 0.930 . S
C701 C700 1.377 . S
C701 C702 1.379 . S
C702 H686 0.931 . S
C702 C696 1.383 . S
C702 C701 1.379 . S
H703 C697 0.959 . S
H704 C697 0.961 . S
H705 C697 0.960 . S
H706 C698 0.930 . S
H707 C699 0.929 . S
H708 C716 0.929 . S
H709 C718 0.930 . S
H710 C720 0.930 1_455 S
H711 C723 0.929 . S
H712 C726 0.930 . S
H713 C728 0.957 1_455 S
H714 C728 0.965 . S
H715 C728 0.958 1_455 S
C716 H708 0.929 . S
C716 C717 1.377 . S
C716 C718 1.384 . S
C717 C716 1.377 . S
C717 C723 1.390 . S
C718 H709 0.930 . S
C718 C716 1.384 . S
C718 C719 1.372 . S
C719 C718 1.372 . S
C719 C720 1.400 . S
C719 C724 1.490 . S
C720 H710 0.930 1_655 S
C720 C719 1.400 . S
C720 C723 1.386 . S
H721 C737 0.930 . S
H722 C738 0.931 . S
C723 H711 0.929 . S
C723 C717 1.390 . S
C723 C720 1.386 . S
C724 C719 1.490 . S
C724 C726 1.395 . S
C724 C727 1.403 . S
H725 C731 0.930 . S
C726 H712 0.930 . S
C726 C724 1.395 . S
C726 C729 1.403 . S
C727 C724 1.403 . S
C727 C728 1.524 . S
C727 C731 1.400 1_655 S
C728 H713 0.957 1_655 S
C728 H714 0.965 . S
C728 H715 0.958 1_655 S
C728 C727 1.524 . S
C729 C726 1.403 . S
C729 C730 1.392 1_655 S
C729 C733 1.495 . S
C730 C729 1.392 1_455 S
C730 C731 1.385 . S
C730 C732 1.478 . S
C731 H725 0.930 . S
C731 C727 1.400 1_455 S
C731 C730 1.385 . S
C732 C730 1.478 . S
C732 C734 1.381 . S
C732 C738 1.383 . S
C733 C729 1.495 . S
C733 H739 0.959 . S
C733 H740 0.961 1_655 S
C733 H741 0.960 . S
C734 C732 1.381 . S
C734 C735 1.394 . S
C734 H742 0.930 1_455 S
C735 C734 1.394 . S
C735 C736 1.383 . S
C735 H743 0.929 . S
C736 C735 1.383 . S
C736 C737 1.377 . S
C737 H721 0.930 . S
C737 C736 1.377 . S
C737 C738 1.379 . S
C738 H722 0.931 . S
C738 C732 1.383 . S
C738 C737 1.379 . S
H739 C733 0.959 . S
H740 C733 0.961 1_455 S
H741 C733 0.960 . S
H742 C734 0.930 1_655 S
H743 C735 0.929 . S
H744 C752 0.929 . S
H745 C754 0.930 . S
H746 C756 0.930 . S
H747 C759 0.929 . S
H748 C762 0.930 . S
H749 C764 0.960 . S
H750 C764 0.960 . S
H751 C764 0.960 . S
C752 H744 0.929 . S
C752 C753 1.377 . S
C752 C754 1.384 . S
C753 C752 1.377 . S
C753 C759 1.390 . S
C754 H745 0.930 . S
C754 C752 1.384 . S
C754 C755 1.372 . S
C755 C754 1.372 . S
C755 C756 1.400 . S
C755 C760 1.490 . S
C756 H746 0.930 . S
C756 C755 1.400 . S
C756 C759 1.386 . S
H757 C773 0.930 . S
H758 C774 0.931 . S
C759 H747 0.929 . S
C759 C753 1.390 . S
C759 C756 1.386 . S
C760 C755 1.490 . S
C760 C762 1.395 . S
C760 C763 1.403 . S
H761 C767 0.930 . S
C762 H748 0.930 . S
C762 C760 1.395 . S
C762 C765 1.403 . S
C763 C760 1.403 . S
C763 C764 1.524 . S
C763 C767 1.400 . S
C764 H749 0.960 . S
C764 H750 0.960 . S
C764 H751 0.960 . S
C764 C763 1.524 . S
C765 C762 1.403 . S
C765 C766 1.392 . S
C765 C769 1.495 . S
C766 C765 1.392 . S
C766 C767 1.385 . S
C766 C768 1.478 . S
C767 H761 0.930 . S
C767 C763 1.400 . S
C767 C766 1.385 . S
C768 C766 1.478 . S
C768 C770 1.381 . S
C768 C774 1.383 . S
C769 C765 1.495 . S
C769 H775 0.959 . S
C769 H776 0.961 . S
C769 H777 0.960 . S
C770 C768 1.381 . S
C770 C771 1.394 . S
C770 H778 0.930 . S
C771 C770 1.394 . S
C771 C772 1.383 . S
C771 H779 0.929 . S
C772 C771 1.383 . S
C772 C773 1.377 . S
C773 H757 0.930 . S
C773 C772 1.377 . S
C773 C774 1.379 . S
C774 H758 0.931 . S
C774 C768 1.383 . S
C774 C773 1.379 . S
H775 C769 0.959 . S
H776 C769 0.961 . S
H777 C769 0.960 . S
H778 C770 0.930 . S
H779 C771 0.929 . S
H780 C788 0.929 . S
H781 C790 0.930 . S
H782 C792 0.930 1_455 S
H783 C795 0.929 . S
H784 C798 0.930 . S
H785 C800 0.960 . S
H786 C800 0.960 1_655 S
H787 C800 0.960 . S
C788 H780 0.929 . S
C788 C789 1.377 . S
C788 C790 1.384 . S
C789 C788 1.377 . S
C789 C795 1.390 . S
C790 H781 0.930 . S
C790 C788 1.384 . S
C790 C791 1.372 . S
C791 C790 1.372 . S
C791 C792 1.400 . S
C791 C796 1.490 . S
C792 H782 0.930 1_655 S
C792 C791 1.400 . S
C792 C795 1.386 . S
H793 C809 0.930 . S
H794 C810 0.931 . S
C795 H783 0.929 . S
C795 C789 1.390 . S
C795 C792 1.386 . S
C796 C791 1.490 . S
C796 C798 1.395 . S
C796 C799 1.384 1_655 S
H797 C803 0.930 . S
C798 H784 0.930 . S
C798 C796 1.395 . S
C798 C801 1.403 . S
C799 C796 1.384 1_455 S
C799 C800 1.527 . S
C799 C803 1.416 . S
C800 H785 0.960 . S
C800 H786 0.960 1_455 S
C800 H787 0.960 . S
C800 C799 1.527 . S
C801 C798 1.403 . S
C801 C802 1.392 1_655 S
C801 C805 1.495 . S
C802 C801 1.392 1_455 S
C802 C803 1.385 . S
C802 C804 1.478 . S
C803 H797 0.930 . S
C803 C799 1.416 . S
C803 C802 1.385 . S
C804 C802 1.478 . S
C804 C806 1.381 . S
C804 C810 1.383 . S
C805 C801 1.495 . S
C805 H811 0.959 . S
C805 H812 0.961 1_655 S
C805 H813 0.960 . S
C806 C804 1.381 . S
C806 C807 1.394 . S
C806 H814 0.930 1_455 S
C807 C806 1.394 . S
C807 C808 1.383 . S
C807 H815 0.929 . S
C808 C807 1.383 . S
C808 C809 1.377 . S
C809 H793 0.930 . S
C809 C808 1.377 . S
C809 C810 1.379 . S
C810 H794 0.931 . S
C810 C804 1.383 . S
C810 C809 1.379 . S
H811 C805 0.959 . S
H812 C805 0.961 1_455 S
H813 C805 0.960 . S
H814 C806 0.930 1_655 S
H815 C807 0.929 . S
H816 C824 0.929 . S
H817 C826 0.930 . S
H818 C828 0.930 . S
H819 C831 0.929 . S
H820 C834 0.930 . S
H821 C836 0.960 . S
H822 C836 0.960 . S
H823 C836 0.960 . S
C824 H816 0.929 . S
C824 C825 1.377 . S
C824 C826 1.384 . S
C825 C824 1.377 . S
C825 C831 1.390 . S
C826 H817 0.930 . S
C826 C824 1.384 . S
C826 C827 1.372 . S
C827 C826 1.372 . S
C827 C828 1.400 . S
C827 C832 1.490 . S
C828 H818 0.930 . S
C828 C827 1.400 . S
C828 C831 1.386 . S
H829 C845 0.930 . S
H830 C846 0.931 . S
C831 H819 0.929 . S
C831 C825 1.390 . S
C831 C828 1.386 . S
C832 C827 1.490 . S
C832 C834 1.395 . S
C832 C835 1.403 . S
H833 C839 0.930 . S
C834 H820 0.930 . S
C834 C832 1.395 . S
C834 C837 1.403 . S
C835 C832 1.403 . S
C835 C836 1.524 . S
C835 C839 1.400 . S
C836 H821 0.960 . S
C836 H822 0.960 . S
C836 H823 0.960 . S
C836 C835 1.524 . S
C837 C834 1.403 . S
C837 C838 1.392 . S
C837 C841 1.495 . S
C838 C837 1.392 . S
C838 C839 1.385 . S
C838 C840 1.478 . S
C839 H833 0.930 . S
C839 C835 1.400 . S
C839 C838 1.385 . S
C840 C838 1.478 . S
C840 C842 1.381 . S
C840 C846 1.383 . S
C841 C837 1.495 . S
C841 H847 0.959 . S
C841 H848 0.961 . S
C841 H849 0.960 . S
C842 C840 1.381 . S
C842 C843 1.394 . S
C842 H850 0.930 . S
C843 C842 1.394 . S
C843 C844 1.383 . S
C843 H851 0.929 . S
C844 C843 1.383 . S
C844 C845 1.377 . S
C845 H829 0.930 . S
C845 C844 1.377 . S
C845 C846 1.379 . S
C846 H830 0.931 . S
C846 C840 1.383 . S
C846 C845 1.379 . S
H847 C841 0.959 . S
H848 C841 0.961 . S
H849 C841 0.960 . S
H850 C842 0.930 . S
H851 C843 0.929 . S
H852 C860 0.929 . S
H853 C862 0.930 . S
H854 C864 0.930 . S
H855 C867 0.929 . S
H856 C870 0.930 . S
H857 C872 0.960 . S
H858 C872 0.960 . S
H859 C872 0.960 . S
C860 H852 0.929 . S
C860 C861 1.377 . S
C860 C862 1.384 . S
C861 C860 1.377 . S
C861 C867 1.390 . S
C862 H853 0.930 . S
C862 C860 1.384 . S
C862 C863 1.372 . S
C863 C862 1.372 . S
C863 C864 1.400 . S
C863 C868 1.490 . S
C864 H854 0.930 . S
C864 C863 1.400 . S
C864 C867 1.386 . S
H865 C881 0.930 . S
H866 C882 0.931 . S
C867 H855 0.929 . S
C867 C861 1.390 . S
C867 C864 1.386 . S
C868 C863 1.490 . S
C868 C870 1.395 . S
C868 C871 1.403 . S
H869 C875 0.930 . S
C870 H856 0.930 . S
C870 C868 1.395 . S
C870 C873 1.403 . S
C871 C868 1.403 . S
C871 C872 1.524 . S
C871 C875 1.400 . S
C872 H857 0.960 . S
C872 H858 0.960 . S
C872 H859 0.960 . S
C872 C871 1.524 . S
C873 C870 1.403 . S
C873 C874 1.392 . S
C873 C877 1.495 . S
C874 C873 1.392 . S
C874 C875 1.385 . S
C874 C876 1.478 . S
C875 H869 0.930 . S
C875 C871 1.400 . S
C875 C874 1.385 . S
C876 C874 1.478 . S
C876 C878 1.381 . S
C876 C882 1.383 . S
C877 C873 1.495 . S
C877 H883 0.959 . S
C877 H884 0.961 . S
C877 H885 0.960 . S
C878 C876 1.381 . S
C878 C879 1.394 . S
C878 H886 0.930 . S
C879 C878 1.394 . S
C879 C880 1.383 . S
C879 H887 0.929 . S
C880 C879 1.383 . S
C880 C881 1.377 . S
C881 H865 0.930 . S
C881 C880 1.377 . S
C881 C882 1.379 . S
C882 H866 0.931 . S
C882 C876 1.383 . S
C882 C881 1.379 . S
H883 C877 0.959 . S
H884 C877 0.961 . S
H885 C877 0.960 . S
H886 C878 0.930 . S
H887 C879 0.929 . S
H888 C896 0.929 . S
H889 C898 0.930 . S
H890 C900 0.930 . S
H891 C903 0.929 . S
H892 C906 0.930 . S
H893 C908 0.960 . S
H894 C908 0.960 . S
H895 C908 0.960 . S
C896 H888 0.929 . S
C896 C897 1.377 . S
C896 C898 1.384 . S
C897 C896 1.377 . S
C897 C903 1.390 . S
C898 H889 0.930 . S
C898 C896 1.384 . S
C898 C899 1.372 . S
C899 C898 1.372 . S
C899 C900 1.400 . S
C899 C904 1.490 . S
C900 H890 0.930 . S
C900 C899 1.400 . S
C900 C903 1.386 . S
H901 C917 0.930 . S
H902 C918 0.931 . S
C903 H891 0.929 . S
C903 C897 1.390 . S
C903 C900 1.386 . S
C904 C899 1.490 . S
C904 C906 1.395 . S
C904 C907 1.403 . S
H905 C911 0.930 . S
C906 H892 0.930 . S
C906 C904 1.395 . S
C906 C909 1.403 . S
C907 C904 1.403 . S
C907 C908 1.524 . S
C907 C911 1.400 . S
C908 H893 0.960 . S
C908 H894 0.960 . S
C908 H895 0.960 . S
C908 C907 1.524 . S
C909 C906 1.403 . S
C909 C910 1.392 . S
C909 C913 1.495 . S
C910 C909 1.392 . S
C910 C911 1.385 . S
C910 C912 1.478 . S
C911 H905 0.930 . S
C911 C907 1.400 . S
C911 C910 1.385 . S
C912 C910 1.478 . S
C912 C914 1.381 . S
C912 C918 1.383 . S
C913 C909 1.495 . S
C913 H919 0.959 . S
C913 H920 0.961 . S
C913 H921 0.960 . S
C914 C912 1.381 . S
C914 C915 1.394 . S
C914 H922 0.930 . S
C915 C914 1.394 . S
C915 C916 1.383 . S
C915 H923 0.929 . S
C916 C915 1.383 . S
C916 C917 1.377 . S
C917 H901 0.930 . S
C917 C916 1.377 . S
C917 C918 1.379 . S
C918 H902 0.931 . S
C918 C912 1.383 . S
C918 C917 1.379 . S
H919 C913 0.959 . S
H920 C913 0.961 . S
H921 C913 0.960 . S
H922 C914 0.930 . S
H923 C915 0.929 . S
H924 C932 0.929 . S
H925 C934 0.930 . S
H926 C936 0.930 . S
H927 C939 0.929 . S
H928 C942 0.930 . S
H929 C944 0.960 . S
H930 C944 0.960 . S
H931 C944 0.960 . S
C932 H924 0.929 . S
C932 C933 1.377 . S
C932 C934 1.384 . S
C933 C932 1.377 . S
C933 C939 1.390 . S
C934 H925 0.930 . S
C934 C932 1.384 . S
C934 C935 1.372 . S
C935 C934 1.372 . S
C935 C936 1.400 . S
C935 C940 1.490 . S
C936 H926 0.930 . S
C936 C935 1.400 . S
C936 C939 1.386 . S
H937 C953 0.930 . S
H938 C954 0.931 . S
C939 H927 0.929 . S
C939 C933 1.390 . S
C939 C936 1.386 . S
C940 C935 1.490 . S
C940 C942 1.395 . S
C940 C943 1.403 . S
H941 C947 0.930 . S
C942 H928 0.930 . S
C942 C940 1.395 . S
C942 C945 1.403 . S
C943 C940 1.403 . S
C943 C944 1.524 . S
C943 C947 1.400 . S
C944 H929 0.960 . S
C944 H930 0.960 . S
C944 H931 0.960 . S
C944 C943 1.524 . S
C945 C942 1.403 . S
C945 C946 1.392 . S
C945 C949 1.495 . S
C946 C945 1.392 . S
C946 C947 1.385 . S
C946 C948 1.478 . S
C947 H941 0.930 . S
C947 C943 1.400 . S
C947 C946 1.385 . S
C948 C946 1.478 . S
C948 C950 1.381 . S
C948 C954 1.383 . S
C949 C945 1.495 . S
C949 H955 0.959 . S
C949 H956 0.961 . S
C949 H957 0.960 . S
C950 C948 1.381 . S
C950 C951 1.394 . S
C950 H958 0.930 . S
C951 C950 1.394 . S
C951 C952 1.383 . S
C951 H959 0.929 . S
C952 C951 1.383 . S
C952 C953 1.377 . S
C953 H937 0.930 . S
C953 C952 1.377 . S
C953 C954 1.379 . S
C954 H938 0.931 . S
C954 C948 1.383 . S
C954 C953 1.379 . S
H955 C949 0.959 . S
H956 C949 0.961 . S
H957 C949 0.960 . S
H958 C950 0.930 . S
H959 C951 0.929 . S
H960 C968 0.929 . S
H961 C970 0.930 . S
H962 C972 0.930 . S
H963 C975 0.929 . S
H964 C978 0.930 . S
H965 C980 0.960 . S
H966 C980 0.960 . S
H967 C980 0.960 . S
C968 H960 0.929 . S
C968 C969 1.377 . S
C968 C970 1.384 . S
C969 C968 1.377 . S
C969 C975 1.390 . S
C970 H961 0.930 . S
C970 C968 1.384 . S
C970 C971 1.372 . S
C971 C970 1.372 . S
C971 C972 1.400 . S
C971 C976 1.490 . S
C972 H962 0.930 . S
C972 C971 1.400 . S
C972 C975 1.386 . S
H973 C989 0.930 . S
H974 C990 0.931 . S
C975 H963 0.929 . S
C975 C969 1.390 . S
C975 C972 1.386 . S
C976 C971 1.490 . S
C976 C978 1.395 . S
C976 C979 1.403 . S
H977 C983 0.930 . S
C978 H964 0.930 . S
C978 C976 1.395 . S
C978 C981 1.403 . S
C979 C976 1.403 . S
C979 C980 1.524 . S
C979 C983 1.400 . S
C980 H965 0.960 . S
C980 H966 0.960 . S
C980 H967 0.960 . S
C980 C979 1.524 . S
C981 C978 1.403 . S
C981 C982 1.392 . S
C981 C985 1.495 . S
C982 C981 1.392 . S
C982 C983 1.385 . S
C982 C984 1.478 . S
C983 H977 0.930 . S
C983 C979 1.400 . S
C983 C982 1.385 . S
C984 C982 1.478 . S
C984 C986 1.381 . S
C984 C990 1.383 . S
C985 C981 1.495 . S
C985 H991 0.959 . S
C985 H992 0.961 . S
C985 H993 0.960 . S
C986 C984 1.381 . S
C986 C987 1.394 . S
C986 H994 0.930 . S
C987 C986 1.394 . S
C987 C988 1.383 . S
C987 H995 0.929 . S
C988 C987 1.383 . S
C988 C989 1.377 . S
C989 H973 0.930 . S
C989 C988 1.377 . S
C989 C990 1.379 . S
C990 H974 0.931 . S
C990 C984 1.383 . S
C990 C989 1.379 . S
H991 C985 0.959 . S
H992 C985 0.961 . S
H993 C985 0.960 . S
H994 C986 0.930 . S
H995 C987 0.929 . S
H996 C1004 0.929 . S
H997 C1006 0.930 . S
H998 C1008 0.930 . S
H999 C1011 0.929 . S
H1000 C1014 0.930 . S
H1001 C1016 0.960 . S
H1002 C1016 0.960 . S
H1003 C1016 0.960 . S
C1004 H996 0.929 . S
C1004 C1005 1.377 . S
C1004 C1006 1.384 . S
C1005 C1004 1.377 . S
C1005 C1011 1.390 . S
C1006 H997 0.930 . S
C1006 C1004 1.384 . S
C1006 C1007 1.372 . S
C1007 C1006 1.372 . S
C1007 C1008 1.400 . S
C1007 C1012 1.490 . S
C1008 H998 0.930 . S
C1008 C1007 1.400 . S
C1008 C1011 1.386 . S
H1009 C1025 0.930 . S
H1010 C1026 0.931 . S
C1011 H999 0.929 . S
C1011 C1005 1.390 . S
C1011 C1008 1.386 . S
C1012 C1007 1.490 . S
C1012 C1014 1.395 . S
C1012 C1015 1.403 . S
H1013 C1019 0.930 . S
C1014 H1000 0.930 . S
C1014 C1012 1.395 . S
C1014 C1017 1.403 . S
C1015 C1012 1.403 . S
C1015 C1016 1.524 . S
C1015 C1019 1.400 . S
C1016 H1001 0.960 . S
C1016 H1002 0.960 . S
C1016 H1003 0.960 . S
C1016 C1015 1.524 . S
C1017 C1014 1.403 . S
C1017 C1018 1.392 . S
C1017 C1021 1.495 . S
C1018 C1017 1.392 . S
C1018 C1019 1.385 . S
C1018 C1020 1.478 . S
C1019 H1013 0.930 . S
C1019 C1015 1.400 . S
C1019 C1018 1.385 . S
C1020 C1018 1.478 . S
C1020 C1022 1.381 . S
C1020 C1026 1.383 . S
C1021 C1017 1.495 . S
C1021 H1027 0.959 . S
C1021 H1028 0.961 . S
C1021 H1029 0.960 . S
C1022 C1020 1.381 . S
C1022 C1023 1.394 . S
C1022 H1030 0.930 . S
C1023 C1022 1.394 . S
C1023 C1024 1.383 . S
C1023 H1031 0.929 . S
C1024 C1023 1.383 . S
C1024 C1025 1.377 . S
C1025 H1009 0.930 . S
C1025 C1024 1.377 . S
C1025 C1026 1.379 . S
C1026 H1010 0.931 . S
C1026 C1020 1.383 . S
C1026 C1025 1.379 . S
H1027 C1021 0.959 . S
H1028 C1021 0.961 . S
H1029 C1021 0.960 . S
H1030 C1022 0.930 . S
H1031 C1023 0.929 . S
H1032 C1040 0.929 . S
H1033 C1042 0.930 . S
H1034 C1044 0.930 . S
H1035 C1047 0.929 . S
H1036 C1050 0.930 . S
H1037 C1052 0.960 . S
H1038 C1052 0.960 . S
H1039 C1052 0.960 . S
C1040 H1032 0.929 . S
C1040 C1041 1.377 . S
C1040 C1042 1.384 . S
C1041 C1040 1.377 . S
C1041 C1047 1.390 . S
C1042 H1033 0.930 . S
C1042 C1040 1.384 . S
C1042 C1043 1.372 . S
C1043 C1042 1.372 . S
C1043 C1044 1.400 . S
C1043 C1048 1.490 . S
C1044 H1034 0.930 . S
C1044 C1043 1.400 . S
C1044 C1047 1.386 . S
H1045 C1061 0.930 . S
H1046 C1062 0.931 . S
C1047 H1035 0.929 . S
C1047 C1041 1.390 . S
C1047 C1044 1.386 . S
C1048 C1043 1.490 . S
C1048 C1050 1.395 . S
C1048 C1051 1.403 . S
H1049 C1055 0.930 . S
C1050 H1036 0.930 . S
C1050 C1048 1.395 . S
C1050 C1053 1.403 . S
C1051 C1048 1.403 . S
C1051 C1052 1.524 . S
C1051 C1055 1.400 . S
C1052 H1037 0.960 . S
C1052 H1038 0.960 . S
C1052 H1039 0.960 . S
C1052 C1051 1.524 . S
C1053 C1050 1.403 . S
C1053 C1054 1.392 . S
C1053 C1057 1.495 . S
C1054 C1053 1.392 . S
C1054 C1055 1.385 . S
C1054 C1056 1.478 . S
C1055 H1049 0.930 . S
C1055 C1051 1.400 . S
C1055 C1054 1.385 . S
C1056 C1054 1.478 . S
C1056 C1058 1.381 . S
C1056 C1062 1.383 . S
C1057 C1053 1.495 . S
C1057 H1063 0.959 . S
C1057 H1064 0.961 . S
C1057 H1065 0.960 . S
C1058 C1056 1.381 . S
C1058 C1059 1.394 . S
C1058 H1066 0.930 . S
C1059 C1058 1.394 . S
C1059 C1060 1.383 . S
C1059 H1067 0.929 . S
C1060 C1059 1.383 . S
C1060 C1061 1.377 . S
C1061 H1045 0.930 . S
C1061 C1060 1.377 . S
C1061 C1062 1.379 . S
C1062 H1046 0.931 . S
C1062 C1056 1.383 . S
C1062 C1061 1.379 . S
H1063 C1057 0.959 . S
H1064 C1057 0.961 . S
H1065 C1057 0.960 . S
H1066 C1058 0.930 . S
H1067 C1059 0.929 . S
H1068 C1076 0.929 . S
H1069 C1078 0.930 . S
H1070 C1080 0.930 . S
H1071 C1083 0.929 . S
H1072 C1086 0.930 . S
H1073 C1088 0.960 . S
H1074 C1088 0.960 . S
H1075 C1088 0.960 . S
C1076 H1068 0.929 . S
C1076 C1077 1.377 . S
C1076 C1078 1.384 . S
C1077 C1076 1.377 . S
C1077 C1083 1.390 . S
C1078 H1069 0.930 . S
C1078 C1076 1.384 . S
C1078 C1079 1.372 . S
C1079 C1078 1.372 . S
C1079 C1080 1.400 . S
C1079 C1084 1.490 . S
C1080 H1070 0.930 . S
C1080 C1079 1.400 . S
C1080 C1083 1.386 . S
H1081 C1097 0.930 . S
H1082 C1098 0.931 . S
C1083 H1071 0.929 . S
C1083 C1077 1.390 . S
C1083 C1080 1.386 . S
C1084 C1079 1.490 . S
C1084 C1086 1.395 . S
C1084 C1087 1.403 . S
H1085 C1091 0.930 . S
C1086 H1072 0.930 . S
C1086 C1084 1.395 . S
C1086 C1089 1.403 . S
C1087 C1084 1.403 . S
C1087 C1088 1.524 . S
C1087 C1091 1.400 . S
C1088 H1073 0.960 . S
C1088 H1074 0.960 . S
C1088 H1075 0.960 . S
C1088 C1087 1.524 . S
C1089 C1086 1.403 . S
C1089 C1090 1.392 . S
C1089 C1093 1.495 . S
C1090 C1089 1.392 . S
C1090 C1091 1.385 . S
C1090 C1092 1.478 . S
C1091 H1085 0.930 . S
C1091 C1087 1.400 . S
C1091 C1090 1.385 . S
C1092 C1090 1.478 . S
C1092 C1094 1.381 . S
C1092 C1098 1.383 . S
C1093 C1089 1.495 . S
C1093 H1099 0.959 . S
C1093 H1100 0.961 . S
C1093 H1101 0.960 . S
C1094 C1092 1.381 . S
C1094 C1095 1.394 . S
C1094 H1102 0.930 . S
C1095 C1094 1.394 . S
C1095 C1096 1.383 . S
C1095 H1103 0.929 . S
C1096 C1095 1.383 . S
C1096 C1097 1.377 . S
C1097 H1081 0.930 . S
C1097 C1096 1.377 . S
C1097 C1098 1.379 . S
C1098 H1082 0.931 . S
C1098 C1092 1.383 . S
C1098 C1097 1.379 . S
H1099 C1093 0.959 . S
H1100 C1093 0.961 . S
H1101 C1093 0.960 . S
H1102 C1094 0.930 . S
H1103 C1095 0.929 . S
H1104 C1112 0.929 . S
H1105 C1114 0.930 . S
H1106 C1116 0.930 . S
H1107 C1119 0.929 . S
H1108 C1122 0.930 . S
H1109 C1124 0.960 . S
H1110 C1124 0.960 . S
H1111 C1124 0.960 . S
C1112 H1104 0.929 . S
C1112 C1113 1.377 . S
C1112 C1114 1.384 . S
C1113 C1112 1.377 . S
C1113 C1119 1.390 . S
C1114 H1105 0.930 . S
C1114 C1112 1.384 . S
C1114 C1115 1.372 . S
C1115 C1114 1.372 . S
C1115 C1116 1.400 . S
C1115 C1120 1.490 . S
C1116 H1106 0.930 . S
C1116 C1115 1.400 . S
C1116 C1119 1.386 . S
H1117 C1133 0.930 . S
H1118 C1134 0.931 . S
C1119 H1107 0.929 . S
C1119 C1113 1.390 . S
C1119 C1116 1.386 . S
C1120 C1115 1.490 . S
C1120 C1122 1.395 1_545 S
C1120 C1123 1.403 1_455 S
H1121 C1127 0.930 . S
C1122 H1108 0.930 . S
C1122 C1120 1.395 1_565 S
C1122 C1125 1.403 . S
C1123 C1120 1.403 1_655 S
C1123 C1124 1.524 . S
C1123 C1127 1.400 . S
C1124 H1109 0.960 . S
C1124 H1110 0.960 . S
C1124 H1111 0.960 . S
C1124 C1123 1.524 . S
C1125 C1122 1.403 . S
C1125 C1126 1.392 1_455 S
C1125 C1129 1.495 . S
C1126 C1125 1.392 1_655 S
C1126 C1127 1.385 1_565 S
C1126 C1128 1.478 . S
C1127 H1121 0.930 . S
C1127 C1123 1.400 . S
C1127 C1126 1.385 1_545 S
C1128 C1126 1.478 . S
C1128 C1130 1.381 . S
C1128 C1134 1.383 . S
C1129 C1125 1.495 . S
C1129 H1135 0.959 . S
C1129 H1136 0.961 . S
C1129 H1137 0.960 . S
C1130 C1128 1.381 . S
C1130 C1131 1.394 . S
C1130 H1138 0.930 . S
C1131 C1130 1.394 . S
C1131 C1132 1.383 . S
C1131 H1139 0.929 . S
C1132 C1131 1.383 . S
C1132 C1133 1.377 . S
C1133 H1117 0.930 . S
C1133 C1132 1.377 . S
C1133 C1134 1.379 . S
C1134 H1118 0.931 . S
C1134 C1128 1.383 . S
C1134 C1133 1.379 . S
H1135 C1129 0.959 . S
H1136 C1129 0.961 . S
H1137 C1129 0.960 . S
H1138 C1130 0.930 . S
H1139 C1131 0.929 . S
H1140 C1148 0.929 . S
H1141 C1150 0.930 . S
H1142 C1152 0.930 . S
H1143 C1155 0.929 . S
H1144 C1158 0.930 . S
H1145 C1160 0.962 1_545 S
H1146 C1160 0.961 1_545 S
H1147 C1160 0.958 . S
C1148 H1140 0.929 . S
C1148 C1149 1.377 . S
C1148 C1150 1.384 . S
C1149 C1148 1.377 . S
C1149 C1155 1.390 . S
C1150 H1141 0.930 . S
C1150 C1148 1.384 . S
C1150 C1151 1.372 . S
C1151 C1150 1.372 . S
C1151 C1152 1.400 . S
C1151 C1156 1.490 . S
C1152 H1142 0.930 . S
C1152 C1151 1.400 . S
C1152 C1155 1.386 . S
H1153 C1169 0.930 . S
H1154 C1170 0.931 . S
C1155 H1143 0.929 . S
C1155 C1149 1.390 . S
C1155 C1152 1.386 . S
C1156 C1151 1.490 . S
C1156 C1158 1.395 . S
C1156 C1159 1.415 . S
H1157 C1163 0.930 . S
C1158 H1144 0.930 . S
C1158 C1156 1.395 . S
C1158 C1161 1.403 1_565 S
C1159 C1156 1.415 . S
C1159 C1160 1.523 . S
C1159 C1163 1.388 1_565 S
C1160 H1145 0.962 1_565 S
C1160 H1146 0.961 1_565 S
C1160 H1147 0.958 . S
C1160 C1159 1.523 . S
C1161 C1158 1.403 1_545 S
C1161 C1162 1.392 . S
C1161 C1165 1.495 . S
C1162 C1161 1.392 . S
C1162 C1163 1.385 . S
C1162 C1164 1.478 . S
C1163 H1157 0.930 . S
C1163 C1159 1.388 1_545 S
C1163 C1162 1.385 . S
C1164 C1162 1.478 . S
C1164 C1166 1.381 . S
C1164 C1170 1.383 . S
C1165 C1161 1.495 . S
C1165 H1171 0.959 1_545 S
C1165 H1172 0.961 1_545 S
C1165 H1173 0.960 . S
C1166 C1164 1.381 . S
C1166 C1167 1.394 . S
C1166 H1174 0.930 . S
C1167 C1166 1.394 . S
C1167 C1168 1.383 . S
C1167 H1175 0.929 . S
C1168 C1167 1.383 . S
C1168 C1169 1.377 . S
C1169 H1153 0.930 . S
C1169 C1168 1.377 . S
C1169 C1170 1.379 . S
C1170 H1154 0.931 . S
C1170 C1164 1.383 . S
C1170 C1169 1.379 . S
H1171 C1165 0.959 1_565 S
H1172 C1165 0.961 1_565 S
H1173 C1165 0.960 . S
H1174 C1166 0.930 . S
H1175 C1167 0.929 . S
H1176 C1184 0.929 . S
H1177 C1186 0.930 . S
H1178 C1188 0.930 . S
H1179 C1191 0.929 . S
H1180 C1194 0.930 . S
H1181 C1196 0.953 1_554 S
H1182 C1196 0.957 1_554 S
H1183 C1196 0.970 . S
C1184 H1176 0.929 . S
C1184 C1185 1.377 . S
C1184 C1186 1.384 . S
C1185 C1184 1.377 . S
C1185 C1191 1.390 . S
C1186 H1177 0.930 . S
C1186 C1184 1.384 . S
C1186 C1187 1.372 . S
C1187 C1186 1.372 . S
C1187 C1188 1.400 . S
C1187 C1192 1.490 . S
C1188 H1178 0.930 . S
C1188 C1187 1.400 . S
C1188 C1191 1.386 . S
H1189 C1205 0.930 . S
H1190 C1206 0.931 . S
C1191 H1179 0.929 . S
C1191 C1185 1.390 . S
C1191 C1188 1.386 . S
C1192 C1187 1.490 . S
C1192 C1194 1.395 1_545 S
C1192 C1195 1.426 . S
H1193 C1199 0.930 . S
C1194 H1180 0.930 . S
C1194 C1192 1.395 1_565 S
C1194 C1197 1.403 1_556 S
C1195 C1192 1.426 . S
C1195 C1196 1.523 . S
C1195 C1199 1.376 1_556 S
C1196 H1181 0.953 1_556 S
C1196 H1182 0.957 1_556 S
C1196 H1183 0.970 . S
C1196 C1195 1.523 . S
C1197 C1194 1.403 1_554 S
C1197 C1198 1.392 . S
C1197 C1201 1.495 . S
C1198 C1197 1.392 . S
C1198 C1199 1.385 1_565 S
C1198 C1200 1.478 . S
C1199 H1193 0.930 . S
C1199 C1195 1.376 1_554 S
C1199 C1198 1.385 1_545 S
C1200 C1198 1.478 . S
C1200 C1202 1.381 . S
C1200 C1206 1.383 . S
C1201 C1197 1.495 . S
C1201 H1207 0.959 1_554 S
C1201 H1208 0.961 1_554 S
C1201 H1209 0.960 . S
C1202 C1200 1.381 . S
C1202 C1203 1.394 . S
C1202 H1210 0.930 . S
C1203 C1202 1.394 . S
C1203 C1204 1.383 . S
C1203 H1211 0.929 . S
C1204 C1203 1.383 . S
C1204 C1205 1.377 . S
C1205 H1189 0.930 . S
C1205 C1204 1.377 . S
C1205 C1206 1.379 . S
C1206 H1190 0.931 . S
C1206 C1200 1.383 . S
C1206 C1205 1.379 . S
H1207 C1201 0.959 1_556 S
H1208 C1201 0.961 1_556 S
H1209 C1201 0.960 . S
H1210 C1202 0.930 . S
H1211 C1203 0.929 . S
H1212 C1220 0.929 . S
H1213 C1222 0.930 . S
H1214 C1224 0.930 . S
H1215 C1227 0.929 . S
H1216 C1230 0.930 . S
H1217 C1232 0.960 . S
H1218 C1232 0.960 . S
H1219 C1232 0.960 . S
C1220 H1212 0.929 . S
C1220 C1221 1.377 . S
C1220 C1222 1.384 . S
C1221 C1220 1.377 . S
C1221 C1227 1.390 . S
C1222 H1213 0.930 . S
C1222 C1220 1.384 . S
C1222 C1223 1.372 . S
C1223 C1222 1.372 . S
C1223 C1224 1.400 . S
C1223 C1228 1.490 . S
C1224 H1214 0.930 . S
C1224 C1223 1.400 . S
C1224 C1227 1.386 . S
H1225 C1241 0.930 . S
H1226 C1242 0.931 . S
C1227 H1215 0.929 . S
C1227 C1221 1.390 . S
C1227 C1224 1.386 . S
C1228 C1223 1.490 . S
C1228 C1230 1.395 1_655 S
C1228 C1231 1.403 1_545 S
H1229 C1235 0.930 . S
C1230 H1216 0.930 . S
C1230 C1228 1.395 1_455 S
C1230 C1233 1.403 1_554 S
C1231 C1228 1.403 1_565 S
C1231 C1232 1.524 . S
C1231 C1235 1.400 1_554 S
C1232 H1217 0.960 . S
C1232 H1218 0.960 . S
C1232 H1219 0.960 . S
C1232 C1231 1.524 . S
C1233 C1230 1.403 1_556 S
C1233 C1234 1.392 1_545 S
C1233 C1237 1.495 . S
C1234 C1233 1.392 1_565 S
C1234 C1235 1.385 1_455 S
C1234 C1236 1.478 . S
C1235 H1229 0.930 . S
C1235 C1231 1.400 1_556 S
C1235 C1234 1.385 1_655 S
C1236 C1234 1.478 . S
C1236 C1238 1.381 . S
C1236 C1242 1.383 . S
C1237 C1233 1.495 . S
C1237 H1243 0.959 . S
C1237 H1244 0.961 . S
C1237 H1245 0.960 . S
C1238 C1236 1.381 . S
C1238 C1239 1.394 . S
C1238 H1246 0.930 . S
C1239 C1238 1.394 . S
C1239 C1240 1.383 . S
C1239 H1247 0.929 . S
C1240 C1239 1.383 . S
C1240 C1241 1.377 . S
C1241 H1225 0.930 . S
C1241 C1240 1.377 . S
C1241 C1242 1.379 . S
C1242 H1226 0.931 . S
C1242 C1236 1.383 . S
C1242 C1241 1.379 . S
H1243 C1237 0.959 . S
H1244 C1237 0.961 . S
H1245 C1237 0.960 . S
H1246 C1238 0.930 . S
H1247 C1239 0.929 . S
H1248 C1256 0.929 . S
H1249 C1258 0.930 . S
H1250 C1260 0.930 . S
H1251 C1263 0.929 . S
H1252 C1266 0.930 . S
H1253 C1268 0.960 . S
H1254 C1268 0.960 . S
H1255 C1268 0.960 . S
C1256 H1248 0.929 . S
C1256 C1257 1.377 . S
C1256 C1258 1.384 . S
C1257 C1256 1.377 . S
C1257 C1263 1.390 . S
C1258 H1249 0.930 . S
C1258 C1256 1.384 . S
C1258 C1259 1.372 . S
C1259 C1258 1.372 . S
C1259 C1260 1.400 . S
C1259 C1264 1.490 . S
C1260 H1250 0.930 . S
C1260 C1259 1.400 . S
C1260 C1263 1.386 . S
H1261 C1277 0.930 . S
H1262 C1278 0.931 . S
C1263 H1251 0.929 . S
C1263 C1257 1.390 . S
C1263 C1260 1.386 . S
C1264 C1259 1.490 . S
C1264 C1266 1.395 . S
C1264 C1267 1.403 . S
H1265 C1271 0.930 . S
C1266 H1252 0.930 . S
C1266 C1264 1.395 . S
C1266 C1269 1.403 . S
C1267 C1264 1.403 . S
C1267 C1268 1.524 . S
C1267 C1271 1.400 . S
C1268 H1253 0.960 . S
C1268 H1254 0.960 . S
C1268 H1255 0.960 . S
C1268 C1267 1.524 . S
C1269 C1266 1.403 . S
C1269 C1270 1.392 . S
C1269 C1273 1.495 . S
C1270 C1269 1.392 . S
C1270 C1271 1.385 . S
C1270 C1272 1.478 . S
C1271 H1265 0.930 . S
C1271 C1267 1.400 . S
C1271 C1270 1.385 . S
C1272 C1270 1.478 . S
C1272 C1274 1.381 . S
C1272 C1278 1.383 . S
C1273 C1269 1.495 . S
C1273 H1279 0.959 . S
C1273 H1280 0.961 . S
C1273 H1281 0.960 . S
C1274 C1272 1.381 . S
C1274 C1275 1.394 . S
C1274 H1282 0.930 . S
C1275 C1274 1.394 . S
C1275 C1276 1.383 . S
C1275 H1283 0.929 . S
C1276 C1275 1.383 . S
C1276 C1277 1.377 . S
C1277 H1261 0.930 . S
C1277 C1276 1.377 . S
C1277 C1278 1.379 . S
C1278 H1262 0.931 . S
C1278 C1272 1.383 . S
C1278 C1277 1.379 . S
H1279 C1273 0.959 . S
H1280 C1273 0.961 . S
H1281 C1273 0.960 . S
H1282 C1274 0.930 . S
H1283 C1275 0.929 . S
H1284 C1292 0.929 . S
H1285 C1294 0.930 . S
H1286 C1296 0.930 . S
H1287 C1299 0.929 . S
H1288 C1302 0.930 . S
H1289 C1304 0.960 . S
H1290 C1304 0.960 . S
H1291 C1304 0.960 . S
C1292 H1284 0.929 . S
C1292 C1293 1.377 . S
C1292 C1294 1.384 . S
C1293 C1292 1.377 . S
C1293 C1299 1.390 . S
C1294 H1285 0.930 . S
C1294 C1292 1.384 . S
C1294 C1295 1.372 . S
C1295 C1294 1.372 . S
C1295 C1296 1.400 . S
C1295 C1300 1.490 . S
C1296 H1286 0.930 . S
C1296 C1295 1.400 . S
C1296 C1299 1.386 . S
H1297 C1313 0.930 . S
H1298 C1314 0.931 . S
C1299 H1287 0.929 . S
C1299 C1293 1.390 . S
C1299 C1296 1.386 . S
C1300 C1295 1.490 . S
C1300 C1302 1.395 . S
C1300 C1303 1.403 1_455 S
H1301 C1307 0.930 . S
C1302 H1288 0.930 . S
C1302 C1300 1.395 . S
C1302 C1305 1.403 . S
C1303 C1300 1.403 1_655 S
C1303 C1304 1.524 . S
C1303 C1307 1.400 . S
C1304 H1289 0.960 . S
C1304 H1290 0.960 . S
C1304 H1291 0.960 . S
C1304 C1303 1.524 . S
C1305 C1302 1.403 . S
C1305 C1306 1.392 1_455 S
C1305 C1309 1.495 . S
C1306 C1305 1.392 1_655 S
C1306 C1307 1.385 . S
C1306 C1308 1.478 . S
C1307 H1301 0.930 . S
C1307 C1303 1.400 . S
C1307 C1306 1.385 . S
C1308 C1306 1.478 . S
C1308 C1310 1.381 . S
C1308 C1314 1.383 . S
C1309 C1305 1.495 . S
C1309 H1315 0.959 . S
C1309 H1316 0.961 . S
C1309 H1317 0.960 . S
C1310 C1308 1.381 . S
C1310 C1311 1.394 . S
C1310 H1318 0.930 . S
C1311 C1310 1.394 . S
C1311 C1312 1.383 . S
C1311 H1319 0.929 . S
C1312 C1311 1.383 . S
C1312 C1313 1.377 . S
C1313 H1297 0.930 . S
C1313 C1312 1.377 . S
C1313 C1314 1.379 . S
C1314 H1298 0.931 . S
C1314 C1308 1.383 . S
C1314 C1313 1.379 . S
H1315 C1309 0.959 . S
H1316 C1309 0.961 . S
H1317 C1309 0.960 . S
H1318 C1310 0.930 . S
H1319 C1311 0.929 . S
H1320 C1328 0.929 . S
H1321 C1330 0.930 . S
H1322 C1332 0.930 . S
H1323 C1335 0.929 . S
H1324 C1338 0.930 . S
H1325 C1340 0.959 1_556 S
H1326 C1340 0.959 1_556 S
H1327 C1340 0.962 . S
C1328 H1320 0.929 . S
C1328 C1329 1.377 . S
C1328 C1330 1.384 . S
C1329 C1328 1.377 . S
C1329 C1335 1.390 . S
C1330 H1321 0.930 . S
C1330 C1328 1.384 . S
C1330 C1331 1.372 . S
C1331 C1330 1.372 . S
C1331 C1332 1.400 . S
C1331 C1336 1.490 . S
C1332 H1322 0.930 . S
C1332 C1331 1.400 . S
C1332 C1335 1.386 . S
H1333 C1349 0.930 . S
H1334 C1350 0.931 . S
C1335 H1323 0.929 . S
C1335 C1329 1.390 . S
C1335 C1332 1.386 . S
C1336 C1331 1.490 . S
C1336 C1338 1.395 1_455 S
C1336 C1339 1.424 . S
H1337 C1343 0.930 . S
C1338 H1324 0.930 . S
C1338 C1336 1.395 1_655 S
C1338 C1341 1.403 1_554 S
C1339 C1336 1.424 . S
C1339 C1340 1.523 . S
C1339 C1343 1.378 1_554 S
C1340 H1325 0.959 1_554 S
C1340 H1326 0.959 1_554 S
C1340 H1327 0.962 . S
C1340 C1339 1.523 . S
C1341 C1338 1.403 1_556 S
C1341 C1342 1.392 . S
C1341 C1345 1.495 . S
C1342 C1341 1.392 . S
C1342 C1343 1.385 1_655 S
C1342 C1344 1.478 . S
C1343 H1337 0.930 . S
C1343 C1339 1.378 1_556 S
C1343 C1342 1.385 1_455 S
C1344 C1342 1.478 . S
C1344 C1346 1.381 . S
C1344 C1350 1.383 . S
C1345 C1341 1.495 . S
C1345 H1351 0.959 1_556 S
C1345 H1352 0.961 1_556 S
C1345 H1353 0.960 . S
C1346 C1344 1.381 . S
C1346 C1347 1.394 . S
C1346 H1354 0.930 . S
C1347 C1346 1.394 . S
C1347 C1348 1.383 . S
C1347 H1355 0.929 . S
C1348 C1347 1.383 . S
C1348 C1349 1.377 . S
C1349 H1333 0.930 . S
C1349 C1348 1.377 . S
C1349 C1350 1.379 . S
C1350 H1334 0.931 . S
C1350 C1344 1.383 . S
C1350 C1349 1.379 . S
H1351 C1345 0.959 1_554 S
H1352 C1345 0.961 1_554 S
H1353 C1345 0.960 . S
H1354 C1346 0.930 . S
H1355 C1347 0.929 . S
H1356 C1364 0.929 . S
H1357 C1366 0.930 . S
H1358 C1368 0.930 . S
H1359 C1371 0.929 . S
H1360 C1374 0.931 . S
H1361 C1376 0.960 . S
H1362 C1376 0.960 . S
H1363 C1376 0.960 . S
C1364 H1356 0.929 . S
C1364 C1365 1.377 . S
C1364 C1366 1.384 . S
C1365 C1364 1.377 . S
C1365 C1371 1.390 . S
C1366 H1357 0.930 . S
C1366 C1364 1.384 . S
C1366 C1367 1.372 . S
C1367 C1366 1.372 . S
C1367 C1368 1.400 . S
C1367 C1372 1.490 . S
C1368 H1358 0.930 . S
C1368 C1367 1.400 . S
C1368 C1371 1.386 . S
H1369 C1385 0.930 . S
H1370 C1386 0.931 . S
C1371 H1359 0.929 . S
C1371 C1365 1.390 . S
C1371 C1368 1.386 . S
C1372 C1367 1.490 . S
C1372 C1374 1.406 . S
C1372 C1375 1.403 . S
H1373 C1379 0.930 . S
C1374 H1360 0.931 . S
C1374 C1372 1.406 . S
C1374 C1377 1.391 1_556 S
C1375 C1372 1.403 . S
C1375 C1376 1.524 . S
C1375 C1379 1.400 1_556 S
C1376 H1361 0.960 . S
C1376 H1362 0.960 . S
C1376 H1363 0.960 . S
C1376 C1375 1.524 . S
C1377 C1374 1.391 1_554 S
C1377 C1378 1.392 . S
C1377 C1381 1.495 . S
C1378 C1377 1.392 . S
C1378 C1379 1.385 . S
C1378 C1380 1.478 . S
C1379 H1373 0.930 . S
C1379 C1375 1.400 1_554 S
C1379 C1378 1.385 . S
C1380 C1378 1.478 . S
C1380 C1382 1.381 . S
C1380 C1386 1.383 . S
C1381 C1377 1.495 . S
C1381 H1387 0.959 . S
C1381 H1388 0.961 . S
C1381 H1389 0.960 . S
C1382 C1380 1.381 . S
C1382 C1383 1.394 . S
C1382 H1390 0.930 . S
C1383 C1382 1.394 . S
C1383 C1384 1.383 . S
C1383 H1391 0.929 . S
C1384 C1383 1.383 . S
C1384 C1385 1.377 . S
C1385 H1369 0.930 . S
C1385 C1384 1.377 . S
C1385 C1386 1.379 . S
C1386 H1370 0.931 . S
C1386 C1380 1.383 . S
C1386 C1385 1.379 . S
H1387 C1381 0.959 . S
H1388 C1381 0.961 . S
H1389 C1381 0.960 . S
H1390 C1382 0.930 . S
H1391 C1383 0.929 . S
H1392 C1400 0.929 . S
H1393 C1402 0.930 . S
H1394 C1404 0.930 . S
H1395 C1407 0.929 . S
H1396 C1410 0.930 . S
H1397 C1412 0.960 . S
H1398 C1412 0.960 . S
H1399 C1412 0.960 . S
C1400 H1392 0.929 . S
C1400 C1401 1.377 . S
C1400 C1402 1.384 . S
C1401 C1400 1.377 . S
C1401 C1407 1.390 . S
C1402 H1393 0.930 . S
C1402 C1400 1.384 . S
C1402 C1403 1.372 . S
C1403 C1402 1.372 . S
C1403 C1404 1.400 . S
C1403 C1408 1.490 . S
C1404 H1394 0.930 . S
C1404 C1403 1.400 . S
C1404 C1407 1.386 . S
H1405 C1421 0.930 . S
H1406 C1422 0.931 . S
C1407 H1395 0.929 . S
C1407 C1401 1.390 . S
C1407 C1404 1.386 . S
C1408 C1403 1.490 . S
C1408 C1410 1.395 1_545 S
C1408 C1411 1.403 . S
H1409 C1415 0.929 1_545 S
C1410 H1396 0.930 . S
C1410 C1408 1.395 1_565 S
C1410 C1413 1.403 . S
C1411 C1408 1.403 . S
C1411 C1412 1.524 . S
C1411 C1415 1.395 1_545 S
C1412 H1397 0.960 . S
C1412 H1398 0.960 . S
C1412 H1399 0.960 . S
C1412 C1411 1.524 . S
C1413 C1410 1.403 . S
C1413 C1414 1.392 . S
C1413 C1417 1.495 . S
C1414 C1413 1.392 . S
C1414 C1415 1.390 . S
C1414 C1416 1.478 . S
C1415 H1409 0.929 1_565 S
C1415 C1411 1.395 1_565 S
C1415 C1414 1.390 . S
C1416 C1414 1.478 . S
C1416 C1418 1.381 . S
C1416 C1422 1.383 . S
C1417 C1413 1.495 . S
C1417 H1423 0.959 . S
C1417 H1424 0.961 . S
C1417 H1425 0.960 . S
C1418 C1416 1.381 . S
C1418 C1419 1.394 . S
C1418 H1426 0.930 . S
C1419 C1418 1.394 . S
C1419 C1420 1.383 . S
C1419 H1427 0.929 . S
C1420 C1419 1.383 . S
C1420 C1421 1.377 . S
C1421 H1405 0.930 . S
C1421 C1420 1.377 . S
C1421 C1422 1.379 . S
C1422 H1406 0.931 . S
C1422 C1416 1.383 . S
C1422 C1421 1.379 . S
H1423 C1417 0.959 . S
H1424 C1417 0.961 . S
H1425 C1417 0.960 . S
H1426 C1418 0.930 . S
H1427 C1419 0.929 . S
H1428 C1436 0.929 . S
H1429 C1438 0.930 . S
H1430 C1440 0.930 . S
H1431 C1443 0.929 . S
H1432 C1446 0.930 . S
H1433 C1448 0.960 . S
H1434 C1448 0.960 . S
H1435 C1448 0.960 . S
C1436 H1428 0.929 . S
C1436 C1437 1.377 . S
C1436 C1438 1.384 . S
C1437 C1436 1.377 . S
C1437 C1443 1.390 . S
C1438 H1429 0.930 . S
C1438 C1436 1.384 . S
C1438 C1439 1.372 . S
C1439 C1438 1.372 . S
C1439 C1440 1.400 . S
C1439 C1444 1.490 . S
C1440 H1430 0.930 . S
C1440 C1439 1.400 . S
C1440 C1443 1.386 . S
H1441 C1457 0.930 . S
H1442 C1458 0.931 . S
C1443 H1431 0.929 . S
C1443 C1437 1.390 . S
C1443 C1440 1.386 . S
C1444 C1439 1.490 . S
C1444 C1446 1.395 1_545 S
C1444 C1447 1.403 . S
H1445 C1451 0.931 . S
C1446 H1432 0.930 . S
C1446 C1444 1.395 1_565 S
C1446 C1449 1.403 . S
C1447 C1444 1.403 . S
C1447 C1448 1.524 . S
C1447 C1451 1.408 . S
C1448 H1433 0.960 . S
C1448 H1434 0.960 . S
C1448 H1435 0.960 . S
C1448 C1447 1.524 . S
C1449 C1446 1.403 . S
C1449 C1450 1.392 . S
C1449 C1453 1.495 . S
C1450 C1449 1.392 . S
C1450 C1451 1.376 1_565 S
C1450 C1452 1.478 . S
C1451 H1445 0.931 . S
C1451 C1447 1.408 . S
C1451 C1450 1.376 1_545 S
C1452 C1450 1.478 . S
C1452 C1454 1.381 . S
C1452 C1458 1.383 . S
C1453 C1449 1.495 . S
C1453 H1459 0.959 . S
C1453 H1460 0.961 . S
C1453 H1461 0.960 . S
C1454 C1452 1.381 . S
C1454 C1455 1.394 . S
C1454 H1462 0.930 . S
C1455 C1454 1.394 . S
C1455 C1456 1.383 . S
C1455 H1463 0.929 . S
C1456 C1455 1.383 . S
C1456 C1457 1.377 . S
C1457 H1441 0.930 . S
C1457 C1456 1.377 . S
C1457 C1458 1.379 . S
C1458 H1442 0.931 . S
C1458 C1452 1.383 . S
C1458 C1457 1.379 . S
H1459 C1453 0.959 . S
H1460 C1453 0.961 . S
H1461 C1453 0.960 . S
H1462 C1454 0.930 . S
H1463 C1455 0.929 . S
H1464 C1472 0.929 . S
H1465 C1474 0.930 . S
H1466 C1476 0.930 . S
H1467 C1479 0.929 . S
H1468 C1482 0.930 . S
H1469 C1484 0.960 . S
H1470 C1484 0.960 1_545 S
H1471 C1484 0.960 . S
C1472 H1464 0.929 . S
C1472 C1473 1.377 . S
C1472 C1474 1.384 . S
C1473 C1472 1.377 . S
C1473 C1479 1.390 . S
C1474 H1465 0.930 . S
C1474 C1472 1.384 . S
C1474 C1475 1.372 . S
C1475 C1474 1.372 . S
C1475 C1476 1.400 . S
C1475 C1480 1.490 . S
C1476 H1466 0.930 . S
C1476 C1475 1.400 . S
C1476 C1479 1.386 . S
H1477 C1493 0.930 . S
H1478 C1494 0.931 . S
C1479 H1467 0.929 . S
C1479 C1473 1.390 . S
C1479 C1476 1.386 . S
C1480 C1475 1.490 . S
C1480 C1482 1.395 . S
C1480 C1483 1.403 1_545 S
H1481 C1487 0.930 . S
C1482 H1468 0.930 . S
C1482 C1480 1.395 . S
C1482 C1485 1.403 . S
C1483 C1480 1.403 1_565 S
C1483 C1484 1.524 . S
C1483 C1487 1.400 . S
C1484 H1469 0.960 . S
C1484 H1470 0.960 1_565 S
C1484 H1471 0.960 . S
C1484 C1483 1.524 . S
C1485 C1482 1.403 . S
C1485 C1486 1.392 1_545 S
C1485 C1489 1.495 . S
C1486 C1485 1.392 1_565 S
C1486 C1487 1.385 . S
C1486 C1488 1.478 . S
C1487 H1481 0.930 . S
C1487 C1483 1.400 . S
C1487 C1486 1.385 . S
C1488 C1486 1.478 . S
C1488 C1490 1.381 . S
C1488 C1494 1.383 . S
C1489 C1485 1.495 . S
C1489 H1495 0.959 . S
C1489 H1496 0.951 1_545 S
C1489 H1497 0.960 . S
C1490 C1488 1.381 . S
C1490 C1491 1.394 . S
C1490 H1498 0.930 . S
C1491 C1490 1.394 . S
C1491 C1492 1.383 . S
C1491 H1499 0.929 . S
C1492 C1491 1.383 . S
C1492 C1493 1.377 . S
C1493 H1477 0.930 . S
C1493 C1492 1.377 . S
C1493 C1494 1.379 . S
C1494 H1478 0.931 . S
C1494 C1488 1.383 . S
C1494 C1493 1.379 . S
H1495 C1489 0.959 . S
H1496 C1489 0.951 1_565 S
H1497 C1489 0.960 . S
H1498 C1490 0.930 . S
H1499 C1491 0.929 . S
H1500 C1508 0.929 . S
H1501 C1510 0.930 . S
H1502 C1512 0.930 . S
H1503 C1515 0.929 . S
H1504 C1518 0.930 . S
H1505 C1520 0.960 . S
H1506 C1520 0.960 . S
H1507 C1520 0.960 . S
C1508 H1500 0.929 . S
C1508 C1509 1.377 . S
C1508 C1510 1.384 . S
C1509 C1508 1.377 . S
C1509 C1515 1.390 . S
C1510 H1501 0.930 . S
C1510 C1508 1.384 . S
C1510 C1511 1.372 . S
C1511 C1510 1.372 . S
C1511 C1512 1.400 . S
C1511 C1516 1.490 . S
C1512 H1502 0.930 . S
C1512 C1511 1.400 . S
C1512 C1515 1.386 . S
H1513 C1529 0.930 . S
H1514 C1530 0.931 . S
C1515 H1503 0.929 . S
C1515 C1509 1.390 . S
C1515 C1512 1.386 . S
C1516 C1511 1.490 . S
C1516 C1518 1.395 . S
C1516 C1519 1.403 1_545 S
H1517 C1523 0.930 . S
C1518 H1504 0.930 . S
C1518 C1516 1.395 . S
C1518 C1521 1.403 . S
C1519 C1516 1.403 1_565 S
C1519 C1520 1.524 . S
C1519 C1523 1.400 . S
C1520 H1505 0.960 . S
C1520 H1506 0.960 . S
C1520 H1507 0.960 . S
C1520 C1519 1.524 . S
C1521 C1518 1.403 . S
C1521 C1522 1.392 1_545 S
C1521 C1525 1.495 . S
C1522 C1521 1.392 1_565 S
C1522 C1523 1.385 . S
C1522 C1524 1.478 . S
C1523 H1517 0.930 . S
C1523 C1519 1.400 . S
C1523 C1522 1.385 . S
C1524 C1522 1.478 . S
C1524 C1526 1.381 . S
C1524 C1530 1.383 . S
C1525 C1521 1.495 . S
C1525 H1531 0.959 . S
C1525 H1532 0.961 . S
C1525 H1533 0.960 . S
C1526 C1524 1.381 . S
C1526 C1527 1.394 . S
C1526 H1534 0.930 . S
C1527 C1526 1.394 . S
C1527 C1528 1.383 . S
C1527 H1535 0.929 . S
C1528 C1527 1.383 . S
C1528 C1529 1.377 . S
C1529 H1513 0.930 . S
C1529 C1528 1.377 . S
C1529 C1530 1.379 . S
C1530 H1514 0.931 . S
C1530 C1524 1.383 . S
C1530 C1529 1.379 . S
H1531 C1525 0.959 . S
H1532 C1525 0.961 . S
H1533 C1525 0.960 . S
H1534 C1526 0.930 . S
H1535 C1527 0.929 . S
H1536 C1544 0.929 . S
H1537 C1546 0.930 . S
H1538 C1548 0.930 . S
H1539 C1551 0.929 . S
H1540 C1554 0.930 . S
H1541 C1556 0.960 . S
H1542 C1556 0.960 . S
H1543 C1556 0.960 . S
C1544 H1536 0.929 . S
C1544 C1545 1.377 . S
C1544 C1546 1.384 . S
C1545 C1544 1.377 . S
C1545 C1551 1.390 . S
C1546 H1537 0.930 . S
C1546 C1544 1.384 . S
C1546 C1547 1.372 . S
C1547 C1546 1.372 . S
C1547 C1548 1.400 . S
C1547 C1552 1.490 . S
C1548 H1538 0.930 . S
C1548 C1547 1.400 . S
C1548 C1551 1.386 . S
H1549 C1565 0.930 . S
H1550 C1566 0.931 . S
C1551 H1539 0.929 . S
C1551 C1545 1.390 . S
C1551 C1548 1.386 . S
C1552 C1547 1.490 . S
C1552 C1554 1.395 . S
C1552 C1555 1.403 . S
H1553 C1559 0.930 . S
C1554 H1540 0.930 . S
C1554 C1552 1.395 . S
C1554 C1557 1.403 . S
C1555 C1552 1.403 . S
C1555 C1556 1.524 . S
C1555 C1559 1.400 . S
C1556 H1541 0.960 . S
C1556 H1542 0.960 . S
C1556 H1543 0.960 . S
C1556 C1555 1.524 . S
C1557 C1554 1.403 . S
C1557 C1558 1.392 . S
C1557 C1561 1.495 . S
C1558 C1557 1.392 . S
C1558 C1559 1.385 . S
C1558 C1560 1.478 . S
C1559 H1553 0.930 . S
C1559 C1555 1.400 . S
C1559 C1558 1.385 . S
C1560 C1558 1.478 . S
C1560 C1562 1.381 . S
C1560 C1566 1.383 . S
C1561 C1557 1.495 . S
C1561 H1567 0.959 . S
C1561 H1568 0.961 . S
C1561 H1569 0.960 . S
C1562 C1560 1.381 . S
C1562 C1563 1.394 . S
C1562 H1570 0.930 . S
C1563 C1562 1.394 . S
C1563 C1564 1.383 . S
C1563 H1571 0.929 . S
C1564 C1563 1.383 . S
C1564 C1565 1.377 . S
C1565 H1549 0.930 . S
C1565 C1564 1.377 . S
C1565 C1566 1.379 . S
C1566 H1550 0.931 . S
C1566 C1560 1.383 . S
C1566 C1565 1.379 . S
H1567 C1561 0.959 . S
H1568 C1561 0.961 . S
H1569 C1561 0.960 . S
H1570 C1562 0.930 . S
H1571 C1563 0.929 . S
H1572 C1580 0.929 . S
H1573 C1582 0.930 . S
H1574 C1584 0.930 . S
H1575 C1587 0.929 . S
H1576 C1590 0.930 . S
H1577 C1592 0.960 . S
H1578 C1592 0.960 . S
H1579 C1592 0.960 . S
C1580 H1572 0.929 . S
C1580 C1581 1.377 . S
C1580 C1582 1.384 . S
C1581 C1580 1.377 . S
C1581 C1587 1.390 . S
C1582 H1573 0.930 . S
C1582 C1580 1.384 . S
C1582 C1583 1.372 . S
C1583 C1582 1.372 . S
C1583 C1584 1.400 . S
C1583 C1588 1.490 . S
C1584 H1574 0.930 . S
C1584 C1583 1.400 . S
C1584 C1587 1.386 . S
H1585 C1601 0.930 . S
H1586 C1602 0.931 . S
C1587 H1575 0.929 . S
C1587 C1581 1.390 . S
C1587 C1584 1.386 . S
C1588 C1583 1.490 . S
C1588 C1590 1.395 . S
C1588 C1591 1.403 . S
H1589 C1595 0.930 . S
C1590 H1576 0.930 . S
C1590 C1588 1.395 . S
C1590 C1593 1.403 . S
C1591 C1588 1.403 . S
C1591 C1592 1.524 . S
C1591 C1595 1.400 . S
C1592 H1577 0.960 . S
C1592 H1578 0.960 . S
C1592 H1579 0.960 . S
C1592 C1591 1.524 . S
C1593 C1590 1.403 . S
C1593 C1594 1.392 . S
C1593 C1597 1.495 . S
C1594 C1593 1.392 . S
C1594 C1595 1.385 . S
C1594 C1596 1.478 . S
C1595 H1589 0.930 . S
C1595 C1591 1.400 . S
C1595 C1594 1.385 . S
C1596 C1594 1.478 . S
C1596 C1598 1.381 . S
C1596 C1602 1.383 . S
C1597 C1593 1.495 . S
C1597 H1603 0.959 . S
C1597 H1604 0.961 . S
C1597 H1605 0.960 . S
C1598 C1596 1.381 . S
C1598 C1599 1.394 . S
C1598 H1606 0.930 . S
C1599 C1598 1.394 . S
C1599 C1600 1.383 . S
C1599 H1607 0.929 . S
C1600 C1599 1.383 . S
C1600 C1601 1.377 . S
C1601 H1585 0.930 . S
C1601 C1600 1.377 . S
C1601 C1602 1.379 . S
C1602 H1586 0.931 . S
C1602 C1596 1.383 . S
C1602 C1601 1.379 . S
H1603 C1597 0.959 . S
H1604 C1597 0.961 . S
H1605 C1597 0.960 . S
H1606 C1598 0.930 . S
H1607 C1599 0.929 . S
H1608 C1616 0.929 . S
H1609 C1618 0.930 . S
H1610 C1620 0.930 . S
H1611 C1623 0.929 . S
H1612 C1626 0.930 . S
H1613 C1628 0.960 . S
H1614 C1628 0.960 . S
H1615 C1628 0.960 . S
C1616 H1608 0.929 . S
C1616 C1617 1.377 . S
C1616 C1618 1.384 . S
C1617 C1616 1.377 . S
C1617 C1623 1.390 . S
C1618 H1609 0.930 . S
C1618 C1616 1.384 . S
C1618 C1619 1.372 . S
C1619 C1618 1.372 . S
C1619 C1620 1.400 . S
C1619 C1624 1.490 . S
C1620 H1610 0.930 . S
C1620 C1619 1.400 . S
C1620 C1623 1.386 . S
H1621 C1637 0.930 . S
H1622 C1638 0.931 . S
C1623 H1611 0.929 . S
C1623 C1617 1.390 . S
C1623 C1620 1.386 . S
C1624 C1619 1.490 . S
C1624 C1626 1.395 . S
C1624 C1627 1.403 . S
H1625 C1631 0.930 . S
C1626 H1612 0.930 . S
C1626 C1624 1.395 . S
C1626 C1629 1.403 . S
C1627 C1624 1.403 . S
C1627 C1628 1.524 . S
C1627 C1631 1.400 . S
C1628 H1613 0.960 . S
C1628 H1614 0.960 . S
C1628 H1615 0.960 . S
C1628 C1627 1.524 . S
C1629 C1626 1.403 . S
C1629 C1630 1.392 . S
C1629 C1633 1.495 . S
C1630 C1629 1.392 . S
C1630 C1631 1.385 . S
C1630 C1632 1.478 . S
C1631 H1625 0.930 . S
C1631 C1627 1.400 . S
C1631 C1630 1.385 . S
C1632 C1630 1.478 . S
C1632 C1634 1.381 . S
C1632 C1638 1.383 . S
C1633 C1629 1.495 . S
C1633 H1639 0.959 . S
C1633 H1640 0.961 . S
C1633 H1641 0.960 . S
C1634 C1632 1.381 . S
C1634 C1635 1.394 . S
C1634 H1642 0.930 . S
C1635 C1634 1.394 . S
C1635 C1636 1.383 . S
C1635 H1643 0.929 . S
C1636 C1635 1.383 . S
C1636 C1637 1.377 . S
C1637 H1621 0.930 . S
C1637 C1636 1.377 . S
C1637 C1638 1.379 . S
C1638 H1622 0.931 . S
C1638 C1632 1.383 . S
C1638 C1637 1.379 . S
H1639 C1633 0.959 . S
H1640 C1633 0.961 . S
H1641 C1633 0.960 . S
H1642 C1634 0.930 . S
H1643 C1635 0.929 . S
H1644 C1652 0.929 . S
H1645 C1654 0.930 . S
H1646 C1656 0.930 . S
H1647 C1659 0.929 . S
H1648 C1662 0.930 . S
H1649 C1664 0.960 . S
H1650 C1664 0.960 . S
H1651 C1664 0.960 . S
C1652 H1644 0.929 . S
C1652 C1653 1.377 . S
C1652 C1654 1.384 . S
C1653 C1652 1.377 . S
C1653 C1659 1.390 . S
C1654 H1645 0.930 . S
C1654 C1652 1.384 . S
C1654 C1655 1.372 . S
C1655 C1654 1.372 . S
C1655 C1656 1.400 . S
C1655 C1660 1.490 . S
C1656 H1646 0.930 . S
C1656 C1655 1.400 . S
C1656 C1659 1.386 . S
H1657 C1673 0.930 . S
H1658 C1674 0.931 . S
C1659 H1647 0.929 . S
C1659 C1653 1.390 . S
C1659 C1656 1.386 . S
C1660 C1655 1.490 . S
C1660 C1662 1.395 . S
C1660 C1663 1.403 . S
H1661 C1667 0.930 . S
C1662 H1648 0.930 . S
C1662 C1660 1.395 . S
C1662 C1665 1.403 . S
C1663 C1660 1.403 . S
C1663 C1664 1.524 . S
C1663 C1667 1.400 . S
C1664 H1649 0.960 . S
C1664 H1650 0.960 . S
C1664 H1651 0.960 . S
C1664 C1663 1.524 . S
C1665 C1662 1.403 . S
C1665 C1666 1.392 . S
C1665 C1669 1.495 . S
C1666 C1665 1.392 . S
C1666 C1667 1.385 . S
C1666 C1668 1.478 . S
C1667 H1661 0.930 . S
C1667 C1663 1.400 . S
C1667 C1666 1.385 . S
C1668 C1666 1.478 . S
C1668 C1670 1.381 . S
C1668 C1674 1.383 . S
C1669 C1665 1.495 . S
C1669 H1675 0.959 . S
C1669 H1676 0.961 . S
C1669 H1677 0.960 . S
C1670 C1668 1.381 . S
C1670 C1671 1.394 . S
C1670 H1678 0.930 . S
C1671 C1670 1.394 . S
C1671 C1672 1.383 . S
C1671 H1679 0.929 . S
C1672 C1671 1.383 . S
C1672 C1673 1.377 . S
C1673 H1657 0.930 . S
C1673 C1672 1.377 . S
C1673 C1674 1.379 . S
C1674 H1658 0.931 . S
C1674 C1668 1.383 . S
C1674 C1673 1.379 . S
H1675 C1669 0.959 . S
H1676 C1669 0.961 . S
H1677 C1669 0.960 . S
H1678 C1670 0.930 . S
H1679 C1671 0.929 . S
H1680 C1688 0.929 . S
H1681 C1690 0.930 . S
H1682 C1692 0.930 . S
H1683 C1695 0.929 . S
H1684 C1698 0.930 . S
H1685 C1700 0.960 . S
H1686 C1700 0.960 . S
H1687 C1700 0.960 . S
C1688 H1680 0.929 . S
C1688 C1689 1.377 . S
C1688 C1690 1.384 . S
C1689 C1688 1.377 . S
C1689 C1695 1.390 . S
C1690 H1681 0.930 . S
C1690 C1688 1.384 . S
C1690 C1691 1.372 . S
C1691 C1690 1.372 . S
C1691 C1692 1.400 . S
C1691 C1696 1.490 . S
C1692 H1682 0.930 . S
C1692 C1691 1.400 . S
C1692 C1695 1.386 . S
H1693 C1709 0.930 . S
H1694 C1710 0.931 . S
C1695 H1683 0.929 . S
C1695 C1689 1.390 . S
C1695 C1692 1.386 . S
C1696 C1691 1.490 . S
C1696 C1698 1.395 1_455 S
C1696 C1699 1.403 . S
H1697 C1703 0.930 . S
C1698 H1684 0.930 . S
C1698 C1696 1.395 1_655 S
C1698 C1701 1.403 . S
C1699 C1696 1.403 . S
C1699 C1700 1.524 . S
C1699 C1703 1.400 . S
C1700 H1685 0.960 . S
C1700 H1686 0.960 . S
C1700 H1687 0.960 . S
C1700 C1699 1.524 . S
C1701 C1698 1.403 . S
C1701 C1702 1.392 . S
C1701 C1705 1.495 . S
C1702 C1701 1.392 . S
C1702 C1703 1.385 1_655 S
C1702 C1704 1.478 . S
C1703 H1697 0.930 . S
C1703 C1699 1.400 . S
C1703 C1702 1.385 1_455 S
C1704 C1702 1.478 . S
C1704 C1706 1.381 . S
C1704 C1710 1.383 . S
C1705 C1701 1.495 . S
C1705 H1711 0.959 . S
C1705 H1712 0.961 . S
C1705 H1713 0.960 . S
C1706 C1704 1.381 . S
C1706 C1707 1.394 . S
C1706 H1714 0.930 . S
C1707 C1706 1.394 . S
C1707 C1708 1.383 . S
C1707 H1715 0.929 . S
C1708 C1707 1.383 . S
C1708 C1709 1.377 . S
C1709 H1693 0.930 . S
C1709 C1708 1.377 . S
C1709 C1710 1.379 . S
C1710 H1694 0.931 . S
C1710 C1704 1.383 . S
C1710 C1709 1.379 . S
H1711 C1705 0.959 . S
H1712 C1705 0.961 . S
H1713 C1705 0.960 . S
H1714 C1706 0.930 . S
H1715 C1707 0.929 . S
H1716 C1724 0.929 . S
H1717 C1726 0.930 . S
H1718 C1728 0.930 . S
H1719 C1731 0.929 . S
H1720 C1734 0.930 . S
H1721 C1736 0.960 . S
H1722 C1736 0.960 . S
H1723 C1736 0.960 . S
C1724 H1716 0.929 . S
C1724 C1725 1.377 . S
C1724 C1726 1.384 . S
C1725 C1724 1.377 . S
C1725 C1731 1.390 . S
C1726 H1717 0.930 . S
C1726 C1724 1.384 . S
C1726 C1727 1.372 . S
C1727 C1726 1.372 . S
C1727 C1728 1.400 . S
C1727 C1732 1.490 . S
C1728 H1718 0.930 . S
C1728 C1727 1.400 . S
C1728 C1731 1.386 . S
H1729 C1745 0.930 . S
H1730 C1746 0.931 . S
C1731 H1719 0.929 . S
C1731 C1725 1.390 . S
C1731 C1728 1.386 . S
C1732 C1727 1.490 . S
C1732 C1734 1.395 . S
C1732 C1735 1.403 . S
H1733 C1739 0.930 . S
C1734 H1720 0.930 . S
C1734 C1732 1.395 . S
C1734 C1737 1.403 . S
C1735 C1732 1.403 . S
C1735 C1736 1.524 . S
C1735 C1739 1.400 . S
C1736 H1721 0.960 . S
C1736 H1722 0.960 . S
C1736 H1723 0.960 . S
C1736 C1735 1.524 . S
C1737 C1734 1.403 . S
C1737 C1738 1.392 . S
C1737 C1741 1.495 . S
C1738 C1737 1.392 . S
C1738 C1739 1.385 . S
C1738 C1740 1.478 . S
C1739 H1733 0.930 . S
C1739 C1735 1.400 . S
C1739 C1738 1.385 . S
C1740 C1738 1.478 . S
C1740 C1742 1.381 . S
C1740 C1746 1.383 . S
C1741 C1737 1.495 . S
C1741 H1747 0.959 . S
C1741 H1748 0.961 . S
C1741 H1749 0.960 . S
C1742 C1740 1.381 . S
C1742 C1743 1.394 . S
C1742 H1750 0.930 . S
C1743 C1742 1.394 . S
C1743 C1744 1.383 . S
C1743 H1751 0.929 . S
C1744 C1743 1.383 . S
C1744 C1745 1.377 . S
C1745 H1729 0.930 . S
C1745 C1744 1.377 . S
C1745 C1746 1.379 . S
C1746 H1730 0.931 . S
C1746 C1740 1.383 . S
C1746 C1745 1.379 . S
H1747 C1741 0.959 . S
H1748 C1741 0.961 . S
H1749 C1741 0.960 . S
H1750 C1742 0.930 . S
H1751 C1743 0.929 . S
H1752 C1760 0.929 . S
H1753 C1762 0.930 . S
H1754 C1764 0.930 . S
H1755 C1767 0.929 . S
H1756 C1770 0.930 . S
H1757 C1772 0.960 . S
H1758 C1772 0.960 . S
H1759 C1772 0.960 . S
C1760 H1752 0.929 . S
C1760 C1761 1.377 . S
C1760 C1762 1.384 . S
C1761 C1760 1.377 . S
C1761 C1767 1.390 . S
C1762 H1753 0.930 . S
C1762 C1760 1.384 . S
C1762 C1763 1.372 . S
C1763 C1762 1.372 . S
C1763 C1764 1.400 . S
C1763 C1768 1.490 . S
C1764 H1754 0.930 . S
C1764 C1763 1.400 . S
C1764 C1767 1.386 . S
H1765 C1781 0.930 . S
H1766 C1782 0.931 . S
C1767 H1755 0.929 . S
C1767 C1761 1.390 . S
C1767 C1764 1.386 . S
C1768 C1763 1.490 . S
C1768 C1770 1.395 . S
C1768 C1771 1.403 . S
H1769 C1775 0.930 . S
C1770 H1756 0.930 . S
C1770 C1768 1.395 . S
C1770 C1773 1.403 . S
C1771 C1768 1.403 . S
C1771 C1772 1.524 . S
C1771 C1775 1.400 . S
C1772 H1757 0.960 . S
C1772 H1758 0.960 . S
C1772 H1759 0.960 . S
C1772 C1771 1.524 . S
C1773 C1770 1.403 . S
C1773 C1774 1.392 . S
C1773 C1777 1.495 . S
C1774 C1773 1.392 . S
C1774 C1775 1.385 . S
C1774 C1776 1.478 . S
C1775 H1769 0.930 . S
C1775 C1771 1.400 . S
C1775 C1774 1.385 . S
C1776 C1774 1.478 . S
C1776 C1778 1.381 . S
C1776 C1782 1.383 . S
C1777 C1773 1.495 . S
C1777 H1783 0.959 . S
C1777 H1784 0.961 . S
C1777 H1785 0.960 . S
C1778 C1776 1.381 . S
C1778 C1779 1.394 . S
C1778 H1786 0.930 . S
C1779 C1778 1.394 . S
C1779 C1780 1.383 . S
C1779 H1787 0.929 . S
C1780 C1779 1.383 . S
C1780 C1781 1.377 . S
C1781 H1765 0.930 . S
C1781 C1780 1.377 . S
C1781 C1782 1.379 . S
C1782 H1766 0.931 . S
C1782 C1776 1.383 . S
C1782 C1781 1.379 . S
H1783 C1777 0.959 . S
H1784 C1777 0.961 . S
H1785 C1777 0.960 . S
H1786 C1778 0.930 . S
H1787 C1779 0.929 . S
H1788 C1796 0.929 . S
H1789 C1798 0.930 . S
H1790 C1800 0.930 . S
H1791 C1803 0.929 . S
H1792 C1806 0.930 . S
H1793 C1808 0.960 . S
H1794 C1808 0.960 . S
H1795 C1808 0.960 . S
C1796 H1788 0.929 . S
C1796 C1797 1.377 . S
C1796 C1798 1.384 . S
C1797 C1796 1.377 . S
C1797 C1803 1.390 . S
C1798 H1789 0.930 . S
C1798 C1796 1.384 . S
C1798 C1799 1.372 . S
C1799 C1798 1.372 . S
C1799 C1800 1.400 . S
C1799 C1804 1.490 . S
C1800 H1790 0.930 . S
C1800 C1799 1.400 . S
C1800 C1803 1.386 . S
H1801 C1817 0.930 . S
H1802 C1818 0.931 . S
C1803 H1791 0.929 . S
C1803 C1797 1.390 . S
C1803 C1800 1.386 . S
C1804 C1799 1.490 . S
C1804 C1806 1.395 . S
C1804 C1807 1.403 1_655 S
H1805 C1811 0.930 . S
C1806 H1792 0.930 . S
C1806 C1804 1.395 . S
C1806 C1809 1.403 . S
C1807 C1804 1.403 1_455 S
C1807 C1808 1.524 . S
C1807 C1811 1.400 . S
C1808 H1793 0.960 . S
C1808 H1794 0.960 . S
C1808 H1795 0.960 . S
C1808 C1807 1.524 . S
C1809 C1806 1.403 . S
C1809 C1810 1.392 1_655 S
C1809 C1813 1.495 . S
C1810 C1809 1.392 1_455 S
C1810 C1811 1.385 . S
C1810 C1812 1.478 . S
C1811 H1805 0.930 . S
C1811 C1807 1.400 . S
C1811 C1810 1.385 . S
C1812 C1810 1.478 . S
C1812 C1814 1.381 . S
C1812 C1818 1.383 . S
C1813 C1809 1.495 . S
C1813 H1819 0.959 . S
C1813 H1820 0.961 . S
C1813 H1821 0.960 . S
C1814 C1812 1.381 . S
C1814 C1815 1.394 . S
C1814 H1822 0.930 . S
C1815 C1814 1.394 . S
C1815 C1816 1.383 . S
C1815 H1823 0.929 . S
C1816 C1815 1.383 . S
C1816 C1817 1.377 . S
C1817 H1801 0.930 . S
C1817 C1816 1.377 . S
C1817 C1818 1.379 . S
C1818 H1802 0.931 . S
C1818 C1812 1.383 . S
C1818 C1817 1.379 . S
H1819 C1813 0.959 . S
H1820 C1813 0.961 . S
H1821 C1813 0.960 . S
H1822 C1814 0.930 . S
H1823 C1815 0.929 . S
H1824 C1832 0.929 . S
H1825 C1834 0.930 . S
H1826 C1836 0.930 . S
H1827 C1839 0.929 . S
H1828 C1842 0.930 . S
H1829 C1844 0.960 . S
H1830 C1844 0.960 . S
H1831 C1844 0.960 1_655 S
C1832 H1824 0.929 . S
C1832 C1833 1.377 . S
C1832 C1834 1.384 . S
C1833 C1832 1.377 . S
C1833 C1839 1.390 . S
C1834 H1825 0.930 . S
C1834 C1832 1.384 . S
C1834 C1835 1.372 . S
C1835 C1834 1.372 . S
C1835 C1836 1.400 . S
C1835 C1840 1.490 . S
C1836 H1826 0.930 . S
C1836 C1835 1.400 . S
C1836 C1839 1.386 . S
H1837 C1853 0.930 . S
H1838 C1854 0.931 . S
C1839 H1827 0.929 . S
C1839 C1833 1.390 . S
C1839 C1836 1.386 . S
C1840 C1835 1.490 . S
C1840 C1842 1.395 . S
C1840 C1843 1.403 1_655 S
H1841 C1847 0.930 . S
C1842 H1828 0.930 . S
C1842 C1840 1.395 . S
C1842 C1845 1.403 . S
C1843 C1840 1.403 1_455 S
C1843 C1844 1.524 . S
C1843 C1847 1.400 . S
C1844 H1829 0.960 . S
C1844 H1830 0.960 . S
C1844 H1831 0.960 1_455 S
C1844 C1843 1.524 . S
C1845 C1842 1.403 . S
C1845 C1846 1.392 1_655 S
C1845 C1849 1.495 . S
C1846 C1845 1.392 1_455 S
C1846 C1847 1.385 . S
C1846 C1848 1.478 . S
C1847 H1841 0.930 . S
C1847 C1843 1.400 . S
C1847 C1846 1.385 . S
C1848 C1846 1.478 . S
C1848 C1850 1.381 . S
C1848 C1854 1.383 . S
C1849 C1845 1.495 . S
C1849 H1855 0.959 . S
C1849 H1856 0.961 . S
C1849 H1857 0.960 1_655 S
C1850 C1848 1.381 . S
C1850 C1851 1.394 . S
C1850 H1858 0.930 . S
C1851 C1850 1.394 . S
C1851 C1852 1.383 . S
C1851 H1859 0.929 . S
C1852 C1851 1.383 . S
C1852 C1853 1.377 . S
C1853 H1837 0.930 . S
C1853 C1852 1.377 . S
C1853 C1854 1.379 . S
C1854 H1838 0.931 . S
C1854 C1848 1.383 . S
C1854 C1853 1.379 . S
H1855 C1849 0.959 . S
H1856 C1849 0.961 . S
H1857 C1849 0.960 1_455 S
H1858 C1850 0.930 . S
H1859 C1851 0.929 . S
H1860 C1868 0.929 . S
H1861 C1870 0.930 . S
H1862 C1872 0.930 . S
H1863 C1875 0.929 . S
H1864 C1878 0.930 . S
H1865 C1880 0.960 . S
H1866 C1880 0.960 . S
H1867 C1880 0.960 . S
C1868 H1860 0.929 . S
C1868 C1869 1.377 . S
C1868 C1870 1.384 . S
C1869 C1868 1.377 . S
C1869 C1875 1.390 . S
C1870 H1861 0.930 . S
C1870 C1868 1.384 . S
C1870 C1871 1.372 . S
C1871 C1870 1.372 . S
C1871 C1872 1.400 . S
C1871 C1876 1.490 . S
C1872 H1862 0.930 . S
C1872 C1871 1.400 . S
C1872 C1875 1.386 . S
H1873 C1889 0.930 . S
H1874 C1890 0.931 . S
C1875 H1863 0.929 . S
C1875 C1869 1.390 . S
C1875 C1872 1.386 . S
C1876 C1871 1.490 . S
C1876 C1878 1.395 . S
C1876 C1879 1.403 . S
H1877 C1883 0.930 . S
C1878 H1864 0.930 . S
C1878 C1876 1.395 . S
C1878 C1881 1.403 . S
C1879 C1876 1.403 . S
C1879 C1880 1.524 . S
C1879 C1883 1.400 . S
C1880 H1865 0.960 . S
C1880 H1866 0.960 . S
C1880 H1867 0.960 . S
C1880 C1879 1.524 . S
C1881 C1878 1.403 . S
C1881 C1882 1.392 . S
C1881 C1885 1.495 . S
C1882 C1881 1.392 . S
C1882 C1883 1.385 . S
C1882 C1884 1.478 . S
C1883 H1877 0.930 . S
C1883 C1879 1.400 . S
C1883 C1882 1.385 . S
C1884 C1882 1.478 . S
C1884 C1886 1.381 . S
C1884 C1890 1.383 . S
C1885 C1881 1.495 . S
C1885 H1891 0.959 . S
C1885 H1892 0.961 . S
C1885 H1893 0.960 . S
C1886 C1884 1.381 . S
C1886 C1887 1.394 . S
C1886 H1894 0.930 . S
C1887 C1886 1.394 . S
C1887 C1888 1.383 . S
C1887 H1895 0.929 . S
C1888 C1887 1.383 . S
C1888 C1889 1.377 . S
C1889 H1873 0.930 . S
C1889 C1888 1.377 . S
C1889 C1890 1.379 . S
C1890 H1874 0.931 . S
C1890 C1884 1.383 . S
C1890 C1889 1.379 . S
H1891 C1885 0.959 . S
H1892 C1885 0.961 . S
H1893 C1885 0.960 . S
H1894 C1886 0.930 . S
H1895 C1887 0.929 . S
H1896 C1904 0.929 . S
H1897 C1906 0.930 . S
H1898 C1908 0.930 . S
H1899 C1911 0.929 . S
H1900 C1914 0.930 . S
H1901 C1916 0.960 . S
H1902 C1916 0.960 . S
H1903 C1916 0.960 . S
C1904 H1896 0.929 . S
C1904 C1905 1.377 . S
C1904 C1906 1.384 . S
C1905 C1904 1.377 . S
C1905 C1911 1.390 . S
C1906 H1897 0.930 . S
C1906 C1904 1.384 . S
C1906 C1907 1.372 . S
C1907 C1906 1.372 . S
C1907 C1908 1.400 . S
C1907 C1912 1.490 . S
C1908 H1898 0.930 . S
C1908 C1907 1.400 . S
C1908 C1911 1.386 . S
H1909 C1925 0.930 . S
H1910 C1926 0.931 . S
C1911 H1899 0.929 . S
C1911 C1905 1.390 . S
C1911 C1908 1.386 . S
C1912 C1907 1.490 . S
C1912 C1914 1.395 . S
C1912 C1915 1.403 . S
H1913 C1919 0.930 . S
C1914 H1900 0.930 . S
C1914 C1912 1.395 . S
C1914 C1917 1.403 . S
C1915 C1912 1.403 . S
C1915 C1916 1.524 . S
C1915 C1919 1.400 . S
C1916 H1901 0.960 . S
C1916 H1902 0.960 . S
C1916 H1903 0.960 . S
C1916 C1915 1.524 . S
C1917 C1914 1.403 . S
C1917 C1918 1.392 . S
C1917 C1921 1.495 . S
C1918 C1917 1.392 . S
C1918 C1919 1.385 . S
C1918 C1920 1.478 . S
C1919 H1913 0.930 . S
C1919 C1915 1.400 . S
C1919 C1918 1.385 . S
C1920 C1918 1.478 . S
C1920 C1922 1.381 . S
C1920 C1926 1.383 . S
C1921 C1917 1.495 . S
C1921 H1927 0.959 . S
C1921 H1928 0.961 . S
C1921 H1929 0.960 . S
C1922 C1920 1.381 . S
C1922 C1923 1.394 . S
C1922 H1930 0.930 . S
C1923 C1922 1.394 . S
C1923 C1924 1.383 . S
C1923 H1931 0.929 . S
C1924 C1923 1.383 . S
C1924 C1925 1.377 . S
C1925 H1909 0.930 . S
C1925 C1924 1.377 . S
C1925 C1926 1.379 . S
C1926 H1910 0.931 . S
C1926 C1920 1.383 . S
C1926 C1925 1.379 . S
H1927 C1921 0.959 . S
H1928 C1921 0.961 . S
H1929 C1921 0.960 . S
H1930 C1922 0.930 . S
H1931 C1923 0.929 . S
H1932 C1940 0.929 . S
H1933 C1942 0.930 . S
H1934 C1944 0.930 . S
H1935 C1947 0.929 . S
H1936 C1950 0.930 . S
H1937 C1952 0.960 . S
H1938 C1952 0.960 . S
H1939 C1952 0.960 . S
C1940 H1932 0.929 . S
C1940 C1941 1.377 . S
C1940 C1942 1.384 . S
C1941 C1940 1.377 . S
C1941 C1947 1.390 . S
C1942 H1933 0.930 . S
C1942 C1940 1.384 . S
C1942 C1943 1.372 . S
C1943 C1942 1.372 . S
C1943 C1944 1.400 . S
C1943 C1948 1.490 . S
C1944 H1934 0.930 . S
C1944 C1943 1.400 . S
C1944 C1947 1.386 . S
H1945 C1961 0.930 . S
H1946 C1962 0.931 . S
C1947 H1935 0.929 . S
C1947 C1941 1.390 . S
C1947 C1944 1.386 . S
C1948 C1943 1.490 . S
C1948 C1950 1.395 . S
C1948 C1951 1.403 1_655 S
H1949 C1955 0.930 . S
C1950 H1936 0.930 . S
C1950 C1948 1.395 . S
C1950 C1953 1.403 . S
C1951 C1948 1.403 1_455 S
C1951 C1952 1.524 . S
C1951 C1955 1.400 . S
C1952 H1937 0.960 . S
C1952 H1938 0.960 . S
C1952 H1939 0.960 . S
C1952 C1951 1.524 . S
C1953 C1950 1.403 . S
C1953 C1954 1.392 1_655 S
C1953 C1957 1.495 . S
C1954 C1953 1.392 1_455 S
C1954 C1955 1.385 . S
C1954 C1956 1.478 . S
C1955 H1949 0.930 . S
C1955 C1951 1.400 . S
C1955 C1954 1.385 . S
C1956 C1954 1.478 . S
C1956 C1958 1.381 . S
C1956 C1962 1.383 . S
C1957 C1953 1.495 . S
C1957 H1963 0.959 . S
C1957 H1964 0.961 . S
C1957 H1965 0.960 . S
C1958 C1956 1.381 . S
C1958 C1959 1.394 . S
C1958 H1966 0.930 . S
C1959 C1958 1.394 . S
C1959 C1960 1.383 . S
C1959 H1967 0.929 . S
C1960 C1959 1.383 . S
C1960 C1961 1.377 . S
C1961 H1945 0.930 . S
C1961 C1960 1.377 . S
C1961 C1962 1.379 . S
C1962 H1946 0.931 . S
C1962 C1956 1.383 . S
C1962 C1961 1.379 . S
H1963 C1957 0.959 . S
H1964 C1957 0.961 . S
H1965 C1957 0.960 . S
H1966 C1958 0.930 . S
H1967 C1959 0.929 . S
C537 C120 0.473 . S
C556 C21 0.555 . S
C573 C87 0.491 . S
C592 C54 0.483 . S
C609 C153 0.476 . S
C628 C252 0.517 . S
C645 C186 0.473 . S
C664 C219 0.481 . S
C681 C285 0.479 . S
C700 C384 0.536 . S
C717 C318 0.474 . S
C736 C351 0.554 . S
C753 C516 0.498 . S
C772 C417 0.527 . S
C789 C483 0.490 . S
C808 C450 0.458 . S
C825 N2 1.033 . S
C844 N332 1.023 . S
C861 N365 1.034 . S
C880 N35 1.012 . S
C897 N266 1.045 . S
C916 N68 1.053 . S
C933 N299 1.045 . S
C952 N101 1.053 . S
C969 N464 1.042 . S
C988 N134 1.025 . S
C1005 N497 1.035 . S
C1024 N167 1.010 . S
C1041 N398 1.038 . S
C1060 N200 1.010 . S
C1077 N431 1.035 . S
C1096 N233 1.045 . S
C1113 N13 1.666 . S
C1132 N145 1.637 . S
C1149 N46 1.672 . S
C1168 N178 1.657 . S
C1185 N211 1.668 . S
C1204 N79 1.640 . S
C1221 N112 1.672 . S
C1240 N244 1.690 . S
C1257 N277 1.668 . S
C1276 N409 1.641 . S
C1293 N442 1.665 . S
C1312 N310 1.637 . S
C1329 N343 1.668 . S
C1348 N475 1.689 . S
C1365 N508 1.667 . S
C1384 N376 1.686 . S
C1401 C18 1.319 . S
C1420 C51 1.335 . S
C1437 C117 1.318 . S
C1456 C84 1.332 . S
C1473 C183 1.317 . S
C1492 C150 1.285 . S
C1509 C216 1.315 . S
C1528 C249 1.287 . S
C1545 C315 1.308 . S
C1564 C282 1.285 . S
C1581 C381 1.319 . S
C1600 C348 1.335 . S
C1617 C414 1.311 . S
C1636 C447 1.336 . S
C1653 C513 1.315 . S
C1672 C480 1.327 . S
C1689 C7 0.629 . S
C1708 C304 0.707 . S
C1725 C40 0.659 . S
C1744 C271 0.571 . S
C1761 C73 0.653 . S
C1780 C370 0.591 . S
C1797 C106 0.652 . S
C1816 C337 0.614 . S
C1833 C139 0.631 . S
C1852 C436 0.567 . S
C1869 C403 0.658 . S
C1888 C172 0.704 . S
C1905 C205 0.626 . S
C1924 C502 0.619 . S
C1941 C469 0.627 . S
C1960 C238 0.631 . S
