# Generated by pormake.
# Topology vby, (6)-cn, num edge types: 1
# Building blocks:
#     Node 0, Type 0, BuildingBlock: BETFEN_clean_sbu_0, # of connection points: 6
#     Node 1, Type 0, BuildingBlock: BETFEN_clean_sbu_0, # of connection points: 6
#     Node 2, Type 0, BuildingBlock: BETFEN_clean_sbu_0, # of connection points: 6
#     Node 3, Type 0, BuildingBlock: BETFEN_clean_sbu_0, # of connection points: 6
#     Node 4, Type 0, BuildingBlock: BETFEN_clean_sbu_0, # of connection points: 6
#     Node 5, Type 0, BuildingBlock: BETFEN_clean_sbu_0, # of connection points: 6
#     Node 6, Type 0, BuildingBlock: BETFEN_clean_sbu_0, # of connection points: 6
#     Node 7, Type 0, BuildingBlock: BETFEN_clean_sbu_0, # of connection points: 6
#     Edge 8, Type (0, 0), BuildingBlock: EZIPEK_clean_linker_0, # of connection points: 2
#     Edge 9, Type (0, 0), BuildingBlock: EZIPEK_clean_linker_0, # of connection points: 2
#     Edge 10, Type (0, 0), BuildingBlock: EZIPEK_clean_linker_0, # of connection points: 2
#     Edge 11, Type (0, 0), BuildingBlock: EZIPEK_clean_linker_0, # of connection points: 2
#     Edge 12, Type (0, 0), BuildingBlock: EZIPEK_clean_linker_0, # of connection points: 2
#     Edge 13, Type (0, 0), BuildingBlock: EZIPEK_clean_linker_0, # of connection points: 2
#     Edge 14, Type (0, 0), BuildingBlock: EZIPEK_clean_linker_0, # of connection points: 2
#     Edge 15, Type (0, 0), BuildingBlock: EZIPEK_clean_linker_0, # of connection points: 2
#     Edge 16, Type (0, 0), BuildingBlock: EZIPEK_clean_linker_0, # of connection points: 2
#     Edge 17, Type (0, 0), BuildingBlock: EZIPEK_clean_linker_0, # of connection points: 2
#     Edge 18, Type (0, 0), BuildingBlock: EZIPEK_clean_linker_0, # of connection points: 2
#     Edge 19, Type (0, 0), BuildingBlock: EZIPEK_clean_linker_0, # of connection points: 2
#     Edge 20, Type (0, 0), BuildingBlock: EZIPEK_clean_linker_0, # of connection points: 2
#     Edge 21, Type (0, 0), BuildingBlock: EZIPEK_clean_linker_0, # of connection points: 2
#     Edge 22, Type (0, 0), BuildingBlock: EZIPEK_clean_linker_0, # of connection points: 2
#     Edge 23, Type (0, 0), BuildingBlock: EZIPEK_clean_linker_0, # of connection points: 2
#     Edge 24, Type (0, 0), BuildingBlock: EZIPEK_clean_linker_0, # of connection points: 2
#     Edge 25, Type (0, 0), BuildingBlock: EZIPEK_clean_linker_0, # of connection points: 2
#     Edge 26, Type (0, 0), BuildingBlock: EZIPEK_clean_linker_0, # of connection points: 2
#     Edge 27, Type (0, 0), BuildingBlock: EZIPEK_clean_linker_0, # of connection points: 2
#     Edge 28, Type (0, 0), BuildingBlock: EZIPEK_clean_linker_0, # of connection points: 2
#     Edge 29, Type (0, 0), BuildingBlock: EZIPEK_clean_linker_0, # of connection points: 2
#     Edge 30, Type (0, 0), BuildingBlock: EZIPEK_clean_linker_0, # of connection points: 2
#     Edge 31, Type (0, 0), BuildingBlock: EZIPEK_clean_linker_0, # of connection points: 2
# Relax obj value: 0.203
# Max RMSD: 0.222
# Mean RMSD: 0.222
data_MOF--net-vby--node1-BETFEN_clean_sbu_0--edge1-EZIPEK_clean_linker_0
_symmetry_space_group_name_H-M    P1
_symmetry_Int_Tables_number       1
_symmetry_cell_setting            triclinic
loop_
_symmetry_equiv_pos_as_xyz
'x, y, z'
_cell_length_a     11.72138
_cell_length_b     89.008504
_cell_length_c     21.680179
_cell_angle_alpha  89.896837
_cell_angle_beta   94.209103
_cell_angle_gamma 89.782154
loop_
_atom_site_label
_atom_site_type_symbol
_atom_site_fract_x
_atom_site_fract_y
_atom_site_fract_z
_atom_type_partial_charge
Pr0 Pr 0.09286 0.37355 0.01932 0.0
Pr1 Pr 0.08416 0.40694 0.00713 0.0
C2 C 0.0741 0.34329 0.01067 0.0
C3 C 0.13434 0.32861 0.00968 0.0
C4 C 0.19037 0.32246 0.06374 0.0
C5 C 0.23099 0.30764 0.06441 0.0
C6 C 0.21576 0.29869 0.01126 0.0
C7 C 0.16415 0.30494 0.95665 0.0
C8 C 0.12381 0.31977 0.95588 0.0
C9 C 0.10571 0.38831 0.13414 0.0
C10 C 0.33993 0.38955 0.01692 0.0
C11 C 0.11751 0.43687 0.01642 0.0
C12 C 0.08505 0.45295 0.01295 0.0
C13 C 0.13334 0.46205 0.96875 0.0
C14 C 0.11842 0.47761 0.96916 0.0
C15 C 0.05438 0.4844 0.01363 0.0
C16 C 1.00266 0.47534 0.05679 0.0
C17 C 1.01865 0.45972 0.05681 0.0
C18 C 0.04865 0.39246 0.89352 0.0
C19 C 0.83646 0.3909 0.01071 0.0
O20 O 0.07463 0.35209 0.96233 0.0
O21 O 0.07674 0.35064 0.06279 0.0
O22 O 0.03978 0.39179 0.0877 0.0
O23 O 0.17133 0.37714 0.12086 0.0
O24 O 0.28246 0.40211 0.02459 0.0
O25 O 0.28705 0.37662 0.00905 0.0
O26 O 0.09033 0.42856 0.06299 0.0
O27 O 0.1252 0.42939 0.96511 0.0
O28 O 0.1246 0.38868 0.93558 0.0
O29 O 0.99073 0.40409 0.90975 0.0
O30 O 0.89357 0.3782 0.00424 0.0
O31 O 0.88944 0.40391 0.01732 0.0
H32 H 0.1996 0.32891 0.10611 0.0
H33 H 0.2711 0.30299 0.10688 0.0
H34 H 0.15236 0.29821 0.91511 0.0
H35 H 0.08053 0.32415 0.91373 0.0
H36 H 0.18602 0.45715 0.93493 0.0
H37 H 0.15839 0.48441 0.93535 0.0
H38 H 0.95259 0.48043 0.09133 0.0
H39 H 0.98141 0.45302 0.09187 0.0
Pr40 Pr 0.99218 0.6269 0.00813 0.0
Pr41 Pr 0.98937 0.66023 0.00369 0.0
C42 C 0.96288 0.59697 0.99412 0.0
C43 C 0.99425 0.58098 0.00486 0.0
C44 C 0.93803 0.57255 0.04836 0.0
C45 C 0.95137 0.55695 0.05174 0.0
C46 C 1.02127 0.54949 0.01178 0.0
C47 C 0.08093 0.55789 0.96979 0.0
C48 C 0.06698 0.5735 0.96606 0.0
C49 C 0.04291 0.6399 0.12479 0.0
C50 C 0.24109 0.64391 0.0107 0.0
C51 C 0.95035 0.68985 0.01008 0.0
C52 C 0.92884 0.7061 0.01369 0.0
C53 C 0.95533 0.71561 0.96509 0.0
C54 C 0.92558 0.73085 0.96588 0.0
C55 C 0.86591 0.73669 0.0144 0.0
C56 C 0.83857 0.72712 0.06277 0.0
C57 C 0.8712 0.71198 0.06281 0.0
C58 C 1.03081 0.64728 0.88983 0.0
C59 C 0.73815 0.6433 0.00502 0.0
O60 O 1.01988 0.60513 0.95678 0.0
O61 O 0.92173 0.60467 0.03876 0.0
O62 O 0.96449 0.64432 0.08562 0.0
O63 O 0.09581 0.62833 0.10416 0.0
O64 O 0.18612 0.65601 0.02843 0.0
O65 O 0.18462 0.63174 0.99166 0.0
O66 O 1.00241 0.68232 0.05605 0.0
O67 O 0.92244 0.68208 0.96022 0.0
O68 O 0.95511 0.64274 0.92442 0.0
O69 O 0.08495 0.65878 0.91372 0.0
O70 O 0.79351 0.63046 0.0035 0.0
O71 O 0.79245 0.65619 0.00605 0.0
H72 H 0.88012 0.57793 0.07826 0.0
H73 H 0.90501 0.55063 0.08453 0.0
H74 H 0.13525 0.55228 0.9386 0.0
H75 H 0.11005 0.57962 0.93137 0.0
H76 H 0.99811 0.71122 0.92628 0.0
H77 H 0.94667 0.73802 0.92797 0.0
H78 H 0.79177 0.73139 0.10033 0.0
H79 H 0.84801 0.70474 0.1001 0.0
Pr80 Pr 0.07756 0.62666 0.50738 0.0
Pr81 Pr 0.07847 0.6601 0.51219 0.0
C82 C 0.05993 0.59675 0.51602 0.0
C83 C 0.05354 0.58025 0.51525 0.0
C84 C 0.06486 0.5724 0.45985 0.0
C85 C 0.06152 0.55672 0.45896 0.0
C86 C 0.04501 0.54867 0.51324 0.0
C87 C 1.03198 0.55651 0.5685 0.0
C88 C 1.03755 0.57221 0.56963 0.0
C89 C 0.09575 0.64002 0.39086 0.0
C90 C 0.82478 0.64351 0.50878 0.0
C91 C 0.06505 0.69018 0.49474 0.0
C92 C 0.12531 0.70477 0.50279 0.0
C93 C 0.12624 0.71279 0.55837 0.0
C94 C 0.17174 0.72733 0.56296 0.0
C95 C 0.22387 0.73426 0.51307 0.0
C96 C 0.21321 0.72633 0.45616 0.0
C97 C 0.16809 0.71181 0.45163 0.0
C98 C 0.10636 0.6466 0.63039 0.0
C99 C 0.32755 0.64311 0.51359 0.0
O100 O 0.10982 0.60462 0.56131 0.0
O101 O 1.01846 0.60448 0.46821 0.0
O102 O 1.02957 0.64431 0.4307 0.0
O103 O 0.15526 0.62854 0.41136 0.0
O104 O 0.87902 0.65644 0.50536 0.0
O105 O 0.88015 0.63057 0.51252 0.0
O106 O 0.1 0.68082 0.45355 0.0
O107 O 1.02992 0.68343 0.54345 0.0
O108 O 1.03726 0.64254 0.58644 0.0
O109 O 0.16649 0.65787 0.613 0.0
O110 O 0.27343 0.63125 0.53337 0.0
O111 O 0.27005 0.65509 0.49318 0.0
H112 H 0.0777 0.5784 0.41738 0.0
H113 H 0.07139 0.55085 0.41594 0.0
H114 H 1.01891 0.55045 0.61076 0.0
H115 H 1.02864 0.57806 0.61279 0.0
H116 H 0.08735 0.70811 0.59791 0.0
H117 H 0.15827 0.73311 0.6053 0.0
H118 H 0.23304 0.73134 0.41304 0.0
H119 H 0.16205 0.70635 0.40687 0.0
Pr120 Pr 1.002 0.37231 0.5057 0.0
Pr121 Pr 0.99677 0.40536 0.51253 0.0
C122 C 0.9892 0.34217 0.5193 0.0
C123 C 0.92608 0.32775 0.51557 0.0
C124 C 0.9201 0.3193 0.46059 0.0
C125 C 0.87968 0.30453 0.45993 0.0
C126 C 0.8447 0.29794 0.51416 0.0
C127 C 0.8462 0.30648 0.56853 0.0
C128 C 0.88687 0.32126 0.56929 0.0
C129 C 1.01836 0.38565 0.38986 0.0
C130 C 0.74723 0.38947 0.50504 0.0
C131 C 1.01182 0.43544 0.50705 0.0
C132 C 1.0186 0.452 0.50678 0.0
C133 C 0.99485 0.46013 0.55994 0.0
C134 C 0.99921 0.4758 0.5601 0.0
C135 C 1.02837 0.4836 0.50735 0.0
C136 C 0.05317 0.47554 0.4543 0.0
C137 C 0.04753 0.45984 0.45387 0.0
C138 C 0.99665 0.39141 0.62876 0.0
C139 C 0.251 0.38852 0.51149 0.0
O140 O 0.97299 0.35159 0.56408 0.0
O141 O 1.01353 0.34876 0.46808 0.0
O142 O 0.94935 0.39009 0.42862 0.0
O143 O 0.07206 0.37363 0.4089 0.0
O144 O 0.79966 0.40216 0.49451 0.0
O145 O 0.8052 0.37686 0.51569 0.0
O146 O 1.01189 0.42715 0.45729 0.0
O147 O 1.00535 0.42802 0.55853 0.0
O148 O 0.06102 0.38772 0.58688 0.0
O149 O 0.92942 0.40232 0.61025 0.0
O150 O 0.19911 0.37592 0.52447 0.0
O151 O 0.19248 0.40102 0.49979 0.0
H152 H 0.95092 0.32386 0.41858 0.0
H153 H 0.87888 0.29808 0.41757 0.0
H154 H 0.81933 0.30155 0.61078 0.0
H155 H 0.89181 0.32738 0.61254 0.0
H156 H 0.97206 0.4544 0.60138 0.0
H157 H 0.98024 0.48187 0.60145 0.0
H158 H 0.07596 0.48144 0.41324 0.0
H159 H 0.06616 0.45384 0.41233 0.0
Pr160 Pr 0.59121 0.87378 0.02093 0.0
Pr161 Pr 0.58236 0.90721 0.00906 0.0
C162 C 0.57154 0.84356 0.01039 0.0
C163 C 0.63008 0.82875 0.01352 0.0
C164 C 0.59739 0.81811 0.05678 0.0
C165 C 0.64049 0.80345 0.05673 0.0
C166 C 0.71766 0.79913 0.01358 0.0
C167 C 0.75378 0.80983 0.97145 0.0
C168 C 0.70983 0.82452 0.97115 0.0
C169 C 0.60292 0.88843 0.13591 0.0
C170 C 0.83909 0.88977 0.01879 0.0
C171 C 0.6134 0.93717 0.01779 0.0
C172 C 0.5813 0.95319 0.02204 0.0
C173 C 0.50802 0.96018 0.97618 0.0
C174 C 0.49422 0.97582 0.97562 0.0
C175 C 0.55434 0.98471 0.02045 0.0
C176 C 0.62447 0.97771 0.06732 0.0
C177 C 0.63758 0.96209 0.06817 0.0
C178 C 0.54958 0.89271 0.89545 0.0
C179 C 0.33554 0.89113 0.0131 0.0
O180 O 0.5858 0.85245 0.96352 0.0
O181 O 0.56172 0.85078 0.06209 0.0
O182 O 0.53726 0.89199 0.0894 0.0
O183 O 0.66816 0.87721 0.12275 0.0
O184 O 0.78152 0.9025 0.02162 0.0
O185 O 0.78669 0.87674 0.01505 0.0
O186 O 0.61769 0.92843 0.06657 0.0
O187 O 0.5909 0.93011 0.96556 0.0
O188 O 0.62497 0.88899 0.93784 0.0
O189 O 0.49046 0.90423 0.91142 0.0
O190 O 0.39237 0.87857 0.00338 0.0
O191 O 0.38927 0.90398 0.02335 0.0
H192 H 0.53584 0.82104 0.08973 0.0
H193 H 0.61232 0.79539 0.08983 0.0
H194 H 0.81372 0.80668 0.93796 0.0
H195 H 0.73649 0.83243 0.93707 0.0
H196 H 0.4643 0.95363 0.93968 0.0
H197 H 0.4395 0.98105 0.9392 0.0
H198 H 0.67097 0.98439 0.10245 0.0
H199 H 0.6954 0.957 0.10358 0.0
Pr200 Pr 0.49505 0.12704 0.00905 0.0
Pr201 Pr 0.49383 0.16044 0.00348 0.0
C202 C 0.46245 0.09729 0.99284 0.0
C203 C 0.48986 0.08115 0.99753 0.0
C204 C 0.55524 0.07497 0.04835 0.0
C205 C 0.57046 0.05935 0.05313 0.0
C206 C 0.5188 0.04978 0.00773 0.0
C207 C 0.45511 0.05604 0.95669 0.0
C208 C 0.44134 0.07159 0.95153 0.0
C209 C 0.54608 0.14016 0.12545 0.0
C210 C 0.74474 0.14378 0.01139 0.0
C211 C 0.47504 0.19064 0.00461 0.0
C212 C 0.41944 0.20546 0.01204 0.0
C213 C 0.35287 0.21192 0.96202 0.0
C214 C 0.31711 0.2269 0.96417 0.0
C215 C 0.3474 0.23572 0.01623 0.0
C216 C 0.41038 0.22923 0.06711 0.0
C217 C 0.44638 0.21422 0.06499 0.0
C218 C 0.53206 0.14693 0.88995 0.0
C219 C 0.24192 0.14393 0.00795 0.0
O220 O 0.51071 0.10566 0.9526 0.0
O221 O 0.43556 0.1045 0.04224 0.0
O222 O 0.46827 0.14472 0.0861 0.0
O223 O 0.59785 0.12844 0.10517 0.0
O224 O 0.68973 0.1558 0.02953 0.0
O225 O 0.68828 0.13162 0.99222 0.0
O226 O 0.52051 0.18306 0.05229 0.0
O227 O 0.439 0.18222 0.95793 0.0
O228 O 0.45673 0.14273 0.92525 0.0
O229 O 0.58753 0.15836 0.91302 0.0
O230 O 0.29661 0.13103 0.00561 0.0
O231 O 0.29641 0.15684 0.00896 0.0
H232 H 0.59293 0.08217 0.08452 0.0
H233 H 0.62041 0.0547 0.09269 0.0
H234 H 0.41536 0.04886 0.92104 0.0
H235 H 0.39028 0.07615 0.91213 0.0
H236 H 0.33201 0.2056 0.92008 0.0
H237 H 0.26848 0.23174 0.92453 0.0
H238 H 0.43403 0.23591 0.10775 0.0
H239 H 0.4987 0.20966 0.10387 0.0
Pr240 Pr 0.58312 0.12698 0.50721 0.0
Pr241 Pr 0.58525 0.16055 0.51436 0.0
C242 C 0.55162 0.09733 0.52052 0.0
C243 C 0.55935 0.08085 0.51789 0.0
C244 C 0.5984 0.07337 0.46642 0.0
C245 C 0.59689 0.05763 0.46389 0.0
C246 C 0.55472 0.04926 0.51229 0.0
C247 C 0.51532 0.0568 0.56343 0.0
C248 C 0.5187 0.07246 0.56642 0.0
C249 C 0.60188 0.14069 0.39147 0.0
C250 C 0.33142 0.14422 0.51002 0.0
C251 C 0.57184 0.19065 0.49788 0.0
C252 C 0.63061 0.20535 0.50572 0.0
C253 C 0.62043 0.21399 0.55941 0.0
C254 C 0.66111 0.22876 0.5628 0.0
C255 C 0.71233 0.23516 0.51258 0.0
C256 C 0.72618 0.22646 0.45978 0.0
C257 C 0.6856 0.2117 0.45632 0.0
C258 C 0.61196 0.14655 0.63146 0.0
C259 C 0.83396 0.1433 0.51499 0.0
O260 O 0.61068 0.1052 0.5626 0.0
O261 O 0.51484 0.10483 0.4711 0.0
O262 O 0.53638 0.14494 0.43185 0.0
O263 O 0.66118 0.12907 0.41114 0.0
O264 O 0.38627 0.15714 0.5099 0.0
O265 O 0.38617 0.13126 0.50984 0.0
O266 O 0.60604 0.18137 0.45623 0.0
O267 O 0.53792 0.18383 0.54675 0.0
O268 O 0.54341 0.14272 0.58688 0.0
O269 O 0.67254 0.15792 0.61526 0.0
O270 O 0.77945 0.13112 0.53131 0.0
O271 O 0.77701 0.15558 0.49761 0.0
H272 H 0.62896 0.07967 0.42817 0.0
H273 H 0.62698 0.05198 0.42392 0.0
H274 H 0.48216 0.05054 0.60105 0.0
H275 H 0.48722 0.07806 0.60617 0.0
H276 H 0.57762 0.20953 0.59804 0.0
H277 H 0.64975 0.23535 0.60388 0.0
H278 H 0.76545 0.23125 0.42058 0.0
H279 H 0.69379 0.20544 0.41406 0.0
Pr280 Pr 0.50418 0.87275 0.50845 0.0
Pr281 Pr 0.49806 0.90588 0.51448 0.0
C282 C 0.49172 0.84263 0.52376 0.0
C283 C 0.42818 0.82825 0.5178 0.0
C284 C 0.42457 0.82005 0.46265 0.0
C285 C 0.38062 0.80545 0.45968 0.0
C286 C 0.33196 0.79861 0.51081 0.0
C287 C 0.345 0.80674 0.56724 0.0
C288 C 0.38914 0.82134 0.57024 0.0
C289 C 0.5187 0.88587 0.39214 0.0
C290 C 0.24876 0.88984 0.50679 0.0
C291 C 0.51297 0.93596 0.50792 0.0
C292 C 0.51876 0.95253 0.50679 0.0
C293 C 0.47627 0.96092 0.55509 0.0
C294 C 0.48142 0.97659 0.55472 0.0
C295 C 0.53032 0.98415 0.50644 0.0
C296 C 0.57353 0.97583 0.45828 0.0
C297 C 0.56693 0.96012 0.45818 0.0
C298 C 0.49986 0.89208 0.63104 0.0
C299 C 0.75295 0.88911 0.51448 0.0
O300 O 0.46805 0.85222 0.56669 0.0
O301 O 0.5237 0.84906 0.4737 0.0
O302 O 0.45027 0.89041 0.43108 0.0
O303 O 0.57247 0.87385 0.4112 0.0
O304 O 0.30099 0.90254 0.49607 0.0
O305 O 0.30685 0.87724 0.51743 0.0
O306 O 0.52603 0.92746 0.45977 0.0
O307 O 0.49328 0.92876 0.55842 0.0
O308 O 0.56353 0.88832 0.58896 0.0
O309 O 0.43341 0.90309 0.61287 0.0
O310 O 0.70124 0.87646 0.52691 0.0
O311 O 0.69454 0.90165 0.50356 0.0
H312 H 0.46127 0.82459 0.42217 0.0
H313 H 0.39315 0.79957 0.41748 0.0
H314 H 0.3282 0.80179 0.61099 0.0
H315 H 0.39805 0.82693 0.61469 0.0
H316 H 0.43858 0.95538 0.59316 0.0
H317 H 0.44815 0.98284 0.59236 0.0
H318 H 0.61179 0.98151 0.42074 0.0
H319 H 0.6004 0.95393 0.42048 0.0
C320 C 0.53567 0.39604 0.06636 0.0
C321 C 0.46721 0.39008 0.01527 0.0
C322 C 0.64095 0.38457 0.96145 0.0
C323 C 0.70939 0.39043 0.01261 0.0
N324 N 0.72467 0.40235 0.11273 0.0
N325 N 0.45282 0.37798 0.9154 0.0
C326 C 0.65731 0.39641 0.06461 0.0
C327 C 0.51957 0.38406 0.96339 0.0
N328 N 0.48473 0.40034 0.11843 0.0
N329 N 0.69164 0.38057 0.90895 0.0
H330 H 0.36431 0.37933 0.90999 0.0
H331 H 0.48405 0.37117 0.88148 0.0
H332 H 0.77914 0.38149 0.90456 0.0
H333 H 0.64754 0.37746 0.86762 0.0
H334 H 0.52867 0.4036 0.15958 0.0
H335 H 0.39692 0.39971 0.12267 0.0
H336 H 0.69423 0.40896 0.14746 0.0
H337 H 0.81327 0.40104 0.11755 0.0
C338 C 0.43923 0.6478 0.06341 0.0
C339 C 0.36877 0.64409 0.00947 0.0
C340 C 0.54099 0.63828 0.95505 0.0
C341 C 0.61118 0.64332 0.00696 0.0
N342 N 0.62779 0.65443 0.10873 0.0
N343 N 0.35417 0.6391 0.89986 0.0
C344 C 0.56033 0.64867 0.06038 0.0
C345 C 0.42014 0.64011 0.95428 0.0
N346 N 0.39128 0.64958 0.11854 0.0
N347 N 0.5895 0.6319 0.90592 0.0
H348 H 0.2672 0.64153 0.89656 0.0
H349 H 0.38707 0.6376 0.85697 0.0
H350 H 0.6776 0.63132 0.90232 0.0
H351 H 0.54241 0.62624 0.87062 0.0
H352 H 0.43854 0.65086 0.16075 0.0
H353 H 0.30414 0.64826 0.12324 0.0
H354 H 0.59544 0.66032 0.1451 0.0
H355 H 0.71693 0.6541 0.11096 0.0
C356 C 0.64667 0.64652 0.56619 0.0
C357 C 0.69763 0.6435 0.50999 0.0
C358 C 0.5069 0.63993 0.4566 0.0
C359 C 0.45537 0.64292 0.51281 0.0
N360 N 0.47349 0.65071 0.61933 0.0
N361 N 0.6801 0.63557 0.40373 0.0
C362 C 0.52475 0.6466 0.56723 0.0
C363 C 0.62864 0.63971 0.45577 0.0
N364 N 0.71555 0.64862 0.61918 0.0
N365 N 0.43901 0.63795 0.40327 0.0
H366 H 0.76821 0.63617 0.40036 0.0
H367 H 0.6373 0.63078 0.36494 0.0
H368 H 0.35026 0.63798 0.40205 0.0
H369 H 0.46914 0.63731 0.35942 0.0
H370 H 0.68624 0.64949 0.66315 0.0
H371 H 0.80454 0.64851 0.61994 0.0
H372 H 0.51668 0.65524 0.65855 0.0
H373 H 0.38525 0.65035 0.6224 0.0
C374 C 0.5525 0.3813 0.46048 0.0
C375 C 0.61991 0.38939 0.5062 0.0
C376 C 0.44542 0.39682 0.55569 0.0
C377 C 0.37815 0.38869 0.51006 0.0
N378 N 0.36429 0.37542 0.41308 0.0
N379 N 0.63355 0.40315 0.60213 0.0
C380 C 0.43095 0.38141 0.46115 0.0
C381 C 0.56696 0.39685 0.55471 0.0
N382 N 0.60511 0.3733 0.41678 0.0
N383 N 0.39255 0.40471 0.59958 0.0
H384 H 0.72214 0.40347 0.60303 0.0
H385 H 0.60286 0.40716 0.64278 0.0
H386 H 0.30519 0.40399 0.60459 0.0
H387 H 0.43313 0.41254 0.62913 0.0
H388 H 0.56374 0.36556 0.38713 0.0
H389 H 0.69281 0.37375 0.41221 0.0
H390 H 0.39508 0.37155 0.37221 0.0
H391 H 0.27569 0.37539 0.4117 0.0
C392 C 1.01904 0.88389 0.96638 0.0
C393 C 0.96634 0.89017 0.01759 0.0
C394 C 0.15631 0.8963 0.06755 0.0
C395 C 0.20842 0.89069 0.01485 0.0
N396 N 0.18988 0.88122 0.91047 0.0
N397 N 0.98202 0.90276 0.11625 0.0
C398 C 0.13998 0.88486 0.96362 0.0
C399 C 1.03433 0.89666 0.06768 0.0
N400 N 0.95314 0.87718 0.9196 0.0
N401 N 0.22388 0.90055 0.11875 0.0
H402 H 0.89454 0.90189 0.12121 0.0
H403 H 1.02353 0.90911 0.15122 0.0
H404 H 0.31263 0.89946 0.1223 0.0
H405 H 0.19351 0.90422 0.15998 0.0
H406 H 0.98604 0.87027 0.88648 0.0
H407 H 0.8642 0.87796 0.91488 0.0
H408 H 0.14468 0.8783 0.86919 0.0
H409 H 0.27701 0.88243 0.90539 0.0
C410 C 0.04601 0.14405 0.95239 0.0
C411 C 0.11485 0.14386 0.009 0.0
C412 C 0.9419 0.14386 0.06738 0.0
C413 C 0.87253 0.14409 0.01071 0.0
N414 N 0.85641 0.14374 0.89926 0.0
N415 N 0.13268 0.1449 0.12015 0.0
C416 C 0.92427 0.144 0.95321 0.0
C417 C 0.06384 0.1441 0.06647 0.0
N418 N 0.09777 0.14483 0.89785 0.0
N419 N 0.89084 0.14274 0.12196 0.0
H420 H 0.22177 0.14462 0.12112 0.0
H421 H 0.10319 0.14659 0.16367 0.0
H422 H 0.80243 0.14266 0.12434 0.0
H423 H 0.93455 0.14104 0.16488 0.0
H424 H 0.05494 0.14645 0.85466 0.0
H425 H 0.18634 0.14451 0.8956 0.0
H426 H 0.88532 0.14193 0.8557 0.0
H427 H 0.76829 0.1449 0.89801 0.0
C428 C 0.15356 0.1374 0.56274 0.0
C429 C 0.20444 0.14413 0.5119 0.0
C430 C 1.01325 0.14859 0.46061 0.0
C431 C 0.96182 0.14317 0.51381 0.0
N432 N 0.98461 0.13482 0.62007 0.0
N433 N 0.18282 0.15785 0.41555 0.0
C434 C 1.03238 0.13808 0.56595 0.0
C435 C 0.13421 0.1504 0.46216 0.0
N436 N 0.22102 0.13051 0.60867 0.0
N437 N 0.94729 0.151 0.40681 0.0
H438 H 0.27075 0.15823 0.41132 0.0
H439 H 0.13606 0.16446 0.38299 0.0
H440 H 0.86032 0.14856 0.402 0.0
H441 H 0.98032 0.1537 0.36493 0.0
H442 H 0.18882 0.12352 0.64176 0.0
H443 H 0.31006 0.1311 0.61212 0.0
H444 H 1.03219 0.13254 0.6615 0.0
H445 H 0.89738 0.13583 0.6256 0.0
C446 C 0.9312 0.88333 0.46053 0.0
C447 C 0.8799 0.88929 0.51268 0.0
C448 C 0.07003 0.896 0.56021 0.0
C449 C 0.12151 0.88977 0.50852 0.0
N450 N 0.1039 0.87587 0.4132 0.0
N451 N 0.8967 0.90263 0.60924 0.0
C452 C 0.05268 0.88296 0.45977 0.0
C453 C 0.94849 0.89601 0.56169 0.0
N454 N 0.86332 0.87885 0.41002 0.0
N455 N 0.13807 0.90112 0.60957 0.0
H456 H 0.80916 0.90187 0.61377 0.0
H457 H 0.93824 0.9094 0.64276 0.0
H458 H 0.22669 0.90123 0.61018 0.0
H459 H 0.10864 0.90437 0.65162 0.0
H460 H 0.89356 0.87599 0.36767 0.0
H461 H 0.77463 0.87921 0.40853 0.0
H462 H 0.06091 0.86906 0.38024 0.0
H463 H 0.19193 0.87598 0.40974 0.0
C464 C 0.96559 0.52434 0.96661 0.0
C465 C 1.02893 0.53279 0.01287 0.0
C466 C 0.10701 0.50952 0.06087 0.0
C467 C 0.04311 0.50108 0.01472 0.0
N468 N 0.90053 0.49989 0.92903 0.0
N469 N 0.16641 0.53406 0.10079 0.0
C470 C 0.96987 0.50835 0.96878 0.0
C471 C 0.10067 0.52553 0.05955 0.0
N472 N 0.90299 0.53167 0.91992 0.0
N473 N 0.17308 0.50214 0.10608 0.0
H474 H 0.16392 0.54578 0.10097 0.0
H475 H 0.22768 0.52981 0.13331 0.0
H476 H 0.18549 0.49054 0.1063 0.0
H477 H 0.21317 0.50725 0.14485 0.0
H478 H 0.86656 0.52644 0.88043 0.0
H479 H 0.89177 0.5433 0.91879 0.0
H480 H 0.8367 0.50429 0.89828 0.0
H481 H 0.90086 0.48817 0.92946 0.0
C482 C 0.13004 0.5075 0.53847 0.0
C483 C 1.03354 0.50028 0.50825 0.0
C484 C 0.9439 0.5247 0.48275 0.0
C485 C 0.04117 0.53197 0.51185 0.0
N486 N 0.22508 0.53088 0.56931 0.0
N487 N 0.85474 0.50149 0.44593 0.0
C488 C 0.13387 0.52351 0.54035 0.0
C489 C 0.94226 0.50875 0.47869 0.0
N490 N 0.21974 0.49896 0.56297 0.0
N491 N 0.85054 0.53306 0.46197 0.0
H492 H 0.84644 0.48984 0.44514 0.0
H493 H 0.79347 0.50688 0.4165 0.0
H494 H 0.84785 0.54475 0.46464 0.0
H495 H 0.77217 0.52851 0.44625 0.0
H496 H 0.29633 0.50321 0.58268 0.0
H497 H 0.22022 0.48725 0.56163 0.0
H498 H 0.29105 0.52572 0.59622 0.0
H499 H 0.23465 0.54251 0.56772 0.0
C500 C 0.47562 1.00908 0.05816 0.0
C501 C 0.54614 1.00141 0.01782 0.0
C502 C 0.60279 0.02545 0.97324 0.0
C503 C 0.53083 0.03313 0.01279 0.0
N504 N 0.40455 0.03285 0.09568 0.0
N505 N 0.66859 1.00172 0.93319 0.0
C506 C 0.46896 0.02509 0.05617 0.0
C507 C 0.60748 1.00945 0.9743 0.0
N508 N 0.41089 1.00092 0.09616 0.0
N509 N 0.67083 0.03355 0.93682 0.0
H510 H 0.68041 0.99011 0.93504 0.0
H511 H 0.70297 1.00658 0.89507 0.0
H512 H 0.67057 0.04527 0.93524 0.0
H513 H 0.73383 0.02889 0.91134 0.0
H514 H 0.34988 1.00547 0.12322 0.0
H515 H 0.4135 0.98922 0.09863 0.0
H516 H 0.36715 0.02809 0.13304 0.0
H517 H 0.39125 0.04442 0.09279 0.0
C518 C 0.46624 0.02542 0.46929 0.0
C519 C 0.55063 0.03255 0.50947 0.0
C520 C 0.62123 1.00795 0.54793 0.0
C521 C 0.53768 1.00084 0.50718 0.0
N522 N 0.38802 1.00227 0.42494 0.0
N523 N 0.70268 0.03113 0.59046 0.0
C524 C 0.46236 1.00944 0.4666 0.0
C525 C 0.62658 0.02394 0.54978 0.0
N526 N 0.38547 0.03397 0.43649 0.0
N527 N 0.699 0.99932 0.58254 0.0
H528 H 0.71588 0.04271 0.58973 0.0
H529 H 0.75034 0.02587 0.62668 0.0
H530 H 0.69838 0.98761 0.582 0.0
H531 H 0.76874 1.00354 0.60932 0.0
H532 H 0.3141 0.02961 0.41147 0.0
H533 H 0.38471 0.04568 0.43755 0.0
H534 H 0.34155 1.00764 0.38853 0.0
H535 H 0.37662 0.99066 0.42448 0.0
C536 C 0.35508 0.27813 0.98974 0.0
C537 C 0.25018 0.28254 0.01325 0.0
C538 C 0.21109 0.25632 0.04109 0.0
C539 C 0.31516 0.25191 0.01663 0.0
N540 N 0.48056 0.25787 0.96157 0.0
N541 N 0.08071 0.27652 0.06472 0.0
C542 C 0.3858 0.26263 0.98941 0.0
C543 C 0.17869 0.2718 0.03986 0.0
N544 N 0.42732 0.28889 0.9701 0.0
N545 N 0.1416 0.24555 0.06327 0.0
H546 H 0.05138 0.28759 0.06179 0.0
H547 H 1.02941 0.26976 0.09021 0.0
H548 H 0.16385 0.2342 0.06583 0.0
H549 H 0.05985 0.24753 0.07703 0.0
H550 H 0.51048 0.28677 0.95867 0.0
H551 H 0.40703 0.30031 0.96898 0.0
H552 H 0.52834 0.26468 0.93426 0.0
H553 H 0.50856 0.24673 0.96273 0.0
C554 C 0.71049 0.77323 0.96695 0.0
C555 C 0.75886 0.78326 0.01251 0.0
C556 C 0.88057 0.76292 0.05829 0.0
C557 C 0.8297 0.7528 0.01367 0.0
N558 N 0.68432 0.74749 0.9321 0.0
N559 N 0.89468 0.78846 0.09844 0.0
C560 C 0.74211 0.75777 0.96938 0.0
C561 C 0.84466 0.77827 0.05774 0.0
N562 N 0.63501 0.77858 0.92085 0.0
N563 N 0.96288 0.75774 0.10127 0.0
H564 H 0.87154 0.79979 0.09859 0.0
H565 H 0.96217 0.78611 0.13078 0.0
H566 H 0.9978 0.74696 0.10001 0.0
H567 H 0.99637 0.76382 0.13917 0.0
H568 H 0.6082 0.77246 0.88161 0.0
H569 H 0.60384 0.78957 0.9196 0.0
H570 H 0.61166 0.74999 0.90341 0.0
H571 H 0.70302 0.73603 0.93318 0.0
C572 C 0.26108 0.7596 0.56942 0.0
C573 C 0.2724 0.7503 0.51698 0.0
C574 C 0.29577 0.77313 0.45587 0.0
C575 C 0.28487 0.78248 0.50815 0.0
N576 N 0.1817 0.78296 0.60072 0.0
N577 N 0.37939 0.74998 0.42578 0.0
C578 C 0.24632 0.77532 0.56147 0.0
C579 C 0.31243 0.7575 0.46422 0.0
N580 N 0.28293 0.75405 0.62763 0.0
N581 N 0.27126 0.77847 0.39753 0.0
H582 H 0.41092 0.73923 0.43656 0.0
H583 H 0.41455 0.75528 0.3886 0.0
H584 H 0.23237 0.78894 0.3897 0.0
H585 H 0.27291 0.77156 0.3587 0.0
H586 H 0.28186 0.76085 0.66677 0.0
H587 H 0.31955 0.74343 0.63526 0.0
H588 H 0.14698 0.77774 0.6382 0.0
H589 H 0.15057 0.79374 0.59021 0.0
C590 C 0.89303 0.2707 0.53374 0.0
C591 C 0.81068 0.28184 0.51441 0.0
C592 C 0.66464 0.26241 0.49393 0.0
C593 C 0.74633 0.25127 0.514 0.0
N594 N 0.9388 0.24414 0.54851 0.0
N595 N 0.61649 0.28893 0.48341 0.0
C596 C 0.86076 0.25525 0.53298 0.0
C597 C 0.69604 0.27786 0.49629 0.0
N598 N 1.0013 0.27502 0.55406 0.0
N599 N 0.55816 0.25812 0.47047 0.0
H600 H 0.63698 0.30033 0.48332 0.0
H601 H 0.52896 0.28706 0.4766 0.0
H602 H 0.53097 0.24698 0.46951 0.0
H603 H 0.49849 0.26538 0.44839 0.0
H604 H 0.06383 0.26785 0.57393 0.0
H605 H 1.02872 0.28615 0.55326 0.0
H606 H 1.026 0.24586 0.55773 0.0
H607 H 0.91701 0.2328 0.55006 0.0
C608 C 0.11945 0.40056 0.23896 0.0
C609 C 0.06751 0.38982 0.19781 0.0
C610 C 0.95042 0.38085 0.27999 0.0
C611 C 1.01508 0.38988 0.32327 0.0
N612 N 0.15855 0.40872 0.34529 0.0
N613 N 0.93304 0.36958 0.17803 0.0
C614 C 0.09772 0.40003 0.30288 0.0
C615 C 0.98141 0.38008 0.21776 0.0
N616 N 0.1888 0.41129 0.21668 0.0
N617 N 0.85947 0.37296 0.29888 0.0
H618 H 0.94976 0.36893 0.13159 0.0
H619 H 0.88097 0.36092 0.19154 0.0
H620 H 0.83668 0.37323 0.34441 0.0
H621 H 0.80102 0.36728 0.26903 0.0
H622 H 0.22147 0.42032 0.24267 0.0
H623 H 0.20697 0.41179 0.17031 0.0
H624 H 0.23007 0.41496 0.33575 0.0
H625 H 0.13836 0.4093 0.39117 0.0
C626 C 0.1085 0.65309 0.22363 0.0
C627 C 1.03847 0.6421 0.1926 0.0
C628 C 0.9873 0.63192 0.29234 0.0
C629 C 0.06692 0.6419 0.32329 0.0
N630 N 0.20466 0.66181 0.3202 0.0
N631 N 0.89258 0.62321 0.19522 0.0
C632 C 0.1268 0.65259 0.28943 0.0
C633 C 0.97187 0.63218 0.22645 0.0
N634 N 0.15457 0.66423 0.18996 0.0
N635 N 0.93042 0.62175 0.32611 0.0
H636 H 0.87924 0.62317 0.14715 0.0
H637 H 0.83437 0.61645 0.21608 0.0
H638 H 0.93599 0.62162 0.37426 0.0
H639 H 0.87984 0.6131 0.30736 0.0
H640 H 0.19938 0.67335 0.20924 0.0
H641 H 0.13966 0.66498 0.14205 0.0
H642 H 0.26126 0.66867 0.29852 0.0
H643 H 0.21663 0.66209 0.36834 0.0
C644 C 0.094 0.63306 0.79761 0.0
C645 C 1.02789 0.64475 0.82183 0.0
C646 C 0.99999 0.65629 0.71892 0.0
C647 C 0.07464 0.64536 0.69558 0.0
N648 N 0.18973 0.62303 0.71028 0.0
N649 N 0.89307 0.66495 0.80412 0.0
C650 C 0.11936 0.63348 0.73409 0.0
C651 C 0.97335 0.6556 0.78188 0.0
N652 N 0.13109 0.62152 0.83563 0.0
N653 N 0.95757 0.66764 0.68124 0.0
H654 H 0.87059 0.66448 0.84976 0.0
H655 H 0.8412 0.67222 0.77679 0.0
H656 H 0.9669 0.6679 0.63389 0.0
H657 H 0.91619 0.67712 0.69671 0.0
H658 H 0.17374 0.61201 0.82157 0.0
H659 H 0.11372 0.62119 0.88197 0.0
H660 H 0.23339 0.61469 0.7361 0.0
H661 H 0.20792 0.62297 0.66389 0.0
C662 C 0.97074 0.37854 0.73015 0.0
C663 C 1.02865 0.38939 0.69596 0.0
C664 C 0.12463 0.39916 0.79229 0.0
C665 C 0.05794 0.38941 0.82666 0.0
N666 N 0.93467 0.36805 0.831 0.0
N667 N 0.15312 0.41089 0.69365 0.0
C668 C 0.98648 0.37847 0.79622 0.0
C669 C 0.10525 0.39976 0.72675 0.0
N670 N 0.89686 0.36881 0.69922 0.0
N671 N 0.20694 0.40782 0.82263 0.0
H672 H 0.14061 0.4118 0.64573 0.0
H673 H 0.19884 0.41987 0.7135 0.0
H674 H 0.22236 0.40776 0.87061 0.0
H675 H 0.26686 0.41404 0.80048 0.0
H676 H 0.84546 0.36115 0.72028 0.0
H677 H 0.8847 0.3686 0.65109 0.0
H678 H 0.88381 0.35932 0.81319 0.0
H679 H 0.94759 0.36771 0.87909 0.0
C680 C 0.47835 0.88048 0.21983 0.0
C681 C 0.56531 0.89005 0.19966 0.0
C682 C 0.599 0.90005 0.3049 0.0
C683 C 0.51523 0.89009 0.32551 0.0
N684 N 0.35778 0.87342 0.30156 0.0
N685 N 0.69025 0.91116 0.21848 0.0
C686 C 0.44879 0.88123 0.28231 0.0
C687 C 0.61958 0.9006 0.24085 0.0
N688 N 0.428 0.87014 0.18007 0.0
N689 N 0.66221 0.90849 0.34722 0.0
H690 H 0.70787 0.91164 0.17204 0.0
H691 H 0.72459 0.92009 0.24451 0.0
H692 H 0.64361 0.90899 0.39336 0.0
H693 H 0.73447 0.91454 0.3374 0.0
H694 H 0.37511 0.86157 0.19364 0.0
H695 H 0.44373 0.86951 0.13349 0.0
H696 H 0.29774 0.86797 0.27186 0.0
H697 H 0.33709 0.87347 0.34744 0.0
C698 C 0.47538 0.13281 0.22759 0.0
C699 C 0.54238 0.14256 0.19325 0.0
C700 C 0.62733 0.15366 0.28993 0.0
C701 C 0.57082 0.14267 0.324 0.0
N702 N 0.43634 0.1223 0.32735 0.0
N703 N 0.66564 0.16398 0.18911 0.0
C704 C 0.49204 0.13254 0.29337 0.0
C705 C 0.6132 0.15358 0.22379 0.0
N706 N 0.39433 0.12399 0.19698 0.0
N707 N 0.69554 0.16397 0.32124 0.0
H708 H 0.65243 0.16443 0.14109 0.0
H709 H 0.71879 0.17248 0.20691 0.0
H710 H 0.7023 0.16463 0.36939 0.0
H711 H 0.74474 0.17197 0.30067 0.0
H712 H 0.33449 0.11764 0.21856 0.0
H713 H 0.38068 0.12381 0.14892 0.0
H714 H 0.3893 0.11332 0.30855 0.0
H715 H 0.43984 0.12245 0.3755 0.0
C716 C 0.46944 0.15429 0.78148 0.0
C717 C 0.52901 0.14401 0.82218 0.0
C718 C 0.62562 0.13333 0.73491 0.0
C719 C 0.57882 0.14506 0.69633 0.0
N720 N 0.45204 0.1664 0.6809 0.0
N721 N 0.65399 0.12272 0.83855 0.0
C722 C 0.49836 0.15534 0.71892 0.0
C723 C 0.60319 0.13308 0.79886 0.0
N724 N 0.38374 0.16287 0.80285 0.0
N725 N 0.69085 0.12245 0.71006 0.0
H726 H 0.6329 0.1218 0.8842 0.0
H727 H 0.71839 0.11535 0.82749 0.0
H728 H 0.70996 0.12255 0.66382 0.0
H729 H 0.72122 0.1129 0.73368 0.0
H730 H 0.32881 0.16963 0.77489 0.0
H731 H 0.36056 0.16223 0.84833 0.0
H732 H 0.40507 0.17543 0.69601 0.0
H733 H 0.46451 0.16697 0.63392 0.0
C734 C 0.47266 0.87908 0.73191 0.0
C735 C 0.53166 0.8899 0.69811 0.0
C736 C 0.62735 0.89947 0.79483 0.0
C737 C 0.56007 0.88969 0.82874 0.0
N738 N 0.43663 0.86833 0.83229 0.0
N739 N 0.6571 0.91131 0.69654 0.0
C740 C 0.48847 0.87885 0.79793 0.0
C741 C 0.6086 0.90016 0.72928 0.0
N742 N 0.39706 0.86961 0.70074 0.0
N743 N 0.70945 0.90808 0.82562 0.0
H744 H 0.64499 0.91232 0.64861 0.0
H745 H 0.70319 0.92023 0.7167 0.0
H746 H 0.72422 0.90797 0.87364 0.0
H747 H 0.76974 0.91432 0.80384 0.0
H748 H 0.34381 0.86216 0.7217 0.0
H749 H 0.38455 0.86952 0.65262 0.0
H750 H 0.38717 0.85952 0.81399 0.0
H751 H 0.4489 0.86793 0.88041 0.0
loop_
_geom_bond_atom_site_label_1
_geom_bond_atom_site_label_2
_geom_bond_distance
_geom_bond_site_symmetry_2
_ccdc_geom_bond_type
Pr0 C2 2.880 . S
Pr0 O20 2.562 1_554 S
Pr0 O21 2.490 . S
Pr0 O22 2.695 . S
Pr0 O23 2.512 . S
Pr0 O25 2.437 . S
Pr0 O28 2.436 1_554 S
Pr0 O30 2.438 1_455 S
Pr1 C11 2.880 1_455 S
Pr1 O22 2.436 . S
Pr1 O24 2.438 . S
Pr1 O26 2.562 1_455 S
Pr1 O27 2.490 1_554 S
Pr1 O28 2.695 1_554 S
Pr1 O29 2.512 1_554 S
Pr1 O31 2.437 1_454 S
C2 Pr0 2.880 . S
C2 C3 1.491 . S
C2 O20 1.254 1_554 S
C2 O21 1.225 . S
C3 C2 1.491 . S
C3 C4 1.392 . S
C3 C8 1.356 1_554 S
C4 C3 1.392 . S
C4 C5 1.368 . S
C4 H32 0.929 . S
C5 C4 1.368 . S
C5 C6 1.386 . S
C5 H33 0.929 . S
C6 C5 1.386 . S
C6 C7 1.373 1_554 S
C7 C6 1.373 1_556 S
C7 C8 1.409 . S
C7 H34 0.931 . S
C8 C3 1.356 1_556 S
C8 C7 1.409 . S
C8 H35 0.930 . S
C9 O22 1.270 . S
C9 O23 1.248 . S
C10 O24 1.267 . S
C10 O25 1.278 . S
C11 Pr1 2.880 1_655 S
C11 C12 1.491 . S
C11 O26 1.254 . S
C11 O27 1.225 1_654 S
C12 C11 1.491 . S
C12 C13 1.392 1_554 S
C12 C17 1.356 . S
C13 C12 1.392 1_556 S
C13 C14 1.368 . S
C13 H36 0.929 . S
C14 C13 1.368 . S
C14 C15 1.386 1_556 S
C14 H37 0.929 . S
C15 C14 1.386 1_554 S
C15 C16 1.373 . S
C16 C15 1.373 . S
C16 C17 1.409 . S
C16 H38 0.931 . S
C17 C12 1.356 . S
C17 C16 1.409 . S
C17 H39 0.930 . S
C18 O28 1.270 . S
C18 O29 1.248 . S
C19 O30 1.267 . S
C19 O31 1.278 1_554 S
O20 Pr0 2.562 1_556 S
O20 C2 1.254 1_556 S
O21 Pr0 2.490 . S
O21 C2 1.225 . S
O22 Pr0 2.695 . S
O22 Pr1 2.436 . S
O22 C9 1.270 . S
O23 Pr0 2.512 . S
O23 C9 1.248 . S
O24 Pr1 2.438 . S
O24 C10 1.267 . S
O25 Pr0 2.437 . S
O25 C10 1.278 . S
O26 Pr1 2.562 1_655 S
O26 C11 1.254 . S
O27 Pr1 2.490 1_556 S
O27 C11 1.225 1_456 S
O28 Pr0 2.436 1_556 S
O28 Pr1 2.695 1_556 S
O28 C18 1.270 . S
O29 Pr1 2.512 1_556 S
O29 C18 1.248 . S
O30 Pr0 2.438 1_655 S
O30 C19 1.267 . S
O31 Pr1 2.437 1_656 S
O31 C19 1.278 1_556 S
H32 C4 0.929 . S
H33 C5 0.929 . S
H34 C7 0.931 . S
H35 C8 0.930 . S
H36 C13 0.929 . S
H37 C14 0.929 . S
H38 C16 0.931 . S
H39 C17 0.930 . S
Pr40 C42 2.880 1_655 S
Pr40 O60 2.562 1_654 S
Pr40 O61 2.490 . S
Pr40 O62 2.695 . S
Pr40 O63 2.512 . S
Pr40 O65 2.437 1_655 S
Pr40 O68 2.436 1_554 S
Pr40 O70 2.438 . S
Pr41 C51 2.880 . S
Pr41 O62 2.436 . S
Pr41 O64 2.438 1_655 S
Pr41 O66 2.562 . S
Pr41 O67 2.490 1_554 S
Pr41 O68 2.695 1_554 S
Pr41 O69 2.512 1_554 S
Pr41 O71 2.437 1_554 S
C42 Pr40 2.880 1_455 S
C42 C43 1.491 . S
C42 O60 1.254 1_554 S
C42 O61 1.225 1_455 S
C43 C42 1.491 . S
C43 C44 1.392 . S
C43 C48 1.356 1_554 S
C44 C43 1.392 . S
C44 C45 1.368 . S
C44 H72 0.929 . S
C45 C44 1.368 . S
C45 C46 1.386 1_554 S
C45 H73 0.929 . S
C46 C45 1.386 1_556 S
C46 C47 1.373 . S
C47 C46 1.373 . S
C47 C48 1.409 . S
C47 H74 0.931 . S
C48 C43 1.356 1_556 S
C48 C47 1.409 . S
C48 H75 0.930 . S
C49 O62 1.270 . S
C49 O63 1.248 . S
C50 O64 1.267 . S
C50 O65 1.278 . S
C51 Pr41 2.880 . S
C51 C52 1.491 . S
C51 O66 1.254 . S
C51 O67 1.225 1_554 S
C52 C51 1.491 . S
C52 C53 1.392 1_554 S
C52 C57 1.356 . S
C53 C52 1.392 1_556 S
C53 C54 1.368 . S
C53 H76 0.929 . S
C54 C53 1.368 . S
C54 C55 1.386 1_556 S
C54 H77 0.929 . S
C55 C54 1.386 1_554 S
C55 C56 1.373 . S
C56 C55 1.373 . S
C56 C57 1.409 . S
C56 H78 0.931 . S
C57 C52 1.356 . S
C57 C56 1.409 . S
C57 H79 0.930 . S
C58 O68 1.270 . S
C58 O69 1.248 . S
C59 O70 1.267 . S
C59 O71 1.278 1_554 S
O60 Pr40 2.562 1_456 S
O60 C42 1.254 1_556 S
O61 Pr40 2.490 . S
O61 C42 1.225 1_655 S
O62 Pr40 2.695 . S
O62 Pr41 2.436 . S
O62 C49 1.270 . S
O63 Pr40 2.512 . S
O63 C49 1.248 . S
O64 Pr41 2.438 1_455 S
O64 C50 1.267 . S
O65 Pr40 2.437 1_455 S
O65 C50 1.278 . S
O66 Pr41 2.562 . S
O66 C51 1.254 . S
O67 Pr41 2.490 1_556 S
O67 C51 1.225 1_556 S
O68 Pr40 2.436 1_556 S
O68 Pr41 2.695 1_556 S
O68 C58 1.270 . S
O69 Pr41 2.512 1_556 S
O69 C58 1.248 . S
O70 Pr40 2.438 . S
O70 C59 1.267 . S
O71 Pr41 2.437 1_556 S
O71 C59 1.278 1_556 S
H72 C44 0.929 . S
H73 C45 0.929 . S
H74 C47 0.931 . S
H75 C48 0.930 . S
H76 C53 0.929 . S
H77 C54 0.929 . S
H78 C56 0.931 . S
H79 C57 0.930 . S
Pr80 C82 2.880 1_455 S
Pr80 O100 2.562 1_455 S
Pr80 O101 2.490 . S
Pr80 O102 2.695 . S
Pr80 O103 2.512 . S
Pr80 O105 2.437 1_455 S
Pr80 O108 2.436 . S
Pr80 O110 2.438 . S
Pr81 C91 2.880 . S
Pr81 O102 2.436 . S
Pr81 O104 2.438 1_455 S
Pr81 O106 2.562 . S
Pr81 O107 2.490 . S
Pr81 O108 2.695 . S
Pr81 O109 2.512 . S
Pr81 O111 2.437 . S
C82 Pr80 2.880 1_655 S
C82 C83 1.491 . S
C82 O100 1.254 . S
C82 O101 1.225 1_655 S
C83 C82 1.491 . S
C83 C84 1.392 . S
C83 C88 1.356 . S
C84 C83 1.392 . S
C84 C85 1.368 . S
C84 H112 0.929 . S
C85 C84 1.368 . S
C85 C86 1.386 . S
C85 H113 0.929 . S
C86 C85 1.386 . S
C86 C87 1.373 . S
C87 C86 1.373 . S
C87 C88 1.409 . S
C87 H114 0.931 . S
C88 C83 1.356 . S
C88 C87 1.409 . S
C88 H115 0.930 . S
C89 O102 1.270 . S
C89 O103 1.248 . S
C90 O104 1.267 . S
C90 O105 1.278 . S
C91 Pr81 2.880 . S
C91 C92 1.491 . S
C91 O106 1.254 . S
C91 O107 1.225 . S
C92 C91 1.491 . S
C92 C93 1.392 . S
C92 C97 1.356 . S
C93 C92 1.392 . S
C93 C94 1.368 . S
C93 H116 0.929 . S
C94 C93 1.368 . S
C94 C95 1.386 . S
C94 H117 0.929 . S
C95 C94 1.386 . S
C95 C96 1.373 . S
C96 C95 1.373 . S
C96 C97 1.409 . S
C96 H118 0.931 . S
C97 C92 1.356 . S
C97 C96 1.409 . S
C97 H119 0.930 . S
C98 O108 1.270 . S
C98 O109 1.248 . S
C99 O110 1.267 . S
C99 O111 1.278 . S
O100 Pr80 2.562 1_655 S
O100 C82 1.254 . S
O101 Pr80 2.490 . S
O101 C82 1.225 1_455 S
O102 Pr80 2.695 . S
O102 Pr81 2.436 . S
O102 C89 1.270 . S
O103 Pr80 2.512 . S
O103 C89 1.248 . S
O104 Pr81 2.438 1_655 S
O104 C90 1.267 . S
O105 Pr80 2.437 1_655 S
O105 C90 1.278 . S
O106 Pr81 2.562 . S
O106 C91 1.254 . S
O107 Pr81 2.490 . S
O107 C91 1.225 . S
O108 Pr80 2.436 . S
O108 Pr81 2.695 . S
O108 C98 1.270 . S
O109 Pr81 2.512 . S
O109 C98 1.248 . S
O110 Pr80 2.438 . S
O110 C99 1.267 . S
O111 Pr81 2.437 . S
O111 C99 1.278 . S
H112 C84 0.929 . S
H113 C85 0.929 . S
H114 C87 0.931 . S
H115 C88 0.930 . S
H116 C93 0.929 . S
H117 C94 0.929 . S
H118 C96 0.931 . S
H119 C97 0.930 . S
Pr120 C122 2.880 . S
Pr120 O140 2.562 . S
Pr120 O141 2.490 . S
Pr120 O142 2.695 . S
Pr120 O143 2.512 . S
Pr120 O145 2.437 . S
Pr120 O148 2.436 . S
Pr120 O150 2.438 1_655 S
Pr121 C131 2.880 1_655 S
Pr121 O142 2.436 . S
Pr121 O144 2.438 . S
Pr121 O146 2.562 1_655 S
Pr121 O147 2.490 . S
Pr121 O148 2.695 . S
Pr121 O149 2.512 . S
Pr121 O151 2.437 1_655 S
C122 Pr120 2.880 . S
C122 C123 1.491 . S
C122 O140 1.254 . S
C122 O141 1.225 . S
C123 C122 1.491 . S
C123 C124 1.392 . S
C123 C128 1.356 . S
C124 C123 1.392 . S
C124 C125 1.368 . S
C124 H152 0.929 . S
C125 C124 1.368 . S
C125 C126 1.386 . S
C125 H153 0.929 . S
C126 C125 1.386 . S
C126 C127 1.373 . S
C127 C126 1.373 . S
C127 C128 1.409 . S
C127 H154 0.931 . S
C128 C123 1.356 . S
C128 C127 1.409 . S
C128 H155 0.930 . S
C129 O142 1.270 . S
C129 O143 1.248 . S
C130 O144 1.267 . S
C130 O145 1.278 . S
C131 Pr121 2.880 1_455 S
C131 C132 1.491 . S
C131 O146 1.254 . S
C131 O147 1.225 1_455 S
C132 C131 1.491 . S
C132 C133 1.392 . S
C132 C137 1.356 . S
C133 C132 1.392 . S
C133 C134 1.368 . S
C133 H156 0.929 . S
C134 C133 1.368 . S
C134 C135 1.386 . S
C134 H157 0.929 . S
C135 C134 1.386 . S
C135 C136 1.373 . S
C136 C135 1.373 . S
C136 C137 1.409 . S
C136 H158 0.931 . S
C137 C132 1.356 . S
C137 C136 1.409 . S
C137 H159 0.930 . S
C138 O148 1.270 . S
C138 O149 1.248 . S
C139 O150 1.267 . S
C139 O151 1.278 . S
O140 Pr120 2.562 . S
O140 C122 1.254 . S
O141 Pr120 2.490 . S
O141 C122 1.225 . S
O142 Pr120 2.695 . S
O142 Pr121 2.436 . S
O142 C129 1.270 . S
O143 Pr120 2.512 . S
O143 C129 1.248 . S
O144 Pr121 2.438 . S
O144 C130 1.267 . S
O145 Pr120 2.437 . S
O145 C130 1.278 . S
O146 Pr121 2.562 1_455 S
O146 C131 1.254 . S
O147 Pr121 2.490 . S
O147 C131 1.225 1_655 S
O148 Pr120 2.436 . S
O148 Pr121 2.695 . S
O148 C138 1.270 . S
O149 Pr121 2.512 . S
O149 C138 1.248 . S
O150 Pr120 2.438 1_455 S
O150 C139 1.267 . S
O151 Pr121 2.437 1_455 S
O151 C139 1.278 . S
H152 C124 0.929 . S
H153 C125 0.929 . S
H154 C127 0.931 . S
H155 C128 0.930 . S
H156 C133 0.929 . S
H157 C134 0.929 . S
H158 C136 0.931 . S
H159 C137 0.930 . S
Pr160 C162 2.880 . S
Pr160 O180 2.562 1_554 S
Pr160 O181 2.490 . S
Pr160 O182 2.695 . S
Pr160 O183 2.512 . S
Pr160 O185 2.437 . S
Pr160 O188 2.436 1_554 S
Pr160 O190 2.438 . S
Pr161 C171 2.880 . S
Pr161 O182 2.436 . S
Pr161 O184 2.438 . S
Pr161 O186 2.562 . S
Pr161 O187 2.490 1_554 S
Pr161 O188 2.695 1_554 S
Pr161 O189 2.512 1_554 S
Pr161 O191 2.437 1_554 S
C162 Pr160 2.880 . S
C162 C163 1.491 . S
C162 O180 1.254 1_554 S
C162 O181 1.225 . S
C163 C162 1.491 . S
C163 C164 1.392 . S
C163 C168 1.356 1_554 S
C164 C163 1.392 . S
C164 C165 1.368 . S
C164 H192 0.929 . S
C165 C164 1.368 . S
C165 C166 1.386 . S
C165 H193 0.929 . S
C166 C165 1.386 . S
C166 C167 1.373 1_554 S
C167 C166 1.373 1_556 S
C167 C168 1.409 . S
C167 H194 0.931 . S
C168 C163 1.356 1_556 S
C168 C167 1.409 . S
C168 H195 0.930 . S
C169 O182 1.270 . S
C169 O183 1.248 . S
C170 O184 1.267 . S
C170 O185 1.278 . S
C171 Pr161 2.880 . S
C171 C172 1.491 . S
C171 O186 1.254 . S
C171 O187 1.225 1_554 S
C172 C171 1.491 . S
C172 C173 1.392 1_554 S
C172 C177 1.356 . S
C173 C172 1.392 1_556 S
C173 C174 1.368 . S
C173 H196 0.929 . S
C174 C173 1.368 . S
C174 C175 1.386 1_556 S
C174 H197 0.929 . S
C175 C174 1.386 1_554 S
C175 C176 1.373 . S
C176 C175 1.373 . S
C176 C177 1.409 . S
C176 H198 0.931 . S
C177 C172 1.356 . S
C177 C176 1.409 . S
C177 H199 0.930 . S
C178 O188 1.270 . S
C178 O189 1.248 . S
C179 O190 1.267 . S
C179 O191 1.278 1_554 S
O180 Pr160 2.562 1_556 S
O180 C162 1.254 1_556 S
O181 Pr160 2.490 . S
O181 C162 1.225 . S
O182 Pr160 2.695 . S
O182 Pr161 2.436 . S
O182 C169 1.270 . S
O183 Pr160 2.512 . S
O183 C169 1.248 . S
O184 Pr161 2.438 . S
O184 C170 1.267 . S
O185 Pr160 2.437 . S
O185 C170 1.278 . S
O186 Pr161 2.562 . S
O186 C171 1.254 . S
O187 Pr161 2.490 1_556 S
O187 C171 1.225 1_556 S
O188 Pr160 2.436 1_556 S
O188 Pr161 2.695 1_556 S
O188 C178 1.270 . S
O189 Pr161 2.512 1_556 S
O189 C178 1.248 . S
O190 Pr160 2.438 . S
O190 C179 1.267 . S
O191 Pr161 2.437 1_556 S
O191 C179 1.278 1_556 S
H192 C164 0.929 . S
H193 C165 0.929 . S
H194 C167 0.931 . S
H195 C168 0.930 . S
H196 C173 0.929 . S
H197 C174 0.929 . S
H198 C176 0.931 . S
H199 C177 0.930 . S
Pr200 C202 2.880 . S
Pr200 O220 2.562 1_554 S
Pr200 O221 2.490 . S
Pr200 O222 2.695 . S
Pr200 O223 2.512 . S
Pr200 O225 2.437 . S
Pr200 O228 2.436 1_554 S
Pr200 O230 2.438 . S
Pr201 C211 2.880 . S
Pr201 O222 2.436 . S
Pr201 O224 2.438 . S
Pr201 O226 2.562 . S
Pr201 O227 2.490 1_554 S
Pr201 O228 2.695 1_554 S
Pr201 O229 2.512 1_554 S
Pr201 O231 2.437 1_554 S
C202 Pr200 2.880 . S
C202 C203 1.491 . S
C202 O220 1.254 1_554 S
C202 O221 1.225 . S
C203 C202 1.491 . S
C203 C204 1.392 . S
C203 C208 1.356 1_554 S
C204 C203 1.392 . S
C204 C205 1.368 . S
C204 H232 0.929 . S
C205 C204 1.368 . S
C205 C206 1.386 1_554 S
C205 H233 0.929 . S
C206 C205 1.386 1_556 S
C206 C207 1.373 . S
C207 C206 1.373 . S
C207 C208 1.409 . S
C207 H234 0.931 . S
C208 C203 1.356 1_556 S
C208 C207 1.409 . S
C208 H235 0.930 . S
C209 O222 1.270 . S
C209 O223 1.248 . S
C210 O224 1.267 . S
C210 O225 1.278 . S
C211 Pr201 2.880 . S
C211 C212 1.491 . S
C211 O226 1.254 . S
C211 O227 1.225 1_554 S
C212 C211 1.491 . S
C212 C213 1.392 1_554 S
C212 C217 1.356 . S
C213 C212 1.392 1_556 S
C213 C214 1.368 . S
C213 H236 0.929 . S
C214 C213 1.368 . S
C214 C215 1.386 1_556 S
C214 H237 0.929 . S
C215 C214 1.386 1_554 S
C215 C216 1.373 . S
C216 C215 1.373 . S
C216 C217 1.409 . S
C216 H238 0.931 . S
C217 C212 1.356 . S
C217 C216 1.409 . S
C217 H239 0.930 . S
C218 O228 1.270 . S
C218 O229 1.248 . S
C219 O230 1.267 . S
C219 O231 1.278 1_554 S
O220 Pr200 2.562 1_556 S
O220 C202 1.254 1_556 S
O221 Pr200 2.490 . S
O221 C202 1.225 . S
O222 Pr200 2.695 . S
O222 Pr201 2.436 . S
O222 C209 1.270 . S
O223 Pr200 2.512 . S
O223 C209 1.248 . S
O224 Pr201 2.438 . S
O224 C210 1.267 . S
O225 Pr200 2.437 . S
O225 C210 1.278 . S
O226 Pr201 2.562 . S
O226 C211 1.254 . S
O227 Pr201 2.490 1_556 S
O227 C211 1.225 1_556 S
O228 Pr200 2.436 1_556 S
O228 Pr201 2.695 1_556 S
O228 C218 1.270 . S
O229 Pr201 2.512 1_556 S
O229 C218 1.248 . S
O230 Pr200 2.438 . S
O230 C219 1.267 . S
O231 Pr201 2.437 1_556 S
O231 C219 1.278 1_556 S
H232 C204 0.929 . S
H233 C205 0.929 . S
H234 C207 0.931 . S
H235 C208 0.930 . S
H236 C213 0.929 . S
H237 C214 0.929 . S
H238 C216 0.931 . S
H239 C217 0.930 . S
Pr240 C242 2.880 . S
Pr240 O260 2.562 . S
Pr240 O261 2.490 . S
Pr240 O262 2.695 . S
Pr240 O263 2.512 . S
Pr240 O265 2.437 . S
Pr240 O268 2.436 . S
Pr240 O270 2.438 . S
Pr241 C251 2.880 . S
Pr241 O262 2.436 . S
Pr241 O264 2.438 . S
Pr241 O266 2.562 . S
Pr241 O267 2.490 . S
Pr241 O268 2.695 . S
Pr241 O269 2.512 . S
Pr241 O271 2.437 . S
C242 Pr240 2.880 . S
C242 C243 1.491 . S
C242 O260 1.254 . S
C242 O261 1.225 . S
C243 C242 1.491 . S
C243 C244 1.392 . S
C243 C248 1.356 . S
C244 C243 1.392 . S
C244 C245 1.368 . S
C244 H272 0.929 . S
C245 C244 1.368 . S
C245 C246 1.386 . S
C245 H273 0.929 . S
C246 C245 1.386 . S
C246 C247 1.373 . S
C247 C246 1.373 . S
C247 C248 1.409 . S
C247 H274 0.931 . S
C248 C243 1.356 . S
C248 C247 1.409 . S
C248 H275 0.930 . S
C249 O262 1.270 . S
C249 O263 1.248 . S
C250 O264 1.267 . S
C250 O265 1.278 . S
C251 Pr241 2.880 . S
C251 C252 1.491 . S
C251 O266 1.254 . S
C251 O267 1.225 . S
C252 C251 1.491 . S
C252 C253 1.392 . S
C252 C257 1.356 . S
C253 C252 1.392 . S
C253 C254 1.368 . S
C253 H276 0.929 . S
C254 C253 1.368 . S
C254 C255 1.386 . S
C254 H277 0.929 . S
C255 C254 1.386 . S
C255 C256 1.373 . S
C256 C255 1.373 . S
C256 C257 1.409 . S
C256 H278 0.931 . S
C257 C252 1.356 . S
C257 C256 1.409 . S
C257 H279 0.930 . S
C258 O268 1.270 . S
C258 O269 1.248 . S
C259 O270 1.267 . S
C259 O271 1.278 . S
O260 Pr240 2.562 . S
O260 C242 1.254 . S
O261 Pr240 2.490 . S
O261 C242 1.225 . S
O262 Pr240 2.695 . S
O262 Pr241 2.436 . S
O262 C249 1.270 . S
O263 Pr240 2.512 . S
O263 C249 1.248 . S
O264 Pr241 2.438 . S
O264 C250 1.267 . S
O265 Pr240 2.437 . S
O265 C250 1.278 . S
O266 Pr241 2.562 . S
O266 C251 1.254 . S
O267 Pr241 2.490 . S
O267 C251 1.225 . S
O268 Pr240 2.436 . S
O268 Pr241 2.695 . S
O268 C258 1.270 . S
O269 Pr241 2.512 . S
O269 C258 1.248 . S
O270 Pr240 2.438 . S
O270 C259 1.267 . S
O271 Pr241 2.437 . S
O271 C259 1.278 . S
H272 C244 0.929 . S
H273 C245 0.929 . S
H274 C247 0.931 . S
H275 C248 0.930 . S
H276 C253 0.929 . S
H277 C254 0.929 . S
H278 C256 0.931 . S
H279 C257 0.930 . S
Pr280 C282 2.880 . S
Pr280 O300 2.562 . S
Pr280 O301 2.490 . S
Pr280 O302 2.695 . S
Pr280 O303 2.512 . S
Pr280 O305 2.437 . S
Pr280 O308 2.436 . S
Pr280 O310 2.438 . S
Pr281 C291 2.880 . S
Pr281 O302 2.436 . S
Pr281 O304 2.438 . S
Pr281 O306 2.562 . S
Pr281 O307 2.490 . S
Pr281 O308 2.695 . S
Pr281 O309 2.512 . S
Pr281 O311 2.437 . S
C282 Pr280 2.880 . S
C282 C283 1.491 . S
C282 O300 1.254 . S
C282 O301 1.225 . S
C283 C282 1.491 . S
C283 C284 1.392 . S
C283 C288 1.356 . S
C284 C283 1.392 . S
C284 C285 1.368 . S
C284 H312 0.929 . S
C285 C284 1.368 . S
C285 C286 1.386 . S
C285 H313 0.929 . S
C286 C285 1.386 . S
C286 C287 1.373 . S
C287 C286 1.373 . S
C287 C288 1.409 . S
C287 H314 0.931 . S
C288 C283 1.356 . S
C288 C287 1.409 . S
C288 H315 0.930 . S
C289 O302 1.270 . S
C289 O303 1.248 . S
C290 O304 1.267 . S
C290 O305 1.278 . S
C291 Pr281 2.880 . S
C291 C292 1.491 . S
C291 O306 1.254 . S
C291 O307 1.225 . S
C292 C291 1.491 . S
C292 C293 1.392 . S
C292 C297 1.356 . S
C293 C292 1.392 . S
C293 C294 1.368 . S
C293 H316 0.929 . S
C294 C293 1.368 . S
C294 C295 1.386 . S
C294 H317 0.929 . S
C295 C294 1.386 . S
C295 C296 1.373 . S
C296 C295 1.373 . S
C296 C297 1.409 . S
C296 H318 0.931 . S
C297 C292 1.356 . S
C297 C296 1.409 . S
C297 H319 0.930 . S
C298 O308 1.270 . S
C298 O309 1.248 . S
C299 O310 1.267 . S
C299 O311 1.278 . S
O300 Pr280 2.562 . S
O300 C282 1.254 . S
O301 Pr280 2.490 . S
O301 C282 1.225 . S
O302 Pr280 2.695 . S
O302 Pr281 2.436 . S
O302 C289 1.270 . S
O303 Pr280 2.512 . S
O303 C289 1.248 . S
O304 Pr281 2.438 . S
O304 C290 1.267 . S
O305 Pr280 2.437 . S
O305 C290 1.278 . S
O306 Pr281 2.562 . S
O306 C291 1.254 . S
O307 Pr281 2.490 . S
O307 C291 1.225 . S
O308 Pr280 2.436 . S
O308 Pr281 2.695 . S
O308 C298 1.270 . S
O309 Pr281 2.512 . S
O309 C298 1.248 . S
O310 Pr280 2.438 . S
O310 C299 1.267 . S
O311 Pr281 2.437 . S
O311 C299 1.278 . S
H312 C284 0.929 . S
H313 C285 0.929 . S
H314 C287 0.931 . S
H315 C288 0.930 . S
H316 C293 0.929 . S
H317 C294 0.929 . S
H318 C296 0.931 . S
H319 C297 0.930 . S
C320 C321 1.363 . S
C320 C326 1.379 . S
C320 N328 1.356 . S
C321 C320 1.363 . S
C321 C327 1.363 1_554 S
C322 C323 1.363 1_556 S
C322 C327 1.379 . S
C322 N329 1.356 . S
C323 C322 1.363 1_554 S
C323 C326 1.363 . S
N324 C326 1.356 . S
N324 H336 0.984 . S
N324 H337 0.985 . S
N325 C327 1.356 . S
N325 H330 0.984 . S
N325 H331 0.985 . S
C326 C320 1.379 . S
C326 C323 1.363 . S
C326 N324 1.356 . S
C327 C321 1.363 1_556 S
C327 C322 1.379 . S
C327 N325 1.356 . S
N328 C320 1.356 . S
N328 H334 0.984 . S
N328 H335 0.984 . S
N329 C322 1.356 . S
N329 H332 0.984 . S
N329 H333 0.985 . S
H330 N325 0.984 . S
H331 N325 0.985 . S
H332 N329 0.984 . S
H333 N329 0.985 . S
H334 N328 0.984 . S
H335 N328 0.984 . S
H336 N324 0.984 . S
H337 N324 0.985 . S
C338 C339 1.363 . S
C338 C344 1.379 . S
C338 N346 1.356 . S
C339 C338 1.363 . S
C339 C345 1.363 1_554 S
C340 C341 1.363 1_556 S
C340 C345 1.379 . S
C340 N347 1.356 . S
C341 C340 1.363 1_554 S
C341 C344 1.363 . S
N342 C344 1.356 . S
N342 H354 0.984 . S
N342 H355 0.985 . S
N343 C345 1.356 . S
N343 H348 0.984 . S
N343 H349 0.985 . S
C344 C338 1.379 . S
C344 C341 1.363 . S
C344 N342 1.356 . S
C345 C339 1.363 1_556 S
C345 C340 1.379 . S
C345 N343 1.356 . S
N346 C338 1.356 . S
N346 H352 0.984 . S
N346 H353 0.984 . S
N347 C340 1.356 . S
N347 H350 0.984 . S
N347 H351 0.985 . S
H348 N343 0.984 . S
H349 N343 0.985 . S
H350 N347 0.984 . S
H351 N347 0.985 . S
H352 N346 0.984 . S
H353 N346 0.984 . S
H354 N342 0.984 . S
H355 N342 0.985 . S
C356 C357 1.363 . S
C356 C362 1.379 . S
C356 N364 1.356 . S
C357 C356 1.363 . S
C357 C363 1.363 . S
C358 C359 1.363 . S
C358 C363 1.379 . S
C358 N365 1.356 . S
C359 C358 1.363 . S
C359 C362 1.363 . S
N360 C362 1.356 . S
N360 H372 0.984 . S
N360 H373 0.985 . S
N361 C363 1.356 . S
N361 H366 0.984 . S
N361 H367 0.985 . S
C362 C356 1.379 . S
C362 C359 1.363 . S
C362 N360 1.356 . S
C363 C357 1.363 . S
C363 C358 1.379 . S
C363 N361 1.356 . S
N364 C356 1.356 . S
N364 H370 0.984 . S
N364 H371 0.984 . S
N365 C358 1.356 . S
N365 H368 0.984 . S
N365 H369 0.985 . S
H366 N361 0.984 . S
H367 N361 0.985 . S
H368 N365 0.984 . S
H369 N365 0.985 . S
H370 N364 0.984 . S
H371 N364 0.984 . S
H372 N360 0.984 . S
H373 N360 0.985 . S
C374 C375 1.363 . S
C374 C380 1.379 . S
C374 N382 1.356 . S
C375 C374 1.363 . S
C375 C381 1.363 . S
C376 C377 1.363 . S
C376 C381 1.379 . S
C376 N383 1.356 . S
C377 C376 1.363 . S
C377 C380 1.363 . S
N378 C380 1.356 . S
N378 H390 0.984 . S
N378 H391 0.985 . S
N379 C381 1.356 . S
N379 H384 0.984 . S
N379 H385 0.985 . S
C380 C374 1.379 . S
C380 C377 1.363 . S
C380 N378 1.356 . S
C381 C375 1.363 . S
C381 C376 1.379 . S
C381 N379 1.356 . S
N382 C374 1.356 . S
N382 H388 0.984 . S
N382 H389 0.984 . S
N383 C376 1.356 . S
N383 H386 0.984 . S
N383 H387 0.985 . S
H384 N379 0.984 . S
H385 N379 0.985 . S
H386 N383 0.984 . S
H387 N383 0.985 . S
H388 N382 0.984 . S
H389 N382 0.984 . S
H390 N378 0.984 . S
H391 N378 0.985 . S
C392 C393 1.363 1_456 S
C392 C398 1.379 . S
C392 N400 1.356 1_455 S
C393 C392 1.363 1_654 S
C393 C399 1.363 . S
C394 C395 1.363 . S
C394 C399 1.379 1_455 S
C394 N401 1.356 . S
C395 C394 1.363 . S
C395 C398 1.363 1_554 S
N396 C398 1.356 . S
N396 H408 0.984 . S
N396 H409 0.985 . S
N397 C399 1.356 . S
N397 H402 0.984 . S
N397 H403 0.985 . S
C398 C392 1.379 . S
C398 C395 1.363 1_556 S
C398 N396 1.356 . S
C399 C393 1.363 . S
C399 C394 1.379 1_655 S
C399 N397 1.356 . S
N400 C392 1.356 1_655 S
N400 H406 0.984 . S
N400 H407 0.984 . S
N401 C394 1.356 . S
N401 H404 0.984 . S
N401 H405 0.985 . S
H402 N397 0.984 . S
H403 N397 0.985 . S
H404 N401 0.984 . S
H405 N401 0.985 . S
H406 N400 0.984 . S
H407 N400 0.984 . S
H408 N396 0.984 . S
H409 N396 0.985 . S
C410 C411 1.363 1_656 S
C410 C416 1.379 . S
C410 N418 1.356 1_655 S
C411 C410 1.363 1_454 S
C411 C417 1.363 . S
C412 C413 1.363 . S
C412 C417 1.379 1_655 S
C412 N419 1.356 . S
C413 C412 1.363 . S
C413 C416 1.363 1_554 S
N414 C416 1.356 . S
N414 H426 0.984 . S
N414 H427 0.985 . S
N415 C417 1.356 . S
N415 H420 0.984 . S
N415 H421 0.985 . S
C416 C410 1.379 . S
C416 C413 1.363 1_556 S
C416 N414 1.356 . S
C417 C411 1.363 . S
C417 C412 1.379 1_455 S
C417 N415 1.356 . S
N418 C410 1.356 1_455 S
N418 H424 0.984 . S
N418 H425 0.984 . S
N419 C412 1.356 . S
N419 H422 0.984 . S
N419 H423 0.985 . S
H420 N415 0.984 . S
H421 N415 0.985 . S
H422 N419 0.984 . S
H423 N419 0.985 . S
H424 N418 0.984 . S
H425 N418 0.984 . S
H426 N414 0.984 . S
H427 N414 0.985 . S
C428 C429 1.363 . S
C428 C434 1.379 1_455 S
C428 N436 1.356 . S
C429 C428 1.363 . S
C429 C435 1.363 . S
C430 C431 1.363 1_455 S
C430 C435 1.379 . S
C430 N437 1.356 1_455 S
C431 C430 1.363 1_655 S
C431 C434 1.363 . S
N432 C434 1.356 . S
N432 H444 0.984 . S
N432 H445 0.985 . S
N433 C435 1.356 . S
N433 H438 0.984 . S
N433 H439 0.985 . S
C434 C428 1.379 1_655 S
C434 C431 1.363 . S
C434 N432 1.356 . S
C435 C429 1.363 . S
C435 C430 1.379 . S
C435 N433 1.356 . S
N436 C428 1.356 . S
N436 H442 0.984 . S
N436 H443 0.984 . S
N437 C430 1.356 1_655 S
N437 H440 0.984 . S
N437 H441 0.985 . S
H438 N433 0.984 . S
H439 N433 0.985 . S
H440 N437 0.984 . S
H441 N437 0.985 . S
H442 N436 0.984 . S
H443 N436 0.984 . S
H444 N432 0.984 . S
H445 N432 0.985 . S
C446 C447 1.363 . S
C446 C452 1.379 . S
C446 N454 1.356 . S
C447 C446 1.363 . S
C447 C453 1.363 . S
C448 C449 1.363 . S
C448 C453 1.379 1_455 S
C448 N455 1.356 . S
C449 C448 1.363 . S
C449 C452 1.363 1_455 S
N450 C452 1.356 1_455 S
N450 H462 0.984 1_455 S
N450 H463 0.985 . S
N451 C453 1.356 . S
N451 H456 0.984 . S
N451 H457 0.985 . S
C452 C446 1.379 . S
C452 C449 1.363 1_655 S
C452 N450 1.356 1_655 S
C453 C447 1.363 . S
C453 C448 1.379 1_655 S
C453 N451 1.356 . S
N454 C446 1.356 . S
N454 H460 0.984 . S
N454 H461 0.984 . S
N455 C448 1.356 . S
N455 H458 0.984 . S
N455 H459 0.985 . S
H456 N451 0.984 . S
H457 N451 0.985 . S
H458 N455 0.984 . S
H459 N455 0.985 . S
H460 N454 0.984 . S
H461 N454 0.984 . S
H462 N450 0.984 1_655 S
H463 N450 0.985 . S
C464 C465 1.363 1_656 S
C464 C470 1.379 . S
C464 N472 1.356 1_655 S
C465 C464 1.363 1_454 S
C465 C471 1.363 . S
C466 C467 1.363 1_455 S
C466 C471 1.379 . S
C466 N473 1.356 1_455 S
C467 C466 1.363 1_655 S
C467 C470 1.363 1_554 S
N468 C470 1.356 . S
N468 H480 0.984 . S
N468 H481 0.985 . S
N469 C471 1.356 . S
N469 H474 0.984 . S
N469 H475 0.985 . S
C470 C464 1.379 . S
C470 C467 1.363 1_556 S
C470 N468 1.356 . S
C471 C465 1.363 . S
C471 C466 1.379 . S
C471 N469 1.356 . S
N472 C464 1.356 1_455 S
N472 H478 0.984 1_455 S
N472 H479 0.984 . S
N473 C466 1.356 1_655 S
N473 H476 0.984 . S
N473 H477 0.985 1_655 S
H474 N469 0.984 . S
H475 N469 0.985 . S
H476 N473 0.984 . S
H477 N473 0.985 1_455 S
H478 N472 0.984 1_655 S
H479 N472 0.984 . S
H480 N468 0.984 . S
H481 N468 0.985 . S
C482 C483 1.363 . S
C482 C488 1.379 . S
C482 N490 1.356 . S
C483 C482 1.363 . S
C483 C489 1.363 1_455 S
C484 C485 1.363 . S
C484 C489 1.379 . S
C484 N491 1.356 . S
C485 C484 1.363 . S
C485 C488 1.363 1_655 S
N486 C488 1.356 . S
N486 H498 0.984 . S
N486 H499 0.985 1_455 S
N487 C489 1.356 . S
N487 H492 0.984 1_655 S
N487 H493 0.985 . S
C488 C482 1.379 . S
C488 C485 1.363 1_455 S
C488 N486 1.356 . S
C489 C483 1.363 1_655 S
C489 C484 1.379 . S
C489 N487 1.356 . S
N490 C482 1.356 . S
N490 H496 0.984 . S
N490 H497 0.984 . S
N491 C484 1.356 . S
N491 H494 0.984 . S
N491 H495 0.985 . S
H492 N487 0.984 1_455 S
H493 N487 0.985 . S
H494 N491 0.984 . S
H495 N491 0.985 . S
H496 N490 0.984 . S
H497 N490 0.984 . S
H498 N486 0.984 . S
H499 N486 0.985 1_655 S
C500 C501 1.354 1_545 S
C500 C506 1.388 . S
C500 N508 1.353 1_545 S
C501 C500 1.354 1_565 S
C501 C507 1.363 1_554 S
C502 C503 1.353 1_566 S
C502 C507 1.388 . S
C502 N509 1.353 1_565 S
C503 C502 1.353 1_544 S
C503 C506 1.363 . S
N504 C506 1.356 . S
N504 H516 0.984 . S
N504 H517 0.985 . S
N505 C507 1.356 . S
N505 H510 0.984 . S
N505 H511 0.985 . S
C506 C500 1.388 . S
C506 C503 1.363 . S
C506 N504 1.356 . S
C507 C501 1.363 1_556 S
C507 C502 1.388 . S
C507 N505 1.356 . S
N508 C500 1.353 1_565 S
N508 H514 0.984 1_565 S
N508 H515 0.984 . S
N509 C502 1.353 1_545 S
N509 H512 0.984 . S
N509 H513 0.985 1_545 S
H510 N505 0.984 . S
H511 N505 0.985 . S
H512 N509 0.984 . S
H513 N509 0.985 1_565 S
H514 N508 0.984 1_545 S
H515 N508 0.984 . S
H516 N504 0.984 . S
H517 N504 0.985 . S
C518 C519 1.411 . S
C518 C524 1.330 1_545 S
C518 N526 1.378 . S
C519 C518 1.411 . S
C519 C525 1.363 . S
C520 C521 1.411 . S
C520 C525 1.330 1_565 S
C520 N527 1.378 . S
C521 C520 1.411 . S
C521 C524 1.363 . S
N522 C524 1.356 . S
N522 H534 0.984 . S
N522 H535 0.985 . S
N523 C525 1.356 . S
N523 H528 0.984 . S
N523 H529 0.985 . S
C524 C518 1.330 1_565 S
C524 C521 1.363 . S
C524 N522 1.356 . S
C525 C519 1.363 . S
C525 C520 1.330 1_545 S
C525 N523 1.356 . S
N526 C518 1.378 . S
N526 H532 0.975 1_545 S
N526 H533 0.984 . S
N527 C520 1.378 . S
N527 H530 0.984 . S
N527 H531 0.975 1_565 S
H528 N523 0.984 . S
H529 N523 0.985 . S
H530 N527 0.984 . S
H531 N527 0.975 1_545 S
H532 N526 0.975 1_565 S
H533 N526 0.984 . S
H534 N522 0.984 . S
H535 N522 0.985 . S
C536 C537 1.363 1_556 S
C536 C542 1.379 . S
C536 N544 1.356 . S
C537 C536 1.363 1_554 S
C537 C543 1.363 . S
C538 C539 1.363 . S
C538 C543 1.379 . S
C538 N545 1.356 . S
C539 C538 1.363 . S
C539 C542 1.363 1_554 S
N540 C542 1.356 . S
N540 H552 0.984 . S
N540 H553 0.985 . S
N541 C543 1.356 . S
N541 H546 0.984 . S
N541 H547 0.985 . S
C542 C536 1.379 . S
C542 C539 1.363 1_556 S
C542 N540 1.356 . S
C543 C537 1.363 . S
C543 C538 1.379 . S
C543 N541 1.356 . S
N544 C536 1.356 . S
N544 H550 0.984 . S
N544 H551 0.984 . S
N545 C538 1.356 . S
N545 H548 0.984 . S
N545 H549 0.985 . S
H546 N541 0.984 . S
H547 N541 0.985 . S
H548 N545 0.984 . S
H549 N545 0.985 . S
H550 N544 0.984 . S
H551 N544 0.984 . S
H552 N540 0.984 . S
H553 N540 0.985 . S
C554 C555 1.363 1_556 S
C554 C560 1.379 . S
C554 N562 1.356 . S
C555 C554 1.363 1_554 S
C555 C561 1.363 . S
C556 C557 1.363 . S
C556 C561 1.379 . S
C556 N563 1.356 . S
C557 C556 1.363 . S
C557 C560 1.363 1_554 S
N558 C560 1.356 . S
N558 H570 0.984 . S
N558 H571 0.985 . S
N559 C561 1.356 . S
N559 H564 0.984 . S
N559 H565 0.985 . S
C560 C554 1.379 . S
C560 C557 1.363 1_556 S
C560 N558 1.356 . S
C561 C555 1.363 . S
C561 C556 1.379 . S
C561 N559 1.356 . S
N562 C554 1.356 . S
N562 H568 0.984 . S
N562 H569 0.984 . S
N563 C556 1.356 . S
N563 H566 0.984 . S
N563 H567 0.985 . S
H564 N559 0.984 . S
H565 N559 0.985 . S
H566 N563 0.984 . S
H567 N563 0.985 . S
H568 N562 0.984 . S
H569 N562 0.984 . S
H570 N558 0.984 . S
H571 N558 0.985 . S
C572 C573 1.363 . S
C572 C578 1.379 . S
C572 N580 1.356 . S
C573 C572 1.363 . S
C573 C579 1.363 . S
C574 C575 1.363 . S
C574 C579 1.379 . S
C574 N581 1.356 . S
C575 C574 1.363 . S
C575 C578 1.363 . S
N576 C578 1.356 . S
N576 H588 0.984 . S
N576 H589 0.985 . S
N577 C579 1.356 . S
N577 H582 0.984 . S
N577 H583 0.985 . S
C578 C572 1.379 . S
C578 C575 1.363 . S
C578 N576 1.356 . S
C579 C573 1.363 . S
C579 C574 1.379 . S
C579 N577 1.356 . S
N580 C572 1.356 . S
N580 H586 0.984 . S
N580 H587 0.984 . S
N581 C574 1.356 . S
N581 H584 0.984 . S
N581 H585 0.985 . S
H582 N577 0.984 . S
H583 N577 0.985 . S
H584 N581 0.984 . S
H585 N581 0.985 . S
H586 N580 0.984 . S
H587 N580 0.984 . S
H588 N576 0.984 . S
H589 N576 0.985 . S
C590 C591 1.363 . S
C590 C596 1.379 . S
C590 N598 1.356 . S
C591 C590 1.363 . S
C591 C597 1.363 . S
C592 C593 1.363 . S
C592 C597 1.379 . S
C592 N599 1.356 . S
C593 C592 1.363 . S
C593 C596 1.363 . S
N594 C596 1.356 . S
N594 H606 0.984 1_655 S
N594 H607 0.985 . S
N595 C597 1.356 . S
N595 H600 0.984 . S
N595 H601 0.985 . S
C596 C590 1.379 . S
C596 C593 1.363 . S
C596 N594 1.356 . S
C597 C591 1.363 . S
C597 C592 1.379 . S
C597 N595 1.356 . S
N598 C590 1.356 . S
N598 H604 0.984 . S
N598 H605 0.984 . S
N599 C592 1.356 . S
N599 H602 0.984 . S
N599 H603 0.985 . S
H600 N595 0.984 . S
H601 N595 0.985 . S
H602 N599 0.984 . S
H603 N599 0.985 . S
H604 N598 0.984 . S
H605 N598 0.984 . S
H606 N594 0.984 1_455 S
H607 N594 0.985 . S
C608 C609 1.363 . S
C608 C614 1.379 . S
C608 N616 1.356 . S
C609 C608 1.363 . S
C609 C615 1.363 1_455 S
C610 C611 1.363 . S
C610 C615 1.379 . S
C610 N617 1.356 . S
C611 C610 1.363 . S
C611 C614 1.363 1_655 S
N612 C614 1.356 . S
N612 H624 0.984 . S
N612 H625 0.985 . S
N613 C615 1.356 . S
N613 H618 0.984 . S
N613 H619 0.985 . S
C614 C608 1.379 . S
C614 C611 1.363 1_455 S
C614 N612 1.356 . S
C615 C609 1.363 1_655 S
C615 C610 1.379 . S
C615 N613 1.356 . S
N616 C608 1.356 . S
N616 H622 0.984 . S
N616 H623 0.984 . S
N617 C610 1.356 . S
N617 H620 0.984 . S
N617 H621 0.985 . S
H618 N613 0.984 . S
H619 N613 0.985 . S
H620 N617 0.984 . S
H621 N617 0.985 . S
H622 N616 0.984 . S
H623 N616 0.984 . S
H624 N612 0.984 . S
H625 N612 0.985 . S
C626 C627 1.363 1_455 S
C626 C632 1.379 . S
C626 N634 1.356 . S
C627 C626 1.363 1_655 S
C627 C633 1.363 . S
C628 C629 1.363 1_655 S
C628 C633 1.379 . S
C628 N635 1.356 . S
C629 C628 1.363 1_455 S
C629 C632 1.363 . S
N630 C632 1.356 . S
N630 H642 0.984 . S
N630 H643 0.985 . S
N631 C633 1.356 . S
N631 H636 0.984 . S
N631 H637 0.985 . S
C632 C626 1.379 . S
C632 C629 1.363 . S
C632 N630 1.356 . S
C633 C627 1.363 . S
C633 C628 1.379 . S
C633 N631 1.356 . S
N634 C626 1.356 . S
N634 H640 0.984 . S
N634 H641 0.984 . S
N635 C628 1.356 . S
N635 H638 0.984 . S
N635 H639 0.985 . S
H636 N631 0.984 . S
H637 N631 0.985 . S
H638 N635 0.984 . S
H639 N635 0.985 . S
H640 N634 0.984 . S
H641 N634 0.984 . S
H642 N630 0.984 . S
H643 N630 0.985 . S
C644 C645 1.363 1_455 S
C644 C650 1.379 . S
C644 N652 1.356 . S
C645 C644 1.363 1_655 S
C645 C651 1.363 . S
C646 C647 1.363 1_655 S
C646 C651 1.379 . S
C646 N653 1.356 . S
C647 C646 1.363 1_455 S
C647 C650 1.363 . S
N648 C650 1.356 . S
N648 H660 0.984 . S
N648 H661 0.985 . S
N649 C651 1.356 . S
N649 H654 0.984 . S
N649 H655 0.985 . S
C650 C644 1.379 . S
C650 C647 1.363 . S
C650 N648 1.356 . S
C651 C645 1.363 . S
C651 C646 1.379 . S
C651 N649 1.356 . S
N652 C644 1.356 . S
N652 H658 0.984 . S
N652 H659 0.984 . S
N653 C646 1.356 . S
N653 H656 0.984 . S
N653 H657 0.985 . S
H654 N649 0.984 . S
H655 N649 0.985 . S
H656 N653 0.984 . S
H657 N653 0.985 . S
H658 N652 0.984 . S
H659 N652 0.984 . S
H660 N648 0.984 . S
H661 N648 0.985 . S
C662 C663 1.363 . S
C662 C668 1.379 . S
C662 N670 1.356 . S
C663 C662 1.363 . S
C663 C669 1.363 1_655 S
C664 C665 1.363 . S
C664 C669 1.379 . S
C664 N671 1.356 . S
C665 C664 1.363 . S
C665 C668 1.363 1_455 S
N666 C668 1.356 . S
N666 H678 0.984 . S
N666 H679 0.985 . S
N667 C669 1.356 . S
N667 H672 0.984 . S
N667 H673 0.985 . S
C668 C662 1.379 . S
C668 C665 1.363 1_655 S
C668 N666 1.356 . S
C669 C663 1.363 1_455 S
C669 C664 1.379 . S
C669 N667 1.356 . S
N670 C662 1.356 . S
N670 H676 0.984 . S
N670 H677 0.984 . S
N671 C664 1.356 . S
N671 H674 0.984 . S
N671 H675 0.985 . S
H672 N667 0.984 . S
H673 N667 0.985 . S
H674 N671 0.984 . S
H675 N671 0.985 . S
H676 N670 0.984 . S
H677 N670 0.984 . S
H678 N666 0.984 . S
H679 N666 0.985 . S
C680 C681 1.363 . S
C680 C686 1.379 . S
C680 N688 1.356 . S
C681 C680 1.363 . S
C681 C687 1.363 . S
C682 C683 1.363 . S
C682 C687 1.379 . S
C682 N689 1.356 . S
C683 C682 1.363 . S
C683 C686 1.363 . S
N684 C686 1.356 . S
N684 H696 0.984 . S
N684 H697 0.985 . S
N685 C687 1.356 . S
N685 H690 0.984 . S
N685 H691 0.985 . S
C686 C680 1.379 . S
C686 C683 1.363 . S
C686 N684 1.356 . S
C687 C681 1.363 . S
C687 C682 1.379 . S
C687 N685 1.356 . S
N688 C680 1.356 . S
N688 H694 0.984 . S
N688 H695 0.984 . S
N689 C682 1.356 . S
N689 H692 0.984 . S
N689 H693 0.985 . S
H690 N685 0.984 . S
H691 N685 0.985 . S
H692 N689 0.984 . S
H693 N689 0.985 . S
H694 N688 0.984 . S
H695 N688 0.984 . S
H696 N684 0.984 . S
H697 N684 0.985 . S
C698 C699 1.363 . S
C698 C704 1.379 . S
C698 N706 1.356 . S
C699 C698 1.363 . S
C699 C705 1.363 . S
C700 C701 1.363 . S
C700 C705 1.379 . S
C700 N707 1.356 . S
C701 C700 1.363 . S
C701 C704 1.363 . S
N702 C704 1.356 . S
N702 H714 0.984 . S
N702 H715 0.985 . S
N703 C705 1.356 . S
N703 H708 0.984 . S
N703 H709 0.985 . S
C704 C698 1.379 . S
C704 C701 1.363 . S
C704 N702 1.356 . S
C705 C699 1.363 . S
C705 C700 1.379 . S
C705 N703 1.356 . S
N706 C698 1.356 . S
N706 H712 0.984 . S
N706 H713 0.984 . S
N707 C700 1.356 . S
N707 H710 0.984 . S
N707 H711 0.985 . S
H708 N703 0.984 . S
H709 N703 0.985 . S
H710 N707 0.984 . S
H711 N707 0.985 . S
H712 N706 0.984 . S
H713 N706 0.984 . S
H714 N702 0.984 . S
H715 N702 0.985 . S
C716 C717 1.363 . S
C716 C722 1.379 . S
C716 N724 1.356 . S
C717 C716 1.363 . S
C717 C723 1.363 . S
C718 C719 1.363 . S
C718 C723 1.379 . S
C718 N725 1.356 . S
C719 C718 1.363 . S
C719 C722 1.363 . S
N720 C722 1.356 . S
N720 H732 0.984 . S
N720 H733 0.985 . S
N721 C723 1.356 . S
N721 H726 0.984 . S
N721 H727 0.985 . S
C722 C716 1.379 . S
C722 C719 1.363 . S
C722 N720 1.356 . S
C723 C717 1.363 . S
C723 C718 1.379 . S
C723 N721 1.356 . S
N724 C716 1.356 . S
N724 H730 0.984 . S
N724 H731 0.984 . S
N725 C718 1.356 . S
N725 H728 0.984 . S
N725 H729 0.985 . S
H726 N721 0.984 . S
H727 N721 0.985 . S
H728 N725 0.984 . S
H729 N725 0.985 . S
H730 N724 0.984 . S
H731 N724 0.984 . S
H732 N720 0.984 . S
H733 N720 0.985 . S
C734 C735 1.363 . S
C734 C740 1.379 . S
C734 N742 1.356 . S
C735 C734 1.363 . S
C735 C741 1.363 . S
C736 C737 1.363 . S
C736 C741 1.379 . S
C736 N743 1.356 . S
C737 C736 1.363 . S
C737 C740 1.363 . S
N738 C740 1.356 . S
N738 H750 0.984 . S
N738 H751 0.985 . S
N739 C741 1.356 . S
N739 H744 0.984 . S
N739 H745 0.985 . S
C740 C734 1.379 . S
C740 C737 1.363 . S
C740 N738 1.356 . S
C741 C735 1.363 . S
C741 C736 1.379 . S
C741 N739 1.356 . S
N742 C734 1.356 . S
N742 H748 0.984 . S
N742 H749 0.984 . S
N743 C736 1.356 . S
N743 H746 0.984 . S
N743 H747 0.985 . S
H744 N739 0.984 . S
H745 N739 0.985 . S
H746 N743 0.984 . S
H747 N743 0.985 . S
H748 N742 0.984 . S
H749 N742 0.984 . S
H750 N738 0.984 . S
H751 N738 0.985 . S
C321 C10 2.268 . S
C323 C19 2.268 . S
C339 C50 2.268 . S
C341 C59 2.268 . S
C357 C90 2.268 . S
C359 C99 2.268 . S
C375 C130 2.268 . S
C377 C139 2.268 . S
C393 C170 2.268 . S
C395 C179 2.268 . S
C411 C219 2.268 . S
C413 C210 2.268 . S
C429 C250 2.268 . S
C431 C259 2.268 . S
C447 C299 2.268 . S
C449 C290 2.268 . S
C465 C46 2.918 1_554 S
C467 C15 2.918 . S
C483 C135 2.918 . S
C485 C86 2.918 . S
C501 C175 2.917 . S
C503 C206 2.917 1_554 S
C519 C246 2.918 . S
C521 C295 2.918 . S
C537 C6 2.033 . S
C539 C215 2.033 . S
C555 C166 2.033 . S
C557 C55 2.033 . S
C573 C95 2.032 . S
C575 C286 2.032 . S
C591 C126 2.032 . S
C593 C255 2.032 . S
C609 C9 1.573 . S
C611 C129 1.573 . S
C627 C49 1.498 . S
C629 C89 1.498 . S
C645 C58 1.573 . S
C647 C98 1.573 . S
C663 C138 1.498 . S
C665 C18 1.498 . S
C681 C169 1.573 . S
C683 C289 1.573 . S
C699 C209 1.499 . S
C701 C249 1.498 . S
C717 C218 1.573 . S
C719 C258 1.573 . S
C735 C298 1.498 . S
C737 C178 1.499 . S
