# Generated by pormake.
# Topology ana, (4)-cn, num edge types: 1
# Building blocks:
#     Node 0, Type 0, BuildingBlock: NAHDIM_clean_sbu_0, # of connection points: 4
#     Node 1, Type 0, BuildingBlock: NAHDIM_clean_sbu_0, # of connection points: 4
#     Node 2, Type 0, BuildingBlock: NAHDIM_clean_sbu_0, # of connection points: 4
#     Node 3, Type 0, BuildingBlock: NAHDIM_clean_sbu_0, # of connection points: 4
#     Node 4, Type 0, BuildingBlock: NAHDIM_clean_sbu_0, # of connection points: 4
#     Node 5, Type 0, BuildingBlock: NAHDIM_clean_sbu_0, # of connection points: 4
#     Node 6, Type 0, BuildingBlock: NAHDIM_clean_sbu_0, # of connection points: 4
#     Node 7, Type 0, BuildingBlock: NAHDIM_clean_sbu_0, # of connection points: 4
#     Node 8, Type 0, BuildingBlock: NAHDIM_clean_sbu_0, # of connection points: 4
#     Node 9, Type 0, BuildingBlock: NAHDIM_clean_sbu_0, # of connection points: 4
#     Node 10, Type 0, BuildingBlock: NAHDIM_clean_sbu_0, # of connection points: 4
#     Node 11, Type 0, BuildingBlock: NAHDIM_clean_sbu_0, # of connection points: 4
#     Node 12, Type 0, BuildingBlock: NAHDIM_clean_sbu_0, # of connection points: 4
#     Node 13, Type 0, BuildingBlock: NAHDIM_clean_sbu_0, # of connection points: 4
#     Node 14, Type 0, BuildingBlock: NAHDIM_clean_sbu_0, # of connection points: 4
#     Node 15, Type 0, BuildingBlock: NAHDIM_clean_sbu_0, # of connection points: 4
#     Node 16, Type 0, BuildingBlock: NAHDIM_clean_sbu_0, # of connection points: 4
#     Node 17, Type 0, BuildingBlock: NAHDIM_clean_sbu_0, # of connection points: 4
#     Node 18, Type 0, BuildingBlock: NAHDIM_clean_sbu_0, # of connection points: 4
#     Node 19, Type 0, BuildingBlock: NAHDIM_clean_sbu_0, # of connection points: 4
#     Node 20, Type 0, BuildingBlock: NAHDIM_clean_sbu_0, # of connection points: 4
#     Node 21, Type 0, BuildingBlock: NAHDIM_clean_sbu_0, # of connection points: 4
#     Node 22, Type 0, BuildingBlock: NAHDIM_clean_sbu_0, # of connection points: 4
#     Node 23, Type 0, BuildingBlock: NAHDIM_clean_sbu_0, # of connection points: 4
#     Node 24, Type 0, BuildingBlock: NAHDIM_clean_sbu_0, # of connection points: 4
#     Node 25, Type 0, BuildingBlock: NAHDIM_clean_sbu_0, # of connection points: 4
#     Node 26, Type 0, BuildingBlock: NAHDIM_clean_sbu_0, # of connection points: 4
#     Node 27, Type 0, BuildingBlock: NAHDIM_clean_sbu_0, # of connection points: 4
#     Node 28, Type 0, BuildingBlock: NAHDIM_clean_sbu_0, # of connection points: 4
#     Node 29, Type 0, BuildingBlock: NAHDIM_clean_sbu_0, # of connection points: 4
#     Node 30, Type 0, BuildingBlock: NAHDIM_clean_sbu_0, # of connection points: 4
#     Node 31, Type 0, BuildingBlock: NAHDIM_clean_sbu_0, # of connection points: 4
#     Node 32, Type 0, BuildingBlock: NAHDIM_clean_sbu_0, # of connection points: 4
#     Node 33, Type 0, BuildingBlock: NAHDIM_clean_sbu_0, # of connection points: 4
#     Node 34, Type 0, BuildingBlock: NAHDIM_clean_sbu_0, # of connection points: 4
#     Node 35, Type 0, BuildingBlock: NAHDIM_clean_sbu_0, # of connection points: 4
#     Node 36, Type 0, BuildingBlock: NAHDIM_clean_sbu_0, # of connection points: 4
#     Node 37, Type 0, BuildingBlock: NAHDIM_clean_sbu_0, # of connection points: 4
#     Node 38, Type 0, BuildingBlock: NAHDIM_clean_sbu_0, # of connection points: 4
#     Node 39, Type 0, BuildingBlock: NAHDIM_clean_sbu_0, # of connection points: 4
#     Node 40, Type 0, BuildingBlock: NAHDIM_clean_sbu_0, # of connection points: 4
#     Node 41, Type 0, BuildingBlock: NAHDIM_clean_sbu_0, # of connection points: 4
#     Node 42, Type 0, BuildingBlock: NAHDIM_clean_sbu_0, # of connection points: 4
#     Node 43, Type 0, BuildingBlock: NAHDIM_clean_sbu_0, # of connection points: 4
#     Node 44, Type 0, BuildingBlock: NAHDIM_clean_sbu_0, # of connection points: 4
#     Node 45, Type 0, BuildingBlock: NAHDIM_clean_sbu_0, # of connection points: 4
#     Node 46, Type 0, BuildingBlock: NAHDIM_clean_sbu_0, # of connection points: 4
#     Node 47, Type 0, BuildingBlock: NAHDIM_clean_sbu_0, # of connection points: 4
#     Edge 48, Type (0, 0), BuildingBlock: OJICUG_clean_linker_0, # of connection points: 2
#     Edge 49, Type (0, 0), BuildingBlock: OJICUG_clean_linker_0, # of connection points: 2
#     Edge 50, Type (0, 0), BuildingBlock: OJICUG_clean_linker_0, # of connection points: 2
#     Edge 51, Type (0, 0), BuildingBlock: OJICUG_clean_linker_0, # of connection points: 2
#     Edge 52, Type (0, 0), BuildingBlock: OJICUG_clean_linker_0, # of connection points: 2
#     Edge 53, Type (0, 0), BuildingBlock: OJICUG_clean_linker_0, # of connection points: 2
#     Edge 54, Type (0, 0), BuildingBlock: OJICUG_clean_linker_0, # of connection points: 2
#     Edge 55, Type (0, 0), BuildingBlock: OJICUG_clean_linker_0, # of connection points: 2
#     Edge 56, Type (0, 0), BuildingBlock: OJICUG_clean_linker_0, # of connection points: 2
#     Edge 57, Type (0, 0), BuildingBlock: OJICUG_clean_linker_0, # of connection points: 2
#     Edge 58, Type (0, 0), BuildingBlock: OJICUG_clean_linker_0, # of connection points: 2
#     Edge 59, Type (0, 0), BuildingBlock: OJICUG_clean_linker_0, # of connection points: 2
#     Edge 60, Type (0, 0), BuildingBlock: OJICUG_clean_linker_0, # of connection points: 2
#     Edge 61, Type (0, 0), BuildingBlock: OJICUG_clean_linker_0, # of connection points: 2
#     Edge 62, Type (0, 0), BuildingBlock: OJICUG_clean_linker_0, # of connection points: 2
#     Edge 63, Type (0, 0), BuildingBlock: OJICUG_clean_linker_0, # of connection points: 2
#     Edge 64, Type (0, 0), BuildingBlock: OJICUG_clean_linker_0, # of connection points: 2
#     Edge 65, Type (0, 0), BuildingBlock: OJICUG_clean_linker_0, # of connection points: 2
#     Edge 66, Type (0, 0), BuildingBlock: OJICUG_clean_linker_0, # of connection points: 2
#     Edge 67, Type (0, 0), BuildingBlock: OJICUG_clean_linker_0, # of connection points: 2
#     Edge 68, Type (0, 0), BuildingBlock: OJICUG_clean_linker_0, # of connection points: 2
#     Edge 69, Type (0, 0), BuildingBlock: OJICUG_clean_linker_0, # of connection points: 2
#     Edge 70, Type (0, 0), BuildingBlock: OJICUG_clean_linker_0, # of connection points: 2
#     Edge 71, Type (0, 0), BuildingBlock: OJICUG_clean_linker_0, # of connection points: 2
#     Edge 72, Type (0, 0), BuildingBlock: OJICUG_clean_linker_0, # of connection points: 2
#     Edge 73, Type (0, 0), BuildingBlock: OJICUG_clean_linker_0, # of connection points: 2
#     Edge 74, Type (0, 0), BuildingBlock: OJICUG_clean_linker_0, # of connection points: 2
#     Edge 75, Type (0, 0), BuildingBlock: OJICUG_clean_linker_0, # of connection points: 2
#     Edge 76, Type (0, 0), BuildingBlock: OJICUG_clean_linker_0, # of connection points: 2
#     Edge 77, Type (0, 0), BuildingBlock: OJICUG_clean_linker_0, # of connection points: 2
#     Edge 78, Type (0, 0), BuildingBlock: OJICUG_clean_linker_0, # of connection points: 2
#     Edge 79, Type (0, 0), BuildingBlock: OJICUG_clean_linker_0, # of connection points: 2
#     Edge 80, Type (0, 0), BuildingBlock: OJICUG_clean_linker_0, # of connection points: 2
#     Edge 81, Type (0, 0), BuildingBlock: OJICUG_clean_linker_0, # of connection points: 2
#     Edge 82, Type (0, 0), BuildingBlock: OJICUG_clean_linker_0, # of connection points: 2
#     Edge 83, Type (0, 0), BuildingBlock: OJICUG_clean_linker_0, # of connection points: 2
#     Edge 84, Type (0, 0), BuildingBlock: OJICUG_clean_linker_0, # of connection points: 2
#     Edge 85, Type (0, 0), BuildingBlock: OJICUG_clean_linker_0, # of connection points: 2
#     Edge 86, Type (0, 0), BuildingBlock: OJICUG_clean_linker_0, # of connection points: 2
#     Edge 87, Type (0, 0), BuildingBlock: OJICUG_clean_linker_0, # of connection points: 2
#     Edge 88, Type (0, 0), BuildingBlock: OJICUG_clean_linker_0, # of connection points: 2
#     Edge 89, Type (0, 0), BuildingBlock: OJICUG_clean_linker_0, # of connection points: 2
#     Edge 90, Type (0, 0), BuildingBlock: OJICUG_clean_linker_0, # of connection points: 2
#     Edge 91, Type (0, 0), BuildingBlock: OJICUG_clean_linker_0, # of connection points: 2
#     Edge 92, Type (0, 0), BuildingBlock: OJICUG_clean_linker_0, # of connection points: 2
#     Edge 93, Type (0, 0), BuildingBlock: OJICUG_clean_linker_0, # of connection points: 2
#     Edge 94, Type (0, 0), BuildingBlock: OJICUG_clean_linker_0, # of connection points: 2
#     Edge 95, Type (0, 0), BuildingBlock: OJICUG_clean_linker_0, # of connection points: 2
#     Edge 96, Type (0, 0), BuildingBlock: OJICUG_clean_linker_0, # of connection points: 2
#     Edge 97, Type (0, 0), BuildingBlock: OJICUG_clean_linker_0, # of connection points: 2
#     Edge 98, Type (0, 0), BuildingBlock: OJICUG_clean_linker_0, # of connection points: 2
#     Edge 99, Type (0, 0), BuildingBlock: OJICUG_clean_linker_0, # of connection points: 2
#     Edge 100, Type (0, 0), BuildingBlock: OJICUG_clean_linker_0, # of connection points: 2
#     Edge 101, Type (0, 0), BuildingBlock: OJICUG_clean_linker_0, # of connection points: 2
#     Edge 102, Type (0, 0), BuildingBlock: OJICUG_clean_linker_0, # of connection points: 2
#     Edge 103, Type (0, 0), BuildingBlock: OJICUG_clean_linker_0, # of connection points: 2
#     Edge 104, Type (0, 0), BuildingBlock: OJICUG_clean_linker_0, # of connection points: 2
#     Edge 105, Type (0, 0), BuildingBlock: OJICUG_clean_linker_0, # of connection points: 2
#     Edge 106, Type (0, 0), BuildingBlock: OJICUG_clean_linker_0, # of connection points: 2
#     Edge 107, Type (0, 0), BuildingBlock: OJICUG_clean_linker_0, # of connection points: 2
#     Edge 108, Type (0, 0), BuildingBlock: OJICUG_clean_linker_0, # of connection points: 2
#     Edge 109, Type (0, 0), BuildingBlock: OJICUG_clean_linker_0, # of connection points: 2
#     Edge 110, Type (0, 0), BuildingBlock: OJICUG_clean_linker_0, # of connection points: 2
#     Edge 111, Type (0, 0), BuildingBlock: OJICUG_clean_linker_0, # of connection points: 2
#     Edge 112, Type (0, 0), BuildingBlock: OJICUG_clean_linker_0, # of connection points: 2
#     Edge 113, Type (0, 0), BuildingBlock: OJICUG_clean_linker_0, # of connection points: 2
#     Edge 114, Type (0, 0), BuildingBlock: OJICUG_clean_linker_0, # of connection points: 2
#     Edge 115, Type (0, 0), BuildingBlock: OJICUG_clean_linker_0, # of connection points: 2
#     Edge 116, Type (0, 0), BuildingBlock: OJICUG_clean_linker_0, # of connection points: 2
#     Edge 117, Type (0, 0), BuildingBlock: OJICUG_clean_linker_0, # of connection points: 2
#     Edge 118, Type (0, 0), BuildingBlock: OJICUG_clean_linker_0, # of connection points: 2
#     Edge 119, Type (0, 0), BuildingBlock: OJICUG_clean_linker_0, # of connection points: 2
#     Edge 120, Type (0, 0), BuildingBlock: OJICUG_clean_linker_0, # of connection points: 2
#     Edge 121, Type (0, 0), BuildingBlock: OJICUG_clean_linker_0, # of connection points: 2
#     Edge 122, Type (0, 0), BuildingBlock: OJICUG_clean_linker_0, # of connection points: 2
#     Edge 123, Type (0, 0), BuildingBlock: OJICUG_clean_linker_0, # of connection points: 2
#     Edge 124, Type (0, 0), BuildingBlock: OJICUG_clean_linker_0, # of connection points: 2
#     Edge 125, Type (0, 0), BuildingBlock: OJICUG_clean_linker_0, # of connection points: 2
#     Edge 126, Type (0, 0), BuildingBlock: OJICUG_clean_linker_0, # of connection points: 2
#     Edge 127, Type (0, 0), BuildingBlock: OJICUG_clean_linker_0, # of connection points: 2
#     Edge 128, Type (0, 0), BuildingBlock: OJICUG_clean_linker_0, # of connection points: 2
#     Edge 129, Type (0, 0), BuildingBlock: OJICUG_clean_linker_0, # of connection points: 2
#     Edge 130, Type (0, 0), BuildingBlock: OJICUG_clean_linker_0, # of connection points: 2
#     Edge 131, Type (0, 0), BuildingBlock: OJICUG_clean_linker_0, # of connection points: 2
#     Edge 132, Type (0, 0), BuildingBlock: OJICUG_clean_linker_0, # of connection points: 2
#     Edge 133, Type (0, 0), BuildingBlock: OJICUG_clean_linker_0, # of connection points: 2
#     Edge 134, Type (0, 0), BuildingBlock: OJICUG_clean_linker_0, # of connection points: 2
#     Edge 135, Type (0, 0), BuildingBlock: OJICUG_clean_linker_0, # of connection points: 2
#     Edge 136, Type (0, 0), BuildingBlock: OJICUG_clean_linker_0, # of connection points: 2
#     Edge 137, Type (0, 0), BuildingBlock: OJICUG_clean_linker_0, # of connection points: 2
#     Edge 138, Type (0, 0), BuildingBlock: OJICUG_clean_linker_0, # of connection points: 2
#     Edge 139, Type (0, 0), BuildingBlock: OJICUG_clean_linker_0, # of connection points: 2
#     Edge 140, Type (0, 0), BuildingBlock: OJICUG_clean_linker_0, # of connection points: 2
#     Edge 141, Type (0, 0), BuildingBlock: OJICUG_clean_linker_0, # of connection points: 2
#     Edge 142, Type (0, 0), BuildingBlock: OJICUG_clean_linker_0, # of connection points: 2
#     Edge 143, Type (0, 0), BuildingBlock: OJICUG_clean_linker_0, # of connection points: 2
# Relax obj value: 0.186
# Max RMSD: 0.214
# Mean RMSD: 0.197
data_MOF--net-ana--node1-NAHDIM_clean_sbu_0--edge1-OJICUG_clean_linker_0
_symmetry_space_group_name_H-M    P1
_symmetry_Int_Tables_number       1
_symmetry_cell_setting            triclinic
loop_
_symmetry_equiv_pos_as_xyz
'x, y, z'
_cell_length_a     48.493793
_cell_length_b     46.527914
_cell_length_c     46.416291
_cell_angle_alpha  90.120316
_cell_angle_beta   90.114593
_cell_angle_gamma 90.627244
loop_
_atom_site_label
_atom_site_type_symbol
_atom_site_fract_x
_atom_site_fract_y
_atom_site_fract_z
_atom_type_partial_charge
C0 C 0.12996 0.1923 0.3743 0.0
O1 O 0.15037 0.1757 0.36645 0.0
O2 O 0.13265 0.11745 0.37098 0.0
Zn3 Zn 0.1023 0.13876 0.39091 0.0
O4 O 0.06485 0.12954 0.37458 0.0
C5 C 0.088 0.11424 0.44724 0.0
O6 O 0.0672 0.10197 0.43364 0.0
O7 O 0.10839 0.18111 0.38528 0.0
C8 C 0.05554 0.10531 0.36614 0.0
O9 O 0.07116 0.08249 0.36798 0.0
C10 C 0.142 0.09437 0.3816 0.0
O11 O 0.1296 0.0829 0.404 0.0
O12 O 0.10444 0.13059 0.43344 0.0
C13 C 0.12803 0.83968 0.71425 0.0
O14 O 0.14247 0.81805 0.70443 0.0
O15 O 0.12432 0.81028 0.64142 0.0
Zn16 Zn 0.1072 0.8469 0.655 0.0
O17 O 0.12207 0.88218 0.63528 0.0
C18 C 0.05163 0.82781 0.66275 0.0
O19 O 0.06304 0.81273 0.6834 0.0
O20 O 0.1124 0.85333 0.69726 0.0
C21 C 0.10992 0.90484 0.64345 0.0
O22 O 0.08961 0.90243 0.66204 0.0
C23 C 0.12269 0.80416 0.61479 0.0
O24 O 0.11199 0.82301 0.59707 0.0
O25 O 0.06671 0.84413 0.64737 0.0
C26 C 0.34045 0.78676 0.85277 0.0
O27 O 0.33061 0.80623 0.83517 0.0
O28 O 0.3209 0.85883 0.87871 0.0
Zn29 Zn 0.35492 0.83625 0.88738 0.0
O30 O 0.38836 0.85117 0.86707 0.0
C31 C 0.34702 0.82674 0.94783 0.0
O32 O 0.32708 0.80977 0.9385 0.0
O33 O 0.35063 0.79469 0.87677 0.0
C34 C 0.3984 0.87604 0.87183 0.0
O35 O 0.38507 0.89377 0.88874 0.0
C36 C 0.31664 0.87444 0.85676 0.0
O37 O 0.33538 0.87606 0.83641 0.0
O38 O 0.36208 0.83985 0.92967 0.0
C39 C 0.36853 0.12443 0.22085 0.0
O40 O 0.36879 0.1508 0.21079 0.0
O41 O 0.37093 0.14676 0.14821 0.0
Zn42 Zn 0.38357 0.10845 0.16227 0.0
O43 O 0.36553 0.07606 0.14034 0.0
C44 C 0.43884 0.12938 0.16417 0.0
O45 O 0.42653 0.15103 0.17681 0.0
O46 O 0.37446 0.10369 0.20418 0.0
C47 C 0.37925 0.0533 0.13631 0.0
O48 O 0.40487 0.05235 0.14547 0.0
C49 C 0.37735 0.15489 0.12297 0.0
O50 O 0.38972 0.13677 0.10566 0.0
O51 O 0.42455 0.10762 0.15659 0.0
C52 C 0.0899 0.86389 0.01652 0.0
O53 O 0.07943 0.83802 0.02031 0.0
O54 O 0.06999 0.87121 0.10157 0.0
Zn55 Zn 0.10278 0.86169 0.07776 0.0
O56 O 0.13746 0.87785 0.09466 0.0
C57 C 0.12702 0.80438 0.07831 0.0
O58 O 0.15081 0.81809 0.07962 0.0
O59 O 0.0997 0.87758 0.03798 0.0
C60 C 0.14612 0.87301 0.11999 0.0
O61 O 0.13088 0.85757 0.13763 0.0
C62 C 0.05753 0.89503 0.10265 0.0
O63 O 0.06672 0.91689 0.08745 0.0
O64 O 0.10486 0.81861 0.0766 0.0
C65 C 0.46592 0.8647 0.35949 0.0
O66 O 0.44917 0.87593 0.37855 0.0
O67 O 0.40093 0.89068 0.34786 0.0
Zn68 Zn 0.41511 0.85396 0.33093 0.0
O69 O 0.3993 0.81804 0.34906 0.0
C70 C 0.38474 0.86401 0.27933 0.0
O71 O 0.36779 0.87591 0.29776 0.0
O72 O 0.45593 0.85373 0.33662 0.0
C73 C 0.37529 0.80864 0.34291 0.0
O74 O 0.35936 0.82392 0.32612 0.0
C75 C 0.37958 0.89457 0.36311 0.0
O76 O 0.36357 0.87261 0.36971 0.0
O77 O 0.4071 0.85331 0.28843 0.0
C78 C 0.37501 0.14026 0.52968 0.0
O79 O 0.40056 0.1467 0.53685 0.0
O80 O 0.39838 0.12268 0.60281 0.0
Zn81 Zn 0.36218 0.14033 0.59199 0.0
O82 O 0.32947 0.11925 0.60845 0.0
C83 C 0.37608 0.18759 0.62832 0.0
O84 O 0.38753 0.16665 0.64286 0.0
O85 O 0.3568 0.13783 0.54919 0.0
C86 C 0.31642 0.12592 0.63116 0.0
O87 O 0.3259 0.14678 0.64765 0.0
C88 C 0.40969 0.10149 0.59043 0.0
O89 O 0.3964 0.08777 0.5698 0.0
O90 O 0.36304 0.18165 0.60522 0.0
C91 C 0.98875 0.13578 0.82314 0.0
O92 O 0.99189 0.1137 0.80581 0.0
O93 O 0.06296 0.10917 0.83742 0.0
Zn94 Zn 0.04913 0.14541 0.81927 0.0
O95 O 0.06981 0.18008 0.83427 0.0
C96 C 0.07549 0.14989 0.76396 0.0
O97 O 0.09412 0.16397 0.77916 0.0
O98 O 0.0096 0.15095 0.83032 0.0
C99 C 0.06395 0.20408 0.82293 0.0
O100 O 0.04607 0.20463 0.80163 0.0
C101 C 0.08828 0.10258 0.83581 0.0
O102 O 0.10569 0.12066 0.8237 0.0
O103 O 0.05365 0.14097 0.77631 0.0
C104 C 0.24446 0.41156 0.14897 0.0
O105 O 0.2286 0.39792 0.16746 0.0
O106 O 0.16973 0.41776 0.15486 0.0
Zn107 Zn 0.19294 0.42998 0.12117 0.0
O108 O 0.18357 0.40676 0.08575 0.0
C109 C 0.16632 0.48131 0.0988 0.0
O110 O 0.1518 0.46309 0.08316 0.0
O111 O 0.23355 0.42606 0.12887 0.0
C112 C 0.15963 0.39694 0.07997 0.0
O113 O 0.1392 0.402 0.09776 0.0
C114 C 0.16327 0.39234 0.16241 0.0
O115 O 0.17297 0.37038 0.14792 0.0
O116 O 0.18518 0.47191 0.11519 0.0
C117 C 0.6175 0.04817 0.88511 0.0
O118 O 0.63567 0.05984 0.90274 0.0
O119 O 0.59281 0.12478 0.90012 0.0
Zn120 Zn 0.60988 0.10665 0.86525 0.0
O121 O 0.59495 0.11984 0.82713 0.0
C122 C 0.65818 0.14033 0.87429 0.0
O123 O 0.6395 0.15957 0.88068 0.0
O124 O 0.60446 0.06404 0.86761 0.0
C125 C 0.60832 0.10901 0.80631 0.0
O126 O 0.62909 0.09205 0.81217 0.0
C127 C 0.57291 0.1129 0.91348 0.0
O128 O 0.56063 0.09032 0.90198 0.0
O129 O 0.65039 0.11536 0.86655 0.0
C130 C 0.83658 0.97017 0.40842 0.0
O131 O 0.8379 0.96234 0.43556 0.0
O132 O 0.84333 0.89289 0.42852 0.0
Zn133 Zn 0.82427 0.90927 0.39408 0.0
O134 O 0.83704 0.88952 0.35836 0.0
C135 C 0.76951 0.91068 0.41831 0.0
O136 O 0.78111 0.92747 0.43774 0.0
O137 O 0.83106 0.95156 0.38913 0.0
C138 C 0.85874 0.89795 0.34551 0.0
O139 O 0.87354 0.91898 0.35675 0.0
C140 C 0.8675 0.89909 0.43729 0.0
O141 O 0.88237 0.91831 0.42341 0.0
O142 O 0.78395 0.90109 0.39772 0.0
C143 C 0.83575 0.00693 0.0883 0.0
O144 O 0.8496 0.02302 0.07001 0.0
O145 O 0.82207 0.07995 0.06886 0.0
Zn146 Zn 0.81228 0.06099 0.10634 0.0
O147 O 0.83639 0.07577 0.13848 0.0
C148 C 0.75331 0.05821 0.1002 0.0
O149 O 0.75943 0.04181 0.07809 0.0
O150 O 0.81806 0.01853 0.10463 0.0
C151 C 0.82853 0.09502 0.15599 0.0
O152 O 0.80438 0.10698 0.15217 0.0
C153 C 0.8241 0.10716 0.0674 0.0
O154 O 0.82029 0.12254 0.09078 0.0
O155 O 0.77269 0.06868 0.11554 0.0
C156 C 0.37417 0.48716 0.5845 0.0
O157 O 0.3901 0.49969 0.5653 0.0
O158 O 0.36555 0.55373 0.54899 0.0
Zn159 Zn 0.3513 0.54373 0.58844 0.0
O160 O 0.37326 0.56322 0.61982 0.0
C161 C 0.30448 0.57799 0.57644 0.0
O162 O 0.3235 0.59209 0.56195 0.0
O163 O 0.35494 0.50146 0.59607 0.0
C164 C 0.36722 0.58702 0.63155 0.0
O165 O 0.34607 0.60153 0.62186 0.0
C166 C 0.38278 0.57383 0.54384 0.0
O167 O 0.39393 0.58811 0.56543 0.0
O168 O 0.31132 0.55569 0.59046 0.0
C169 C 0.13489 0.52467 0.37725 0.0
O170 O 0.1407 0.53634 0.40236 0.0
O171 O 0.12351 0.59966 0.39228 0.0
Zn172 Zn 0.13674 0.58337 0.35469 0.0
O173 O 0.11598 0.598 0.32013 0.0
C174 C 0.18701 0.6143 0.36443 0.0
O175 O 0.16998 0.63169 0.37763 0.0
O176 O 0.13234 0.54054 0.35516 0.0
C177 C 0.12608 0.61626 0.30265 0.0
O178 O 0.15027 0.62798 0.30827 0.0
C179 C 0.10274 0.5912 0.4067 0.0
O180 O 0.08612 0.57153 0.39574 0.0
O181 O 0.17736 0.59218 0.3517 0.0
C182 C 0.27945 0.40644 0.88304 0.0
O183 O 0.29072 0.3969 0.85921 0.0
O184 O 0.3486 0.39382 0.86607 0.0
Zn185 Zn 0.3363 0.41635 0.9007 0.0
O186 O 0.35181 0.39949 0.93705 0.0
C187 C 0.34227 0.46954 0.87241 0.0
O188 O 0.32732 0.45522 0.85347 0.0
O189 O 0.29485 0.41567 0.90331 0.0
C190 C 0.37389 0.40863 0.94888 0.0
O191 O 0.38781 0.42976 0.93679 0.0
C192 C 0.37281 0.39706 0.85611 0.0
O193 O 0.39026 0.41417 0.86966 0.0
O194 O 0.34894 0.45726 0.89578 0.0
C195 C 0.83573 0.83375 0.60419 0.0
O196 O 0.83515 0.81747 0.58102 0.0
O197 O 0.88327 0.77501 0.60052 0.0
Zn198 Zn 0.88945 0.81749 0.59718 0.0
O199 O 0.88796 0.82906 0.55567 0.0
C200 C 0.93622 0.81423 0.63501 0.0
O201 O 0.92116 0.79423 0.64753 0.0
O202 O 0.85855 0.83754 0.6172 0.0
C203 C 0.90079 0.85094 0.54601 0.0
O204 O 0.91718 0.86567 0.56326 0.0
C205 C 0.89925 0.75776 0.58771 0.0
O206 O 0.9193 0.7682 0.57172 0.0
O207 O 0.92637 0.82776 0.61368 0.0
C208 C 0.94098 0.0983 0.33213 0.0
O209 O 0.92778 0.0735 0.33162 0.0
O210 O 0.86891 0.08876 0.34351 0.0
Zn211 Zn 0.88628 0.12337 0.32522 0.0
O212 O 0.87443 0.15948 0.34492 0.0
C213 C 0.88537 0.10961 0.26425 0.0
O214 O 0.90628 0.09313 0.2708 0.0
O215 O 0.92755 0.12141 0.32898 0.0
C216 C 0.85425 0.17454 0.3365 0.0
O217 O 0.83909 0.16551 0.31474 0.0
C218 C 0.87079 0.08293 0.37016 0.0
O219 O 0.88412 0.10075 0.38736 0.0
O220 O 0.87435 0.12468 0.28385 0.0
C221 C 0.64416 0.10308 0.11501 0.0
O222 O 0.63921 0.12079 0.13642 0.0
O223 O 0.61353 0.16886 0.10796 0.0
Zn224 Zn 0.59848 0.1325 0.09051 0.0
O225 O 0.59005 0.13849 0.04851 0.0
C226 C 0.54937 0.14296 0.1208 0.0
O227 O 0.55831 0.16929 0.11618 0.0
O228 O 0.62795 0.10273 0.09347 0.0
C229 C 0.56998 0.12544 0.03637 0.0
O230 O 0.55392 0.10866 0.05188 0.0
C231 C 0.6321 0.18521 0.09756 0.0
O232 O 0.6433 0.17887 0.07263 0.0
O233 O 0.56358 0.12198 0.11177 0.0
C234 C 0.51361 0.89636 0.8497 0.0
O235 O 0.52489 0.92205 0.85201 0.0
O236 O 0.58153 0.91633 0.861 0.0
Zn237 Zn 0.57036 0.87688 0.8478 0.0
O238 O 0.58432 0.8444 0.87217 0.0
C239 C 0.60683 0.88197 0.79963 0.0
O240 O 0.6221 0.89576 0.81866 0.0
O241 O 0.52896 0.87447 0.84748 0.0
C242 C 0.60929 0.83655 0.87396 0.0
O243 O 0.6286 0.8519 0.86124 0.0
C244 C 0.59893 0.92545 0.87942 0.0
O245 O 0.61356 0.90713 0.89436 0.0
O246 O 0.58358 0.87171 0.80723 0.0
C247 C 0.88443 0.16061 0.87737 0.0
O248 O 0.88447 0.17865 0.8992 0.0
O249 O 0.83432 0.14723 0.93402 0.0
Zn250 Zn 0.83033 0.16329 0.89412 0.0
O251 O 0.8329 0.20654 0.89442 0.0
C252 C 0.77354 0.16456 0.89359 0.0
O253 O 0.78029 0.18297 0.91399 0.0
O254 O 0.86168 0.14905 0.86972 0.0
C255 C 0.82206 0.22089 0.87416 0.0
O256 O 0.80855 0.20723 0.85364 0.0
C257 C 0.83492 0.16249 0.95673 0.0
O258 O 0.83391 0.19061 0.95456 0.0
O259 O 0.79262 0.15174 0.88009 0.0
C260 C 0.52691 0.0885 0.60604 0.0
O261 O 0.54107 0.07009 0.59067 0.0
O262 O 0.59897 0.07473 0.60887 0.0
Zn263 Zn 0.58081 0.10961 0.62588 0.0
O264 O 0.59358 0.14678 0.60808 0.0
C265 C 0.57648 0.12366 0.68725 0.0
O266 O 0.55457 0.1383 0.67987 0.0
O267 O 0.53961 0.10656 0.62195 0.0
C268 C 0.61866 0.15412 0.6045 0.0
O269 O 0.6382 0.13597 0.61117 0.0
C270 C 0.62145 0.06616 0.61988 0.0
O271 O 0.63319 0.08162 0.64029 0.0
O272 O 0.59008 0.11056 0.668 0.0
C273 C 0.5786 0.84284 0.38956 0.0
O274 O 0.59544 0.83075 0.37113 0.0
O275 O 0.61516 0.81971 0.47314 0.0
Zn276 Zn 0.6175 0.82165 0.43023 0.0
O277 O 0.61672 0.78252 0.41173 0.0
C278 C 0.65988 0.86465 0.43518 0.0
O279 O 0.64461 0.873 0.45693 0.0
O280 O 0.58455 0.84263 0.41619 0.0
C281 C 0.63195 0.77677 0.39025 0.0
O282 O 0.65009 0.79599 0.38148 0.0
C283 C 0.63131 0.80466 0.48828 0.0
O284 O 0.64875 0.78752 0.47534 0.0
O285 O 0.65202 0.84327 0.42008 0.0
C286 C 0.95035 0.89541 0.15569 0.0
O287 O 0.93569 0.91882 0.15856 0.0
O288 O 0.87612 0.89265 0.15013 0.0
Zn289 Zn 0.89989 0.86507 0.17179 0.0
O290 O 0.88977 0.824 0.16336 0.0
C291 C 0.87835 0.86024 0.22908 0.0
O292 O 0.86186 0.84124 0.21681 0.0
O293 O 0.93925 0.87101 0.16042 0.0
C294 C 0.87169 0.81599 0.14512 0.0
O295 O 0.85769 0.83538 0.1309 0.0
C296 C 0.8805 0.89927 0.12397 0.0
O297 O 0.90047 0.88662 0.10985 0.0
O298 O 0.89644 0.87305 0.21394 0.0
C299 C 0.77176 0.63103 0.83448 0.0
O300 O 0.78897 0.64921 0.82219 0.0
O301 O 0.84238 0.60881 0.81609 0.0
Zn302 Zn 0.82188 0.60306 0.8531 0.0
O303 O 0.83629 0.6277 0.88529 0.0
C304 C 0.82575 0.54219 0.84655 0.0
O305 O 0.81708 0.54841 0.82048 0.0
O306 O 0.78128 0.60967 0.84817 0.0
C307 C 0.86083 0.62462 0.89431 0.0
O308 O 0.8774 0.60744 0.88021 0.0
C309 C 0.85655 0.63045 0.80806 0.0
O310 O 0.85814 0.65332 0.82465 0.0
O311 O 0.82835 0.56227 0.86493 0.0
C312 C 0.26258 0.88614 0.13851 0.0
O313 O 0.27453 0.87907 0.16286 0.0
O314 O 0.33069 0.8684 0.15195 0.0
Zn315 Zn 0.3182 0.88551 0.11489 0.0
O316 O 0.32724 0.86121 0.08058 0.0
C317 C 0.32397 0.94736 0.10661 0.0
O318 O 0.29735 0.94649 0.10131 0.0
O319 O 0.27717 0.89004 0.1161 0.0
C320 C 0.34851 0.86594 0.06532 0.0
O321 O 0.36622 0.88596 0.07342 0.0
C322 C 0.35594 0.8677 0.15913 0.0
O323 O 0.37485 0.87537 0.14035 0.0
O324 O 0.33657 0.92418 0.11195 0.0
C325 C 0.20238 0.0917 0.64079 0.0
O326 O 0.18798 0.09684 0.66415 0.0
O327 O 0.13199 0.10584 0.64616 0.0
Zn328 Zn 0.14855 0.08081 0.61561 0.0
O329 O 0.13596 0.09332 0.57637 0.0
C330 C 0.14762 0.01842 0.6109 0.0
O331 O 0.16795 0.02234 0.59261 0.0
O332 O 0.18992 0.08417 0.6178 0.0
C333 C 0.11408 0.08347 0.56468 0.0
O334 O 0.09885 0.06467 0.57872 0.0
C335 C 0.10728 0.10224 0.65459 0.0
O336 O 0.09176 0.08257 0.64202 0.0
O337 O 0.13673 0.04007 0.6229 0.0
C338 C 0.21133 0.93041 0.84721 0.0
O339 O 0.2018 0.93806 0.82187 0.0
O340 O 0.1408 0.91448 0.83093 0.0
Zn341 Zn 0.15457 0.93714 0.86489 0.0
O342 O 0.13629 0.92396 0.90137 0.0
C343 C 0.12194 0.98705 0.863 0.0
O344 O 0.10338 0.96794 0.87108 0.0
O345 O 0.19514 0.93002 0.86871 0.0
C346 C 0.11779 0.90449 0.90311 0.0
O347 O 0.10909 0.89144 0.87962 0.0
C348 C 0.14959 0.88931 0.82594 0.0
O349 O 0.16703 0.87761 0.84404 0.0
O350 O 0.14657 0.97899 0.85881 0.0
C351 C 0.73425 0.42913 0.35854 0.0
O352 O 0.72171 0.43177 0.33358 0.0
O353 O 0.6616 0.41074 0.35373 0.0
Zn354 Zn 0.67945 0.43722 0.3827 0.0
O355 O 0.66672 0.42882 0.42303 0.0
C356 C 0.64422 0.48329 0.37035 0.0
O357 O 0.62604 0.46328 0.37712 0.0
O358 O 0.72042 0.43163 0.38163 0.0
C359 C 0.64806 0.41056 0.42943 0.0
O360 O 0.63516 0.39656 0.40872 0.0
C361 C 0.67026 0.3856 0.34842 0.0
O362 O 0.69098 0.37547 0.36343 0.0
O363 O 0.66972 0.47746 0.37177 0.0
C364 C 0.79601 0.34937 0.64945 0.0
O365 O 0.80814 0.33916 0.67254 0.0
O366 O 0.86778 0.34255 0.66431 0.0
Zn367 Zn 0.85203 0.36438 0.63082 0.0
O368 O 0.867 0.35176 0.59252 0.0
C369 C 0.86055 0.42606 0.61962 0.0
O370 O 0.85006 0.42099 0.59397 0.0
O371 O 0.8106 0.36073 0.62969 0.0
C372 C 0.889 0.36208 0.58161 0.0
O373 O 0.90411 0.38026 0.59669 0.0
C374 C 0.89123 0.35076 0.6737 0.0
O375 O 0.90534 0.36989 0.65887 0.0
O376 O 0.86237 0.40567 0.63764 0.0
C377 C 0.71592 0.5696 0.12013 0.0
O378 O 0.70215 0.57011 0.14446 0.0
O379 O 0.64212 0.56425 0.12801 0.0
Zn380 Zn 0.66352 0.55118 0.09363 0.0
O381 O 0.64885 0.56954 0.05786 0.0
C382 C 0.67068 0.49363 0.11094 0.0
O383 O 0.68701 0.50678 0.12947 0.0
O384 O 0.70369 0.56197 0.09705 0.0
C385 C 0.62352 0.57407 0.05273 0.0
O386 O 0.60485 0.56595 0.07158 0.0
C387 C 0.64023 0.58992 0.13707 0.0
O388 O 0.65325 0.6107 0.12342 0.0
O389 O 0.65874 0.50839 0.09171 0.0
C390 C 0.63001 0.71819 0.90002 0.0
O391 O 0.65489 0.70764 0.90275 0.0
O392 O 0.64492 0.64615 0.87048 0.0
Zn393 Zn 0.61088 0.65838 0.8916 0.0
O394 O 0.57629 0.64642 0.87083 0.0
C395 C 0.59416 0.63167 0.94693 0.0
O396 O 0.56838 0.63514 0.93904 0.0
O397 O 0.60963 0.70131 0.89575 0.0
C398 C 0.56712 0.62096 0.86747 0.0
O399 O 0.58121 0.59929 0.87774 0.0
C400 C 0.65769 0.65994 0.85094 0.0
O401 O 0.64753 0.68416 0.8413 0.0
O402 O 0.61351 0.64016 0.93052 0.0
C403 C 0.63713 0.33479 0.2405 0.0
O404 O 0.65386 0.317 0.22742 0.0
O405 O 0.62689 0.30079 0.17212 0.0
Zn406 Zn 0.61307 0.3397 0.18374 0.0
O407 O 0.6342 0.37154 0.16427 0.0
C408 C 0.56413 0.32782 0.15111 0.0
O409 O 0.58178 0.31254 0.1363 0.0
O410 O 0.61759 0.34601 0.2263 0.0
C411 C 0.62831 0.38156 0.13959 0.0
O412 O 0.60799 0.36993 0.12473 0.0
C413 C 0.64254 0.29622 0.15069 0.0
O414 O 0.65258 0.31816 0.13619 0.0
O415 O 0.57268 0.34191 0.17294 0.0
C416 C 0.84978 0.29195 0.37542 0.0
O417 O 0.83137 0.31007 0.36578 0.0
O418 O 0.84845 0.36849 0.39179 0.0
Zn419 Zn 0.87939 0.34181 0.40126 0.0
O420 O 0.91484 0.35198 0.38135 0.0
C421 C 0.90322 0.35342 0.45871 0.0
O422 O 0.92326 0.36705 0.44529 0.0
O423 O 0.87018 0.3012 0.39009 0.0
C424 C 0.92434 0.37681 0.37542 0.0
O425 O 0.91032 0.39969 0.38275 0.0
C426 C 0.84136 0.37748 0.36707 0.0
O427 O 0.85537 0.36954 0.34426 0.0
O428 O 0.88382 0.34183 0.44422 0.0
C429 C 0.91449 0.62316 0.69961 0.0
O430 O 0.92466 0.64617 0.68697 0.0
O431 O 0.92176 0.62654 0.62232 0.0
Zn432 Zn 0.92964 0.59213 0.64667 0.0
O433 O 0.91065 0.55668 0.63146 0.0
C434 C 0.98727 0.59618 0.66486 0.0
O435 O 0.97748 0.60974 0.68741 0.0
O436 O 0.91543 0.59901 0.68679 0.0
C437 C 0.91098 0.53545 0.64862 0.0
O438 O 0.9237 0.53837 0.6735 0.0
C439 C 0.89886 0.63948 0.62324 0.0
O440 O 0.87885 0.62889 0.63919 0.0
O441 O 0.97066 0.58631 0.64599 0.0
C442 C 0.63725 0.37555 0.54805 0.0
O443 O 0.65126 0.38914 0.56825 0.0
O444 O 0.59995 0.34708 0.62034 0.0
Zn445 Zn 0.62999 0.33455 0.59345 0.0
O446 O 0.66804 0.34439 0.60806 0.0
C447 C 0.64478 0.27384 0.58617 0.0
O448 O 0.67029 0.28316 0.58331 0.0
O449 O 0.6254 0.35183 0.55407 0.0
C450 C 0.67882 0.33412 0.63073 0.0
O451 O 0.66418 0.31673 0.64707 0.0
C452 C 0.58767 0.37105 0.62028 0.0
O453 O 0.59582 0.3913 0.60245 0.0
O454 O 0.62555 0.29176 0.59006 0.0
C455 C 0.95546 0.39545 0.85964 0.0
O456 O 0.95377 0.40639 0.83363 0.0
O457 O 0.87712 0.41451 0.84762 0.0
Zn458 Zn 0.8991 0.37833 0.84843 0.0
O459 O 0.87732 0.34602 0.86585 0.0
C460 C 0.90483 0.34389 0.79562 0.0
O461 O 0.89691 0.32192 0.81139 0.0
O462 O 0.93436 0.38329 0.87055 0.0
C463 C 0.85399 0.33855 0.85569 0.0
O464 O 0.84322 0.35363 0.83466 0.0
C465 C 0.87404 0.43162 0.86866 0.0
O466 O 0.88556 0.42571 0.89357 0.0
O467 O 0.90771 0.36857 0.80714 0.0
C468 C 0.88509 0.65002 0.01287 0.0
O469 O 0.91004 0.64838 0.02375 0.0
O470 O 0.90244 0.63727 0.08722 0.0
Zn471 Zn 0.86528 0.64947 0.07287 0.0
O472 O 0.83476 0.62264 0.08496 0.0
C473 C 0.86849 0.69656 0.11225 0.0
O474 O 0.88239 0.67766 0.12726 0.0
O475 O 0.86441 0.65095 0.02962 0.0
C476 C 0.82356 0.62212 0.10968 0.0
O477 O 0.83325 0.63894 0.13016 0.0
C478 C 0.91465 0.61374 0.08245 0.0
O479 O 0.90237 0.59377 0.06684 0.0
O480 O 0.85835 0.68916 0.08805 0.0
C481 C 0.51398 0.61016 0.29966 0.0
O482 O 0.52563 0.58534 0.30489 0.0
O483 O 0.58247 0.59566 0.31895 0.0
Zn484 Zn 0.57048 0.63147 0.29862 0.0
O485 O 0.58326 0.6653 0.32218 0.0
C486 C 0.58322 0.60878 0.24442 0.0
O487 O 0.56837 0.58785 0.25563 0.0
O488 O 0.52908 0.63233 0.29586 0.0
C489 C 0.60549 0.67927 0.31774 0.0
O490 O 0.62125 0.67219 0.29592 0.0
C491 C 0.60803 0.59063 0.32167 0.0
O492 O 0.62606 0.60915 0.3113 0.0
O493 O 0.58707 0.63159 0.25903 0.0
C494 C 0.73443 0.88553 0.64211 0.0
O495 O 0.7313 0.89538 0.66843 0.0
O496 O 0.66519 0.88744 0.67389 0.0
Zn497 Zn 0.67511 0.89576 0.63293 0.0
O498 O 0.65205 0.87245 0.60544 0.0
C499 C 0.6531 0.94801 0.60786 0.0
O500 O 0.63876 0.93021 0.59156 0.0
O501 O 0.71403 0.88493 0.62495 0.0
C502 C 0.65823 0.84637 0.60081 0.0
O503 O 0.67795 0.83465 0.6161 0.0
C504 C 0.64078 0.88002 0.68067 0.0
O505 O 0.62226 0.87638 0.66025 0.0
O506 O 0.66999 0.938 0.62615 0.0
C507 C 0.35761 0.38194 0.13192 0.0
O508 O 0.37245 0.39615 0.11294 0.0
O509 O 0.38387 0.29324 0.1186 0.0
Zn510 Zn 0.39266 0.33538 0.11504 0.0
O511 O 0.38885 0.34739 0.07352 0.0
C512 C 0.44968 0.32786 0.11588 0.0
O513 O 0.44194 0.31168 0.09402 0.0
O514 O 0.36402 0.35625 0.13795 0.0
C515 C 0.40399 0.36631 0.06147 0.0
O516 O 0.42397 0.37867 0.07629 0.0
C517 C 0.38303 0.27582 0.09748 0.0
O518 O 0.38803 0.28531 0.07135 0.0
O519 O 0.43146 0.34194 0.1294 0.0
C520 C 0.4577 0.6051 0.82004 0.0
O521 O 0.44633 0.57942 0.81797 0.0
O522 O 0.38493 0.59012 0.81783 0.0
Zn523 Zn 0.40311 0.62628 0.80371 0.0
O524 O 0.38511 0.6606 0.82159 0.0
C525 C 0.41077 0.60999 0.7446 0.0
O526 O 0.42829 0.59199 0.75615 0.0
O527 O 0.44338 0.62716 0.81451 0.0
C528 C 0.36575 0.67416 0.80934 0.0
O529 O 0.35636 0.6651 0.78431 0.0
C530 C 0.38585 0.58189 0.84388 0.0
O531 O 0.39905 0.59775 0.863 0.0
O532 O 0.39826 0.62755 0.76079 0.0
C533 C 0.19248 0.6193 0.57388 0.0
O534 O 0.1864 0.6407 0.55666 0.0
O535 O 0.13748 0.66726 0.59369 0.0
Zn536 Zn 0.13611 0.62545 0.58206 0.0
O537 O 0.12754 0.62232 0.53965 0.0
C538 C 0.09954 0.61352 0.62968 0.0
O539 O 0.1148 0.63305 0.64281 0.0
O540 O 0.17331 0.60792 0.58877 0.0
C541 C 0.10536 0.61198 0.52904 0.0
O542 O 0.08597 0.60229 0.54631 0.0
C543 C 0.1371 0.6876 0.57545 0.0
O544 O 0.13618 0.68145 0.54783 0.0
O545 O 0.10591 0.60578 0.60431 0.0
C546 C 0.03547 0.38443 0.33149 0.0
O547 O 0.04896 0.40906 0.33127 0.0
O548 O 0.10755 0.39467 0.3374 0.0
Zn549 Zn 0.08963 0.35875 0.32246 0.0
O550 O 0.1019 0.32381 0.34374 0.0
C551 C 0.09934 0.37885 0.26628 0.0
O552 O 0.08847 0.4017 0.27823 0.0
O553 O 0.04848 0.36123 0.32714 0.0
C554 C 0.12363 0.31009 0.33766 0.0
O555 O 0.14022 0.32003 0.31759 0.0
C556 C 0.10767 0.40466 0.36286 0.0
O557 O 0.09615 0.3898 0.38374 0.0
O558 O 0.10067 0.35584 0.28087 0.0
C559 C 0.40025 0.6295 0.32614 0.0
O560 O 0.38921 0.65452 0.32051 0.0
O561 O 0.36722 0.61224 0.41145 0.0
Zn562 Zn 0.36094 0.62953 0.37257 0.0
O563 O 0.3652 0.67277 0.37487 0.0
C564 C 0.30445 0.62977 0.37872 0.0
O565 O 0.31347 0.64453 0.40107 0.0
O566 O 0.38997 0.61405 0.34604 0.0
C567 C 0.34979 0.68886 0.35985 0.0
O568 O 0.33097 0.67705 0.34308 0.0
C569 C 0.38551 0.62089 0.42916 0.0
O570 O 0.40163 0.64267 0.42224 0.0
O571 O 0.32194 0.6195 0.36121 0.0
C572 C 0.0303 0.60843 0.11125 0.0
O573 O 0.04568 0.58724 0.10206 0.0
O574 O 0.10268 0.60239 0.10993 0.0
Zn575 Zn 0.08274 0.63601 0.12703 0.0
O576 O 0.09268 0.67293 0.10716 0.0
C577 C 0.08031 0.62482 0.18815 0.0
O578 O 0.0597 0.60792 0.18043 0.0
O579 O 0.04171 0.63036 0.12275 0.0
C580 C 0.11636 0.68482 0.10843 0.0
O581 O 0.1363 0.67199 0.12241 0.0
C582 C 0.12627 0.59541 0.11939 0.0
O583 O 0.13809 0.61136 0.13938 0.0
O584 O 0.09288 0.63935 0.16901 0.0
C585 C 0.06081 0.37274 0.91136 0.0
O586 O 0.06142 0.35572 0.93391 0.0
O587 O 0.11877 0.35688 0.95374 0.0
Zn588 Zn 0.11579 0.35467 0.91054 0.0
O589 O 0.10952 0.31414 0.89673 0.0
C590 C 0.16323 0.39147 0.90479 0.0
O591 O 0.15118 0.40517 0.92602 0.0
O592 O 0.08301 0.37731 0.89752 0.0
C593 C 0.10303 0.31194 0.87026 0.0
O594 O 0.10203 0.33538 0.85456 0.0
C595 C 0.1411 0.35042 0.9664 0.0
O596 O 0.16157 0.34013 0.95115 0.0
O597 O 0.15113 0.36983 0.89354 0.0
C598 C 0.48111 0.37784 0.67454 0.0
O599 O 0.46737 0.40199 0.67572 0.0
O600 O 0.40802 0.38067 0.6652 0.0
Zn601 Zn 0.42817 0.35161 0.68914 0.0
O602 O 0.41512 0.31134 0.67982 0.0
C603 C 0.39884 0.35436 0.74253 0.0
O604 O 0.37972 0.34145 0.72695 0.0
O605 O 0.46873 0.35427 0.6801 0.0
C606 C 0.39514 0.30551 0.66293 0.0
O607 O 0.38122 0.32656 0.65124 0.0
C608 C 0.41338 0.38422 0.63865 0.0
O609 O 0.43193 0.36793 0.62631 0.0
O610 O 0.42188 0.36055 0.73098 0.0
C611 C 0.25531 0.0689 0.35819 0.0
O612 O 0.26774 0.07733 0.33452 0.0
O613 O 0.3273 0.07339 0.34346 0.0
Zn614 Zn 0.31098 0.05912 0.38055 0.0
O615 O 0.32401 0.08242 0.41458 0.0
C616 C 0.3474 0.01198 0.38119 0.0
O617 O 0.36499 0.03286 0.37543 0.0
O618 O 0.26958 0.06042 0.37947 0.0
C619 C 0.34747 0.09454 0.41755 0.0
O620 O 0.36581 0.09256 0.39688 0.0
C621 C 0.32956 0.09949 0.33578 0.0
O622 O 0.32072 0.11986 0.35298 0.0
O623 O 0.32224 0.01806 0.38521 0.0
C624 C 0.1083 0.26983 0.36952 0.0
C625 C 0.12774 0.28122 0.35011 0.0
H626 H 0.09385 0.2329 0.39244 0.0
C627 C 0.14959 0.26385 0.34096 0.0
H628 H 0.09132 0.28267 0.37721 0.0
C629 C 0.15108 0.23519 0.34982 0.0
C630 C 0.13067 0.22339 0.36787 0.0
H631 H 0.16498 0.27205 0.32612 0.0
H632 H 0.16759 0.22201 0.34159 0.0
C633 C 0.10971 0.24123 0.37823 0.0
C634 C 0.00517 0.8058 0.67227 0.0
C635 C 0.02176 0.82538 0.65689 0.0
H636 H 0.96502 0.78699 0.67753 0.0
C637 C 0.00964 0.84229 0.63538 0.0
H638 H 0.0139 0.79253 0.68905 0.0
C639 C 0.98168 0.83921 0.62886 0.0
C640 C 0.96522 0.81909 0.64368 0.0
H641 H 0.02181 0.85771 0.62325 0.0
H642 H 0.97311 0.85224 0.61181 0.0
C643 C 0.97716 0.80266 0.6657 0.0
C644 C 0.33386 0.74778 0.81594 0.0
C645 C 0.34348 0.75664 0.84316 0.0
H646 H 0.33314 0.71457 0.78393 0.0
C647 C 0.35816 0.73707 0.8602 0.0
H648 H 0.32236 0.76229 0.80236 0.0
C649 C 0.36448 0.70985 0.84959 0.0
C650 C 0.35609 0.70151 0.82179 0.0
H651 H 0.36573 0.74312 0.88136 0.0
H652 H 0.37663 0.69566 0.86289 0.0
C653 C 0.34002 0.72042 0.80539 0.0
C654 C 0.48233 0.15804 0.15885 0.0
C655 C 0.46815 0.13173 0.15584 0.0
H656 H 0.5191 0.18214 0.15015 0.0
C657 C 0.48172 0.10837 0.14308 0.0
H658 H 0.47251 0.17643 0.16863 0.0
C659 C 0.50859 0.1116 0.1326 0.0
C660 C 0.52223 0.13832 0.13447 0.0
H661 H 0.47136 0.08777 0.14057 0.0
H662 H 0.51827 0.09348 0.12218 0.0
C663 C 0.50903 0.16133 0.14816 0.0
C664 C 0.14581 0.72867 0.09998 0.0
C665 C 0.12026 0.71434 0.09726 0.0
H666 H 0.16811 0.76843 0.09582 0.0
C667 C 0.09778 0.72921 0.0856 0.0
H668 H 0.16356 0.71776 0.10874 0.0
C669 C 0.10035 0.75818 0.07833 0.0
C670 C 0.1255 0.77291 0.08239 0.0
H671 H 0.07785 0.71878 0.083 0.0
H672 H 0.08236 0.76923 0.07031 0.0
C673 C 0.14843 0.75769 0.09252 0.0
C674 C 0.51363 0.85038 0.34548 0.0
C675 C 0.49565 0.86254 0.36574 0.0
H676 H 0.55421 0.83496 0.33701 0.0
C677 C 0.50606 0.87107 0.39272 0.0
H678 H 0.50626 0.84384 0.32439 0.0
C679 C 0.53349 0.86595 0.39995 0.0
C680 C 0.55107 0.85233 0.38028 0.0
H681 H 0.4928 0.88075 0.4087 0.0
H682 H 0.54064 0.87178 0.42132 0.0
C683 C 0.54113 0.84539 0.35266 0.0
C684 C 0.39734 0.22425 0.66122 0.0
C685 C 0.37957 0.21769 0.6381 0.0
H686 H 0.41617 0.25704 0.68717 0.0
C687 C 0.36596 0.24019 0.62403 0.0
H688 H 0.40812 0.20742 0.67256 0.0
C689 C 0.37046 0.26872 0.63256 0.0
C690 C 0.38883 0.27529 0.65517 0.0
H691 H 0.35206 0.23583 0.60622 0.0
H692 H 0.35999 0.28562 0.62102 0.0
C693 C 0.40199 0.25272 0.66958 0.0
C694 C 0.95933 0.16494 0.8558 0.0
C695 C 0.96152 0.14242 0.83574 0.0
H696 H 0.9335 0.18818 0.88448 0.0
C697 C 0.93778 0.1262 0.82872 0.0
H698 H 0.97712 0.17796 0.86169 0.0
C699 C 0.91247 0.1322 0.84186 0.0
C700 C 0.91057 0.15439 0.86236 0.0
H701 H 0.93879 0.10874 0.81331 0.0
H702 H 0.89454 0.11924 0.8363 0.0
C703 C 0.93424 0.17078 0.86897 0.0
C704 C 0.35114 0.14085 0.26902 0.0
C705 C 0.35996 0.11855 0.25085 0.0
H706 H 0.33461 0.15239 0.31019 0.0
C707 C 0.35968 0.09024 0.26131 0.0
H708 H 0.35114 0.16291 0.26161 0.0
C709 C 0.35025 0.08424 0.28903 0.0
C710 C 0.34084 0.1064 0.307 0.0
H711 H 0.36643 0.07255 0.24795 0.0
H712 H 0.35004 0.0621 0.2962 0.0
C713 C 0.34166 0.13483 0.29684 0.0
C714 C 0.11669 0.11972 0.4918 0.0
C715 C 0.09363 0.10751 0.47781 0.0
H716 H 0.14118 0.12178 0.53009 0.0
C717 C 0.07675 0.08805 0.493 0.0
H718 H 0.13013 0.13481 0.48076 0.0
C719 C 0.08313 0.08054 0.52139 0.0
C720 C 0.10651 0.09233 0.53514 0.0
H721 H 0.05883 0.07828 0.48285 0.0
H722 H 0.06992 0.0652 0.53239 0.0
C723 C 0.12306 0.11221 0.52012 0.0
C724 C 0.15602 0.84971 0.78994 0.0
C725 C 0.14216 0.87462 0.79875 0.0
H726 H 0.16244 0.81899 0.7562 0.0
C727 C 0.12219 0.88644 0.78049 0.0
H728 H 0.1715 0.84006 0.80359 0.0
C729 C 0.11697 0.87437 0.75351 0.0
C730 C 0.13168 0.85025 0.74408 0.0
H731 H 0.11098 0.90548 0.78674 0.0
H732 H 0.10188 0.88451 0.73974 0.0
C733 C 0.15086 0.83765 0.76279 0.0
C734 C 0.33041 0.82279 -0.00131 0.0
C735 C 0.34983 0.83339 0.97886 0.0
H736 H 0.31491 0.82456 0.04174 0.0
C737 C 0.37074 0.85222 0.9886 0.0
H738 H 0.31417 0.80809 0.99192 0.0
C739 C 0.37122 0.8616 0.0172 0.0
C740 C 0.35076 0.85243 0.03658 0.0
H741 H 0.38618 0.86057 0.97391 0.0
H742 H 0.38695 0.87701 0.02373 0.0
C743 C 0.33085 0.83224 0.02726 0.0
C744 C 0.39791 0.85942 0.22739 0.0
C745 C 0.37748 0.8627 0.24853 0.0
H746 H 0.40711 0.85852 0.18223 0.0
C747 C 0.34986 0.86532 0.24005 0.0
H748 H 0.41938 0.85726 0.23341 0.0
C749 C 0.3428 0.86545 0.21095 0.0
C750 C 0.3633 0.86351 0.18968 0.0
H751 H 0.33365 0.86753 0.25591 0.0
H752 H 0.32133 0.86816 0.20517 0.0
C753 C 0.3909 0.8601 0.19815 0.0
C754 C 0.38825 0.12914 0.47854 0.0
C755 C 0.36782 0.13191 0.49978 0.0
H756 H 0.39787 0.11519 0.43569 0.0
C757 C 0.34044 0.1244 0.49288 0.0
H758 H 0.40954 0.13478 0.48317 0.0
C759 C 0.33382 0.11311 0.46588 0.0
C760 C 0.35438 0.10912 0.44503 0.0
H761 H 0.32412 0.12644 0.50863 0.0
H762 H 0.3126 0.1069 0.46162 0.0
C763 C 0.38158 0.11788 0.45136 0.0
C764 C 0.0637 0.12253 0.71891 0.0
C765 C 0.08175 0.14096 0.7341 0.0
H766 H 0.05753 0.09595 0.68171 0.0
C767 C 0.10703 0.14879 0.72145 0.0
H768 H 0.044 0.11619 0.728 0.0
C769 C 0.11479 0.13717 0.69497 0.0
C770 C 0.09743 0.11748 0.68054 0.0
H771 H 0.12133 0.1631 0.73247 0.0
H772 H 0.13485 0.14288 0.68633 0.0
C773 C 0.07147 0.11091 0.69238 0.0
C774 C 0.10741 0.90223 0.9836 0.0
C775 C 0.09378 0.87568 0.98725 0.0
H776 H 0.12558 0.93211 0.95421 0.0
C777 C 0.08595 0.85976 0.96274 0.0
H778 H 0.11356 0.91517 0.00199 0.0
C779 C 0.0928 0.86961 0.93517 0.0
C780 C 0.10773 0.89543 0.93172 0.0
H781 H 0.07533 0.83928 0.96485 0.0
H782 H 0.08729 0.85648 0.9167 0.0
C783 C 0.11438 0.91194 0.95617 0.0
C784 C 0.31393 0.37728 0.16036 0.0
C785 C 0.33047 0.39297 0.14097 0.0
H786 H 0.2737 0.37106 0.17838 0.0
C787 C 0.31937 0.41719 0.12737 0.0
H788 H 0.32196 0.35863 0.17135 0.0
C789 C 0.29168 0.42413 0.1312 0.0
C790 C 0.27461 0.40717 0.14892 0.0
H791 H 0.33157 0.42985 0.11244 0.0
H792 H 0.28338 0.44209 0.11929 0.0
C793 C 0.28627 0.3844 0.16439 0.0
C794 C 0.69613 0.17196 0.89274 0.0
C795 C 0.68778 0.14715 0.87769 0.0
H796 H 0.72979 0.19677 0.90963 0.0
C797 C 0.70795 0.12858 0.86679 0.0
H798 H 0.6811 0.18668 0.90141 0.0
C799 C 0.73596 0.13452 0.87128 0.0
C800 C 0.74421 0.15891 0.88707 0.0
H801 H 0.7021 0.10934 0.85498 0.0
H802 H 0.75107 0.11969 0.86297 0.0
C803 C 0.72404 0.17768 0.89753 0.0
C804 C 0.13443 0.52148 0.08656 0.0
C805 C 0.15828 0.51182 0.10062 0.0
H806 H 0.10563 0.5556 0.08134 0.0
C807 C 0.17304 0.53099 0.11849 0.0
H808 H 0.12266 0.50731 0.07254 0.0
C809 C 0.16329 0.55867 0.12352 0.0
C810 C 0.13857 0.56775 0.11082 0.0
H811 H 0.19162 0.5243 0.12946 0.0
H812 H 0.17464 0.57253 0.13822 0.0
C813 C 0.12465 0.54918 0.09163 0.0
C814 C 0.70265 0.87005 0.40575 0.0
C815 C 0.68694 0.87839 0.42967 0.0
H816 H 0.74087 0.87387 0.38329 0.0
C817 C 0.69794 0.89889 0.44893 0.0
H818 H 0.69472 0.85442 0.39042 0.0
C819 C 0.72455 0.91002 0.44489 0.0
C820 C 0.74057 0.90094 0.42146 0.0
H821 H 0.68631 0.90579 0.46755 0.0
H822 H 0.73274 0.92526 0.46046 0.0
C823 C 0.72914 0.88123 0.40166 0.0
C824 C 0.8769 0.93837 0.08723 0.0
C825 C 0.86605 0.92401 0.11136 0.0
H826 H 0.8757 0.97603 0.06083 0.0
C827 C 0.84282 0.93526 0.1252 0.0
H828 H 0.89474 0.93013 0.07605 0.0
C829 C 0.83184 0.96139 0.11641 0.0
C830 C 0.84401 0.97693 0.09373 0.0
H831 H 0.83378 0.92448 0.14363 0.0
H832 H 0.81466 0.97004 0.12839 0.0
C833 C 0.86602 0.96468 0.07854 0.0
C834 C 0.24183 0.62238 0.55916 0.0
C835 C 0.22106 0.6086 0.57523 0.0
H836 H 0.28422 0.62357 0.54699 0.0
C837 C 0.22793 0.58459 0.59203 0.0
H838 H 0.2373 0.64094 0.54599 0.0
C839 C 0.25504 0.57451 0.59256 0.0
C840 C 0.27575 0.58833 0.57636 0.0
H841 H 0.21236 0.5735 0.60463 0.0
H842 H 0.25976 0.55592 0.60561 0.0
C843 C 0.26881 0.6124 0.55974 0.0
C844 C 0.1173 0.44714 0.39511 0.0
C845 C 0.11728 0.43457 0.36755 0.0
H846 H 0.12319 0.48571 0.41993 0.0
C847 C 0.12485 0.45149 0.34371 0.0
H848 H 0.11162 0.43464 0.41388 0.0
C849 C 0.1311 0.48056 0.34712 0.0
C850 C 0.13029 0.4934 0.37447 0.0
H851 H 0.12516 0.44255 0.32215 0.0
H852 H 0.13621 0.49307 0.32817 0.0
C853 C 0.12394 0.47633 0.39857 0.0
C854 C 0.37815 0.54203 0.87936 0.0
C855 C 0.37354 0.55385 0.85196 0.0
H856 H 0.37193 0.50601 0.90736 0.0
C857 C 0.35775 0.53816 0.83182 0.0
H858 H 0.39024 0.55359 0.89534 0.0
C859 C 0.3472 0.51103 0.83872 0.0
C860 C 0.35231 0.4989 0.86586 0.0
H861 H 0.35372 0.54669 0.81054 0.0
H862 H 0.33539 0.49941 0.82255 0.0
C863 C 0.3677 0.51476 0.88622 0.0
C864 C 0.91785 0.67928 0.59281 0.0
C865 C 0.8967 0.66846 0.61056 0.0
H866 H 0.9351 0.71594 0.57143 0.0
C867 C 0.87495 0.68659 0.6183 0.0
H868 H 0.93481 0.66579 0.58631 0.0
C869 C 0.87522 0.71541 0.60991 0.0
C870 C 0.89714 0.72659 0.59345 0.0
H871 H 0.85833 0.6789 0.6319 0.0
H872 H 0.85868 0.72912 0.61712 0.0
C873 C 0.91802 0.70803 0.58426 0.0
C874 C 0.98612 0.07455 0.34299 0.0
C875 C 0.97084 0.09971 0.33872 0.0
H876 H 0.02502 0.0565 0.35489 0.0
C877 C 0.98406 0.12651 0.34217 0.0
H878 H 0.97654 0.05356 0.34044 0.0
C879 C 0.01165 0.12817 0.35056 0.0
C880 C 0.02679 0.10308 0.35556 0.0
H881 H 0.97297 0.14634 0.33898 0.0
H882 H 0.02101 0.14924 0.35345 0.0
C883 C 0.01389 0.07622 0.35125 0.0
C884 C 0.62915 0.21693 0.14071 0.0
C885 C 0.63889 0.21239 0.1126 0.0
H886 H 0.62321 0.2468 0.17501 0.0
C887 C 0.6532 0.23471 0.09856 0.0
H888 H 0.61842 0.20002 0.1523 0.0
C889 C 0.65595 0.26172 0.11166 0.0
C890 C 0.6445 0.26674 0.13902 0.0
H891 H 0.6611 0.23176 0.07696 0.0
H892 H 0.66584 0.27896 0.09978 0.0
C893 C 0.63198 0.24377 0.15379 0.0
C894 C 0.44309 0.86119 0.85005 0.0
C895 C 0.42684 0.88279 0.86242 0.0
H896 H 0.48325 0.84855 0.83643 0.0
C897 C 0.43886 0.90983 0.8681 0.0
H898 H 0.43447 0.84014 0.84527 0.0
C899 C 0.4669 0.91471 0.8628 0.0
C900 C 0.48344 0.89252 0.85203 0.0
H901 H 0.42684 0.92694 0.8775 0.0
H902 H 0.47581 0.93547 0.86824 0.0
C903 C 0.47111 0.86596 0.84507 0.0
C904 C 0.84577 0.26592 0.89086 0.0
C905 C 0.82707 0.25219 0.87207 0.0
H906 H 0.86876 0.30421 0.90057 0.0
C907 C 0.81475 0.26823 0.84999 0.0
H908 H 0.85547 0.25422 0.90822 0.0
C909 C 0.82222 0.29699 0.84573 0.0
C910 C 0.8423 0.31015 0.86334 0.0
H911 H 0.80004 0.25832 0.83533 0.0
H912 H 0.81326 0.30842 0.82775 0.0
C913 C 0.85338 0.29459 0.88648 0.0
C914 C 0.4537 0.07562 0.5797 0.0
C915 C 0.43902 0.09541 0.5965 0.0
H916 H 0.49309 0.05784 0.56953 0.0
C917 C 0.4532 0.11126 0.6178 0.0
H918 H 0.44337 0.06308 0.56314 0.0
C919 C 0.48159 0.10836 0.62135 0.0
C920 C 0.49651 0.0895 0.60376 0.0
H921 H 0.44252 0.12658 0.63124 0.0
H922 H 0.49191 0.12144 0.63751 0.0
C923 C 0.48219 0.07267 0.58332 0.0
C924 C 0.64285 0.74435 0.34871 0.0
C925 C 0.62669 0.75049 0.37303 0.0
H926 H 0.64886 0.71701 0.31213 0.0
C927 C 0.60425 0.73233 0.37962 0.0
H928 H 0.66029 0.75792 0.34306 0.0
C929 C 0.5976 0.70906 0.3618 0.0
C930 C 0.61332 0.70332 0.33708 0.0
H931 H 0.59136 0.73645 0.39817 0.0
H932 H 0.5799 0.69577 0.36729 0.0
C933 C 0.63626 0.72094 0.33094 0.0
C934 C 0.01523 0.92163 0.11822 0.0
C935 C 0.03136 0.89672 0.11878 0.0
H936 H 0.97679 0.94088 0.12973 0.0
C937 C 0.02148 0.87239 0.13359 0.0
H938 H 0.02234 0.94074 0.10709 0.0
C939 C -0.00447 0.87243 0.14632 0.0
C940 C 0.97887 0.89685 0.14476 0.0
H941 H 0.03345 0.8529 0.13469 0.0
H942 H 0.9883 0.85303 0.15689 0.0
C943 C 0.98919 0.92172 0.13121 0.0
C944 C 0.65116 0.8875 0.73294 0.0
C945 C 0.63276 0.8783 0.7113 0.0
H946 H 0.65736 0.89596 0.7778 0.0
C947 C 0.60618 0.86893 0.71911 0.0
H948 H 0.67181 0.89484 0.72764 0.0
C949 C 0.59794 0.86945 0.74793 0.0
C950 C 0.61606 0.87957 0.76944 0.0
H951 H 0.59156 0.86162 0.70294 0.0
H952 H 0.57716 0.86254 0.75323 0.0
C953 C 0.64286 0.88824 0.7617 0.0
C954 C 0.90858 0.88554 0.50534 0.0
C955 C 0.89443 0.86166 0.51683 0.0
H956 H 0.91132 0.91607 0.47088 0.0
C957 C 0.87268 0.84917 0.50098 0.0
H958 H 0.92549 0.89557 0.51702 0.0
C959 C 0.86445 0.86102 0.47484 0.0
C960 C 0.87795 0.88546 0.46378 0.0
H961 H 0.86135 0.83073 0.50915 0.0
H962 H 0.84716 0.85126 0.46354 0.0
C963 C 0.9005 0.89725 0.47893 0.0
C964 C 0.86935 0.08629 0.18782 0.0
C965 C 0.84494 0.10134 0.18218 0.0
H966 H 0.90138 0.07719 0.21813 0.0
C967 C 0.83534 0.12098 0.20277 0.0
H968 H 0.87739 0.0711 0.17233 0.0
C969 C 0.84912 0.12448 0.22901 0.0
C970 C 0.87277 0.10838 0.23523 0.0
H971 H 0.8167 0.13304 0.19902 0.0
H972 H 0.8407 0.13917 0.24476 0.0
C973 C 0.88312 0.08977 0.21409 0.0
C974 C 0.54914 0.10435 0.96059 0.0
C975 C 0.56818 0.12024 0.9441 0.0
H976 H 0.5346 0.0937 0.00277 0.0
C977 C 0.58521 0.14064 0.95801 0.0
H978 H 0.53559 0.08861 0.95054 0.0
C979 C 0.58477 0.14343 0.98796 0.0
C980 C 0.56719 0.12599 0.00463 0.0
H981 H 0.59999 0.15341 0.94594 0.0
H982 H 0.59909 0.15837 -0.00189 0.0
C983 C 0.54861 0.10724 0.99057 0.0
C984 C 0.57706 0.13029 0.76883 0.0
C985 C 0.60046 0.11419 0.77598 0.0
H986 H 0.55104 0.14599 0.73505 0.0
C987 C 0.61624 0.1022 0.75374 0.0
H988 H 0.56451 0.13982 0.78551 0.0
C989 C 0.60859 0.1057 0.72503 0.0
C990 C 0.58494 0.1213 0.71779 0.0
H991 H 0.63446 0.08978 0.75844 0.0
H992 H 0.62115 0.09587 0.70853 0.0
C993 C 0.56936 0.13381 0.73995 0.0
C994 C 0.65436 0.79737 0.53601 0.0
C995 C 0.63419 0.81107 0.51935 0.0
H996 H 0.67754 0.79756 0.57528 0.0
C997 C 0.61906 0.83355 0.53173 0.0
H998 H 0.66619 0.77981 0.5272 0.0
C999 C 0.62567 0.84382 0.55916 0.0
C1000 C 0.64738 0.83168 0.57487 0.0
H1001 H 0.60316 0.84439 0.51962 0.0
H1002 H 0.6147 0.86224 0.56742 0.0
C1003 C 0.66083 0.80752 0.5636 0.0
C1004 C 0.84886 0.86465 0.30429 0.0
C1005 C 0.86545 0.88632 0.31677 0.0
H1006 H 0.83998 0.83934 0.26683 0.0
C1007 C 0.88743 0.89798 0.3008 0.0
H1008 H 0.83183 0.85513 0.31608 0.0
C1009 C 0.89206 0.88896 0.27254 0.0
C1010 C 0.87483 0.86807 0.25969 0.0
H1011 H 0.90064 0.91464 0.30983 0.0
H1012 H 0.90879 0.89885 0.26057 0.0
C1013 C 0.85351 0.85561 0.27604 0.0
C1014 C 0.83255 0.16493 0.01061 0.0
C1015 C 0.83438 0.14847 0.98529 0.0
H1016 H 0.82795 0.1648 0.05646 0.0
C1017 C 0.83433 0.11833 0.98739 0.0
H1018 H 0.83261 0.18819 0.00974 0.0
C1019 C 0.83164 0.10493 0.01413 0.0
C1020 C 0.82894 0.12137 0.03937 0.0
H1021 H 0.83581 0.105 0.96831 0.0
H1022 H 0.83115 0.08166 0.01492 0.0
C1023 C 0.82985 0.15151 0.03739 0.0
C1024 C 0.72374 0.6177 0.84916 0.0
C1025 C 0.74181 0.63684 0.83513 0.0
H1026 H 0.68297 0.6098 0.86478 0.0
C1027 C 0.73122 0.66236 0.82352 0.0
H1028 H 0.73113 0.59771 0.85811 0.0
C1029 C 0.70345 0.6693 0.82731 0.0
C1030 C 0.68579 0.65087 0.84282 0.0
H1031 H 0.74458 0.67748 0.81242 0.0
H1032 H 0.69614 0.68965 0.81915 0.0
C1033 C 0.69607 0.62463 0.85297 0.0
C1034 C 0.21551 0.87399 0.15742 0.0
C1035 C 0.23225 0.8866 0.13612 0.0
H1036 H 0.17486 0.85983 0.16912 0.0
C1037 C 0.21987 0.89777 0.11125 0.0
H1038 H 0.22449 0.86533 0.1769 0.0
C1039 C 0.19156 0.89482 0.10691 0.0
C1040 C 0.17501 0.88044 0.12724 0.0
H1041 H 0.23217 0.90798 0.09463 0.0
H1042 H 0.18287 0.90276 0.08697 0.0
C1043 C 0.18709 0.87085 0.15298 0.0
C1044 C 0.83499 0.4914 0.83216 0.0
C1045 C 0.83545 0.51295 0.85338 0.0
H1046 H 0.84667 0.44884 0.82039 0.0
C1047 C 0.84697 0.50681 0.88049 0.0
H1048 H 0.82618 0.49536 0.81109 0.0
C1049 C 0.85877 0.48006 0.88585 0.0
C1050 C 0.85933 0.45895 0.86419 0.0
H1051 H 0.84756 0.52294 0.89735 0.0
H1052 H 0.86813 0.47625 0.90669 0.0
C1053 C 0.84681 0.46471 0.83749 0.0
C1054 C 0.24831 0.08828 0.61679 0.0
C1055 C 0.23244 0.09728 0.64035 0.0
H1056 H 0.28739 0.08972 0.59572 0.0
C1057 C 0.24526 0.11324 0.66248 0.0
H1058 H 0.23911 0.07569 0.59954 0.0
C1059 C 0.273 0.12151 0.66022 0.0
C1060 C 0.28849 0.11371 0.63592 0.0
H1061 H 0.2336 0.1204 0.68098 0.0
H1062 H 0.28201 0.13481 0.67702 0.0
C1063 C 0.27605 0.09626 0.61468 0.0
C1064 C 0.13314 0.03744 0.84747 0.0
C1065 C 0.11388 0.01716 0.85778 0.0
H1066 H 0.1402 0.08041 0.83261 0.0
C1067 C 0.08652 0.02571 0.86233 0.0
H1068 H 0.1544 0.03156 0.84383 0.0
C1069 C 0.0784 0.05369 0.85597 0.0
C1070 C 0.09746 0.07375 0.84488 0.0
H1071 H 0.07119 0.01067 0.87039 0.0
H1072 H 0.05703 0.05939 0.85921 0.0
C1073 C 0.125 0.06545 0.84108 0.0
C1074 C 0.80346 0.39863 0.33709 0.0
C1075 C 0.81564 0.39405 0.36418 0.0
H1076 H 0.76808 0.41349 0.31397 0.0
C1077 C 0.80197 0.4037 0.38899 0.0
H1078 H 0.81353 0.39151 0.31757 0.0
C1079 C 0.77608 0.41627 0.38695 0.0
C1080 C 0.76318 0.41947 0.36004 0.0
H1081 H 0.81089 0.40081 0.41019 0.0
H1082 H 0.76582 0.42263 0.40663 0.0
C1083 C 0.77743 0.41122 0.33504 0.0
C1084 C 0.87217 0.47732 0.60718 0.0
C1085 C 0.87229 0.45459 0.62708 0.0
H1086 H 0.88434 0.52085 0.59833 0.0
C1087 C 0.88474 0.45894 0.65413 0.0
H1088 H 0.86277 0.47462 0.58615 0.0
C1089 C 0.89712 0.48523 0.66103 0.0
C1090 C 0.89733 0.50788 0.64108 0.0
H1091 H 0.88524 0.44191 0.67 0.0
H1092 H 0.90666 0.48769 0.68202 0.0
C1093 C 0.88456 0.50376 0.61413 0.0
C1094 C 0.6426 0.44992 0.09805 0.0
C1095 C 0.66293 0.46315 0.11534 0.0
H1096 H 0.61579 0.41355 0.09203 0.0
C1097 C 0.67393 0.44785 0.13867 0.0
H1098 H 0.63382 0.46108 0.0798 0.0
C1099 C 0.66356 0.42068 0.14571 0.0
C1100 C 0.64202 0.40821 0.12952 0.0
H1101 H 0.68978 0.45732 0.15228 0.0
H1102 H 0.67176 0.40995 0.16451 0.0
C1103 C 0.63225 0.42267 0.10506 0.0
C1104 C 0.6477 0.76829 0.89142 0.0
C1105 C 0.62575 0.74952 0.89815 0.0
H1106 H 0.65974 0.8108 0.87852 0.0
C1107 C 0.59902 0.76059 0.90046 0.0
H1108 H 0.66854 0.76038 0.88957 0.0
C1109 C 0.59401 0.7894 0.8944 0.0
C1110 C 0.61558 0.80775 0.88558 0.0
H1111 H 0.58173 0.74672 0.90597 0.0
H1112 H 0.57295 0.79687 0.89529 0.0
C1113 C 0.64264 0.79716 0.88506 0.0
C1114 C 0.51542 0.34473 0.1575 0.0
C1115 C 0.53485 0.32854 0.14216 0.0
H1116 H 0.47317 0.35735 0.16122 0.0
C1117 C 0.52606 0.3127 0.11797 0.0
H1118 H 0.52157 0.3572 0.17621 0.0
C1119 C 0.49849 0.3128 0.10941 0.0
C1120 C 0.47898 0.32875 0.12481 0.0
H1121 H 0.54046 0.30002 0.10562 0.0
H1122 H 0.4925 0.30017 0.09075 0.0
C1123 C 0.48772 0.34484 0.1489 0.0
C1124 C 0.86772 0.21335 0.37109 0.0
C1125 C 0.8504 0.20356 0.34876 0.0
H1126 H 0.88095 0.24879 0.39706 0.0
C1127 C 0.83103 0.2225 0.33695 0.0
H1128 H 0.88272 0.19927 0.38085 0.0
C1129 C 0.82998 0.25108 0.34633 0.0
C1130 C 0.84835 0.26117 0.36761 0.0
H1131 H 0.81732 0.21557 0.31978 0.0
H1132 H 0.8155 0.26547 0.3362 0.0
C1133 C 0.86674 0.24181 0.38036 0.0
C1134 C 0.03545 0.6129 0.67598 0.0
C1135 C 0.01724 0.59637 0.65895 0.0
H1136 H 0.07599 0.63112 0.68022 0.0
C1137 C 0.02751 0.58232 0.63444 0.0
H1138 H 0.02824 0.62383 0.69511 0.0
C1139 C 0.05485 0.58643 0.62595 0.0
C1140 C 0.07252 0.60474 0.64175 0.0
H1141 H 0.01411 0.56914 0.62104 0.0
H1142 H 0.06171 0.57635 0.60621 0.0
C1143 C 0.06284 0.61707 0.66744 0.0
C1144 C 0.6596 0.22247 0.59006 0.0
C1145 C 0.63844 0.24272 0.58753 0.0
H1146 H 0.66997 0.17843 0.59735 0.0
C1147 C 0.61087 0.23313 0.5881 0.0
H1148 H 0.68105 0.22918 0.58962 0.0
C1149 C 0.60453 0.20415 0.59239 0.0
C1150 C 0.62562 0.18406 0.59636 0.0
H1151 H 0.59406 0.24813 0.58594 0.0
H1152 H 0.58303 0.1977 0.5935 0.0
C1153 C 0.65324 0.1934 0.5945 0.0
C1154 C 0.00957 0.37602 0.91471 0.0
C1155 C 0.03408 0.38268 0.89996 0.0
H1156 H 0.96552 0.37509 0.91368 0.0
C1157 C 0.03248 0.39652 0.87312 0.0
H1158 H 0.01006 0.36558 0.93554 0.0
C1159 C 0.00685 0.402 0.86054 0.0
C1160 C 0.98236 0.39371 0.87456 0.0
H1161 H 0.05101 0.40204 0.86127 0.0
H1162 H 0.00628 0.41163 0.83933 0.0
C1163 C 0.984 0.38147 0.90215 0.0
C1164 C 0.85226 0.74714 0.10619 0.0
C1165 C 0.86687 0.72666 0.12219 0.0
H1166 H 0.8421 0.7915 0.10104 0.0
C1167 C 0.88129 0.73554 0.14698 0.0
H1168 H 0.84081 0.74092 0.08706 0.0
C1169 C 0.8821 0.76447 0.15491 0.0
C1170 C 0.8684 0.78513 0.13829 0.0
H1171 H 0.89265 0.7203 0.15986 0.0
H1172 H 0.89401 0.7707 0.17372 0.0
C1173 C 0.85295 0.7761 0.11422 0.0
C1174 C 0.44326 0.64346 0.29985 0.0
C1175 C 0.42764 0.62238 0.31432 0.0
H1176 H 0.48291 0.65613 0.2839 0.0
C1177 C 0.43982 0.59583 0.32056 0.0
H1178 H 0.43448 0.66411 0.29461 0.0
C1179 C 0.46759 0.5912 0.31426 0.0
C1180 C 0.48375 0.61314 0.30186 0.0
H1181 H 0.42826 0.57907 0.33151 0.0
H1182 H 0.47669 0.57098 0.3205 0.0
C1183 C 0.47108 0.63894 0.29383 0.0
C1184 C 0.88549 0.65326 0.76923 0.0
C1185 C 0.87177 0.62903 0.78052 0.0
H1186 H 0.90981 0.67049 0.73466 0.0
C1187 C 0.87278 0.60292 0.76529 0.0
H1188 H 0.88511 0.67366 0.78049 0.0
C1189 C 0.88701 0.60105 0.73933 0.0
C1190 C 0.90048 0.62528 0.72779 0.0
H1191 H 0.86258 0.58376 0.77342 0.0
H1192 H 0.88717 0.58057 0.72818 0.0
C1193 C 0.89964 0.65143 0.74302 0.0
C1194 C 0.58767 0.5933 0.01882 0.0
C1195 C 0.61552 0.58884 0.02584 0.0
H1196 H 0.55893 0.61039 0.98828 0.0
C1197 C 0.63603 0.59878 0.00688 0.0
H1198 H 0.57139 0.5859 0.03301 0.0
C1199 C 0.62894 0.61279 0.98149 0.0
C1200 C 0.60115 0.6172 0.9743 0.0
H1201 H 0.65769 0.59578 0.01161 0.0
H1202 H 0.64539 0.62007 0.96744 0.0
C1203 C 0.58054 0.60734 -0.00677 0.0
C1204 C 0.6657 0.33381 0.28558 0.0
C1205 C 0.64324 0.34487 0.27012 0.0
H1206 H 0.69173 0.33784 0.32273 0.0
C1207 C 0.62804 0.36741 0.28224 0.0
H1208 H 0.67773 0.31633 0.27692 0.0
C1209 C 0.63614 0.37979 0.30837 0.0
C1210 C 0.65949 0.36979 0.32307 0.0
H1211 H 0.61052 0.37633 0.271 0.0
H1212 H 0.62459 0.39784 0.31657 0.0
C1213 C 0.6737 0.3461 0.31187 0.0
C1214 C 0.91682 0.37179 0.5371 0.0
C1215 C 0.89507 0.35703 0.55081 0.0
H1216 H 0.93657 0.38221 0.49714 0.0
C1217 C 0.87762 0.33921 0.53425 0.0
H1218 H 0.93068 0.38563 0.54926 0.0
C1219 C 0.88093 0.33735 0.50448 0.0
C1220 C 0.90181 0.3532 0.49054 0.0
H1221 H 0.86076 0.32739 0.54413 0.0
H1222 H 0.8666 0.32403 0.49231 0.0
C1223 C 0.92018 0.36987 0.50722 0.0
C1224 C 0.8886 0.32156 0.74954 0.0
C1225 C 0.90575 0.34143 0.76398 0.0
H1226 H 0.87043 0.30893 0.70926 0.0
C1227 C 0.92119 0.36135 0.74788 0.0
H1228 H 0.87645 0.30597 0.76147 0.0
C1229 C 0.91814 0.36271 0.71802 0.0
C1230 C 0.89912 0.34458 0.70379 0.0
H1231 H 0.93473 0.37674 0.7585 0.0
H1232 H 0.92933 0.37929 0.70643 0.0
C1233 C 0.88511 0.32329 0.71967 0.0
C1234 C 0.84877 0.64836 0.94087 0.0
C1235 C 0.8687 0.63567 0.92312 0.0
H1236 H 0.83838 0.66283 0.98316 0.0
C1237 C 0.89519 0.63083 0.93436 0.0
H1238 H 0.8282 0.65256 0.93288 0.0
C1239 C 0.90108 0.63693 0.96327 0.0
C1240 C 0.8805 0.64771 0.98147 0.0
H1241 H 0.91104 0.62123 0.92118 0.0
H1242 H 0.92131 0.63186 0.97165 0.0
C1243 C 0.85456 0.65416 0.96976 0.0
C1244 C 0.61243 0.62708 0.2036 0.0
C1245 C 0.59659 0.60491 0.21612 0.0
H1246 H 0.63858 0.63984 0.16858 0.0
C1247 C 0.59435 0.57837 0.2018 0.0
H1248 H 0.61449 0.6478 0.21411 0.0
C1249 C 0.60819 0.5738 0.17593 0.0
C1250 C 0.62448 0.5957 0.16365 0.0
H1251 H 0.58229 0.56085 0.21079 0.0
H1252 H 0.60629 0.55291 0.16572 0.0
C1253 C 0.62618 0.62254 0.17752 0.0
C1254 C 0.65365 0.41045 0.51075 0.0
C1255 C 0.63759 0.38624 0.51806 0.0
H1256 H 0.66946 0.43718 0.47709 0.0
C1257 C 0.62326 0.3714 0.49615 0.0
H1258 H 0.66486 0.42245 0.52711 0.0
C1259 C 0.62584 0.37992 0.4674 0.0
C1260 C 0.6429 0.40336 0.45999 0.0
H1261 H 0.61059 0.35275 0.50109 0.0
H1262 H 0.61514 0.36757 0.45094 0.0
C1263 C 0.65632 0.41888 0.48204 0.0
C1264 C 0.76218 0.85898 0.60591 0.0
C1265 C 0.76086 0.87324 0.63259 0.0
H1266 H 0.78665 0.83535 0.57626 0.0
C1267 C 0.78462 0.87481 0.64994 0.0
H1268 H 0.74427 0.85728 0.592 0.0
C1269 C 0.80919 0.86219 0.64075 0.0
C1270 C 0.81026 0.84763 0.6142 0.0
H1271 H 0.78422 0.88566 0.6706 0.0
H1272 H 0.82722 0.86359 0.65452 0.0
C1273 C 0.78652 0.84627 0.5969 0.0
C1274 C 0.22763 0.63968 0.38601 0.0
C1275 C 0.21709 0.61917 0.36656 0.0
H1276 H 0.26339 0.65889 0.40518 0.0
C1277 C 0.23557 0.60263 0.35032 0.0
H1278 H 0.21397 0.65273 0.39889 0.0
C1279 C 0.26406 0.60631 0.35381 0.0
C1280 C 0.27451 0.62633 0.37385 0.0
H1281 H 0.22803 0.58668 0.33512 0.0
H1282 H 0.27786 0.59314 0.34124 0.0
C1283 C 0.256 0.6431 0.38973 0.0
C1284 C 0.61748 0.01872 0.59437 0.0
C1285 C 0.63195 0.03719 0.6132 0.0
H1286 H 0.61294 0.97599 0.57771 0.0
C1287 C 0.6552 0.02679 0.62779 0.0
H1288 H 0.59956 0.02613 0.58269 0.0
C1289 C 0.6628 -0.00192 0.62502 0.0
C1290 C 0.64736 0.97916 0.60754 0.0
H1291 H 0.66695 0.0405 0.64229 0.0
H1292 H 0.68022 0.99051 0.63741 0.0
C1293 C 0.62514 0.98997 0.59153 0.0
C1294 C 0.20445 0.38526 0.8731 0.0
C1295 C 0.19221 0.39806 0.89729 0.0
H1296 H 0.2416 0.3781 0.84946 0.0
C1297 C 0.20855 0.41527 0.91562 0.0
H1298 H 0.19236 0.37195 0.85852 0.0
C1299 C 0.2368 0.41852 0.91063 0.0
C1300 C 0.24923 0.40489 0.88701 0.0
H1301 H 0.19976 0.42538 0.93448 0.0
H1302 H 0.24899 0.43128 0.9256 0.0
C1303 C 0.23266 0.38878 0.86791 0.0
C1304 C 0.41203 0.41749 0.59636 0.0
C1305 C 0.40091 0.40833 0.62276 0.0
H1306 H 0.41218 0.44963 0.56342 0.0
C1307 C 0.37895 0.42365 0.63483 0.0
H1308 H 0.42891 0.40607 0.58646 0.0
C1309 C 0.3692 0.44844 0.62151 0.0
C1310 C 0.38142 0.45858 0.59599 0.0
H1311 H 0.36977 0.41697 0.65503 0.0
H1312 H 0.3529 0.46029 0.63193 0.0
C1313 C 0.40246 0.44246 0.58316 0.0
C1314 C 0.70349 0.05961 0.08599 0.0
C1315 C 0.72447 0.06648 0.10583 0.0
H1316 H 0.66145 0.06558 0.07345 0.0
C1317 C 0.71795 0.08283 0.13034 0.0
H1318 H 0.70781 0.0469 0.06699 0.0
C1319 C 0.69135 0.09335 0.13416 0.0
C1320 C 0.67076 0.08792 0.11345 0.0
H1321 H 0.73359 0.08825 0.1462 0.0
H1322 H 0.6873 0.10677 0.15274 0.0
C1323 C 0.6769 0.07029 0.08972 0.0
C1324 C 0.59147 0.0052 0.86738 0.0
C1325 C 0.61237 0.01681 0.88499 0.0
H1326 H 0.57079 0.96757 0.85205 0.0
C1327 C 0.62837 -0.00185 0.90181 0.0
H1328 H 0.57864 0.01892 0.85429 0.0
C1329 C 0.62386 0.96837 0.90051 0.0
C1330 C 0.60325 0.95683 0.88242 0.0
H1331 H 0.6446 0.00649 0.91564 0.0
H1332 H 0.63673 0.95444 0.91333 0.0
C1333 C 0.58695 0.97564 0.86614 0.0
C1334 C 0.84749 0.03559 0.36167 0.0
C1335 C 0.86005 0.0551 0.38091 0.0
H1336 H 0.83019 -0.00628 0.35531 0.0
C1337 C 0.86331 0.04709 0.4099 0.0
H1338 H 0.84452 0.04107 0.33922 0.0
C1339 C 0.85494 0.01975 0.41922 0.0
C1340 C 0.8433 -5e-05 0.39966 0.0
H1341 H 0.87285 0.06169 0.42527 0.0
H1342 H 0.85828 0.0139 0.44152 0.0
C1343 C 0.83928 0.00836 0.37091 0.0
C1344 C 0.3698 0.23529 0.13003 0.0
C1345 C 0.37855 0.24483 0.10281 0.0
H1346 H 0.36207 0.1994 0.15758 0.0
C1347 C 0.38434 0.22443 0.08135 0.0
H1348 H 0.36492 0.25048 0.14694 0.0
C1349 C 0.38282 0.19505 0.0875 0.0
C1350 C 0.37524 0.18555 0.11513 0.0
H1351 H 0.39103 0.23112 0.06013 0.0
H1352 H 0.3884 0.17983 0.07087 0.0
C1353 C 0.36805 0.20597 0.13609 0.0
C1354 C 0.5281 0.58867 0.85143 0.0
C1355 C 0.53989 0.61632 0.85366 0.0
H1356 H 0.49286 0.56335 0.83894 0.0
C1357 C 0.52492 0.63994 0.84345 0.0
H1358 H 0.53911 0.57003 0.85904 0.0
C1359 C 0.49852 0.63614 0.83201 0.0
C1360 C 0.48641 0.60862 0.83043 0.0
H1361 H 0.5334 0.66154 0.8447 0.0
H1362 H 0.48746 0.65491 0.82479 0.0
C1363 C 0.50161 0.58485 0.8399 0.0
C1364 C 0.13829 0.72462 0.61472 0.0
C1365 C 0.13595 0.71781 0.58529 0.0
H1366 H 0.13632 0.75731 0.64711 0.0
C1367 C 0.13133 0.74004 0.56546 0.0
H1368 H 0.14201 0.70801 0.63053 0.0
C1369 C 0.12798 0.7683 0.57498 0.0
C1370 C 0.12934 0.77494 0.60449 0.0
H1371 H 0.12954 0.73555 0.54263 0.0
H1372 H 0.12367 0.7848 0.55922 0.0
C1373 C 0.13512 0.75291 0.62421 0.0
C1374 C 0.99206 0.40814 0.34836 0.0
C1375 C 0.00608 0.38316 0.34 0.0
H1376 H 0.95511 0.42581 0.36609 0.0
C1377 C 0.9923 0.35652 0.34166 0.0
H1378 H 0.0021 0.42902 0.34729 0.0
C1379 C 0.96554 0.35469 0.35248 0.0
C1380 C 0.95184 0.37948 0.36185 0.0
H1381 H 0.0024 0.33686 0.33528 0.0
H1382 H 0.95581 0.33368 0.35399 0.0
C1383 C 0.96515 0.40631 0.35915 0.0
C1384 C 0.34239 0.76707 0.34001 0.0
C1385 C 0.36703 0.77904 0.35086 0.0
H1386 H 0.31761 0.72919 0.33443 0.0
C1387 C 0.38474 0.76164 0.36712 0.0
H1388 H 0.32821 0.7799 0.32754 0.0
C1389 C 0.3786 0.7325 0.37114 0.0
C1390 C 0.35471 0.72022 0.35885 0.0
H1391 H 0.40383 0.77026 0.37589 0.0
H1392 H 0.3931 0.7194 0.38291 0.0
C1393 C 0.33634 0.73795 0.34389 0.0
C1394 C 0.98749 0.58582 0.09017 0.0
C1395 C 0.00016 0.60806 0.10614 0.0
H1396 H 0.95039 0.57004 0.07018 0.0
C1397 C 0.98398 0.63091 0.11598 0.0
H1398 H -0.00062 0.56785 0.08237 0.0
C1399 C 0.95604 0.63214 0.10904 0.0
C1400 C 0.94355 0.61054 0.09208 0.0
H1401 H 0.99301 0.64829 0.12851 0.0
H1402 H 0.94438 0.65044 0.11646 0.0
C1403 C 0.95942 0.58705 0.0832 0.0
C1404 C 0.0824 0.28288 0.83024 0.0
C1405 C 0.0948 0.28393 0.85761 0.0
H1406 H 0.06294 0.25688 0.79789 0.0
C1407 C 0.09825 0.25821 0.87297 0.0
H1408 H 0.07944 0.30229 0.81782 0.0
C1409 C 0.08899 0.23204 0.86137 0.0
C1410 C 0.0758 0.2312 0.83436 0.0
H1411 H 0.10782 0.25833 0.89408 0.0
H1412 H 0.09151 0.21262 0.87387 0.0
C1413 C 0.07288 0.25684 0.81882 0.0
C1414 C 0.54704 0.39996 0.63644 0.0
C1415 C 0.56206 0.3743 0.63726 0.0
H1416 H 0.50969 0.42133 0.64787 0.0
C1417 C 0.55125 0.35079 0.65271 0.0
H1418 H 0.55484 0.4185 0.62484 0.0
C1419 C 0.52538 0.35233 0.66568 0.0
C1420 C 0.50979 0.37752 0.66375 0.0
H1421 H 0.56231 0.33072 0.65394 0.0
H1422 H 0.5173 0.3335 0.67659 0.0
C1423 C 0.52118 0.40159 0.64967 0.0
C1424 C 0.11539 0.40808 0.22444 0.0
C1425 C 0.11335 0.38124 0.2381 0.0
H1426 H 0.13276 0.43258 0.19001 0.0
C1427 C 0.12661 0.3575 0.22568 0.0
H1428 H 0.10541 0.4268 0.23336 0.0
C1429 C 0.14233 0.36082 0.20061 0.0
C1430 C 0.14523 0.38797 0.18769 0.0
H1431 H 0.12541 0.33652 0.2357 0.0
H1432 H 0.1528 0.34232 0.19185 0.0
C1433 C 0.13122 0.41142 0.19962 0.0
C1434 C 0.40572 0.40829 0.99156 0.0
C1435 C 0.38282 0.39664 0.97685 0.0
H1436 H 0.43047 0.40781 0.02982 0.0
C1437 C 0.36785 0.37398 0.9896 0.0
H1438 H 0.41773 0.42571 0.9823 0.0
C1439 C 0.37517 0.36371 0.01676 0.0
C1440 C 0.3976 0.37588 0.03185 0.0
H1441 H 0.35017 0.36442 0.97882 0.0
H1442 H 0.36289 0.34655 0.02613 0.0
C1443 C 0.41303 0.39802 0.0188 0.0
C1444 C 0.40313 0.57948 0.66947 0.0
C1445 C 0.38132 0.59586 0.65847 0.0
H1446 H 0.42974 0.57127 0.70523 0.0
C1447 C 0.37153 0.61908 0.67475 0.0
H1448 H 0.41134 0.56159 0.65735 0.0
C1449 C 0.38209 0.62461 0.70227 0.0
C1450 C 0.40268 0.60705 0.71399 0.0
H1451 H 0.35487 0.63223 0.66682 0.0
H1452 H 0.3733 0.64192 0.71477 0.0
C1453 C 0.41371 0.58503 0.69694 0.0
C1454 C 0.12157 0.62283 0.47919 0.0
C1455 C 0.10241 0.60926 0.49743 0.0
H1456 H 0.13632 0.62827 0.43625 0.0
C1457 C 0.08144 0.59201 0.48521 0.0
H1458 H 0.13777 0.63655 0.48787 0.0
C1459 C 0.08063 0.58715 0.45544 0.0
C1460 C 0.10068 0.59961 0.43738 0.0
H1461 H 0.06628 0.58138 0.49872 0.0
H1462 H 0.06494 0.57282 0.44676 0.0
C1463 C 0.12066 0.61815 0.44952 0.0
C1464 C 0.07721 0.60808 0.23932 0.0
C1465 C 0.09033 0.62505 0.21831 0.0
H1466 H 0.07801 0.59222 0.28254 0.0
C1467 C 0.11398 0.64105 0.22604 0.0
H1468 H 0.05885 0.59563 0.23414 0.0
C1469 C 0.12497 0.63912 0.25383 0.0
C1470 C 0.11254 0.62116 0.27448 0.0
H1471 H 0.12451 0.65446 0.21041 0.0
H1472 H 0.14369 0.65105 0.25881 0.0
C1473 C 0.08818 0.60617 0.26711 0.0
C1474 C 0.17679 0.37257 0.03552 0.0
C1475 C 0.15455 0.38212 0.05224 0.0
H1476 H 0.18992 0.35456 -0.00453 0.0
C1477 C 0.1276 0.37874 0.0415 0.0
H1478 H 0.19778 0.37467 0.04332 0.0
C1479 C 0.1231 0.3674 0.01395 0.0
C1480 C 0.14544 0.35888 -0.0032 0.0
H1481 H 0.11004 0.38584 0.0539 0.0
H1482 H 0.10218 0.366 0.00582 0.0
C1483 C 0.17227 0.3609 0.00815 0.0
C1484 C 0.40648 0.38907 0.8161 0.0
C1485 C 0.3803 0.38403 0.82813 0.0
H1486 H 0.43293 0.38357 0.7797 0.0
C1487 C 0.36083 0.36774 0.81242 0.0
H1488 H 0.42197 0.40148 0.82765 0.0
C1489 C 0.3671 0.3575 0.7849 0.0
C1490 C 0.39298 0.36332 0.7725 0.0
H1491 H 0.34048 0.36342 0.82108 0.0
H1492 H 0.35144 0.34553 0.77315 0.0
C1493 C 0.41275 0.37881 0.78858 0.0
C1494 C 0.37202 0.58225 0.46374 0.0
C1495 C 0.38736 0.60734 0.45786 0.0
H1496 H 0.35895 0.55174 0.49528 0.0
C1497 C 0.4033 0.61987 0.47997 0.0
H1498 H 0.35974 0.57187 0.44711 0.0
C1499 C 0.40281 0.6083 0.50777 0.0
C1500 C 0.38647 0.58393 0.51389 0.0
H1501 H 0.41545 0.63914 0.47606 0.0
H1502 H 0.41453 0.619 0.52463 0.0
C1503 C 0.37165 0.57063 0.49139 0.0
C1504 C 0.18269 0.09603 0.34847 0.0
C1505 C 0.16938 0.08406 0.37259 0.0
H1506 H 0.22034 0.10032 0.32476 0.0
C1507 C 0.18375 0.06457 0.38997 0.0
H1508 H 0.1721 0.11101 0.33458 0.0
C1509 C 0.21143 0.05874 0.38455 0.0
C1510 C 0.2252 0.072 0.36143 0.0
H1511 H 0.17409 0.05491 0.40866 0.0
H1512 H 0.22229 0.04456 0.39905 0.0
C1513 C 0.21032 0.0899 0.34284 0.0
C1514 C 0.75277 0.35942 0.62195 0.0
C1515 C 0.76574 0.34679 0.6458 0.0
H1516 H 0.71526 0.3656 0.59869 0.0
C1517 C 0.74961 0.33113 0.66556 0.0
H1518 H 0.76454 0.37178 0.60639 0.0
C1519 C 0.72122 0.32751 0.66109 0.0
C1520 C 0.7084 0.3396 0.63685 0.0
H1521 H 0.75896 0.32118 0.6842 0.0
H1522 H 0.70944 0.31485 0.67638 0.0
C1523 C 0.72445 0.35593 0.61757 0.0
C1524 C 0.39104 0.94679 0.36715 0.0
C1525 C 0.37194 0.92419 0.37098 0.0
H1526 H 0.39838 -0.00789 0.3677 0.0
C1527 C 0.34523 0.93053 0.38058 0.0
H1528 H 0.41189 0.9426 0.36005 0.0
C1529 C 0.33742 0.95908 0.38488 0.0
C1530 C 0.35624 0.98172 0.37982 0.0
H1531 H 0.33009 0.91356 0.38379 0.0
H1532 H 0.31643 0.96341 0.39139 0.0
C1533 C 0.38331 0.97521 0.3716 0.0
C1534 C 0.78606 0.58995 0.09081 0.0
C1535 C 0.79762 0.60564 0.11385 0.0
H1536 H 0.75132 0.56622 0.07478 0.0
C1537 C 0.78305 0.6072 0.13995 0.0
H1538 H 0.79679 0.58813 0.07045 0.0
C1539 C 0.75687 0.5945 0.14246 0.0
C1540 C 0.74477 0.58013 0.11887 0.0
H1541 H 0.79143 0.61902 0.15815 0.0
H1542 H 0.74575 0.59685 0.16253 0.0
C1543 C 0.75993 0.57742 0.09327 0.0
C1544 C 0.59803 0.54335 0.34529 0.0
C1545 C 0.61733 0.56378 0.33539 0.0
H1546 H 0.59138 0.502 0.36422 0.0
C1547 C 0.6456 0.55801 0.33814 0.0
H1548 H 0.57609 0.54717 0.34355 0.0
C1549 C 0.65437 0.5321 0.35004 0.0
C1550 C 0.63506 0.51143 0.3594 0.0
H1551 H 0.661 0.57334 0.33079 0.0
H1552 H 0.6763 0.52813 0.35149 0.0
C1553 C 0.6068 0.51745 0.35716 0.0
C1554 C 0.24766 0.90609 0.8762 0.0
C1555 C 0.23936 0.91847 0.85005 0.0
H1556 H 0.27838 0.88246 0.89873 0.0
C1557 C 0.25731 0.91746 0.82632 0.0
H1558 H 0.23438 0.90648 0.89493 0.0
C1559 C 0.28275 0.90366 0.82853 0.0
C1560 C 0.29055 0.89045 0.85445 0.0
H1561 H 0.25151 0.92681 0.80586 0.0
H1562 H 0.29597 0.90279 0.80978 0.0
C1563 C 0.27289 0.89217 0.87834 0.0
C1564 C 0.32404 0.00107 0.11058 0.0
C1565 C 0.33862 0.97514 0.11012 0.0
H1566 H 0.32549 0.0463 0.11915 0.0
C1567 C 0.36716 0.97573 0.11543 0.0
H1568 H 0.30206 0.00135 0.10645 0.0
C1569 C 0.38056 0.00142 0.12265 0.0
C1570 C 0.36571 0.02708 0.12479 0.0
H1571 H 0.37906 0.95616 0.11497 0.0
H1572 H 0.4024 0.00092 0.12756 0.0
C1573 C 0.33746 0.02682 0.11789 0.0
C1574 C 0.10568 0.95818 0.64413 0.0
C1575 C 0.11909 0.93364 0.63376 0.0
H1576 H 0.10411 0.00399 0.64506 0.0
C1577 C 0.1416 0.93711 0.61501 0.0
H1578 H 0.08823 0.95631 0.65856 0.0
C1579 C 0.15076 0.96465 0.60719 0.0
C1580 C 0.1376 0.98917 0.61806 0.0
H1581 H 0.15234 0.9186 0.60664 0.0
H1582 H 0.16834 0.96672 0.59296 0.0
C1583 C 0.11483 0.98559 0.63641 0.0
loop_
_geom_bond_atom_site_label_1
_geom_bond_atom_site_label_2
_geom_bond_distance
_geom_bond_site_symmetry_2
_ccdc_geom_bond_type
C0 O1 1.160 . S
C0 O7 1.185 . S
O1 C0 1.160 . S
O2 Zn3 1.899 . S
O2 C10 1.284 . S
Zn3 O2 1.899 . S
Zn3 O4 2.032 . S
Zn3 O7 2.086 . S
Zn3 O12 1.977 . S
O4 Zn3 2.032 . S
O4 C8 1.278 . S
C5 O6 1.203 . S
C5 O12 1.267 . S
O6 C5 1.203 . S
O7 C0 1.185 . S
O7 Zn3 2.086 . S
C8 O4 1.278 . S
C8 O9 1.211 . S
O9 C8 1.211 . S
C10 O2 1.284 . S
C10 O11 1.273 . S
O11 C10 1.273 . S
O12 Zn3 1.977 . S
O12 C5 1.267 . S
C13 O14 1.160 . S
C13 O20 1.185 . S
O14 C13 1.160 . S
O15 Zn16 1.899 . S
O15 C23 1.284 . S
Zn16 O15 1.899 . S
Zn16 O17 2.032 . S
Zn16 O20 2.086 . S
Zn16 O25 1.977 . S
O17 Zn16 2.032 . S
O17 C21 1.278 . S
C18 O19 1.203 . S
C18 O25 1.267 . S
O19 C18 1.203 . S
O20 C13 1.185 . S
O20 Zn16 2.086 . S
C21 O17 1.278 . S
C21 O22 1.211 . S
O22 C21 1.211 . S
C23 O15 1.284 . S
C23 O24 1.273 . S
O24 C23 1.273 . S
O25 Zn16 1.977 . S
O25 C18 1.267 . S
C26 O27 1.160 . S
C26 O33 1.185 . S
O27 C26 1.160 . S
O28 Zn29 1.899 . S
O28 C36 1.284 . S
Zn29 O28 1.899 . S
Zn29 O30 2.032 . S
Zn29 O33 2.086 . S
Zn29 O38 1.977 . S
O30 Zn29 2.032 . S
O30 C34 1.278 . S
C31 O32 1.203 . S
C31 O38 1.267 . S
O32 C31 1.203 . S
O33 C26 1.185 . S
O33 Zn29 2.086 . S
C34 O30 1.278 . S
C34 O35 1.211 . S
O35 C34 1.211 . S
C36 O28 1.284 . S
C36 O37 1.273 . S
O37 C36 1.273 . S
O38 Zn29 1.977 . S
O38 C31 1.267 . S
C39 O40 1.160 . S
C39 O46 1.185 . S
O40 C39 1.160 . S
O41 Zn42 1.899 . S
O41 C49 1.284 . S
Zn42 O41 1.899 . S
Zn42 O43 2.032 . S
Zn42 O46 2.086 . S
Zn42 O51 1.977 . S
O43 Zn42 2.032 . S
O43 C47 1.278 . S
C44 O45 1.203 . S
C44 O51 1.267 . S
O45 C44 1.203 . S
O46 C39 1.185 . S
O46 Zn42 2.086 . S
C47 O43 1.278 . S
C47 O48 1.211 . S
O48 C47 1.211 . S
C49 O41 1.284 . S
C49 O50 1.273 . S
O50 C49 1.273 . S
O51 Zn42 1.977 . S
O51 C44 1.267 . S
C52 O53 1.160 . S
C52 O59 1.185 . S
O53 C52 1.160 . S
O54 Zn55 1.899 . S
O54 C62 1.284 . S
Zn55 O54 1.899 . S
Zn55 O56 2.032 . S
Zn55 O59 2.086 . S
Zn55 O64 1.977 . S
O56 Zn55 2.032 . S
O56 C60 1.278 . S
C57 O58 1.203 . S
C57 O64 1.267 . S
O58 C57 1.203 . S
O59 C52 1.185 . S
O59 Zn55 2.086 . S
C60 O56 1.278 . S
C60 O61 1.211 . S
O61 C60 1.211 . S
C62 O54 1.284 . S
C62 O63 1.273 . S
O63 C62 1.273 . S
O64 Zn55 1.977 . S
O64 C57 1.267 . S
C65 O66 1.160 . S
C65 O72 1.185 . S
O66 C65 1.160 . S
O67 Zn68 1.899 . S
O67 C75 1.284 . S
Zn68 O67 1.899 . S
Zn68 O69 2.032 . S
Zn68 O72 2.086 . S
Zn68 O77 1.977 . S
O69 Zn68 2.032 . S
O69 C73 1.278 . S
C70 O71 1.203 . S
C70 O77 1.267 . S
O71 C70 1.203 . S
O72 C65 1.185 . S
O72 Zn68 2.086 . S
C73 O69 1.278 . S
C73 O74 1.211 . S
O74 C73 1.211 . S
C75 O67 1.284 . S
C75 O76 1.273 . S
O76 C75 1.273 . S
O77 Zn68 1.977 . S
O77 C70 1.267 . S
C78 O79 1.160 . S
C78 O85 1.185 . S
O79 C78 1.160 . S
O80 Zn81 1.899 . S
O80 C88 1.284 . S
Zn81 O80 1.899 . S
Zn81 O82 2.032 . S
Zn81 O85 2.086 . S
Zn81 O90 1.977 . S
O82 Zn81 2.032 . S
O82 C86 1.278 . S
C83 O84 1.203 . S
C83 O90 1.267 . S
O84 C83 1.203 . S
O85 C78 1.185 . S
O85 Zn81 2.086 . S
C86 O82 1.278 . S
C86 O87 1.211 . S
O87 C86 1.211 . S
C88 O80 1.284 . S
C88 O89 1.273 . S
O89 C88 1.273 . S
O90 Zn81 1.977 . S
O90 C83 1.267 . S
C91 O92 1.160 . S
C91 O98 1.185 . S
O92 C91 1.160 . S
O93 Zn94 1.899 . S
O93 C101 1.284 . S
Zn94 O93 1.899 . S
Zn94 O95 2.032 . S
Zn94 O98 2.086 . S
Zn94 O103 1.977 . S
O95 Zn94 2.032 . S
O95 C99 1.278 . S
C96 O97 1.203 . S
C96 O103 1.267 . S
O97 C96 1.203 . S
O98 C91 1.185 . S
O98 Zn94 2.086 . S
C99 O95 1.278 . S
C99 O100 1.211 . S
O100 C99 1.211 . S
C101 O93 1.284 . S
C101 O102 1.273 . S
O102 C101 1.273 . S
O103 Zn94 1.977 . S
O103 C96 1.267 . S
C104 O105 1.160 . S
C104 O111 1.185 . S
O105 C104 1.160 . S
O106 Zn107 1.899 . S
O106 C114 1.284 . S
Zn107 O106 1.899 . S
Zn107 O108 2.032 . S
Zn107 O111 2.086 . S
Zn107 O116 1.977 . S
O108 Zn107 2.032 . S
O108 C112 1.278 . S
C109 O110 1.203 . S
C109 O116 1.267 . S
O110 C109 1.203 . S
O111 C104 1.185 . S
O111 Zn107 2.086 . S
C112 O108 1.278 . S
C112 O113 1.211 . S
O113 C112 1.211 . S
C114 O106 1.284 . S
C114 O115 1.273 . S
O115 C114 1.273 . S
O116 Zn107 1.977 . S
O116 C109 1.267 . S
C117 O118 1.160 . S
C117 O124 1.185 . S
O118 C117 1.160 . S
O119 Zn120 1.899 . S
O119 C127 1.284 . S
Zn120 O119 1.899 . S
Zn120 O121 2.032 . S
Zn120 O124 2.086 . S
Zn120 O129 1.977 . S
O121 Zn120 2.032 . S
O121 C125 1.278 . S
C122 O123 1.203 . S
C122 O129 1.267 . S
O123 C122 1.203 . S
O124 C117 1.185 . S
O124 Zn120 2.086 . S
C125 O121 1.278 . S
C125 O126 1.211 . S
O126 C125 1.211 . S
C127 O119 1.284 . S
C127 O128 1.273 . S
O128 C127 1.273 . S
O129 Zn120 1.977 . S
O129 C122 1.267 . S
C130 O131 1.160 . S
C130 O137 1.185 . S
O131 C130 1.160 . S
O132 Zn133 1.899 . S
O132 C140 1.284 . S
Zn133 O132 1.899 . S
Zn133 O134 2.032 . S
Zn133 O137 2.086 . S
Zn133 O142 1.977 . S
O134 Zn133 2.032 . S
O134 C138 1.278 . S
C135 O136 1.203 . S
C135 O142 1.267 . S
O136 C135 1.203 . S
O137 C130 1.185 . S
O137 Zn133 2.086 . S
C138 O134 1.278 . S
C138 O139 1.211 . S
O139 C138 1.211 . S
C140 O132 1.284 . S
C140 O141 1.273 . S
O141 C140 1.273 . S
O142 Zn133 1.977 . S
O142 C135 1.267 . S
C143 O144 1.160 . S
C143 O150 1.185 . S
O144 C143 1.160 . S
O145 Zn146 1.899 . S
O145 C153 1.284 . S
Zn146 O145 1.899 . S
Zn146 O147 2.032 . S
Zn146 O150 2.086 . S
Zn146 O155 1.977 . S
O147 Zn146 2.032 . S
O147 C151 1.278 . S
C148 O149 1.203 . S
C148 O155 1.267 . S
O149 C148 1.203 . S
O150 C143 1.185 . S
O150 Zn146 2.086 . S
C151 O147 1.278 . S
C151 O152 1.211 . S
O152 C151 1.211 . S
C153 O145 1.284 . S
C153 O154 1.273 . S
O154 C153 1.273 . S
O155 Zn146 1.977 . S
O155 C148 1.267 . S
C156 O157 1.160 . S
C156 O163 1.185 . S
O157 C156 1.160 . S
O158 Zn159 1.899 . S
O158 C166 1.284 . S
Zn159 O158 1.899 . S
Zn159 O160 2.032 . S
Zn159 O163 2.086 . S
Zn159 O168 1.977 . S
O160 Zn159 2.032 . S
O160 C164 1.278 . S
C161 O162 1.203 . S
C161 O168 1.267 . S
O162 C161 1.203 . S
O163 C156 1.185 . S
O163 Zn159 2.086 . S
C164 O160 1.278 . S
C164 O165 1.211 . S
O165 C164 1.211 . S
C166 O158 1.284 . S
C166 O167 1.273 . S
O167 C166 1.273 . S
O168 Zn159 1.977 . S
O168 C161 1.267 . S
C169 O170 1.160 . S
C169 O176 1.185 . S
O170 C169 1.160 . S
O171 Zn172 1.899 . S
O171 C179 1.284 . S
Zn172 O171 1.899 . S
Zn172 O173 2.032 . S
Zn172 O176 2.086 . S
Zn172 O181 1.977 . S
O173 Zn172 2.032 . S
O173 C177 1.278 . S
C174 O175 1.203 . S
C174 O181 1.267 . S
O175 C174 1.203 . S
O176 C169 1.185 . S
O176 Zn172 2.086 . S
C177 O173 1.278 . S
C177 O178 1.211 . S
O178 C177 1.211 . S
C179 O171 1.284 . S
C179 O180 1.273 . S
O180 C179 1.273 . S
O181 Zn172 1.977 . S
O181 C174 1.267 . S
C182 O183 1.160 . S
C182 O189 1.185 . S
O183 C182 1.160 . S
O184 Zn185 1.899 . S
O184 C192 1.284 . S
Zn185 O184 1.899 . S
Zn185 O186 2.032 . S
Zn185 O189 2.086 . S
Zn185 O194 1.977 . S
O186 Zn185 2.032 . S
O186 C190 1.278 . S
C187 O188 1.203 . S
C187 O194 1.267 . S
O188 C187 1.203 . S
O189 C182 1.185 . S
O189 Zn185 2.086 . S
C190 O186 1.278 . S
C190 O191 1.211 . S
O191 C190 1.211 . S
C192 O184 1.284 . S
C192 O193 1.273 . S
O193 C192 1.273 . S
O194 Zn185 1.977 . S
O194 C187 1.267 . S
C195 O196 1.160 . S
C195 O202 1.185 . S
O196 C195 1.160 . S
O197 Zn198 1.899 . S
O197 C205 1.284 . S
Zn198 O197 1.899 . S
Zn198 O199 2.032 . S
Zn198 O202 2.086 . S
Zn198 O207 1.977 . S
O199 Zn198 2.032 . S
O199 C203 1.278 . S
C200 O201 1.203 . S
C200 O207 1.267 . S
O201 C200 1.203 . S
O202 C195 1.185 . S
O202 Zn198 2.086 . S
C203 O199 1.278 . S
C203 O204 1.211 . S
O204 C203 1.211 . S
C205 O197 1.284 . S
C205 O206 1.273 . S
O206 C205 1.273 . S
O207 Zn198 1.977 . S
O207 C200 1.267 . S
C208 O209 1.160 . S
C208 O215 1.185 . S
O209 C208 1.160 . S
O210 Zn211 1.899 . S
O210 C218 1.284 . S
Zn211 O210 1.899 . S
Zn211 O212 2.032 . S
Zn211 O215 2.086 . S
Zn211 O220 1.977 . S
O212 Zn211 2.032 . S
O212 C216 1.278 . S
C213 O214 1.203 . S
C213 O220 1.267 . S
O214 C213 1.203 . S
O215 C208 1.185 . S
O215 Zn211 2.086 . S
C216 O212 1.278 . S
C216 O217 1.211 . S
O217 C216 1.211 . S
C218 O210 1.284 . S
C218 O219 1.273 . S
O219 C218 1.273 . S
O220 Zn211 1.977 . S
O220 C213 1.267 . S
C221 O222 1.160 . S
C221 O228 1.185 . S
O222 C221 1.160 . S
O223 Zn224 1.899 . S
O223 C231 1.284 . S
Zn224 O223 1.899 . S
Zn224 O225 2.032 . S
Zn224 O228 2.086 . S
Zn224 O233 1.977 . S
O225 Zn224 2.032 . S
O225 C229 1.278 . S
C226 O227 1.203 . S
C226 O233 1.267 . S
O227 C226 1.203 . S
O228 C221 1.185 . S
O228 Zn224 2.086 . S
C229 O225 1.278 . S
C229 O230 1.211 . S
O230 C229 1.211 . S
C231 O223 1.284 . S
C231 O232 1.273 . S
O232 C231 1.273 . S
O233 Zn224 1.977 . S
O233 C226 1.267 . S
C234 O235 1.160 . S
C234 O241 1.185 . S
O235 C234 1.160 . S
O236 Zn237 1.899 . S
O236 C244 1.284 . S
Zn237 O236 1.899 . S
Zn237 O238 2.032 . S
Zn237 O241 2.086 . S
Zn237 O246 1.977 . S
O238 Zn237 2.032 . S
O238 C242 1.278 . S
C239 O240 1.203 . S
C239 O246 1.267 . S
O240 C239 1.203 . S
O241 C234 1.185 . S
O241 Zn237 2.086 . S
C242 O238 1.278 . S
C242 O243 1.211 . S
O243 C242 1.211 . S
C244 O236 1.284 . S
C244 O245 1.273 . S
O245 C244 1.273 . S
O246 Zn237 1.977 . S
O246 C239 1.267 . S
C247 O248 1.160 . S
C247 O254 1.185 . S
O248 C247 1.160 . S
O249 Zn250 1.899 . S
O249 C257 1.284 . S
Zn250 O249 1.899 . S
Zn250 O251 2.032 . S
Zn250 O254 2.086 . S
Zn250 O259 1.977 . S
O251 Zn250 2.032 . S
O251 C255 1.278 . S
C252 O253 1.203 . S
C252 O259 1.267 . S
O253 C252 1.203 . S
O254 C247 1.185 . S
O254 Zn250 2.086 . S
C255 O251 1.278 . S
C255 O256 1.211 . S
O256 C255 1.211 . S
C257 O249 1.284 . S
C257 O258 1.273 . S
O258 C257 1.273 . S
O259 Zn250 1.977 . S
O259 C252 1.267 . S
C260 O261 1.160 . S
C260 O267 1.185 . S
O261 C260 1.160 . S
O262 Zn263 1.899 . S
O262 C270 1.284 . S
Zn263 O262 1.899 . S
Zn263 O264 2.032 . S
Zn263 O267 2.086 . S
Zn263 O272 1.977 . S
O264 Zn263 2.032 . S
O264 C268 1.278 . S
C265 O266 1.203 . S
C265 O272 1.267 . S
O266 C265 1.203 . S
O267 C260 1.185 . S
O267 Zn263 2.086 . S
C268 O264 1.278 . S
C268 O269 1.211 . S
O269 C268 1.211 . S
C270 O262 1.284 . S
C270 O271 1.273 . S
O271 C270 1.273 . S
O272 Zn263 1.977 . S
O272 C265 1.267 . S
C273 O274 1.160 . S
C273 O280 1.185 . S
O274 C273 1.160 . S
O275 Zn276 1.899 . S
O275 C283 1.284 . S
Zn276 O275 1.899 . S
Zn276 O277 2.032 . S
Zn276 O280 2.086 . S
Zn276 O285 1.977 . S
O277 Zn276 2.032 . S
O277 C281 1.278 . S
C278 O279 1.203 . S
C278 O285 1.267 . S
O279 C278 1.203 . S
O280 C273 1.185 . S
O280 Zn276 2.086 . S
C281 O277 1.278 . S
C281 O282 1.211 . S
O282 C281 1.211 . S
C283 O275 1.284 . S
C283 O284 1.273 . S
O284 C283 1.273 . S
O285 Zn276 1.977 . S
O285 C278 1.267 . S
C286 O287 1.160 . S
C286 O293 1.185 . S
O287 C286 1.160 . S
O288 Zn289 1.899 . S
O288 C296 1.284 . S
Zn289 O288 1.899 . S
Zn289 O290 2.032 . S
Zn289 O293 2.086 . S
Zn289 O298 1.977 . S
O290 Zn289 2.032 . S
O290 C294 1.278 . S
C291 O292 1.203 . S
C291 O298 1.267 . S
O292 C291 1.203 . S
O293 C286 1.185 . S
O293 Zn289 2.086 . S
C294 O290 1.278 . S
C294 O295 1.211 . S
O295 C294 1.211 . S
C296 O288 1.284 . S
C296 O297 1.273 . S
O297 C296 1.273 . S
O298 Zn289 1.977 . S
O298 C291 1.267 . S
C299 O300 1.160 . S
C299 O306 1.185 . S
O300 C299 1.160 . S
O301 Zn302 1.899 . S
O301 C309 1.284 . S
Zn302 O301 1.899 . S
Zn302 O303 2.032 . S
Zn302 O306 2.086 . S
Zn302 O311 1.977 . S
O303 Zn302 2.032 . S
O303 C307 1.278 . S
C304 O305 1.203 . S
C304 O311 1.267 . S
O305 C304 1.203 . S
O306 C299 1.185 . S
O306 Zn302 2.086 . S
C307 O303 1.278 . S
C307 O308 1.211 . S
O308 C307 1.211 . S
C309 O301 1.284 . S
C309 O310 1.273 . S
O310 C309 1.273 . S
O311 Zn302 1.977 . S
O311 C304 1.267 . S
C312 O313 1.160 . S
C312 O319 1.185 . S
O313 C312 1.160 . S
O314 Zn315 1.899 . S
O314 C322 1.284 . S
Zn315 O314 1.899 . S
Zn315 O316 2.032 . S
Zn315 O319 2.086 . S
Zn315 O324 1.977 . S
O316 Zn315 2.032 . S
O316 C320 1.278 . S
C317 O318 1.203 . S
C317 O324 1.267 . S
O318 C317 1.203 . S
O319 C312 1.185 . S
O319 Zn315 2.086 . S
C320 O316 1.278 . S
C320 O321 1.211 . S
O321 C320 1.211 . S
C322 O314 1.284 . S
C322 O323 1.273 . S
O323 C322 1.273 . S
O324 Zn315 1.977 . S
O324 C317 1.267 . S
C325 O326 1.160 . S
C325 O332 1.185 . S
O326 C325 1.160 . S
O327 Zn328 1.899 . S
O327 C335 1.284 . S
Zn328 O327 1.899 . S
Zn328 O329 2.032 . S
Zn328 O332 2.086 . S
Zn328 O337 1.977 . S
O329 Zn328 2.032 . S
O329 C333 1.278 . S
C330 O331 1.203 . S
C330 O337 1.267 . S
O331 C330 1.203 . S
O332 C325 1.185 . S
O332 Zn328 2.086 . S
C333 O329 1.278 . S
C333 O334 1.211 . S
O334 C333 1.211 . S
C335 O327 1.284 . S
C335 O336 1.273 . S
O336 C335 1.273 . S
O337 Zn328 1.977 . S
O337 C330 1.267 . S
C338 O339 1.160 . S
C338 O345 1.185 . S
O339 C338 1.160 . S
O340 Zn341 1.899 . S
O340 C348 1.284 . S
Zn341 O340 1.899 . S
Zn341 O342 2.032 . S
Zn341 O345 2.086 . S
Zn341 O350 1.977 . S
O342 Zn341 2.032 . S
O342 C346 1.278 . S
C343 O344 1.203 . S
C343 O350 1.267 . S
O344 C343 1.203 . S
O345 C338 1.185 . S
O345 Zn341 2.086 . S
C346 O342 1.278 . S
C346 O347 1.211 . S
O347 C346 1.211 . S
C348 O340 1.284 . S
C348 O349 1.273 . S
O349 C348 1.273 . S
O350 Zn341 1.977 . S
O350 C343 1.267 . S
C351 O352 1.160 . S
C351 O358 1.185 . S
O352 C351 1.160 . S
O353 Zn354 1.899 . S
O353 C361 1.284 . S
Zn354 O353 1.899 . S
Zn354 O355 2.032 . S
Zn354 O358 2.086 . S
Zn354 O363 1.977 . S
O355 Zn354 2.032 . S
O355 C359 1.278 . S
C356 O357 1.203 . S
C356 O363 1.267 . S
O357 C356 1.203 . S
O358 C351 1.185 . S
O358 Zn354 2.086 . S
C359 O355 1.278 . S
C359 O360 1.211 . S
O360 C359 1.211 . S
C361 O353 1.284 . S
C361 O362 1.273 . S
O362 C361 1.273 . S
O363 Zn354 1.977 . S
O363 C356 1.267 . S
C364 O365 1.160 . S
C364 O371 1.185 . S
O365 C364 1.160 . S
O366 Zn367 1.899 . S
O366 C374 1.284 . S
Zn367 O366 1.899 . S
Zn367 O368 2.032 . S
Zn367 O371 2.086 . S
Zn367 O376 1.977 . S
O368 Zn367 2.032 . S
O368 C372 1.278 . S
C369 O370 1.203 . S
C369 O376 1.267 . S
O370 C369 1.203 . S
O371 C364 1.185 . S
O371 Zn367 2.086 . S
C372 O368 1.278 . S
C372 O373 1.211 . S
O373 C372 1.211 . S
C374 O366 1.284 . S
C374 O375 1.273 . S
O375 C374 1.273 . S
O376 Zn367 1.977 . S
O376 C369 1.267 . S
C377 O378 1.160 . S
C377 O384 1.185 . S
O378 C377 1.160 . S
O379 Zn380 1.899 . S
O379 C387 1.284 . S
Zn380 O379 1.899 . S
Zn380 O381 2.032 . S
Zn380 O384 2.086 . S
Zn380 O389 1.977 . S
O381 Zn380 2.032 . S
O381 C385 1.278 . S
C382 O383 1.203 . S
C382 O389 1.267 . S
O383 C382 1.203 . S
O384 C377 1.185 . S
O384 Zn380 2.086 . S
C385 O381 1.278 . S
C385 O386 1.211 . S
O386 C385 1.211 . S
C387 O379 1.284 . S
C387 O388 1.273 . S
O388 C387 1.273 . S
O389 Zn380 1.977 . S
O389 C382 1.267 . S
C390 O391 1.160 . S
C390 O397 1.185 . S
O391 C390 1.160 . S
O392 Zn393 1.899 . S
O392 C400 1.284 . S
Zn393 O392 1.899 . S
Zn393 O394 2.032 . S
Zn393 O397 2.086 . S
Zn393 O402 1.977 . S
O394 Zn393 2.032 . S
O394 C398 1.278 . S
C395 O396 1.203 . S
C395 O402 1.267 . S
O396 C395 1.203 . S
O397 C390 1.185 . S
O397 Zn393 2.086 . S
C398 O394 1.278 . S
C398 O399 1.211 . S
O399 C398 1.211 . S
C400 O392 1.284 . S
C400 O401 1.273 . S
O401 C400 1.273 . S
O402 Zn393 1.977 . S
O402 C395 1.267 . S
C403 O404 1.160 . S
C403 O410 1.185 . S
O404 C403 1.160 . S
O405 Zn406 1.899 . S
O405 C413 1.284 . S
Zn406 O405 1.899 . S
Zn406 O407 2.032 . S
Zn406 O410 2.086 . S
Zn406 O415 1.977 . S
O407 Zn406 2.032 . S
O407 C411 1.278 . S
C408 O409 1.203 . S
C408 O415 1.267 . S
O409 C408 1.203 . S
O410 C403 1.185 . S
O410 Zn406 2.086 . S
C411 O407 1.278 . S
C411 O412 1.211 . S
O412 C411 1.211 . S
C413 O405 1.284 . S
C413 O414 1.273 . S
O414 C413 1.273 . S
O415 Zn406 1.977 . S
O415 C408 1.267 . S
C416 O417 1.160 . S
C416 O423 1.185 . S
O417 C416 1.160 . S
O418 Zn419 1.899 . S
O418 C426 1.284 . S
Zn419 O418 1.899 . S
Zn419 O420 2.032 . S
Zn419 O423 2.086 . S
Zn419 O428 1.977 . S
O420 Zn419 2.032 . S
O420 C424 1.278 . S
C421 O422 1.203 . S
C421 O428 1.267 . S
O422 C421 1.203 . S
O423 C416 1.185 . S
O423 Zn419 2.086 . S
C424 O420 1.278 . S
C424 O425 1.211 . S
O425 C424 1.211 . S
C426 O418 1.284 . S
C426 O427 1.273 . S
O427 C426 1.273 . S
O428 Zn419 1.977 . S
O428 C421 1.267 . S
C429 O430 1.160 . S
C429 O436 1.185 . S
O430 C429 1.160 . S
O431 Zn432 1.899 . S
O431 C439 1.284 . S
Zn432 O431 1.899 . S
Zn432 O433 2.032 . S
Zn432 O436 2.086 . S
Zn432 O441 1.977 . S
O433 Zn432 2.032 . S
O433 C437 1.278 . S
C434 O435 1.203 . S
C434 O441 1.267 . S
O435 C434 1.203 . S
O436 C429 1.185 . S
O436 Zn432 2.086 . S
C437 O433 1.278 . S
C437 O438 1.211 . S
O438 C437 1.211 . S
C439 O431 1.284 . S
C439 O440 1.273 . S
O440 C439 1.273 . S
O441 Zn432 1.977 . S
O441 C434 1.267 . S
C442 O443 1.160 . S
C442 O449 1.185 . S
O443 C442 1.160 . S
O444 Zn445 1.899 . S
O444 C452 1.284 . S
Zn445 O444 1.899 . S
Zn445 O446 2.032 . S
Zn445 O449 2.086 . S
Zn445 O454 1.977 . S
O446 Zn445 2.032 . S
O446 C450 1.278 . S
C447 O448 1.203 . S
C447 O454 1.267 . S
O448 C447 1.203 . S
O449 C442 1.185 . S
O449 Zn445 2.086 . S
C450 O446 1.278 . S
C450 O451 1.211 . S
O451 C450 1.211 . S
C452 O444 1.284 . S
C452 O453 1.273 . S
O453 C452 1.273 . S
O454 Zn445 1.977 . S
O454 C447 1.267 . S
C455 O456 1.160 . S
C455 O462 1.185 . S
O456 C455 1.160 . S
O457 Zn458 1.899 . S
O457 C465 1.284 . S
Zn458 O457 1.899 . S
Zn458 O459 2.032 . S
Zn458 O462 2.086 . S
Zn458 O467 1.977 . S
O459 Zn458 2.032 . S
O459 C463 1.278 . S
C460 O461 1.203 . S
C460 O467 1.267 . S
O461 C460 1.203 . S
O462 C455 1.185 . S
O462 Zn458 2.086 . S
C463 O459 1.278 . S
C463 O464 1.211 . S
O464 C463 1.211 . S
C465 O457 1.284 . S
C465 O466 1.273 . S
O466 C465 1.273 . S
O467 Zn458 1.977 . S
O467 C460 1.267 . S
C468 O469 1.160 . S
C468 O475 1.185 . S
O469 C468 1.160 . S
O470 Zn471 1.899 . S
O470 C478 1.284 . S
Zn471 O470 1.899 . S
Zn471 O472 2.032 . S
Zn471 O475 2.086 . S
Zn471 O480 1.977 . S
O472 Zn471 2.032 . S
O472 C476 1.278 . S
C473 O474 1.203 . S
C473 O480 1.267 . S
O474 C473 1.203 . S
O475 C468 1.185 . S
O475 Zn471 2.086 . S
C476 O472 1.278 . S
C476 O477 1.211 . S
O477 C476 1.211 . S
C478 O470 1.284 . S
C478 O479 1.273 . S
O479 C478 1.273 . S
O480 Zn471 1.977 . S
O480 C473 1.267 . S
C481 O482 1.160 . S
C481 O488 1.185 . S
O482 C481 1.160 . S
O483 Zn484 1.899 . S
O483 C491 1.284 . S
Zn484 O483 1.899 . S
Zn484 O485 2.032 . S
Zn484 O488 2.086 . S
Zn484 O493 1.977 . S
O485 Zn484 2.032 . S
O485 C489 1.278 . S
C486 O487 1.203 . S
C486 O493 1.267 . S
O487 C486 1.203 . S
O488 C481 1.185 . S
O488 Zn484 2.086 . S
C489 O485 1.278 . S
C489 O490 1.211 . S
O490 C489 1.211 . S
C491 O483 1.284 . S
C491 O492 1.273 . S
O492 C491 1.273 . S
O493 Zn484 1.977 . S
O493 C486 1.267 . S
C494 O495 1.160 . S
C494 O501 1.185 . S
O495 C494 1.160 . S
O496 Zn497 1.899 . S
O496 C504 1.284 . S
Zn497 O496 1.899 . S
Zn497 O498 2.032 . S
Zn497 O501 2.086 . S
Zn497 O506 1.977 . S
O498 Zn497 2.032 . S
O498 C502 1.278 . S
C499 O500 1.203 . S
C499 O506 1.267 . S
O500 C499 1.203 . S
O501 C494 1.185 . S
O501 Zn497 2.086 . S
C502 O498 1.278 . S
C502 O503 1.211 . S
O503 C502 1.211 . S
C504 O496 1.284 . S
C504 O505 1.273 . S
O505 C504 1.273 . S
O506 Zn497 1.977 . S
O506 C499 1.267 . S
C507 O508 1.160 . S
C507 O514 1.185 . S
O508 C507 1.160 . S
O509 Zn510 1.899 . S
O509 C517 1.284 . S
Zn510 O509 1.899 . S
Zn510 O511 2.032 . S
Zn510 O514 2.086 . S
Zn510 O519 1.977 . S
O511 Zn510 2.032 . S
O511 C515 1.278 . S
C512 O513 1.203 . S
C512 O519 1.267 . S
O513 C512 1.203 . S
O514 C507 1.185 . S
O514 Zn510 2.086 . S
C515 O511 1.278 . S
C515 O516 1.211 . S
O516 C515 1.211 . S
C517 O509 1.284 . S
C517 O518 1.273 . S
O518 C517 1.273 . S
O519 Zn510 1.977 . S
O519 C512 1.267 . S
C520 O521 1.160 . S
C520 O527 1.185 . S
O521 C520 1.160 . S
O522 Zn523 1.899 . S
O522 C530 1.284 . S
Zn523 O522 1.899 . S
Zn523 O524 2.032 . S
Zn523 O527 2.086 . S
Zn523 O532 1.977 . S
O524 Zn523 2.032 . S
O524 C528 1.278 . S
C525 O526 1.203 . S
C525 O532 1.267 . S
O526 C525 1.203 . S
O527 C520 1.185 . S
O527 Zn523 2.086 . S
C528 O524 1.278 . S
C528 O529 1.211 . S
O529 C528 1.211 . S
C530 O522 1.284 . S
C530 O531 1.273 . S
O531 C530 1.273 . S
O532 Zn523 1.977 . S
O532 C525 1.267 . S
C533 O534 1.160 . S
C533 O540 1.185 . S
O534 C533 1.160 . S
O535 Zn536 1.899 . S
O535 C543 1.284 . S
Zn536 O535 1.899 . S
Zn536 O537 2.032 . S
Zn536 O540 2.086 . S
Zn536 O545 1.977 . S
O537 Zn536 2.032 . S
O537 C541 1.278 . S
C538 O539 1.203 . S
C538 O545 1.267 . S
O539 C538 1.203 . S
O540 C533 1.185 . S
O540 Zn536 2.086 . S
C541 O537 1.278 . S
C541 O542 1.211 . S
O542 C541 1.211 . S
C543 O535 1.284 . S
C543 O544 1.273 . S
O544 C543 1.273 . S
O545 Zn536 1.977 . S
O545 C538 1.267 . S
C546 O547 1.160 . S
C546 O553 1.185 . S
O547 C546 1.160 . S
O548 Zn549 1.899 . S
O548 C556 1.284 . S
Zn549 O548 1.899 . S
Zn549 O550 2.032 . S
Zn549 O553 2.086 . S
Zn549 O558 1.977 . S
O550 Zn549 2.032 . S
O550 C554 1.278 . S
C551 O552 1.203 . S
C551 O558 1.267 . S
O552 C551 1.203 . S
O553 C546 1.185 . S
O553 Zn549 2.086 . S
C554 O550 1.278 . S
C554 O555 1.211 . S
O555 C554 1.211 . S
C556 O548 1.284 . S
C556 O557 1.273 . S
O557 C556 1.273 . S
O558 Zn549 1.977 . S
O558 C551 1.267 . S
C559 O560 1.160 . S
C559 O566 1.185 . S
O560 C559 1.160 . S
O561 Zn562 1.899 . S
O561 C569 1.284 . S
Zn562 O561 1.899 . S
Zn562 O563 2.032 . S
Zn562 O566 2.086 . S
Zn562 O571 1.977 . S
O563 Zn562 2.032 . S
O563 C567 1.278 . S
C564 O565 1.203 . S
C564 O571 1.267 . S
O565 C564 1.203 . S
O566 C559 1.185 . S
O566 Zn562 2.086 . S
C567 O563 1.278 . S
C567 O568 1.211 . S
O568 C567 1.211 . S
C569 O561 1.284 . S
C569 O570 1.273 . S
O570 C569 1.273 . S
O571 Zn562 1.977 . S
O571 C564 1.267 . S
C572 O573 1.160 . S
C572 O579 1.185 . S
O573 C572 1.160 . S
O574 Zn575 1.899 . S
O574 C582 1.284 . S
Zn575 O574 1.899 . S
Zn575 O576 2.032 . S
Zn575 O579 2.086 . S
Zn575 O584 1.977 . S
O576 Zn575 2.032 . S
O576 C580 1.278 . S
C577 O578 1.203 . S
C577 O584 1.267 . S
O578 C577 1.203 . S
O579 C572 1.185 . S
O579 Zn575 2.086 . S
C580 O576 1.278 . S
C580 O581 1.211 . S
O581 C580 1.211 . S
C582 O574 1.284 . S
C582 O583 1.273 . S
O583 C582 1.273 . S
O584 Zn575 1.977 . S
O584 C577 1.267 . S
C585 O586 1.160 . S
C585 O592 1.185 . S
O586 C585 1.160 . S
O587 Zn588 1.899 . S
O587 C595 1.284 . S
Zn588 O587 1.899 . S
Zn588 O589 2.032 . S
Zn588 O592 2.086 . S
Zn588 O597 1.977 . S
O589 Zn588 2.032 . S
O589 C593 1.278 . S
C590 O591 1.203 . S
C590 O597 1.267 . S
O591 C590 1.203 . S
O592 C585 1.185 . S
O592 Zn588 2.086 . S
C593 O589 1.278 . S
C593 O594 1.211 . S
O594 C593 1.211 . S
C595 O587 1.284 . S
C595 O596 1.273 . S
O596 C595 1.273 . S
O597 Zn588 1.977 . S
O597 C590 1.267 . S
C598 O599 1.160 . S
C598 O605 1.185 . S
O599 C598 1.160 . S
O600 Zn601 1.899 . S
O600 C608 1.284 . S
Zn601 O600 1.899 . S
Zn601 O602 2.032 . S
Zn601 O605 2.086 . S
Zn601 O610 1.977 . S
O602 Zn601 2.032 . S
O602 C606 1.278 . S
C603 O604 1.203 . S
C603 O610 1.267 . S
O604 C603 1.203 . S
O605 C598 1.185 . S
O605 Zn601 2.086 . S
C606 O602 1.278 . S
C606 O607 1.211 . S
O607 C606 1.211 . S
C608 O600 1.284 . S
C608 O609 1.273 . S
O609 C608 1.273 . S
O610 Zn601 1.977 . S
O610 C603 1.267 . S
C611 O612 1.160 . S
C611 O618 1.185 . S
O612 C611 1.160 . S
O613 Zn614 1.899 . S
O613 C621 1.284 . S
Zn614 O613 1.899 . S
Zn614 O615 2.032 . S
Zn614 O618 2.086 . S
Zn614 O623 1.977 . S
O615 Zn614 2.032 . S
O615 C619 1.278 . S
C616 O617 1.203 . S
C616 O623 1.267 . S
O617 C616 1.203 . S
O618 C611 1.185 . S
O618 Zn614 2.086 . S
C619 O615 1.278 . S
C619 O620 1.211 . S
O620 C619 1.211 . S
C621 O613 1.284 . S
C621 O622 1.273 . S
O622 C621 1.273 . S
O623 Zn614 1.977 . S
O623 C616 1.267 . S
C624 C625 1.387 . S
C624 H628 0.950 . S
C624 C633 1.390 . S
C625 C624 1.387 . S
C625 C627 1.387 . S
H626 C633 0.950 . S
C627 C625 1.387 . S
C627 C629 1.390 . S
C627 H631 0.950 . S
H628 C624 0.950 . S
C629 C627 1.390 . S
C629 C630 1.387 . S
C629 H632 0.950 . S
C630 C629 1.387 . S
C630 C633 1.387 . S
H631 C627 0.950 . S
H632 C629 0.950 . S
C633 C624 1.390 . S
C633 H626 0.950 . S
C633 C630 1.387 . S
C634 C635 1.387 1_655 S
C634 H638 0.950 1_655 S
C634 C643 1.390 . S
C635 C634 1.387 1_455 S
C635 C637 1.387 1_455 S
H636 C643 0.950 . S
C637 C635 1.387 1_655 S
C637 C639 1.390 . S
C637 H641 0.950 1_655 S
H638 C634 0.950 1_455 S
C639 C637 1.390 . S
C639 C640 1.387 . S
C639 H642 0.950 . S
C640 C639 1.387 . S
C640 C643 1.387 . S
H641 C637 0.950 1_455 S
H642 C639 0.950 . S
C643 C634 1.390 . S
C643 H636 0.950 . S
C643 C640 1.387 . S
C644 C645 1.387 . S
C644 H648 0.950 . S
C644 C653 1.390 . S
C645 C644 1.387 . S
C645 C647 1.387 . S
H646 C653 0.950 . S
C647 C645 1.387 . S
C647 C649 1.390 . S
C647 H651 0.950 . S
H648 C644 0.950 . S
C649 C647 1.390 . S
C649 C650 1.387 . S
C649 H652 0.950 . S
C650 C649 1.387 . S
C650 C653 1.387 . S
H651 C647 0.950 . S
H652 C649 0.950 . S
C653 C644 1.390 . S
C653 H646 0.950 . S
C653 C650 1.387 . S
C654 C655 1.387 . S
C654 H658 0.950 . S
C654 C663 1.390 . S
C655 C654 1.387 . S
C655 C657 1.387 . S
H656 C663 0.950 . S
C657 C655 1.387 . S
C657 C659 1.390 . S
C657 H661 0.950 . S
H658 C654 0.950 . S
C659 C657 1.390 . S
C659 C660 1.387 . S
C659 H662 0.950 . S
C660 C659 1.387 . S
C660 C663 1.387 . S
H661 C657 0.950 . S
H662 C659 0.950 . S
C663 C654 1.390 . S
C663 H656 0.950 . S
C663 C660 1.387 . S
C664 C665 1.387 . S
C664 H668 0.950 . S
C664 C673 1.390 . S
C665 C664 1.387 . S
C665 C667 1.387 . S
H666 C673 0.950 . S
C667 C665 1.387 . S
C667 C669 1.390 . S
C667 H671 0.950 . S
H668 C664 0.950 . S
C669 C667 1.390 . S
C669 C670 1.387 . S
C669 H672 0.950 . S
C670 C669 1.387 . S
C670 C673 1.387 . S
H671 C667 0.950 . S
H672 C669 0.950 . S
C673 C664 1.390 . S
C673 H666 0.950 . S
C673 C670 1.387 . S
C674 C675 1.387 . S
C674 H678 0.950 . S
C674 C683 1.390 . S
C675 C674 1.387 . S
C675 C677 1.387 . S
H676 C683 0.950 . S
C677 C675 1.387 . S
C677 C679 1.390 . S
C677 H681 0.950 . S
H678 C674 0.950 . S
C679 C677 1.390 . S
C679 C680 1.387 . S
C679 H682 0.950 . S
C680 C679 1.387 . S
C680 C683 1.387 . S
H681 C677 0.950 . S
H682 C679 0.950 . S
C683 C674 1.390 . S
C683 H676 0.950 . S
C683 C680 1.387 . S
C684 C685 1.387 . S
C684 H688 0.950 . S
C684 C693 1.390 . S
C685 C684 1.387 . S
C685 C687 1.387 . S
H686 C693 0.950 . S
C687 C685 1.387 . S
C687 C689 1.390 . S
C687 H691 0.950 . S
H688 C684 0.950 . S
C689 C687 1.390 . S
C689 C690 1.387 . S
C689 H692 0.950 . S
C690 C689 1.387 . S
C690 C693 1.387 . S
H691 C687 0.950 . S
H692 C689 0.950 . S
C693 C684 1.390 . S
C693 H686 0.950 . S
C693 C690 1.387 . S
C694 C695 1.387 1_655 S
C694 H698 0.950 1_655 S
C694 C703 1.390 . S
C695 C694 1.387 1_455 S
C695 C697 1.387 1_455 S
H696 C703 0.950 . S
C697 C695 1.387 1_655 S
C697 C699 1.390 . S
C697 H701 0.950 1_655 S
H698 C694 0.950 1_455 S
C699 C697 1.390 . S
C699 C700 1.387 . S
C699 H702 0.950 . S
C700 C699 1.387 . S
C700 C703 1.387 . S
H701 C697 0.950 1_455 S
H702 C699 0.950 . S
C703 C694 1.390 . S
C703 H696 0.950 . S
C703 C700 1.387 . S
C704 C705 1.387 . S
C704 H708 0.950 . S
C704 C713 1.390 . S
C705 C704 1.387 . S
C705 C707 1.387 . S
H706 C713 0.950 . S
C707 C705 1.387 . S
C707 C709 1.390 . S
C707 H711 0.950 . S
H708 C704 0.950 . S
C709 C707 1.390 . S
C709 C710 1.387 . S
C709 H712 0.950 . S
C710 C709 1.387 . S
C710 C713 1.387 . S
H711 C707 0.950 . S
H712 C709 0.950 . S
C713 C704 1.390 . S
C713 H706 0.950 . S
C713 C710 1.387 . S
C714 C715 1.387 . S
C714 H718 0.950 . S
C714 C723 1.390 . S
C715 C714 1.387 . S
C715 C717 1.387 . S
H716 C723 0.950 . S
C717 C715 1.387 . S
C717 C719 1.390 . S
C717 H721 0.950 . S
H718 C714 0.950 . S
C719 C717 1.390 . S
C719 C720 1.387 . S
C719 H722 0.950 . S
C720 C719 1.387 . S
C720 C723 1.387 . S
H721 C717 0.950 . S
H722 C719 0.950 . S
C723 C714 1.390 . S
C723 H716 0.950 . S
C723 C720 1.387 . S
C724 C725 1.387 . S
C724 H728 0.950 . S
C724 C733 1.390 . S
C725 C724 1.387 . S
C725 C727 1.387 . S
H726 C733 0.950 . S
C727 C725 1.387 . S
C727 C729 1.390 . S
C727 H731 0.950 . S
H728 C724 0.950 . S
C729 C727 1.390 . S
C729 C730 1.387 . S
C729 H732 0.950 . S
C730 C729 1.387 . S
C730 C733 1.387 . S
H731 C727 0.950 . S
H732 C729 0.950 . S
C733 C724 1.390 . S
C733 H726 0.950 . S
C733 C730 1.387 . S
C734 C735 1.387 1_554 S
C734 H738 0.950 1_554 S
C734 C743 1.390 . S
C735 C734 1.387 1_556 S
C735 C737 1.387 1_556 S
H736 C743 0.950 . S
C737 C735 1.387 1_554 S
C737 C739 1.390 . S
C737 H741 0.950 . S
H738 C734 0.950 1_556 S
C739 C737 1.390 . S
C739 C740 1.387 . S
C739 H742 0.950 . S
C740 C739 1.387 . S
C740 C743 1.387 . S
H741 C737 0.950 . S
H742 C739 0.950 . S
C743 C734 1.390 . S
C743 H736 0.950 . S
C743 C740 1.387 . S
C744 C745 1.387 . S
C744 H748 0.950 . S
C744 C753 1.390 . S
C745 C744 1.387 . S
C745 C747 1.387 . S
H746 C753 0.950 . S
C747 C745 1.387 . S
C747 C749 1.390 . S
C747 H751 0.950 . S
H748 C744 0.950 . S
C749 C747 1.390 . S
C749 C750 1.387 . S
C749 H752 0.950 . S
C750 C749 1.387 . S
C750 C753 1.387 . S
H751 C747 0.950 . S
H752 C749 0.950 . S
C753 C744 1.390 . S
C753 H746 0.950 . S
C753 C750 1.387 . S
C754 C755 1.387 . S
C754 H758 0.950 . S
C754 C763 1.390 . S
C755 C754 1.387 . S
C755 C757 1.387 . S
H756 C763 0.950 . S
C757 C755 1.387 . S
C757 C759 1.390 . S
C757 H761 0.950 . S
H758 C754 0.950 . S
C759 C757 1.390 . S
C759 C760 1.387 . S
C759 H762 0.950 . S
C760 C759 1.387 . S
C760 C763 1.387 . S
H761 C757 0.950 . S
H762 C759 0.950 . S
C763 C754 1.390 . S
C763 H756 0.950 . S
C763 C760 1.387 . S
C764 C765 1.387 . S
C764 H768 0.950 . S
C764 C773 1.390 . S
C765 C764 1.387 . S
C765 C767 1.387 . S
H766 C773 0.950 . S
C767 C765 1.387 . S
C767 C769 1.390 . S
C767 H771 0.950 . S
H768 C764 0.950 . S
C769 C767 1.390 . S
C769 C770 1.387 . S
C769 H772 0.950 . S
C770 C769 1.387 . S
C770 C773 1.387 . S
H771 C767 0.950 . S
H772 C769 0.950 . S
C773 C764 1.390 . S
C773 H766 0.950 . S
C773 C770 1.387 . S
C774 C775 1.376 1_556 S
C774 H778 0.950 . S
C774 C783 1.390 . S
C775 C774 1.376 1_554 S
C775 C777 1.377 1_554 S
H776 C783 0.950 . S
C777 C775 1.377 1_556 S
C777 C779 1.390 . S
C777 H781 0.950 . S
H778 C774 0.950 . S
C779 C777 1.390 . S
C779 C780 1.387 . S
C779 H782 0.950 . S
C780 C779 1.387 . S
C780 C783 1.387 . S
H781 C777 0.950 . S
H782 C779 0.950 . S
C783 C774 1.390 . S
C783 H776 0.950 . S
C783 C780 1.387 . S
C784 C785 1.387 . S
C784 H788 0.950 . S
C784 C793 1.390 . S
C785 C784 1.387 . S
C785 C787 1.387 . S
H786 C793 0.950 . S
C787 C785 1.387 . S
C787 C789 1.390 . S
C787 H791 0.950 . S
H788 C784 0.950 . S
C789 C787 1.390 . S
C789 C790 1.387 . S
C789 H792 0.950 . S
C790 C789 1.387 . S
C790 C793 1.387 . S
H791 C787 0.950 . S
H792 C789 0.950 . S
C793 C784 1.390 . S
C793 H786 0.950 . S
C793 C790 1.387 . S
C794 C795 1.387 . S
C794 H798 0.950 . S
C794 C803 1.390 . S
C795 C794 1.387 . S
C795 C797 1.387 . S
H796 C803 0.950 . S
C797 C795 1.387 . S
C797 C799 1.390 . S
C797 H801 0.950 . S
H798 C794 0.950 . S
C799 C797 1.390 . S
C799 C800 1.387 . S
C799 H802 0.950 . S
C800 C799 1.387 . S
C800 C803 1.387 . S
H801 C797 0.950 . S
H802 C799 0.950 . S
C803 C794 1.390 . S
C803 H796 0.950 . S
C803 C800 1.387 . S
C804 C805 1.387 . S
C804 H808 0.950 . S
C804 C813 1.390 . S
C805 C804 1.387 . S
C805 C807 1.387 . S
H806 C813 0.950 . S
C807 C805 1.387 . S
C807 C809 1.390 . S
C807 H811 0.950 . S
H808 C804 0.950 . S
C809 C807 1.390 . S
C809 C810 1.387 . S
C809 H812 0.950 . S
C810 C809 1.387 . S
C810 C813 1.387 . S
H811 C807 0.950 . S
H812 C809 0.950 . S
C813 C804 1.390 . S
C813 H806 0.950 . S
C813 C810 1.387 . S
C814 C815 1.387 . S
C814 H818 0.950 . S
C814 C823 1.390 . S
C815 C814 1.387 . S
C815 C817 1.387 . S
H816 C823 0.950 . S
C817 C815 1.387 . S
C817 C819 1.390 . S
C817 H821 0.950 . S
H818 C814 0.950 . S
C819 C817 1.390 . S
C819 C820 1.387 . S
C819 H822 0.950 . S
C820 C819 1.387 . S
C820 C823 1.387 . S
H821 C817 0.950 . S
H822 C819 0.950 . S
C823 C814 1.390 . S
C823 H816 0.950 . S
C823 C820 1.387 . S
C824 C825 1.387 . S
C824 H828 0.950 . S
C824 C833 1.390 . S
C825 C824 1.387 . S
C825 C827 1.387 . S
H826 C833 0.950 . S
C827 C825 1.387 . S
C827 C829 1.390 . S
C827 H831 0.950 . S
H828 C824 0.950 . S
C829 C827 1.390 . S
C829 C830 1.387 1_565 S
C829 H832 0.928 1_565 S
C830 C829 1.387 1_545 S
C830 C833 1.387 1_545 S
H831 C827 0.950 . S
H832 C829 0.928 1_545 S
C833 C824 1.390 . S
C833 H826 0.950 . S
C833 C830 1.387 1_565 S
C834 C835 1.387 . S
C834 H838 0.950 . S
C834 C843 1.390 . S
C835 C834 1.387 . S
C835 C837 1.387 . S
H836 C843 0.950 . S
C837 C835 1.387 . S
C837 C839 1.390 . S
C837 H841 0.950 . S
H838 C834 0.950 . S
C839 C837 1.390 . S
C839 C840 1.387 . S
C839 H842 0.950 . S
C840 C839 1.387 . S
C840 C843 1.387 . S
H841 C837 0.950 . S
H842 C839 0.950 . S
C843 C834 1.390 . S
C843 H836 0.950 . S
C843 C840 1.387 . S
C844 C845 1.387 . S
C844 H848 0.950 . S
C844 C853 1.390 . S
C845 C844 1.387 . S
C845 C847 1.387 . S
H846 C853 0.950 . S
C847 C845 1.387 . S
C847 C849 1.390 . S
C847 H851 0.950 . S
H848 C844 0.950 . S
C849 C847 1.390 . S
C849 C850 1.387 . S
C849 H852 0.950 . S
C850 C849 1.387 . S
C850 C853 1.387 . S
H851 C847 0.950 . S
H852 C849 0.950 . S
C853 C844 1.390 . S
C853 H846 0.950 . S
C853 C850 1.387 . S
C854 C855 1.387 . S
C854 H858 0.950 . S
C854 C863 1.390 . S
C855 C854 1.387 . S
C855 C857 1.387 . S
H856 C863 0.950 . S
C857 C855 1.387 . S
C857 C859 1.390 . S
C857 H861 0.950 . S
H858 C854 0.950 . S
C859 C857 1.390 . S
C859 C860 1.387 . S
C859 H862 0.950 . S
C860 C859 1.387 . S
C860 C863 1.387 . S
H861 C857 0.950 . S
H862 C859 0.950 . S
C863 C854 1.390 . S
C863 H856 0.950 . S
C863 C860 1.387 . S
C864 C865 1.387 . S
C864 H868 0.950 . S
C864 C873 1.390 . S
C865 C864 1.387 . S
C865 C867 1.387 . S
H866 C873 0.950 . S
C867 C865 1.387 . S
C867 C869 1.390 . S
C867 H871 0.950 . S
H868 C864 0.950 . S
C869 C867 1.390 . S
C869 C870 1.387 . S
C869 H872 0.950 . S
C870 C869 1.387 . S
C870 C873 1.387 . S
H871 C867 0.950 . S
H872 C869 0.950 . S
C873 C864 1.390 . S
C873 H866 0.950 . S
C873 C870 1.387 . S
C874 C875 1.398 . S
C874 H878 0.950 . S
C874 C883 1.390 . S
C875 C874 1.398 . S
C875 C877 1.398 . S
H876 C883 0.950 . S
C877 C875 1.398 . S
C877 C879 1.390 . S
C877 H881 0.950 . S
H878 C874 0.950 . S
C879 C877 1.390 . S
C879 C880 1.387 . S
C879 H882 0.950 . S
C880 C879 1.387 . S
C880 C883 1.387 . S
H881 C877 0.950 . S
H882 C879 0.950 . S
C883 C874 1.390 . S
C883 H876 0.950 . S
C883 C880 1.387 . S
C884 C885 1.387 . S
C884 H888 0.950 . S
C884 C893 1.390 . S
C885 C884 1.387 . S
C885 C887 1.387 . S
H886 C893 0.950 . S
C887 C885 1.387 . S
C887 C889 1.390 . S
C887 H891 0.950 . S
H888 C884 0.950 . S
C889 C887 1.390 . S
C889 C890 1.387 . S
C889 H892 0.950 . S
C890 C889 1.387 . S
C890 C893 1.387 . S
H891 C887 0.950 . S
H892 C889 0.950 . S
C893 C884 1.390 . S
C893 H886 0.950 . S
C893 C890 1.387 . S
C894 C895 1.387 . S
C894 H898 0.950 . S
C894 C903 1.390 . S
C895 C894 1.387 . S
C895 C897 1.387 . S
H896 C903 0.950 . S
C897 C895 1.387 . S
C897 C899 1.390 . S
C897 H901 0.950 . S
H898 C894 0.950 . S
C899 C897 1.390 . S
C899 C900 1.387 . S
C899 H902 0.950 . S
C900 C899 1.387 . S
C900 C903 1.387 . S
H901 C897 0.950 . S
H902 C899 0.950 . S
C903 C894 1.390 . S
C903 H896 0.950 . S
C903 C900 1.387 . S
C904 C905 1.387 . S
C904 H908 0.950 . S
C904 C913 1.390 . S
C905 C904 1.387 . S
C905 C907 1.387 . S
H906 C913 0.950 . S
C907 C905 1.387 . S
C907 C909 1.390 . S
C907 H911 0.950 . S
H908 C904 0.950 . S
C909 C907 1.390 . S
C909 C910 1.387 . S
C909 H912 0.950 . S
C910 C909 1.387 . S
C910 C913 1.387 . S
H911 C907 0.950 . S
H912 C909 0.950 . S
C913 C904 1.390 . S
C913 H906 0.950 . S
C913 C910 1.387 . S
C914 C915 1.387 . S
C914 H918 0.950 . S
C914 C923 1.390 . S
C915 C914 1.387 . S
C915 C917 1.387 . S
H916 C923 0.950 . S
C917 C915 1.387 . S
C917 C919 1.390 . S
C917 H921 0.950 . S
H918 C914 0.950 . S
C919 C917 1.390 . S
C919 C920 1.387 . S
C919 H922 0.950 . S
C920 C919 1.387 . S
C920 C923 1.387 . S
H921 C917 0.950 . S
H922 C919 0.950 . S
C923 C914 1.390 . S
C923 H916 0.950 . S
C923 C920 1.387 . S
C924 C925 1.387 . S
C924 H928 0.950 . S
C924 C933 1.390 . S
C925 C924 1.387 . S
C925 C927 1.387 . S
H926 C933 0.950 . S
C927 C925 1.387 . S
C927 C929 1.390 . S
C927 H931 0.950 . S
H928 C924 0.950 . S
C929 C927 1.390 . S
C929 C930 1.387 . S
C929 H932 0.950 . S
C930 C929 1.387 . S
C930 C933 1.387 . S
H931 C927 0.950 . S
H932 C929 0.950 . S
C933 C924 1.390 . S
C933 H926 0.950 . S
C933 C930 1.387 . S
C934 C935 1.387 . S
C934 H938 0.950 . S
C934 C943 1.390 . S
C935 C934 1.387 . S
C935 C937 1.387 . S
H936 C943 0.950 . S
C937 C935 1.387 . S
C937 C939 1.390 . S
C937 H941 0.950 . S
H938 C934 0.950 . S
C939 C937 1.390 . S
C939 C940 1.376 1_455 S
C939 H942 0.950 . S
C940 C939 1.376 1_655 S
C940 C943 1.377 1_655 S
H941 C937 0.950 . S
H942 C939 0.950 . S
C943 C934 1.390 . S
C943 H936 0.950 . S
C943 C940 1.377 1_455 S
C944 C945 1.387 . S
C944 H948 0.950 . S
C944 C953 1.390 . S
C945 C944 1.387 . S
C945 C947 1.387 . S
H946 C953 0.950 . S
C947 C945 1.387 . S
C947 C949 1.390 . S
C947 H951 0.950 . S
H948 C944 0.950 . S
C949 C947 1.390 . S
C949 C950 1.387 . S
C949 H952 0.950 . S
C950 C949 1.387 . S
C950 C953 1.387 . S
H951 C947 0.950 . S
H952 C949 0.950 . S
C953 C944 1.390 . S
C953 H946 0.950 . S
C953 C950 1.387 . S
C954 C955 1.387 . S
C954 H958 0.950 . S
C954 C963 1.390 . S
C955 C954 1.387 . S
C955 C957 1.387 . S
H956 C963 0.950 . S
C957 C955 1.387 . S
C957 C959 1.390 . S
C957 H961 0.950 . S
H958 C954 0.950 . S
C959 C957 1.390 . S
C959 C960 1.387 . S
C959 H962 0.950 . S
C960 C959 1.387 . S
C960 C963 1.387 . S
H961 C957 0.950 . S
H962 C959 0.950 . S
C963 C954 1.390 . S
C963 H956 0.950 . S
C963 C960 1.387 . S
C964 C965 1.387 . S
C964 H968 0.950 . S
C964 C973 1.390 . S
C965 C964 1.387 . S
C965 C967 1.387 . S
H966 C973 0.950 . S
C967 C965 1.387 . S
C967 C969 1.390 . S
C967 H971 0.950 . S
H968 C964 0.950 . S
C969 C967 1.390 . S
C969 C970 1.387 . S
C969 H972 0.950 . S
C970 C969 1.387 . S
C970 C973 1.387 . S
H971 C967 0.950 . S
H972 C969 0.950 . S
C973 C964 1.390 . S
C973 H966 0.950 . S
C973 C970 1.387 . S
C974 C975 1.387 . S
C974 H978 0.950 . S
C974 C983 1.390 . S
C975 C974 1.387 . S
C975 C977 1.387 . S
H976 C983 0.950 1_554 S
C977 C975 1.387 . S
C977 C979 1.390 . S
C977 H981 0.950 . S
H978 C974 0.950 . S
C979 C977 1.390 . S
C979 C980 1.387 1_556 S
C979 H982 0.950 1_556 S
C980 C979 1.387 1_554 S
C980 C983 1.387 1_554 S
H981 C977 0.950 . S
H982 C979 0.950 1_554 S
C983 C974 1.390 . S
C983 H976 0.950 1_556 S
C983 C980 1.387 1_556 S
C984 C985 1.387 . S
C984 H988 0.950 . S
C984 C993 1.390 . S
C985 C984 1.387 . S
C985 C987 1.387 . S
H986 C993 0.950 . S
C987 C985 1.387 . S
C987 C989 1.390 . S
C987 H991 0.950 . S
H988 C984 0.950 . S
C989 C987 1.390 . S
C989 C990 1.387 . S
C989 H992 0.950 . S
C990 C989 1.387 . S
C990 C993 1.387 . S
H991 C987 0.950 . S
H992 C989 0.950 . S
C993 C984 1.390 . S
C993 H986 0.950 . S
C993 C990 1.387 . S
C994 C995 1.387 . S
C994 H998 0.950 . S
C994 C1003 1.390 . S
C995 C994 1.387 . S
C995 C997 1.387 . S
H996 C1003 0.950 . S
C997 C995 1.387 . S
C997 C999 1.390 . S
C997 H1001 0.950 . S
H998 C994 0.950 . S
C999 C997 1.390 . S
C999 C1000 1.387 . S
C999 H1002 0.950 . S
C1000 C999 1.387 . S
C1000 C1003 1.387 . S
H1001 C997 0.950 . S
H1002 C999 0.950 . S
C1003 C994 1.390 . S
C1003 H996 0.950 . S
C1003 C1000 1.387 . S
C1004 C1005 1.387 . S
C1004 H1008 0.950 . S
C1004 C1013 1.390 . S
C1005 C1004 1.387 . S
C1005 C1007 1.387 . S
H1006 C1013 0.950 . S
C1007 C1005 1.387 . S
C1007 C1009 1.390 . S
C1007 H1011 0.950 . S
H1008 C1004 0.950 . S
C1009 C1007 1.390 . S
C1009 C1010 1.387 . S
C1009 H1012 0.950 . S
C1010 C1009 1.387 . S
C1010 C1013 1.387 . S
H1011 C1007 0.950 . S
H1012 C1009 0.950 . S
C1013 C1004 1.390 . S
C1013 H1006 0.950 . S
C1013 C1010 1.387 . S
C1014 C1015 1.387 1_554 S
C1014 H1018 0.950 . S
C1014 C1023 1.390 . S
C1015 C1014 1.387 1_556 S
C1015 C1017 1.386 . S
H1016 C1023 0.950 . S
C1017 C1015 1.386 . S
C1017 C1019 1.394 1_556 S
C1017 H1021 0.947 . S
H1018 C1014 0.950 . S
C1019 C1017 1.394 1_554 S
C1019 C1020 1.387 . S
C1019 H1022 0.950 . S
C1020 C1019 1.387 . S
C1020 C1023 1.387 . S
H1021 C1017 0.947 . S
H1022 C1019 0.950 . S
C1023 C1014 1.390 . S
C1023 H1016 0.950 . S
C1023 C1020 1.387 . S
C1024 C1025 1.387 . S
C1024 H1028 0.950 . S
C1024 C1033 1.390 . S
C1025 C1024 1.387 . S
C1025 C1027 1.387 . S
H1026 C1033 0.950 . S
C1027 C1025 1.387 . S
C1027 C1029 1.390 . S
C1027 H1031 0.950 . S
H1028 C1024 0.950 . S
C1029 C1027 1.390 . S
C1029 C1030 1.387 . S
C1029 H1032 0.950 . S
C1030 C1029 1.387 . S
C1030 C1033 1.387 . S
H1031 C1027 0.950 . S
H1032 C1029 0.950 . S
C1033 C1024 1.390 . S
C1033 H1026 0.950 . S
C1033 C1030 1.387 . S
C1034 C1035 1.387 . S
C1034 H1038 0.950 . S
C1034 C1043 1.390 . S
C1035 C1034 1.387 . S
C1035 C1037 1.387 . S
H1036 C1043 0.950 . S
C1037 C1035 1.387 . S
C1037 C1039 1.390 . S
C1037 H1041 0.950 . S
H1038 C1034 0.950 . S
C1039 C1037 1.390 . S
C1039 C1040 1.387 . S
C1039 H1042 0.950 . S
C1040 C1039 1.387 . S
C1040 C1043 1.387 . S
H1041 C1037 0.950 . S
H1042 C1039 0.950 . S
C1043 C1034 1.390 . S
C1043 H1036 0.950 . S
C1043 C1040 1.387 . S
C1044 C1045 1.387 . S
C1044 H1048 0.950 . S
C1044 C1053 1.390 . S
C1045 C1044 1.387 . S
C1045 C1047 1.387 . S
H1046 C1053 0.950 . S
C1047 C1045 1.387 . S
C1047 C1049 1.390 . S
C1047 H1051 0.950 . S
H1048 C1044 0.950 . S
C1049 C1047 1.390 . S
C1049 C1050 1.387 . S
C1049 H1052 0.950 . S
C1050 C1049 1.387 . S
C1050 C1053 1.387 . S
H1051 C1047 0.950 . S
H1052 C1049 0.950 . S
C1053 C1044 1.390 . S
C1053 H1046 0.950 . S
C1053 C1050 1.387 . S
C1054 C1055 1.387 . S
C1054 H1058 0.950 . S
C1054 C1063 1.390 . S
C1055 C1054 1.387 . S
C1055 C1057 1.387 . S
H1056 C1063 0.950 . S
C1057 C1055 1.387 . S
C1057 C1059 1.390 . S
C1057 H1061 0.950 . S
H1058 C1054 0.950 . S
C1059 C1057 1.390 . S
C1059 C1060 1.387 . S
C1059 H1062 0.950 . S
C1060 C1059 1.387 . S
C1060 C1063 1.387 . S
H1061 C1057 0.950 . S
H1062 C1059 0.950 . S
C1063 C1054 1.390 . S
C1063 H1056 0.950 . S
C1063 C1060 1.387 . S
C1064 C1065 1.387 1_545 S
C1064 H1068 0.950 1_545 S
C1064 C1073 1.390 . S
C1065 C1064 1.387 1_565 S
C1065 C1067 1.387 1_565 S
H1066 C1073 0.950 . S
C1067 C1065 1.387 1_545 S
C1067 C1069 1.390 . S
C1067 H1071 0.950 . S
H1068 C1064 0.950 1_565 S
C1069 C1067 1.390 . S
C1069 C1070 1.387 . S
C1069 H1072 0.950 . S
C1070 C1069 1.387 . S
C1070 C1073 1.387 . S
H1071 C1067 0.950 . S
H1072 C1069 0.950 . S
C1073 C1064 1.390 . S
C1073 H1066 0.950 . S
C1073 C1070 1.387 . S
C1074 C1075 1.387 . S
C1074 H1078 0.950 . S
C1074 C1083 1.390 . S
C1075 C1074 1.387 . S
C1075 C1077 1.387 . S
H1076 C1083 0.950 . S
C1077 C1075 1.387 . S
C1077 C1079 1.390 . S
C1077 H1081 0.950 . S
H1078 C1074 0.950 . S
C1079 C1077 1.390 . S
C1079 C1080 1.387 . S
C1079 H1082 0.950 . S
C1080 C1079 1.387 . S
C1080 C1083 1.387 . S
H1081 C1077 0.950 . S
H1082 C1079 0.950 . S
C1083 C1074 1.390 . S
C1083 H1076 0.950 . S
C1083 C1080 1.387 . S
C1084 C1085 1.387 . S
C1084 H1088 0.950 . S
C1084 C1093 1.390 . S
C1085 C1084 1.387 . S
C1085 C1087 1.387 . S
H1086 C1093 0.950 . S
C1087 C1085 1.387 . S
C1087 C1089 1.390 . S
C1087 H1091 0.950 . S
H1088 C1084 0.950 . S
C1089 C1087 1.390 . S
C1089 C1090 1.387 . S
C1089 H1092 0.950 . S
C1090 C1089 1.387 . S
C1090 C1093 1.387 . S
H1091 C1087 0.950 . S
H1092 C1089 0.950 . S
C1093 C1084 1.390 . S
C1093 H1086 0.950 . S
C1093 C1090 1.387 . S
C1094 C1095 1.387 . S
C1094 H1098 0.950 . S
C1094 C1103 1.390 . S
C1095 C1094 1.387 . S
C1095 C1097 1.387 . S
H1096 C1103 0.950 . S
C1097 C1095 1.387 . S
C1097 C1099 1.390 . S
C1097 H1101 0.950 . S
H1098 C1094 0.950 . S
C1099 C1097 1.390 . S
C1099 C1100 1.387 . S
C1099 H1102 0.950 . S
C1100 C1099 1.387 . S
C1100 C1103 1.387 . S
H1101 C1097 0.950 . S
H1102 C1099 0.950 . S
C1103 C1094 1.390 . S
C1103 H1096 0.950 . S
C1103 C1100 1.387 . S
C1104 C1105 1.387 . S
C1104 H1108 0.950 . S
C1104 C1113 1.390 . S
C1105 C1104 1.387 . S
C1105 C1107 1.387 . S
H1106 C1113 0.950 . S
C1107 C1105 1.387 . S
C1107 C1109 1.390 . S
C1107 H1111 0.950 . S
H1108 C1104 0.950 . S
C1109 C1107 1.390 . S
C1109 C1110 1.387 . S
C1109 H1112 0.950 . S
C1110 C1109 1.387 . S
C1110 C1113 1.387 . S
H1111 C1107 0.950 . S
H1112 C1109 0.950 . S
C1113 C1104 1.390 . S
C1113 H1106 0.950 . S
C1113 C1110 1.387 . S
C1114 C1115 1.387 . S
C1114 H1118 0.950 . S
C1114 C1123 1.390 . S
C1115 C1114 1.387 . S
C1115 C1117 1.387 . S
H1116 C1123 0.950 . S
C1117 C1115 1.387 . S
C1117 C1119 1.390 . S
C1117 H1121 0.950 . S
H1118 C1114 0.950 . S
C1119 C1117 1.390 . S
C1119 C1120 1.387 . S
C1119 H1122 0.950 . S
C1120 C1119 1.387 . S
C1120 C1123 1.387 . S
H1121 C1117 0.950 . S
H1122 C1119 0.950 . S
C1123 C1114 1.390 . S
C1123 H1116 0.950 . S
C1123 C1120 1.387 . S
C1124 C1125 1.387 . S
C1124 H1128 0.950 . S
C1124 C1133 1.390 . S
C1125 C1124 1.387 . S
C1125 C1127 1.387 . S
H1126 C1133 0.950 . S
C1127 C1125 1.387 . S
C1127 C1129 1.390 . S
C1127 H1131 0.950 . S
H1128 C1124 0.950 . S
C1129 C1127 1.390 . S
C1129 C1130 1.387 . S
C1129 H1132 0.950 . S
C1130 C1129 1.387 . S
C1130 C1133 1.387 . S
H1131 C1127 0.950 . S
H1132 C1129 0.950 . S
C1133 C1124 1.390 . S
C1133 H1126 0.950 . S
C1133 C1130 1.387 . S
C1134 C1135 1.387 1_455 S
C1134 H1138 0.950 1_455 S
C1134 C1143 1.390 . S
C1135 C1134 1.387 1_655 S
C1135 C1137 1.387 1_655 S
H1136 C1143 0.950 . S
C1137 C1135 1.387 1_455 S
C1137 C1139 1.390 . S
C1137 H1141 0.950 1_455 S
H1138 C1134 0.950 1_655 S
C1139 C1137 1.390 . S
C1139 C1140 1.387 . S
C1139 H1142 0.950 . S
C1140 C1139 1.387 . S
C1140 C1143 1.387 . S
H1141 C1137 0.950 1_655 S
H1142 C1139 0.950 . S
C1143 C1134 1.390 . S
C1143 H1136 0.950 . S
C1143 C1140 1.387 . S
C1144 C1145 1.387 . S
C1144 H1148 0.950 . S
C1144 C1153 1.390 . S
C1145 C1144 1.387 . S
C1145 C1147 1.387 . S
H1146 C1153 0.950 . S
C1147 C1145 1.387 . S
C1147 C1149 1.390 . S
C1147 H1151 0.950 . S
H1148 C1144 0.950 . S
C1149 C1147 1.390 . S
C1149 C1150 1.387 . S
C1149 H1152 0.950 . S
C1150 C1149 1.387 . S
C1150 C1153 1.387 . S
H1151 C1147 0.950 . S
H1152 C1149 0.950 . S
C1153 C1144 1.390 . S
C1153 H1146 0.950 . S
C1153 C1150 1.387 . S
C1154 C1155 1.387 . S
C1154 H1158 0.950 . S
C1154 C1163 1.390 . S
C1155 C1154 1.387 . S
C1155 C1157 1.387 . S
H1156 C1163 0.950 1_655 S
C1157 C1155 1.387 . S
C1157 C1159 1.390 . S
C1157 H1161 0.950 . S
H1158 C1154 0.950 . S
C1159 C1157 1.390 . S
C1159 C1160 1.387 1_455 S
C1159 H1162 0.950 1_455 S
C1160 C1159 1.387 1_655 S
C1160 C1163 1.387 1_655 S
H1161 C1157 0.950 . S
H1162 C1159 0.950 1_655 S
C1163 C1154 1.390 . S
C1163 H1156 0.950 1_455 S
C1163 C1160 1.387 1_455 S
C1164 C1165 1.387 . S
C1164 H1168 0.950 . S
C1164 C1173 1.390 . S
C1165 C1164 1.387 . S
C1165 C1167 1.387 . S
H1166 C1173 0.950 . S
C1167 C1165 1.387 . S
C1167 C1169 1.390 . S
C1167 H1171 0.950 . S
H1168 C1164 0.950 . S
C1169 C1167 1.390 . S
C1169 C1170 1.387 . S
C1169 H1172 0.950 . S
C1170 C1169 1.387 . S
C1170 C1173 1.387 . S
H1171 C1167 0.950 . S
H1172 C1169 0.950 . S
C1173 C1164 1.390 . S
C1173 H1166 0.950 . S
C1173 C1170 1.387 . S
C1174 C1175 1.387 . S
C1174 H1178 0.950 . S
C1174 C1183 1.390 . S
C1175 C1174 1.387 . S
C1175 C1177 1.387 . S
H1176 C1183 0.950 . S
C1177 C1175 1.387 . S
C1177 C1179 1.390 . S
C1177 H1181 0.950 . S
H1178 C1174 0.950 . S
C1179 C1177 1.390 . S
C1179 C1180 1.387 . S
C1179 H1182 0.950 . S
C1180 C1179 1.387 . S
C1180 C1183 1.387 . S
H1181 C1177 0.950 . S
H1182 C1179 0.950 . S
C1183 C1174 1.390 . S
C1183 H1176 0.950 . S
C1183 C1180 1.387 . S
C1184 C1185 1.387 . S
C1184 H1188 0.950 . S
C1184 C1193 1.390 . S
C1185 C1184 1.387 . S
C1185 C1187 1.387 . S
H1186 C1193 0.950 . S
C1187 C1185 1.387 . S
C1187 C1189 1.390 . S
C1187 H1191 0.950 . S
H1188 C1184 0.950 . S
C1189 C1187 1.390 . S
C1189 C1190 1.387 . S
C1189 H1192 0.950 . S
C1190 C1189 1.387 . S
C1190 C1193 1.387 . S
H1191 C1187 0.950 . S
H1192 C1189 0.950 . S
C1193 C1184 1.390 . S
C1193 H1186 0.950 . S
C1193 C1190 1.387 . S
C1194 C1195 1.387 . S
C1194 H1198 0.950 . S
C1194 C1203 1.390 . S
C1195 C1194 1.387 . S
C1195 C1197 1.387 . S
H1196 C1203 0.950 1_556 S
C1197 C1195 1.387 . S
C1197 C1199 1.390 . S
C1197 H1201 0.950 . S
H1198 C1194 0.950 . S
C1199 C1197 1.390 . S
C1199 C1200 1.387 1_554 S
C1199 H1202 0.950 . S
C1200 C1199 1.387 1_556 S
C1200 C1203 1.387 1_556 S
H1201 C1197 0.950 . S
H1202 C1199 0.950 . S
C1203 C1194 1.390 . S
C1203 H1196 0.950 1_554 S
C1203 C1200 1.387 1_554 S
C1204 C1205 1.387 . S
C1204 H1208 0.950 . S
C1204 C1213 1.390 . S
C1205 C1204 1.387 . S
C1205 C1207 1.387 . S
H1206 C1213 0.950 . S
C1207 C1205 1.387 . S
C1207 C1209 1.390 . S
C1207 H1211 0.950 . S
H1208 C1204 0.950 . S
C1209 C1207 1.390 . S
C1209 C1210 1.387 . S
C1209 H1212 0.950 . S
C1210 C1209 1.387 . S
C1210 C1213 1.387 . S
H1211 C1207 0.950 . S
H1212 C1209 0.950 . S
C1213 C1204 1.390 . S
C1213 H1206 0.950 . S
C1213 C1210 1.387 . S
C1214 C1215 1.387 . S
C1214 H1218 0.950 . S
C1214 C1223 1.390 . S
C1215 C1214 1.387 . S
C1215 C1217 1.387 . S
H1216 C1223 0.950 . S
C1217 C1215 1.387 . S
C1217 C1219 1.390 . S
C1217 H1221 0.950 . S
H1218 C1214 0.950 . S
C1219 C1217 1.390 . S
C1219 C1220 1.387 . S
C1219 H1222 0.950 . S
C1220 C1219 1.387 . S
C1220 C1223 1.387 . S
H1221 C1217 0.950 . S
H1222 C1219 0.950 . S
C1223 C1214 1.390 . S
C1223 H1216 0.950 . S
C1223 C1220 1.387 . S
C1224 C1225 1.387 . S
C1224 H1228 0.950 . S
C1224 C1233 1.390 . S
C1225 C1224 1.387 . S
C1225 C1227 1.387 . S
H1226 C1233 0.950 . S
C1227 C1225 1.387 . S
C1227 C1229 1.390 . S
C1227 H1231 0.950 . S
H1228 C1224 0.950 . S
C1229 C1227 1.390 . S
C1229 C1230 1.387 . S
C1229 H1232 0.950 . S
C1230 C1229 1.387 . S
C1230 C1233 1.387 . S
H1231 C1227 0.950 . S
H1232 C1229 0.950 . S
C1233 C1224 1.390 . S
C1233 H1226 0.950 . S
C1233 C1230 1.387 . S
C1234 C1235 1.387 . S
C1234 H1238 0.950 . S
C1234 C1243 1.390 . S
C1235 C1234 1.387 . S
C1235 C1237 1.387 . S
H1236 C1243 0.950 . S
C1237 C1235 1.387 . S
C1237 C1239 1.390 . S
C1237 H1241 0.950 . S
H1238 C1234 0.950 . S
C1239 C1237 1.390 . S
C1239 C1240 1.389 1_556 S
C1239 H1242 0.950 1_556 S
C1240 C1239 1.389 1_554 S
C1240 C1243 1.390 1_554 S
H1241 C1237 0.950 . S
H1242 C1239 0.950 1_554 S
C1243 C1234 1.390 . S
C1243 H1236 0.950 . S
C1243 C1240 1.390 1_556 S
C1244 C1245 1.387 . S
C1244 H1248 0.950 . S
C1244 C1253 1.390 . S
C1245 C1244 1.387 . S
C1245 C1247 1.387 . S
H1246 C1253 0.950 . S
C1247 C1245 1.387 . S
C1247 C1249 1.390 . S
C1247 H1251 0.950 . S
H1248 C1244 0.950 . S
C1249 C1247 1.390 . S
C1249 C1250 1.387 . S
C1249 H1252 0.950 . S
C1250 C1249 1.387 . S
C1250 C1253 1.387 . S
H1251 C1247 0.950 . S
H1252 C1249 0.950 . S
C1253 C1244 1.390 . S
C1253 H1246 0.950 . S
C1253 C1250 1.387 . S
C1254 C1255 1.387 . S
C1254 H1258 0.950 . S
C1254 C1263 1.390 . S
C1255 C1254 1.387 . S
C1255 C1257 1.387 . S
H1256 C1263 0.950 . S
C1257 C1255 1.387 . S
C1257 C1259 1.390 . S
C1257 H1261 0.950 . S
H1258 C1254 0.950 . S
C1259 C1257 1.390 . S
C1259 C1260 1.387 . S
C1259 H1262 0.950 . S
C1260 C1259 1.387 . S
C1260 C1263 1.387 . S
H1261 C1257 0.950 . S
H1262 C1259 0.950 . S
C1263 C1254 1.390 . S
C1263 H1256 0.950 . S
C1263 C1260 1.387 . S
C1264 C1265 1.387 . S
C1264 H1268 0.950 . S
C1264 C1273 1.390 . S
C1265 C1264 1.387 . S
C1265 C1267 1.387 . S
H1266 C1273 0.950 . S
C1267 C1265 1.387 . S
C1267 C1269 1.390 . S
C1267 H1271 0.950 . S
H1268 C1264 0.950 . S
C1269 C1267 1.390 . S
C1269 C1270 1.387 . S
C1269 H1272 0.950 . S
C1270 C1269 1.387 . S
C1270 C1273 1.387 . S
H1271 C1267 0.950 . S
H1272 C1269 0.950 . S
C1273 C1264 1.390 . S
C1273 H1266 0.950 . S
C1273 C1270 1.387 . S
C1274 C1275 1.387 . S
C1274 H1278 0.950 . S
C1274 C1283 1.390 . S
C1275 C1274 1.387 . S
C1275 C1277 1.387 . S
H1276 C1283 0.950 . S
C1277 C1275 1.387 . S
C1277 C1279 1.390 . S
C1277 H1281 0.950 . S
H1278 C1274 0.950 . S
C1279 C1277 1.390 . S
C1279 C1280 1.387 . S
C1279 H1282 0.950 . S
C1280 C1279 1.387 . S
C1280 C1283 1.387 . S
H1281 C1277 0.950 . S
H1282 C1279 0.950 . S
C1283 C1274 1.390 . S
C1283 H1276 0.950 . S
C1283 C1280 1.387 . S
C1284 C1285 1.387 . S
C1284 H1288 0.950 . S
C1284 C1293 1.390 . S
C1285 C1284 1.387 . S
C1285 C1287 1.387 . S
H1286 C1293 0.950 1_565 S
C1287 C1285 1.387 . S
C1287 C1289 1.390 . S
C1287 H1291 0.950 . S
H1288 C1284 0.950 . S
C1289 C1287 1.390 . S
C1289 C1290 1.387 1_545 S
C1289 H1292 0.950 . S
C1290 C1289 1.387 1_565 S
C1290 C1293 1.387 1_565 S
H1291 C1287 0.950 . S
H1292 C1289 0.950 . S
C1293 C1284 1.390 . S
C1293 H1286 0.950 1_545 S
C1293 C1290 1.387 1_545 S
C1294 C1295 1.387 . S
C1294 H1298 0.950 . S
C1294 C1303 1.390 . S
C1295 C1294 1.387 . S
C1295 C1297 1.387 . S
H1296 C1303 0.950 . S
C1297 C1295 1.387 . S
C1297 C1299 1.390 . S
C1297 H1301 0.950 . S
H1298 C1294 0.950 . S
C1299 C1297 1.390 . S
C1299 C1300 1.387 . S
C1299 H1302 0.950 . S
C1300 C1299 1.387 . S
C1300 C1303 1.387 . S
H1301 C1297 0.950 . S
H1302 C1299 0.950 . S
C1303 C1294 1.390 . S
C1303 H1296 0.950 . S
C1303 C1300 1.387 . S
C1304 C1305 1.387 . S
C1304 H1308 0.950 . S
C1304 C1313 1.390 . S
C1305 C1304 1.387 . S
C1305 C1307 1.387 . S
H1306 C1313 0.950 . S
C1307 C1305 1.387 . S
C1307 C1309 1.390 . S
C1307 H1311 0.950 . S
H1308 C1304 0.950 . S
C1309 C1307 1.390 . S
C1309 C1310 1.387 . S
C1309 H1312 0.950 . S
C1310 C1309 1.387 . S
C1310 C1313 1.387 . S
H1311 C1307 0.950 . S
H1312 C1309 0.950 . S
C1313 C1304 1.390 . S
C1313 H1306 0.950 . S
C1313 C1310 1.387 . S
C1314 C1315 1.387 . S
C1314 H1318 0.950 . S
C1314 C1323 1.390 . S
C1315 C1314 1.387 . S
C1315 C1317 1.387 . S
H1316 C1323 0.950 . S
C1317 C1315 1.387 . S
C1317 C1319 1.390 . S
C1317 H1321 0.950 . S
H1318 C1314 0.950 . S
C1319 C1317 1.390 . S
C1319 C1320 1.387 . S
C1319 H1322 0.950 . S
C1320 C1319 1.387 . S
C1320 C1323 1.387 . S
H1321 C1317 0.950 . S
H1322 C1319 0.950 . S
C1323 C1314 1.390 . S
C1323 H1316 0.950 . S
C1323 C1320 1.387 . S
C1324 C1325 1.387 1_565 S
C1324 H1328 0.950 1_565 S
C1324 C1333 1.390 . S
C1325 C1324 1.387 1_545 S
C1325 C1327 1.387 1_545 S
H1326 C1333 0.950 . S
C1327 C1325 1.387 1_565 S
C1327 C1329 1.390 . S
C1327 H1331 0.950 1_565 S
H1328 C1324 0.950 1_545 S
C1329 C1327 1.390 . S
C1329 C1330 1.387 . S
C1329 H1332 0.950 . S
C1330 C1329 1.387 . S
C1330 C1333 1.387 . S
H1331 C1327 0.950 1_545 S
H1332 C1329 0.950 . S
C1333 C1324 1.390 . S
C1333 H1326 0.950 . S
C1333 C1330 1.387 . S
C1334 C1335 1.387 . S
C1334 H1338 0.950 . S
C1334 C1343 1.390 . S
C1335 C1334 1.387 . S
C1335 C1337 1.387 . S
H1336 C1343 0.950 1_565 S
C1337 C1335 1.387 . S
C1337 C1339 1.390 . S
C1337 H1341 0.950 . S
H1338 C1334 0.950 . S
C1339 C1337 1.390 . S
C1339 C1340 1.387 1_545 S
C1339 H1342 0.950 1_545 S
C1340 C1339 1.387 1_565 S
C1340 C1343 1.387 1_565 S
H1341 C1337 0.950 . S
H1342 C1339 0.950 1_565 S
C1343 C1334 1.390 . S
C1343 H1336 0.950 1_545 S
C1343 C1340 1.387 1_545 S
C1344 C1345 1.387 . S
C1344 H1348 0.950 . S
C1344 C1353 1.390 . S
C1345 C1344 1.387 . S
C1345 C1347 1.387 . S
H1346 C1353 0.950 . S
C1347 C1345 1.387 . S
C1347 C1349 1.390 . S
C1347 H1351 0.950 . S
H1348 C1344 0.950 . S
C1349 C1347 1.390 . S
C1349 C1350 1.387 . S
C1349 H1352 0.950 . S
C1350 C1349 1.387 . S
C1350 C1353 1.387 . S
H1351 C1347 0.950 . S
H1352 C1349 0.950 . S
C1353 C1344 1.390 . S
C1353 H1346 0.950 . S
C1353 C1350 1.387 . S
C1354 C1355 1.387 . S
C1354 H1358 0.950 . S
C1354 C1363 1.390 . S
C1355 C1354 1.387 . S
C1355 C1357 1.387 . S
H1356 C1363 0.950 . S
C1357 C1355 1.387 . S
C1357 C1359 1.390 . S
C1357 H1361 0.950 . S
H1358 C1354 0.950 . S
C1359 C1357 1.390 . S
C1359 C1360 1.387 . S
C1359 H1362 0.950 . S
C1360 C1359 1.387 . S
C1360 C1363 1.387 . S
H1361 C1357 0.950 . S
H1362 C1359 0.950 . S
C1363 C1354 1.390 . S
C1363 H1356 0.950 . S
C1363 C1360 1.387 . S
C1364 C1365 1.387 . S
C1364 H1368 0.950 . S
C1364 C1373 1.390 . S
C1365 C1364 1.387 . S
C1365 C1367 1.387 . S
H1366 C1373 0.950 . S
C1367 C1365 1.387 . S
C1367 C1369 1.390 . S
C1367 H1371 0.950 . S
H1368 C1364 0.950 . S
C1369 C1367 1.390 . S
C1369 C1370 1.387 . S
C1369 H1372 0.950 . S
C1370 C1369 1.387 . S
C1370 C1373 1.387 . S
H1371 C1367 0.950 . S
H1372 C1369 0.950 . S
C1373 C1364 1.390 . S
C1373 H1366 0.950 . S
C1373 C1370 1.387 . S
C1374 C1375 1.387 . S
C1374 H1378 0.950 . S
C1374 C1383 1.390 . S
C1375 C1374 1.387 . S
C1375 C1377 1.387 . S
H1376 C1383 0.950 . S
C1377 C1375 1.387 . S
C1377 C1379 1.390 . S
C1377 H1381 0.950 . S
H1378 C1374 0.950 . S
C1379 C1377 1.390 . S
C1379 C1380 1.387 . S
C1379 H1382 0.950 . S
C1380 C1379 1.387 . S
C1380 C1383 1.387 . S
H1381 C1377 0.950 . S
H1382 C1379 0.950 . S
C1383 C1374 1.390 . S
C1383 H1376 0.950 . S
C1383 C1380 1.387 . S
C1384 C1385 1.387 . S
C1384 H1388 0.950 . S
C1384 C1393 1.390 . S
C1385 C1384 1.387 . S
C1385 C1387 1.387 . S
H1386 C1393 0.950 . S
C1387 C1385 1.387 . S
C1387 C1389 1.390 . S
C1387 H1391 0.950 . S
H1388 C1384 0.950 . S
C1389 C1387 1.390 . S
C1389 C1390 1.387 . S
C1389 H1392 0.950 . S
C1390 C1389 1.387 . S
C1390 C1393 1.387 . S
H1391 C1387 0.950 . S
H1392 C1389 0.950 . S
C1393 C1384 1.390 . S
C1393 H1386 0.950 . S
C1393 C1390 1.387 . S
C1394 C1395 1.381 1_655 S
C1394 H1398 0.950 . S
C1394 C1403 1.390 . S
C1395 C1394 1.381 1_455 S
C1395 C1397 1.381 1_455 S
H1396 C1403 0.950 . S
C1397 C1395 1.381 1_655 S
C1397 C1399 1.390 . S
C1397 H1401 0.950 . S
H1398 C1394 0.950 . S
C1399 C1397 1.390 . S
C1399 C1400 1.387 . S
C1399 H1402 0.950 . S
C1400 C1399 1.387 . S
C1400 C1403 1.387 . S
H1401 C1397 0.950 . S
H1402 C1399 0.950 . S
C1403 C1394 1.390 . S
C1403 H1396 0.950 . S
C1403 C1400 1.387 . S
C1404 C1405 1.387 . S
C1404 H1408 0.950 . S
C1404 C1413 1.390 . S
C1405 C1404 1.387 . S
C1405 C1407 1.387 . S
H1406 C1413 0.950 . S
C1407 C1405 1.387 . S
C1407 C1409 1.390 . S
C1407 H1411 0.950 . S
H1408 C1404 0.950 . S
C1409 C1407 1.390 . S
C1409 C1410 1.387 . S
C1409 H1412 0.950 . S
C1410 C1409 1.387 . S
C1410 C1413 1.387 . S
H1411 C1407 0.950 . S
H1412 C1409 0.950 . S
C1413 C1404 1.390 . S
C1413 H1406 0.950 . S
C1413 C1410 1.387 . S
C1414 C1415 1.387 . S
C1414 H1418 0.950 . S
C1414 C1423 1.390 . S
C1415 C1414 1.387 . S
C1415 C1417 1.387 . S
H1416 C1423 0.950 . S
C1417 C1415 1.387 . S
C1417 C1419 1.390 . S
C1417 H1421 0.950 . S
H1418 C1414 0.950 . S
C1419 C1417 1.390 . S
C1419 C1420 1.387 . S
C1419 H1422 0.950 . S
C1420 C1419 1.387 . S
C1420 C1423 1.387 . S
H1421 C1417 0.950 . S
H1422 C1419 0.950 . S
C1423 C1414 1.390 . S
C1423 H1416 0.950 . S
C1423 C1420 1.387 . S
C1424 C1425 1.387 . S
C1424 H1428 0.950 . S
C1424 C1433 1.390 . S
C1425 C1424 1.387 . S
C1425 C1427 1.387 . S
H1426 C1433 0.950 . S
C1427 C1425 1.387 . S
C1427 C1429 1.390 . S
C1427 H1431 0.950 . S
H1428 C1424 0.950 . S
C1429 C1427 1.390 . S
C1429 C1430 1.387 . S
C1429 H1432 0.950 . S
C1430 C1429 1.387 . S
C1430 C1433 1.387 . S
H1431 C1427 0.950 . S
H1432 C1429 0.950 . S
C1433 C1424 1.390 . S
C1433 H1426 0.950 . S
C1433 C1430 1.387 . S
C1434 C1435 1.387 . S
C1434 H1438 0.950 . S
C1434 C1443 1.390 . S
C1435 C1434 1.387 . S
C1435 C1437 1.387 . S
H1436 C1443 0.950 1_554 S
C1437 C1435 1.387 . S
C1437 C1439 1.390 . S
C1437 H1441 0.950 . S
H1438 C1434 0.950 . S
C1439 C1437 1.390 . S
C1439 C1440 1.387 1_556 S
C1439 H1442 0.950 . S
C1440 C1439 1.387 1_554 S
C1440 C1443 1.387 1_554 S
H1441 C1437 0.950 . S
H1442 C1439 0.950 . S
C1443 C1434 1.390 . S
C1443 H1436 0.950 1_556 S
C1443 C1440 1.387 1_556 S
C1444 C1445 1.387 . S
C1444 H1448 0.950 . S
C1444 C1453 1.390 . S
C1445 C1444 1.387 . S
C1445 C1447 1.387 . S
H1446 C1453 0.950 . S
C1447 C1445 1.387 . S
C1447 C1449 1.390 . S
C1447 H1451 0.950 . S
H1448 C1444 0.950 . S
C1449 C1447 1.390 . S
C1449 C1450 1.387 . S
C1449 H1452 0.950 . S
C1450 C1449 1.387 . S
C1450 C1453 1.387 . S
H1451 C1447 0.950 . S
H1452 C1449 0.950 . S
C1453 C1444 1.390 . S
C1453 H1446 0.950 . S
C1453 C1450 1.387 . S
C1454 C1455 1.387 . S
C1454 H1458 0.950 . S
C1454 C1463 1.390 . S
C1455 C1454 1.387 . S
C1455 C1457 1.387 . S
H1456 C1463 0.950 . S
C1457 C1455 1.387 . S
C1457 C1459 1.390 . S
C1457 H1461 0.950 . S
H1458 C1454 0.950 . S
C1459 C1457 1.390 . S
C1459 C1460 1.387 . S
C1459 H1462 0.950 . S
C1460 C1459 1.387 . S
C1460 C1463 1.387 . S
H1461 C1457 0.950 . S
H1462 C1459 0.950 . S
C1463 C1454 1.390 . S
C1463 H1456 0.950 . S
C1463 C1460 1.387 . S
C1464 C1465 1.387 . S
C1464 H1468 0.950 . S
C1464 C1473 1.390 . S
C1465 C1464 1.387 . S
C1465 C1467 1.387 . S
H1466 C1473 0.950 . S
C1467 C1465 1.387 . S
C1467 C1469 1.390 . S
C1467 H1471 0.950 . S
H1468 C1464 0.950 . S
C1469 C1467 1.390 . S
C1469 C1470 1.387 . S
C1469 H1472 0.950 . S
C1470 C1469 1.387 . S
C1470 C1473 1.387 . S
H1471 C1467 0.950 . S
H1472 C1469 0.950 . S
C1473 C1464 1.390 . S
C1473 H1466 0.950 . S
C1473 C1470 1.387 . S
C1474 C1475 1.387 . S
C1474 H1478 0.950 . S
C1474 C1483 1.390 . S
C1475 C1474 1.387 . S
C1475 C1477 1.387 . S
H1476 C1483 0.950 1_556 S
C1477 C1475 1.387 . S
C1477 C1479 1.390 . S
C1477 H1481 0.950 . S
H1478 C1474 0.950 . S
C1479 C1477 1.390 . S
C1479 C1480 1.387 1_554 S
C1479 H1482 0.944 1_554 S
C1480 C1479 1.387 1_556 S
C1480 C1483 1.387 1_556 S
H1481 C1477 0.950 . S
H1482 C1479 0.944 1_556 S
C1483 C1474 1.390 . S
C1483 H1476 0.950 1_554 S
C1483 C1480 1.387 1_554 S
C1484 C1485 1.387 . S
C1484 H1488 0.950 . S
C1484 C1493 1.390 . S
C1485 C1484 1.387 . S
C1485 C1487 1.387 . S
H1486 C1493 0.950 . S
C1487 C1485 1.387 . S
C1487 C1489 1.390 . S
C1487 H1491 0.950 . S
H1488 C1484 0.950 . S
C1489 C1487 1.390 . S
C1489 C1490 1.387 . S
C1489 H1492 0.950 . S
C1490 C1489 1.387 . S
C1490 C1493 1.387 . S
H1491 C1487 0.950 . S
H1492 C1489 0.950 . S
C1493 C1484 1.390 . S
C1493 H1486 0.950 . S
C1493 C1490 1.387 . S
C1494 C1495 1.387 . S
C1494 H1498 0.950 . S
C1494 C1503 1.390 . S
C1495 C1494 1.387 . S
C1495 C1497 1.387 . S
H1496 C1503 0.950 . S
C1497 C1495 1.387 . S
C1497 C1499 1.390 . S
C1497 H1501 0.950 . S
H1498 C1494 0.950 . S
C1499 C1497 1.390 . S
C1499 C1500 1.387 . S
C1499 H1502 0.950 . S
C1500 C1499 1.387 . S
C1500 C1503 1.387 . S
H1501 C1497 0.950 . S
H1502 C1499 0.950 . S
C1503 C1494 1.390 . S
C1503 H1496 0.950 . S
C1503 C1500 1.387 . S
C1504 C1505 1.387 . S
C1504 H1508 0.950 . S
C1504 C1513 1.390 . S
C1505 C1504 1.387 . S
C1505 C1507 1.387 . S
H1506 C1513 0.950 . S
C1507 C1505 1.387 . S
C1507 C1509 1.390 . S
C1507 H1511 0.950 . S
H1508 C1504 0.950 . S
C1509 C1507 1.390 . S
C1509 C1510 1.387 . S
C1509 H1512 0.950 . S
C1510 C1509 1.387 . S
C1510 C1513 1.387 . S
H1511 C1507 0.950 . S
H1512 C1509 0.950 . S
C1513 C1504 1.390 . S
C1513 H1506 0.950 . S
C1513 C1510 1.387 . S
C1514 C1515 1.387 . S
C1514 H1518 0.950 . S
C1514 C1523 1.390 . S
C1515 C1514 1.387 . S
C1515 C1517 1.387 . S
H1516 C1523 0.950 . S
C1517 C1515 1.387 . S
C1517 C1519 1.390 . S
C1517 H1521 0.950 . S
H1518 C1514 0.950 . S
C1519 C1517 1.390 . S
C1519 C1520 1.387 . S
C1519 H1522 0.950 . S
C1520 C1519 1.387 . S
C1520 C1523 1.387 . S
H1521 C1517 0.950 . S
H1522 C1519 0.950 . S
C1523 C1514 1.390 . S
C1523 H1516 0.950 . S
C1523 C1520 1.387 . S
C1524 C1525 1.387 . S
C1524 H1528 0.950 . S
C1524 C1533 1.390 . S
C1525 C1524 1.387 . S
C1525 C1527 1.387 . S
H1526 C1533 0.950 . S
C1527 C1525 1.387 . S
C1527 C1529 1.390 . S
C1527 H1531 0.950 . S
H1528 C1524 0.950 . S
C1529 C1527 1.390 . S
C1529 C1530 1.387 1_565 S
C1529 H1532 0.945 1_565 S
C1530 C1529 1.387 1_545 S
C1530 C1533 1.387 1_545 S
H1531 C1527 0.950 . S
H1532 C1529 0.945 1_545 S
C1533 C1524 1.390 . S
C1533 H1526 0.950 . S
C1533 C1530 1.387 1_565 S
C1534 C1535 1.387 . S
C1534 H1538 0.950 . S
C1534 C1543 1.390 . S
C1535 C1534 1.387 . S
C1535 C1537 1.387 . S
H1536 C1543 0.950 . S
C1537 C1535 1.387 . S
C1537 C1539 1.390 . S
C1537 H1541 0.950 . S
H1538 C1534 0.950 . S
C1539 C1537 1.390 . S
C1539 C1540 1.387 . S
C1539 H1542 0.950 . S
C1540 C1539 1.387 . S
C1540 C1543 1.387 . S
H1541 C1537 0.950 . S
H1542 C1539 0.950 . S
C1543 C1534 1.390 . S
C1543 H1536 0.950 . S
C1543 C1540 1.387 . S
C1544 C1545 1.387 . S
C1544 H1548 0.950 . S
C1544 C1553 1.390 . S
C1545 C1544 1.387 . S
C1545 C1547 1.387 . S
H1546 C1553 0.950 . S
C1547 C1545 1.387 . S
C1547 C1549 1.390 . S
C1547 H1551 0.950 . S
H1548 C1544 0.950 . S
C1549 C1547 1.390 . S
C1549 C1550 1.387 . S
C1549 H1552 0.950 . S
C1550 C1549 1.387 . S
C1550 C1553 1.387 . S
H1551 C1547 0.950 . S
H1552 C1549 0.950 . S
C1553 C1544 1.390 . S
C1553 H1546 0.950 . S
C1553 C1550 1.387 . S
C1554 C1555 1.387 . S
C1554 H1558 0.950 . S
C1554 C1563 1.390 . S
C1555 C1554 1.387 . S
C1555 C1557 1.387 . S
H1556 C1563 0.950 . S
C1557 C1555 1.387 . S
C1557 C1559 1.390 . S
C1557 H1561 0.950 . S
H1558 C1554 0.950 . S
C1559 C1557 1.390 . S
C1559 C1560 1.387 . S
C1559 H1562 0.950 . S
C1560 C1559 1.387 . S
C1560 C1563 1.387 . S
H1561 C1557 0.950 . S
H1562 C1559 0.950 . S
C1563 C1554 1.390 . S
C1563 H1556 0.950 . S
C1563 C1560 1.387 . S
C1564 C1565 1.387 1_545 S
C1564 H1568 0.950 . S
C1564 C1573 1.390 . S
C1565 C1564 1.387 1_565 S
C1565 C1567 1.387 1_565 S
H1566 C1573 0.950 . S
C1567 C1565 1.387 1_545 S
C1567 C1569 1.390 . S
C1567 H1571 0.950 1_545 S
H1568 C1564 0.950 . S
C1569 C1567 1.390 . S
C1569 C1570 1.387 . S
C1569 H1572 0.950 . S
C1570 C1569 1.387 . S
C1570 C1573 1.387 . S
H1571 C1567 0.950 1_565 S
H1572 C1569 0.950 . S
C1573 C1564 1.390 . S
C1573 H1566 0.950 . S
C1573 C1570 1.387 . S
C1574 C1575 1.387 . S
C1574 H1578 0.950 . S
C1574 C1583 1.390 . S
C1575 C1574 1.387 . S
C1575 C1577 1.387 . S
H1576 C1583 0.950 1_545 S
C1577 C1575 1.387 . S
C1577 C1579 1.390 . S
C1577 H1581 0.950 . S
H1578 C1574 0.950 . S
C1579 C1577 1.390 . S
C1579 C1580 1.387 1_565 S
C1579 H1582 0.950 . S
C1580 C1579 1.387 1_545 S
C1580 C1583 1.387 1_545 S
H1581 C1577 0.950 . S
H1582 C1579 0.950 . S
C1583 C1574 1.390 . S
C1583 H1576 0.950 1_565 S
C1583 C1580 1.387 1_565 S
C625 C554 1.227 . S
C630 C0 1.248 . S
C635 C18 1.340 . S
C640 C200 1.262 . S
C645 C26 1.265 . S
C650 C528 1.244 . S
C655 C44 1.354 . S
C660 C226 1.274 . S
C665 C580 1.254 . S
C670 C57 1.277 . S
C675 C65 1.341 . S
C680 C273 1.299 . S
C685 C83 1.266 . S
C690 C606 1.245 . S
C695 C91 1.342 . S
C700 C247 1.298 . S
C705 C39 1.264 . S
C710 C621 1.283 . S
C715 C5 1.310 . S
C720 C333 1.283 . S
C725 C348 1.274 . S
C730 C13 1.255 . S
C735 C31 1.299 . S
C740 C320 1.274 . S
C745 C70 1.329 . S
C750 C322 1.339 . S
C755 C78 1.228 . S
C760 C619 1.208 . S
C765 C96 1.340 . S
C770 C335 1.352 . S
C775 C52 1.249 . S
C780 C346 1.213 . S
C785 C507 1.275 . S
C790 C104 1.311 . S
C795 C122 1.367 . S
C800 C252 1.270 . S
C805 C109 1.335 . S
C810 C582 1.351 . S
C815 C278 1.294 . S
C820 C135 1.396 . S
C825 C296 1.316 . S
C830 C143 1.297 . S
C835 C533 1.297 . S
C840 C161 1.338 . S
C845 C556 1.269 . S
C850 C169 1.252 . S
C855 C530 1.333 . S
C860 C187 1.324 . S
C865 C439 1.343 . S
C870 C205 1.341 . S
C875 C208 1.277 1_455 S
C880 C8 1.294 . S
C885 C231 1.350 . S
C890 C413 1.353 . S
C895 C34 1.272 . S
C900 C234 1.283 . S
C905 C255 1.318 . S
C910 C463 1.300 . S
C915 C88 1.343 . S
C920 C260 1.324 . S
C925 C281 1.333 . S
C930 C489 1.322 . S
C935 C62 1.339 . S
C940 C286 1.340 . S
C945 C504 1.351 . S
C950 C239 1.345 . S
C955 C203 1.307 . S
C960 C140 1.326 . S
C965 C151 1.321 . S
C970 C213 1.353 . S
C975 C127 1.344 . S
C980 C229 1.324 . S
C985 C125 1.324 . S
C990 C265 1.373 . S
C995 C283 1.378 . S
C1000 C502 1.337 . S
C1005 C138 1.314 . S
C1010 C291 1.350 . S
C1015 C257 1.370 . S
C1020 C153 1.366 . S
C1025 C299 1.292 . S
C1030 C400 1.310 . S
C1035 C312 1.320 . S
C1040 C60 1.304 . S
C1045 C304 1.330 . S
C1050 C465 1.333 . S
C1055 C325 1.328 . S
C1060 C86 1.304 . S
C1065 C343 1.336 . S
C1070 C101 1.345 . S
C1075 C426 1.297 . S
C1080 C351 1.276 . S
C1085 C369 1.378 . S
C1090 C437 1.341 . S
C1095 C382 1.374 . S
C1100 C411 1.335 . S
C1105 C390 1.253 . S
C1110 C242 1.230 . S
C1115 C408 1.331 . S
C1120 C512 1.249 . S
C1125 C216 1.228 . S
C1130 C416 1.245 . S
C1135 C434 1.358 . S
C1140 C538 1.279 . S
C1145 C447 1.283 . S
C1150 C268 1.257 . S
C1155 C585 1.283 . S
C1160 C455 1.320 . S
C1165 C473 1.256 . S
C1170 C294 1.233 . S
C1175 C559 1.303 . S
C1180 C481 1.347 . S
C1185 C309 1.282 . S
C1190 C429 1.261 . S
C1195 C385 1.278 . S
C1200 C395 1.304 . S
C1205 C403 1.256 . S
C1210 C361 1.275 . S
C1215 C372 1.266 . S
C1220 C421 1.300 . S
C1225 C460 1.330 . S
C1230 C374 1.338 . S
C1235 C307 1.212 . S
C1240 C468 1.227 . S
C1245 C486 1.334 . S
C1250 C387 1.346 . S
C1255 C442 1.222 . S
C1260 C359 1.212 . S
C1265 C494 1.293 . S
C1270 C195 1.265 . S
C1275 C174 1.370 . S
C1280 C564 1.275 . S
C1285 C270 1.356 . S
C1290 C499 1.339 . S
C1295 C590 1.259 . S
C1300 C182 1.340 . S
C1305 C608 1.298 . S
C1310 C156 1.280 . S
C1315 C148 1.334 . S
C1320 C221 1.292 . S
C1325 C117 1.256 . S
C1330 C244 1.274 . S
C1335 C218 1.295 . S
C1340 C130 1.277 . S
C1345 C517 1.362 . S
C1350 C49 1.363 . S
C1355 C398 1.297 . S
C1360 C520 1.306 . S
C1365 C543 1.348 . S
C1370 C23 1.351 . S
C1375 C546 1.281 1_655 S
C1380 C424 1.273 . S
C1385 C73 1.307 . S
C1390 C567 1.319 . S
C1395 C572 1.340 . S
C1400 C478 1.346 . S
C1405 C593 1.326 . S
C1410 C99 1.320 . S
C1415 C452 1.318 . S
C1420 C598 1.299 . S
C1425 C551 1.343 . S
C1430 C114 1.349 . S
C1435 C190 1.291 . S
C1440 C515 1.313 . S
C1445 C164 1.333 . S
C1450 C525 1.372 . S
C1455 C541 1.324 . S
C1460 C179 1.342 . S
C1465 C577 1.375 . S
C1470 C177 1.328 . S
C1475 C112 1.324 . S
C1480 C595 1.364 . S
C1485 C192 1.345 . S
C1490 C603 1.340 . S
C1495 C569 1.373 . S
C1500 C166 1.370 . S
C1505 C10 1.312 . S
C1510 C611 1.293 . S
C1515 C364 1.311 . S
C1520 C450 1.292 . S
C1525 C75 1.339 . S
C1530 C616 1.334 . S
C1535 C476 1.292 . S
C1540 C377 1.318 . S
C1545 C491 1.342 . S
C1550 C356 1.337 . S
C1555 C338 1.282 . S
C1560 C36 1.303 . S
C1565 C317 1.387 . S
C1570 C47 1.349 . S
C1575 C21 1.347 . S
C1580 C330 1.383 . S
