# Generated by pormake.
# Topology qtz-h, (3)-cn, num edge types: 1
# Building blocks:
#     Node 0, Type 0, BuildingBlock: OLANEW_clean_sbu_2, # of connection points: 3
#     Node 1, Type 0, BuildingBlock: OLANEW_clean_sbu_2, # of connection points: 3
#     Node 2, Type 0, BuildingBlock: OLANEW_clean_sbu_2, # of connection points: 3
#     Node 3, Type 0, BuildingBlock: OLANEW_clean_sbu_2, # of connection points: 3
#     Node 4, Type 0, BuildingBlock: OLANEW_clean_sbu_2, # of connection points: 3
#     Node 5, Type 0, BuildingBlock: OLANEW_clean_sbu_2, # of connection points: 3
#     Node 6, Type 0, BuildingBlock: OLANEW_clean_sbu_2, # of connection points: 3
#     Node 7, Type 0, BuildingBlock: OLANEW_clean_sbu_2, # of connection points: 3
#     Node 8, Type 0, BuildingBlock: OLANEW_clean_sbu_2, # of connection points: 3
#     Node 9, Type 0, BuildingBlock: OLANEW_clean_sbu_2, # of connection points: 3
#     Node 10, Type 0, BuildingBlock: OLANEW_clean_sbu_2, # of connection points: 3
#     Node 11, Type 0, BuildingBlock: OLANEW_clean_sbu_2, # of connection points: 3
#     Edge 12, Type (0, 0), BuildingBlock: MIFKUJ_clean_linker_0, # of connection points: 2
#     Edge 13, Type (0, 0), BuildingBlock: MIFKUJ_clean_linker_0, # of connection points: 2
#     Edge 14, Type (0, 0), BuildingBlock: MIFKUJ_clean_linker_0, # of connection points: 2
#     Edge 15, Type (0, 0), BuildingBlock: MIFKUJ_clean_linker_0, # of connection points: 2
#     Edge 16, Type (0, 0), BuildingBlock: MIFKUJ_clean_linker_0, # of connection points: 2
#     Edge 17, Type (0, 0), BuildingBlock: MIFKUJ_clean_linker_0, # of connection points: 2
#     Edge 18, Type (0, 0), BuildingBlock: MIFKUJ_clean_linker_0, # of connection points: 2
#     Edge 19, Type (0, 0), BuildingBlock: MIFKUJ_clean_linker_0, # of connection points: 2
#     Edge 20, Type (0, 0), BuildingBlock: MIFKUJ_clean_linker_0, # of connection points: 2
#     Edge 21, Type (0, 0), BuildingBlock: MIFKUJ_clean_linker_0, # of connection points: 2
#     Edge 22, Type (0, 0), BuildingBlock: MIFKUJ_clean_linker_0, # of connection points: 2
#     Edge 23, Type (0, 0), BuildingBlock: MIFKUJ_clean_linker_0, # of connection points: 2
#     Edge 24, Type (0, 0), BuildingBlock: MIFKUJ_clean_linker_0, # of connection points: 2
#     Edge 25, Type (0, 0), BuildingBlock: MIFKUJ_clean_linker_0, # of connection points: 2
#     Edge 26, Type (0, 0), BuildingBlock: MIFKUJ_clean_linker_0, # of connection points: 2
#     Edge 27, Type (0, 0), BuildingBlock: MIFKUJ_clean_linker_0, # of connection points: 2
#     Edge 28, Type (0, 0), BuildingBlock: MIFKUJ_clean_linker_0, # of connection points: 2
#     Edge 29, Type (0, 0), BuildingBlock: MIFKUJ_clean_linker_0, # of connection points: 2
# Relax obj value: 0.007
# Max RMSD: 0.036
# Mean RMSD: 0.036
data_MOF--net-qtz-h--node1-OLANEW_clean_sbu_2--edge1-MIFKUJ_clean_linker_0
_symmetry_space_group_name_H-M    P1
_symmetry_Int_Tables_number       1
_symmetry_cell_setting            triclinic
loop_
_symmetry_equiv_pos_as_xyz
'x, y, z'
_cell_length_a     75.220552
_cell_length_b     75.230357
_cell_length_c     88.690023
_cell_angle_alpha  90.018827
_cell_angle_beta   89.989996
_cell_angle_gamma 120.01693
loop_
_atom_site_label
_atom_site_type_symbol
_atom_site_fract_x
_atom_site_fract_y
_atom_site_fract_z
_atom_type_partial_charge
O0 O 0.62751 0.21722 0.09062 0.0
Cd1 Cd 0.62823 0.21808 0.11819 0.0
O2 O 0.601 0.18613 0.0924 0.0
Cd3 Cd 0.57863 0.15618 0.08312 0.0
O4 O 0.55908 0.12376 0.0774 0.0
C5 C 0.56715 0.11242 0.07711 0.0
O6 O 0.5869 0.12074 0.07987 0.0
C7 C 0.61374 0.201 0.08427 0.0
C8 C 0.6333 0.25449 0.13046 0.0
O9 O 0.64884 0.25238 0.12754 0.0
O10 O 0.61539 0.23946 0.12739 0.0
O11 O 0.41904 0.6236 0.41311 0.0
Cd12 Cd 0.43209 0.6385 0.43795 0.0
O13 O 0.4352 0.60613 0.41424 0.0
Cd14 Cd 0.44594 0.58616 0.40491 0.0
O15 O 0.45746 0.56594 0.39779 0.0
C16 C 0.47669 0.57297 0.39674 0.0
O17 O 0.48926 0.59248 0.39966 0.0
C18 C 0.42348 0.61092 0.40719 0.0
C19 C 0.40137 0.63844 0.45563 0.0
O20 O 0.4124 0.65345 0.44678 0.0
O21 O 0.40491 0.62346 0.45617 0.0
O22 O 0.78528 0.42169 0.76149 0.0
Cd23 Cd 0.78182 0.42403 0.7887 0.0
O24 O 0.81634 0.42683 0.7651 0.0
Cd25 Cd 0.84634 0.43278 0.75708 0.0
O26 O 0.87735 0.44156 0.74969 0.0
C27 C 0.89032 0.46051 0.74801 0.0
O28 O 0.88451 0.47406 0.75052 0.0
C29 C 0.80179 0.42352 0.75616 0.0
C30 C 0.75339 0.38629 0.80118 0.0
O31 O 0.74786 0.39891 0.79648 0.0
O32 O 0.77237 0.39153 0.79996 0.0
O33 O 0.37573 0.78669 0.09265 0.0
Cd34 Cd 0.37277 0.78457 0.12014 0.0
O35 O 0.40019 0.81843 0.09613 0.0
Cd36 Cd 0.42235 0.84973 0.08913 0.0
O37 O 0.44356 0.88202 0.08425 0.0
C38 C 0.43648 0.89375 0.08102 0.0
O39 O 0.41649 0.88598 0.08043 0.0
C40 C 0.38922 0.80378 0.08716 0.0
C41 C 0.36535 0.74718 0.13209 0.0
O42 O 0.35049 0.75017 0.12869 0.0
O43 O 0.38371 0.76178 0.12962 0.0
O44 O 0.57404 0.35245 0.41371 0.0
Cd45 Cd 0.56332 0.33663 0.43859 0.0
O46 O 0.56632 0.37591 0.42016 0.0
Cd47 Cd 0.56111 0.40142 0.41525 0.0
O48 O 0.55512 0.42615 0.4096 0.0
C49 C 0.53758 0.4218 0.40457 0.0
O50 O 0.5235 0.40243 0.40278 0.0
C51 C 0.57291 0.36827 0.41036 0.0
C52 C 0.59601 0.34164 0.45649 0.0
O53 O 0.58723 0.32665 0.44719 0.0
O54 O 0.58944 0.35439 0.45724 0.0
O55 O 0.21364 0.58138 0.75151 0.0
Cd56 Cd 0.21704 0.57543 0.77817 0.0
O57 O 0.18103 0.57098 0.755 0.0
Cd58 Cd 0.14983 0.56211 0.74778 0.0
O59 O 0.11756 0.55154 0.74297 0.0
C60 C 0.10574 0.53313 0.73876 0.0
O61 O 0.11335 0.52088 0.73708 0.0
C62 C 0.19648 0.57789 0.74625 0.0
C63 C 0.24259 0.61196 0.79343 0.0
O64 O 0.24988 0.60157 0.78721 0.0
O65 O 0.22323 0.60505 0.79243 0.0
O66 O 0.78825 0.36363 0.59477 0.0
Cd67 Cd 0.78493 0.34905 0.56959 0.0
O68 O 0.82094 0.38569 0.5914 0.0
Cd69 Cd 0.85184 0.4089 0.59859 0.0
O70 O 0.88377 0.43153 0.60361 0.0
C71 C 0.89668 0.42554 0.60562 0.0
O72 O 0.89034 0.40581 0.60491 0.0
C73 C 0.80513 0.37811 0.59981 0.0
C74 C 0.75465 0.35047 0.55236 0.0
O75 O 0.75003 0.33622 0.56208 0.0
O76 O 0.7736 0.36416 0.5508 0.0
O77 O 0.39481 0.82704 0.91831 0.0
Cd78 Cd 0.39594 0.83453 0.89137 0.0
O79 O 0.42828 0.84591 0.92106 0.0
Cd80 Cd 0.43408 0.8588 0.89835 0.0
O81 O 0.44779 0.88597 0.88394 0.0
C82 C 0.44065 0.89807 0.88505 0.0
O83 O 0.42462 0.89276 0.89375 0.0
C84 C 0.41067 0.83384 0.9266 0.0
C85 C 0.37171 0.79894 0.8747 0.0
O86 O 0.39075 0.80523 0.87708 0.0
O87 O 0.36416 0.80952 0.88015 0.0
O88 O 0.65185 0.4515 0.25582 0.0
Cd89 Cd 0.66248 0.46319 0.22995 0.0
O90 O 0.62978 0.46246 0.25486 0.0
Cd91 Cd 0.60665 0.46869 0.26458 0.0
O92 O 0.58277 0.47508 0.27225 0.0
C93 C 0.58707 0.49345 0.27476 0.0
O94 O 0.60611 0.50838 0.273 0.0
C95 C 0.63777 0.45356 0.26204 0.0
C96 C 0.65826 0.43097 0.21181 0.0
O97 O 0.67523 0.44287 0.21853 0.0
O98 O 0.64334 0.43443 0.21358 0.0
O99 O 0.21527 0.64586 0.58537 0.0
Cd100 Cd 0.21816 0.65619 0.55895 0.0
O101 O 0.18395 0.62065 0.58126 0.0
Cd102 Cd 0.15404 0.59579 0.58868 0.0
O103 O 0.12324 0.57209 0.59533 0.0
C104 C 0.11002 0.5772 0.59883 0.0
O105 O 0.1154 0.59672 0.59861 0.0
C106 C 0.19887 0.63056 0.59027 0.0
C107 C 0.24703 0.65045 0.54322 0.0
O108 O 0.25233 0.66715 0.55043 0.0
O109 O 0.22807 0.63642 0.54351 0.0
O110 O 0.58589 0.17036 0.91674 0.0
Cd111 Cd 0.58051 0.16283 0.88975 0.0
O112 O 0.61147 0.16411 0.91795 0.0
Cd113 Cd 0.6035 0.14851 0.89616 0.0
O114 O 0.58568 0.1207 0.88279 0.0
C115 C 0.56632 0.11125 0.88463 0.0
O116 O 0.55832 0.11931 0.89359 0.0
C117 C 0.60036 0.17037 0.92417 0.0
C118 C 0.60767 0.19737 0.87315 0.0
O119 O 0.58976 0.19414 0.87665 0.0
O120 O 0.61263 0.18412 0.87734 0.0
O121 O 0.33117 0.53827 0.25381 0.0
Cd122 Cd 0.3203 0.52992 0.22755 0.0
O123 O 0.35895 0.53722 0.24801 0.0
Cd124 Cd 0.38736 0.53745 0.25365 0.0
O125 O 0.41493 0.53682 0.26032 0.0
C126 C 0.41336 0.52004 0.26477 0.0
O127 O 0.39509 0.50352 0.26532 0.0
C128 C 0.34824 0.54009 0.25776 0.0
C129 C 0.32763 0.5646 0.21117 0.0
O130 O 0.31034 0.55332 0.21771 0.0
O131 O 0.34144 0.55945 0.21238 0.0
H132 H 0.62337 0.4013 0.19815 0.0
H133 H 0.6192 0.372 0.18339 0.0
H134 H 0.68334 0.39184 0.18964 0.0
H135 H 0.68768 0.42126 0.20437 0.0
H136 H 0.67059 0.37991 0.16038 0.0
H137 H 0.64832 0.35334 0.21039 0.0
H138 H 0.62797 0.34654 0.23366 0.0
H139 H 0.57225 0.31246 0.20833 0.0
H140 H 0.59227 0.31931 0.18486 0.0
H141 H 0.66893 0.28771 0.14024 0.0
H142 H 0.67298 0.31834 0.15294 0.0
H143 H 0.60781 0.29505 0.14929 0.0
H144 H 0.60357 0.26416 0.13684 0.0
H145 H 0.62071 0.30904 0.17681 0.0
H146 H 0.64266 0.33474 0.12685 0.0
H147 H 0.66278 0.34161 0.10345 0.0
H148 H 0.71865 0.37733 0.12829 0.0
H149 H 0.69888 0.37044 0.15189 0.0
C150 C 0.63662 0.39948 0.19635 0.0
C151 C 0.65584 0.41357 0.20249 0.0
C152 C 0.63419 0.38269 0.18795 0.0
C153 C 0.65092 0.37965 0.18554 0.0
C154 C 0.67023 0.39391 0.19138 0.0
C155 C 0.67265 0.41066 0.19984 0.0
C156 C 0.64821 0.36141 0.17714 0.0
C157 C 0.65987 0.3644 0.16405 0.0
C158 C 0.63386 0.34121 0.18175 0.0
C159 C 0.62179 0.33702 0.19585 0.0
C160 C 0.63172 0.34454 0.20977 0.0
C161 C 0.62025 0.34065 0.22299 0.0
C162 C 0.59883 0.32912 0.22247 0.0
C163 C 0.58884 0.32142 0.20871 0.0
C164 C 0.60024 0.32528 0.19545 0.0
C165 C 0.65547 0.28915 0.14205 0.0
C166 C 0.63592 0.27349 0.13752 0.0
C167 C 0.65782 0.30673 0.14926 0.0
C168 C 0.64073 0.30911 0.15193 0.0
C169 C 0.62122 0.29355 0.14734 0.0
C170 C 0.61883 0.27593 0.14019 0.0
C171 C 0.64308 0.32747 0.16 0.0
C172 C 0.63139 0.32453 0.17307 0.0
C173 C 0.65736 0.34771 0.15533 0.0
C174 C 0.66929 0.35191 0.14116 0.0
C175 C 0.65925 0.34392 0.12734 0.0
C176 C 0.67059 0.34785 0.11404 0.0
C177 C 0.69198 0.35985 0.11439 0.0
C178 C 0.70208 0.36801 0.12804 0.0
C179 C 0.69081 0.36411 0.14138 0.0
H180 H 0.70073 0.36288 0.10408 0.0
H181 H 0.58997 0.32613 0.23272 0.0
H182 H 0.37763 0.61056 0.47717 0.0
H183 H 0.35029 0.61038 0.49227 0.0
H184 H 0.36073 0.66591 0.47026 0.0
H185 H 0.38801 0.6662 0.4551 0.0
H186 H 0.35124 0.63842 0.51236 0.0
H187 H 0.31421 0.6631 0.46566 0.0
H188 H 0.30922 0.66002 0.43809 0.0
H189 H 0.31283 0.60483 0.43834 0.0
H190 H 0.31755 0.60743 0.46593 0.0
H191 H 0.28868 0.67576 0.5426 0.0
H192 H 0.31384 0.67129 0.52815 0.0
H193 H 0.26531 0.61436 0.51005 0.0
H194 H 0.23999 0.61871 0.52446 0.0
H195 H 0.29188 0.63871 0.48819 0.0
H196 H 0.29568 0.61288 0.53661 0.0
H197 H 0.29943 0.61363 0.56426 0.0
H198 H 0.35979 0.6664 0.56076 0.0
H199 H 0.35628 0.66614 0.53309 0.0
C200 C 0.3741 0.62273 0.47553 0.0
C201 C 0.38495 0.63837 0.4649 0.0
C202 C 0.35852 0.62263 0.4842 0.0
C203 C 0.35338 0.63803 0.48229 0.0
C204 C 0.36429 0.65374 0.47178 0.0
C205 C 0.37993 0.65392 0.46316 0.0
C206 C 0.33664 0.63774 0.49131 0.0
C207 C 0.33825 0.63847 0.50709 0.0
C208 C 0.31952 0.63744 0.48442 0.0
C209 C 0.31643 0.63559 0.46785 0.0
C210 C 0.31386 0.65027 0.45984 0.0
C211 C 0.31109 0.64861 0.44421 0.0
C212 C 0.31078 0.63228 0.43646 0.0
C213 C 0.31316 0.61752 0.44434 0.0
C214 C 0.31591 0.6191 0.45998 0.0
C215 C 0.28334 0.66225 0.53558 0.0
C216 C 0.26233 0.64758 0.53469 0.0
C217 C 0.29776 0.65969 0.52737 0.0
C218 C 0.29145 0.64242 0.51811 0.0
C219 C 0.27049 0.62778 0.51714 0.0
C220 C 0.25606 0.63027 0.52542 0.0
C221 C 0.30672 0.63986 0.50923 0.0
C222 C 0.30484 0.63862 0.49347 0.0
C223 C 0.32344 0.63941 0.51615 0.0
C224 C 0.32564 0.63959 0.53279 0.0
C225 C 0.30969 0.62474 0.54175 0.0
C226 C 0.31178 0.62506 0.55742 0.0
C227 C 0.32982 0.64009 0.56427 0.0
C228 C 0.34582 0.65479 0.55544 0.0
C229 C 0.34379 0.65455 0.53976 0.0
H230 H 0.33141 0.64031 0.5764 0.0
H231 H 0.30865 0.63103 0.42436 0.0
H232 H 0.64736 0.20951 0.8655 0.0
H233 H 0.67196 0.24103 0.85255 0.0
H234 H 0.62602 0.25914 0.8491 0.0
H235 H 0.60125 0.22757 0.86194 0.0
H236 H 0.6475 0.26589 0.82285 0.0
H237 H 0.66268 0.28022 0.8756 0.0
H238 H 0.67107 0.27404 0.90124 0.0
H239 H 0.72672 0.2782 0.88479 0.0
H240 H 0.71851 0.28412 0.85899 0.0
H241 H 0.71249 0.37151 0.80622 0.0
H242 H 0.68779 0.33877 0.81766 0.0
H243 H 0.73533 0.32306 0.82263 0.0
H244 H 0.76023 0.35594 0.81143 0.0
H245 H 0.7132 0.31461 0.84779 0.0
H246 H 0.69858 0.30096 0.79514 0.0
H247 H 0.69026 0.30698 0.76944 0.0
H248 H 0.6338 0.30136 0.78546 0.0
H249 H 0.64191 0.29558 0.81132 0.0
C250 C 0.64245 0.22015 0.86194 0.0
C251 C 0.62236 0.21607 0.86481 0.0
C252 C 0.65656 0.23819 0.85458 0.0
C253 C 0.65088 0.25253 0.85001 0.0
C254 C 0.63072 0.24829 0.85255 0.0
C255 C 0.61661 0.23027 0.85994 0.0
C256 C 0.66606 0.27208 0.84277 0.0
C257 C 0.66176 0.27668 0.82836 0.0
C258 C 0.68487 0.28589 0.84983 0.0
C259 C 0.68987 0.2824 0.86534 0.0
C260 C 0.67662 0.27965 0.87743 0.0
C261 C 0.68136 0.27622 0.89199 0.0
C262 C 0.69939 0.27567 0.89463 0.0
C263 C 0.71274 0.2786 0.88272 0.0
C264 C 0.70806 0.28201 0.86813 0.0
C265 C 0.71769 0.36107 0.80971 0.0
C266 C 0.73832 0.36632 0.80789 0.0
C267 C 0.70352 0.34231 0.81618 0.0
C268 C 0.70965 0.32835 0.82084 0.0
C269 C 0.73025 0.33358 0.8191 0.0
C270 C 0.74445 0.35237 0.81266 0.0
C271 C 0.69467 0.30848 0.82784 0.0
C272 C 0.69898 0.30382 0.84223 0.0
C273 C 0.6759 0.2946 0.82074 0.0
C274 C 0.67095 0.29803 0.8052 0.0
C275 C 0.68446 0.30117 0.79321 0.0
C276 C 0.67977 0.30451 0.77861 0.0
C277 C 0.66154 0.3046 0.77582 0.0
C278 C 0.64793 0.30131 0.78764 0.0
C279 C 0.65256 0.29798 0.80227 0.0
H280 H 0.65793 0.30719 0.76451 0.0
H281 H 0.70303 0.27302 0.90592 0.0
H282 H 0.36361 0.59321 0.19807 0.0
H283 H 0.37007 0.6238 0.18396 0.0
H284 H 0.30711 0.60832 0.19052 0.0
H285 H 0.30048 0.57765 0.20462 0.0
H286 H 0.32017 0.6199 0.16128 0.0
H287 H 0.34393 0.64524 0.21139 0.0
H288 H 0.36418 0.6505 0.23451 0.0
H289 H 0.42003 0.68172 0.20894 0.0
H290 H 0.4001 0.67639 0.18562 0.0
H291 H 0.32864 0.71521 0.14158 0.0
H292 H 0.32252 0.68375 0.15413 0.0
H293 H 0.38697 0.70334 0.15072 0.0
H294 H 0.3933 0.7351 0.13848 0.0
H295 H 0.37357 0.68934 0.17797 0.0
H296 H 0.35043 0.66484 0.12795 0.0
H297 H 0.33059 0.65945 0.10459 0.0
H298 H 0.27426 0.62651 0.12942 0.0
H299 H 0.29377 0.63194 0.15297 0.0
C300 C 0.35112 0.59629 0.19651 0.0
C301 C 0.33154 0.58303 0.20251 0.0
C302 C 0.35486 0.61381 0.18848 0.0
C303 C 0.33911 0.6184 0.1863 0.0
C304 C 0.31948 0.60505 0.19209 0.0
C305 C 0.31574 0.58758 0.20018 0.0
C306 C 0.34312 0.63719 0.17805 0.0
C307 C 0.33167 0.63512 0.16501 0.0
C308 C 0.3585 0.65697 0.18272 0.0
C309 C 0.37051 0.66023 0.19673 0.0
C310 C 0.36053 0.65308 0.21067 0.0
C311 C 0.37195 0.6561 0.22382 0.0
C312 C 0.39338 0.66638 0.22319 0.0
C313 C 0.40343 0.67372 0.20941 0.0
C314 C 0.39208 0.67072 0.19623 0.0
C315 C 0.3415 0.71277 0.14341 0.0
C316 C 0.36146 0.72765 0.13902 0.0
C317 C 0.33796 0.69472 0.15053 0.0
C318 C 0.35424 0.69105 0.15322 0.0
C319 C 0.37416 0.70583 0.14876 0.0
C320 C 0.37775 0.72395 0.14173 0.0
C321 C 0.35061 0.67212 0.16115 0.0
C322 C 0.36212 0.67415 0.17416 0.0
C323 C 0.33536 0.65229 0.1564 0.0
C324 C 0.32357 0.64897 0.14225 0.0
C325 C 0.33381 0.65659 0.12845 0.0
C326 C 0.32262 0.6535 0.11517 0.0
C327 C 0.30118 0.64269 0.11552 0.0
C328 C 0.29087 0.6349 0.12916 0.0
C329 C 0.30199 0.63796 0.14248 0.0
H330 H 0.29254 0.64031 0.10523 0.0
H331 H 0.40219 0.66871 0.23338 0.0
H332 H 0.75916 0.3691 0.5251 0.0
H333 H 0.73226 0.36855 0.50931 0.0
H334 H 0.68708 0.33307 0.54323 0.0
H335 H 0.71379 0.33264 0.55863 0.0
H336 H 0.67176 0.31785 0.51814 0.0
H337 H 0.70623 0.38678 0.53646 0.0
H338 H 0.73566 0.42119 0.54168 0.0
H339 H 0.74792 0.43158 0.49425 0.0
H340 H 0.71871 0.39712 0.48875 0.0
H341 H 0.61378 0.36808 0.48015 0.0
H342 H 0.64054 0.3705 0.4971 0.0
H343 H 0.64371 0.32322 0.4717 0.0
H344 H 0.61655 0.32029 0.45501 0.0
H345 H 0.67879 0.38054 0.49401 0.0
H346 H 0.65404 0.29388 0.49444 0.0
H347 H 0.62236 0.26025 0.49217 0.0
H348 H 0.58665 0.28681 0.50756 0.0
H349 H 0.61813 0.32052 0.51011 0.0
C350 C 0.74349 0.36126 0.52919 0.0
C351 C 0.73855 0.35093 0.54309 0.0
C352 C 0.72812 0.36106 0.5202 0.0
C353 C 0.70761 0.35105 0.52515 0.0
C354 C 0.70274 0.34087 0.53912 0.0
C355 C 0.71803 0.34067 0.54794 0.0
C356 C 0.69111 0.35059 0.51558 0.0
C357 C 0.67334 0.3316 0.51291 0.0
C358 C 0.69286 0.36854 0.50894 0.0
C359 C 0.71039 0.3893 0.5122 0.0
C360 C 0.71529 0.39635 0.52715 0.0
C361 C 0.73192 0.41587 0.53016 0.0
C362 C 0.74368 0.42855 0.51831 0.0
C363 C 0.73881 0.42174 0.50342 0.0
C364 C 0.7222 0.40223 0.50035 0.0
C365 C 0.62019 0.35821 0.47816 0.0
C366 C 0.61292 0.34387 0.46631 0.0
C367 C 0.63554 0.35965 0.48784 0.0
C368 C 0.64395 0.34684 0.48582 0.0
C369 C 0.63715 0.33296 0.47369 0.0
C370 C 0.62168 0.33137 0.46411 0.0
C371 C 0.65965 0.3478 0.49648 0.0
C372 C 0.67726 0.36684 0.49931 0.0
C373 C 0.65745 0.33003 0.5037 0.0
C374 C 0.63844 0.30976 0.50231 0.0
C375 C 0.63944 0.29252 0.49738 0.0
C376 C 0.62151 0.27345 0.49604 0.0
C377 C 0.6025 0.27141 0.49967 0.0
C378 C 0.60138 0.28843 0.5047 0.0
C379 C 0.61925 0.30752 0.50607 0.0
H380 H 0.58864 0.25664 0.49861 0.0
H381 H 0.75655 0.44365 0.52067 0.0
H382 H 0.28413 0.63039 0.79762 0.0
H383 H 0.30637 0.6623 0.81113 0.0
H384 H 0.25402 0.66916 0.82124 0.0
H385 H 0.2317 0.6374 0.8076 0.0
H386 H 0.28627 0.70491 0.81192 0.0
H387 H 0.27471 0.65247 0.84799 0.0
H388 H 0.27423 0.62128 0.85713 0.0
H389 H 0.33928 0.64982 0.85002 0.0
H390 H 0.3401 0.6811 0.84064 0.0
H391 H 0.33055 0.78075 0.86896 0.0
H392 H 0.30919 0.74926 0.85478 0.0
H393 H 0.36215 0.74279 0.84633 0.0
H394 H 0.38358 0.7741 0.86075 0.0
H395 H 0.33014 0.70697 0.85442 0.0
H396 H 0.34201 0.75953 0.8187 0.0
H397 H 0.3427 0.79075 0.80938 0.0
H398 H 0.27747 0.76213 0.81553 0.0
H399 H 0.27642 0.73082 0.82509 0.0
C400 C 0.27733 0.63867 0.80272 0.0
C401 C 0.25613 0.63131 0.80157 0.0
C402 C 0.29006 0.65688 0.81049 0.0
C403 C 0.28182 0.668 0.81733 0.0
C404 C 0.2607 0.66081 0.81606 0.0
C405 C 0.24796 0.64261 0.80829 0.0
C406 C 0.29522 0.68719 0.82576 0.0
C407 C 0.29567 0.70532 0.82134 0.0
C408 C 0.30788 0.68782 0.8378 0.0
C409 C 0.30743 0.66905 0.84347 0.0
C410 C 0.28889 0.65203 0.84826 0.0
C411 C 0.28856 0.63435 0.85351 0.0
C412 C 0.3067 0.63355 0.85412 0.0
C413 C 0.32523 0.65045 0.84952 0.0
C414 C 0.32564 0.66817 0.84425 0.0
C415 C 0.33768 0.77267 0.86406 0.0
C416 C 0.35878 0.77997 0.86595 0.0
C417 C 0.32545 0.7547 0.8559 0.0
C418 C 0.33411 0.74379 0.84932 0.0
C419 C 0.35515 0.75097 0.85128 0.0
C420 C 0.36738 0.7689 0.85949 0.0
C421 C 0.32115 0.72471 0.84062 0.0
C422 C 0.32078 0.70659 0.84498 0.0
C423 C 0.3086 0.7241 0.8285 0.0
C424 C 0.30917 0.7429 0.82275 0.0
C425 C 0.32783 0.75995 0.81818 0.0
C426 C 0.32829 0.77765 0.81284 0.0
C427 C 0.31015 0.77844 0.8119 0.0
C428 C 0.29151 0.7615 0.81628 0.0
C429 C 0.29098 0.74377 0.82165 0.0
H430 H 0.31053 0.79216 0.80776 0.0
H431 H 0.30642 0.61984 0.85818 0.0
H432 H 0.42627 0.92301 0.0744 0.0
H433 H 0.4494 0.95993 0.07152 0.0
H434 H 0.50149 0.95175 0.07921 0.0
H435 H 0.47846 0.91482 0.08224 0.0
H436 H 0.5037 0.98271 0.09597 0.0
H437 H 0.49089 0.96168 0.04446 0.0
H438 H 0.46939 0.94415 0.02233 0.0
H439 H 0.44259 0.98283 0.02461 0.0
H440 H 0.46363 0.00031 0.04698 0.0
H441 H 0.5795 0.08389 0.07743 0.0
H442 H 0.55797 0.04661 0.07576 0.0
H443 H 0.50434 0.0527 0.07001 0.0
H444 H 0.52579 0.09009 0.07159 0.0
H445 H 0.50377 0.02268 0.05143 0.0
H446 H 0.51469 0.04174 0.10387 0.0
H447 H 0.53541 0.05858 0.12649 0.0
H448 H 0.5655 0.02308 0.12234 0.0
H449 H 0.54515 0.00623 0.09956 0.0
C450 C 0.44265 0.92904 0.07541 0.0
C451 C 0.45052 0.91597 0.07859 0.0
C452 C 0.45586 0.95014 0.07369 0.0
C453 C 0.47718 0.95857 0.07505 0.0
C454 C 0.48508 0.94556 0.07811 0.0
C455 C 0.4719 0.92445 0.07981 0.0
C456 C 0.49117 0.98106 0.07384 0.0
C457 C 0.50396 0.99139 0.08611 0.0
C458 C 0.49115 0.99243 0.06112 0.0
C459 C 0.47872 0.98219 0.0475 0.0
C460 C 0.48031 0.96635 0.04032 0.0
C461 C 0.4682 0.95643 0.02773 0.0
C462 C 0.45461 0.96235 0.02208 0.0
C463 C 0.45312 0.97825 0.02901 0.0
C464 C 0.46514 0.98817 0.04165 0.0
C465 C 0.56315 0.07735 0.07568 0.0
C466 C 0.55433 0.08997 0.07481 0.0
C467 C 0.55087 0.05602 0.07475 0.0
C468 C 0.52953 0.04689 0.07296 0.0
C469 C 0.52077 0.05945 0.07142 0.0
C470 C 0.53305 0.08081 0.07239 0.0
C471 C 0.51626 0.02424 0.07356 0.0
C472 C 0.50358 0.01393 0.06121 0.0
C473 C 0.51636 0.01282 0.0862 0.0
C474 C 0.52856 0.02289 0.09992 0.0
C475 C 0.52585 0.03765 0.10771 0.0
C476 C 0.5375 0.04717 0.12057 0.0
C477 C 0.5518 0.04195 0.12582 0.0
C478 C 0.55444 0.02714 0.11825 0.0
C479 C 0.54285 0.01759 0.10536 0.0
H480 H 0.5608 0.04933 0.13579 0.0
H481 H 0.44525 0.95465 0.01233 0.0
H482 H 0.56387 0.46329 0.40534 0.0
H483 H 0.55578 0.49047 0.40058 0.0
H484 H 0.49284 0.44494 0.39126 0.0
H485 H 0.50084 0.41764 0.39581 0.0
H486 H 0.50686 0.47711 0.37165 0.0
H487 H 0.50602 0.46743 0.4254 0.0
H488 H 0.52023 0.46506 0.44989 0.0
H489 H 0.56999 0.52693 0.4449 0.0
H490 H 0.55621 0.52956 0.42027 0.0
H491 H 0.45517 0.5324 0.38869 0.0
H492 H 0.46833 0.50871 0.38608 0.0
H493 H 0.52969 0.55819 0.39505 0.0
H494 H 0.51668 0.58199 0.39771 0.0
H495 H 0.51891 0.52576 0.41341 0.0
H496 H 0.51886 0.53632 0.36025 0.0
H497 H 0.50471 0.53871 0.33573 0.0
H498 H 0.45673 0.47586 0.33958 0.0
H499 H 0.47058 0.47309 0.36414 0.0
C500 C 0.54831 0.45904 0.40225 0.0
C501 C 0.53292 0.4383 0.40116 0.0
C502 C 0.54373 0.4746 0.39951 0.0
C503 C 0.52365 0.46971 0.39576 0.0
C504 C 0.50842 0.44904 0.39416 0.0
C505 C 0.513 0.43346 0.39687 0.0
C506 C 0.51827 0.4861 0.39427 0.0
C507 C 0.50937 0.48768 0.38079 0.0
C508 C 0.52193 0.50014 0.4061 0.0
C509 C 0.53021 0.49861 0.42092 0.0
C510 C 0.52008 0.48047 0.42947 0.0
C511 C 0.52804 0.47909 0.44339 0.0
C512 C 0.54604 0.49581 0.44892 0.0
C513 C 0.55608 0.51397 0.44058 0.0
C514 C 0.54819 0.51542 0.42665 0.0
C515 C 0.47151 0.53832 0.3899 0.0
C516 C 0.48485 0.55906 0.39355 0.0
C517 C 0.47903 0.52478 0.38829 0.0
C518 C 0.50001 0.5317 0.3903 0.0
C519 C 0.51345 0.55254 0.39342 0.0
C520 C 0.50597 0.56611 0.39494 0.0
C521 C 0.50749 0.51684 0.39078 0.0
C522 C 0.51668 0.51543 0.40414 0.0
C523 C 0.50408 0.503 0.37884 0.0
C524 C 0.49562 0.50458 0.36412 0.0
C525 C 0.50519 0.52306 0.35593 0.0
C526 C 0.49727 0.52446 0.342 0.0
C527 C 0.47976 0.50748 0.33616 0.0
C528 C 0.47022 0.48902 0.34417 0.0
C529 C 0.47815 0.48751 0.35806 0.0
H530 H 0.47361 0.50863 0.32541 0.0
H531 H 0.55217 0.49472 0.4597 0.0
H532 H 0.90681 0.43666 0.73992 0.0
H533 H 0.94292 0.44789 0.73505 0.0
H534 H 0.95882 0.51077 0.74276 0.0
H535 H 0.92273 0.49974 0.74727 0.0
H536 H 0.9803 0.50853 0.71972 0.0
H537 H 0.96461 0.48174 0.77047 0.0
H538 H 0.94551 0.45554 0.78989 0.0
H539 H 0.96179 0.41445 0.76851 0.0
H540 H 0.98079 0.44034 0.74884 0.0
H541 H 0.08516 0.55445 0.74104 0.0
H542 H 0.04818 0.54089 0.73921 0.0
H543 H 0.03893 0.48056 0.72989 0.0
H544 H 0.07591 0.49395 0.73182 0.0
H545 H 0.01364 0.47946 0.75171 0.0
H546 H 0.03225 0.50789 0.70222 0.0
H547 H 0.05156 0.53442 0.68307 0.0
H548 H 0.03028 0.57284 0.70225 0.0
H549 H 0.01105 0.54665 0.72164 0.0
C550 C 0.91798 0.45289 0.7405 0.0
C551 C 0.91194 0.46729 0.74417 0.0
C552 C 0.93862 0.45928 0.73774 0.0
C553 C 0.95363 0.48014 0.7388 0.0
C554 C 0.94752 0.49459 0.74192 0.0
C555 C 0.92688 0.48824 0.74456 0.0
C556 C 0.97578 0.48689 0.73729 0.0
C557 C 0.98764 0.5023 0.72679 0.0
C558 C 0.98526 0.47841 0.74626 0.0
C559 C 0.97392 0.46288 0.7581 0.0
C560 C 0.96398 0.46706 0.76985 0.0
C561 C 0.9532 0.45228 0.78091 0.0
C562 C 0.95239 0.43332 0.78041 0.0
C563 C 0.96241 0.42913 0.76887 0.0
C564 C 0.97319 0.44385 0.75777 0.0
C565 C 0.0753 0.53833 0.73846 0.0
C566 C 0.08349 0.52527 0.73663 0.0
C567 C 0.05415 0.53063 0.73733 0.0
C568 C 0.0408 0.50974 0.73429 0.0
C569 C 0.04896 0.49673 0.73222 0.0
C570 C 0.07011 0.50443 0.73331 0.0
C571 C 0.01825 0.50127 0.73426 0.0
C572 C 0.0063 0.48555 0.7445 0.0
C573 C 0.00874 0.50953 0.7251 0.0
C574 C 0.02034 0.52536 0.71347 0.0
C575 C 0.03182 0.52206 0.70244 0.0
C576 C 0.04273 0.53703 0.69152 0.0
C577 C 0.04218 0.55533 0.69146 0.0
C578 C 0.0307 0.55867 0.70231 0.0
C579 C 0.01977 0.54376 0.71326 0.0
H580 H 0.05063 0.56689 0.683 0.0
H581 H 0.94403 0.4219 0.78898 0.0
H582 H 0.09443 0.53583 0.60196 0.0
H583 H 0.05863 0.50947 0.60602 0.0
H584 H 0.04132 0.55614 0.60735 0.0
H585 H 0.07715 0.58264 0.60359 0.0
H586 H 0.02061 0.5271 0.62824 0.0
H587 H 0.0353 0.52861 0.57525 0.0
H588 H 0.05432 0.52727 0.55303 0.0
H589 H 0.04058 0.46649 0.56532 0.0
H590 H 0.02169 0.46758 0.58773 0.0
H591 H 0.91481 0.46732 0.60822 0.0
H592 H 0.95148 0.49225 0.61011 0.0
H593 H 0.96511 0.44296 0.60987 0.0
H594 H 0.9285 0.41792 0.60788 0.0
H595 H 0.98804 0.47226 0.58965 0.0
H596 H 0.97091 0.46996 0.64181 0.0
H597 H 0.95177 0.4716 0.66383 0.0
H598 H 0.96962 0.53395 0.65297 0.0
H599 H 0.98863 0.5326 0.63074 0.0
C600 C 0.08303 0.54051 0.60319 0.0
C601 C 0.0886 0.56132 0.60224 0.0
C602 C 0.06257 0.52541 0.60549 0.0
C603 C 0.04725 0.53081 0.60672 0.0
C604 C 0.05287 0.55162 0.60638 0.0
C605 C 0.07336 0.56675 0.60416 0.0
C606 C 0.02526 0.51474 0.60767 0.0
C607 C 0.01342 0.51521 0.61974 0.0
C608 C 0.01599 0.49898 0.59674 0.0
C609 C 0.02728 0.49827 0.58325 0.0
C610 C 0.03647 0.51502 0.57327 0.0
C611 C 0.0472 0.5143 0.56064 0.0
C612 C 0.0487 0.49683 0.55779 0.0
C613 C 0.03943 0.48002 0.56756 0.0
C614 C 0.0287 0.48068 0.58022 0.0
C615 C 0.92559 0.46175 0.60871 0.0
C616 C 0.91873 0.44062 0.60783 0.0
C617 C 0.94654 0.47603 0.60988 0.0
C618 C 0.96102 0.46945 0.61023 0.0
C619 C 0.95419 0.44836 0.60963 0.0
C620 C 0.93325 0.43407 0.60852 0.0
C621 C 0.98332 0.48461 0.6102 0.0
C622 C 0.99523 0.48402 0.59825 0.0
C623 C 0.99257 0.50028 0.6212 0.0
C624 C 0.98104 0.5011 0.63451 0.0
C625 C 0.9706 0.48396 0.64402 0.0
C626 C 0.95981 0.48485 0.65657 0.0
C627 C 0.95944 0.50285 0.65978 0.0
C628 C 0.9699 0.52001 0.65046 0.0
C629 C 0.9807 0.51919 0.6379 0.0
H630 H 0.95109 0.50351 0.6695 0.0
H631 H 0.05702 0.49629 0.548 0.0
H632 H 0.47557 0.91494 0.86777 0.0
H633 H 0.49697 0.95104 0.86069 0.0
H634 H 0.45322 0.96481 0.88117 0.0
H635 H 0.43158 0.92879 0.88797 0.0
H636 H 0.46965 0.98774 0.85624 0.0
H637 H 0.49464 0.96984 0.90095 0.0
H638 H 0.50738 0.95025 0.91514 0.0
H639 H 0.55771 0.97007 0.88418 0.0
H640 H 0.5451 0.98958 0.86971 0.0
H641 H 0.52482 0.08691 0.88733 0.0
H642 H 0.50393 0.0509 0.88039 0.0
H643 H 0.55708 0.05199 0.86101 0.0
H644 H 0.57826 0.0881 0.86819 0.0
H645 H 0.53845 0.02129 0.88023 0.0
H646 H 0.51652 0.04522 0.83864 0.0
H647 H 0.5037 0.06541 0.82543 0.0
H648 H 0.44771 0.03515 0.85091 0.0
H649 H 0.4603 0.01497 0.86443 0.0
C650 C 0.47031 0.92558 0.87051 0.0
C651 C 0.45202 0.91904 0.87865 0.0
C652 C 0.48259 0.94621 0.86648 0.0
C653 C 0.47688 0.96068 0.87066 0.0
C654 C 0.45797 0.95393 0.87786 0.0
C655 C 0.44564 0.93331 0.88182 0.0
C656 C 0.49134 0.98303 0.86893 0.0
C657 C 0.4847 0.99513 0.86147 0.0
C658 C 0.51119 0.9926 0.87544 0.0
C659 C 0.51879 0.98094 0.88416 0.0
C660 C 0.50834 0.96989 0.89712 0.0
C661 C 0.51554 0.95882 0.90521 0.0
C662 C 0.5333 0.95886 0.90053 0.0
C663 C 0.54393 0.97002 0.88777 0.0
C664 C 0.53676 0.98108 0.87962 0.0
C665 C 0.53204 0.07963 0.88136 0.0
C666 C 0.55326 0.09035 0.87843 0.0
C667 C 0.52001 0.05903 0.87729 0.0
C668 C 0.52888 0.04874 0.87006 0.0
C669 C 0.5499 0.05963 0.86654 0.0
C670 C 0.56198 0.08028 0.87064 0.0
C671 C 0.51665 0.02618 0.8678 0.0
C672 C 0.52366 0.01398 0.87461 0.0
C673 C 0.49713 0.0166 0.86076 0.0
C674 C 0.48943 0.02864 0.85261 0.0
C675 C 0.50153 0.04296 0.8415 0.0
C676 C 0.49429 0.05439 0.83395 0.0
C677 C 0.47491 0.05158 0.83735 0.0
C678 C 0.46272 0.0373 0.84829 0.0
C679 C 0.46989 0.02584 0.85589 0.0
H680 H 0.46934 0.06045 0.83149 0.0
H681 H 0.53886 0.95029 0.90682 0.0
H682 H 0.4529 0.55179 0.26705 0.0
H683 H 0.48363 0.54974 0.27271 0.0
H684 H 0.44655 0.484 0.27734 0.0
H685 H 0.4157 0.48592 0.27188 0.0
H686 H 0.47639 0.50031 0.29879 0.0
H687 H 0.47173 0.50481 0.24483 0.0
H688 H 0.46886 0.5202 0.22106 0.0
H689 H 0.52515 0.57566 0.23102 0.0
H690 H 0.5282 0.56068 0.25497 0.0
H691 H 0.54667 0.46627 0.28086 0.0
H692 H 0.51882 0.47383 0.28375 0.0
H693 H 0.56209 0.53856 0.27938 0.0
H694 H 0.59007 0.53115 0.27645 0.0
H695 H 0.53083 0.52586 0.2597 0.0
H696 H 0.53714 0.52084 0.31286 0.0
H697 H 0.54003 0.50573 0.33677 0.0
H698 H 0.48164 0.45189 0.3286 0.0
H699 H 0.47838 0.46667 0.30463 0.0
C700 C 0.45126 0.53689 0.26931 0.0
C701 C 0.43189 0.51898 0.2688 0.0
C702 C 0.46884 0.53576 0.27257 0.0
C703 C 0.4674 0.51669 0.27525 0.0
C704 C 0.44801 0.49887 0.27528 0.0
C705 C 0.43041 0.49999 0.27206 0.0
C706 C 0.48616 0.51515 0.2772 0.0
C707 C 0.48829 0.50582 0.29025 0.0
C708 C 0.50185 0.52271 0.26616 0.0
C709 C 0.50006 0.53172 0.25176 0.0
C710 C 0.4834 0.52035 0.242 0.0
C711 C 0.48176 0.52899 0.22849 0.0
C712 C 0.49678 0.54892 0.22456 0.0
C713 C 0.51351 0.56024 0.2341 0.0
C714 C 0.5152 0.55168 0.24764 0.0
C715 C 0.55033 0.48215 0.28074 0.0
C716 C 0.57057 0.4981 0.27827 0.0
C717 C 0.53439 0.48645 0.28252 0.0
C718 C 0.53839 0.50677 0.28185 0.0
C719 C 0.55869 0.52277 0.27997 0.0
C720 C 0.57465 0.5185 0.27828 0.0
C721 C 0.52115 0.51101 0.28133 0.0
C722 C 0.5192 0.52072 0.26844 0.0
C723 C 0.5057 0.50384 0.29254 0.0
C724 C 0.50764 0.49477 0.30686 0.0
C725 C 0.525 0.5057 0.3161 0.0
C726 C 0.52667 0.49723 0.32968 0.0
C727 C 0.5111 0.47781 0.33414 0.0
C728 C 0.49374 0.46688 0.32508 0.0
C729 C 0.49193 0.47534 0.31153 0.0
H730 H 0.51244 0.47125 0.34464 0.0
H731 H 0.49549 0.55558 0.21409 0.0
H732 H 0.57486 0.17662 0.94258 0.0
H733 H 0.57875 0.18404 0.96954 0.0
H734 H 0.63701 0.18585 0.96911 0.0
H735 H 0.63287 0.17773 0.9422 0.0
H736 H 0.61578 0.16426 0.9919 0.0
H737 H 0.63297 0.23019 0.97276 0.0
H738 H 0.62873 0.25538 0.95772 0.0
H739 H 0.57315 0.23978 0.98162 0.0
H740 H 0.5769 0.21428 0.99667 0.0
H741 H 0.64604 0.21446 0.06496 0.0
H742 H 0.64476 0.21078 0.03739 0.0
H743 H 0.57869 0.18078 0.03874 0.0
H744 H 0.57984 0.18397 0.06632 0.0
H745 H 0.60555 0.21809 0.01588 0.0
H746 H 0.58762 0.14917 0.03275 0.0
H747 H 0.59341 0.12505 0.0479 0.0
H748 H 0.65329 0.14899 0.02828 0.0
H749 H 0.64785 0.17335 0.01306 0.0
C750 C 0.58861 0.17881 0.94818 0.0
C751 C 0.60356 0.17658 0.94024 0.0
C752 C 0.59086 0.18315 0.96361 0.0
C753 C 0.60829 0.18575 0.97136 0.0
C754 C 0.62342 0.1839 0.96339 0.0
C755 C 0.62106 0.17931 0.94799 0.0
C756 C 0.61022 0.18938 0.98791 0.0
C757 C 0.61384 0.17626 0.99706 0.0
C758 C 0.60743 0.20484 0.99477 0.0
C759 C 0.60513 0.22018 0.98575 0.0
C760 C 0.61975 0.23201 0.97473 0.0
C761 C 0.61745 0.24637 0.96621 0.0
C762 C 0.60065 0.24914 0.96868 0.0
C763 C 0.58614 0.2376 0.9797 0.0
C764 C 0.58836 0.22321 0.98824 0.0
C765 C 0.63127 0.20709 0.05934 0.0
C766 C 0.61302 0.19923 0.06771 0.0
C767 C 0.63056 0.205 0.04366 0.0
C768 C 0.61163 0.19548 0.03614 0.0
C769 C 0.59342 0.18812 0.04442 0.0
C770 C 0.59409 0.18979 0.06012 0.0
C771 C 0.61086 0.19289 0.01961 0.0
C772 C 0.60754 0.20622 0.01057 0.0
C773 C 0.61414 0.17782 0.01281 0.0
C774 C 0.61744 0.16323 0.02193 0.0
C775 C 0.6021 0.14943 0.0318 0.0
C776 C 0.60529 0.13568 0.04036 0.0
C777 C 0.62376 0.13556 0.03913 0.0
C778 C 0.63902 0.14913 0.02926 0.0
C779 C 0.63588 0.16288 0.02064 0.0
H780 H 0.6262 0.12491 0.04577 0.0
H781 H 0.5989 0.26026 0.96208 0.0
H782 H 0.38744 0.56451 0.26789 0.0
H783 H 0.39894 0.57321 0.29399 0.0
H784 H 0.33631 0.53696 0.3093 0.0
H785 H 0.32477 0.5281 0.28314 0.0
H786 H 0.35386 0.57208 0.32307 0.0
H787 H 0.37127 0.52047 0.31428 0.0
H788 H 0.38667 0.50155 0.30264 0.0
H789 H 0.44693 0.55353 0.30902 0.0
H790 H 0.43191 0.57291 0.3205 0.0
H791 H 0.41036 0.57192 0.39728 0.0
H792 H 0.39614 0.55749 0.37251 0.0
H793 H 0.40332 0.61574 0.35869 0.0
H794 H 0.4173 0.63011 0.38352 0.0
H795 H 0.41089 0.56569 0.34534 0.0
H796 H 0.36605 0.60887 0.33448 0.0
H797 H 0.34772 0.6227 0.34905 0.0
H798 H 0.33672 0.57972 0.38465 0.0
H799 H 0.35473 0.56545 0.37021 0.0
C800 C 0.3762 0.55792 0.27684 0.0
C801 C 0.35528 0.54518 0.27353 0.0
C802 C 0.38277 0.56301 0.29176 0.0
C803 C 0.36854 0.55545 0.30364 0.0
C804 C 0.34758 0.54288 0.30033 0.0
C805 C 0.34101 0.53784 0.2854 0.0
C806 C 0.37542 0.56157 0.31944 0.0
C807 C 0.3663 0.57063 0.32794 0.0
C808 C 0.39138 0.55931 0.32593 0.0
C809 C 0.40043 0.54819 0.31818 0.0
C810 C 0.38779 0.52799 0.31301 0.0
C811 C 0.39646 0.51715 0.3065 0.0
C812 C 0.41776 0.52631 0.30518 0.0
C813 C 0.43044 0.54645 0.31011 0.0
C814 C 0.42185 0.55736 0.31662 0.0
C815 C 0.40922 0.58172 0.38886 0.0
C816 C 0.41525 0.60222 0.39219 0.0
C817 C 0.40095 0.57342 0.37475 0.0
C818 C 0.3985 0.58547 0.36376 0.0
C819 C 0.4047 0.60603 0.36707 0.0
C820 C 0.41277 0.61425 0.38122 0.0
C821 C 0.38963 0.5766 0.3488 0.0
C822 C 0.39842 0.56709 0.34045 0.0
C823 C 0.37298 0.57789 0.3426 0.0
C824 C 0.36191 0.58623 0.35131 0.0
C825 C 0.35964 0.60232 0.34539 0.0
C826 C 0.34933 0.61025 0.35363 0.0
C827 C 0.34112 0.60214 0.36778 0.0
C828 C 0.34315 0.58604 0.37371 0.0
C829 C 0.35344 0.57804 0.3655 0.0
H830 H 0.33315 0.60831 0.37415 0.0
H831 H 0.42446 0.51775 0.30044 0.0
H832 H 0.82039 0.40525 0.74165 0.0
H833 H 0.82312 0.40184 0.71448 0.0
H834 H 0.79017 0.43424 0.70649 0.0
H835 H 0.78721 0.43743 0.73375 0.0
H836 H 0.77533 0.40237 0.6895 0.0
H837 H 0.8429 0.45651 0.69995 0.0
H838 H 0.87655 0.47465 0.71266 0.0
H839 H 0.8897 0.4279 0.69839 0.0
H840 H 0.85598 0.40926 0.68582 0.0
H841 H 0.8285 0.41711 0.61104 0.0
H842 H 0.82966 0.42844 0.63711 0.0
H843 H 0.78479 0.36656 0.64984 0.0
H844 H 0.78363 0.35521 0.62387 0.0
H845 H 0.84002 0.41859 0.66331 0.0
H846 H 0.75286 0.36699 0.67591 0.0
H847 H 0.71988 0.35222 0.66231 0.0
H848 H 0.74708 0.40038 0.62936 0.0
H849 H 0.78014 0.41559 0.64287 0.0
C850 C 0.81418 0.41208 0.73409 0.0
C851 C 0.80399 0.42201 0.73976 0.0
C852 C 0.81569 0.41007 0.71855 0.0
C853 C 0.80719 0.41812 0.7084 0.0
C854 C 0.79693 0.42799 0.71409 0.0
C855 C 0.79525 0.42982 0.72964 0.0
C856 C 0.808 0.41519 0.69191 0.0
C857 C 0.78951 0.40603 0.68378 0.0
C858 C 0.82656 0.42034 0.68434 0.0
C859 C 0.84682 0.43141 0.69201 0.0
C860 C 0.85288 0.44999 0.69963 0.0
C861 C 0.87198 0.46038 0.70679 0.0
C862 C 0.88525 0.45244 0.70631 0.0
C863 C 0.87941 0.43404 0.69873 0.0
C864 C 0.86031 0.42356 0.69158 0.0
C865 C 0.81922 0.40587 0.61947 0.0
C866 C 0.80624 0.38521 0.61549 0.0
C867 C 0.81976 0.41239 0.63433 0.0
C868 C 0.8072 0.39839 0.6454 0.0
C869 C 0.79438 0.37771 0.64144 0.0
C870 C 0.79376 0.37123 0.62661 0.0
C871 C 0.80728 0.40527 0.6611 0.0
C872 C 0.82591 0.41513 0.66905 0.0
C873 C 0.78893 0.40124 0.66845 0.0
C874 C 0.76902 0.39233 0.66034 0.0
C875 C 0.75178 0.37448 0.6658 0.0
C876 C 0.73307 0.36602 0.6581 0.0
C877 C 0.7314 0.37532 0.64496 0.0
C878 C 0.74841 0.39315 0.63951 0.0
C879 C 0.76715 0.40168 0.64718 0.0
H880 H 0.71691 0.36874 0.63901 0.0
H881 H 0.9001 0.46058 0.71174 0.0
H882 H 0.42451 0.82702 0.07116 0.0
H883 H 0.42812 0.83195 0.04386 0.0
H884 H 0.36297 0.79106 0.03851 0.0
H885 H 0.35932 0.78614 0.06586 0.0
H886 H 0.38331 0.78238 0.01855 0.0
H887 H 0.38541 0.84411 0.03517 0.0
H888 H 0.39735 0.87636 0.0493 0.0
H889 H 0.45747 0.90076 0.03006 0.0
H890 H 0.44599 0.86854 0.01596 0.0
H891 H 0.37555 0.80904 0.94252 0.0
H892 H 0.37222 0.80297 0.96973 0.0
H893 H 0.4378 0.84113 0.97478 0.0
H894 H 0.44128 0.84743 0.94765 0.0
H895 H 0.41733 0.85129 0.99479 0.0
H896 H 0.41505 0.7895 0.97816 0.0
H897 H 0.40253 0.75789 0.96312 0.0
H898 H 0.3423 0.73405 0.98207 0.0
H899 H 0.3544 0.76566 0.99708 0.0
C900 C 0.41089 0.81948 0.0642 0.0
C901 C 0.39154 0.80664 0.07066 0.0
C902 C 0.41299 0.8222 0.04858 0.0
C903 C 0.39575 0.81219 0.03914 0.0
C904 C 0.37647 0.79903 0.04557 0.0
C905 C 0.37439 0.79623 0.06118 0.0
C906 C 0.3979 0.81497 0.02253 0.0
C907 C 0.3905 0.79745 0.01335 0.0
C908 C 0.40775 0.83466 0.01574 0.0
C909 C 0.41487 0.8538 0.02461 0.0
C910 C 0.40124 0.85624 0.03409 0.0
C911 C 0.40792 0.87455 0.04206 0.0
C912 C 0.42815 0.89059 0.04057 0.0
C913 C 0.4418 0.88832 0.03119 0.0
C914 C 0.43521 0.87004 0.02321 0.0
C915 C 0.38929 0.81599 0.94939 0.0
C916 C 0.40868 0.82875 0.94289 0.0
C917 C 0.38737 0.81246 0.96494 0.0
C918 C 0.40478 0.82154 0.97427 0.0
C919 C 0.42416 0.834 0.96779 0.0
C920 C 0.42611 0.83751 0.95226 0.0
C921 C 0.40275 0.81874 0.99087 0.0
C922 C 0.41017 0.83625 1.00002 0.0
C923 C 0.3929 0.79908 0.99763 0.0
C924 C 0.38559 0.78004 0.98863 0.0
C925 C 0.3991 0.7776 0.97902 0.0
C926 C 0.39208 0.75966 0.97052 0.0
C927 C 0.37162 0.744 0.9716 0.0
C928 C 0.35814 0.74621 0.98122 0.0
C929 C 0.36507 0.76412 0.98974 0.0
H930 H 0.36622 0.73012 0.96502 0.0
H931 H 0.43324 0.90481 0.04663 0.0
H932 H 0.59222 0.40878 0.40226 0.0
H933 H 0.6016 0.42311 0.37684 0.0
H934 H 0.57649 0.362 0.3586 0.0
H935 H 0.56712 0.34765 0.38403 0.0
H936 H 0.61163 0.38546 0.34638 0.0
H937 H 0.55171 0.39043 0.35479 0.0
H938 H 0.5279 0.40003 0.3664 0.0
H939 H 0.57311 0.46386 0.36216 0.0
H940 H 0.59733 0.45466 0.35071 0.0
H941 H 0.59864 0.4348 0.27292 0.0
H942 H 0.58688 0.42029 0.29804 0.0
H943 H 0.64921 0.43888 0.31068 0.0
H944 H 0.66097 0.45323 0.28545 0.0
H945 H 0.59375 0.4355 0.32513 0.0
H946 H 0.64966 0.40454 0.33502 0.0
H947 H 0.66834 0.39134 0.32016 0.0
H948 H 0.62346 0.37292 0.28486 0.0
H949 H 0.60438 0.38575 0.29958 0.0
C950 C 0.58827 0.39839 0.39279 0.0
C951 C 0.57852 0.37708 0.39506 0.0
C952 C 0.59373 0.4066 0.37827 0.0
C953 C 0.58947 0.39362 0.36576 0.0
C954 C 0.57989 0.37232 0.36806 0.0
C955 C 0.57455 0.36414 0.38258 0.0
C956 C 0.59577 0.40225 0.35035 0.0
C957 C 0.6077 0.39641 0.34176 0.0
C958 C 0.59041 0.41629 0.34418 0.0
C959 C 0.5764 0.42184 0.35199 0.0
C960 C 0.55671 0.40651 0.35654 0.0
C961 C 0.5431 0.41188 0.36303 0.0
C962 C 0.54897 0.43254 0.36493 0.0
C963 C 0.56858 0.44787 0.36062 0.0
C964 C 0.58225 0.44258 0.35414 0.0
C965 C 0.60987 0.43617 0.28116 0.0
C966 C 0.63076 0.44547 0.27736 0.0
C967 C 0.60312 0.42773 0.29547 0.0
C968 C 0.61712 0.42836 0.30623 0.0
C969 C 0.63806 0.43791 0.3025 0.0
C970 C 0.64478 0.44617 0.28812 0.0
C971 C 0.60974 0.41886 0.32128 0.0
C972 C 0.59771 0.4246 0.32981 0.0
C973 C 0.61447 0.40426 0.32723 0.0
C974 C 0.62573 0.39632 0.31834 0.0
C975 C 0.64375 0.39761 0.32411 0.0
C976 C 0.65441 0.3902 0.31571 0.0
C977 C 0.64713 0.38136 0.30156 0.0
C978 C 0.62913 0.37984 0.2958 0.0
C979 C 0.6184 0.38721 0.30416 0.0
H980 H 0.65541 0.37565 0.29507 0.0
H981 H 0.53828 0.43668 0.36963 0.0
H982 H 0.21677 0.57316 0.72264 0.0
H983 H 0.21539 0.5813 0.69611 0.0
H984 H 0.17173 0.6006 0.70715 0.0
H985 H 0.17301 0.59238 0.73367 0.0
H986 H 0.16112 0.57963 0.68146 0.0
H987 H 0.22244 0.63568 0.70198 0.0
H988 H 0.25557 0.6522 0.71545 0.0
H989 H 0.28062 0.6288 0.68262 0.0
H990 H 0.24753 0.6119 0.66907 0.0
H991 H 0.21467 0.65627 0.61424 0.0
H992 H 0.21215 0.64705 0.64093 0.0
H993 H 0.17766 0.58282 0.6291 0.0
H994 H 0.17997 0.59204 0.60244 0.0
H995 H 0.22641 0.6275 0.65571 0.0
H996 H 0.14504 0.55523 0.65784 0.0
H997 H 0.11122 0.54157 0.64561 0.0
H998 H 0.12532 0.60276 0.63436 0.0
H999 H 0.15908 0.61683 0.64672 0.0
C1000 C 0.20677 0.579 0.71937 0.0
C1001 C 0.19475 0.58184 0.73016 0.0
C1002 C 0.20602 0.58369 0.70423 0.0
C1003 C 0.19359 0.59173 0.69966 0.0
C1004 C 0.18131 0.59426 0.7104 0.0
C1005 C 0.18193 0.58942 0.72553 0.0
C1006 C 0.19394 0.59818 0.68379 0.0
C1007 C 0.17538 0.59007 0.6758 0.0
C1008 C 0.21251 0.61215 0.67651 0.0
C1009 C 0.23245 0.62237 0.68459 0.0
C1010 C 0.23497 0.63394 0.6977 0.0
C1011 C 0.25374 0.64339 0.70534 0.0
C1012 C 0.27017 0.64151 0.69992 0.0
C1013 C 0.26787 0.63022 0.68682 0.0
C1014 C 0.24912 0.62072 0.67915 0.0
C1015 C 0.20644 0.64019 0.61738 0.0
C1016 C 0.19712 0.62487 0.60634 0.0
C1017 C 0.20501 0.63494 0.63261 0.0
C1018 C 0.19443 0.61424 0.63707 0.0
C1019 C 0.18541 0.5989 0.626 0.0
C1020 C 0.18666 0.60417 0.61077 0.0
C1021 C 0.1936 0.60878 0.65325 0.0
C1022 C 0.21211 0.61704 0.66131 0.0
C1023 C 0.17492 0.59534 0.66067 0.0
C1024 C 0.15468 0.58706 0.6531 0.0
C1025 C 0.14091 0.56578 0.65279 0.0
C1026 C 0.12175 0.55797 0.64584 0.0
C1027 C 0.11614 0.57129 0.63922 0.0
C1028 C 0.12971 0.59246 0.63948 0.0
C1029 C 0.14887 0.60036 0.64644 0.0
H1030 H 0.10124 0.56521 0.63395 0.0
H1031 H 0.28469 0.64884 0.70585 0.0
loop_
_geom_bond_atom_site_label_1
_geom_bond_atom_site_label_2
_geom_bond_distance
_geom_bond_site_symmetry_2
_ccdc_geom_bond_type
O0 Cd1 2.300 . S
O0 C7 1.275 . S
Cd1 O0 2.300 . S
Cd1 O9 2.381 . S
Cd1 O10 2.378 . S
O2 Cd3 2.385 . S
O2 C7 1.255 . S
Cd3 O2 2.385 . S
Cd3 O4 2.317 . S
O4 Cd3 2.317 . S
O4 C5 1.232 . S
C5 O4 1.232 . S
C5 O6 1.218 . S
O6 C5 1.218 . S
C7 O0 1.275 . S
C7 O2 1.255 . S
C8 O9 1.258 . S
C8 O10 1.256 . S
O9 Cd1 2.381 . S
O9 C8 1.258 . S
O10 Cd1 2.378 . S
O10 C8 1.256 . S
O11 Cd12 2.300 . S
O11 C18 1.275 . S
Cd12 O11 2.300 . S
Cd12 O20 2.381 . S
Cd12 O21 2.378 . S
O13 Cd14 2.385 . S
O13 C18 1.255 . S
Cd14 O13 2.385 . S
Cd14 O15 2.317 . S
O15 Cd14 2.317 . S
O15 C16 1.232 . S
C16 O15 1.232 . S
C16 O17 1.218 . S
O17 C16 1.218 . S
C18 O11 1.275 . S
C18 O13 1.255 . S
C19 O20 1.258 . S
C19 O21 1.256 . S
O20 Cd12 2.381 . S
O20 C19 1.258 . S
O21 Cd12 2.378 . S
O21 C19 1.256 . S
O22 Cd23 2.300 . S
O22 C29 1.275 . S
Cd23 O22 2.300 . S
Cd23 O31 2.381 . S
Cd23 O32 2.378 . S
O24 Cd25 2.385 . S
O24 C29 1.255 . S
Cd25 O24 2.385 . S
Cd25 O26 2.317 . S
O26 Cd25 2.317 . S
O26 C27 1.232 . S
C27 O26 1.232 . S
C27 O28 1.218 . S
O28 C27 1.218 . S
C29 O22 1.275 . S
C29 O24 1.255 . S
C30 O31 1.258 . S
C30 O32 1.256 . S
O31 Cd23 2.381 . S
O31 C30 1.258 . S
O32 Cd23 2.378 . S
O32 C30 1.256 . S
O33 Cd34 2.300 . S
O33 C40 1.275 . S
Cd34 O33 2.300 . S
Cd34 O42 2.381 . S
Cd34 O43 2.378 . S
O35 Cd36 2.385 . S
O35 C40 1.255 . S
Cd36 O35 2.385 . S
Cd36 O37 2.317 . S
O37 Cd36 2.317 . S
O37 C38 1.232 . S
C38 O37 1.232 . S
C38 O39 1.218 . S
O39 C38 1.218 . S
C40 O33 1.275 . S
C40 O35 1.255 . S
C41 O42 1.258 . S
C41 O43 1.256 . S
O42 Cd34 2.381 . S
O42 C41 1.258 . S
O43 Cd34 2.378 . S
O43 C41 1.256 . S
O44 Cd45 2.300 . S
O44 C51 1.275 . S
Cd45 O44 2.300 . S
Cd45 O53 2.381 . S
Cd45 O54 2.378 . S
O46 Cd47 2.385 . S
O46 C51 1.255 . S
Cd47 O46 2.385 . S
Cd47 O48 2.317 . S
O48 Cd47 2.317 . S
O48 C49 1.232 . S
C49 O48 1.232 . S
C49 O50 1.218 . S
O50 C49 1.218 . S
C51 O44 1.275 . S
C51 O46 1.255 . S
C52 O53 1.258 . S
C52 O54 1.256 . S
O53 Cd45 2.381 . S
O53 C52 1.258 . S
O54 Cd45 2.378 . S
O54 C52 1.256 . S
O55 Cd56 2.300 . S
O55 C62 1.275 . S
Cd56 O55 2.300 . S
Cd56 O64 2.381 . S
Cd56 O65 2.378 . S
O57 Cd58 2.385 . S
O57 C62 1.255 . S
Cd58 O57 2.385 . S
Cd58 O59 2.317 . S
O59 Cd58 2.317 . S
O59 C60 1.232 . S
C60 O59 1.232 . S
C60 O61 1.218 . S
O61 C60 1.218 . S
C62 O55 1.275 . S
C62 O57 1.255 . S
C63 O64 1.258 . S
C63 O65 1.256 . S
O64 Cd56 2.381 . S
O64 C63 1.258 . S
O65 Cd56 2.378 . S
O65 C63 1.256 . S
O66 Cd67 2.300 . S
O66 C73 1.275 . S
Cd67 O66 2.300 . S
Cd67 O75 2.381 . S
Cd67 O76 2.378 . S
O68 Cd69 2.385 . S
O68 C73 1.255 . S
Cd69 O68 2.385 . S
Cd69 O70 2.317 . S
O70 Cd69 2.317 . S
O70 C71 1.232 . S
C71 O70 1.232 . S
C71 O72 1.218 . S
O72 C71 1.218 . S
C73 O66 1.275 . S
C73 O68 1.255 . S
C74 O75 1.258 . S
C74 O76 1.256 . S
O75 Cd67 2.381 . S
O75 C74 1.258 . S
O76 Cd67 2.378 . S
O76 C74 1.256 . S
O77 Cd78 2.300 . S
O77 C84 1.275 . S
Cd78 O77 2.300 . S
Cd78 O86 2.381 . S
Cd78 O87 2.378 . S
O79 Cd80 2.385 . S
O79 C84 1.255 . S
Cd80 O79 2.385 . S
Cd80 O81 2.317 . S
O81 Cd80 2.317 . S
O81 C82 1.232 . S
C82 O81 1.232 . S
C82 O83 1.218 . S
O83 C82 1.218 . S
C84 O77 1.275 . S
C84 O79 1.255 . S
C85 O86 1.258 . S
C85 O87 1.256 . S
O86 Cd78 2.381 . S
O86 C85 1.258 . S
O87 Cd78 2.378 . S
O87 C85 1.256 . S
O88 Cd89 2.300 . S
O88 C95 1.275 . S
Cd89 O88 2.300 . S
Cd89 O97 2.381 . S
Cd89 O98 2.378 . S
O90 Cd91 2.385 . S
O90 C95 1.255 . S
Cd91 O90 2.385 . S
Cd91 O92 2.317 . S
O92 Cd91 2.317 . S
O92 C93 1.232 . S
C93 O92 1.232 . S
C93 O94 1.218 . S
O94 C93 1.218 . S
C95 O88 1.275 . S
C95 O90 1.255 . S
C96 O97 1.258 . S
C96 O98 1.256 . S
O97 Cd89 2.381 . S
O97 C96 1.258 . S
O98 Cd89 2.378 . S
O98 C96 1.256 . S
O99 Cd100 2.300 . S
O99 C106 1.275 . S
Cd100 O99 2.300 . S
Cd100 O108 2.381 . S
Cd100 O109 2.378 . S
O101 Cd102 2.385 . S
O101 C106 1.255 . S
Cd102 O101 2.385 . S
Cd102 O103 2.317 . S
O103 Cd102 2.317 . S
O103 C104 1.232 . S
C104 O103 1.232 . S
C104 O105 1.218 . S
O105 C104 1.218 . S
C106 O99 1.275 . S
C106 O101 1.255 . S
C107 O108 1.258 . S
C107 O109 1.256 . S
O108 Cd100 2.381 . S
O108 C107 1.258 . S
O109 Cd100 2.378 . S
O109 C107 1.256 . S
O110 Cd111 2.300 . S
O110 C117 1.275 . S
Cd111 O110 2.300 . S
Cd111 O119 2.381 . S
Cd111 O120 2.378 . S
O112 Cd113 2.385 . S
O112 C117 1.255 . S
Cd113 O112 2.385 . S
Cd113 O114 2.317 . S
O114 Cd113 2.317 . S
O114 C115 1.232 . S
C115 O114 1.232 . S
C115 O116 1.218 . S
O116 C115 1.218 . S
C117 O110 1.275 . S
C117 O112 1.255 . S
C118 O119 1.258 . S
C118 O120 1.256 . S
O119 Cd111 2.381 . S
O119 C118 1.258 . S
O120 Cd111 2.378 . S
O120 C118 1.256 . S
O121 Cd122 2.300 . S
O121 C128 1.275 . S
Cd122 O121 2.300 . S
Cd122 O130 2.381 . S
Cd122 O131 2.378 . S
O123 Cd124 2.385 . S
O123 C128 1.255 . S
Cd124 O123 2.385 . S
Cd124 O125 2.317 . S
O125 Cd124 2.317 . S
O125 C126 1.232 . S
C126 O125 1.232 . S
C126 O127 1.218 . S
O127 C126 1.218 . S
C128 O121 1.275 . S
C128 O123 1.255 . S
C129 O130 1.258 . S
C129 O131 1.256 . S
O130 Cd122 2.381 . S
O130 C129 1.258 . S
O131 Cd122 2.378 . S
O131 C129 1.256 . S
H132 C150 0.951 . S
H133 C152 0.951 . S
H134 C154 0.950 . S
H135 C155 0.950 . S
H136 C157 0.950 . S
H137 C160 0.950 . S
H138 C161 0.950 . S
H139 C163 0.950 . S
H140 C164 0.950 . S
H141 C165 0.951 . S
H142 C167 0.951 . S
H143 C169 0.950 . S
H144 C170 0.950 . S
H145 C172 0.950 . S
H146 C175 0.950 . S
H147 C176 0.950 . S
H148 C178 0.950 . S
H149 C179 0.950 . S
C150 H132 0.951 . S
C150 C151 1.366 . S
C150 C152 1.388 . S
C151 C150 1.366 . S
C151 C155 1.385 . S
C152 H133 0.951 . S
C152 C150 1.388 . S
C152 C153 1.366 . S
C153 C152 1.366 . S
C153 C154 1.414 . S
C153 C156 1.499 . S
C154 H134 0.950 . S
C154 C153 1.414 . S
C154 C155 1.374 . S
C155 H135 0.950 . S
C155 C151 1.385 . S
C155 C154 1.374 . S
C156 C153 1.499 . S
C156 C157 1.373 . S
C156 C158 1.389 . S
C157 H136 0.950 . S
C157 C156 1.373 . S
C157 C173 1.377 . S
C158 C156 1.389 . S
C158 C159 1.524 . S
C158 C172 1.377 . S
C159 C158 1.524 . S
C159 C160 1.397 . S
C159 C164 1.363 . S
C160 H137 0.950 . S
C160 C159 1.397 . S
C160 C161 1.334 . S
C161 H138 0.950 . S
C161 C160 1.334 . S
C161 C162 1.287 . S
C162 C161 1.287 . S
C162 C163 1.524 . S
C162 H181 0.913 . S
C163 H139 0.950 . S
C163 C162 1.524 . S
C163 C164 1.415 . S
C164 H140 0.950 . S
C164 C159 1.363 . S
C164 C163 1.415 . S
C165 H141 0.951 . S
C165 C166 1.366 . S
C165 C167 1.388 . S
C166 C165 1.366 . S
C166 C170 1.385 . S
C167 H142 0.951 . S
C167 C165 1.388 . S
C167 C168 1.366 . S
C168 C167 1.366 . S
C168 C169 1.414 . S
C168 C171 1.499 . S
C169 H143 0.950 . S
C169 C168 1.414 . S
C169 C170 1.374 . S
C170 H144 0.950 . S
C170 C166 1.385 . S
C170 C169 1.374 . S
C171 C168 1.499 . S
C171 C172 1.373 . S
C171 C173 1.389 . S
C172 H145 0.950 . S
C172 C158 1.377 . S
C172 C171 1.373 . S
C173 C157 1.377 . S
C173 C171 1.389 . S
C173 C174 1.524 . S
C174 C173 1.524 . S
C174 C175 1.397 . S
C174 C179 1.363 . S
C175 H146 0.950 . S
C175 C174 1.397 . S
C175 C176 1.334 . S
C176 H147 0.950 . S
C176 C175 1.334 . S
C176 C177 1.287 . S
C177 C176 1.287 . S
C177 C178 1.524 . S
C177 H180 0.999 . S
C178 H148 0.950 . S
C178 C177 1.524 . S
C178 C179 1.415 . S
C179 H149 0.950 . S
C179 C174 1.363 . S
C179 C178 1.415 . S
H180 C177 0.999 . S
H181 C162 0.913 . S
H182 C200 0.951 . S
H183 C202 0.951 . S
H184 C204 0.950 . S
H185 C205 0.950 . S
H186 C207 0.950 . S
H187 C210 0.950 . S
H188 C211 0.950 . S
H189 C213 0.950 . S
H190 C214 0.950 . S
H191 C215 0.951 . S
H192 C217 0.951 . S
H193 C219 0.950 . S
H194 C220 0.950 . S
H195 C222 0.950 . S
H196 C225 0.950 . S
H197 C226 0.950 . S
H198 C228 0.950 . S
H199 C229 0.950 . S
C200 H182 0.951 . S
C200 C201 1.366 . S
C200 C202 1.388 . S
C201 C200 1.366 . S
C201 C205 1.385 . S
C202 H183 0.951 . S
C202 C200 1.388 . S
C202 C203 1.366 . S
C203 C202 1.366 . S
C203 C204 1.414 . S
C203 C206 1.499 . S
C204 H184 0.950 . S
C204 C203 1.414 . S
C204 C205 1.374 . S
C205 H185 0.950 . S
C205 C201 1.385 . S
C205 C204 1.374 . S
C206 C203 1.499 . S
C206 C207 1.373 . S
C206 C208 1.389 . S
C207 H186 0.950 . S
C207 C206 1.373 . S
C207 C223 1.377 . S
C208 C206 1.389 . S
C208 C209 1.524 . S
C208 C222 1.377 . S
C209 C208 1.524 . S
C209 C210 1.397 . S
C209 C214 1.363 . S
C210 H187 0.950 . S
C210 C209 1.397 . S
C210 C211 1.334 . S
C211 H188 0.950 . S
C211 C210 1.334 . S
C211 C212 1.287 . S
C212 C211 1.287 . S
C212 C213 1.524 . S
C212 H231 0.913 . S
C213 H189 0.950 . S
C213 C212 1.524 . S
C213 C214 1.415 . S
C214 H190 0.950 . S
C214 C209 1.363 . S
C214 C213 1.415 . S
C215 H191 0.951 . S
C215 C216 1.366 . S
C215 C217 1.388 . S
C216 C215 1.366 . S
C216 C220 1.385 . S
C217 H192 0.951 . S
C217 C215 1.388 . S
C217 C218 1.366 . S
C218 C217 1.366 . S
C218 C219 1.414 . S
C218 C221 1.499 . S
C219 H193 0.950 . S
C219 C218 1.414 . S
C219 C220 1.374 . S
C220 H194 0.950 . S
C220 C216 1.385 . S
C220 C219 1.374 . S
C221 C218 1.499 . S
C221 C222 1.373 . S
C221 C223 1.389 . S
C222 H195 0.950 . S
C222 C208 1.377 . S
C222 C221 1.373 . S
C223 C207 1.377 . S
C223 C221 1.389 . S
C223 C224 1.524 . S
C224 C223 1.524 . S
C224 C225 1.397 . S
C224 C229 1.363 . S
C225 H196 0.950 . S
C225 C224 1.397 . S
C225 C226 1.334 . S
C226 H197 0.950 . S
C226 C225 1.334 . S
C226 C227 1.287 . S
C227 C226 1.287 . S
C227 C228 1.524 . S
C227 H230 0.999 . S
C228 H198 0.950 . S
C228 C227 1.524 . S
C228 C229 1.415 . S
C229 H199 0.950 . S
C229 C224 1.363 . S
C229 C228 1.415 . S
H230 C227 0.999 . S
H231 C212 0.913 . S
H232 C250 0.951 . S
H233 C252 0.951 . S
H234 C254 0.950 . S
H235 C255 0.950 . S
H236 C257 0.950 . S
H237 C260 0.950 . S
H238 C261 0.950 . S
H239 C263 0.950 . S
H240 C264 0.950 . S
H241 C265 0.951 . S
H242 C267 0.951 . S
H243 C269 0.950 . S
H244 C270 0.950 . S
H245 C272 0.950 . S
H246 C275 0.950 . S
H247 C276 0.950 . S
H248 C278 0.950 . S
H249 C279 0.950 . S
C250 H232 0.951 . S
C250 C251 1.366 . S
C250 C252 1.388 . S
C251 C250 1.366 . S
C251 C255 1.385 . S
C252 H233 0.951 . S
C252 C250 1.388 . S
C252 C253 1.366 . S
C253 C252 1.366 . S
C253 C254 1.414 . S
C253 C256 1.499 . S
C254 H234 0.950 . S
C254 C253 1.414 . S
C254 C255 1.374 . S
C255 H235 0.950 . S
C255 C251 1.385 . S
C255 C254 1.374 . S
C256 C253 1.499 . S
C256 C257 1.373 . S
C256 C258 1.389 . S
C257 H236 0.950 . S
C257 C256 1.373 . S
C257 C273 1.377 . S
C258 C256 1.389 . S
C258 C259 1.524 . S
C258 C272 1.377 . S
C259 C258 1.524 . S
C259 C260 1.397 . S
C259 C264 1.363 . S
C260 H237 0.950 . S
C260 C259 1.397 . S
C260 C261 1.334 . S
C261 H238 0.950 . S
C261 C260 1.334 . S
C261 C262 1.287 . S
C262 C261 1.287 . S
C262 C263 1.524 . S
C262 H281 0.913 . S
C263 H239 0.950 . S
C263 C262 1.524 . S
C263 C264 1.415 . S
C264 H240 0.950 . S
C264 C259 1.363 . S
C264 C263 1.415 . S
C265 H241 0.951 . S
C265 C266 1.366 . S
C265 C267 1.388 . S
C266 C265 1.366 . S
C266 C270 1.385 . S
C267 H242 0.951 . S
C267 C265 1.388 . S
C267 C268 1.366 . S
C268 C267 1.366 . S
C268 C269 1.414 . S
C268 C271 1.499 . S
C269 H243 0.950 . S
C269 C268 1.414 . S
C269 C270 1.374 . S
C270 H244 0.950 . S
C270 C266 1.385 . S
C270 C269 1.374 . S
C271 C268 1.499 . S
C271 C272 1.373 . S
C271 C273 1.389 . S
C272 H245 0.950 . S
C272 C258 1.377 . S
C272 C271 1.373 . S
C273 C257 1.377 . S
C273 C271 1.389 . S
C273 C274 1.524 . S
C274 C273 1.524 . S
C274 C275 1.397 . S
C274 C279 1.363 . S
C275 H246 0.950 . S
C275 C274 1.397 . S
C275 C276 1.334 . S
C276 H247 0.950 . S
C276 C275 1.334 . S
C276 C277 1.287 . S
C277 C276 1.287 . S
C277 C278 1.524 . S
C277 H280 0.999 . S
C278 H248 0.950 . S
C278 C277 1.524 . S
C278 C279 1.415 . S
C279 H249 0.950 . S
C279 C274 1.363 . S
C279 C278 1.415 . S
H280 C277 0.999 . S
H281 C262 0.913 . S
H282 C300 0.951 . S
H283 C302 0.951 . S
H284 C304 0.950 . S
H285 C305 0.950 . S
H286 C307 0.950 . S
H287 C310 0.950 . S
H288 C311 0.950 . S
H289 C313 0.950 . S
H290 C314 0.950 . S
H291 C315 0.951 . S
H292 C317 0.951 . S
H293 C319 0.950 . S
H294 C320 0.950 . S
H295 C322 0.950 . S
H296 C325 0.950 . S
H297 C326 0.950 . S
H298 C328 0.950 . S
H299 C329 0.950 . S
C300 H282 0.951 . S
C300 C301 1.366 . S
C300 C302 1.388 . S
C301 C300 1.366 . S
C301 C305 1.385 . S
C302 H283 0.951 . S
C302 C300 1.388 . S
C302 C303 1.366 . S
C303 C302 1.366 . S
C303 C304 1.414 . S
C303 C306 1.499 . S
C304 H284 0.950 . S
C304 C303 1.414 . S
C304 C305 1.374 . S
C305 H285 0.950 . S
C305 C301 1.385 . S
C305 C304 1.374 . S
C306 C303 1.499 . S
C306 C307 1.373 . S
C306 C308 1.389 . S
C307 H286 0.950 . S
C307 C306 1.373 . S
C307 C323 1.377 . S
C308 C306 1.389 . S
C308 C309 1.524 . S
C308 C322 1.377 . S
C309 C308 1.524 . S
C309 C310 1.397 . S
C309 C314 1.363 . S
C310 H287 0.950 . S
C310 C309 1.397 . S
C310 C311 1.334 . S
C311 H288 0.950 . S
C311 C310 1.334 . S
C311 C312 1.287 . S
C312 C311 1.287 . S
C312 C313 1.524 . S
C312 H331 0.913 . S
C313 H289 0.950 . S
C313 C312 1.524 . S
C313 C314 1.415 . S
C314 H290 0.950 . S
C314 C309 1.363 . S
C314 C313 1.415 . S
C315 H291 0.951 . S
C315 C316 1.366 . S
C315 C317 1.388 . S
C316 C315 1.366 . S
C316 C320 1.385 . S
C317 H292 0.951 . S
C317 C315 1.388 . S
C317 C318 1.366 . S
C318 C317 1.366 . S
C318 C319 1.414 . S
C318 C321 1.499 . S
C319 H293 0.950 . S
C319 C318 1.414 . S
C319 C320 1.374 . S
C320 H294 0.950 . S
C320 C316 1.385 . S
C320 C319 1.374 . S
C321 C318 1.499 . S
C321 C322 1.373 . S
C321 C323 1.389 . S
C322 H295 0.950 . S
C322 C308 1.377 . S
C322 C321 1.373 . S
C323 C307 1.377 . S
C323 C321 1.389 . S
C323 C324 1.524 . S
C324 C323 1.524 . S
C324 C325 1.397 . S
C324 C329 1.363 . S
C325 H296 0.950 . S
C325 C324 1.397 . S
C325 C326 1.334 . S
C326 H297 0.950 . S
C326 C325 1.334 . S
C326 C327 1.287 . S
C327 C326 1.287 . S
C327 C328 1.524 . S
C327 H330 0.999 . S
C328 H298 0.950 . S
C328 C327 1.524 . S
C328 C329 1.415 . S
C329 H299 0.950 . S
C329 C324 1.363 . S
C329 C328 1.415 . S
H330 C327 0.999 . S
H331 C312 0.913 . S
H332 C350 0.951 . S
H333 C352 0.951 . S
H334 C354 0.950 . S
H335 C355 0.950 . S
H336 C357 0.950 . S
H337 C360 0.950 . S
H338 C361 0.950 . S
H339 C363 0.950 . S
H340 C364 0.950 . S
H341 C365 0.951 . S
H342 C367 0.951 . S
H343 C369 0.950 . S
H344 C370 0.950 . S
H345 C372 0.950 . S
H346 C375 0.950 . S
H347 C376 0.950 . S
H348 C378 0.950 . S
H349 C379 0.950 . S
C350 H332 0.951 . S
C350 C351 1.366 . S
C350 C352 1.388 . S
C351 C350 1.366 . S
C351 C355 1.385 . S
C352 H333 0.951 . S
C352 C350 1.388 . S
C352 C353 1.366 . S
C353 C352 1.366 . S
C353 C354 1.414 . S
C353 C356 1.499 . S
C354 H334 0.950 . S
C354 C353 1.414 . S
C354 C355 1.374 . S
C355 H335 0.950 . S
C355 C351 1.385 . S
C355 C354 1.374 . S
C356 C353 1.499 . S
C356 C357 1.373 . S
C356 C358 1.389 . S
C357 H336 0.950 . S
C357 C356 1.373 . S
C357 C373 1.377 . S
C358 C356 1.389 . S
C358 C359 1.524 . S
C358 C372 1.377 . S
C359 C358 1.524 . S
C359 C360 1.397 . S
C359 C364 1.363 . S
C360 H337 0.950 . S
C360 C359 1.397 . S
C360 C361 1.334 . S
C361 H338 0.950 . S
C361 C360 1.334 . S
C361 C362 1.287 . S
C362 C361 1.287 . S
C362 C363 1.524 . S
C362 H381 0.913 . S
C363 H339 0.950 . S
C363 C362 1.524 . S
C363 C364 1.415 . S
C364 H340 0.950 . S
C364 C359 1.363 . S
C364 C363 1.415 . S
C365 H341 0.951 . S
C365 C366 1.366 . S
C365 C367 1.388 . S
C366 C365 1.366 . S
C366 C370 1.385 . S
C367 H342 0.951 . S
C367 C365 1.388 . S
C367 C368 1.366 . S
C368 C367 1.366 . S
C368 C369 1.414 . S
C368 C371 1.499 . S
C369 H343 0.950 . S
C369 C368 1.414 . S
C369 C370 1.374 . S
C370 H344 0.950 . S
C370 C366 1.385 . S
C370 C369 1.374 . S
C371 C368 1.499 . S
C371 C372 1.373 . S
C371 C373 1.389 . S
C372 H345 0.950 . S
C372 C358 1.377 . S
C372 C371 1.373 . S
C373 C357 1.377 . S
C373 C371 1.389 . S
C373 C374 1.524 . S
C374 C373 1.524 . S
C374 C375 1.397 . S
C374 C379 1.363 . S
C375 H346 0.950 . S
C375 C374 1.397 . S
C375 C376 1.334 . S
C376 H347 0.950 . S
C376 C375 1.334 . S
C376 C377 1.287 . S
C377 C376 1.287 . S
C377 C378 1.524 . S
C377 H380 0.999 . S
C378 H348 0.950 . S
C378 C377 1.524 . S
C378 C379 1.415 . S
C379 H349 0.950 . S
C379 C374 1.363 . S
C379 C378 1.415 . S
H380 C377 0.999 . S
H381 C362 0.913 . S
H382 C400 0.951 . S
H383 C402 0.951 . S
H384 C404 0.950 . S
H385 C405 0.950 . S
H386 C407 0.950 . S
H387 C410 0.950 . S
H388 C411 0.950 . S
H389 C413 0.950 . S
H390 C414 0.950 . S
H391 C415 0.951 . S
H392 C417 0.951 . S
H393 C419 0.950 . S
H394 C420 0.950 . S
H395 C422 0.950 . S
H396 C425 0.950 . S
H397 C426 0.950 . S
H398 C428 0.950 . S
H399 C429 0.950 . S
C400 H382 0.951 . S
C400 C401 1.366 . S
C400 C402 1.388 . S
C401 C400 1.366 . S
C401 C405 1.385 . S
C402 H383 0.951 . S
C402 C400 1.388 . S
C402 C403 1.366 . S
C403 C402 1.366 . S
C403 C404 1.414 . S
C403 C406 1.499 . S
C404 H384 0.950 . S
C404 C403 1.414 . S
C404 C405 1.374 . S
C405 H385 0.950 . S
C405 C401 1.385 . S
C405 C404 1.374 . S
C406 C403 1.499 . S
C406 C407 1.373 . S
C406 C408 1.389 . S
C407 H386 0.950 . S
C407 C406 1.373 . S
C407 C423 1.377 . S
C408 C406 1.389 . S
C408 C409 1.524 . S
C408 C422 1.377 . S
C409 C408 1.524 . S
C409 C410 1.397 . S
C409 C414 1.363 . S
C410 H387 0.950 . S
C410 C409 1.397 . S
C410 C411 1.334 . S
C411 H388 0.950 . S
C411 C410 1.334 . S
C411 C412 1.287 . S
C412 C411 1.287 . S
C412 C413 1.524 . S
C412 H431 0.913 . S
C413 H389 0.950 . S
C413 C412 1.524 . S
C413 C414 1.415 . S
C414 H390 0.950 . S
C414 C409 1.363 . S
C414 C413 1.415 . S
C415 H391 0.951 . S
C415 C416 1.366 . S
C415 C417 1.388 . S
C416 C415 1.366 . S
C416 C420 1.385 . S
C417 H392 0.951 . S
C417 C415 1.388 . S
C417 C418 1.366 . S
C418 C417 1.366 . S
C418 C419 1.414 . S
C418 C421 1.499 . S
C419 H393 0.950 . S
C419 C418 1.414 . S
C419 C420 1.374 . S
C420 H394 0.950 . S
C420 C416 1.385 . S
C420 C419 1.374 . S
C421 C418 1.499 . S
C421 C422 1.373 . S
C421 C423 1.389 . S
C422 H395 0.950 . S
C422 C408 1.377 . S
C422 C421 1.373 . S
C423 C407 1.377 . S
C423 C421 1.389 . S
C423 C424 1.524 . S
C424 C423 1.524 . S
C424 C425 1.397 . S
C424 C429 1.363 . S
C425 H396 0.950 . S
C425 C424 1.397 . S
C425 C426 1.334 . S
C426 H397 0.950 . S
C426 C425 1.334 . S
C426 C427 1.287 . S
C427 C426 1.287 . S
C427 C428 1.524 . S
C427 H430 0.999 . S
C428 H398 0.950 . S
C428 C427 1.524 . S
C428 C429 1.415 . S
C429 H399 0.950 . S
C429 C424 1.363 . S
C429 C428 1.415 . S
H430 C427 0.999 . S
H431 C412 0.913 . S
H432 C450 0.951 . S
H433 C452 0.951 . S
H434 C454 0.950 . S
H435 C455 0.950 . S
H436 C457 0.950 . S
H437 C460 0.950 . S
H438 C461 0.950 . S
H439 C463 0.950 . S
H440 C464 0.950 . S
H441 C465 0.951 . S
H442 C467 0.951 . S
H443 C469 0.950 . S
H444 C470 0.950 . S
H445 C472 0.950 . S
H446 C475 0.950 . S
H447 C476 0.950 . S
H448 C478 0.950 . S
H449 C479 0.950 . S
C450 H432 0.951 . S
C450 C451 1.366 . S
C450 C452 1.388 . S
C451 C450 1.366 . S
C451 C455 1.385 . S
C452 H433 0.951 . S
C452 C450 1.388 . S
C452 C453 1.366 . S
C453 C452 1.366 . S
C453 C454 1.414 . S
C453 C456 1.499 . S
C454 H434 0.950 . S
C454 C453 1.414 . S
C454 C455 1.374 . S
C455 H435 0.950 . S
C455 C451 1.385 . S
C455 C454 1.374 . S
C456 C453 1.499 . S
C456 C457 1.373 . S
C456 C458 1.389 . S
C457 H436 0.950 . S
C457 C456 1.373 . S
C457 C473 1.377 1_565 S
C458 C456 1.389 . S
C458 C459 1.524 . S
C458 C472 1.377 1_565 S
C459 C458 1.524 . S
C459 C460 1.397 . S
C459 C464 1.363 . S
C460 H437 0.950 . S
C460 C459 1.397 . S
C460 C461 1.334 . S
C461 H438 0.950 . S
C461 C460 1.334 . S
C461 C462 1.287 . S
C462 C461 1.287 . S
C462 C463 1.524 . S
C462 H481 0.913 . S
C463 H439 0.950 . S
C463 C462 1.524 . S
C463 C464 1.415 . S
C464 H440 0.950 . S
C464 C459 1.363 . S
C464 C463 1.415 . S
C465 H441 0.951 . S
C465 C466 1.366 . S
C465 C467 1.388 . S
C466 C465 1.366 . S
C466 C470 1.385 . S
C467 H442 0.951 . S
C467 C465 1.388 . S
C467 C468 1.366 . S
C468 C467 1.366 . S
C468 C469 1.414 . S
C468 C471 1.499 . S
C469 H443 0.950 . S
C469 C468 1.414 . S
C469 C470 1.374 . S
C470 H444 0.950 . S
C470 C466 1.385 . S
C470 C469 1.374 . S
C471 C468 1.499 . S
C471 C472 1.373 . S
C471 C473 1.389 . S
C472 H445 0.950 . S
C472 C458 1.377 1_545 S
C472 C471 1.373 . S
C473 C457 1.377 1_545 S
C473 C471 1.389 . S
C473 C474 1.524 . S
C474 C473 1.524 . S
C474 C475 1.397 . S
C474 C479 1.363 . S
C475 H446 0.950 . S
C475 C474 1.397 . S
C475 C476 1.334 . S
C476 H447 0.950 . S
C476 C475 1.334 . S
C476 C477 1.287 . S
C477 C476 1.287 . S
C477 C478 1.524 . S
C477 H480 0.999 . S
C478 H448 0.950 . S
C478 C477 1.524 . S
C478 C479 1.415 . S
C479 H449 0.950 . S
C479 C474 1.363 . S
C479 C478 1.415 . S
H480 C477 0.999 . S
H481 C462 0.913 . S
H482 C500 0.951 . S
H483 C502 0.951 . S
H484 C504 0.950 . S
H485 C505 0.950 . S
H486 C507 0.950 . S
H487 C510 0.950 . S
H488 C511 0.950 . S
H489 C513 0.950 . S
H490 C514 0.950 . S
H491 C515 0.951 . S
H492 C517 0.951 . S
H493 C519 0.950 . S
H494 C520 0.950 . S
H495 C522 0.950 . S
H496 C525 0.950 . S
H497 C526 0.950 . S
H498 C528 0.950 . S
H499 C529 0.950 . S
C500 H482 0.951 . S
C500 C501 1.366 . S
C500 C502 1.388 . S
C501 C500 1.366 . S
C501 C505 1.385 . S
C502 H483 0.951 . S
C502 C500 1.388 . S
C502 C503 1.366 . S
C503 C502 1.366 . S
C503 C504 1.414 . S
C503 C506 1.499 . S
C504 H484 0.950 . S
C504 C503 1.414 . S
C504 C505 1.374 . S
C505 H485 0.950 . S
C505 C501 1.385 . S
C505 C504 1.374 . S
C506 C503 1.499 . S
C506 C507 1.373 . S
C506 C508 1.389 . S
C507 H486 0.950 . S
C507 C506 1.373 . S
C507 C523 1.377 . S
C508 C506 1.389 . S
C508 C509 1.524 . S
C508 C522 1.377 . S
C509 C508 1.524 . S
C509 C510 1.397 . S
C509 C514 1.363 . S
C510 H487 0.950 . S
C510 C509 1.397 . S
C510 C511 1.334 . S
C511 H488 0.950 . S
C511 C510 1.334 . S
C511 C512 1.287 . S
C512 C511 1.287 . S
C512 C513 1.524 . S
C512 H531 0.913 . S
C513 H489 0.950 . S
C513 C512 1.524 . S
C513 C514 1.415 . S
C514 H490 0.950 . S
C514 C509 1.363 . S
C514 C513 1.415 . S
C515 H491 0.951 . S
C515 C516 1.366 . S
C515 C517 1.388 . S
C516 C515 1.366 . S
C516 C520 1.385 . S
C517 H492 0.951 . S
C517 C515 1.388 . S
C517 C518 1.366 . S
C518 C517 1.366 . S
C518 C519 1.414 . S
C518 C521 1.499 . S
C519 H493 0.950 . S
C519 C518 1.414 . S
C519 C520 1.374 . S
C520 H494 0.950 . S
C520 C516 1.385 . S
C520 C519 1.374 . S
C521 C518 1.499 . S
C521 C522 1.373 . S
C521 C523 1.389 . S
C522 H495 0.950 . S
C522 C508 1.377 . S
C522 C521 1.373 . S
C523 C507 1.377 . S
C523 C521 1.389 . S
C523 C524 1.524 . S
C524 C523 1.524 . S
C524 C525 1.397 . S
C524 C529 1.363 . S
C525 H496 0.950 . S
C525 C524 1.397 . S
C525 C526 1.334 . S
C526 H497 0.950 . S
C526 C525 1.334 . S
C526 C527 1.287 . S
C527 C526 1.287 . S
C527 C528 1.524 . S
C527 H530 0.999 . S
C528 H498 0.950 . S
C528 C527 1.524 . S
C528 C529 1.415 . S
C529 H499 0.950 . S
C529 C524 1.363 . S
C529 C528 1.415 . S
H530 C527 0.999 . S
H531 C512 0.913 . S
H532 C550 0.951 . S
H533 C552 0.951 . S
H534 C554 0.950 . S
H535 C555 0.950 . S
H536 C557 0.950 . S
H537 C560 0.950 . S
H538 C561 0.950 . S
H539 C563 0.950 . S
H540 C564 0.950 . S
H541 C565 0.951 . S
H542 C567 0.951 . S
H543 C569 0.950 . S
H544 C570 0.950 . S
H545 C572 0.950 . S
H546 C575 0.950 . S
H547 C576 0.950 . S
H548 C578 0.950 . S
H549 C579 0.950 . S
C550 H532 0.951 . S
C550 C551 1.366 . S
C550 C552 1.388 . S
C551 C550 1.366 . S
C551 C555 1.385 . S
C552 H533 0.951 . S
C552 C550 1.388 . S
C552 C553 1.366 . S
C553 C552 1.366 . S
C553 C554 1.414 . S
C553 C556 1.499 . S
C554 H534 0.950 . S
C554 C553 1.414 . S
C554 C555 1.374 . S
C555 H535 0.950 . S
C555 C551 1.385 . S
C555 C554 1.374 . S
C556 C553 1.499 . S
C556 C557 1.373 . S
C556 C558 1.389 . S
C557 H536 0.950 . S
C557 C556 1.373 . S
C557 C573 1.377 1_655 S
C558 C556 1.389 . S
C558 C559 1.524 . S
C558 C572 1.377 1_655 S
C559 C558 1.524 . S
C559 C560 1.397 . S
C559 C564 1.363 . S
C560 H537 0.950 . S
C560 C559 1.397 . S
C560 C561 1.334 . S
C561 H538 0.950 . S
C561 C560 1.334 . S
C561 C562 1.287 . S
C562 C561 1.287 . S
C562 C563 1.524 . S
C562 H581 0.913 . S
C563 H539 0.950 . S
C563 C562 1.524 . S
C563 C564 1.415 . S
C564 H540 0.950 . S
C564 C559 1.363 . S
C564 C563 1.415 . S
C565 H541 0.951 . S
C565 C566 1.366 . S
C565 C567 1.388 . S
C566 C565 1.366 . S
C566 C570 1.385 . S
C567 H542 0.951 . S
C567 C565 1.388 . S
C567 C568 1.366 . S
C568 C567 1.366 . S
C568 C569 1.414 . S
C568 C571 1.499 . S
C569 H543 0.950 . S
C569 C568 1.414 . S
C569 C570 1.374 . S
C570 H544 0.950 . S
C570 C566 1.385 . S
C570 C569 1.374 . S
C571 C568 1.499 . S
C571 C572 1.373 . S
C571 C573 1.389 . S
C572 H545 0.950 . S
C572 C558 1.377 1_455 S
C572 C571 1.373 . S
C573 C557 1.377 1_455 S
C573 C571 1.389 . S
C573 C574 1.524 . S
C574 C573 1.524 . S
C574 C575 1.397 . S
C574 C579 1.363 . S
C575 H546 0.950 . S
C575 C574 1.397 . S
C575 C576 1.334 . S
C576 H547 0.950 . S
C576 C575 1.334 . S
C576 C577 1.287 . S
C577 C576 1.287 . S
C577 C578 1.524 . S
C577 H580 0.999 . S
C578 H548 0.950 . S
C578 C577 1.524 . S
C578 C579 1.415 . S
C579 H549 0.950 . S
C579 C574 1.363 . S
C579 C578 1.415 . S
H580 C577 0.999 . S
H581 C562 0.913 . S
H582 C600 0.951 . S
H583 C602 0.951 . S
H584 C604 0.950 . S
H585 C605 0.950 . S
H586 C607 0.950 . S
H587 C610 0.950 . S
H588 C611 0.950 . S
H589 C613 0.950 . S
H590 C614 0.950 . S
H591 C615 0.951 . S
H592 C617 0.951 . S
H593 C619 0.950 . S
H594 C620 0.950 . S
H595 C622 0.950 . S
H596 C625 0.950 . S
H597 C626 0.950 . S
H598 C628 0.950 . S
H599 C629 0.950 . S
C600 H582 0.951 . S
C600 C601 1.366 . S
C600 C602 1.388 . S
C601 C600 1.366 . S
C601 C605 1.385 . S
C602 H583 0.951 . S
C602 C600 1.388 . S
C602 C603 1.366 . S
C603 C602 1.366 . S
C603 C604 1.414 . S
C603 C606 1.499 . S
C604 H584 0.950 . S
C604 C603 1.414 . S
C604 C605 1.374 . S
C605 H585 0.950 . S
C605 C601 1.385 . S
C605 C604 1.374 . S
C606 C603 1.499 . S
C606 C607 1.373 . S
C606 C608 1.389 . S
C607 H586 0.950 . S
C607 C606 1.373 . S
C607 C623 1.377 1_455 S
C608 C606 1.389 . S
C608 C609 1.524 . S
C608 C622 1.377 1_455 S
C609 C608 1.524 . S
C609 C610 1.397 . S
C609 C614 1.363 . S
C610 H587 0.950 . S
C610 C609 1.397 . S
C610 C611 1.334 . S
C611 H588 0.950 . S
C611 C610 1.334 . S
C611 C612 1.287 . S
C612 C611 1.287 . S
C612 C613 1.524 . S
C612 H631 0.913 . S
C613 H589 0.950 . S
C613 C612 1.524 . S
C613 C614 1.415 . S
C614 H590 0.950 . S
C614 C609 1.363 . S
C614 C613 1.415 . S
C615 H591 0.951 . S
C615 C616 1.366 . S
C615 C617 1.388 . S
C616 C615 1.366 . S
C616 C620 1.385 . S
C617 H592 0.951 . S
C617 C615 1.388 . S
C617 C618 1.366 . S
C618 C617 1.366 . S
C618 C619 1.414 . S
C618 C621 1.499 . S
C619 H593 0.950 . S
C619 C618 1.414 . S
C619 C620 1.374 . S
C620 H594 0.950 . S
C620 C616 1.385 . S
C620 C619 1.374 . S
C621 C618 1.499 . S
C621 C622 1.373 . S
C621 C623 1.389 . S
C622 H595 0.950 . S
C622 C608 1.377 1_655 S
C622 C621 1.373 . S
C623 C607 1.377 1_655 S
C623 C621 1.389 . S
C623 C624 1.524 . S
C624 C623 1.524 . S
C624 C625 1.397 . S
C624 C629 1.363 . S
C625 H596 0.950 . S
C625 C624 1.397 . S
C625 C626 1.334 . S
C626 H597 0.950 . S
C626 C625 1.334 . S
C626 C627 1.287 . S
C627 C626 1.287 . S
C627 C628 1.524 . S
C627 H630 0.999 . S
C628 H598 0.950 . S
C628 C627 1.524 . S
C628 C629 1.415 . S
C629 H599 0.950 . S
C629 C624 1.363 . S
C629 C628 1.415 . S
H630 C627 0.999 . S
H631 C612 0.913 . S
H632 C650 0.951 . S
H633 C652 0.951 . S
H634 C654 0.950 . S
H635 C655 0.950 . S
H636 C657 0.950 . S
H637 C660 0.950 . S
H638 C661 0.950 . S
H639 C663 0.950 . S
H640 C664 0.950 . S
H641 C665 0.951 . S
H642 C667 0.951 . S
H643 C669 0.950 . S
H644 C670 0.950 . S
H645 C672 0.950 . S
H646 C675 0.950 . S
H647 C676 0.950 . S
H648 C678 0.950 . S
H649 C679 0.950 . S
C650 H632 0.951 . S
C650 C651 1.366 . S
C650 C652 1.388 . S
C651 C650 1.366 . S
C651 C655 1.385 . S
C652 H633 0.951 . S
C652 C650 1.388 . S
C652 C653 1.366 . S
C653 C652 1.366 . S
C653 C654 1.414 . S
C653 C656 1.499 . S
C654 H634 0.950 . S
C654 C653 1.414 . S
C654 C655 1.374 . S
C655 H635 0.950 . S
C655 C651 1.385 . S
C655 C654 1.374 . S
C656 C653 1.499 . S
C656 C657 1.373 . S
C656 C658 1.389 . S
C657 H636 0.950 . S
C657 C656 1.373 . S
C657 C673 1.377 1_565 S
C658 C656 1.389 . S
C658 C659 1.524 . S
C658 C672 1.377 1_565 S
C659 C658 1.524 . S
C659 C660 1.397 . S
C659 C664 1.363 . S
C660 H637 0.950 . S
C660 C659 1.397 . S
C660 C661 1.334 . S
C661 H638 0.950 . S
C661 C660 1.334 . S
C661 C662 1.287 . S
C662 C661 1.287 . S
C662 C663 1.524 . S
C662 H681 0.913 . S
C663 H639 0.950 . S
C663 C662 1.524 . S
C663 C664 1.415 . S
C664 H640 0.950 . S
C664 C659 1.363 . S
C664 C663 1.415 . S
C665 H641 0.951 . S
C665 C666 1.366 . S
C665 C667 1.388 . S
C666 C665 1.366 . S
C666 C670 1.385 . S
C667 H642 0.951 . S
C667 C665 1.388 . S
C667 C668 1.366 . S
C668 C667 1.366 . S
C668 C669 1.414 . S
C668 C671 1.499 . S
C669 H643 0.950 . S
C669 C668 1.414 . S
C669 C670 1.374 . S
C670 H644 0.950 . S
C670 C666 1.385 . S
C670 C669 1.374 . S
C671 C668 1.499 . S
C671 C672 1.373 . S
C671 C673 1.389 . S
C672 H645 0.950 . S
C672 C658 1.377 1_545 S
C672 C671 1.373 . S
C673 C657 1.377 1_545 S
C673 C671 1.389 . S
C673 C674 1.524 . S
C674 C673 1.524 . S
C674 C675 1.397 . S
C674 C679 1.363 . S
C675 H646 0.950 . S
C675 C674 1.397 . S
C675 C676 1.334 . S
C676 H647 0.950 . S
C676 C675 1.334 . S
C676 C677 1.287 . S
C677 C676 1.287 . S
C677 C678 1.524 . S
C677 H680 0.999 . S
C678 H648 0.950 . S
C678 C677 1.524 . S
C678 C679 1.415 . S
C679 H649 0.950 . S
C679 C674 1.363 . S
C679 C678 1.415 . S
H680 C677 0.999 . S
H681 C662 0.913 . S
H682 C700 0.951 . S
H683 C702 0.951 . S
H684 C704 0.950 . S
H685 C705 0.950 . S
H686 C707 0.950 . S
H687 C710 0.950 . S
H688 C711 0.950 . S
H689 C713 0.950 . S
H690 C714 0.950 . S
H691 C715 0.951 . S
H692 C717 0.951 . S
H693 C719 0.950 . S
H694 C720 0.950 . S
H695 C722 0.950 . S
H696 C725 0.950 . S
H697 C726 0.950 . S
H698 C728 0.950 . S
H699 C729 0.950 . S
C700 H682 0.951 . S
C700 C701 1.366 . S
C700 C702 1.388 . S
C701 C700 1.366 . S
C701 C705 1.385 . S
C702 H683 0.951 . S
C702 C700 1.388 . S
C702 C703 1.366 . S
C703 C702 1.366 . S
C703 C704 1.414 . S
C703 C706 1.499 . S
C704 H684 0.950 . S
C704 C703 1.414 . S
C704 C705 1.374 . S
C705 H685 0.950 . S
C705 C701 1.385 . S
C705 C704 1.374 . S
C706 C703 1.499 . S
C706 C707 1.373 . S
C706 C708 1.389 . S
C707 H686 0.950 . S
C707 C706 1.373 . S
C707 C723 1.377 . S
C708 C706 1.389 . S
C708 C709 1.524 . S
C708 C722 1.377 . S
C709 C708 1.524 . S
C709 C710 1.397 . S
C709 C714 1.363 . S
C710 H687 0.950 . S
C710 C709 1.397 . S
C710 C711 1.334 . S
C711 H688 0.950 . S
C711 C710 1.334 . S
C711 C712 1.287 . S
C712 C711 1.287 . S
C712 C713 1.524 . S
C712 H731 0.913 . S
C713 H689 0.950 . S
C713 C712 1.524 . S
C713 C714 1.415 . S
C714 H690 0.950 . S
C714 C709 1.363 . S
C714 C713 1.415 . S
C715 H691 0.951 . S
C715 C716 1.366 . S
C715 C717 1.388 . S
C716 C715 1.366 . S
C716 C720 1.385 . S
C717 H692 0.951 . S
C717 C715 1.388 . S
C717 C718 1.366 . S
C718 C717 1.366 . S
C718 C719 1.414 . S
C718 C721 1.499 . S
C719 H693 0.950 . S
C719 C718 1.414 . S
C719 C720 1.374 . S
C720 H694 0.950 . S
C720 C716 1.385 . S
C720 C719 1.374 . S
C721 C718 1.499 . S
C721 C722 1.373 . S
C721 C723 1.389 . S
C722 H695 0.950 . S
C722 C708 1.377 . S
C722 C721 1.373 . S
C723 C707 1.377 . S
C723 C721 1.389 . S
C723 C724 1.524 . S
C724 C723 1.524 . S
C724 C725 1.397 . S
C724 C729 1.363 . S
C725 H696 0.950 . S
C725 C724 1.397 . S
C725 C726 1.334 . S
C726 H697 0.950 . S
C726 C725 1.334 . S
C726 C727 1.287 . S
C727 C726 1.287 . S
C727 C728 1.524 . S
C727 H730 0.999 . S
C728 H698 0.950 . S
C728 C727 1.524 . S
C728 C729 1.415 . S
C729 H699 0.950 . S
C729 C724 1.363 . S
C729 C728 1.415 . S
H730 C727 0.999 . S
H731 C712 0.913 . S
H732 C750 0.951 . S
H733 C752 0.951 . S
H734 C754 0.950 . S
H735 C755 0.950 . S
H736 C757 0.950 . S
H737 C760 0.950 . S
H738 C761 0.950 . S
H739 C763 0.950 . S
H740 C764 0.950 . S
H741 C765 0.951 . S
H742 C767 0.951 . S
H743 C769 0.950 . S
H744 C770 0.950 . S
H745 C772 0.950 . S
H746 C775 0.950 . S
H747 C776 0.950 . S
H748 C778 0.950 . S
H749 C779 0.950 . S
C750 H732 0.951 . S
C750 C751 1.366 . S
C750 C752 1.388 . S
C751 C750 1.366 . S
C751 C755 1.385 . S
C752 H733 0.951 . S
C752 C750 1.388 . S
C752 C753 1.366 . S
C753 C752 1.366 . S
C753 C754 1.414 . S
C753 C756 1.499 . S
C754 H734 0.950 . S
C754 C753 1.414 . S
C754 C755 1.374 . S
C755 H735 0.950 . S
C755 C751 1.385 . S
C755 C754 1.374 . S
C756 C753 1.499 . S
C756 C757 1.373 . S
C756 C758 1.389 . S
C757 H736 0.950 . S
C757 C756 1.373 . S
C757 C773 1.377 1_556 S
C758 C756 1.389 . S
C758 C759 1.524 . S
C758 C772 1.377 1_556 S
C759 C758 1.524 . S
C759 C760 1.397 . S
C759 C764 1.363 . S
C760 H737 0.950 . S
C760 C759 1.397 . S
C760 C761 1.334 . S
C761 H738 0.950 . S
C761 C760 1.334 . S
C761 C762 1.287 . S
C762 C761 1.287 . S
C762 C763 1.524 . S
C762 H781 0.913 . S
C763 H739 0.950 . S
C763 C762 1.524 . S
C763 C764 1.415 . S
C764 H740 0.950 . S
C764 C759 1.363 . S
C764 C763 1.415 . S
C765 H741 0.951 . S
C765 C766 1.366 . S
C765 C767 1.388 . S
C766 C765 1.366 . S
C766 C770 1.385 . S
C767 H742 0.951 . S
C767 C765 1.388 . S
C767 C768 1.366 . S
C768 C767 1.366 . S
C768 C769 1.414 . S
C768 C771 1.499 . S
C769 H743 0.950 . S
C769 C768 1.414 . S
C769 C770 1.374 . S
C770 H744 0.950 . S
C770 C766 1.385 . S
C770 C769 1.374 . S
C771 C768 1.499 . S
C771 C772 1.373 . S
C771 C773 1.389 . S
C772 H745 0.950 . S
C772 C758 1.377 1_554 S
C772 C771 1.373 . S
C773 C757 1.377 1_554 S
C773 C771 1.389 . S
C773 C774 1.524 . S
C774 C773 1.524 . S
C774 C775 1.397 . S
C774 C779 1.363 . S
C775 H746 0.950 . S
C775 C774 1.397 . S
C775 C776 1.334 . S
C776 H747 0.950 . S
C776 C775 1.334 . S
C776 C777 1.287 . S
C777 C776 1.287 . S
C777 C778 1.524 . S
C777 H780 0.999 . S
C778 H748 0.950 . S
C778 C777 1.524 . S
C778 C779 1.415 . S
C779 H749 0.950 . S
C779 C774 1.363 . S
C779 C778 1.415 . S
H780 C777 0.999 . S
H781 C762 0.913 . S
H782 C800 0.951 . S
H783 C802 0.951 . S
H784 C804 0.950 . S
H785 C805 0.950 . S
H786 C807 0.950 . S
H787 C810 0.950 . S
H788 C811 0.950 . S
H789 C813 0.950 . S
H790 C814 0.950 . S
H791 C815 0.951 . S
H792 C817 0.951 . S
H793 C819 0.950 . S
H794 C820 0.950 . S
H795 C822 0.950 . S
H796 C825 0.950 . S
H797 C826 0.950 . S
H798 C828 0.950 . S
H799 C829 0.950 . S
C800 H782 0.951 . S
C800 C801 1.366 . S
C800 C802 1.388 . S
C801 C800 1.366 . S
C801 C805 1.385 . S
C802 H783 0.951 . S
C802 C800 1.388 . S
C802 C803 1.366 . S
C803 C802 1.366 . S
C803 C804 1.414 . S
C803 C806 1.499 . S
C804 H784 0.950 . S
C804 C803 1.414 . S
C804 C805 1.374 . S
C805 H785 0.950 . S
C805 C801 1.385 . S
C805 C804 1.374 . S
C806 C803 1.499 . S
C806 C807 1.373 . S
C806 C808 1.389 . S
C807 H786 0.950 . S
C807 C806 1.373 . S
C807 C823 1.377 . S
C808 C806 1.389 . S
C808 C809 1.524 . S
C808 C822 1.377 . S
C809 C808 1.524 . S
C809 C810 1.397 . S
C809 C814 1.363 . S
C810 H787 0.950 . S
C810 C809 1.397 . S
C810 C811 1.334 . S
C811 H788 0.950 . S
C811 C810 1.334 . S
C811 C812 1.287 . S
C812 C811 1.287 . S
C812 C813 1.524 . S
C812 H831 0.913 . S
C813 H789 0.950 . S
C813 C812 1.524 . S
C813 C814 1.415 . S
C814 H790 0.950 . S
C814 C809 1.363 . S
C814 C813 1.415 . S
C815 H791 0.951 . S
C815 C816 1.366 . S
C815 C817 1.388 . S
C816 C815 1.366 . S
C816 C820 1.385 . S
C817 H792 0.951 . S
C817 C815 1.388 . S
C817 C818 1.366 . S
C818 C817 1.366 . S
C818 C819 1.414 . S
C818 C821 1.499 . S
C819 H793 0.950 . S
C819 C818 1.414 . S
C819 C820 1.374 . S
C820 H794 0.950 . S
C820 C816 1.385 . S
C820 C819 1.374 . S
C821 C818 1.499 . S
C821 C822 1.373 . S
C821 C823 1.389 . S
C822 H795 0.950 . S
C822 C808 1.377 . S
C822 C821 1.373 . S
C823 C807 1.377 . S
C823 C821 1.389 . S
C823 C824 1.524 . S
C824 C823 1.524 . S
C824 C825 1.397 . S
C824 C829 1.363 . S
C825 H796 0.950 . S
C825 C824 1.397 . S
C825 C826 1.334 . S
C826 H797 0.950 . S
C826 C825 1.334 . S
C826 C827 1.287 . S
C827 C826 1.287 . S
C827 C828 1.524 . S
C827 H830 0.999 . S
C828 H798 0.950 . S
C828 C827 1.524 . S
C828 C829 1.415 . S
C829 H799 0.950 . S
C829 C824 1.363 . S
C829 C828 1.415 . S
H830 C827 0.999 . S
H831 C812 0.913 . S
H832 C850 0.951 . S
H833 C852 0.951 . S
H834 C854 0.950 . S
H835 C855 0.950 . S
H836 C857 0.950 . S
H837 C860 0.950 . S
H838 C861 0.950 . S
H839 C863 0.950 . S
H840 C864 0.950 . S
H841 C865 0.951 . S
H842 C867 0.951 . S
H843 C869 0.950 . S
H844 C870 0.950 . S
H845 C872 0.950 . S
H846 C875 0.950 . S
H847 C876 0.950 . S
H848 C878 0.950 . S
H849 C879 0.950 . S
C850 H832 0.951 . S
C850 C851 1.366 . S
C850 C852 1.388 . S
C851 C850 1.366 . S
C851 C855 1.385 . S
C852 H833 0.951 . S
C852 C850 1.388 . S
C852 C853 1.366 . S
C853 C852 1.366 . S
C853 C854 1.414 . S
C853 C856 1.499 . S
C854 H834 0.950 . S
C854 C853 1.414 . S
C854 C855 1.374 . S
C855 H835 0.950 . S
C855 C851 1.385 . S
C855 C854 1.374 . S
C856 C853 1.499 . S
C856 C857 1.373 . S
C856 C858 1.389 . S
C857 H836 0.950 . S
C857 C856 1.373 . S
C857 C873 1.377 . S
C858 C856 1.389 . S
C858 C859 1.524 . S
C858 C872 1.377 . S
C859 C858 1.524 . S
C859 C860 1.397 . S
C859 C864 1.363 . S
C860 H837 0.950 . S
C860 C859 1.397 . S
C860 C861 1.334 . S
C861 H838 0.950 . S
C861 C860 1.334 . S
C861 C862 1.287 . S
C862 C861 1.287 . S
C862 C863 1.524 . S
C862 H881 0.913 . S
C863 H839 0.950 . S
C863 C862 1.524 . S
C863 C864 1.415 . S
C864 H840 0.950 . S
C864 C859 1.363 . S
C864 C863 1.415 . S
C865 H841 0.951 . S
C865 C866 1.366 . S
C865 C867 1.388 . S
C866 C865 1.366 . S
C866 C870 1.385 . S
C867 H842 0.951 . S
C867 C865 1.388 . S
C867 C868 1.366 . S
C868 C867 1.366 . S
C868 C869 1.414 . S
C868 C871 1.499 . S
C869 H843 0.950 . S
C869 C868 1.414 . S
C869 C870 1.374 . S
C870 H844 0.950 . S
C870 C866 1.385 . S
C870 C869 1.374 . S
C871 C868 1.499 . S
C871 C872 1.373 . S
C871 C873 1.389 . S
C872 H845 0.950 . S
C872 C858 1.377 . S
C872 C871 1.373 . S
C873 C857 1.377 . S
C873 C871 1.389 . S
C873 C874 1.524 . S
C874 C873 1.524 . S
C874 C875 1.397 . S
C874 C879 1.363 . S
C875 H846 0.950 . S
C875 C874 1.397 . S
C875 C876 1.334 . S
C876 H847 0.950 . S
C876 C875 1.334 . S
C876 C877 1.287 . S
C877 C876 1.287 . S
C877 C878 1.524 . S
C877 H880 0.999 . S
C878 H848 0.950 . S
C878 C877 1.524 . S
C878 C879 1.415 . S
C879 H849 0.950 . S
C879 C874 1.363 . S
C879 C878 1.415 . S
H880 C877 0.999 . S
H881 C862 0.913 . S
H882 C900 0.951 . S
H883 C902 0.951 . S
H884 C904 0.950 . S
H885 C905 0.950 . S
H886 C907 0.950 . S
H887 C910 0.950 . S
H888 C911 0.950 . S
H889 C913 0.950 . S
H890 C914 0.950 . S
H891 C915 0.951 . S
H892 C917 0.951 . S
H893 C919 0.950 . S
H894 C920 0.950 . S
H895 C922 0.950 . S
H896 C925 0.950 . S
H897 C926 0.950 . S
H898 C928 0.950 . S
H899 C929 0.950 . S
C900 H882 0.951 . S
C900 C901 1.366 . S
C900 C902 1.388 . S
C901 C900 1.366 . S
C901 C905 1.385 . S
C902 H883 0.951 . S
C902 C900 1.388 . S
C902 C903 1.366 . S
C903 C902 1.366 . S
C903 C904 1.414 . S
C903 C906 1.499 . S
C904 H884 0.950 . S
C904 C903 1.414 . S
C904 C905 1.374 . S
C905 H885 0.950 . S
C905 C901 1.385 . S
C905 C904 1.374 . S
C906 C903 1.499 . S
C906 C907 1.373 . S
C906 C908 1.389 . S
C907 H886 0.950 . S
C907 C906 1.373 . S
C907 C923 1.377 1_554 S
C908 C906 1.389 . S
C908 C909 1.524 . S
C908 C922 1.377 1_554 S
C909 C908 1.524 . S
C909 C910 1.397 . S
C909 C914 1.363 . S
C910 H887 0.950 . S
C910 C909 1.397 . S
C910 C911 1.334 . S
C911 H888 0.950 . S
C911 C910 1.334 . S
C911 C912 1.287 . S
C912 C911 1.287 . S
C912 C913 1.524 . S
C912 H931 0.913 . S
C913 H889 0.950 . S
C913 C912 1.524 . S
C913 C914 1.415 . S
C914 H890 0.950 . S
C914 C909 1.363 . S
C914 C913 1.415 . S
C915 H891 0.951 . S
C915 C916 1.366 . S
C915 C917 1.388 . S
C916 C915 1.366 . S
C916 C920 1.385 . S
C917 H892 0.951 . S
C917 C915 1.388 . S
C917 C918 1.366 . S
C918 C917 1.366 . S
C918 C919 1.414 . S
C918 C921 1.499 . S
C919 H893 0.950 . S
C919 C918 1.414 . S
C919 C920 1.374 . S
C920 H894 0.950 . S
C920 C916 1.385 . S
C920 C919 1.374 . S
C921 C918 1.499 . S
C921 C922 1.373 . S
C921 C923 1.389 . S
C922 H895 0.950 . S
C922 C908 1.377 1_556 S
C922 C921 1.373 . S
C923 C907 1.377 1_556 S
C923 C921 1.389 . S
C923 C924 1.524 . S
C924 C923 1.524 . S
C924 C925 1.397 . S
C924 C929 1.363 . S
C925 H896 0.950 . S
C925 C924 1.397 . S
C925 C926 1.334 . S
C926 H897 0.950 . S
C926 C925 1.334 . S
C926 C927 1.287 . S
C927 C926 1.287 . S
C927 C928 1.524 . S
C927 H930 0.999 . S
C928 H898 0.950 . S
C928 C927 1.524 . S
C928 C929 1.415 . S
C929 H899 0.950 . S
C929 C924 1.363 . S
C929 C928 1.415 . S
H930 C927 0.999 . S
H931 C912 0.913 . S
H932 C950 0.951 . S
H933 C952 0.951 . S
H934 C954 0.950 . S
H935 C955 0.950 . S
H936 C957 0.950 . S
H937 C960 0.950 . S
H938 C961 0.950 . S
H939 C963 0.950 . S
H940 C964 0.950 . S
H941 C965 0.951 . S
H942 C967 0.951 . S
H943 C969 0.950 . S
H944 C970 0.950 . S
H945 C972 0.950 . S
H946 C975 0.950 . S
H947 C976 0.950 . S
H948 C978 0.950 . S
H949 C979 0.950 . S
C950 H932 0.951 . S
C950 C951 1.366 . S
C950 C952 1.388 . S
C951 C950 1.366 . S
C951 C955 1.385 . S
C952 H933 0.951 . S
C952 C950 1.388 . S
C952 C953 1.366 . S
C953 C952 1.366 . S
C953 C954 1.414 . S
C953 C956 1.499 . S
C954 H934 0.950 . S
C954 C953 1.414 . S
C954 C955 1.374 . S
C955 H935 0.950 . S
C955 C951 1.385 . S
C955 C954 1.374 . S
C956 C953 1.499 . S
C956 C957 1.373 . S
C956 C958 1.389 . S
C957 H936 0.950 . S
C957 C956 1.373 . S
C957 C973 1.377 . S
C958 C956 1.389 . S
C958 C959 1.524 . S
C958 C972 1.377 . S
C959 C958 1.524 . S
C959 C960 1.397 . S
C959 C964 1.363 . S
C960 H937 0.950 . S
C960 C959 1.397 . S
C960 C961 1.334 . S
C961 H938 0.950 . S
C961 C960 1.334 . S
C961 C962 1.287 . S
C962 C961 1.287 . S
C962 C963 1.524 . S
C962 H981 0.913 . S
C963 H939 0.950 . S
C963 C962 1.524 . S
C963 C964 1.415 . S
C964 H940 0.950 . S
C964 C959 1.363 . S
C964 C963 1.415 . S
C965 H941 0.951 . S
C965 C966 1.366 . S
C965 C967 1.388 . S
C966 C965 1.366 . S
C966 C970 1.385 . S
C967 H942 0.951 . S
C967 C965 1.388 . S
C967 C968 1.366 . S
C968 C967 1.366 . S
C968 C969 1.414 . S
C968 C971 1.499 . S
C969 H943 0.950 . S
C969 C968 1.414 . S
C969 C970 1.374 . S
C970 H944 0.950 . S
C970 C966 1.385 . S
C970 C969 1.374 . S
C971 C968 1.499 . S
C971 C972 1.373 . S
C971 C973 1.389 . S
C972 H945 0.950 . S
C972 C958 1.377 . S
C972 C971 1.373 . S
C973 C957 1.377 . S
C973 C971 1.389 . S
C973 C974 1.524 . S
C974 C973 1.524 . S
C974 C975 1.397 . S
C974 C979 1.363 . S
C975 H946 0.950 . S
C975 C974 1.397 . S
C975 C976 1.334 . S
C976 H947 0.950 . S
C976 C975 1.334 . S
C976 C977 1.287 . S
C977 C976 1.287 . S
C977 C978 1.524 . S
C977 H980 0.999 . S
C978 H948 0.950 . S
C978 C977 1.524 . S
C978 C979 1.415 . S
C979 H949 0.950 . S
C979 C974 1.363 . S
C979 C978 1.415 . S
H980 C977 0.999 . S
H981 C962 0.913 . S
H982 C1000 0.951 . S
H983 C1002 0.951 . S
H984 C1004 0.950 . S
H985 C1005 0.950 . S
H986 C1007 0.950 . S
H987 C1010 0.950 . S
H988 C1011 0.950 . S
H989 C1013 0.950 . S
H990 C1014 0.950 . S
H991 C1015 0.951 . S
H992 C1017 0.951 . S
H993 C1019 0.950 . S
H994 C1020 0.950 . S
H995 C1022 0.950 . S
H996 C1025 0.950 . S
H997 C1026 0.950 . S
H998 C1028 0.950 . S
H999 C1029 0.950 . S
C1000 H982 0.951 . S
C1000 C1001 1.366 . S
C1000 C1002 1.388 . S
C1001 C1000 1.366 . S
C1001 C1005 1.385 . S
C1002 H983 0.951 . S
C1002 C1000 1.388 . S
C1002 C1003 1.366 . S
C1003 C1002 1.366 . S
C1003 C1004 1.414 . S
C1003 C1006 1.499 . S
C1004 H984 0.950 . S
C1004 C1003 1.414 . S
C1004 C1005 1.374 . S
C1005 H985 0.950 . S
C1005 C1001 1.385 . S
C1005 C1004 1.374 . S
C1006 C1003 1.499 . S
C1006 C1007 1.373 . S
C1006 C1008 1.389 . S
C1007 H986 0.950 . S
C1007 C1006 1.373 . S
C1007 C1023 1.377 . S
C1008 C1006 1.389 . S
C1008 C1009 1.524 . S
C1008 C1022 1.377 . S
C1009 C1008 1.524 . S
C1009 C1010 1.397 . S
C1009 C1014 1.363 . S
C1010 H987 0.950 . S
C1010 C1009 1.397 . S
C1010 C1011 1.334 . S
C1011 H988 0.950 . S
C1011 C1010 1.334 . S
C1011 C1012 1.287 . S
C1012 C1011 1.287 . S
C1012 C1013 1.524 . S
C1012 H1031 0.913 . S
C1013 H989 0.950 . S
C1013 C1012 1.524 . S
C1013 C1014 1.415 . S
C1014 H990 0.950 . S
C1014 C1009 1.363 . S
C1014 C1013 1.415 . S
C1015 H991 0.951 . S
C1015 C1016 1.366 . S
C1015 C1017 1.388 . S
C1016 C1015 1.366 . S
C1016 C1020 1.385 . S
C1017 H992 0.951 . S
C1017 C1015 1.388 . S
C1017 C1018 1.366 . S
C1018 C1017 1.366 . S
C1018 C1019 1.414 . S
C1018 C1021 1.499 . S
C1019 H993 0.950 . S
C1019 C1018 1.414 . S
C1019 C1020 1.374 . S
C1020 H994 0.950 . S
C1020 C1016 1.385 . S
C1020 C1019 1.374 . S
C1021 C1018 1.499 . S
C1021 C1022 1.373 . S
C1021 C1023 1.389 . S
C1022 H995 0.950 . S
C1022 C1008 1.377 . S
C1022 C1021 1.373 . S
C1023 C1007 1.377 . S
C1023 C1021 1.389 . S
C1023 C1024 1.524 . S
C1024 C1023 1.524 . S
C1024 C1025 1.397 . S
C1024 C1029 1.363 . S
C1025 H996 0.950 . S
C1025 C1024 1.397 . S
C1025 C1026 1.334 . S
C1026 H997 0.950 . S
C1026 C1025 1.334 . S
C1026 C1027 1.287 . S
C1027 C1026 1.287 . S
C1027 C1028 1.524 . S
C1027 H1030 0.999 . S
C1028 H998 0.950 . S
C1028 C1027 1.524 . S
C1028 C1029 1.415 . S
C1029 H999 0.950 . S
C1029 C1024 1.363 . S
C1029 C1028 1.415 . S
H1030 C1027 0.999 . S
H1031 C1012 0.913 . S
C151 C96 1.557 . S
C166 C8 1.557 . S
C201 C19 1.557 . S
C216 C107 1.557 . S
C251 C118 1.557 . S
C266 C30 1.557 . S
C301 C129 1.557 . S
C316 C41 1.557 . S
C351 C74 1.557 . S
C366 C52 1.556 . S
C401 C63 1.556 . S
C416 C85 1.557 . S
C451 C38 1.285 . S
C466 C5 1.284 . S
C501 C49 1.283 . S
C516 C16 1.285 . S
C551 C27 1.285 . S
C566 C60 1.285 . S
C601 C104 1.284 . S
C616 C71 1.285 . S
C651 C82 1.283 . S
C666 C115 1.283 . S
C701 C126 1.283 . S
C716 C93 1.285 . S
C751 C117 1.496 . S
C766 C7 1.496 . S
C801 C128 1.498 . S
C816 C18 1.498 . S
C851 C29 1.497 . S
C866 C73 1.498 . S
C901 C40 1.496 . S
C916 C84 1.496 . S
C951 C51 1.497 . S
C966 C95 1.497 . S
C1001 C62 1.497 . S
C1016 C106 1.496 . S
