# Generated by pormake.
# Topology afi, (4)-cn, num edge types: 1
# Building blocks:
#     Node 0, Type 0, BuildingBlock: NAHDIM_clean_sbu_0, # of connection points: 4
#     Node 1, Type 0, BuildingBlock: NAHDIM_clean_sbu_0, # of connection points: 4
#     Node 2, Type 0, BuildingBlock: NAHDIM_clean_sbu_0, # of connection points: 4
#     Node 3, Type 0, BuildingBlock: NAHDIM_clean_sbu_0, # of connection points: 4
#     Node 4, Type 0, BuildingBlock: NAHDIM_clean_sbu_0, # of connection points: 4
#     Node 5, Type 0, BuildingBlock: NAHDIM_clean_sbu_0, # of connection points: 4
#     Node 6, Type 0, BuildingBlock: NAHDIM_clean_sbu_0, # of connection points: 4
#     Node 7, Type 0, BuildingBlock: NAHDIM_clean_sbu_0, # of connection points: 4
#     Node 8, Type 0, BuildingBlock: NAHDIM_clean_sbu_0, # of connection points: 4
#     Node 9, Type 0, BuildingBlock: NAHDIM_clean_sbu_0, # of connection points: 4
#     Node 10, Type 0, BuildingBlock: NAHDIM_clean_sbu_0, # of connection points: 4
#     Node 11, Type 0, BuildingBlock: NAHDIM_clean_sbu_0, # of connection points: 4
#     Node 12, Type 0, BuildingBlock: NAHDIM_clean_sbu_0, # of connection points: 4
#     Node 13, Type 0, BuildingBlock: NAHDIM_clean_sbu_0, # of connection points: 4
#     Node 14, Type 0, BuildingBlock: NAHDIM_clean_sbu_0, # of connection points: 4
#     Node 15, Type 0, BuildingBlock: NAHDIM_clean_sbu_0, # of connection points: 4
#     Node 16, Type 0, BuildingBlock: NAHDIM_clean_sbu_0, # of connection points: 4
#     Node 17, Type 0, BuildingBlock: NAHDIM_clean_sbu_0, # of connection points: 4
#     Node 18, Type 0, BuildingBlock: NAHDIM_clean_sbu_0, # of connection points: 4
#     Node 19, Type 0, BuildingBlock: NAHDIM_clean_sbu_0, # of connection points: 4
#     Node 20, Type 0, BuildingBlock: NAHDIM_clean_sbu_0, # of connection points: 4
#     Node 21, Type 0, BuildingBlock: NAHDIM_clean_sbu_0, # of connection points: 4
#     Node 22, Type 0, BuildingBlock: NAHDIM_clean_sbu_0, # of connection points: 4
#     Node 23, Type 0, BuildingBlock: NAHDIM_clean_sbu_0, # of connection points: 4
#     Edge 24, Type (0, 0), BuildingBlock: XUDNAN_clean_linker_2, # of connection points: 2
#     Edge 25, Type (0, 0), BuildingBlock: XUDNAN_clean_linker_2, # of connection points: 2
#     Edge 26, Type (0, 0), BuildingBlock: XUDNAN_clean_linker_2, # of connection points: 2
#     Edge 27, Type (0, 0), BuildingBlock: XUDNAN_clean_linker_2, # of connection points: 2
#     Edge 28, Type (0, 0), BuildingBlock: XUDNAN_clean_linker_2, # of connection points: 2
#     Edge 29, Type (0, 0), BuildingBlock: XUDNAN_clean_linker_2, # of connection points: 2
#     Edge 30, Type (0, 0), BuildingBlock: XUDNAN_clean_linker_2, # of connection points: 2
#     Edge 31, Type (0, 0), BuildingBlock: XUDNAN_clean_linker_2, # of connection points: 2
#     Edge 32, Type (0, 0), BuildingBlock: XUDNAN_clean_linker_2, # of connection points: 2
#     Edge 33, Type (0, 0), BuildingBlock: XUDNAN_clean_linker_2, # of connection points: 2
#     Edge 34, Type (0, 0), BuildingBlock: XUDNAN_clean_linker_2, # of connection points: 2
#     Edge 35, Type (0, 0), BuildingBlock: XUDNAN_clean_linker_2, # of connection points: 2
#     Edge 36, Type (0, 0), BuildingBlock: XUDNAN_clean_linker_2, # of connection points: 2
#     Edge 37, Type (0, 0), BuildingBlock: XUDNAN_clean_linker_2, # of connection points: 2
#     Edge 38, Type (0, 0), BuildingBlock: XUDNAN_clean_linker_2, # of connection points: 2
#     Edge 39, Type (0, 0), BuildingBlock: XUDNAN_clean_linker_2, # of connection points: 2
#     Edge 40, Type (0, 0), BuildingBlock: XUDNAN_clean_linker_2, # of connection points: 2
#     Edge 41, Type (0, 0), BuildingBlock: XUDNAN_clean_linker_2, # of connection points: 2
#     Edge 42, Type (0, 0), BuildingBlock: XUDNAN_clean_linker_2, # of connection points: 2
#     Edge 43, Type (0, 0), BuildingBlock: XUDNAN_clean_linker_2, # of connection points: 2
#     Edge 44, Type (0, 0), BuildingBlock: XUDNAN_clean_linker_2, # of connection points: 2
#     Edge 45, Type (0, 0), BuildingBlock: XUDNAN_clean_linker_2, # of connection points: 2
#     Edge 46, Type (0, 0), BuildingBlock: XUDNAN_clean_linker_2, # of connection points: 2
#     Edge 47, Type (0, 0), BuildingBlock: XUDNAN_clean_linker_2, # of connection points: 2
#     Edge 48, Type (0, 0), BuildingBlock: XUDNAN_clean_linker_2, # of connection points: 2
#     Edge 49, Type (0, 0), BuildingBlock: XUDNAN_clean_linker_2, # of connection points: 2
#     Edge 50, Type (0, 0), BuildingBlock: XUDNAN_clean_linker_2, # of connection points: 2
#     Edge 51, Type (0, 0), BuildingBlock: XUDNAN_clean_linker_2, # of connection points: 2
#     Edge 52, Type (0, 0), BuildingBlock: XUDNAN_clean_linker_2, # of connection points: 2
#     Edge 53, Type (0, 0), BuildingBlock: XUDNAN_clean_linker_2, # of connection points: 2
#     Edge 54, Type (0, 0), BuildingBlock: XUDNAN_clean_linker_2, # of connection points: 2
#     Edge 55, Type (0, 0), BuildingBlock: XUDNAN_clean_linker_2, # of connection points: 2
#     Edge 56, Type (0, 0), BuildingBlock: XUDNAN_clean_linker_2, # of connection points: 2
#     Edge 57, Type (0, 0), BuildingBlock: XUDNAN_clean_linker_2, # of connection points: 2
#     Edge 58, Type (0, 0), BuildingBlock: XUDNAN_clean_linker_2, # of connection points: 2
#     Edge 59, Type (0, 0), BuildingBlock: XUDNAN_clean_linker_2, # of connection points: 2
#     Edge 60, Type (0, 0), BuildingBlock: XUDNAN_clean_linker_2, # of connection points: 2
#     Edge 61, Type (0, 0), BuildingBlock: XUDNAN_clean_linker_2, # of connection points: 2
#     Edge 62, Type (0, 0), BuildingBlock: XUDNAN_clean_linker_2, # of connection points: 2
#     Edge 63, Type (0, 0), BuildingBlock: XUDNAN_clean_linker_2, # of connection points: 2
#     Edge 64, Type (0, 0), BuildingBlock: XUDNAN_clean_linker_2, # of connection points: 2
#     Edge 65, Type (0, 0), BuildingBlock: XUDNAN_clean_linker_2, # of connection points: 2
#     Edge 66, Type (0, 0), BuildingBlock: XUDNAN_clean_linker_2, # of connection points: 2
#     Edge 67, Type (0, 0), BuildingBlock: XUDNAN_clean_linker_2, # of connection points: 2
#     Edge 68, Type (0, 0), BuildingBlock: XUDNAN_clean_linker_2, # of connection points: 2
#     Edge 69, Type (0, 0), BuildingBlock: XUDNAN_clean_linker_2, # of connection points: 2
#     Edge 70, Type (0, 0), BuildingBlock: XUDNAN_clean_linker_2, # of connection points: 2
#     Edge 71, Type (0, 0), BuildingBlock: XUDNAN_clean_linker_2, # of connection points: 2
# Relax obj value: 0.071
# Max RMSD: 0.083
# Mean RMSD: 0.083
data_MOF--net-afi--node1-NAHDIM_clean_sbu_0--edge1-XUDNAN_clean_linker_2
_symmetry_space_group_name_H-M    P1
_symmetry_Int_Tables_number       1
_symmetry_cell_setting            triclinic
loop_
_symmetry_equiv_pos_as_xyz
'x, y, z'
_cell_length_a     68.238839
_cell_length_b     68.228135
_cell_length_c     39.189073
_cell_angle_alpha  90.017531
_cell_angle_beta   89.974708
_cell_angle_gamma 119.99558
loop_
_atom_site_label
_atom_site_type_symbol
_atom_site_fract_x
_atom_site_fract_y
_atom_site_fract_z
_atom_type_partial_charge
C0 C 0.43125 0.14932 0.20492 0.0
O1 O 0.44673 0.15342 0.18168 0.0
O2 O 0.45969 0.11597 0.2257 0.0
Zn3 Zn 0.42956 0.10697 0.20427 0.0
O4 O 0.43077 0.1066 0.1529 0.0
C5 C 0.40491 0.05862 0.20796 0.0
O6 O 0.41782 0.0609 0.18163 0.0
O7 O 0.42089 0.12986 0.21866 0.0
C8 C 0.41277 0.10261 0.13748 0.0
O9 O 0.395 0.09874 0.15568 0.0
C10 C 0.47386 0.11062 0.21449 0.0
O11 O 0.46934 0.09872 0.18629 0.0
O12 O 0.40664 0.07622 0.2219 0.0
C13 C 0.29344 0.46798 0.21257 0.0
O14 O 0.30934 0.48915 0.21685 0.0
O15 O 0.35323 0.49406 0.20252 0.0
Zn16 Zn 0.33017 0.46355 0.18367 0.0
O17 O 0.33148 0.46532 0.13262 0.0
C18 C 0.3505 0.44265 0.22351 0.0
O19 O 0.35743 0.4607 0.24273 0.0
O20 O 0.29854 0.4541 0.19934 0.0
C21 C 0.31597 0.45039 0.11401 0.0
O22 O 0.29832 0.43334 0.12853 0.0
C23 C 0.35942 0.51206 0.18543 0.0
O24 O 0.34996 0.51077 0.1557 0.0
O25 O 0.33834 0.44017 0.19754 0.0
C26 C 0.82516 0.30791 0.20624 0.0
O27 O 0.83432 0.30112 0.18298 0.0
O28 O 0.86606 0.38307 0.20225 0.0
Zn29 Zn 0.86242 0.35273 0.1899 0.0
O30 O 0.85825 0.34874 0.139 0.0
C31 C 0.9088 0.36357 0.18982 0.0
O32 O 0.9092 0.37495 0.16255 0.0
O33 O 0.83451 0.32883 0.21346 0.0
C34 C 0.86467 0.33777 0.12033 0.0
O35 O 0.87463 0.32755 0.1344 0.0
C36 C 0.87552 0.39974 0.18183 0.0
O37 O 0.88296 0.39703 0.15229 0.0
O38 O 0.89023 0.35202 0.20572 0.0
C39 C 0.5746 0.85258 0.18847 0.0
O40 O 0.56108 0.84977 0.16276 0.0
O41 O 0.54905 0.89027 0.19652 0.0
Zn42 Zn 0.5804 0.89653 0.18413 0.0
O43 O 0.58351 0.89704 0.13319 0.0
C44 C 0.60315 0.94417 0.19235 0.0
O45 O 0.58887 0.94181 0.16805 0.0
O46 O 0.5852 0.87185 0.20276 0.0
C47 C 0.60145 0.9 0.11877 0.0
O48 O 0.61872 0.90323 0.13765 0.0
C49 C 0.5371 0.89361 0.17495 0.0
O50 O 0.54526 0.90087 0.14427 0.0
O51 O 0.60313 0.9267 0.2036 0.0
C52 C 0.69311 0.54634 0.23812 0.0
O53 O 0.67841 0.53143 0.25954 0.0
O54 O 0.63597 0.50644 0.22327 0.0
Zn55 Zn 0.65258 0.53773 0.20299 0.0
O56 O 0.64735 0.53481 0.15245 0.0
C57 C 0.61854 0.54424 0.23275 0.0
O58 O 0.60728 0.52232 0.22727 0.0
O59 O 0.68596 0.55216 0.21231 0.0
C60 C 0.65963 0.55055 0.13178 0.0
O61 O 0.67605 0.56977 0.14377 0.0
C62 C 0.63164 0.4885 0.20732 0.0
O63 O 0.64014 0.4901 0.17669 0.0
O64 O 0.63915 0.55562 0.22355 0.0
C65 C 0.17242 0.694 0.20464 0.0
O66 O 0.17049 0.67481 0.1943 0.0
O67 O 0.1238 0.63947 0.20894 0.0
Zn68 Zn 0.12429 0.66845 0.19623 0.0
O69 O 0.11658 0.66712 0.14638 0.0
C70 C 0.0912 0.68147 0.21297 0.0
O71 O 0.10031 0.69518 0.18687 0.0
O72 O 0.15471 0.69561 0.20727 0.0
C73 C 0.1305 0.67685 0.12215 0.0
O74 O 0.15214 0.68959 0.12899 0.0
C75 C 0.12752 0.62808 0.18681 0.0
O76 O 0.13222 0.63556 0.1553 0.0
O77 O 0.09944 0.66926 0.22241 0.0
C78 C 0.84414 0.57108 0.29174 0.0
O79 O 0.84214 0.55741 0.31678 0.0
O80 O 0.88927 0.55363 0.27328 0.0
Zn81 Zn 0.88929 0.58003 0.29637 0.0
O82 O 0.88562 0.57614 0.34743 0.0
C83 C 0.9366 0.60669 0.29556 0.0
O84 O 0.93353 0.58877 0.31249 0.0
O85 O 0.86343 0.58319 0.278 0.0
C86 C 0.89074 0.56421 0.36628 0.0
O87 O 0.89967 0.5529 0.35257 0.0
C88 C 0.87638 0.53277 0.27987 0.0
O89 O 0.86122 0.52675 0.30425 0.0
O90 O 0.91934 0.60761 0.28567 0.0
C91 C 0.30732 0.83561 0.27437 0.0
O92 O 0.30242 0.85176 0.27897 0.0
O93 O 0.38113 0.87324 0.2694 0.0
Zn94 Zn 0.3537 0.86953 0.29417 0.0
O95 O 0.35833 0.87046 0.34515 0.0
C96 C 0.34194 0.9056 0.29685 0.0
O97 O 0.3333 0.89747 0.32701 0.0
O98 O 0.32738 0.83967 0.27964 0.0
C99 C 0.34158 0.86129 0.36547 0.0
O100 O 0.32098 0.85076 0.35291 0.0
C101 C 0.39623 0.86944 0.2813 0.0
O102 O 0.39456 0.8623 0.31287 0.0
O103 O 0.35026 0.89588 0.27923 0.0
C104 C 0.43934 0.29219 0.26613 0.0
O105 O 0.45332 0.30828 0.24544 0.0
O106 O 0.47645 0.34884 0.28695 0.0
Zn107 Zn 0.4446 0.33023 0.30471 0.0
O108 O 0.4443 0.33345 0.35557 0.0
C109 C 0.42531 0.35855 0.29574 0.0
O110 O 0.43867 0.36903 0.3217 0.0
O111 O 0.43279 0.29752 0.29313 0.0
C112 C 0.45159 0.32374 0.37526 0.0
O113 O 0.45949 0.31137 0.362 0.0
C114 C 0.49097 0.36716 0.30113 0.0
O115 O 0.48521 0.37425 0.32846 0.0
O116 O 0.42488 0.34108 0.28356 0.0
C117 C 0.14813 0.45129 0.28461 0.0
O118 O 0.15209 0.47027 0.29923 0.0
O119 O 0.11136 0.47245 0.27511 0.0
Zn120 Zn 0.10505 0.44366 0.29865 0.0
O121 O 0.11001 0.44872 0.34919 0.0
C122 C 0.06512 0.4192 0.25887 0.0
O123 O 0.07863 0.4334 0.23561 0.0
O124 O 0.12773 0.43557 0.28091 0.0
C125 C 0.09442 0.44447 0.37065 0.0
O126 O 0.07359 0.43659 0.35982 0.0
C127 C 0.10743 0.48732 0.28761 0.0
O128 O 0.09872 0.48439 0.31835 0.0
O129 O 0.07295 0.41964 0.28844 0.0
C130 C 0.68477 0.17896 0.29333 0.0
O131 O 0.67077 0.17824 0.31697 0.0
O132 O 0.62715 0.12992 0.29224 0.0
Zn133 Zn 0.65704 0.1317 0.30182 0.0
O134 O 0.66247 0.1321 0.35266 0.0
C135 C 0.66711 0.09519 0.29202 0.0
O136 O 0.68085 0.10451 0.31798 0.0
O137 O 0.68212 0.16046 0.28139 0.0
C138 C 0.68272 0.14173 0.36365 0.0
O139 O 0.69948 0.15114 0.3417 0.0
C140 C 0.61697 0.13572 0.31362 0.0
O141 O 0.62603 0.14321 0.34379 0.0
O142 O 0.65597 0.10419 0.28072 0.0
C143 C 0.55319 0.70556 0.25725 0.0
O144 O 0.53714 0.68973 0.23846 0.0
O145 O 0.51126 0.65078 0.27927 0.0
Zn146 Zn 0.54133 0.66828 0.30338 0.0
O147 O 0.53591 0.67011 0.35333 0.0
C148 C 0.55141 0.63343 0.3144 0.0
O149 O 0.53488 0.62792 0.33627 0.0
O150 O 0.55851 0.70012 0.2853 0.0
C151 C 0.55182 0.6762 0.37485 0.0
O152 O 0.57212 0.6815 0.36408 0.0
C153 C 0.49392 0.63498 0.29391 0.0
O154 O 0.49523 0.63036 0.32608 0.0
O155 O 0.55832 0.65134 0.29678 0.0
C156 C 0.53556 0.82686 0.81746 0.0
O157 O 0.52494 0.82815 0.84461 0.0
O158 O 0.5153 0.8676 0.80758 0.0
Zn159 Zn 0.54638 0.87215 0.81535 0.0
O160 O 0.55537 0.87707 0.86481 0.0
C161 C 0.57188 0.91855 0.80208 0.0
O162 O 0.56208 0.91825 0.8311 0.0
O163 O 0.54676 0.84444 0.79927 0.0
C164 C 0.57534 0.88135 0.87162 0.0
O165 O 0.58849 0.88216 0.84651 0.0
C166 C 0.50401 0.8719 0.82905 0.0
O167 O 0.5124 0.87922 0.85961 0.0
O168 O 0.56809 0.8999 0.78912 0.0
C169 C 0.70045 0.53866 0.80785 0.0
O170 O 0.68764 0.51939 0.82365 0.0
O171 O 0.64041 0.50945 0.78637 0.0
Zn172 Zn 0.65929 0.5394 0.80979 0.0
O173 O 0.65403 0.53468 0.86018 0.0
C174 C 0.64012 0.55964 0.76608 0.0
O175 O 0.63574 0.54242 0.74618 0.0
O176 O 0.69198 0.55081 0.79931 0.0
C177 C 0.66504 0.55054 0.88138 0.0
O178 O 0.68047 0.5705 0.87006 0.0
C179 C 0.61976 0.49704 0.79462 0.0
O180 O 0.61111 0.5042 0.81817 0.0
O181 O 0.65031 0.5619 0.7942 0.0
C182 C 0.16919 0.70556 0.79188 0.0
O183 O 0.17447 0.69082 0.8039 0.0
O184 O 0.13432 0.64725 0.78938 0.0
Zn185 Zn 0.12541 0.66939 0.80735 0.0
O186 O 0.12477 0.66904 0.85876 0.0
C187 C 0.08368 0.64557 0.76859 0.0
O188 O 0.09298 0.63405 0.75704 0.0
O189 O 0.14853 0.70035 0.79113 0.0
C190 C 0.10619 0.65723 0.87452 0.0
O191 O 0.08762 0.64491 0.85688 0.0
C192 C 0.12673 0.62731 0.80077 0.0
O193 O 0.11236 0.62026 0.82636 0.0
O194 O 0.09461 0.6617 0.78946 0.0
C195 C 0.44898 0.14264 0.78275 0.0
O196 O 0.43876 0.12309 0.76683 0.0
O197 O 0.49035 0.11994 0.81951 0.0
Zn198 Zn 0.46047 0.11768 0.83032 0.0
O199 O 0.45431 0.11617 0.8808 0.0
C200 C 0.4291 0.06997 0.82265 0.0
O201 O 0.43703 0.06899 0.85276 0.0
O202 O 0.4595 0.14442 0.81037 0.0
C203 C 0.43485 0.11294 0.88872 0.0
O204 O 0.42098 0.11124 0.86414 0.0
C205 C 0.50843 0.13869 0.81492 0.0
O206 O 0.50822 0.15765 0.8196 0.0
O207 O 0.43644 0.08908 0.80837 0.0
C208 C 0.2829 0.43981 0.7825 0.0
O209 O 0.29973 0.45979 0.79114 0.0
O210 O 0.33955 0.45742 0.76538 0.0
Zn211 Zn 0.31787 0.43073 0.79365 0.0
O212 O 0.32336 0.43973 0.84304 0.0
C213 C 0.32583 0.39315 0.80666 0.0
O214 O 0.32256 0.39624 0.83877 0.0
O215 O 0.28628 0.42312 0.78142 0.0
C216 C 0.30803 0.4301 0.86552 0.0
O217 O 0.28808 0.41341 0.85649 0.0
C218 C 0.35945 0.47078 0.77609 0.0
O219 O 0.36577 0.46679 0.80572 0.0
O220 O 0.3238 0.40522 0.78376 0.0
C221 C 0.83992 0.28305 0.78735 0.0
O222 O 0.85749 0.28456 0.80349 0.0
O223 O 0.85589 0.35402 0.77214 0.0
Zn224 Zn 0.86199 0.33191 0.79729 0.0
O225 O 0.85879 0.33509 0.84771 0.0
C226 C 0.91061 0.35415 0.7993 0.0
O227 O 0.90797 0.36623 0.82304 0.0
O228 O 0.83873 0.3008 0.7822 0.0
C229 C 0.86669 0.32764 0.8704 0.0
O230 O 0.87776 0.31736 0.86105 0.0
C231 C 0.86283 0.37387 0.78342 0.0
O232 O 0.8742 0.3801 0.8122 0.0
O233 O 0.89323 0.33811 0.78516 0.0
C234 C 0.15265 0.45565 0.71849 0.0
O235 O 0.15984 0.47715 0.71272 0.0
O236 O 0.11801 0.48129 0.71026 0.0
Zn237 Zn 0.111 0.45069 0.69241 0.0
O238 O 0.1148 0.45227 0.64147 0.0
C239 C 0.06991 0.42993 0.73138 0.0
O240 O 0.08194 0.44723 0.75159 0.0
O241 O 0.13211 0.44116 0.71236 0.0
C242 C 0.09911 0.44949 0.62115 0.0
O243 O 0.07948 0.4452 0.6336 0.0
C244 C 0.13089 0.49945 0.69418 0.0
O245 O 0.14024 0.49836 0.66546 0.0
O246 O 0.07893 0.42767 0.7044 0.0
C247 C 0.70135 0.15468 0.69609 0.0
O248 O 0.69012 0.16255 0.67916 0.0
O249 O 0.64143 0.12378 0.69572 0.0
Zn250 Zn 0.66274 0.11419 0.6763 0.0
O251 O 0.66638 0.11958 0.62556 0.0
C252 C 0.64795 0.07423 0.71651 0.0
O253 O 0.65099 0.08839 0.74139 0.0
O254 O 0.69286 0.13342 0.6988 0.0
C255 C 0.68481 0.12318 0.61197 0.0
O256 O 0.7004 0.12291 0.63128 0.0
C257 C 0.62073 0.11043 0.70278 0.0
O258 O 0.61172 0.08875 0.69608 0.0
O259 O 0.65188 0.08148 0.68601 0.0
C260 C 0.53651 0.6963 0.71402 0.0
O261 O 0.54855 0.70241 0.68583 0.0
O262 O 0.49755 0.62192 0.70254 0.0
Zn263 Zn 0.52607 0.65146 0.69329 0.0
O264 O 0.52702 0.65922 0.6436 0.0
C265 C 0.55381 0.63128 0.69339 0.0
O266 O 0.53848 0.618 0.67116 0.0
O267 O 0.52573 0.67552 0.72226 0.0
C268 C 0.54426 0.66655 0.62438 0.0
O269 O 0.56356 0.6701 0.63713 0.0
C270 C 0.48138 0.61291 0.68122 0.0
O271 O 0.48303 0.6232 0.65215 0.0
O272 O 0.55244 0.64767 0.70618 0.0
C273 C 0.84063 0.54583 0.73344 0.0
O274 O 0.84088 0.52755 0.74326 0.0
O275 O 0.87062 0.52049 0.70027 0.0
Zn276 Zn 0.87719 0.55192 0.6885 0.0
O277 O 0.87508 0.55525 0.63788 0.0
C278 C 0.92393 0.56872 0.70153 0.0
O279 O 0.91855 0.54884 0.68881 0.0
O280 O 0.85477 0.55867 0.71116 0.0
C281 C 0.88287 0.54742 0.61559 0.0
O282 O 0.89285 0.53617 0.62544 0.0
C283 C 0.85606 0.50265 0.6851 0.0
O284 O 0.84402 0.5042 0.6602 0.0
O285 O 0.90871 0.57417 0.7042 0.0
C286 C 0.30683 0.83786 0.70605 0.0
O287 O 0.32336 0.83326 0.70551 0.0
O288 O 0.36435 0.87735 0.71752 0.0
Zn289 Zn 0.34292 0.88127 0.68667 0.0
O290 O 0.34987 0.8792 0.63724 0.0
C291 C 0.34874 0.91775 0.7276 0.0
O292 O 0.34583 0.90288 0.75125 0.0
O293 O 0.31103 0.85766 0.69829 0.0
C294 C 0.33443 0.87146 0.61468 0.0
O295 O 0.31345 0.86455 0.62385 0.0
C296 C 0.37791 0.8708 0.70786 0.0
O297 O 0.37824 0.86572 0.6756 0.0
O298 O 0.34745 0.91213 0.69642 0.0
C299 C 0.4585 0.28765 0.72804 0.0
O300 O 0.47246 0.30354 0.74902 0.0
O301 O 0.48181 0.34797 0.71589 0.0
Zn302 Zn 0.45192 0.3232 0.6983 0.0
O303 O 0.4501 0.32812 0.64802 0.0
C304 C 0.41499 0.33188 0.7087 0.0
O305 O 0.41842 0.33739 0.67626 0.0
O306 O 0.44829 0.29242 0.70533 0.0
C307 C 0.45501 0.31791 0.62542 0.0
O308 O 0.46158 0.30363 0.63491 0.0
C309 C 0.50053 0.35253 0.70231 0.0
O310 O 0.5006 0.34009 0.67677 0.0
O311 O 0.42709 0.32506 0.72339 0.0
H312 H 0.40021 0.01817 0.18737 0.0
H313 H 0.37605 0.04795 0.26245 0.0
H314 H 0.35358 0.0106 0.28998 0.0
H315 H 0.34765 0.96248 0.18178 0.0
H316 H 0.36316 0.94761 0.17764 0.0
H317 H 0.37502 0.97604 0.16147 0.0
H318 H 0.41101 0.98851 0.19802 0.0
H319 H 0.39928 0.96021 0.2143 0.0
H320 H 0.40822 0.9836 0.24343 0.0
H321 H 0.33695 0.97087 0.31274 0.0
H322 H 0.32797 0.93227 0.32908 0.0
H323 H 0.36297 0.92879 0.23874 0.0
C324 C 0.38985 0.01679 0.20919 0.0
C325 C 0.38985 0.03598 0.2227 0.0
C326 C 0.37628 0.03347 0.25158 0.0
C327 C 0.36339 0.01231 0.26733 0.0
C328 C 0.36413 0.99382 0.25374 0.0
C329 C 0.37693 0.99585 0.22519 0.0
C330 C 0.37624 0.97383 0.2171 0.0
C331 C 0.36483 0.96444 0.18244 0.0
C332 C 0.4001 0.97672 0.21831 0.0
C333 C 0.36166 0.95928 0.24619 0.0
C334 C 0.35458 0.97098 0.26683 0.0
C335 C 0.34212 0.96143 0.29649 0.0
C336 C 0.33712 0.9395 0.30558 0.0
C337 C 0.3447 0.92746 0.28516 0.0
C338 C 0.35671 0.93741 0.25475 0.0
H339 H 0.42324 0.39603 0.31524 0.0
H340 H 0.39529 0.3405 0.24263 0.0
H341 H 0.37196 0.3552 0.21757 0.0
H342 H 0.37191 0.39829 0.32858 0.0
H343 H 0.38659 0.42872 0.33151 0.0
H344 H 0.40055 0.41343 0.34435 0.0
H345 H 0.43341 0.43721 0.30243 0.0
H346 H 0.41957 0.45259 0.2895 0.0
H347 H 0.42721 0.43833 0.25799 0.0
H348 H 0.35247 0.37655 0.1995 0.0
H349 H 0.33861 0.40324 0.18924 0.0
H350 H 0.37936 0.44467 0.27386 0.0
C351 C 0.41215 0.38686 0.29417 0.0
C352 C 0.41107 0.36709 0.28091 0.0
C353 C 0.39639 0.35568 0.25323 0.0
C354 C 0.38304 0.36387 0.23886 0.0
C355 C 0.38456 0.38344 0.25252 0.0
C356 C 0.39874 0.39479 0.27955 0.0
C357 C 0.39764 0.41573 0.289 0.0
C358 C 0.38863 0.41392 0.32553 0.0
C359 C 0.42083 0.43723 0.28444 0.0
C360 C 0.38077 0.41451 0.26284 0.0
C361 C 0.37335 0.39572 0.24213 0.0
C362 C 0.35808 0.39127 0.21565 0.0
C363 C 0.35031 0.40654 0.21003 0.0
C364 C 0.35786 0.42603 0.23078 0.0
C365 C 0.37316 0.42988 0.25766 0.0
H366 H 0.95112 0.38773 0.16215 0.0
H367 H 0.91464 0.34464 0.24803 0.0
H368 H 0.95079 0.35123 0.27264 0.0
H369 H 0.99532 0.37165 0.15673 0.0
H370 H 0.01691 0.40004 0.14592 0.0
H371 H 0.98799 0.38983 0.13336 0.0
H372 H 0.9887 0.42385 0.16407 0.0
H373 H 0.01754 0.4341 0.17677 0.0
H374 H 0.99635 0.42878 0.20857 0.0
H375 H 0.99127 0.36578 0.29067 0.0
H376 H 0.03261 0.38676 0.30027 0.0
H377 H 0.04218 0.4198 0.20208 0.0
C378 C 0.95064 0.37932 0.18583 0.0
C379 C 0.93004 0.36564 0.20314 0.0
C380 C 0.93021 0.35514 0.23423 0.0
C381 C 0.95066 0.35874 0.24839 0.0
C382 C 0.97072 0.37272 0.23097 0.0
C383 C 0.97083 0.3827 0.20023 0.0
C384 C 0.99469 0.39814 0.18765 0.0
C385 C -0.00102 0.38938 0.15392 0.0
C386 C -0.0004 0.42266 0.18408 0.0
C387 C 0.00805 0.39583 0.21659 0.0
C388 C 0.99396 0.38094 0.24121 0.0
C389 C 0.00247 0.37721 0.27133 0.0
C390 C 0.02597 0.38923 0.27657 0.0
C391 C 0.04065 0.40482 0.25184 0.0
C392 C 0.03148 0.40779 0.22128 0.0
H393 H 0.60255 0.98335 0.18042 0.0
H394 H 0.63652 0.95555 0.24012 0.0
H395 H 0.65908 0.99246 0.2689 0.0
H396 H 0.65133 0.04082 0.17106 0.0
H397 H 0.63405 0.05382 0.17515 0.0
H398 H 0.62231 0.02594 0.15689 0.0
H399 H 0.58998 0.01045 0.2016 0.0
H400 H 0.60162 0.03821 0.22002 0.0
H401 H 0.59693 0.0146 0.24638 0.0
H402 H 0.67595 0.03157 0.29394 0.0
H403 H 0.68518 0.0695 0.31422 0.0
H404 H 0.63965 0.07128 0.2385 0.0
C405 C 0.615 0.98509 0.19912 0.0
C406 C 0.61784 0.9666 0.20792 0.0
C407 C 0.63409 0.96952 0.2329 0.0
C408 C 0.64703 0.99043 0.24931 0.0
C409 C 0.64354 0.00822 0.24037 0.0
C410 C 0.62795 0.00577 0.21581 0.0
C411 C 0.62635 0.02702 0.21242 0.0
C412 C 0.63397 0.03752 0.17676 0.0
C413 C 0.6023 0.02228 0.22061 0.0
C414 C 0.64308 0.04164 0.23951 0.0
C415 C 0.65304 0.03062 0.25505 0.0
C416 C 0.66842 0.04045 0.28173 0.0
C417 C 0.67354 0.062 0.29308 0.0
C418 C 0.66316 0.07339 0.27794 0.0
C419 C 0.64797 0.0631 0.25051 0.0
H420 H 0.58795 0.64048 0.27507 0.0
H421 H 0.53487 0.59114 0.34072 0.0
H422 H 0.54762 0.5639 0.32883 0.0
H423 H 0.58474 0.60215 0.21174 0.0
H424 H 0.61479 0.61569 0.20433 0.0
H425 H 0.60248 0.63207 0.21935 0.0
H426 H 0.62973 0.64569 0.27113 0.0
H427 H 0.64221 0.6294 0.25618 0.0
H428 H 0.63077 0.6251 0.29875 0.0
H429 H 0.5635 0.5409 0.30633 0.0
H430 H 0.58356 0.52403 0.27722 0.0
H431 H 0.62789 0.58838 0.22814 0.0
C432 C 0.57919 0.62404 0.28722 0.0
C433 C 0.56038 0.61795 0.3088 0.0
C434 C 0.54934 0.59625 0.32418 0.0
C435 C 0.55644 0.58062 0.31759 0.0
C436 C 0.57479 0.58701 0.29589 0.0
C437 C 0.58623 0.60824 0.28121 0.0
C438 C 0.60519 0.61051 0.25833 0.0
C439 C 0.60157 0.61539 0.22124 0.0
C440 C 0.62835 0.62876 0.27192 0.0
C441 C 0.60224 0.58705 0.26191 0.0
C442 C 0.58455 0.57381 0.28368 0.0
C443 C 0.5776 0.55115 0.28961 0.0
C444 C 0.58902 0.54172 0.27284 0.0
C445 C 0.60734 0.55497 0.25067 0.0
C446 C 0.61416 0.57799 0.24539 0.0
H447 H 0.06646 0.65165 0.26344 0.0
H448 H 0.06679 0.70198 0.19536 0.0
H449 H 0.02825 0.69139 0.21459 0.0
H450 H 0.01214 0.61013 0.24703 0.0
H451 H 0.00555 0.59904 0.28984 0.0
H452 H 0.03437 0.61315 0.27523 0.0
H453 H 0.04628 0.64121 0.32595 0.0
H454 H 0.01744 0.62705 0.34094 0.0
H455 H 0.03197 0.65707 0.33281 0.0
H456 H 0.98779 0.67164 0.23551 0.0
H457 H 0.94936 0.64486 0.25684 0.0
H458 H 0.97608 0.60776 0.3109 0.0
C459 C 0.05872 0.66091 0.25321 0.0
C460 C 0.06968 0.67769 0.22795 0.0
C461 C 0.05878 0.68914 0.21487 0.0
C462 C 0.03689 0.68326 0.22568 0.0
C463 C 0.02626 0.66608 0.2498 0.0
C464 C 0.03695 0.65524 0.26365 0.0
C465 C 0.02126 0.63598 0.28674 0.0
C466 C 0.01815 0.61324 0.27392 0.0
C467 C 0.02974 0.64061 0.32381 0.0
C468 C -0.0002 0.63708 0.28274 0.0
C469 C 0.00304 0.65472 0.26175 0.0
C470 C 0.98516 0.65802 0.25246 0.0
C471 C 0.96339 0.6427 0.26463 0.0
C472 C 0.95972 0.62426 0.28561 0.0
C473 C 0.97831 0.62179 0.29518 0.0
H474 H 0.58532 0.96107 0.82579 0.0
H475 H 0.5901 0.925 0.73778 0.0
H476 H 0.61166 0.96128 0.70689 0.0
H477 H 0.57671 0.00066 0.78039 0.0
H478 H 0.59332 0.0239 0.80889 0.0
H479 H 0.57951 0.9953 0.82465 0.0
H480 H 0.61793 0.00125 0.8467 0.0
H481 H 0.63187 0.02993 0.8311 0.0
H482 H 0.64143 0.01084 0.81759 0.0
H483 H 0.63039 0.00126 0.68444 0.0
H484 H 0.64615 0.04202 0.67284 0.0
H485 H 0.62964 0.05165 0.77622 0.0
C486 C 0.59107 0.96077 0.80013 0.0
C487 C 0.58602 0.94021 0.78416 0.0
C488 C 0.59384 0.94057 0.75054 0.0
C489 C 0.60607 0.96108 0.7328 0.0
C490 C 0.61047 0.98102 0.74918 0.0
C491 C 0.60335 0.98102 0.78219 0.0
C492 C 0.60974 0.00463 0.79376 0.0
C493 C 0.58856 0.0062 0.80242 0.0
C494 C 0.62622 0.0121 0.82408 0.0
C495 C 0.62126 0.01791 0.76191 0.0
C496 C 0.62155 0.00401 0.73648 0.0
C497 C 0.63047 0.01234 0.70427 0.0
C498 C 0.63932 0.03549 0.69791 0.0
C499 C 0.63922 0.05001 0.72369 0.0
C500 C 0.63019 0.04104 0.75612 0.0
H501 H 0.61074 0.55491 0.71494 0.0
H502 H 0.65088 0.59978 0.79706 0.0
H503 H 0.63547 0.62488 0.78407 0.0
H504 H 0.61464 0.59889 0.65642 0.0
H505 H 0.58584 0.58167 0.64213 0.0
H506 H 0.60178 0.56851 0.65564 0.0
H507 H 0.57047 0.54436 0.69957 0.0
H508 H 0.55448 0.55745 0.68626 0.0
H509 H 0.56204 0.55829 0.73052 0.0
H510 H 0.61376 0.64364 0.76473 0.0
H511 H 0.58663 0.65414 0.74151 0.0
H512 H 0.56033 0.59661 0.67266 0.0
C513 C 0.61661 0.57022 0.72982 0.0
C514 C 0.6321 0.57546 0.7569 0.0
C515 C 0.63905 0.59546 0.77614 0.0
C516 C 0.63046 0.60986 0.76888 0.0
C517 C 0.61496 0.60401 0.74231 0.0
C518 C 0.60811 0.58468 0.72306 0.0
C519 C 0.59012 0.58144 0.69747 0.0
C520 C 0.59861 0.58271 0.66074 0.0
C521 C 0.56797 0.55907 0.70386 0.0
C522 C 0.58756 0.60169 0.70582 0.0
C523 C 0.60223 0.61466 0.73147 0.0
C524 C 0.60234 0.63374 0.74442 0.0
C525 C 0.58685 0.63954 0.73108 0.0
C526 C 0.57136 0.62621 0.70525 0.0
C527 C 0.57202 0.60723 0.69224 0.0
H528 H 0.96027 0.56225 0.69713 0.0
H529 H 0.94059 0.6105 0.73134 0.0
H530 H 0.97977 0.63618 0.75076 0.0
H531 H -0.00241 0.5703 0.76599 0.0
H532 H 0.0177 0.56737 0.73981 0.0
H533 H 0.98829 0.5532 0.72792 0.0
H534 H -0.00091 0.5727 0.66868 0.0
H535 H 0.02855 0.58697 0.68042 0.0
H536 H 0.01574 0.60313 0.66627 0.0
H537 H 0.02092 0.65592 0.76822 0.0
H538 H 0.06084 0.66834 0.78176 0.0
H539 H 0.05322 0.60723 0.73491 0.0
C540 C 0.96416 0.57825 0.70858 0.0
C541 C 0.94737 0.58438 0.71273 0.0
C542 C 0.9532 0.60546 0.72788 0.0
C543 C 0.97539 0.62016 0.73897 0.0
C544 C 0.99152 0.61353 0.73457 0.0
C545 C 0.98617 0.59309 0.71966 0.0
C546 C 0.00646 0.58975 0.7183 0.0
C547 C 0.00225 0.56893 0.73926 0.0
C548 C 0.01283 0.58805 0.68121 0.0
C549 C 0.02408 0.61148 0.73492 0.0
C550 C 0.01517 0.62498 0.74417 0.0
C551 C 0.02812 0.64557 0.76088 0.0
C552 C 0.05076 0.65246 0.76848 0.0
C553 C 0.06017 0.63882 0.75921 0.0
C554 C 0.04662 0.61817 0.74201 0.0
H555 H 0.41067 0.02633 0.84547 0.0
H556 H 0.41183 0.06619 0.75833 0.0
H557 H 0.38791 0.03109 0.72609 0.0
H558 H 0.41598 0.98567 0.79977 0.0
H559 H 0.39738 0.96215 0.82654 0.0
H560 H 0.41231 0.99026 0.84406 0.0
H561 H 0.37435 0.98653 0.86391 0.0
H562 H 0.35926 0.95833 0.84647 0.0
H563 H 0.35202 0.97923 0.83331 0.0
H564 H 0.36753 0.99191 0.70129 0.0
H565 H 0.35162 0.95156 0.68635 0.0
H566 H 0.36311 0.93746 0.79014 0.0
C567 C 0.40557 0.0277 0.81983 0.0
C568 C 0.41312 0.04901 0.80444 0.0
C569 C 0.40621 0.05005 0.77071 0.0
C570 C 0.39258 0.0302 0.75219 0.0
C571 C 0.38581 0.00947 0.7679 0.0
C572 C 0.39191 0.00809 0.80106 0.0
C573 C 0.38361 0.98381 0.81133 0.0
C574 C 0.40351 0.98028 0.82097 0.0
C575 C 0.36628 0.97655 0.84048 0.0
C576 C 0.37252 0.97181 0.77842 0.0
C577 C 0.37378 0.98687 0.75374 0.0
C578 C 0.3661 0.9799 0.72056 0.0
C579 C 0.35715 0.95698 0.71229 0.0
C580 C 0.35598 0.94136 0.73713 0.0
C581 C 0.36342 0.9489 0.77072 0.0
H582 H 0.33723 0.38549 0.74311 0.0
H583 H 0.33515 0.36713 0.84966 0.0
H584 H 0.35446 0.3458 0.83507 0.0
H585 H 0.32996 0.33194 0.7064 0.0
H586 H 0.34921 0.34675 0.67188 0.0
H587 H 0.33241 0.35778 0.69006 0.0
H588 H 0.3689 0.39599 0.70187 0.0
H589 H 0.38579 0.38508 0.684 0.0
H590 H 0.39126 0.39629 0.72678 0.0
H591 H 0.37803 0.33045 0.80993 0.0
H592 H 0.40328 0.32175 0.77608 0.0
H593 H 0.38969 0.35018 0.68615 0.0
C594 C 0.34032 0.37654 0.7633 0.0
C595 C 0.33462 0.37794 0.79752 0.0
C596 C 0.33926 0.36623 0.82323 0.0
C597 C 0.3502 0.35403 0.81519 0.0
C598 C 0.35617 0.35355 0.78131 0.0
C599 C 0.3512 0.36433 0.75573 0.0
C600 C 0.36094 0.36276 0.72183 0.0
C601 C 0.342 0.34898 0.69602 0.0
C602 C 0.37772 0.38643 0.70783 0.0
C603 C 0.37289 0.35013 0.73254 0.0
C604 C 0.36972 0.34471 0.76684 0.0
C605 C 0.38033 0.33429 0.78294 0.0
C606 C 0.3947 0.32948 0.76352 0.0
C607 C 0.39841 0.33522 0.72844 0.0
C608 C 0.38704 0.34536 0.71281 0.0
H609 H 0.04387 0.43362 0.7813 0.0
H610 H 0.04148 0.39027 0.69835 0.0
H611 H 0.00081 0.36457 0.70944 0.0
H612 H 0.00366 0.3887 0.83767 0.0
H613 H 0.99124 0.40517 0.85206 0.0
H614 H 0.02053 0.41913 0.83935 0.0
H615 H 0.01315 0.44327 0.79573 0.0
H616 H 0.98387 0.42939 0.80827 0.0
H617 H 0.99126 0.4293 0.76412 0.0
H618 H 0.96 0.34481 0.72745 0.0
H619 H 0.92192 0.33289 0.75022 0.0
H620 H 0.95111 0.38945 0.82098 0.0
C621 C 0.0349 0.41856 0.76576 0.0
C622 C 0.04587 0.4139 0.73906 0.0
C623 C 0.03343 0.39417 0.719 0.0
C624 C 0.01034 0.37943 0.72516 0.0
C625 C -1e-05 0.38468 0.75146 0.0
C626 C 0.01186 0.40376 0.77144 0.0
C627 C 0.99651 0.40622 0.79683 0.0
C628 C 0.0034 0.40471 0.83366 0.0
C629 C 0.99618 0.42835 0.79086 0.0
C630 C 0.97407 0.38573 0.78765 0.0
C631 C 0.97645 0.37341 0.76163 0.0
C632 C 0.95794 0.35422 0.74801 0.0
C633 C 0.93638 0.3476 0.7611 0.0
C634 C 0.93353 0.36021 0.78741 0.0
C635 C 0.95272 0.37935 0.80103 0.0
H636 H 0.45112 0.19279 0.18108 0.0
H637 H 0.40188 0.14704 0.25465 0.0
H638 H 0.39659 0.17819 0.27585 0.0
H639 H 0.47746 0.24004 0.23494 0.0
H640 H 0.48199 0.26046 0.20223 0.0
H641 H 0.48047 0.23417 0.19098 0.0
H642 H 0.44818 0.22554 0.14819 0.0
H643 H 0.44964 0.25188 0.15926 0.0
H644 H 0.42318 0.22566 0.1628 0.0
H645 H 0.39889 0.215 0.29188 0.0
H646 H 0.40822 0.25456 0.30101 0.0
H647 H 0.4556 0.27591 0.21639 0.0
C648 C 0.439 0.18921 0.20136 0.0
C649 C 0.4269 0.16748 0.2162 0.0
C650 C 0.41131 0.16355 0.24284 0.0
C651 C 0.40816 0.18112 0.25502 0.0
C652 C 0.42061 0.20243 0.24013 0.0
C653 C 0.43562 0.2065 0.21375 0.0
C654 C 0.44768 0.23112 0.20315 0.0
C655 C 0.47342 0.24209 0.20814 0.0
C656 C 0.44181 0.23369 0.16615 0.0
C657 C 0.43748 0.24039 0.2282 0.0
C658 C 0.4218 0.22357 0.24918 0.0
C659 C 0.41094 0.22827 0.27536 0.0
C660 C 0.41639 0.2508 0.28038 0.0
C661 C 0.43256 0.26831 0.25932 0.0
C662 C 0.44299 0.2629 0.23269 0.0
H663 H 0.19295 0.48331 0.28489 0.0
H664 H 0.1465 0.41353 0.25663 0.0
H665 H 0.17878 0.40979 0.23605 0.0
H666 H 0.22974 0.49678 0.21328 0.0
H667 H 0.25501 0.5147 0.23733 0.0
H668 H 0.2283 0.51152 0.25052 0.0
H669 H 0.23337 0.49864 0.3105 0.0
H670 H 0.2601 0.50177 0.29749 0.0
H671 H 0.23828 0.4751 0.31424 0.0
H672 H 0.21639 0.41404 0.21814 0.0
H673 H 0.25603 0.42602 0.2034 0.0
H674 H 0.27727 0.49312 0.24321 0.0
C675 C 0.1895 0.46718 0.27451 0.0
C676 C 0.1672 0.44868 0.27244 0.0
C677 C 0.16346 0.42792 0.25848 0.0
C678 C 0.18167 0.42564 0.24678 0.0
C679 C 0.20346 0.44427 0.24919 0.0
C680 C 0.2074 0.46464 0.26267 0.0
C681 C 0.23228 0.48224 0.26189 0.0
C682 C 0.23658 0.5025 0.23941 0.0
C683 C 0.24155 0.48988 0.29819 0.0
C684 C 0.24179 0.46864 0.24576 0.0
C685 C 0.22495 0.44676 0.23871 0.0
C686 C 0.22971 0.43112 0.22359 0.0
C687 C 0.25228 0.43809 0.21534 0.0
C688 C 0.26977 0.46051 0.22215 0.0
C689 C 0.26434 0.47587 0.23767 0.0
H690 H 0.71843 0.1866 0.24751 0.0
H691 H 0.69522 0.22098 0.31575 0.0
H692 H 0.72852 0.25758 0.3007 0.0
H693 H 0.77729 0.22086 0.26589 0.0
H694 H 0.78638 0.22095 0.22268 0.0
H695 H 0.76035 0.19738 0.23794 0.0
H696 H 0.73849 0.20273 0.18813 0.0
H697 H 0.76448 0.22625 0.1726 0.0
H698 H 0.74063 0.22991 0.18186 0.0
H699 H 0.76469 0.29023 0.27975 0.0
H700 H 0.80094 0.31715 0.25268 0.0
H701 H 0.8007 0.26173 0.19769 0.0
C702 C 0.72026 0.20184 0.25911 0.0
C703 C 0.70419 0.20092 0.28281 0.0
C704 C 0.70727 0.22124 0.29751 0.0
C705 C 0.72614 0.24213 0.28915 0.0
C706 C 0.74176 0.24242 0.266 0.0
C707 C 0.739 0.22286 0.25103 0.0
C708 C 0.75843 0.2279 0.22714 0.0
C709 C 0.77137 0.21607 0.23915 0.0
C710 C 0.74999 0.22131 0.19025 0.0
C711 C 0.77259 0.25334 0.2312 0.0
C712 C 0.76265 0.26134 0.25376 0.0
C713 C 0.77261 0.2842 0.26193 0.0
C714 C 0.79324 0.29935 0.24646 0.0
C715 C 0.80368 0.29158 0.22302 0.0
C716 C 0.79316 0.26823 0.21544 0.0
H717 H 0.55216 0.8088 0.16578 0.0
H718 H 0.60216 0.85298 0.23976 0.0
H719 H 0.60477 0.82049 0.26206 0.0
H720 H 0.52284 0.76242 0.22038 0.0
H721 H 0.51706 0.74131 0.18822 0.0
H722 H 0.52075 0.76839 0.17614 0.0
H723 H 0.5526 0.77426 0.13414 0.0
H724 H 0.54904 0.74717 0.14618 0.0
H725 H 0.57644 0.7723 0.14963 0.0
H726 H 0.59984 0.78272 0.27894 0.0
H727 H 0.58708 0.74248 0.29004 0.0
H728 H 0.54044 0.72324 0.20474 0.0
C729 C 0.56389 0.81174 0.18638 0.0
C730 C 0.57699 0.83344 0.20098 0.0
C731 C 0.59197 0.8365 0.22814 0.0
C732 C 0.59363 0.81818 0.24089 0.0
C733 C 0.5803 0.79696 0.2261 0.0
C734 C 0.56574 0.79368 0.1994 0.0
C735 C 0.55229 0.76899 0.18932 0.0
C736 C 0.52673 0.75974 0.1938 0.0
C737 C 0.55794 0.76548 0.15264 0.0
C738 C 0.56115 0.7588 0.21505 0.0
C739 C 0.57746 0.77522 0.23581 0.0
C740 C 0.58726 0.76973 0.26261 0.0
C741 C 0.57989 0.74682 0.26872 0.0
C742 C 0.56281 0.7297 0.24819 0.0
C743 C 0.55369 0.7359 0.22066 0.0
H744 H 0.71346 0.53353 0.2864 0.0
H745 H 0.72813 0.57828 0.19957 0.0
H746 H 0.76879 0.59079 0.20511 0.0
H747 H 0.76425 0.57029 0.33523 0.0
H748 H 0.76725 0.54702 0.35057 0.0
H749 H 0.73957 0.54277 0.34095 0.0
H750 H 0.73249 0.51019 0.29962 0.0
H751 H 0.76016 0.51441 0.30898 0.0
H752 H 0.75225 0.51552 0.26545 0.0
H753 H 0.80775 0.59704 0.21865 0.0
H754 H 0.84176 0.59657 0.2393 0.0
H755 H 0.80105 0.54743 0.31675 0.0
C756 C 0.72522 0.54617 0.26879 0.0
C757 C 0.71761 0.55498 0.24262 0.0
C758 C 0.73357 0.57133 0.21988 0.0
C759 C 0.7567 0.57856 0.22283 0.0
C760 C 0.76357 0.56929 0.24865 0.0
C761 C 0.74829 0.5535 0.27128 0.0
C762 C 0.75985 0.54549 0.29595 0.0
C763 C 0.7576 0.55178 0.33286 0.0
C764 C 0.75064 0.51989 0.29226 0.0
C765 C 0.78399 0.55903 0.28344 0.0
C766 C 0.78586 0.57276 0.25627 0.0
C767 C 0.8065 0.58645 0.24005 0.0
C768 C 0.82571 0.58605 0.25193 0.0
C769 C 0.82408 0.57198 0.27965 0.0
C770 C 0.80291 0.55842 0.29556 0.0
H771 H 0.18302 0.73687 0.22473 0.0
H772 H 0.21276 0.69467 0.20451 0.0
H773 H 0.25032 0.72636 0.21992 0.0
H774 H 0.22943 0.78873 0.19132 0.0
H775 H 0.22707 0.80637 0.22342 0.0
H776 H 0.20239 0.78038 0.21064 0.0
H777 H 0.1953 0.76689 0.27356 0.0
H778 H 0.21996 0.79282 0.28652 0.0
H779 H 0.21747 0.76597 0.29723 0.0
H780 H 0.28441 0.76207 0.23833 0.0
H781 H 0.31327 0.80007 0.25757 0.0
H782 H 0.26176 0.81953 0.26535 0.0
C783 C 0.19743 0.7343 0.22349 0.0
C784 C 0.19493 0.71326 0.21344 0.0
C785 C 0.21423 0.71061 0.21211 0.0
C786 C 0.23565 0.72851 0.22084 0.0
C787 C 0.23752 0.74897 0.23074 0.0
C788 C 0.21899 0.75203 0.23203 0.0
C789 C 0.22574 0.77578 0.24356 0.0
C790 C 0.22087 0.78857 0.21556 0.0
C791 C 0.21391 0.77533 0.27722 0.0
C792 C 0.25094 0.78554 0.24865 0.0
C793 C 0.25733 0.76975 0.24114 0.0
C794 C 0.27964 0.77462 0.24421 0.0
C795 C 0.2959 0.79627 0.25521 0.0
C796 C 0.28981 0.81282 0.26294 0.0
C797 C 0.26698 0.8073 0.25955 0.0
H798 H 0.55469 0.74171 0.7014 0.0
H799 H 0.51456 0.6892 0.77513 0.0
H800 H 0.51088 0.71719 0.81026 0.0
H801 H 0.58469 0.78703 0.76259 0.0
H802 H 0.58419 0.80818 0.73566 0.0
H803 H 0.58436 0.78418 0.71682 0.0
H804 H 0.54784 0.77433 0.68327 0.0
H805 H 0.54754 0.79826 0.70204 0.0
H806 H 0.52318 0.77036 0.70614 0.0
H807 H 0.51061 0.75043 0.83655 0.0
H808 H 0.51377 0.78688 0.85236 0.0
H809 H 0.554 0.81779 0.7615 0.0
C810 C 0.54526 0.73611 0.72504 0.0
C811 C 0.53494 0.71326 0.73553 0.0
C812 C 0.52263 0.70661 0.76656 0.0
C813 C 0.52046 0.72238 0.78673 0.0
C814 C 0.5307 0.74471 0.77553 0.0
C815 C 0.54289 0.75161 0.74547 0.0
C816 C 0.55178 0.77653 0.73889 0.0
C817 C 0.5778 0.78975 0.73848 0.0
C818 C 0.54199 0.78006 0.70561 0.0
C819 C 0.54255 0.78251 0.76984 0.0
C820 C 0.5305 0.76392 0.79069 0.0
C821 C 0.52007 0.76514 0.82051 0.0
C822 C 0.52195 0.78593 0.82924 0.0
C823 C 0.53414 0.8052 0.80819 0.0
C824 C 0.54462 0.80339 0.77818 0.0
H825 H 0.72206 0.51429 0.81629 0.0
H826 H 0.73183 0.57813 0.77725 0.0
H827 H 0.7702 0.58826 0.75794 0.0
H828 H 0.78062 0.53553 0.84478 0.0
H829 H 0.78041 0.51006 0.83191 0.0
H830 H 0.75455 0.50878 0.84543 0.0
H831 H 0.73552 0.48948 0.78832 0.0
H832 H 0.76129 0.49074 0.77462 0.0
H833 H 0.74853 0.50314 0.74861 0.0
H834 H 0.80619 0.59013 0.73898 0.0
H835 H 0.83721 0.58357 0.7216 0.0
H836 H 0.8039 0.51854 0.77321 0.0
C837 C 0.73238 0.53057 0.80417 0.0
C838 C 0.72397 0.54545 0.79835 0.0
C839 C 0.73793 0.56647 0.78203 0.0
C840 C 0.75977 0.57241 0.77105 0.0
C841 C 0.7674 0.55719 0.77673 0.0
C842 C 0.75417 0.53674 0.79302 0.0
C843 C 0.76586 0.52285 0.79426 0.0
C844 C 0.77065 0.51909 0.8313 0.0
C845 C 0.75198 0.50022 0.77532 0.0
C846 C 0.78752 0.53847 0.77544 0.0
C847 C 0.78817 0.55827 0.7658 0.0
C848 C 0.80599 0.5748 0.74671 0.0
C849 C 0.82351 0.57089 0.7369 0.0
C850 C 0.82302 0.55057 0.74614 0.0
C851 C 0.8049 0.53434 0.76605 0.0
H852 H 0.29375 0.7959 0.73205 0.0
H853 H 0.26803 0.84052 0.70454 0.0
H854 H 0.22984 0.81154 0.72364 0.0
H855 H 0.24494 0.74384 0.70606 0.0
H856 H 0.24696 0.72782 0.74109 0.0
H857 H 0.2721 0.75199 0.72475 0.0
H858 H 0.28145 0.76968 0.78529 0.0
H859 H 0.2563 0.7456 0.8018 0.0
H860 H 0.26072 0.77371 0.80791 0.0
H861 H 0.1944 0.7775 0.74577 0.0
H862 H 0.16457 0.74116 0.76951 0.0
H863 H 0.21404 0.71951 0.78328 0.0
C864 C 0.28009 0.79958 0.72986 0.0
C865 C 0.28385 0.82044 0.71673 0.0
C866 C 0.26553 0.82463 0.71453 0.0
C867 C 0.24379 0.80829 0.7253 0.0
C868 C 0.24071 0.78793 0.7383 0.0
C869 C 0.25837 0.78355 0.74064 0.0
C870 C 0.2507 0.76048 0.75592 0.0
C871 C 0.25386 0.74513 0.73043 0.0
C872 C 0.26302 0.7625 0.78974 0.0
C873 C 0.22594 0.75252 0.76177 0.0
C874 C 0.22046 0.76854 0.7514 0.0
C875 C 0.1985 0.76484 0.75403 0.0
C876 C 0.18168 0.74416 0.76754 0.0
C877 C 0.18699 0.72752 0.77832 0.0
C878 C 0.20945 0.7319 0.77543 0.0
H879 H 0.47715 0.27109 0.77388 0.0
H880 H 0.43079 0.25138 0.68807 0.0
H881 H 0.42376 0.21235 0.69238 0.0
H882 H 0.50118 0.23602 0.75189 0.0
H883 H 0.50336 0.2291 0.79559 0.0
H884 H 0.50505 0.25566 0.78554 0.0
H885 H 0.47204 0.24625 0.82732 0.0
H886 H 0.47024 0.21966 0.83748 0.0
H887 H 0.44559 0.22018 0.82219 0.0
H888 H 0.42151 0.17549 0.70601 0.0
H889 H 0.42392 0.14302 0.7286 0.0
H890 H 0.47148 0.18654 0.80579 0.0
C891 C 0.46555 0.25859 0.75595 0.0
C892 C 0.45452 0.26431 0.73065 0.0
C893 C 0.43945 0.24742 0.70769 0.0
C894 C 0.43534 0.22519 0.70989 0.0
C895 C 0.44644 0.22011 0.73515 0.0
C896 C 0.46124 0.23629 0.75777 0.0
C897 C 0.47082 0.2263 0.7827 0.0
C898 C 0.49663 0.23743 0.77867 0.0
C899 C 0.46427 0.22821 0.8196 0.0
C900 C 0.45893 0.20194 0.77071 0.0
C901 C 0.44505 0.19877 0.74315 0.0
C902 C 0.43235 0.17774 0.72757 0.0
C903 C 0.43385 0.15941 0.74058 0.0
C904 C 0.44787 0.16222 0.76897 0.0
C905 C 0.46057 0.18382 0.78412 0.0
H906 H 0.19702 0.48257 0.73648 0.0
H907 H 0.14445 0.41221 0.72635 0.0
H908 H 0.17185 0.40024 0.74281 0.0
H909 H 0.24173 0.47655 0.70205 0.0
H910 H 0.26283 0.49644 0.731 0.0
H911 H 0.23885 0.49937 0.71974 0.0
H912 H 0.22873 0.49834 0.78374 0.0
H913 H 0.25275 0.4955 0.79521 0.0
H914 H 0.22486 0.47491 0.80984 0.0
H915 H 0.20567 0.39612 0.75776 0.0
H916 H 0.24285 0.40023 0.77221 0.0
H917 H 0.27261 0.47328 0.77329 0.0
C918 C 0.19118 0.46463 0.73794 0.0
C919 C 0.16859 0.44833 0.73011 0.0
C920 C 0.16167 0.42502 0.73231 0.0
C921 C 0.17711 0.41805 0.7416 0.0
C922 C 0.19932 0.4346 0.74877 0.0
C923 C 0.20629 0.4574 0.74727 0.0
C924 C 0.23114 0.47183 0.75572 0.0
C925 C 0.24441 0.48693 0.72531 0.0
C926 C 0.23456 0.48598 0.78806 0.0
C927 C 0.23715 0.4536 0.76193 0.0
C928 C 0.21861 0.43222 0.75777 0.0
C929 C 0.22027 0.41277 0.76132 0.0
C930 C 0.24144 0.41527 0.76943 0.0
C931 C 0.26058 0.43706 0.77399 0.0
C932 C 0.25827 0.45639 0.77023 0.0
H933 H 0.8031 0.27517 0.74951 0.0
H934 H 0.83467 0.24091 0.79867 0.0
H935 H 0.80284 0.20402 0.77994 0.0
H936 H 0.74634 0.23504 0.77098 0.0
H937 H 0.73488 0.23772 0.73096 0.0
H938 H 0.76041 0.26126 0.74753 0.0
H939 H 0.78141 0.26325 0.69133 0.0
H940 H 0.75591 0.23973 0.67455 0.0
H941 H 0.7816 0.23837 0.67632 0.0
H942 H 0.76675 0.17078 0.75686 0.0
H943 H 0.72987 0.14412 0.73067 0.0
H944 H 0.72281 0.20085 0.69671 0.0
C945 C 0.80343 0.25995 0.75632 0.0
C946 C 0.82136 0.26091 0.7756 0.0
C947 C 0.82111 0.24057 0.78386 0.0
C948 C 0.80311 0.21956 0.77336 0.0
C949 C 0.78563 0.21925 0.75453 0.0
C950 C 0.78573 0.23895 0.746 0.0
C951 C 0.76492 0.23415 0.72584 0.0
C952 C 0.75081 0.24254 0.74499 0.0
C953 C 0.77135 0.24449 0.68988 0.0
C954 C 0.75292 0.20862 0.72457 0.0
C955 C 0.76509 0.20029 0.74119 0.0
C956 C 0.75712 0.17713 0.74368 0.0
C957 C 0.73616 0.16213 0.72876 0.0
C958 C 0.72348 0.17041 0.71162 0.0
C959 C 0.73209 0.19396 0.70954 0.0
H960 H 0.44646 0.11019 0.09165 0.0
H961 H 0.3769 0.09567 0.09799 0.0
H962 H 0.37517 0.09672 0.03527 0.0
H963 H 0.46294 0.14896 0.0213 0.0
H964 H 0.48062 0.13945 0.00171 0.0
H965 H 0.47645 0.1373 0.04724 0.0
H966 H 0.4623 0.09432 0.04435 0.0
H967 H 0.46647 0.09634 -0.00119 0.0
H968 H 0.43916 0.0766 0.01635 0.0
H969 H 0.38092 0.09978 0.97228 0.0
H970 H 0.39363 0.1041 0.91252 0.0
H971 H 0.45945 0.11645 0.94647 0.0
C972 C 0.43085 0.10718 0.07985 0.0
C973 C 0.41181 0.10285 0.09978 0.0
C974 C 0.39171 0.09901 0.08332 0.0
C975 C 0.39054 0.09957 0.04768 0.0
C976 C 0.4096 0.10397 0.02883 0.0
C977 C 0.42937 0.10765 0.04424 0.0
C978 C 0.44741 0.11206 0.01792 0.0
C979 C 0.46807 0.13586 0.02231 0.0
C980 C 0.45422 0.09373 0.01945 0.0
C981 C 0.43468 0.11032 0.98533 0.0
C982 C 0.41291 0.10566 0.99228 0.0
C983 C 0.39791 0.1034 0.96647 0.0
C984 C 0.40532 0.10591 0.93259 0.0
C985 C 0.42753 0.11061 0.92476 0.0
C986 C 0.44236 0.11284 0.9516 0.0
H987 H 0.28146 0.40951 0.9215 0.0
H988 H 0.34559 0.4672 0.89085 0.0
H989 H 0.35397 0.47928 0.95097 0.0
H990 H 0.26864 0.43768 0.98892 0.0
H991 H 0.2566 0.41331 0.01658 0.0
H992 H 0.25525 0.40959 0.97096 0.0
H993 H 0.27494 0.38563 0.97629 0.0
H994 H 0.27635 0.38926 0.0219 0.0
H995 H 0.3018 0.39735 0.99788 0.0
H996 H 0.35569 0.48479 0.0142 0.0
H997 H 0.35113 0.48287 0.07674 0.0
H998 H 0.2861 0.42126 0.06635 0.0
C999 C 0.2972 0.42476 0.92739 0.0
C1000 C 0.31285 0.43745 0.90148 0.0
C1001 C 0.33335 0.4572 0.91029 0.0
C1002 C 0.33825 0.46424 0.94434 0.0
C1003 C 0.3225 0.45131 0.96925 0.0
C1004 C 0.30242 0.43196 0.96126 0.0
C1005 C 0.2887 0.42076 0.99301 0.0
C1006 C 0.26595 0.42032 0.99232 0.0
C1007 C 0.28526 0.39684 0.99753 0.0
C1008 C 0.30427 0.43679 0.02011 0.0
C1009 C 0.32361 0.45435 0.00583 0.0
C1010 C 0.34061 0.47115 0.02571 0.0
C1011 C 0.33785 0.46989 0.06121 0.0
C1012 C 0.31826 0.4519 0.07646 0.0
C1013 C 0.30125 0.43524 0.0555 0.0
H1014 H 0.88177 0.3143 0.9259 0.0
H1015 H 0.84441 0.34798 0.89758 0.0
H1016 H 0.83915 0.35336 0.9584 0.0
H1017 H 0.84799 0.285 -0.0003 0.0
H1018 H 0.87184 0.28862 0.02445 0.0
H1019 H 0.87244 0.28706 0.9786 0.0
H1020 H 0.90979 0.32562 0.97708 0.0
H1021 H 0.90932 0.32729 0.02291 0.0
H1022 H 0.91088 0.34992 0.99718 0.0
H1023 H 0.83845 0.35572 0.0219 0.0
H1024 H 0.84253 0.35513 0.08431 0.0
H1025 H 0.8802 0.31977 0.07167 0.0
C1026 C 0.87243 0.32275 0.93246 0.0
C1027 C 0.86348 0.33069 0.90694 0.0
C1028 C 0.85141 0.34172 0.91665 0.0
C1029 C 0.84831 0.34485 0.95114 0.0
C1030 C 0.85735 0.33683 0.97561 0.0
C1031 C 0.86916 0.32602 0.96679 0.0
C1032 C 0.87739 0.31931 0.99818 0.0
C1033 C 0.86677 0.29346 0.00035 0.0
C1034 C 0.90339 0.33125 -0.00113 0.0
C1035 C 0.86842 0.32814 0.026 0.0
C1036 C 0.85689 0.33816 0.01239 0.0
C1037 C 0.84738 0.34787 0.03291 0.0
C1038 C 0.8498 0.34745 0.06834 0.0
C1039 C 0.86164 0.33736 0.08292 0.0
C1040 C 0.87095 0.3275 0.06135 0.0
H1041 H 0.56792 0.8921 0.07312 0.0
H1042 H 0.63708 0.90548 0.07938 0.0
H1043 H 0.63814 0.90274 0.0166 0.0
H1044 H 0.55003 0.85125 0.00644 0.0
H1045 H 0.53232 0.86043 0.98609 0.0
H1046 H 0.53728 0.86414 0.03137 0.0
H1047 H 0.55198 0.9071 0.02501 0.0
H1048 H 0.54702 0.90352 0.97971 0.0
H1049 H 0.57472 0.92355 0.99564 0.0
H1050 H 0.6313 0.89774 0.95328 0.0
H1051 H 0.61723 0.89107 0.89401 0.0
H1052 H 0.55249 0.88088 0.92955 0.0
C1053 C 0.58335 0.89457 0.06135 0.0
C1054 C 0.60244 0.89903 0.08117 0.0
C1055 C 0.62226 0.90207 0.06472 0.0
C1056 C 0.62303 0.90055 0.02908 0.0
C1057 C 0.60385 0.896 0.01036 0.0
C1058 C 0.5844 0.8931 0.02591 0.0
C1059 C 0.56599 0.88803 7e-05 0.0
C1060 C 0.54518 0.86457 0.00638 0.0
C1061 C 0.55956 0.90666 0.00012 0.0
C1062 C 0.57807 0.88842 0.96749 0.0
C1063 C 0.5999 0.89309 0.97396 0.0
C1064 C 0.61426 0.89413 0.9479 0.0
C1065 C 0.60609 0.89029 0.91432 0.0
C1066 C 0.58376 0.88545 0.90713 0.0
C1067 C 0.56964 0.88455 0.93418 0.0
H1068 H 0.68318 0.58031 0.08006 0.0
H1069 H 0.62819 0.51204 0.09938 0.0
H1070 H 0.62318 0.50497 0.03744 0.0
H1071 H 0.65853 0.59053 0.00467 0.0
H1072 H 0.68536 0.60632 0.98317 0.0
H1073 H 0.68415 0.6063 0.0291 0.0
H1074 H 0.71302 0.59218 0.03194 0.0
H1075 H 0.71425 0.59208 0.98605 0.0
H1076 H 0.70705 0.56667 0.00963 0.0
H1077 H 0.62494 0.50476 0.97375 0.0
H1078 H 0.63286 0.51171 0.9122 0.0
H1079 H 0.68658 0.58017 0.93413 0.0
C1080 C 0.66998 0.56392 0.07129 0.0
C1081 C 0.65607 0.54674 0.0946 0.0
C1082 C 0.63904 0.5255 0.08204 0.0
C1083 C 0.63605 0.5213 0.0469 0.0
C1084 C 0.65018 0.53852 0.02464 0.0
C1085 C 0.66673 0.55944 0.03628 0.0
C1086 C 0.67986 0.57491 0.00692 0.0
C1087 C 0.67678 0.59574 0.00591 0.0
C1088 C 0.70504 0.58186 0.00876 0.0
C1089 C 0.66824 0.55931 0.97699 0.0
C1090 C 0.65114 0.53843 0.98781 0.0
C1091 C 0.63822 0.52108 0.96494 0.0
C1092 C 0.64289 0.52519 0.93002 0.0
C1093 C 0.66033 0.54649 0.91832 0.0
C1094 C 0.6731 0.56373 0.94223 0.0
H1095 H 0.14163 0.68007 0.91905 0.0
H1096 H 0.06878 0.63546 0.91522 0.0
H1097 H 0.06708 0.63653 0.97801 0.0
H1098 H 0.15115 0.65592 0.99414 0.0
H1099 H 0.17297 0.68267 0.01065 0.0
H1100 H 0.16844 0.6787 0.96531 0.0
H1101 H 0.1631 0.7137 0.9622 0.0
H1102 H 0.16754 0.71773 0.00756 0.0
H1103 H 0.14211 0.7148 0.98878 0.0
H1104 H 0.07318 0.64221 0.04091 0.0
H1105 H 0.08681 0.65128 0.1002 0.0
H1106 H 0.15576 0.69213 0.06335 0.0
C1107 C 0.12531 0.67054 0.93139 0.0
C1108 C 0.10533 0.6577 0.9122 0.0
C1109 C 0.08432 0.64542 0.92936 0.0
C1110 C 0.08316 0.64595 0.96502 0.0
C1111 C 0.10315 0.65882 0.98313 0.0
C1112 C 0.12384 0.67085 0.96697 0.0
C1113 C 0.14281 0.68308 0.99252 0.0
C1114 C 0.15984 0.67458 0.99053 0.0
C1115 C 0.15458 0.70885 0.98746 0.0
C1116 C 0.12955 0.67596 0.02558 0.0
C1117 C 0.1067 0.66204 0.01953 0.0
C1118 C 0.09104 0.65312 0.04599 0.0
C1119 C 0.09896 0.65839 0.07959 0.0
C1120 C 0.12236 0.67243 0.08646 0.0
C1121 C 0.13777 0.68142 0.05898 0.0
H1122 H 0.89876 0.5342 0.56092 0.0
H1123 H 0.86272 0.56957 0.58735 0.0
H1124 H 0.86018 0.57691 0.5264 0.0
H1125 H 0.93156 0.57107 0.49324 0.0
H1126 H 0.93004 0.54878 0.46665 0.0
H1127 H 0.92848 0.54564 0.51236 0.0
H1128 H 0.89032 0.50812 0.5067 0.0
H1129 H 0.89178 0.51114 0.46095 0.0
H1130 H 0.86734 0.50788 0.48364 0.0
H1131 H 0.86237 0.58136 0.46312 0.0
H1132 H 0.86888 0.58236 0.40113 0.0
H1133 H 0.90334 0.54395 0.4155 0.0
C1134 C 0.89023 0.54339 0.5539 0.0
C1135 C 0.88094 0.5513 0.57894 0.0
C1136 C 0.86998 0.56333 0.56866 0.0
C1137 C 0.86842 0.56758 0.5341 0.0
C1138 C 0.87787 0.55966 0.51012 0.0
C1139 C 0.88851 0.54778 0.51949 0.0
C1140 C 0.89754 0.54146 0.4886 0.0
C1141 C 0.92344 0.5524 0.49033 0.0
C1142 C 0.88605 0.51562 0.48475 0.0
C1143 C 0.89042 0.55179 0.46044 0.0
C1144 C 0.87907 0.56217 0.47346 0.0
C1145 C 0.87117 0.57323 0.45258 0.0
C1146 C 0.87499 0.57373 0.4174 0.0
C1147 C 0.88662 0.56323 0.40343 0.0
C1148 C 0.89433 0.55206 0.42535 0.0
H1149 H 0.30532 0.85538 0.56026 0.0
H1150 H 0.3764 0.886 0.58699 0.0
H1151 H 0.38591 0.88571 0.52626 0.0
H1152 H 0.30562 0.81872 0.49355 0.0
H1153 H 0.28613 0.82231 0.46688 0.0
H1154 H 0.28489 0.82438 0.51257 0.0
H1155 H 0.28937 0.86424 0.50628 0.0
H1156 H 0.29063 0.8623 0.46061 0.0
H1157 H 0.31319 0.88584 0.48301 0.0
H1158 H 0.3878 0.88337 0.46229 0.0
H1159 H 0.38182 0.87864 0.39996 0.0
H1160 H 0.30947 0.8491 0.41547 0.0
C1161 C 0.32288 0.86193 0.55343 0.0
C1162 C 0.34011 0.87072 0.57842 0.0
C1163 C 0.36289 0.87916 0.56832 0.0
C1164 C 0.36847 0.87906 0.53389 0.0
C1165 C 0.35108 0.87039 0.5099 0.0
C1166 C 0.32874 0.86191 0.51923 0.0
C1167 C 0.31329 0.85388 0.48843 0.0
C1168 C 0.29649 0.8283 0.49049 0.0
C1169 C 0.3009 0.86737 0.48435 0.0
C1170 C 0.33045 0.85935 0.46027 0.0
C1171 C 0.35215 0.86885 0.47315 0.0
C1172 C 0.37087 0.87583 0.45192 0.0
C1173 C 0.3673 0.8731 0.41656 0.0
C1174 C 0.34518 0.86343 0.40283 0.0
C1175 C 0.32657 0.85638 0.42513 0.0
H1176 H 0.46496 0.29948 0.57051 0.0
H1177 H 0.4411 0.34574 0.59755 0.0
H1178 H 0.438 0.35252 0.53647 0.0
H1179 H 0.49843 0.33089 0.49806 0.0
H1180 H 0.49137 0.30595 0.47329 0.0
H1181 H 0.49184 0.30482 0.51918 0.0
H1182 H 0.45051 0.27145 0.51915 0.0
H1183 H 0.44991 0.27247 0.47327 0.0
H1184 H 0.42884 0.27471 0.49802 0.0
H1185 H 0.43707 0.35396 0.47259 0.0
H1186 H 0.43853 0.35006 0.41018 0.0
H1187 H 0.46317 0.30301 0.42491 0.0
C1188 C 0.45911 0.31106 0.56363 0.0
C1189 C 0.45328 0.32208 0.58883 0.0
C1190 C 0.44569 0.33711 0.57871 0.0
C1191 C 0.44386 0.34108 0.54408 0.0
C1192 C 0.44972 0.32992 0.51993 0.0
C1193 C 0.45721 0.31524 0.52922 0.0
C1194 C 0.46233 0.30533 0.49821 0.0
C1195 C 0.48749 0.31216 0.49713 0.0
C1196 C 0.44698 0.27946 0.49711 0.0
C1197 C 0.4565 0.31669 0.47002 0.0
C1198 C 0.44926 0.33081 0.48309 0.0
C1199 C 0.44275 0.34298 0.46203 0.0
C1200 C 0.44362 0.34064 0.42662 0.0
C1201 C 0.45098 0.32624 0.41265 0.0
C1202 C 0.45753 0.31419 0.43476 0.0
H1203 H 0.06802 0.43974 0.57004 0.0
H1204 H 0.13908 0.46272 0.58798 0.0
H1205 H 0.1457 0.46495 0.52588 0.0
H1206 H 0.06155 0.4047 0.4983 0.0
H1207 H 0.04264 0.41139 0.47569 0.0
H1208 H 0.04358 0.41236 0.52161 0.0
H1209 H 0.05217 0.4539 0.52014 0.0
H1210 H 0.05126 0.45306 0.47419 0.0
H1211 H 0.07599 0.47462 0.49582 0.0
H1212 H 0.14459 0.46414 0.46215 0.0
H1213 H 0.13569 0.45962 0.40071 0.0
H1214 H 0.06525 0.43679 0.424 0.0
C1215 C 0.085 0.44536 0.56093 0.0
C1216 C 0.10304 0.45108 0.58389 0.0
C1217 C 0.12498 0.45822 0.5709 0.0
C1218 C 0.12893 0.45959 0.53567 0.0
C1219 C 0.11078 0.45376 0.51376 0.0
C1220 C 0.08924 0.44675 0.52582 0.0
C1221 C 0.07259 0.44091 0.49675 0.0
C1222 C 0.054 0.41585 0.49818 0.0
C1223 C 0.06241 0.45656 0.49674 0.0
C1224 C 0.08813 0.44561 0.46649 0.0
C1225 C 0.1101 0.45311 0.47689 0.0
C1226 C 0.12746 0.45833 0.45366 0.0
C1227 C 0.12221 0.4557 0.4188 0.0
C1228 C 0.09976 0.44784 0.4075 0.0
C1229 C 0.08257 0.44286 0.43178 0.0
H1230 H 0.65265 0.12801 0.41723 0.0
H1231 H 0.72364 0.15458 0.39304 0.0
H1232 H 0.7318 0.15307 0.45392 0.0
H1233 H 0.66209 0.15853 0.49693 0.0
H1234 H 0.6381 0.13554 0.51793 0.0
H1235 H 0.63779 0.13889 0.47237 0.0
H1236 H 0.62976 0.09787 0.46374 0.0
H1237 H 0.6301 0.0944 0.50925 0.0
H1238 H 0.64863 0.08949 0.48229 0.0
H1239 H 0.73216 0.1474 0.51674 0.0
H1240 H 0.72496 0.13943 0.57825 0.0
H1241 H 0.65397 0.11758 0.56227 0.0
C1242 C 0.66992 0.13356 0.42475 0.0
C1243 C 0.6875 0.14137 0.40035 0.0
C1244 C 0.70989 0.14857 0.41125 0.0
C1245 C 0.71471 0.14775 0.44578 0.0
C1246 C 0.69699 0.13986 0.46913 0.0
C1247 C 0.67508 0.13303 0.45919 0.0
C1248 C 0.65919 0.12531 0.48955 0.0
C1249 C 0.64868 0.14048 0.49448 0.0
C1250 C 0.64084 0.10028 0.48598 0.0
C1251 C 0.6756 0.12867 0.51803 0.0
C1252 C 0.69729 0.13701 0.50563 0.0
C1253 C 0.71528 0.14099 0.52683 0.0
C1254 C 0.71099 0.13635 0.56171 0.0
C1255 C 0.68893 0.12795 0.57507 0.0
C1256 C 0.67105 0.12414 0.55286 0.0
H1257 H 0.58035 0.68256 0.42834 0.0
H1258 H 0.51276 0.66971 0.40461 0.0
H1259 H 0.50441 0.66821 0.4661 0.0
H1260 H 0.56449 0.64495 0.49817 0.0
H1261 H 0.58937 0.66261 0.52317 0.0
H1262 H 0.59069 0.66439 0.47733 0.0
H1263 H 0.60542 0.70748 0.48074 0.0
H1264 H 0.60415 0.70584 0.52665 0.0
H1265 H 0.58934 0.71751 0.50399 0.0
H1266 H 0.50263 0.6661 0.52968 0.0
H1267 H 0.50733 0.66302 0.59143 0.0
H1268 H 0.57604 0.67707 0.57402 0.0
C1269 C 0.56389 0.67971 0.43606 0.0
C1270 C 0.54723 0.67634 0.41167 0.0
C1271 C 0.5258 0.67238 0.42283 0.0
C1272 C 0.52091 0.67155 0.45769 0.0
C1273 C 0.53762 0.67474 0.48105 0.0
C1274 C 0.55868 0.67876 0.47076 0.0
C1275 C 0.57325 0.68054 0.50108 0.0
C1276 C 0.57983 0.66202 0.49985 0.0
C1277 C 0.59428 0.70426 0.50323 0.0
C1278 C 0.55694 0.67655 0.52999 0.0
C1279 C 0.53656 0.67341 0.51786 0.0
C1280 C 0.51857 0.6687 0.53954 0.0
C1281 C 0.52141 0.66695 0.57458 0.0
C1282 C 0.54207 0.66984 0.58759 0.0
C1283 C 0.56011 0.67494 0.56492 0.0
H1284 H 0.50834 0.10246 0.19799 0.0
H1285 H 0.4868 0.13338 0.27524 0.0
H1286 H 0.52109 0.14329 0.30876 0.0
H1287 H 0.53142 0.07846 0.2554 0.0
H1288 H 0.55488 0.08392 0.2281 0.0
H1289 H 0.5288 0.07955 0.20975 0.0
H1290 H 0.55055 0.11812 0.17857 0.0
H1291 H 0.57671 0.12259 0.19676 0.0
H1292 H 0.56811 0.14339 0.20288 0.0
H1293 H 0.55719 0.14903 0.3347 0.0
H1294 H 0.59325 0.15116 0.35035 0.0
H1295 H 0.59154 0.117 0.25592 0.0
C1296 C 0.51085 0.11139 0.22188 0.0
C1297 C 0.49484 0.11712 0.23396 0.0
C1298 C 0.49881 0.12881 0.2654 0.0
C1299 C 0.51823 0.1345 0.28468 0.0
C1300 C 0.53359 0.12848 0.27215 0.0
C1301 C 0.53019 0.11728 0.24143 0.0
C1302 C 0.54932 0.11272 0.23383 0.0
C1303 C 0.54058 0.08714 0.23165 0.0
C1304 C 0.56192 0.12494 0.20107 0.0
C1305 C 0.56393 0.12304 0.26514 0.0
C1306 C 0.55453 0.132 0.28696 0.0
C1307 C 0.56477 0.14215 0.31776 0.0
C1308 C 0.58523 0.14324 0.32646 0.0
C1309 C 0.59526 0.1343 0.30436 0.0
C1310 C 0.58438 0.12408 0.27332 0.0
H1311 H 0.45912 0.59303 0.3108 0.0
H1312 H 0.48197 0.64459 0.2321 0.0
H1313 H 0.44822 0.61968 0.19757 0.0
H1314 H 0.44029 0.54693 0.25487 0.0
H1315 H 0.41629 0.52781 0.28042 0.0
H1316 H 0.44086 0.55056 0.3005 0.0
H1317 H 0.41589 0.56506 0.32792 0.0
H1318 H 0.3912 0.54229 0.30797 0.0
H1319 H 0.39815 0.57118 0.30111 0.0
H1320 H 0.41311 0.58839 0.17039 0.0
H1321 H 0.38017 0.55253 0.15143 0.0
H1322 H 0.38108 0.52105 0.24726 0.0
C1323 C 0.45682 0.59927 0.2866 0.0
C1324 C 0.47305 0.62081 0.27423 0.0
C1325 C 0.46968 0.62816 0.24209 0.0
C1326 C 0.45054 0.61417 0.22237 0.0
C1327 C 0.43502 0.59288 0.23511 0.0
C1328 C 0.43798 0.58544 0.26645 0.0
C1329 C 0.4197 0.56124 0.27322 0.0
C1330 C 0.4299 0.54573 0.27749 0.0
C1331 C 0.40539 0.55987 0.3044 0.0
C1332 C 0.40619 0.55611 0.24056 0.0
C1333 C 0.41512 0.57466 0.2191 0.0
C1334 C 0.40588 0.57379 0.18706 0.0
C1335 C 0.38716 0.55334 0.17653 0.0
C1336 C 0.37804 0.53397 0.19784 0.0
C1337 C 0.38761 0.53555 0.2304 0.0
H1338 H 0.85702 0.48726 0.2934 0.0
H1339 H 0.90119 0.5394 0.2219 0.0
H1340 H 0.90545 0.51097 0.18896 0.0
H1341 H 0.88765 0.45706 0.29365 0.0
H1342 H 0.86263 0.42954 0.2965 0.0
H1343 H 0.86257 0.45388 0.31418 0.0
H1344 H 0.82755 0.44519 0.27749 0.0
H1345 H 0.82749 0.42081 0.25971 0.0
H1346 H 0.82868 0.44241 0.23188 0.0
H1347 H 0.90475 0.47703 0.16345 0.0
H1348 H 0.9 0.43985 0.14797 0.0
H1349 H 0.85711 0.40987 0.23676 0.0
C1350 C 0.86751 0.49268 0.27074 0.0
C1351 C 0.87871 0.51555 0.26018 0.0
C1352 C 0.89245 0.52198 0.23053 0.0
C1353 C 0.89496 0.50596 0.21159 0.0
C1354 C 0.88374 0.48359 0.22272 0.0
C1355 C 0.87036 0.47693 0.25166 0.0
C1356 C 0.86051 0.45187 0.25837 0.0
C1357 C 0.86885 0.44786 0.29271 0.0
C1358 C 0.83451 0.43934 0.25675 0.0
C1359 C 0.87041 0.44551 0.22864 0.0
C1360 C 0.88368 0.46405 0.20833 0.0
C1361 C 0.89445 0.46238 0.17919 0.0
C1362 C 0.89161 0.44118 0.17059 0.0
C1363 C 0.87823 0.42196 0.19117 0.0
C1364 C 0.86753 0.42425 0.22058 0.0
H1365 H 0.51505 0.879 0.2365 0.0
H1366 H 0.50831 0.90053 0.135 0.0
H1367 H 0.47129 0.89589 0.151 0.0
H1368 H 0.45582 0.83665 0.2474 0.0
H1369 H 0.45548 0.84271 0.2921 0.0
H1370 H 0.48126 0.84715 0.27247 0.0
H1371 H 0.5019 0.88885 0.29294 0.0
H1372 H 0.47618 0.88456 0.31257 0.0
H1373 H 0.4906 0.90689 0.28175 0.0
H1374 H 0.43569 0.89 0.17813 0.0
H1375 H 0.40338 0.88287 0.21458 0.0
H1376 H 0.43291 0.86494 0.29863 0.0
C1377 C 0.50575 0.88263 0.21757 0.0
C1378 C 0.5146 0.89013 0.18447 0.0
C1379 C 0.50189 0.89474 0.1605 0.0
C1380 C 0.48083 0.89215 0.16932 0.0
C1381 C 0.47267 0.88487 0.20218 0.0
C1382 C 0.48466 0.8801 0.22593 0.0
C1383 C 0.47213 0.87282 0.25964 0.0
C1384 C 0.4658 0.84838 0.26841 0.0
C1385 C 0.48603 0.88927 0.28842 0.0
C1386 C 0.45135 0.87447 0.2512 0.0
C1387 C 0.452 0.8814 0.21788 0.0
C1388 C 0.43492 0.88448 0.20423 0.0
C1389 C 0.41664 0.8804 0.2252 0.0
C1390 C 0.41557 0.87332 0.2595 0.0
C1391 C 0.43318 0.87027 0.27253 0.0
H1392 H 0.60634 0.48052 0.26518 0.0
H1393 H 0.61658 0.4465 0.17919 0.0
H1394 H 0.58346 0.41046 0.19738 0.0
H1395 H 0.58513 0.43256 0.32639 0.0
H1396 H 0.56493 0.43935 0.34436 0.0
H1397 H 0.59133 0.46153 0.32745 0.0
H1398 H 0.56936 0.47417 0.28771 0.0
H1399 H 0.54293 0.45196 0.30419 0.0
H1400 H 0.54839 0.45391 0.25895 0.0
H1401 H 0.54661 0.37938 0.2208 0.0
H1402 H 0.50959 0.35547 0.24851 0.0
H1403 H 0.52359 0.41009 0.3189 0.0
C1404 C 0.60204 0.4654 0.25063 0.0
C1405 C 0.61413 0.46632 0.22081 0.0
C1406 C 0.60766 0.44619 0.20222 0.0
C1407 C 0.58887 0.42563 0.21237 0.0
C1408 C 0.57687 0.4255 0.24126 0.0
C1409 C 0.58334 0.44483 0.26031 0.0
C1410 C 0.56658 0.4407 0.28857 0.0
C1411 C 0.57766 0.44371 0.32378 0.0
C1412 C 0.55621 0.45609 0.28459 0.0
C1413 C 0.54929 0.41617 0.28186 0.0
C1414 C 0.55562 0.40763 0.25469 0.0
C1415 C 0.54165 0.38578 0.24244 0.0
C1416 C 0.52061 0.37236 0.25826 0.0
C1417 C 0.51373 0.38088 0.28597 0.0
C1418 C 0.52846 0.40298 0.29807 0.0
H1419 H 0.11454 0.60562 0.24818 0.0
H1420 H 0.13832 0.60202 0.1468 0.0
H1421 H 0.13634 0.566 0.16203 0.0
H1422 H 0.1444 0.58242 0.29374 0.0
H1423 H 0.12164 0.56677 0.32345 0.0
H1424 H 0.1254 0.59258 0.30489 0.0
H1425 H 0.08409 0.5712 0.28277 0.0
H1426 H 0.08021 0.54533 0.30122 0.0
H1427 H 0.07486 0.54645 0.25643 0.0
H1428 H 0.13145 0.53033 0.18779 0.0
H1429 H 0.12355 0.49697 0.22227 0.0
H1430 H 0.10253 0.52343 0.30681 0.0
C1431 C 0.11944 0.59733 0.22922 0.0
C1432 C 0.12663 0.60667 0.1963 0.0
C1433 C 0.13275 0.5952 0.17218 0.0
C1434 C 0.13171 0.57474 0.18058 0.0
C1435 C 0.12448 0.56596 0.21318 0.0
C1436 C 0.11842 0.57684 0.23713 0.0
C1437 C 0.11084 0.56353 0.27014 0.0
C1438 C 0.12651 0.57714 0.2998 0.0
C1439 C 0.08603 0.55619 0.27809 0.0
C1440 C 0.11351 0.54343 0.26093 0.0
C1441 C 0.12148 0.54523 0.22799 0.0
C1442 C 0.12523 0.52873 0.21364 0.0
C1443 C 0.12069 0.50984 0.23346 0.0
C1444 C 0.11241 0.50755 0.26727 0.0
C1445 C 0.10883 0.52465 0.28108 0.0
H1446 H 0.48405 0.86041 0.7661 0.0
H1447 H 0.47536 0.88014 0.86785 0.0
H1448 H 0.4407 0.87984 0.84869 0.0
H1449 H 0.46789 0.89461 0.72134 0.0
H1450 H 0.45353 0.87447 0.68762 0.0
H1451 H 0.47649 0.87439 0.71007 0.0
H1452 H 0.45047 0.83211 0.72549 0.0
H1453 H 0.42741 0.83202 0.70295 0.0
H1454 H 0.42401 0.82339 0.74704 0.0
H1455 H 0.40836 0.87967 0.81734 0.0
H1456 H 0.38081 0.87955 0.77646 0.0
H1457 H 0.411 0.86007 0.69529 0.0
C1458 C 0.47473 0.86437 0.78456 0.0
C1459 C 0.4824 0.87025 0.81854 0.0
C1460 C 0.46978 0.87553 0.84172 0.0
C1461 C 0.45006 0.87538 0.83108 0.0
C1462 C 0.44319 0.86983 0.79725 0.0
C1463 C 0.4551 0.86434 0.77438 0.0
C1464 C 0.44479 0.86003 0.73907 0.0
C1465 C 0.46168 0.87688 0.713 0.0
C1466 C 0.43616 0.83542 0.728 0.0
C1467 C 0.4254 0.86433 0.74544 0.0
C1468 C 0.42466 0.86981 0.7792 0.0
C1469 C 0.40867 0.87521 0.79091 0.0
C1470 C 0.39311 0.87514 0.76746 0.0
C1471 C 0.39371 0.86976 0.73265 0.0
C1472 C 0.41 0.86412 0.72172 0.0
H1473 H 0.57477 0.46705 0.80533 0.0
H1474 H 0.63272 0.47702 0.74573 0.0
H1475 H 0.60889 0.44027 0.71724 0.0
H1476 H 0.54988 0.40656 0.81714 0.0
H1477 H 0.52128 0.40117 0.81332 0.0
H1478 H 0.5431 0.4279 0.82979 0.0
H1479 H 0.53369 0.44904 0.78345 0.0
H1480 H 0.51182 0.4224 0.76689 0.0
H1481 H 0.53401 0.44213 0.73912 0.0
H1482 H 0.57837 0.40282 0.69413 0.0
H1483 H 0.54338 0.36797 0.67747 0.0
H1484 H 0.50566 0.38277 0.75241 0.0
C1485 C 0.58252 0.46149 0.78642 0.0
C1486 C 0.60563 0.47491 0.7778 0.0
C1487 C 0.61505 0.46702 0.75278 0.0
C1488 C 0.60167 0.44615 0.7365 0.0
C1489 C 0.57893 0.43337 0.74557 0.0
C1490 C 0.56943 0.44075 0.76994 0.0
C1491 C 0.54446 0.42411 0.77445 0.0
C1492 C 0.53939 0.41436 0.81084 0.0
C1493 C 0.53016 0.43508 0.76543 0.0
C1494 C 0.54132 0.40632 0.74856 0.0
C1495 C 0.5614 0.41189 0.73228 0.0
C1496 C 0.56256 0.39823 0.70682 0.0
C1497 C 0.54259 0.37847 0.69755 0.0
C1498 C 0.52177 0.3726 0.71365 0.0
C1499 C 0.52129 0.38669 0.73969 0.0
H1500 H 0.10914 0.58185 0.81242 0.0
H1501 H 0.15716 0.63737 0.74894 0.0
H1502 H 0.16491 0.61093 0.71673 0.0
H1503 H 0.14027 0.55085 0.81486 0.0
H1504 H 0.11481 0.52362 0.81295 0.0
H1505 H 0.1143 0.5472 0.83272 0.0
H1506 H 0.08177 0.54146 0.79233 0.0
H1507 H 0.08226 0.51795 0.77235 0.0
H1508 H 0.08561 0.5414 0.74681 0.0
H1509 H 0.16563 0.57823 0.68899 0.0
H1510 H 0.15967 0.5415 0.66821 0.0
H1511 H 0.11127 0.50727 0.74979 0.0
C1512 C 0.12153 0.58852 0.79208 0.0
C1513 C 0.13257 0.6117 0.78325 0.0
C1514 C 0.1485 0.61969 0.75621 0.0
C1515 C 0.15306 0.60481 0.73777 0.0
C1516 C 0.14161 0.58202 0.74676 0.0
C1517 C 0.12627 0.5739 0.77337 0.0
C1518 C 0.11557 0.54848 0.77687 0.0
C1519 C 0.1216 0.54217 0.8114 0.0
C1520 C 0.08978 0.53663 0.77177 0.0
C1521 C 0.12699 0.54354 0.74766 0.0
C1522 C 0.14205 0.56313 0.73075 0.0
C1523 C 0.15403 0.56278 0.7022 0.0
C1524 C 0.15049 0.54183 0.69055 0.0
C1525 C 0.13505 0.52151 0.7074 0.0
C1526 C 0.1233 0.5225 0.73647 0.0
H1527 H 0.57706 0.08615 0.72635 0.0
H1528 H 0.63409 0.15453 0.71813 0.0
H1529 H 0.61207 0.16912 0.74776 0.0
H1530 H 0.53367 0.1002 0.71196 0.0
H1531 H 0.51427 0.07975 0.74212 0.0
H1532 H 0.53466 0.07475 0.72056 0.0
H1533 H 0.5497 0.07011 0.77896 0.0
H1534 H 0.52942 0.07522 0.8007 0.0
H1535 H 0.55914 0.09244 0.81017 0.0
H1536 H 0.58357 0.17634 0.77753 0.0
H1537 H 0.55044 0.17565 0.80428 0.0
H1538 H 0.51238 0.10251 0.7937 0.0
C1539 C 0.58493 0.1042 0.7307 0.0
C1540 C 0.6073 0.11919 0.71985 0.0
C1541 C 0.61697 0.1427 0.72617 0.0
C1542 C 0.60462 0.15116 0.74305 0.0
C1543 C 0.58265 0.1359 0.75355 0.0
C1544 C 0.57288 0.11293 0.7476 0.0
C1545 C 0.54892 0.10017 0.76123 0.0
C1546 C 0.53188 0.08801 0.73224 0.0
C1547 C 0.54668 0.0835 0.78945 0.0
C1548 C 0.54669 0.11957 0.77555 0.0
C1549 C 0.56634 0.14004 0.77095 0.0
C1550 C 0.56812 0.1604 0.7814 0.0
C1551 C 0.54922 0.15983 0.79659 0.0
C1552 C 0.52883 0.13904 0.80122 0.0
C1553 C 0.52775 0.11868 0.79081 0.0
H1554 H 0.40167 0.50475 0.79439 0.0
H1555 H 0.35271 0.48211 0.71183 0.0
H1556 H 0.37877 0.51582 0.67823 0.0
H1557 H 0.42028 0.56375 0.78639 0.0
H1558 H 0.44938 0.5728 0.79624 0.0
H1559 H 0.42708 0.54662 0.81345 0.0
H1560 H 0.4457 0.52505 0.787 0.0
H1561 H 0.46807 0.55117 0.76973 0.0
H1562 H 0.45165 0.52747 0.74188 0.0
H1563 H 0.41003 0.55222 0.6539 0.0
H1564 H 0.44415 0.58874 0.64071 0.0
H1565 H 0.47241 0.58752 0.73945 0.0
C1566 C 0.39644 0.5068 0.76919 0.0
C1567 C 0.37516 0.49077 0.75571 0.0
C1568 C 0.36893 0.49417 0.72269 0.0
C1569 C 0.38362 0.51325 0.70339 0.0
C1570 C 0.40442 0.52876 0.71751 0.0
C1571 C 0.41083 0.52576 0.74965 0.0
C1572 C 0.43396 0.54511 0.75915 0.0
C1573 C 0.43258 0.55782 0.79067 0.0
C1574 C 0.45084 0.53669 0.76476 0.0
C1575 C 0.43959 0.55947 0.72731 0.0
C1576 C 0.42235 0.54975 0.70358 0.0
C1577 C 0.42365 0.55999 0.67227 0.0
C1578 C 0.4431 0.58074 0.66503 0.0
C1579 C 0.46095 0.59101 0.68904 0.0
C1580 C 0.45908 0.58013 0.72053 0.0
H1581 H 0.87955 0.41891 0.79641 0.0
H1582 H 0.83597 0.365 0.72692 0.0
H1583 H 0.82869 0.39185 0.69476 0.0
H1584 H 0.84692 0.44722 0.79847 0.0
H1585 H 0.8715 0.47513 0.79966 0.0
H1586 H 0.87279 0.45151 0.81761 0.0
H1587 H 0.90716 0.46054 0.77899 0.0
H1588 H 0.90598 0.48419 0.76093 0.0
H1589 H 0.90476 0.46242 0.73344 0.0
H1590 H 0.82636 0.42483 0.67001 0.0
H1591 H 0.83008 0.46157 0.65378 0.0
H1592 H 0.87569 0.49364 0.73912 0.0
C1593 C 0.86839 0.41269 0.77453 0.0
C1594 C 0.85828 0.38984 0.76424 0.0
C1595 C 0.84391 0.38244 0.73529 0.0
C1596 C 0.83963 0.39755 0.71689 0.0
C1597 C 0.84991 0.41998 0.72771 0.0
C1598 C 0.86404 0.42753 0.7558 0.0
C1599 C 0.87341 0.45257 0.76171 0.0
C1600 C 0.86568 0.45685 0.79642 0.0
C1601 C 0.89936 0.4657 0.75857 0.0
C1602 C 0.8624 0.45795 0.7325 0.0
C1603 C 0.84881 0.43894 0.71326 0.0
C1604 C 0.83695 0.43983 0.6849 0.0
C1605 C 0.83915 0.46076 0.67591 0.0
C1606 C 0.85319 0.48047 0.69513 0.0
C1607 C 0.86485 0.47891 0.72384 0.0
loop_
_geom_bond_atom_site_label_1
_geom_bond_atom_site_label_2
_geom_bond_distance
_geom_bond_site_symmetry_2
_ccdc_geom_bond_type
C0 O1 1.160 . S
C0 O7 1.185 . S
O1 C0 1.160 . S
O2 Zn3 1.899 . S
O2 C10 1.284 . S
Zn3 O2 1.899 . S
Zn3 O4 2.032 . S
Zn3 O7 2.086 . S
Zn3 O12 1.977 . S
O4 Zn3 2.032 . S
O4 C8 1.278 . S
C5 O6 1.203 . S
C5 O12 1.267 . S
O6 C5 1.203 . S
O7 C0 1.185 . S
O7 Zn3 2.086 . S
C8 O4 1.278 . S
C8 O9 1.211 . S
O9 C8 1.211 . S
C10 O2 1.284 . S
C10 O11 1.273 . S
O11 C10 1.273 . S
O12 Zn3 1.977 . S
O12 C5 1.267 . S
C13 O14 1.160 . S
C13 O20 1.185 . S
O14 C13 1.160 . S
O15 Zn16 1.899 . S
O15 C23 1.284 . S
Zn16 O15 1.899 . S
Zn16 O17 2.032 . S
Zn16 O20 2.086 . S
Zn16 O25 1.977 . S
O17 Zn16 2.032 . S
O17 C21 1.278 . S
C18 O19 1.203 . S
C18 O25 1.267 . S
O19 C18 1.203 . S
O20 C13 1.185 . S
O20 Zn16 2.086 . S
C21 O17 1.278 . S
C21 O22 1.211 . S
O22 C21 1.211 . S
C23 O15 1.284 . S
C23 O24 1.273 . S
O24 C23 1.273 . S
O25 Zn16 1.977 . S
O25 C18 1.267 . S
C26 O27 1.160 . S
C26 O33 1.185 . S
O27 C26 1.160 . S
O28 Zn29 1.899 . S
O28 C36 1.284 . S
Zn29 O28 1.899 . S
Zn29 O30 2.032 . S
Zn29 O33 2.086 . S
Zn29 O38 1.977 . S
O30 Zn29 2.032 . S
O30 C34 1.278 . S
C31 O32 1.203 . S
C31 O38 1.267 . S
O32 C31 1.203 . S
O33 C26 1.185 . S
O33 Zn29 2.086 . S
C34 O30 1.278 . S
C34 O35 1.211 . S
O35 C34 1.211 . S
C36 O28 1.284 . S
C36 O37 1.273 . S
O37 C36 1.273 . S
O38 Zn29 1.977 . S
O38 C31 1.267 . S
C39 O40 1.160 . S
C39 O46 1.185 . S
O40 C39 1.160 . S
O41 Zn42 1.899 . S
O41 C49 1.284 . S
Zn42 O41 1.899 . S
Zn42 O43 2.032 . S
Zn42 O46 2.086 . S
Zn42 O51 1.977 . S
O43 Zn42 2.032 . S
O43 C47 1.278 . S
C44 O45 1.203 . S
C44 O51 1.267 . S
O45 C44 1.203 . S
O46 C39 1.185 . S
O46 Zn42 2.086 . S
C47 O43 1.278 . S
C47 O48 1.211 . S
O48 C47 1.211 . S
C49 O41 1.284 . S
C49 O50 1.273 . S
O50 C49 1.273 . S
O51 Zn42 1.977 . S
O51 C44 1.267 . S
C52 O53 1.160 . S
C52 O59 1.185 . S
O53 C52 1.160 . S
O54 Zn55 1.899 . S
O54 C62 1.284 . S
Zn55 O54 1.899 . S
Zn55 O56 2.032 . S
Zn55 O59 2.086 . S
Zn55 O64 1.977 . S
O56 Zn55 2.032 . S
O56 C60 1.278 . S
C57 O58 1.203 . S
C57 O64 1.267 . S
O58 C57 1.203 . S
O59 C52 1.185 . S
O59 Zn55 2.086 . S
C60 O56 1.278 . S
C60 O61 1.211 . S
O61 C60 1.211 . S
C62 O54 1.284 . S
C62 O63 1.273 . S
O63 C62 1.273 . S
O64 Zn55 1.977 . S
O64 C57 1.267 . S
C65 O66 1.160 . S
C65 O72 1.185 . S
O66 C65 1.160 . S
O67 Zn68 1.899 . S
O67 C75 1.284 . S
Zn68 O67 1.899 . S
Zn68 O69 2.032 . S
Zn68 O72 2.086 . S
Zn68 O77 1.977 . S
O69 Zn68 2.032 . S
O69 C73 1.278 . S
C70 O71 1.203 . S
C70 O77 1.267 . S
O71 C70 1.203 . S
O72 C65 1.185 . S
O72 Zn68 2.086 . S
C73 O69 1.278 . S
C73 O74 1.211 . S
O74 C73 1.211 . S
C75 O67 1.284 . S
C75 O76 1.273 . S
O76 C75 1.273 . S
O77 Zn68 1.977 . S
O77 C70 1.267 . S
C78 O79 1.160 . S
C78 O85 1.185 . S
O79 C78 1.160 . S
O80 Zn81 1.899 . S
O80 C88 1.284 . S
Zn81 O80 1.899 . S
Zn81 O82 2.032 . S
Zn81 O85 2.086 . S
Zn81 O90 1.977 . S
O82 Zn81 2.032 . S
O82 C86 1.278 . S
C83 O84 1.203 . S
C83 O90 1.267 . S
O84 C83 1.203 . S
O85 C78 1.185 . S
O85 Zn81 2.086 . S
C86 O82 1.278 . S
C86 O87 1.211 . S
O87 C86 1.211 . S
C88 O80 1.284 . S
C88 O89 1.273 . S
O89 C88 1.273 . S
O90 Zn81 1.977 . S
O90 C83 1.267 . S
C91 O92 1.160 . S
C91 O98 1.185 . S
O92 C91 1.160 . S
O93 Zn94 1.899 . S
O93 C101 1.284 . S
Zn94 O93 1.899 . S
Zn94 O95 2.032 . S
Zn94 O98 2.086 . S
Zn94 O103 1.977 . S
O95 Zn94 2.032 . S
O95 C99 1.278 . S
C96 O97 1.203 . S
C96 O103 1.267 . S
O97 C96 1.203 . S
O98 C91 1.185 . S
O98 Zn94 2.086 . S
C99 O95 1.278 . S
C99 O100 1.211 . S
O100 C99 1.211 . S
C101 O93 1.284 . S
C101 O102 1.273 . S
O102 C101 1.273 . S
O103 Zn94 1.977 . S
O103 C96 1.267 . S
C104 O105 1.160 . S
C104 O111 1.185 . S
O105 C104 1.160 . S
O106 Zn107 1.899 . S
O106 C114 1.284 . S
Zn107 O106 1.899 . S
Zn107 O108 2.032 . S
Zn107 O111 2.086 . S
Zn107 O116 1.977 . S
O108 Zn107 2.032 . S
O108 C112 1.278 . S
C109 O110 1.203 . S
C109 O116 1.267 . S
O110 C109 1.203 . S
O111 C104 1.185 . S
O111 Zn107 2.086 . S
C112 O108 1.278 . S
C112 O113 1.211 . S
O113 C112 1.211 . S
C114 O106 1.284 . S
C114 O115 1.273 . S
O115 C114 1.273 . S
O116 Zn107 1.977 . S
O116 C109 1.267 . S
C117 O118 1.160 . S
C117 O124 1.185 . S
O118 C117 1.160 . S
O119 Zn120 1.899 . S
O119 C127 1.284 . S
Zn120 O119 1.899 . S
Zn120 O121 2.032 . S
Zn120 O124 2.086 . S
Zn120 O129 1.977 . S
O121 Zn120 2.032 . S
O121 C125 1.278 . S
C122 O123 1.203 . S
C122 O129 1.267 . S
O123 C122 1.203 . S
O124 C117 1.185 . S
O124 Zn120 2.086 . S
C125 O121 1.278 . S
C125 O126 1.211 . S
O126 C125 1.211 . S
C127 O119 1.284 . S
C127 O128 1.273 . S
O128 C127 1.273 . S
O129 Zn120 1.977 . S
O129 C122 1.267 . S
C130 O131 1.160 . S
C130 O137 1.185 . S
O131 C130 1.160 . S
O132 Zn133 1.899 . S
O132 C140 1.284 . S
Zn133 O132 1.899 . S
Zn133 O134 2.032 . S
Zn133 O137 2.086 . S
Zn133 O142 1.977 . S
O134 Zn133 2.032 . S
O134 C138 1.278 . S
C135 O136 1.203 . S
C135 O142 1.267 . S
O136 C135 1.203 . S
O137 C130 1.185 . S
O137 Zn133 2.086 . S
C138 O134 1.278 . S
C138 O139 1.211 . S
O139 C138 1.211 . S
C140 O132 1.284 . S
C140 O141 1.273 . S
O141 C140 1.273 . S
O142 Zn133 1.977 . S
O142 C135 1.267 . S
C143 O144 1.160 . S
C143 O150 1.185 . S
O144 C143 1.160 . S
O145 Zn146 1.899 . S
O145 C153 1.284 . S
Zn146 O145 1.899 . S
Zn146 O147 2.032 . S
Zn146 O150 2.086 . S
Zn146 O155 1.977 . S
O147 Zn146 2.032 . S
O147 C151 1.278 . S
C148 O149 1.203 . S
C148 O155 1.267 . S
O149 C148 1.203 . S
O150 C143 1.185 . S
O150 Zn146 2.086 . S
C151 O147 1.278 . S
C151 O152 1.211 . S
O152 C151 1.211 . S
C153 O145 1.284 . S
C153 O154 1.273 . S
O154 C153 1.273 . S
O155 Zn146 1.977 . S
O155 C148 1.267 . S
C156 O157 1.160 . S
C156 O163 1.185 . S
O157 C156 1.160 . S
O158 Zn159 1.899 . S
O158 C166 1.284 . S
Zn159 O158 1.899 . S
Zn159 O160 2.032 . S
Zn159 O163 2.086 . S
Zn159 O168 1.977 . S
O160 Zn159 2.032 . S
O160 C164 1.278 . S
C161 O162 1.203 . S
C161 O168 1.267 . S
O162 C161 1.203 . S
O163 C156 1.185 . S
O163 Zn159 2.086 . S
C164 O160 1.278 . S
C164 O165 1.211 . S
O165 C164 1.211 . S
C166 O158 1.284 . S
C166 O167 1.273 . S
O167 C166 1.273 . S
O168 Zn159 1.977 . S
O168 C161 1.267 . S
C169 O170 1.160 . S
C169 O176 1.185 . S
O170 C169 1.160 . S
O171 Zn172 1.899 . S
O171 C179 1.284 . S
Zn172 O171 1.899 . S
Zn172 O173 2.032 . S
Zn172 O176 2.086 . S
Zn172 O181 1.977 . S
O173 Zn172 2.032 . S
O173 C177 1.278 . S
C174 O175 1.203 . S
C174 O181 1.267 . S
O175 C174 1.203 . S
O176 C169 1.185 . S
O176 Zn172 2.086 . S
C177 O173 1.278 . S
C177 O178 1.211 . S
O178 C177 1.211 . S
C179 O171 1.284 . S
C179 O180 1.273 . S
O180 C179 1.273 . S
O181 Zn172 1.977 . S
O181 C174 1.267 . S
C182 O183 1.160 . S
C182 O189 1.185 . S
O183 C182 1.160 . S
O184 Zn185 1.899 . S
O184 C192 1.284 . S
Zn185 O184 1.899 . S
Zn185 O186 2.032 . S
Zn185 O189 2.086 . S
Zn185 O194 1.977 . S
O186 Zn185 2.032 . S
O186 C190 1.278 . S
C187 O188 1.203 . S
C187 O194 1.267 . S
O188 C187 1.203 . S
O189 C182 1.185 . S
O189 Zn185 2.086 . S
C190 O186 1.278 . S
C190 O191 1.211 . S
O191 C190 1.211 . S
C192 O184 1.284 . S
C192 O193 1.273 . S
O193 C192 1.273 . S
O194 Zn185 1.977 . S
O194 C187 1.267 . S
C195 O196 1.160 . S
C195 O202 1.185 . S
O196 C195 1.160 . S
O197 Zn198 1.899 . S
O197 C205 1.284 . S
Zn198 O197 1.899 . S
Zn198 O199 2.032 . S
Zn198 O202 2.086 . S
Zn198 O207 1.977 . S
O199 Zn198 2.032 . S
O199 C203 1.278 . S
C200 O201 1.203 . S
C200 O207 1.267 . S
O201 C200 1.203 . S
O202 C195 1.185 . S
O202 Zn198 2.086 . S
C203 O199 1.278 . S
C203 O204 1.211 . S
O204 C203 1.211 . S
C205 O197 1.284 . S
C205 O206 1.273 . S
O206 C205 1.273 . S
O207 Zn198 1.977 . S
O207 C200 1.267 . S
C208 O209 1.160 . S
C208 O215 1.185 . S
O209 C208 1.160 . S
O210 Zn211 1.899 . S
O210 C218 1.284 . S
Zn211 O210 1.899 . S
Zn211 O212 2.032 . S
Zn211 O215 2.086 . S
Zn211 O220 1.977 . S
O212 Zn211 2.032 . S
O212 C216 1.278 . S
C213 O214 1.203 . S
C213 O220 1.267 . S
O214 C213 1.203 . S
O215 C208 1.185 . S
O215 Zn211 2.086 . S
C216 O212 1.278 . S
C216 O217 1.211 . S
O217 C216 1.211 . S
C218 O210 1.284 . S
C218 O219 1.273 . S
O219 C218 1.273 . S
O220 Zn211 1.977 . S
O220 C213 1.267 . S
C221 O222 1.160 . S
C221 O228 1.185 . S
O222 C221 1.160 . S
O223 Zn224 1.899 . S
O223 C231 1.284 . S
Zn224 O223 1.899 . S
Zn224 O225 2.032 . S
Zn224 O228 2.086 . S
Zn224 O233 1.977 . S
O225 Zn224 2.032 . S
O225 C229 1.278 . S
C226 O227 1.203 . S
C226 O233 1.267 . S
O227 C226 1.203 . S
O228 C221 1.185 . S
O228 Zn224 2.086 . S
C229 O225 1.278 . S
C229 O230 1.211 . S
O230 C229 1.211 . S
C231 O223 1.284 . S
C231 O232 1.273 . S
O232 C231 1.273 . S
O233 Zn224 1.977 . S
O233 C226 1.267 . S
C234 O235 1.160 . S
C234 O241 1.185 . S
O235 C234 1.160 . S
O236 Zn237 1.899 . S
O236 C244 1.284 . S
Zn237 O236 1.899 . S
Zn237 O238 2.032 . S
Zn237 O241 2.086 . S
Zn237 O246 1.977 . S
O238 Zn237 2.032 . S
O238 C242 1.278 . S
C239 O240 1.203 . S
C239 O246 1.267 . S
O240 C239 1.203 . S
O241 C234 1.185 . S
O241 Zn237 2.086 . S
C242 O238 1.278 . S
C242 O243 1.211 . S
O243 C242 1.211 . S
C244 O236 1.284 . S
C244 O245 1.273 . S
O245 C244 1.273 . S
O246 Zn237 1.977 . S
O246 C239 1.267 . S
C247 O248 1.160 . S
C247 O254 1.185 . S
O248 C247 1.160 . S
O249 Zn250 1.899 . S
O249 C257 1.284 . S
Zn250 O249 1.899 . S
Zn250 O251 2.032 . S
Zn250 O254 2.086 . S
Zn250 O259 1.977 . S
O251 Zn250 2.032 . S
O251 C255 1.278 . S
C252 O253 1.203 . S
C252 O259 1.267 . S
O253 C252 1.203 . S
O254 C247 1.185 . S
O254 Zn250 2.086 . S
C255 O251 1.278 . S
C255 O256 1.211 . S
O256 C255 1.211 . S
C257 O249 1.284 . S
C257 O258 1.273 . S
O258 C257 1.273 . S
O259 Zn250 1.977 . S
O259 C252 1.267 . S
C260 O261 1.160 . S
C260 O267 1.185 . S
O261 C260 1.160 . S
O262 Zn263 1.899 . S
O262 C270 1.284 . S
Zn263 O262 1.899 . S
Zn263 O264 2.032 . S
Zn263 O267 2.086 . S
Zn263 O272 1.977 . S
O264 Zn263 2.032 . S
O264 C268 1.278 . S
C265 O266 1.203 . S
C265 O272 1.267 . S
O266 C265 1.203 . S
O267 C260 1.185 . S
O267 Zn263 2.086 . S
C268 O264 1.278 . S
C268 O269 1.211 . S
O269 C268 1.211 . S
C270 O262 1.284 . S
C270 O271 1.273 . S
O271 C270 1.273 . S
O272 Zn263 1.977 . S
O272 C265 1.267 . S
C273 O274 1.160 . S
C273 O280 1.185 . S
O274 C273 1.160 . S
O275 Zn276 1.899 . S
O275 C283 1.284 . S
Zn276 O275 1.899 . S
Zn276 O277 2.032 . S
Zn276 O280 2.086 . S
Zn276 O285 1.977 . S
O277 Zn276 2.032 . S
O277 C281 1.278 . S
C278 O279 1.203 . S
C278 O285 1.267 . S
O279 C278 1.203 . S
O280 C273 1.185 . S
O280 Zn276 2.086 . S
C281 O277 1.278 . S
C281 O282 1.211 . S
O282 C281 1.211 . S
C283 O275 1.284 . S
C283 O284 1.273 . S
O284 C283 1.273 . S
O285 Zn276 1.977 . S
O285 C278 1.267 . S
C286 O287 1.160 . S
C286 O293 1.185 . S
O287 C286 1.160 . S
O288 Zn289 1.899 . S
O288 C296 1.284 . S
Zn289 O288 1.899 . S
Zn289 O290 2.032 . S
Zn289 O293 2.086 . S
Zn289 O298 1.977 . S
O290 Zn289 2.032 . S
O290 C294 1.278 . S
C291 O292 1.203 . S
C291 O298 1.267 . S
O292 C291 1.203 . S
O293 C286 1.185 . S
O293 Zn289 2.086 . S
C294 O290 1.278 . S
C294 O295 1.211 . S
O295 C294 1.211 . S
C296 O288 1.284 . S
C296 O297 1.273 . S
O297 C296 1.273 . S
O298 Zn289 1.977 . S
O298 C291 1.267 . S
C299 O300 1.160 . S
C299 O306 1.185 . S
O300 C299 1.160 . S
O301 Zn302 1.899 . S
O301 C309 1.284 . S
Zn302 O301 1.899 . S
Zn302 O303 2.032 . S
Zn302 O306 2.086 . S
Zn302 O311 1.977 . S
O303 Zn302 2.032 . S
O303 C307 1.278 . S
C304 O305 1.203 . S
C304 O311 1.267 . S
O305 C304 1.203 . S
O306 C299 1.185 . S
O306 Zn302 2.086 . S
C307 O303 1.278 . S
C307 O308 1.211 . S
O308 C307 1.211 . S
C309 O301 1.284 . S
C309 O310 1.273 . S
O310 C309 1.273 . S
O311 Zn302 1.977 . S
O311 C304 1.267 . S
H312 C324 0.930 . S
H313 C326 0.930 . S
H314 C327 0.930 . S
H315 C331 0.959 . S
H316 C331 0.959 . S
H317 C331 0.961 . S
H318 C332 0.958 . S
H319 C332 0.961 . S
H320 C332 0.959 . S
H321 C335 0.929 . S
H322 C336 0.931 . S
H323 C338 0.930 . S
C324 H312 0.930 . S
C324 C325 1.399 . S
C324 C329 1.399 . S
C325 C324 1.399 . S
C325 C326 1.376 . S
C326 H313 0.930 . S
C326 C325 1.376 . S
C326 C327 1.388 . S
C327 H314 0.930 . S
C327 C326 1.388 . S
C327 C328 1.390 . S
C328 C327 1.390 . S
C328 C329 1.394 . S
C328 C334 1.465 1_545 S
C329 C324 1.399 . S
C329 C328 1.394 . S
C329 C330 1.516 1_545 S
C330 C329 1.516 1_565 S
C330 C331 1.502 . S
C330 C332 1.561 . S
C330 C333 1.526 . S
C331 H315 0.959 . S
C331 H316 0.959 . S
C331 H317 0.961 . S
C331 C330 1.502 . S
C332 H318 0.958 . S
C332 H319 0.961 . S
C332 H320 0.959 . S
C332 C330 1.561 . S
C333 C330 1.526 . S
C333 C334 1.396 . S
C333 C338 1.390 . S
C334 C328 1.465 1_565 S
C334 C333 1.396 . S
C334 C335 1.399 . S
C335 H321 0.929 . S
C335 C334 1.399 . S
C335 C336 1.385 . S
C336 H322 0.931 . S
C336 C335 1.385 . S
C336 C337 1.389 . S
C337 C336 1.389 . S
C337 C338 1.387 . S
C338 H323 0.930 . S
C338 C333 1.390 . S
C338 C337 1.387 . S
H339 C351 0.930 . S
H340 C353 0.930 . S
H341 C354 0.930 . S
H342 C358 0.959 . S
H343 C358 0.959 . S
H344 C358 0.961 . S
H345 C359 0.960 . S
H346 C359 0.961 . S
H347 C359 0.959 . S
H348 C362 0.929 . S
H349 C363 0.931 . S
H350 C365 0.930 . S
C351 H339 0.930 . S
C351 C352 1.399 . S
C351 C356 1.399 . S
C352 C351 1.399 . S
C352 C353 1.376 . S
C353 H340 0.930 . S
C353 C352 1.376 . S
C353 C354 1.388 . S
C354 H341 0.930 . S
C354 C353 1.388 . S
C354 C355 1.390 . S
C355 C354 1.390 . S
C355 C356 1.394 . S
C355 C361 1.465 . S
C356 C351 1.399 . S
C356 C355 1.394 . S
C356 C357 1.516 . S
C357 C356 1.516 . S
C357 C358 1.502 . S
C357 C359 1.561 . S
C357 C360 1.526 . S
C358 H342 0.959 . S
C358 H343 0.959 . S
C358 H344 0.961 . S
C358 C357 1.502 . S
C359 H345 0.960 . S
C359 H346 0.961 . S
C359 H347 0.959 . S
C359 C357 1.561 . S
C360 C357 1.526 . S
C360 C361 1.396 . S
C360 C365 1.390 . S
C361 C355 1.465 . S
C361 C360 1.396 . S
C361 C362 1.399 . S
C362 H348 0.929 . S
C362 C361 1.399 . S
C362 C363 1.385 . S
C363 H349 0.931 . S
C363 C362 1.385 . S
C363 C364 1.389 . S
C364 C363 1.389 . S
C364 C365 1.387 . S
C365 H350 0.930 . S
C365 C360 1.390 . S
C365 C364 1.387 . S
H366 C378 0.930 . S
H367 C380 0.930 . S
H368 C381 0.930 . S
H369 C385 0.959 . S
H370 C385 0.959 . S
H371 C385 0.961 . S
H372 C386 0.960 1_655 S
H373 C386 0.961 . S
H374 C386 0.959 . S
H375 C389 0.929 . S
H376 C390 0.931 . S
H377 C392 0.930 . S
C378 H366 0.930 . S
C378 C379 1.399 . S
C378 C383 1.399 . S
C379 C378 1.399 . S
C379 C380 1.376 . S
C380 H367 0.930 . S
C380 C379 1.376 . S
C380 C381 1.388 . S
C381 H368 0.930 . S
C381 C380 1.388 . S
C381 C382 1.390 . S
C382 C381 1.390 . S
C382 C383 1.394 . S
C382 C388 1.465 1_655 S
C383 C378 1.399 . S
C383 C382 1.394 . S
C383 C384 1.516 1_655 S
C384 C383 1.516 1_455 S
C384 C385 1.502 . S
C384 C386 1.561 . S
C384 C387 1.526 . S
C385 H369 0.959 . S
C385 H370 0.959 . S
C385 H371 0.961 . S
C385 C384 1.502 . S
C386 H372 0.960 1_455 S
C386 H373 0.961 . S
C386 H374 0.959 . S
C386 C384 1.561 . S
C387 C384 1.526 . S
C387 C388 1.396 . S
C387 C392 1.390 . S
C388 C382 1.465 1_455 S
C388 C387 1.396 . S
C388 C389 1.399 . S
C389 H375 0.929 . S
C389 C388 1.399 . S
C389 C390 1.385 . S
C390 H376 0.931 . S
C390 C389 1.385 . S
C390 C391 1.389 . S
C391 C390 1.389 . S
C391 C392 1.387 . S
C392 H377 0.930 . S
C392 C387 1.390 . S
C392 C391 1.387 . S
H393 C405 0.930 . S
H394 C407 0.930 . S
H395 C408 0.930 . S
H396 C412 0.959 . S
H397 C412 0.959 . S
H398 C412 0.961 . S
H399 C413 0.962 . S
H400 C413 0.961 . S
H401 C413 0.959 . S
H402 C416 0.929 . S
H403 C417 0.931 . S
H404 C419 0.930 . S
C405 H393 0.930 . S
C405 C406 1.399 . S
C405 C410 1.399 . S
C406 C405 1.399 . S
C406 C407 1.376 . S
C407 H394 0.930 . S
C407 C406 1.376 . S
C407 C408 1.388 . S
C408 H395 0.930 . S
C408 C407 1.388 . S
C408 C409 1.390 . S
C409 C408 1.390 . S
C409 C410 1.394 . S
C409 C415 1.465 1_565 S
C410 C405 1.399 . S
C410 C409 1.394 . S
C410 C411 1.516 1_565 S
C411 C410 1.516 1_545 S
C411 C412 1.502 . S
C411 C413 1.561 . S
C411 C414 1.526 . S
C412 H396 0.959 . S
C412 H397 0.959 . S
C412 H398 0.961 . S
C412 C411 1.502 . S
C413 H399 0.962 . S
C413 H400 0.961 . S
C413 H401 0.959 . S
C413 C411 1.561 . S
C414 C411 1.526 . S
C414 C415 1.396 . S
C414 C419 1.390 . S
C415 C409 1.465 1_545 S
C415 C414 1.396 . S
C415 C416 1.399 . S
C416 H402 0.929 . S
C416 C415 1.399 . S
C416 C417 1.385 . S
C417 H403 0.931 . S
C417 C416 1.385 . S
C417 C418 1.389 . S
C418 C417 1.389 . S
C418 C419 1.387 . S
C419 H404 0.930 . S
C419 C414 1.390 . S
C419 C418 1.387 . S
H420 C432 0.930 . S
H421 C434 0.930 . S
H422 C435 0.930 . S
H423 C439 0.959 . S
H424 C439 0.959 . S
H425 C439 0.961 . S
H426 C440 0.960 . S
H427 C440 0.961 . S
H428 C440 0.959 . S
H429 C443 0.929 . S
H430 C444 0.931 . S
H431 C446 0.930 . S
C432 H420 0.930 . S
C432 C433 1.399 . S
C432 C437 1.399 . S
C433 C432 1.399 . S
C433 C434 1.376 . S
C434 H421 0.930 . S
C434 C433 1.376 . S
C434 C435 1.388 . S
C435 H422 0.930 . S
C435 C434 1.388 . S
C435 C436 1.390 . S
C436 C435 1.390 . S
C436 C437 1.394 . S
C436 C442 1.465 . S
C437 C432 1.399 . S
C437 C436 1.394 . S
C437 C438 1.516 . S
C438 C437 1.516 . S
C438 C439 1.502 . S
C438 C440 1.561 . S
C438 C441 1.526 . S
C439 H423 0.959 . S
C439 H424 0.959 . S
C439 H425 0.961 . S
C439 C438 1.502 . S
C440 H426 0.960 . S
C440 H427 0.961 . S
C440 H428 0.959 . S
C440 C438 1.561 . S
C441 C438 1.526 . S
C441 C442 1.396 . S
C441 C446 1.390 . S
C442 C436 1.465 . S
C442 C441 1.396 . S
C442 C443 1.399 . S
C443 H429 0.929 . S
C443 C442 1.399 . S
C443 C444 1.385 . S
C444 H430 0.931 . S
C444 C443 1.385 . S
C444 C445 1.389 . S
C445 C444 1.389 . S
C445 C446 1.387 . S
C446 H431 0.930 . S
C446 C441 1.390 . S
C446 C445 1.387 . S
H447 C459 0.930 . S
H448 C461 0.930 . S
H449 C462 0.930 . S
H450 C466 0.959 . S
H451 C466 0.959 . S
H452 C466 0.961 . S
H453 C467 0.960 . S
H454 C467 0.961 . S
H455 C467 0.959 . S
H456 C470 0.929 . S
H457 C471 0.931 . S
H458 C473 0.930 . S
C459 H447 0.930 . S
C459 C460 1.399 . S
C459 C464 1.399 . S
C460 C459 1.399 . S
C460 C461 1.376 . S
C461 H448 0.930 . S
C461 C460 1.376 . S
C461 C462 1.388 . S
C462 H449 0.930 . S
C462 C461 1.388 . S
C462 C463 1.390 . S
C463 C462 1.390 . S
C463 C464 1.394 . S
C463 C469 1.465 1_455 S
C464 C459 1.399 . S
C464 C463 1.394 . S
C464 C465 1.516 . S
C465 C464 1.516 . S
C465 C466 1.502 . S
C465 C467 1.561 . S
C465 C468 1.526 1_455 S
C466 H450 0.959 . S
C466 H451 0.959 . S
C466 H452 0.961 . S
C466 C465 1.502 . S
C467 H453 0.960 . S
C467 H454 0.961 . S
C467 H455 0.959 . S
C467 C465 1.561 . S
C468 C465 1.526 1_655 S
C468 C469 1.396 . S
C468 C473 1.390 . S
C469 C463 1.465 1_655 S
C469 C468 1.396 . S
C469 C470 1.399 . S
C470 H456 0.929 . S
C470 C469 1.399 . S
C470 C471 1.385 . S
C471 H457 0.931 . S
C471 C470 1.385 . S
C471 C472 1.389 . S
C472 C471 1.389 . S
C472 C473 1.387 . S
C473 H458 0.930 . S
C473 C468 1.390 . S
C473 C472 1.387 . S
H474 C486 0.930 . S
H475 C488 0.930 . S
H476 C489 0.930 . S
H477 C493 0.959 . S
H478 C493 0.959 . S
H479 C493 0.941 1_565 S
H480 C494 0.960 . S
H481 C494 0.961 . S
H482 C494 0.959 . S
H483 C497 0.929 . S
H484 C498 0.931 . S
H485 C500 0.930 . S
C486 H474 0.930 . S
C486 C487 1.399 . S
C486 C491 1.399 . S
C487 C486 1.399 . S
C487 C488 1.376 . S
C488 H475 0.930 . S
C488 C487 1.376 . S
C488 C489 1.388 . S
C489 H476 0.930 . S
C489 C488 1.388 . S
C489 C490 1.390 . S
C490 C489 1.390 . S
C490 C491 1.394 . S
C490 C496 1.465 1_565 S
C491 C486 1.399 . S
C491 C490 1.394 . S
C491 C492 1.516 1_565 S
C492 C491 1.516 1_545 S
C492 C493 1.502 . S
C492 C494 1.561 . S
C492 C495 1.526 . S
C493 H477 0.959 . S
C493 H478 0.959 . S
C493 H479 0.941 1_545 S
C493 C492 1.502 . S
C494 H480 0.960 . S
C494 H481 0.961 . S
C494 H482 0.959 . S
C494 C492 1.561 . S
C495 C492 1.526 . S
C495 C496 1.396 . S
C495 C500 1.390 . S
C496 C490 1.465 1_545 S
C496 C495 1.396 . S
C496 C497 1.399 . S
C497 H483 0.929 . S
C497 C496 1.399 . S
C497 C498 1.385 . S
C498 H484 0.931 . S
C498 C497 1.385 . S
C498 C499 1.389 . S
C499 C498 1.389 . S
C499 C500 1.387 . S
C500 H485 0.930 . S
C500 C495 1.390 . S
C500 C499 1.387 . S
H501 C513 0.930 . S
H502 C515 0.930 . S
H503 C516 0.930 . S
H504 C520 0.959 . S
H505 C520 0.959 . S
H506 C520 0.961 . S
H507 C521 0.960 . S
H508 C521 0.961 . S
H509 C521 0.959 . S
H510 C524 0.929 . S
H511 C525 0.931 . S
H512 C527 0.930 . S
C513 H501 0.930 . S
C513 C514 1.399 . S
C513 C518 1.399 . S
C514 C513 1.399 . S
C514 C515 1.376 . S
C515 H502 0.930 . S
C515 C514 1.376 . S
C515 C516 1.388 . S
C516 H503 0.930 . S
C516 C515 1.388 . S
C516 C517 1.390 . S
C517 C516 1.390 . S
C517 C518 1.394 . S
C517 C523 1.465 . S
C518 C513 1.399 . S
C518 C517 1.394 . S
C518 C519 1.516 . S
C519 C518 1.516 . S
C519 C520 1.502 . S
C519 C521 1.561 . S
C519 C522 1.526 . S
C520 H504 0.959 . S
C520 H505 0.959 . S
C520 H506 0.961 . S
C520 C519 1.502 . S
C521 H507 0.960 . S
C521 H508 0.961 . S
C521 H509 0.959 . S
C521 C519 1.561 . S
C522 C519 1.526 . S
C522 C523 1.396 . S
C522 C527 1.390 . S
C523 C517 1.465 . S
C523 C522 1.396 . S
C523 C524 1.399 . S
C524 H510 0.929 . S
C524 C523 1.399 . S
C524 C525 1.385 . S
C525 H511 0.931 . S
C525 C524 1.385 . S
C525 C526 1.389 . S
C526 C525 1.389 . S
C526 C527 1.387 . S
C527 H512 0.930 . S
C527 C522 1.390 . S
C527 C526 1.387 . S
H528 C540 0.930 . S
H529 C542 0.930 . S
H530 C543 0.930 . S
H531 C547 0.959 . S
H532 C547 0.959 . S
H533 C547 0.961 . S
H534 C548 0.960 . S
H535 C548 0.995 . S
H536 C548 0.959 . S
H537 C551 0.929 . S
H538 C552 0.931 . S
H539 C554 0.930 . S
C540 H528 0.930 . S
C540 C541 1.399 . S
C540 C545 1.399 . S
C541 C540 1.399 . S
C541 C542 1.376 . S
C542 H529 0.930 . S
C542 C541 1.376 . S
C542 C543 1.388 . S
C543 H530 0.930 . S
C543 C542 1.388 . S
C543 C544 1.390 . S
C544 C543 1.390 . S
C544 C545 1.394 . S
C544 C550 1.465 1_655 S
C545 C540 1.399 . S
C545 C544 1.394 . S
C545 C546 1.516 . S
C546 C545 1.516 . S
C546 C547 1.502 . S
C546 C548 1.561 . S
C546 C549 1.526 1_655 S
C547 H531 0.959 . S
C547 H532 0.959 . S
C547 H533 0.961 . S
C547 C546 1.502 . S
C548 H534 0.960 . S
C548 H535 0.995 . S
C548 H536 0.959 . S
C548 C546 1.561 . S
C549 C546 1.526 1_455 S
C549 C550 1.396 . S
C549 C554 1.390 . S
C550 C544 1.465 1_455 S
C550 C549 1.396 . S
C550 C551 1.399 . S
C551 H537 0.929 . S
C551 C550 1.399 . S
C551 C552 1.385 . S
C552 H538 0.931 . S
C552 C551 1.385 . S
C552 C553 1.389 . S
C553 C552 1.389 . S
C553 C554 1.387 . S
C554 H539 0.930 . S
C554 C549 1.390 . S
C554 C553 1.387 . S
H555 C567 0.930 . S
H556 C569 0.930 . S
H557 C570 0.930 . S
H558 C574 0.959 . S
H559 C574 0.959 . S
H560 C574 0.961 . S
H561 C575 0.960 . S
H562 C575 0.961 . S
H563 C575 0.959 . S
H564 C578 0.929 . S
H565 C579 0.931 . S
H566 C581 0.930 . S
C567 H555 0.930 . S
C567 C568 1.399 . S
C567 C572 1.399 . S
C568 C567 1.399 . S
C568 C569 1.376 . S
C569 H556 0.930 . S
C569 C568 1.376 . S
C569 C570 1.388 . S
C570 H557 0.930 . S
C570 C569 1.388 . S
C570 C571 1.390 . S
C571 C570 1.390 . S
C571 C572 1.394 . S
C571 C577 1.465 1_545 S
C572 C567 1.399 . S
C572 C571 1.394 . S
C572 C573 1.516 1_545 S
C573 C572 1.516 1_565 S
C573 C574 1.502 . S
C573 C575 1.561 . S
C573 C576 1.526 . S
C574 H558 0.959 . S
C574 H559 0.959 . S
C574 H560 0.961 . S
C574 C573 1.502 . S
C575 H561 0.960 . S
C575 H562 0.961 . S
C575 H563 0.959 . S
C575 C573 1.561 . S
C576 C573 1.526 . S
C576 C577 1.396 . S
C576 C581 1.390 . S
C577 C571 1.465 1_565 S
C577 C576 1.396 . S
C577 C578 1.399 . S
C578 H564 0.929 . S
C578 C577 1.399 . S
C578 C579 1.385 . S
C579 H565 0.931 . S
C579 C578 1.385 . S
C579 C580 1.389 . S
C580 C579 1.389 . S
C580 C581 1.387 . S
C581 H566 0.930 . S
C581 C576 1.390 . S
C581 C580 1.387 . S
H582 C594 0.930 . S
H583 C596 0.930 . S
H584 C597 0.930 . S
H585 C601 0.959 . S
H586 C601 0.959 . S
H587 C601 0.961 . S
H588 C602 0.960 . S
H589 C602 0.961 . S
H590 C602 0.959 . S
H591 C605 0.929 . S
H592 C606 0.931 . S
H593 C608 0.930 . S
C594 H582 0.930 . S
C594 C595 1.399 . S
C594 C599 1.399 . S
C595 C594 1.399 . S
C595 C596 1.376 . S
C596 H583 0.930 . S
C596 C595 1.376 . S
C596 C597 1.388 . S
C597 H584 0.930 . S
C597 C596 1.388 . S
C597 C598 1.390 . S
C598 C597 1.390 . S
C598 C599 1.394 . S
C598 C604 1.465 . S
C599 C594 1.399 . S
C599 C598 1.394 . S
C599 C600 1.516 . S
C600 C599 1.516 . S
C600 C601 1.502 . S
C600 C602 1.561 . S
C600 C603 1.526 . S
C601 H585 0.959 . S
C601 H586 0.959 . S
C601 H587 0.961 . S
C601 C600 1.502 . S
C602 H588 0.960 . S
C602 H589 0.961 . S
C602 H590 0.959 . S
C602 C600 1.561 . S
C603 C600 1.526 . S
C603 C604 1.396 . S
C603 C608 1.390 . S
C604 C598 1.465 . S
C604 C603 1.396 . S
C604 C605 1.399 . S
C605 H591 0.929 . S
C605 C604 1.399 . S
C605 C606 1.385 . S
C606 H592 0.931 . S
C606 C605 1.385 . S
C606 C607 1.389 . S
C607 C606 1.389 . S
C607 C608 1.387 . S
C608 H593 0.930 . S
C608 C603 1.390 . S
C608 C607 1.387 . S
H609 C621 0.930 . S
H610 C623 0.930 . S
H611 C624 0.930 . S
H612 C628 0.959 . S
H613 C628 0.959 . S
H614 C628 0.961 . S
H615 C629 0.960 . S
H616 C629 0.961 1_655 S
H617 C629 0.959 1_655 S
H618 C632 0.929 . S
H619 C633 0.931 . S
H620 C635 0.930 . S
C621 H609 0.930 . S
C621 C622 1.399 . S
C621 C626 1.399 . S
C622 C621 1.399 . S
C622 C623 1.376 . S
C623 H610 0.930 . S
C623 C622 1.376 . S
C623 C624 1.388 . S
C624 H611 0.930 . S
C624 C623 1.388 . S
C624 C625 1.390 . S
C625 C624 1.390 . S
C625 C626 1.394 . S
C625 C631 1.465 1_455 S
C626 C621 1.399 . S
C626 C625 1.394 . S
C626 C627 1.516 . S
C627 C626 1.516 . S
C627 C628 1.502 . S
C627 C629 1.561 . S
C627 C630 1.526 1_455 S
C628 H612 0.959 . S
C628 H613 0.959 . S
C628 H614 0.961 . S
C628 C627 1.502 . S
C629 H615 0.960 . S
C629 H616 0.961 1_455 S
C629 H617 0.959 1_455 S
C629 C627 1.561 . S
C630 C627 1.526 1_655 S
C630 C631 1.396 . S
C630 C635 1.390 . S
C631 C625 1.465 1_655 S
C631 C630 1.396 . S
C631 C632 1.399 . S
C632 H618 0.929 . S
C632 C631 1.399 . S
C632 C633 1.385 . S
C633 H619 0.931 . S
C633 C632 1.385 . S
C633 C634 1.389 . S
C634 C633 1.389 . S
C634 C635 1.387 . S
C635 H620 0.930 . S
C635 C630 1.390 . S
C635 C634 1.387 . S
H636 C648 0.930 . S
H637 C650 0.930 . S
H638 C651 0.930 . S
H639 C655 0.959 . S
H640 C655 0.959 . S
H641 C655 0.961 . S
H642 C656 0.960 . S
H643 C656 0.961 . S
H644 C656 0.959 . S
H645 C659 0.929 . S
H646 C660 0.931 . S
H647 C662 0.930 . S
C648 H636 0.930 . S
C648 C649 1.399 . S
C648 C653 1.399 . S
C649 C648 1.399 . S
C649 C650 1.376 . S
C650 H637 0.930 . S
C650 C649 1.376 . S
C650 C651 1.388 . S
C651 H638 0.930 . S
C651 C650 1.388 . S
C651 C652 1.390 . S
C652 C651 1.390 . S
C652 C653 1.394 . S
C652 C658 1.465 . S
C653 C648 1.399 . S
C653 C652 1.394 . S
C653 C654 1.516 . S
C654 C653 1.516 . S
C654 C655 1.502 . S
C654 C656 1.561 . S
C654 C657 1.526 . S
C655 H639 0.959 . S
C655 H640 0.959 . S
C655 H641 0.961 . S
C655 C654 1.502 . S
C656 H642 0.960 . S
C656 H643 0.961 . S
C656 H644 0.959 . S
C656 C654 1.561 . S
C657 C654 1.526 . S
C657 C658 1.396 . S
C657 C662 1.390 . S
C658 C652 1.465 . S
C658 C657 1.396 . S
C658 C659 1.399 . S
C659 H645 0.929 . S
C659 C658 1.399 . S
C659 C660 1.385 . S
C660 H646 0.931 . S
C660 C659 1.385 . S
C660 C661 1.389 . S
C661 C660 1.389 . S
C661 C662 1.387 . S
C662 H647 0.930 . S
C662 C657 1.390 . S
C662 C661 1.387 . S
H663 C675 0.930 . S
H664 C677 0.930 . S
H665 C678 0.930 . S
H666 C682 0.959 . S
H667 C682 0.959 . S
H668 C682 0.961 . S
H669 C683 0.960 . S
H670 C683 0.961 . S
H671 C683 0.959 . S
H672 C686 0.929 . S
H673 C687 0.931 . S
H674 C689 0.930 . S
C675 H663 0.930 . S
C675 C676 1.399 . S
C675 C680 1.399 . S
C676 C675 1.399 . S
C676 C677 1.376 . S
C677 H664 0.930 . S
C677 C676 1.376 . S
C677 C678 1.388 . S
C678 H665 0.930 . S
C678 C677 1.388 . S
C678 C679 1.390 . S
C679 C678 1.390 . S
C679 C680 1.394 . S
C679 C685 1.465 . S
C680 C675 1.399 . S
C680 C679 1.394 . S
C680 C681 1.516 . S
C681 C680 1.516 . S
C681 C682 1.502 . S
C681 C683 1.561 . S
C681 C684 1.526 . S
C682 H666 0.959 . S
C682 H667 0.959 . S
C682 H668 0.961 . S
C682 C681 1.502 . S
C683 H669 0.960 . S
C683 H670 0.961 . S
C683 H671 0.959 . S
C683 C681 1.561 . S
C684 C681 1.526 . S
C684 C685 1.396 . S
C684 C689 1.390 . S
C685 C679 1.465 . S
C685 C684 1.396 . S
C685 C686 1.399 . S
C686 H672 0.929 . S
C686 C685 1.399 . S
C686 C687 1.385 . S
C687 H673 0.931 . S
C687 C686 1.385 . S
C687 C688 1.389 . S
C688 C687 1.389 . S
C688 C689 1.387 . S
C689 H674 0.930 . S
C689 C684 1.390 . S
C689 C688 1.387 . S
H690 C702 0.930 . S
H691 C704 0.930 . S
H692 C705 0.930 . S
H693 C709 0.959 . S
H694 C709 0.959 . S
H695 C709 0.961 . S
H696 C710 0.960 . S
H697 C710 0.961 . S
H698 C710 0.959 . S
H699 C713 0.929 . S
H700 C714 0.931 . S
H701 C716 0.930 . S
C702 H690 0.930 . S
C702 C703 1.399 . S
C702 C707 1.399 . S
C703 C702 1.399 . S
C703 C704 1.376 . S
C704 H691 0.930 . S
C704 C703 1.376 . S
C704 C705 1.388 . S
C705 H692 0.930 . S
C705 C704 1.388 . S
C705 C706 1.390 . S
C706 C705 1.390 . S
C706 C707 1.394 . S
C706 C712 1.465 . S
C707 C702 1.399 . S
C707 C706 1.394 . S
C707 C708 1.516 . S
C708 C707 1.516 . S
C708 C709 1.502 . S
C708 C710 1.561 . S
C708 C711 1.526 . S
C709 H693 0.959 . S
C709 H694 0.959 . S
C709 H695 0.961 . S
C709 C708 1.502 . S
C710 H696 0.960 . S
C710 H697 0.961 . S
C710 H698 0.959 . S
C710 C708 1.561 . S
C711 C708 1.526 . S
C711 C712 1.396 . S
C711 C716 1.390 . S
C712 C706 1.465 . S
C712 C711 1.396 . S
C712 C713 1.399 . S
C713 H699 0.929 . S
C713 C712 1.399 . S
C713 C714 1.385 . S
C714 H700 0.931 . S
C714 C713 1.385 . S
C714 C715 1.389 . S
C715 C714 1.389 . S
C715 C716 1.387 . S
C716 H701 0.930 . S
C716 C711 1.390 . S
C716 C715 1.387 . S
H717 C729 0.930 . S
H718 C731 0.930 . S
H719 C732 0.930 . S
H720 C736 0.959 . S
H721 C736 0.959 . S
H722 C736 0.961 . S
H723 C737 0.960 . S
H724 C737 0.961 . S
H725 C737 0.959 . S
H726 C740 0.929 . S
H727 C741 0.931 . S
H728 C743 0.930 . S
C729 H717 0.930 . S
C729 C730 1.399 . S
C729 C734 1.399 . S
C730 C729 1.399 . S
C730 C731 1.376 . S
C731 H718 0.930 . S
C731 C730 1.376 . S
C731 C732 1.388 . S
C732 H719 0.930 . S
C732 C731 1.388 . S
C732 C733 1.390 . S
C733 C732 1.390 . S
C733 C734 1.394 . S
C733 C739 1.465 . S
C734 C729 1.399 . S
C734 C733 1.394 . S
C734 C735 1.516 . S
C735 C734 1.516 . S
C735 C736 1.502 . S
C735 C737 1.561 . S
C735 C738 1.526 . S
C736 H720 0.959 . S
C736 H721 0.959 . S
C736 H722 0.961 . S
C736 C735 1.502 . S
C737 H723 0.960 . S
C737 H724 0.961 . S
C737 H725 0.959 . S
C737 C735 1.561 . S
C738 C735 1.526 . S
C738 C739 1.396 . S
C738 C743 1.390 . S
C739 C733 1.465 . S
C739 C738 1.396 . S
C739 C740 1.399 . S
C740 H726 0.929 . S
C740 C739 1.399 . S
C740 C741 1.385 . S
C741 H727 0.931 . S
C741 C740 1.385 . S
C741 C742 1.389 . S
C742 C741 1.389 . S
C742 C743 1.387 . S
C743 H728 0.930 . S
C743 C738 1.390 . S
C743 C742 1.387 . S
H744 C756 0.930 . S
H745 C758 0.930 . S
H746 C759 0.930 . S
H747 C763 0.959 . S
H748 C763 0.959 . S
H749 C763 0.961 . S
H750 C764 0.960 . S
H751 C764 0.961 . S
H752 C764 0.959 . S
H753 C767 0.929 . S
H754 C768 0.931 . S
H755 C770 0.930 . S
C756 H744 0.930 . S
C756 C757 1.399 . S
C756 C761 1.399 . S
C757 C756 1.399 . S
C757 C758 1.376 . S
C758 H745 0.930 . S
C758 C757 1.376 . S
C758 C759 1.388 . S
C759 H746 0.930 . S
C759 C758 1.388 . S
C759 C760 1.390 . S
C760 C759 1.390 . S
C760 C761 1.394 . S
C760 C766 1.465 . S
C761 C756 1.399 . S
C761 C760 1.394 . S
C761 C762 1.516 . S
C762 C761 1.516 . S
C762 C763 1.502 . S
C762 C764 1.561 . S
C762 C765 1.526 . S
C763 H747 0.959 . S
C763 H748 0.959 . S
C763 H749 0.961 . S
C763 C762 1.502 . S
C764 H750 0.960 . S
C764 H751 0.961 . S
C764 H752 0.959 . S
C764 C762 1.561 . S
C765 C762 1.526 . S
C765 C766 1.396 . S
C765 C770 1.390 . S
C766 C760 1.465 . S
C766 C765 1.396 . S
C766 C767 1.399 . S
C767 H753 0.929 . S
C767 C766 1.399 . S
C767 C768 1.385 . S
C768 H754 0.931 . S
C768 C767 1.385 . S
C768 C769 1.389 . S
C769 C768 1.389 . S
C769 C770 1.387 . S
C770 H755 0.930 . S
C770 C765 1.390 . S
C770 C769 1.387 . S
H771 C783 0.930 . S
H772 C785 0.930 . S
H773 C786 0.930 . S
H774 C790 0.959 . S
H775 C790 0.959 . S
H776 C790 0.961 . S
H777 C791 0.960 . S
H778 C791 0.961 . S
H779 C791 0.959 . S
H780 C794 0.929 . S
H781 C795 0.931 . S
H782 C797 0.930 . S
C783 H771 0.930 . S
C783 C784 1.399 . S
C783 C788 1.399 . S
C784 C783 1.399 . S
C784 C785 1.376 . S
C785 H772 0.930 . S
C785 C784 1.376 . S
C785 C786 1.388 . S
C786 H773 0.930 . S
C786 C785 1.388 . S
C786 C787 1.390 . S
C787 C786 1.390 . S
C787 C788 1.394 . S
C787 C793 1.465 . S
C788 C783 1.399 . S
C788 C787 1.394 . S
C788 C789 1.516 . S
C789 C788 1.516 . S
C789 C790 1.502 . S
C789 C791 1.561 . S
C789 C792 1.526 . S
C790 H774 0.959 . S
C790 H775 0.959 . S
C790 H776 0.961 . S
C790 C789 1.502 . S
C791 H777 0.960 . S
C791 H778 0.961 . S
C791 H779 0.959 . S
C791 C789 1.561 . S
C792 C789 1.526 . S
C792 C793 1.396 . S
C792 C797 1.390 . S
C793 C787 1.465 . S
C793 C792 1.396 . S
C793 C794 1.399 . S
C794 H780 0.929 . S
C794 C793 1.399 . S
C794 C795 1.385 . S
C795 H781 0.931 . S
C795 C794 1.385 . S
C795 C796 1.389 . S
C796 C795 1.389 . S
C796 C797 1.387 . S
C797 H782 0.930 . S
C797 C792 1.390 . S
C797 C796 1.387 . S
H798 C810 0.930 . S
H799 C812 0.930 . S
H800 C813 0.930 . S
H801 C817 0.959 . S
H802 C817 0.959 . S
H803 C817 0.961 . S
H804 C818 0.960 . S
H805 C818 0.961 . S
H806 C818 0.959 . S
H807 C821 0.929 . S
H808 C822 0.931 . S
H809 C824 0.930 . S
C810 H798 0.930 . S
C810 C811 1.399 . S
C810 C815 1.399 . S
C811 C810 1.399 . S
C811 C812 1.376 . S
C812 H799 0.930 . S
C812 C811 1.376 . S
C812 C813 1.388 . S
C813 H800 0.930 . S
C813 C812 1.388 . S
C813 C814 1.390 . S
C814 C813 1.390 . S
C814 C815 1.394 . S
C814 C820 1.465 . S
C815 C810 1.399 . S
C815 C814 1.394 . S
C815 C816 1.516 . S
C816 C815 1.516 . S
C816 C817 1.502 . S
C816 C818 1.561 . S
C816 C819 1.526 . S
C817 H801 0.959 . S
C817 H802 0.959 . S
C817 H803 0.961 . S
C817 C816 1.502 . S
C818 H804 0.960 . S
C818 H805 0.961 . S
C818 H806 0.959 . S
C818 C816 1.561 . S
C819 C816 1.526 . S
C819 C820 1.396 . S
C819 C824 1.390 . S
C820 C814 1.465 . S
C820 C819 1.396 . S
C820 C821 1.399 . S
C821 H807 0.929 . S
C821 C820 1.399 . S
C821 C822 1.385 . S
C822 H808 0.931 . S
C822 C821 1.385 . S
C822 C823 1.389 . S
C823 C822 1.389 . S
C823 C824 1.387 . S
C824 H809 0.930 . S
C824 C819 1.390 . S
C824 C823 1.387 . S
H825 C837 0.930 . S
H826 C839 0.930 . S
H827 C840 0.930 . S
H828 C844 0.959 . S
H829 C844 0.959 . S
H830 C844 0.961 . S
H831 C845 0.960 . S
H832 C845 0.961 . S
H833 C845 0.959 . S
H834 C848 0.929 . S
H835 C849 0.931 . S
H836 C851 0.930 . S
C837 H825 0.930 . S
C837 C838 1.399 . S
C837 C842 1.399 . S
C838 C837 1.399 . S
C838 C839 1.376 . S
C839 H826 0.930 . S
C839 C838 1.376 . S
C839 C840 1.388 . S
C840 H827 0.930 . S
C840 C839 1.388 . S
C840 C841 1.390 . S
C841 C840 1.390 . S
C841 C842 1.394 . S
C841 C847 1.465 . S
C842 C837 1.399 . S
C842 C841 1.394 . S
C842 C843 1.516 . S
C843 C842 1.516 . S
C843 C844 1.502 . S
C843 C845 1.561 . S
C843 C846 1.526 . S
C844 H828 0.959 . S
C844 H829 0.959 . S
C844 H830 0.961 . S
C844 C843 1.502 . S
C845 H831 0.960 . S
C845 H832 0.961 . S
C845 H833 0.959 . S
C845 C843 1.561 . S
C846 C843 1.526 . S
C846 C847 1.396 . S
C846 C851 1.390 . S
C847 C841 1.465 . S
C847 C846 1.396 . S
C847 C848 1.399 . S
C848 H834 0.929 . S
C848 C847 1.399 . S
C848 C849 1.385 . S
C849 H835 0.931 . S
C849 C848 1.385 . S
C849 C850 1.389 . S
C850 C849 1.389 . S
C850 C851 1.387 . S
C851 H836 0.930 . S
C851 C846 1.390 . S
C851 C850 1.387 . S
H852 C864 0.930 . S
H853 C866 0.930 . S
H854 C867 0.930 . S
H855 C871 0.959 . S
H856 C871 0.959 . S
H857 C871 0.961 . S
H858 C872 0.960 . S
H859 C872 0.961 . S
H860 C872 0.959 . S
H861 C875 0.929 . S
H862 C876 0.931 . S
H863 C878 0.930 . S
C864 H852 0.930 . S
C864 C865 1.399 . S
C864 C869 1.399 . S
C865 C864 1.399 . S
C865 C866 1.376 . S
C866 H853 0.930 . S
C866 C865 1.376 . S
C866 C867 1.388 . S
C867 H854 0.930 . S
C867 C866 1.388 . S
C867 C868 1.390 . S
C868 C867 1.390 . S
C868 C869 1.394 . S
C868 C874 1.465 . S
C869 C864 1.399 . S
C869 C868 1.394 . S
C869 C870 1.516 . S
C870 C869 1.516 . S
C870 C871 1.502 . S
C870 C872 1.561 . S
C870 C873 1.526 . S
C871 H855 0.959 . S
C871 H856 0.959 . S
C871 H857 0.961 . S
C871 C870 1.502 . S
C872 H858 0.960 . S
C872 H859 0.961 . S
C872 H860 0.959 . S
C872 C870 1.561 . S
C873 C870 1.526 . S
C873 C874 1.396 . S
C873 C878 1.390 . S
C874 C868 1.465 . S
C874 C873 1.396 . S
C874 C875 1.399 . S
C875 H861 0.929 . S
C875 C874 1.399 . S
C875 C876 1.385 . S
C876 H862 0.931 . S
C876 C875 1.385 . S
C876 C877 1.389 . S
C877 C876 1.389 . S
C877 C878 1.387 . S
C878 H863 0.930 . S
C878 C873 1.390 . S
C878 C877 1.387 . S
H879 C891 0.930 . S
H880 C893 0.930 . S
H881 C894 0.930 . S
H882 C898 0.959 . S
H883 C898 0.959 . S
H884 C898 0.961 . S
H885 C899 0.960 . S
H886 C899 0.961 . S
H887 C899 0.959 . S
H888 C902 0.929 . S
H889 C903 0.931 . S
H890 C905 0.930 . S
C891 H879 0.930 . S
C891 C892 1.399 . S
C891 C896 1.399 . S
C892 C891 1.399 . S
C892 C893 1.376 . S
C893 H880 0.930 . S
C893 C892 1.376 . S
C893 C894 1.388 . S
C894 H881 0.930 . S
C894 C893 1.388 . S
C894 C895 1.390 . S
C895 C894 1.390 . S
C895 C896 1.394 . S
C895 C901 1.465 . S
C896 C891 1.399 . S
C896 C895 1.394 . S
C896 C897 1.516 . S
C897 C896 1.516 . S
C897 C898 1.502 . S
C897 C899 1.561 . S
C897 C900 1.526 . S
C898 H882 0.959 . S
C898 H883 0.959 . S
C898 H884 0.961 . S
C898 C897 1.502 . S
C899 H885 0.960 . S
C899 H886 0.961 . S
C899 H887 0.959 . S
C899 C897 1.561 . S
C900 C897 1.526 . S
C900 C901 1.396 . S
C900 C905 1.390 . S
C901 C895 1.465 . S
C901 C900 1.396 . S
C901 C902 1.399 . S
C902 H888 0.929 . S
C902 C901 1.399 . S
C902 C903 1.385 . S
C903 H889 0.931 . S
C903 C902 1.385 . S
C903 C904 1.389 . S
C904 C903 1.389 . S
C904 C905 1.387 . S
C905 H890 0.930 . S
C905 C900 1.390 . S
C905 C904 1.387 . S
H906 C918 0.930 . S
H907 C920 0.930 . S
H908 C921 0.930 . S
H909 C925 0.959 . S
H910 C925 0.959 . S
H911 C925 0.961 . S
H912 C926 0.960 . S
H913 C926 0.961 . S
H914 C926 0.959 . S
H915 C929 0.929 . S
H916 C930 0.931 . S
H917 C932 0.930 . S
C918 H906 0.930 . S
C918 C919 1.399 . S
C918 C923 1.399 . S
C919 C918 1.399 . S
C919 C920 1.376 . S
C920 H907 0.930 . S
C920 C919 1.376 . S
C920 C921 1.388 . S
C921 H908 0.930 . S
C921 C920 1.388 . S
C921 C922 1.390 . S
C922 C921 1.390 . S
C922 C923 1.394 . S
C922 C928 1.465 . S
C923 C918 1.399 . S
C923 C922 1.394 . S
C923 C924 1.516 . S
C924 C923 1.516 . S
C924 C925 1.502 . S
C924 C926 1.561 . S
C924 C927 1.526 . S
C925 H909 0.959 . S
C925 H910 0.959 . S
C925 H911 0.961 . S
C925 C924 1.502 . S
C926 H912 0.960 . S
C926 H913 0.961 . S
C926 H914 0.959 . S
C926 C924 1.561 . S
C927 C924 1.526 . S
C927 C928 1.396 . S
C927 C932 1.390 . S
C928 C922 1.465 . S
C928 C927 1.396 . S
C928 C929 1.399 . S
C929 H915 0.929 . S
C929 C928 1.399 . S
C929 C930 1.385 . S
C930 H916 0.931 . S
C930 C929 1.385 . S
C930 C931 1.389 . S
C931 C930 1.389 . S
C931 C932 1.387 . S
C932 H917 0.930 . S
C932 C927 1.390 . S
C932 C931 1.387 . S
H933 C945 0.930 . S
H934 C947 0.930 . S
H935 C948 0.930 . S
H936 C952 0.959 . S
H937 C952 0.959 . S
H938 C952 0.961 . S
H939 C953 0.960 . S
H940 C953 0.961 . S
H941 C953 0.959 . S
H942 C956 0.929 . S
H943 C957 0.931 . S
H944 C959 0.930 . S
C945 H933 0.930 . S
C945 C946 1.399 . S
C945 C950 1.399 . S
C946 C945 1.399 . S
C946 C947 1.376 . S
C947 H934 0.930 . S
C947 C946 1.376 . S
C947 C948 1.388 . S
C948 H935 0.930 . S
C948 C947 1.388 . S
C948 C949 1.390 . S
C949 C948 1.390 . S
C949 C950 1.394 . S
C949 C955 1.465 . S
C950 C945 1.399 . S
C950 C949 1.394 . S
C950 C951 1.516 . S
C951 C950 1.516 . S
C951 C952 1.502 . S
C951 C953 1.561 . S
C951 C954 1.526 . S
C952 H936 0.959 . S
C952 H937 0.959 . S
C952 H938 0.961 . S
C952 C951 1.502 . S
C953 H939 0.960 . S
C953 H940 0.961 . S
C953 H941 0.959 . S
C953 C951 1.561 . S
C954 C951 1.526 . S
C954 C955 1.396 . S
C954 C959 1.390 . S
C955 C949 1.465 . S
C955 C954 1.396 . S
C955 C956 1.399 . S
C956 H942 0.929 . S
C956 C955 1.399 . S
C956 C957 1.385 . S
C957 H943 0.931 . S
C957 C956 1.385 . S
C957 C958 1.389 . S
C958 C957 1.389 . S
C958 C959 1.387 . S
C959 H944 0.930 . S
C959 C954 1.390 . S
C959 C958 1.387 . S
H960 C972 0.930 . S
H961 C974 0.930 . S
H962 C975 0.930 . S
H963 C979 0.962 . S
H964 C979 0.980 . S
H965 C979 0.938 1_554 S
H966 C980 0.956 1_554 S
H967 C980 0.964 . S
H968 C980 0.959 . S
H969 C983 0.929 . S
H970 C984 0.931 . S
H971 C986 0.930 . S
C972 H960 0.930 . S
C972 C973 1.399 . S
C972 C977 1.399 . S
C973 C972 1.399 . S
C973 C974 1.376 . S
C974 H961 0.930 . S
C974 C973 1.376 . S
C974 C975 1.388 . S
C975 H962 0.930 . S
C975 C974 1.388 . S
C975 C976 1.390 . S
C976 C975 1.390 . S
C976 C977 1.394 . S
C976 C982 1.465 1_554 S
C977 C972 1.399 . S
C977 C976 1.394 . S
C977 C978 1.516 1_554 S
C978 C977 1.516 1_556 S
C978 C979 1.502 . S
C978 C980 1.561 . S
C978 C981 1.526 . S
C979 H963 0.962 . S
C979 H964 0.980 . S
C979 H965 0.938 1_556 S
C979 C978 1.502 . S
C980 H966 0.956 1_556 S
C980 H967 0.964 . S
C980 H968 0.959 . S
C980 C978 1.561 . S
C981 C978 1.526 . S
C981 C982 1.396 . S
C981 C986 1.390 . S
C982 C976 1.465 1_556 S
C982 C981 1.396 . S
C982 C983 1.399 . S
C983 H969 0.929 . S
C983 C982 1.399 . S
C983 C984 1.385 . S
C984 H970 0.931 . S
C984 C983 1.385 . S
C984 C985 1.389 . S
C985 C984 1.389 . S
C985 C986 1.387 . S
C986 H971 0.930 . S
C986 C981 1.390 . S
C986 C985 1.387 . S
H987 C999 0.930 . S
H988 C1001 0.930 . S
H989 C1002 0.930 . S
H990 C1006 0.962 . S
H991 C1006 0.980 . S
H992 C1006 0.938 1_556 S
H993 C1007 0.956 1_556 S
H994 C1007 0.965 . S
H995 C1007 0.959 . S
H996 C1010 0.929 . S
H997 C1011 0.931 . S
H998 C1013 0.930 . S
C999 H987 0.930 . S
C999 C1000 1.399 . S
C999 C1004 1.399 . S
C1000 C999 1.399 . S
C1000 C1001 1.376 . S
C1001 H988 0.930 . S
C1001 C1000 1.376 . S
C1001 C1002 1.388 . S
C1002 H989 0.930 . S
C1002 C1001 1.388 . S
C1002 C1003 1.390 . S
C1003 C1002 1.390 . S
C1003 C1004 1.394 . S
C1003 C1009 1.465 1_556 S
C1004 C999 1.399 . S
C1004 C1003 1.394 . S
C1004 C1005 1.515 1_556 S
C1005 C1004 1.515 1_554 S
C1005 C1006 1.502 . S
C1005 C1007 1.561 . S
C1005 C1008 1.527 . S
C1006 H990 0.962 . S
C1006 H991 0.980 . S
C1006 H992 0.938 1_554 S
C1006 C1005 1.502 . S
C1007 H993 0.956 1_554 S
C1007 H994 0.965 . S
C1007 H995 0.959 . S
C1007 C1005 1.561 . S
C1008 C1005 1.527 . S
C1008 C1009 1.396 . S
C1008 C1013 1.390 . S
C1009 C1003 1.465 1_554 S
C1009 C1008 1.396 . S
C1009 C1010 1.399 . S
C1010 H996 0.929 . S
C1010 C1009 1.399 . S
C1010 C1011 1.385 . S
C1011 H997 0.931 . S
C1011 C1010 1.385 . S
C1011 C1012 1.389 . S
C1012 C1011 1.389 . S
C1012 C1013 1.387 . S
C1013 H998 0.930 . S
C1013 C1008 1.390 . S
C1013 C1012 1.387 . S
H1014 C1026 0.930 . S
H1015 C1028 0.930 . S
H1016 C1029 0.930 . S
H1017 C1033 0.962 . S
H1018 C1033 0.980 . S
H1019 C1033 0.938 1_556 S
H1020 C1034 0.956 1_556 S
H1021 C1034 0.964 . S
H1022 C1034 0.959 . S
H1023 C1037 0.929 . S
H1024 C1038 0.931 . S
H1025 C1040 0.930 . S
C1026 H1014 0.930 . S
C1026 C1027 1.399 . S
C1026 C1031 1.399 . S
C1027 C1026 1.399 . S
C1027 C1028 1.376 . S
C1028 H1015 0.930 . S
C1028 C1027 1.376 . S
C1028 C1029 1.388 . S
C1029 H1016 0.930 . S
C1029 C1028 1.388 . S
C1029 C1030 1.390 . S
C1030 C1029 1.390 . S
C1030 C1031 1.394 . S
C1030 C1036 1.465 1_556 S
C1031 C1026 1.399 . S
C1031 C1030 1.394 . S
C1031 C1032 1.516 1_556 S
C1032 C1031 1.516 1_554 S
C1032 C1033 1.502 . S
C1032 C1034 1.561 . S
C1032 C1035 1.526 . S
C1033 H1017 0.962 . S
C1033 H1018 0.980 . S
C1033 H1019 0.938 1_554 S
C1033 C1032 1.502 . S
C1034 H1020 0.956 1_554 S
C1034 H1021 0.964 . S
C1034 H1022 0.959 . S
C1034 C1032 1.561 . S
C1035 C1032 1.526 . S
C1035 C1036 1.396 . S
C1035 C1040 1.390 . S
C1036 C1030 1.465 1_554 S
C1036 C1035 1.396 . S
C1036 C1037 1.399 . S
C1037 H1023 0.929 . S
C1037 C1036 1.399 . S
C1037 C1038 1.385 . S
C1038 H1024 0.931 . S
C1038 C1037 1.385 . S
C1038 C1039 1.389 . S
C1039 C1038 1.389 . S
C1039 C1040 1.387 . S
C1040 H1025 0.930 . S
C1040 C1035 1.390 . S
C1040 C1039 1.387 . S
H1041 C1053 0.930 . S
H1042 C1055 0.930 . S
H1043 C1056 0.930 . S
H1044 C1060 0.962 . S
H1045 C1060 0.981 . S
H1046 C1060 0.938 1_554 S
H1047 C1061 0.956 1_554 S
H1048 C1061 0.965 . S
H1049 C1061 0.959 . S
H1050 C1064 0.929 . S
H1051 C1065 0.931 . S
H1052 C1067 0.930 . S
C1053 H1041 0.930 . S
C1053 C1054 1.399 . S
C1053 C1058 1.399 . S
C1054 C1053 1.399 . S
C1054 C1055 1.376 . S
C1055 H1042 0.930 . S
C1055 C1054 1.376 . S
C1055 C1056 1.388 . S
C1056 H1043 0.930 . S
C1056 C1055 1.388 . S
C1056 C1057 1.390 . S
C1057 C1056 1.390 . S
C1057 C1058 1.394 . S
C1057 C1063 1.465 1_554 S
C1058 C1053 1.399 . S
C1058 C1057 1.394 . S
C1058 C1059 1.515 1_554 S
C1059 C1058 1.515 1_556 S
C1059 C1060 1.502 . S
C1059 C1061 1.561 . S
C1059 C1062 1.527 . S
C1060 H1044 0.962 . S
C1060 H1045 0.981 . S
C1060 H1046 0.938 1_556 S
C1060 C1059 1.502 . S
C1061 H1047 0.956 1_556 S
C1061 H1048 0.965 . S
C1061 H1049 0.959 . S
C1061 C1059 1.561 . S
C1062 C1059 1.527 . S
C1062 C1063 1.396 . S
C1062 C1067 1.390 . S
C1063 C1057 1.465 1_556 S
C1063 C1062 1.396 . S
C1063 C1064 1.399 . S
C1064 H1050 0.929 . S
C1064 C1063 1.399 . S
C1064 C1065 1.385 . S
C1065 H1051 0.931 . S
C1065 C1064 1.385 . S
C1065 C1066 1.389 . S
C1066 C1065 1.389 . S
C1066 C1067 1.387 . S
C1067 H1052 0.930 . S
C1067 C1062 1.390 . S
C1067 C1066 1.387 . S
H1068 C1080 0.930 . S
H1069 C1082 0.930 . S
H1070 C1083 0.930 . S
H1071 C1087 0.962 . S
H1072 C1087 0.981 . S
H1073 C1087 0.938 1_554 S
H1074 C1088 0.956 1_554 S
H1075 C1088 0.965 . S
H1076 C1088 0.959 . S
H1077 C1091 0.929 . S
H1078 C1092 0.931 . S
H1079 C1094 0.930 . S
C1080 H1068 0.930 . S
C1080 C1081 1.399 . S
C1080 C1085 1.399 . S
C1081 C1080 1.399 . S
C1081 C1082 1.376 . S
C1082 H1069 0.930 . S
C1082 C1081 1.376 . S
C1082 C1083 1.388 . S
C1083 H1070 0.930 . S
C1083 C1082 1.388 . S
C1083 C1084 1.390 . S
C1084 C1083 1.390 . S
C1084 C1085 1.394 . S
C1084 C1090 1.465 1_554 S
C1085 C1080 1.399 . S
C1085 C1084 1.394 . S
C1085 C1086 1.515 1_554 S
C1086 C1085 1.515 1_556 S
C1086 C1087 1.502 . S
C1086 C1088 1.561 . S
C1086 C1089 1.527 . S
C1087 H1071 0.962 . S
C1087 H1072 0.981 . S
C1087 H1073 0.938 1_556 S
C1087 C1086 1.502 . S
C1088 H1074 0.956 1_556 S
C1088 H1075 0.965 . S
C1088 H1076 0.959 . S
C1088 C1086 1.561 . S
C1089 C1086 1.527 . S
C1089 C1090 1.396 . S
C1089 C1094 1.390 . S
C1090 C1084 1.465 1_556 S
C1090 C1089 1.396 . S
C1090 C1091 1.399 . S
C1091 H1077 0.929 . S
C1091 C1090 1.399 . S
C1091 C1092 1.385 . S
C1092 H1078 0.931 . S
C1092 C1091 1.385 . S
C1092 C1093 1.389 . S
C1093 C1092 1.389 . S
C1093 C1094 1.387 . S
C1094 H1079 0.930 . S
C1094 C1089 1.390 . S
C1094 C1093 1.387 . S
H1095 C1107 0.930 . S
H1096 C1109 0.930 . S
H1097 C1110 0.930 . S
H1098 C1114 0.962 . S
H1099 C1114 0.980 . S
H1100 C1114 0.938 1_556 S
H1101 C1115 0.956 1_556 S
H1102 C1115 0.964 . S
H1103 C1115 0.959 . S
H1104 C1118 0.929 . S
H1105 C1119 0.931 . S
H1106 C1121 0.930 . S
C1107 H1095 0.930 . S
C1107 C1108 1.399 . S
C1107 C1112 1.399 . S
C1108 C1107 1.399 . S
C1108 C1109 1.376 . S
C1109 H1096 0.930 . S
C1109 C1108 1.376 . S
C1109 C1110 1.388 . S
C1110 H1097 0.930 . S
C1110 C1109 1.388 . S
C1110 C1111 1.390 . S
C1111 C1110 1.390 . S
C1111 C1112 1.394 . S
C1111 C1117 1.465 1_556 S
C1112 C1107 1.399 . S
C1112 C1111 1.394 . S
C1112 C1113 1.516 1_556 S
C1113 C1112 1.516 1_554 S
C1113 C1114 1.502 . S
C1113 C1115 1.561 . S
C1113 C1116 1.526 . S
C1114 H1098 0.962 . S
C1114 H1099 0.980 . S
C1114 H1100 0.938 1_554 S
C1114 C1113 1.502 . S
C1115 H1101 0.956 1_554 S
C1115 H1102 0.964 . S
C1115 H1103 0.959 . S
C1115 C1113 1.561 . S
C1116 C1113 1.526 . S
C1116 C1117 1.396 . S
C1116 C1121 1.390 . S
C1117 C1111 1.465 1_554 S
C1117 C1116 1.396 . S
C1117 C1118 1.399 . S
C1118 H1104 0.929 . S
C1118 C1117 1.399 . S
C1118 C1119 1.385 . S
C1119 H1105 0.931 . S
C1119 C1118 1.385 . S
C1119 C1120 1.389 . S
C1120 C1119 1.389 . S
C1120 C1121 1.387 . S
C1121 H1106 0.930 . S
C1121 C1116 1.390 . S
C1121 C1120 1.387 . S
H1122 C1134 0.930 . S
H1123 C1136 0.930 . S
H1124 C1137 0.930 . S
H1125 C1141 0.959 . S
H1126 C1141 0.959 . S
H1127 C1141 0.961 . S
H1128 C1142 0.960 . S
H1129 C1142 0.961 . S
H1130 C1142 0.959 . S
H1131 C1145 0.929 . S
H1132 C1146 0.931 . S
H1133 C1148 0.930 . S
C1134 H1122 0.930 . S
C1134 C1135 1.399 . S
C1134 C1139 1.399 . S
C1135 C1134 1.399 . S
C1135 C1136 1.376 . S
C1136 H1123 0.930 . S
C1136 C1135 1.376 . S
C1136 C1137 1.388 . S
C1137 H1124 0.930 . S
C1137 C1136 1.388 . S
C1137 C1138 1.390 . S
C1138 C1137 1.390 . S
C1138 C1139 1.394 . S
C1138 C1144 1.465 . S
C1139 C1134 1.399 . S
C1139 C1138 1.394 . S
C1139 C1140 1.516 . S
C1140 C1139 1.516 . S
C1140 C1141 1.502 . S
C1140 C1142 1.561 . S
C1140 C1143 1.526 . S
C1141 H1125 0.959 . S
C1141 H1126 0.959 . S
C1141 H1127 0.961 . S
C1141 C1140 1.502 . S
C1142 H1128 0.960 . S
C1142 H1129 0.961 . S
C1142 H1130 0.959 . S
C1142 C1140 1.561 . S
C1143 C1140 1.526 . S
C1143 C1144 1.396 . S
C1143 C1148 1.390 . S
C1144 C1138 1.465 . S
C1144 C1143 1.396 . S
C1144 C1145 1.399 . S
C1145 H1131 0.929 . S
C1145 C1144 1.399 . S
C1145 C1146 1.385 . S
C1146 H1132 0.931 . S
C1146 C1145 1.385 . S
C1146 C1147 1.389 . S
C1147 C1146 1.389 . S
C1147 C1148 1.387 . S
C1148 H1133 0.930 . S
C1148 C1143 1.390 . S
C1148 C1147 1.387 . S
H1149 C1161 0.930 . S
H1150 C1163 0.930 . S
H1151 C1164 0.930 . S
H1152 C1168 0.959 . S
H1153 C1168 0.959 . S
H1154 C1168 0.961 . S
H1155 C1169 0.960 . S
H1156 C1169 0.961 . S
H1157 C1169 0.959 . S
H1158 C1172 0.929 . S
H1159 C1173 0.931 . S
H1160 C1175 0.930 . S
C1161 H1149 0.930 . S
C1161 C1162 1.399 . S
C1161 C1166 1.399 . S
C1162 C1161 1.399 . S
C1162 C1163 1.376 . S
C1163 H1150 0.930 . S
C1163 C1162 1.376 . S
C1163 C1164 1.388 . S
C1164 H1151 0.930 . S
C1164 C1163 1.388 . S
C1164 C1165 1.390 . S
C1165 C1164 1.390 . S
C1165 C1166 1.394 . S
C1165 C1171 1.465 . S
C1166 C1161 1.399 . S
C1166 C1165 1.394 . S
C1166 C1167 1.516 . S
C1167 C1166 1.516 . S
C1167 C1168 1.502 . S
C1167 C1169 1.561 . S
C1167 C1170 1.526 . S
C1168 H1152 0.959 . S
C1168 H1153 0.959 . S
C1168 H1154 0.961 . S
C1168 C1167 1.502 . S
C1169 H1155 0.960 . S
C1169 H1156 0.961 . S
C1169 H1157 0.959 . S
C1169 C1167 1.561 . S
C1170 C1167 1.526 . S
C1170 C1171 1.396 . S
C1170 C1175 1.390 . S
C1171 C1165 1.465 . S
C1171 C1170 1.396 . S
C1171 C1172 1.399 . S
C1172 H1158 0.929 . S
C1172 C1171 1.399 . S
C1172 C1173 1.385 . S
C1173 H1159 0.931 . S
C1173 C1172 1.385 . S
C1173 C1174 1.389 . S
C1174 C1173 1.389 . S
C1174 C1175 1.387 . S
C1175 H1160 0.930 . S
C1175 C1170 1.390 . S
C1175 C1174 1.387 . S
H1176 C1188 0.930 . S
H1177 C1190 0.930 . S
H1178 C1191 0.930 . S
H1179 C1195 0.959 . S
H1180 C1195 0.959 . S
H1181 C1195 0.961 . S
H1182 C1196 0.960 . S
H1183 C1196 0.961 . S
H1184 C1196 0.959 . S
H1185 C1199 0.929 . S
H1186 C1200 0.931 . S
H1187 C1202 0.930 . S
C1188 H1176 0.930 . S
C1188 C1189 1.399 . S
C1188 C1193 1.399 . S
C1189 C1188 1.399 . S
C1189 C1190 1.376 . S
C1190 H1177 0.930 . S
C1190 C1189 1.376 . S
C1190 C1191 1.388 . S
C1191 H1178 0.930 . S
C1191 C1190 1.388 . S
C1191 C1192 1.390 . S
C1192 C1191 1.390 . S
C1192 C1193 1.394 . S
C1192 C1198 1.465 . S
C1193 C1188 1.399 . S
C1193 C1192 1.394 . S
C1193 C1194 1.516 . S
C1194 C1193 1.516 . S
C1194 C1195 1.502 . S
C1194 C1196 1.561 . S
C1194 C1197 1.526 . S
C1195 H1179 0.959 . S
C1195 H1180 0.959 . S
C1195 H1181 0.961 . S
C1195 C1194 1.502 . S
C1196 H1182 0.960 . S
C1196 H1183 0.961 . S
C1196 H1184 0.959 . S
C1196 C1194 1.561 . S
C1197 C1194 1.526 . S
C1197 C1198 1.396 . S
C1197 C1202 1.390 . S
C1198 C1192 1.465 . S
C1198 C1197 1.396 . S
C1198 C1199 1.399 . S
C1199 H1185 0.929 . S
C1199 C1198 1.399 . S
C1199 C1200 1.385 . S
C1200 H1186 0.931 . S
C1200 C1199 1.385 . S
C1200 C1201 1.389 . S
C1201 C1200 1.389 . S
C1201 C1202 1.387 . S
C1202 H1187 0.930 . S
C1202 C1197 1.390 . S
C1202 C1201 1.387 . S
H1203 C1215 0.930 . S
H1204 C1217 0.930 . S
H1205 C1218 0.930 . S
H1206 C1222 0.959 . S
H1207 C1222 0.959 . S
H1208 C1222 0.961 . S
H1209 C1223 0.960 . S
H1210 C1223 0.961 . S
H1211 C1223 0.959 . S
H1212 C1226 0.929 . S
H1213 C1227 0.931 . S
H1214 C1229 0.930 . S
C1215 H1203 0.930 . S
C1215 C1216 1.399 . S
C1215 C1220 1.399 . S
C1216 C1215 1.399 . S
C1216 C1217 1.376 . S
C1217 H1204 0.930 . S
C1217 C1216 1.376 . S
C1217 C1218 1.388 . S
C1218 H1205 0.930 . S
C1218 C1217 1.388 . S
C1218 C1219 1.390 . S
C1219 C1218 1.390 . S
C1219 C1220 1.394 . S
C1219 C1225 1.465 . S
C1220 C1215 1.399 . S
C1220 C1219 1.394 . S
C1220 C1221 1.516 . S
C1221 C1220 1.516 . S
C1221 C1222 1.502 . S
C1221 C1223 1.561 . S
C1221 C1224 1.526 . S
C1222 H1206 0.959 . S
C1222 H1207 0.959 . S
C1222 H1208 0.961 . S
C1222 C1221 1.502 . S
C1223 H1209 0.960 . S
C1223 H1210 0.961 . S
C1223 H1211 0.959 . S
C1223 C1221 1.561 . S
C1224 C1221 1.526 . S
C1224 C1225 1.396 . S
C1224 C1229 1.390 . S
C1225 C1219 1.465 . S
C1225 C1224 1.396 . S
C1225 C1226 1.399 . S
C1226 H1212 0.929 . S
C1226 C1225 1.399 . S
C1226 C1227 1.385 . S
C1227 H1213 0.931 . S
C1227 C1226 1.385 . S
C1227 C1228 1.389 . S
C1228 C1227 1.389 . S
C1228 C1229 1.387 . S
C1229 H1214 0.930 . S
C1229 C1224 1.390 . S
C1229 C1228 1.387 . S
H1230 C1242 0.930 . S
H1231 C1244 0.930 . S
H1232 C1245 0.930 . S
H1233 C1249 0.959 . S
H1234 C1249 0.959 . S
H1235 C1249 0.961 . S
H1236 C1250 0.960 . S
H1237 C1250 0.961 . S
H1238 C1250 0.959 . S
H1239 C1253 0.929 . S
H1240 C1254 0.931 . S
H1241 C1256 0.930 . S
C1242 H1230 0.930 . S
C1242 C1243 1.399 . S
C1242 C1247 1.399 . S
C1243 C1242 1.399 . S
C1243 C1244 1.376 . S
C1244 H1231 0.930 . S
C1244 C1243 1.376 . S
C1244 C1245 1.388 . S
C1245 H1232 0.930 . S
C1245 C1244 1.388 . S
C1245 C1246 1.390 . S
C1246 C1245 1.390 . S
C1246 C1247 1.394 . S
C1246 C1252 1.465 . S
C1247 C1242 1.399 . S
C1247 C1246 1.394 . S
C1247 C1248 1.516 . S
C1248 C1247 1.516 . S
C1248 C1249 1.502 . S
C1248 C1250 1.561 . S
C1248 C1251 1.526 . S
C1249 H1233 0.959 . S
C1249 H1234 0.959 . S
C1249 H1235 0.961 . S
C1249 C1248 1.502 . S
C1250 H1236 0.960 . S
C1250 H1237 0.961 . S
C1250 H1238 0.959 . S
C1250 C1248 1.561 . S
C1251 C1248 1.526 . S
C1251 C1252 1.396 . S
C1251 C1256 1.390 . S
C1252 C1246 1.465 . S
C1252 C1251 1.396 . S
C1252 C1253 1.399 . S
C1253 H1239 0.929 . S
C1253 C1252 1.399 . S
C1253 C1254 1.385 . S
C1254 H1240 0.931 . S
C1254 C1253 1.385 . S
C1254 C1255 1.389 . S
C1255 C1254 1.389 . S
C1255 C1256 1.387 . S
C1256 H1241 0.930 . S
C1256 C1251 1.390 . S
C1256 C1255 1.387 . S
H1257 C1269 0.930 . S
H1258 C1271 0.930 . S
H1259 C1272 0.930 . S
H1260 C1276 0.959 . S
H1261 C1276 0.959 . S
H1262 C1276 0.961 . S
H1263 C1277 0.960 . S
H1264 C1277 0.961 . S
H1265 C1277 0.959 . S
H1266 C1280 0.929 . S
H1267 C1281 0.931 . S
H1268 C1283 0.930 . S
C1269 H1257 0.930 . S
C1269 C1270 1.399 . S
C1269 C1274 1.399 . S
C1270 C1269 1.399 . S
C1270 C1271 1.376 . S
C1271 H1258 0.930 . S
C1271 C1270 1.376 . S
C1271 C1272 1.388 . S
C1272 H1259 0.930 . S
C1272 C1271 1.388 . S
C1272 C1273 1.390 . S
C1273 C1272 1.390 . S
C1273 C1274 1.394 . S
C1273 C1279 1.465 . S
C1274 C1269 1.399 . S
C1274 C1273 1.394 . S
C1274 C1275 1.516 . S
C1275 C1274 1.516 . S
C1275 C1276 1.502 . S
C1275 C1277 1.561 . S
C1275 C1278 1.526 . S
C1276 H1260 0.959 . S
C1276 H1261 0.959 . S
C1276 H1262 0.961 . S
C1276 C1275 1.502 . S
C1277 H1263 0.960 . S
C1277 H1264 0.961 . S
C1277 H1265 0.959 . S
C1277 C1275 1.561 . S
C1278 C1275 1.526 . S
C1278 C1279 1.396 . S
C1278 C1283 1.390 . S
C1279 C1273 1.465 . S
C1279 C1278 1.396 . S
C1279 C1280 1.399 . S
C1280 H1266 0.929 . S
C1280 C1279 1.399 . S
C1280 C1281 1.385 . S
C1281 H1267 0.931 . S
C1281 C1280 1.385 . S
C1281 C1282 1.389 . S
C1282 C1281 1.389 . S
C1282 C1283 1.387 . S
C1283 H1268 0.930 . S
C1283 C1278 1.390 . S
C1283 C1282 1.387 . S
H1284 C1296 0.930 . S
H1285 C1298 0.930 . S
H1286 C1299 0.930 . S
H1287 C1303 0.959 . S
H1288 C1303 0.959 . S
H1289 C1303 0.961 . S
H1290 C1304 0.960 . S
H1291 C1304 0.961 . S
H1292 C1304 0.959 . S
H1293 C1307 0.929 . S
H1294 C1308 0.931 . S
H1295 C1310 0.930 . S
C1296 H1284 0.930 . S
C1296 C1297 1.399 . S
C1296 C1301 1.399 . S
C1297 C1296 1.399 . S
C1297 C1298 1.376 . S
C1298 H1285 0.930 . S
C1298 C1297 1.376 . S
C1298 C1299 1.388 . S
C1299 H1286 0.930 . S
C1299 C1298 1.388 . S
C1299 C1300 1.390 . S
C1300 C1299 1.390 . S
C1300 C1301 1.394 . S
C1300 C1306 1.465 . S
C1301 C1296 1.399 . S
C1301 C1300 1.394 . S
C1301 C1302 1.516 . S
C1302 C1301 1.516 . S
C1302 C1303 1.502 . S
C1302 C1304 1.561 . S
C1302 C1305 1.526 . S
C1303 H1287 0.959 . S
C1303 H1288 0.959 . S
C1303 H1289 0.961 . S
C1303 C1302 1.502 . S
C1304 H1290 0.960 . S
C1304 H1291 0.961 . S
C1304 H1292 0.959 . S
C1304 C1302 1.561 . S
C1305 C1302 1.526 . S
C1305 C1306 1.396 . S
C1305 C1310 1.390 . S
C1306 C1300 1.465 . S
C1306 C1305 1.396 . S
C1306 C1307 1.399 . S
C1307 H1293 0.929 . S
C1307 C1306 1.399 . S
C1307 C1308 1.385 . S
C1308 H1294 0.931 . S
C1308 C1307 1.385 . S
C1308 C1309 1.389 . S
C1309 C1308 1.389 . S
C1309 C1310 1.387 . S
C1310 H1295 0.930 . S
C1310 C1305 1.390 . S
C1310 C1309 1.387 . S
H1311 C1323 0.930 . S
H1312 C1325 0.930 . S
H1313 C1326 0.930 . S
H1314 C1330 0.959 . S
H1315 C1330 0.959 . S
H1316 C1330 0.961 . S
H1317 C1331 0.960 . S
H1318 C1331 0.961 . S
H1319 C1331 0.959 . S
H1320 C1334 0.929 . S
H1321 C1335 0.931 . S
H1322 C1337 0.930 . S
C1323 H1311 0.930 . S
C1323 C1324 1.399 . S
C1323 C1328 1.399 . S
C1324 C1323 1.399 . S
C1324 C1325 1.376 . S
C1325 H1312 0.930 . S
C1325 C1324 1.376 . S
C1325 C1326 1.388 . S
C1326 H1313 0.930 . S
C1326 C1325 1.388 . S
C1326 C1327 1.390 . S
C1327 C1326 1.390 . S
C1327 C1328 1.394 . S
C1327 C1333 1.465 . S
C1328 C1323 1.399 . S
C1328 C1327 1.394 . S
C1328 C1329 1.516 . S
C1329 C1328 1.516 . S
C1329 C1330 1.502 . S
C1329 C1331 1.561 . S
C1329 C1332 1.526 . S
C1330 H1314 0.959 . S
C1330 H1315 0.959 . S
C1330 H1316 0.961 . S
C1330 C1329 1.502 . S
C1331 H1317 0.960 . S
C1331 H1318 0.961 . S
C1331 H1319 0.959 . S
C1331 C1329 1.561 . S
C1332 C1329 1.526 . S
C1332 C1333 1.396 . S
C1332 C1337 1.390 . S
C1333 C1327 1.465 . S
C1333 C1332 1.396 . S
C1333 C1334 1.399 . S
C1334 H1320 0.929 . S
C1334 C1333 1.399 . S
C1334 C1335 1.385 . S
C1335 H1321 0.931 . S
C1335 C1334 1.385 . S
C1335 C1336 1.389 . S
C1336 C1335 1.389 . S
C1336 C1337 1.387 . S
C1337 H1322 0.930 . S
C1337 C1332 1.390 . S
C1337 C1336 1.387 . S
H1338 C1350 0.930 . S
H1339 C1352 0.930 . S
H1340 C1353 0.930 . S
H1341 C1357 0.959 . S
H1342 C1357 0.959 . S
H1343 C1357 0.961 . S
H1344 C1358 0.960 . S
H1345 C1358 0.961 . S
H1346 C1358 0.959 . S
H1347 C1361 0.929 . S
H1348 C1362 0.931 . S
H1349 C1364 0.930 . S
C1350 H1338 0.930 . S
C1350 C1351 1.399 . S
C1350 C1355 1.399 . S
C1351 C1350 1.399 . S
C1351 C1352 1.376 . S
C1352 H1339 0.930 . S
C1352 C1351 1.376 . S
C1352 C1353 1.388 . S
C1353 H1340 0.930 . S
C1353 C1352 1.388 . S
C1353 C1354 1.390 . S
C1354 C1353 1.390 . S
C1354 C1355 1.394 . S
C1354 C1360 1.465 . S
C1355 C1350 1.399 . S
C1355 C1354 1.394 . S
C1355 C1356 1.516 . S
C1356 C1355 1.516 . S
C1356 C1357 1.502 . S
C1356 C1358 1.561 . S
C1356 C1359 1.526 . S
C1357 H1341 0.959 . S
C1357 H1342 0.959 . S
C1357 H1343 0.961 . S
C1357 C1356 1.502 . S
C1358 H1344 0.960 . S
C1358 H1345 0.961 . S
C1358 H1346 0.959 . S
C1358 C1356 1.561 . S
C1359 C1356 1.526 . S
C1359 C1360 1.396 . S
C1359 C1364 1.390 . S
C1360 C1354 1.465 . S
C1360 C1359 1.396 . S
C1360 C1361 1.399 . S
C1361 H1347 0.929 . S
C1361 C1360 1.399 . S
C1361 C1362 1.385 . S
C1362 H1348 0.931 . S
C1362 C1361 1.385 . S
C1362 C1363 1.389 . S
C1363 C1362 1.389 . S
C1363 C1364 1.387 . S
C1364 H1349 0.930 . S
C1364 C1359 1.390 . S
C1364 C1363 1.387 . S
H1365 C1377 0.930 . S
H1366 C1379 0.930 . S
H1367 C1380 0.930 . S
H1368 C1384 0.959 . S
H1369 C1384 0.959 . S
H1370 C1384 0.961 . S
H1371 C1385 0.960 . S
H1372 C1385 0.961 . S
H1373 C1385 0.959 . S
H1374 C1388 0.929 . S
H1375 C1389 0.931 . S
H1376 C1391 0.930 . S
C1377 H1365 0.930 . S
C1377 C1378 1.399 . S
C1377 C1382 1.399 . S
C1378 C1377 1.399 . S
C1378 C1379 1.376 . S
C1379 H1366 0.930 . S
C1379 C1378 1.376 . S
C1379 C1380 1.388 . S
C1380 H1367 0.930 . S
C1380 C1379 1.388 . S
C1380 C1381 1.390 . S
C1381 C1380 1.390 . S
C1381 C1382 1.394 . S
C1381 C1387 1.465 . S
C1382 C1377 1.399 . S
C1382 C1381 1.394 . S
C1382 C1383 1.516 . S
C1383 C1382 1.516 . S
C1383 C1384 1.502 . S
C1383 C1385 1.561 . S
C1383 C1386 1.526 . S
C1384 H1368 0.959 . S
C1384 H1369 0.959 . S
C1384 H1370 0.961 . S
C1384 C1383 1.502 . S
C1385 H1371 0.960 . S
C1385 H1372 0.961 . S
C1385 H1373 0.959 . S
C1385 C1383 1.561 . S
C1386 C1383 1.526 . S
C1386 C1387 1.396 . S
C1386 C1391 1.390 . S
C1387 C1381 1.465 . S
C1387 C1386 1.396 . S
C1387 C1388 1.399 . S
C1388 H1374 0.929 . S
C1388 C1387 1.399 . S
C1388 C1389 1.385 . S
C1389 H1375 0.931 . S
C1389 C1388 1.385 . S
C1389 C1390 1.389 . S
C1390 C1389 1.389 . S
C1390 C1391 1.387 . S
C1391 H1376 0.930 . S
C1391 C1386 1.390 . S
C1391 C1390 1.387 . S
H1392 C1404 0.930 . S
H1393 C1406 0.930 . S
H1394 C1407 0.930 . S
H1395 C1411 0.959 . S
H1396 C1411 0.959 . S
H1397 C1411 0.961 . S
H1398 C1412 0.960 . S
H1399 C1412 0.961 . S
H1400 C1412 0.959 . S
H1401 C1415 0.929 . S
H1402 C1416 0.931 . S
H1403 C1418 0.930 . S
C1404 H1392 0.930 . S
C1404 C1405 1.399 . S
C1404 C1409 1.399 . S
C1405 C1404 1.399 . S
C1405 C1406 1.376 . S
C1406 H1393 0.930 . S
C1406 C1405 1.376 . S
C1406 C1407 1.388 . S
C1407 H1394 0.930 . S
C1407 C1406 1.388 . S
C1407 C1408 1.390 . S
C1408 C1407 1.390 . S
C1408 C1409 1.394 . S
C1408 C1414 1.465 . S
C1409 C1404 1.399 . S
C1409 C1408 1.394 . S
C1409 C1410 1.516 . S
C1410 C1409 1.516 . S
C1410 C1411 1.502 . S
C1410 C1412 1.561 . S
C1410 C1413 1.526 . S
C1411 H1395 0.959 . S
C1411 H1396 0.959 . S
C1411 H1397 0.961 . S
C1411 C1410 1.502 . S
C1412 H1398 0.960 . S
C1412 H1399 0.961 . S
C1412 H1400 0.959 . S
C1412 C1410 1.561 . S
C1413 C1410 1.526 . S
C1413 C1414 1.396 . S
C1413 C1418 1.390 . S
C1414 C1408 1.465 . S
C1414 C1413 1.396 . S
C1414 C1415 1.399 . S
C1415 H1401 0.929 . S
C1415 C1414 1.399 . S
C1415 C1416 1.385 . S
C1416 H1402 0.931 . S
C1416 C1415 1.385 . S
C1416 C1417 1.389 . S
C1417 C1416 1.389 . S
C1417 C1418 1.387 . S
C1418 H1403 0.930 . S
C1418 C1413 1.390 . S
C1418 C1417 1.387 . S
H1419 C1431 0.930 . S
H1420 C1433 0.930 . S
H1421 C1434 0.930 . S
H1422 C1438 0.959 . S
H1423 C1438 0.959 . S
H1424 C1438 0.961 . S
H1425 C1439 0.960 . S
H1426 C1439 0.961 . S
H1427 C1439 0.959 . S
H1428 C1442 0.929 . S
H1429 C1443 0.931 . S
H1430 C1445 0.930 . S
C1431 H1419 0.930 . S
C1431 C1432 1.399 . S
C1431 C1436 1.399 . S
C1432 C1431 1.399 . S
C1432 C1433 1.376 . S
C1433 H1420 0.930 . S
C1433 C1432 1.376 . S
C1433 C1434 1.388 . S
C1434 H1421 0.930 . S
C1434 C1433 1.388 . S
C1434 C1435 1.390 . S
C1435 C1434 1.390 . S
C1435 C1436 1.394 . S
C1435 C1441 1.465 . S
C1436 C1431 1.399 . S
C1436 C1435 1.394 . S
C1436 C1437 1.516 . S
C1437 C1436 1.516 . S
C1437 C1438 1.502 . S
C1437 C1439 1.561 . S
C1437 C1440 1.526 . S
C1438 H1422 0.959 . S
C1438 H1423 0.959 . S
C1438 H1424 0.961 . S
C1438 C1437 1.502 . S
C1439 H1425 0.960 . S
C1439 H1426 0.961 . S
C1439 H1427 0.959 . S
C1439 C1437 1.561 . S
C1440 C1437 1.526 . S
C1440 C1441 1.396 . S
C1440 C1445 1.390 . S
C1441 C1435 1.465 . S
C1441 C1440 1.396 . S
C1441 C1442 1.399 . S
C1442 H1428 0.929 . S
C1442 C1441 1.399 . S
C1442 C1443 1.385 . S
C1443 H1429 0.931 . S
C1443 C1442 1.385 . S
C1443 C1444 1.389 . S
C1444 C1443 1.389 . S
C1444 C1445 1.387 . S
C1445 H1430 0.930 . S
C1445 C1440 1.390 . S
C1445 C1444 1.387 . S
H1446 C1458 0.930 . S
H1447 C1460 0.930 . S
H1448 C1461 0.930 . S
H1449 C1465 0.959 . S
H1450 C1465 0.959 . S
H1451 C1465 0.961 . S
H1452 C1466 0.960 . S
H1453 C1466 0.961 . S
H1454 C1466 0.959 . S
H1455 C1469 0.929 . S
H1456 C1470 0.931 . S
H1457 C1472 0.930 . S
C1458 H1446 0.930 . S
C1458 C1459 1.399 . S
C1458 C1463 1.399 . S
C1459 C1458 1.399 . S
C1459 C1460 1.376 . S
C1460 H1447 0.930 . S
C1460 C1459 1.376 . S
C1460 C1461 1.388 . S
C1461 H1448 0.930 . S
C1461 C1460 1.388 . S
C1461 C1462 1.390 . S
C1462 C1461 1.390 . S
C1462 C1463 1.394 . S
C1462 C1468 1.465 . S
C1463 C1458 1.399 . S
C1463 C1462 1.394 . S
C1463 C1464 1.516 . S
C1464 C1463 1.516 . S
C1464 C1465 1.502 . S
C1464 C1466 1.561 . S
C1464 C1467 1.526 . S
C1465 H1449 0.959 . S
C1465 H1450 0.959 . S
C1465 H1451 0.961 . S
C1465 C1464 1.502 . S
C1466 H1452 0.960 . S
C1466 H1453 0.961 . S
C1466 H1454 0.959 . S
C1466 C1464 1.561 . S
C1467 C1464 1.526 . S
C1467 C1468 1.396 . S
C1467 C1472 1.390 . S
C1468 C1462 1.465 . S
C1468 C1467 1.396 . S
C1468 C1469 1.399 . S
C1469 H1455 0.929 . S
C1469 C1468 1.399 . S
C1469 C1470 1.385 . S
C1470 H1456 0.931 . S
C1470 C1469 1.385 . S
C1470 C1471 1.389 . S
C1471 C1470 1.389 . S
C1471 C1472 1.387 . S
C1472 H1457 0.930 . S
C1472 C1467 1.390 . S
C1472 C1471 1.387 . S
H1473 C1485 0.930 . S
H1474 C1487 0.930 . S
H1475 C1488 0.930 . S
H1476 C1492 0.959 . S
H1477 C1492 0.959 . S
H1478 C1492 0.961 . S
H1479 C1493 0.960 . S
H1480 C1493 0.961 . S
H1481 C1493 0.959 . S
H1482 C1496 0.929 . S
H1483 C1497 0.931 . S
H1484 C1499 0.930 . S
C1485 H1473 0.930 . S
C1485 C1486 1.399 . S
C1485 C1490 1.399 . S
C1486 C1485 1.399 . S
C1486 C1487 1.376 . S
C1487 H1474 0.930 . S
C1487 C1486 1.376 . S
C1487 C1488 1.388 . S
C1488 H1475 0.930 . S
C1488 C1487 1.388 . S
C1488 C1489 1.390 . S
C1489 C1488 1.390 . S
C1489 C1490 1.394 . S
C1489 C1495 1.465 . S
C1490 C1485 1.399 . S
C1490 C1489 1.394 . S
C1490 C1491 1.516 . S
C1491 C1490 1.516 . S
C1491 C1492 1.502 . S
C1491 C1493 1.561 . S
C1491 C1494 1.526 . S
C1492 H1476 0.959 . S
C1492 H1477 0.959 . S
C1492 H1478 0.961 . S
C1492 C1491 1.502 . S
C1493 H1479 0.960 . S
C1493 H1480 0.961 . S
C1493 H1481 0.959 . S
C1493 C1491 1.561 . S
C1494 C1491 1.526 . S
C1494 C1495 1.396 . S
C1494 C1499 1.390 . S
C1495 C1489 1.465 . S
C1495 C1494 1.396 . S
C1495 C1496 1.399 . S
C1496 H1482 0.929 . S
C1496 C1495 1.399 . S
C1496 C1497 1.385 . S
C1497 H1483 0.931 . S
C1497 C1496 1.385 . S
C1497 C1498 1.389 . S
C1498 C1497 1.389 . S
C1498 C1499 1.387 . S
C1499 H1484 0.930 . S
C1499 C1494 1.390 . S
C1499 C1498 1.387 . S
H1500 C1512 0.930 . S
H1501 C1514 0.930 . S
H1502 C1515 0.930 . S
H1503 C1519 0.959 . S
H1504 C1519 0.959 . S
H1505 C1519 0.961 . S
H1506 C1520 0.960 . S
H1507 C1520 0.961 . S
H1508 C1520 0.959 . S
H1509 C1523 0.929 . S
H1510 C1524 0.931 . S
H1511 C1526 0.930 . S
C1512 H1500 0.930 . S
C1512 C1513 1.399 . S
C1512 C1517 1.399 . S
C1513 C1512 1.399 . S
C1513 C1514 1.376 . S
C1514 H1501 0.930 . S
C1514 C1513 1.376 . S
C1514 C1515 1.388 . S
C1515 H1502 0.930 . S
C1515 C1514 1.388 . S
C1515 C1516 1.390 . S
C1516 C1515 1.390 . S
C1516 C1517 1.394 . S
C1516 C1522 1.465 . S
C1517 C1512 1.399 . S
C1517 C1516 1.394 . S
C1517 C1518 1.516 . S
C1518 C1517 1.516 . S
C1518 C1519 1.502 . S
C1518 C1520 1.561 . S
C1518 C1521 1.526 . S
C1519 H1503 0.959 . S
C1519 H1504 0.959 . S
C1519 H1505 0.961 . S
C1519 C1518 1.502 . S
C1520 H1506 0.960 . S
C1520 H1507 0.961 . S
C1520 H1508 0.959 . S
C1520 C1518 1.561 . S
C1521 C1518 1.526 . S
C1521 C1522 1.396 . S
C1521 C1526 1.390 . S
C1522 C1516 1.465 . S
C1522 C1521 1.396 . S
C1522 C1523 1.399 . S
C1523 H1509 0.929 . S
C1523 C1522 1.399 . S
C1523 C1524 1.385 . S
C1524 H1510 0.931 . S
C1524 C1523 1.385 . S
C1524 C1525 1.389 . S
C1525 C1524 1.389 . S
C1525 C1526 1.387 . S
C1526 H1511 0.930 . S
C1526 C1521 1.390 . S
C1526 C1525 1.387 . S
H1527 C1539 0.930 . S
H1528 C1541 0.930 . S
H1529 C1542 0.930 . S
H1530 C1546 0.959 . S
H1531 C1546 0.959 . S
H1532 C1546 0.961 . S
H1533 C1547 0.960 . S
H1534 C1547 0.961 . S
H1535 C1547 0.959 . S
H1536 C1550 0.929 . S
H1537 C1551 0.931 . S
H1538 C1553 0.930 . S
C1539 H1527 0.930 . S
C1539 C1540 1.399 . S
C1539 C1544 1.399 . S
C1540 C1539 1.399 . S
C1540 C1541 1.376 . S
C1541 H1528 0.930 . S
C1541 C1540 1.376 . S
C1541 C1542 1.388 . S
C1542 H1529 0.930 . S
C1542 C1541 1.388 . S
C1542 C1543 1.390 . S
C1543 C1542 1.390 . S
C1543 C1544 1.394 . S
C1543 C1549 1.465 . S
C1544 C1539 1.399 . S
C1544 C1543 1.394 . S
C1544 C1545 1.516 . S
C1545 C1544 1.516 . S
C1545 C1546 1.502 . S
C1545 C1547 1.561 . S
C1545 C1548 1.526 . S
C1546 H1530 0.959 . S
C1546 H1531 0.959 . S
C1546 H1532 0.961 . S
C1546 C1545 1.502 . S
C1547 H1533 0.960 . S
C1547 H1534 0.961 . S
C1547 H1535 0.959 . S
C1547 C1545 1.561 . S
C1548 C1545 1.526 . S
C1548 C1549 1.396 . S
C1548 C1553 1.390 . S
C1549 C1543 1.465 . S
C1549 C1548 1.396 . S
C1549 C1550 1.399 . S
C1550 H1536 0.929 . S
C1550 C1549 1.399 . S
C1550 C1551 1.385 . S
C1551 H1537 0.931 . S
C1551 C1550 1.385 . S
C1551 C1552 1.389 . S
C1552 C1551 1.389 . S
C1552 C1553 1.387 . S
C1553 H1538 0.930 . S
C1553 C1548 1.390 . S
C1553 C1552 1.387 . S
H1554 C1566 0.930 . S
H1555 C1568 0.930 . S
H1556 C1569 0.930 . S
H1557 C1573 0.959 . S
H1558 C1573 0.959 . S
H1559 C1573 0.961 . S
H1560 C1574 0.960 . S
H1561 C1574 0.961 . S
H1562 C1574 0.959 . S
H1563 C1577 0.929 . S
H1564 C1578 0.931 . S
H1565 C1580 0.930 . S
C1566 H1554 0.930 . S
C1566 C1567 1.399 . S
C1566 C1571 1.399 . S
C1567 C1566 1.399 . S
C1567 C1568 1.376 . S
C1568 H1555 0.930 . S
C1568 C1567 1.376 . S
C1568 C1569 1.388 . S
C1569 H1556 0.930 . S
C1569 C1568 1.388 . S
C1569 C1570 1.390 . S
C1570 C1569 1.390 . S
C1570 C1571 1.394 . S
C1570 C1576 1.465 . S
C1571 C1566 1.399 . S
C1571 C1570 1.394 . S
C1571 C1572 1.516 . S
C1572 C1571 1.516 . S
C1572 C1573 1.502 . S
C1572 C1574 1.561 . S
C1572 C1575 1.526 . S
C1573 H1557 0.959 . S
C1573 H1558 0.959 . S
C1573 H1559 0.961 . S
C1573 C1572 1.502 . S
C1574 H1560 0.960 . S
C1574 H1561 0.961 . S
C1574 H1562 0.959 . S
C1574 C1572 1.561 . S
C1575 C1572 1.526 . S
C1575 C1576 1.396 . S
C1575 C1580 1.390 . S
C1576 C1570 1.465 . S
C1576 C1575 1.396 . S
C1576 C1577 1.399 . S
C1577 H1563 0.929 . S
C1577 C1576 1.399 . S
C1577 C1578 1.385 . S
C1578 H1564 0.931 . S
C1578 C1577 1.385 . S
C1578 C1579 1.389 . S
C1579 C1578 1.389 . S
C1579 C1580 1.387 . S
C1580 H1565 0.930 . S
C1580 C1575 1.390 . S
C1580 C1579 1.387 . S
H1581 C1593 0.930 . S
H1582 C1595 0.930 . S
H1583 C1596 0.930 . S
H1584 C1600 0.959 . S
H1585 C1600 0.959 . S
H1586 C1600 0.961 . S
H1587 C1601 0.960 . S
H1588 C1601 0.961 . S
H1589 C1601 0.959 . S
H1590 C1604 0.929 . S
H1591 C1605 0.931 . S
H1592 C1607 0.930 . S
C1593 H1581 0.930 . S
C1593 C1594 1.399 . S
C1593 C1598 1.399 . S
C1594 C1593 1.399 . S
C1594 C1595 1.376 . S
C1595 H1582 0.930 . S
C1595 C1594 1.376 . S
C1595 C1596 1.388 . S
C1596 H1583 0.930 . S
C1596 C1595 1.388 . S
C1596 C1597 1.390 . S
C1597 C1596 1.390 . S
C1597 C1598 1.394 . S
C1597 C1603 1.465 . S
C1598 C1593 1.399 . S
C1598 C1597 1.394 . S
C1598 C1599 1.516 . S
C1599 C1598 1.516 . S
C1599 C1600 1.502 . S
C1599 C1601 1.561 . S
C1599 C1602 1.526 . S
C1600 H1584 0.959 . S
C1600 H1585 0.959 . S
C1600 H1586 0.961 . S
C1600 C1599 1.502 . S
C1601 H1587 0.960 . S
C1601 H1588 0.961 . S
C1601 H1589 0.959 . S
C1601 C1599 1.561 . S
C1602 C1599 1.526 . S
C1602 C1603 1.396 . S
C1602 C1607 1.390 . S
C1603 C1597 1.465 . S
C1603 C1602 1.396 . S
C1603 C1604 1.399 . S
C1604 H1590 0.929 . S
C1604 C1603 1.399 . S
C1604 C1605 1.385 . S
C1605 H1591 0.931 . S
C1605 C1604 1.385 . S
C1605 C1606 1.389 . S
C1606 C1605 1.389 . S
C1606 C1607 1.387 . S
C1607 H1592 0.930 . S
C1607 C1602 1.390 . S
C1607 C1606 1.387 . S
C325 C5 1.234 . S
C337 C96 1.236 . S
C352 C109 1.234 . S
C364 C18 1.236 . S
C379 C31 1.241 . S
C391 C122 1.243 . S
C406 C44 1.234 . S
C418 C135 1.236 . S
C433 C148 1.192 . S
C445 C57 1.194 . S
C460 C70 1.249 . S
C472 C83 1.247 . S
C487 C161 1.285 . S
C499 C252 1.266 . S
C514 C174 1.231 . S
C526 C265 1.259 . S
C541 C278 1.224 . S
C553 C187 1.252 . S
C568 C200 1.273 . S
C580 C291 1.248 . S
C595 C213 1.196 . S
C607 C304 1.217 . S
C622 C239 1.249 . S
C634 C226 1.274 . S
C649 C0 1.250 . S
C661 C104 1.260 . S
C676 C117 1.266 . S
C688 C13 1.257 . S
C703 C130 1.215 . S
C715 C26 1.204 . S
C730 C39 1.252 . S
C742 C143 1.261 . S
C757 C52 1.254 . S
C769 C78 1.243 . S
C784 C65 1.205 . S
C796 C91 1.197 . S
C811 C260 1.195 . S
C823 C156 1.225 . S
C838 C169 1.252 . S
C850 C273 1.271 . S
C865 C286 1.252 . S
C877 C182 1.271 . S
C892 C299 1.211 . S
C904 C195 1.248 . S
C919 C234 1.237 . S
C931 C208 1.266 . S
C946 C221 1.270 . S
C958 C247 1.246 . S
C973 C8 1.460 . S
C985 C203 1.456 . S
C1000 C216 1.470 . S
C1012 C21 1.480 . S
C1027 C229 1.509 . S
C1039 C34 1.507 . S
C1054 C47 1.461 . S
C1066 C164 1.456 . S
C1081 C60 1.497 . S
C1093 C177 1.503 . S
C1108 C190 1.452 . S
C1120 C73 1.456 . S
C1135 C281 1.495 . S
C1147 C86 1.486 . S
C1162 C294 1.499 . S
C1174 C99 1.505 . S
C1189 C307 1.452 . S
C1201 C112 1.455 . S
C1216 C242 1.491 . S
C1228 C125 1.482 . S
C1243 C138 1.460 . S
C1255 C255 1.456 . S
C1270 C151 1.487 . S
C1282 C268 1.478 . S
C1297 C10 1.531 . S
C1309 C140 1.497 . S
C1324 C153 1.532 . S
C1336 C23 1.501 . S
C1351 C88 1.525 . S
C1363 C36 1.497 . S
C1378 C49 1.512 . S
C1390 C101 1.506 . S
C1405 C62 1.496 . S
C1417 C114 1.525 . S
C1432 C75 1.496 . S
C1444 C127 1.529 . S
C1459 C166 1.497 . S
C1471 C296 1.512 . S
C1486 C179 1.515 . S
C1498 C309 1.497 . S
C1513 C192 1.520 . S
C1525 C244 1.496 . S
C1540 C257 1.529 . S
C1552 C205 1.500 . S
C1567 C218 1.512 . S
C1579 C270 1.498 . S
C1594 C231 1.523 . S
C1606 C283 1.497 . S
