# Generated by pormake.
# Topology sxc, (6)-cn, num edge types: 1
# Building blocks:
#     Node 0, Type 0, BuildingBlock: PAMTOO_clean_sbu_0, # of connection points: 6
#     Node 1, Type 0, BuildingBlock: PAMTOO_clean_sbu_0, # of connection points: 6
#     Node 2, Type 0, BuildingBlock: PAMTOO_clean_sbu_0, # of connection points: 6
#     Edge 3, Type (0, 0), BuildingBlock: MIFKUJ_clean_linker_0, # of connection points: 2
#     Edge 4, Type (0, 0), BuildingBlock: MIFKUJ_clean_linker_0, # of connection points: 2
#     Edge 5, Type (0, 0), BuildingBlock: MIFKUJ_clean_linker_0, # of connection points: 2
#     Edge 6, Type (0, 0), BuildingBlock: MIFKUJ_clean_linker_0, # of connection points: 2
#     Edge 7, Type (0, 0), BuildingBlock: MIFKUJ_clean_linker_0, # of connection points: 2
#     Edge 8, Type (0, 0), BuildingBlock: MIFKUJ_clean_linker_0, # of connection points: 2
#     Edge 9, Type (0, 0), BuildingBlock: MIFKUJ_clean_linker_0, # of connection points: 2
#     Edge 10, Type (0, 0), BuildingBlock: MIFKUJ_clean_linker_0, # of connection points: 2
#     Edge 11, Type (0, 0), BuildingBlock: MIFKUJ_clean_linker_0, # of connection points: 2
# Relax obj value: 0.224
# Max RMSD: 0.106
# Mean RMSD: 0.086
data_MOF--net-sxc--node1-PAMTOO_clean_sbu_0--edge1-MIFKUJ_clean_linker_0
_symmetry_space_group_name_H-M    P1
_symmetry_Int_Tables_number       1
_symmetry_cell_setting            triclinic
loop_
_symmetry_equiv_pos_as_xyz
'x, y, z'
_cell_length_a     22.655279
_cell_length_b     20.679596
_cell_length_c     59.657252
_cell_angle_alpha  93.706246
_cell_angle_beta   96.517174
_cell_angle_gamma 99.307304
loop_
_atom_site_label
_atom_site_type_symbol
_atom_site_fract_x
_atom_site_fract_y
_atom_site_fract_z
_atom_type_partial_charge
Dy0 Dy 1.06847 0.06027 0.9769 0.0
Dy1 Dy 0.21392 0.0857 0.98066 0.0
C2 C 0.14731 0.07883 0.02494 0.0
O3 O 0.09467 0.17225 0.97765 0.0
O4 O 0.19806 0.19096 0.97973 0.0
O5 O 0.99168 0.08969 -0.00959 0.0
O6 O 0.97862 1.01761 0.96147 0.0
O7 O 0.18541 0.09894 0.94431 0.0
O8 O 0.08532 0.05242 0.94075 0.0
O9 O 0.1886 0.97365 0.97822 0.0
O10 O 0.08608 0.95545 0.97879 0.0
O11 O 0.29689 0.09102 0.96581 0.0
O12 O 0.29866 0.09474 0.00218 0.0
C13 C 0.14648 0.21331 0.97866 0.0
O14 O 0.10069 0.04353 0.01242 0.0
O15 O 0.19135 0.11089 0.01549 0.0
C16 C 0.91294 1.0004 -0.01129 0.0
C17 C 0.83999 0.89896 0.00673 0.0
C18 C 0.9002 0.91976 0.01625 0.0
C19 C 0.93648 0.96989 0.00723 0.0
C20 C 0.8521 0.98245 0.97995 0.0
C21 C 0.8157 0.93203 -0.01106 0.0
C22 C 0.95339 0.0456 0.9772 0.0
C23 C 0.13367 0.07657 0.93186 0.0
C24 C 0.13733 0.9328 0.97849 0.0
C25 C 0.37568 0.16278 -0.01194 0.0
C26 C 0.45823 0.28091 -0.00301 0.0
C27 C 0.4029 0.27887 -0.01656 0.0
C28 C 0.36184 0.22038 0.97912 0.0
C29 C 0.43118 0.16407 0.00119 0.0
C30 C 0.4723 0.22279 0.00563 0.0
C31 C 0.33025 0.10306 -0.01463 0.0
H32 H 0.91986 0.89548 0.03008 0.0
H33 H 0.98356 0.98297 0.01412 0.0
H34 H 0.83353 1.00533 0.96555 0.0
H35 H 0.76963 0.91641 0.98109 0.0
H36 H 0.39121 0.32255 0.97621 0.0
H37 H 0.31887 0.22043 0.96908 0.0
H38 H 0.44208 0.12008 0.00843 0.0
H39 H 0.51433 0.22304 0.01631 0.0
Dy40 Dy 0.15268 0.12308 0.31774 0.0
Dy41 Dy 1.01176 0.09317 0.30228 0.0
C42 C 0.10405 0.11424 0.26503 0.0
O43 O 0.12197 0.22323 0.32123 0.0
O44 O 1.03531 0.20187 0.29639 0.0
O45 O 0.24569 0.11843 0.31426 0.0
O46 O 0.22275 0.16918 0.34415 0.0
O47 O 1.02368 0.1205 0.33972 0.0
O48 O 0.11038 0.08057 0.34673 0.0
O49 O 1.03441 0.99409 0.31216 0.0
O50 O 0.13463 1.01177 0.30854 0.0
O51 O 0.93594 0.03147 0.28197 0.0
O52 O 0.92132 0.11088 0.30503 0.0
C53 C 0.07828 0.2448 0.30872 0.0
O54 O 0.14706 0.14195 0.28103 0.0
O55 O 1.05175 0.08504 0.2699 0.0
C56 C 0.29519 0.10145 0.34936 0.0
C57 C 0.35587 1.01446 0.37324 0.0
C58 C 0.29521 0.99517 0.36432 0.0
C59 C 0.26489 0.03863 0.35263 0.0
C60 C 0.35497 0.12205 0.35919 0.0
C61 C 0.38524 0.07864 0.37117 0.0
C62 C 0.26415 0.1435 0.33501 0.0
C63 C 1.06278 0.09881 0.35391 0.0
C64 C 0.08462 0.97041 0.31029 0.0
C65 C 0.85922 1.00718 0.30468 0.0
C66 C 0.79623 0.9063 0.32683 0.0
C67 C 0.83467 0.95983 0.33938 0.0
C68 C 0.86608 1.00942 0.32845 0.0
C69 C 0.82148 0.95359 0.29206 0.0
C70 C 0.79031 0.90349 0.30302 0.0
C71 C 0.89732 0.0557 0.29318 0.0
H72 H 0.27225 0.94551 0.36548 0.0
H73 H 0.21845 1.02225 0.34535 0.0
H74 H 0.37873 0.17054 0.3569 0.0
H75 H 0.43249 0.0937 0.37761 0.0
H76 H 0.83938 0.96454 0.35771 0.0
H77 H 0.89604 0.04933 0.33867 0.0
H78 H 0.81682 0.95004 0.27372 0.0
H79 H 0.76139 0.86273 0.29286 0.0
Dy80 Dy 1.07471 0.16892 0.6424 0.0
Dy81 Dy 1.05395 1.01924 0.63926 0.0
C82 C 1.0526 0.09083 0.59502 0.0
O83 O 0.96822 0.15143 0.64523 0.0
O84 O 0.95077 0.04034 0.63816 0.0
O85 O 0.08756 0.25475 0.62386 0.0
O86 O 0.08934 0.26613 0.66023 0.0
O87 O 1.05027 0.04169 0.67603 0.0
O88 O 0.09362 0.14954 0.6788 0.0
O89 O 0.16269 0.03885 0.64335 0.0
O90 O 0.17645 0.14832 0.63935 0.0
O91 O 1.06639 0.92492 0.65073 0.0
O92 O 1.01199 0.93065 0.61876 0.0
C93 C 0.92675 0.09571 0.64179 0.0
O94 O 1.03205 0.135 0.60704 0.0
O95 O 0.07846 0.04779 0.60561 0.0
C96 C 0.16021 0.33885 0.64381 0.0
C97 C 0.2738 0.4198 0.64802 0.0
C98 C 0.25984 0.36497 0.6321 0.0
C99 C 0.2038 0.32466 0.63009 0.0
C100 C 0.17401 0.39373 0.65975 0.0
C101 C 0.2307 0.43384 0.66195 0.0
C102 C 0.10165 0.29492 0.64211 0.0
C103 C 1.07435 0.09615 0.68833 0.0
C104 C 0.20244 0.09391 0.64144 0.0
C105 C 0.97954 0.84494 0.64027 0.0
C106 C 0.87394 0.76168 0.64748 0.0
C107 C 0.89394 0.82083 0.66114 0.0
C108 C 0.94623 0.86238 0.65747 0.0
C109 C 0.96126 0.7847 0.62728 0.0
C110 C 0.90871 0.74327 0.63085 0.0
C111 C 1.02868 0.89261 0.63402 0.0
H112 H 0.29277 0.35259 0.62144 0.0
H113 H 0.19496 0.28204 0.61789 0.0
H114 H 0.14118 0.40518 0.6706 0.0
H115 H 0.2407 0.47601 0.67435 0.0
H116 H 0.86752 0.83658 0.67385 0.0
H117 H 0.95928 0.9093 0.66742 0.0
H118 H 0.98632 0.77093 0.61382 0.0
H119 H 0.89434 0.6977 0.6202 0.0
H120 H 0.2399 0.31454 0.97334 0.0
H121 H 0.23903 0.43263 0.97278 0.0
H122 H 1.05252 0.40105 -0.01577 0.0
H123 H 1.05261 0.28252 -0.01629 0.0
H124 H 1.0607 0.49051 0.95778 0.0
H125 H 0.18932 0.47528 0.02679 0.0
H126 H 0.27601 0.44263 0.04948 0.0
H127 H 0.39761 0.55492 0.0106 0.0
H128 H 0.31159 0.58776 -0.01246 0.0
H129 H 1.04487 0.83095 -0.01558 0.0
H130 H 1.04667 0.71297 -0.01492 0.0
H131 H 0.23259 0.74581 0.97293 0.0
H132 H 0.23146 0.86411 0.9731 0.0
H133 H 0.22544 0.65592 -0.00026 0.0
H134 H 0.09841 0.67121 0.93087 0.0
H135 H 1.01252 0.70188 0.90712 0.0
H136 H 0.88886 0.58834 0.94494 0.0
H137 H 0.97408 0.5576 0.96907 0.0
C138 C 0.19852 0.3324 0.97579 0.0
C139 C 0.14638 0.2874 0.97866 0.0
C140 C 0.19815 0.40102 0.97569 0.0
C141 C 0.14603 0.42841 0.979 0.0
C142 C 0.09382 0.38319 0.98167 0.0
C143 C 0.09394 0.3145 0.98145 0.0
C144 C 0.14528 0.50301 0.97936 0.0
C145 C 0.09656 0.52618 0.96733 0.0
C146 C 0.19221 0.55193 -0.00886 0.0
C147 C 0.24399 0.53351 0.00532 0.0
C148 C 0.23455 0.49285 0.02304 0.0
C149 C 0.28356 0.4743 0.03596 0.0
C150 C 0.34228 0.49653 0.03143 0.0
C151 C 0.35211 0.53767 0.01406 0.0
C152 C 0.30326 0.55636 0.00109 0.0
C153 C 0.08629 0.81341 0.9818 0.0
C154 C 0.13788 0.8587 0.97856 0.0
C155 C 0.08723 0.74488 0.98201 0.0
C156 C 0.13949 0.71789 0.97857 0.0
C157 C 0.19121 0.76338 0.97559 0.0
C158 C 0.19046 0.83194 0.9756 0.0
C159 C 0.14065 0.64337 0.97825 0.0
C160 C 0.18948 0.62022 -0.00973 0.0
C161 C 0.09389 0.59442 0.96642 0.0
C162 C 1.04263 0.61267 0.95191 0.0
C163 C 1.05291 0.65313 0.9342 0.0
C164 C 1.00435 0.67048 0.92066 0.0
C165 C 0.94528 0.64723 0.92456 0.0
C166 C 0.93464 0.6064 0.94196 0.0
C167 C 0.98304 0.58896 0.95556 0.0
H168 H 0.90775 0.66072 0.91406 0.0
H169 H 0.38016 0.48196 0.0414 0.0
H170 H 0.38532 0.92105 0.34591 0.0
H171 H 0.45694 0.84869 0.35484 0.0
H172 H 0.47703 0.92016 0.42547 0.0
H173 H 0.40779 0.99757 0.41586 0.0
H174 H 0.57949 0.92708 0.41284 0.0
H175 H 0.42153 0.74553 0.40544 0.0
H176 H 0.32099 0.68865 0.38812 0.0
H177 H 0.38896 0.65875 0.32466 0.0
H178 H 0.48933 0.71645 0.34128 0.0
H179 H 0.82526 0.85201 0.36676 0.0
H180 H 0.75294 0.80685 0.39167 0.0
H181 H 0.60736 0.80681 0.33831 0.0
H182 H 0.67822 0.85337 0.31395 0.0
H183 H 0.57535 0.71515 0.36837 0.0
H184 H 0.66987 0.9574 0.37048 0.0
H185 H 0.75942 0.04492 0.37842 0.0
H186 H 0.80408 0.97329 0.44311 0.0
H187 H 0.71493 0.88488 0.43536 0.0
C188 C 0.4039 0.92 0.36342 0.0
C189 C 0.39134 0.96419 0.38024 0.0
C190 C 0.44411 0.87764 0.36867 0.0
C191 C 0.471 0.87662 0.39106 0.0
C192 C 0.45611 0.91903 0.40817 0.0
C193 C 0.41689 0.9632 0.40273 0.0
C194 C 0.52269 0.84104 0.39511 0.0
C195 C 0.57829 0.8791 0.40411 0.0
C196 C 0.52155 0.7779 0.38405 0.0
C197 C 0.46341 0.73518 0.37477 0.0
C198 C 0.41529 0.72612 0.38787 0.0
C199 C 0.35817 0.6941 0.3781 0.0
C200 C 0.34866 0.6706 0.35528 0.0
C201 C 0.39651 0.67712 0.34234 0.0
C202 C 0.45366 0.70918 0.35197 0.0
C203 C 0.77787 0.84066 0.36022 0.0
C204 C 0.7572 0.85878 0.33873 0.0
C205 C 0.73676 0.81393 0.37436 0.0
C206 C 0.67468 0.80488 0.36703 0.0
C207 C 0.65506 0.81341 0.34439 0.0
C208 C 0.69588 0.84047 0.33039 0.0
C209 C 0.63009 0.80556 0.38332 0.0
C210 C 0.57607 0.76031 0.37877 0.0
C211 C 0.63201 0.86311 0.39778 0.0
C212 C 0.68627 0.91468 0.40233 0.0
C213 C 0.69901 0.96036 0.38635 0.0
C214 C 0.74958 1.00999 0.3908 0.0
C215 C 0.78723 1.0148 0.41129 0.0
C216 C 0.77474 0.96955 0.42728 0.0
C217 C 0.72433 0.91956 0.42284 0.0
H218 H 0.82599 0.05372 0.41478 0.0
H219 H 0.30412 0.64797 0.3475 0.0
H220 H 0.78602 0.71244 0.613 0.0
H221 H 0.6839 0.6563 0.6158 0.0
H222 H 0.72415 0.66865 0.68854 0.0
H223 H 0.82696 0.72461 0.68585 0.0
H224 H 0.66117 0.54361 0.66806 0.0
H225 H 0.64775 0.77485 0.66718 0.0
H226 H 0.66352 0.88301 0.65163 0.0
H227 H 0.55622 0.80029 0.58932 0.0
H228 H 0.54034 0.69141 0.60441 0.0
H229 H 0.35267 0.45882 0.68635 0.0
H230 H 0.45623 0.51917 0.68878 0.0
H231 H 0.43309 0.53275 0.61653 0.0
H232 H 0.32995 0.47284 0.61405 0.0
H233 H 0.48816 0.64847 0.63973 0.0
H234 H 0.50408 0.42108 0.63695 0.0
H235 H 0.491 0.30789 0.64839 0.0
H236 H 0.59551 0.37567 0.71263 0.0
H237 H 0.60791 0.48978 0.70179 0.0
C238 C 0.77345 0.70219 0.62956 0.0
C239 C 0.81427 0.72267 0.64923 0.0
C240 C 0.71505 0.67075 0.63114 0.0
C241 C 0.69661 0.65926 0.65238 0.0
C242 C 0.73775 0.67756 0.67202 0.0
C243 C 0.79615 0.70954 0.67047 0.0
C244 C 0.63389 0.62902 0.65399 0.0
C245 C 0.62321 0.56692 0.66233 0.0
C246 C 0.58479 0.65897 0.64576 0.0
C247 C 0.59351 0.72477 0.63684 0.0
C248 C 0.62792 0.7796 0.6501 0.0
C249 C 0.63684 0.84107 0.64136 0.0
C250 C 0.61138 0.84837 0.61941 0.0
C251 C 0.57626 0.79444 0.60626 0.0
C252 C 0.56718 0.73288 0.61492 0.0
C253 C 0.36963 0.47561 0.6711 0.0
C254 C 0.3338 0.46125 0.65001 0.0
C255 C 0.42867 0.50947 0.67247 0.0
C256 C 0.45219 0.52966 0.65279 0.0
C257 C 0.41565 0.51735 0.63187 0.0
C258 C 0.35701 0.48306 0.63046 0.0
C259 C 0.51524 0.56283 0.65377 0.0
C260 C 0.52601 0.62547 0.64584 0.0
C261 C 0.56435 0.53272 0.66194 0.0
C262 C 0.55593 0.46428 0.66872 0.0
C263 C 0.52341 0.41211 0.65367 0.0
C264 C 0.51621 0.3477 0.66003 0.0
C265 C 0.54204 0.33461 0.68129 0.0
C266 C 0.57518 0.38594 0.69622 0.0
C267 C 0.58222 0.45053 0.68999 0.0
H268 H 0.53679 0.28466 0.68613 0.0
H269 H 0.61867 0.89578 0.61257 0.0
H270 H 0.85309 0.20091 0.64208 0.0
H271 H 0.7454 0.20279 0.6413 0.0
H272 H 0.71098 0.99303 0.64173 0.0
H273 H 0.81935 0.9913 0.64134 0.0
H274 H 0.60563 0.99549 0.63268 0.0
H275 H 0.68313 0.18601 0.6866 0.0
H276 H 0.74012 0.29588 0.70083 0.0
H277 H 0.66567 0.37777 0.64184 0.0
H278 H 0.60857 0.2683 0.62725 0.0
H279 H 0.27896 0.99192 0.64711 0.0
H280 H 0.38724 0.99132 0.64788 0.0
H281 H 0.41604 0.19576 0.63646 0.0
H282 H 0.30722 0.19654 0.63643 0.0
H283 H 0.52345 0.19609 0.65134 0.0
H284 H 0.43845 1.00459 0.59955 0.0
H285 H 0.37963 0.89457 0.58679 0.0
H286 H 0.46809 0.81346 0.64321 0.0
H287 H 0.52684 0.92311 0.65642 0.0
C288 C 0.82395 0.15399 0.64214 0.0
C289 C 0.85229 0.09597 0.6419 0.0
C290 C 0.75844 0.15503 0.64205 0.0
C291 C 0.7112 0.09825 0.64225 0.0
C292 C 0.73984 0.04009 0.64183 0.0
C293 C 0.80539 0.03896 0.64162 0.0
C294 C 0.6361 0.09844 0.64241 0.0
C295 C 0.58981 0.04064 0.63708 0.0
C296 C 0.60598 0.15427 0.64766 0.0
C297 C 0.64264 0.21893 0.65567 0.0
C298 C 0.67954 0.22738 0.67658 0.0
C299 C 0.71171 0.28956 0.68472 0.0
C300 C 0.70685 0.34367 0.67216 0.0
C301 C 0.66984 0.33571 0.65144 0.0
C302 C 0.63763 0.27364 0.64322 0.0
C303 C 0.30692 0.03782 0.64457 0.0
C304 C 0.27702 0.09415 0.64156 0.0
C305 C 0.37254 0.03738 0.64471 0.0
C306 C 0.41822 0.09307 0.64158 0.0
C307 C 0.3882 0.14968 0.63886 0.0
C308 C 0.32248 0.15019 0.63879 0.0
C309 C 0.49324 0.09317 0.64151 0.0
C310 C 0.5394 0.151 0.64686 0.0
C311 C 0.52325 0.03722 0.63646 0.0
C312 C 0.48624 0.97215 0.62915 0.0
C313 C 0.44482 0.96338 0.60935 0.0
C314 C 0.41159 0.90108 0.60202 0.0
C315 C 0.41988 0.84714 0.61425 0.0
C316 C 0.46137 0.85536 0.63385 0.0
C317 C 0.49457 0.91756 0.64128 0.0
H318 H 0.39434 0.79891 0.6085 0.0
H319 H 0.73148 0.39182 0.67856 0.0
H320 H 0.72167 0.87593 0.01427 0.0
H321 H 0.66118 0.76922 0.01888 0.0
H322 H 0.81926 0.67789 0.01804 0.0
H323 H 0.87954 0.78357 0.01306 0.0
H324 H 0.7254 0.62214 -0.01431 0.0
H325 H 0.75749 0.68663 0.0654 0.0
H326 H 0.75743 0.75944 0.09979 0.0
H327 H 0.56573 0.74742 0.08541 0.0
H328 H 0.56474 0.67527 0.05073 0.0
H329 H 0.58088 0.30146 -0.00172 0.0
H330 H 0.65012 0.40619 0.00557 0.0
H331 H 0.50044 0.50707 0.01384 0.0
H332 H 0.43128 0.40228 0.0077 0.0
H333 H 0.59387 0.55683 0.04432 0.0
H334 H 0.56057 0.50174 0.96401 0.0
H335 H 0.55752 0.43345 0.92832 0.0
H336 H 0.74767 0.43327 0.94215 0.0
H337 H 0.75169 0.50076 0.97812 0.0
C338 C 0.74356 0.83321 0.01546 0.0
C339 C 0.80516 0.83791 0.01326 0.0
C340 C 0.70917 0.77257 0.01826 0.0
C341 C 0.73601 0.71603 0.01884 0.0
C342 C 0.79798 0.72119 0.01772 0.0
C343 C 0.83236 0.78167 0.01503 0.0
C344 C 0.69842 0.65054 0.01787 0.0
C345 C 0.69749 0.60723 -0.00128 0.0
C346 C 0.66067 0.63256 0.03452 0.0
C347 C 0.66115 0.67601 0.05535 0.0
C348 C 0.71539 0.69999 0.06945 0.0
C349 C 0.71553 0.74104 0.08902 0.0
C350 C 0.66164 0.75818 0.09475 0.0
C351 C 0.60746 0.73417 0.08094 0.0
C352 C 0.60708 0.69313 0.06133 0.0
C353 C 0.56285 0.34581 0.00202 0.0
C354 C 0.50062 0.34377 0.0022 0.0
C355 C 0.60236 0.40561 0.00598 0.0
C356 C 0.58017 0.46434 0.00986 0.0
C357 C 0.51835 0.46226 0.01076 0.0
C358 C 0.47887 0.40247 0.00698 0.0
C359 C 0.62106 0.52828 0.01216 0.0
C360 C 0.62233 0.57144 0.03143 0.0
C361 C 0.65867 0.54667 -0.00454 0.0
C362 C 0.65626 0.50559 0.97391 0.0
C363 C 0.60162 0.48658 0.95956 0.0
C364 C 0.59974 0.44812 0.93926 0.0
C365 C 0.65232 0.42883 0.93301 0.0
C366 C 0.70694 0.44809 0.94704 0.0
C367 C 0.70905 0.48645 0.96739 0.0
H368 H 0.65079 0.39913 0.91727 0.0
H369 H 0.66184 0.78994 0.10991 0.0
H370 H 0.10887 0.34019 0.34478 0.0
H371 H 0.10588 0.45784 0.34595 0.0
H372 H 1.04709 0.43871 0.27416 0.0
H373 H 1.04413 0.31932 0.27364 0.0
H374 H 0.99998 0.52887 0.28693 0.0
H375 H 0.16082 0.60495 0.36845 0.0
H376 H 0.2425 0.56332 0.39116 0.0
H377 H 0.29237 0.47393 0.33069 0.0
H378 H 0.21093 0.515 0.30766 0.0
H379 H 0.99016 0.86957 0.31475 0.0
H380 H 0.98926 0.75116 0.31519 0.0
H381 H 0.17771 0.78041 0.30671 0.0
H382 H 0.17905 0.89954 0.30688 0.0
H383 H 0.16372 0.68683 0.33286 0.0
H384 H 1.05074 0.71103 0.26203 0.0
H385 H 0.97098 0.74746 0.23669 0.0
H386 H 0.83542 0.63615 0.27024 0.0
H387 H 0.91445 0.59964 0.29595 0.0
C388 C 0.09525 0.36081 0.32917 0.0
C389 C 0.07722 0.31887 0.30908 0.0
C390 C 0.09442 0.42949 0.32973 0.0
C391 C 0.07875 0.46085 0.30996 0.0
C392 C 1.05999 0.41835 0.28988 0.0
C393 C 1.05853 0.34911 0.28952 0.0
C394 C 0.08136 0.53652 0.31015 0.0
C395 C 1.0361 0.56272 0.29709 0.0
C396 C 0.12822 0.58377 0.32294 0.0
C397 C 0.1797 0.56272 0.33639 0.0
C398 C 0.18954 0.57684 0.36001 0.0
C399 C 0.23546 0.55291 0.37295 0.0
C400 C 0.27232 0.51561 0.36239 0.0
C401 C 0.2636 0.50252 0.33886 0.0
C402 C 0.21758 0.52608 0.32586 0.0
C403 C 1.03168 0.85129 0.31293 0.0
C404 C 0.08459 0.89596 0.31059 0.0
C405 C 1.03104 0.7824 0.31301 0.0
C406 C 0.0831 0.75406 0.3105 0.0
C407 C 0.13632 0.79889 0.3086 0.0
C408 C 0.13703 0.86797 0.30859 0.0
C409 C 0.082 0.67877 0.30982 0.0
C410 C 0.12763 0.6528 0.32274 0.0
C411 C 1.03611 0.63176 0.29656 0.0
C412 C 0.9885 0.65309 0.28103 0.0
C413 C 1.00392 0.69461 0.26407 0.0
C414 C 0.95885 0.71524 0.24964 0.0
C415 C 0.89817 0.69426 0.2519 0.0
C416 C 0.88244 0.65242 0.26854 0.0
C417 C 0.92735 0.63168 0.28302 0.0
H418 H 0.86335 0.71033 0.24072 0.0
H419 H 0.30792 0.49727 0.37243 0.0
H420 H 1.02895 0.05139 0.22823 0.0
H421 H 1.04547 0.04827 0.18858 0.0
H422 H 0.21842 0.17308 0.20659 0.0
H423 H 0.20216 0.17675 0.24664 0.0
H424 H 0.15405 0.21018 0.16847 0.0
H425 H 0.21371 1.01337 0.19363 0.0
H426 H 0.2034 0.90999 0.21235 0.0
H427 H 1.04642 0.83015 0.16549 0.0
H428 H 1.05523 0.93348 0.14669 0.0
H429 H 0.23451 0.15029 0.05702 0.0
H430 H 0.23562 0.15833 0.09824 0.0
H431 H 1.0654 0.02603 0.09095 0.0
H432 H 1.06432 1.01704 0.04993 0.0
H433 H 0.13995 0.99459 0.12477 0.0
H434 H 0.07578 0.194 0.10161 0.0
H435 H 0.08496 0.29761 0.083 0.0
H436 H 0.25015 0.3724 0.1261 0.0
H437 H 0.24236 0.2688 0.14477 0.0
C438 C 1.07059 0.07842 0.22389 0.0
C439 C 0.11435 0.11415 0.24078 0.0
C440 C 0.08004 0.07632 0.20112 0.0
C441 C 0.1335 0.10976 0.19455 0.0
C442 C 0.17688 0.14669 0.21124 0.0
C443 C 0.16758 0.14856 0.23415 0.0
C444 C 0.14359 0.10536 0.17025 0.0
C445 C 0.15209 0.16313 0.159 0.0
C446 C 0.14006 0.04394 0.15774 0.0
C447 C 0.13487 0.98143 0.16886 0.0
C448 C 0.17672 0.97396 0.18741 0.0
C449 C 0.17119 0.91533 0.19803 0.0
C450 C 0.12421 0.86359 0.19015 0.0
C451 C 0.08276 0.87031 0.17159 0.0
C452 C 0.08805 0.92887 0.16093 0.0
C453 C 0.19735 0.12278 0.06418 0.0
C454 C 0.14921 0.0832 0.05006 0.0
C455 C 0.19793 0.12765 0.08779 0.0
C456 C 0.15026 0.09333 0.09779 0.0
C457 C 0.10272 0.05303 0.08372 0.0
C458 C 0.1021 0.04813 0.06018 0.0
C459 C 0.1493 0.09931 0.12284 0.0
C460 C 0.14252 0.04173 0.13425 0.0
C461 C 0.15437 0.16089 0.13546 0.0
C462 C 0.15884 0.22339 0.12441 0.0
C463 C 0.1143 0.23236 0.107 0.0
C464 C 0.11921 0.2911 0.09646 0.0
C465 C 0.16821 0.34148 0.10331 0.0
C466 C 0.21228 0.33329 0.12078 0.0
C467 C 0.20762 0.27459 0.13136 0.0
H468 H 0.17196 0.38691 0.09512 0.0
H469 H 0.11998 0.81825 0.19839 0.0
H470 H 0.11554 0.0267 0.38467 0.0
H471 H 0.10488 0.02446 0.425 0.0
H472 H 0.98207 0.16306 0.41871 0.0
H473 H 0.99131 0.16437 0.37809 0.0
H474 H 0.08057 0.19469 0.45616 0.0
H475 H 0.92379 1.02196 0.42428 0.0
H476 H 0.8762 0.92072 0.4008 0.0
H477 H 0.99093 0.8104 0.43914 0.0
H478 H 1.03985 0.91149 0.46269 0.0
H479 H 1.00057 0.1734 0.56776 0.0
H480 H 0.99492 0.17375 0.52657 0.0
H481 H 0.08883 1.00836 0.52425 0.0
H482 H 0.0937 1.00698 0.56537 0.0
H483 H 0.99836 0.9923 0.49046 0.0
H484 H 0.16097 0.16655 0.52029 0.0
H485 H 0.20861 0.26812 0.54377 0.0
H486 H 0.08407 0.3751 0.50902 0.0
H487 H 1.03509 0.27388 0.48554 0.0
C488 C 0.08596 0.05646 0.39181 0.0
C489 C 1.05428 0.09576 0.37816 0.0
C490 C 0.07988 0.05503 0.41486 0.0
C491 C 1.04274 0.09362 0.42486 0.0
C492 C 1.01105 0.133 0.41133 0.0
C493 C 1.01616 0.13345 0.38812 0.0
C494 C 1.03809 0.09335 0.44954 0.0
C495 C 1.0617 0.15078 0.46365 0.0
C496 C 1.01468 0.03559 0.45932 0.0
C497 C 0.98587 0.97456 0.44512 0.0
C498 C 0.93928 0.97627 0.42757 0.0
C499 C 0.91197 0.91885 0.41426 0.0
C500 C 0.93059 0.85911 0.41842 0.0
C501 C 0.97657 0.85674 0.43592 0.0
C502 C 1.00408 0.91413 0.44927 0.0
C503 C 1.01989 0.13695 0.5585 0.0
C504 C 1.04786 0.09035 0.56993 0.0
C505 C 1.01682 0.13736 0.53491 0.0
C506 C 1.04211 0.09159 0.52223 0.0
C507 C 1.06901 0.04423 0.53359 0.0
C508 C 1.07196 0.04367 0.55716 0.0
C509 C 1.04147 0.09356 0.49723 0.0
C510 C 1.017 0.03637 0.48302 0.0
C511 C 1.06434 0.15149 0.48734 0.0
C512 C 0.09396 0.21249 0.50133 0.0
C513 C 0.14346 0.21163 0.51777 0.0
C514 C 0.17074 0.26914 0.53106 0.0
C515 C 0.14927 0.32798 0.52793 0.0
C516 C 0.10058 0.32946 0.51145 0.0
C517 C 1.07306 0.27205 0.49814 0.0
H518 H 0.17045 0.37246 0.53824 0.0
H519 H 0.90931 0.81466 0.40811 0.0
H520 H 0.13564 0.19368 0.71993 0.0
H521 H 0.14664 0.19302 0.76125 0.0
H522 H 1.03781 0.99987 0.75504 0.0
H523 H 1.0266 0.99999 0.71381 0.0
H524 H 1.0053 0.08395 0.78774 0.0
H525 H 0.18843 1.01768 0.76686 0.0
H526 H 0.28175 0.03118 0.74874 0.0
H527 H 0.34836 0.21222 0.78979 0.0
H528 H 0.25503 0.20023 0.80795 0.0
H529 H 1.05793 0.99474 0.89933 0.0
H530 H 1.04984 0.99946 0.85833 0.0
H531 H 0.18901 0.17157 0.86699 0.0
H532 H 0.19975 0.16428 0.90801 0.0
H533 H 0.20631 0.10321 0.83273 0.0
H534 H 1.02824 0.174 0.85395 0.0
H535 H 0.93495 0.1677 0.87197 0.0
H536 H 0.85817 0.98996 0.83049 0.0
H537 H 0.95131 0.99474 0.81242 0.0
C538 C 0.11394 0.15107 0.72733 0.0
C539 C 0.08037 0.0968 0.71347 0.0
C540 C 0.12047 0.15068 0.75098 0.0
C541 C 0.09344 0.09616 0.76129 0.0
C542 C 1.05913 0.04245 0.74751 0.0
C543 C 1.05295 0.04256 0.72389 0.0
C544 C 0.10084 0.09476 0.78641 0.0
C545 C 1.04918 0.08746 0.79758 0.0
C546 C 0.15819 0.10151 0.79936 0.0
C547 C 0.21451 0.10837 0.7886 0.0
C548 C 0.22279 0.0606 0.77191 0.0
C549 C 0.27572 0.06794 0.76165 0.0
C550 C 0.32089 0.12261 0.76807 0.0
C551 C 0.3133 0.16995 0.78481 0.0
C552 C 0.26043 0.16287 0.7951 0.0
C553 C 0.08684 0.03355 0.89248 0.0
C554 C 0.12925 0.07935 0.90693 0.0
C555 C 0.08188 0.03659 0.86898 0.0
C556 C 0.11764 0.08697 0.85935 0.0
C557 C 0.16063 0.13228 0.87382 0.0
C558 C 0.16671 0.12819 0.89732 0.0
C559 C 0.11057 0.09204 0.83427 0.0
C560 C 0.16229 0.10003 0.82304 0.0
C561 C 1.05324 0.08716 0.82128 0.0
C562 C 0.99696 0.08446 0.83197 0.0
C563 C 0.99158 0.13338 0.84876 0.0
C564 C 0.93872 0.1301 0.85897 0.0
C565 C 0.89072 0.07839 0.85241 0.0
C566 C 0.89541 0.02996 0.83557 0.0
C567 C 0.94819 0.03297 0.82532 0.0
H568 H 0.84985 0.07591 0.86035 0.0
H569 H 0.36182 0.12822 0.7601 0.0
loop_
_geom_bond_atom_site_label_1
_geom_bond_atom_site_label_2
_geom_bond_distance
_geom_bond_site_symmetry_2
_ccdc_geom_bond_type
Dy0 O3 2.307 1_565 S
Dy0 O5 2.395 1_556 S
Dy0 O6 2.379 . S
Dy0 O8 2.339 . S
Dy0 O10 2.297 1_655 S
Dy0 O14 2.275 1_666 S
Dy0 C22 2.743 . S
Dy1 O4 2.298 . S
Dy1 O7 2.275 1_554 S
Dy1 O9 2.307 1_545 S
Dy1 O11 2.395 1_554 S
Dy1 O12 2.379 . S
Dy1 O15 2.339 . S
Dy1 C31 2.738 . S
C2 O14 1.254 . S
C2 O15 1.257 . S
O3 Dy0 2.307 1_545 S
O3 C13 1.266 1_656 S
O4 Dy1 2.298 . S
O4 C13 1.236 . S
O5 Dy0 2.395 1_554 S
O5 C22 1.235 1_554 S
O6 Dy0 2.379 . S
O6 C22 1.275 . S
O7 Dy1 2.275 1_556 S
O7 C23 1.254 . S
O8 Dy0 2.339 . S
O8 C23 1.257 1_665 S
O9 Dy1 2.307 1_565 S
O9 C24 1.266 . S
O10 Dy0 2.297 1_455 S
O10 C24 1.237 1_556 S
O11 Dy1 2.395 1_556 S
O11 C31 1.255 1_556 S
O12 Dy1 2.379 . S
O12 C31 1.249 . S
C13 O3 1.266 1_454 S
C13 O4 1.236 . S
O14 Dy0 2.275 1_444 S
O14 C2 1.254 . S
O15 Dy1 2.339 . S
O15 C2 1.257 . S
C16 C19 1.368 . S
C16 C20 1.309 1_554 S
C16 C22 1.506 1_554 S
C17 C18 1.304 . S
C17 C21 1.323 1_554 S
C18 C17 1.304 . S
C18 C19 1.371 . S
C18 H32 0.930 . S
C19 C16 1.368 . S
C19 C18 1.371 . S
C19 H33 0.931 . S
C20 C16 1.309 1_556 S
C20 C21 1.433 . S
C20 H34 0.931 . S
C21 C17 1.323 1_556 S
C21 C20 1.433 . S
C21 H35 0.933 . S
C22 Dy0 2.743 . S
C22 O5 1.235 1_556 S
C22 O6 1.275 . S
C22 C16 1.506 1_556 S
C23 O7 1.254 . S
C23 O8 1.257 1_445 S
C24 O9 1.266 . S
C24 O10 1.237 1_554 S
C25 C28 1.344 1_554 S
C25 C29 1.328 . S
C25 C31 1.516 . S
C26 C27 1.304 1_554 S
C26 C30 1.323 . S
C27 C26 1.304 1_556 S
C27 C28 1.371 . S
C27 H36 0.930 . S
C28 C25 1.344 1_556 S
C28 C27 1.371 . S
C28 H37 0.931 . S
C29 C25 1.328 . S
C29 C30 1.433 . S
C29 H38 0.931 . S
C30 C26 1.323 . S
C30 C29 1.433 . S
C30 H39 0.933 . S
C31 Dy1 2.738 . S
C31 O11 1.255 1_554 S
C31 O12 1.249 . S
C31 C25 1.516 . S
H32 C18 0.930 . S
H33 C19 0.931 . S
H34 C20 0.931 . S
H35 C21 0.933 . S
H36 C27 0.930 . S
H37 C28 0.931 . S
H38 C29 0.931 . S
H39 C30 0.933 . S
Dy40 O43 2.307 . S
Dy40 O45 2.395 . S
Dy40 O46 2.379 . S
Dy40 O48 2.339 . S
Dy40 O50 2.298 1_545 S
Dy40 O54 2.275 . S
Dy40 C62 2.738 . S
Dy41 O44 2.298 1_565 S
Dy41 O47 2.275 1_565 S
Dy41 O49 2.307 . S
Dy41 O51 2.395 1_565 S
Dy41 O52 2.379 1_565 S
Dy41 O55 2.339 1_565 S
Dy41 C71 2.738 1_565 S
C42 O54 1.254 . S
C42 O55 1.257 1_455 S
O43 Dy40 2.307 . S
O43 C53 1.266 . S
O44 Dy41 2.298 1_545 S
O44 C53 1.236 1_655 S
O45 Dy40 2.395 . S
O45 C62 1.255 . S
O46 Dy40 2.379 . S
O46 C62 1.249 . S
O47 Dy41 2.275 1_545 S
O47 C63 1.254 1_655 S
O48 Dy40 2.339 . S
O48 C63 1.257 . S
O49 Dy41 2.307 . S
O49 C64 1.266 1_655 S
O50 Dy40 2.298 1_565 S
O50 C64 1.236 . S
O51 Dy41 2.395 1_545 S
O51 C71 1.255 . S
O52 Dy41 2.379 1_545 S
O52 C71 1.249 . S
C53 O43 1.266 . S
C53 O44 1.236 1_455 S
O54 Dy40 2.275 . S
O54 C42 1.254 . S
O55 Dy41 2.339 1_545 S
O55 C42 1.257 1_655 S
C56 C59 1.344 1_545 S
C56 C60 1.328 . S
C56 C62 1.516 . S
C57 C58 1.304 . S
C57 C61 1.323 1_565 S
C58 C57 1.304 . S
C58 C59 1.371 . S
C58 H72 0.930 . S
C59 C56 1.344 1_565 S
C59 C58 1.371 . S
C59 H73 0.931 . S
C60 C56 1.328 . S
C60 C61 1.433 . S
C60 H74 0.931 . S
C61 C57 1.323 1_545 S
C61 C60 1.433 . S
C61 H75 0.933 . S
C62 Dy40 2.738 . S
C62 O45 1.255 . S
C62 O46 1.249 . S
C62 C56 1.516 . S
C63 O47 1.254 1_455 S
C63 O48 1.257 . S
C64 O49 1.266 1_455 S
C64 O50 1.236 . S
C65 C68 1.344 . S
C65 C69 1.328 . S
C65 C71 1.516 . S
C66 C67 1.304 . S
C66 C70 1.323 . S
C67 C66 1.304 . S
C67 C68 1.371 . S
C67 H76 0.930 . S
C68 C65 1.344 . S
C68 C67 1.371 . S
C68 H77 0.931 . S
C69 C65 1.328 . S
C69 C70 1.433 . S
C69 H78 0.931 . S
C70 C66 1.323 . S
C70 C69 1.433 . S
C70 H79 0.933 . S
C71 Dy41 2.738 1_545 S
C71 O51 1.255 . S
C71 O52 1.249 . S
C71 C65 1.516 . S
H72 C58 0.930 . S
H73 C59 0.931 . S
H74 C60 0.931 . S
H75 C61 0.933 . S
H76 C67 0.930 . S
H77 C68 0.931 . S
H78 C69 0.931 . S
H79 C70 0.933 . S
Dy80 O83 2.307 1_455 S
Dy80 O85 2.395 . S
Dy80 O86 2.379 . S
Dy80 O88 2.339 . S
Dy80 O90 2.298 . S
Dy80 O94 2.275 . S
Dy80 C102 2.738 . S
Dy81 O84 2.298 1_565 S
Dy81 O87 2.275 1_665 S
Dy81 O89 2.307 1_665 S
Dy81 O91 2.395 . S
Dy81 O92 2.379 . S
Dy81 O95 2.339 1_565 S
Dy81 C111 2.738 . S
C82 O94 1.254 . S
C82 O95 1.257 1_455 S
O83 Dy80 2.307 1_655 S
O83 C93 1.266 . S
O84 Dy81 2.298 1_545 S
O84 C93 1.236 . S
O85 Dy80 2.395 . S
O85 C102 1.255 . S
O86 Dy80 2.379 . S
O86 C102 1.249 . S
O87 Dy81 2.275 1_445 S
O87 C103 1.254 . S
O88 Dy80 2.339 . S
O88 C103 1.257 . S
O89 Dy81 2.307 1_445 S
O89 C104 1.266 . S
O90 Dy80 2.298 . S
O90 C104 1.236 . S
O91 Dy81 2.395 . S
O91 C111 1.255 . S
O92 Dy81 2.379 . S
O92 C111 1.249 . S
C93 O83 1.266 . S
C93 O84 1.236 . S
O94 Dy80 2.275 . S
O94 C82 1.254 . S
O95 Dy81 2.339 1_545 S
O95 C82 1.257 1_655 S
C96 C99 1.344 . S
C96 C100 1.328 . S
C96 C102 1.516 . S
C97 C98 1.304 . S
C97 C101 1.323 . S
C98 C97 1.304 . S
C98 C99 1.371 . S
C98 H112 0.930 . S
C99 C96 1.344 . S
C99 C98 1.371 . S
C99 H113 0.931 . S
C100 C96 1.328 . S
C100 C101 1.433 . S
C100 H114 0.931 . S
C101 C97 1.323 . S
C101 C100 1.433 . S
C101 H115 0.933 . S
C102 Dy80 2.738 . S
C102 O85 1.255 . S
C102 O86 1.249 . S
C102 C96 1.516 . S
C103 O87 1.254 . S
C103 O88 1.257 . S
C104 O89 1.266 . S
C104 O90 1.236 . S
C105 C108 1.344 . S
C105 C109 1.328 . S
C105 C111 1.516 . S
C106 C107 1.304 . S
C106 C110 1.323 . S
C107 C106 1.304 . S
C107 C108 1.371 . S
C107 H116 0.930 . S
C108 C105 1.344 . S
C108 C107 1.371 . S
C108 H117 0.931 . S
C109 C105 1.328 . S
C109 C110 1.433 . S
C109 H118 0.931 . S
C110 C106 1.323 . S
C110 C109 1.433 . S
C110 H119 0.933 . S
C111 Dy81 2.738 . S
C111 O91 1.255 . S
C111 O92 1.249 . S
C111 C105 1.516 . S
H112 C98 0.930 . S
H113 C99 0.931 . S
H114 C100 0.931 . S
H115 C101 0.933 . S
H116 C107 0.930 . S
H117 C108 0.931 . S
H118 C109 0.931 . S
H119 C110 0.933 . S
H120 C138 0.951 . S
H121 C140 0.951 . S
H122 C142 0.950 1_655 S
H123 C143 0.950 1_655 S
H124 C145 0.950 . S
H125 C148 0.950 . S
H126 C149 0.950 . S
H127 C151 0.950 . S
H128 C152 0.950 . S
H129 C153 0.951 1_655 S
H130 C155 0.951 1_655 S
H131 C157 0.950 . S
H132 C158 0.950 . S
H133 C160 0.950 . S
H134 C163 0.950 . S
H135 C164 0.950 . S
H136 C166 0.950 . S
H137 C167 0.950 . S
C138 H120 0.951 . S
C138 C139 1.366 . S
C138 C140 1.388 . S
C139 C138 1.366 . S
C139 C143 1.385 1_554 S
C140 H121 0.951 . S
C140 C138 1.388 . S
C140 C141 1.366 . S
C141 C140 1.366 . S
C141 C142 1.414 1_554 S
C141 C144 1.499 . S
C142 H122 0.950 1_455 S
C142 C141 1.414 1_556 S
C142 C143 1.374 . S
C143 H123 0.950 1_455 S
C143 C139 1.385 1_556 S
C143 C142 1.374 . S
C144 C141 1.499 . S
C144 C145 1.373 1_554 S
C144 C146 1.389 . S
C145 H124 0.950 . S
C145 C144 1.373 1_556 S
C145 C161 1.377 . S
C146 C144 1.389 . S
C146 C147 1.524 . S
C146 C160 1.377 . S
C147 C146 1.524 . S
C147 C148 1.397 1_455 S
C147 C152 1.363 . S
C148 H125 0.950 . S
C148 C147 1.397 1_655 S
C148 C149 1.334 . S
C149 H126 0.950 . S
C149 C148 1.334 . S
C149 C150 1.287 . S
C150 C149 1.287 . S
C150 C151 1.524 1_655 S
C150 H169 0.913 . S
C151 H127 0.950 . S
C151 C150 1.524 1_455 S
C151 C152 1.415 . S
C152 H128 0.950 . S
C152 C147 1.363 . S
C152 C151 1.415 . S
C153 H129 0.951 1_455 S
C153 C154 1.366 1_556 S
C153 C155 1.388 . S
C154 C153 1.366 1_554 S
C154 C158 1.385 . S
C155 H130 0.951 1_455 S
C155 C153 1.388 . S
C155 C156 1.366 1_556 S
C156 C155 1.366 1_554 S
C156 C157 1.414 . S
C156 C159 1.499 . S
C157 H131 0.950 . S
C157 C156 1.414 . S
C157 C158 1.374 . S
C158 H132 0.950 . S
C158 C154 1.385 . S
C158 C157 1.374 . S
C159 C156 1.499 . S
C159 C160 1.373 . S
C159 C161 1.389 1_554 S
C160 H133 0.950 . S
C160 C146 1.377 . S
C160 C159 1.373 . S
C161 C145 1.377 . S
C161 C159 1.389 1_556 S
C161 C162 1.524 . S
C162 C161 1.524 . S
C162 C163 1.397 . S
C162 C167 1.363 . S
C163 H134 0.950 . S
C163 C162 1.397 . S
C163 C164 1.334 . S
C164 H135 0.950 . S
C164 C163 1.334 . S
C164 C165 1.287 . S
C165 C164 1.287 . S
C165 C166 1.524 . S
C165 H168 0.999 . S
C166 H136 0.950 . S
C166 C165 1.524 . S
C166 C167 1.415 . S
C167 H137 0.950 . S
C167 C162 1.363 . S
C167 C166 1.415 . S
H168 C165 0.999 . S
H169 C150 0.913 . S
H170 C188 0.951 . S
H171 C190 0.951 . S
H172 C192 0.950 . S
H173 C193 0.950 . S
H174 C195 0.950 . S
H175 C198 0.950 1_565 S
H176 C199 0.950 . S
H177 C201 0.950 . S
H178 C202 0.950 . S
H179 C203 0.951 . S
H180 C205 0.951 1_565 S
H181 C207 0.950 . S
H182 C208 0.950 . S
H183 C210 0.950 . S
H184 C213 0.950 . S
H185 C214 0.950 . S
H186 C216 0.950 . S
H187 C217 0.950 . S
C188 H170 0.951 . S
C188 C189 1.366 1_545 S
C188 C190 1.388 . S
C189 C188 1.366 1_565 S
C189 C193 1.385 . S
C190 H171 0.951 . S
C190 C188 1.388 . S
C190 C191 1.366 1_545 S
C191 C190 1.366 1_565 S
C191 C192 1.414 . S
C191 C194 1.499 1_565 S
C192 H172 0.950 . S
C192 C191 1.414 . S
C192 C193 1.374 . S
C193 H173 0.950 . S
C193 C189 1.385 . S
C193 C192 1.374 . S
C194 C191 1.499 1_545 S
C194 C195 1.373 1_545 S
C194 C196 1.389 . S
C195 H174 0.950 . S
C195 C194 1.373 1_565 S
C195 C211 1.377 1_565 S
C196 C194 1.389 . S
C196 C197 1.524 . S
C196 C210 1.377 . S
C197 C196 1.524 . S
C197 C198 1.397 . S
C197 C202 1.363 . S
C198 H175 0.950 1_545 S
C198 C197 1.397 . S
C198 C199 1.334 . S
C199 H176 0.950 . S
C199 C198 1.334 . S
C199 C200 1.287 . S
C200 C199 1.287 . S
C200 C201 1.524 . S
C200 H219 0.913 . S
C201 H177 0.950 . S
C201 C200 1.524 . S
C201 C202 1.415 . S
C202 H178 0.950 . S
C202 C197 1.363 . S
C202 C201 1.415 . S
C203 H179 0.951 . S
C203 C204 1.366 . S
C203 C205 1.388 . S
C204 C203 1.366 . S
C204 C208 1.385 . S
C205 H180 0.951 1_545 S
C205 C203 1.388 . S
C205 C206 1.366 . S
C206 C205 1.366 . S
C206 C207 1.414 . S
C206 C209 1.499 . S
C207 H181 0.950 . S
C207 C206 1.414 . S
C207 C208 1.374 . S
C208 H182 0.950 . S
C208 C204 1.385 . S
C208 C207 1.374 . S
C209 C206 1.499 . S
C209 C210 1.373 . S
C209 C211 1.389 . S
C210 H183 0.950 . S
C210 C196 1.377 . S
C210 C209 1.373 . S
C211 C195 1.377 1_545 S
C211 C209 1.389 . S
C211 C212 1.524 1_545 S
C212 C211 1.524 1_565 S
C212 C213 1.397 1_565 S
C212 C217 1.363 . S
C213 H184 0.950 . S
C213 C212 1.397 1_545 S
C213 C214 1.334 . S
C214 H185 0.950 . S
C214 C213 1.334 . S
C214 C215 1.287 1_545 S
C215 C214 1.287 1_565 S
C215 C216 1.524 . S
C215 H218 0.999 . S
C216 H186 0.950 . S
C216 C215 1.524 . S
C216 C217 1.415 . S
C217 H187 0.950 . S
C217 C212 1.363 . S
C217 C216 1.415 . S
H218 C215 0.999 . S
H219 C200 0.913 . S
H220 C238 0.951 . S
H221 C240 0.951 . S
H222 C242 0.950 . S
H223 C243 0.950 . S
H224 C245 0.950 . S
H225 C248 0.950 . S
H226 C249 0.950 . S
H227 C251 0.950 . S
H228 C252 0.950 . S
H229 C253 0.951 . S
H230 C255 0.951 . S
H231 C257 0.950 . S
H232 C258 0.950 . S
H233 C260 0.950 . S
H234 C263 0.950 . S
H235 C264 0.950 . S
H236 C266 0.950 . S
H237 C267 0.950 . S
C238 H220 0.951 . S
C238 C239 1.366 . S
C238 C240 1.388 . S
C239 C238 1.366 . S
C239 C243 1.385 . S
C240 H221 0.951 . S
C240 C238 1.388 . S
C240 C241 1.366 . S
C241 C240 1.366 . S
C241 C242 1.414 . S
C241 C244 1.499 . S
C242 H222 0.950 . S
C242 C241 1.414 . S
C242 C243 1.374 . S
C243 H223 0.950 . S
C243 C239 1.385 . S
C243 C242 1.374 . S
C244 C241 1.499 . S
C244 C245 1.373 . S
C244 C246 1.389 . S
C245 H224 0.950 . S
C245 C244 1.373 . S
C245 C261 1.377 . S
C246 C244 1.389 . S
C246 C247 1.524 . S
C246 C260 1.377 . S
C247 C246 1.524 . S
C247 C248 1.397 . S
C247 C252 1.363 . S
C248 H225 0.950 . S
C248 C247 1.397 . S
C248 C249 1.334 . S
C249 H226 0.950 . S
C249 C248 1.334 . S
C249 C250 1.287 . S
C250 C249 1.287 . S
C250 C251 1.524 . S
C250 H269 0.913 . S
C251 H227 0.950 . S
C251 C250 1.524 . S
C251 C252 1.415 . S
C252 H228 0.950 . S
C252 C247 1.363 . S
C252 C251 1.415 . S
C253 H229 0.951 . S
C253 C254 1.366 . S
C253 C255 1.388 . S
C254 C253 1.366 . S
C254 C258 1.385 . S
C255 H230 0.951 . S
C255 C253 1.388 . S
C255 C256 1.366 . S
C256 C255 1.366 . S
C256 C257 1.414 . S
C256 C259 1.499 . S
C257 H231 0.950 . S
C257 C256 1.414 . S
C257 C258 1.374 . S
C258 H232 0.950 . S
C258 C254 1.385 . S
C258 C257 1.374 . S
C259 C256 1.499 . S
C259 C260 1.373 . S
C259 C261 1.389 . S
C260 H233 0.950 . S
C260 C246 1.377 . S
C260 C259 1.373 . S
C261 C245 1.377 . S
C261 C259 1.389 . S
C261 C262 1.524 . S
C262 C261 1.524 . S
C262 C263 1.397 . S
C262 C267 1.363 . S
C263 H234 0.950 . S
C263 C262 1.397 . S
C263 C264 1.334 . S
C264 H235 0.950 . S
C264 C263 1.334 . S
C264 C265 1.287 . S
C265 C264 1.287 . S
C265 C266 1.524 . S
C265 H268 0.999 . S
C266 H236 0.950 . S
C266 C265 1.524 . S
C266 C267 1.415 . S
C267 H237 0.950 . S
C267 C262 1.363 . S
C267 C266 1.415 . S
H268 C265 0.999 . S
H269 C250 0.913 . S
H270 C288 0.951 . S
H271 C290 0.951 . S
H272 C292 0.950 . S
H273 C293 0.950 . S
H274 C295 0.968 . S
H275 C298 0.950 . S
H276 C299 0.950 . S
H277 C301 0.950 . S
H278 C302 0.950 . S
H279 C303 0.951 . S
H280 C305 0.951 . S
H281 C307 0.950 . S
H282 C308 0.950 . S
H283 C310 0.950 . S
H284 C313 0.950 1_545 S
H285 C314 0.950 . S
H286 C316 0.950 . S
H287 C317 0.950 . S
C288 H270 0.951 . S
C288 C289 1.366 . S
C288 C290 1.388 . S
C289 C288 1.366 . S
C289 C293 1.385 . S
C290 H271 0.951 . S
C290 C288 1.388 . S
C290 C291 1.366 . S
C291 C290 1.366 . S
C291 C292 1.414 . S
C291 C294 1.499 . S
C292 H272 0.950 . S
C292 C291 1.414 . S
C292 C293 1.374 . S
C293 H273 0.950 . S
C293 C289 1.385 . S
C293 C292 1.374 . S
C294 C291 1.499 . S
C294 C295 1.373 . S
C294 C296 1.389 . S
C295 H274 0.968 . S
C295 C294 1.373 . S
C295 C311 1.377 . S
C296 C294 1.389 . S
C296 C297 1.524 . S
C296 C310 1.377 . S
C297 C296 1.524 . S
C297 C298 1.397 . S
C297 C302 1.363 . S
C298 H275 0.950 . S
C298 C297 1.397 . S
C298 C299 1.334 . S
C299 H276 0.950 . S
C299 C298 1.334 . S
C299 C300 1.287 . S
C300 C299 1.287 . S
C300 C301 1.524 . S
C300 H319 0.913 . S
C301 H277 0.950 . S
C301 C300 1.524 . S
C301 C302 1.415 . S
C302 H278 0.950 . S
C302 C297 1.363 . S
C302 C301 1.415 . S
C303 H279 0.951 . S
C303 C304 1.366 . S
C303 C305 1.388 . S
C304 C303 1.366 . S
C304 C308 1.385 . S
C305 H280 0.951 . S
C305 C303 1.388 . S
C305 C306 1.366 . S
C306 C305 1.366 . S
C306 C307 1.414 . S
C306 C309 1.499 . S
C307 H281 0.950 . S
C307 C306 1.414 . S
C307 C308 1.374 . S
C308 H282 0.950 . S
C308 C304 1.385 . S
C308 C307 1.374 . S
C309 C306 1.499 . S
C309 C310 1.373 . S
C309 C311 1.389 . S
C310 H283 0.950 . S
C310 C296 1.377 . S
C310 C309 1.373 . S
C311 C295 1.377 . S
C311 C309 1.389 . S
C311 C312 1.524 1_545 S
C312 C311 1.524 1_565 S
C312 C313 1.397 . S
C312 C317 1.363 . S
C313 H284 0.950 1_565 S
C313 C312 1.397 . S
C313 C314 1.334 . S
C314 H285 0.950 . S
C314 C313 1.334 . S
C314 C315 1.287 . S
C315 C314 1.287 . S
C315 C316 1.524 . S
C315 H318 0.999 . S
C316 H286 0.950 . S
C316 C315 1.524 . S
C316 C317 1.415 . S
C317 H287 0.950 . S
C317 C312 1.363 . S
C317 C316 1.415 . S
H318 C315 0.999 . S
H319 C300 0.913 . S
H320 C338 0.951 . S
H321 C340 0.951 . S
H322 C342 0.950 . S
H323 C343 0.950 . S
H324 C345 0.950 . S
H325 C348 0.950 . S
H326 C349 0.950 . S
H327 C351 0.950 . S
H328 C352 0.950 . S
H329 C353 0.951 . S
H330 C355 0.951 . S
H331 C357 0.948 1_556 S
H332 C358 0.950 1_556 S
H333 C360 0.950 . S
H334 C363 0.950 . S
H335 C364 0.950 . S
H336 C366 0.950 . S
H337 C367 0.950 . S
C338 H320 0.951 . S
C338 C339 1.366 1_556 S
C338 C340 1.388 . S
C339 C338 1.366 1_554 S
C339 C343 1.385 . S
C340 H321 0.951 . S
C340 C338 1.388 . S
C340 C341 1.366 1_556 S
C341 C340 1.366 1_554 S
C341 C342 1.414 . S
C341 C344 1.499 . S
C342 H322 0.950 . S
C342 C341 1.414 . S
C342 C343 1.374 . S
C343 H323 0.950 . S
C343 C339 1.385 . S
C343 C342 1.374 . S
C344 C341 1.499 . S
C344 C345 1.373 1_554 S
C344 C346 1.389 . S
C345 H324 0.950 . S
C345 C344 1.373 1_556 S
C345 C361 1.377 . S
C346 C344 1.389 . S
C346 C347 1.524 . S
C346 C360 1.377 . S
C347 C346 1.524 . S
C347 C348 1.397 . S
C347 C352 1.363 . S
C348 H325 0.950 . S
C348 C347 1.397 . S
C348 C349 1.334 . S
C349 H326 0.950 . S
C349 C348 1.334 . S
C349 C350 1.287 . S
C350 C349 1.287 . S
C350 C351 1.524 . S
C350 H369 0.913 . S
C351 H327 0.950 . S
C351 C350 1.524 . S
C351 C352 1.415 . S
C352 H328 0.950 . S
C352 C347 1.363 . S
C352 C351 1.415 . S
C353 H329 0.951 . S
C353 C354 1.366 . S
C353 C355 1.388 . S
C354 C353 1.366 . S
C354 C358 1.385 . S
C355 H330 0.951 . S
C355 C353 1.388 . S
C355 C356 1.366 . S
C356 C355 1.366 . S
C356 C357 1.415 . S
C356 C359 1.499 . S
C357 H331 0.948 1_554 S
C357 C356 1.415 . S
C357 C358 1.376 . S
C358 H332 0.950 1_554 S
C358 C354 1.385 . S
C358 C357 1.376 . S
C359 C356 1.499 . S
C359 C360 1.373 . S
C359 C361 1.389 1_554 S
C360 H333 0.950 . S
C360 C346 1.377 . S
C360 C359 1.373 . S
C361 C345 1.377 . S
C361 C359 1.389 1_556 S
C361 C362 1.524 . S
C362 C361 1.524 . S
C362 C363 1.397 . S
C362 C367 1.363 . S
C363 H334 0.950 . S
C363 C362 1.397 . S
C363 C364 1.334 . S
C364 H335 0.950 . S
C364 C363 1.334 . S
C364 C365 1.287 . S
C365 C364 1.287 . S
C365 C366 1.524 . S
C365 H368 0.999 . S
C366 H336 0.950 . S
C366 C365 1.524 . S
C366 C367 1.415 . S
C367 H337 0.950 . S
C367 C362 1.363 . S
C367 C366 1.415 . S
H368 C365 0.999 . S
H369 C350 0.913 . S
H370 C388 0.951 . S
H371 C390 0.951 . S
H372 C392 0.950 . S
H373 C393 0.950 . S
H374 C395 0.950 . S
H375 C398 0.950 . S
H376 C399 0.950 . S
H377 C401 0.950 . S
H378 C402 0.950 . S
H379 C403 0.966 . S
H380 C405 0.951 . S
H381 C407 0.950 . S
H382 C408 0.950 . S
H383 C410 0.950 . S
H384 C413 0.950 . S
H385 C414 0.950 . S
H386 C416 0.950 . S
H387 C417 0.950 . S
C388 H370 0.951 . S
C388 C389 1.366 . S
C388 C390 1.388 . S
C389 C388 1.366 . S
C389 C393 1.385 1_455 S
C390 H371 0.951 . S
C390 C388 1.388 . S
C390 C391 1.366 . S
C391 C390 1.366 . S
C391 C392 1.414 1_455 S
C391 C394 1.499 . S
C392 H372 0.950 . S
C392 C391 1.414 1_655 S
C392 C393 1.374 . S
C393 H373 0.950 . S
C393 C389 1.385 1_655 S
C393 C392 1.374 . S
C394 C391 1.499 . S
C394 C395 1.373 1_455 S
C394 C396 1.389 . S
C395 H374 0.950 . S
C395 C394 1.373 1_655 S
C395 C411 1.377 . S
C396 C394 1.389 . S
C396 C397 1.524 . S
C396 C410 1.377 . S
C397 C396 1.524 . S
C397 C398 1.397 . S
C397 C402 1.363 . S
C398 H375 0.950 . S
C398 C397 1.397 . S
C398 C399 1.334 . S
C399 H376 0.950 . S
C399 C398 1.334 . S
C399 C400 1.287 . S
C400 C399 1.287 . S
C400 C401 1.524 . S
C400 H419 0.913 . S
C401 H377 0.950 . S
C401 C400 1.524 . S
C401 C402 1.415 . S
C402 H378 0.950 . S
C402 C397 1.363 . S
C402 C401 1.415 . S
C403 H379 0.966 . S
C403 C404 1.356 1_655 S
C403 C405 1.384 . S
C404 C403 1.356 1_455 S
C404 C408 1.385 . S
C405 H380 0.951 . S
C405 C403 1.384 . S
C405 C406 1.366 1_655 S
C406 C405 1.366 1_455 S
C406 C407 1.414 . S
C406 C409 1.499 . S
C407 H381 0.950 . S
C407 C406 1.414 . S
C407 C408 1.374 . S
C408 H382 0.950 . S
C408 C404 1.385 . S
C408 C407 1.374 . S
C409 C406 1.499 . S
C409 C410 1.373 . S
C409 C411 1.389 1_455 S
C410 H383 0.950 . S
C410 C396 1.377 . S
C410 C409 1.373 . S
C411 C395 1.377 . S
C411 C409 1.389 1_655 S
C411 C412 1.524 . S
C412 C411 1.524 . S
C412 C413 1.397 . S
C412 C417 1.363 . S
C413 H384 0.950 . S
C413 C412 1.397 . S
C413 C414 1.334 . S
C414 H385 0.950 . S
C414 C413 1.334 . S
C414 C415 1.287 . S
C415 C414 1.287 . S
C415 C416 1.524 . S
C415 H418 0.999 . S
C416 H386 0.950 . S
C416 C415 1.524 . S
C416 C417 1.415 . S
C417 H387 0.950 . S
C417 C412 1.363 . S
C417 C416 1.415 . S
H418 C415 0.999 . S
H419 C400 0.913 . S
H420 C438 0.951 . S
H421 C440 0.951 . S
H422 C442 0.950 . S
H423 C443 0.950 . S
H424 C445 0.950 . S
H425 C448 0.950 . S
H426 C449 0.950 1_545 S
H427 C451 0.950 . S
H428 C452 0.950 . S
H429 C453 0.951 . S
H430 C455 0.951 . S
H431 C457 0.950 . S
H432 C458 0.950 . S
H433 C460 0.950 . S
H434 C463 0.950 1_565 S
H435 C464 0.950 . S
H436 C466 0.950 . S
H437 C467 0.950 . S
C438 H420 0.951 . S
C438 C439 1.366 1_565 S
C438 C440 1.388 . S
C439 C438 1.366 1_545 S
C439 C443 1.385 . S
C440 H421 0.951 . S
C440 C438 1.388 . S
C440 C441 1.366 1_565 S
C441 C440 1.366 1_545 S
C441 C442 1.414 . S
C441 C444 1.499 . S
C442 H422 0.950 . S
C442 C441 1.414 . S
C442 C443 1.374 . S
C443 H423 0.950 . S
C443 C439 1.385 . S
C443 C442 1.374 . S
C444 C441 1.499 . S
C444 C445 1.373 1_455 S
C444 C446 1.389 1_545 S
C445 H424 0.950 . S
C445 C444 1.373 1_655 S
C445 C461 1.377 . S
C446 C444 1.389 1_565 S
C446 C447 1.524 . S
C446 C460 1.377 . S
C447 C446 1.524 . S
C447 C448 1.397 1_565 S
C447 C452 1.363 . S
C448 H425 0.950 . S
C448 C447 1.397 1_545 S
C448 C449 1.334 1_545 S
C449 H426 0.950 1_565 S
C449 C448 1.334 1_565 S
C449 C450 1.287 . S
C450 C449 1.287 . S
C450 C451 1.524 . S
C450 H469 0.913 . S
C451 H427 0.950 . S
C451 C450 1.524 . S
C451 C452 1.415 . S
C452 H428 0.950 . S
C452 C447 1.363 . S
C452 C451 1.415 . S
C453 H429 0.951 . S
C453 C454 1.366 . S
C453 C455 1.388 . S
C454 C453 1.366 . S
C454 C458 1.385 1_545 S
C455 H430 0.951 . S
C455 C453 1.388 . S
C455 C456 1.366 . S
C456 C455 1.366 . S
C456 C457 1.414 1_545 S
C456 C459 1.499 . S
C457 H431 0.950 . S
C457 C456 1.414 1_565 S
C457 C458 1.374 . S
C458 H432 0.950 . S
C458 C454 1.385 1_565 S
C458 C457 1.374 . S
C459 C456 1.499 . S
C459 C460 1.373 1_545 S
C459 C461 1.389 1_455 S
C460 H433 0.950 . S
C460 C446 1.377 . S
C460 C459 1.373 1_565 S
C461 C445 1.377 . S
C461 C459 1.389 1_655 S
C461 C462 1.524 . S
C462 C461 1.524 . S
C462 C463 1.397 . S
C462 C467 1.363 . S
C463 H434 0.950 1_545 S
C463 C462 1.397 . S
C463 C464 1.334 . S
C464 H435 0.950 . S
C464 C463 1.334 . S
C464 C465 1.287 . S
C465 C464 1.287 . S
C465 C466 1.524 . S
C465 H468 0.999 . S
C466 H436 0.950 . S
C466 C465 1.524 . S
C466 C467 1.415 . S
C467 H437 0.950 . S
C467 C462 1.363 . S
C467 C466 1.415 . S
H468 C465 0.999 . S
H469 C450 0.913 . S
H470 C488 0.952 1_565 S
H471 C490 0.951 1_565 S
H472 C492 0.950 1_655 S
H473 C493 0.950 1_655 S
H474 C495 0.950 . S
H475 C498 0.950 1_545 S
H476 C499 0.950 . S
H477 C501 0.950 . S
H478 C502 0.950 . S
H479 C503 0.951 1_655 S
H480 C505 0.951 1_655 S
H481 C507 0.950 1_565 S
H482 C508 0.950 . S
H483 C510 0.950 1_565 S
H484 C513 0.950 . S
H485 C514 0.950 . S
H486 C516 0.950 . S
H487 C517 0.950 . S
C488 H470 0.952 1_545 S
C488 C489 1.365 . S
C488 C490 1.388 . S
C489 C488 1.365 . S
C489 C493 1.385 . S
C490 H471 0.951 1_545 S
C490 C488 1.388 . S
C490 C491 1.366 . S
C491 C490 1.366 . S
C491 C492 1.414 . S
C491 C494 1.499 . S
C492 H472 0.950 1_455 S
C492 C491 1.414 . S
C492 C493 1.374 . S
C493 H473 0.950 1_455 S
C493 C489 1.385 . S
C493 C492 1.374 . S
C494 C491 1.499 . S
C494 C495 1.373 . S
C494 C496 1.389 1_455 S
C495 H474 0.950 . S
C495 C494 1.373 . S
C495 C511 1.377 . S
C496 C494 1.389 1_655 S
C496 C497 1.524 1_545 S
C496 C510 1.377 . S
C497 C496 1.524 1_565 S
C497 C498 1.397 . S
C497 C502 1.363 . S
C498 H475 0.950 1_565 S
C498 C497 1.397 . S
C498 C499 1.334 . S
C499 H476 0.950 . S
C499 C498 1.334 . S
C499 C500 1.287 . S
C500 C499 1.287 . S
C500 C501 1.524 . S
C500 H519 0.913 . S
C501 H477 0.950 . S
C501 C500 1.524 . S
C501 C502 1.415 . S
C502 H478 0.950 . S
C502 C497 1.363 . S
C502 C501 1.415 . S
C503 H479 0.951 1_455 S
C503 C504 1.366 . S
C503 C505 1.388 . S
C504 C503 1.366 . S
C504 C508 1.385 . S
C505 H480 0.951 1_455 S
C505 C503 1.388 . S
C505 C506 1.366 . S
C506 C505 1.366 . S
C506 C507 1.414 . S
C506 C509 1.499 . S
C507 H481 0.950 1_545 S
C507 C506 1.414 . S
C507 C508 1.374 . S
C508 H482 0.950 . S
C508 C504 1.385 . S
C508 C507 1.374 . S
C509 C506 1.499 . S
C509 C510 1.373 1_455 S
C509 C511 1.389 . S
C510 H483 0.950 1_545 S
C510 C496 1.377 . S
C510 C509 1.373 1_655 S
C511 C495 1.377 . S
C511 C509 1.389 . S
C511 C512 1.524 . S
C512 C511 1.524 . S
C512 C513 1.397 . S
C512 C517 1.363 . S
C513 H484 0.950 . S
C513 C512 1.397 . S
C513 C514 1.334 . S
C514 H485 0.950 . S
C514 C513 1.334 . S
C514 C515 1.287 . S
C515 C514 1.287 . S
C515 C516 1.524 . S
C515 H518 0.999 . S
C516 H486 0.950 . S
C516 C515 1.524 . S
C516 C517 1.415 . S
C517 H487 0.950 . S
C517 C512 1.363 . S
C517 C516 1.415 . S
H518 C515 0.999 . S
H519 C500 0.913 . S
H520 C538 0.951 . S
H521 C540 0.951 . S
H522 C542 0.950 1_565 S
H523 C543 0.950 1_565 S
H524 C545 0.950 1_565 S
H525 C548 0.950 . S
H526 C549 0.950 . S
H527 C551 0.950 . S
H528 C552 0.950 . S
H529 C553 0.951 . S
H530 C555 0.951 . S
H531 C557 0.950 . S
H532 C558 0.950 . S
H533 C560 0.950 . S
H534 C563 0.950 1_545 S
H535 C564 0.950 . S
H536 C566 0.950 . S
H537 C567 0.950 . S
C538 H520 0.951 . S
C538 C539 1.366 . S
C538 C540 1.388 . S
C539 C538 1.366 . S
C539 C543 1.385 . S
C540 H521 0.951 . S
C540 C538 1.388 . S
C540 C541 1.366 . S
C541 C540 1.366 . S
C541 C542 1.414 . S
C541 C544 1.499 . S
C542 H522 0.950 1_545 S
C542 C541 1.414 . S
C542 C543 1.374 . S
C543 H523 0.950 1_545 S
C543 C539 1.385 . S
C543 C542 1.374 . S
C544 C541 1.499 . S
C544 C545 1.373 1_455 S
C544 C546 1.389 . S
C545 H524 0.950 1_545 S
C545 C544 1.373 1_655 S
C545 C561 1.377 . S
C546 C544 1.389 . S
C546 C547 1.524 . S
C546 C560 1.377 . S
C547 C546 1.524 . S
C547 C548 1.397 . S
C547 C552 1.363 . S
C548 H525 0.950 . S
C548 C547 1.397 . S
C548 C549 1.334 . S
C549 H526 0.950 . S
C549 C548 1.334 . S
C549 C550 1.287 . S
C550 C549 1.287 . S
C550 C551 1.524 . S
C550 H569 0.913 . S
C551 H527 0.950 . S
C551 C550 1.524 . S
C551 C552 1.415 . S
C552 H528 0.950 . S
C552 C547 1.363 . S
C552 C551 1.415 . S
C553 H529 0.951 . S
C553 C554 1.366 1_565 S
C553 C555 1.388 . S
C554 C553 1.366 1_545 S
C554 C558 1.385 . S
C555 H530 0.951 . S
C555 C553 1.388 . S
C555 C556 1.366 1_565 S
C556 C555 1.366 1_545 S
C556 C557 1.414 . S
C556 C559 1.499 . S
C557 H531 0.950 . S
C557 C556 1.414 . S
C557 C558 1.374 . S
C558 H532 0.950 . S
C558 C554 1.385 . S
C558 C557 1.374 . S
C559 C556 1.499 . S
C559 C560 1.373 . S
C559 C561 1.389 1_455 S
C560 H533 0.950 . S
C560 C546 1.377 . S
C560 C559 1.373 . S
C561 C545 1.377 . S
C561 C559 1.389 1_655 S
C561 C562 1.524 1_545 S
C562 C561 1.524 1_565 S
C562 C563 1.397 . S
C562 C567 1.363 . S
C563 H534 0.950 1_565 S
C563 C562 1.397 . S
C563 C564 1.334 . S
C564 H535 0.950 . S
C564 C563 1.334 . S
C564 C565 1.287 . S
C565 C564 1.287 . S
C565 C566 1.524 . S
C565 H568 0.999 . S
C566 H536 0.950 . S
C566 C565 1.524 . S
C566 C567 1.415 . S
C567 H537 0.950 . S
C567 C562 1.363 . S
C567 C566 1.415 . S
H568 C565 0.999 . S
H569 C550 0.913 . S
C139 C13 2.818 . S
C154 C24 2.818 . S
C189 C57 1.146 . S
C204 C66 1.146 . S
C239 C106 0.596 . S
C254 C97 0.596 . S
C289 C93 4.758 . S
C304 C104 4.758 . S
C339 C17 0.407 . S
C354 C26 0.407 . S
C389 C53 2.844 . S
C404 C64 2.844 . S
C439 C42 1.495 . S
C454 C2 1.492 . S
C489 C63 1.487 . S
C504 C82 1.473 . S
C539 C103 1.502 . S
C554 C23 1.492 . S
