# Generated by pormake.
# Topology bcu, (8)-cn, num edge types: 1
# Building blocks:
#     Node 0, Type 0, BuildingBlock: LIZSOE_clean_sbu_0, # of connection points: 8
#     Node 1, Type 0, BuildingBlock: LIZSOE_clean_sbu_0, # of connection points: 8
#     Edge 2, Type (0, 0), BuildingBlock: MIFKUJ_clean_linker_0, # of connection points: 2
#     Edge 3, Type (0, 0), BuildingBlock: MIFKUJ_clean_linker_0, # of connection points: 2
#     Edge 4, Type (0, 0), BuildingBlock: MIFKUJ_clean_linker_0, # of connection points: 2
#     Edge 5, Type (0, 0), BuildingBlock: MIFKUJ_clean_linker_0, # of connection points: 2
#     Edge 6, Type (0, 0), BuildingBlock: MIFKUJ_clean_linker_0, # of connection points: 2
#     Edge 7, Type (0, 0), BuildingBlock: MIFKUJ_clean_linker_0, # of connection points: 2
#     Edge 8, Type (0, 0), BuildingBlock: MIFKUJ_clean_linker_0, # of connection points: 2
#     Edge 9, Type (0, 0), BuildingBlock: MIFKUJ_clean_linker_0, # of connection points: 2
# Relax obj value: 0.010
# Max RMSD: 0.048
# Mean RMSD: 0.048
data_MOF--net-bcu--node1-LIZSOE_clean_sbu_0--edge1-MIFKUJ_clean_linker_0
_symmetry_space_group_name_H-M    P1
_symmetry_Int_Tables_number       1
_symmetry_cell_setting            triclinic
loop_
_symmetry_equiv_pos_as_xyz
'x, y, z'
_cell_length_a     25.763764
_cell_length_b     25.478519
_cell_length_c     25.440946
_cell_angle_alpha  109.80512
_cell_angle_beta   69.656123
_cell_angle_gamma 106.99829
loop_
_atom_site_label
_atom_site_type_symbol
_atom_site_fract_x
_atom_site_fract_y
_atom_site_fract_z
_atom_type_partial_charge
Co0 Co 0.06938 0.93219 0.05425 0.0
N1 N 0.08649 0.91751 0.11292 0.0
C2 C 0.0488 0.88608 0.14831 0.0
N3 N 0.1298 0.90177 0.16768 0.0
C4 C 0.13574 0.92705 0.12622 0.0
C5 C 0.07499 0.87675 0.18195 0.0
Co6 Co 0.96181 0.0652 0.94564 0.0
N7 N 0.94365 0.07676 0.88724 0.0
N8 N 0.91477 0.11759 0.83989 0.0
C9 C 0.93093 0.06927 0.80301 0.0
C10 C 0.94894 0.0445 0.83204 0.0
C11 C 0.92373 0.1215 0.89062 0.0
Co12 Co 1.01592 0.99949 1.00006 0.0
C13 C 0.92062 0.0624 0.02862 0.0
H14 H 0.96548 1.00587 0.81378 0.0
O15 O 0.05885 0.94275 0.99447 0.0
O16 O 0.07842 0.02308 0.93249 0.0
O17 O 0.05652 0.06135 0.05405 0.0
O18 O 0.95295 0.97573 0.06725 0.0
O19 O 0.99568 0.93286 0.09917 0.0
O20 O 0.03498 0.06419 0.8992 0.0
O21 O 0.97368 0.05726 0.00572 0.0
O22 O 0.9408 0.98673 0.91486 0.0
O23 O 0.08919 1.01056 0.0875 0.0
O24 O 0.13771 0.93263 0.00554 0.0
O25 O 0.97549 0.93664 0.94634 0.0
O26 O 0.89359 0.06507 0.9951 0.0
C27 C 0.08353 0.05768 0.08585 0.0
C28 C 0.91853 0.17163 0.94295 0.0
H29 H 0.94893 0.1757 0.96683 0.0
H30 H 0.92617 0.21144 0.93032 0.0
H31 H 0.87547 0.16499 0.97273 0.0
C32 C 0.07815 0.04781 0.89628 0.0
C33 C 0.9526 0.94939 0.10231 0.0
H34 H 1.00532 0.86851 0.14797 0.0
H35 H 0.21189 0.93602 0.05733 0.0
H36 H 0.21833 0.97933 0.12817 0.0
H37 H 0.18186 0.99883 0.09079 0.0
C38 C 0.19001 0.96255 0.09932 0.0
C39 C 0.1124 0.9396 0.97291 0.0
C40 C 0.94697 0.9397 0.91581 0.0
H41 H 0.05597 0.85038 0.21201 0.0
H42 H 0.92923 0.0527 0.7583 0.0
Co43 Co 0.57777 0.44798 0.55517 0.0
N44 N 0.59819 0.43891 0.61401 0.0
C45 C 0.58391 0.4681 0.67048 0.0
N46 N 0.63436 0.40885 0.66461 0.0
C47 C 0.62812 0.4022 0.61179 0.0
C48 C 0.60657 0.45032 0.70134 0.0
Co49 Co 0.44268 0.55708 0.45176 0.0
N50 N 0.42518 0.56972 0.39253 0.0
N51 N 0.39777 0.60768 0.34108 0.0
C52 C 0.42381 0.56498 0.30421 0.0
C53 C 0.44017 0.54156 0.33579 0.0
C54 C 0.39889 0.60965 0.39467 0.0
Co55 Co 0.51211 0.50453 0.50344 0.0
C56 C 0.46277 0.60715 0.52564 0.0
H57 H 0.4631 0.50717 0.31823 0.0
O58 O 0.56408 0.45491 0.49574 0.0
O59 O 0.57188 0.53677 0.44043 0.0
O60 O 0.5441 0.57033 0.56154 0.0
O61 O 0.4525 0.47128 0.56688 0.0
O62 O 0.50268 0.4344 0.59699 0.0
O63 O 0.5177 0.56269 0.40628 0.0
O64 O 0.45811 0.55178 0.51146 0.0
O65 O 0.42755 0.479 0.41903 0.0
O66 O 0.58477 0.5256 0.59247 0.0
O67 O 0.64751 0.46212 0.50947 0.0
O68 O 0.47892 0.43936 0.445 0.0
O69 O 0.45954 0.62972 0.48836 0.0
C70 C 0.57176 0.57031 0.59423 0.0
C71 C 0.37908 0.65394 0.4496 0.0
H72 H 0.36246 0.63526 0.48725 0.0
H73 H 0.41544 0.68915 0.45663 0.0
H74 H 0.34618 0.67265 0.44817 0.0
C75 C 0.56554 0.55664 0.40381 0.0
C76 C 0.45622 0.44429 0.59949 0.0
H77 H 0.55795 0.49987 0.6884 0.0
H78 H 0.619 0.31779 0.55629 0.0
H79 H 0.69071 0.35153 0.5565 0.0
H80 H 0.65497 0.37114 0.51795 0.0
C81 C 0.64996 0.35863 0.55733 0.0
C82 C 0.61884 0.45816 0.4745 0.0
C83 C 0.44442 0.43621 0.41743 0.0
H84 H 0.60244 0.4662 0.74754 0.0
H85 H 0.43134 0.55229 0.25746 0.0
H86 H 0.05546 0.10485 0.20187 0.0
H87 H 0.1203 0.17016 0.25803 0.0
H88 H 0.25017 0.18371 0.09856 0.0
H89 H 0.18476 0.11929 0.04245 0.0
H90 H 0.28195 0.14929 0.17701 0.0
H91 H 0.20118 0.29589 0.17632 0.0
H92 H 0.12409 0.34222 0.18989 0.0
H93 H 0.06727 0.34846 0.37143 0.0
H94 H 0.14359 0.30132 0.35877 0.0
H95 H 0.47847 0.38612 0.3021 0.0
H96 H 0.41745 0.31468 0.24478 0.0
H97 H 0.28714 0.29732 0.40294 0.0
H98 H 0.34864 0.36771 0.46011 0.0
H99 H 0.25617 0.33287 0.32468 0.0
H100 H 0.33687 0.18762 0.32647 0.0
H101 H 0.41349 0.14116 0.31383 0.0
H102 H 0.4698 0.13154 0.13151 0.0
H103 H 0.3941 0.17907 0.14326 0.0
C104 C 0.09703 0.12394 0.17908 0.0
C105 C 0.11489 0.10871 0.11816 0.0
C106 C 0.13418 0.16062 0.21102 0.0
C107 C 0.19005 0.18153 0.18237 0.0
C108 C 0.20721 0.16804 0.12139 0.0
C109 C 0.16971 0.13208 0.08948 0.0
C110 C 0.23137 0.21396 0.21615 0.0
C111 C 0.27693 0.18991 0.20866 0.0
C112 C 0.22364 0.26597 0.25858 0.0
C113 C 0.17777 0.2945 0.26646 0.0
C114 C 0.17194 0.30664 0.21904 0.0
C115 C 0.12844 0.33316 0.22658 0.0
C116 C 0.09069 0.34812 0.28146 0.0
C117 C 0.09649 0.33675 0.32893 0.0
C118 C 0.1399 0.31018 0.3216 0.0
C119 C 0.43799 0.36467 0.32442 0.0
C120 C 0.41849 0.38108 0.38526 0.0
C121 C 0.40296 0.32443 0.29179 0.0
C122 C 0.34771 0.30108 0.31973 0.0
C123 C 0.32965 0.31484 0.38067 0.0
C124 C 0.36496 0.35439 0.41323 0.0
C125 C 0.3068 0.26825 0.28558 0.0
C126 C 0.26128 0.29227 0.293 0.0
C127 C 0.31456 0.21622 0.24323 0.0
C128 C 0.36018 0.1876 0.23589 0.0
C129 C 0.36597 0.17624 0.28378 0.0
C130 C 0.40919 0.1496 0.27676 0.0
C131 C 0.4466 0.13355 0.22192 0.0
C132 C 0.44083 0.14408 0.17398 0.0
C133 C 0.39776 0.17088 0.18079 0.0
H134 H 0.47999 0.11284 0.21655 0.0
H135 H 0.05703 0.36865 0.28722 0.0
H136 H 0.81828 0.03214 0.10211 0.0
H137 H 0.76625 0.10027 0.18151 0.0
H138 H 0.91775 0.23035 0.16753 0.0
H139 H 0.97025 0.16122 0.09098 0.0
H140 H 0.85828 0.25576 0.27153 0.0
H141 H 0.81128 0.20011 0.08909 0.0
H142 H 0.77581 0.13355 0.00684 0.0
H143 H 0.61583 0.08644 0.125 0.0
H144 H 0.65028 0.15212 0.20796 0.0
H145 H 0.72283 0.48874 0.403 0.0
H146 H 0.77664 0.42193 0.32369 0.0
H147 H 0.62705 0.28938 0.33538 0.0
H148 H 0.57271 0.35712 0.4114 0.0
H149 H 0.68678 0.26616 0.23175 0.0
H150 H 0.73584 0.32534 0.41483 0.0
H151 H 0.77286 0.39504 0.49475 0.0
H152 H 0.93162 0.43757 0.37284 0.0
H153 H 0.89545 0.3693 0.29205 0.0
C154 C 0.84111 0.07439 0.11845 0.0
C155 C 0.8985 0.09109 0.09063 0.0
C156 C 0.81099 0.11392 0.16285 0.0
C157 C 0.83715 0.17156 0.17889 0.0
C158 C 0.89598 0.18658 0.15568 0.0
C159 C 0.9264 0.14663 0.11236 0.0
C160 C 0.80314 0.21677 0.21588 0.0
C161 C 0.82107 0.25819 0.26237 0.0
C162 C 0.754 0.22029 0.20481 0.0
C163 C 0.73357 0.18061 0.15478 0.0
C164 C 0.76868 0.17527 0.09754 0.0
C165 C 0.74878 0.13775 0.05082 0.0
C166 C 0.6938 0.1057 0.06073 0.0
C167 C 0.65847 0.11118 0.11738 0.0
C168 C 0.67812 0.14855 0.16426 0.0
C169 C 0.70087 0.44613 0.38634 0.0
C170 C 0.64341 0.42842 0.41328 0.0
C171 C 0.732 0.40738 0.34195 0.0
C172 C 0.70687 0.34948 0.32518 0.0
C173 C 0.64809 0.33336 0.34779 0.0
C174 C 0.61663 0.37252 0.39094 0.0
C175 C 0.74166 0.30499 0.2877 0.0
C176 C 0.72392 0.26371 0.24102 0.0
C177 C 0.79118 0.30184 0.2984 0.0
C178 C 0.81272 0.34259 0.34731 0.0
C179 C 0.77852 0.34979 0.40504 0.0
C180 C 0.79932 0.38902 0.45047 0.0
C181 C 0.85439 0.42065 0.43887 0.0
C182 C 0.88891 0.41313 0.38178 0.0
C183 C 0.86828 0.37426 0.33614 0.0
H184 H 0.87035 0.45091 0.47415 0.0
H185 H 0.67852 0.07673 0.02448 0.0
H186 H 0.93999 0.94978 0.21214 0.0
H187 H 0.87038 0.88266 0.26365 0.0
H188 H 0.77833 0.83082 0.13573 0.0
H189 H 0.84902 0.89776 0.08305 0.0
H190 H 0.70885 0.832 0.25538 0.0
H191 H 0.8642 0.75627 0.11066 0.0
H192 H 0.96287 0.74822 0.05686 0.0
H193 H 0.99285 0.74451 0.21124 0.0
H194 H 0.8946 0.75379 0.26634 0.0
H195 H 0.56957 0.56305 0.29838 0.0
H196 H 0.63487 0.63196 0.24666 0.0
H197 H 0.73573 0.68263 0.36649 0.0
H198 H 0.66989 0.6134 0.419 0.0
H199 H 0.79936 0.68219 0.25015 0.0
H200 H 0.63633 0.74933 0.39189 0.0
H201 H 0.5344 0.7461 0.43756 0.0
H202 H 0.51634 0.76209 0.28245 0.0
H203 H 0.61745 0.7622 0.23467 0.0
C204 C 0.90359 0.92588 0.19631 0.0
C205 C 0.89998 0.92882 0.14349 0.0
C206 C 0.86419 0.88709 0.22548 0.0
C207 C 0.82004 0.85084 0.20273 0.0
C208 C 0.81241 0.85825 0.15374 0.0
C209 C 0.85237 0.897 0.12407 0.0
C210 C 0.78631 0.80163 0.2266 0.0
C211 C 0.72837 0.79884 0.25368 0.0
C212 C 0.81215 0.75882 0.225 0.0
C213 C 0.87216 0.75645 0.19283 0.0
C214 C 0.89204 0.75469 0.13341 0.0
C215 C 0.94781 0.74953 0.10257 0.0
C216 C 0.98403 0.74562 0.13056 0.0
C217 C 0.96468 0.74737 0.18957 0.0
C218 C 0.909 0.75271 0.22066 0.0
C219 C 0.60661 0.5876 0.31273 0.0
C220 C 0.61434 0.58324 0.3631 0.0
C221 C 0.64365 0.62727 0.28334 0.0
C222 C 0.68915 0.66353 0.30376 0.0
C223 C 0.70041 0.6554 0.35046 0.0
C224 C 0.66313 0.61547 0.38008 0.0
C225 C 0.7219 0.71255 0.27922 0.0
C226 C 0.77977 0.7154 0.25209 0.0
C227 C 0.69569 0.75494 0.28024 0.0
C228 C 0.6346 0.75492 0.30928 0.0
C229 C 0.61052 0.75114 0.36708 0.0
C230 C 0.55275 0.74972 0.39335 0.0
C231 C 0.51876 0.75337 0.36277 0.0
C232 C 0.54251 0.75856 0.30591 0.0
C233 C 0.60003 0.75906 0.27911 0.0
H234 H 0.4741 0.75252 0.3832 0.0
H235 H 0.02719 0.74159 0.10661 0.0
H236 H 0.12444 0.90497 0.27601 0.0
H237 H 0.18634 0.86887 0.30377 0.0
H238 H 0.29307 0.83846 0.12721 0.0
H239 H 0.22922 0.87136 0.09897 0.0
H240 H 0.26937 0.74853 0.15949 0.0
H241 H 0.33952 0.93946 0.24314 0.0
H242 H 0.33901 0.03916 0.30001 0.0
H243 H 0.25593 0.98568 0.457 0.0
H244 H 0.25476 0.88534 0.40092 0.0
H245 H 0.45637 0.66061 0.25683 0.0
H246 H 0.42413 0.72377 0.2253 0.0
H247 H 0.26376 0.70193 0.35396 0.0
H248 H 0.29473 0.63615 0.38301 0.0
H249 H 0.33121 0.82643 0.33996 0.0
H250 H 0.25142 0.63119 0.24168 0.0
H251 H 0.26179 0.53477 0.17894 0.0
H252 H 0.37987 0.60577 0.04139 0.0
H253 H 0.37081 0.70271 0.10377 0.0
C254 C 0.1619 0.89181 0.24359 0.0
C255 C 0.17253 0.89193 0.18564 0.0
C256 C 0.19752 0.87154 0.25947 0.0
C257 C 0.24488 0.85142 0.21773 0.0
C258 C 0.25702 0.85402 0.16028 0.0
C259 C 0.22098 0.87372 0.1443 0.0
C260 C 0.27729 0.82157 0.23269 0.0
C261 C 0.2839 0.76636 0.19834 0.0
C262 C 0.29634 0.84439 0.28342 0.0
C263 C 0.29666 0.90468 0.31765 0.0
C264 C 0.32064 0.94882 0.28972 0.0
C265 C 0.32075 1.00551 0.32184 0.0
C266 C 0.29744 0.01875 0.38206 0.0
C267 C 0.27396 0.97532 0.41032 0.0
C268 C 0.27359 0.9185 0.37837 0.0
C269 C 0.41443 0.66978 0.27852 0.0
C270 C 0.37885 0.64565 0.32401 0.0
C271 C 0.39623 0.70587 0.26073 0.0
C272 C 0.34211 0.71829 0.28827 0.0
C273 C 0.30622 0.69385 0.33331 0.0
C274 C 0.32407 0.65686 0.35025 0.0
C275 C 0.32138 0.75373 0.26758 0.0
C276 C 0.3172 0.80964 0.3008 0.0
C277 C 0.30592 0.73233 0.21507 0.0
C278 C 0.31102 0.67411 0.1776 0.0
C279 C 0.28005 0.62623 0.19829 0.0
C280 C 0.28558 0.5715 0.16275 0.0
C281 C 0.32163 0.56415 0.10628 0.0
C282 C 0.35207 0.61153 0.08518 0.0
C283 C 0.34675 0.66635 0.12059 0.0
H284 H 0.32583 0.52174 0.07882 0.0
H285 H 0.29762 0.06267 0.4068 0.0
H286 H 0.21332 0.99105 0.91423 0.0
H287 H 0.2791 0.93757 0.83299 0.0
H288 H 0.14369 0.7919 0.81418 0.0
H289 H 0.07753 0.84598 0.89409 0.0
H290 H 0.24209 0.78193 0.84761 0.0
H291 H 0.19813 0.83878 0.70669 0.0
H292 H 0.18875 0.91064 0.66737 0.0
H293 H 0.36478 0.98524 0.64666 0.0
H294 H 0.37501 0.91438 0.68683 0.0
H295 H 0.37771 0.57436 0.61452 0.0
H296 H 0.32166 0.6391 0.69292 0.0
H297 H 0.45075 0.78264 0.65129 0.0
H298 H 0.50573 0.71763 0.57125 0.0
H299 H 0.35842 0.79884 0.65053 0.0
H300 H 0.40897 0.75218 0.78809 0.0
H301 H 0.4262 0.69205 0.83606 0.0
H302 H 0.25062 0.6122 0.87311 0.0
H303 H 0.23242 0.67141 0.82469 0.0
C304 C 0.19688 0.94896 0.89013 0.0
C305 C 0.14017 0.92291 0.9101 0.0
C306 C 0.23473 0.91802 0.84441 0.0
C307 C 0.21652 0.86036 0.81839 0.0
C308 C 0.1587 0.83624 0.83395 0.0
C309 C 0.12062 0.86763 0.87883 0.0
C310 C 0.25852 0.8237 0.78112 0.0
C311 C 0.26696 0.78481 0.80406 0.0
C312 C 0.29307 0.82986 0.72581 0.0
C313 C 0.28721 0.87157 0.70031 0.0
C314 C 0.23476 0.87076 0.69418 0.0
C315 C 0.2293 0.91128 0.67167 0.0
C316 C 0.2761 0.95259 0.65468 0.0
C317 C 0.32854 0.95326 0.65991 0.0
C318 C 0.3342 0.91289 0.68249 0.0
C319 C 0.39566 0.61951 0.62417 0.0
C320 C 0.44628 0.64084 0.58679 0.0
C321 C 0.36313 0.65684 0.66881 0.0
C322 C 0.38128 0.71623 0.67788 0.0
C323 C 0.43514 0.73721 0.64488 0.0
C324 C 0.46724 0.69993 0.59982 0.0
C325 C 0.34169 0.75572 0.7164 0.0
C326 C 0.33377 0.79554 0.69398 0.0
C327 C 0.30882 0.75174 0.77309 0.0
C328 C 0.31942 0.71589 0.80224 0.0
C329 C 0.37409 0.72147 0.80603 0.0
C330 C 0.38402 0.68762 0.8334 0.0
C331 C 0.33955 0.64822 0.85748 0.0
C332 C 0.28503 0.64271 0.85438 0.0
C333 C 0.27486 0.67647 0.82705 0.0
H334 H 0.34731 0.62203 0.87865 0.0
H335 H 0.27177 0.98399 0.63737 0.0
H336 H 0.44513 0.43771 0.70663 0.0
H337 H 0.37829 0.36703 0.75493 0.0
H338 H 0.28711 0.31502 0.62604 0.0
H339 H 0.35528 0.38553 0.57655 0.0
H340 H 0.26827 0.3366 0.80348 0.0
H341 H 0.24783 0.17096 0.59159 0.0
H342 H 0.2959 0.15258 0.48652 0.0
H343 H 0.45501 0.23729 0.52306 0.0
H344 H 0.40782 0.25601 0.62838 0.0
H345 H 0.08914 0.04077 0.78483 0.0
H346 H 0.15755 0.1053 0.7295 0.0
H347 H 0.25192 0.16469 0.85636 0.0
H348 H 0.18244 0.10041 0.91263 0.0
H349 H 0.26634 0.13871 0.67826 0.0
H350 H 0.27964 0.30876 0.89418 0.0
H351 H 0.22581 0.32743 0.99784 0.0
H352 H 0.07305 0.23362 0.95107 0.0
H353 H 0.12579 0.21521 0.84725 0.0
C354 C 0.40969 0.41255 0.68968 0.0
C355 C 0.40549 0.41694 0.63773 0.0
C356 C 0.37157 0.37194 0.71725 0.0
C357 C 0.32852 0.33456 0.69333 0.0
C358 C 0.32076 0.34262 0.64463 0.0
C359 C 0.35912 0.38353 0.61687 0.0
C360 C 0.29604 0.2844 0.71649 0.0
C361 C 0.2683 0.29339 0.77613 0.0
C362 C 0.29498 0.2278 0.6808 0.0
C363 C 0.32423 0.21517 0.61774 0.0
C364 C 0.29312 0.18533 0.57714 0.0
C365 C 0.3202 0.17492 0.51757 0.0
C366 C 0.37848 0.19372 0.49809 0.0
C367 C 0.40985 0.22282 0.53819 0.0
C368 C 0.38296 0.2334 0.59782 0.0
C369 C 0.12593 0.0657 0.79951 0.0
C370 C 0.13027 0.0661 0.85327 0.0
C371 C 0.16493 0.10284 0.76794 0.0
C372 C 0.20887 0.14121 0.78969 0.0
C373 C 0.21755 0.13628 0.83941 0.0
C374 C 0.17835 0.09894 0.87116 0.0
C375 C 0.23951 0.19101 0.76541 0.0
C376 C 0.26656 0.18194 0.70563 0.0
C377 C 0.23923 0.2476 0.80078 0.0
C378 C 0.20682 0.26014 0.86303 0.0
C379 C 0.23452 0.29243 0.90606 0.0
C380 C 0.2042 0.30292 0.96483 0.0
C381 C 0.14609 0.28157 0.98104 0.0
C382 C 0.11808 0.25001 0.9385 0.0
C383 C 0.14817 0.23955 0.8797 0.0
H384 H 0.12276 0.28957 0.02656 0.0
H385 H 0.39932 0.18572 0.45193 0.0
H386 H 0.94817 0.14861 0.74026 0.0
H387 H 0.90196 0.20284 0.71318 0.0
H388 H 0.78077 0.22349 0.88239 0.0
H389 H 0.82501 0.16638 0.90809 0.0
H390 H 0.72849 0.19433 0.80365 0.0
H391 H 0.88832 0.33521 0.84365 0.0
H392 H 0.98903 0.37572 0.83731 0.0
H393 H 0.02459 0.35506 0.65436 0.0
H394 H 0.92418 0.31365 0.65942 0.0
H395 H 0.70403 0.4595 0.7327 0.0
H396 H 0.75292 0.41346 0.76616 0.0
H397 H 0.68577 0.24981 0.6646 0.0
H398 H 0.63373 0.29564 0.63447 0.0
H399 H 0.83166 0.35566 0.71616 0.0
H400 H 0.66439 0.14765 0.73004 0.0
H401 H 0.56127 0.11463 0.74751 0.0
H402 H 0.53614 0.28408 0.84419 0.0
H403 H 0.63902 0.31793 0.82796 0.0
C404 C 0.91189 0.16513 0.77168 0.0
C405 C 0.89081 0.15431 0.82663 0.0
C406 C 0.88578 0.19642 0.75641 0.0
C407 C 0.83841 0.21801 0.79609 0.0
C408 C 0.81753 0.20761 0.85124 0.0
C409 C 0.84334 0.17577 0.86627 0.0
C410 C 0.80912 0.24905 0.77897 0.0
C411 C 0.75103 0.22974 0.78471 0.0
C412 C 0.83833 0.29579 0.75508 0.0
C413 C 0.89877 0.32086 0.75184 0.0
C414 C 0.91768 0.33891 0.80197 0.0
C415 C 0.9747 0.3621 0.79862 0.0
C416 C 1.01321 0.36784 0.74544 0.0
C417 C 0.99473 0.35053 0.69552 0.0
C418 C 0.93775 0.32725 0.69861 0.0
C419 C 0.6997 0.41368 0.71775 0.0
C420 C 0.66577 0.38118 0.68045 0.0
C421 C 0.7279 0.38746 0.73649 0.0
C422 C 0.72274 0.32815 0.71824 0.0
C423 C 0.68981 0.29561 0.67987 0.0
C424 C 0.66088 0.32185 0.66179 0.0
C425 C 0.75114 0.30057 0.74031 0.0
C426 C 0.80911 0.32037 0.73528 0.0
C427 C 0.72145 0.25545 0.76656 0.0
C428 C 0.65944 0.23538 0.77725 0.0
C429 C 0.63683 0.1778 0.75522 0.0
C430 C 0.57843 0.15895 0.76487 0.0
C431 C 0.54219 0.19727 0.79678 0.0
C432 C 0.56427 0.25448 0.8193 0.0
C433 C 0.62262 0.27353 0.80984 0.0
H434 H 0.49701 0.18261 0.80414 0.0
H435 H 0.05734 0.38581 0.74294 0.0
H436 H 0.54759 0.5954 0.7109 0.0
H437 H 0.60981 0.6609 0.76905 0.0
H438 H 0.7123 0.72748 0.62216 0.0
H439 H 0.65057 0.66015 0.56329 0.0
H440 H 0.77404 0.69035 0.66275 0.0
H441 H 0.63502 0.80904 0.74938 0.0
H442 H 0.53823 0.82668 0.79763 0.0
H443 H 0.53262 0.77365 0.94303 0.0
H444 H 0.62903 0.75469 0.89522 0.0
H445 H 0.96272 0.90948 0.80003 0.0
H446 H 0.89474 0.84593 0.74811 0.0
H447 H 0.79338 0.792 0.90294 0.0
H448 H 0.86092 0.8582 0.95581 0.0
H449 H 0.72916 0.82055 0.86077 0.0
H450 H 0.86416 0.70043 0.7775 0.0
H451 H 0.95794 0.67497 0.72943 0.0
H452 H 0.96858 0.72347 0.57943 0.0
H453 H 0.87517 0.75 0.62691 0.0
C454 C 0.58222 0.62552 0.69178 0.0
C455 C 0.59432 0.62307 0.63287 0.0
C456 C 0.61783 0.66299 0.72502 0.0
C457 C 0.666 0.69909 0.70001 0.0
C458 C 0.67546 0.69992 0.64235 0.0
C459 C 0.63974 0.6622 0.609 0.0
C460 C 0.70956 0.7306 0.73166 0.0
C461 C 0.7645 0.71972 0.7056 0.0
C462 C 0.69644 0.76671 0.78875 0.0
C463 C 0.63919 0.78006 0.81849 0.0
C464 C 0.61309 0.80091 0.79154 0.0
C465 C 0.55826 0.81113 0.81881 0.0
C466 C 0.52925 0.80119 0.8733 0.0
C467 C 0.55513 0.7813 0.9008 0.0
C468 C 0.6099 0.77088 0.87366 0.0
C469 C 0.9267 0.88291 0.82247 0.0
C470 C 0.9171 0.88837 0.88166 0.0
C471 C 0.88783 0.84638 0.79274 0.0
C472 C 0.83874 0.81385 0.82141 0.0
C473 C 0.83085 0.81667 0.87984 0.0
C474 C 0.86984 0.85368 0.90978 0.0
C475 C 0.79403 0.78097 0.79143 0.0
C476 C 0.73881 0.79134 0.81785 0.0
C477 C 0.80663 0.74376 0.73485 0.0
C478 C 0.8628 0.72764 0.70601 0.0
C479 C 0.88666 0.70607 0.73444 0.0
C480 C 0.93973 0.69137 0.70726 0.0
C481 C 0.96925 0.69771 0.65147 0.0
C482 C 0.94568 0.71862 0.62267 0.0
C483 C 0.89263 0.73342 0.64967 0.0
H484 H 1.01034 0.68632 0.63051 0.0
H485 H 0.48674 0.80894 0.89424 0.0
loop_
_geom_bond_atom_site_label_1
_geom_bond_atom_site_label_2
_geom_bond_distance
_geom_bond_site_symmetry_2
_ccdc_geom_bond_type
Co0 N1 2.034 . S
Co0 O15 2.262 1_554 S
Co0 O19 1.958 1_455 S
Co0 O23 1.950 1_565 S
Co0 O24 2.057 1_554 S
N1 Co0 2.034 . S
N1 C2 1.366 . S
N1 C4 1.332 . S
C2 N1 1.366 . S
C2 C5 1.377 . S
C2 H34 0.931 . S
N3 C4 1.346 . S
N3 C5 1.337 . S
C4 N1 1.332 . S
C4 N3 1.346 . S
C4 C38 1.361 . S
C5 C2 1.377 . S
C5 N3 1.337 . S
C5 H41 0.930 . S
Co6 N7 2.034 . S
Co6 O20 1.950 1_655 S
Co6 O21 2.262 1_556 S
Co6 O22 1.958 1_545 S
Co6 O26 2.057 1_556 S
N7 Co6 2.034 . S
N7 C10 1.366 . S
N7 C11 1.332 . S
N8 C9 1.337 . S
N8 C11 1.346 . S
C9 N8 1.337 . S
C9 C10 1.377 . S
C9 H42 0.930 . S
C10 N7 1.366 . S
C10 C9 1.377 . S
C10 H14 0.931 . S
C11 N7 1.332 . S
C11 N8 1.346 . S
C11 C28 1.361 . S
Co12 O15 2.097 1_654 S
Co12 O16 2.065 1_664 S
Co12 O17 2.065 1_665 S
Co12 O18 2.042 . S
Co12 O21 2.097 1_565 S
Co12 O25 2.042 1_554 S
C13 O21 1.253 . S
C13 O26 1.263 . S
H14 C10 0.931 . S
O15 Co0 2.262 1_556 S
O15 Co12 2.097 1_456 S
O15 C39 1.253 . S
O16 Co12 2.065 1_446 S
O16 C32 1.221 . S
O17 Co12 2.065 1_445 S
O17 C27 1.221 . S
O18 Co12 2.042 . S
O18 C33 1.237 . S
O19 Co0 1.958 1_655 S
O19 C33 1.278 . S
O20 Co6 1.950 1_455 S
O20 C32 1.277 . S
O21 Co6 2.262 1_554 S
O21 Co12 2.097 1_545 S
O21 C13 1.253 . S
O22 Co6 1.958 1_565 S
O22 C40 1.278 . S
O23 Co0 1.950 1_545 S
O23 C27 1.277 . S
O24 Co0 2.057 1_556 S
O24 C39 1.263 . S
O25 Co12 2.042 1_556 S
O25 C40 1.237 . S
O26 Co6 2.057 1_554 S
O26 C13 1.263 . S
C27 O17 1.221 . S
C27 O23 1.277 . S
C28 C11 1.361 . S
C28 H29 0.960 . S
C28 H30 0.961 . S
C28 H31 0.961 . S
H29 C28 0.960 . S
H30 C28 0.961 . S
H31 C28 0.961 . S
C32 O16 1.221 . S
C32 O20 1.277 . S
C33 O18 1.237 . S
C33 O19 1.278 . S
H34 C2 0.931 . S
H35 C38 0.961 . S
H36 C38 0.961 . S
H37 C38 0.960 . S
C38 C4 1.361 . S
C38 H35 0.961 . S
C38 H36 0.961 . S
C38 H37 0.960 . S
C39 O15 1.253 . S
C39 O24 1.263 . S
C40 O22 1.278 . S
C40 O25 1.237 . S
H41 C5 0.930 . S
H42 C9 0.930 . S
Co43 N44 2.034 . S
Co43 O58 2.262 . S
Co43 O62 1.958 . S
Co43 O66 1.950 . S
Co43 O67 2.057 . S
N44 Co43 2.034 . S
N44 C45 1.366 . S
N44 C47 1.332 . S
C45 N44 1.366 . S
C45 C48 1.377 . S
C45 H77 0.931 . S
N46 C47 1.346 . S
N46 C48 1.337 . S
C47 N44 1.332 . S
C47 N46 1.346 . S
C47 C81 1.361 . S
C48 C45 1.377 . S
C48 N46 1.337 . S
C48 H84 0.930 . S
Co49 N50 2.034 . S
Co49 O63 1.950 . S
Co49 O64 2.262 . S
Co49 O65 1.958 . S
Co49 O69 2.057 . S
N50 Co49 2.034 . S
N50 C53 1.366 . S
N50 C54 1.332 . S
N51 C52 1.337 . S
N51 C54 1.346 . S
C52 N51 1.337 . S
C52 C53 1.377 . S
C52 H85 0.930 . S
C53 N50 1.366 . S
C53 C52 1.377 . S
C53 H57 0.931 . S
C54 N50 1.332 . S
C54 N51 1.346 . S
C54 C71 1.361 . S
Co55 O58 2.097 . S
Co55 O59 2.065 . S
Co55 O60 2.065 . S
Co55 O61 2.042 . S
Co55 O64 2.097 . S
Co55 O68 2.042 . S
C56 O64 1.253 . S
C56 O69 1.263 . S
H57 C53 0.931 . S
O58 Co43 2.262 . S
O58 Co55 2.097 . S
O58 C82 1.253 . S
O59 Co55 2.065 . S
O59 C75 1.221 . S
O60 Co55 2.065 . S
O60 C70 1.221 . S
O61 Co55 2.042 . S
O61 C76 1.237 . S
O62 Co43 1.958 . S
O62 C76 1.278 . S
O63 Co49 1.950 . S
O63 C75 1.277 . S
O64 Co49 2.262 . S
O64 Co55 2.097 . S
O64 C56 1.253 . S
O65 Co49 1.958 . S
O65 C83 1.278 . S
O66 Co43 1.950 . S
O66 C70 1.277 . S
O67 Co43 2.057 . S
O67 C82 1.263 . S
O68 Co55 2.042 . S
O68 C83 1.237 . S
O69 Co49 2.057 . S
O69 C56 1.263 . S
C70 O60 1.221 . S
C70 O66 1.277 . S
C71 C54 1.361 . S
C71 H72 0.960 . S
C71 H73 0.961 . S
C71 H74 0.961 . S
H72 C71 0.960 . S
H73 C71 0.961 . S
H74 C71 0.961 . S
C75 O59 1.221 . S
C75 O63 1.277 . S
C76 O61 1.237 . S
C76 O62 1.278 . S
H77 C45 0.931 . S
H78 C81 0.961 . S
H79 C81 0.961 . S
H80 C81 0.960 . S
C81 C47 1.361 . S
C81 H78 0.961 . S
C81 H79 0.961 . S
C81 H80 0.960 . S
C82 O58 1.253 . S
C82 O67 1.263 . S
C83 O65 1.278 . S
C83 O68 1.237 . S
H84 C48 0.930 . S
H85 C52 0.930 . S
H86 C104 0.951 . S
H87 C106 0.951 . S
H88 C108 0.950 . S
H89 C109 0.950 . S
H90 C111 0.950 . S
H91 C114 0.950 . S
H92 C115 0.950 . S
H93 C117 0.950 . S
H94 C118 0.950 . S
H95 C119 0.951 . S
H96 C121 0.951 . S
H97 C123 0.950 . S
H98 C124 0.950 . S
H99 C126 0.950 . S
H100 C129 0.950 . S
H101 C130 0.950 . S
H102 C132 0.950 . S
H103 C133 0.950 . S
C104 H86 0.951 . S
C104 C105 1.366 . S
C104 C106 1.388 . S
C105 C104 1.366 . S
C105 C109 1.385 . S
C106 H87 0.951 . S
C106 C104 1.388 . S
C106 C107 1.366 . S
C107 C106 1.366 . S
C107 C108 1.414 . S
C107 C110 1.499 . S
C108 H88 0.950 . S
C108 C107 1.414 . S
C108 C109 1.374 . S
C109 H89 0.950 . S
C109 C105 1.385 . S
C109 C108 1.374 . S
C110 C107 1.499 . S
C110 C111 1.373 . S
C110 C112 1.389 . S
C111 H90 0.950 . S
C111 C110 1.373 . S
C111 C127 1.377 . S
C112 C110 1.389 . S
C112 C113 1.524 . S
C112 C126 1.377 . S
C113 C112 1.524 . S
C113 C114 1.397 . S
C113 C118 1.363 . S
C114 H91 0.950 . S
C114 C113 1.397 . S
C114 C115 1.334 . S
C115 H92 0.950 . S
C115 C114 1.334 . S
C115 C116 1.287 . S
C116 C115 1.287 . S
C116 C117 1.524 . S
C116 H135 0.913 . S
C117 H93 0.950 . S
C117 C116 1.524 . S
C117 C118 1.415 . S
C118 H94 0.950 . S
C118 C113 1.363 . S
C118 C117 1.415 . S
C119 H95 0.951 . S
C119 C120 1.366 . S
C119 C121 1.388 . S
C120 C119 1.366 . S
C120 C124 1.385 . S
C121 H96 0.951 . S
C121 C119 1.388 . S
C121 C122 1.366 . S
C122 C121 1.366 . S
C122 C123 1.414 . S
C122 C125 1.499 . S
C123 H97 0.950 . S
C123 C122 1.414 . S
C123 C124 1.374 . S
C124 H98 0.950 . S
C124 C120 1.385 . S
C124 C123 1.374 . S
C125 C122 1.499 . S
C125 C126 1.373 . S
C125 C127 1.389 . S
C126 H99 0.950 . S
C126 C112 1.377 . S
C126 C125 1.373 . S
C127 C111 1.377 . S
C127 C125 1.389 . S
C127 C128 1.524 . S
C128 C127 1.524 . S
C128 C129 1.397 . S
C128 C133 1.363 . S
C129 H100 0.950 . S
C129 C128 1.397 . S
C129 C130 1.334 . S
C130 H101 0.950 . S
C130 C129 1.334 . S
C130 C131 1.287 . S
C131 C130 1.287 . S
C131 C132 1.524 . S
C131 H134 0.999 . S
C132 H102 0.950 . S
C132 C131 1.524 . S
C132 C133 1.415 . S
C133 H103 0.950 . S
C133 C128 1.363 . S
C133 C132 1.415 . S
H134 C131 0.999 . S
H135 C116 0.913 . S
H136 C154 0.951 . S
H137 C156 0.951 . S
H138 C158 0.950 . S
H139 C159 0.950 . S
H140 C161 0.950 . S
H141 C164 0.950 . S
H142 C165 0.950 . S
H143 C167 0.950 . S
H144 C168 0.950 . S
H145 C169 0.951 . S
H146 C171 0.951 . S
H147 C173 0.950 . S
H148 C174 0.950 . S
H149 C176 0.950 . S
H150 C179 0.950 . S
H151 C180 0.950 . S
H152 C182 0.950 . S
H153 C183 0.950 . S
C154 H136 0.951 . S
C154 C155 1.366 . S
C154 C156 1.388 . S
C155 C154 1.366 . S
C155 C159 1.385 . S
C156 H137 0.951 . S
C156 C154 1.388 . S
C156 C157 1.366 . S
C157 C156 1.366 . S
C157 C158 1.414 . S
C157 C160 1.499 . S
C158 H138 0.950 . S
C158 C157 1.414 . S
C158 C159 1.374 . S
C159 H139 0.950 . S
C159 C155 1.385 . S
C159 C158 1.374 . S
C160 C157 1.499 . S
C160 C161 1.373 . S
C160 C162 1.389 . S
C161 H140 0.950 . S
C161 C160 1.373 . S
C161 C177 1.377 . S
C162 C160 1.389 . S
C162 C163 1.524 . S
C162 C176 1.377 . S
C163 C162 1.524 . S
C163 C164 1.397 . S
C163 C168 1.363 . S
C164 H141 0.950 . S
C164 C163 1.397 . S
C164 C165 1.334 . S
C165 H142 0.950 . S
C165 C164 1.334 . S
C165 C166 1.287 . S
C166 C165 1.287 . S
C166 C167 1.524 . S
C166 H185 0.913 1_545 S
C167 H143 0.950 . S
C167 C166 1.524 . S
C167 C168 1.415 . S
C168 H144 0.950 . S
C168 C163 1.363 . S
C168 C167 1.415 . S
C169 H145 0.951 . S
C169 C170 1.366 . S
C169 C171 1.388 . S
C170 C169 1.366 . S
C170 C174 1.385 . S
C171 H146 0.951 . S
C171 C169 1.388 . S
C171 C172 1.366 . S
C172 C171 1.366 . S
C172 C173 1.414 . S
C172 C175 1.499 . S
C173 H147 0.950 . S
C173 C172 1.414 . S
C173 C174 1.374 . S
C174 H148 0.950 . S
C174 C170 1.385 . S
C174 C173 1.374 . S
C175 C172 1.499 . S
C175 C176 1.373 . S
C175 C177 1.389 . S
C176 H149 0.950 . S
C176 C162 1.377 . S
C176 C175 1.373 . S
C177 C161 1.377 . S
C177 C175 1.389 . S
C177 C178 1.524 . S
C178 C177 1.524 . S
C178 C179 1.397 . S
C178 C183 1.363 . S
C179 H150 0.950 . S
C179 C178 1.397 . S
C179 C180 1.334 . S
C180 H151 0.950 . S
C180 C179 1.334 . S
C180 C181 1.287 . S
C181 C180 1.287 . S
C181 C182 1.524 . S
C181 H184 0.999 . S
C182 H152 0.950 . S
C182 C181 1.524 . S
C182 C183 1.415 . S
C183 H153 0.950 . S
C183 C178 1.363 . S
C183 C182 1.415 . S
H184 C181 0.999 . S
H185 C166 0.913 1_565 S
H186 C204 0.951 . S
H187 C206 0.951 . S
H188 C208 0.950 . S
H189 C209 0.950 . S
H190 C211 0.950 . S
H191 C214 0.950 . S
H192 C215 0.950 . S
H193 C217 0.950 . S
H194 C218 0.950 . S
H195 C219 0.951 . S
H196 C221 0.951 . S
H197 C223 0.950 . S
H198 C224 0.950 . S
H199 C226 0.950 . S
H200 C229 0.950 . S
H201 C230 0.950 . S
H202 C232 0.950 . S
H203 C233 0.950 . S
C204 H186 0.951 . S
C204 C205 1.366 . S
C204 C206 1.388 . S
C205 C204 1.366 . S
C205 C209 1.385 . S
C206 H187 0.951 . S
C206 C204 1.388 . S
C206 C207 1.366 . S
C207 C206 1.366 . S
C207 C208 1.414 . S
C207 C210 1.499 . S
C208 H188 0.950 . S
C208 C207 1.414 . S
C208 C209 1.374 . S
C209 H189 0.950 . S
C209 C205 1.385 . S
C209 C208 1.374 . S
C210 C207 1.499 . S
C210 C211 1.373 . S
C210 C212 1.389 . S
C211 H190 0.950 . S
C211 C210 1.373 . S
C211 C227 1.377 . S
C212 C210 1.389 . S
C212 C213 1.524 . S
C212 C226 1.377 . S
C213 C212 1.524 . S
C213 C214 1.397 . S
C213 C218 1.363 . S
C214 H191 0.950 . S
C214 C213 1.397 . S
C214 C215 1.334 . S
C215 H192 0.950 . S
C215 C214 1.334 . S
C215 C216 1.287 . S
C216 C215 1.287 . S
C216 C217 1.524 . S
C216 H235 0.913 . S
C217 H193 0.950 . S
C217 C216 1.524 . S
C217 C218 1.415 . S
C218 H194 0.950 . S
C218 C213 1.363 . S
C218 C217 1.415 . S
C219 H195 0.951 . S
C219 C220 1.366 . S
C219 C221 1.388 . S
C220 C219 1.366 . S
C220 C224 1.385 . S
C221 H196 0.951 . S
C221 C219 1.388 . S
C221 C222 1.366 . S
C222 C221 1.366 . S
C222 C223 1.414 . S
C222 C225 1.499 . S
C223 H197 0.950 . S
C223 C222 1.414 . S
C223 C224 1.374 . S
C224 H198 0.950 . S
C224 C220 1.385 . S
C224 C223 1.374 . S
C225 C222 1.499 . S
C225 C226 1.373 . S
C225 C227 1.389 . S
C226 H199 0.950 . S
C226 C212 1.377 . S
C226 C225 1.373 . S
C227 C211 1.377 . S
C227 C225 1.389 . S
C227 C228 1.524 . S
C228 C227 1.524 . S
C228 C229 1.397 . S
C228 C233 1.363 . S
C229 H200 0.950 . S
C229 C228 1.397 . S
C229 C230 1.334 . S
C230 H201 0.950 . S
C230 C229 1.334 . S
C230 C231 1.287 . S
C231 C230 1.287 . S
C231 C232 1.524 . S
C231 H234 0.999 . S
C232 H202 0.950 . S
C232 C231 1.524 . S
C232 C233 1.415 . S
C233 H203 0.950 . S
C233 C228 1.363 . S
C233 C232 1.415 . S
H234 C231 0.999 . S
H235 C216 0.913 . S
H236 C254 0.951 . S
H237 C256 0.951 . S
H238 C258 0.950 . S
H239 C259 0.950 . S
H240 C261 0.950 . S
H241 C264 0.950 . S
H242 C265 0.950 . S
H243 C267 0.950 . S
H244 C268 0.950 . S
H245 C269 0.951 . S
H246 C271 0.951 . S
H247 C273 0.950 . S
H248 C274 0.950 . S
H249 C276 0.950 . S
H250 C279 0.950 . S
H251 C280 0.950 . S
H252 C282 0.950 . S
H253 C283 0.950 . S
C254 H236 0.951 . S
C254 C255 1.366 . S
C254 C256 1.388 . S
C255 C254 1.366 . S
C255 C259 1.385 . S
C256 H237 0.951 . S
C256 C254 1.388 . S
C256 C257 1.366 . S
C257 C256 1.366 . S
C257 C258 1.414 . S
C257 C260 1.499 . S
C258 H238 0.950 . S
C258 C257 1.414 . S
C258 C259 1.374 . S
C259 H239 0.950 . S
C259 C255 1.385 . S
C259 C258 1.374 . S
C260 C257 1.499 . S
C260 C261 1.373 . S
C260 C262 1.389 . S
C261 H240 0.950 . S
C261 C260 1.373 . S
C261 C277 1.377 . S
C262 C260 1.389 . S
C262 C263 1.524 . S
C262 C276 1.377 . S
C263 C262 1.524 . S
C263 C264 1.397 . S
C263 C268 1.363 . S
C264 H241 0.950 . S
C264 C263 1.397 . S
C264 C265 1.334 . S
C265 H242 0.950 . S
C265 C264 1.334 . S
C265 C266 1.287 . S
C266 C265 1.287 . S
C266 C267 1.524 . S
C266 H285 0.932 . S
C267 H243 0.950 . S
C267 C266 1.524 . S
C267 C268 1.415 . S
C268 H244 0.950 . S
C268 C263 1.363 . S
C268 C267 1.415 . S
C269 H245 0.951 . S
C269 C270 1.366 . S
C269 C271 1.388 . S
C270 C269 1.366 . S
C270 C274 1.385 . S
C271 H246 0.951 . S
C271 C269 1.388 . S
C271 C272 1.366 . S
C272 C271 1.366 . S
C272 C273 1.414 . S
C272 C275 1.499 . S
C273 H247 0.950 . S
C273 C272 1.414 . S
C273 C274 1.374 . S
C274 H248 0.950 . S
C274 C270 1.385 . S
C274 C273 1.374 . S
C275 C272 1.499 . S
C275 C276 1.373 . S
C275 C277 1.389 . S
C276 H249 0.950 . S
C276 C262 1.377 . S
C276 C275 1.373 . S
C277 C261 1.377 . S
C277 C275 1.389 . S
C277 C278 1.524 . S
C278 C277 1.524 . S
C278 C279 1.397 . S
C278 C283 1.363 . S
C279 H250 0.950 . S
C279 C278 1.397 . S
C279 C280 1.334 . S
C280 H251 0.950 . S
C280 C279 1.334 . S
C280 C281 1.287 . S
C281 C280 1.287 . S
C281 C282 1.524 . S
C281 H284 0.999 . S
C282 H252 0.950 . S
C282 C281 1.524 . S
C282 C283 1.415 . S
C283 H253 0.950 . S
C283 C278 1.363 . S
C283 C282 1.415 . S
H284 C281 0.999 . S
H285 C266 0.932 . S
H286 C304 0.951 . S
H287 C306 0.951 . S
H288 C308 0.950 . S
H289 C309 0.950 . S
H290 C311 0.950 . S
H291 C314 0.950 . S
H292 C315 0.950 . S
H293 C317 0.950 . S
H294 C318 0.950 . S
H295 C319 0.951 . S
H296 C321 0.951 . S
H297 C323 0.950 . S
H298 C324 0.950 . S
H299 C326 0.950 . S
H300 C329 0.950 . S
H301 C330 0.950 . S
H302 C332 0.950 . S
H303 C333 0.950 . S
C304 H286 0.951 . S
C304 C305 1.366 . S
C304 C306 1.388 . S
C305 C304 1.366 . S
C305 C309 1.385 . S
C306 H287 0.951 . S
C306 C304 1.388 . S
C306 C307 1.366 . S
C307 C306 1.366 . S
C307 C308 1.414 . S
C307 C310 1.499 . S
C308 H288 0.950 . S
C308 C307 1.414 . S
C308 C309 1.374 . S
C309 H289 0.950 . S
C309 C305 1.385 . S
C309 C308 1.374 . S
C310 C307 1.499 . S
C310 C311 1.373 . S
C310 C312 1.389 . S
C311 H290 0.950 . S
C311 C310 1.373 . S
C311 C327 1.377 . S
C312 C310 1.389 . S
C312 C313 1.524 . S
C312 C326 1.377 . S
C313 C312 1.524 . S
C313 C314 1.397 . S
C313 C318 1.363 . S
C314 H291 0.950 . S
C314 C313 1.397 . S
C314 C315 1.334 . S
C315 H292 0.950 . S
C315 C314 1.334 . S
C315 C316 1.287 . S
C316 C315 1.287 . S
C316 C317 1.524 . S
C316 H335 0.913 . S
C317 H293 0.950 . S
C317 C316 1.524 . S
C317 C318 1.415 . S
C318 H294 0.950 . S
C318 C313 1.363 . S
C318 C317 1.415 . S
C319 H295 0.951 . S
C319 C320 1.366 . S
C319 C321 1.388 . S
C320 C319 1.366 . S
C320 C324 1.385 . S
C321 H296 0.951 . S
C321 C319 1.388 . S
C321 C322 1.366 . S
C322 C321 1.366 . S
C322 C323 1.414 . S
C322 C325 1.499 . S
C323 H297 0.950 . S
C323 C322 1.414 . S
C323 C324 1.374 . S
C324 H298 0.950 . S
C324 C320 1.385 . S
C324 C323 1.374 . S
C325 C322 1.499 . S
C325 C326 1.373 . S
C325 C327 1.389 . S
C326 H299 0.950 . S
C326 C312 1.377 . S
C326 C325 1.373 . S
C327 C311 1.377 . S
C327 C325 1.389 . S
C327 C328 1.524 . S
C328 C327 1.524 . S
C328 C329 1.397 . S
C328 C333 1.363 . S
C329 H300 0.950 . S
C329 C328 1.397 . S
C329 C330 1.334 . S
C330 H301 0.950 . S
C330 C329 1.334 . S
C330 C331 1.287 . S
C331 C330 1.287 . S
C331 C332 1.524 . S
C331 H334 0.999 . S
C332 H302 0.950 . S
C332 C331 1.524 . S
C332 C333 1.415 . S
C333 H303 0.950 . S
C333 C328 1.363 . S
C333 C332 1.415 . S
H334 C331 0.999 . S
H335 C316 0.913 . S
H336 C354 0.951 . S
H337 C356 0.951 . S
H338 C358 0.950 . S
H339 C359 0.950 . S
H340 C361 0.950 . S
H341 C364 0.950 . S
H342 C365 0.950 . S
H343 C367 0.950 . S
H344 C368 0.950 . S
H345 C369 0.951 . S
H346 C371 0.951 . S
H347 C373 0.950 . S
H348 C374 0.950 . S
H349 C376 0.950 . S
H350 C379 0.950 . S
H351 C380 0.949 . S
H352 C382 0.950 . S
H353 C383 0.950 . S
C354 H336 0.951 . S
C354 C355 1.366 . S
C354 C356 1.388 . S
C355 C354 1.366 . S
C355 C359 1.385 . S
C356 H337 0.951 . S
C356 C354 1.388 . S
C356 C357 1.366 . S
C357 C356 1.366 . S
C357 C358 1.414 . S
C357 C360 1.499 . S
C358 H338 0.950 . S
C358 C357 1.414 . S
C358 C359 1.374 . S
C359 H339 0.950 . S
C359 C355 1.385 . S
C359 C358 1.374 . S
C360 C357 1.499 . S
C360 C361 1.373 . S
C360 C362 1.389 . S
C361 H340 0.950 . S
C361 C360 1.373 . S
C361 C377 1.377 . S
C362 C360 1.389 . S
C362 C363 1.524 . S
C362 C376 1.377 . S
C363 C362 1.524 . S
C363 C364 1.397 . S
C363 C368 1.363 . S
C364 H341 0.950 . S
C364 C363 1.397 . S
C364 C365 1.334 . S
C365 H342 0.950 . S
C365 C364 1.334 . S
C365 C366 1.287 . S
C366 C365 1.287 . S
C366 C367 1.524 . S
C366 H385 0.913 . S
C367 H343 0.950 . S
C367 C366 1.524 . S
C367 C368 1.415 . S
C368 H344 0.950 . S
C368 C363 1.363 . S
C368 C367 1.415 . S
C369 H345 0.951 . S
C369 C370 1.366 . S
C369 C371 1.388 . S
C370 C369 1.366 . S
C370 C374 1.385 . S
C371 H346 0.951 . S
C371 C369 1.388 . S
C371 C372 1.366 . S
C372 C371 1.366 . S
C372 C373 1.414 . S
C372 C375 1.499 . S
C373 H347 0.950 . S
C373 C372 1.414 . S
C373 C374 1.374 . S
C374 H348 0.950 . S
C374 C370 1.385 . S
C374 C373 1.374 . S
C375 C372 1.499 . S
C375 C376 1.373 . S
C375 C377 1.389 . S
C376 H349 0.950 . S
C376 C362 1.377 . S
C376 C375 1.373 . S
C377 C361 1.377 . S
C377 C375 1.389 . S
C377 C378 1.524 . S
C378 C377 1.524 . S
C378 C379 1.397 . S
C378 C383 1.363 . S
C379 H350 0.950 . S
C379 C378 1.397 . S
C379 C380 1.334 . S
C380 H351 0.949 . S
C380 C379 1.334 . S
C380 C381 1.287 . S
C381 C380 1.287 . S
C381 C382 1.524 . S
C381 H384 0.999 1_556 S
C382 H352 0.950 . S
C382 C381 1.524 . S
C382 C383 1.415 . S
C383 H353 0.950 . S
C383 C378 1.363 . S
C383 C382 1.415 . S
H384 C381 0.999 1_554 S
H385 C366 0.913 . S
H386 C404 0.951 . S
H387 C406 0.951 . S
H388 C408 0.950 . S
H389 C409 0.950 . S
H390 C411 0.950 . S
H391 C414 0.950 . S
H392 C415 0.950 . S
H393 C417 0.950 . S
H394 C418 0.950 . S
H395 C419 0.951 . S
H396 C421 0.951 . S
H397 C423 0.950 . S
H398 C424 0.950 . S
H399 C426 0.950 . S
H400 C429 0.950 . S
H401 C430 0.950 . S
H402 C432 0.950 . S
H403 C433 0.950 . S
C404 H386 0.951 . S
C404 C405 1.366 . S
C404 C406 1.388 . S
C405 C404 1.366 . S
C405 C409 1.385 . S
C406 H387 0.951 . S
C406 C404 1.388 . S
C406 C407 1.366 . S
C407 C406 1.366 . S
C407 C408 1.414 . S
C407 C410 1.499 . S
C408 H388 0.950 . S
C408 C407 1.414 . S
C408 C409 1.374 . S
C409 H389 0.950 . S
C409 C405 1.385 . S
C409 C408 1.374 . S
C410 C407 1.499 . S
C410 C411 1.373 . S
C410 C412 1.389 . S
C411 H390 0.950 . S
C411 C410 1.373 . S
C411 C427 1.377 . S
C412 C410 1.389 . S
C412 C413 1.524 . S
C412 C426 1.377 . S
C413 C412 1.524 . S
C413 C414 1.397 . S
C413 C418 1.363 . S
C414 H391 0.950 . S
C414 C413 1.397 . S
C414 C415 1.334 . S
C415 H392 0.950 . S
C415 C414 1.334 . S
C415 C416 1.287 . S
C416 C415 1.287 . S
C416 C417 1.524 . S
C416 H435 0.913 . S
C417 H393 0.950 . S
C417 C416 1.524 . S
C417 C418 1.415 . S
C418 H394 0.950 . S
C418 C413 1.363 . S
C418 C417 1.415 . S
C419 H395 0.951 . S
C419 C420 1.366 . S
C419 C421 1.388 . S
C420 C419 1.366 . S
C420 C424 1.385 . S
C421 H396 0.951 . S
C421 C419 1.388 . S
C421 C422 1.366 . S
C422 C421 1.366 . S
C422 C423 1.414 . S
C422 C425 1.499 . S
C423 H397 0.950 . S
C423 C422 1.414 . S
C423 C424 1.374 . S
C424 H398 0.950 . S
C424 C420 1.385 . S
C424 C423 1.374 . S
C425 C422 1.499 . S
C425 C426 1.373 . S
C425 C427 1.389 . S
C426 H399 0.950 . S
C426 C412 1.377 . S
C426 C425 1.373 . S
C427 C411 1.377 . S
C427 C425 1.389 . S
C427 C428 1.524 . S
C428 C427 1.524 . S
C428 C429 1.397 . S
C428 C433 1.363 . S
C429 H400 0.950 . S
C429 C428 1.397 . S
C429 C430 1.334 . S
C430 H401 0.950 . S
C430 C429 1.334 . S
C430 C431 1.287 . S
C431 C430 1.287 . S
C431 C432 1.524 . S
C431 H434 0.999 . S
C432 H402 0.950 . S
C432 C431 1.524 . S
C432 C433 1.415 . S
C433 H403 0.950 . S
C433 C428 1.363 . S
C433 C432 1.415 . S
H434 C431 0.999 . S
H435 C416 0.913 . S
H436 C454 0.951 . S
H437 C456 0.951 . S
H438 C458 0.950 . S
H439 C459 0.950 . S
H440 C461 0.950 . S
H441 C464 0.950 . S
H442 C465 0.950 . S
H443 C467 0.950 . S
H444 C468 0.950 . S
H445 C469 0.951 . S
H446 C471 0.951 . S
H447 C473 0.950 . S
H448 C474 0.950 . S
H449 C476 0.950 . S
H450 C479 0.950 . S
H451 C480 0.950 . S
H452 C482 0.950 . S
H453 C483 0.950 . S
C454 H436 0.951 . S
C454 C455 1.366 . S
C454 C456 1.388 . S
C455 C454 1.366 . S
C455 C459 1.385 . S
C456 H437 0.951 . S
C456 C454 1.388 . S
C456 C457 1.366 . S
C457 C456 1.366 . S
C457 C458 1.414 . S
C457 C460 1.499 . S
C458 H438 0.950 . S
C458 C457 1.414 . S
C458 C459 1.374 . S
C459 H439 0.950 . S
C459 C455 1.385 . S
C459 C458 1.374 . S
C460 C457 1.499 . S
C460 C461 1.373 . S
C460 C462 1.389 . S
C461 H440 0.950 . S
C461 C460 1.373 . S
C461 C477 1.377 . S
C462 C460 1.389 . S
C462 C463 1.524 . S
C462 C476 1.377 . S
C463 C462 1.524 . S
C463 C464 1.397 . S
C463 C468 1.363 . S
C464 H441 0.950 . S
C464 C463 1.397 . S
C464 C465 1.334 . S
C465 H442 0.950 . S
C465 C464 1.334 . S
C465 C466 1.287 . S
C466 C465 1.287 . S
C466 C467 1.524 . S
C466 H485 0.913 . S
C467 H443 0.950 . S
C467 C466 1.524 . S
C467 C468 1.415 . S
C468 H444 0.950 . S
C468 C463 1.363 . S
C468 C467 1.415 . S
C469 H445 0.951 . S
C469 C470 1.366 . S
C469 C471 1.388 . S
C470 C469 1.366 . S
C470 C474 1.385 . S
C471 H446 0.951 . S
C471 C469 1.388 . S
C471 C472 1.366 . S
C472 C471 1.366 . S
C472 C473 1.414 . S
C472 C475 1.499 . S
C473 H447 0.950 . S
C473 C472 1.414 . S
C473 C474 1.374 . S
C474 H448 0.950 . S
C474 C470 1.385 . S
C474 C473 1.374 . S
C475 C472 1.499 . S
C475 C476 1.373 . S
C475 C477 1.389 . S
C476 H449 0.950 . S
C476 C462 1.377 . S
C476 C475 1.373 . S
C477 C461 1.377 . S
C477 C475 1.389 . S
C477 C478 1.524 . S
C478 C477 1.524 . S
C478 C479 1.397 . S
C478 C483 1.363 . S
C479 H450 0.950 . S
C479 C478 1.397 . S
C479 C480 1.334 . S
C480 H451 0.950 . S
C480 C479 1.334 . S
C480 C481 1.287 . S
C481 C480 1.287 . S
C481 C482 1.524 . S
C481 H484 0.999 . S
C482 H452 0.950 . S
C482 C481 1.524 . S
C482 C483 1.415 . S
C483 H453 0.950 . S
C483 C478 1.363 . S
C483 C482 1.415 . S
H484 C481 0.999 . S
H485 C466 0.913 . S
C105 C27 1.233 . S
C120 C83 1.228 . S
C155 C13 1.294 . S
C170 C82 1.292 . S
C205 C33 1.233 . S
C220 C75 1.235 . S
C255 N3 1.769 . S
C270 N51 1.768 . S
C305 C39 1.293 . S
C320 C56 1.295 . S
C355 C76 1.232 . S
C370 C32 1.232 . S
C405 N8 1.769 . S
C420 N46 1.771 . S
C455 C70 1.234 . S
C470 C40 1.236 . S
