# Generated by pormake.
# Topology uou, (4)-cn, num edge types: 1
# Building blocks:
#     Node 0, Type 0, BuildingBlock: QUQFOY_clean_sbu_3, # of connection points: 4
#     Node 1, Type 0, BuildingBlock: QUQFOY_clean_sbu_3, # of connection points: 4
#     Node 2, Type 0, BuildingBlock: QUQFOY_clean_sbu_3, # of connection points: 4
#     Node 3, Type 0, BuildingBlock: QUQFOY_clean_sbu_3, # of connection points: 4
#     Node 4, Type 0, BuildingBlock: QUQFOY_clean_sbu_3, # of connection points: 4
#     Node 5, Type 0, BuildingBlock: QUQFOY_clean_sbu_3, # of connection points: 4
#     Node 6, Type 0, BuildingBlock: QUQFOY_clean_sbu_3, # of connection points: 4
#     Node 7, Type 0, BuildingBlock: QUQFOY_clean_sbu_3, # of connection points: 4
#     Node 8, Type 0, BuildingBlock: QUQFOY_clean_sbu_3, # of connection points: 4
#     Node 9, Type 0, BuildingBlock: QUQFOY_clean_sbu_3, # of connection points: 4
#     Node 10, Type 0, BuildingBlock: QUQFOY_clean_sbu_3, # of connection points: 4
#     Node 11, Type 0, BuildingBlock: QUQFOY_clean_sbu_3, # of connection points: 4
#     Node 12, Type 0, BuildingBlock: QUQFOY_clean_sbu_3, # of connection points: 4
#     Node 13, Type 0, BuildingBlock: QUQFOY_clean_sbu_3, # of connection points: 4
#     Node 14, Type 0, BuildingBlock: QUQFOY_clean_sbu_3, # of connection points: 4
#     Node 15, Type 0, BuildingBlock: QUQFOY_clean_sbu_3, # of connection points: 4
#     Edge 16, Type (0, 0), None
#     Edge 17, Type (0, 0), None
#     Edge 18, Type (0, 0), None
#     Edge 19, Type (0, 0), None
#     Edge 20, Type (0, 0), None
#     Edge 21, Type (0, 0), None
#     Edge 22, Type (0, 0), None
#     Edge 23, Type (0, 0), None
#     Edge 24, Type (0, 0), None
#     Edge 25, Type (0, 0), None
#     Edge 26, Type (0, 0), None
#     Edge 27, Type (0, 0), None
#     Edge 28, Type (0, 0), None
#     Edge 29, Type (0, 0), None
#     Edge 30, Type (0, 0), None
#     Edge 31, Type (0, 0), None
#     Edge 32, Type (0, 0), None
#     Edge 33, Type (0, 0), None
#     Edge 34, Type (0, 0), None
#     Edge 35, Type (0, 0), None
#     Edge 36, Type (0, 0), None
#     Edge 37, Type (0, 0), None
#     Edge 38, Type (0, 0), None
#     Edge 39, Type (0, 0), None
#     Edge 40, Type (0, 0), None
#     Edge 41, Type (0, 0), None
#     Edge 42, Type (0, 0), None
#     Edge 43, Type (0, 0), None
#     Edge 44, Type (0, 0), None
#     Edge 45, Type (0, 0), None
#     Edge 46, Type (0, 0), None
#     Edge 47, Type (0, 0), None
# Relax obj value: 0.038
# Max RMSD: 0.066
# Mean RMSD: 0.066
data_MOF--net-uou--node1-QUQFOY_clean_sbu_3--edge1-none
_symmetry_space_group_name_H-M    P1
_symmetry_Int_Tables_number       1
_symmetry_cell_setting            triclinic
loop_
_symmetry_equiv_pos_as_xyz
'x, y, z'
_cell_length_a     20.472438
_cell_length_b     18.841903
_cell_length_c     26.975706
_cell_angle_alpha  90.000009
_cell_angle_beta   89.999553
_cell_angle_gamma 90.00802
loop_
_atom_site_label
_atom_site_type_symbol
_atom_site_fract_x
_atom_site_fract_y
_atom_site_fract_z
_atom_type_partial_charge
C0 C 0.9482 0.00551 0.16937 0.0
O1 O 0.89249 0.00579 0.14873 0.0
Cd2 Cd 0.87688 0.03178 0.06201 0.0
O3 O -0.00016 0.01542 0.14405 0.0
Cd4 Cd 0.03254 0.03674 0.05694 0.0
C5 C -0.04826 0.19413 0.05963 0.0
O6 O -0.04741 0.96701 0.01108 0.0
O7 O 0.0086 0.04382 -0.03118 0.0
O8 O 0.12029 0.94911 0.05968 0.0
C9 C -0.03322 -0.00577 -0.03068 0.0
O10 O 0.89874 0.15896 0.05694 0.0
C11 C 0.16608 -0.00595 0.05524 0.0
O12 O 0.00696 0.16315 0.06233 0.0
O13 O 0.15009 0.05897 0.05143 0.0
C14 C 0.45252 0.96044 0.16937 0.0
O15 O 0.50824 0.96016 0.14873 0.0
Cd16 Cd 0.52384 0.93418 0.06201 0.0
O17 O 0.40088 0.95053 0.14405 0.0
Cd18 Cd 0.36819 0.92921 0.05694 0.0
C19 C 0.44899 0.77183 0.05963 0.0
O20 O 0.44813 -0.00105 0.01108 0.0
O21 O 0.39213 0.92215 -0.03119 0.0
O22 O 0.28043 0.01684 0.05969 0.0
C23 C 0.43394 0.97175 -0.03068 0.0
O24 O 0.50199 0.807 0.05694 0.0
C25 C 0.23465 0.9719 0.05524 0.0
O26 O 0.39377 0.8028 0.06233 0.0
O27 O 0.25064 0.90698 0.05142 0.0
C28 C 0.4482 0.96045 0.22373 0.0
O29 O 0.39248 0.96014 0.24437 0.0
Cd30 Cd 0.37688 0.93415 0.33109 0.0
O31 O 0.49984 0.95055 0.24905 0.0
Cd32 Cd 0.53252 0.92923 0.33616 0.0
C33 C 0.45173 0.77183 0.33347 0.0
O34 O 0.45258 -0.00105 0.38202 0.0
O35 O 0.50858 0.92216 0.42428 0.0
O36 O 0.6203 0.01685 0.33342 0.0
C37 C 0.46677 0.97175 0.42378 0.0
O38 O 0.39873 0.80698 0.33616 0.0
C39 C 0.66607 0.9719 0.33786 0.0
O40 O 0.50695 0.80282 0.33076 0.0
O41 O 0.65006 0.90699 0.34168 0.0
C42 C -0.04748 0.0055 0.22373 0.0
O43 O 0.00824 0.00581 0.24437 0.0
Cd44 Cd 0.02384 0.0318 0.33109 0.0
O45 O 0.90088 0.0154 0.24905 0.0
Cd46 Cd 0.86819 0.03673 0.33616 0.0
C47 C 0.94899 0.19413 0.33347 0.0
O48 O 0.94813 0.96701 0.38202 0.0
O49 O 0.89213 0.04381 0.42428 0.0
O50 O 0.78042 0.9491 0.33342 0.0
C51 C 0.93394 -0.00578 0.42378 0.0
O52 O 0.00198 0.15898 0.33616 0.0
C53 C 0.73464 -0.00595 0.33786 0.0
O54 O 0.89376 0.16313 0.33076 0.0
O55 O 0.75065 0.05897 0.34167 0.0
C56 C -0.04748 0.96048 0.72373 0.0
O57 O 0.00824 0.9602 0.74437 0.0
Cd58 Cd 0.02384 0.9342 0.83109 0.0
O59 O 0.90088 0.95057 0.74905 0.0
Cd60 Cd 0.86818 0.92924 0.83616 0.0
C61 C 0.94898 0.77186 0.83347 0.0
O62 O 0.94813 -0.00103 0.88202 0.0
O63 O 0.89212 0.92216 0.92429 0.0
O64 O 0.78043 0.01688 0.83342 0.0
C65 C 0.93395 0.97175 0.92378 0.0
O66 O 0.00198 0.80703 0.83616 0.0
C67 C 0.73464 0.97193 0.83786 0.0
O68 O 0.89376 0.80283 0.83077 0.0
O69 O 0.75063 0.90701 0.84167 0.0
C70 C 0.4482 0.00554 0.72373 0.0
O71 O 0.39248 0.00582 0.74437 0.0
Cd72 Cd 0.37688 0.03181 0.83109 0.0
O73 O 0.49984 0.01545 0.74905 0.0
Cd74 Cd 0.53253 0.03677 0.83616 0.0
C75 C 0.45173 0.19416 0.83347 0.0
O76 O 0.45258 0.96704 0.88202 0.0
O77 O 0.50859 0.04384 0.92429 0.0
O78 O 0.62028 0.94914 0.83342 0.0
C79 C 0.46677 -0.00576 0.92378 0.0
O80 O 0.39873 0.15899 0.83616 0.0
C81 C 0.66607 -0.00591 0.83786 0.0
O82 O 0.50695 0.16318 0.83077 0.0
O83 O 0.65008 0.059 0.84168 0.0
C84 C 0.45252 0.00553 0.66937 0.0
O85 O 0.50824 0.00584 0.64873 0.0
Cd86 Cd 0.52385 0.03183 0.56201 0.0
O87 O 0.40088 0.01543 0.64405 0.0
Cd88 Cd 0.3682 0.03676 0.55694 0.0
C89 C 0.44899 0.19416 0.55964 0.0
O90 O 0.44814 0.96704 0.51108 0.0
O91 O 0.39214 0.04383 0.46881 0.0
O92 O 0.28042 0.94913 0.55968 0.0
C93 C 0.43395 -0.00576 0.46932 0.0
O94 O 0.50199 0.15901 0.55694 0.0
C95 C 0.23465 -0.00592 0.55524 0.0
O96 O 0.39377 0.16316 0.56234 0.0
O97 O 0.25066 0.059 0.55142 0.0
C98 C 0.9482 0.96049 0.66937 0.0
O99 O 0.89248 0.96018 0.64873 0.0
Cd100 Cd 0.87688 0.93418 0.56201 0.0
O101 O -0.00016 0.95059 0.64405 0.0
Cd102 Cd 0.03253 0.92926 0.55694 0.0
C103 C -0.04827 0.77186 0.55964 0.0
O104 O -0.04742 -0.00103 0.51108 0.0
O105 O 0.00859 0.92217 0.46882 0.0
O106 O 0.1203 0.01689 0.55968 0.0
C107 C -0.03323 0.97175 0.46932 0.0
O108 O 0.89874 0.80701 0.55694 0.0
C109 C 0.16608 0.97194 0.55524 0.0
O110 O 0.00696 0.80285 0.56234 0.0
O111 O 0.15007 0.90702 0.55143 0.0
C112 C 0.4482 0.50551 0.16937 0.0
O113 O 0.39249 0.50579 0.14873 0.0
Cd114 Cd 0.37688 0.53178 0.06201 0.0
O115 O 0.49984 0.51542 0.14405 0.0
Cd116 Cd 0.53254 0.53674 0.05694 0.0
C117 C 0.45174 0.69413 0.05963 0.0
O118 O 0.45259 0.46701 0.01108 0.0
O119 O 0.5086 0.54382 -0.03118 0.0
O120 O 0.62029 0.44911 0.05968 0.0
C121 C 0.46678 0.49423 -0.03068 0.0
O122 O 0.39874 0.65896 0.05694 0.0
C123 C 0.66608 0.49405 0.05524 0.0
O124 O 0.50696 0.66315 0.06233 0.0
O125 O 0.65009 0.55897 0.05143 0.0
C126 C -0.04748 0.46044 0.16937 0.0
O127 O 0.00824 0.46016 0.14873 0.0
Cd128 Cd 0.02384 0.43418 0.06201 0.0
O129 O 0.90088 0.45053 0.14405 0.0
Cd130 Cd 0.86819 0.42921 0.05694 0.0
C131 C 0.94899 0.27183 0.05963 0.0
O132 O 0.94813 0.49895 0.01109 0.0
O133 O 0.89213 0.42215 -0.03119 0.0
O134 O 0.78043 0.51684 0.05969 0.0
C135 C 0.93394 0.47175 -0.03068 0.0
O136 O 0.00199 0.307 0.05694 0.0
C137 C 0.73465 0.4719 0.05524 0.0
O138 O 0.89377 0.3028 0.06233 0.0
O139 O 0.75064 0.40698 0.05142 0.0
C140 C 0.9482 0.46045 0.22373 0.0
O141 O 0.89248 0.46014 0.24437 0.0
Cd142 Cd 0.87688 0.43415 0.33109 0.0
O143 O -0.00016 0.45055 0.24905 0.0
Cd144 Cd 0.03252 0.42923 0.33616 0.0
C145 C -0.04827 0.27183 0.33347 0.0
O146 O -0.04742 0.49895 0.38202 0.0
O147 O 0.00858 0.42216 0.42428 0.0
O148 O 0.1203 0.51685 0.33342 0.0
C149 C -0.03323 0.47175 0.42378 0.0
O150 O 0.89873 0.30698 0.33616 0.0
C151 C 0.16607 0.4719 0.33786 0.0
O152 O 0.00695 0.30282 0.33076 0.0
O153 O 0.15006 0.40699 0.34168 0.0
C154 C 0.45252 0.5055 0.22373 0.0
O155 O 0.50824 0.50581 0.24437 0.0
Cd156 Cd 0.52384 0.5318 0.33109 0.0
O157 O 0.40088 0.5154 0.24905 0.0
Cd158 Cd 0.36819 0.53673 0.33616 0.0
C159 C 0.44899 0.69413 0.33347 0.0
O160 O 0.44813 0.46701 0.38202 0.0
O161 O 0.39213 0.54381 0.42428 0.0
O162 O 0.28042 0.4491 0.33342 0.0
C163 C 0.43394 0.49422 0.42378 0.0
O164 O 0.50198 0.65898 0.33616 0.0
C165 C 0.23464 0.49405 0.33786 0.0
O166 O 0.39376 0.66313 0.33076 0.0
O167 O 0.25065 0.55897 0.34167 0.0
C168 C 0.45252 0.46048 0.72373 0.0
O169 O 0.50823 0.4602 0.74437 0.0
Cd170 Cd 0.52384 0.4342 0.83109 0.0
O171 O 0.40088 0.45057 0.74905 0.0
Cd172 Cd 0.36818 0.42924 0.83616 0.0
C173 C 0.44898 0.27186 0.83347 0.0
O174 O 0.44813 0.49897 0.88202 0.0
O175 O 0.39212 0.42216 0.92429 0.0
O176 O 0.28043 0.51688 0.83342 0.0
C177 C 0.43395 0.47175 0.92378 0.0
O178 O 0.50198 0.30703 0.83616 0.0
C179 C 0.23464 0.47193 0.83786 0.0
O180 O 0.39376 0.30283 0.83077 0.0
O181 O 0.25063 0.40701 0.84167 0.0
C182 C 0.9482 0.50554 0.72373 0.0
O183 O 0.89248 0.50582 0.74437 0.0
Cd184 Cd 0.87688 0.53181 0.83109 0.0
O185 O -0.00016 0.51545 0.74905 0.0
Cd186 Cd 0.03253 0.53677 0.83616 0.0
C187 C -0.04827 0.69416 0.83347 0.0
O188 O -0.04742 0.46704 0.88202 0.0
O189 O 0.00859 0.54384 0.92429 0.0
O190 O 0.12028 0.44914 0.83342 0.0
C191 C -0.03323 0.49424 0.92378 0.0
O192 O 0.89873 0.65899 0.83616 0.0
C193 C 0.16607 0.49409 0.83786 0.0
O194 O 0.00695 0.66318 0.83077 0.0
O195 O 0.15008 0.559 0.84168 0.0
C196 C -0.04748 0.50553 0.66937 0.0
O197 O 0.00824 0.50584 0.64873 0.0
Cd198 Cd 0.02385 0.53183 0.56201 0.0
O199 O 0.90088 0.51543 0.64405 0.0
Cd200 Cd 0.8682 0.53676 0.55694 0.0
C201 C 0.94899 0.69416 0.55964 0.0
O202 O 0.94814 0.46704 0.51108 0.0
O203 O 0.89214 0.54383 0.46881 0.0
O204 O 0.78042 0.44913 0.55968 0.0
C205 C 0.93395 0.49424 0.46932 0.0
O206 O 0.00199 0.65901 0.55694 0.0
C207 C 0.73465 0.49408 0.55524 0.0
O208 O 0.89377 0.66316 0.56234 0.0
O209 O 0.75066 0.559 0.55142 0.0
C210 C 0.4482 0.46049 0.66937 0.0
O211 O 0.39248 0.46018 0.64873 0.0
Cd212 Cd 0.37688 0.43418 0.56201 0.0
O213 O 0.49984 0.45058 0.64405 0.0
Cd214 Cd 0.53253 0.42926 0.55694 0.0
C215 C 0.45173 0.27186 0.55964 0.0
O216 O 0.45258 0.49897 0.51108 0.0
O217 O 0.50859 0.42217 0.46882 0.0
O218 O 0.6203 0.51689 0.55968 0.0
C219 C 0.46677 0.47175 0.46932 0.0
O220 O 0.39874 0.30701 0.55694 0.0
C221 C 0.66608 0.47194 0.55524 0.0
O222 O 0.50696 0.30285 0.56234 0.0
O223 O 0.65007 0.40702 0.55143 0.0
loop_
_geom_bond_atom_site_label_1
_geom_bond_atom_site_label_2
_geom_bond_distance
_geom_bond_site_symmetry_2
_ccdc_geom_bond_type
C0 O1 1.306 1_455 S
C0 O3 1.160 . S
O1 C0 1.306 1_655 S
O1 Cd2 2.228 . S
Cd2 O1 2.228 . S
Cd2 O6 2.273 . S
Cd2 O10 2.277 . S
O3 C0 1.160 . S
O3 Cd4 2.203 . S
Cd4 O3 2.203 . S
Cd4 O6 2.411 1_455 S
Cd4 O7 2.333 . S
Cd4 O8 2.352 1_545 S
Cd4 O12 2.277 . S
Cd4 O13 2.356 . S
C5 O10 1.209 1_455 S
C5 O12 1.226 . S
O6 Cd2 2.273 . S
O6 Cd4 2.411 1_655 S
O6 C9 1.320 1_655 S
O7 Cd4 2.333 . S
O7 C9 1.214 . S
O8 Cd4 2.352 1_565 S
O8 C11 1.258 1_565 S
C9 O6 1.320 1_455 S
C9 O7 1.214 . S
O10 Cd2 2.277 . S
O10 C5 1.209 1_655 S
C11 O8 1.258 1_545 S
C11 O13 1.282 . S
O12 Cd4 2.277 . S
O12 C5 1.226 . S
O13 Cd4 2.356 . S
O13 C11 1.282 . S
C14 O15 1.306 . S
C14 O17 1.160 . S
O15 C14 1.306 . S
O15 Cd16 2.228 . S
Cd16 O15 2.228 . S
Cd16 O20 2.273 . S
Cd16 O24 2.277 . S
O17 C14 1.160 . S
O17 Cd18 2.203 . S
Cd18 O17 2.203 . S
Cd18 O20 2.411 . S
Cd18 O21 2.333 . S
Cd18 O22 2.352 1_565 S
Cd18 O26 2.277 . S
Cd18 O27 2.356 . S
C19 O24 1.209 . S
C19 O26 1.226 . S
O20 Cd16 2.273 . S
O20 Cd18 2.411 . S
O20 C23 1.320 . S
O21 Cd18 2.333 . S
O21 C23 1.214 . S
O22 Cd18 2.352 1_545 S
O22 C25 1.258 1_545 S
C23 O20 1.320 . S
C23 O21 1.214 . S
O24 Cd16 2.277 . S
O24 C19 1.209 . S
C25 O22 1.258 1_565 S
C25 O27 1.282 . S
O26 Cd18 2.277 . S
O26 C19 1.226 . S
O27 Cd18 2.356 . S
O27 C25 1.282 . S
C28 O29 1.306 . S
C28 O31 1.160 . S
O29 C28 1.306 . S
O29 Cd30 2.228 . S
Cd30 O29 2.228 . S
Cd30 O34 2.273 . S
Cd30 O38 2.277 . S
O31 C28 1.160 . S
O31 Cd32 2.203 . S
Cd32 O31 2.203 . S
Cd32 O34 2.411 . S
Cd32 O35 2.333 . S
Cd32 O36 2.352 1_565 S
Cd32 O40 2.277 . S
Cd32 O41 2.356 . S
C33 O38 1.209 . S
C33 O40 1.226 . S
O34 Cd30 2.273 . S
O34 Cd32 2.411 . S
O34 C37 1.320 . S
O35 Cd32 2.333 . S
O35 C37 1.214 . S
O36 Cd32 2.352 1_545 S
O36 C39 1.258 1_545 S
C37 O34 1.320 . S
C37 O35 1.214 . S
O38 Cd30 2.277 . S
O38 C33 1.209 . S
C39 O36 1.258 1_565 S
C39 O41 1.282 . S
O40 Cd32 2.277 . S
O40 C33 1.226 . S
O41 Cd32 2.356 . S
O41 C39 1.282 . S
C42 O43 1.306 1_655 S
C42 O45 1.160 . S
O43 C42 1.306 1_455 S
O43 Cd44 2.228 . S
Cd44 O43 2.228 . S
Cd44 O48 2.273 . S
Cd44 O52 2.277 . S
O45 C42 1.160 . S
O45 Cd46 2.203 . S
Cd46 O45 2.203 . S
Cd46 O48 2.411 1_655 S
Cd46 O49 2.333 . S
Cd46 O50 2.352 1_545 S
Cd46 O54 2.277 . S
Cd46 O55 2.356 . S
C47 O52 1.209 1_655 S
C47 O54 1.226 . S
O48 Cd44 2.273 . S
O48 Cd46 2.411 1_455 S
O48 C51 1.320 1_455 S
O49 Cd46 2.333 . S
O49 C51 1.214 . S
O50 Cd46 2.352 1_565 S
O50 C53 1.258 1_565 S
C51 O48 1.320 1_655 S
C51 O49 1.214 . S
O52 Cd44 2.277 . S
O52 C47 1.209 1_455 S
C53 O50 1.258 1_545 S
C53 O55 1.282 . S
O54 Cd46 2.277 . S
O54 C47 1.226 . S
O55 Cd46 2.356 . S
O55 C53 1.282 . S
C56 O57 1.306 1_655 S
C56 O59 1.160 . S
O57 C56 1.306 1_455 S
O57 Cd58 2.228 . S
Cd58 O57 2.228 . S
Cd58 O62 2.273 . S
Cd58 O66 2.277 . S
O59 C56 1.160 . S
O59 Cd60 2.203 . S
Cd60 O59 2.203 . S
Cd60 O62 2.411 1_655 S
Cd60 O63 2.333 . S
Cd60 O64 2.352 1_565 S
Cd60 O68 2.277 . S
Cd60 O69 2.356 . S
C61 O66 1.209 1_655 S
C61 O68 1.226 . S
O62 Cd58 2.273 . S
O62 Cd60 2.411 1_455 S
O62 C65 1.320 1_455 S
O63 Cd60 2.333 . S
O63 C65 1.214 . S
O64 Cd60 2.352 1_545 S
O64 C67 1.258 1_545 S
C65 O62 1.320 1_655 S
C65 O63 1.214 . S
O66 Cd58 2.277 . S
O66 C61 1.209 1_455 S
C67 O64 1.258 1_565 S
C67 O69 1.282 . S
O68 Cd60 2.277 . S
O68 C61 1.226 . S
O69 Cd60 2.356 . S
O69 C67 1.282 . S
C70 O71 1.306 . S
C70 O73 1.160 . S
O71 C70 1.306 . S
O71 Cd72 2.228 . S
Cd72 O71 2.228 . S
Cd72 O76 2.273 . S
Cd72 O80 2.277 . S
O73 C70 1.160 . S
O73 Cd74 2.203 . S
Cd74 O73 2.203 . S
Cd74 O76 2.411 . S
Cd74 O77 2.333 . S
Cd74 O78 2.352 1_545 S
Cd74 O82 2.277 . S
Cd74 O83 2.356 . S
C75 O80 1.209 . S
C75 O82 1.226 . S
O76 Cd72 2.273 . S
O76 Cd74 2.411 . S
O76 C79 1.320 . S
O77 Cd74 2.333 . S
O77 C79 1.214 . S
O78 Cd74 2.352 1_565 S
O78 C81 1.258 1_565 S
C79 O76 1.320 . S
C79 O77 1.214 . S
O80 Cd72 2.277 . S
O80 C75 1.209 . S
C81 O78 1.258 1_545 S
C81 O83 1.282 . S
O82 Cd74 2.277 . S
O82 C75 1.226 . S
O83 Cd74 2.356 . S
O83 C81 1.282 . S
C84 O85 1.306 . S
C84 O87 1.160 . S
O85 C84 1.306 . S
O85 Cd86 2.228 . S
Cd86 O85 2.228 . S
Cd86 O90 2.273 . S
Cd86 O94 2.277 . S
O87 C84 1.160 . S
O87 Cd88 2.203 . S
Cd88 O87 2.203 . S
Cd88 O90 2.411 . S
Cd88 O91 2.333 . S
Cd88 O92 2.352 1_545 S
Cd88 O96 2.277 . S
Cd88 O97 2.356 . S
C89 O94 1.209 . S
C89 O96 1.226 . S
O90 Cd86 2.273 . S
O90 Cd88 2.411 . S
O90 C93 1.320 . S
O91 Cd88 2.333 . S
O91 C93 1.214 . S
O92 Cd88 2.352 1_565 S
O92 C95 1.258 1_565 S
C93 O90 1.320 . S
C93 O91 1.214 . S
O94 Cd86 2.277 . S
O94 C89 1.209 . S
C95 O92 1.258 1_545 S
C95 O97 1.282 . S
O96 Cd88 2.277 . S
O96 C89 1.226 . S
O97 Cd88 2.356 . S
O97 C95 1.282 . S
C98 O99 1.306 1_455 S
C98 O101 1.160 . S
O99 C98 1.306 1_655 S
O99 Cd100 2.228 . S
Cd100 O99 2.228 . S
Cd100 O104 2.273 . S
Cd100 O108 2.277 . S
O101 C98 1.160 . S
O101 Cd102 2.203 . S
Cd102 O101 2.203 . S
Cd102 O104 2.411 1_455 S
Cd102 O105 2.333 . S
Cd102 O106 2.352 1_565 S
Cd102 O110 2.277 . S
Cd102 O111 2.356 . S
C103 O108 1.209 1_455 S
C103 O110 1.226 . S
O104 Cd100 2.273 . S
O104 Cd102 2.411 1_655 S
O104 C107 1.320 1_655 S
O105 Cd102 2.333 . S
O105 C107 1.214 . S
O106 Cd102 2.352 1_545 S
O106 C109 1.258 1_545 S
C107 O104 1.320 1_455 S
C107 O105 1.214 . S
O108 Cd100 2.277 . S
O108 C103 1.209 1_655 S
C109 O106 1.258 1_565 S
C109 O111 1.282 . S
O110 Cd102 2.277 . S
O110 C103 1.226 . S
O111 Cd102 2.356 . S
O111 C109 1.282 . S
C112 O113 1.306 . S
C112 O115 1.160 . S
O113 C112 1.306 . S
O113 Cd114 2.228 . S
Cd114 O113 2.228 . S
Cd114 O118 2.273 . S
Cd114 O122 2.277 . S
O115 C112 1.160 . S
O115 Cd116 2.203 . S
Cd116 O115 2.203 . S
Cd116 O118 2.411 . S
Cd116 O119 2.333 . S
Cd116 O120 2.352 . S
Cd116 O124 2.277 . S
Cd116 O125 2.356 . S
C117 O122 1.209 . S
C117 O124 1.226 . S
O118 Cd114 2.273 . S
O118 Cd116 2.411 . S
O118 C121 1.320 . S
O119 Cd116 2.333 . S
O119 C121 1.214 . S
O120 Cd116 2.352 . S
O120 C123 1.258 . S
C121 O118 1.320 . S
C121 O119 1.214 . S
O122 Cd114 2.277 . S
O122 C117 1.209 . S
C123 O120 1.258 . S
C123 O125 1.282 . S
O124 Cd116 2.277 . S
O124 C117 1.226 . S
O125 Cd116 2.356 . S
O125 C123 1.282 . S
C126 O127 1.306 1_655 S
C126 O129 1.160 . S
O127 C126 1.306 1_455 S
O127 Cd128 2.228 . S
Cd128 O127 2.228 . S
Cd128 O132 2.273 . S
Cd128 O136 2.277 . S
O129 C126 1.160 . S
O129 Cd130 2.203 . S
Cd130 O129 2.203 . S
Cd130 O132 2.411 1_655 S
Cd130 O133 2.333 . S
Cd130 O134 2.352 . S
Cd130 O138 2.277 . S
Cd130 O139 2.356 . S
C131 O136 1.209 1_655 S
C131 O138 1.226 . S
O132 Cd128 2.273 . S
O132 Cd130 2.411 1_455 S
O132 C135 1.320 1_455 S
O133 Cd130 2.333 . S
O133 C135 1.214 . S
O134 Cd130 2.352 . S
O134 C137 1.258 . S
C135 O132 1.320 1_655 S
C135 O133 1.214 . S
O136 Cd128 2.277 . S
O136 C131 1.209 1_455 S
C137 O134 1.258 . S
C137 O139 1.282 . S
O138 Cd130 2.277 . S
O138 C131 1.226 . S
O139 Cd130 2.356 . S
O139 C137 1.282 . S
C140 O141 1.306 1_455 S
C140 O143 1.160 . S
O141 C140 1.306 1_655 S
O141 Cd142 2.228 . S
Cd142 O141 2.228 . S
Cd142 O146 2.273 . S
Cd142 O150 2.277 . S
O143 C140 1.160 . S
O143 Cd144 2.203 . S
Cd144 O143 2.203 . S
Cd144 O146 2.411 1_455 S
Cd144 O147 2.333 . S
Cd144 O148 2.352 . S
Cd144 O152 2.277 . S
Cd144 O153 2.356 . S
C145 O150 1.209 1_455 S
C145 O152 1.226 . S
O146 Cd142 2.273 . S
O146 Cd144 2.411 1_655 S
O146 C149 1.320 1_655 S
O147 Cd144 2.333 . S
O147 C149 1.214 . S
O148 Cd144 2.352 . S
O148 C151 1.258 . S
C149 O146 1.320 1_455 S
C149 O147 1.214 . S
O150 Cd142 2.277 . S
O150 C145 1.209 1_655 S
C151 O148 1.258 . S
C151 O153 1.282 . S
O152 Cd144 2.277 . S
O152 C145 1.226 . S
O153 Cd144 2.356 . S
O153 C151 1.282 . S
C154 O155 1.306 . S
C154 O157 1.160 . S
O155 C154 1.306 . S
O155 Cd156 2.228 . S
Cd156 O155 2.228 . S
Cd156 O160 2.273 . S
Cd156 O164 2.277 . S
O157 C154 1.160 . S
O157 Cd158 2.203 . S
Cd158 O157 2.203 . S
Cd158 O160 2.411 . S
Cd158 O161 2.333 . S
Cd158 O162 2.352 . S
Cd158 O166 2.277 . S
Cd158 O167 2.356 . S
C159 O164 1.209 . S
C159 O166 1.226 . S
O160 Cd156 2.273 . S
O160 Cd158 2.411 . S
O160 C163 1.320 . S
O161 Cd158 2.333 . S
O161 C163 1.214 . S
O162 Cd158 2.352 . S
O162 C165 1.258 . S
C163 O160 1.320 . S
C163 O161 1.214 . S
O164 Cd156 2.277 . S
O164 C159 1.209 . S
C165 O162 1.258 . S
C165 O167 1.282 . S
O166 Cd158 2.277 . S
O166 C159 1.226 . S
O167 Cd158 2.356 . S
O167 C165 1.282 . S
C168 O169 1.306 . S
C168 O171 1.160 . S
O169 C168 1.306 . S
O169 Cd170 2.228 . S
Cd170 O169 2.228 . S
Cd170 O174 2.273 . S
Cd170 O178 2.277 . S
O171 C168 1.160 . S
O171 Cd172 2.203 . S
Cd172 O171 2.203 . S
Cd172 O174 2.411 . S
Cd172 O175 2.333 . S
Cd172 O176 2.352 . S
Cd172 O180 2.277 . S
Cd172 O181 2.356 . S
C173 O178 1.209 . S
C173 O180 1.226 . S
O174 Cd170 2.273 . S
O174 Cd172 2.411 . S
O174 C177 1.320 . S
O175 Cd172 2.333 . S
O175 C177 1.214 . S
O176 Cd172 2.352 . S
O176 C179 1.258 . S
C177 O174 1.320 . S
C177 O175 1.214 . S
O178 Cd170 2.277 . S
O178 C173 1.209 . S
C179 O176 1.258 . S
C179 O181 1.282 . S
O180 Cd172 2.277 . S
O180 C173 1.226 . S
O181 Cd172 2.356 . S
O181 C179 1.282 . S
C182 O183 1.306 1_455 S
C182 O185 1.160 . S
O183 C182 1.306 1_655 S
O183 Cd184 2.228 . S
Cd184 O183 2.228 . S
Cd184 O188 2.273 . S
Cd184 O192 2.277 . S
O185 C182 1.160 . S
O185 Cd186 2.203 . S
Cd186 O185 2.203 . S
Cd186 O188 2.411 1_455 S
Cd186 O189 2.333 . S
Cd186 O190 2.352 . S
Cd186 O194 2.277 . S
Cd186 O195 2.356 . S
C187 O192 1.209 1_455 S
C187 O194 1.226 . S
O188 Cd184 2.273 . S
O188 Cd186 2.411 1_655 S
O188 C191 1.320 1_655 S
O189 Cd186 2.333 . S
O189 C191 1.214 . S
O190 Cd186 2.352 . S
O190 C193 1.258 . S
C191 O188 1.320 1_455 S
C191 O189 1.214 . S
O192 Cd184 2.277 . S
O192 C187 1.209 1_655 S
C193 O190 1.258 . S
C193 O195 1.282 . S
O194 Cd186 2.277 . S
O194 C187 1.226 . S
O195 Cd186 2.356 . S
O195 C193 1.282 . S
C196 O197 1.306 1_655 S
C196 O199 1.160 . S
O197 C196 1.306 1_455 S
O197 Cd198 2.228 . S
Cd198 O197 2.228 . S
Cd198 O202 2.273 . S
Cd198 O206 2.277 . S
O199 C196 1.160 . S
O199 Cd200 2.203 . S
Cd200 O199 2.203 . S
Cd200 O202 2.411 1_655 S
Cd200 O203 2.333 . S
Cd200 O204 2.352 . S
Cd200 O208 2.277 . S
Cd200 O209 2.356 . S
C201 O206 1.209 1_655 S
C201 O208 1.226 . S
O202 Cd198 2.273 . S
O202 Cd200 2.411 1_455 S
O202 C205 1.320 1_455 S
O203 Cd200 2.333 . S
O203 C205 1.214 . S
O204 Cd200 2.352 . S
O204 C207 1.258 . S
C205 O202 1.320 1_655 S
C205 O203 1.214 . S
O206 Cd198 2.277 . S
O206 C201 1.209 1_455 S
C207 O204 1.258 . S
C207 O209 1.282 . S
O208 Cd200 2.277 . S
O208 C201 1.226 . S
O209 Cd200 2.356 . S
O209 C207 1.282 . S
C210 O211 1.306 . S
C210 O213 1.160 . S
O211 C210 1.306 . S
O211 Cd212 2.228 . S
Cd212 O211 2.228 . S
Cd212 O216 2.273 . S
Cd212 O220 2.277 . S
O213 C210 1.160 . S
O213 Cd214 2.203 . S
Cd214 O213 2.203 . S
Cd214 O216 2.411 . S
Cd214 O217 2.333 . S
Cd214 O218 2.352 . S
Cd214 O222 2.277 . S
Cd214 O223 2.356 . S
C215 O220 1.209 . S
C215 O222 1.226 . S
O216 Cd212 2.273 . S
O216 Cd214 2.411 . S
O216 C219 1.320 . S
O217 Cd214 2.333 . S
O217 C219 1.214 . S
O218 Cd214 2.352 . S
O218 C221 1.258 . S
C219 O216 1.320 . S
C219 O217 1.214 . S
O220 Cd212 2.277 . S
O220 C215 1.209 . S
C221 O218 1.258 . S
C221 O223 1.282 . S
O222 Cd214 2.277 . S
O222 C215 1.226 . S
O223 Cd214 2.356 . S
O223 C221 1.282 . S
C25 C11 1.510 1_565 S
C39 C53 1.511 1_565 S
C67 C81 1.510 1_565 S
C109 C95 1.511 1_565 S
C137 C123 1.510 . S
C165 C151 1.511 . S
C193 C179 1.510 . S
C221 C207 1.511 . S
C42 C0 1.437 1_655 S
C14 C28 1.437 . S
C98 C56 1.437 1_455 S
C84 C70 1.437 . S
C112 C154 1.437 . S
C140 C126 1.437 1_455 S
C210 C168 1.437 . S
C182 C196 1.437 1_455 S
C5 C131 1.538 1_455 S
C19 C117 1.538 . S
C159 C33 1.538 . S
C145 C47 1.538 1_455 S
C187 C61 1.538 1_455 S
C173 C75 1.538 . S
C89 C215 1.538 . S
C103 C201 1.538 1_455 S
C65 C9 1.348 1_666 S
C79 C23 1.348 1_546 S
C93 C37 1.348 1_545 S
C107 C51 1.348 1_465 S
C121 C177 1.348 1_554 S
C135 C191 1.348 1_654 S
C205 C149 1.348 1_655 S
C219 C163 1.348 . S
