# Generated by pormake.
# Topology unn, (4)-cn, num edge types: 1
# Building blocks:
#     Node 0, Type 0, BuildingBlock: KOZSID_clean_sbu_0, # of connection points: 4
#     Node 1, Type 0, BuildingBlock: KOZSID_clean_sbu_0, # of connection points: 4
#     Node 2, Type 0, BuildingBlock: KOZSID_clean_sbu_0, # of connection points: 4
#     Node 3, Type 0, BuildingBlock: KOZSID_clean_sbu_0, # of connection points: 4
#     Node 4, Type 0, BuildingBlock: KOZSID_clean_sbu_0, # of connection points: 4
#     Node 5, Type 0, BuildingBlock: KOZSID_clean_sbu_0, # of connection points: 4
#     Node 6, Type 0, BuildingBlock: KOZSID_clean_sbu_0, # of connection points: 4
#     Node 7, Type 0, BuildingBlock: KOZSID_clean_sbu_0, # of connection points: 4
#     Node 8, Type 0, BuildingBlock: KOZSID_clean_sbu_0, # of connection points: 4
#     Node 9, Type 0, BuildingBlock: KOZSID_clean_sbu_0, # of connection points: 4
#     Node 10, Type 0, BuildingBlock: KOZSID_clean_sbu_0, # of connection points: 4
#     Node 11, Type 0, BuildingBlock: KOZSID_clean_sbu_0, # of connection points: 4
#     Node 12, Type 0, BuildingBlock: KOZSID_clean_sbu_0, # of connection points: 4
#     Node 13, Type 0, BuildingBlock: KOZSID_clean_sbu_0, # of connection points: 4
#     Node 14, Type 0, BuildingBlock: KOZSID_clean_sbu_0, # of connection points: 4
#     Node 15, Type 0, BuildingBlock: KOZSID_clean_sbu_0, # of connection points: 4
#     Node 16, Type 0, BuildingBlock: KOZSID_clean_sbu_0, # of connection points: 4
#     Node 17, Type 0, BuildingBlock: KOZSID_clean_sbu_0, # of connection points: 4
#     Edge 18, Type (0, 0), BuildingBlock: AJUNOK_clean_linker_0, # of connection points: 2
#     Edge 19, Type (0, 0), BuildingBlock: AJUNOK_clean_linker_0, # of connection points: 2
#     Edge 20, Type (0, 0), BuildingBlock: AJUNOK_clean_linker_0, # of connection points: 2
#     Edge 21, Type (0, 0), BuildingBlock: AJUNOK_clean_linker_0, # of connection points: 2
#     Edge 22, Type (0, 0), BuildingBlock: AJUNOK_clean_linker_0, # of connection points: 2
#     Edge 23, Type (0, 0), BuildingBlock: AJUNOK_clean_linker_0, # of connection points: 2
#     Edge 24, Type (0, 0), BuildingBlock: AJUNOK_clean_linker_0, # of connection points: 2
#     Edge 25, Type (0, 0), BuildingBlock: AJUNOK_clean_linker_0, # of connection points: 2
#     Edge 26, Type (0, 0), BuildingBlock: AJUNOK_clean_linker_0, # of connection points: 2
#     Edge 27, Type (0, 0), BuildingBlock: AJUNOK_clean_linker_0, # of connection points: 2
#     Edge 28, Type (0, 0), BuildingBlock: AJUNOK_clean_linker_0, # of connection points: 2
#     Edge 29, Type (0, 0), BuildingBlock: AJUNOK_clean_linker_0, # of connection points: 2
#     Edge 30, Type (0, 0), BuildingBlock: AJUNOK_clean_linker_0, # of connection points: 2
#     Edge 31, Type (0, 0), BuildingBlock: AJUNOK_clean_linker_0, # of connection points: 2
#     Edge 32, Type (0, 0), BuildingBlock: AJUNOK_clean_linker_0, # of connection points: 2
#     Edge 33, Type (0, 0), BuildingBlock: AJUNOK_clean_linker_0, # of connection points: 2
#     Edge 34, Type (0, 0), BuildingBlock: AJUNOK_clean_linker_0, # of connection points: 2
#     Edge 35, Type (0, 0), BuildingBlock: AJUNOK_clean_linker_0, # of connection points: 2
#     Edge 36, Type (0, 0), BuildingBlock: AJUNOK_clean_linker_0, # of connection points: 2
#     Edge 37, Type (0, 0), BuildingBlock: AJUNOK_clean_linker_0, # of connection points: 2
#     Edge 38, Type (0, 0), BuildingBlock: AJUNOK_clean_linker_0, # of connection points: 2
#     Edge 39, Type (0, 0), BuildingBlock: AJUNOK_clean_linker_0, # of connection points: 2
#     Edge 40, Type (0, 0), BuildingBlock: AJUNOK_clean_linker_0, # of connection points: 2
#     Edge 41, Type (0, 0), BuildingBlock: AJUNOK_clean_linker_0, # of connection points: 2
#     Edge 42, Type (0, 0), BuildingBlock: AJUNOK_clean_linker_0, # of connection points: 2
#     Edge 43, Type (0, 0), BuildingBlock: AJUNOK_clean_linker_0, # of connection points: 2
#     Edge 44, Type (0, 0), BuildingBlock: AJUNOK_clean_linker_0, # of connection points: 2
#     Edge 45, Type (0, 0), BuildingBlock: AJUNOK_clean_linker_0, # of connection points: 2
#     Edge 46, Type (0, 0), BuildingBlock: AJUNOK_clean_linker_0, # of connection points: 2
#     Edge 47, Type (0, 0), BuildingBlock: AJUNOK_clean_linker_0, # of connection points: 2
#     Edge 48, Type (0, 0), BuildingBlock: AJUNOK_clean_linker_0, # of connection points: 2
#     Edge 49, Type (0, 0), BuildingBlock: AJUNOK_clean_linker_0, # of connection points: 2
#     Edge 50, Type (0, 0), BuildingBlock: AJUNOK_clean_linker_0, # of connection points: 2
#     Edge 51, Type (0, 0), BuildingBlock: AJUNOK_clean_linker_0, # of connection points: 2
#     Edge 52, Type (0, 0), BuildingBlock: AJUNOK_clean_linker_0, # of connection points: 2
#     Edge 53, Type (0, 0), BuildingBlock: AJUNOK_clean_linker_0, # of connection points: 2
# Relax obj value: 0.053
# Max RMSD: 0.234
# Mean RMSD: 0.202
data_MOF--net-unn--node1-KOZSID_clean_sbu_0--edge1-AJUNOK_clean_linker_0
_symmetry_space_group_name_H-M    P1
_symmetry_Int_Tables_number       1
_symmetry_cell_setting            triclinic
loop_
_symmetry_equiv_pos_as_xyz
'x, y, z'
_cell_length_a     42.900937
_cell_length_b     42.91528
_cell_length_c     39.167324
_cell_angle_alpha  89.83312
_cell_angle_beta   90.127593
_cell_angle_gamma 119.99872
loop_
_atom_site_label
_atom_site_type_symbol
_atom_site_fract_x
_atom_site_fract_y
_atom_site_fract_z
_atom_type_partial_charge
C0 C 0.99749 0.71889 0.3543 0.0
C1 C 1.00024 0.74857 0.37106 0.0
C2 C 0.01313 0.77619 0.34781 0.0
C3 C 0.0178 0.76216 0.31807 0.0
N4 N 0.00779 0.72706 0.32063 0.0
Co5 Co 0.01709 0.69999 0.28382 0.0
N6 N 0.03051 0.73812 0.24782 0.0
C7 C 0.03522 0.77101 0.25386 0.0
C8 C 0.04162 0.79111 0.22465 0.0
C9 C 0.04105 0.76962 0.19842 0.0
C10 C 0.03479 0.7375 0.21295 0.0
N11 N 0.02842 0.67348 0.24805 0.0
C12 C 0.03525 0.67916 0.21374 0.0
C13 C 0.0429 0.65397 0.19993 0.0
C14 C 0.0399 0.63129 0.22584 0.0
C15 C 0.03103 0.64395 0.25411 0.0
N16 N 1.00171 0.66026 0.31876 0.0
C17 C 1.00395 0.63033 0.31439 0.0
C18 C 0.9914 0.60706 0.34157 0.0
C19 C 0.98121 0.62349 0.36527 0.0
C20 C 0.98853 0.65625 0.3514 0.0
N21 N 0.96657 0.67838 0.26674 0.0
C22 C 0.90075 0.65664 0.23154 0.0
C23 C 0.9169 0.63501 0.23182 0.0
C24 C 0.94939 0.64606 0.24989 0.0
C25 C 0.91744 0.68831 0.25065 0.0
C26 C 0.95002 0.69871 0.26756 0.0
N27 N 0.06801 0.72432 0.30083 0.0
C28 C 0.10701 0.74861 0.35033 0.0
C29 C 0.1337 0.7771 0.33126 0.0
C30 C 0.12848 0.77586 0.29569 0.0
C31 C 0.09585 0.74908 0.28102 0.0
C32 C 0.07489 0.7228 0.33486 0.0
H33 H 0.09272 0.74981 0.25377 0.0
H34 H 0.05522 0.70299 0.35145 0.0
H35 H 0.96095 0.62883 0.24926 0.0
H36 H 0.96224 0.72431 0.27998 0.0
C37 C 0.03006 0.78046 0.28681 0.0
C38 C 0.98802 0.68465 0.37235 0.0
C39 C 0.03513 0.70794 0.19304 0.0
C40 C 0.01895 0.62542 0.28485 0.0
H41 H 0.99457 0.75038 0.39766 0.0
H42 H 0.0189 0.80345 0.35224 0.0
H43 H 0.0453 0.8179 0.22249 0.0
H44 H 0.04482 0.77686 0.17167 0.0
H45 H 0.04945 0.6518 0.17371 0.0
H46 H 0.04227 0.6074 0.22392 0.0
H47 H 0.99069 0.5816 0.34423 0.0
H48 H 0.97128 0.61333 0.39063 0.0
H49 H 0.90466 0.60981 0.21801 0.0
H50 H 0.9062 0.70597 0.25136 0.0
H51 H 0.11039 0.74657 0.3775 0.0
H52 H 0.14878 0.79631 0.27937 0.0
C53 C 0.2837 0.29529 0.20949 0.0
C54 C 0.25794 0.26499 0.19247 0.0
C55 C 0.24399 0.23733 0.2157 0.0
C56 C 0.26189 0.25196 0.24573 0.0
N57 N 0.28572 0.28746 0.24336 0.0
Co58 Co 0.32083 0.3158 0.28076 0.0
N59 N 0.29696 0.27728 0.31661 0.0
C60 C 0.27073 0.24345 0.31006 0.0
C61 C 0.25784 0.22276 0.33904 0.0
C62 C 0.27732 0.24483 0.36562 0.0
C63 C 0.30147 0.27792 0.35154 0.0
N64 N 0.35711 0.34397 0.31735 0.0
C65 C 0.35781 0.33854 0.35179 0.0
C66 C 0.38955 0.36514 0.36632 0.0
C67 C 0.40902 0.38834 0.34071 0.0
C68 C 0.38845 0.37462 0.3119 0.0
N69 N 0.34454 0.35557 0.24574 0.0
C70 C 0.37592 0.38636 0.2505 0.0
C71 C 0.38644 0.40938 0.22314 0.0
C72 C 0.36058 0.39191 0.19889 0.0
C73 C 0.33579 0.35884 0.21266 0.0
N74 N 0.28949 0.33508 0.29633 0.0
C75 C 0.24334 0.35517 0.3296 0.0
C76 C 0.28023 0.37998 0.32497 0.0
C77 C 0.30284 0.36938 0.30849 0.0
C78 C 0.23004 0.32095 0.31557 0.0
C79 C 0.25316 0.3117 0.29894 0.0
N80 N 0.35002 0.29373 0.26539 0.0
C81 C 0.36728 0.26962 0.21764 0.0
C82 C 0.36785 0.24302 0.23813 0.0
C83 C 0.36274 0.24495 0.27342 0.0
C84 C 0.35498 0.27098 0.2865 0.0
C85 C 0.35847 0.29436 0.23154 0.0
H86 H 0.35096 0.27104 0.31364 0.0
H87 H 0.35678 0.31254 0.21396 0.0
H88 H 0.33119 0.38862 0.30656 0.0
H89 H 0.24132 0.28478 0.28945 0.0
C90 C 0.25676 0.23356 0.27686 0.0
C91 C 0.30788 0.32976 0.19143 0.0
C92 C 0.32976 0.30843 0.37191 0.0
C93 C 0.39508 0.39258 0.28082 0.0
H94 H 0.25092 0.26281 0.16568 0.0
H95 H 0.22368 0.20962 0.21103 0.0
H96 H 0.23623 0.19513 0.34079 0.0
H97 H 0.27422 0.2373 0.39231 0.0
H98 H 0.39774 0.36776 0.39279 0.0
H99 H 0.43454 0.41308 0.34307 0.0
H100 H 0.41053 0.43545 0.22079 0.0
H101 H 0.36089 0.40171 0.17333 0.0
H102 H 0.29177 0.40698 0.33507 0.0
H103 H 0.20174 0.30105 0.31779 0.0
H104 H 0.37262 0.27087 0.19052 0.0
H105 H 0.36297 0.22555 0.29094 0.0
C106 C 0.73207 0.99959 0.21136 0.0
C107 C 0.76279 0.00578 0.19405 0.0
C108 C 0.79079 0.02171 0.21676 0.0
C109 C 0.77584 0.0244 0.24677 0.0
N110 N 0.73992 0.01036 0.24495 0.0
Co111 Co 0.71055 0.01521 0.28252 0.0
N112 N 0.74995 0.03287 0.31778 0.0
C113 C 0.7847 0.04513 0.30995 0.0
C114 C 0.80753 0.06112 0.33699 0.0
C115 C 0.7859 0.05876 0.36376 0.0
C116 C 0.75057 0.04037 0.35212 0.0
N117 N 0.68095 0.02057 0.31954 0.0
C118 C 0.685 0.02281 0.35441 0.0
C119 C 0.65296 0.01549 0.37003 0.0
C120 C 0.62956 0.01203 0.34485 0.0
C121 C 0.64747 0.0154 0.31502 0.0
N122 N 0.67029 0.99674 0.24776 0.0
C123 C 0.63839 0.99496 0.25261 0.0
C124 C 0.61528 0.98121 0.22544 0.0
C125 C 0.63382 0.97442 0.20116 0.0
C126 C 0.66748 0.98476 0.21482 0.0
N127 N 0.69431 0.96521 0.29847 0.0
C128 C 0.6769 0.89957 0.33169 0.0
C129 C 0.65106 0.91022 0.32727 0.0
C130 C 0.6601 0.94271 0.31024 0.0
C131 C 0.71106 0.92169 0.31779 0.0
C132 C 0.7192 0.95417 0.30158 0.0
N133 N 0.72951 0.06605 0.26672 0.0
C134 C 0.75413 0.10693 0.21849 0.0
C135 C 0.77964 0.1348 0.23911 0.0
C136 C 0.77635 0.12835 0.27461 0.0
C137 C 0.75042 0.09449 0.28779 0.0
C138 C 0.72964 0.07331 0.23261 0.0
H139 H 0.74923 0.0909 0.31506 0.0
H140 H 0.71249 0.0528 0.21518 0.0
H141 H 0.63955 0.94991 0.30761 0.0
H142 H 0.7463 0.97093 0.29274 0.0
C143 C 0.79452 0.04068 0.27696 0.0
C144 C 0.69712 0.98742 0.19361 0.0
C145 C 0.71891 0.0336 0.37373 0.0
C146 C 0.63029 0.00462 0.28364 0.0
H147 H 0.76496 1.00082 0.16732 0.0
H148 H 0.81893 0.03125 0.21164 0.0
H149 H 0.83658 0.07375 0.33708 0.0
H150 H 0.79546 0.07073 0.38858 0.0
H151 H 0.64619 0.01158 0.39682 0.0
H152 H 0.6016 1.00458 0.34794 0.0
H153 H 0.58821 0.97682 0.22345 0.0
H154 H 0.62416 0.96434 0.17574 0.0
H155 H 0.62414 0.89375 0.33733 0.0
H156 H 0.73186 0.91456 0.3205 0.0
H157 H 0.75366 0.11049 0.19115 0.0
H158 H 0.7947 0.14844 0.29234 0.0
C159 C 0.95097 0.18647 0.74608 0.0
C160 C 0.94069 0.15223 0.734 0.0
C161 C 0.96387 0.14269 0.74781 0.0
C162 C 0.9872 0.17162 0.76708 0.0
N163 N 0.98067 0.19926 0.7663 0.0
Co164 Co 0.00984 0.24678 0.78972 0.0
N165 N 0.04895 0.23592 0.80158 0.0
C166 C 0.04726 0.20387 0.79798 0.0
C167 C 0.07813 0.20404 0.80723 0.0
C168 C 0.10094 0.23827 0.81785 0.0
C169 C 0.08246 0.25707 0.81469 0.0
N170 N 0.03922 0.29394 0.81361 0.0
C171 C 0.07302 0.3095 0.82742 0.0
C172 C 0.08128 0.34106 0.8443 0.0
C173 C 0.0516 0.34512 0.84157 0.0
C174 C 0.02685 0.31592 0.82319 0.0
N175 N 0.97041 0.25701 0.77746 0.0
C176 C 0.96614 0.28335 0.79125 0.0
C177 C 0.93586 0.28326 0.77966 0.0
C178 C 0.91965 0.25473 0.75755 0.0
C179 C 0.94098 0.23889 0.75679 0.0
N180 N 0.98506 0.22622 0.83374 0.0
C181 C 0.95282 0.23144 0.89454 0.0
C182 C 0.93192 0.21431 0.86554 0.0
C183 C 0.94841 0.211 0.83579 0.0
C184 C 0.98912 0.24046 0.89377 0.0
C185 C 1.0045 0.23707 0.86343 0.0
N186 N 0.03443 0.26983 0.74632 0.0
C187 C 0.05305 0.32018 0.70772 0.0
C188 C 0.06906 0.30694 0.68541 0.0
C189 C 0.06661 0.27383 0.69412 0.0
C190 C 0.0492 0.25571 0.72465 0.0
C191 C 0.03668 0.30184 0.73774 0.0
H192 H 0.04772 0.23046 0.73066 0.0
H193 H 0.02557 0.31393 0.75386 0.0
H194 H 0.93189 0.19973 0.81343 0.0
H195 H 0.03301 0.24702 0.86336 0.0
C196 C 0.01784 0.1752 0.78262 0.0
C197 C 0.93013 0.20443 0.73939 0.0
C198 C 0.09654 0.2935 0.82812 0.0
C199 C 0.99266 0.30911 0.81279 0.0
H200 H 0.91861 0.13565 0.71705 0.0
H201 H 0.96433 0.11802 0.74347 0.0
H202 H 0.0836 0.18203 0.80588 0.0
H203 H 0.1279 0.24801 0.82754 0.0
H204 H 0.10581 0.35869 0.858 0.0
H205 H 0.04843 0.36674 0.85188 0.0
H206 H 0.92667 0.30178 0.78638 0.0
H207 H 0.89446 0.2459 0.74425 0.0
H208 H 0.90363 0.20611 0.86466 0.0
H209 H 1.00622 0.25228 0.91589 0.0
H210 H 0.05235 0.34449 0.70187 0.0
H211 H 0.07813 0.26205 0.67759 0.0
C212 C 0.84562 0.77622 0.75059 0.0
C213 C 0.88175 0.79865 0.74271 0.0
C214 C 0.89086 0.83199 0.75424 0.0
C215 C 0.85993 0.82824 0.76812 0.0
N216 N 0.8314 0.79466 0.76629 0.0
Co217 Co 0.78133 0.77898 0.78325 0.0
N218 N 0.79575 0.82884 0.79988 0.0
C219 C 0.82888 0.858 0.79757 0.0
C220 C 0.83184 0.88858 0.81143 0.0
C221 C 0.79842 0.87855 0.82344 0.0
C222 C 0.7767 0.84226 0.8158 0.0
N223 N 0.73175 0.76368 0.80118 0.0
C224 C 0.7185 0.78247 0.81821 0.0
C225 C 0.68244 0.76051 0.82613 0.0
C226 C 0.67271 0.72694 0.81402 0.0
C227 C 0.70323 0.73021 0.79928 0.0
N228 N 0.76731 0.72964 0.76562 0.0
C229 C 0.73421 0.70055 0.76767 0.0
C230 C 0.73184 0.67033 0.75319 0.0
C231 C 0.76563 0.68085 0.74111 0.0
C232 C 0.78681 0.71705 0.74879 0.0
N233 N 0.79291 0.76577 0.82855 0.0
C234 C 0.783 0.72635 0.88956 0.0
C235 C 0.77702 0.7556 0.88847 0.0
C236 C 0.7823 0.77492 0.85804 0.0
C237 C 0.79896 0.72071 0.8608 0.0
C238 C 0.80422 0.74105 0.8309 0.0
N239 N 0.76722 0.78975 0.73804 0.0
C240 C 0.75764 0.77544 0.67772 0.0
C241 C 0.72909 0.78248 0.67668 0.0
C242 C 0.72259 0.79683 0.70608 0.0
C243 C 0.7424 0.80098 0.73607 0.0
C244 C 0.77629 0.77933 0.70837 0.0
H245 H 0.73607 0.81167 0.75795 0.0
H246 H 0.79664 0.77188 0.70803 0.0
H247 H 0.77543 0.79566 0.85834 0.0
H248 H 0.8154 0.73492 0.80924 0.0
C249 C 0.8569 0.85583 0.78273 0.0
C250 C 0.82572 0.73809 0.74085 0.0
C251 C 0.73871 0.82141 0.82604 0.0
C252 C 0.70622 0.7027 0.7835 0.0
H253 H 0.8997 0.792 0.72942 0.0
H254 H 0.91687 0.85624 0.75236 0.0
H255 H 0.85565 0.91495 0.81306 0.0
H256 H 0.79129 0.89603 0.83696 0.0
H257 H 0.66494 0.76809 0.83903 0.0
H258 H 0.64645 0.70301 0.81567 0.0
H259 H 0.70836 0.64372 0.75174 0.0
H260 H 0.77388 0.6638 0.72837 0.0
H261 H 0.76679 0.76267 0.91061 0.0
H262 H 0.80543 0.69934 0.86061 0.0
H263 H 0.76434 0.76508 0.65542 0.0
H264 H 0.70179 0.80412 0.70618 0.0
C265 C 0.19408 0.95057 0.82339 0.0
C266 C 0.15782 0.93543 0.83171 0.0
C267 C 0.14576 0.9559 0.81632 0.0
C268 C 0.175 0.98217 0.79937 0.0
N269 N 0.20511 0.98001 0.80311 0.0
Co270 Co 0.25218 0.01195 0.78008 0.0
N271 N 0.23752 0.04814 0.76768 0.0
C272 C 0.20371 0.04253 0.7689 0.0
C273 C 0.20058 0.07111 0.75784 0.0
C274 C 0.2345 0.09655 0.74856 0.0
C275 C 0.25666 0.08203 0.75462 0.0
N276 N 0.2986 0.04386 0.75599 0.0
C277 C 0.3124 0.07784 0.74297 0.0
C278 C 0.3448 0.08848 0.72651 0.0
C279 C 0.35101 0.06009 0.72854 0.0
C280 C 0.32226 0.03367 0.7462 0.0
N281 N 0.26631 0.97559 0.79314 0.0
C282 C 0.29428 0.97383 0.77981 0.0
C283 C 0.29763 0.94596 0.79302 0.0
C284 C 0.26972 0.92875 0.81575 0.0
C285 C 0.25054 0.94688 0.81502 0.0
N286 N 0.23306 0.98616 0.73627 0.0
C287 C 0.23552 0.95395 0.67445 0.0
C288 C 0.24329 0.98981 0.67535 0.0
C289 C 0.24165 0.00528 0.70634 0.0
C290 C 0.22224 0.93346 0.70434 0.0
C291 C 0.22013 0.9498 0.73465 0.0
N292 N 0.27379 0.03737 0.82344 0.0
C293 C 0.32477 0.05926 0.86164 0.0
C294 C 0.30684 0.06705 0.8868 0.0
C295 C 0.27211 0.06099 0.87922 0.0
C296 C 0.25597 0.04602 0.84725 0.0
C297 C 0.30804 0.04465 0.83065 0.0
H298 H 0.229 0.0407 0.8421 0.0
H299 H 0.32298 0.03822 0.81301 0.0
H300 H 0.25065 0.0336 0.70637 0.0
H301 H 0.21104 0.9335 0.7574 0.0
C302 C 0.17596 0.01122 0.78283 0.0
C303 C 0.2157 0.93402 0.83282 0.0
C304 C 0.29436 0.09963 0.74332 0.0
C305 C 0.31842 1.00079 0.75747 0.0
H306 H 0.1413 0.91154 0.84669 0.0
H307 H 0.11897 0.95233 0.81769 0.0
H308 H 0.17648 0.0732 0.75666 0.0
H309 H 0.2416 0.12231 0.73736 0.0
H310 H 0.36187 0.11388 0.71386 0.0
H311 H 0.37407 0.05909 0.71875 0.0
H312 H 0.31817 0.93918 0.78718 0.0
H313 H 0.26365 0.90505 0.83055 0.0
H314 H 0.25312 0.00661 0.65278 0.0
H315 H 0.21482 0.90535 0.70462 0.0
H316 H 0.35159 0.06362 0.86623 0.0
H317 H 0.25723 0.06667 0.89809 0.0
C318 C 0.65889 0.05456 0.68561 0.0
C319 C 0.64488 0.07546 0.69762 0.0
C320 C 0.64384 0.0953 0.67051 0.0
C321 C 0.65632 0.08504 0.643 0.0
N322 N 0.66518 0.05995 0.65093 0.0
Co323 Co 0.67849 0.03459 0.6158 0.0
N324 N 0.68732 0.06986 0.578 0.0
C325 C 0.67792 0.09542 0.57993 0.0
C326 C 0.68844 0.11759 0.55191 0.0
C327 C 0.70433 0.10449 0.53035 0.0
C328 C 0.70172 0.07405 0.54571 0.0
N329 N 0.69186 0.00847 0.58105 0.0
C330 C 0.70143 0.01496 0.54712 0.0
C331 C 0.69726 0.98388 0.53166 0.0
C332 C 0.68754 0.95841 0.55633 0.0
C333 C 0.68448 0.97426 0.58527 0.0
N334 N 0.66942 0.99876 0.65326 0.0
C335 C 0.6688 0.96736 0.64874 0.0
C336 C 0.67031 0.95139 0.67845 0.0
C337 C 0.67152 0.97371 0.70367 0.0
C338 C 0.66884 1.00146 0.68812 0.0
N339 N 0.627 0.00727 0.60042 0.0
C340 C 0.55842 0.99149 0.57421 0.0
C341 C 0.58564 0.99358 0.55292 0.0
C342 C 0.6192 1.00166 0.56623 0.0
C343 C 0.5655 0.9942 0.60962 0.0
C344 C 0.59936 1.00102 0.62211 0.0
N345 N 0.72944 0.06446 0.63122 0.0
C346 C 0.78241 0.07243 0.66159 0.0
C347 C 0.79664 0.10995 0.66356 0.0
C348 C 0.77691 0.12392 0.64807 0.0
C349 C 0.74383 0.10108 0.63248 0.0
C350 C 0.74914 0.05027 0.64488 0.0
H351 H 0.72935 0.11355 0.62292 0.0
H352 H 0.73896 0.02166 0.64399 0.0
H353 H 0.6392 0.00557 0.54793 0.0
H354 H 0.60368 1.00344 0.64931 0.0
C355 C 0.66267 0.09988 0.60999 0.0
C356 C 0.66302 0.02796 0.70741 0.0
C357 C 0.7093 0.04782 0.52724 0.0
C358 C 0.67427 0.95743 0.61675 0.0
H359 H 0.63541 0.07574 0.72311 0.0
H360 H 0.63496 0.11487 0.67089 0.0
H361 H 0.68557 0.14099 0.54787 0.0
H362 H 0.71604 0.11601 0.50587 0.0
H363 H 0.69843 0.97865 0.5049 0.0
H364 H 0.68167 0.93094 0.55317 0.0
H365 H 0.67293 0.9277 0.68135 0.0
H366 H 0.67495 0.96998 0.7304 0.0
H367 H 0.5817 0.99023 0.52558 0.0
H368 H 0.54589 0.99281 0.62775 0.0
H369 H 0.79677 0.06026 0.67304 0.0
H370 H 0.78621 0.15247 0.64925 0.0
C371 C 0.95247 0.63157 0.54388 0.0
C372 C 0.92565 0.60194 0.5269 0.0
C373 C 0.91056 0.57432 0.55014 0.0
C374 C 0.92893 0.58831 0.5801 0.0
N375 N 0.95416 0.62339 0.57767 0.0
Co376 Co 0.98984 0.65055 0.61506 0.0
N377 N 0.96429 0.61258 0.65098 0.0
C378 C 0.93649 0.57953 0.64463 0.0
C379 C 0.9227 0.55922 0.67371 0.0
C380 C 0.94316 0.58077 0.70019 0.0
C381 C 0.9687 0.61316 0.68592 0.0
N382 N 0.02691 0.67721 0.65151 0.0
C383 C 0.02722 0.67177 0.68598 0.0
C384 C 0.05963 0.69713 0.70046 0.0
C385 C 0.08001 0.71959 0.67473 0.0
C386 C 0.05922 0.70667 0.64594 0.0
N387 N 0.01512 0.68999 0.58004 0.0
C388 C 0.04738 0.71976 0.58475 0.0
C389 C 0.05882 0.74282 0.55739 0.0
C390 C 0.0326 0.72645 0.53324 0.0
C391 C 1.00664 0.69391 0.54704 0.0
N392 N 0.96071 0.67243 0.63069 0.0
C393 C 0.91622 0.69496 0.66369 0.0
C394 C 0.95401 0.71643 0.66407 0.0
C395 C 0.97565 0.70503 0.64701 0.0
C396 C 0.90147 0.66278 0.64538 0.0
C397 C 0.92383 0.65203 0.6295 0.0
N398 N 0.01673 0.62602 0.59963 0.0
C399 C 0.03337 0.60127 0.55192 0.0
C400 C 0.03304 0.57418 0.57233 0.0
C401 C 0.02747 0.57589 0.60757 0.0
C402 C 0.02033 0.60236 0.62067 0.0
C403 C 0.02531 0.62654 0.56582 0.0
H404 H 0.01589 0.60221 0.64775 0.0
H405 H 0.02439 0.64516 0.54826 0.0
H406 H 1.00445 0.72223 0.64803 0.0
H407 H 0.91063 0.62613 0.61761 0.0
C408 C 0.92245 0.57001 0.61143 0.0
C409 C 0.97768 0.6657 0.52591 0.0
C410 C 0.99799 0.6429 0.70617 0.0
C411 C 0.06653 0.72487 0.61492 0.0
H412 H 0.9185 0.60014 0.50018 0.0
H413 H 0.88905 0.5471 0.54557 0.0
H414 H 0.89996 0.53219 0.6756 0.0
H415 H 0.93979 0.57337 0.72691 0.0
H416 H 0.06762 0.6995 0.72698 0.0
H417 H 0.10622 0.74349 0.67706 0.0
H418 H 0.08374 0.76817 0.55498 0.0
H419 H 0.03336 0.73654 0.50771 0.0
H420 H 0.9668 0.74179 0.67763 0.0
H421 H 0.87258 0.64501 0.64451 0.0
H422 H 0.03896 0.60258 0.52484 0.0
H423 H 0.02696 0.55604 0.62498 0.0
C424 C 0.41048 0.36347 0.68387 0.0
C425 C 0.44306 0.3698 0.69726 0.0
C426 C 0.46392 0.37091 0.67014 0.0
C427 C 0.44302 0.36487 0.64155 0.0
N428 N 0.41028 0.35996 0.64883 0.0
Co429 Co 0.37139 0.34755 0.61396 0.0
N430 N 0.39735 0.33884 0.5756 0.0
C431 C 0.43253 0.34885 0.57704 0.0
C432 C 0.44576 0.34472 0.54655 0.0
C433 C 0.4175 0.33211 0.52405 0.0
C434 C 0.38816 0.32884 0.54198 0.0
N435 N 0.33092 0.33322 0.58011 0.0
C436 C 0.32571 0.32013 0.54735 0.0
C437 C 0.29236 0.31268 0.53494 0.0
C438 C 0.27691 0.32298 0.55955 0.0
C439 C 0.30121 0.33554 0.58588 0.0
N440 N 0.34594 0.35836 0.65124 0.0
C441 C 0.31649 0.36145 0.64652 0.0
C442 C 0.30453 0.36965 0.6757 0.0
C443 C 0.3276 0.37165 0.70079 0.0
C444 C 0.35231 0.36417 0.68557 0.0
N445 N 0.39561 0.39889 0.59806 0.0
C446 C 0.44712 0.46689 0.56979 0.0
C447 C 0.41959 0.44005 0.54988 0.0
C448 C 0.39444 0.4068 0.56427 0.0
C449 C 0.44606 0.45974 0.60505 0.0
C450 C 0.41979 0.4262 0.61865 0.0
N451 N 0.34999 0.29663 0.63008 0.0
C452 C 0.3093 0.24774 0.66739 0.0
C453 C 0.33055 0.23127 0.66527 0.0
C454 C 0.36041 0.24723 0.64369 0.0
C455 C 0.36977 0.27963 0.62686 0.0
C456 C 0.31907 0.2799 0.6492 0.0
H457 H 0.39433 0.29141 0.61263 0.0
H458 H 0.30211 0.29165 0.65171 0.0
H459 H 0.37538 0.38713 0.5471 0.0
H460 H 0.42053 0.42196 0.6457 0.0
C461 C 0.4516 0.36042 0.60799 0.0
C462 C 0.38128 0.36312 0.705 0.0
C463 C 0.35322 0.31928 0.52513 0.0
C464 C 0.29719 0.35006 0.61615 0.0
H465 H 0.45102 0.37338 0.72383 0.0
H466 H 0.49084 0.3748 0.67128 0.0
H467 H 0.47292 0.35063 0.54116 0.0
H468 H 0.41873 0.32704 0.4972 0.0
H469 H 0.28098 0.30236 0.51002 0.0
H470 H 0.25126 0.32207 0.55815 0.0
H471 H 0.28078 0.37212 0.67874 0.0
H472 H 0.32597 0.37736 0.72741 0.0
H473 H 0.41782 0.44421 0.52282 0.0
H474 H 0.46629 0.47911 0.6221 0.0
H475 H 0.28543 0.23602 0.68324 0.0
H476 H 0.37764 0.23563 0.64104 0.0
C477 C 0.74783 0.5772 0.14597 0.0
C478 C 0.76017 0.55396 0.15528 0.0
C479 C 0.73417 0.5203 0.14614 0.0
C480 C 0.70743 0.52472 0.13204 0.0
N481 N 0.71455 0.55907 0.13132 0.0
Co482 Co 0.68148 0.57602 0.11343 0.0
N483 N 0.6445 0.52614 0.09831 0.0
C484 C 0.64554 0.49576 0.10444 0.0
C485 C 0.61573 0.46499 0.0935 0.0
C486 C 0.59404 0.47626 0.0794 0.0
C487 C 0.61209 0.51348 0.08242 0.0
N488 N 0.64849 0.59252 0.09444 0.0
C489 C 0.61694 0.57442 0.07644 0.0
C490 C 0.60412 0.59713 0.06716 0.0
C491 C 0.62815 0.63047 0.07971 0.0
C492 C 0.65431 0.62633 0.09587 0.0
N493 N 0.71806 0.62535 0.1301 0.0
C494 C 0.71478 0.65487 0.12797 0.0
C495 C 0.74318 0.68484 0.14227 0.0
C496 C 0.76599 0.67365 0.15434 0.0
C497 C 0.75018 0.63735 0.14681 0.0
N498 N 0.70603 0.5873 0.06804 0.0
C499 C 0.73432 0.62571 1.0064 0.0
C500 C 0.75636 0.63235 0.03508 0.0
C501 C 0.74192 0.61242 0.06528 0.0
C502 C 0.69953 0.59574 1.00782 0.0
C503 C 0.68617 0.57685 0.03856 0.0
N504 N 0.65706 0.56729 0.15859 0.0
C505 C 0.60675 0.56339 0.1904 0.0
C506 C 0.62825 0.57805 0.21953 0.0
C507 C 0.66306 0.5828 0.21859 0.0
C508 C 0.67681 0.57727 0.18816 0.0
C509 C 0.62145 0.55777 0.16053 0.0
H510 H 0.7042 0.58322 0.18851 0.0
H511 H 0.60425 0.5477 0.13858 0.0
H512 H 0.7596 0.61924 0.08677 0.0
H513 H 0.65898 0.5553 0.03846 0.0
C514 C 0.67517 0.49703 0.11983 0.0
C515 C 0.76744 0.61568 0.15443 0.0
C516 C 0.59787 0.5356 0.0684 0.0
C517 C 0.68503 0.65346 0.11185 0.0
H518 H 0.78491 0.56033 0.16831 0.0
H519 H 0.73443 0.49543 0.1499 0.0
H520 H 0.61049 0.43761 0.09541 0.0
H521 H 0.56797 0.459 0.06797 0.0
H522 H 0.57985 0.59021 0.05295 0.0
H523 H 0.62681 0.65489 0.07716 0.0
H524 H 0.74701 0.71173 0.14354 0.0
H525 H 0.79155 0.69036 0.16689 0.0
H526 H 0.784 0.65419 0.03499 0.0
H527 H 0.68203 0.58779 0.98571 0.0
H528 H 0.57929 0.55813 0.18996 0.0
H529 H 0.68024 0.59209 0.24091 0.0
C530 C 0.44062 0.16711 0.15481 0.0
C531 C 0.46142 0.20341 0.16299 0.0
C532 C 0.49426 0.21552 0.14836 0.0
C533 C 0.49171 0.18629 0.13183 0.0
N534 N 0.45933 0.15622 0.13498 0.0
Co535 Co 0.4444 0.1092 0.11211 0.0
N536 N 0.4954 0.12387 0.10048 0.0
C537 C 0.52411 0.15716 0.10384 0.0
C538 C 0.55617 0.15955 0.09532 0.0
C539 C 0.54736 0.12576 0.08529 0.0
C540 C 0.51015 0.10467 0.08782 0.0
N541 N 0.42998 0.06277 0.08803 0.0
C542 C 0.45028 0.04965 0.07401 0.0
C543 C 0.42875 0.01795 0.05647 0.0
C544 C 0.39403 0.01129 0.05902 0.0
C545 C 0.39617 0.0392 0.07791 0.0
N546 N 0.39379 0.09498 0.12458 0.0
C547 C 0.36413 0.06709 0.11103 0.0
C548 C 0.33283 0.06374 0.1239 0.0
C549 C 0.34342 0.09151 0.14671 0.0
C550 C 0.38074 0.11053 0.14642 0.0
N551 N 0.43802 0.12838 0.06813 0.0
C552 C 0.3994 0.12012 1.00752 0.0
C553 C 0.39411 0.13635 0.03624 0.0
C554 C 0.41426 0.14092 0.06612 0.0
C555 C 0.4287 0.11412 1.00814 0.0
C556 C 0.44807 0.11909 0.03845 0.0
N557 N 0.44796 0.08764 0.15572 0.0
C558 C 0.41875 0.0369 0.1942 0.0
C559 C 0.4442 0.05514 0.2196 0.0
C560 C 0.47275 0.08988 0.21202 0.0
C561 C 0.47411 0.10573 0.17981 0.0
C562 C 0.42108 0.05336 0.16291 0.0
H563 H 0.49567 0.13274 0.17474 0.0
H564 H 0.39995 0.03825 0.14501 0.0
H565 H 0.40762 0.15088 0.08857 0.0
H566 H 0.46841 0.11142 0.03855 0.0
C567 C 0.52043 0.18504 0.11714 0.0
C568 C 0.40275 0.14487 0.16483 0.0
C569 C 0.49004 0.06831 0.07348 0.0
C570 C 0.36706 0.04301 0.08884 0.0
H571 H 0.45376 0.21979 0.17773 0.0
H572 H 0.51752 0.24223 0.15026 0.0
H573 H 0.5828 0.18305 0.09641 0.0
H574 H 0.56617 0.11788 0.07603 0.0
H575 H 0.43742 1.00194 0.04243 0.0
H576 H 0.37012 0.9888 0.04828 0.0
H577 H 0.30554 0.04326 0.11782 0.0
H578 H 0.32571 0.09748 0.16139 0.0
H579 H 0.37265 0.14271 0.03661 0.0
H580 H 0.43503 0.10324 0.986 0.0
H581 H 0.39635 0.01007 0.19883 0.0
H582 H 0.49306 0.10502 0.23107 0.0
C583 C 0.85804 0.28366 0.15515 0.0
C584 C 0.82151 0.26813 0.16247 0.0
C585 C 0.80959 0.28842 0.14644 0.0
C586 C 0.83915 0.31487 0.13002 0.0
N587 N 0.86928 0.31296 0.13469 0.0
Co588 Co 0.91654 0.34456 0.11198 0.0
N589 N 0.9023 0.38093 0.09927 0.0
C590 C 0.86846 0.37534 0.09973 0.0
C591 C 0.86564 0.40402 0.08846 0.0
C592 C 0.89979 0.42948 0.07982 0.0
C593 C 0.92176 0.41486 0.08644 0.0
N594 N 0.96321 0.37622 0.08824 0.0
C595 C 0.97744 0.41035 0.0755 0.0
C596 C 0.00984 0.42074 0.05914 0.0
C597 C 0.0156 0.39203 0.06097 0.0
C598 C 0.98659 0.36568 0.07842 0.0
N599 N 0.93013 0.3079 0.12519 0.0
C600 C 0.95772 0.30557 0.1117 0.0
C601 C 0.96061 0.27745 0.12498 0.0
C602 C 0.93281 0.26074 0.14794 0.0
C603 C 0.91422 0.27946 0.14735 0.0
N604 N 0.89755 0.31878 0.06815 0.0
C605 C 0.90185 0.28554 1.00761 0.0
C606 C 0.88616 0.2653 0.03732 0.0
C607 C 0.88344 0.28224 0.06695 0.0
C608 C 0.91046 0.32173 1.00783 0.0
C609 C 0.90764 0.33764 0.03808 0.0
N610 N 0.93806 0.36985 0.15545 0.0
C611 C 0.98879 0.39088 0.19386 0.0
C612 C 0.97121 0.39924 0.21895 0.0
C613 C 0.9367 0.3938 0.21117 0.0
C614 C 0.9205 0.37893 0.17916 0.0
C615 C 0.97207 0.37649 0.16284 0.0
H616 H 0.89368 0.37403 0.17389 0.0
H617 H 0.9868 0.36971 0.14529 0.0
H618 H 0.87341 0.26623 0.08981 0.0
H619 H 0.91716 0.36609 0.03771 0.0
C620 C 0.84036 0.34391 0.11318 0.0
C621 C 0.8799 0.26771 0.16575 0.0
C622 C 0.95968 0.43243 0.07588 0.0
C623 C 0.98219 0.33247 0.08945 0.0
H624 H 0.80474 0.24412 0.1772 0.0
H625 H 0.78267 0.2846 0.14704 0.0
H626 H 0.8416 0.40617 0.08672 0.0
H627 H 0.90718 0.45534 0.06866 0.0
H628 H 0.02717 0.44617 0.04664 0.0
H629 H 0.03851 0.39078 0.05117 0.0
H630 H 0.98084 0.27025 0.11913 0.0
H631 H 0.92658 0.23711 0.16293 0.0
H632 H 0.87863 0.23721 0.03874 0.0
H633 H 0.92141 0.33834 0.98527 0.0
H634 H 0.01544 0.39479 0.19845 0.0
H635 H 0.92202 0.39987 0.22993 0.0
C636 C 0.32667 0.38175 1.0186 0.0
C637 C 0.32443 0.40976 0.0336 0.0
C638 C 0.33124 0.43464 1.00841 0.0
C639 C 0.33749 0.42075 0.97935 0.0
N640 N 0.3349 0.38854 0.98432 0.0
Co641 Co 0.34597 0.36193 0.9483 0.0
N642 N 0.35787 0.39913 0.9114 0.0
C643 C 0.35573 0.4291 0.91546 0.0
C644 C 0.36145 0.44831 0.88576 0.0
C645 C 0.36743 0.42926 0.86112 0.0
C646 C 0.36542 0.39944 0.87707 0.0
N647 N 0.35934 0.33595 0.91341 0.0
C648 C 0.37114 0.34387 0.88021 0.0
C649 C 0.37916 0.31865 0.86721 0.0
C650 C 0.37128 0.29362 0.89225 0.0
C651 C 0.35929 0.305 0.91927 0.0
N652 N 0.33183 0.3231 0.98412 0.0
C653 C 0.33181 0.29203 0.97938 0.0
C654 C 0.31981 0.26935 1.00703 0.0
C655 C 0.31204 0.28718 1.03132 0.0
C656 C 0.32003 0.32004 1.01724 0.0
N657 N 0.29486 0.33803 0.93135 0.0
C658 C 0.22883 0.32524 0.90125 0.0
C659 C 0.2546 0.32158 0.8825 0.0
C660 C 0.28688 0.32788 0.8978 0.0
C661 C 0.23528 0.33153 0.93645 0.0
C662 C 0.26795 0.33728 0.95095 0.0
N663 N 0.39709 0.38826 0.96515 0.0
C664 C 0.43796 0.41249 1.0135 0.0
C665 C 0.46513 0.43937 0.99343 0.0
C666 C 0.45828 0.43825 0.95817 0.0
C667 C 0.4246 0.41235 0.94461 0.0
C668 C 0.4048 0.38744 0.99907 0.0
H669 H 0.4208 0.41296 0.91752 0.0
H670 H 0.38539 0.3684 1.01628 0.0
H671 H 0.30545 0.32552 0.88148 0.0
H672 H 0.27149 0.34232 0.97794 0.0
C673 C 0.3467 0.43728 0.94721 0.0
C674 C 0.31993 0.34886 0.0378 0.0
C675 C 0.37144 0.37243 0.85866 0.0
C676 C 0.34556 0.28611 0.94956 0.0
H677 H 0.31849 0.41196 0.06002 0.0
H678 H 0.33194 0.46008 1.01109 0.0
H679 H 0.36064 0.47292 0.88225 0.0
H680 H 0.3724 0.43641 0.83439 0.0
H681 H 0.38856 0.31775 0.84182 0.0
H682 H 0.37312 0.26941 0.89061 0.0
H683 H 0.31799 0.24337 1.00959 0.0
H684 H 0.30282 0.27765 0.05698 0.0
H685 H 0.25023 0.31427 0.85576 0.0
H686 H 0.21579 0.33327 0.95266 0.0
H687 H 0.44201 0.41098 0.04063 0.0
H688 H 0.47821 0.45803 0.94112 0.0
C689 C 0.62387 0.98066 0.88211 0.0
C690 C 0.58902 0.96139 0.86944 0.0
C691 C 0.5673 0.94141 0.89594 0.0
C692 C 0.58965 0.94967 0.92366 0.0
N693 N 0.62423 0.97359 0.91649 0.0
Co694 Co 0.66346 0.99472 0.95198 0.0
N695 N 0.63383 0.95997 0.98924 0.0
C696 C 0.59794 0.93798 0.98716 0.0
C697 C 0.58279 0.92004 1.01707 0.0
C698 C 0.61063 0.93198 0.03997 0.0
C699 C 0.64145 0.95668 1.02285 0.0
N700 N 0.70372 0.01561 0.98682 0.0
C701 C 0.70631 0.00582 1.01966 0.0
C702 C 0.73994 0.02874 0.03353 0.0
C703 C 0.7588 0.05427 1.00941 0.0
C704 C 0.73586 0.04551 0.98215 0.0
N705 N 0.69327 0.03047 0.91538 0.0
C706 C 0.72698 0.05832 0.92001 0.0
C707 C 0.74481 0.07347 0.89022 0.0
C708 C 0.72106 0.05449 0.86496 0.0
C709 C 0.68901 0.02983 0.88057 0.0
N710 N 0.64448 0.0263 0.96848 0.0
C711 C 0.59361 0.0419 0.99882 0.0
C712 C 0.62091 0.0414 1.01812 0.0
C713 C 0.64589 0.03391 1.00261 0.0
C714 C 0.59586 0.03967 0.96314 0.0
C715 C 0.62189 0.0327 0.94853 0.0
N716 N 0.67962 0.96104 0.93557 0.0
C717 C 0.7223 0.94923 0.90586 0.0
C718 C 0.69683 0.91246 0.90293 0.0
C719 C 0.66313 0.90042 0.91788 0.0
C720 C 0.65504 0.92493 0.93364 0.0
C721 C 0.71344 0.97282 0.92272 0.0
H722 H 0.62821 0.9144 0.94319 0.0
H723 H 0.73388 1.00066 0.92448 0.0
H724 H 0.6647 0.03212 1.01911 0.0
H725 H 0.62195 0.03028 0.92119 0.0
C726 C 0.57958 0.93515 0.9566 0.0
C727 C 0.65505 0.00763 0.86126 0.0
C728 C 0.67646 0.97874 0.04065 0.0
C729 C 0.7442 0.06383 0.95131 0.0
H730 H 0.57979 0.96242 0.84398 0.0
H731 H 0.5385 0.9233 0.89514 0.0
H732 H 0.55467 0.90114 1.02192 0.0
H733 H 0.60835 0.92444 0.06663 0.0
H734 H 0.74936 0.0279 0.05899 0.0
H735 H 0.78596 0.07678 1.01158 0.0
H736 H 0.77282 0.09385 0.88716 0.0
H737 H 0.72729 0.05802 0.83802 0.0
H738 H 0.62249 0.04573 0.04544 0.0
H739 H 0.57663 0.0416 0.94661 0.0
H740 H 0.74891 0.95977 0.89503 0.0
H741 H 0.64254 0.87232 0.91628 0.0
C742 C 0.0549 0.66353 0.87671 0.0
C743 C 0.08446 0.66683 0.8592 0.0
C744 C 0.11232 0.67905 0.88215 0.0
C745 C 0.0986 0.68291 0.91246 0.0
N746 N 0.0635 0.6731 0.91049 0.0
Co747 Co 0.03691 0.68148 0.94846 0.0
N748 N 0.07529 0.69375 0.98391 0.0
C749 C 0.10791 0.69805 0.97719 0.0
C750 C 0.12824 0.70363 1.0061 0.0
C751 C 0.10717 0.70291 0.03284 0.0
C752 C 0.07506 0.69737 1.01891 0.0
N753 N 0.01093 0.69226 0.98525 0.0
C754 C 0.01718 0.69877 1.01952 0.0
C755 C 0.99239 0.70654 0.03412 0.0
C756 C 0.96932 0.70388 1.00877 0.0
C757 C 0.9814 0.6951 0.98003 0.0
N758 N 0.99681 0.66699 0.91412 0.0
C759 C 0.96681 0.66888 0.91952 0.0
C760 C 0.94292 0.65639 0.89285 0.0
C761 C 0.95896 0.64658 0.8684 0.0
C762 C 0.99219 0.65419 0.88129 0.0
N763 N 0.01543 0.63047 0.96452 0.0
C764 C 0.99613 0.56492 0.99936 0.0
C765 C 0.97519 0.58167 1.0022 0.0
C766 C 0.98488 0.61392 0.98419 0.0
C767 C 0.02556 0.58069 0.97726 0.0
C768 C 0.03484 0.61315 0.96061 0.0
N769 N 0.06133 0.73285 0.9326 0.0
C770 C 0.08484 0.77365 0.88416 0.0
C771 C 0.11402 0.79957 0.90325 0.0
C772 C 0.11343 0.79286 0.93853 0.0
C773 C 0.08662 0.75993 0.95269 0.0
C774 C 0.05929 0.74088 0.89902 0.0
H775 H 0.08778 0.75599 0.97973 0.0
H776 H 0.0391 0.72169 0.88231 0.0
H777 H 0.96812 0.62582 0.98725 0.0
H778 H 0.05907 0.62462 0.94592 0.0
C779 C 0.11703 0.69383 0.94377 0.0
C780 C 0.02019 0.65394 0.85943 0.0
C781 C 0.04594 0.69789 0.03952 0.0
C782 C 0.96234 0.68337 0.94957 0.0
H783 H 0.08604 0.66185 0.83237 0.0
H784 H 0.13949 0.68478 0.87718 0.0
H785 H 0.15495 0.70701 1.0077 0.0
H786 H 0.11469 0.7062 0.05951 0.0
H787 H 0.9907 0.71291 0.06051 0.0
H788 H 0.94557 0.70641 1.01135 0.0
H789 H 0.91723 0.65534 0.89107 0.0
H790 H 0.9481 0.63657 0.84327 0.0
H791 H 0.95161 0.57009 1.01843 0.0
H792 H 0.04254 0.56888 0.97402 0.0
H793 H 0.08186 0.77811 0.85744 0.0
H794 H 0.1343 0.81228 0.9551 0.0
C795 C 0.27775 0.85761 0.42211 0.0
C796 C 0.26056 0.82037 0.41913 0.0
C797 C 0.28466 0.81031 0.42925 0.0
C798 C 0.31489 0.84171 0.43821 0.0
N799 N 0.31151 0.87115 0.43505 0.0
Co800 Co 0.34902 0.92155 0.44713 0.0
N801 N 0.37964 0.90484 0.47032 0.0
C802 C 0.37622 0.87203 0.46688 0.0
C803 C 0.40229 0.86827 0.48338 0.0
C804 C 0.42382 0.90076 0.49831 0.0
C805 C 0.40932 0.92256 0.49038 0.0
N806 N 0.38664 0.97156 0.46009 0.0
C807 C 0.41488 0.9835 0.4824 0.0
C808 C 0.43417 0.0208 0.48308 0.0
C809 C 0.4181 0.0325 0.45996 0.0
C810 C 0.38974 1.00185 0.44656 0.0
N811 N 0.31849 0.93781 0.42282 0.0
C812 C 0.32996 0.97195 0.41292 0.0
C813 C 0.30498 0.97533 0.39371 0.0
C814 C 0.27617 0.9411 0.39073 0.0
C815 C 0.28512 0.91859 0.40833 0.0
N816 N 0.32365 0.9184 0.49033 0.0
C817 C 0.28775 0.91884 0.5508 0.0
C818 C 0.30063 0.94717 0.5274 0.0
C819 C 0.31805 0.94637 0.49779 0.0
C820 C 0.29408 0.89027 0.54364 0.0
C821 C 0.31193 0.89046 0.5131 0.0
N822 N 0.37457 0.92738 0.40333 0.0
C823 C 0.42647 0.97057 0.37108 0.0
C824 C 0.40484 0.96508 0.34227 0.0
C825 C 0.36945 0.93604 0.34313 0.0
C826 C 0.35508 0.91716 0.37365 0.0
C827 C 0.41092 0.95084 0.40119 0.0
H828 H 0.327 0.89711 0.3738 0.0
H829 H 0.42762 0.95752 0.42365 0.0
H830 H 0.32719 0.96902 0.48103 0.0
H831 H 0.31626 0.8682 0.50794 0.0
C832 C 0.3459 0.8441 0.45175 0.0
C833 C 0.26283 0.87893 0.40759 0.0
C834 C 0.42596 0.9604 0.50089 0.0
C835 C 0.36333 1.00018 0.42413 0.0
H836 H 0.2338 0.8024 0.40944 0.0
H837 H 0.28058 0.78331 0.43007 0.0
H838 H 0.4049 0.84449 0.485 0.0
H839 H 0.44772 0.90751 0.51302 0.0
H840 H 0.45775 0.0378 0.49824 0.0
H841 H 0.42584 0.0601 0.4541 0.0
H842 H 0.30744 0.99975 0.38301 0.0
H843 H 0.25178 0.93337 0.37638 0.0
H844 H 0.29772 0.97046 0.53209 0.0
H845 H 0.28501 0.86787 0.56121 0.0
H846 H 0.45437 0.99181 0.37128 0.0
H847 H 0.35215 0.92952 0.32097 0.0
C848 C 0.1715 0.43104 0.42262 0.0
C849 C 0.20881 0.45144 0.42059 0.0
C850 C 0.21818 0.48557 0.42998 0.0
C851 C 0.18636 0.484 0.43783 0.0
N852 N 0.15726 0.45093 0.43469 0.0
Co853 Co 0.10655 0.43719 0.44665 0.0
N854 N 0.12236 0.48468 0.46896 0.0
C855 C 0.15499 0.51436 0.46553 0.0
C856 C 0.15823 0.54397 0.48187 0.0
C857 C 0.12558 0.53255 0.49668 0.0
C858 C 0.10421 0.49624 0.48878 0.0
N859 N 0.05624 0.42404 0.45926 0.0
C860 C 0.04374 0.44032 0.48086 0.0
C861 C 1.00642 0.42193 0.48121 0.0
C862 C 0.99527 0.39381 0.45871 0.0
C863 C 0.02626 0.39635 0.44593 0.0
N864 N 0.0913 0.39015 0.42347 0.0
C865 C 0.05725 0.36665 0.41397 0.0
C866 C 0.05445 0.3381 0.3957 0.0
C867 C 0.08896 0.34424 0.3929 0.0
C868 C 0.1111 0.37629 0.4097 0.0
N869 N 0.1102 0.41605 0.49048 0.0
C870 C 0.10893 0.38306 0.55381 0.0
C871 C 0.08085 0.36643 0.53021 0.0
C872 C 0.08216 0.3829 0.49914 0.0
C873 C 0.1384 0.41685 0.54446 0.0
C874 C 0.13838 0.43296 0.51281 0.0
N875 N 0.1001 0.45593 0.40238 0.0
C876 C 0.0575 0.46583 0.37026 0.0
C877 C 0.06251 0.4497 0.34125 0.0
C878 C 0.09072 0.44201 0.34227 0.0
C879 C 0.10953 0.4459 0.37277 0.0
C880 C 0.07717 0.46946 0.40028 0.0
H881 H 0.12909 0.4372 0.37298 0.0
H882 H 0.07088 0.47974 0.42271 0.0
H883 H 0.05962 0.3686 0.48244 0.0
H884 H 0.16094 0.45903 0.50653 0.0
C885 C 0.18331 0.51236 0.45087 0.0
C886 C 0.1509 0.39458 0.40848 0.0
C887 C 0.06631 0.4747 0.49901 0.0
C888 C 0.02859 0.37142 0.42446 0.0
H889 H 0.22736 0.44287 0.41222 0.0
H890 H 0.24505 0.50868 0.4313 0.0
H891 H 0.18182 0.57048 0.48357 0.0
H892 H 0.11843 0.54936 0.51137 0.0
H893 H 0.98907 0.42849 0.49577 0.0
H894 H 0.96781 0.37357 0.45287 0.0
H895 H 0.03024 0.31556 0.38545 0.0
H896 H 0.09708 0.32766 0.37908 0.0
H897 H 0.05712 0.34086 0.53588 0.0
H898 H 0.16137 0.43078 0.56121 0.0
H899 H 0.03664 0.473 0.37079 0.0
H900 H 0.0968 0.43091 0.32015 0.0
C901 C 0.52771 0.61728 0.48536 0.0
C902 C 0.49135 0.60319 0.49258 0.0
C903 C 0.48106 0.62515 0.47723 0.0
C904 C 0.51138 0.65115 0.46133 0.0
N905 N 0.54045 0.64732 0.46564 0.0
Co906 Co 0.58857 0.67823 0.44411 0.0
N907 N 0.57686 0.71674 0.43255 0.0
C908 C 0.54374 0.71296 0.4334 0.0
C909 C 0.54276 0.74299 0.42329 0.0
C910 C 0.57739 0.76743 0.41496 0.0
C911 C 0.59778 0.75087 0.42054 0.0
N912 N 0.63617 0.70906 0.42154 0.0
C913 C 0.65167 0.74335 0.40894 0.0
C914 C 0.68392 0.75267 0.39277 0.0
C915 C 0.6883 0.72314 0.39451 0.0
C916 C 0.6587 0.69741 0.41175 0.0
N917 N 0.5997 0.63953 0.45639 0.0
C918 C 0.62683 0.63625 0.44312 0.0
C919 C 0.62803 0.60695 0.45571 0.0
C920 C 0.59962 0.59049 0.47803 0.0
C921 C 0.58238 0.61053 0.47776 0.0
N922 N 0.56999 0.65467 0.39929 0.0
C923 C 0.577 0.62628 0.3369 0.0
C924 C 0.5606 0.60377 0.36518 0.0
C925 C 0.55657 0.61837 0.3959 0.0
C926 C 0.58384 0.66179 0.33908 0.0
C927 C 0.57996 0.67535 0.3703 0.0
N928 N 0.60959 0.70163 0.48832 0.0
C929 C 0.65976 0.72181 0.52726 0.0
C930 C 0.64362 0.73361 0.5509 0.0
C931 C 0.60946 0.72881 0.54249 0.0
C932 C 0.59292 0.7128 0.51098 0.0
C933 C 0.64263 0.70622 0.49666 0.0
H934 H 0.56684 0.70945 0.50496 0.0
H935 H 0.65649 0.6976 0.47987 0.0
H936 H 0.54606 0.60083 0.41778 0.0
H937 H 0.58874 0.70357 0.37145 0.0
C938 C 0.51451 0.6817 0.44584 0.0
C939 C 0.54805 0.59963 0.49574 0.0
C940 C 0.63537 0.76671 0.40923 0.0
C941 C 0.65253 0.66332 0.42187 0.0
H942 H 0.47376 0.57921 0.50701 0.0
H943 H 0.45476 0.62285 0.47815 0.0
H944 H 0.51958 0.74665 0.42198 0.0
H945 H 0.58612 0.79389 0.40455 0.0
H946 H 0.70199 0.77792 0.38033 0.0
H947 H 0.71058 0.72083 0.38457 0.0
H948 H 0.6476 0.59885 0.44987 0.0
H949 H 0.59211 0.56618 0.49242 0.0
H950 H 0.55346 0.57575 0.3645 0.0
H951 H 0.59446 0.67979 0.31738 0.0
H952 H 0.68562 0.72409 0.53253 0.0
H953 H 0.59585 0.73767 0.55982 0.0
C954 C 0.01251 0.67784 0.13419 0.0
C955 C 0.03848 0.70736 0.15354 0.0
C956 C 0.01594 0.67458 0.09832 0.0
C957 C 0.04562 0.70057 0.07909 0.0
H958 H 0.9891 0.6567 0.14704 0.0
H959 H 0.99469 0.65142 0.08533 0.0
S960 S 0.12189 0.78321 0.11656 0.0
N961 N 0.09608 0.76267 0.14989 0.0
N962 N 0.10135 0.75772 0.08309 0.0
C963 C 0.0718 0.73031 0.09804 0.0
C964 C 0.06854 0.73339 0.13477 0.0
C965 C 0.34302 0.34324 0.09725 0.0
C966 C 0.31655 0.34533 0.07725 0.0
C967 C 0.33971 0.33769 0.13333 0.0
C968 C 0.30949 0.33346 0.15192 0.0
H969 H 0.36673 0.34586 0.08479 0.0
H970 H 0.36124 0.33675 0.14692 0.0
S971 S 0.23177 0.33575 0.11247 0.0
N972 N 0.25839 0.34185 0.07963 0.0
N973 N 0.25236 0.33179 0.14655 0.0
C974 C 0.28271 0.33525 0.13224 0.0
C975 C 0.28617 0.34107 0.09545 0.0
C976 C 0.69124 0.95704 0.13471 0.0
C977 C 0.69333 0.98581 0.15423 0.0
C978 C 0.6849 0.95422 0.09864 0.0
C979 C 0.68023 0.97996 0.07999 0.0
H980 H 0.69417 0.93625 0.1475 0.0
H981 H 0.68398 0.93178 0.08517 0.0
S982 S 0.68333 0.06063 0.11826 0.0
N983 N 0.69008 0.04057 0.15113 0.0
N984 N 0.67861 0.03544 0.08471 0.0
C985 C 0.68239 0.00877 0.09926 0.0
C986 C 0.68875 0.01161 0.13576 0.0
C987 C 0.69881 0.05952 0.46388 0.0
C988 C 0.71705 0.04968 0.48798 0.0
C989 C 0.70304 0.05803 0.42798 0.0
C990 C 0.72122 0.0414 0.41301 0.0
H991 H 0.68008 0.06773 0.47243 0.0
H992 H 0.69027 0.06886 0.4118 0.0
S993 S 0.77733 0.01412 0.46363 0.0
N994 N 0.76158 0.03051 0.49263 0.0
N995 N 0.75955 0.01636 0.42693 0.0
C996 C 0.74008 0.03181 0.43674 0.0
C997 C 0.74001 0.03827 0.47325 0.0
C998 C 0.00823 0.67222 0.46739 0.0
C999 C 0.97891 0.66949 0.48646 0.0
C1000 C 0.01112 0.67759 0.4313 0.0
C1001 C 0.985 0.68081 0.41178 0.0
H1002 H 0.02939 0.67025 0.4806 0.0
H1003 H 0.03421 0.67919 0.41846 0.0
S1004 S 0.90281 0.67586 0.44848 0.0
N1005 N 0.92317 0.67078 0.48215 0.0
N1006 N 0.92842 0.68052 0.41518 0.0
C1007 C 0.95559 0.67819 0.43049 0.0
C1008 C 0.95258 0.6726 0.46729 0.0
C1009 C 0.34026 0.33962 0.46705 0.0
C1010 C 0.34764 0.31569 0.48577 0.0
C1011 C 0.33335 0.33618 0.43121 0.0
C1012 C 0.33337 0.30861 0.41139 0.0
H1013 H 0.33987 0.36152 0.48033 0.0
H1014 H 0.32837 0.35581 0.41869 0.0
S1015 S 0.35246 0.23931 0.44677 0.0
N1016 N 0.3546 0.26316 0.48065 0.0
N1017 N 0.34325 0.25767 0.41396 0.0
C1018 C 0.34114 0.28471 0.42964 0.0
C1019 C 0.34788 0.28804 0.4663 0.0
C1020 C 0.95974 0.27855 0.93702 0.0
C1021 C 0.93853 0.24355 0.92373 0.0
C1022 C 0.94735 0.29169 0.96347 0.0
C1023 C 0.91299 0.27063 0.97817 0.0
H1024 H 0.98622 0.29635 0.9266 0.0
H1025 H 0.96529 0.3186 0.97284 0.0
S1026 S 0.84626 0.17708 0.95278 0.0
N1027 N 0.88114 0.18786 0.92771 0.0
N1028 N 0.85756 0.21278 0.97678 0.0
C1029 C 0.8913 0.23556 0.96511 0.0
C1030 C 0.90401 0.22209 0.93805 0.0
C1031 C 0.78098 0.66428 0.96179 0.0
C1032 C 0.74649 0.65095 0.97626 0.0
C1033 C 0.79266 0.68843 0.93385 0.0
C1034 C 0.77061 0.70083 0.9195 0.0
H1035 H 0.79901 0.65572 0.97194 0.0
H1036 H 0.81935 0.69778 0.92367 0.0
S1037 S 0.67807 0.67456 0.94803 0.0
N1038 N 0.69079 0.65281 0.97423 0.0
N1039 N 0.71218 0.69706 0.92173 0.0
C1040 C 0.73611 0.68768 0.93378 0.0
C1041 C 0.72423 0.66311 0.96205 0.0
C1042 C 0.36227 0.12789 0.96085 0.0
C1043 C 0.37273 0.10593 0.97869 0.0
C1044 C 0.33888 0.11473 0.9323 0.0
C1045 C 0.32473 0.07901 0.92093 0.0
H1046 H 0.37331 0.15576 0.96819 0.0
H1047 H 0.33316 0.13302 0.91816 0.0
S1048 S 0.33963 0.00931 0.96153 0.0
N1049 N 0.36394 0.04569 0.98472 0.0
N1050 N 0.3205 0.0213 0.93161 0.0
C1051 C 0.33347 0.05644 0.93974 0.0
C1052 C 0.35726 0.06977 0.96843 0.0
C1053 C 0.26818 0.92613 0.64501 0.0
C1054 C 0.24392 0.93929 0.64325 0.0
C1055 C 0.28063 0.91724 0.61523 0.0
C1056 C 0.26912 0.92096 0.5825 0.0
H1057 H 0.27907 0.92446 0.66949 0.0
H1058 H 0.30084 0.9093 0.61777 0.0
S1059 S 0.20114 0.94844 0.56445 0.0
N1060 N 0.20599 0.95175 0.60635 0.0
N1061 N 0.22834 0.93431 0.55079 0.0
C1062 C 0.24291 0.93165 0.58075 0.0
C1063 C 0.23065 0.94105 0.61092 0.0
C1064 C 0.0787 0.30843 0.62144 0.0
C1065 C 0.0858 0.32698 0.65263 0.0
C1066 C 0.0885 0.3269 0.58996 0.0
C1067 C 0.1055 0.36489 0.5879 0.0
H1068 H 0.0638 0.2793 0.62114 0.0
H1069 H 0.08142 0.31098 0.56685 0.0
S1070 S 0.13546 0.42656 0.66241 0.0
N1071 N 0.11605 0.38597 0.67956 0.0
N1072 N 0.13212 0.42031 0.6207 0.0
C1073 C 0.11498 0.38383 0.61902 0.0
C1074 C 0.10562 0.36503 0.65115 0.0
C1075 C 0.7008 0.77439 0.58306 0.0
C1076 C 0.66329 0.75013 0.58374 0.0
C1077 C 0.72156 0.7856 0.61311 0.0
C1078 C 0.70582 0.77363 0.64545 0.0
H1079 H 0.71455 0.78399 0.55886 0.0
H1080 H 0.75038 0.8033 0.61095 0.0
S1081 S 0.60877 0.7111 0.66207 0.0
N1082 N 0.61131 0.71528 0.62007 0.0
N1083 N 0.65012 0.737 0.6765 0.0
C1084 C 0.66816 0.75074 0.64677 0.0
C1085 C 0.64698 0.73895 0.61603 0.0
C1086 C 0.34976 0.3411 0.80005 0.0
C1087 C 0.37482 0.37136 0.81921 0.0
C1088 C 0.3529 0.33828 0.76406 0.0
C1089 C 0.38145 0.36541 0.74459 0.0
H1090 H 0.32718 0.31917 0.8131 0.0
H1091 H 0.33229 0.31457 0.75117 0.0
S1092 S 0.45473 0.45055 0.78141 0.0
N1093 N 0.43 0.42897 0.81501 0.0
N1094 N 0.43503 0.42437 0.74811 0.0
C1095 C 0.40672 0.39586 0.76335 0.0
C1096 C 0.40364 0.39864 0.80013 0.0
C1097 C 0.63638 0.98997 0.76297 0.0
C1098 C 0.65704 0.02416 0.74696 0.0
C1099 C 0.63589 0.98484 0.799 0.0
C1100 C 0.65253 0.01386 0.8222 0.0
H1101 H 0.62125 0.96625 0.74741 0.0
H1102 H 0.62264 0.95752 0.80859 0.0
S1103 S 0.69976 0.11023 0.79531 0.0
N1104 N 0.69142 0.0882 0.75888 0.0
N1105 N 0.68183 0.07923 0.82543 0.0
C1106 C 0.66839 0.04857 0.80673 0.0
C1107 C 0.67245 0.05359 0.76988 0.0
C1108 C 0.00868 0.67485 0.80104 0.0
C1109 C 0.0151 0.65044 0.82005 0.0
C1110 C 1.00209 0.67143 0.76514 0.0
C1111 C 1.00127 0.64325 0.74566 0.0
H1112 H 0.0088 0.69711 0.81413 0.0
H1113 H 0.99794 0.69147 0.75233 0.0
S1114 S 0.01757 0.57245 0.78194 0.0
N1115 N 0.0204 0.59691 0.81558 0.0
N1116 N 0.00917 0.59113 0.74886 0.0
C1117 C 0.008 0.61883 0.76422 0.0
C1118 C 0.01461 0.62226 0.8009 0.0
C1119 C 0.56799 0.58042 0.29114 0.0
C1120 C 0.58992 0.6141 0.30676 0.0
C1121 C 0.58034 0.56888 0.26308 0.0
C1122 C 0.61538 0.59024 0.24975 0.0
H1123 H 0.54092 0.56297 0.30043 0.0
H1124 H 0.56238 0.54283 0.25198 0.0
S1125 S 0.68383 0.6804 0.28183 0.0
N1126 N 0.64891 0.66812 0.30718 0.0
N1127 N 0.6715 0.64715 0.25438 0.0
C1128 C 0.63753 0.62389 0.26529 0.0
C1129 C 0.625 0.6356 0.29371 0.0
C1130 C 0.45968 0.02369 0.26605 0.0
C1131 C 0.43816 0.03771 0.254 0.0
C1132 C 0.44957 1.00103 0.29517 0.0
C1133 C 0.41734 0.9912 0.31293 0.0
H1134 H 0.48359 0.02899 0.25207 0.0
H1135 H 0.46635 0.99003 0.30301 0.0
S1136 S 0.35405 0.02435 0.29402 0.0
N1137 N 0.38494 0.04254 0.26388 0.0
N1138 N 0.36612 1.0005 0.31808 0.0
C1139 C 0.3967 0.00657 0.30196 0.0
C1140 C 0.40703 0.0296 0.27266 0.0
C1141 C 0.02365 0.40231 0.29854 0.0
C1142 C 0.03664 0.43725 0.31158 0.0
C1143 C 1.00069 0.38972 0.27005 0.0
C1144 C 0.98931 0.41129 0.25306 0.0
H1145 H 0.03162 0.38446 0.31029 0.0
H1146 H 0.99257 0.36304 0.26052 0.0
S1147 S 0.01425 0.50445 0.27706 0.0
N1148 N 0.03521 0.49297 0.30556 0.0
N1149 N 0.99205 0.46915 0.25192 0.0
C1150 C 1.00088 0.44581 0.2664 0.0
C1151 C 0.02445 0.45878 0.29562 0.0
C1152 C 0.23232 0.84592 0.35315 0.0
C1153 C 0.22989 0.85955 0.38518 0.0
C1154 C 0.20131 0.82048 0.33525 0.0
C1155 C 0.16641 0.80728 0.34869 0.0
H1156 H 0.25856 0.85357 0.34272 0.0
H1157 H 0.20488 0.80981 0.31148 0.0
S1158 S 0.1454 0.83781 0.42986 0.0
N1159 N 0.18983 0.86001 0.4283 0.0
N1160 N 0.13172 0.81335 0.39472 0.0
C1161 C 0.16375 0.82243 0.37985 0.0
C1162 C 0.19533 0.8482 0.39801 0.0
C1163 C 0.21335 0.39263 0.33917 0.0
C1164 C 0.21859 0.36405 0.34929 0.0
C1165 C 0.18965 0.4007 0.35704 0.0
C1166 C 0.1707 0.38112 0.38636 0.0
H1167 H 0.2276 0.40883 0.31718 0.0
H1168 H 0.18705 0.42334 0.34855 0.0
S1169 S 0.17478 0.30375 0.42354 0.0
N1170 N 0.20196 0.31559 0.39023 0.0
N1171 N 0.15879 0.33168 0.42427 0.0
C1172 C 0.1753 0.35221 0.3964 0.0
C1173 C 0.19891 0.34356 0.37788 0.0
C1174 C 0.66277 0.83471 0.3354 0.0
C1175 C 0.66894 0.86651 0.35182 0.0
C1176 C 0.65402 0.8031 0.35413 0.0
C1177 C 0.65182 0.80218 0.39011 0.0
H1178 H 0.66369 0.83397 0.3078 0.0
H1179 H 0.64763 0.77881 0.34027 0.0
S1180 S 0.66791 0.87893 0.44538 0.0
N1181 N 0.67364 0.89538 0.40624 0.0
N1182 N 0.65811 0.83666 0.44125 0.0
C1183 C 0.65936 0.83428 0.40676 0.0
C1184 C 0.66764 0.86618 0.38771 0.0
C1185 C 0.82397 0.16837 0.19095 0.0
C1186 C 0.8093 0.16932 0.22309 0.0
C1187 C 0.84911 0.2 0.17367 0.0
C1188 C 0.86175 0.23431 0.18796 0.0
H1189 H 0.8153 0.14288 0.1784 0.0
H1190 H 0.85729 0.1976 0.14813 0.0
S1191 S 0.83436 0.25307 0.27165 0.0
N1192 N 0.81077 0.20881 0.26839 0.0
N1193 N 0.85924 0.26744 0.23682 0.0
C1194 C 0.84919 0.23575 0.2208 0.0
C1195 C 0.82284 0.20365 0.2381 0.0
C1196 C 0.80627 0.63939 0.20762 0.0
C1197 C 0.80325 0.63087 0.17262 0.0
C1198 C 0.83773 0.64776 0.22635 0.0
C1199 C 0.86733 0.64729 0.2111 0.0
H1200 H 0.7837 0.6385 0.22086 0.0
H1201 H 0.83854 0.65381 0.25327 0.0
S1202 S 0.87395 0.62918 0.11957 0.0
N1203 N 0.83349 0.62459 0.12306 0.0
N1204 N 0.89199 0.6396 0.15811 0.0
C1205 C 0.86488 0.63964 0.17592 0.0
C1206 C 0.83314 0.63172 0.15678 0.0
C1207 C 0.35845 0.19994 0.18939 0.0
C1208 C 0.373 0.21366 0.22209 0.0
C1209 C 0.36553 0.17531 0.17207 0.0
C1210 C 0.38684 0.16239 0.18681 0.0
H1211 H 0.34209 0.20903 0.17647 0.0
H1212 H 0.35575 0.16778 0.14618 0.0
S1213 S 0.43011 0.18733 0.27209 0.0
N1214 N 0.40941 0.21089 0.26852 0.0
N1215 N 0.42095 0.16356 0.23665 0.0
C1216 C 0.39978 0.17402 0.22015 0.0
C1217 C 0.3933 0.19974 0.23758 0.0
C1218 C 0.83518 0.12803 0.7171 0.0
C1219 C 0.8308 0.13472 0.68266 0.0
C1220 C 0.86619 0.15193 0.73589 0.0
C1221 C 0.8945 0.18337 0.721 0.0
H1222 H 0.81434 0.10423 0.72972 0.0
H1223 H 0.86864 0.14514 0.76204 0.0
S1224 S 0.89688 0.2134 0.63182 0.0
N1225 N 0.85775 0.17572 0.63471 0.0
N1226 N 0.91599 0.21973 0.66977 0.0
C1227 C 0.89032 0.19059 0.68684 0.0
C1228 C 0.85862 0.16654 0.66777 0.0
C1229 C 0.89714 0.71237 0.71839 0.0
C1230 C 0.89206 0.70488 0.68313 0.0
C1231 C 0.87418 0.72069 0.73725 0.0
C1232 C 0.84542 0.72253 0.72167 0.0
H1233 H 0.919 0.71166 0.73157 0.0
H1234 H 0.87973 0.727 0.76412 0.0
S1235 S 0.82057 0.70578 0.63013 0.0
N1236 N 0.85544 0.69949 0.63361 0.0
N1237 N 0.81341 0.71625 0.66876 0.0
C1238 C 0.8398 0.71472 0.6866 0.0
C1239 C 0.8628 0.70572 0.66746 0.0
C1240 C 0.3121 0.13626 0.68841 0.0
C1241 C 0.3091 0.13504 0.7243 0.0
C1242 C 0.31926 0.16737 0.66963 0.0
C1243 C 0.32276 0.19835 0.68578 0.0
H1244 H 0.30769 0.11256 0.67461 0.0
H1245 H 0.3211 0.16681 0.64209 0.0
S1246 S 0.31903 0.20978 0.77929 0.0
N1247 N 0.31199 0.16843 0.77526 0.0
N1248 N 0.32442 0.22616 0.74015 0.0
C1249 C 0.32051 0.19768 0.72167 0.0
C1250 C 0.31401 0.16634 0.7408 0.0
C1251 C 0.18584 0.89893 0.88674 0.0
C1252 C 0.19685 0.89906 0.85278 0.0
C1253 C 0.16014 0.86688 0.90316 0.0
C1254 C 0.14415 0.83319 0.88648 0.0
H1255 H 0.19556 0.92424 0.90002 0.0
H1256 H 0.15152 0.86893 0.92859 0.0
S1257 S 0.16722 0.81827 0.79868 0.0
N1258 N 0.19136 0.86227 0.8038 0.0
N1259 N 0.1453 0.80211 0.83491 0.0
C1260 C 0.15688 0.83281 0.8532 0.0
C1261 C 0.1826 0.86556 0.83639 0.0
C1262 C 0.12955 0.29572 0.8825 0.0
C1263 C 0.13052 0.3089 0.84924 0.0
C1264 C 0.16129 0.30214 0.89961 0.0
C1265 C 0.19551 0.3218 0.88413 0.0
H1266 H 0.10382 0.27859 0.89462 0.0
H1267 H 0.15874 0.29007 0.9245 0.0
S1268 S 0.21277 0.36532 0.79858 0.0
N1269 N 0.16852 0.34437 0.80243 0.0
N1270 N 0.22804 0.35749 0.83445 0.0
C1271 C 0.19678 0.33672 0.85152 0.0
C1272 C 0.16443 0.33004 0.83418 0.0
C1273 C 0.7202 0.86895 0.82929 0.0
C1274 C 0.72233 0.84043 0.84503 0.0
C1275 C 0.71202 0.89198 0.84811 0.0
C1276 C 0.70475 0.88706 0.88339 0.0
H1277 H 0.72656 0.8745 0.80242 0.0
H1278 H 0.71165 0.91404 0.83496 0.0
S1279 S 0.70492 0.81542 0.93656 0.0
N1280 N 0.71568 0.8083 0.89803 0.0
N1281 N 0.69869 0.85032 0.93295 0.0
C1282 C 0.70518 0.85769 0.89912 0.0
C1283 C 0.71426 0.83469 0.88009 0.0
C1284 C 0.48971 0.50009 0.52036 0.0
C1285 C 0.47656 0.50118 0.55324 0.0
C1286 C 0.51483 0.53162 0.50287 0.0
C1287 C 0.52873 0.56596 0.51755 0.0
H1288 H 0.47993 0.47457 0.50749 0.0
H1289 H 0.52215 0.52917 0.47698 0.0
S1290 S 0.50492 0.58493 0.60297 0.0
N1291 N 0.48058 0.54071 0.5996 0.0
N1292 N 0.52847 0.5992 0.56734 0.0
C1293 C 0.51725 0.56751 0.55088 0.0
C1294 C 0.4912 0.53549 0.56854 0.0
C1295 C 0.52513 1.00356 0.52665 0.0
C1296 C 0.52403 0.98747 0.55865 0.0
C1297 C 0.49361 0.99712 0.50923 0.0
C1298 C 0.45921 0.97512 0.52327 0.0
H1299 H 0.55067 0.02063 0.51423 0.0
H1300 H 0.49618 0.00802 0.48375 0.0
S1301 S 0.4401 0.9284 0.60695 0.0
N1302 N 0.4844 0.94916 0.60385 0.0
N1303 N 0.42584 0.93908 0.57205 0.0
C1304 C 0.4576 0.96085 0.55612 0.0
C1305 C 0.48965 0.96655 0.57355 0.0
C1306 C 0.03005 0.50622 0.50616 0.0
C1307 C 0.05102 0.4929 0.52091 0.0
C1308 C 0.0233 0.53109 0.52349 0.0
C1309 C 0.03779 0.54459 0.55625 0.0
H1310 H 0.02025 0.49878 0.48026 0.0
H1311 H 1.00723 0.54051 0.51054 0.0
S1312 S 0.09418 0.51737 0.60627 0.0
N1313 N 0.08492 0.49368 0.57078 0.0
N1314 N 0.07382 0.54127 0.60273 0.0
C1315 C 0.0578 0.53033 0.57173 0.0
C1316 C 0.06403 0.50446 0.55425 0.0
C1317 C 0.49887 0.48321 0.04158 0.0
C1318 C 0.49972 0.46798 1.0098 0.0
C1319 C 0.53068 0.50734 0.05922 0.0
C1320 C 0.5649 0.51765 0.04586 0.0
H1321 H 0.47329 0.47575 0.05343 0.0
H1322 H 0.52844 0.51667 0.08427 0.0
S1323 S 0.58305 0.48718 0.96357 0.0
N1324 N 0.53868 0.46632 0.96568 0.0
N1325 N 0.59789 0.51181 0.99851 0.0
C1326 C 0.56631 0.50395 1.01361 0.0
C1327 C 0.53399 0.47925 0.99568 0.0
C1328 C 0.55132 0.06747 1.00276 0.0
C1329 C 0.56355 0.04483 1.01603 0.0
C1330 C 0.52551 0.0728 1.02018 0.0
C1331 C 0.51055 0.05565 0.05159 0.0
H1332 H 0.56291 0.08248 0.97948 0.0
H1333 H 0.51849 0.09193 1.00983 0.0
S1334 S 0.5294 0.9903 0.0955 0.0
N1335 N 0.55512 1.00209 0.06115 0.0
N1336 N 0.50785 0.01317 0.0939 0.0
C1337 C 0.521 0.03163 0.06425 0.0
C1338 C 0.54713 0.02601 0.04655 0.0
C1339 C 0.98515 0.50108 1.00304 0.0
C1340 C 0.98845 0.53182 1.01955 0.0
C1341 C 0.97805 0.4698 1.02145 0.0
C1342 C 0.97488 0.46813 0.05733 0.0
H1343 H 0.98706 0.50083 0.97548 0.0
H1344 H 0.97371 0.44627 1.00737 0.0
S1345 S 0.98423 0.54205 0.1132 0.0
N1346 N 0.9898 0.55892 0.07426 0.0
N1347 N 0.97737 0.5008 0.10867 0.0
C1348 C 0.9796 0.49918 0.0742 0.0
C1349 C 0.98608 0.53072 0.05544 0.0
loop_
_geom_bond_atom_site_label_1
_geom_bond_atom_site_label_2
_geom_bond_distance
_geom_bond_site_symmetry_2
_ccdc_geom_bond_type
C0 C1 1.443 . S
C0 N4 1.375 1_655 S
C0 C38 1.389 . S
C1 C0 1.443 . S
C1 C2 1.340 1_655 S
C1 H41 0.951 . S
C2 C1 1.340 1_455 S
C2 C3 1.439 . S
C2 H42 0.950 . S
C3 C2 1.439 . S
C3 N4 1.361 . S
C3 C37 1.395 . S
N4 C0 1.375 1_455 S
N4 C3 1.361 . S
N4 Co5 2.025 . S
Co5 N4 2.025 . S
Co5 N6 1.995 . S
Co5 N11 2.008 . S
Co5 N16 1.995 1_455 S
Co5 N21 2.282 1_455 S
Co5 N27 2.282 . S
N6 Co5 1.995 . S
N6 C7 1.376 . S
N6 C10 1.383 . S
C7 N6 1.376 . S
C7 C8 1.446 . S
C7 C37 1.391 . S
C8 C7 1.446 . S
C8 C9 1.339 . S
C8 H43 0.949 . S
C9 C8 1.339 . S
C9 C10 1.439 . S
C9 H44 0.950 . S
C10 N6 1.383 . S
C10 C9 1.439 . S
C10 C39 1.392 . S
N11 Co5 2.008 . S
N11 C12 1.376 . S
N11 C15 1.374 . S
C12 N11 1.376 . S
C12 C13 1.443 . S
C12 C39 1.389 . S
C13 C12 1.443 . S
C13 C14 1.340 . S
C13 H45 0.951 . S
C14 C13 1.340 . S
C14 C15 1.439 . S
C14 H46 0.950 . S
C15 N11 1.374 . S
C15 C14 1.439 . S
C15 C40 1.395 1_455 S
N16 Co5 1.995 1_655 S
N16 C17 1.376 . S
N16 C20 1.383 . S
C17 N16 1.376 . S
C17 C18 1.446 . S
C17 C40 1.391 . S
C18 C17 1.446 . S
C18 C19 1.339 . S
C18 H47 0.949 . S
C19 C18 1.339 . S
C19 C20 1.439 . S
C19 H48 0.950 . S
C20 N16 1.383 . S
C20 C19 1.439 . S
C20 C38 1.392 . S
N21 Co5 2.282 1_655 S
N21 C24 1.332 . S
N21 C26 1.332 . S
C22 C23 1.386 . S
C22 C25 1.388 . S
C23 C22 1.386 . S
C23 C24 1.382 . S
C23 H49 0.950 . S
C24 N21 1.332 . S
C24 C23 1.382 . S
C24 H35 0.952 . S
C25 C22 1.388 . S
C25 C26 1.382 . S
C25 H50 0.950 . S
C26 N21 1.332 . S
C26 C25 1.382 . S
C26 H36 0.948 . S
N27 Co5 2.282 . S
N27 C31 1.332 . S
N27 C32 1.332 . S
C28 C29 1.388 . S
C28 C32 1.382 . S
C28 H51 0.950 . S
C29 C28 1.388 . S
C29 C30 1.386 . S
C30 C29 1.386 . S
C30 C31 1.382 . S
C30 H52 0.950 . S
C31 N27 1.332 . S
C31 C30 1.382 . S
C31 H33 0.952 . S
C32 N27 1.332 . S
C32 C28 1.382 . S
C32 H34 0.948 . S
H33 C31 0.952 . S
H34 C32 0.948 . S
H35 C24 0.952 . S
H36 C26 0.948 . S
C37 C3 1.395 . S
C37 C7 1.391 . S
C38 C0 1.389 . S
C38 C20 1.392 . S
C39 C10 1.392 . S
C39 C12 1.389 . S
C40 C15 1.395 1_655 S
C40 C17 1.391 . S
H41 C1 0.951 . S
H42 C2 0.950 . S
H43 C8 0.949 . S
H44 C9 0.950 . S
H45 C13 0.951 . S
H46 C14 0.950 . S
H47 C18 0.949 . S
H48 C19 0.950 . S
H49 C23 0.950 . S
H50 C25 0.950 . S
H51 C28 0.950 . S
H52 C30 0.950 . S
C53 C54 1.443 . S
C53 N57 1.376 . S
C53 C91 1.389 . S
C54 C53 1.443 . S
C54 C55 1.340 . S
C54 H94 0.951 . S
C55 C54 1.340 . S
C55 C56 1.439 . S
C55 H95 0.950 . S
C56 C55 1.439 . S
C56 N57 1.374 . S
C56 C90 1.395 . S
N57 C53 1.376 . S
N57 C56 1.374 . S
N57 Co58 2.008 . S
Co58 N57 2.008 . S
Co58 N59 1.995 . S
Co58 N64 2.008 . S
Co58 N69 1.995 . S
Co58 N74 2.282 . S
Co58 N80 2.282 . S
N59 Co58 1.995 . S
N59 C60 1.376 . S
N59 C63 1.383 . S
C60 N59 1.376 . S
C60 C61 1.446 . S
C60 C90 1.391 . S
C61 C60 1.446 . S
C61 C62 1.339 . S
C61 H96 0.949 . S
C62 C61 1.339 . S
C62 C63 1.439 . S
C62 H97 0.950 . S
C63 N59 1.383 . S
C63 C62 1.439 . S
C63 C92 1.392 . S
N64 Co58 2.008 . S
N64 C65 1.376 . S
N64 C68 1.374 . S
C65 N64 1.376 . S
C65 C66 1.443 . S
C65 C92 1.389 . S
C66 C65 1.443 . S
C66 C67 1.340 . S
C66 H98 0.951 . S
C67 C66 1.340 . S
C67 C68 1.439 . S
C67 H99 0.950 . S
C68 N64 1.374 . S
C68 C67 1.439 . S
C68 C93 1.395 . S
N69 Co58 1.995 . S
N69 C70 1.376 . S
N69 C73 1.383 . S
C70 N69 1.376 . S
C70 C71 1.446 . S
C70 C93 1.391 . S
C71 C70 1.446 . S
C71 C72 1.339 . S
C71 H100 0.949 . S
C72 C71 1.339 . S
C72 C73 1.439 . S
C72 H101 0.950 . S
C73 N69 1.383 . S
C73 C72 1.439 . S
C73 C91 1.392 . S
N74 Co58 2.282 . S
N74 C77 1.332 . S
N74 C79 1.332 . S
C75 C76 1.386 . S
C75 C78 1.388 . S
C76 C75 1.386 . S
C76 C77 1.382 . S
C76 H102 0.950 . S
C77 N74 1.332 . S
C77 C76 1.382 . S
C77 H88 0.952 . S
C78 C75 1.388 . S
C78 C79 1.382 . S
C78 H103 0.950 . S
C79 N74 1.332 . S
C79 C78 1.382 . S
C79 H89 0.948 . S
N80 Co58 2.282 . S
N80 C84 1.332 . S
N80 C85 1.332 . S
C81 C82 1.388 . S
C81 C85 1.382 . S
C81 H104 0.950 . S
C82 C81 1.388 . S
C82 C83 1.386 . S
C83 C82 1.386 . S
C83 C84 1.382 . S
C83 H105 0.950 . S
C84 N80 1.332 . S
C84 C83 1.382 . S
C84 H86 0.952 . S
C85 N80 1.332 . S
C85 C81 1.382 . S
C85 H87 0.948 . S
H86 C84 0.952 . S
H87 C85 0.948 . S
H88 C77 0.952 . S
H89 C79 0.948 . S
C90 C56 1.395 . S
C90 C60 1.391 . S
C91 C53 1.389 . S
C91 C73 1.392 . S
C92 C63 1.392 . S
C92 C65 1.389 . S
C93 C68 1.395 . S
C93 C70 1.391 . S
H94 C54 0.951 . S
H95 C55 0.950 . S
H96 C61 0.949 . S
H97 C62 0.950 . S
H98 C66 0.951 . S
H99 C67 0.950 . S
H100 C71 0.949 . S
H101 C72 0.950 . S
H102 C76 0.950 . S
H103 C78 0.950 . S
H104 C81 0.950 . S
H105 C83 0.950 . S
C106 C107 1.443 . S
C106 N110 1.375 1_565 S
C106 C144 1.389 . S
C107 C106 1.443 . S
C107 C108 1.340 1_565 S
C107 H147 0.951 . S
C108 C107 1.340 1_545 S
C108 C109 1.439 . S
C108 H148 0.950 . S
C109 C108 1.439 . S
C109 N110 1.361 . S
C109 C143 1.395 . S
N110 C106 1.375 1_545 S
N110 C109 1.361 . S
N110 Co111 2.025 . S
Co111 N110 2.025 . S
Co111 N112 1.995 . S
Co111 N117 2.008 . S
Co111 N122 1.995 1_545 S
Co111 N127 2.282 1_545 S
Co111 N133 2.282 . S
N112 Co111 1.995 . S
N112 C113 1.376 . S
N112 C116 1.383 . S
C113 N112 1.376 . S
C113 C114 1.446 . S
C113 C143 1.391 . S
C114 C113 1.446 . S
C114 C115 1.339 . S
C114 H149 0.949 . S
C115 C114 1.339 . S
C115 C116 1.439 . S
C115 H150 0.950 . S
C116 N112 1.383 . S
C116 C115 1.439 . S
C116 C145 1.392 . S
N117 Co111 2.008 . S
N117 C118 1.376 . S
N117 C121 1.374 . S
C118 N117 1.376 . S
C118 C119 1.443 . S
C118 C145 1.389 . S
C119 C118 1.443 . S
C119 C120 1.340 . S
C119 H151 0.951 . S
C120 C119 1.340 . S
C120 C121 1.439 . S
C120 H152 0.950 . S
C121 N117 1.374 . S
C121 C120 1.439 . S
C121 C146 1.395 1_545 S
N122 Co111 1.995 1_565 S
N122 C123 1.376 . S
N122 C126 1.383 . S
C123 N122 1.376 . S
C123 C124 1.446 . S
C123 C146 1.391 . S
C124 C123 1.446 . S
C124 C125 1.339 . S
C124 H153 0.949 . S
C125 C124 1.339 . S
C125 C126 1.439 . S
C125 H154 0.950 . S
C126 N122 1.383 . S
C126 C125 1.439 . S
C126 C144 1.392 . S
N127 Co111 2.282 1_565 S
N127 C130 1.332 . S
N127 C132 1.332 . S
C128 C129 1.386 . S
C128 C131 1.388 . S
C129 C128 1.386 . S
C129 C130 1.382 . S
C129 H155 0.950 . S
C130 N127 1.332 . S
C130 C129 1.382 . S
C130 H141 0.952 . S
C131 C128 1.388 . S
C131 C132 1.382 . S
C131 H156 0.950 . S
C132 N127 1.332 . S
C132 C131 1.382 . S
C132 H142 0.948 . S
N133 Co111 2.282 . S
N133 C137 1.332 . S
N133 C138 1.332 . S
C134 C135 1.388 . S
C134 C138 1.382 . S
C134 H157 0.950 . S
C135 C134 1.388 . S
C135 C136 1.386 . S
C136 C135 1.386 . S
C136 C137 1.382 . S
C136 H158 0.950 . S
C137 N133 1.332 . S
C137 C136 1.382 . S
C137 H139 0.952 . S
C138 N133 1.332 . S
C138 C134 1.382 . S
C138 H140 0.948 . S
H139 C137 0.952 . S
H140 C138 0.948 . S
H141 C130 0.952 . S
H142 C132 0.948 . S
C143 C109 1.395 . S
C143 C113 1.391 . S
C144 C106 1.389 . S
C144 C126 1.392 . S
C145 C116 1.392 . S
C145 C118 1.389 . S
C146 C121 1.395 1_565 S
C146 C123 1.391 . S
H147 C107 0.951 . S
H148 C108 0.950 . S
H149 C114 0.949 . S
H150 C115 0.950 . S
H151 C119 0.951 . S
H152 C120 0.950 . S
H153 C124 0.949 . S
H154 C125 0.950 . S
H155 C129 0.950 . S
H156 C131 0.950 . S
H157 C134 0.950 . S
H158 C136 0.950 . S
C159 C160 1.443 . S
C159 N163 1.376 . S
C159 C197 1.389 . S
C160 C159 1.443 . S
C160 C161 1.340 . S
C160 H200 0.951 . S
C161 C160 1.340 . S
C161 C162 1.439 . S
C161 H201 0.950 . S
C162 C161 1.439 . S
C162 N163 1.374 . S
C162 C196 1.395 1_655 S
N163 C159 1.376 . S
N163 C162 1.374 . S
N163 Co164 2.008 1_655 S
Co164 N163 2.008 1_455 S
Co164 N165 1.995 . S
Co164 N170 2.008 . S
Co164 N175 1.995 1_455 S
Co164 N180 2.282 1_455 S
Co164 N186 2.282 . S
N165 Co164 1.995 . S
N165 C166 1.376 . S
N165 C169 1.383 . S
C166 N165 1.376 . S
C166 C167 1.446 . S
C166 C196 1.391 . S
C167 C166 1.446 . S
C167 C168 1.339 . S
C167 H202 0.949 . S
C168 C167 1.339 . S
C168 C169 1.439 . S
C168 H203 0.950 . S
C169 N165 1.383 . S
C169 C168 1.439 . S
C169 C198 1.392 . S
N170 Co164 2.008 . S
N170 C171 1.376 . S
N170 C174 1.374 . S
C171 N170 1.376 . S
C171 C172 1.443 . S
C171 C198 1.389 . S
C172 C171 1.443 . S
C172 C173 1.340 . S
C172 H204 0.951 . S
C173 C172 1.340 . S
C173 C174 1.439 . S
C173 H205 0.950 . S
C174 N170 1.374 . S
C174 C173 1.439 . S
C174 C199 1.395 . S
N175 Co164 1.995 1_655 S
N175 C176 1.376 . S
N175 C179 1.383 . S
C176 N175 1.376 . S
C176 C177 1.446 . S
C176 C199 1.391 1_655 S
C177 C176 1.446 . S
C177 C178 1.339 . S
C177 H206 0.949 . S
C178 C177 1.339 . S
C178 C179 1.439 . S
C178 H207 0.950 . S
C179 N175 1.383 . S
C179 C178 1.439 . S
C179 C197 1.392 . S
N180 Co164 2.282 1_655 S
N180 C183 1.332 . S
N180 C185 1.332 . S
C181 C182 1.386 . S
C181 C184 1.388 . S
C182 C181 1.386 . S
C182 C183 1.382 . S
C182 H208 0.950 . S
C183 N180 1.332 . S
C183 C182 1.382 . S
C183 H194 0.952 . S
C184 C181 1.388 . S
C184 C185 1.382 . S
C184 H209 0.950 . S
C185 N180 1.332 . S
C185 C184 1.382 . S
C185 H195 0.931 1_655 S
N186 Co164 2.282 . S
N186 C190 1.332 . S
N186 C191 1.332 . S
C187 C188 1.388 . S
C187 C191 1.382 . S
C187 H210 0.950 . S
C188 C187 1.388 . S
C188 C189 1.386 . S
C189 C188 1.386 . S
C189 C190 1.382 . S
C189 H211 0.950 . S
C190 N186 1.332 . S
C190 C189 1.382 . S
C190 H192 0.952 . S
C191 N186 1.332 . S
C191 C187 1.382 . S
C191 H193 0.948 . S
H192 C190 0.952 . S
H193 C191 0.948 . S
H194 C183 0.952 . S
H195 C185 0.931 1_455 S
C196 C162 1.395 1_455 S
C196 C166 1.391 . S
C197 C159 1.389 . S
C197 C179 1.392 . S
C198 C169 1.392 . S
C198 C171 1.389 . S
C199 C174 1.395 . S
C199 C176 1.391 1_455 S
H200 C160 0.951 . S
H201 C161 0.950 . S
H202 C167 0.949 . S
H203 C168 0.950 . S
H204 C172 0.951 . S
H205 C173 0.950 . S
H206 C177 0.949 . S
H207 C178 0.950 . S
H208 C182 0.950 . S
H209 C184 0.950 . S
H210 C187 0.950 . S
H211 C189 0.950 . S
C212 C213 1.443 . S
C212 N216 1.376 . S
C212 C250 1.389 . S
C213 C212 1.443 . S
C213 C214 1.340 . S
C213 H253 0.951 . S
C214 C213 1.340 . S
C214 C215 1.439 . S
C214 H254 0.950 . S
C215 C214 1.439 . S
C215 N216 1.374 . S
C215 C249 1.395 . S
N216 C212 1.376 . S
N216 C215 1.374 . S
N216 Co217 2.008 . S
Co217 N216 2.008 . S
Co217 N218 1.995 . S
Co217 N223 2.008 . S
Co217 N228 1.995 . S
Co217 N233 2.282 . S
Co217 N239 2.282 . S
N218 Co217 1.995 . S
N218 C219 1.376 . S
N218 C222 1.383 . S
C219 N218 1.376 . S
C219 C220 1.446 . S
C219 C249 1.391 . S
C220 C219 1.446 . S
C220 C221 1.339 . S
C220 H255 0.949 . S
C221 C220 1.339 . S
C221 C222 1.439 . S
C221 H256 0.950 . S
C222 N218 1.383 . S
C222 C221 1.439 . S
C222 C251 1.392 . S
N223 Co217 2.008 . S
N223 C224 1.376 . S
N223 C227 1.374 . S
C224 N223 1.376 . S
C224 C225 1.443 . S
C224 C251 1.389 . S
C225 C224 1.443 . S
C225 C226 1.340 . S
C225 H257 0.951 . S
C226 C225 1.340 . S
C226 C227 1.439 . S
C226 H258 0.950 . S
C227 N223 1.374 . S
C227 C226 1.439 . S
C227 C252 1.395 . S
N228 Co217 1.995 . S
N228 C229 1.376 . S
N228 C232 1.383 . S
C229 N228 1.376 . S
C229 C230 1.446 . S
C229 C252 1.391 . S
C230 C229 1.446 . S
C230 C231 1.339 . S
C230 H259 0.949 . S
C231 C230 1.339 . S
C231 C232 1.439 . S
C231 H260 0.950 . S
C232 N228 1.383 . S
C232 C231 1.439 . S
C232 C250 1.392 . S
N233 Co217 2.282 . S
N233 C236 1.332 . S
N233 C238 1.332 . S
C234 C235 1.386 . S
C234 C237 1.388 . S
C235 C234 1.386 . S
C235 C236 1.382 . S
C235 H261 0.950 . S
C236 N233 1.332 . S
C236 C235 1.382 . S
C236 H247 0.952 . S
C237 C234 1.388 . S
C237 C238 1.382 . S
C237 H262 0.950 . S
C238 N233 1.332 . S
C238 C237 1.382 . S
C238 H248 0.948 . S
N239 Co217 2.282 . S
N239 C243 1.332 . S
N239 C244 1.332 . S
C240 C241 1.388 . S
C240 C244 1.382 . S
C240 H263 0.950 . S
C241 C240 1.388 . S
C241 C242 1.386 . S
C242 C241 1.386 . S
C242 C243 1.382 . S
C242 H264 0.950 . S
C243 N239 1.332 . S
C243 C242 1.382 . S
C243 H245 0.952 . S
C244 N239 1.332 . S
C244 C240 1.382 . S
C244 H246 0.948 . S
H245 C243 0.952 . S
H246 C244 0.948 . S
H247 C236 0.952 . S
H248 C238 0.948 . S
C249 C215 1.395 . S
C249 C219 1.391 . S
C250 C212 1.389 . S
C250 C232 1.392 . S
C251 C222 1.392 . S
C251 C224 1.389 . S
C252 C227 1.395 . S
C252 C229 1.391 . S
H253 C213 0.951 . S
H254 C214 0.950 . S
H255 C220 0.949 . S
H256 C221 0.950 . S
H257 C225 0.951 . S
H258 C226 0.950 . S
H259 C230 0.949 . S
H260 C231 0.950 . S
H261 C235 0.950 . S
H262 C237 0.950 . S
H263 C240 0.950 . S
H264 C242 0.950 . S
C265 C266 1.443 . S
C265 N269 1.376 . S
C265 C303 1.389 . S
C266 C265 1.443 . S
C266 C267 1.340 . S
C266 H306 0.951 . S
C267 C266 1.340 . S
C267 C268 1.439 . S
C267 H307 0.950 . S
C268 C267 1.439 . S
C268 N269 1.374 . S
C268 C302 1.395 1_565 S
N269 C265 1.376 . S
N269 C268 1.374 . S
N269 Co270 2.008 1_565 S
Co270 N269 2.008 1_545 S
Co270 N271 1.995 . S
Co270 N276 2.008 . S
Co270 N281 1.995 1_545 S
Co270 N286 2.282 1_545 S
Co270 N292 2.282 . S
N271 Co270 1.995 . S
N271 C272 1.376 . S
N271 C275 1.383 . S
C272 N271 1.376 . S
C272 C273 1.446 . S
C272 C302 1.391 . S
C273 C272 1.446 . S
C273 C274 1.339 . S
C273 H308 0.949 . S
C274 C273 1.339 . S
C274 C275 1.439 . S
C274 H309 0.950 . S
C275 N271 1.383 . S
C275 C274 1.439 . S
C275 C304 1.392 . S
N276 Co270 2.008 . S
N276 C277 1.376 . S
N276 C280 1.374 . S
C277 N276 1.376 . S
C277 C278 1.443 . S
C277 C304 1.389 . S
C278 C277 1.443 . S
C278 C279 1.340 . S
C278 H310 0.951 . S
C279 C278 1.340 . S
C279 C280 1.439 . S
C279 H311 0.950 . S
C280 N276 1.374 . S
C280 C279 1.439 . S
C280 C305 1.395 . S
N281 Co270 1.995 1_565 S
N281 C282 1.376 . S
N281 C285 1.383 . S
C282 N281 1.376 . S
C282 C283 1.446 . S
C282 C305 1.391 1_565 S
C283 C282 1.446 . S
C283 C284 1.339 . S
C283 H312 0.949 . S
C284 C283 1.339 . S
C284 C285 1.439 . S
C284 H313 0.950 . S
C285 N281 1.383 . S
C285 C284 1.439 . S
C285 C303 1.392 . S
N286 Co270 2.282 1_565 S
N286 C289 1.332 . S
N286 C291 1.332 . S
C287 C288 1.386 . S
C287 C290 1.388 . S
C288 C287 1.386 . S
C288 C289 1.382 . S
C288 H314 0.950 . S
C289 N286 1.332 . S
C289 C288 1.382 . S
C289 H300 0.952 . S
C290 C287 1.388 . S
C290 C291 1.382 . S
C290 H315 0.950 . S
C291 N286 1.332 . S
C291 C290 1.382 . S
C291 H301 0.931 1_565 S
N292 Co270 2.282 . S
N292 C296 1.332 . S
N292 C297 1.332 . S
C293 C294 1.388 . S
C293 C297 1.382 . S
C293 H316 0.950 . S
C294 C293 1.388 . S
C294 C295 1.386 . S
C295 C294 1.386 . S
C295 C296 1.382 . S
C295 H317 0.950 . S
C296 N292 1.332 . S
C296 C295 1.382 . S
C296 H298 0.952 . S
C297 N292 1.332 . S
C297 C293 1.382 . S
C297 H299 0.948 . S
H298 C296 0.952 . S
H299 C297 0.948 . S
H300 C289 0.952 . S
H301 C291 0.931 1_545 S
C302 C268 1.395 1_545 S
C302 C272 1.391 . S
C303 C265 1.389 . S
C303 C285 1.392 . S
C304 C275 1.392 . S
C304 C277 1.389 . S
C305 C280 1.395 . S
C305 C282 1.391 1_545 S
H306 C266 0.951 . S
H307 C267 0.950 . S
H308 C273 0.949 . S
H309 C274 0.950 . S
H310 C278 0.951 . S
H311 C279 0.950 . S
H312 C283 0.949 . S
H313 C284 0.950 . S
H314 C288 0.950 . S
H315 C290 0.950 . S
H316 C293 0.950 . S
H317 C295 0.950 . S
C318 C319 1.443 . S
C318 N322 1.376 . S
C318 C356 1.389 . S
C319 C318 1.443 . S
C319 C320 1.340 . S
C319 H359 0.951 . S
C320 C319 1.340 . S
C320 C321 1.439 . S
C320 H360 0.950 . S
C321 C320 1.439 . S
C321 N322 1.374 . S
C321 C355 1.395 . S
N322 C318 1.376 . S
N322 C321 1.374 . S
N322 Co323 2.008 . S
Co323 N322 2.008 . S
Co323 N324 1.995 . S
Co323 N329 2.008 . S
Co323 N334 1.995 . S
Co323 N339 2.282 . S
Co323 N345 2.282 . S
N324 Co323 1.995 . S
N324 C325 1.376 . S
N324 C328 1.383 . S
C325 N324 1.376 . S
C325 C326 1.446 . S
C325 C355 1.391 . S
C326 C325 1.446 . S
C326 C327 1.339 . S
C326 H361 0.949 . S
C327 C326 1.339 . S
C327 C328 1.439 . S
C327 H362 0.950 . S
C328 N324 1.383 . S
C328 C327 1.439 . S
C328 C357 1.392 . S
N329 Co323 2.008 . S
N329 C330 1.376 . S
N329 C333 1.374 1_545 S
C330 N329 1.376 . S
C330 C331 1.443 . S
C330 C357 1.389 . S
C331 C330 1.443 . S
C331 C332 1.340 1_545 S
C331 H363 0.951 . S
C332 C331 1.340 1_565 S
C332 C333 1.439 . S
C332 H364 0.950 . S
C333 N329 1.374 1_565 S
C333 C332 1.439 . S
C333 C358 1.395 . S
N334 Co323 1.995 . S
N334 C335 1.376 1_545 S
N334 C338 1.383 . S
C335 N334 1.376 1_565 S
C335 C336 1.446 . S
C335 C358 1.391 . S
C336 C335 1.446 . S
C336 C337 1.339 . S
C336 H365 0.949 . S
C337 C336 1.339 . S
C337 C338 1.439 1_565 S
C337 H366 0.950 . S
C338 N334 1.383 . S
C338 C337 1.439 1_545 S
C338 C356 1.392 . S
N339 Co323 2.282 . S
N339 C342 1.332 1_545 S
N339 C344 1.332 . S
C340 C341 1.386 . S
C340 C343 1.388 1_565 S
C341 C340 1.386 . S
C341 C342 1.382 . S
C341 H367 0.950 . S
C342 N339 1.332 1_565 S
C342 C341 1.382 . S
C342 H353 0.952 . S
C343 C340 1.388 1_545 S
C343 C344 1.382 . S
C343 H368 0.950 . S
C344 N339 1.332 . S
C344 C343 1.382 . S
C344 H354 0.948 . S
N345 Co323 2.282 . S
N345 C349 1.332 . S
N345 C350 1.332 . S
C346 C347 1.388 . S
C346 C350 1.382 . S
C346 H369 0.950 . S
C347 C346 1.388 . S
C347 C348 1.386 . S
C348 C347 1.386 . S
C348 C349 1.382 . S
C348 H370 0.950 . S
C349 N345 1.332 . S
C349 C348 1.382 . S
C349 H351 0.952 . S
C350 N345 1.332 . S
C350 C346 1.382 . S
C350 H352 0.948 . S
H351 C349 0.952 . S
H352 C350 0.948 . S
H353 C342 0.952 . S
H354 C344 0.948 . S
C355 C321 1.395 . S
C355 C325 1.391 . S
C356 C318 1.389 . S
C356 C338 1.392 . S
C357 C328 1.392 . S
C357 C330 1.389 . S
C358 C333 1.395 . S
C358 C335 1.391 . S
H359 C319 0.951 . S
H360 C320 0.950 . S
H361 C326 0.949 . S
H362 C327 0.950 . S
H363 C331 0.951 . S
H364 C332 0.950 . S
H365 C336 0.949 . S
H366 C337 0.950 . S
H367 C341 0.950 . S
H368 C343 0.950 . S
H369 C346 0.950 . S
H370 C348 0.950 . S
C371 C372 1.443 . S
C371 N375 1.376 . S
C371 C409 1.389 . S
C372 C371 1.443 . S
C372 C373 1.340 . S
C372 H412 0.951 . S
C373 C372 1.340 . S
C373 C374 1.439 . S
C373 H413 0.950 . S
C374 C373 1.439 . S
C374 N375 1.374 . S
C374 C408 1.395 . S
N375 C371 1.376 . S
N375 C374 1.374 . S
N375 Co376 2.008 . S
Co376 N375 2.008 . S
Co376 N377 1.995 . S
Co376 N382 2.008 . S
Co376 N387 1.995 . S
Co376 N392 2.282 . S
Co376 N398 2.282 . S
N377 Co376 1.995 . S
N377 C378 1.376 . S
N377 C381 1.383 . S
C378 N377 1.376 . S
C378 C379 1.446 . S
C378 C408 1.391 . S
C379 C378 1.446 . S
C379 C380 1.339 . S
C379 H414 0.949 . S
C380 C379 1.339 . S
C380 C381 1.439 . S
C380 H415 0.950 . S
C381 N377 1.383 . S
C381 C380 1.439 . S
C381 C410 1.392 . S
N382 Co376 2.008 . S
N382 C383 1.376 . S
N382 C386 1.374 1_655 S
C383 N382 1.376 . S
C383 C384 1.443 1_655 S
C383 C410 1.389 . S
C384 C383 1.443 1_455 S
C384 C385 1.340 . S
C384 H416 0.951 . S
C385 C384 1.340 . S
C385 C386 1.439 . S
C385 H417 0.950 . S
C386 N382 1.374 1_455 S
C386 C385 1.439 . S
C386 C411 1.395 . S
N387 Co376 1.995 . S
N387 C388 1.376 1_655 S
N387 C391 1.383 . S
C388 N387 1.376 1_455 S
C388 C389 1.446 . S
C388 C411 1.391 . S
C389 C388 1.446 . S
C389 C390 1.339 . S
C389 H418 0.949 . S
C390 C389 1.339 . S
C390 C391 1.439 1_455 S
C390 H419 0.950 . S
C391 N387 1.383 . S
C391 C390 1.439 1_655 S
C391 C409 1.392 . S
N392 Co376 2.282 . S
N392 C395 1.332 . S
N392 C397 1.332 . S
C393 C394 1.386 . S
C393 C396 1.388 . S
C394 C393 1.386 . S
C394 C395 1.382 . S
C394 H420 0.950 . S
C395 N392 1.332 . S
C395 C394 1.382 . S
C395 H406 0.952 . S
C396 C393 1.388 . S
C396 C397 1.382 . S
C396 H421 0.950 . S
C397 N392 1.332 . S
C397 C396 1.382 . S
C397 H407 0.948 . S
N398 Co376 2.282 . S
N398 C402 1.332 . S
N398 C403 1.332 1_655 S
C399 C400 1.388 . S
C399 C403 1.382 . S
C399 H422 0.950 . S
C400 C399 1.388 . S
C400 C401 1.386 1_455 S
C401 C400 1.386 1_655 S
C401 C402 1.382 . S
C401 H423 0.950 . S
C402 N398 1.332 . S
C402 C401 1.382 . S
C402 H404 0.952 . S
C403 N398 1.332 1_455 S
C403 C399 1.382 . S
C403 H405 0.948 . S
H404 C402 0.952 . S
H405 C403 0.948 . S
H406 C395 0.952 . S
H407 C397 0.948 . S
C408 C374 1.395 . S
C408 C378 1.391 . S
C409 C371 1.389 . S
C409 C391 1.392 . S
C410 C381 1.392 . S
C410 C383 1.389 . S
C411 C386 1.395 . S
C411 C388 1.391 . S
H412 C372 0.951 . S
H413 C373 0.950 . S
H414 C379 0.949 . S
H415 C380 0.950 . S
H416 C384 0.951 . S
H417 C385 0.950 . S
H418 C389 0.949 . S
H419 C390 0.950 . S
H420 C394 0.950 . S
H421 C396 0.950 . S
H422 C399 0.950 . S
H423 C401 0.950 . S
C424 C425 1.443 . S
C424 N428 1.376 . S
C424 C462 1.389 . S
C425 C424 1.443 . S
C425 C426 1.340 . S
C425 H465 0.951 . S
C426 C425 1.340 . S
C426 C427 1.439 . S
C426 H466 0.950 . S
C427 C426 1.439 . S
C427 N428 1.374 . S
C427 C461 1.395 . S
N428 C424 1.376 . S
N428 C427 1.374 . S
N428 Co429 2.008 . S
Co429 N428 2.008 . S
Co429 N430 1.995 . S
Co429 N435 2.008 . S
Co429 N440 1.995 . S
Co429 N445 2.282 . S
Co429 N451 2.282 . S
N430 Co429 1.995 . S
N430 C431 1.376 . S
N430 C434 1.383 . S
C431 N430 1.376 . S
C431 C432 1.446 . S
C431 C461 1.391 . S
C432 C431 1.446 . S
C432 C433 1.339 . S
C432 H467 0.949 . S
C433 C432 1.339 . S
C433 C434 1.439 . S
C433 H468 0.950 . S
C434 N430 1.383 . S
C434 C433 1.439 . S
C434 C463 1.392 . S
N435 Co429 2.008 . S
N435 C436 1.376 . S
N435 C439 1.374 . S
C436 N435 1.376 . S
C436 C437 1.443 . S
C436 C463 1.389 . S
C437 C436 1.443 . S
C437 C438 1.340 . S
C437 H469 0.951 . S
C438 C437 1.340 . S
C438 C439 1.439 . S
C438 H470 0.950 . S
C439 N435 1.374 . S
C439 C438 1.439 . S
C439 C464 1.395 . S
N440 Co429 1.995 . S
N440 C441 1.376 . S
N440 C444 1.383 . S
C441 N440 1.376 . S
C441 C442 1.446 . S
C441 C464 1.391 . S
C442 C441 1.446 . S
C442 C443 1.339 . S
C442 H471 0.949 . S
C443 C442 1.339 . S
C443 C444 1.439 . S
C443 H472 0.950 . S
C444 N440 1.383 . S
C444 C443 1.439 . S
C444 C462 1.392 . S
N445 Co429 2.282 . S
N445 C448 1.332 . S
N445 C450 1.332 . S
C446 C447 1.386 . S
C446 C449 1.388 . S
C447 C446 1.386 . S
C447 C448 1.382 . S
C447 H473 0.950 . S
C448 N445 1.332 . S
C448 C447 1.382 . S
C448 H459 0.952 . S
C449 C446 1.388 . S
C449 C450 1.382 . S
C449 H474 0.950 . S
C450 N445 1.332 . S
C450 C449 1.382 . S
C450 H460 0.948 . S
N451 Co429 2.282 . S
N451 C455 1.332 . S
N451 C456 1.332 . S
C452 C453 1.388 . S
C452 C456 1.382 . S
C452 H475 0.950 . S
C453 C452 1.388 . S
C453 C454 1.386 . S
C454 C453 1.386 . S
C454 C455 1.382 . S
C454 H476 0.950 . S
C455 N451 1.332 . S
C455 C454 1.382 . S
C455 H457 0.952 . S
C456 N451 1.332 . S
C456 C452 1.382 . S
C456 H458 0.948 . S
H457 C455 0.952 . S
H458 C456 0.948 . S
H459 C448 0.952 . S
H460 C450 0.948 . S
C461 C427 1.395 . S
C461 C431 1.391 . S
C462 C424 1.389 . S
C462 C444 1.392 . S
C463 C434 1.392 . S
C463 C436 1.389 . S
C464 C439 1.395 . S
C464 C441 1.391 . S
H465 C425 0.951 . S
H466 C426 0.950 . S
H467 C432 0.949 . S
H468 C433 0.950 . S
H469 C437 0.951 . S
H470 C438 0.950 . S
H471 C442 0.949 . S
H472 C443 0.950 . S
H473 C447 0.950 . S
H474 C449 0.950 . S
H475 C452 0.950 . S
H476 C454 0.950 . S
C477 C478 1.443 . S
C477 N481 1.376 . S
C477 C515 1.389 . S
C478 C477 1.443 . S
C478 C479 1.340 . S
C478 H518 0.951 . S
C479 C478 1.340 . S
C479 C480 1.439 . S
C479 H519 0.950 . S
C480 C479 1.439 . S
C480 N481 1.374 . S
C480 C514 1.395 . S
N481 C477 1.376 . S
N481 C480 1.374 . S
N481 Co482 2.008 . S
Co482 N481 2.008 . S
Co482 N483 1.995 . S
Co482 N488 2.008 . S
Co482 N493 1.995 . S
Co482 N498 2.282 . S
Co482 N504 2.282 . S
N483 Co482 1.995 . S
N483 C484 1.376 . S
N483 C487 1.383 . S
C484 N483 1.376 . S
C484 C485 1.446 . S
C484 C514 1.391 . S
C485 C484 1.446 . S
C485 C486 1.339 . S
C485 H520 0.949 . S
C486 C485 1.339 . S
C486 C487 1.439 . S
C486 H521 0.950 . S
C487 N483 1.383 . S
C487 C486 1.439 . S
C487 C516 1.392 . S
N488 Co482 2.008 . S
N488 C489 1.376 . S
N488 C492 1.374 . S
C489 N488 1.376 . S
C489 C490 1.443 . S
C489 C516 1.389 . S
C490 C489 1.443 . S
C490 C491 1.340 . S
C490 H522 0.951 . S
C491 C490 1.340 . S
C491 C492 1.439 . S
C491 H523 0.950 . S
C492 N488 1.374 . S
C492 C491 1.439 . S
C492 C517 1.395 . S
N493 Co482 1.995 . S
N493 C494 1.376 . S
N493 C497 1.383 . S
C494 N493 1.376 . S
C494 C495 1.446 . S
C494 C517 1.391 . S
C495 C494 1.446 . S
C495 C496 1.339 . S
C495 H524 0.949 . S
C496 C495 1.339 . S
C496 C497 1.439 . S
C496 H525 0.950 . S
C497 N493 1.383 . S
C497 C496 1.439 . S
C497 C515 1.392 . S
N498 Co482 2.282 . S
N498 C501 1.332 . S
N498 C503 1.332 . S
C499 C500 1.386 . S
C499 C502 1.388 . S
C500 C499 1.386 . S
C500 C501 1.382 1_556 S
C500 H526 0.950 . S
C501 N498 1.332 . S
C501 C500 1.382 1_554 S
C501 H512 0.952 . S
C502 C499 1.388 . S
C502 C503 1.382 1_556 S
C502 H527 0.950 . S
C503 N498 1.332 . S
C503 C502 1.382 1_554 S
C503 H513 0.948 . S
N504 Co482 2.282 . S
N504 C508 1.332 . S
N504 C509 1.332 . S
C505 C506 1.388 . S
C505 C509 1.382 . S
C505 H528 0.950 . S
C506 C505 1.388 . S
C506 C507 1.386 . S
C507 C506 1.386 . S
C507 C508 1.382 . S
C507 H529 0.950 . S
C508 N504 1.332 . S
C508 C507 1.382 . S
C508 H510 0.952 . S
C509 N504 1.332 . S
C509 C505 1.382 . S
C509 H511 0.948 . S
H510 C508 0.952 . S
H511 C509 0.948 . S
H512 C501 0.952 . S
H513 C503 0.948 . S
C514 C480 1.395 . S
C514 C484 1.391 . S
C515 C477 1.389 . S
C515 C497 1.392 . S
C516 C487 1.392 . S
C516 C489 1.389 . S
C517 C492 1.395 . S
C517 C494 1.391 . S
H518 C478 0.951 . S
H519 C479 0.950 . S
H520 C485 0.949 . S
H521 C486 0.950 . S
H522 C490 0.951 . S
H523 C491 0.950 . S
H524 C495 0.949 . S
H525 C496 0.950 . S
H526 C500 0.950 . S
H527 C502 0.950 . S
H528 C505 0.950 . S
H529 C507 0.950 . S
C530 C531 1.443 . S
C530 N534 1.376 . S
C530 C568 1.389 . S
C531 C530 1.443 . S
C531 C532 1.340 . S
C531 H571 0.951 . S
C532 C531 1.340 . S
C532 C533 1.439 . S
C532 H572 0.950 . S
C533 C532 1.439 . S
C533 N534 1.374 . S
C533 C567 1.395 . S
N534 C530 1.376 . S
N534 C533 1.374 . S
N534 Co535 2.008 . S
Co535 N534 2.008 . S
Co535 N536 1.995 . S
Co535 N541 2.008 . S
Co535 N546 1.995 . S
Co535 N551 2.282 . S
Co535 N557 2.282 . S
N536 Co535 1.995 . S
N536 C537 1.376 . S
N536 C540 1.383 . S
C537 N536 1.376 . S
C537 C538 1.446 . S
C537 C567 1.391 . S
C538 C537 1.446 . S
C538 C539 1.339 . S
C538 H573 0.949 . S
C539 C538 1.339 . S
C539 C540 1.439 . S
C539 H574 0.950 . S
C540 N536 1.383 . S
C540 C539 1.439 . S
C540 C569 1.392 . S
N541 Co535 2.008 . S
N541 C542 1.376 . S
N541 C545 1.374 . S
C542 N541 1.376 . S
C542 C543 1.443 1_545 S
C542 C569 1.389 . S
C543 C542 1.443 1_565 S
C543 C544 1.340 . S
C543 H575 0.951 . S
C544 C543 1.340 . S
C544 C545 1.439 1_565 S
C544 H576 0.950 . S
C545 N541 1.374 . S
C545 C544 1.439 1_545 S
C545 C570 1.395 . S
N546 Co535 1.995 . S
N546 C547 1.376 . S
N546 C550 1.383 . S
C547 N546 1.376 . S
C547 C548 1.446 . S
C547 C570 1.391 . S
C548 C547 1.446 . S
C548 C549 1.339 . S
C548 H577 0.949 . S
C549 C548 1.339 . S
C549 C550 1.439 . S
C549 H578 0.950 . S
C550 N546 1.383 . S
C550 C549 1.439 . S
C550 C568 1.392 . S
N551 Co535 2.282 . S
N551 C554 1.332 . S
N551 C556 1.332 . S
C552 C553 1.386 . S
C552 C555 1.388 . S
C553 C552 1.386 . S
C553 C554 1.382 1_556 S
C553 H579 0.950 . S
C554 N551 1.332 . S
C554 C553 1.382 1_554 S
C554 H565 0.952 . S
C555 C552 1.388 . S
C555 C556 1.382 1_556 S
C555 H580 0.950 . S
C556 N551 1.332 . S
C556 C555 1.382 1_554 S
C556 H566 0.948 . S
N557 Co535 2.282 . S
N557 C561 1.332 . S
N557 C562 1.332 . S
C558 C559 1.388 . S
C558 C562 1.382 . S
C558 H581 0.950 . S
C559 C558 1.388 . S
C559 C560 1.386 . S
C560 C559 1.386 . S
C560 C561 1.382 . S
C560 H582 0.950 . S
C561 N557 1.332 . S
C561 C560 1.382 . S
C561 H563 0.952 . S
C562 N557 1.332 . S
C562 C558 1.382 . S
C562 H564 0.948 . S
H563 C561 0.952 . S
H564 C562 0.948 . S
H565 C554 0.952 . S
H566 C556 0.948 . S
C567 C533 1.395 . S
C567 C537 1.391 . S
C568 C530 1.389 . S
C568 C550 1.392 . S
C569 C540 1.392 . S
C569 C542 1.389 . S
C570 C545 1.395 . S
C570 C547 1.391 . S
H571 C531 0.951 . S
H572 C532 0.950 . S
H573 C538 0.949 . S
H574 C539 0.950 . S
H575 C543 0.951 . S
H576 C544 0.950 . S
H577 C548 0.949 . S
H578 C549 0.950 . S
H579 C553 0.950 . S
H580 C555 0.950 . S
H581 C558 0.950 . S
H582 C560 0.950 . S
C583 C584 1.443 . S
C583 N587 1.376 . S
C583 C621 1.389 . S
C584 C583 1.443 . S
C584 C585 1.340 . S
C584 H624 0.951 . S
C585 C584 1.340 . S
C585 C586 1.439 . S
C585 H625 0.950 . S
C586 C585 1.439 . S
C586 N587 1.374 . S
C586 C620 1.395 . S
N587 C583 1.376 . S
N587 C586 1.374 . S
N587 Co588 2.008 . S
Co588 N587 2.008 . S
Co588 N589 1.995 . S
Co588 N594 2.008 . S
Co588 N599 1.995 . S
Co588 N604 2.282 . S
Co588 N610 2.282 . S
N589 Co588 1.995 . S
N589 C590 1.376 . S
N589 C593 1.383 . S
C590 N589 1.376 . S
C590 C591 1.446 . S
C590 C620 1.391 . S
C591 C590 1.446 . S
C591 C592 1.339 . S
C591 H626 0.949 . S
C592 C591 1.339 . S
C592 C593 1.439 . S
C592 H627 0.950 . S
C593 N589 1.383 . S
C593 C592 1.439 . S
C593 C622 1.392 . S
N594 Co588 2.008 . S
N594 C595 1.376 . S
N594 C598 1.374 1_655 S
C595 N594 1.376 . S
C595 C596 1.443 1_655 S
C595 C622 1.389 . S
C596 C595 1.443 1_455 S
C596 C597 1.340 . S
C596 H628 0.951 . S
C597 C596 1.340 . S
C597 C598 1.439 . S
C597 H629 0.950 . S
C598 N594 1.374 1_455 S
C598 C597 1.439 . S
C598 C623 1.395 . S
N599 Co588 1.995 . S
N599 C600 1.376 . S
N599 C603 1.383 . S
C600 N599 1.376 . S
C600 C601 1.446 . S
C600 C623 1.391 1_655 S
C601 C600 1.446 . S
C601 C602 1.339 . S
C601 H630 0.949 . S
C602 C601 1.339 . S
C602 C603 1.439 . S
C602 H631 0.950 . S
C603 N599 1.383 . S
C603 C602 1.439 . S
C603 C621 1.392 . S
N604 Co588 2.282 . S
N604 C607 1.332 . S
N604 C609 1.332 . S
C605 C606 1.386 . S
C605 C608 1.388 . S
C606 C605 1.386 . S
C606 C607 1.382 1_556 S
C606 H632 0.950 . S
C607 N604 1.332 . S
C607 C606 1.382 1_554 S
C607 H618 0.952 . S
C608 C605 1.388 . S
C608 C609 1.382 1_556 S
C608 H633 0.950 . S
C609 N604 1.332 . S
C609 C608 1.382 1_554 S
C609 H619 0.948 . S
N610 Co588 2.282 . S
N610 C614 1.332 . S
N610 C615 1.332 . S
C611 C612 1.388 . S
C611 C615 1.382 . S
C611 H634 0.950 . S
C612 C611 1.388 . S
C612 C613 1.386 . S
C613 C612 1.386 . S
C613 C614 1.382 . S
C613 H635 0.950 . S
C614 N610 1.332 . S
C614 C613 1.382 . S
C614 H616 0.952 . S
C615 N610 1.332 . S
C615 C611 1.382 . S
C615 H617 0.948 . S
H616 C614 0.952 . S
H617 C615 0.948 . S
H618 C607 0.952 . S
H619 C609 0.948 . S
C620 C586 1.395 . S
C620 C590 1.391 . S
C621 C583 1.389 . S
C621 C603 1.392 . S
C622 C593 1.392 . S
C622 C595 1.389 . S
C623 C598 1.395 . S
C623 C600 1.391 1_455 S
H624 C584 0.951 . S
H625 C585 0.950 . S
H626 C591 0.949 . S
H627 C592 0.950 . S
H628 C596 0.951 . S
H629 C597 0.950 . S
H630 C601 0.949 . S
H631 C602 0.950 . S
H632 C606 0.950 . S
H633 C608 0.950 . S
H634 C611 0.950 . S
H635 C613 0.950 . S
C636 C637 1.443 . S
C636 N640 1.376 . S
C636 C674 1.389 . S
C637 C636 1.443 . S
C637 C638 1.340 . S
C637 H677 0.951 1_556 S
C638 C637 1.340 . S
C638 C639 1.439 . S
C638 H678 0.950 . S
C639 C638 1.439 . S
C639 N640 1.374 . S
C639 C673 1.395 . S
N640 C636 1.376 . S
N640 C639 1.374 . S
N640 Co641 2.008 . S
Co641 N640 2.008 . S
Co641 N642 1.995 . S
Co641 N647 2.008 . S
Co641 N652 1.995 . S
Co641 N657 2.282 . S
Co641 N663 2.282 . S
N642 Co641 1.995 . S
N642 C643 1.376 . S
N642 C646 1.383 . S
C643 N642 1.376 . S
C643 C644 1.446 . S
C643 C673 1.391 . S
C644 C643 1.446 . S
C644 C645 1.339 . S
C644 H679 0.949 . S
C645 C644 1.339 . S
C645 C646 1.439 . S
C645 H680 0.950 . S
C646 N642 1.383 . S
C646 C645 1.439 . S
C646 C675 1.392 . S
N647 Co641 2.008 . S
N647 C648 1.376 . S
N647 C651 1.374 . S
C648 N647 1.376 . S
C648 C649 1.443 . S
C648 C675 1.389 . S
C649 C648 1.443 . S
C649 C650 1.340 . S
C649 H681 0.951 . S
C650 C649 1.340 . S
C650 C651 1.439 . S
C650 H682 0.950 . S
C651 N647 1.374 . S
C651 C650 1.439 . S
C651 C676 1.395 . S
N652 Co641 1.995 . S
N652 C653 1.376 . S
N652 C656 1.383 . S
C653 N652 1.376 . S
C653 C654 1.446 . S
C653 C676 1.391 . S
C654 C653 1.446 . S
C654 C655 1.339 . S
C654 H683 0.949 . S
C655 C654 1.339 . S
C655 C656 1.439 . S
C655 H684 0.950 1_556 S
C656 N652 1.383 . S
C656 C655 1.439 . S
C656 C674 1.392 . S
N657 Co641 2.282 . S
N657 C660 1.332 . S
N657 C662 1.332 . S
C658 C659 1.386 . S
C658 C661 1.388 . S
C659 C658 1.386 . S
C659 C660 1.382 . S
C659 H685 0.950 . S
C660 N657 1.332 . S
C660 C659 1.382 . S
C660 H671 0.952 . S
C661 C658 1.388 . S
C661 C662 1.382 . S
C661 H686 0.950 . S
C662 N657 1.332 . S
C662 C661 1.382 . S
C662 H672 0.948 . S
N663 Co641 2.282 . S
N663 C667 1.332 . S
N663 C668 1.332 . S
C664 C665 1.388 . S
C664 C668 1.382 . S
C664 H687 0.950 . S
C665 C664 1.388 . S
C665 C666 1.386 . S
C666 C665 1.386 . S
C666 C667 1.382 . S
C666 H688 0.950 . S
C667 N663 1.332 . S
C667 C666 1.382 . S
C667 H669 0.952 . S
C668 N663 1.332 . S
C668 C664 1.382 . S
C668 H670 0.948 . S
H669 C667 0.952 . S
H670 C668 0.948 . S
H671 C660 0.952 . S
H672 C662 0.948 . S
C673 C639 1.395 . S
C673 C643 1.391 . S
C674 C636 1.389 . S
C674 C656 1.392 . S
C675 C646 1.392 . S
C675 C648 1.389 . S
C676 C651 1.395 . S
C676 C653 1.391 . S
H677 C637 0.951 1_554 S
H678 C638 0.950 . S
H679 C644 0.949 . S
H680 C645 0.950 . S
H681 C649 0.951 . S
H682 C650 0.950 . S
H683 C654 0.949 . S
H684 C655 0.950 1_554 S
H685 C659 0.950 . S
H686 C661 0.950 . S
H687 C664 0.950 . S
H688 C666 0.950 . S
C689 C690 1.443 . S
C689 N693 1.376 . S
C689 C727 1.389 . S
C690 C689 1.443 . S
C690 C691 1.340 . S
C690 H730 0.951 . S
C691 C690 1.340 . S
C691 C692 1.439 . S
C691 H731 0.950 . S
C692 C691 1.439 . S
C692 N693 1.374 . S
C692 C726 1.395 . S
N693 C689 1.376 . S
N693 C692 1.374 . S
N693 Co694 2.008 . S
Co694 N693 2.008 . S
Co694 N695 1.995 . S
Co694 N700 2.008 . S
Co694 N705 1.995 . S
Co694 N710 2.282 . S
Co694 N716 2.282 . S
N695 Co694 1.995 . S
N695 C696 1.376 . S
N695 C699 1.383 . S
C696 N695 1.376 . S
C696 C697 1.446 . S
C696 C726 1.391 . S
C697 C696 1.446 . S
C697 C698 1.339 . S
C697 H732 0.949 . S
C698 C697 1.339 . S
C698 C699 1.439 . S
C698 H733 0.950 1_556 S
C699 N695 1.383 . S
C699 C698 1.439 . S
C699 C728 1.392 . S
N700 Co694 2.008 . S
N700 C701 1.376 . S
N700 C704 1.374 1_565 S
C701 N700 1.376 . S
C701 C702 1.443 1_565 S
C701 C728 1.389 . S
C702 C701 1.443 1_545 S
C702 C703 1.340 . S
C702 H734 0.951 1_556 S
C703 C702 1.340 . S
C703 C704 1.439 . S
C703 H735 0.950 . S
C704 N700 1.374 1_545 S
C704 C703 1.439 . S
C704 C729 1.395 . S
N705 Co694 1.995 . S
N705 C706 1.376 1_565 S
N705 C709 1.383 . S
C706 N705 1.376 1_545 S
C706 C707 1.446 . S
C706 C729 1.391 . S
C707 C706 1.446 . S
C707 C708 1.339 . S
C707 H736 0.949 . S
C708 C707 1.339 . S
C708 C709 1.439 1_545 S
C708 H737 0.950 . S
C709 N705 1.383 . S
C709 C708 1.439 1_565 S
C709 C727 1.392 . S
N710 Co694 2.282 . S
N710 C713 1.332 1_565 S
N710 C715 1.332 . S
C711 C712 1.386 . S
C711 C714 1.388 1_545 S
C712 C711 1.386 . S
C712 C713 1.382 . S
C712 H738 0.950 . S
C713 N710 1.332 1_545 S
C713 C712 1.382 . S
C713 H724 0.952 . S
C714 C711 1.388 1_565 S
C714 C715 1.382 . S
C714 H739 0.950 . S
C715 N710 1.332 . S
C715 C714 1.382 . S
C715 H725 0.948 . S
N716 Co694 2.282 . S
N716 C720 1.332 . S
N716 C721 1.332 . S
C717 C718 1.388 . S
C717 C721 1.382 . S
C717 H740 0.950 . S
C718 C717 1.388 . S
C718 C719 1.386 . S
C719 C718 1.386 . S
C719 C720 1.382 . S
C719 H741 0.950 . S
C720 N716 1.332 . S
C720 C719 1.382 . S
C720 H722 0.952 . S
C721 N716 1.332 . S
C721 C717 1.382 . S
C721 H723 0.948 . S
H722 C720 0.952 . S
H723 C721 0.948 . S
H724 C713 0.952 . S
H725 C715 0.948 . S
C726 C692 1.395 . S
C726 C696 1.391 . S
C727 C689 1.389 . S
C727 C709 1.392 . S
C728 C699 1.392 . S
C728 C701 1.389 . S
C729 C704 1.395 . S
C729 C706 1.391 . S
H730 C690 0.951 . S
H731 C691 0.950 . S
H732 C697 0.949 . S
H733 C698 0.950 1_554 S
H734 C702 0.951 1_554 S
H735 C703 0.950 . S
H736 C707 0.949 . S
H737 C708 0.950 . S
H738 C712 0.950 . S
H739 C714 0.950 . S
H740 C717 0.950 . S
H741 C719 0.950 . S
C742 C743 1.443 . S
C742 N746 1.376 . S
C742 C780 1.389 . S
C743 C742 1.443 . S
C743 C744 1.340 . S
C743 H783 0.951 . S
C744 C743 1.340 . S
C744 C745 1.439 . S
C744 H784 0.950 . S
C745 C744 1.439 . S
C745 N746 1.374 . S
C745 C779 1.395 . S
N746 C742 1.376 . S
N746 C745 1.374 . S
N746 Co747 2.008 . S
Co747 N746 2.008 . S
Co747 N748 1.995 . S
Co747 N753 2.008 . S
Co747 N758 1.995 . S
Co747 N763 2.282 . S
Co747 N769 2.282 . S
N748 Co747 1.995 . S
N748 C749 1.376 . S
N748 C752 1.383 . S
C749 N748 1.376 . S
C749 C750 1.446 . S
C749 C779 1.391 . S
C750 C749 1.446 . S
C750 C751 1.339 . S
C750 H785 0.949 . S
C751 C750 1.339 . S
C751 C752 1.439 . S
C751 H786 0.950 1_556 S
C752 N748 1.383 . S
C752 C751 1.439 . S
C752 C781 1.392 . S
N753 Co747 2.008 . S
N753 C754 1.376 . S
N753 C757 1.374 1_455 S
C754 N753 1.376 . S
C754 C755 1.443 . S
C754 C781 1.389 . S
C755 C754 1.443 . S
C755 C756 1.340 1_455 S
C755 H787 0.951 1_556 S
C756 C755 1.340 1_655 S
C756 C757 1.439 . S
C756 H788 0.950 . S
C757 N753 1.374 1_655 S
C757 C756 1.439 . S
C757 C782 1.395 . S
N758 Co747 1.995 . S
N758 C759 1.376 1_455 S
N758 C762 1.383 . S
C759 N758 1.376 1_655 S
C759 C760 1.446 . S
C759 C782 1.391 . S
C760 C759 1.446 . S
C760 C761 1.339 . S
C760 H789 0.949 . S
C761 C760 1.339 . S
C761 C762 1.439 1_655 S
C761 H790 0.950 . S
C762 N758 1.383 . S
C762 C761 1.439 1_455 S
C762 C780 1.392 . S
N763 Co747 2.282 . S
N763 C766 1.332 1_455 S
N763 C768 1.332 . S
C764 C765 1.386 . S
C764 C767 1.388 1_655 S
C765 C764 1.386 . S
C765 C766 1.382 . S
C765 H791 0.950 . S
C766 N763 1.332 1_655 S
C766 C765 1.382 . S
C766 H777 0.952 . S
C767 C764 1.388 1_455 S
C767 C768 1.382 . S
C767 H792 0.950 . S
C768 N763 1.332 . S
C768 C767 1.382 . S
C768 H778 0.948 . S
N769 Co747 2.282 . S
N769 C773 1.332 . S
N769 C774 1.332 . S
C770 C771 1.388 . S
C770 C774 1.382 . S
C770 H793 0.950 . S
C771 C770 1.388 . S
C771 C772 1.386 . S
C772 C771 1.386 . S
C772 C773 1.382 . S
C772 H794 0.950 . S
C773 N769 1.332 . S
C773 C772 1.382 . S
C773 H775 0.952 . S
C774 N769 1.332 . S
C774 C770 1.382 . S
C774 H776 0.948 . S
H775 C773 0.952 . S
H776 C774 0.948 . S
H777 C766 0.952 . S
H778 C768 0.948 . S
C779 C745 1.395 . S
C779 C749 1.391 . S
C780 C742 1.389 . S
C780 C762 1.392 . S
C781 C752 1.392 . S
C781 C754 1.389 . S
C782 C757 1.395 . S
C782 C759 1.391 . S
H783 C743 0.951 . S
H784 C744 0.950 . S
H785 C750 0.949 . S
H786 C751 0.950 1_554 S
H787 C755 0.951 1_554 S
H788 C756 0.950 . S
H789 C760 0.949 . S
H790 C761 0.950 . S
H791 C765 0.950 . S
H792 C767 0.950 . S
H793 C770 0.950 . S
H794 C772 0.950 . S
C795 C796 1.443 . S
C795 N799 1.376 . S
C795 C833 1.389 . S
C796 C795 1.443 . S
C796 C797 1.340 . S
C796 H836 0.951 . S
C797 C796 1.340 . S
C797 C798 1.439 . S
C797 H837 0.950 . S
C798 C797 1.439 . S
C798 N799 1.374 . S
C798 C832 1.395 . S
N799 C795 1.376 . S
N799 C798 1.374 . S
N799 Co800 2.008 . S
Co800 N799 2.008 . S
Co800 N801 1.995 . S
Co800 N806 2.008 . S
Co800 N811 1.995 . S
Co800 N816 2.282 . S
Co800 N822 2.282 . S
N801 Co800 1.995 . S
N801 C802 1.376 . S
N801 C805 1.383 . S
C802 N801 1.376 . S
C802 C803 1.446 . S
C802 C832 1.391 . S
C803 C802 1.446 . S
C803 C804 1.339 . S
C803 H838 0.949 . S
C804 C803 1.339 . S
C804 C805 1.439 . S
C804 H839 0.950 . S
C805 N801 1.383 . S
C805 C804 1.439 . S
C805 C834 1.392 . S
N806 Co800 2.008 . S
N806 C807 1.376 . S
N806 C810 1.374 1_565 S
C807 N806 1.376 . S
C807 C808 1.443 1_565 S
C807 C834 1.389 . S
C808 C807 1.443 1_545 S
C808 C809 1.340 . S
C808 H840 0.951 . S
C809 C808 1.340 . S
C809 C810 1.439 . S
C809 H841 0.950 . S
C810 N806 1.374 1_545 S
C810 C809 1.439 . S
C810 C835 1.395 . S
N811 Co800 1.995 . S
N811 C812 1.376 . S
N811 C815 1.383 . S
C812 N811 1.376 . S
C812 C813 1.446 . S
C812 C835 1.391 1_565 S
C813 C812 1.446 . S
C813 C814 1.339 . S
C813 H842 0.949 . S
C814 C813 1.339 . S
C814 C815 1.439 . S
C814 H843 0.950 . S
C815 N811 1.383 . S
C815 C814 1.439 . S
C815 C833 1.392 . S
N816 Co800 2.282 . S
N816 C819 1.332 . S
N816 C821 1.332 . S
C817 C818 1.386 . S
C817 C820 1.388 . S
C818 C817 1.386 . S
C818 C819 1.382 . S
C818 H844 0.950 . S
C819 N816 1.332 . S
C819 C818 1.382 . S
C819 H830 0.952 . S
C820 C817 1.388 . S
C820 C821 1.382 . S
C820 H845 0.950 . S
C821 N816 1.332 . S
C821 C820 1.382 . S
C821 H831 0.948 . S
N822 Co800 2.282 . S
N822 C826 1.332 . S
N822 C827 1.332 . S
C823 C824 1.388 . S
C823 C827 1.382 . S
C823 H846 0.950 . S
C824 C823 1.388 . S
C824 C825 1.386 . S
C825 C824 1.386 . S
C825 C826 1.382 . S
C825 H847 0.950 . S
C826 N822 1.332 . S
C826 C825 1.382 . S
C826 H828 0.952 . S
C827 N822 1.332 . S
C827 C823 1.382 . S
C827 H829 0.948 . S
H828 C826 0.952 . S
H829 C827 0.948 . S
H830 C819 0.952 . S
H831 C821 0.948 . S
C832 C798 1.395 . S
C832 C802 1.391 . S
C833 C795 1.389 . S
C833 C815 1.392 . S
C834 C805 1.392 . S
C834 C807 1.389 . S
C835 C810 1.395 . S
C835 C812 1.391 1_545 S
H836 C796 0.951 . S
H837 C797 0.950 . S
H838 C803 0.949 . S
H839 C804 0.950 . S
H840 C808 0.951 . S
H841 C809 0.950 . S
H842 C813 0.949 . S
H843 C814 0.950 . S
H844 C818 0.950 . S
H845 C820 0.950 . S
H846 C823 0.950 . S
H847 C825 0.950 . S
C848 C849 1.443 . S
C848 N852 1.376 . S
C848 C886 1.389 . S
C849 C848 1.443 . S
C849 C850 1.340 . S
C849 H889 0.951 . S
C850 C849 1.340 . S
C850 C851 1.439 . S
C850 H890 0.950 . S
C851 C850 1.439 . S
C851 N852 1.374 . S
C851 C885 1.395 . S
N852 C848 1.376 . S
N852 C851 1.374 . S
N852 Co853 2.008 . S
Co853 N852 2.008 . S
Co853 N854 1.995 . S
Co853 N859 2.008 . S
Co853 N864 1.995 . S
Co853 N869 2.282 . S
Co853 N875 2.282 . S
N854 Co853 1.995 . S
N854 C855 1.376 . S
N854 C858 1.383 . S
C855 N854 1.376 . S
C855 C856 1.446 . S
C855 C885 1.391 . S
C856 C855 1.446 . S
C856 C857 1.339 . S
C856 H891 0.949 . S
C857 C856 1.339 . S
C857 C858 1.439 . S
C857 H892 0.950 . S
C858 N854 1.383 . S
C858 C857 1.439 . S
C858 C887 1.392 . S
N859 Co853 2.008 . S
N859 C860 1.376 . S
N859 C863 1.374 . S
C860 N859 1.376 . S
C860 C861 1.443 1_455 S
C860 C887 1.389 . S
C861 C860 1.443 1_655 S
C861 C862 1.340 . S
C861 H893 0.951 . S
C862 C861 1.340 . S
C862 C863 1.439 1_655 S
C862 H894 0.950 . S
C863 N859 1.374 . S
C863 C862 1.439 1_455 S
C863 C888 1.395 . S
N864 Co853 1.995 . S
N864 C865 1.376 . S
N864 C868 1.383 . S
C865 N864 1.376 . S
C865 C866 1.446 . S
C865 C888 1.391 . S
C866 C865 1.446 . S
C866 C867 1.339 . S
C866 H895 0.949 . S
C867 C866 1.339 . S
C867 C868 1.439 . S
C867 H896 0.950 . S
C868 N864 1.383 . S
C868 C867 1.439 . S
C868 C886 1.392 . S
N869 Co853 2.282 . S
N869 C872 1.332 . S
N869 C874 1.332 . S
C870 C871 1.386 . S
C870 C873 1.388 . S
C871 C870 1.386 . S
C871 C872 1.382 . S
C871 H897 0.950 . S
C872 N869 1.332 . S
C872 C871 1.382 . S
C872 H883 0.952 . S
C873 C870 1.388 . S
C873 C874 1.382 . S
C873 H898 0.950 . S
C874 N869 1.332 . S
C874 C873 1.382 . S
C874 H884 0.948 . S
N875 Co853 2.282 . S
N875 C879 1.332 . S
N875 C880 1.332 . S
C876 C877 1.388 . S
C876 C880 1.382 . S
C876 H899 0.950 . S
C877 C876 1.388 . S
C877 C878 1.386 . S
C878 C877 1.386 . S
C878 C879 1.382 . S
C878 H900 0.950 . S
C879 N875 1.332 . S
C879 C878 1.382 . S
C879 H881 0.952 . S
C880 N875 1.332 . S
C880 C876 1.382 . S
C880 H882 0.948 . S
H881 C879 0.952 . S
H882 C880 0.948 . S
H883 C872 0.952 . S
H884 C874 0.948 . S
C885 C851 1.395 . S
C885 C855 1.391 . S
C886 C848 1.389 . S
C886 C868 1.392 . S
C887 C858 1.392 . S
C887 C860 1.389 . S
C888 C863 1.395 . S
C888 C865 1.391 . S
H889 C849 0.951 . S
H890 C850 0.950 . S
H891 C856 0.949 . S
H892 C857 0.950 . S
H893 C861 0.951 . S
H894 C862 0.950 . S
H895 C866 0.949 . S
H896 C867 0.950 . S
H897 C871 0.950 . S
H898 C873 0.950 . S
H899 C876 0.950 . S
H900 C878 0.950 . S
C901 C902 1.443 . S
C901 N905 1.376 . S
C901 C939 1.389 . S
C902 C901 1.443 . S
C902 C903 1.340 . S
C902 H942 0.951 . S
C903 C902 1.340 . S
C903 C904 1.439 . S
C903 H943 0.950 . S
C904 C903 1.439 . S
C904 N905 1.374 . S
C904 C938 1.395 . S
N905 C901 1.376 . S
N905 C904 1.374 . S
N905 Co906 2.008 . S
Co906 N905 2.008 . S
Co906 N907 1.995 . S
Co906 N912 2.008 . S
Co906 N917 1.995 . S
Co906 N922 2.282 . S
Co906 N928 2.282 . S
N907 Co906 1.995 . S
N907 C908 1.376 . S
N907 C911 1.383 . S
C908 N907 1.376 . S
C908 C909 1.446 . S
C908 C938 1.391 . S
C909 C908 1.446 . S
C909 C910 1.339 . S
C909 H944 0.949 . S
C910 C909 1.339 . S
C910 C911 1.439 . S
C910 H945 0.950 . S
C911 N907 1.383 . S
C911 C910 1.439 . S
C911 C940 1.392 . S
N912 Co906 2.008 . S
N912 C913 1.376 . S
N912 C916 1.374 . S
C913 N912 1.376 . S
C913 C914 1.443 . S
C913 C940 1.389 . S
C914 C913 1.443 . S
C914 C915 1.340 . S
C914 H946 0.951 . S
C915 C914 1.340 . S
C915 C916 1.439 . S
C915 H947 0.950 . S
C916 N912 1.374 . S
C916 C915 1.439 . S
C916 C941 1.395 . S
N917 Co906 1.995 . S
N917 C918 1.376 . S
N917 C921 1.383 . S
C918 N917 1.376 . S
C918 C919 1.446 . S
C918 C941 1.391 . S
C919 C918 1.446 . S
C919 C920 1.339 . S
C919 H948 0.949 . S
C920 C919 1.339 . S
C920 C921 1.439 . S
C920 H949 0.950 . S
C921 N917 1.383 . S
C921 C920 1.439 . S
C921 C939 1.392 . S
N922 Co906 2.282 . S
N922 C925 1.332 . S
N922 C927 1.332 . S
C923 C924 1.386 . S
C923 C926 1.388 . S
C924 C923 1.386 . S
C924 C925 1.382 . S
C924 H950 0.950 . S
C925 N922 1.332 . S
C925 C924 1.382 . S
C925 H936 0.952 . S
C926 C923 1.388 . S
C926 C927 1.382 . S
C926 H951 0.950 . S
C927 N922 1.332 . S
C927 C926 1.382 . S
C927 H937 0.948 . S
N928 Co906 2.282 . S
N928 C932 1.332 . S
N928 C933 1.332 . S
C929 C930 1.388 . S
C929 C933 1.382 . S
C929 H952 0.950 . S
C930 C929 1.388 . S
C930 C931 1.386 . S
C931 C930 1.386 . S
C931 C932 1.382 . S
C931 H953 0.950 . S
C932 N928 1.332 . S
C932 C931 1.382 . S
C932 H934 0.952 . S
C933 N928 1.332 . S
C933 C929 1.382 . S
C933 H935 0.948 . S
H934 C932 0.952 . S
H935 C933 0.948 . S
H936 C925 0.952 . S
H937 C927 0.948 . S
C938 C904 1.395 . S
C938 C908 1.391 . S
C939 C901 1.389 . S
C939 C921 1.392 . S
C940 C911 1.392 . S
C940 C913 1.389 . S
C941 C916 1.395 . S
C941 C918 1.391 . S
H942 C902 0.951 . S
H943 C903 0.950 . S
H944 C909 0.949 . S
H945 C910 0.950 . S
H946 C914 0.951 . S
H947 C915 0.950 . S
H948 C919 0.949 . S
H949 C920 0.950 . S
H950 C924 0.950 . S
H951 C926 0.950 . S
H952 C929 0.950 . S
H953 C931 0.950 . S
C954 C955 1.369 . S
C954 C956 1.419 . S
C954 H958 0.930 1_455 S
C955 C954 1.369 . S
C955 C964 1.429 . S
C956 C954 1.419 . S
C956 C957 1.363 . S
C956 H959 0.929 . S
C957 C956 1.363 . S
C957 C963 1.428 . S
H958 C954 0.930 1_655 S
H959 C956 0.929 . S
S960 N961 1.613 . S
S960 N962 1.610 . S
N961 S960 1.613 . S
N961 C964 1.350 . S
N962 S960 1.610 . S
N962 C963 1.351 . S
C963 C957 1.428 . S
C963 N962 1.351 . S
C963 C964 1.434 . S
C964 C955 1.429 . S
C964 N961 1.350 . S
C964 C963 1.434 . S
C965 C966 1.369 . S
C965 C967 1.419 . S
C965 H969 0.930 . S
C966 C965 1.369 . S
C966 C975 1.429 . S
C967 C965 1.419 . S
C967 C968 1.363 . S
C967 H970 0.929 . S
C968 C967 1.363 . S
C968 C974 1.428 . S
H969 C965 0.930 . S
H970 C967 0.929 . S
S971 N972 1.613 . S
S971 N973 1.610 . S
N972 S971 1.613 . S
N972 C975 1.350 . S
N973 S971 1.610 . S
N973 C974 1.351 . S
C974 C968 1.428 . S
C974 N973 1.351 . S
C974 C975 1.434 . S
C975 C966 1.429 . S
C975 N972 1.350 . S
C975 C974 1.434 . S
C976 C977 1.369 . S
C976 C978 1.419 . S
C976 H980 0.930 . S
C977 C976 1.369 . S
C977 C986 1.429 1_565 S
C978 C976 1.419 . S
C978 C979 1.363 . S
C978 H981 0.929 . S
C979 C978 1.363 . S
C979 C985 1.428 . S
H980 C976 0.930 . S
H981 C978 0.929 . S
S982 N983 1.613 . S
S982 N984 1.610 . S
N983 S982 1.613 . S
N983 C986 1.350 . S
N984 S982 1.610 . S
N984 C985 1.351 1_545 S
C985 C979 1.428 . S
C985 N984 1.351 1_565 S
C985 C986 1.434 1_565 S
C986 C977 1.429 1_545 S
C986 N983 1.350 . S
C986 C985 1.434 1_545 S
C987 C988 1.369 . S
C987 C989 1.419 . S
C987 H991 0.930 . S
C988 C987 1.369 . S
C988 C997 1.429 . S
C989 C987 1.419 . S
C989 C990 1.363 . S
C989 H992 0.929 . S
C990 C989 1.363 . S
C990 C996 1.428 . S
H991 C987 0.930 . S
H992 C989 0.929 . S
S993 N994 1.613 . S
S993 N995 1.610 . S
N994 S993 1.613 . S
N994 C997 1.350 . S
N995 S993 1.610 . S
N995 C996 1.351 . S
C996 C990 1.428 . S
C996 N995 1.351 . S
C996 C997 1.434 . S
C997 C988 1.429 . S
C997 N994 1.350 . S
C997 C996 1.434 . S
C998 C999 1.369 . S
C998 C1000 1.419 . S
C998 H1002 0.930 . S
C999 C998 1.369 . S
C999 C1008 1.429 . S
C1000 C998 1.419 . S
C1000 C1001 1.363 . S
C1000 H1003 0.929 . S
C1001 C1000 1.363 . S
C1001 C1007 1.428 . S
H1002 C998 0.930 . S
H1003 C1000 0.929 . S
S1004 N1005 1.613 . S
S1004 N1006 1.610 . S
N1005 S1004 1.613 . S
N1005 C1008 1.350 . S
N1006 S1004 1.610 . S
N1006 C1007 1.351 . S
C1007 C1001 1.428 . S
C1007 N1006 1.351 . S
C1007 C1008 1.434 . S
C1008 C999 1.429 . S
C1008 N1005 1.350 . S
C1008 C1007 1.434 . S
C1009 C1010 1.369 . S
C1009 C1011 1.419 . S
C1009 H1013 0.930 . S
C1010 C1009 1.369 . S
C1010 C1019 1.429 . S
C1011 C1009 1.419 . S
C1011 C1012 1.363 . S
C1011 H1014 0.929 . S
C1012 C1011 1.363 . S
C1012 C1018 1.428 . S
H1013 C1009 0.930 . S
H1014 C1011 0.929 . S
S1015 N1016 1.613 . S
S1015 N1017 1.610 . S
N1016 S1015 1.613 . S
N1016 C1019 1.350 . S
N1017 S1015 1.610 . S
N1017 C1018 1.351 . S
C1018 C1012 1.428 . S
C1018 N1017 1.351 . S
C1018 C1019 1.434 . S
C1019 C1010 1.429 . S
C1019 N1016 1.350 . S
C1019 C1018 1.434 . S
C1020 C1021 1.369 . S
C1020 C1022 1.419 . S
C1020 H1024 0.930 . S
C1021 C1020 1.369 . S
C1021 C1030 1.429 . S
C1022 C1020 1.419 . S
C1022 C1023 1.363 . S
C1022 H1025 0.929 . S
C1023 C1022 1.363 . S
C1023 C1029 1.428 . S
H1024 C1020 0.930 . S
H1025 C1022 0.929 . S
S1026 N1027 1.613 . S
S1026 N1028 1.610 . S
N1027 S1026 1.613 . S
N1027 C1030 1.350 . S
N1028 S1026 1.610 . S
N1028 C1029 1.351 . S
C1029 C1023 1.428 . S
C1029 N1028 1.351 . S
C1029 C1030 1.434 . S
C1030 C1021 1.429 . S
C1030 N1027 1.350 . S
C1030 C1029 1.434 . S
C1031 C1032 1.369 . S
C1031 C1033 1.419 . S
C1031 H1035 0.930 . S
C1032 C1031 1.369 . S
C1032 C1041 1.429 . S
C1033 C1031 1.419 . S
C1033 C1034 1.363 . S
C1033 H1036 0.929 . S
C1034 C1033 1.363 . S
C1034 C1040 1.428 . S
H1035 C1031 0.930 . S
H1036 C1033 0.929 . S
S1037 N1038 1.613 . S
S1037 N1039 1.610 . S
N1038 S1037 1.613 . S
N1038 C1041 1.350 . S
N1039 S1037 1.610 . S
N1039 C1040 1.351 . S
C1040 C1034 1.428 . S
C1040 N1039 1.351 . S
C1040 C1041 1.434 . S
C1041 C1032 1.429 . S
C1041 N1038 1.350 . S
C1041 C1040 1.434 . S
C1042 C1043 1.369 . S
C1042 C1044 1.419 . S
C1042 H1046 0.930 . S
C1043 C1042 1.369 . S
C1043 C1052 1.429 . S
C1044 C1042 1.419 . S
C1044 C1045 1.363 . S
C1044 H1047 0.929 . S
C1045 C1044 1.363 . S
C1045 C1051 1.428 . S
H1046 C1042 0.930 . S
H1047 C1044 0.929 . S
S1048 N1049 1.613 . S
S1048 N1050 1.610 . S
N1049 S1048 1.613 . S
N1049 C1052 1.350 . S
N1050 S1048 1.610 . S
N1050 C1051 1.351 . S
C1051 C1045 1.428 . S
C1051 N1050 1.351 . S
C1051 C1052 1.434 . S
C1052 C1043 1.429 . S
C1052 N1049 1.350 . S
C1052 C1051 1.434 . S
C1053 C1054 1.369 . S
C1053 C1055 1.419 . S
C1053 H1057 0.930 . S
C1054 C1053 1.369 . S
C1054 C1063 1.429 . S
C1055 C1053 1.419 . S
C1055 C1056 1.363 . S
C1055 H1058 0.929 . S
C1056 C1055 1.363 . S
C1056 C1062 1.428 . S
H1057 C1053 0.930 . S
H1058 C1055 0.929 . S
S1059 N1060 1.613 . S
S1059 N1061 1.610 . S
N1060 S1059 1.613 . S
N1060 C1063 1.350 . S
N1061 S1059 1.610 . S
N1061 C1062 1.351 . S
C1062 C1056 1.428 . S
C1062 N1061 1.351 . S
C1062 C1063 1.434 . S
C1063 C1054 1.429 . S
C1063 N1060 1.350 . S
C1063 C1062 1.434 . S
C1064 C1065 1.369 . S
C1064 C1066 1.419 . S
C1064 H1068 0.930 . S
C1065 C1064 1.369 . S
C1065 C1074 1.429 . S
C1066 C1064 1.419 . S
C1066 C1067 1.363 . S
C1066 H1069 0.929 . S
C1067 C1066 1.363 . S
C1067 C1073 1.428 . S
H1068 C1064 0.930 . S
H1069 C1066 0.929 . S
S1070 N1071 1.613 . S
S1070 N1072 1.610 . S
N1071 S1070 1.613 . S
N1071 C1074 1.350 . S
N1072 S1070 1.610 . S
N1072 C1073 1.351 . S
C1073 C1067 1.428 . S
C1073 N1072 1.351 . S
C1073 C1074 1.434 . S
C1074 C1065 1.429 . S
C1074 N1071 1.350 . S
C1074 C1073 1.434 . S
C1075 C1076 1.369 . S
C1075 C1077 1.419 . S
C1075 H1079 0.930 . S
C1076 C1075 1.369 . S
C1076 C1085 1.429 . S
C1077 C1075 1.419 . S
C1077 C1078 1.363 . S
C1077 H1080 0.929 . S
C1078 C1077 1.363 . S
C1078 C1084 1.428 . S
H1079 C1075 0.930 . S
H1080 C1077 0.929 . S
S1081 N1082 1.613 . S
S1081 N1083 1.610 . S
N1082 S1081 1.613 . S
N1082 C1085 1.350 . S
N1083 S1081 1.610 . S
N1083 C1084 1.351 . S
C1084 C1078 1.428 . S
C1084 N1083 1.351 . S
C1084 C1085 1.434 . S
C1085 C1076 1.429 . S
C1085 N1082 1.350 . S
C1085 C1084 1.434 . S
C1086 C1087 1.369 . S
C1086 C1088 1.419 . S
C1086 H1090 0.930 . S
C1087 C1086 1.369 . S
C1087 C1096 1.429 . S
C1088 C1086 1.419 . S
C1088 C1089 1.363 . S
C1088 H1091 0.929 . S
C1089 C1088 1.363 . S
C1089 C1095 1.428 . S
H1090 C1086 0.930 . S
H1091 C1088 0.929 . S
S1092 N1093 1.613 . S
S1092 N1094 1.610 . S
N1093 S1092 1.613 . S
N1093 C1096 1.350 . S
N1094 S1092 1.610 . S
N1094 C1095 1.351 . S
C1095 C1089 1.428 . S
C1095 N1094 1.351 . S
C1095 C1096 1.434 . S
C1096 C1087 1.429 . S
C1096 N1093 1.350 . S
C1096 C1095 1.434 . S
C1097 C1098 1.369 1_565 S
C1097 C1099 1.419 . S
C1097 H1101 0.930 . S
C1098 C1097 1.369 1_545 S
C1098 C1107 1.429 . S
C1099 C1097 1.419 . S
C1099 C1100 1.363 . S
C1099 H1102 0.929 . S
C1100 C1099 1.363 . S
C1100 C1106 1.428 1_565 S
H1101 C1097 0.930 . S
H1102 C1099 0.929 . S
S1103 N1104 1.613 . S
S1103 N1105 1.610 . S
N1104 S1103 1.613 . S
N1104 C1107 1.350 . S
N1105 S1103 1.610 . S
N1105 C1106 1.351 . S
C1106 C1100 1.428 1_545 S
C1106 N1105 1.351 . S
C1106 C1107 1.434 . S
C1107 C1098 1.429 . S
C1107 N1104 1.350 . S
C1107 C1106 1.434 . S
C1108 C1109 1.369 . S
C1108 C1110 1.419 1_455 S
C1108 H1112 0.930 . S
C1109 C1108 1.369 . S
C1109 C1118 1.429 . S
C1110 C1108 1.419 1_655 S
C1110 C1111 1.363 . S
C1110 H1113 0.929 . S
C1111 C1110 1.363 . S
C1111 C1117 1.428 1_655 S
H1112 C1108 0.930 . S
H1113 C1110 0.929 . S
S1114 N1115 1.613 . S
S1114 N1116 1.610 . S
N1115 S1114 1.613 . S
N1115 C1118 1.350 . S
N1116 S1114 1.610 . S
N1116 C1117 1.351 . S
C1117 C1111 1.428 1_455 S
C1117 N1116 1.351 . S
C1117 C1118 1.434 . S
C1118 C1109 1.429 . S
C1118 N1115 1.350 . S
C1118 C1117 1.434 . S
C1119 C1120 1.369 . S
C1119 C1121 1.419 . S
C1119 H1123 0.930 . S
C1120 C1119 1.369 . S
C1120 C1129 1.429 . S
C1121 C1119 1.419 . S
C1121 C1122 1.363 . S
C1121 H1124 0.929 . S
C1122 C1121 1.363 . S
C1122 C1128 1.428 . S
H1123 C1119 0.930 . S
H1124 C1121 0.929 . S
S1125 N1126 1.613 . S
S1125 N1127 1.610 . S
N1126 S1125 1.613 . S
N1126 C1129 1.350 . S
N1127 S1125 1.610 . S
N1127 C1128 1.351 . S
C1128 C1122 1.428 . S
C1128 N1127 1.351 . S
C1128 C1129 1.434 . S
C1129 C1120 1.429 . S
C1129 N1126 1.350 . S
C1129 C1128 1.434 . S
C1130 C1131 1.369 . S
C1130 C1132 1.419 1_545 S
C1130 H1134 0.930 . S
C1131 C1130 1.369 . S
C1131 C1140 1.429 . S
C1132 C1130 1.419 1_565 S
C1132 C1133 1.363 . S
C1132 H1135 0.929 . S
C1133 C1132 1.363 . S
C1133 C1139 1.428 . S
H1134 C1130 0.930 . S
H1135 C1132 0.929 . S
S1136 N1137 1.613 . S
S1136 N1138 1.610 1_545 S
N1137 S1136 1.613 . S
N1137 C1140 1.350 . S
N1138 S1136 1.610 1_565 S
N1138 C1139 1.351 . S
C1139 C1133 1.428 . S
C1139 N1138 1.351 . S
C1139 C1140 1.434 1_565 S
C1140 C1131 1.429 . S
C1140 N1137 1.350 . S
C1140 C1139 1.434 1_545 S
C1141 C1142 1.369 . S
C1141 C1143 1.419 1_455 S
C1141 H1145 0.930 . S
C1142 C1141 1.369 . S
C1142 C1151 1.429 . S
C1143 C1141 1.419 1_655 S
C1143 C1144 1.363 . S
C1143 H1146 0.929 . S
C1144 C1143 1.363 . S
C1144 C1150 1.428 . S
H1145 C1141 0.930 . S
H1146 C1143 0.929 . S
S1147 N1148 1.613 . S
S1147 N1149 1.610 1_455 S
N1148 S1147 1.613 . S
N1148 C1151 1.350 . S
N1149 S1147 1.610 1_655 S
N1149 C1150 1.351 . S
C1150 C1144 1.428 . S
C1150 N1149 1.351 . S
C1150 C1151 1.434 1_655 S
C1151 C1142 1.429 . S
C1151 N1148 1.350 . S
C1151 C1150 1.434 1_455 S
C1152 C1153 1.369 . S
C1152 C1154 1.419 . S
C1152 H1156 0.930 . S
C1153 C1152 1.369 . S
C1153 C1162 1.429 . S
C1154 C1152 1.419 . S
C1154 C1155 1.363 . S
C1154 H1157 0.929 . S
C1155 C1154 1.363 . S
C1155 C1161 1.428 . S
H1156 C1152 0.930 . S
H1157 C1154 0.929 . S
S1158 N1159 1.613 . S
S1158 N1160 1.610 . S
N1159 S1158 1.613 . S
N1159 C1162 1.350 . S
N1160 S1158 1.610 . S
N1160 C1161 1.351 . S
C1161 C1155 1.428 . S
C1161 N1160 1.351 . S
C1161 C1162 1.434 . S
C1162 C1153 1.429 . S
C1162 N1159 1.350 . S
C1162 C1161 1.434 . S
C1163 C1164 1.369 . S
C1163 C1165 1.419 . S
C1163 H1167 0.930 . S
C1164 C1163 1.369 . S
C1164 C1173 1.429 . S
C1165 C1163 1.419 . S
C1165 C1166 1.363 . S
C1165 H1168 0.929 . S
C1166 C1165 1.363 . S
C1166 C1172 1.428 . S
H1167 C1163 0.930 . S
H1168 C1165 0.929 . S
S1169 N1170 1.613 . S
S1169 N1171 1.610 . S
N1170 S1169 1.613 . S
N1170 C1173 1.350 . S
N1171 S1169 1.610 . S
N1171 C1172 1.351 . S
C1172 C1166 1.428 . S
C1172 N1171 1.351 . S
C1172 C1173 1.434 . S
C1173 C1164 1.429 . S
C1173 N1170 1.350 . S
C1173 C1172 1.434 . S
C1174 C1175 1.369 . S
C1174 C1176 1.419 . S
C1174 H1178 0.930 . S
C1175 C1174 1.369 . S
C1175 C1184 1.429 . S
C1176 C1174 1.419 . S
C1176 C1177 1.363 . S
C1176 H1179 0.929 . S
C1177 C1176 1.363 . S
C1177 C1183 1.428 . S
H1178 C1174 0.930 . S
H1179 C1176 0.929 . S
S1180 N1181 1.613 . S
S1180 N1182 1.610 . S
N1181 S1180 1.613 . S
N1181 C1184 1.350 . S
N1182 S1180 1.610 . S
N1182 C1183 1.351 . S
C1183 C1177 1.428 . S
C1183 N1182 1.351 . S
C1183 C1184 1.434 . S
C1184 C1175 1.429 . S
C1184 N1181 1.350 . S
C1184 C1183 1.434 . S
C1185 C1186 1.369 . S
C1185 C1187 1.419 . S
C1185 H1189 0.930 . S
C1186 C1185 1.369 . S
C1186 C1195 1.429 . S
C1187 C1185 1.419 . S
C1187 C1188 1.363 . S
C1187 H1190 0.929 . S
C1188 C1187 1.363 . S
C1188 C1194 1.428 . S
H1189 C1185 0.930 . S
H1190 C1187 0.929 . S
S1191 N1192 1.613 . S
S1191 N1193 1.610 . S
N1192 S1191 1.613 . S
N1192 C1195 1.350 . S
N1193 S1191 1.610 . S
N1193 C1194 1.351 . S
C1194 C1188 1.428 . S
C1194 N1193 1.351 . S
C1194 C1195 1.434 . S
C1195 C1186 1.429 . S
C1195 N1192 1.350 . S
C1195 C1194 1.434 . S
C1196 C1197 1.369 . S
C1196 C1198 1.419 . S
C1196 H1200 0.930 . S
C1197 C1196 1.369 . S
C1197 C1206 1.429 . S
C1198 C1196 1.419 . S
C1198 C1199 1.363 . S
C1198 H1201 0.929 . S
C1199 C1198 1.363 . S
C1199 C1205 1.428 . S
H1200 C1196 0.930 . S
H1201 C1198 0.929 . S
S1202 N1203 1.613 . S
S1202 N1204 1.610 . S
N1203 S1202 1.613 . S
N1203 C1206 1.350 . S
N1204 S1202 1.610 . S
N1204 C1205 1.351 . S
C1205 C1199 1.428 . S
C1205 N1204 1.351 . S
C1205 C1206 1.434 . S
C1206 C1197 1.429 . S
C1206 N1203 1.350 . S
C1206 C1205 1.434 . S
C1207 C1208 1.369 . S
C1207 C1209 1.419 . S
C1207 H1211 0.930 . S
C1208 C1207 1.369 . S
C1208 C1217 1.429 . S
C1209 C1207 1.419 . S
C1209 C1210 1.363 . S
C1209 H1212 0.929 . S
C1210 C1209 1.363 . S
C1210 C1216 1.428 . S
H1211 C1207 0.930 . S
H1212 C1209 0.929 . S
S1213 N1214 1.613 . S
S1213 N1215 1.610 . S
N1214 S1213 1.613 . S
N1214 C1217 1.350 . S
N1215 S1213 1.610 . S
N1215 C1216 1.351 . S
C1216 C1210 1.428 . S
C1216 N1215 1.351 . S
C1216 C1217 1.434 . S
C1217 C1208 1.429 . S
C1217 N1214 1.350 . S
C1217 C1216 1.434 . S
C1218 C1219 1.369 . S
C1218 C1220 1.419 . S
C1218 H1222 0.930 . S
C1219 C1218 1.369 . S
C1219 C1228 1.429 . S
C1220 C1218 1.419 . S
C1220 C1221 1.363 . S
C1220 H1223 0.929 . S
C1221 C1220 1.363 . S
C1221 C1227 1.428 . S
H1222 C1218 0.930 . S
H1223 C1220 0.929 . S
S1224 N1225 1.613 . S
S1224 N1226 1.610 . S
N1225 S1224 1.613 . S
N1225 C1228 1.350 . S
N1226 S1224 1.610 . S
N1226 C1227 1.351 . S
C1227 C1221 1.428 . S
C1227 N1226 1.351 . S
C1227 C1228 1.434 . S
C1228 C1219 1.429 . S
C1228 N1225 1.350 . S
C1228 C1227 1.434 . S
C1229 C1230 1.369 . S
C1229 C1231 1.419 . S
C1229 H1233 0.930 . S
C1230 C1229 1.369 . S
C1230 C1239 1.429 . S
C1231 C1229 1.419 . S
C1231 C1232 1.363 . S
C1231 H1234 0.929 . S
C1232 C1231 1.363 . S
C1232 C1238 1.428 . S
H1233 C1229 0.930 . S
H1234 C1231 0.929 . S
S1235 N1236 1.613 . S
S1235 N1237 1.610 . S
N1236 S1235 1.613 . S
N1236 C1239 1.350 . S
N1237 S1235 1.610 . S
N1237 C1238 1.351 . S
C1238 C1232 1.428 . S
C1238 N1237 1.351 . S
C1238 C1239 1.434 . S
C1239 C1230 1.429 . S
C1239 N1236 1.350 . S
C1239 C1238 1.434 . S
C1240 C1241 1.369 . S
C1240 C1242 1.419 . S
C1240 H1244 0.930 . S
C1241 C1240 1.369 . S
C1241 C1250 1.429 . S
C1242 C1240 1.419 . S
C1242 C1243 1.363 . S
C1242 H1245 0.929 . S
C1243 C1242 1.363 . S
C1243 C1249 1.428 . S
H1244 C1240 0.930 . S
H1245 C1242 0.929 . S
S1246 N1247 1.613 . S
S1246 N1248 1.610 . S
N1247 S1246 1.613 . S
N1247 C1250 1.350 . S
N1248 S1246 1.610 . S
N1248 C1249 1.351 . S
C1249 C1243 1.428 . S
C1249 N1248 1.351 . S
C1249 C1250 1.434 . S
C1250 C1241 1.429 . S
C1250 N1247 1.350 . S
C1250 C1249 1.434 . S
C1251 C1252 1.369 . S
C1251 C1253 1.419 . S
C1251 H1255 0.930 . S
C1252 C1251 1.369 . S
C1252 C1261 1.429 . S
C1253 C1251 1.419 . S
C1253 C1254 1.363 . S
C1253 H1256 0.929 . S
C1254 C1253 1.363 . S
C1254 C1260 1.428 . S
H1255 C1251 0.930 . S
H1256 C1253 0.929 . S
S1257 N1258 1.613 . S
S1257 N1259 1.610 . S
N1258 S1257 1.613 . S
N1258 C1261 1.350 . S
N1259 S1257 1.610 . S
N1259 C1260 1.351 . S
C1260 C1254 1.428 . S
C1260 N1259 1.351 . S
C1260 C1261 1.434 . S
C1261 C1252 1.429 . S
C1261 N1258 1.350 . S
C1261 C1260 1.434 . S
C1262 C1263 1.369 . S
C1262 C1264 1.419 . S
C1262 H1266 0.930 . S
C1263 C1262 1.369 . S
C1263 C1272 1.429 . S
C1264 C1262 1.419 . S
C1264 C1265 1.363 . S
C1264 H1267 0.929 . S
C1265 C1264 1.363 . S
C1265 C1271 1.428 . S
H1266 C1262 0.930 . S
H1267 C1264 0.929 . S
S1268 N1269 1.613 . S
S1268 N1270 1.610 . S
N1269 S1268 1.613 . S
N1269 C1272 1.350 . S
N1270 S1268 1.610 . S
N1270 C1271 1.351 . S
C1271 C1265 1.428 . S
C1271 N1270 1.351 . S
C1271 C1272 1.434 . S
C1272 C1263 1.429 . S
C1272 N1269 1.350 . S
C1272 C1271 1.434 . S
C1273 C1274 1.369 . S
C1273 C1275 1.419 . S
C1273 H1277 0.930 . S
C1274 C1273 1.369 . S
C1274 C1283 1.429 . S
C1275 C1273 1.419 . S
C1275 C1276 1.363 . S
C1275 H1278 0.929 . S
C1276 C1275 1.363 . S
C1276 C1282 1.428 . S
H1277 C1273 0.930 . S
H1278 C1275 0.929 . S
S1279 N1280 1.613 . S
S1279 N1281 1.610 . S
N1280 S1279 1.613 . S
N1280 C1283 1.350 . S
N1281 S1279 1.610 . S
N1281 C1282 1.351 . S
C1282 C1276 1.428 . S
C1282 N1281 1.351 . S
C1282 C1283 1.434 . S
C1283 C1274 1.429 . S
C1283 N1280 1.350 . S
C1283 C1282 1.434 . S
C1284 C1285 1.369 . S
C1284 C1286 1.419 . S
C1284 H1288 0.930 . S
C1285 C1284 1.369 . S
C1285 C1294 1.429 . S
C1286 C1284 1.419 . S
C1286 C1287 1.363 . S
C1286 H1289 0.929 . S
C1287 C1286 1.363 . S
C1287 C1293 1.428 . S
H1288 C1284 0.930 . S
H1289 C1286 0.929 . S
S1290 N1291 1.613 . S
S1290 N1292 1.610 . S
N1291 S1290 1.613 . S
N1291 C1294 1.350 . S
N1292 S1290 1.610 . S
N1292 C1293 1.351 . S
C1293 C1287 1.428 . S
C1293 N1292 1.351 . S
C1293 C1294 1.434 . S
C1294 C1285 1.429 . S
C1294 N1291 1.350 . S
C1294 C1293 1.434 . S
C1295 C1296 1.369 1_545 S
C1295 C1297 1.419 . S
C1295 H1299 0.930 . S
C1296 C1295 1.369 1_565 S
C1296 C1305 1.429 . S
C1297 C1295 1.419 . S
C1297 C1298 1.363 1_545 S
C1297 H1300 0.929 . S
C1298 C1297 1.363 1_565 S
C1298 C1304 1.428 . S
H1299 C1295 0.930 . S
H1300 C1297 0.929 . S
S1301 N1302 1.613 . S
S1301 N1303 1.610 . S
N1302 S1301 1.613 . S
N1302 C1305 1.350 . S
N1303 S1301 1.610 . S
N1303 C1304 1.351 . S
C1304 C1298 1.428 . S
C1304 N1303 1.351 . S
C1304 C1305 1.434 . S
C1305 C1296 1.429 . S
C1305 N1302 1.350 . S
C1305 C1304 1.434 . S
C1306 C1307 1.369 . S
C1306 C1308 1.419 . S
C1306 H1310 0.930 1_455 S
C1307 C1306 1.369 . S
C1307 C1316 1.429 . S
C1308 C1306 1.419 . S
C1308 C1309 1.363 . S
C1308 H1311 0.929 1_455 S
C1309 C1308 1.363 . S
C1309 C1315 1.428 . S
H1310 C1306 0.930 1_655 S
H1311 C1308 0.929 1_655 S
S1312 N1313 1.613 . S
S1312 N1314 1.610 . S
N1313 S1312 1.613 . S
N1313 C1316 1.350 . S
N1314 S1312 1.610 . S
N1314 C1315 1.351 . S
C1315 C1309 1.428 . S
C1315 N1314 1.351 . S
C1315 C1316 1.434 . S
C1316 C1307 1.429 . S
C1316 N1313 1.350 . S
C1316 C1315 1.434 . S
C1317 C1318 1.369 1_554 S
C1317 C1319 1.419 . S
C1317 H1321 0.930 . S
C1318 C1317 1.369 1_556 S
C1318 C1327 1.429 . S
C1319 C1317 1.419 . S
C1319 C1320 1.363 . S
C1319 H1322 0.929 . S
C1320 C1319 1.363 . S
C1320 C1326 1.428 1_554 S
H1321 C1317 0.930 . S
H1322 C1319 0.929 . S
S1323 N1324 1.613 . S
S1323 N1325 1.610 . S
N1324 S1323 1.613 . S
N1324 C1327 1.350 . S
N1325 S1323 1.610 . S
N1325 C1326 1.351 . S
C1326 C1320 1.428 1_556 S
C1326 N1325 1.351 . S
C1326 C1327 1.434 . S
C1327 C1318 1.429 . S
C1327 N1324 1.350 . S
C1327 C1326 1.434 . S
C1328 C1329 1.369 . S
C1328 C1330 1.419 . S
C1328 H1332 0.930 . S
C1329 C1328 1.369 . S
C1329 C1338 1.429 1_556 S
C1330 C1328 1.419 . S
C1330 C1331 1.363 1_556 S
C1330 H1333 0.929 . S
C1331 C1330 1.363 1_554 S
C1331 C1337 1.428 . S
H1332 C1328 0.930 . S
H1333 C1330 0.929 . S
S1334 N1335 1.614 1_565 S
S1334 N1336 1.605 1_565 S
N1335 S1334 1.614 1_545 S
N1335 C1338 1.350 . S
N1336 S1334 1.605 1_545 S
N1336 C1337 1.351 . S
C1337 C1331 1.428 . S
C1337 N1336 1.351 . S
C1337 C1338 1.434 . S
C1338 C1329 1.429 1_554 S
C1338 N1335 1.350 . S
C1338 C1337 1.434 . S
C1339 C1340 1.369 . S
C1339 C1341 1.419 . S
C1339 H1343 0.930 . S
C1340 C1339 1.369 . S
C1340 C1349 1.430 1_656 S
C1341 C1339 1.419 . S
C1341 C1342 1.363 1_556 S
C1341 H1344 0.929 . S
C1342 C1341 1.363 1_554 S
C1342 C1348 1.428 . S
H1343 C1339 0.930 . S
H1344 C1341 0.929 . S
S1345 N1346 1.613 . S
S1345 N1347 1.610 . S
N1346 S1345 1.613 . S
N1346 C1349 1.349 . S
N1347 S1345 1.610 . S
N1347 C1348 1.351 1_455 S
C1348 C1342 1.428 . S
C1348 N1347 1.351 1_655 S
C1348 C1349 1.433 1_655 S
C1349 C1340 1.430 1_454 S
C1349 N1346 1.349 . S
C1349 C1348 1.433 1_455 S
C955 C39 2.489 . S
C957 C781 2.490 1_554 S
C966 C674 2.499 1_554 S
C968 C91 2.500 . S
C977 C144 2.499 . S
C979 C728 2.488 1_554 S
C988 C357 2.488 . S
C990 C145 2.491 . S
C999 C409 2.499 . S
C1001 C38 2.500 . S
C1010 C463 2.492 . S
C1012 C92 2.488 . S
C1021 C181 1.832 . S
C1023 C605 1.826 . S
C1032 C499 1.834 . S
C1034 C234 1.824 . S
C1043 C552 1.824 . S
C1045 C294 1.815 . S
C1054 C287 1.834 . S
C1056 C817 1.824 . S
C1065 C188 1.807 . S
C1067 C870 1.833 . S
C1076 C930 1.819 . S
C1078 C241 1.810 . S
C1087 C675 2.489 . S
C1089 C462 2.500 . S
C1098 C356 2.500 . S
C1100 C727 2.498 . S
C1109 C780 2.501 . S
C1111 C410 2.489 . S
C1120 C923 1.832 . S
C1122 C506 1.810 . S
C1131 C559 1.816 . S
C1133 C824 1.810 . S
C1142 C877 1.813 . S
C1144 C612 1.815 . S
C1153 C833 1.579 . S
C1155 C29 1.580 . S
C1164 C75 1.574 . S
C1166 C886 1.579 . S
C1175 C128 1.576 . S
C1177 C940 1.583 . S
C1186 C135 1.584 . S
C1188 C621 1.575 . S
C1197 C515 1.575 . S
C1199 C22 1.578 . S
C1208 C82 1.581 . S
C1210 C568 1.578 . S
C1219 C347 1.580 . S
C1221 C197 1.579 . S
C1230 C393 1.577 . S
C1232 C250 1.577 . S
C1241 C304 1.585 . S
C1243 C453 1.580 . S
C1252 C303 1.577 . S
C1254 C771 1.581 . S
C1263 C198 1.582 . S
C1265 C658 1.577 . S
C1274 C251 1.585 . S
C1276 C718 1.580 . S
C1285 C446 1.578 . S
C1287 C939 1.576 . S
C1296 C340 1.580 . S
C1298 C834 1.581 . S
C1307 C887 1.581 . S
C1309 C400 1.583 . S
C1318 C665 1.581 . S
C1320 C516 1.583 . S
C1329 C711 1.575 . S
C1331 C569 1.583 . S
C1340 C764 1.575 . S
C1342 C622 1.584 . S
