# Generated by pormake.
# Topology acs-a, (4)-cn, num edge types: 1
# Building blocks:
#     Node 0, Type 0, BuildingBlock: QUQFOY_clean_sbu_1, # of connection points: 4
#     Node 1, Type 0, BuildingBlock: QUQFOY_clean_sbu_1, # of connection points: 4
#     Node 2, Type 0, BuildingBlock: QUQFOY_clean_sbu_1, # of connection points: 4
#     Node 3, Type 0, BuildingBlock: QUQFOY_clean_sbu_1, # of connection points: 4
#     Node 4, Type 0, BuildingBlock: QUQFOY_clean_sbu_1, # of connection points: 4
#     Node 5, Type 0, BuildingBlock: QUQFOY_clean_sbu_1, # of connection points: 4
#     Node 6, Type 0, BuildingBlock: QUQFOY_clean_sbu_1, # of connection points: 4
#     Node 7, Type 0, BuildingBlock: QUQFOY_clean_sbu_1, # of connection points: 4
#     Node 8, Type 0, BuildingBlock: QUQFOY_clean_sbu_1, # of connection points: 4
#     Node 9, Type 0, BuildingBlock: QUQFOY_clean_sbu_1, # of connection points: 4
#     Node 10, Type 0, BuildingBlock: QUQFOY_clean_sbu_1, # of connection points: 4
#     Node 11, Type 0, BuildingBlock: QUQFOY_clean_sbu_1, # of connection points: 4
#     Edge 12, Type (0, 0), BuildingBlock: OJICUG_clean_linker_0, # of connection points: 2
#     Edge 13, Type (0, 0), BuildingBlock: OJICUG_clean_linker_0, # of connection points: 2
#     Edge 14, Type (0, 0), BuildingBlock: OJICUG_clean_linker_0, # of connection points: 2
#     Edge 15, Type (0, 0), BuildingBlock: OJICUG_clean_linker_0, # of connection points: 2
#     Edge 16, Type (0, 0), BuildingBlock: OJICUG_clean_linker_0, # of connection points: 2
#     Edge 17, Type (0, 0), BuildingBlock: OJICUG_clean_linker_0, # of connection points: 2
#     Edge 18, Type (0, 0), BuildingBlock: OJICUG_clean_linker_0, # of connection points: 2
#     Edge 19, Type (0, 0), BuildingBlock: OJICUG_clean_linker_0, # of connection points: 2
#     Edge 20, Type (0, 0), BuildingBlock: OJICUG_clean_linker_0, # of connection points: 2
#     Edge 21, Type (0, 0), BuildingBlock: OJICUG_clean_linker_0, # of connection points: 2
#     Edge 22, Type (0, 0), BuildingBlock: OJICUG_clean_linker_0, # of connection points: 2
#     Edge 23, Type (0, 0), BuildingBlock: OJICUG_clean_linker_0, # of connection points: 2
#     Edge 24, Type (0, 0), BuildingBlock: OJICUG_clean_linker_0, # of connection points: 2
#     Edge 25, Type (0, 0), BuildingBlock: OJICUG_clean_linker_0, # of connection points: 2
#     Edge 26, Type (0, 0), BuildingBlock: OJICUG_clean_linker_0, # of connection points: 2
#     Edge 27, Type (0, 0), BuildingBlock: OJICUG_clean_linker_0, # of connection points: 2
#     Edge 28, Type (0, 0), BuildingBlock: OJICUG_clean_linker_0, # of connection points: 2
#     Edge 29, Type (0, 0), BuildingBlock: OJICUG_clean_linker_0, # of connection points: 2
#     Edge 30, Type (0, 0), BuildingBlock: OJICUG_clean_linker_0, # of connection points: 2
#     Edge 31, Type (0, 0), BuildingBlock: OJICUG_clean_linker_0, # of connection points: 2
#     Edge 32, Type (0, 0), BuildingBlock: OJICUG_clean_linker_0, # of connection points: 2
#     Edge 33, Type (0, 0), BuildingBlock: OJICUG_clean_linker_0, # of connection points: 2
#     Edge 34, Type (0, 0), BuildingBlock: OJICUG_clean_linker_0, # of connection points: 2
#     Edge 35, Type (0, 0), BuildingBlock: OJICUG_clean_linker_0, # of connection points: 2
# Relax obj value: 0.470
# Max RMSD: 0.278
# Mean RMSD: 0.247
data_MOF--net-acs-a--node1-QUQFOY_clean_sbu_1--edge1-OJICUG_clean_linker_0
_symmetry_space_group_name_H-M    P1
_symmetry_Int_Tables_number       1
_symmetry_cell_setting            triclinic
loop_
_symmetry_equiv_pos_as_xyz
'x, y, z'
_cell_length_a     34.907211
_cell_length_b     35.082288
_cell_length_c     38.733005
_cell_angle_alpha  90.075936
_cell_angle_beta   90.173269
_cell_angle_gamma 111.43342
loop_
_atom_site_label
_atom_site_type_symbol
_atom_site_fract_x
_atom_site_fract_y
_atom_site_fract_z
_atom_type_partial_charge
O0 O 0.57213 0.15867 0.03808 0.0
Cd1 Cd 0.59292 0.11157 0.03793 0.0
Cd2 Cd 0.59685 0.12277 0.11046 0.0
O3 O 0.5596 0.15378 0.09391 0.0
O4 O 0.56632 0.07657 -0.00164 0.0
O5 O 0.55291 0.05813 0.05334 0.0
C6 C 0.54461 0.0505 0.02087 0.0
C7 C 0.59404 0.11605 0.17118 0.0
C8 C 0.55636 0.16837 0.0645 0.0
C9 C 0.67576 0.14057 0.06558 0.0
O10 O 0.65748 0.14141 0.09378 0.0
O11 O 0.65517 0.12653 0.03833 0.0
O12 O 0.61026 0.15062 0.15595 0.0
O13 O 0.57876 0.08399 0.15195 0.0
O14 O 0.3468 0.54445 0.55826 0.0
Cd15 Cd 0.40858 0.57207 0.55111 0.0
Cd16 Cd 0.41391 0.58486 0.62039 0.0
O17 O 0.35072 0.55858 0.61387 0.0
O18 O 0.42424 0.54929 0.5094 0.0
O19 O 0.44662 0.54357 0.56231 0.0
C20 C 0.44632 0.53622 0.52953 0.0
C21 C 0.43471 0.58067 0.67753 0.0
C22 C 0.32933 0.54422 0.58696 0.0
C23 C 0.44229 0.65821 0.57198 0.0
O24 O 0.44139 0.64384 0.60215 0.0
O25 O 0.42962 0.63421 0.54644 0.0
O26 O 0.4143 0.60293 0.66875 0.0
O27 O 0.44323 0.55917 0.65389 0.0
O28 O 0.81865 0.3976 0.09478 0.0
Cd29 Cd 0.84656 0.35711 0.10959 0.0
Cd30 Cd 0.85379 0.35961 0.03644 0.0
O31 O 0.81006 0.38512 0.039 0.0
O32 O 0.81963 0.34518 0.1553 0.0
O33 O 0.88684 0.37261 0.15055 0.0
C34 C 0.85491 0.35919 0.17013 0.0
C35 C 0.9154 0.40341 0.01587 0.0
C36 C 0.80335 0.40214 0.06598 0.0
C37 C 0.82052 0.27759 0.06443 0.0
O38 O 0.83407 0.29723 0.03683 0.0
O39 O 0.82293 0.29662 0.09283 0.0
O40 O 0.88625 0.38281 0.99495 0.0
O41 O 0.91039 0.3963 0.04867 0.0
O42 O 0.39225 0.8115 0.54353 0.0
Cd43 Cd 0.36704 0.85533 0.54261 0.0
Cd44 Cd 0.36138 0.84239 0.61581 0.0
O45 O 0.40297 0.81616 0.59971 0.0
O46 O 0.39066 0.88876 0.50167 0.0
O47 O 0.40424 0.9113 0.55574 0.0
C48 C 0.41144 0.91715 0.52302 0.0
C49 C 0.36253 0.8486 0.67669 0.0
C50 C 0.40855 0.80305 0.57025 0.0
C51 C 0.28346 0.82 0.56824 0.0
O52 O 0.30119 0.82005 0.59705 0.0
O53 O 0.30442 0.83568 0.54169 0.0
O54 O 0.34883 0.81395 0.6611 0.0
O55 O 0.37593 0.88097 0.65775 0.0
O56 O 0.63602 0.42969 0.03909 0.0
Cd57 Cd 0.57347 0.40533 0.03748 0.0
Cd58 Cd 0.57682 0.39763 0.10955 0.0
O59 O 0.63811 0.42383 0.09561 0.0
O60 O 0.55437 0.42649 0.99655 0.0
O61 O 0.5397 0.43769 0.05065 0.0
C62 C 0.5362 0.44267 0.01783 0.0
C63 C 0.57036 0.40142 0.17005 0.0
C64 C 0.65645 0.43363 0.06683 0.0
C65 C 0.53851 0.3214 0.06363 0.0
O66 O 0.54513 0.33819 0.09325 0.0
O67 O 0.54822 0.34306 0.03658 0.0
O68 O 0.58887 0.38023 0.15555 0.0
O69 O 0.555 0.42164 0.15018 0.0
O70 O 0.15827 0.56891 0.60912 0.0
Cd71 Cd 0.11948 0.60135 0.61433 0.0
Cd72 Cd 0.11896 0.59212 0.54331 0.0
O73 O 0.16424 0.56971 0.55248 0.0
O74 O 0.1331 0.61908 0.6627 0.0
O75 O 0.07029 0.57986 0.6472 0.0
C76 C 0.09548 0.59982 0.67105 0.0
C77 C 0.05899 0.54483 0.52253 0.0
C78 C 0.17418 0.56067 0.582 0.0
C79 C 0.14474 0.67686 0.56594 0.0
O80 O 0.13642 0.6544 0.53917 0.0
O81 O 0.13949 0.66066 0.59572 0.0
O82 O 0.08898 0.5637 0.50194 0.0
O83 O 0.06236 0.55518 0.55482 0.0
O84 O 0.81407 0.38988 0.45044 0.0
Cd85 Cd 0.85773 0.36424 0.45305 0.0
Cd86 Cd 0.84893 0.36004 0.37997 0.0
O87 O 0.82107 0.40066 0.39443 0.0
O88 O 0.89102 0.38809 0.49426 0.0
O89 O 0.91428 0.40045 0.44039 0.0
C90 C 0.91991 0.4081 0.47312 0.0
C91 C 0.85623 0.36083 0.31939 0.0
C92 C 0.8065 0.40599 0.42327 0.0
C93 C 0.8235 0.28154 0.42597 0.0
O94 O 0.82551 0.29993 0.39736 0.0
O95 O 0.83759 0.30178 0.45332 0.0
O96 O 0.82122 0.34711 0.33444 0.0
O97 O 0.8885 0.3747 0.33876 0.0
O98 O 0.29489 0.83195 0.95863 0.0
Cd99 Cd 0.35739 0.8503 0.96 0.0
Cd100 Cd 0.35593 0.84005 0.88703 0.0
O101 O 0.29481 0.81794 0.90308 0.0
O102 O 0.38199 0.88613 -0.00038 0.0
O103 O 0.39531 0.90471 0.94465 0.0
C104 C 0.40306 0.91267 0.97715 0.0
C105 C 0.3599 0.8473 0.82627 0.0
C106 C 0.27544 0.81735 0.93101 0.0
C107 C 0.39985 0.79858 0.93414 0.0
O108 O 0.39657 0.81332 0.90477 0.0
O109 O 0.38152 0.80565 0.96014 0.0
O110 O 0.34549 0.81238 0.84124 0.0
O111 O 0.37258 0.87933 0.84579 0.0
O112 O 0.64011 0.42617 0.39346 0.0
Cd113 Cd 0.57869 0.39959 0.37961 0.0
Cd114 Cd 0.57596 0.40805 0.45197 0.0
O115 O 0.63851 0.43186 0.45004 0.0
O116 O 0.59029 0.3817 0.33369 0.0
O117 O 0.55626 0.42297 0.33889 0.0
C118 C 0.57147 0.40257 0.31912 0.0
C119 C 0.54013 0.44595 0.47336 0.0
C120 C 0.6587 0.43591 0.42227 0.0
C121 C 0.54047 0.32387 0.42583 0.0
O122 O 0.5501 0.34581 0.45282 0.0
O123 O 0.54731 0.34033 0.39615 0.0
O124 O 0.55853 0.42906 0.4938 0.0
O125 O 0.54247 0.44132 0.44037 0.0
O126 O 0.1568 0.56763 0.93594 0.0
Cd127 Cd 0.11092 0.58929 0.9445 0.0
Cd128 Cd 0.11467 0.60175 0.87363 0.0
O129 O 0.15409 0.57006 0.87919 0.0
O130 O 0.08202 0.56061 0.98592 0.0
O131 O 0.05435 0.55149 0.93328 0.0
C132 C 0.0518 0.54124 0.96553 0.0
C133 C 0.09254 0.6009 0.81624 0.0
C134 C 0.16853 0.56039 0.90654 0.0
C135 C 0.13674 0.67502 0.9244 0.0
O136 O 0.13293 0.6603 0.89404 0.0
O137 O 0.1276 0.6513 0.95028 0.0
O138 O 0.1296 0.62105 0.8259 0.0
O139 O 0.06681 0.57998 0.83918 0.0
O140 O 0.65826 0.13121 0.45371 0.0
Cd141 Cd 0.59588 0.11532 0.45439 0.0
Cd142 Cd 0.59901 0.1249 0.38129 0.0
O143 O 0.65984 0.14418 0.39795 0.0
O144 O 0.57109 0.08233 0.49527 0.0
O145 O 0.55612 0.06063 0.44107 0.0
C146 C 0.54904 0.05473 0.47381 0.0
C147 C 0.59548 0.11718 0.32061 0.0
C148 C 0.67848 0.14444 0.42629 0.0
C149 C 0.5583 0.17092 0.42656 0.0
O150 O 0.56173 0.156 0.39732 0.0
O151 O 0.57415 0.16177 0.45324 0.0
O152 O 0.61187 0.15199 0.3356 0.0
O153 O 0.58054 0.08542 0.34007 0.0
O154 O 0.34652 0.55955 0.88189 0.0
Cd155 Cd 0.41008 0.58451 0.8787 0.0
Cd156 Cd 0.39963 0.56701 0.94633 0.0
O157 O 0.33848 0.53918 0.93601 0.0
O158 O 0.41426 0.60481 0.83079 0.0
O159 O 0.43982 0.55851 0.84602 0.0
C160 C 0.4336 0.58143 0.8224 0.0
C161 C 0.43819 0.5311 0.96608 0.0
C162 C 0.32316 0.54243 0.90695 0.0
C163 C 0.43494 0.65449 0.93022 0.0
O164 O 0.41927 0.62873 0.95397 0.0
O165 O 0.43761 0.64224 0.89978 0.0
O166 O 0.41477 0.54164 0.98676 0.0
O167 O 0.43918 0.54087 0.93379 0.0
C168 C 0.61157 0.15161 0.2637 0.0
C169 C 0.59438 0.11507 0.2824 0.0
H170 H 0.62483 0.18036 0.21463 0.0
C171 C 0.57671 0.07795 0.2642 0.0
H172 H 0.62547 0.18082 0.27672 0.0
C173 C 0.57634 0.07768 0.22786 0.0
C174 C 0.59363 0.11453 0.2094 0.0
H175 H 0.56323 0.0493 0.27794 0.0
H176 H 0.56259 0.04882 0.21432 0.0
C177 C 0.61119 0.15135 0.22785 0.0
C178 C 0.45817 0.61775 0.73207 0.0
C179 C 0.44682 0.58069 0.71388 0.0
H180 H 0.46384 0.64676 0.78122 0.0
C181 C 0.43964 0.54409 0.73206 0.0
H182 H 0.46423 0.64638 0.71854 0.0
C183 C 0.43938 0.5443 0.76836 0.0
C184 C 0.44631 0.58111 0.78629 0.0
H185 H 0.43058 0.51514 0.71843 0.0
H186 H 0.43013 0.5155 0.78211 0.0
C187 C 0.45794 0.61796 0.76791 0.0
C188 C 0.89465 0.37685 0.22646 0.0
C189 C 0.85727 0.35949 0.20829 0.0
H190 H 0.92397 0.39104 0.27635 0.0
C191 C 0.8206 0.34224 0.22698 0.0
H192 H 0.9234 0.39034 0.2127 0.0
C193 C 0.82091 0.34264 0.2628 0.0
C194 C 0.85791 0.36029 0.28123 0.0
H195 H 0.79121 0.32843 0.21398 0.0
H196 H 0.79176 0.32911 0.27601 0.0
C197 C 0.89497 0.37725 0.26279 0.0
C198 C 0.34686 0.81259 0.76911 0.0
C199 C 0.36131 0.84932 0.78803 0.0
H200 H 0.33597 0.78375 0.71982 0.0
C201 C 0.37651 0.88665 0.76999 0.0
H202 H 0.33494 0.78321 0.782 0.0
C203 C 0.37711 0.88697 0.73366 0.0
C204 C 0.36251 0.84996 0.71496 0.0
H205 H 0.38786 0.91547 0.78388 0.0
H206 H 0.38893 0.91602 0.72029 0.0
C207 C 0.34745 0.8129 0.73323 0.0
C208 C 0.58158 0.37495 0.26254 0.0
C209 C 0.56827 0.40222 0.28103 0.0
H210 H 0.59227 0.35329 0.21372 0.0
C211 C 0.55353 0.4287 0.26269 0.0
H212 H 0.59274 0.35378 0.27568 0.0
C213 C 0.55326 0.42842 0.22635 0.0
C214 C 0.56772 0.40165 0.20814 0.0
H215 H 0.54299 0.44998 0.27633 0.0
H216 H 0.54251 0.44949 0.21261 0.0
C217 C 0.58131 0.37467 0.22676 0.0
C218 C 0.0595 0.56583 0.72513 0.0
C219 C 0.08338 0.60132 0.70718 0.0
H220 H 0.04327 0.53776 0.77511 0.0
C221 C 0.10262 0.63787 0.72548 0.0
H222 H 0.04458 0.53726 0.71142 0.0
C223 C 0.10185 0.63817 0.76131 0.0
C224 C 0.08186 0.60191 0.7796 0.0
H225 H 0.1208 0.66573 0.71213 0.0
H226 H 0.11948 0.66626 0.77478 0.0
C227 C 0.05874 0.56612 0.76142 0.0
C228 C 0.48303 -0.01171 0.03419 0.0
C229 C 0.50901 0.01461 0.00971 0.0
H230 H 0.42863 0.93583 0.04311 0.0
C231 C 0.49898 0.00808 0.97447 0.0
H232 H 0.48972 -0.00721 0.06155 0.0
C233 C 0.46375 0.97571 0.96391 0.0
C234 C 0.4379 0.94924 0.98838 0.0
H235 H 0.51822 0.02808 0.95498 0.0
H236 H 0.45714 0.97113 0.93654 0.0
C237 C 0.4478 0.95591 0.02363 0.0
C238 C 0.49311 0.49748 0.5371 0.0
C239 C 0.47063 0.51346 0.5152 0.0
H240 H 0.53278 0.46356 0.54097 0.0
C241 C 0.47151 0.50748 0.47937 0.0
H242 H 0.49302 0.50163 0.56481 0.0
C243 C 0.49436 0.48578 0.46568 0.0
C244 C 0.51663 0.46958 0.4876 0.0
H245 H 0.45452 0.51953 0.46183 0.0
H246 H 0.49436 0.48152 0.43798 0.0
C247 C 0.51586 0.47568 0.52342 0.0
C248 C 0.01432 0.49562 0.01355 0.0
C249 C 0.01658 0.50633 0.97846 0.0
H250 H 0.98084 0.4542 0.05287 0.0
C251 C -0.0137 0.48188 0.95557 0.0
H252 H 0.03742 0.5137 0.03179 0.0
C253 C 0.95418 0.44752 0.96758 0.0
C254 C 0.95166 0.43706 0.00275 0.0
H255 H -0.01253 0.48913 0.92832 0.0
H256 H 0.93098 0.42958 0.94936 0.0
C257 C 0.98213 0.46132 0.0256 0.0
C258 C 0.50553 0.01441 0.52188 0.0
C259 C 0.51445 0.01895 0.48642 0.0
H260 H 0.46546 0.97903 0.56126 0.0
C261 C 0.48834 -0.00937 0.46303 0.0
H262 H 0.5249 0.03598 0.54053 0.0
C263 C 0.45407 0.95824 0.4749 0.0
C264 C 0.44527 0.95357 0.51037 0.0
H265 H 0.49419 -0.00645 0.43553 0.0
H266 H 0.43477 0.93662 0.45625 0.0
C267 C 0.47124 0.98203 0.53374 0.0
C268 C 0.46458 0.5012 0.01484 0.0
C269 C 0.46342 0.50865 0.97928 0.0
H270 H 0.48877 0.47462 0.05498 0.0
C271 C 0.48667 0.49464 0.95658 0.0
H272 H 0.44704 0.51175 0.03298 0.0
C273 C 0.51048 0.47332 0.96919 0.0
C274 C 0.51159 0.46581 0.00473 0.0
H275 H 0.48637 0.49997 0.92906 0.0
H276 H 0.52798 0.46273 0.95104 0.0
C277 C 0.48855 0.48004 0.02746 0.0
C278 C -0.01301 0.46524 0.46287 0.0
C279 C 0.95673 0.44159 0.48594 0.0
H280 H 0.04283 0.51686 0.4563 0.0
C281 C 0.96012 0.45242 0.52108 0.0
H282 H -0.01496 0.45784 0.43561 0.0
C283 C -0.00707 0.48649 0.53288 0.0
C284 C 0.02305 0.5103 0.50978 0.0
H285 H 0.93711 0.43495 0.53948 0.0
H286 H -0.00525 0.49399 0.56012 0.0
C287 C 0.01988 0.49926 0.4747 0.0
C288 C 0.52675 0.21581 0.09207 0.0
C289 C 0.53936 0.20116 0.06208 0.0
H290 H 0.51522 0.26548 0.11588 0.0
C291 C 0.54109 0.22193 0.03078 0.0
H292 H 0.52417 0.20003 0.11647 0.0
C293 C 0.53571 0.25945 0.03039 0.0
C294 C 0.52872 0.2768 0.06135 0.0
H295 H 0.54985 0.21096 0.00704 0.0
H296 H 0.54091 0.27648 0.00644 0.0
C297 C 0.52143 0.25332 0.0917 0.0
C298 C 0.26585 0.54164 0.6181 0.0
C299 C 0.28462 0.5356 0.58757 0.0
H300 H 0.21564 0.55404 0.64035 0.0
C301 C 0.26239 0.52937 0.55641 0.0
H302 H 0.2819 0.54599 0.64262 0.0
C303 C 0.22455 0.53432 0.55508 0.0
C304 C 0.20813 0.54522 0.58491 0.0
H305 H 0.27566 0.52406 0.53248 0.0
H306 H 0.20959 0.53231 0.53023 0.0
C307 C 0.22785 0.54635 0.61678 0.0
C308 C 0.77457 0.21637 0.03166 0.0
C309 C 0.79365 0.2338 0.06291 0.0
H310 H 0.72168 0.17179 0.00786 0.0
C311 C 0.77946 0.21237 0.0938 0.0
H312 H 0.78506 0.23183 0.00735 0.0
C313 C 0.74313 0.17799 0.09409 0.0
C314 C 0.72045 0.16446 0.0635 0.0
H315 H 0.79404 0.22448 0.11824 0.0
H316 H 0.73076 0.16463 0.11875 0.0
C317 C 0.73814 0.18184 0.03195 0.0
C318 C 0.42772 0.75146 0.53713 0.0
C319 C 0.42933 0.77324 0.56794 0.0
H320 H 0.43187 0.69783 0.51392 0.0
C321 C 0.44589 0.76223 0.5977 0.0
H322 H 0.41595 0.75971 0.51353 0.0
C323 C 0.45541 0.72693 0.59784 0.0
C324 C 0.44817 0.7019 0.56829 0.0
H325 H 0.44853 0.77901 0.62164 0.0
H326 H 0.46471 0.71734 0.622 0.0
C327 C 0.43711 0.71605 0.53729 0.0
C328 C 0.72292 0.44241 0.09595 0.0
C329 C 0.70064 0.44004 0.06522 0.0
H330 H 0.7735 0.43259 0.12029 0.0
C331 C 0.71795 0.43439 0.03381 0.0
H332 H 0.71076 0.44741 0.12053 0.0
C333 C 0.75378 0.42548 0.03369 0.0
C334 C 0.77301 0.42246 0.06495 0.0
H335 H 0.70184 0.4329 0.0096 0.0
H336 H 0.76451 0.41789 0.00936 0.0
C337 C 0.75886 0.43373 0.09582 0.0
C338 C 0.1899 0.73755 0.53242 0.0
C339 C 0.16937 0.7212 0.56327 0.0
H340 H 0.24258 0.78311 0.50964 0.0
C341 C 0.18037 0.7449 0.59359 0.0
H342 H 0.18186 0.72037 0.5085 0.0
C343 C 0.21535 0.78066 0.5943 0.0
C344 C 0.2396 0.79357 0.56462 0.0
H345 H 0.1646 0.73369 0.61768 0.0
H346 H 0.22556 0.79591 0.61885 0.0
C347 C 0.22478 0.77363 0.53307 0.0
C348 C 0.76115 0.43657 0.39328 0.0
C349 C 0.77588 0.42597 0.42421 0.0
H350 H 0.71242 0.44929 0.36847 0.0
C351 C 0.75689 0.42918 0.45545 0.0
H352 H 0.77559 0.43527 0.36881 0.0
C353 C 0.72078 0.4376 0.45527 0.0
C354 C 0.70297 0.4426 0.42383 0.0
H355 H 0.76803 0.42208 0.47982 0.0
H356 H 0.70491 0.43629 0.47949 0.0
C357 C 0.72496 0.44478 0.39309 0.0
C358 C 0.20885 0.78001 0.9014 0.0
C359 C 0.23128 0.79136 0.93232 0.0
H360 H 0.15957 0.73433 0.87488 0.0
C361 C 0.21447 0.77007 0.96275 0.0
H362 H 0.22062 0.79636 0.87766 0.0
C363 C 0.17952 0.73411 0.96114 0.0
C364 C 0.16096 0.71924 0.9291 0.0
H365 H 0.23083 0.77836 0.98708 0.0
H366 H 0.16999 0.71584 0.98429 0.0
C367 C 0.1738 0.74436 0.89984 0.0
C368 C 0.54257 0.2247 0.4596 0.0
C369 C 0.5411 0.2036 0.42845 0.0
H370 H 0.54222 0.2795 0.48346 0.0
C371 C 0.52872 0.21793 0.39815 0.0
H372 H 0.55113 0.21397 0.48356 0.0
C373 C 0.52344 0.25546 0.39811 0.0
C374 C 0.53052 0.27927 0.42836 0.0
H375 H 0.52635 0.2019 0.37385 0.0
H376 H 0.51745 0.26737 0.37373 0.0
C377 C 0.5372 0.26223 0.45958 0.0
C378 C 0.2168 0.53181 0.93433 0.0
C379 C 0.20258 0.54505 0.90438 0.0
H380 H 0.26595 0.51921 0.95841 0.0
C381 C 0.2244 0.54827 0.87342 0.0
H382 H 0.20018 0.52817 0.95843 0.0
C383 C 0.26221 0.54313 0.87339 0.0
C384 C 0.27869 0.53456 0.9043 0.0
H385 H 0.2139 0.5578 0.84977 0.0
H386 H 0.27988 0.54904 0.84973 0.0
C387 C 0.25444 0.52642 0.93426 0.0
C388 C 0.74127 0.18669 0.45948 0.0
C389 C 0.72318 0.16857 0.42813 0.0
H390 H 0.78855 0.23718 0.48356 0.0
C391 C 0.74548 0.18138 0.39742 0.0
H392 H 0.72511 0.1772 0.48367 0.0
C393 C 0.78186 0.21572 0.39736 0.0
C394 C 0.79649 0.23783 0.428 0.0
H395 H 0.73281 0.16745 0.37291 0.0
H396 H 0.79615 0.22722 0.37279 0.0
C397 C 0.77775 0.22118 0.45942 0.0
C398 C 0.44979 0.72473 0.90722 0.0
C399 C 0.44014 0.69783 0.93551 0.0
H400 H 0.44457 0.77813 0.88459 0.0
C401 C 0.42613 0.70982 0.96614 0.0
H402 H 0.46136 0.71682 0.88341 0.0
C403 C 0.41638 0.74502 0.96677 0.0
C404 C 0.42057 0.76874 0.9368 0.0
H405 H 0.41897 0.69011 0.98859 0.0
H406 H 0.40239 0.75162 0.98981 0.0
C407 C 0.43991 0.75982 0.90781 0.0
loop_
_geom_bond_atom_site_label_1
_geom_bond_atom_site_label_2
_geom_bond_distance
_geom_bond_site_symmetry_2
_ccdc_geom_bond_type
O0 Cd1 2.223 . S
O0 C8 1.315 . S
Cd1 O0 2.223 . S
Cd1 O4 2.297 . S
Cd1 O5 2.439 . S
Cd1 O11 2.240 . S
Cd2 O3 2.240 . S
Cd2 O10 2.223 . S
Cd2 O12 2.297 . S
Cd2 O13 2.439 . S
O3 Cd2 2.240 . S
O3 C8 1.279 . S
O4 Cd1 2.297 . S
O4 C6 1.247 . S
O5 Cd1 2.439 . S
O5 C6 1.208 . S
C6 O4 1.247 . S
C6 O5 1.208 . S
C7 O12 1.247 . S
C7 O13 1.208 . S
C8 O0 1.315 . S
C8 O3 1.279 . S
C9 O10 1.315 . S
C9 O11 1.279 . S
O10 Cd2 2.223 . S
O10 C9 1.315 . S
O11 Cd1 2.240 . S
O11 C9 1.279 . S
O12 Cd2 2.297 . S
O12 C7 1.247 . S
O13 Cd2 2.439 . S
O13 C7 1.208 . S
O14 Cd15 2.223 . S
O14 C22 1.315 . S
Cd15 O14 2.223 . S
Cd15 O18 2.297 . S
Cd15 O19 2.439 . S
Cd15 O25 2.240 . S
Cd16 O17 2.240 . S
Cd16 O24 2.223 . S
Cd16 O26 2.297 . S
Cd16 O27 2.439 . S
O17 Cd16 2.240 . S
O17 C22 1.279 . S
O18 Cd15 2.297 . S
O18 C20 1.247 . S
O19 Cd15 2.439 . S
O19 C20 1.208 . S
C20 O18 1.247 . S
C20 O19 1.208 . S
C21 O26 1.247 . S
C21 O27 1.208 . S
C22 O14 1.315 . S
C22 O17 1.279 . S
C23 O24 1.315 . S
C23 O25 1.279 . S
O24 Cd16 2.223 . S
O24 C23 1.315 . S
O25 Cd15 2.240 . S
O25 C23 1.279 . S
O26 Cd16 2.297 . S
O26 C21 1.247 . S
O27 Cd16 2.439 . S
O27 C21 1.208 . S
O28 Cd29 2.223 . S
O28 C36 1.315 . S
Cd29 O28 2.223 . S
Cd29 O32 2.297 . S
Cd29 O33 2.439 . S
Cd29 O39 2.240 . S
Cd30 O31 2.240 . S
Cd30 O38 2.223 . S
Cd30 O40 2.297 . S
Cd30 O41 2.439 . S
O31 Cd30 2.240 . S
O31 C36 1.279 . S
O32 Cd29 2.297 . S
O32 C34 1.247 . S
O33 Cd29 2.439 . S
O33 C34 1.208 . S
C34 O32 1.247 . S
C34 O33 1.208 . S
C35 O40 1.247 . S
C35 O41 1.208 . S
C36 O28 1.315 . S
C36 O31 1.279 . S
C37 O38 1.315 . S
C37 O39 1.279 . S
O38 Cd30 2.223 . S
O38 C37 1.315 . S
O39 Cd29 2.240 . S
O39 C37 1.279 . S
O40 Cd30 2.297 . S
O40 C35 1.247 . S
O41 Cd30 2.439 . S
O41 C35 1.208 . S
O42 Cd43 2.223 . S
O42 C50 1.315 . S
Cd43 O42 2.223 . S
Cd43 O46 2.297 . S
Cd43 O47 2.439 . S
Cd43 O53 2.240 . S
Cd44 O45 2.240 . S
Cd44 O52 2.223 . S
Cd44 O54 2.297 . S
Cd44 O55 2.439 . S
O45 Cd44 2.240 . S
O45 C50 1.279 . S
O46 Cd43 2.297 . S
O46 C48 1.247 . S
O47 Cd43 2.439 . S
O47 C48 1.208 . S
C48 O46 1.247 . S
C48 O47 1.208 . S
C49 O54 1.247 . S
C49 O55 1.208 . S
C50 O42 1.315 . S
C50 O45 1.279 . S
C51 O52 1.315 . S
C51 O53 1.279 . S
O52 Cd44 2.223 . S
O52 C51 1.315 . S
O53 Cd43 2.240 . S
O53 C51 1.279 . S
O54 Cd44 2.297 . S
O54 C49 1.247 . S
O55 Cd44 2.439 . S
O55 C49 1.208 . S
O56 Cd57 2.223 . S
O56 C64 1.315 . S
Cd57 O56 2.223 . S
Cd57 O60 2.297 . S
Cd57 O61 2.439 . S
Cd57 O67 2.240 . S
Cd58 O59 2.240 . S
Cd58 O66 2.223 . S
Cd58 O68 2.297 . S
Cd58 O69 2.439 . S
O59 Cd58 2.240 . S
O59 C64 1.279 . S
O60 Cd57 2.297 . S
O60 C62 1.247 . S
O61 Cd57 2.439 . S
O61 C62 1.208 . S
C62 O60 1.247 . S
C62 O61 1.208 . S
C63 O68 1.247 . S
C63 O69 1.208 . S
C64 O56 1.315 . S
C64 O59 1.279 . S
C65 O66 1.315 . S
C65 O67 1.279 . S
O66 Cd58 2.223 . S
O66 C65 1.315 . S
O67 Cd57 2.240 . S
O67 C65 1.279 . S
O68 Cd58 2.297 . S
O68 C63 1.247 . S
O69 Cd58 2.439 . S
O69 C63 1.208 . S
O70 Cd71 2.223 . S
O70 C78 1.315 . S
Cd71 O70 2.223 . S
Cd71 O74 2.297 . S
Cd71 O75 2.439 . S
Cd71 O81 2.240 . S
Cd72 O73 2.240 . S
Cd72 O80 2.223 . S
Cd72 O82 2.297 . S
Cd72 O83 2.439 . S
O73 Cd72 2.240 . S
O73 C78 1.279 . S
O74 Cd71 2.297 . S
O74 C76 1.247 . S
O75 Cd71 2.439 . S
O75 C76 1.208 . S
C76 O74 1.247 . S
C76 O75 1.208 . S
C77 O82 1.247 . S
C77 O83 1.208 . S
C78 O70 1.315 . S
C78 O73 1.279 . S
C79 O80 1.315 . S
C79 O81 1.279 . S
O80 Cd72 2.223 . S
O80 C79 1.315 . S
O81 Cd71 2.240 . S
O81 C79 1.279 . S
O82 Cd72 2.297 . S
O82 C77 1.247 . S
O83 Cd72 2.439 . S
O83 C77 1.208 . S
O84 Cd85 2.223 . S
O84 C92 1.315 . S
Cd85 O84 2.223 . S
Cd85 O88 2.297 . S
Cd85 O89 2.439 . S
Cd85 O95 2.240 . S
Cd86 O87 2.240 . S
Cd86 O94 2.223 . S
Cd86 O96 2.297 . S
Cd86 O97 2.439 . S
O87 Cd86 2.240 . S
O87 C92 1.279 . S
O88 Cd85 2.297 . S
O88 C90 1.247 . S
O89 Cd85 2.439 . S
O89 C90 1.208 . S
C90 O88 1.247 . S
C90 O89 1.208 . S
C91 O96 1.247 . S
C91 O97 1.208 . S
C92 O84 1.315 . S
C92 O87 1.279 . S
C93 O94 1.315 . S
C93 O95 1.279 . S
O94 Cd86 2.223 . S
O94 C93 1.315 . S
O95 Cd85 2.240 . S
O95 C93 1.279 . S
O96 Cd86 2.297 . S
O96 C91 1.247 . S
O97 Cd86 2.439 . S
O97 C91 1.208 . S
O98 Cd99 2.223 . S
O98 C106 1.315 . S
Cd99 O98 2.223 . S
Cd99 O102 2.297 . S
Cd99 O103 2.439 . S
Cd99 O109 2.240 . S
Cd100 O101 2.240 . S
Cd100 O108 2.223 . S
Cd100 O110 2.297 . S
Cd100 O111 2.439 . S
O101 Cd100 2.240 . S
O101 C106 1.279 . S
O102 Cd99 2.297 . S
O102 C104 1.247 . S
O103 Cd99 2.439 . S
O103 C104 1.208 . S
C104 O102 1.247 . S
C104 O103 1.208 . S
C105 O110 1.247 . S
C105 O111 1.208 . S
C106 O98 1.315 . S
C106 O101 1.279 . S
C107 O108 1.315 . S
C107 O109 1.279 . S
O108 Cd100 2.223 . S
O108 C107 1.315 . S
O109 Cd99 2.240 . S
O109 C107 1.279 . S
O110 Cd100 2.297 . S
O110 C105 1.247 . S
O111 Cd100 2.439 . S
O111 C105 1.208 . S
O112 Cd113 2.223 . S
O112 C120 1.315 . S
Cd113 O112 2.223 . S
Cd113 O116 2.297 . S
Cd113 O117 2.439 . S
Cd113 O123 2.240 . S
Cd114 O115 2.240 . S
Cd114 O122 2.223 . S
Cd114 O124 2.297 . S
Cd114 O125 2.439 . S
O115 Cd114 2.240 . S
O115 C120 1.279 . S
O116 Cd113 2.297 . S
O116 C118 1.247 . S
O117 Cd113 2.439 . S
O117 C118 1.208 . S
C118 O116 1.247 . S
C118 O117 1.208 . S
C119 O124 1.247 . S
C119 O125 1.208 . S
C120 O112 1.315 . S
C120 O115 1.279 . S
C121 O122 1.315 . S
C121 O123 1.279 . S
O122 Cd114 2.223 . S
O122 C121 1.315 . S
O123 Cd113 2.240 . S
O123 C121 1.279 . S
O124 Cd114 2.297 . S
O124 C119 1.247 . S
O125 Cd114 2.439 . S
O125 C119 1.208 . S
O126 Cd127 2.223 . S
O126 C134 1.315 . S
Cd127 O126 2.223 . S
Cd127 O130 2.297 . S
Cd127 O131 2.439 . S
Cd127 O137 2.240 . S
Cd128 O129 2.240 . S
Cd128 O136 2.223 . S
Cd128 O138 2.297 . S
Cd128 O139 2.439 . S
O129 Cd128 2.240 . S
O129 C134 1.279 . S
O130 Cd127 2.297 . S
O130 C132 1.247 . S
O131 Cd127 2.439 . S
O131 C132 1.208 . S
C132 O130 1.247 . S
C132 O131 1.208 . S
C133 O138 1.247 . S
C133 O139 1.208 . S
C134 O126 1.315 . S
C134 O129 1.279 . S
C135 O136 1.315 . S
C135 O137 1.279 . S
O136 Cd128 2.223 . S
O136 C135 1.315 . S
O137 Cd127 2.240 . S
O137 C135 1.279 . S
O138 Cd128 2.297 . S
O138 C133 1.247 . S
O139 Cd128 2.439 . S
O139 C133 1.208 . S
O140 Cd141 2.223 . S
O140 C148 1.315 . S
Cd141 O140 2.223 . S
Cd141 O144 2.297 . S
Cd141 O145 2.439 . S
Cd141 O151 2.240 . S
Cd142 O143 2.240 . S
Cd142 O150 2.223 . S
Cd142 O152 2.297 . S
Cd142 O153 2.439 . S
O143 Cd142 2.240 . S
O143 C148 1.279 . S
O144 Cd141 2.297 . S
O144 C146 1.247 . S
O145 Cd141 2.439 . S
O145 C146 1.208 . S
C146 O144 1.247 . S
C146 O145 1.208 . S
C147 O152 1.247 . S
C147 O153 1.208 . S
C148 O140 1.315 . S
C148 O143 1.279 . S
C149 O150 1.315 . S
C149 O151 1.279 . S
O150 Cd142 2.223 . S
O150 C149 1.315 . S
O151 Cd141 2.240 . S
O151 C149 1.279 . S
O152 Cd142 2.297 . S
O152 C147 1.247 . S
O153 Cd142 2.439 . S
O153 C147 1.208 . S
O154 Cd155 2.223 . S
O154 C162 1.315 . S
Cd155 O154 2.223 . S
Cd155 O158 2.297 . S
Cd155 O159 2.439 . S
Cd155 O165 2.240 . S
Cd156 O157 2.240 . S
Cd156 O164 2.223 . S
Cd156 O166 2.297 . S
Cd156 O167 2.439 . S
O157 Cd156 2.240 . S
O157 C162 1.279 . S
O158 Cd155 2.297 . S
O158 C160 1.247 . S
O159 Cd155 2.439 . S
O159 C160 1.208 . S
C160 O158 1.247 . S
C160 O159 1.208 . S
C161 O166 1.247 . S
C161 O167 1.208 . S
C162 O154 1.315 . S
C162 O157 1.279 . S
C163 O164 1.315 . S
C163 O165 1.279 . S
O164 Cd156 2.223 . S
O164 C163 1.315 . S
O165 Cd155 2.240 . S
O165 C163 1.279 . S
O166 Cd156 2.297 . S
O166 C161 1.247 . S
O167 Cd156 2.439 . S
O167 C161 1.208 . S
C168 C169 1.387 . S
C168 H172 0.950 . S
C168 C177 1.390 . S
C169 C168 1.387 . S
C169 C171 1.387 . S
H170 C177 0.950 . S
C171 C169 1.387 . S
C171 C173 1.390 . S
C171 H175 0.950 . S
H172 C168 0.950 . S
C173 C171 1.390 . S
C173 C174 1.387 . S
C173 H176 0.950 . S
C174 C173 1.387 . S
C174 C177 1.387 . S
H175 C171 0.950 . S
H176 C173 0.950 . S
C177 C168 1.390 . S
C177 H170 0.950 . S
C177 C174 1.387 . S
C178 C179 1.387 . S
C178 H182 0.950 . S
C178 C187 1.390 . S
C179 C178 1.387 . S
C179 C181 1.387 . S
H180 C187 0.950 . S
C181 C179 1.387 . S
C181 C183 1.390 . S
C181 H185 0.950 . S
H182 C178 0.950 . S
C183 C181 1.390 . S
C183 C184 1.387 . S
C183 H186 0.950 . S
C184 C183 1.387 . S
C184 C187 1.387 . S
H185 C181 0.950 . S
H186 C183 0.950 . S
C187 C178 1.390 . S
C187 H180 0.950 . S
C187 C184 1.387 . S
C188 C189 1.387 . S
C188 H192 0.950 . S
C188 C197 1.390 . S
C189 C188 1.387 . S
C189 C191 1.387 . S
H190 C197 0.950 . S
C191 C189 1.387 . S
C191 C193 1.390 . S
C191 H195 0.950 . S
H192 C188 0.950 . S
C193 C191 1.390 . S
C193 C194 1.387 . S
C193 H196 0.950 . S
C194 C193 1.387 . S
C194 C197 1.387 . S
H195 C191 0.950 . S
H196 C193 0.950 . S
C197 C188 1.390 . S
C197 H190 0.950 . S
C197 C194 1.387 . S
C198 C199 1.387 . S
C198 H202 0.950 . S
C198 C207 1.390 . S
C199 C198 1.387 . S
C199 C201 1.387 . S
H200 C207 0.950 . S
C201 C199 1.387 . S
C201 C203 1.390 . S
C201 H205 0.950 . S
H202 C198 0.950 . S
C203 C201 1.390 . S
C203 C204 1.387 . S
C203 H206 0.950 . S
C204 C203 1.387 . S
C204 C207 1.387 . S
H205 C201 0.950 . S
H206 C203 0.950 . S
C207 C198 1.390 . S
C207 H200 0.950 . S
C207 C204 1.387 . S
C208 C209 1.387 . S
C208 H212 0.950 . S
C208 C217 1.390 . S
C209 C208 1.387 . S
C209 C211 1.387 . S
H210 C217 0.950 . S
C211 C209 1.387 . S
C211 C213 1.390 . S
C211 H215 0.950 . S
H212 C208 0.950 . S
C213 C211 1.390 . S
C213 C214 1.387 . S
C213 H216 0.950 . S
C214 C213 1.387 . S
C214 C217 1.387 . S
H215 C211 0.950 . S
H216 C213 0.950 . S
C217 C208 1.390 . S
C217 H210 0.950 . S
C217 C214 1.387 . S
C218 C219 1.387 . S
C218 H222 0.950 . S
C218 C227 1.390 . S
C219 C218 1.387 . S
C219 C221 1.387 . S
H220 C227 0.950 . S
C221 C219 1.387 . S
C221 C223 1.390 . S
C221 H225 0.950 . S
H222 C218 0.950 . S
C223 C221 1.390 . S
C223 C224 1.387 . S
C223 H226 0.950 . S
C224 C223 1.387 . S
C224 C227 1.387 . S
H225 C221 0.950 . S
H226 C223 0.950 . S
C227 C218 1.390 . S
C227 H220 0.950 . S
C227 C224 1.387 . S
C228 C229 1.387 1_565 S
C228 H232 0.950 . S
C228 C237 1.390 . S
C229 C228 1.387 1_545 S
C229 C231 1.387 1_554 S
H230 C237 0.950 . S
C231 C229 1.387 1_556 S
C231 C233 1.390 . S
C231 H235 0.950 . S
H232 C228 0.950 . S
C233 C231 1.390 . S
C233 C234 1.387 1_545 S
C233 H236 0.950 . S
C234 C233 1.387 1_565 S
C234 C237 1.387 1_556 S
H235 C231 0.950 . S
H236 C233 0.950 . S
C237 C228 1.390 . S
C237 H230 0.950 . S
C237 C234 1.387 1_554 S
C238 C239 1.387 . S
C238 H242 0.950 . S
C238 C247 1.390 . S
C239 C238 1.387 . S
C239 C241 1.387 . S
H240 C247 0.950 . S
C241 C239 1.387 . S
C241 C243 1.390 . S
C241 H245 0.950 . S
H242 C238 0.950 . S
C243 C241 1.390 . S
C243 C244 1.387 . S
C243 H246 0.950 . S
C244 C243 1.387 . S
C244 C247 1.387 . S
H245 C241 0.950 . S
H246 C243 0.950 . S
C247 C238 1.390 . S
C247 H240 0.950 . S
C247 C244 1.387 . S
C248 C249 1.387 1_554 S
C248 H252 0.950 . S
C248 C257 1.390 1_455 S
C249 C248 1.387 1_556 S
C249 C251 1.387 . S
H250 C257 0.950 . S
C251 C249 1.387 . S
C251 C253 1.390 1_455 S
C251 H255 0.950 . S
H252 C248 0.950 . S
C253 C251 1.390 1_655 S
C253 C254 1.387 1_556 S
C253 H256 0.950 . S
C254 C253 1.387 1_554 S
C254 C257 1.387 . S
H255 C251 0.950 . S
H256 C253 0.950 . S
C257 C248 1.390 1_655 S
C257 H250 0.950 . S
C257 C254 1.387 . S
C258 C259 1.387 . S
C258 H262 0.950 . S
C258 C267 1.390 . S
C259 C258 1.387 . S
C259 C261 1.387 1_545 S
H260 C267 0.950 . S
C261 C259 1.387 1_565 S
C261 C263 1.390 . S
C261 H265 0.950 . S
H262 C258 0.950 . S
C263 C261 1.390 . S
C263 C264 1.387 . S
C263 H266 0.950 . S
C264 C263 1.387 . S
C264 C267 1.387 1_565 S
H265 C261 0.950 . S
H266 C263 0.950 . S
C267 C258 1.390 . S
C267 H260 0.950 . S
C267 C264 1.387 1_545 S
C268 C269 1.387 . S
C268 H272 0.950 . S
C268 C277 1.390 1_556 S
C269 C268 1.387 . S
C269 C271 1.387 . S
H270 C277 0.950 . S
C271 C269 1.387 . S
C271 C273 1.390 1_556 S
C271 H275 0.950 . S
H272 C268 0.950 . S
C273 C271 1.390 1_554 S
C273 C274 1.387 . S
C273 H276 0.950 . S
C274 C273 1.387 . S
C274 C277 1.387 . S
H275 C271 0.950 . S
H276 C273 0.950 . S
C277 C268 1.390 1_554 S
C277 H270 0.950 . S
C277 C274 1.387 . S
C278 C279 1.387 . S
C278 H282 0.950 . S
C278 C287 1.390 1_655 S
C279 C278 1.387 . S
C279 C281 1.387 . S
H280 C287 0.950 . S
C281 C279 1.387 . S
C281 C283 1.390 . S
C281 H285 0.950 . S
H282 C278 0.950 . S
C283 C281 1.390 . S
C283 C284 1.387 1_655 S
C283 H286 0.950 . S
C284 C283 1.387 1_455 S
C284 C287 1.387 . S
H285 C281 0.950 . S
H286 C283 0.950 . S
C287 C278 1.390 1_455 S
C287 H280 0.950 . S
C287 C284 1.387 . S
C288 C289 1.387 . S
C288 H292 0.950 . S
C288 C297 1.390 . S
C289 C288 1.387 . S
C289 C291 1.387 . S
H290 C297 0.950 . S
C291 C289 1.387 . S
C291 C293 1.390 . S
C291 H295 0.950 . S
H292 C288 0.950 . S
C293 C291 1.390 . S
C293 C294 1.387 . S
C293 H296 0.950 . S
C294 C293 1.387 . S
C294 C297 1.387 . S
H295 C291 0.950 . S
H296 C293 0.950 . S
C297 C288 1.390 . S
C297 H290 0.950 . S
C297 C294 1.387 . S
C298 C299 1.387 . S
C298 H302 0.950 . S
C298 C307 1.390 . S
C299 C298 1.387 . S
C299 C301 1.387 . S
H300 C307 0.950 . S
C301 C299 1.387 . S
C301 C303 1.390 . S
C301 H305 0.950 . S
H302 C298 0.950 . S
C303 C301 1.390 . S
C303 C304 1.387 . S
C303 H306 0.950 . S
C304 C303 1.387 . S
C304 C307 1.387 . S
H305 C301 0.950 . S
H306 C303 0.950 . S
C307 C298 1.390 . S
C307 H300 0.950 . S
C307 C304 1.387 . S
C308 C309 1.387 . S
C308 H312 0.950 . S
C308 C317 1.390 . S
C309 C308 1.387 . S
C309 C311 1.387 . S
H310 C317 0.950 . S
C311 C309 1.387 . S
C311 C313 1.390 . S
C311 H315 0.950 . S
H312 C308 0.950 . S
C313 C311 1.390 . S
C313 C314 1.387 . S
C313 H316 0.950 . S
C314 C313 1.387 . S
C314 C317 1.387 . S
H315 C311 0.950 . S
H316 C313 0.950 . S
C317 C308 1.390 . S
C317 H310 0.950 . S
C317 C314 1.387 . S
C318 C319 1.387 . S
C318 H322 0.950 . S
C318 C327 1.390 . S
C319 C318 1.387 . S
C319 C321 1.387 . S
H320 C327 0.950 . S
C321 C319 1.387 . S
C321 C323 1.390 . S
C321 H325 0.950 . S
H322 C318 0.950 . S
C323 C321 1.390 . S
C323 C324 1.387 . S
C323 H326 0.950 . S
C324 C323 1.387 . S
C324 C327 1.387 . S
H325 C321 0.950 . S
H326 C323 0.950 . S
C327 C318 1.390 . S
C327 H320 0.950 . S
C327 C324 1.387 . S
C328 C329 1.387 . S
C328 H332 0.950 . S
C328 C337 1.390 . S
C329 C328 1.387 . S
C329 C331 1.387 . S
H330 C337 0.950 . S
C331 C329 1.387 . S
C331 C333 1.390 . S
C331 H335 0.950 . S
H332 C328 0.950 . S
C333 C331 1.390 . S
C333 C334 1.387 . S
C333 H336 0.950 . S
C334 C333 1.387 . S
C334 C337 1.387 . S
H335 C331 0.950 . S
H336 C333 0.950 . S
C337 C328 1.390 . S
C337 H330 0.950 . S
C337 C334 1.387 . S
C338 C339 1.387 . S
C338 H342 0.950 . S
C338 C347 1.390 . S
C339 C338 1.387 . S
C339 C341 1.387 . S
H340 C347 0.950 . S
C341 C339 1.387 . S
C341 C343 1.390 . S
C341 H345 0.950 . S
H342 C338 0.950 . S
C343 C341 1.390 . S
C343 C344 1.387 . S
C343 H346 0.950 . S
C344 C343 1.387 . S
C344 C347 1.387 . S
H345 C341 0.950 . S
H346 C343 0.950 . S
C347 C338 1.390 . S
C347 H340 0.950 . S
C347 C344 1.387 . S
C348 C349 1.387 . S
C348 H352 0.950 . S
C348 C357 1.390 . S
C349 C348 1.387 . S
C349 C351 1.387 . S
H350 C357 0.950 . S
C351 C349 1.387 . S
C351 C353 1.390 . S
C351 H355 0.950 . S
H352 C348 0.950 . S
C353 C351 1.390 . S
C353 C354 1.387 . S
C353 H356 0.950 . S
C354 C353 1.387 . S
C354 C357 1.387 . S
H355 C351 0.950 . S
H356 C353 0.950 . S
C357 C348 1.390 . S
C357 H350 0.950 . S
C357 C354 1.387 . S
C358 C359 1.387 . S
C358 H362 0.950 . S
C358 C367 1.390 . S
C359 C358 1.387 . S
C359 C361 1.387 . S
H360 C367 0.950 . S
C361 C359 1.387 . S
C361 C363 1.390 . S
C361 H365 0.950 . S
H362 C358 0.950 . S
C363 C361 1.390 . S
C363 C364 1.387 . S
C363 H366 0.950 . S
C364 C363 1.387 . S
C364 C367 1.387 . S
H365 C361 0.950 . S
H366 C363 0.950 . S
C367 C358 1.390 . S
C367 H360 0.950 . S
C367 C364 1.387 . S
C368 C369 1.387 . S
C368 H372 0.950 . S
C368 C377 1.390 . S
C369 C368 1.387 . S
C369 C371 1.387 . S
H370 C377 0.950 . S
C371 C369 1.387 . S
C371 C373 1.390 . S
C371 H375 0.950 . S
H372 C368 0.950 . S
C373 C371 1.390 . S
C373 C374 1.387 . S
C373 H376 0.950 . S
C374 C373 1.387 . S
C374 C377 1.387 . S
H375 C371 0.950 . S
H376 C373 0.950 . S
C377 C368 1.390 . S
C377 H370 0.950 . S
C377 C374 1.387 . S
C378 C379 1.387 . S
C378 H382 0.950 . S
C378 C387 1.390 . S
C379 C378 1.387 . S
C379 C381 1.387 . S
H380 C387 0.950 . S
C381 C379 1.387 . S
C381 C383 1.390 . S
C381 H385 0.950 . S
H382 C378 0.950 . S
C383 C381 1.390 . S
C383 C384 1.387 . S
C383 H386 0.950 . S
C384 C383 1.387 . S
C384 C387 1.387 . S
H385 C381 0.950 . S
H386 C383 0.950 . S
C387 C378 1.390 . S
C387 H380 0.950 . S
C387 C384 1.387 . S
C388 C389 1.387 . S
C388 H392 0.950 . S
C388 C397 1.390 . S
C389 C388 1.387 . S
C389 C391 1.387 . S
H390 C397 0.950 . S
C391 C389 1.387 . S
C391 C393 1.390 . S
C391 H395 0.950 . S
H392 C388 0.950 . S
C393 C391 1.390 . S
C393 C394 1.387 . S
C393 H396 0.950 . S
C394 C393 1.387 . S
C394 C397 1.387 . S
H395 C391 0.950 . S
H396 C393 0.950 . S
C397 C388 1.390 . S
C397 H390 0.950 . S
C397 C394 1.387 . S
C398 C399 1.387 . S
C398 H402 0.950 . S
C398 C407 1.390 . S
C399 C398 1.387 . S
C399 C401 1.387 . S
H400 C407 0.950 . S
C401 C399 1.387 . S
C401 C403 1.390 . S
C401 H405 0.950 . S
H402 C398 0.950 . S
C403 C401 1.390 . S
C403 C404 1.387 . S
C403 H406 0.950 . S
C404 C403 1.387 . S
C404 C407 1.387 . S
H405 C401 0.950 . S
H406 C403 0.950 . S
C407 C398 1.390 . S
C407 H400 0.950 . S
C407 C404 1.387 . S
C169 C147 1.583 . S
C174 C7 1.553 . S
C179 C21 1.462 . S
C184 C160 1.459 . S
C189 C34 1.579 . S
C194 C91 1.552 . S
C199 C105 1.583 . S
C204 C49 1.553 . S
C209 C118 1.461 . S
C214 C63 1.461 . S
C219 C76 1.582 . S
C224 C133 1.550 . S
C229 C6 1.284 . S
C234 C104 1.184 . S
C239 C20 1.067 . S
C244 C119 1.068 . S
C249 C132 1.284 . S
C254 C35 1.179 . S
C259 C146 1.184 . S
C264 C48 1.284 . S
C269 C161 1.065 . S
C274 C62 1.065 . S
C279 C90 1.285 . S
C284 C77 1.184 . S
C289 C8 1.335 . S
C294 C65 1.365 . S
C299 C22 1.458 . S
C304 C78 1.549 . S
C309 C37 1.332 . S
C314 C9 1.416 . S
C319 C50 1.336 . S
C324 C23 1.366 . S
C329 C64 1.458 . S
C334 C36 1.549 . S
C339 C79 1.331 . S
C344 C51 1.416 . S
C349 C92 1.336 . S
C354 C120 1.366 . S
C359 C106 1.331 . S
C364 C135 1.415 . S
C369 C149 1.549 . S
C374 C121 1.454 . S
C379 C134 1.333 . S
C384 C162 1.365 . S
C389 C148 1.330 . S
C394 C93 1.416 . S
C399 C163 1.458 . S
C404 C107 1.549 . S
