# Generated by pormake.
# Topology sxa, (6)-cn, num edge types: 1
# Building blocks:
#     Node 0, Type 0, BuildingBlock: PAMTUU_clean_sbu_0, # of connection points: 6
#     Node 1, Type 0, BuildingBlock: PAMTUU_clean_sbu_0, # of connection points: 6
#     Node 2, Type 0, BuildingBlock: PAMTUU_clean_sbu_0, # of connection points: 6
#     Node 3, Type 0, BuildingBlock: PAMTUU_clean_sbu_0, # of connection points: 6
#     Edge 4, Type (0, 0), BuildingBlock: XUDNAN_clean_linker_2, # of connection points: 2
#     Edge 5, Type (0, 0), BuildingBlock: XUDNAN_clean_linker_2, # of connection points: 2
#     Edge 6, Type (0, 0), BuildingBlock: XUDNAN_clean_linker_2, # of connection points: 2
#     Edge 7, Type (0, 0), BuildingBlock: XUDNAN_clean_linker_2, # of connection points: 2
#     Edge 8, Type (0, 0), BuildingBlock: XUDNAN_clean_linker_2, # of connection points: 2
#     Edge 9, Type (0, 0), BuildingBlock: XUDNAN_clean_linker_2, # of connection points: 2
#     Edge 10, Type (0, 0), BuildingBlock: XUDNAN_clean_linker_2, # of connection points: 2
#     Edge 11, Type (0, 0), BuildingBlock: XUDNAN_clean_linker_2, # of connection points: 2
#     Edge 12, Type (0, 0), BuildingBlock: XUDNAN_clean_linker_2, # of connection points: 2
#     Edge 13, Type (0, 0), BuildingBlock: XUDNAN_clean_linker_2, # of connection points: 2
#     Edge 14, Type (0, 0), BuildingBlock: XUDNAN_clean_linker_2, # of connection points: 2
#     Edge 15, Type (0, 0), BuildingBlock: XUDNAN_clean_linker_2, # of connection points: 2
# Relax obj value: 0.225
# Max RMSD: 0.279
# Mean RMSD: 0.279
data_MOF--net-sxa--node1-PAMTUU_clean_sbu_0--edge1-XUDNAN_clean_linker_2
_symmetry_space_group_name_H-M    P1
_symmetry_Int_Tables_number       1
_symmetry_cell_setting            triclinic
loop_
_symmetry_equiv_pos_as_xyz
'x, y, z'
_cell_length_a     35.350646
_cell_length_b     26.660674
_cell_length_c     16.779226
_cell_angle_alpha  93.712207
_cell_angle_beta   54.898471
_cell_angle_gamma 99.258452
loop_
_atom_site_label
_atom_site_type_symbol
_atom_site_fract_x
_atom_site_fract_y
_atom_site_fract_z
_atom_type_partial_charge
Tb0 Tb 0.12394 0.80573 0.04774 0.0
Tb1 Tb 0.09817 0.7993 0.27086 0.0
C2 C 0.098 0.69944 0.14876 0.0
C3 C 0.12255 0.85231 0.84876 0.0
C4 C 0.06393 0.89395 0.81664 0.0
C5 C 0.08942 0.85566 0.75686 0.0
C6 C 0.11853 0.83501 0.77291 0.0
C7 C 0.09999 0.89303 0.90361 0.0
C8 C 0.07131 0.91399 0.88704 0.0
C9 C 0.14343 0.82263 0.88064 0.0
O10 O 0.04776 0.80937 0.15017 0.0
O11 O 1.02993 0.78314 0.29926 0.0
O12 O 0.07577 0.86919 0.25574 0.0
O13 O 0.13591 0.87958 0.09741 0.0
O14 O 0.07919 0.76048 0.39739 0.0
O15 O 0.10829 0.8396 0.37137 0.0
O16 O 0.17001 0.82695 0.16131 0.0
O17 O 0.18259 0.77861 0.03611 0.0
O18 O 0.10109 0.72639 0.08255 0.0
O19 O 0.10259 0.71987 0.21787 0.0
C20 C 1.01716 0.79375 0.2432 0.0
O21 O 0.16566 0.84798 0.91479 0.0
O22 O 0.11564 0.78295 0.93596 0.0
C23 C 0.10141 0.89772 0.1747 0.0
C24 C 0.13064 0.78923 0.44671 0.0
C25 C 0.19883 0.77136 0.47821 0.0
C26 C 0.19062 0.82109 0.47608 0.0
C27 C 0.15703 0.82987 0.46055 0.0
C28 C 0.13743 0.73946 0.4532 0.0
C29 C 0.17094 0.73072 0.46852 0.0
C30 C 0.09699 0.79888 0.42407 0.0
C31 C 0.19594 0.79814 0.09155 0.0
H32 H 0.08435 0.83901 0.70244 0.0
H33 H 0.13546 0.80333 0.73032 0.0
H34 H 0.10238 0.90667 0.96294 0.0
H35 H 0.05283 0.94399 0.93297 0.0
H36 H 0.21124 0.85344 0.48309 0.0
H37 H 0.15235 0.86869 0.45747 0.0
H38 H 0.11744 0.70702 0.4446 0.0
H39 H 0.17525 0.69179 0.47193 0.0
Tb40 Tb 0.58073 0.28038 0.09911 0.0
Tb41 Tb 0.59814 0.28688 0.27021 0.0
C42 C 0.59049 0.18612 0.16891 0.0
C43 C 0.51337 0.27725 1.00186 0.0
C44 C 0.41664 0.26488 0.08939 0.0
C45 C 0.44453 0.23312 1.01439 0.0
C46 C 0.49263 0.23931 0.97086 0.0
C47 C 0.486 0.31108 0.07232 0.0
C48 C 0.43808 0.30507 0.11536 0.0
C49 C 0.55926 0.27331 0.98013 0.0
O50 O 0.51116 0.25727 0.23694 0.0
O51 O 0.52445 0.29139 0.35013 0.0
O52 O 0.61736 0.36313 0.19788 0.0
O53 O 0.55972 0.34916 0.17535 0.0
O54 O 0.61497 0.24915 0.3493 0.0
O55 O 0.60386 0.32748 0.37639 0.0
O56 O 0.66532 0.28121 0.13936 0.0
O57 O 0.65647 0.30742 1.02323 0.0
O58 O 0.61109 0.21539 0.09175 0.0
O59 O 0.5722 0.20726 0.25461 0.0
C60 C 0.49573 0.27132 0.32684 0.0
O61 O 0.58227 0.3148 0.98785 0.0
O62 O 0.55859 0.234 0.02367 0.0
C63 C 0.59054 0.3811 0.17872 0.0
C64 C 0.65723 0.30054 0.40439 0.0
C65 C 0.72394 0.31148 0.45091 0.0
C66 C 0.68923 0.34328 0.49102 0.0
C67 C 0.65629 0.33771 0.46845 0.0
C68 C 0.69351 0.27062 0.35961 0.0
C69 C 0.72651 0.27613 0.38242 0.0
C70 C 0.61709 0.28959 0.39539 0.0
C71 C 0.68279 0.29877 0.05198 0.0
H72 H 0.42895 0.20247 0.99164 0.0
H73 H 0.51306 0.21239 0.91777 0.0
H74 H 0.50095 0.34006 0.09908 0.0
H75 H 0.4175 0.3301 0.17292 0.0
H76 H 0.68663 0.37175 0.54235 0.0
H77 H 0.62886 0.3613 0.50423 0.0
H78 H 0.69543 0.24156 0.30975 0.0
H79 H 0.75256 0.25089 0.35002 0.0
Tb80 Tb 0.06924 0.27055 0.77492 0.0
Tb81 Tb 0.05268 0.28525 0.98241 0.0
C82 C 0.06167 0.17729 0.89518 0.0
C83 C 1.02847 0.27262 0.61492 0.0
C84 C 0.9564 0.28645 0.59417 0.0
C85 C 1.00172 0.31366 0.53332 0.0
C86 C 0.0373 0.30697 0.54395 0.0
C87 C 0.9832 0.24504 0.67508 0.0
C88 C 0.94765 0.25202 0.66507 0.0
C89 C 0.06606 0.26694 0.6274 0.0
O90 O 0.99954 0.23822 0.8878 0.0
O91 O 0.9894 0.29902 0.99374 0.0
O92 O 0.09528 0.35231 0.89404 0.0
O93 O 0.05382 0.34838 0.83189 0.0
O94 O 1.01343 0.26248 0.12994 0.0
O95 O 0.06329 0.33131 0.07644 0.0
O96 O 0.12493 0.26626 0.88419 0.0
O97 O 0.14031 0.28361 0.7337 0.0
O98 O 0.08168 0.19739 0.80672 0.0
O99 O 0.04129 0.20411 0.97326 0.0
C100 C 0.97194 0.26637 0.95652 0.0
O101 O 0.08316 0.30746 0.65094 0.0
O102 O 0.05932 0.22709 0.67747 0.0
C103 C 0.07751 0.37631 0.86183 0.0
C104 C 0.05626 0.28351 0.19742 0.0
C105 C 0.10729 0.26098 0.26779 0.0
C106 C 0.08824 0.30654 0.29152 0.0
C107 C 0.06261 0.31751 0.25722 0.0
C108 C 0.07362 0.23714 0.17633 0.0
C109 C 0.09867 0.22584 0.2117 0.0
C110 C 0.03583 0.29894 0.14962 0.0
C111 C 0.15445 0.27364 0.78767 0.0
H112 H 1.00924 0.34116 0.47945 0.0
H113 H 0.07167 0.32916 0.49765 0.0
H114 H 0.97505 0.21826 0.73056 0.0
H115 H 0.91314 0.23036 0.71295 0.0
H116 H 0.09469 0.33474 0.33329 0.0
H117 H 0.04955 0.35356 0.27377 0.0
H118 H 0.06966 0.2106 0.12897 0.0
H119 H 0.11383 0.19105 0.18944 0.0
Tb120 Tb 0.57095 0.76197 0.77069 0.0
Tb121 Tb 0.59481 0.78689 0.93263 0.0
C122 C 0.58486 0.67804 0.87368 0.0
C123 C 0.50702 0.74633 0.6441 0.0
C124 C 0.43919 0.74434 0.60168 0.0
C125 C 0.45175 0.69904 0.61289 0.0
C126 C 0.48522 0.70006 0.63318 0.0
C127 C 0.4938 0.79173 0.63533 0.0
C128 C 0.46011 0.79072 0.6151 0.0
C129 C 0.54656 0.74622 0.65373 0.0
O130 O 0.50989 0.73436 0.91011 0.0
O131 O 0.51992 0.7923 1.00453 0.0
O132 O 0.61772 0.85148 0.83734 0.0
O133 O 0.55462 0.83809 0.83459 0.0
O134 O 0.62138 0.76824 1.00921 0.0
O135 O 0.59315 0.83841 0.03435 0.0
O136 O 0.66212 0.77639 0.79487 0.0
O137 O 0.64579 0.78474 0.68166 0.0
O138 O 0.59764 0.69592 0.78808 0.0
O139 O 0.5684 0.70705 0.94895 0.0
C140 C 0.49233 0.7631 0.98536 0.0
O141 O 0.56758 0.78958 0.66027 0.0
O142 O 0.54256 0.71105 0.70976 0.0
C143 C 0.58472 0.87021 0.84272 0.0
C144 C 0.6624 0.84108 0.02622 0.0
C145 C 0.75459 0.88183 0.96285 0.0
C146 C 0.73449 0.89868 0.91943 0.0
C147 C 0.68898 0.87824 0.95031 0.0
C148 C 0.68137 0.826 0.07299 0.0
C149 C 0.72707 0.84612 0.04161 0.0
C150 C 0.6181 0.81302 0.04706 0.0
C151 C 0.67562 0.78251 0.70379 0.0
H152 H 0.43598 0.66246 0.60505 0.0
H153 H 0.49477 0.66441 0.63843 0.0
H154 H 0.51014 0.8282 0.64208 0.0
H155 H 0.45172 0.82642 0.60654 0.0
H156 H 0.75439 0.92661 0.85962 0.0
H157 H 0.67527 0.89006 0.91223 0.0
H158 H 0.66166 0.79684 0.13067 0.0
H159 H 0.74156 0.83163 0.07583 0.0
H160 H 0.14438 0.45605 0.82541 0.0
H161 H 0.99431 0.41125 0.99085 0.0
H162 H 0.98347 0.48542 0.09544 0.0
H163 H 0.15172 0.4949 1.01769 0.0
H164 H 0.19658 0.5491 0.95517 0.0
H165 H 0.19283 0.49588 0.88702 0.0
H166 H 0.18609 0.5545 0.7798 0.0
H167 H 0.19199 0.60822 0.84466 0.0
H168 H 0.1424 0.59618 0.83745 0.0
H169 H 0.99037 0.56082 0.19314 0.0
H170 H 1.01293 0.64039 0.25068 0.0
H171 H 0.15835 0.63705 1.01782 0.0
C172 C 0.10916 0.46326 0.88075 0.0
C173 C 0.07011 0.42861 0.89805 0.0
C174 C 1.02464 0.43818 0.97386 0.0
C175 C 1.01827 0.47974 0.03488 0.0
C176 C 0.05773 0.51176 1.01868 0.0
C177 C 0.10226 0.50489 0.94121 0.0
C178 C 0.139 0.54456 0.9388 0.0
C179 C 0.17197 0.51959 0.95035 0.0
C180 C 0.16648 0.57785 0.84462 0.0
C181 C 0.10841 0.57463 0.02767 0.0
C182 C 0.06164 0.55472 0.07381 0.0
C183 C 1.02692 0.5765 0.15732 0.0
C184 C 0.0401 0.62117 0.19097 0.0
C185 C 0.08755 0.64389 0.14139 0.0
C186 C 0.12204 0.61942 0.0599 0.0
H187 H 0.52846 0.43992 0.20577 0.0
H188 H 0.67705 0.43453 0.04073 0.0
H189 H 0.69219 0.50635 0.93373 0.0
H190 H 0.52386 0.46398 1.00951 0.0
H191 H 0.48107 0.50652 0.07252 0.0
H192 H 0.48242 0.45782 0.14001 0.0
H193 H 0.49133 0.52529 0.2488 0.0
H194 H 0.48827 0.57397 0.18403 0.0
H195 H 0.53734 0.57904 0.19238 0.0
H196 H 0.6891 0.57562 0.83519 0.0
H197 H 0.66971 0.64414 0.77666 0.0
H198 H 0.52341 0.60393 1.01066 0.0
C199 C 0.56437 0.455 0.14914 0.0
C200 C 0.60167 0.43225 0.13297 0.0
C201 C 0.64804 0.45224 0.05642 0.0
C202 C 0.65681 0.4925 0.99424 0.0
C203 C 0.61888 0.51263 1.00995 0.0
C204 C 0.57365 0.49521 0.08742 0.0
C205 C 0.53868 0.52273 0.08978 0.0
C206 C 0.5045 0.48554 0.07721 0.0
C207 C 0.51237 0.55201 0.18432 0.0
C208 C 0.57104 0.55859 1.00152 0.0
C209 C 0.61717 0.55184 0.95507 0.0
C210 C 0.65305 0.58101 0.87142 0.0
C211 C 0.6417 0.61933 0.83746 0.0
C212 C 0.59492 0.62849 0.88744 0.0
C213 C 0.55931 0.59693 0.96938 0.0
H214 H 0.64651 0.95134 0.82481 0.0
H215 H 0.49785 0.89664 0.9854 0.0
H216 H 0.48247 0.96791 0.09846 0.0
H217 H 0.65044 0.98631 0.02434 0.0
H218 H 0.69295 0.04283 0.96707 0.0
H219 H 0.69252 0.99065 0.89385 0.0
H220 H 0.68372 0.04853 0.78963 0.0
H221 H 0.68669 0.1018 0.85841 0.0
H222 H 0.63782 0.08744 0.84899 0.0
H223 H 0.4852 0.04478 0.20141 0.0
H224 H 0.50462 0.12491 0.26362 0.0
H225 H 0.65129 0.12687 0.03311 0.0
C226 C 0.61054 0.95512 0.88213 0.0
C227 C 0.57334 0.91876 0.89516 0.0
C228 C 0.52688 0.92461 0.97235 0.0
C229 C 0.51794 0.9646 0.03788 0.0
C230 C 0.55579 0.99861 0.02506 0.0
C231 C 0.60112 0.99468 0.94741 0.0
C232 C 0.636 1.0357 0.94807 0.0
C233 C 0.66995 1.01245 0.95904 0.0
C234 C 0.6626 0.07043 0.85584 0.0
C235 C 0.60351 0.06356 0.03838 0.0
C236 C 0.55733 0.04156 0.08294 0.0
C237 C 0.52131 0.06197 0.16687 0.0
C238 C 0.53266 0.10707 0.20296 0.0
C239 C 0.57958 0.13142 0.15486 0.0
C240 C 0.61525 0.10839 0.07306 0.0
H241 H 0.15481 0.98215 0.0569 0.0
H242 H 1.01129 0.90788 0.24403 0.0
H243 H 0.98755 0.96579 0.17595 0.0
H244 H 0.12634 0.11222 0.07529 0.0
H245 H 0.17457 0.12903 0.95087 0.0
H246 H 0.17852 0.0833 1.01925 0.0
H247 H 0.19716 1.01858 0.8832 0.0
H248 H 0.19174 0.06382 0.81635 0.0
H249 H 0.15662 1.00181 0.84986 0.0
H250 H 0.98098 1.02811 0.07668 0.0
H251 H 0.98827 0.10158 0.98357 0.0
H252 H 0.13563 0.13754 0.86471 0.0
C253 C 0.11809 0.97925 0.08601 0.0
C254 C 0.08477 0.9408 0.15692 0.0
C255 C 0.03726 0.93756 0.19149 0.0
C256 C 1.02361 0.96991 0.15205 0.0
C257 C 0.05776 1.00597 0.07919 0.0
C258 C 0.1038 1.01182 0.04871 0.0
C259 C 0.1336 0.05402 0.97066 0.0
C260 C 0.15448 0.0972 1.00614 0.0
C261 C 0.17206 1.03329 0.87434 0.0
C262 C 0.09731 0.07089 0.96108 0.0
C263 C 0.05392 0.04207 1.0232 0.0
C264 C 1.01479 0.05089 0.0282 0.0
C265 C 1.01943 0.09215 0.97346 0.0
C266 C 0.06284 0.12423 0.914 0.0
C267 C 0.10252 0.11242 0.9059 0.0
H268 H 0.36914 0.80362 0.6617 0.0
H269 H 0.43555 0.68177 0.46939 0.0
H270 H 0.38229 0.67641 0.4184 0.0
H271 H 0.25144 0.75464 0.73768 0.0
H272 H 0.23663 0.81618 0.73741 0.0
H273 H 0.2798 0.81068 0.76004 0.0
H274 H 0.33885 0.8761 0.61823 0.0
H275 H 0.29537 0.88116 0.59612 0.0
H276 H 0.3513 0.86447 0.49886 0.0
H277 H 0.32186 0.68309 0.3877 0.0
H278 H 0.25826 0.7014 0.37922 0.0
H279 H 0.22921 0.8195 0.58965 0.0
C280 C 0.37275 0.77607 0.6083 0.0
C281 C 0.40659 0.7427 0.57069 0.0
C282 C 0.40955 0.70705 0.50136 0.0
C283 C 0.37958 0.70394 0.47111 0.0
C284 C 0.34653 0.73687 0.51007 0.0
C285 C 0.34292 0.77241 0.57691 0.0
C286 C 0.30391 0.80296 0.60741 0.0
C287 C 0.26569 0.7956 0.71726 0.0
C288 C 0.32354 0.85953 0.57841 0.0
C289 C 0.286 0.77873 0.54792 0.0
C290 C 0.31135 0.74077 0.49218 0.0
C291 C 0.3016 0.71254 0.43153 0.0
C292 C 0.26493 0.72302 0.42791 0.0
C293 C 0.23787 0.76152 0.4845 0.0
C294 C 0.24907 0.78996 0.54495 0.0
H295 H 0.22174 0.27869 0.58925 0.0
H296 H 0.20261 0.25772 0.86553 0.0
H297 H 0.28676 0.25105 0.77637 0.0
H298 H 0.30406 0.1906 0.4555 0.0
H299 H 0.3395 0.22831 0.34358 0.0
H300 H 0.27787 0.23183 0.42551 0.0
H301 H 0.29426 0.32868 0.43598 0.0
H302 H 0.35583 0.32667 0.35059 0.0
H303 H 0.33435 0.35503 0.46694 0.0
H304 H 0.37365 0.2503 0.65726 0.0
H305 H 0.45629 0.2546 0.51908 0.0
H306 H 0.41956 0.27358 0.31775 0.0
C307 C 0.23499 0.27264 0.63159 0.0
C308 C 0.20514 0.26902 0.73526 0.0
C309 C 0.22442 0.26081 0.78666 0.0
C310 C 0.27226 0.25689 0.73641 0.0
C311 C 0.3005 0.26085 0.63452 0.0
C312 C 0.28252 0.26835 0.58262 0.0
C313 C 0.32044 0.27167 0.47336 0.0
C314 C 0.30976 0.22798 0.4215 0.0
C315 C 0.32658 0.32361 0.42917 0.0
C316 C 0.36294 0.26566 0.47165 0.0
C317 C 0.35047 0.25938 0.5656 0.0
C318 C 0.38362 0.25485 0.5836 0.0
C319 C 0.43063 0.25742 0.50426 0.0
C320 C 0.44467 0.26416 0.4071 0.0
C321 C 0.41002 0.26762 0.39076 0.0
H322 H 0.95458 0.28718 0.43086 0.0
H323 H 0.87052 0.30646 0.74315 0.0
H324 H 0.80356 0.31685 0.73883 0.0
H325 H 0.90536 0.3794 0.37291 0.0
H326 H 0.90767 0.34172 0.27743 0.0
H327 H 0.94932 0.33853 0.30569 0.0
H328 H 0.92455 0.24062 0.33117 0.0
H329 H 0.88238 0.24434 0.30469 0.0
H330 H 0.8639 0.21501 0.41796 0.0
H331 H 0.745 0.32199 0.70302 0.0
H332 H 0.69777 0.32237 0.6386 0.0
H333 H 0.81845 0.30095 0.34707 0.0
C334 C 0.92215 0.29406 0.49801 0.0
C335 C 0.9175 0.29535 0.58793 0.0
C336 C 0.87446 0.3042 0.67419 0.0
C337 C 0.83637 0.3105 0.67223 0.0
C338 C 0.84167 0.30804 0.58313 0.0
C339 C 0.88345 0.30025 0.49736 0.0
C340 C 0.87907 0.29826 0.41197 0.0
C341 C 0.91233 0.34208 0.33759 0.0
C342 C 0.888 0.24647 0.36362 0.0
C343 C 0.82814 0.30531 0.46361 0.0
C344 C 0.80756 0.31131 0.56218 0.0
C345 C 0.76085 0.31788 0.62579 0.0
C346 C 0.73433 0.31841 0.58811 0.0
C347 C 0.7542 0.3124 0.48729 0.0
C348 C 0.80197 0.30563 0.42442 0.0
H349 H 0.94762 0.77095 0.43583 0.0
H350 H 0.97058 0.81737 0.16586 0.0
H351 H 0.8856 0.82005 0.25495 0.0
H352 H 0.83764 0.69112 0.53471 0.0
H353 H 0.81402 0.70984 0.65818 0.0
H354 H 0.87612 0.71087 0.57257 0.0
H355 H 0.89055 0.80583 0.60644 0.0
H356 H 0.82848 0.805 0.69201 0.0
H357 H 0.86199 0.85095 0.59156 0.0
H358 H 0.79773 0.8171 0.37527 0.0
H359 H 0.71507 0.80972 0.51395 0.0
H360 H 0.75076 0.76736 0.70611 0.0
C361 C 0.93514 0.78148 0.39448 0.0
C362 C 0.96611 0.79362 0.29303 0.0
C363 C 0.94773 0.80751 0.24309 0.0
C364 C 0.89951 0.80928 0.29329 0.0
C365 C 0.87027 0.79734 0.39339 0.0
C366 C 0.88753 0.78383 0.44329 0.0
C367 C 0.84919 0.77338 0.5509 0.0
C368 C 0.84394 0.71801 0.5808 0.0
C369 C 0.8581 0.81104 0.61388 0.0
C370 C 0.80721 0.78273 0.55422 0.0
C371 C 0.82013 0.79647 0.46261 0.0
C372 C 0.78737 0.80643 0.44711 0.0
C373 C 0.74033 0.802 0.52681 0.0
C374 C 0.72608 0.78783 0.6216 0.0
C375 C 0.7603 0.7784 0.63506 0.0
H376 H 0.45953 0.77723 0.88023 0.0
H377 H 0.41797 0.76912 0.17837 0.0
H378 H 0.33575 0.77268 0.23707 0.0
H379 H 0.38076 0.86345 0.91797 0.0
H380 H 0.37284 0.83185 0.82911 0.0
H381 H 0.42659 0.83246 0.81852 0.0
H382 H 0.41289 0.73168 0.81789 0.0
H383 H 0.3597 0.73474 0.82811 0.0
H384 H 0.35846 0.69772 0.91606 0.0
H385 H 0.2582 0.77039 0.26004 0.0
H386 H 0.19261 0.77705 0.24931 0.0
H387 H 0.28613 0.78793 0.93424 0.0
C388 C 0.43315 0.77651 0.95817 0.0
C389 C 0.44468 0.7725 0.02527 0.0
C390 C 0.40963 0.77236 0.12626 0.0
C391 C 0.36299 0.77377 0.15981 0.0
C392 C 0.35267 0.77556 0.09105 0.0
C393 C 0.387 0.77791 0.99237 0.0
C394 C 0.36735 0.78019 0.93295 0.0
C395 C 0.38809 0.82992 0.87096 0.0
C396 C 0.37503 0.73331 0.86996 0.0
C397 C 0.3162 0.779 1.01344 0.0
C398 C 0.30847 0.77561 0.10403 0.0
C399 C 0.26405 0.77353 0.18968 0.0
C400 C 0.22706 0.77719 0.18271 0.0
C401 C 0.23445 0.78331 0.09112 0.0
C402 C 0.27943 0.78276 1.00504 0.0
H403 H 0.17416 0.33277 0.25833 0.0
H404 H 0.12018 0.17158 0.31662 0.0
H405 H 0.19081 0.15648 0.30238 0.0
H406 H 0.28121 0.32476 0.08141 0.0
H407 H 0.311 0.37575 0.11078 0.0
H408 H 0.25176 0.37686 0.15225 0.0
H409 H 0.226 0.38342 0.33093 0.0
H410 H 0.28554 0.38328 0.29076 0.0
H411 H 0.23917 0.33717 0.3819 0.0
H412 H 0.27382 0.15644 0.24053 0.0
H413 H 0.35957 0.1729 0.15568 0.0
H414 H 0.35784 0.33445 0.14382 0.0
C415 C 0.17574 0.29467 0.27371 0.0
C416 C 0.14178 0.25334 0.2878 0.0
C417 C 0.14612 0.20378 0.3043 0.0
C418 C 0.18593 0.19489 0.29722 0.0
C419 C 0.22034 0.23614 0.27633 0.0
C420 C 0.21496 0.28533 0.26782 0.0
C421 C 0.25925 0.32219 0.2332 0.0
C422 C 0.2768 0.35154 0.13885 0.0
C423 C 0.25206 0.35867 0.31402 0.0
C424 C 0.29156 0.2855 0.21517 0.0
C425 C 0.26832 0.23617 0.24244 0.0
C426 C 0.29212 0.19505 0.22159 0.0
C427 C 0.34085 0.20467 0.17195 0.0
C428 C 0.36516 0.25499 0.14342 0.0
C429 C 0.33998 0.29577 0.16674 0.0
H430 H 0.74801 0.36805 0.05113 0.0
H431 H 0.72903 0.23043 0.91854 0.0
H432 H 0.80245 0.20794 0.8817 0.0
H433 H 0.88321 0.39038 0.87822 0.0
H434 H 0.88712 0.41465 0.97647 0.0
H435 H 0.83878 0.42486 0.97335 0.0
H436 H 0.78161 0.38387 0.14729 0.0
H437 H 0.82951 0.37128 0.14954 0.0
H438 H 0.78481 0.31988 0.1692 0.0
H439 H 0.86266 0.18948 0.9017 0.0
H440 H 0.92592 0.18794 0.92122 0.0
H441 H 0.91402 0.34194 0.02554 0.0
C442 C 0.76131 0.3352 1.00778 0.0
C443 C 0.73365 0.30154 0.98512 0.0
C444 C 0.75054 0.25743 0.93329 0.0
C445 C 0.79164 0.24385 0.91422 0.0
C446 C 0.81591 0.27563 0.94523 0.0
C447 C 0.80289 0.32167 0.98647 0.0
C448 C 0.83425 0.34734 1.01702 0.0
C449 C 0.86254 0.39728 0.95771 0.0
C450 C 0.80582 0.35611 0.12729 0.0
C451 C 0.86566 0.30751 0.99006 0.0
C452 C 0.85361 0.26625 0.95038 0.0
C453 C 0.87373 0.22238 0.92877 0.0
C454 C 0.90942 0.22183 0.94123 0.0
C455 C 0.92593 0.26533 0.97256 0.0
C456 C 0.9026 0.3083 1.00056 0.0
H457 H 0.97728 0.90836 0.97383 0.0
H458 H 0.06161 0.9069 0.65776 0.0
H459 H 0.99219 0.91516 0.66052 0.0
H460 H 0.88123 0.83246 1.01376 0.0
H461 H 0.83845 0.86494 0.11688 0.0
H462 H 0.89588 0.86817 0.08989 0.0
H463 H 0.90719 0.96654 0.08156 0.0
H464 H 0.84935 0.96387 0.10989 0.0
H465 H 0.89911 0.9983 1.0019 0.0
H466 H 0.91176 0.91096 0.69921 0.0
H467 H 0.82746 0.89533 0.76973 0.0
H468 H 0.79631 0.90212 0.0607 0.0
C469 C 0.98181 0.91191 0.90479 0.0
C470 C 1.02509 0.90747 0.81545 0.0
C471 C 1.02882 0.91019 0.72708 0.0
C472 C 0.98966 0.91521 0.72793 0.0
C473 C 0.94721 0.91794 0.81764 0.0
C474 C 0.94323 0.91692 0.90441 0.0
C475 C 0.89296 0.91529 0.99141 0.0
C476 C 0.87618 0.86737 0.05673 0.0
C477 C 0.88679 0.9639 0.04961 0.0
C478 C 0.86887 0.9132 0.94017 0.0
C479 C 0.90079 0.91563 0.83999 0.0
C480 C 0.88653 0.91027 0.77748 0.0
C481 C 0.83846 0.90153 0.81838 0.0
C482 C 0.80509 0.89776 0.92094 0.0
C483 C 0.82081 0.90478 0.98214 0.0
loop_
_geom_bond_atom_site_label_1
_geom_bond_atom_site_label_2
_geom_bond_distance
_geom_bond_site_symmetry_2
_ccdc_geom_bond_type
Tb0 C9 2.771 . S
Tb0 O10 2.325 1_455 S
Tb0 O13 2.303 . S
Tb0 O17 2.322 . S
Tb0 O18 2.349 . S
Tb0 O21 2.415 . S
Tb0 O22 2.399 . S
Tb1 O11 2.322 1_455 S
Tb1 O12 2.349 . S
Tb1 O14 2.415 . S
Tb1 O15 2.399 . S
Tb1 O16 2.325 . S
Tb1 O19 2.303 . S
Tb1 C30 2.764 . S
C2 O18 1.261 . S
C2 O19 1.257 . S
C3 C6 1.358 . S
C3 C7 1.332 1_556 S
C3 C9 1.497 1_656 S
C4 C5 1.373 . S
C4 C8 1.308 . S
C5 C4 1.373 . S
C5 C6 1.429 . S
C5 H32 0.932 . S
C6 C3 1.358 . S
C6 C5 1.429 . S
C6 H33 0.930 . S
C7 C3 1.332 1_554 S
C7 C8 1.394 1_554 S
C7 H34 0.932 . S
C8 C4 1.308 . S
C8 C7 1.394 1_556 S
C8 H35 0.929 . S
C9 Tb0 2.771 . S
C9 C3 1.497 1_454 S
C9 O21 1.242 . S
C9 O22 1.266 . S
O10 Tb0 2.325 1_655 S
O10 C20 1.236 . S
O11 Tb1 2.322 1_655 S
O11 C20 1.257 . S
O12 Tb1 2.349 . S
O12 C23 1.261 . S
O13 Tb0 2.303 . S
O13 C23 1.257 . S
O14 Tb1 2.415 . S
O14 C30 1.239 . S
O15 Tb1 2.399 . S
O15 C30 1.263 . S
O16 Tb1 2.325 . S
O16 C31 1.236 . S
O17 Tb0 2.322 . S
O17 C31 1.257 . S
O18 Tb0 2.349 . S
O18 C2 1.261 . S
O19 Tb1 2.303 . S
O19 C2 1.257 . S
C20 O10 1.236 . S
C20 O11 1.257 . S
O21 Tb0 2.415 . S
O21 C9 1.242 . S
O22 Tb0 2.399 . S
O22 C9 1.266 . S
C23 O12 1.261 . S
C23 O13 1.257 . S
C24 C27 1.358 . S
C24 C28 1.332 . S
C24 C30 1.504 . S
C25 C26 1.373 . S
C25 C29 1.308 . S
C26 C25 1.373 . S
C26 C27 1.429 . S
C26 H36 0.932 . S
C27 C24 1.358 . S
C27 C26 1.429 . S
C27 H37 0.930 . S
C28 C24 1.332 . S
C28 C29 1.394 . S
C28 H38 0.932 . S
C29 C25 1.308 . S
C29 C28 1.394 . S
C29 H39 0.929 . S
C30 Tb1 2.764 . S
C30 O14 1.239 . S
C30 O15 1.263 . S
C30 C24 1.504 . S
C31 O16 1.236 . S
C31 O17 1.257 . S
H32 C5 0.932 . S
H33 C6 0.930 . S
H34 C7 0.932 . S
H35 C8 0.929 . S
H36 C26 0.932 . S
H37 C27 0.930 . S
H38 C28 0.932 . S
H39 C29 0.929 . S
Tb40 C49 2.764 . S
Tb40 O50 2.325 . S
Tb40 O53 2.303 . S
Tb40 O57 2.322 . S
Tb40 O58 2.349 . S
Tb40 O61 2.415 . S
Tb40 O62 2.399 . S
Tb41 O51 2.322 . S
Tb41 O52 2.349 . S
Tb41 O54 2.415 . S
Tb41 O55 2.399 . S
Tb41 O56 2.325 . S
Tb41 O59 2.303 . S
Tb41 C70 2.764 . S
C42 O58 1.261 . S
C42 O59 1.257 . S
C43 C46 1.358 . S
C43 C47 1.332 1_556 S
C43 C49 1.504 1_556 S
C44 C45 1.373 . S
C44 C48 1.308 . S
C45 C44 1.373 . S
C45 C46 1.429 . S
C45 H72 0.932 . S
C46 C43 1.358 . S
C46 C45 1.429 . S
C46 H73 0.930 . S
C47 C43 1.332 1_554 S
C47 C48 1.394 1_554 S
C47 H74 0.932 . S
C48 C44 1.308 . S
C48 C47 1.394 1_556 S
C48 H75 0.929 . S
C49 Tb40 2.764 . S
C49 C43 1.504 1_554 S
C49 O61 1.239 . S
C49 O62 1.263 . S
O50 Tb40 2.325 . S
O50 C60 1.236 . S
O51 Tb41 2.322 . S
O51 C60 1.257 . S
O52 Tb41 2.349 . S
O52 C63 1.261 . S
O53 Tb40 2.303 . S
O53 C63 1.257 . S
O54 Tb41 2.415 . S
O54 C70 1.239 . S
O55 Tb41 2.399 . S
O55 C70 1.263 . S
O56 Tb41 2.325 . S
O56 C71 1.236 . S
O57 Tb40 2.322 . S
O57 C71 1.257 . S
O58 Tb40 2.349 . S
O58 C42 1.261 . S
O59 Tb41 2.303 . S
O59 C42 1.257 . S
C60 O50 1.236 . S
C60 O51 1.257 . S
O61 Tb40 2.415 . S
O61 C49 1.239 . S
O62 Tb40 2.399 . S
O62 C49 1.263 . S
C63 O52 1.261 . S
C63 O53 1.257 . S
C64 C67 1.358 . S
C64 C68 1.332 . S
C64 C70 1.504 . S
C65 C66 1.373 . S
C65 C69 1.308 . S
C66 C65 1.373 . S
C66 C67 1.429 . S
C66 H76 0.932 . S
C67 C64 1.358 . S
C67 C66 1.429 . S
C67 H77 0.930 . S
C68 C64 1.332 . S
C68 C69 1.394 . S
C68 H78 0.932 . S
C69 C65 1.308 . S
C69 C68 1.394 . S
C69 H79 0.929 . S
C70 Tb41 2.764 . S
C70 O54 1.239 . S
C70 O55 1.263 . S
C70 C64 1.504 . S
C71 O56 1.236 . S
C71 O57 1.257 . S
H72 C45 0.932 . S
H73 C46 0.930 . S
H74 C47 0.932 . S
H75 C48 0.929 . S
H76 C66 0.932 . S
H77 C67 0.930 . S
H78 C68 0.932 . S
H79 C69 0.929 . S
Tb80 C89 2.764 1_455 S
Tb80 O90 2.325 1_455 S
Tb80 O93 2.303 . S
Tb80 O97 2.322 . S
Tb80 O98 2.349 . S
Tb80 O101 2.415 . S
Tb80 O102 2.417 . S
Tb81 O91 2.322 1_455 S
Tb81 O92 2.349 . S
Tb81 O94 2.415 . S
Tb81 O95 2.399 . S
Tb81 O96 2.325 . S
Tb81 O99 2.303 . S
Tb81 C110 2.764 . S
C82 O98 1.261 . S
C82 O99 1.257 . S
C83 C86 1.358 . S
C83 C87 1.332 . S
C83 C89 1.504 . S
C84 C85 1.373 . S
C84 C88 1.308 . S
C85 C84 1.373 . S
C85 C86 1.429 . S
C85 H112 0.932 . S
C86 C83 1.358 . S
C86 C85 1.429 . S
C86 H113 0.930 . S
C87 C83 1.332 . S
C87 C88 1.394 . S
C87 H114 0.932 . S
C88 C84 1.308 . S
C88 C87 1.394 . S
C88 H115 0.929 . S
C89 Tb80 2.764 1_655 S
C89 C83 1.504 . S
C89 O101 1.239 1_655 S
C89 O102 1.253 1_655 S
O90 Tb80 2.325 1_655 S
O90 C100 1.236 . S
O91 Tb81 2.322 1_655 S
O91 C100 1.257 . S
O92 Tb81 2.349 . S
O92 C103 1.261 . S
O93 Tb80 2.303 . S
O93 C103 1.257 . S
O94 Tb81 2.415 . S
O94 C110 1.239 . S
O95 Tb81 2.399 . S
O95 C110 1.263 . S
O96 Tb81 2.325 . S
O96 C111 1.236 . S
O97 Tb80 2.322 . S
O97 C111 1.257 . S
O98 Tb80 2.349 . S
O98 C82 1.261 . S
O99 Tb81 2.303 . S
O99 C82 1.257 . S
C100 O90 1.236 . S
C100 O91 1.257 . S
O101 Tb80 2.415 . S
O101 C89 1.239 1_455 S
O102 Tb80 2.417 . S
O102 C89 1.253 1_455 S
C103 O92 1.261 . S
C103 O93 1.257 . S
C104 C107 1.358 . S
C104 C108 1.332 1_554 S
C104 C110 1.504 1_554 S
C105 C106 1.373 . S
C105 C109 1.308 . S
C106 C105 1.373 . S
C106 C107 1.429 . S
C106 H116 0.932 . S
C107 C104 1.358 . S
C107 C106 1.429 . S
C107 H117 0.930 . S
C108 C104 1.332 1_556 S
C108 C109 1.394 1_556 S
C108 H118 0.932 . S
C109 C105 1.308 . S
C109 C108 1.394 1_554 S
C109 H119 0.929 . S
C110 Tb81 2.764 . S
C110 O94 1.239 . S
C110 O95 1.263 . S
C110 C104 1.504 1_556 S
C111 O96 1.236 . S
C111 O97 1.257 . S
H112 C85 0.932 . S
H113 C86 0.930 . S
H114 C87 0.932 . S
H115 C88 0.929 . S
H116 C106 0.932 . S
H117 C107 0.930 . S
H118 C108 0.932 . S
H119 C109 0.929 . S
Tb120 C129 2.764 . S
Tb120 O130 2.325 . S
Tb120 O133 2.303 . S
Tb120 O137 2.322 . S
Tb120 O138 2.349 . S
Tb120 O141 2.415 . S
Tb120 O142 2.399 . S
Tb121 O131 2.322 . S
Tb121 O132 2.349 . S
Tb121 O134 2.415 . S
Tb121 O135 2.399 . S
Tb121 O136 2.325 . S
Tb121 O139 2.303 . S
Tb121 C150 2.764 . S
C122 O138 1.261 . S
C122 O139 1.257 . S
C123 C126 1.358 . S
C123 C127 1.332 . S
C123 C129 1.504 . S
C124 C125 1.373 . S
C124 C128 1.308 . S
C125 C124 1.373 . S
C125 C126 1.429 . S
C125 H152 0.932 . S
C126 C123 1.358 . S
C126 C125 1.429 . S
C126 H153 0.930 . S
C127 C123 1.332 . S
C127 C128 1.394 . S
C127 H154 0.932 . S
C128 C124 1.308 . S
C128 C127 1.394 . S
C128 H155 0.929 . S
C129 Tb120 2.764 . S
C129 C123 1.504 . S
C129 O141 1.239 . S
C129 O142 1.263 . S
O130 Tb120 2.325 . S
O130 C140 1.236 . S
O131 Tb121 2.322 . S
O131 C140 1.257 . S
O132 Tb121 2.349 . S
O132 C143 1.261 . S
O133 Tb120 2.303 . S
O133 C143 1.257 . S
O134 Tb121 2.415 . S
O134 C150 1.239 . S
O135 Tb121 2.399 . S
O135 C150 1.263 . S
O136 Tb121 2.325 . S
O136 C151 1.236 . S
O137 Tb120 2.322 . S
O137 C151 1.257 . S
O138 Tb120 2.349 . S
O138 C122 1.261 . S
O139 Tb121 2.303 . S
O139 C122 1.257 . S
C140 O130 1.236 . S
C140 O131 1.257 . S
O141 Tb120 2.415 . S
O141 C129 1.239 . S
O142 Tb120 2.399 . S
O142 C129 1.263 . S
C143 O132 1.261 . S
C143 O133 1.257 . S
C144 C147 1.358 . S
C144 C148 1.332 1_554 S
C144 C150 1.504 1_554 S
C145 C146 1.373 . S
C145 C149 1.308 . S
C146 C145 1.373 . S
C146 C147 1.429 . S
C146 H156 0.932 . S
C147 C144 1.358 . S
C147 C146 1.429 . S
C147 H157 0.930 . S
C148 C144 1.332 1_556 S
C148 C149 1.394 1_556 S
C148 H158 0.932 . S
C149 C145 1.308 . S
C149 C148 1.394 1_554 S
C149 H159 0.929 . S
C150 Tb121 2.764 . S
C150 O134 1.239 . S
C150 O135 1.263 . S
C150 C144 1.504 1_556 S
C151 O136 1.236 . S
C151 O137 1.257 . S
H152 C125 0.932 . S
H153 C126 0.930 . S
H154 C127 0.932 . S
H155 C128 0.929 . S
H156 C146 0.932 . S
H157 C147 0.930 . S
H158 C148 0.932 . S
H159 C149 0.929 . S
H160 C172 0.930 . S
H161 C174 0.930 . S
H162 C175 0.930 . S
H163 C179 0.959 . S
H164 C179 0.959 . S
H165 C179 0.961 . S
H166 C180 0.960 . S
H167 C180 0.961 . S
H168 C180 0.959 . S
H169 C183 0.929 . S
H170 C184 0.931 . S
H171 C186 0.936 . S
C172 H160 0.930 . S
C172 C173 1.399 . S
C172 C177 1.399 . S
C173 C172 1.399 . S
C173 C174 1.376 . S
C174 H161 0.930 . S
C174 C173 1.376 . S
C174 C175 1.388 1_556 S
C175 H162 0.930 . S
C175 C174 1.388 1_554 S
C175 C176 1.390 . S
C176 C175 1.390 . S
C176 C177 1.394 1_554 S
C176 C182 1.465 . S
C177 C172 1.399 . S
C177 C176 1.394 1_556 S
C177 C178 1.516 . S
C178 C177 1.516 . S
C178 C179 1.502 . S
C178 C180 1.561 . S
C178 C181 1.526 1_556 S
C179 H163 0.959 . S
C179 H164 0.959 . S
C179 H165 0.961 . S
C179 C178 1.502 . S
C180 H166 0.960 . S
C180 H167 0.961 . S
C180 H168 0.959 . S
C180 C178 1.561 . S
C181 C178 1.526 1_554 S
C181 C182 1.396 . S
C181 C186 1.390 . S
C182 C176 1.465 . S
C182 C181 1.396 . S
C182 C183 1.399 . S
C183 H169 0.929 . S
C183 C182 1.399 . S
C183 C184 1.385 . S
C184 H170 0.931 . S
C184 C183 1.385 . S
C184 C185 1.389 . S
C185 C184 1.389 . S
C185 C186 1.387 . S
C186 H171 0.936 . S
C186 C181 1.390 . S
C186 C185 1.387 . S
H187 C199 0.930 . S
H188 C201 0.930 1_556 S
H189 C202 0.930 . S
H190 C206 0.959 . S
H191 C206 0.959 . S
H192 C206 0.961 . S
H193 C207 0.960 . S
H194 C207 0.961 . S
H195 C207 0.959 . S
H196 C210 0.929 . S
H197 C211 0.931 . S
H198 C213 0.930 1_554 S
C199 H187 0.930 . S
C199 C200 1.399 . S
C199 C204 1.399 . S
C200 C199 1.399 . S
C200 C201 1.376 . S
C201 H188 0.930 1_554 S
C201 C200 1.376 . S
C201 C202 1.388 1_554 S
C202 H189 0.930 . S
C202 C201 1.388 1_556 S
C202 C203 1.390 . S
C203 C202 1.390 . S
C203 C204 1.394 1_556 S
C203 C209 1.465 . S
C204 C199 1.399 . S
C204 C203 1.394 1_554 S
C204 C205 1.516 . S
C205 C204 1.516 . S
C205 C206 1.502 . S
C205 C207 1.561 . S
C205 C208 1.526 1_554 S
C206 H190 0.959 . S
C206 H191 0.959 . S
C206 H192 0.961 . S
C206 C205 1.502 . S
C207 H193 0.960 . S
C207 H194 0.961 . S
C207 H195 0.959 . S
C207 C205 1.561 . S
C208 C205 1.526 1_556 S
C208 C209 1.396 . S
C208 C213 1.390 . S
C209 C203 1.465 . S
C209 C208 1.396 . S
C209 C210 1.399 . S
C210 H196 0.929 . S
C210 C209 1.399 . S
C210 C211 1.385 . S
C211 H197 0.931 . S
C211 C210 1.385 . S
C211 C212 1.389 . S
C212 C211 1.389 . S
C212 C213 1.387 . S
C213 H198 0.930 1_556 S
C213 C208 1.390 . S
C213 C212 1.387 . S
H214 C226 0.930 . S
H215 C228 0.930 . S
H216 C229 0.930 . S
H217 C233 0.959 . S
H218 C233 0.959 . S
H219 C233 0.961 . S
H220 C234 0.960 1_565 S
H221 C234 0.961 . S
H222 C234 0.959 . S
H223 C237 0.929 . S
H224 C238 0.931 . S
H225 C240 0.930 . S
C226 H214 0.930 . S
C226 C227 1.399 . S
C226 C231 1.399 . S
C227 C226 1.399 . S
C227 C228 1.376 . S
C228 H215 0.930 . S
C228 C227 1.376 . S
C228 C229 1.388 . S
C229 H216 0.930 . S
C229 C228 1.388 . S
C229 C230 1.390 . S
C230 C229 1.390 . S
C230 C231 1.394 . S
C230 C236 1.465 1_566 S
C231 C226 1.399 . S
C231 C230 1.394 . S
C231 C232 1.516 . S
C232 C231 1.516 . S
C232 C233 1.502 1_556 S
C232 C234 1.561 1_565 S
C232 C235 1.526 1_566 S
C233 H217 0.959 . S
C233 H218 0.959 . S
C233 H219 0.961 . S
C233 C232 1.502 1_554 S
C234 H220 0.960 1_545 S
C234 H221 0.961 . S
C234 H222 0.959 . S
C234 C232 1.561 1_545 S
C235 C232 1.526 1_544 S
C235 C236 1.396 . S
C235 C240 1.390 . S
C236 C230 1.465 1_544 S
C236 C235 1.396 . S
C236 C237 1.399 . S
C237 H223 0.929 . S
C237 C236 1.399 . S
C237 C238 1.385 . S
C238 H224 0.931 . S
C238 C237 1.385 . S
C238 C239 1.389 . S
C239 C238 1.389 . S
C239 C240 1.387 . S
C240 H225 0.930 . S
C240 C235 1.390 . S
C240 C239 1.387 . S
H241 C253 0.930 1_556 S
H242 C255 0.930 . S
H243 C256 0.930 1_655 S
H244 C260 0.959 1_545 S
H245 C260 0.959 . S
H246 C260 0.961 . S
H247 C261 0.960 . S
H248 C261 0.961 . S
H249 C261 0.959 . S
H250 C264 0.929 1_655 S
H251 C265 0.931 1_654 S
H252 C267 0.930 . S
C253 H241 0.930 1_554 S
C253 C254 1.399 . S
C253 C258 1.399 1_554 S
C254 C253 1.399 . S
C254 C255 1.376 . S
C255 H242 0.930 . S
C255 C254 1.376 . S
C255 C256 1.388 . S
C256 H243 0.930 1_455 S
C256 C255 1.388 . S
C256 C257 1.390 . S
C257 C256 1.390 . S
C257 C258 1.394 1_554 S
C257 C263 1.465 1_565 S
C258 C253 1.399 1_556 S
C258 C257 1.394 1_556 S
C258 C259 1.516 . S
C259 C258 1.516 . S
C259 C260 1.502 . S
C259 C261 1.561 . S
C259 C262 1.526 1_565 S
C260 H244 0.959 1_565 S
C260 H245 0.959 . S
C260 H246 0.961 . S
C260 C259 1.502 . S
C261 H247 0.960 . S
C261 H248 0.961 . S
C261 H249 0.959 . S
C261 C259 1.561 . S
C262 C259 1.526 1_545 S
C262 C263 1.396 1_556 S
C262 C267 1.390 . S
C263 C257 1.465 1_545 S
C263 C262 1.396 1_554 S
C263 C264 1.399 . S
C264 H250 0.929 1_455 S
C264 C263 1.399 . S
C264 C265 1.385 1_554 S
C265 H251 0.931 1_456 S
C265 C264 1.385 1_556 S
C265 C266 1.389 . S
C266 C265 1.389 . S
C266 C267 1.387 . S
C267 H252 0.930 . S
C267 C262 1.390 . S
C267 C266 1.387 . S
H268 C280 0.930 . S
H269 C282 0.930 . S
H270 C283 0.930 . S
H271 C287 0.959 . S
H272 C287 0.959 . S
H273 C287 0.961 . S
H274 C288 0.960 . S
H275 C288 0.961 . S
H276 C288 0.959 . S
H277 C291 0.929 . S
H278 C292 0.931 . S
H279 C294 0.930 . S
C280 H268 0.930 . S
C280 C281 1.399 . S
C280 C285 1.399 . S
C281 C280 1.399 . S
C281 C282 1.376 . S
C282 H269 0.930 . S
C282 C281 1.376 . S
C282 C283 1.388 . S
C283 H270 0.930 . S
C283 C282 1.388 . S
C283 C284 1.390 . S
C284 C283 1.390 . S
C284 C285 1.394 . S
C284 C290 1.465 . S
C285 C280 1.399 . S
C285 C284 1.394 . S
C285 C286 1.516 . S
C286 C285 1.516 . S
C286 C287 1.502 . S
C286 C288 1.561 . S
C286 C289 1.526 . S
C287 H271 0.959 . S
C287 H272 0.959 . S
C287 H273 0.961 . S
C287 C286 1.502 . S
C288 H274 0.960 . S
C288 H275 0.961 . S
C288 H276 0.959 . S
C288 C286 1.561 . S
C289 C286 1.526 . S
C289 C290 1.396 . S
C289 C294 1.390 . S
C290 C284 1.465 . S
C290 C289 1.396 . S
C290 C291 1.399 . S
C291 H277 0.929 . S
C291 C290 1.399 . S
C291 C292 1.385 . S
C292 H278 0.931 . S
C292 C291 1.385 . S
C292 C293 1.389 . S
C293 C292 1.389 . S
C293 C294 1.387 . S
C294 H279 0.930 . S
C294 C289 1.390 . S
C294 C293 1.387 . S
H295 C307 0.930 . S
H296 C309 0.930 . S
H297 C310 0.930 . S
H298 C314 0.959 . S
H299 C314 0.959 . S
H300 C314 0.961 . S
H301 C315 0.960 . S
H302 C315 0.961 . S
H303 C315 0.959 . S
H304 C318 0.929 . S
H305 C319 0.931 . S
H306 C321 0.930 . S
C307 H295 0.930 . S
C307 C308 1.399 . S
C307 C312 1.399 . S
C308 C307 1.399 . S
C308 C309 1.376 . S
C309 H296 0.930 . S
C309 C308 1.376 . S
C309 C310 1.388 . S
C310 H297 0.930 . S
C310 C309 1.388 . S
C310 C311 1.390 . S
C311 C310 1.390 . S
C311 C312 1.394 . S
C311 C317 1.465 . S
C312 C307 1.399 . S
C312 C311 1.394 . S
C312 C313 1.516 . S
C313 C312 1.516 . S
C313 C314 1.502 . S
C313 C315 1.561 . S
C313 C316 1.526 . S
C314 H298 0.959 . S
C314 H299 0.959 . S
C314 H300 0.961 . S
C314 C313 1.502 . S
C315 H301 0.960 . S
C315 H302 0.961 . S
C315 H303 0.959 . S
C315 C313 1.561 . S
C316 C313 1.526 . S
C316 C317 1.396 . S
C316 C321 1.390 . S
C317 C311 1.465 . S
C317 C316 1.396 . S
C317 C318 1.399 . S
C318 H304 0.929 . S
C318 C317 1.399 . S
C318 C319 1.385 . S
C319 H305 0.931 . S
C319 C318 1.385 . S
C319 C320 1.389 . S
C320 C319 1.389 . S
C320 C321 1.387 . S
C321 H306 0.930 . S
C321 C316 1.390 . S
C321 C320 1.387 . S
H322 C334 0.930 . S
H323 C336 0.930 . S
H324 C337 0.930 . S
H325 C341 0.959 . S
H326 C341 0.959 . S
H327 C341 0.961 . S
H328 C342 0.960 . S
H329 C342 0.961 . S
H330 C342 0.959 . S
H331 C345 0.929 . S
H332 C346 0.931 . S
H333 C348 0.930 . S
C334 H322 0.930 . S
C334 C335 1.399 . S
C334 C339 1.399 . S
C335 C334 1.399 . S
C335 C336 1.376 . S
C336 H323 0.930 . S
C336 C335 1.376 . S
C336 C337 1.388 . S
C337 H324 0.930 . S
C337 C336 1.388 . S
C337 C338 1.390 . S
C338 C337 1.390 . S
C338 C339 1.394 . S
C338 C344 1.465 . S
C339 C334 1.399 . S
C339 C338 1.394 . S
C339 C340 1.516 . S
C340 C339 1.516 . S
C340 C341 1.502 . S
C340 C342 1.561 . S
C340 C343 1.526 . S
C341 H325 0.959 . S
C341 H326 0.959 . S
C341 H327 0.961 . S
C341 C340 1.502 . S
C342 H328 0.960 . S
C342 H329 0.961 . S
C342 H330 0.959 . S
C342 C340 1.561 . S
C343 C340 1.526 . S
C343 C344 1.396 . S
C343 C348 1.390 . S
C344 C338 1.465 . S
C344 C343 1.396 . S
C344 C345 1.399 . S
C345 H331 0.929 . S
C345 C344 1.399 . S
C345 C346 1.385 . S
C346 H332 0.931 . S
C346 C345 1.385 . S
C346 C347 1.389 . S
C347 C346 1.389 . S
C347 C348 1.387 . S
C348 H333 0.930 . S
C348 C343 1.390 . S
C348 C347 1.387 . S
H349 C361 0.930 . S
H350 C363 0.930 . S
H351 C364 0.930 . S
H352 C368 0.959 . S
H353 C368 0.959 . S
H354 C368 0.961 . S
H355 C369 0.960 . S
H356 C369 0.961 . S
H357 C369 0.959 . S
H358 C372 0.929 . S
H359 C373 0.931 . S
H360 C375 0.930 . S
C361 H349 0.930 . S
C361 C362 1.399 . S
C361 C366 1.399 . S
C362 C361 1.399 . S
C362 C363 1.376 . S
C363 H350 0.930 . S
C363 C362 1.376 . S
C363 C364 1.388 . S
C364 H351 0.930 . S
C364 C363 1.388 . S
C364 C365 1.390 . S
C365 C364 1.390 . S
C365 C366 1.394 . S
C365 C371 1.465 . S
C366 C361 1.399 . S
C366 C365 1.394 . S
C366 C367 1.516 . S
C367 C366 1.516 . S
C367 C368 1.502 . S
C367 C369 1.561 . S
C367 C370 1.526 . S
C368 H352 0.959 . S
C368 H353 0.959 . S
C368 H354 0.961 . S
C368 C367 1.502 . S
C369 H355 0.960 . S
C369 H356 0.961 . S
C369 H357 0.959 . S
C369 C367 1.561 . S
C370 C367 1.526 . S
C370 C371 1.396 . S
C370 C375 1.390 . S
C371 C365 1.465 . S
C371 C370 1.396 . S
C371 C372 1.399 . S
C372 H358 0.929 . S
C372 C371 1.399 . S
C372 C373 1.385 . S
C373 H359 0.931 . S
C373 C372 1.385 . S
C373 C374 1.389 . S
C374 C373 1.389 . S
C374 C375 1.387 . S
C375 H360 0.930 . S
C375 C370 1.390 . S
C375 C374 1.387 . S
H376 C388 0.930 . S
H377 C390 0.930 . S
H378 C391 0.930 . S
H379 C395 0.959 . S
H380 C395 0.959 . S
H381 C395 0.961 . S
H382 C396 0.960 . S
H383 C396 0.961 . S
H384 C396 0.959 . S
H385 C399 0.929 . S
H386 C400 0.931 . S
H387 C402 0.930 . S
C388 H376 0.930 . S
C388 C389 1.399 . S
C388 C393 1.399 . S
C389 C388 1.399 . S
C389 C390 1.376 1_556 S
C390 H377 0.930 . S
C390 C389 1.376 1_554 S
C390 C391 1.388 . S
C391 H378 0.930 . S
C391 C390 1.388 . S
C391 C392 1.390 . S
C392 C391 1.390 . S
C392 C393 1.394 1_554 S
C392 C398 1.465 . S
C393 C388 1.399 . S
C393 C392 1.394 1_556 S
C393 C394 1.516 . S
C394 C393 1.516 . S
C394 C395 1.502 . S
C394 C396 1.561 . S
C394 C397 1.526 . S
C395 H379 0.959 . S
C395 H380 0.959 . S
C395 H381 0.961 . S
C395 C394 1.502 . S
C396 H382 0.960 . S
C396 H383 0.961 . S
C396 H384 0.959 . S
C396 C394 1.561 . S
C397 C394 1.526 . S
C397 C398 1.396 1_556 S
C397 C402 1.390 . S
C398 C392 1.465 . S
C398 C397 1.396 1_554 S
C398 C399 1.399 . S
C399 H385 0.929 . S
C399 C398 1.399 . S
C399 C400 1.385 . S
C400 H386 0.931 . S
C400 C399 1.385 . S
C400 C401 1.389 . S
C401 C400 1.389 . S
C401 C402 1.387 1_554 S
C402 H387 0.930 . S
C402 C397 1.390 . S
C402 C401 1.387 1_556 S
H403 C415 0.930 . S
H404 C417 0.930 . S
H405 C418 0.930 . S
H406 C422 0.959 . S
H407 C422 0.959 . S
H408 C422 0.961 . S
H409 C423 0.960 . S
H410 C423 0.961 . S
H411 C423 0.959 . S
H412 C426 0.929 1_554 S
H413 C427 0.931 . S
H414 C429 0.930 . S
C415 H403 0.930 . S
C415 C416 1.399 . S
C415 C420 1.399 . S
C416 C415 1.399 . S
C416 C417 1.376 . S
C417 H404 0.930 . S
C417 C416 1.376 . S
C417 C418 1.388 . S
C418 H405 0.930 . S
C418 C417 1.388 . S
C418 C419 1.390 . S
C419 C418 1.390 . S
C419 C420 1.394 . S
C419 C425 1.465 1_554 S
C420 C415 1.399 . S
C420 C419 1.394 . S
C420 C421 1.516 1_554 S
C421 C420 1.516 1_556 S
C421 C422 1.502 . S
C421 C423 1.561 1_556 S
C421 C424 1.526 . S
C422 H406 0.959 . S
C422 H407 0.959 . S
C422 H408 0.961 . S
C422 C421 1.502 . S
C423 H409 0.960 . S
C423 H410 0.961 . S
C423 H411 0.959 . S
C423 C421 1.561 1_554 S
C424 C421 1.526 . S
C424 C425 1.396 . S
C424 C429 1.390 . S
C425 C419 1.465 1_556 S
C425 C424 1.396 . S
C425 C426 1.399 . S
C426 H412 0.929 1_556 S
C426 C425 1.399 . S
C426 C427 1.385 . S
C427 H413 0.931 . S
C427 C426 1.385 . S
C427 C428 1.389 . S
C428 C427 1.389 . S
C428 C429 1.387 . S
C429 H414 0.930 . S
C429 C424 1.390 . S
C429 C428 1.387 . S
H430 C442 0.930 . S
H431 C444 0.930 . S
H432 C445 0.930 . S
H433 C449 0.959 . S
H434 C449 0.959 . S
H435 C449 0.961 . S
H436 C450 0.960 . S
H437 C450 0.961 . S
H438 C450 0.959 . S
H439 C453 0.929 . S
H440 C454 0.931 . S
H441 C456 0.930 . S
C442 H430 0.930 . S
C442 C443 1.399 . S
C442 C447 1.399 . S
C443 C442 1.399 . S
C443 C444 1.376 1_554 S
C444 H431 0.930 . S
C444 C443 1.376 1_556 S
C444 C445 1.388 . S
C445 H432 0.930 . S
C445 C444 1.388 . S
C445 C446 1.390 . S
C446 C445 1.390 . S
C446 C447 1.394 1_556 S
C446 C452 1.465 . S
C447 C442 1.399 . S
C447 C446 1.394 1_554 S
C447 C448 1.516 . S
C448 C447 1.516 . S
C448 C449 1.502 . S
C448 C450 1.561 . S
C448 C451 1.526 . S
C449 H433 0.959 . S
C449 H434 0.959 . S
C449 H435 0.961 . S
C449 C448 1.502 . S
C450 H436 0.960 . S
C450 H437 0.961 . S
C450 H438 0.959 . S
C450 C448 1.561 . S
C451 C448 1.526 . S
C451 C452 1.396 1_554 S
C451 C456 1.390 . S
C452 C446 1.465 . S
C452 C451 1.396 1_556 S
C452 C453 1.399 . S
C453 H439 0.929 . S
C453 C452 1.399 . S
C453 C454 1.385 . S
C454 H440 0.931 . S
C454 C453 1.385 . S
C454 C455 1.389 . S
C455 C454 1.389 . S
C455 C456 1.387 1_556 S
C456 H441 0.930 . S
C456 C451 1.390 . S
C456 C455 1.387 1_554 S
H457 C469 0.930 1_554 S
H458 C471 0.930 . S
H459 C472 0.930 . S
H460 C476 0.959 . S
H461 C476 0.959 . S
H462 C476 0.961 . S
H463 C477 0.960 . S
H464 C477 0.961 . S
H465 C477 0.959 . S
H466 C480 0.929 . S
H467 C481 0.931 1_556 S
H468 C483 0.930 . S
C469 H457 0.930 1_556 S
C469 C470 1.399 . S
C469 C474 1.399 1_556 S
C470 C469 1.399 . S
C470 C471 1.376 . S
C471 H458 0.930 . S
C471 C470 1.376 . S
C471 C472 1.388 . S
C472 H459 0.930 . S
C472 C471 1.388 . S
C472 C473 1.390 . S
C473 C472 1.390 . S
C473 C474 1.394 1_556 S
C473 C479 1.465 . S
C474 C469 1.399 1_554 S
C474 C473 1.394 1_554 S
C474 C475 1.516 . S
C475 C474 1.516 . S
C475 C476 1.502 . S
C475 C477 1.561 . S
C475 C478 1.526 . S
C476 H460 0.959 . S
C476 H461 0.959 . S
C476 H462 0.961 . S
C476 C475 1.502 . S
C477 H463 0.960 . S
C477 H464 0.961 . S
C477 H465 0.959 . S
C477 C475 1.561 . S
C478 C475 1.526 . S
C478 C479 1.396 1_554 S
C478 C483 1.390 . S
C479 C473 1.465 . S
C479 C478 1.396 1_556 S
C479 C480 1.399 . S
C480 H466 0.929 . S
C480 C479 1.399 . S
C480 C481 1.385 1_556 S
C481 H467 0.931 1_554 S
C481 C480 1.385 1_554 S
C481 C482 1.389 . S
C482 C481 1.389 . S
C482 C483 1.387 . S
C483 H468 0.930 . S
C483 C478 1.390 . S
C483 C482 1.387 . S
C173 C103 1.883 . S
C185 C2 1.955 . S
C200 C63 2.518 . S
C212 C122 2.537 . S
C227 C143 1.962 . S
C239 C42 1.874 . S
C254 C23 2.533 . S
C266 C82 2.519 . S
C281 C124 1.604 . S
C293 C25 1.574 . S
C308 C111 1.580 . S
C320 C60 1.570 . S
C335 C84 1.574 . S
C347 C65 1.598 . S
C362 C20 1.572 . S
C374 C151 1.582 . S
C389 C140 1.942 . S
C401 C31 1.891 . S
C416 C105 0.731 . S
C428 C44 0.574 . S
C443 C71 1.931 . S
C455 C100 1.899 . S
C470 C4 0.750 . S
C482 C145 0.492 . S
