# Generated by pormake.
# Topology srs-a, (3)-cn, num edge types: 1
# Building blocks:
#     Node 0, Type 0, BuildingBlock: WUSLED_clean_sbu_0, # of connection points: 3
#     Node 1, Type 0, BuildingBlock: WUSLED_clean_sbu_0, # of connection points: 3
#     Node 2, Type 0, BuildingBlock: WUSLED_clean_sbu_0, # of connection points: 3
#     Node 3, Type 0, BuildingBlock: WUSLED_clean_sbu_0, # of connection points: 3
#     Node 4, Type 0, BuildingBlock: WUSLED_clean_sbu_0, # of connection points: 3
#     Node 5, Type 0, BuildingBlock: WUSLED_clean_sbu_0, # of connection points: 3
#     Node 6, Type 0, BuildingBlock: WUSLED_clean_sbu_0, # of connection points: 3
#     Node 7, Type 0, BuildingBlock: WUSLED_clean_sbu_0, # of connection points: 3
#     Node 8, Type 0, BuildingBlock: WUSLED_clean_sbu_0, # of connection points: 3
#     Node 9, Type 0, BuildingBlock: WUSLED_clean_sbu_0, # of connection points: 3
#     Node 10, Type 0, BuildingBlock: WUSLED_clean_sbu_0, # of connection points: 3
#     Node 11, Type 0, BuildingBlock: WUSLED_clean_sbu_0, # of connection points: 3
#     Node 12, Type 0, BuildingBlock: WUSLED_clean_sbu_0, # of connection points: 3
#     Node 13, Type 0, BuildingBlock: WUSLED_clean_sbu_0, # of connection points: 3
#     Node 14, Type 0, BuildingBlock: WUSLED_clean_sbu_0, # of connection points: 3
#     Node 15, Type 0, BuildingBlock: WUSLED_clean_sbu_0, # of connection points: 3
#     Node 16, Type 0, BuildingBlock: WUSLED_clean_sbu_0, # of connection points: 3
#     Node 17, Type 0, BuildingBlock: WUSLED_clean_sbu_0, # of connection points: 3
#     Node 18, Type 0, BuildingBlock: WUSLED_clean_sbu_0, # of connection points: 3
#     Node 19, Type 0, BuildingBlock: WUSLED_clean_sbu_0, # of connection points: 3
#     Node 20, Type 0, BuildingBlock: WUSLED_clean_sbu_0, # of connection points: 3
#     Node 21, Type 0, BuildingBlock: WUSLED_clean_sbu_0, # of connection points: 3
#     Node 22, Type 0, BuildingBlock: WUSLED_clean_sbu_0, # of connection points: 3
#     Node 23, Type 0, BuildingBlock: WUSLED_clean_sbu_0, # of connection points: 3
#     Edge 24, Type (0, 0), BuildingBlock: ZUJKAS_clean_linker_0, # of connection points: 2
#     Edge 25, Type (0, 0), BuildingBlock: ZUJKAS_clean_linker_0, # of connection points: 2
#     Edge 26, Type (0, 0), BuildingBlock: ZUJKAS_clean_linker_0, # of connection points: 2
#     Edge 27, Type (0, 0), BuildingBlock: ZUJKAS_clean_linker_0, # of connection points: 2
#     Edge 28, Type (0, 0), BuildingBlock: ZUJKAS_clean_linker_0, # of connection points: 2
#     Edge 29, Type (0, 0), BuildingBlock: ZUJKAS_clean_linker_0, # of connection points: 2
#     Edge 30, Type (0, 0), BuildingBlock: ZUJKAS_clean_linker_0, # of connection points: 2
#     Edge 31, Type (0, 0), BuildingBlock: ZUJKAS_clean_linker_0, # of connection points: 2
#     Edge 32, Type (0, 0), BuildingBlock: ZUJKAS_clean_linker_0, # of connection points: 2
#     Edge 33, Type (0, 0), BuildingBlock: ZUJKAS_clean_linker_0, # of connection points: 2
#     Edge 34, Type (0, 0), BuildingBlock: ZUJKAS_clean_linker_0, # of connection points: 2
#     Edge 35, Type (0, 0), BuildingBlock: ZUJKAS_clean_linker_0, # of connection points: 2
#     Edge 36, Type (0, 0), BuildingBlock: ZUJKAS_clean_linker_0, # of connection points: 2
#     Edge 37, Type (0, 0), BuildingBlock: ZUJKAS_clean_linker_0, # of connection points: 2
#     Edge 38, Type (0, 0), BuildingBlock: ZUJKAS_clean_linker_0, # of connection points: 2
#     Edge 39, Type (0, 0), BuildingBlock: ZUJKAS_clean_linker_0, # of connection points: 2
#     Edge 40, Type (0, 0), BuildingBlock: ZUJKAS_clean_linker_0, # of connection points: 2
#     Edge 41, Type (0, 0), BuildingBlock: ZUJKAS_clean_linker_0, # of connection points: 2
#     Edge 42, Type (0, 0), BuildingBlock: ZUJKAS_clean_linker_0, # of connection points: 2
#     Edge 43, Type (0, 0), BuildingBlock: ZUJKAS_clean_linker_0, # of connection points: 2
#     Edge 44, Type (0, 0), BuildingBlock: ZUJKAS_clean_linker_0, # of connection points: 2
#     Edge 45, Type (0, 0), BuildingBlock: ZUJKAS_clean_linker_0, # of connection points: 2
#     Edge 46, Type (0, 0), BuildingBlock: ZUJKAS_clean_linker_0, # of connection points: 2
#     Edge 47, Type (0, 0), BuildingBlock: ZUJKAS_clean_linker_0, # of connection points: 2
#     Edge 48, Type (0, 0), BuildingBlock: ZUJKAS_clean_linker_0, # of connection points: 2
#     Edge 49, Type (0, 0), BuildingBlock: ZUJKAS_clean_linker_0, # of connection points: 2
#     Edge 50, Type (0, 0), BuildingBlock: ZUJKAS_clean_linker_0, # of connection points: 2
#     Edge 51, Type (0, 0), BuildingBlock: ZUJKAS_clean_linker_0, # of connection points: 2
#     Edge 52, Type (0, 0), BuildingBlock: ZUJKAS_clean_linker_0, # of connection points: 2
#     Edge 53, Type (0, 0), BuildingBlock: ZUJKAS_clean_linker_0, # of connection points: 2
#     Edge 54, Type (0, 0), BuildingBlock: ZUJKAS_clean_linker_0, # of connection points: 2
#     Edge 55, Type (0, 0), BuildingBlock: ZUJKAS_clean_linker_0, # of connection points: 2
#     Edge 56, Type (0, 0), BuildingBlock: ZUJKAS_clean_linker_0, # of connection points: 2
#     Edge 57, Type (0, 0), BuildingBlock: ZUJKAS_clean_linker_0, # of connection points: 2
#     Edge 58, Type (0, 0), BuildingBlock: ZUJKAS_clean_linker_0, # of connection points: 2
#     Edge 59, Type (0, 0), BuildingBlock: ZUJKAS_clean_linker_0, # of connection points: 2
# Relax obj value: 0.412
# Max RMSD: 0.287
# Mean RMSD: 0.283
data_MOF--net-srs-a--node1-WUSLED_clean_sbu_0--edge1-ZUJKAS_clean_linker_0
_symmetry_space_group_name_H-M    P1
_symmetry_Int_Tables_number       1
_symmetry_cell_setting            triclinic
loop_
_symmetry_equiv_pos_as_xyz
'x, y, z'
_cell_length_a     144.87233
_cell_length_b     123.93681
_cell_length_c     146.90723
_cell_angle_alpha  93.464413
_cell_angle_beta   103.29009
_cell_angle_gamma 100.84215
loop_
_atom_site_label
_atom_site_type_symbol
_atom_site_fract_x
_atom_site_fract_y
_atom_site_fract_z
_atom_type_partial_charge
C0 C 0.02663 0.20886 0.07771 0.0
C1 C 0.03248 0.20243 0.0745 0.0
C2 C 0.02463 0.18638 0.08071 0.0
C3 C 0.03148 0.19129 0.07598 0.0
C4 C 0.0185 0.19276 0.08355 0.0
C5 C 0.01952 0.20393 0.08207 0.0
U6 U 0.04295 0.23418 0.07303 0.0
O7 O 0.04006 0.24954 0.06723 0.0
O8 O 0.0492 0.25017 0.08151 0.0
C9 C 0.04477 0.2557 0.07513 0.0
C10 C 0.02867 0.22087 0.07739 0.0
C11 C 0.03966 0.26351 0.07871 0.0
C12 C 0.02829 0.26767 0.08758 0.0
C13 C 0.03247 0.25996 0.08347 0.0
C14 C 0.03827 0.28248 0.08194 0.0
C15 C 0.03124 0.27903 0.08696 0.0
C16 C 0.04244 0.27477 0.07787 0.0
C17 C 0.06549 0.2306 0.06514 0.0
C18 C 0.07973 0.24538 0.06753 0.0
C19 C 0.07877 0.22815 0.05827 0.0
C20 C 0.06959 0.22411 0.0597 0.0
C21 C 0.08401 0.23874 0.06234 0.0
C22 C 0.07052 0.24136 0.06888 0.0
C23 C 0.05628 0.22588 0.06733 0.0
O24 O 0.03648 0.22614 0.08365 0.0
O25 O 0.02807 0.22418 0.06897 0.0
O26 O 0.04839 0.22746 0.06152 0.0
O27 O 0.0562 0.22755 0.07623 0.0
H28 H 0.03809 0.20615 0.0712 0.0
H29 H 0.03642 0.18669 0.07383 0.0
H30 H 0.01309 0.1892 0.08712 0.0
H31 H 0.01497 0.2088 0.08462 0.0
H32 H 0.02283 0.26475 0.0913 0.0
H33 H 0.03024 0.25126 0.08417 0.0
H34 H 0.04079 0.29117 0.08144 0.0
H35 H 0.04803 0.27764 0.07426 0.0
H36 H 0.08357 0.25361 0.07066 0.0
H37 H 0.08192 0.22282 0.05432 0.0
H38 H 0.0658 0.21579 0.05676 0.0
H39 H 0.06743 0.24653 0.07306 0.0
C40 C 0.07032 0.82576 0.33768 0.0
C41 C 0.0777 0.83093 0.33372 0.0
C42 C 0.06945 0.84614 0.33039 0.0
C43 C 0.07726 0.84101 0.33008 0.0
C44 C 0.06182 0.84067 0.33394 0.0
C45 C 0.06228 0.83055 0.3376 0.0
U46 U 0.0872 0.80832 0.34917 0.0
O47 O 0.08978 0.80282 0.36328 0.0
O48 O 0.08535 0.79055 0.35083 0.0
C49 C 0.08703 0.7923 0.36004 0.0
C50 C 0.07165 0.81623 0.34293 0.0
C51 C 0.07984 0.78591 0.36429 0.0
C52 C 0.06448 0.78332 0.3687 0.0
C53 C 0.07096 0.78899 0.36402 0.0
C54 C 0.07561 0.77125 0.37373 0.0
C55 C 0.06679 0.77445 0.37369 0.0
C56 C 0.08209 0.77695 0.36908 0.0
C57 C 0.11365 0.81659 0.34809 0.0
C58 C 0.12724 0.8132 0.35991 0.0
C59 C 0.12997 0.82137 0.34593 0.0
C60 C 0.12001 0.82075 0.34266 0.0
C61 C 0.13371 0.81792 0.35473 0.0
C62 C 0.11727 0.8125 0.3566 0.0
C63 C 0.10346 0.81759 0.34527 0.0
O64 O 0.07374 0.80791 0.33836 0.0
O65 O 0.07722 0.81892 0.35148 0.0
O66 O 0.10013 0.82163 0.35205 0.0
O67 O 0.09734 0.80913 0.33996 0.0
H68 H 0.084 0.82738 0.33379 0.0
H69 H 0.08318 0.84496 0.32728 0.0
H70 H 0.05575 0.84446 0.33433 0.0
H71 H 0.05656 0.82672 0.34072 0.0
H72 H 0.0577 0.78589 0.36845 0.0
H73 H 0.06912 0.7959 0.36032 0.0
H74 H 0.07765 0.76454 0.3776 0.0
H75 H 0.08894 0.77451 0.36938 0.0
H76 H 0.12992 0.8104 0.36667 0.0
H77 H 0.13478 0.82515 0.34182 0.0
H78 H 0.11733 0.82396 0.33609 0.0
H79 H 0.11245 0.8092 0.36086 0.0
C80 C 0.4872 0.89058 0.67925 0.0
C81 C 0.48345 0.8997 0.68162 0.0
C82 C 0.47558 0.8893 0.69228 0.0
C83 C 0.47771 0.89908 0.68808 0.0
C84 C 0.47976 0.88036 0.69021 0.0
C85 C 0.4855 0.88099 0.68372 0.0
U86 U 0.49334 0.90456 0.65877 0.0
O87 O 0.50578 0.90561 0.65237 0.0
O88 O 0.49109 0.898 0.64404 0.0
C89 C 0.50042 0.89995 0.64445 0.0
C90 C 0.4918 0.89061 0.67133 0.0
C91 C 0.50389 0.89043 0.64115 0.0
C92 C 0.50602 0.87155 0.64226 0.0
C93 C 0.50342 0.88091 0.64587 0.0
C94 C 0.5098 0.88122 0.62929 0.0
C95 C 0.50914 0.87156 0.63387 0.0
C96 C 0.50718 0.89058 0.6329 0.0
C97 C 0.48512 0.93172 0.65435 0.0
C98 C 0.48219 0.93863 0.63904 0.0
C99 C 0.48017 0.94927 0.65258 0.0
C100 C 0.48293 0.94121 0.65827 0.0
C101 C 0.4795 0.94791 0.64286 0.0
C102 C 0.485 0.9306 0.64475 0.0
C103 C 0.48659 0.92264 0.66013 0.0
O104 O 0.48564 0.88949 0.66307 0.0
O105 O 0.49955 0.89844 0.67213 0.0
O106 O 0.49563 0.92218 0.66396 0.0
O107 O 0.48111 0.91297 0.65644 0.0
H108 H 0.4846 0.90713 0.67814 0.0
H109 H 0.4745 0.90606 0.68938 0.0
H110 H 0.47835 0.87276 0.6934 0.0
H111 H 0.48831 0.87385 0.68192 0.0
H112 H 0.50555 0.86428 0.64601 0.0
H113 H 0.50088 0.88068 0.65226 0.0
H114 H 0.51206 0.88146 0.62276 0.0
H115 H 0.50752 0.89784 0.62915 0.0
H116 H 0.48183 0.93741 0.6316 0.0
H117 H 0.47804 0.95625 0.65572 0.0
H118 H 0.48297 0.94218 0.66566 0.0
H119 H 0.48671 0.92332 0.64162 0.0
C120 C 0.46286 0.22309 0.95448 0.0
C121 C 0.45666 0.21581 0.95847 0.0
C122 C 0.44493 0.22773 0.95598 0.0
C123 C 0.44778 0.21812 0.95924 0.0
C124 C 0.4514 0.23526 0.9524 0.0
C125 C 0.46029 0.23294 0.95164 0.0
U126 U 0.47663 0.20067 0.95186 0.0
O127 O 0.48255 0.19562 0.9402 0.0
O128 O 0.49224 0.20086 0.95426 0.0
C129 C 0.49155 0.19819 0.94529 0.0
C130 C 0.47133 0.21975 0.95219 0.0
C131 C 0.49825 0.20543 0.94107 0.0
C132 C 0.50252 0.22227 0.93399 0.0
C133 C 0.49652 0.21578 0.93867 0.0
C134 C 0.51221 0.20827 0.93434 0.0
C135 C 0.51037 0.21853 0.93169 0.0
C136 C 0.50617 0.20176 0.93897 0.0
C137 C 0.46595 0.17185 0.95722 0.0
C138 C 0.4688 0.15485 0.95031 0.0
C139 C 0.45945 0.15423 0.96206 0.0
C140 C 0.46078 0.16574 0.96283 0.0
C141 C 0.46322 0.14864 0.95561 0.0
C142 C 0.47018 0.16638 0.95113 0.0
C143 C 0.46613 0.18374 0.95719 0.0
O144 O 0.47756 0.21701 0.95924 0.0
O145 O 0.46917 0.21273 0.94458 0.0
O146 O 0.4639 0.18708 0.94879 0.0
O147 O 0.47356 0.1904 0.963 0.0
H148 H 0.45848 0.2081 0.96059 0.0
H149 H 0.44293 0.21205 0.96189 0.0
H150 H 0.44945 0.24277 0.94992 0.0
H151 H 0.46498 0.23861 0.94849 0.0
H152 H 0.501 0.2302 0.93215 0.0
H153 H 0.49043 0.21874 0.94026 0.0
H154 H 0.51813 0.20511 0.93257 0.0
H155 H 0.50757 0.19376 0.94075 0.0
H156 H 0.47187 0.15077 0.94535 0.0
H157 H 0.45503 0.14968 0.96617 0.0
H158 H 0.45745 0.16984 0.96755 0.0
H159 H 0.47424 0.17098 0.94677 0.0
C160 C 0.06543 0.07851 0.1279 0.0
C161 C 0.06795 0.0837 0.12034 0.0
C162 C 0.05312 0.09086 0.1174 0.0
C163 C 0.06186 0.08982 0.11514 0.0
C164 C 0.05041 0.08517 0.12471 0.0
C165 C 0.05654 0.07907 0.12994 0.0
U166 U 0.09072 0.07333 0.13493 0.0
O167 O 0.10122 0.07633 0.14868 0.0
O168 O 0.09667 0.05961 0.14115 0.0
C169 C 0.10157 0.06584 0.14897 0.0
C170 C 0.07254 0.07367 0.13427 0.0
C171 C 0.10033 0.06145 0.15776 0.0
C172 C 0.09025 0.05559 0.16841 0.0
C173 C 0.09117 0.05908 0.15972 0.0
C174 C 0.10761 0.05677 0.17319 0.0
C175 C 0.09848 0.05453 0.17527 0.0
C176 C 0.10851 0.0602 0.1645 0.0
C177 C 0.10833 0.08418 0.12033 0.0
C178 C 0.12575 0.09018 0.1265 0.0
C179 C 0.11877 0.08831 0.10969 0.0
C180 C 0.10954 0.08479 0.11118 0.0
C181 C 0.12696 0.09138 0.11735 0.0
C182 C 0.11653 0.08656 0.12797 0.0
C183 C 0.09851 0.08185 0.12186 0.0
O184 O 0.07524 0.06524 0.13051 0.0
O185 O 0.07986 0.08103 0.13951 0.0
O186 O 0.09735 0.08779 0.12907 0.0
O187 O 0.0943 0.07136 0.12119 0.0
H188 H 0.07485 0.08344 0.11874 0.0
H189 H 0.06427 0.09421 0.10967 0.0
H190 H 0.04367 0.08568 0.12656 0.0
H191 H 0.0545 0.07513 0.13578 0.0
H192 H 0.08314 0.05401 0.16985 0.0
H193 H 0.08478 0.0601 0.15459 0.0
H194 H 0.11406 0.05588 0.17828 0.0
H195 H 0.11563 0.06204 0.16309 0.0
H196 H 0.13185 0.09255 0.13258 0.0
H197 H 0.11945 0.0889 0.10254 0.0
H198 H 0.1033 0.08289 0.10519 0.0
H199 H 0.11575 0.08606 0.1351 0.0
C200 C 0.24199 0.90056 0.40257 0.0
C201 C 0.23571 0.90106 0.39386 0.0
C202 C 0.22709 0.88229 0.39406 0.0
C203 C 0.22834 0.89202 0.38964 0.0
C204 C 0.23367 0.88161 0.40259 0.0
C205 C 0.24105 0.89073 0.40686 0.0
U206 U 0.24965 0.93109 0.4035 0.0
O207 O 0.25259 0.9445 0.41488 0.0
O208 O 0.26386 0.94262 0.40747 0.0
C209 C 0.26167 0.94776 0.41453 0.0
C210 C 0.24873 0.91067 0.40751 0.0
C211 C 0.26888 0.94939 0.42362 0.0
C212 C 0.27411 0.94492 0.43962 0.0
C213 C 0.26762 0.94263 0.43075 0.0
C214 C 0.28345 0.96045 0.43419 0.0
C215 C 0.28203 0.95396 0.44149 0.0
C216 C 0.27691 0.9582 0.42535 0.0
C217 C 0.23472 0.94418 0.38372 0.0
C218 C 0.23066 0.96232 0.38448 0.0
C219 C 0.22766 0.95151 0.3694 0.0
C220 C 0.23147 0.94314 0.3739 0.0
C221 C 0.22695 0.96107 0.37465 0.0
C222 C 0.23454 0.95396 0.38897 0.0
C223 C 0.23747 0.93466 0.38834 0.0
O224 O 0.25478 0.9155 0.40282 0.0
O225 O 0.24455 0.91762 0.41136 0.0
O226 O 0.23521 0.93339 0.39643 0.0
O227 O 0.24612 0.93287 0.3883 0.0
H228 H 0.2363 0.9086 0.39047 0.0
H229 H 0.22345 0.89273 0.38301 0.0
H230 H 0.23282 0.87422 0.40616 0.0
H231 H 0.2458 0.89025 0.41362 0.0
H232 H 0.27274 0.93981 0.44509 0.0
H233 H 0.26148 0.93574 0.42955 0.0
H234 H 0.28957 0.96734 0.43532 0.0
H235 H 0.27802 0.96346 0.41991 0.0
H236 H 0.23017 0.96952 0.38875 0.0
H237 H 0.22506 0.95038 0.36181 0.0
H238 H 0.23161 0.93568 0.36973 0.0
H239 H 0.23706 0.95497 0.39657 0.0
C240 C 0.33708 0.92868 0.7167 0.0
C241 C 0.34123 0.92593 0.70938 0.0
C242 C 0.33131 0.93613 0.69892 0.0
C243 C 0.33839 0.92962 0.70059 0.0
C244 C 0.32703 0.93869 0.70625 0.0
C245 C 0.32991 0.93499 0.71509 0.0
U246 U 0.35497 0.91552 0.73244 0.0
O247 O 0.36424 0.92073 0.74666 0.0
O248 O 0.35374 0.90489 0.74379 0.0
C249 C 0.36005 0.91219 0.75019 0.0
C250 C 0.3407 0.92545 0.72611 0.0
C251 C 0.35707 0.91484 0.75883 0.0
C252 C 0.35063 0.92684 0.76831 0.0
C253 C 0.35252 0.92376 0.75972 0.0
C254 C 0.35736 0.91179 0.77504 0.0
C255 C 0.3532 0.92103 0.77613 0.0
C256 C 0.3593 0.90876 0.76647 0.0
C257 C 0.37328 0.90466 0.72119 0.0
C258 C 0.38928 0.9025 0.72951 0.0
C259 C 0.3828 0.89517 0.71312 0.0
C260 C 0.37429 0.89895 0.71309 0.0
C261 C 0.39046 0.8971 0.72128 0.0
C262 C 0.38073 0.90622 0.72948 0.0
C263 C 0.3647 0.90954 0.72068 0.0
O264 O 0.3394 0.91473 0.72664 0.0
O265 O 0.34949 0.9308 0.73043 0.0
O266 O 0.36642 0.91959 0.72496 0.0
O267 O 0.35698 0.90305 0.7221 0.0
H268 H 0.34685 0.92114 0.71054 0.0
H269 H 0.34198 0.92766 0.69519 0.0
H270 H 0.32151 0.9436 0.70518 0.0
H271 H 0.32665 0.9372 0.72069 0.0
H272 H 0.3475 0.93406 0.76892 0.0
H273 H 0.35072 0.92853 0.75387 0.0
H274 H 0.35927 0.90701 0.78086 0.0
H275 H 0.36276 0.90181 0.76587 0.0
H276 H 0.39502 0.90401 0.73591 0.0
H277 H 0.38353 0.89115 0.70665 0.0
H278 H 0.36862 0.89769 0.70663 0.0
H279 H 0.38004 0.91056 0.73583 0.0
C280 C 0.28743 0.14687 0.93275 0.0
C281 C 0.29388 0.14639 0.92701 0.0
C282 C 0.28987 0.1263 0.92552 0.0
C283 C 0.29506 0.13621 0.9234 0.0
C284 C 0.28308 0.12681 0.93093 0.0
C285 C 0.28189 0.13704 0.93455 0.0
U286 U 0.30015 0.17618 0.94148 0.0
O287 O 0.29493 0.19159 0.94313 0.0
O288 O 0.30334 0.18546 0.95542 0.0
C289 C 0.29819 0.19275 0.95234 0.0
C290 C 0.28738 0.15746 0.93777 0.0
C291 C 0.29123 0.19461 0.95779 0.0
C292 C 0.27665 0.18807 0.96303 0.0
C293 C 0.28271 0.18671 0.95707 0.0
C294 C 0.28748 0.20536 0.97029 0.0
C295 C 0.27906 0.19732 0.96982 0.0
C296 C 0.29351 0.204 0.96432 0.0
C297 C 0.32475 0.18612 0.93633 0.0
C298 C 0.33735 0.20074 0.94607 0.0
C299 C 0.33937 0.193 0.93127 0.0
C300 C 0.33028 0.18594 0.92968 0.0
C301 C 0.34309 0.20029 0.93959 0.0
C302 C 0.32822 0.19375 0.94443 0.0
C303 C 0.31575 0.1778 0.93507 0.0
O304 O 0.29413 0.16016 0.94568 0.0
O305 O 0.28669 0.16573 0.93261 0.0
O306 O 0.30777 0.18048 0.93039 0.0
O307 O 0.31474 0.17305 0.94264 0.0
H308 H 0.29828 0.1539 0.92562 0.0
H309 H 0.30025 0.13609 0.91914 0.0
H310 H 0.27904 0.11933 0.93276 0.0
H311 H 0.27696 0.13727 0.93905 0.0
H312 H 0.27017 0.1818 0.96242 0.0
H313 H 0.28088 0.17938 0.95208 0.0
H314 H 0.28964 0.21249 0.97552 0.0
H315 H 0.30011 0.21012 0.965 0.0
H316 H 0.33999 0.20635 0.95249 0.0
H317 H 0.34367 0.19238 0.9262 0.0
H318 H 0.32771 0.1801 0.9234 0.0
H319 H 0.32401 0.19405 0.94962 0.0
C320 C 0.13898 0.01938 0.31625 0.0
C321 C 0.13905 0.01706 0.3255 0.0
C322 C 0.1564 0.01759 0.32885 0.0
C323 C 0.14769 0.01626 0.33176 0.0
C324 C 0.15638 0.02047 0.31973 0.0
C325 C 0.14774 0.02136 0.31349 0.0
U326 U 0.11309 1.00443 0.3066 0.0
O327 O 0.09985 1.00995 0.29968 0.0
O328 O 0.10512 0.99738 0.29228 0.0
C329 C 0.09898 1.00402 0.29168 0.0
C330 C 0.12976 0.01825 0.30913 0.0
C331 C 0.09798 1.01 0.28331 0.0
C332 C 0.10532 0.02076 0.27256 0.0
C333 C 0.10622 0.01589 0.28097 0.0
C334 C 0.08788 0.01429 0.26894 0.0
C335 C 0.09615 0.01989 0.26638 0.0
C336 C 0.08881 1.00936 0.27733 0.0
C337 C 0.10404 0.98035 0.31956 0.0
C338 C 0.08903 0.96699 0.31291 0.0
C339 C 0.10028 0.96365 0.32692 0.0
C340 C 0.10643 0.97371 0.32675 0.0
C341 C 0.09159 0.96004 0.3199 0.0
C342 C 0.09524 0.97706 0.31273 0.0
C343 C 0.11129 0.99001 0.31876 0.0
O344 O 0.12734 1.00902 0.30346 0.0
O345 O 0.12246 0.02075 0.31214 0.0
O346 O 0.10892 0.9997 0.31956 0.0
O347 O 0.11544 0.98873 0.31182 0.0
H348 H 0.13237 0.01541 0.32777 0.0
H349 H 0.14747 0.01422 0.33878 0.0
H350 H 0.16292 0.02142 0.31721 0.0
H351 H 0.14781 0.02305 0.30635 0.0
H352 H 0.11185 0.02487 0.27078 0.0
H353 H 0.11338 0.01646 0.28552 0.0
H354 H 0.08071 0.01361 0.26442 0.0
H355 H 0.08237 1.00487 0.27906 0.0
H356 H 0.08236 0.96453 0.30746 0.0
H357 H 0.10259 0.95847 0.33231 0.0
H358 H 0.11326 0.97609 0.33201 0.0
H359 H 0.09332 0.9821 0.30709 0.0
C360 C 0.33863 0.98322 0.59398 0.0
C361 C 0.34586 0.98606 0.6024 0.0
C362 C 0.33446 0.97791 0.61118 0.0
C363 C 0.34379 0.98345 0.61093 0.0
C364 C 0.32713 0.97544 0.60275 0.0
C365 C 0.32922 0.97804 0.5942 0.0
U366 U 0.35822 0.9895 0.58116 0.0
O367 O 0.36043 0.98123 0.56844 0.0
O368 O 0.35958 0.99876 0.56903 0.0
C369 C 0.35995 0.98993 0.5638 0.0
C370 C 0.3412 0.98474 0.58497 0.0
C371 C 0.35329 0.98783 0.5544 0.0
C372 C 0.33799 0.97863 0.54376 0.0
C373 C 0.34402 0.98108 0.55285 0.0
C374 C 0.35032 0.98994 0.53773 0.0
C375 C 0.34112 0.98296 0.53609 0.0
C376 C 0.35637 0.99232 0.54681 0.0
C377 C 0.38425 0.99476 0.59632 0.0
C378 C 0.39811 0.99228 0.59036 0.0
C379 C 0.40035 0.99873 0.60679 0.0
C380 C 0.39042 0.99838 0.60524 0.0
C381 C 0.40427 0.99539 0.59942 0.0
C382 C 0.38817 0.99199 0.58881 0.0
C383 C 0.37372 0.99291 0.59519 0.0
O384 O 0.34542 0.99485 0.58405 0.0
O385 O 0.34557 0.97719 0.58228 0.0
O386 O 0.3689 0.98303 0.59128 0.0
O387 O 0.36949 1.0009 0.59201 0.0
H388 H 0.35318 0.99001 0.60236 0.0
H389 H 0.34955 0.98561 0.61731 0.0
H390 H 0.31989 0.9711 0.60272 0.0
H391 H 0.32358 0.97572 0.58773 0.0
H392 H 0.33089 0.97335 0.54272 0.0
H393 H 0.34149 0.9776 0.55865 0.0
H394 H 0.35295 0.99332 0.53195 0.0
H395 H 0.36351 0.99753 0.54789 0.0
H396 H 0.40093 0.98977 0.58453 0.0
H397 H 0.40486 1.00102 0.61387 0.0
H398 H 0.3875 1.00051 0.61111 0.0
H399 H 0.38349 0.9892 0.58186 0.0
C400 C 0.33802 0.01758 0.8973 0.0
C401 C 0.34117 0.02401 0.90606 0.0
C402 C 0.32681 0.03203 0.90256 0.0
C403 C 0.33559 0.03112 0.90868 0.0
C404 C 0.32352 0.02526 0.89393 0.0
C405 C 0.32911 0.01811 0.89131 0.0
U406 U 0.36337 0.01341 0.8993 0.0
O407 O 0.36947 0.99856 0.89815 0.0
O408 O 0.37129 0.01119 0.88848 0.0
C409 C 0.37231 1.00125 0.89055 0.0
C410 C 0.34451 0.01129 0.89404 0.0
C411 C 0.36915 0.9927 0.88249 0.0
C412 C 0.35631 0.98044 0.87072 0.0
C413 C 0.35928 0.98807 0.87877 0.0
C414 C 0.37308 0.98194 0.87011 0.0
C415 C 0.36318 0.97737 0.86624 0.0
C416 C 0.37603 0.98954 0.87816 0.0
C417 C 0.3833 0.0335 0.9178 0.0
C418 C 0.40018 0.03925 0.91742 0.0
C419 C 0.39478 0.04516 0.93098 0.0
C420 C 0.3854 0.03924 0.92678 0.0
C421 C 0.40223 0.04547 0.92625 0.0
C422 C 0.39079 0.03329 0.91323 0.0
C423 C 0.37314 0.02872 0.91302 0.0
O424 O 0.3505 0.01704 0.88978 0.0
O425 O 0.34874 1.0053 0.90015 0.0
O426 O 0.36975 0.01852 0.91445 0.0
O427 O 0.37043 0.03068 0.90422 0.0
H428 H 0.34808 0.02379 0.91075 0.0
H429 H 0.33826 0.03609 0.91544 0.0
H430 H 0.31684 0.02584 0.88902 0.0
H431 H 0.32663 0.01328 0.88449 0.0
H432 H 0.34865 0.977 0.86799 0.0
H433 H 0.35387 0.99048 0.88202 0.0
H434 H 0.37855 0.97991 0.86675 0.0
H435 H 0.38368 0.99311 0.88091 0.0
H436 H 0.40579 0.03924 0.91365 0.0
H437 H 0.39606 0.04997 0.93772 0.0
H438 H 0.3797 0.03952 0.93038 0.0
H439 H 0.3893 0.02885 0.9063 0.0
C440 C 0.19999 0.23604 0.06918 0.0
C441 C 0.19458 0.23452 0.07596 0.0
C442 C 0.18361 0.24554 0.06795 0.0
C443 C 0.18647 0.23926 0.07537 0.0
C444 C 0.18938 0.24753 0.06148 0.0
C445 C 0.1975 0.24278 0.06208 0.0
U446 U 0.21146 0.21221 0.0771 0.0
O447 O 0.21414 0.1984 0.06874 0.0
O448 O 0.22632 0.20946 0.07878 0.0
C449 C 0.2236 0.2014 0.07187 0.0
C450 C 0.20726 0.22938 0.06871 0.0
C451 C 0.22885 0.20258 0.06444 0.0
C452 C 0.23126 0.21044 0.05022 0.0
C453 C 0.2269 0.21001 0.05778 0.0
C454 C 0.23981 0.19627 0.05611 0.0
C455 C 0.23768 0.20348 0.04923 0.0
C456 C 0.23541 0.19581 0.06364 0.0
C457 C 0.20175 0.19534 0.09507 0.0
C458 C 0.20027 0.17553 0.09548 0.0
C459 C 0.19747 0.18666 0.10831 0.0
C460 C 0.19955 0.19614 0.10384 0.0
C461 C 0.19746 0.17618 0.10402 0.0
C462 C 0.20244 0.18503 0.09107 0.0
C463 C 0.2024 0.20505 0.08979 0.0
O464 O 0.21431 0.23021 0.07634 0.0
O465 O 0.20349 0.21912 0.06507 0.0
O466 O 0.19859 0.20294 0.08068 0.0
O467 O 0.21074 0.21219 0.09196 0.0
H468 H 0.19633 0.22921 0.08142 0.0
H469 H 0.18212 0.23742 0.08039 0.0
H470 H 0.18742 0.25242 0.05575 0.0
H471 H 0.20157 0.24397 0.05676 0.0
H472 H 0.22936 0.21599 0.04501 0.0
H473 H 0.22181 0.21527 0.05829 0.0
H474 H 0.24483 0.19092 0.05564 0.0
H475 H 0.23698 0.19004 0.06875 0.0
H476 H 0.20027 0.16763 0.09191 0.0
H477 H 0.19555 0.1875 0.11499 0.0
H478 H 0.19906 0.20404 0.10707 0.0
H479 H 0.2042 0.18424 0.08431 0.0
C480 C 0.74306 0.39907 0.90358 0.0
C481 C 0.74086 0.39702 0.89373 0.0
C482 C 0.72931 0.38013 0.89415 0.0
C483 C 0.73412 0.38761 0.88908 0.0
C484 C 0.73189 0.38193 0.90405 0.0
C485 C 0.73871 0.39131 0.90871 0.0
U486 U 0.74871 0.43004 0.90433 0.0
O487 O 0.75043 0.44315 0.91568 0.0
O488 O 0.76233 0.44255 0.90882 0.0
C489 C 0.7595 0.44718 0.91571 0.0
C490 C 0.74886 0.40979 0.90845 0.0
C491 C 0.76644 0.4491 0.92497 0.0
C492 C 0.77175 0.44433 0.94086 0.0
C493 C 0.76541 0.44197 0.93191 0.0
C494 C 0.78043 0.46073 0.93593 0.0
C495 C 0.77927 0.45378 0.94298 0.0
C496 C 0.77404 0.45841 0.92701 0.0
C497 C 0.73387 0.44249 0.88419 0.0
C498 C 0.72944 0.46041 0.8851 0.0
C499 C 0.72715 0.45012 0.86992 0.0
C500 C 0.73095 0.4417 0.87436 0.0
C501 C 0.72611 0.45946 0.87524 0.0
C502 C 0.73332 0.45202 0.88953 0.0
C503 C 0.73682 0.433 0.88874 0.0
O504 O 0.75504 0.41523 0.90417 0.0
O505 O 0.74385 0.4161 0.91187 0.0
O506 O 0.73416 0.43126 0.89659 0.0
O507 O 0.74574 0.43187 0.88914 0.0
H508 H 0.74406 0.4029 0.88958 0.0
H509 H 0.73245 0.38638 0.88147 0.0
H510 H 0.72827 0.37642 0.90818 0.0
H511 H 0.74024 0.39278 0.91631 0.0
H512 H 0.77076 0.43876 0.94613 0.0
H513 H 0.75964 0.43467 0.93046 0.0
H514 H 0.78611 0.46812 0.93738 0.0
H515 H 0.77494 0.464 0.92173 0.0
H516 H 0.72868 0.46741 0.88944 0.0
H517 H 0.72486 0.44922 0.86231 0.0
H518 H 0.73139 0.43443 0.87012 0.0
H519 H 0.73558 0.45283 0.89715 0.0
C520 C 0.83637 0.4294 0.21724 0.0
C521 C 0.83931 0.4254 0.20947 0.0
C522 C 0.8306 0.43715 0.19959 0.0
C523 C 0.83645 0.42922 0.20074 0.0
C524 C 0.82749 0.44097 0.20737 0.0
C525 C 0.83037 0.43712 0.21614 0.0
U526 U 0.85424 0.41562 0.23227 0.0
O527 O 0.86419 0.42068 0.24619 0.0
O528 O 0.85331 0.40516 0.2438 0.0
C529 C 0.86001 0.41235 0.24997 0.0
C530 C 0.84022 0.42613 0.22658 0.0
C531 C 0.85762 0.41528 0.25888 0.0
C532 C 0.85338 0.4284 0.26937 0.0
C533 C 0.85459 0.42519 0.2605 0.0
C534 C 0.85769 0.41157 0.27493 0.0
C535 C 0.85511 0.42174 0.27675 0.0
C536 C 0.85897 0.40841 0.26608 0.0
C537 C 0.87141 0.4041 0.21988 0.0
C538 C 0.88519 0.39708 0.22823 0.0
C539 C 0.88311 0.39948 0.21168 0.0
C540 C 0.87461 0.40324 0.21163 0.0
C541 C 0.88859 0.39648 0.22 0.0
C542 C 0.87667 0.40089 0.22817 0.0
C543 C 0.86306 0.4092 0.21983 0.0
O544 O 0.83867 0.41542 0.22716 0.0
O545 O 0.84919 0.4312 0.23058 0.0
O546 O 0.86523 0.41925 0.22419 0.0
O547 O 0.85546 0.40294 0.22168 0.0
H548 H 0.84405 0.41954 0.21023 0.0
H549 H 0.83914 0.42626 0.19497 0.0
H550 H 0.82293 0.44701 0.2067 0.0
H551 H 0.82808 0.44034 0.22209 0.0
H552 H 0.85149 0.43633 0.27052 0.0
H553 H 0.85347 0.4306 0.25501 0.0
H554 H 0.85889 0.40613 0.28039 0.0
H555 H 0.86124 0.4007 0.26493 0.0
H556 H 0.88918 0.39475 0.23473 0.0
H557 H 0.88558 0.39934 0.20526 0.0
H558 H 0.87068 0.40579 0.20519 0.0
H559 H 0.8743 0.40157 0.23462 0.0
C560 C 0.78881 0.64627 0.43331 0.0
C561 C 0.79551 0.64577 0.42784 0.0
C562 C 0.79108 0.62568 0.42593 0.0
C563 C 0.79661 0.63557 0.42416 0.0
C564 C 0.78414 0.62623 0.43116 0.0
C565 C 0.78304 0.63647 0.43485 0.0
U566 U 0.80077 0.67601 0.44097 0.0
O567 O 0.795 0.69111 0.44225 0.0
O568 O 0.80409 0.68592 0.45464 0.0
C569 C 0.79846 0.69272 0.45144 0.0
C570 C 0.78857 0.65691 0.43811 0.0
C571 C 0.7915 0.69421 0.45698 0.0
C572 C 0.77846 0.68637 0.46397 0.0
C573 C 0.78433 0.68524 0.45779 0.0
C574 C 0.7866 0.70559 0.46828 0.0
C575 C 0.77966 0.6965 0.46942 0.0
C576 C 0.79249 0.70443 0.46212 0.0
C577 C 0.82492 0.68599 0.43474 0.0
C578 C 0.83544 0.70375 0.44128 0.0
C579 C 0.84133 0.6902 0.4328 0.0
C580 C 0.83234 0.68298 0.43118 0.0
C581 C 0.84306 0.70061 0.43801 0.0
C582 C 0.82644 0.69647 0.43967 0.0
C583 C 0.81607 0.67767 0.43406 0.0
O584 O 0.7955 0.66012 0.44583 0.0
O585 O 0.7874 0.66486 0.43268 0.0
O586 O 0.80788 0.68001 0.42949 0.0
O587 O 0.81552 0.67346 0.44195 0.0
H588 H 0.80008 0.65326 0.42663 0.0
H589 H 0.80191 0.63543 0.42004 0.0
H590 H 0.77983 0.61876 0.43271 0.0
H591 H 0.77791 0.63672 0.43914 0.0
H592 H 0.7731 0.67927 0.46461 0.0
H593 H 0.78349 0.67728 0.45386 0.0
H594 H 0.78776 0.71346 0.47245 0.0
H595 H 0.79803 0.71141 0.4616 0.0
H596 H 0.83649 0.71174 0.44523 0.0
H597 H 0.84705 0.68738 0.43034 0.0
H598 H 0.83131 0.67486 0.42745 0.0
H599 H 0.82076 0.69888 0.44252 0.0
C600 C 0.83751 0.51651 0.39768 0.0
C601 C 0.84102 0.52513 0.40501 0.0
C602 C 0.82511 0.52985 0.40225 0.0
C603 C 0.83489 0.53174 0.40728 0.0
C604 C 0.82156 0.52097 0.39507 0.0
C605 C 0.82773 0.51436 0.3928 0.0
U606 U 0.8632 0.51344 0.4002 0.0
O607 O 0.86986 0.49895 0.39944 0.0
O608 O 0.87144 0.51145 0.38962 0.0
C609 C 0.87283 0.50169 0.39191 0.0
C610 C 0.84428 0.51043 0.3947 0.0
C611 C 0.8702 0.49303 0.38397 0.0
C612 C 0.85805 0.48084 0.37154 0.0
C613 C 0.86045 0.4885 0.37954 0.0
C614 C 0.87513 0.48206 0.37242 0.0
C615 C 0.86537 0.47762 0.36783 0.0
C616 C 0.87751 0.48969 0.38042 0.0
C617 C 0.88245 0.53449 0.41838 0.0
C618 C 0.89964 0.5382 0.41886 0.0
C619 C 0.89361 0.54878 0.42978 0.0
C620 C 0.88423 0.54269 0.42591 0.0
C621 C 0.90141 0.54678 0.42618 0.0
C622 C 0.89022 0.5321 0.41498 0.0
C623 C 0.87238 0.52929 0.41367 0.0
O624 O 0.85017 0.51623 0.39037 0.0
O625 O 0.84871 0.50488 0.40108 0.0
O626 O 0.86935 0.51907 0.41528 0.0
O627 O 0.86966 0.53094 0.40479 0.0
H628 H 0.8486 0.52697 0.40879 0.0
H629 H 0.83793 0.5386 0.41272 0.0
H630 H 0.81405 0.51922 0.39113 0.0
H631 H 0.82493 0.50775 0.38709 0.0
H632 H 0.85047 0.4775 0.36824 0.0
H633 H 0.8547 0.49104 0.38219 0.0
H634 H 0.88095 0.47992 0.36967 0.0
H635 H 0.88507 0.49319 0.38372 0.0
H636 H 0.90549 0.53637 0.41599 0.0
H637 H 0.89465 0.55543 0.43529 0.0
H638 H 0.8783 0.54467 0.42857 0.0
H639 H 0.88894 0.52577 0.40915 0.0
C640 C 0.63904 0.51833 0.8168 0.0
C641 C 0.63901 0.51638 0.82612 0.0
C642 C 0.65634 0.51669 0.8297 0.0
C643 C 0.64759 0.51566 0.83252 0.0
C644 C 0.65641 0.51921 0.8205 0.0
C645 C 0.64784 0.52004 0.81412 0.0
U646 U 0.61333 0.50297 0.80685 0.0
O647 O 0.59996 0.50809 0.79977 0.0
O648 O 0.60566 0.49585 0.79244 0.0
C649 C 0.59928 0.50221 0.79179 0.0
C650 C 0.62988 0.51707 0.80957 0.0
C651 C 0.59813 0.50811 0.78338 0.0
C652 C 0.60428 0.52249 0.77449 0.0
C653 C 0.605 0.51752 0.78285 0.0
C654 C 0.58975 0.50876 0.76717 0.0
C655 C 0.59672 0.51807 0.76651 0.0
C656 C 0.59046 0.50383 0.77554 0.0
C657 C 0.6043 0.47883 0.81971 0.0
C658 C 0.58894 0.46597 0.81331 0.0
C659 C 0.60058 0.46179 0.82664 0.0
C660 C 0.60684 0.47179 0.82652 0.0
C661 C 0.5916 0.45866 0.81995 0.0
C662 C 0.59526 0.47597 0.81318 0.0
C663 C 0.61154 0.48853 0.819 0.0
O664 O 0.62765 0.50784 0.80391 0.0
O665 O 0.62244 0.51941 0.81243 0.0
O666 O 0.60909 0.49818 0.81975 0.0
O667 O 0.6158 0.48732 0.81213 0.0
H668 H 0.6323 0.51494 0.82835 0.0
H669 H 0.64729 0.51392 0.83959 0.0
H670 H 0.66297 0.51993 0.81804 0.0
H671 H 0.64799 0.52144 0.80694 0.0
H672 H 0.6097 0.52972 0.77426 0.0
H673 H 0.61101 0.52089 0.78885 0.0
H674 H 0.58392 0.50504 0.76113 0.0
H675 H 0.58515 0.4965 0.77582 0.0
H676 H 0.58205 0.46387 0.80812 0.0
H677 H 0.60298 0.45632 0.83173 0.0
H678 H 0.61385 0.47383 0.83154 0.0
H679 H 0.59322 0.48132 0.80783 0.0
C680 C 0.52721 0.70937 0.57749 0.0
C681 C 0.53316 0.70293 0.57448 0.0
C682 C 0.5254 0.68702 0.5809 0.0
C683 C 0.53226 0.69186 0.57615 0.0
C684 C 0.51917 0.6934 0.58355 0.0
C685 C 0.52009 0.7045 0.58187 0.0
U686 U 0.54341 0.7345 0.57242 0.0
O687 O 0.54048 0.74971 0.56636 0.0
O688 O 0.54965 0.75064 0.58066 0.0
C689 C 0.54519 0.75603 0.57419 0.0
C690 C 0.52916 0.72134 0.57697 0.0
C691 C 0.54007 0.7639 0.57766 0.0
C692 C 0.52875 0.76822 0.58651 0.0
C693 C 0.53289 0.76044 0.58245 0.0
C694 C 0.53872 0.78291 0.58075 0.0
C695 C 0.53173 0.77956 0.58581 0.0
C696 C 0.54286 0.77513 0.57672 0.0
C697 C 0.56601 0.73066 0.56481 0.0
C698 C 0.57917 0.74628 0.5655 0.0
C699 C 0.58064 0.72779 0.56056 0.0
C700 C 0.57136 0.72358 0.56165 0.0
C701 C 0.58473 0.73916 0.56265 0.0
C702 C 0.56987 0.74206 0.56656 0.0
C703 C 0.55678 0.726 0.56698 0.0
O704 O 0.53695 0.72677 0.58318 0.0
O705 O 0.52855 0.72444 0.56848 0.0
O706 O 0.54892 0.7275 0.56108 0.0
O707 O 0.55669 0.72794 0.57585 0.0
H708 H 0.53878 0.70661 0.57117 0.0
H709 H 0.53728 0.68728 0.57415 0.0
H710 H 0.51373 0.68988 0.58712 0.0
H711 H 0.51546 0.70937 0.58428 0.0
H712 H 0.5233 0.76538 0.59028 0.0
H713 H 0.53065 0.75177 0.58323 0.0
H714 H 0.54127 0.79158 0.58018 0.0
H715 H 0.54844 0.77793 0.57308 0.0
H716 H 0.58208 0.75508 0.56706 0.0
H717 H 0.58477 0.72207 0.55847 0.0
H718 H 0.56848 0.71475 0.56033 0.0
H719 H 0.56581 0.74764 0.569 0.0
C720 C 0.56999 0.32546 0.83851 0.0
C721 C 0.5768 0.3302 0.83372 0.0
C722 C 0.56848 0.34539 0.83062 0.0
C723 C 0.57603 0.34004 0.82977 0.0
C724 C 0.56137 0.34032 0.83499 0.0
C725 C 0.56215 0.33043 0.83896 0.0
U726 U 0.58792 0.30939 0.85023 0.0
O727 O 0.59118 0.3044 0.86449 0.0
O728 O 0.58691 0.29178 0.8523 0.0
C729 C 0.58874 0.2938 0.8615 0.0
C730 C 0.57182 0.31629 0.84407 0.0
C731 C 0.58188 0.28724 0.86601 0.0
C732 C 0.56709 0.28459 0.87145 0.0
C733 C 0.57326 0.29051 0.8666 0.0
C734 C 0.57796 0.2719 0.8749 0.0
C735 C 0.56942 0.27528 0.87575 0.0
C736 C 0.58414 0.27785 0.87008 0.0
C737 C 0.61397 0.31901 0.84797 0.0
C738 C 0.62862 0.31746 0.85937 0.0
C739 C 0.62963 0.32385 0.8443 0.0
C740 C 0.61956 0.3226 0.84169 0.0
C741 C 0.63431 0.32161 0.85328 0.0
C742 C 0.61853 0.31614 0.85673 0.0
C743 C 0.6036 0.31928 0.84561 0.0
O744 O 0.57409 0.30797 0.83968 0.0
O745 O 0.57755 0.31949 0.8525 0.0
O746 O 0.6004 0.3232 0.85253 0.0
O747 O 0.59766 0.31048 0.8406 0.0
H748 H 0.58295 0.32653 0.83337 0.0
H749 H 0.58154 0.34368 0.82633 0.0
H750 H 0.55551 0.3443 0.83581 0.0
H751 H 0.55689 0.32694 0.84273 0.0
H752 H 0.56063 0.2875 0.87205 0.0
H753 H 0.5714 0.29776 0.86348 0.0
H754 H 0.57989 0.26466 0.87798 0.0
H755 H 0.59075 0.27519 0.86964 0.0
H756 H 0.63197 0.31573 0.86637 0.0
H757 H 0.63378 0.32686 0.83937 0.0
H758 H 0.61615 0.32479 0.83488 0.0
H759 H 0.61432 0.31332 0.86167 0.0
C760 C 0.98627 0.39179 0.18001 0.0
C761 C 0.98441 0.40187 0.18321 0.0
C762 C 0.97442 0.39235 0.19272 0.0
C763 C 0.97858 0.40215 0.18954 0.0
C764 C 0.97671 0.38234 0.18986 0.0
C765 C 0.98257 0.38207 0.18352 0.0
U766 U 0.99279 0.40474 0.15931 0.0
O767 O 1.00522 0.40528 0.15296 0.0
O768 O 0.99049 0.39779 0.14468 0.0
C769 C 0.99981 0.39957 0.14509 0.0
C770 C 0.99088 0.39124 0.17212 0.0
C771 C 1.00318 0.38991 0.14188 0.0
C772 C 1.00507 0.37096 0.14309 0.0
C773 C 1.00251 0.38041 0.14661 0.0
C774 C 1.00919 0.38054 0.1302 0.0
C775 C 1.00835 0.37089 0.13479 0.0
C776 C 1.00661 0.38997 0.13372 0.0
C777 C 0.98504 0.43201 0.15436 0.0
C778 C 0.98457 0.43934 0.13933 0.0
C779 C 0.97776 0.44783 0.15083 0.0
C780 C 0.98048 0.44025 0.15704 0.0
C781 C 0.97954 0.44729 0.1418 0.0
C782 C 0.98728 0.43173 0.14556 0.0
C783 C 0.98636 0.42309 0.16033 0.0
O784 O 0.98476 0.39003 0.16383 0.0
O785 O 0.99882 0.39875 0.17278 0.0
O786 O 0.99535 0.42248 0.1642 0.0
O787 O 0.98076 0.41346 0.15676 0.0
H788 H 0.98712 0.40946 0.18051 0.0
H789 H 0.97706 0.41001 0.19172 0.0
H790 H 0.97355 0.37464 0.19211 0.0
H791 H 0.98385 0.37421 0.18103 0.0
H792 H 1.00445 0.36371 0.14685 0.0
H793 H 0.99986 0.38025 0.15294 0.0
H794 H 1.01157 0.38071 0.12373 0.0
H795 H 1.00711 0.39723 0.12996 0.0
H796 H 0.98614 0.43877 0.13248 0.0
H797 H 0.97377 0.4537 0.15292 0.0
H798 H 0.97863 0.44051 0.16378 0.0
H799 H 0.99078 0.42538 0.14339 0.0
C800 C 0.96302 0.72208 0.45611 0.0
C801 C 0.95777 0.71488 0.46101 0.0
C802 C 0.94463 0.72484 0.45785 0.0
C803 C 0.94867 0.71628 0.46191 0.0
C804 C 0.95014 0.73242 0.4534 0.0
C805 C 0.95927 0.73101 0.4525 0.0
U806 U 0.97738 0.70052 0.45324 0.0
O807 O 0.98315 0.69554 0.44146 0.0
O808 O 0.99304 0.70105 0.4554 0.0
C809 C 0.9922 0.69826 0.44642 0.0
C810 C 0.97161 0.71931 0.45362 0.0
C811 C 0.99878 0.70541 0.442 0.0
C812 C 1.00235 0.72137 0.43362 0.0
C813 C 0.99645 0.71512 0.43854 0.0
C814 C 0.01314 0.70847 0.4359 0.0
C815 C 1.0107 0.71802 0.43213 0.0
C816 C 1.00721 0.7022 0.44077 0.0
C817 C 0.96711 0.67162 0.45875 0.0
C818 C 0.97185 0.65521 0.45304 0.0
C819 C 0.95898 0.65347 0.46122 0.0
C820 C 0.96022 0.66496 0.46242 0.0
C821 C 0.96461 0.64844 0.4563 0.0
C822 C 0.97309 0.66673 0.45426 0.0
C823 C 0.96719 0.68347 0.45876 0.0
O824 O 0.97813 0.71683 0.46056 0.0
O825 O 0.96954 0.71233 0.44599 0.0
O826 O 0.96481 0.68674 0.45035 0.0
O827 O 0.97467 0.69021 0.46446 0.0
H828 H 0.9605 0.70787 0.46377 0.0
H829 H 0.94464 0.71039 0.46547 0.0
H830 H 0.94717 0.73904 0.45015 0.0
H831 H 0.96319 0.73657 0.44861 0.0
H832 H 1.0002 0.72861 0.43074 0.0
H833 H 0.98995 0.71771 0.43943 0.0
H834 H 0.0196 0.70577 0.43502 0.0
H835 H 1.00912 0.69475 0.44344 0.0
H836 H 0.97637 0.6516 0.44932 0.0
H837 H 0.95324 0.64854 0.46369 0.0
H838 H 0.9555 0.66862 0.46585 0.0
H839 H 0.97844 0.67178 0.45137 0.0
C840 C 0.56534 0.57876 0.62865 0.0
C841 C 0.5677 0.58363 0.62088 0.0
C842 C 0.55323 0.59147 0.61837 0.0
C843 C 0.5617 0.58992 0.61578 0.0
C844 C 0.5507 0.58617 0.62593 0.0
C845 C 0.55673 0.57988 0.63104 0.0
U846 U 0.59039 0.57275 0.63524 0.0
O847 O 0.60097 0.57503 0.64888 0.0
O848 O 0.59589 0.55852 0.64101 0.0
C849 C 0.6009 0.56442 0.64895 0.0
C850 C 0.57235 0.5736 0.63481 0.0
C851 C 0.5994 0.55985 0.6576 0.0
C852 C 0.59091 0.55827 0.67007 0.0
C853 C 0.59179 0.56189 0.66142 0.0
C854 C 0.60504 0.55019 0.67099 0.0
C855 C 0.59761 0.55251 0.67502 0.0
C856 C 0.60594 0.55386 0.66236 0.0
C857 C 0.60802 0.5838 0.62074 0.0
C858 C 0.62532 0.58478 0.62636 0.0
C859 C 0.61919 0.59322 0.61237 0.0
C860 C 0.60973 0.58962 0.61322 0.0
C861 C 0.62712 0.59108 0.61906 0.0
C862 C 0.61583 0.58117 0.6272 0.0
C863 C 0.59824 0.5816 0.62231 0.0
O864 O 0.57481 0.56514 0.63082 0.0
O865 O 0.57982 0.5807 0.64012 0.0
O866 O 0.59738 0.58735 0.62976 0.0
O867 O 0.59385 0.57115 0.62143 0.0
H868 H 0.5744 0.58295 0.61901 0.0
H869 H 0.56396 0.59401 0.61011 0.0
H870 H 0.54417 0.5871 0.62803 0.0
H871 H 0.55483 0.57621 0.63704 0.0
H872 H 0.58516 0.5603 0.673 0.0
H873 H 0.58667 0.56651 0.65782 0.0
H874 H 0.61022 0.5456 0.67452 0.0
H875 H 0.61183 0.55219 0.65948 0.0
H876 H 0.63125 0.5829 0.63156 0.0
H877 H 0.62031 0.5982 0.60675 0.0
H878 H 0.60378 0.59178 0.60822 0.0
H879 H 0.61461 0.5767 0.63307 0.0
C880 C 0.83874 0.48384 0.09448 0.0
C881 C 0.84624 0.48497 0.10265 0.0
C882 C 0.8346 0.478 0.11157 0.0
C883 C 0.8442 0.48208 0.11111 0.0
C884 C 0.82705 0.47723 0.10343 0.0
C885 C 0.82912 0.48009 0.09492 0.0
U886 U 0.85804 0.49044 0.08141 0.0
O887 O 0.8599 0.48271 0.0683 0.0
O888 O 0.8594 0.50034 0.06962 0.0
C889 C 0.85951 0.49169 0.06403 0.0
C890 C 0.84113 0.4858 0.08545 0.0
C891 C 0.85272 0.49009 0.0547 0.0
C892 C 0.83741 0.4811 0.04397 0.0
C893 C 0.84351 0.48318 0.05303 0.0
C894 C 0.84952 0.49315 0.03821 0.0
C895 C 0.84039 0.48596 0.03641 0.0
C896 C 0.85564 0.49516 0.04727 0.0
C897 C 0.88411 0.49429 0.09629 0.0
C898 C 0.89787 0.49376 0.08958 0.0
C899 C 0.89996 0.49482 0.10648 0.0
C900 C 0.89016 0.495 0.10531 0.0
C901 C 0.9039 0.49393 0.09862 0.0
C902 C 0.88803 0.49392 0.08842 0.0
C903 C 0.87362 0.49277 0.09524 0.0
O904 O 0.84554 0.49594 0.0849 0.0
O905 O 0.84521 0.47825 0.08227 0.0
O906 O 0.86857 0.48314 0.09096 0.0
O907 O 0.86964 0.5011 0.09247 0.0
H908 H 0.85372 0.48784 0.10243 0.0
H909 H 0.85015 0.48292 0.11729 0.0
H910 H 0.81959 0.47406 0.10357 0.0
H911 H 0.82325 0.47912 0.08865 0.0
H912 H 0.83049 0.47543 0.04284 0.0
H913 H 0.84112 0.47921 0.0587 0.0
H914 H 0.85197 0.4972 0.0326 0.0
H915 H 0.86271 0.50057 0.04845 0.0
H916 H 0.90069 0.49318 0.08339 0.0
H917 H 0.9043 0.49477 0.11354 0.0
H918 H 0.88721 0.49521 0.11145 0.0
H919 H 0.88342 0.49335 0.08139 0.0
C920 C 0.69969 0.73511 0.56809 0.0
C921 C 0.69528 0.73479 0.57566 0.0
C922 C 0.68376 0.74522 0.5677 0.0
C923 C 0.68741 0.73985 0.57549 0.0
C924 C 0.6885 0.74596 0.56034 0.0
C925 C 0.6964 0.74094 0.56054 0.0
U926 U 0.71064 0.71084 0.57572 0.0
O927 O 0.71305 0.69696 0.56719 0.0
O928 O 0.72535 0.70766 0.57739 0.0
C929 C 0.72252 0.69968 0.57041 0.0
C930 C 0.70672 0.72817 0.56744 0.0
C931 C 0.72788 0.70069 0.56307 0.0
C932 C 0.7329 0.71059 0.55067 0.0
C933 C 0.72849 0.71009 0.5582 0.0
C934 C 0.73621 0.69234 0.55289 0.0
C935 C 0.73669 0.70165 0.54786 0.0
C936 C 0.73183 0.69187 0.56043 0.0
C937 C 0.701 0.69424 0.59376 0.0
C938 C 0.70215 0.67508 0.59508 0.0
C939 C 0.69471 0.68439 0.60555 0.0
C940 C 0.69655 0.69407 0.60127 0.0
C941 C 0.69726 0.6747 0.60232 0.0
C942 C 0.70403 0.68479 0.59084 0.0
C943 C 0.70159 0.70392 0.58848 0.0
O944 O 0.71387 0.72882 0.57496 0.0
O945 O 0.7027 0.71797 0.56379 0.0
O946 O 0.69776 0.70171 0.57939 0.0
O947 O 0.70997 0.71098 0.59057 0.0
H948 H 0.69763 0.73018 0.58149 0.0
H949 H 0.68384 0.73899 0.58121 0.0
H950 H 0.68589 0.75012 0.55428 0.0
H951 H 0.69968 0.74118 0.5546 0.0
H952 H 0.73308 0.71782 0.54688 0.0
H953 H 0.72536 0.71693 0.56009 0.0
H954 H 0.73917 0.68538 0.55095 0.0
H955 H 0.73137 0.68453 0.5641 0.0
H956 H 0.70427 0.66777 0.59251 0.0
H957 H 0.69083 0.68434 0.61103 0.0
H958 H 0.69414 0.7013 0.60358 0.0
H959 H 0.70752 0.6848 0.58506 0.0
H960 H 0.0492 0.09464 0.09879 0.0
H961 H 0.04207 0.1096 0.09188 0.0
H962 H 0.03683 0.11964 0.11853 0.0
H963 H 0.04425 0.10504 0.12558 0.0
H964 H 0.02375 0.11604 0.09053 0.0
H965 H 0.05484 0.14693 0.1128 0.0
H966 H 0.05497 0.1324 0.11132 0.0
H967 H 0.04856 0.13746 0.11923 0.0
C968 C 0.04649 0.1 0.10317 0.0
C969 C 0.04742 0.09871 0.11278 0.0
C970 C 0.04235 0.10849 0.09919 0.0
C971 C 0.03908 0.11582 0.10475 0.0
C972 C 0.03944 0.11415 0.11417 0.0
H973 H 0.02284 0.17891 0.09747 0.0
H974 H 0.02488 0.16102 0.10275 0.0
C975 C 0.0436 0.10571 0.11816 0.0
C976 C 0.03597 0.1257 0.10091 0.0
H977 H 0.04205 0.15387 0.10368 0.0
C978 C 0.02773 0.12433 0.09339 0.0
C979 C 0.04124 0.13648 0.10462 0.0
C980 C 0.05045 0.13845 0.11238 0.0
C981 C 0.0245 0.1335 0.08959 0.0
C982 C 0.02974 0.14427 0.09337 0.0
C983 C 0.038 0.1456 0.10086 0.0
C984 C 0.027 0.15435 0.0896 0.0
C985 C 0.01545 0.13161 0.08169 0.0
C986 C 0.02734 0.15647 0.0804 0.0
C987 C 0.02609 0.16668 0.07732 0.0
C988 C 0.02456 0.175 0.08343 0.0
C989 C 0.02386 0.17267 0.09253 0.0
C990 C 0.02509 0.16246 0.09559 0.0
H991 H 1.01095 0.12319 0.08125 0.0
H992 H 1.01099 0.13779 0.0826 0.0
H993 H 0.01752 0.13251 0.07492 0.0
H994 H 0.02897 0.1504 0.07572 0.0
H995 H 0.0266 0.16818 0.07025 0.0
H996 H 0.20846 0.88444 0.38804 0.0
H997 H 0.19416 0.87003 0.3811 0.0
H998 H 0.21185 0.84545 0.38402 0.0
H999 H 0.22628 0.85996 0.39119 0.0
H1000 H 0.19079 0.85638 0.36495 0.0
H1001 H 0.18974 0.83203 0.39545 0.0
H1002 H 0.19724 0.84567 0.39663 0.0
H1003 H 0.2008 0.83401 0.3916 0.0
C1004 C 0.20932 0.87597 0.3872 0.0
C1005 C 0.21848 0.87332 0.39008 0.0
C1006 C 0.20114 0.86774 0.38325 0.0
C1007 C 0.20192 0.85666 0.38208 0.0
C1008 C 0.21106 0.85393 0.38501 0.0
H1009 H 0.14825 0.81463 0.34641 0.0
H1010 H 0.16573 0.82157 0.35272 0.0
C1011 C 0.21928 0.8622 0.38906 0.0
C1012 C 0.19309 0.8482 0.37754 0.0
H1013 H 0.17704 0.82635 0.38185 0.0
C1014 C 0.18783 0.84971 0.36859 0.0
C1015 C 0.18926 0.83954 0.38232 0.0
C1016 C 0.19449 0.83771 0.39206 0.0
C1017 C 0.1786 0.84322 0.36449 0.0
C1018 C 0.17464 0.83471 0.36936 0.0
C1019 C 0.18012 0.83283 0.37811 0.0
C1020 C 0.16439 0.82872 0.36606 0.0
C1021 C 0.17293 0.84605 0.35528 0.0
C1022 C 0.15791 0.82983 0.37166 0.0
C1023 C 0.14798 0.82574 0.36814 0.0
C1024 C 0.14432 0.82049 0.35891 0.0
C1025 C 0.15087 0.81878 0.3535 0.0
C1026 C 0.16084 0.82277 0.35708 0.0
H1027 H 0.17623 0.85425 0.3535 0.0
H1028 H 0.17279 0.83975 0.34953 0.0
H1029 H 0.16533 0.84611 0.35551 0.0
H1030 H 0.16048 0.83439 0.37861 0.0
H1031 H 0.14312 0.82726 0.37246 0.0
H1032 H 0.46124 0.87131 0.69195 0.0
H1033 H 0.44767 0.87036 0.69933 0.0
H1034 H 0.45931 0.90375 0.7124 0.0
H1035 H 0.47314 0.90467 0.70532 0.0
H1036 H 0.45057 0.88873 0.72401 0.0
H1037 H 0.42694 0.88803 0.6882 0.0
H1038 H 0.43386 0.87738 0.68961 0.0
H1039 H 0.43999 0.89158 0.69066 0.0
C1040 C 0.46109 0.87835 0.69662 0.0
C1041 C 0.46824 0.88812 0.69796 0.0
C1042 C 0.45327 0.87782 0.70076 0.0
C1043 C 0.45241 0.88706 0.70625 0.0
C1044 C 0.45983 0.89656 0.70812 0.0
H1045 H 0.40862 0.90975 0.72834 0.0
H1046 H 0.42389 0.9061 0.72584 0.0
C1047 C 0.46768 0.8971 0.70401 0.0
C1048 C 0.44337 0.88718 0.7093 0.0
H1049 H 0.41936 0.88698 0.70073 0.0
C1050 C 0.44373 0.8883 0.71894 0.0
C1051 C 0.43448 0.88666 0.70265 0.0
C1052 C 0.43375 0.88594 0.6922 0.0
C1053 C 0.43536 0.88884 0.72212 0.0
C1054 C 0.42649 0.88845 0.71546 0.0
C1055 C 0.42615 0.8872 0.70582 0.0
C1056 C 0.41755 0.88992 0.71821 0.0
C1057 C 0.43609 0.88974 0.73255 0.0
C1058 C 0.40889 0.88204 0.71476 0.0
C1059 C 0.40013 0.88414 0.71612 0.0
C1060 C 0.39986 0.89418 0.72094 0.0
C1061 C 0.40861 0.90187 0.72473 0.0
C1062 C 0.41736 0.89978 0.72333 0.0
H1063 H 0.44235 0.88652 0.73644 0.0
H1064 H 0.43716 0.89857 0.73523 0.0
H1065 H 0.42937 0.88516 0.73412 0.0
H1066 H 0.40887 0.87439 0.71076 0.0
H1067 H 0.39353 0.87802 0.7132 0.0
H1068 H 0.43281 0.23471 0.94145 0.0
H1069 H 0.41552 0.23419 0.9393 0.0
H1070 H 0.41674 0.22284 0.96663 0.0
H1071 H 0.43414 0.22365 0.96899 0.0
H1072 H 0.40296 0.21427 0.93906 0.0
H1073 H 0.39919 0.24537 0.966 0.0
H1074 H 0.41037 0.24569 0.96243 0.0
H1075 H 0.40704 0.2363 0.97055 0.0
C1076 C 0.4295 0.23247 0.94716 0.0
C1077 C 0.43486 0.22918 0.95539 0.0
C1078 C 0.41959 0.23213 0.94588 0.0
C1079 C 0.41486 0.22856 0.95282 0.0
C1080 C 0.42027 0.2258 0.96125 0.0
H1081 H 0.35679 0.20258 0.95617 0.0
H1082 H 0.37404 0.21093 0.95921 0.0
C1083 C 0.43019 0.22614 0.96254 0.0
C1084 C 0.40413 0.22625 0.95072 0.0
H1085 H 0.3849 0.23186 0.95852 0.0
C1086 C 0.399 0.21823 0.94322 0.0
C1087 C 0.39901 0.23135 0.95624 0.0
C1088 C 0.40417 0.24023 0.96421 0.0
C1089 C 0.38889 0.21488 0.94127 0.0
C1090 C 0.38374 0.21991 0.94682 0.0
C1091 C 0.38886 0.22807 0.95424 0.0
C1092 C 0.37311 0.21628 0.94533 0.0
C1093 C 0.38387 0.20564 0.93353 0.0
C1094 C 0.36681 0.21687 0.93663 0.0
C1095 C 0.35696 0.21203 0.93485 0.0
C1096 C 0.35322 0.20668 0.9418 0.0
C1097 C 0.35944 0.20671 0.9507 0.0
C1098 C 0.36931 0.21146 0.95244 0.0
H1099 H 0.38905 0.20092 0.93153 0.0
H1100 H 0.37817 0.19979 0.9357 0.0
H1101 H 0.38038 0.20917 0.92719 0.0
H1102 H 0.36957 0.22078 0.93112 0.0
H1103 H 0.35229 0.21227 0.92799 0.0
H1104 H 0.0848 0.86352 0.33528 0.0
H1105 H 0.08547 0.88245 0.33144 0.0
H1106 H 0.05551 0.87372 0.31587 0.0
H1107 H 0.05476 0.85463 0.31981 0.0
H1108 H 0.08258 0.89011 0.31422 0.0
H1109 H 0.05597 0.90081 0.33334 0.0
H1110 H 0.06096 0.88859 0.33506 0.0
H1111 H 0.05166 0.88895 0.32469 0.0
C1112 C 0.07837 0.86558 0.33097 0.0
C1113 C 0.06974 0.85757 0.3278 0.0
C1114 C 0.07875 0.87642 0.32882 0.0
C1115 C 0.07053 0.87952 0.32344 0.0
C1116 C 0.06189 0.87155 0.32018 0.0
H1117 H 0.08245 0.94535 0.30427 0.0
H1118 H 0.07515 0.92583 0.30383 0.0
C1119 C 0.06148 0.86065 0.3224 0.0
C1120 C 0.07123 0.89113 0.32125 0.0
H1121 H 0.06358 0.91487 0.32583 0.0
C1122 C 0.07835 0.89551 0.31666 0.0
C1123 C 0.06573 0.89814 0.32449 0.0
C1124 C 0.05819 0.89395 0.32974 0.0
C1125 C 0.08043 0.9068 0.31557 0.0
C1126 C 0.07503 0.91387 0.31892 0.0
C1127 C 0.06764 0.90941 0.3232 0.0
C1128 C 0.07767 0.92603 0.31894 0.0
C1129 C 0.08878 0.91113 0.31133 0.0
C1130 C 0.0809 0.93278 0.32754 0.0
C1131 C 0.08488 0.944 0.32782 0.0
C1132 C 0.08576 0.94869 0.31949 0.0
C1133 C 0.08188 0.94206 0.31083 0.0
C1134 C 0.0778 0.93084 0.31056 0.0
H1135 H 0.09348 0.90505 0.31104 0.0
H1136 H 0.0859 0.91293 0.30404 0.0
H1137 H 0.09334 0.9189 0.31543 0.0
H1138 H 0.08078 0.92926 0.3341 0.0
H1139 H 0.08758 0.94892 0.33459 0.0
H1140 H 0.42039 1.00932 0.61068 0.0
H1141 H 0.43651 1.00524 0.6163 0.0
H1142 H 0.4272 0.97408 0.59876 0.0
H1143 H 0.41116 0.9781 0.59313 0.0
H1144 H 0.43886 0.98798 0.62617 0.0
H1145 H 0.45431 0.9838 0.59541 0.0
H1146 H 0.44434 0.99068 0.59528 0.0
H1147 H 0.44218 0.97584 0.59318 0.0
C1148 C 0.42186 1.00171 0.60788 0.0
C1149 C 0.41449 0.99401 0.60149 0.0
C1150 C 0.43108 0.99942 0.61105 0.0
C1151 C 0.43311 0.98941 0.60788 0.0
C1152 C 0.42591 0.98199 0.60113 0.0
H1153 H 0.46592 0.9424 0.62615 0.0
H1154 H 0.45646 0.9544 0.61733 0.0
C1155 C 0.41671 0.98429 0.59793 0.0
C1156 C 0.44207 0.9859 0.61265 0.0
H1157 H 0.46035 0.97396 0.60855 0.0
C1158 C 0.44371 0.98517 0.62236 0.0
C1159 C 0.44835 0.98218 0.60766 0.0
C1160 C 0.44726 0.98327 0.59732 0.0
C1161 C 0.45106 0.98017 0.62712 0.0
C1162 C 0.45707 0.97599 0.62205 0.0
C1163 C 0.45573 0.97718 0.61242 0.0
C1164 C 0.46402 0.96932 0.62646 0.0
C1165 C 0.45191 0.97879 0.63741 0.0
C1166 C 0.47169 0.97382 0.63429 0.0
C1167 C 0.4771 0.96696 0.63938 0.0
C1168 C 0.475 0.95551 0.63665 0.0
C1169 C 0.46778 0.95119 0.6284 0.0
C1170 C 0.46234 0.95803 0.62336 0.0
H1171 H 0.44556 0.9806 0.63979 0.0
H1172 H 0.45261 0.97024 0.63882 0.0
H1173 H 0.4585 0.98455 0.6417 0.0
H1174 H 0.47321 0.98255 0.63669 0.0
H1175 H 0.48273 0.97055 0.64562 0.0
H1176 H 0.4572 0.13616 0.93859 0.0
H1177 H 0.45026 0.11638 0.93542 0.0
H1178 H 0.456 0.11361 0.96523 0.0
H1179 H 0.46289 0.1335 0.96847 0.0
H1180 H 0.45643 0.09684 0.94027 0.0
H1181 H 0.42656 0.10387 0.95644 0.0
H1182 H 0.43512 0.11509 0.95384 0.0
H1183 H 0.43858 0.10795 0.96396 0.0
C1184 C 0.4572 0.13131 0.94448 0.0
C1185 C 0.4605 0.13641 0.95378 0.0
C1186 C 0.45321 0.12 0.94266 0.0
C1187 C 0.45245 0.11357 0.95009 0.0
C1188 C 0.45634 0.11848 0.95939 0.0
H1189 H 0.413 0.04952 0.94456 0.0
H1190 H 0.42698 0.0646 0.9512 0.0
C1191 C 0.46027 0.12982 0.96123 0.0
C1192 C 0.4468 0.10205 0.94802 0.0
H1193 H 0.42552 0.08596 0.94971 0.0
C1194 C 0.44972 0.0944 0.94242 0.0
C1195 C 0.43805 0.09889 0.95084 0.0
C1196 C 0.43432 0.10688 0.95653 0.0
C1197 C 0.44401 0.08375 0.93938 0.0
C1198 C 0.43509 0.08076 0.9419 0.0
C1199 C 0.43238 0.08825 0.94782 0.0
C1200 C 0.42795 0.07042 0.93779 0.0
C1201 C 0.44751 0.07585 0.93339 0.0
C1202 C 0.42397 0.06855 0.92803 0.0
C1203 C 0.41597 0.05998 0.92423 0.0
C1204 C 0.41173 0.05318 0.93012 0.0
C1205 C 0.41604 0.0547 0.93985 0.0
C1206 C 0.42406 0.06327 0.94364 0.0
H1207 H 0.45554 0.07781 0.93474 0.0
H1208 H 0.44513 0.06716 0.93472 0.0
H1209 H 0.44448 0.07661 0.92586 0.0
H1210 H 0.42668 0.07413 0.92339 0.0
H1211 H 0.41274 0.05916 0.91673 0.0
H1212 H 0.17015 0.24422 0.0513 0.0
H1213 H 0.15347 0.24665 0.049 0.0
H1214 H 0.15849 0.25598 0.07877 0.0
H1215 H 0.17531 0.25387 0.08111 0.0
H1216 H 0.14094 0.23361 0.05773 0.0
H1217 H 0.14261 0.27813 0.06696 0.0
H1218 H 0.15255 0.27306 0.06394 0.0
H1219 H 0.15049 0.27203 0.07549 0.0
C1220 C 0.16783 0.24717 0.05733 0.0
C1221 C 0.17406 0.24883 0.0664 0.0
C1222 C 0.15827 0.24849 0.056 0.0
C1223 C 0.15477 0.25157 0.0637 0.0
C1224 C 0.16109 0.25378 0.0727 0.0
H1225 H 0.09965 0.24843 0.07655 0.0
H1226 H 0.11669 0.25254 0.07603 0.0
C1227 C 0.17067 0.25245 0.07404 0.0
C1228 C 0.14425 0.25098 0.0625 0.0
H1229 H 0.12751 0.2658 0.06601 0.0
C1230 C 0.13798 0.24068 0.05941 0.0
C1231 C 0.14045 0.2602 0.0648 0.0
C1232 C 0.14685 0.27151 0.06791 0.0
C1233 C 0.12803 0.23922 0.05884 0.0
C1234 C 0.1242 0.24842 0.0612 0.0
C1235 C 0.13046 0.25878 0.06416 0.0
C1236 C 0.11382 0.24721 0.06116 0.0
C1237 C 0.12179 0.22775 0.05612 0.0
C1238 C 0.10654 0.2432 0.05291 0.0
C1239 C 0.0968 0.24077 0.05321 0.0
C1240 C 0.09418 0.24248 0.06173 0.0
C1241 C 0.10145 0.24709 0.06987 0.0
C1242 C 0.11118 0.24943 0.06958 0.0
H1243 H 0.1262 0.22128 0.0568 0.0
H1244 H 0.11652 0.22607 0.06054 0.0
H1245 H 0.11765 0.22702 0.04867 0.0
H1246 H 0.10841 0.24168 0.04629 0.0
H1247 H 0.09133 0.23738 0.0468 0.0
H1248 H 0.13038 0.10623 0.10492 0.0
H1249 H 0.14589 0.11687 0.10376 0.0
H1250 H 0.1608 0.10019 0.12567 0.0
H1251 H 0.14521 0.08921 0.12675 0.0
H1252 H 0.16588 0.12307 0.12913 0.0
H1253 H 0.16812 0.10987 0.09327 0.0
H1254 H 0.15649 0.11294 0.09322 0.0
H1255 H 0.1602 0.10168 0.0993 0.0
C1256 C 0.13694 0.10451 0.10929 0.0
C1257 C 0.13652 0.09681 0.11591 0.0
C1258 C 0.14583 0.11063 0.10861 0.0
C1259 C 0.1545 0.10921 0.11453 0.0
C1260 C 0.15418 0.10135 0.12099 0.0
H1261 H 0.20363 0.15643 0.10436 0.0
H1262 H 0.19542 0.13892 0.10849 0.0
C1263 C 0.14526 0.09514 0.12164 0.0
C1264 C 0.16369 0.11689 0.11459 0.0
H1265 H 0.17651 0.12866 0.09967 0.0
C1266 C 0.16838 0.12411 0.12276 0.0
C1267 C 0.16707 0.11813 0.10635 0.0
C1268 C 0.16276 0.11015 0.09757 0.0
C1269 C 0.17578 0.13317 0.12264 0.0
C1270 C 0.17843 0.13509 0.1141 0.0
C1271 C 0.17438 0.12727 0.10619 0.0
C1272 C 0.18426 0.14581 0.11284 0.0
C1273 C 0.1804 0.14087 0.13154 0.0
C1274 C 0.18073 0.15547 0.11396 0.0
C1275 C 0.1853 0.16541 0.11151 0.0
C1276 C 0.19352 0.16593 0.10785 0.0
C1277 C 0.19726 0.15631 0.10706 0.0
C1278 C 0.19263 0.14631 0.10947 0.0
H1279 H 0.18025 0.13643 0.13787 0.0
H1280 H 0.18803 0.14475 0.13179 0.0
H1281 H 0.17626 0.14751 0.13183 0.0
H1282 H 0.17413 0.15521 0.1163 0.0
H1283 H 0.18206 0.17254 0.11201 0.0
H1284 H 0.17551 0.02804 0.33142 0.0
H1285 H 0.18992 0.02201 0.34011 0.0
H1286 H 0.17159 0.99491 0.34863 0.0
H1287 H 0.15724 1.00068 0.3399 0.0
H1288 H 0.18801 1.00636 0.36325 0.0
H1289 H 0.19766 0.99366 0.33017 0.0
H1290 H 0.19617 1.00766 0.33196 0.0
H1291 H 0.18588 0.99646 0.3302 0.0
C1292 C 0.17455 0.02082 0.33517 0.0
C1293 C 0.1652 0.01484 0.33493 0.0
C1294 C 0.18279 0.01741 0.34014 0.0
C1295 C 0.1818 1.00797 0.34493 0.0
C1296 C 0.1725 1.00225 0.34501 0.0
H1297 H 0.21035 0.95682 0.36056 0.0
H1298 H 0.20097 0.96993 0.35357 0.0
C1299 C 0.1643 1.00562 0.34004 0.0
C1300 C 0.19031 1.0035 0.34943 0.0
H1301 H 0.20671 0.98911 0.34427 0.0
C1302 C 0.19224 1.00277 0.35915 0.0
C1303 C 0.19573 0.99875 0.34401 0.0
C1304 C 0.19377 0.99907 0.3335 0.0
C1305 C 0.1992 0.99701 0.36356 0.0
C1306 C 0.20439 0.99195 0.35808 0.0
C1307 C 0.20274 0.99307 0.34843 0.0
C1308 C 0.21064 0.98433 0.36199 0.0
C1309 C 0.20057 0.99583 0.37392 0.0
C1310 C 0.21929 0.98813 0.36894 0.0
C1311 C 0.22476 0.98064 0.37293 0.0
C1312 C 0.22165 0.96923 0.37 0.0
C1313 C 0.21307 0.96554 0.36287 0.0
C1314 C 0.20766 0.97302 0.3589 0.0
H1315 H 0.19507 0.99902 0.37687 0.0
H1316 H 0.20013 0.98702 0.37518 0.0
H1317 H 0.20787 1.0005 0.3778 0.0
H1318 H 0.22177 0.99686 0.37134 0.0
H1319 H 0.23139 0.98376 0.37831 0.0
H1320 H 0.32905 0.9257 0.68133 0.0
H1321 H 0.32742 0.93394 0.66651 0.0
H1322 H 0.32598 0.96486 0.68068 0.0
H1323 H 0.32807 0.95683 0.69564 0.0
H1324 H 0.31389 0.94411 0.65593 0.0
H1325 H 0.34927 0.97347 0.66963 0.0
H1326 H 0.34527 0.96204 0.67579 0.0
H1327 H 0.34043 0.97434 0.67628 0.0
C1328 C 0.3284 0.93426 0.68131 0.0
C1329 C 0.32887 0.94066 0.68972 0.0
C1330 C 0.32737 0.93893 0.67281 0.0
C1331 C 0.32677 0.95007 0.67253 0.0
C1332 C 0.32663 0.9563 0.68078 0.0
H1333 H 0.31875 0.97905 0.61845 0.0
H1334 H 0.31598 0.97289 0.63335 0.0
C1335 C 0.32772 0.95166 0.68931 0.0
C1336 C 0.32696 0.95526 0.66372 0.0
H1337 H 0.34092 0.97441 0.65407 0.0
C1338 C 0.31974 0.9508 0.65552 0.0
C1339 C 0.33468 0.96391 0.6632 0.0
C1340 C 0.34291 0.96868 0.67166 0.0
C1341 C 0.32014 0.95461 0.64677 0.0
C1342 C 0.32789 0.96322 0.64626 0.0
C1343 C 0.33496 0.96786 0.6545 0.0
C1344 C 0.32932 0.96692 0.63718 0.0
C1345 C 0.31253 0.94906 0.63809 0.0
C1346 C 0.3378 0.96578 0.63447 0.0
C1347 C 0.33941 0.96935 0.62605 0.0
C1348 C 0.3326 0.97417 0.62013 0.0
C1349 C 0.32408 0.97528 0.62282 0.0
C1350 C 0.32249 0.97174 0.63132 0.0
H1351 H 0.30827 0.94113 0.6394 0.0
H1352 H 0.30744 0.9546 0.63582 0.0
H1353 H 0.31591 0.94742 0.63222 0.0
H1354 H 0.34315 0.96206 0.63888 0.0
H1355 H 0.34597 0.9682 0.62411 0.0
H1356 H 0.27722 0.10652 0.91846 0.0
H1357 H 0.28132 0.0887 0.91464 0.0
H1358 H 0.31171 0.10408 0.92253 0.0
H1359 H 0.30773 0.12175 0.92651 0.0
H1360 H 0.29278 0.08353 0.90153 0.0
H1361 H 0.30922 0.07746 0.93834 0.0
H1362 H 0.30119 0.08692 0.9354 0.0
H1363 H 0.31371 0.09085 0.93515 0.0
C1364 C 0.28477 0.10607 0.91941 0.0
C1365 C 0.29215 0.11555 0.92277 0.0
C1366 C 0.28709 0.09592 0.91719 0.0
C1367 C 0.29681 0.09508 0.91843 0.0
C1368 C 0.30416 0.10454 0.92165 0.0
H1369 H 0.33446 0.05326 0.91042 0.0
H1370 H 0.32587 0.06739 0.91419 0.0
C1371 C 0.30186 0.11466 0.92382 0.0
C1372 C 0.29944 0.0844 0.91632 0.0
H1373 H 0.31309 0.06657 0.92628 0.0
C1374 C 0.29707 0.07967 0.90694 0.0
C1375 C 0.30499 0.0794 0.92341 0.0
C1376 C 0.30736 0.08385 0.93366 0.0
C1377 C 0.30063 0.07044 0.90439 0.0
C1378 C 0.30659 0.06578 0.91145 0.0
C1379 C 0.30856 0.0702 0.92088 0.0
C1380 C 0.31158 0.05697 0.90915 0.0
C1381 C 0.29845 0.06611 0.89414 0.0
C1382 C 0.30637 0.04637 0.90514 0.0
C1383 C 0.31128 0.03821 0.90301 0.0
C1384 C 0.32148 0.04051 0.90493 0.0
C1385 C 0.32663 0.05113 0.90901 0.0
C1386 C 0.32173 0.05925 0.91111 0.0
H1387 H 0.29511 0.07177 0.88945 0.0
H1388 H 0.30518 0.06489 0.89219 0.0
H1389 H 0.29334 0.05799 0.89287 0.0
H1390 H 0.29854 0.0444 0.90371 0.0
H1391 H 0.30712 0.03008 0.89996 0.0
H1392 H 0.72435 0.35889 0.89865 0.0
H1393 H 0.70969 0.34496 0.89117 0.0
H1394 H 0.70084 0.36721 0.87102 0.0
H1395 H 0.71526 0.38116 0.87847 0.0
H1396 H 0.69091 0.34777 0.88968 0.0
H1397 H 0.69633 0.33838 0.85427 0.0
H1398 H 0.70617 0.34504 0.8641 0.0
H1399 H 0.69829 0.35297 0.85747 0.0
C1400 C 0.71932 0.36078 0.89257 0.0
C1401 C 0.72103 0.37114 0.88914 0.0
C1402 C 0.71099 0.35278 0.88828 0.0
C1403 C 0.70427 0.35497 0.88043 0.0
C1404 C 0.70606 0.36521 0.87689 0.0
H1405 H 0.64649 0.33986 0.85011 0.0
H1406 H 0.66392 0.34564 0.8566 0.0
C1407 C 0.71434 0.37319 0.88118 0.0
C1408 C 0.69491 0.34713 0.87645 0.0
H1409 H 0.67969 0.33486 0.85557 0.0
C1410 C 0.68852 0.3447 0.88227 0.0
C1411 C 0.69183 0.34312 0.86679 0.0
C1412 C 0.69856 0.34492 0.86032 0.0
C1413 C 0.67888 0.33907 0.87854 0.0
C1414 C 0.67564 0.33567 0.86877 0.0
C1415 C 0.6822 0.33753 0.86306 0.0
C1416 C 0.66524 0.33138 0.86421 0.0
C1417 C 0.67208 0.33744 0.88496 0.0
C1418 C 0.66023 0.3213 0.86617 0.0
C1419 C 0.65022 0.31791 0.8624 0.0
C1420 C 0.64507 0.32454 0.85659 0.0
C1421 C 0.65022 0.33445 0.85442 0.0
C1422 C 0.66019 0.33781 0.85817 0.0
H1423 H 0.67539 0.34199 0.89207 0.0
H1424 H 0.66529 0.34024 0.88189 0.0
H1425 H 0.6701 0.32852 0.88577 0.0
H1426 H 0.66404 0.31615 0.87072 0.0
H1427 H 0.6465 0.31016 0.86411 0.0
H1428 H 0.95969 0.40346 0.18969 0.0
H1429 H 0.94694 0.40302 0.19802 0.0
H1430 H 0.95933 0.3808 0.21637 0.0
H1431 H 0.97221 0.38117 0.20797 0.0
H1432 H 0.9399 0.3738 0.20968 0.0
H1433 H 0.94769 0.4178 0.22345 0.0
H1434 H 0.94674 0.41641 0.21104 0.0
H1435 H 0.95629 0.41164 0.2189 0.0
C1436 C 0.95985 0.39867 0.19563 0.0
C1437 C 0.96704 0.39246 0.19825 0.0
C1438 C 0.95255 0.39843 0.2004 0.0
C1439 C 0.95231 0.39209 0.20796 0.0
C1440 C 0.95945 0.38584 0.21061 0.0
H1441 H 0.90551 0.40241 0.23383 0.0
H1442 H 0.92156 0.39954 0.23308 0.0
C1443 C 0.96677 0.38604 0.2058 0.0
C1444 C 0.94418 0.39152 0.2126 0.0
H1445 H 0.93106 0.40793 0.22127 0.0
C1446 C 0.93806 0.38123 0.21241 0.0
C1447 C 0.9419 0.40117 0.21638 0.0
C1448 C 0.94858 0.41235 0.21756 0.0
C1449 C 0.92935 0.38044 0.21522 0.0
C1450 C 0.92658 0.39023 0.21806 0.0
C1451 C 0.93307 0.40042 0.21894 0.0
C1452 C 0.91669 0.3903 0.21927 0.0
C1453 C 0.92313 0.36915 0.21494 0.0
C1454 C 0.90856 0.38587 0.21185 0.0
C1455 C 0.89936 0.38734 0.21232 0.0
C1456 C 0.89809 0.39347 0.22014 0.0
C1457 C 0.90618 0.39754 0.22774 0.0
C1458 C 0.91539 0.39597 0.2273 0.0
H1459 H 0.92766 0.36283 0.2163 0.0
H1460 H 0.9187 0.36901 0.2202 0.0
H1461 H 0.91819 0.36676 0.20783 0.0
H1462 H 0.90937 0.38169 0.20547 0.0
H1463 H 0.89327 0.38396 0.2064 0.0
H1464 H 0.92929 0.70747 0.45329 0.0
H1465 H 0.91223 0.70764 0.45175 0.0
H1466 H 0.91944 0.74286 0.45969 0.0
H1467 H 0.93668 0.74277 0.46114 0.0
H1468 H 0.90295 0.71374 0.46467 0.0
H1469 H 0.89878 0.73997 0.43514 0.0
H1470 H 0.90936 0.73412 0.43885 0.0
H1471 H 0.90784 0.74587 0.4457 0.0
C1472 C 0.92728 0.71525 0.45482 0.0
C1473 C 0.93433 0.7251 0.45739 0.0
C1474 C 0.91751 0.71534 0.4539 0.0
C1475 C 0.91454 0.72527 0.45552 0.0
C1476 C 0.92156 0.73514 0.45823 0.0
H1477 H 0.85252 0.71307 0.45482 0.0
H1478 H 0.86967 0.72204 0.45988 0.0
C1479 C 0.93139 0.73507 0.45909 0.0
C1480 C 0.90405 0.72504 0.45424 0.0
H1481 H 0.8847 0.73246 0.43983 0.0
C1482 C 0.89895 0.71795 0.45934 0.0
C1483 C 0.89888 0.73053 0.44724 0.0
C1484 C 0.90395 0.738 0.44135 0.0
C1485 C 0.88879 0.71568 0.45728 0.0
C1486 C 0.88359 0.72094 0.45011 0.0
C1487 C 0.88871 0.72849 0.44535 0.0
C1488 C 0.87289 0.71759 0.44665 0.0
C1489 C 0.88375 0.70708 0.46237 0.0
C1490 C 0.86887 0.71283 0.43733 0.0
C1491 C 0.85903 0.70795 0.43434 0.0
C1492 C 0.85301 0.70762 0.44063 0.0
C1493 C 0.85692 0.71314 0.44977 0.0
C1494 C 0.86676 0.71816 0.45272 0.0
H1495 H 0.88878 0.7022 0.46623 0.0
H1496 H 0.88074 0.71124 0.46758 0.0
H1497 H 0.87767 0.70128 0.45737 0.0
H1498 H 0.87344 0.7124 0.43248 0.0
H1499 H 0.85621 0.70404 0.42718 0.0
H1500 H 0.91084 0.55583 0.4442 0.0
H1501 H 0.92494 0.5711 0.44897 0.0
H1502 H 0.92816 0.56999 0.42049 0.0
H1503 H 0.91382 0.55506 0.41557 0.0
H1504 H 0.94466 0.57534 0.44767 0.0
H1505 H 0.92242 0.60069 0.42563 0.0
H1506 H 0.91727 0.58725 0.4284 0.0
H1507 H 0.924 0.58844 0.41951 0.0
C1508 C 0.91459 0.55876 0.43896 0.0
C1509 C 0.91107 0.55436 0.42946 0.0
C1510 C 0.92271 0.56743 0.44172 0.0
C1511 C 0.92746 0.57181 0.43504 0.0
C1512 C 0.92448 0.56683 0.42572 0.0
H1513 H 0.96377 0.63717 0.43945 0.0
H1514 H 0.95689 0.61764 0.43428 0.0
C1515 C 0.91633 0.55821 0.42294 0.0
C1516 C 0.93474 0.58232 0.43763 0.0
H1517 H 0.93809 0.60954 0.43395 0.0
C1518 C 0.9433 0.58281 0.44462 0.0
C1519 C 0.9329 0.59206 0.43366 0.0
C1520 C 0.92362 0.59217 0.42644 0.0
C1521 C 0.95003 0.59284 0.4478 0.0
C1522 C 0.94806 0.6026 0.44397 0.0
C1523 C 0.93963 0.60203 0.43682 0.0
C1524 C 0.95413 0.6137 0.44769 0.0
C1525 C 0.95916 0.5929 0.45523 0.0
C1526 C 0.95513 0.61791 0.45703 0.0
C1527 C 0.95915 0.62908 0.46004 0.0
C1528 C 0.96214 0.63627 0.45373 0.0
C1529 C 0.96165 0.63187 0.44453 0.0
C1530 C 0.95766 0.6207 0.44154 0.0
H1531 H 0.96108 0.58463 0.45521 0.0
H1532 H 0.96536 0.59906 0.45419 0.0
H1533 H 0.958 0.5951 0.46225 0.0
H1534 H 0.9523 0.61273 0.46185 0.0
H1535 H 0.95952 0.63218 0.46719 0.0
H1536 H 0.58817 0.44722 0.83465 0.0
H1537 H 0.58082 0.4277 0.83393 0.0
H1538 H 0.57338 0.42523 0.80362 0.0
H1539 H 0.58125 0.44461 0.80425 0.0
H1540 H 0.56319 0.41418 0.82643 0.0
H1541 H 0.59076 0.40323 0.80871 0.0
H1542 H 0.59144 0.41713 0.81358 0.0
H1543 H 0.5831 0.41159 0.80248 0.0
C1544 C 0.58497 0.44255 0.82782 0.0
C1545 C 0.58551 0.44744 0.81951 0.0
C1546 C 0.58067 0.43141 0.82742 0.0
C1547 C 0.57676 0.42494 0.81872 0.0
C1548 C 0.57656 0.43001 0.81041 0.0
H1549 H 0.5533 0.35384 0.82089 0.0
H1550 H 0.55382 0.37279 0.81663 0.0
C1551 C 0.58097 0.44114 0.81079 0.0
C1552 C 0.57375 0.41279 0.81849 0.0
H1553 H 0.58014 0.38863 0.81265 0.0
C1554 C 0.56679 0.40855 0.82332 0.0
C1555 C 0.57854 0.40549 0.81448 0.0
C1556 C 0.58643 0.40956 0.80958 0.0
C1557 C 0.56478 0.39728 0.82459 0.0
C1558 C 0.56973 0.39005 0.82076 0.0
C1559 C 0.57634 0.3942 0.81555 0.0
C1560 C 0.56915 0.37849 0.82304 0.0
C1561 C 0.5578 0.39333 0.83048 0.0
C1562 C 0.57761 0.37536 0.82786 0.0
C1563 C 0.57735 0.3646 0.83019 0.0
C1564 C 0.56861 0.35669 0.82776 0.0
C1565 C 0.56012 0.35979 0.8229 0.0
C1566 C 0.5604 0.37061 0.8205 0.0
H1567 H 0.55597 0.40031 0.83434 0.0
H1568 H 0.55098 0.38836 0.82584 0.0
H1569 H 0.56088 0.38799 0.83566 0.0
H1570 H 0.58444 0.38131 0.82994 0.0
H1571 H 0.58399 0.36253 0.83409 0.0
H1572 H 0.54552 0.60668 0.62675 0.0
H1573 H 0.53811 0.62124 0.61957 0.0
H1574 H 0.54139 0.60932 0.59254 0.0
H1575 H 0.54852 0.59447 0.59961 0.0
H1576 H 0.54815 0.63716 0.61097 0.0
H1577 H 0.51382 0.61524 0.58609 0.0
H1578 H 0.52027 0.60879 0.59555 0.0
H1579 H 0.52439 0.61019 0.58496 0.0
C1580 C 0.54439 0.60692 0.61922 0.0
C1581 C 0.54762 0.5994 0.61376 0.0
C1582 C 0.54021 0.6153 0.61514 0.0
C1583 C 0.53913 0.61631 0.60551 0.0
C1584 C 0.54201 0.60858 0.59996 0.0
H1585 H 0.52768 0.66871 0.57082 0.0
H1586 H 0.53022 0.65112 0.57665 0.0
C1587 C 0.54619 0.60018 0.60403 0.0
C1588 C 0.53599 0.62612 0.60155 0.0
H1589 H 0.5189 0.63441 0.58484 0.0
C1590 C 0.5417 0.63657 0.60531 0.0
C1591 C 0.52764 0.62529 0.5941 0.0
C1592 C 0.52111 0.61428 0.58997 0.0
C1593 C 0.53939 0.64622 0.60176 0.0
C1594 C 0.531 0.64542 0.59436 0.0
C1595 C 0.52529 0.63498 0.59055 0.0
C1596 C 0.52823 0.65542 0.59046 0.0
C1597 C 0.54608 0.65718 0.60581 0.0
C1598 C 0.52594 0.66348 0.59619 0.0
C1599 C 0.52459 0.67355 0.59293 0.0
C1600 C 0.52542 0.67574 0.58383 0.0
C1601 C 0.52715 0.66736 0.57791 0.0
C1602 C 0.52853 0.65729 0.5812 0.0
H1603 H 0.55331 0.65613 0.60978 0.0
H1604 H 0.54708 0.66253 0.60016 0.0
H1605 H 0.54285 0.66151 0.61073 0.0
H1606 H 0.52556 0.66212 0.60332 0.0
H1607 H 0.52335 0.67982 0.59771 0.0
H1608 H 0.97069 0.44096 0.1232 0.0
H1609 H 0.96073 0.45089 0.11245 0.0
H1610 H 0.9678 0.47868 0.13376 0.0
H1611 H 0.97813 0.469 0.14442 0.0
H1612 H 0.94497 0.45586 0.11695 0.0
H1613 H 0.96769 0.49425 0.11028 0.0
H1614 H 0.97274 0.48281 0.11478 0.0
H1615 H 0.96968 0.49257 0.12258 0.0
C1616 C 0.97046 0.44936 0.12549 0.0
C1617 C 0.97515 0.45414 0.13472 0.0
C1618 C 0.96471 0.45501 0.11933 0.0
C1619 C 0.96355 0.46555 0.12227 0.0
C1620 C 0.96872 0.47064 0.13126 0.0
H1621 H 0.92013 0.50355 0.11246 0.0
H1622 H 0.93538 0.49715 0.11653 0.0
C1623 C 0.97452 0.46502 0.1374 0.0
C1624 C 0.95572 0.47034 0.11666 0.0
H1625 H 0.95055 0.49397 0.1078 0.0
C1626 C 0.94621 0.46411 0.11477 0.0
C1627 C 0.95735 0.48114 0.11391 0.0
C1628 C 0.96744 0.48804 0.11541 0.0
C1629 C 0.93825 0.46854 0.11061 0.0
C1630 C 0.93984 0.47945 0.10808 0.0
C1631 C 0.94937 0.4856 0.10971 0.0
C1632 C 0.9316 0.48479 0.10451 0.0
C1633 C 0.92817 0.46169 0.10945 0.0
C1634 C 0.92464 0.48034 0.09615 0.0
C1635 C 0.91584 0.48383 0.09389 0.0
C1636 C 0.91391 0.49194 0.09991 0.0
C1637 C 0.9213 0.49711 0.1078 0.0
C1638 C 0.93005 0.49354 0.11009 0.0
H1639 H 0.92819 0.45443 0.11353 0.0
H1640 H 0.92337 0.46674 0.11174 0.0
H1641 H 0.92502 0.45859 0.10192 0.0
H1642 H 0.92577 0.47369 0.09167 0.0
H1643 H 0.91033 0.47964 0.08777 0.0
H1644 H 0.5942 0.73374 0.54944 0.0
H1645 H 0.61161 0.73884 0.55044 0.0
H1646 H 0.61585 0.75918 0.57653 0.0
H1647 H 0.59851 0.75397 0.5757 0.0
H1648 H 0.62526 0.76084 0.55309 0.0
H1649 H 0.63241 0.73489 0.58258 0.0
H1650 H 0.62052 0.73353 0.57484 0.0
H1651 H 0.62527 0.74506 0.58376 0.0
C1652 C 0.59883 0.73937 0.55535 0.0
C1653 C 0.59499 0.74337 0.56253 0.0
C1654 C 0.60875 0.74233 0.55588 0.0
C1655 C 0.61499 0.74929 0.5636 0.0
C1656 C 0.61113 0.75374 0.57054 0.0
H1657 H 0.67781 0.75637 0.58126 0.0
H1658 H 0.66153 0.75979 0.58038 0.0
C1659 C 0.60122 0.75081 0.57002 0.0
C1660 C 0.62559 0.75111 0.56477 0.0
H1661 H 0.64579 0.74357 0.5774 0.0
C1662 C 0.62979 0.75716 0.55845 0.0
C1663 C 0.63145 0.74633 0.57179 0.0
C1664 C 0.62723 0.73952 0.57861 0.0
C1665 C 0.63974 0.75845 0.55891 0.0
C1666 C 0.64554 0.75331 0.56572 0.0
C1667 C 0.64136 0.74754 0.57221 0.0
C1668 C 0.65574 0.75295 0.56582 0.0
C1669 C 0.64393 0.76528 0.5521 0.0
C1670 C 0.65793 0.74813 0.5579 0.0
C1671 C 0.6672 0.74619 0.55838 0.0
C1672 C 0.67445 0.74891 0.56684 0.0
C1673 C 0.67236 0.75412 0.57467 0.0
C1674 C 0.66308 0.75612 0.57416 0.0
H1675 H 0.63963 0.77159 0.54977 0.0
H1676 H 0.65157 0.76951 0.55526 0.0
H1677 H 0.64371 0.7598 0.54576 0.0
H1678 H 0.65233 0.74532 0.55147 0.0
H1679 H 0.66852 0.74198 0.55228 0.0
H1680 H 0.64207 0.60083 0.63403 0.0
H1681 H 0.65751 0.61248 0.63354 0.0
H1682 H 0.65022 0.60565 0.60333 0.0
H1683 H 0.63489 0.59364 0.60377 0.0
H1684 H 0.67063 0.60751 0.61248 0.0
H1685 H 0.65518 0.6426 0.62354 0.0
H1686 H 0.65578 0.63184 0.63118 0.0
H1687 H 0.64786 0.62894 0.61957 0.0
C1688 C 0.64386 0.6015 0.6273 0.0
C1689 C 0.63717 0.59643 0.61892 0.0
C1690 C 0.65267 0.60823 0.62704 0.0
C1691 C 0.6549 0.61008 0.61839 0.0
C1692 C 0.64859 0.60437 0.61007 0.0
H1693 H 0.68878 0.65488 0.59195 0.0
H1694 H 0.68053 0.63831 0.5972 0.0
C1695 C 0.6398 0.5976 0.61033 0.0
C1696 C 0.66313 0.61891 0.61785 0.0
H1697 H 0.67032 0.64696 0.62011 0.0
C1698 C 0.67065 0.61614 0.61425 0.0
C1699 C 0.66312 0.63015 0.62017 0.0
C1700 C 0.65504 0.63363 0.62377 0.0
C1701 C 0.6781 0.62437 0.61275 0.0
C1702 C 0.67787 0.63562 0.61472 0.0
C1703 C 0.67053 0.63834 0.61865 0.0
C1704 C 0.68447 0.64477 0.61191 0.0
C1705 C 0.68609 0.62093 0.609 0.0
C1706 C 0.6895 0.65393 0.61843 0.0
C1707 C 0.69415 0.66349 0.61541 0.0
C1708 C 0.69386 0.66405 0.60582 0.0
C1709 C 0.68928 0.65465 0.5994 0.0
C1710 C 0.68458 0.64513 0.60241 0.0
H1711 H 0.68721 0.61271 0.61106 0.0
H1712 H 0.68403 0.62028 0.6012 0.0
H1713 H 0.69304 0.62704 0.61156 0.0
H1714 H 0.68947 0.65386 0.62579 0.0
H1715 H 0.69769 0.67058 0.62053 0.0
H1716 H 0.71016 0.45564 0.86039 0.0
H1717 H 0.70103 0.46894 0.85337 0.0
H1718 H 0.72079 0.4953 0.87274 0.0
H1719 H 0.73021 0.48204 0.8797 0.0
H1720 H 0.70068 0.49428 0.8718 0.0
H1721 H 0.708 0.49313 0.8364 0.0
H1722 H 0.70441 0.47964 0.83989 0.0
H1723 H 0.7156 0.48853 0.84634 0.0
C1724 C 0.71275 0.46429 0.86302 0.0
C1725 C 0.72097 0.46775 0.87059 0.0
C1726 C 0.70749 0.47189 0.859 0.0
C1727 C 0.71031 0.48311 0.86245 0.0
C1728 C 0.71854 0.48666 0.86995 0.0
H1729 H 0.67552 0.52672 0.83203 0.0
H1730 H 0.6898 0.52072 0.84099 0.0
C1731 C 0.72387 0.47906 0.87395 0.0
C1732 C 0.70421 0.49089 0.85859 0.0
H1733 H 0.69378 0.49974 0.83791 0.0
C1734 C 0.6993 0.49567 0.86443 0.0
C1735 C 0.70253 0.4928 0.84902 0.0
C1736 C 0.70798 0.48835 0.84256 0.0
C1737 C 0.69227 0.50171 0.86079 0.0
C1738 C 0.69005 0.50289 0.85105 0.0
C1739 C 0.69543 0.49874 0.84535 0.0
C1740 C 0.68156 0.50734 0.84646 0.0
C1741 C 0.68709 0.50653 0.86733 0.0
C1742 C 0.67222 0.50182 0.84659 0.0
C1743 C 0.66407 0.50513 0.84142 0.0
C1744 C 0.66508 0.51405 0.83598 0.0
C1745 C 0.67447 0.51976 0.83607 0.0
C1746 C 0.68264 0.51639 0.84122 0.0
H1747 H 0.69157 0.50801 0.8747 0.0
H1748 H 0.68522 0.51443 0.86514 0.0
H1749 H 0.68027 0.50061 0.86719 0.0
H1750 H 0.67121 0.49463 0.85038 0.0
H1751 H 0.65698 0.50035 0.84136 0.0
H1752 H 0.84432 0.46517 0.12299 0.0
H1753 H 0.84154 0.45912 0.13781 0.0
H1754 H 0.81769 0.47593 0.13509 0.0
H1755 H 0.82041 0.48197 0.12013 0.0
H1756 H 0.84256 0.4722 0.15384 0.0
H1757 H 0.80589 0.44523 0.14086 0.0
H1758 H 0.81343 0.44999 0.13307 0.0
H1759 H 0.807 0.45914 0.13776 0.0
C1760 C 0.83849 0.4676 0.12554 0.0
C1761 C 0.83261 0.4741 0.12042 0.0
C1762 C 0.83689 0.4641 0.134 0.0
C1763 C 0.82937 0.467 0.13752 0.0
C1764 C 0.82342 0.47343 0.13241 0.0
H1765 H 0.83045 0.45876 0.19664 0.0
H1766 H 0.82877 0.46675 0.18167 0.0
C1767 C 0.82499 0.47689 0.12389 0.0
C1768 C 0.82811 0.46357 0.14674 0.0
H1769 H 0.81268 0.44743 0.15727 0.0
C1770 C 0.836 0.46685 0.15461 0.0
C1771 C 0.81957 0.45653 0.14769 0.0
C1772 C 0.811 0.45242 0.1394 0.0
C1773 C 0.83568 0.46309 0.16336 0.0
C1774 C 0.82714 0.45605 0.16434 0.0
C1775 C 0.81917 0.45292 0.15651 0.0
C1776 C 0.82669 0.45115 0.17323 0.0
C1777 C 0.84466 0.46629 0.17138 0.0
C1778 C 0.82556 0.43968 0.17339 0.0
C1779 C 0.82636 0.43507 0.18191 0.0
C1780 C 0.82834 0.44185 0.19045 0.0
C1781 C 0.8289 0.45329 0.1902 0.0
C1782 C 0.82805 0.45789 0.18166 0.0
H1783 H 0.85121 0.46965 0.16889 0.0
H1784 H 0.84365 0.47276 0.17639 0.0
H1785 H 0.84601 0.45908 0.17524 0.0
H1786 H 0.82443 0.43432 0.16695 0.0
H1787 H 0.82569 0.42621 0.18183 0.0
H1788 H 0.82444 0.53954 0.4193 0.0
H1789 H 0.81599 0.5542 0.42216 0.0
H1790 H 0.80309 0.55223 0.3924 0.0
H1791 H 0.81189 0.53792 0.38943 0.0
H1792 H 0.81148 0.57292 0.39954 0.0
H1793 H 0.7884 0.55501 0.4223 0.0
H1794 H 0.80082 0.55422 0.42685 0.0
H1795 H 0.79411 0.5467 0.41568 0.0
C1796 C 0.81975 0.54216 0.41336 0.0
C1797 C 0.81889 0.53759 0.40413 0.0
C1798 C 0.81481 0.55044 0.41503 0.0
C1799 C 0.80879 0.55422 0.40751 0.0
C1800 C 0.80764 0.54939 0.39832 0.0
H1801 H 0.77782 0.6066 0.41807 0.0
H1802 H 0.78116 0.58886 0.41281 0.0
C1803 C 0.81262 0.54114 0.39664 0.0
C1804 C 0.80459 0.56398 0.40916 0.0
H1805 H 0.7918 0.57493 0.42288 0.0
C1806 C 0.80705 0.57329 0.40453 0.0
C1807 C 0.7987 0.56444 0.41558 0.0
C1808 C 0.79527 0.55451 0.42031 0.0
C1809 C 0.80417 0.58318 0.40648 0.0
C1810 C 0.79887 0.58388 0.41339 0.0
C1811 C 0.79598 0.57442 0.41768 0.0
C1812 C 0.79675 0.5945 0.41661 0.0
C1813 C 0.80693 0.59285 0.40117 0.0
C1814 C 0.80441 0.60345 0.42064 0.0
C1815 C 0.80253 0.61353 0.42364 0.0
C1816 C 0.79295 0.61487 0.42273 0.0
C1817 C 0.78527 0.60582 0.41887 0.0
C1818 C 0.78717 0.5957 0.41584 0.0
H1819 H 0.80819 0.59007 0.39431 0.0
H1820 H 0.80122 0.59782 0.39987 0.0
H1821 H 0.81376 0.59827 0.40539 0.0
H1822 H 0.81186 0.60261 0.42153 0.0
H1823 H 0.80861 0.62024 0.42679 0.0
H1824 H 0.02824 0.27923 0.10467 0.0
H1825 H 0.02311 0.29363 0.11326 0.0
H1826 H 0.02097 0.31224 0.08927 0.0
H1827 H 0.02582 0.29774 0.08053 0.0
H1828 H 0.03289 0.31549 0.11768 0.0
H1829 H 0.99537 0.31266 0.09646 0.0
H1830 H 1.00202 0.30184 0.09559 0.0
H1831 H 1.00423 0.31394 0.0896 0.0
C1832 C 0.02646 0.28626 0.10115 0.0
C1833 C 0.02742 0.28734 0.09191 0.0
C1834 C 0.0236 0.29451 0.10609 0.0
C1835 C 0.02157 0.30393 0.10187 0.0
C1836 C 0.02235 0.30495 0.0926 0.0
H1837 H 0.02355 0.36909 0.12705 0.0
H1838 H 0.02665 0.35241 0.11958 0.0
C1839 C 0.02522 0.29671 0.08765 0.0
C1840 C 0.01925 0.31304 0.10735 0.0
H1841 H 1.00236 0.32888 0.10732 0.0
C1842 C 0.02618 0.31836 0.11547 0.0
C1843 C 1.01045 0.31668 0.1045 0.0
C1844 C 1.00254 0.31093 0.09611 0.0
C1845 C 0.02466 0.32746 0.12066 0.0
C1846 C 0.01606 0.33142 0.11756 0.0
C1847 C 1.00899 0.32589 0.10962 0.0
C1848 C 0.01433 0.34145 0.12234 0.0
C1849 C 0.03227 0.33273 0.12943 0.0
C1850 C 1.00629 0.34083 0.12622 0.0
C1851 C 1.00445 0.35036 0.13042 0.0
C1852 C 1.01058 0.3607 0.13074 0.0
C1853 C 0.01865 0.36127 0.12686 0.0
C1854 C 0.0205 0.35173 0.12268 0.0
H1855 H 0.03701 0.327 0.13224 0.0
H1856 H 0.03692 0.34014 0.12773 0.0
H1857 H 0.02889 0.3354 0.13501 0.0
H1858 H 1.00141 0.33297 0.12596 0.0
H1859 H 0.99808 0.34966 0.13321 0.0
H1860 H 0.06167 0.75227 0.37488 0.0
H1861 H 0.05168 0.74314 0.38468 0.0
H1862 H 0.04725 0.77472 0.39475 0.0
H1863 H 0.05723 0.78391 0.38497 0.0
H1864 H 0.05533 0.7466 0.4041 0.0
H1865 H 0.01974 0.75605 0.38727 0.0
H1866 H 0.0297 0.75758 0.38167 0.0
H1867 H 0.02951 0.76794 0.3907 0.0
C1868 C 0.05853 0.75726 0.37915 0.0
C1869 C 0.06022 0.76881 0.37914 0.0
C1870 C 0.05281 0.75203 0.38472 0.0
C1871 C 0.04863 0.75824 0.39035 0.0
C1872 C 0.05022 0.76975 0.39029 0.0
H1873 H 0.01575 0.7405 0.43196 0.0
H1874 H 0.0251 0.75051 0.42202 0.0
C1875 C 0.05593 0.77499 0.3847 0.0
C1876 C 0.04306 0.7527 0.39666 0.0
H1877 H 0.02084 0.74796 0.40163 0.0
C1878 C 0.04778 0.74686 0.40354 0.0
C1879 C 0.03323 0.75312 0.39593 0.0
C1880 C 0.0277 0.75892 0.38845 0.0
C1881 C 0.04295 0.74147 0.40977 0.0
C1882 C 0.03311 0.74182 0.409 0.0
C1883 C 0.0284 0.74775 0.40219 0.0
C1884 C 0.0275 0.73579 0.41503 0.0
C1885 C 0.04843 0.73555 0.4172 0.0
C1886 C 0.02568 0.72422 0.4143 0.0
C1887 C 0.0203 0.71848 0.4199 0.0
C1888 C 0.01661 0.72421 0.42634 0.0
C1889 C 0.01842 0.73583 0.42702 0.0
C1890 C 0.02378 0.74157 0.42138 0.0
H1891 H 0.0564 0.7383 0.41833 0.0
H1892 H 0.04648 0.73693 0.42399 0.0
H1893 H 0.04649 0.72654 0.41493 0.0
H1894 H 0.02834 0.71962 0.4093 0.0
H1895 H 0.01887 0.70954 0.41904 0.0
H1896 H 0.52886 0.77995 0.60358 0.0
H1897 H 0.52384 0.79446 0.61215 0.0
H1898 H 0.5216 0.81288 0.58803 0.0
H1899 H 0.52633 0.79826 0.57931 0.0
H1900 H 0.5337 0.81637 0.61638 0.0
H1901 H 0.49607 0.81342 0.5954 0.0
H1902 H 0.50268 0.80257 0.59456 0.0
H1903 H 0.50486 0.81458 0.58847 0.0
C1904 C 0.52708 0.78697 0.60002 0.0
C1905 C 0.52797 0.78795 0.59075 0.0
C1906 C 0.52429 0.79529 0.60495 0.0
C1907 C 0.52226 0.80468 0.60069 0.0
C1908 C 0.52298 0.80561 0.59139 0.0
H1909 H 0.52417 0.86994 0.62583 0.0
H1910 H 0.52729 0.85332 0.61826 0.0
C1911 C 0.52578 0.7973 0.58646 0.0
C1912 C 0.51999 0.81385 0.60615 0.0
H1913 H 0.50308 0.82964 0.60621 0.0
C1914 C 0.52698 0.81922 0.61421 0.0
C1915 C 0.51117 0.81746 0.60335 0.0
C1916 C 0.50322 0.81165 0.59502 0.0
C1917 C 0.52549 0.82834 0.61941 0.0
C1918 C 0.51685 0.83226 0.61636 0.0
C1919 C 0.50974 0.82668 0.60847 0.0
C1920 C 0.51512 0.84225 0.62118 0.0
C1921 C 0.53315 0.83367 0.62812 0.0
C1922 C 0.50716 0.84155 0.62519 0.0
C1923 C 0.50531 0.85104 0.62946 0.0
C1924 C 0.51136 0.86142 0.62971 0.0
C1925 C 0.51935 0.86208 0.6257 0.0
C1926 C 0.5212 0.85258 0.62145 0.0
H1927 H 0.53798 0.828 0.63088 0.0
H1928 H 0.53771 0.84113 0.62637 0.0
H1929 H 0.52982 0.83628 0.63375 0.0
H1930 H 0.50234 0.83366 0.62499 0.0
H1931 H 0.49902 0.85028 0.63236 0.0
H1932 H 0.53012 0.22264 0.93461 0.0
H1933 H 0.53995 0.23278 0.92514 0.0
H1934 H 0.5141 0.23917 0.90689 0.0
H1935 H 0.50424 0.22909 0.91633 0.0
H1936 H 0.53897 0.22795 0.90639 0.0
H1937 H 0.53161 0.26974 0.91282 0.0
H1938 H 0.52874 0.25877 0.9199 0.0
H1939 H 0.52088 0.25914 0.90856 0.0
C1940 C 0.52654 0.22624 0.9286 0.0
C1941 C 0.51641 0.22511 0.92624 0.0
C1942 C 0.53216 0.23205 0.92322 0.0
C1943 C 0.52777 0.23686 0.9154 0.0
C1944 C 0.51766 0.23576 0.91303 0.0
H1945 H 0.54953 0.27032 0.8718 0.0
H1946 H 0.53932 0.26088 0.8813 0.0
C1947 C 0.51204 0.22999 0.91843 0.0
C1948 C 0.53373 0.24257 0.90946 0.0
H1949 H 0.53991 0.26721 0.9009 0.0
C1950 C 0.53922 0.23655 0.90523 0.0
C1951 C 0.53399 0.25377 0.90793 0.0
C1952 C 0.52856 0.26078 0.91261 0.0
C1953 C 0.5449 0.24141 0.89942 0.0
C1954 C 0.54517 0.2526 0.8979 0.0
C1955 C 0.53964 0.25861 0.90208 0.0
C1956 C 0.55134 0.25829 0.89216 0.0
C1957 C 0.55047 0.2345 0.89484 0.0
C1958 C 0.56146 0.26005 0.8952 0.0
C1959 C 0.56731 0.26551 0.88985 0.0
C1960 C 0.56315 0.26933 0.88135 0.0
C1961 C 0.55298 0.26758 0.87835 0.0
C1962 C 0.54713 0.26215 0.88374 0.0
H1963 H 0.54776 0.22552 0.89494 0.0
H1964 H 0.55 0.23622 0.88743 0.0
H1965 H 0.55823 0.23661 0.8987 0.0
H1966 H 0.56484 0.25731 0.90178 0.0
H1967 H 0.57511 0.26692 0.89248 0.0
H1968 H 0.10638 0.03921 0.2623 0.0
H1969 H 0.10595 0.04557 0.24679 0.0
H1970 H 0.08357 0.01713 0.23397 0.0
H1971 H 0.08411 0.01052 0.24939 0.0
H1972 H 0.10925 0.03209 0.2311 0.0
H1973 H 0.0735 0.04445 0.22285 0.0
H1974 H 0.08002 0.04349 0.23474 0.0
H1975 H 0.07371 0.03117 0.22711 0.0
C1976 C 0.10136 0.0343 0.25619 0.0
C1977 C 0.0953 0.02433 0.2571 0.0
C1978 C 0.10108 0.03799 0.24735 0.0
C1979 C 0.09467 0.03186 0.23928 0.0
C1980 C 0.08845 0.02206 0.24016 0.0
H1981 H 0.08493 0.03821 0.17938 0.0
H1982 H 0.08393 0.0327 0.19494 0.0
C1983 C 0.08876 0.01832 0.24898 0.0
C1984 C 0.09495 0.03531 0.22988 0.0
H1985 H 0.08176 0.04455 0.21069 0.0
C1986 C 0.10327 0.03487 0.22664 0.0
C1987 C 0.08709 0.03881 0.22408 0.0
C1988 C 0.07808 0.0396 0.22735 0.0
C1989 C 0.1039 0.03772 0.21768 0.0
C1990 C 0.09609 0.04138 0.21191 0.0
C1991 C 0.08774 0.04177 0.21514 0.0
C1992 C 0.0965 0.04493 0.20254 0.0
C1993 C 0.11283 0.03653 0.21439 0.0
C1994 C 0.10378 0.05376 0.20169 0.0
C1995 C 0.10438 0.05689 0.19284 0.0
C1996 C 0.09764 0.05132 0.18467 0.0
C1997 C 0.09019 0.04267 0.18555 0.0
C1998 C 0.08963 0.0395 0.19442 0.0
H1999 H 0.11676 0.03076 0.21841 0.0
H2000 H 0.11094 0.03349 0.20679 0.0
H2001 H 0.11784 0.04471 0.21548 0.0
H2002 H 0.109 0.05825 0.20788 0.0
H2003 H 0.11007 0.06374 0.1924 0.0
H2004 H 0.2888 0.93999 0.45403 0.0
H2005 H 0.29867 0.94493 0.47018 0.0
H2006 H 0.30024 0.97948 0.46674 0.0
H2007 H 0.28999 0.97464 0.4508 0.0
H2008 H 0.31701 0.95723 0.47702 0.0
H2009 H 0.29077 0.97699 0.49051 0.0
H2010 H 0.28752 0.96872 0.47927 0.0
H2011 H 0.29392 0.98287 0.48049 0.0
C2012 C 0.29114 0.94864 0.45674 0.0
C2013 C 0.28853 0.95691 0.45112 0.0
C2014 C 0.29685 0.95145 0.46595 0.0
C2015 C 0.30003 0.96257 0.46972 0.0
C2016 C 0.29768 0.97084 0.46405 0.0
H2017 H 0.3373 0.99666 0.5224 0.0
H2018 H 0.3274 0.99155 0.50622 0.0
C2019 C 0.29193 0.96805 0.45487 0.0
C2020 C 0.30589 0.96551 0.47955 0.0
H2021 H 0.3066 0.97939 0.5006 0.0
C2022 C 0.31471 0.96201 0.48219 0.0
C2023 C 0.30286 0.97174 0.48629 0.0
C2024 C 0.29321 0.97521 0.48404 0.0
C2025 C 0.32066 0.96476 0.49135 0.0
C2026 C 0.31768 0.9711 0.49802 0.0
C2027 C 0.30886 0.97458 0.49541 0.0
C2028 C 0.32359 0.97415 0.50779 0.0
C2029 C 0.33018 0.96103 0.49381 0.0
C2030 C 0.32459 0.96606 0.514 0.0
C2031 C 0.33019 0.96895 0.52323 0.0
C2032 C 0.33492 0.97998 0.52638 0.0
C2033 C 0.33383 0.98808 0.52014 0.0
C2034 C 0.32816 0.98519 0.51093 0.0
H2035 H 0.33222 0.95791 0.48746 0.0
H2036 H 0.33607 0.96792 0.49776 0.0
H2037 H 0.32958 0.95427 0.4984 0.0
H2038 H 0.32103 0.95751 0.51171 0.0
H2039 H 0.33097 0.96252 0.52786 0.0
H2040 H 0.34766 0.97685 0.85135 0.0
H2041 H 0.34323 0.96533 0.83628 0.0
H2042 H 0.36748 0.94977 0.84567 0.0
H2043 H 0.3717 0.96089 0.86089 0.0
H2044 H 0.35431 0.96563 0.82385 0.0
H2045 H 0.34622 0.92328 0.83401 0.0
H2046 H 0.34703 0.9354 0.84185 0.0
H2047 H 0.35785 0.93093 0.84062 0.0
C2048 C 0.3519 0.97077 0.85031 0.0
C2049 C 0.36004 0.9698 0.85734 0.0
C2050 C 0.34939 0.96424 0.84167 0.0
C2051 C 0.35494 0.95658 0.83989 0.0
C2052 C 0.36296 0.95544 0.84695 0.0
H2053 H 0.3659 0.92183 0.79322 0.0
H2054 H 0.36488 0.92971 0.80849 0.0
C2055 C 0.36545 0.96193 0.85561 0.0
C2056 C 0.35291 0.95052 0.83039 0.0
H2057 H 0.34967 0.92483 0.81881 0.0
C2058 C 0.35312 0.9567 0.82271 0.0
C2059 C 0.35136 0.93886 0.82893 0.0
C2060 C 0.3505 0.93172 0.83678 0.0
C2061 C 0.35228 0.95158 0.8137 0.0
C2062 C 0.35111 0.93997 0.81232 0.0
C2063 C 0.3506 0.93374 0.81992 0.0
C2064 C 0.3511 0.93428 0.80317 0.0
C2065 C 0.35309 0.95867 0.8058 0.0
C2066 C 0.34357 0.93401 0.79517 0.0
C2067 C 0.34408 0.92943 0.78641 0.0
C2068 C 0.35215 0.92502 0.78552 0.0
C2069 C 0.35952 0.925 0.79365 0.0
C2070 C 0.35898 0.92955 0.80239 0.0
H2071 H 0.35557 0.96759 0.80838 0.0
H2072 H 0.35823 0.95619 0.80191 0.0
H2073 H 0.34589 0.95748 0.80076 0.0
H2074 H 0.33737 0.93751 0.79568 0.0
H2075 H 0.33821 0.92942 0.78033 0.0
H2076 H 0.24017 0.18561 0.03891 0.0
H2077 H 0.24667 0.18547 0.02497 0.0
H2078 H 0.25045 0.22093 0.02629 0.0
H2079 H 0.24436 0.22121 0.04049 0.0
H2080 H 0.23955 0.19268 1.0078 0.0
H2081 H 0.27697 0.21604 0.0244 0.0
H2082 H 0.26868 0.21035 0.0312 0.0
H2083 H 0.26758 0.22299 0.02607 0.0
C2084 C 0.24256 0.19341 0.03635 0.0
C2085 C 0.24182 0.20343 0.04087 0.0
C2086 C 0.24618 0.1933 0.02833 0.0
C2087 C 0.24914 0.20319 0.02467 0.0
C2088 C 0.24836 0.21321 0.0291 0.0
H2089 H 0.27412 0.21593 0.97673 0.0
H2090 H 0.266 0.21766 0.98948 0.0
C2091 C 0.24478 0.21334 0.03716 0.0
C2092 C 0.25288 0.20296 0.0161 0.0
H2093 H 0.2729 0.21178 1.00787 0.0
C2094 C 0.24684 0.19686 1.00781 0.0
C2095 C 0.26238 0.20845 0.01614 0.0
C2096 C 0.26932 0.21475 0.02494 0.0
C2097 C 0.25006 0.19609 0.99953 0.0
C2098 C 0.25959 0.20147 0.99961 0.0
C2099 C 0.26557 0.20772 1.00785 0.0
C2100 C 0.26371 0.20027 0.99137 0.0
C2101 C 0.24324 0.18959 0.99076 0.0
C2102 C 0.26506 0.18991 0.98821 0.0
C2103 C 0.26976 0.1889 0.98099 0.0
C2104 C 0.27323 0.19826 0.97682 0.0
C2105 C 0.27164 0.20859 0.97986 0.0
C2106 C 0.26696 0.20959 0.98711 0.0
H2107 H 0.23555 0.18848 0.99115 0.0
H2108 H 0.24408 0.19372 0.98442 0.0
H2109 H 0.24493 0.18127 0.98993 0.0
H2110 H 0.26278 0.18266 0.99154 0.0
H2111 H 0.27102 0.18086 0.97896 0.0
H2112 H 0.79901 0.46067 0.948 0.0
H2113 H 0.80951 0.46588 0.9639 0.0
H2114 H 0.78451 0.45887 0.9755 0.0
H2115 H 0.77401 0.4535 0.95966 0.0
H2116 H 0.80954 0.48229 0.97694 0.0
H2117 H 0.80236 0.44195 0.99113 0.0
H2118 H 0.79879 0.44339 0.97874 0.0
H2119 H 0.79151 0.44681 0.98646 0.0
C2120 C 0.79577 0.4602 0.95396 0.0
C2121 C 0.7857 0.45661 0.9526 0.0
C2122 C 0.80177 0.46316 0.96303 0.0
C2123 C 0.79781 0.46259 0.9709 0.0
C2124 C 0.78775 0.45908 0.96956 0.0
H2125 H 0.82056 0.48298 0.03064 0.0
H2126 H 0.81032 0.47754 0.01467 0.0
C2127 C 0.78176 0.45604 0.9605 0.0
C2128 C 0.80416 0.46607 0.98049 0.0
H2129 H 0.81072 0.45749 1.00228 0.0
C2130 C 0.80985 0.47684 0.98246 0.0
C2131 C 0.80456 0.45894 0.98769 0.0
C2132 C 0.79905 0.4471 0.98589 0.0
C2133 C 0.81579 0.48073 0.99147 0.0
C2134 C 0.81607 0.47365 0.99867 0.0
C2135 C 0.81042 0.46289 0.99672 0.0
C2136 C 0.82229 0.47722 1.00826 0.0
C2137 C 0.82164 0.49242 0.99331 0.0
C2138 C 0.83239 0.47876 0.00989 0.0
C2139 C 0.83827 0.48173 0.01901 0.0
C2140 C 0.83413 0.48323 0.02667 0.0
C2141 C 0.82398 0.48176 0.02495 0.0
C2142 C 0.81812 0.47872 0.01583 0.0
H2143 H 0.81933 0.49742 0.9875 0.0
H2144 H 0.82096 0.49653 0.99998 0.0
H2145 H 0.82941 0.49227 0.99403 0.0
H2146 H 0.83572 0.47748 1.00413 0.0
H2147 H 0.84603 0.48257 0.02008 0.0
H2148 H 0.84239 0.43324 0.28212 0.0
H2149 H 0.84323 0.44147 0.29794 0.0
H2150 H 0.86784 0.42718 0.30916 0.0
H2151 H 0.86737 0.4194 0.29339 0.0
H2152 H 0.84245 0.43254 0.31486 0.0
H2153 H 0.87818 0.46002 0.3176 0.0
H2154 H 0.87083 0.45249 0.30663 0.0
H2155 H 0.87808 0.44564 0.3151 0.0
C2156 C 0.84801 0.43189 0.28794 0.0
C2157 C 0.85487 0.42574 0.28644 0.0
C2158 C 0.84843 0.43652 0.29699 0.0
C2159 C 0.85571 0.43511 0.30469 0.0
C2160 C 0.86228 0.42855 0.30329 0.0
H2161 H 0.87418 0.4609 0.36358 0.0
H2162 H 0.87115 0.44984 0.34842 0.0
C2163 C 0.86191 0.42398 0.29426 0.0
C2164 C 0.85669 0.44081 0.31413 0.0
H2165 H 0.87238 0.45954 0.33141 0.0
C2166 C 0.84897 0.43847 0.31848 0.0
C2167 C 0.8652 0.44859 0.3188 0.0
C2168 C 0.87351 0.45193 0.31427 0.0
C2169 C 0.84963 0.44356 0.32748 0.0
C2170 C 0.85818 0.45122 0.33218 0.0
C2171 C 0.86587 0.45358 0.32781 0.0
C2172 C 0.8593 0.45713 0.34156 0.0
C2173 C 0.84125 0.44059 0.33198 0.0
C2174 C 0.8536 0.46484 0.34271 0.0
C2175 C 0.85537 0.47125 0.35133 0.0
C2176 C 0.8629 0.47009 0.35895 0.0
C2177 C 0.86841 0.46212 0.35782 0.0
C2178 C 0.86666 0.45574 0.34919 0.0
H2179 H 0.83617 0.43284 0.32842 0.0
H2180 H 0.84389 0.43961 0.33954 0.0
H2181 H 0.83716 0.44734 0.3315 0.0
H2182 H 0.84801 0.46618 0.33684 0.0
H2183 H 0.85108 0.47743 0.3519 0.0
H2184 H 0.73365 0.68509 0.53372 0.0
H2185 H 0.74064 0.68534 0.52005 0.0
H2186 H 0.75586 0.719 0.52931 0.0
H2187 H 0.74903 0.71877 0.54312 0.0
H2188 H 0.7394 0.70074 0.50568 0.0
H2189 H 0.77708 0.70136 0.52595 0.0
H2190 H 0.76668 0.69728 0.53073 0.0
H2191 H 0.77119 0.71162 0.52995 0.0
C2192 C 0.73856 0.69251 0.5329 0.0
C2193 C 0.74086 0.70188 0.53954 0.0
C2194 C 0.74247 0.69267 0.52505 0.0
C2195 C 0.7488 0.70215 0.52374 0.0
C2196 C 0.75104 0.71157 0.53027 0.0
H2197 H 0.77098 0.71334 0.47372 0.0
H2198 H 0.76308 0.71518 0.48667 0.0
C2199 C 0.7471 0.71144 0.53811 0.0
C2200 C 0.75317 0.70206 0.51559 0.0
H2201 H 0.77454 0.70196 0.50957 0.0
C2202 C 0.74709 0.70107 0.5065 0.0
C2203 C 0.76318 0.70241 0.51674 0.0
C2204 C 0.76994 0.70315 0.52635 0.0
C2205 C 0.75079 0.70038 0.4985 0.0
C2206 C 0.7608 0.70071 0.49966 0.0
C2207 C 0.76687 0.70176 0.50874 0.0
C2208 C 0.76507 0.69946 0.49155 0.0
C2209 C 0.74396 0.69899 0.48886 0.0
C2210 C 0.7688 0.69003 0.49006 0.0
C2211 C 0.7733 0.68897 0.48272 0.0
C2212 C 0.77423 0.69736 0.47676 0.0
C2213 C 0.7704 0.70677 0.47822 0.0
C2214 C 0.76584 0.7078 0.48555 0.0
H2215 H 0.73624 0.69711 0.48917 0.0
H2216 H 0.74529 0.70673 0.48552 0.0
H2217 H 0.74528 0.69224 0.48431 0.0
H2218 H 0.76831 0.68355 0.49466 0.0
H2219 H 0.77632 0.68172 0.48188 0.0
H2220 H 0.58136 0.54434 0.68109 0.0
H2221 H 0.58055 0.53961 0.69686 0.0
H2222 H 0.61176 0.54813 0.70601 0.0
H2223 H 0.61263 0.55334 0.69043 0.0
H2224 H 0.58815 0.52396 0.70673 0.0
H2225 H 0.60391 0.56551 0.72619 0.0
H2226 H 0.59985 0.56335 0.71352 0.0
H2227 H 0.61153 0.56096 0.71936 0.0
C2228 C 0.58805 0.54536 0.68649 0.0
C2229 C 0.59706 0.54927 0.6845 0.0
C2230 C 0.58757 0.54258 0.69548 0.0
C2231 C 0.59608 0.54371 0.70265 0.0
C2232 C 0.60509 0.54743 0.70065 0.0
H2233 H 0.61189 0.52557 0.75878 0.0
H2234 H 0.61121 0.53224 0.74337 0.0
C2235 C 0.60557 0.55025 0.69168 0.0
C2236 C 0.59559 0.54064 0.71215 0.0
H2237 H 0.60267 0.55036 0.73547 0.0
C2238 C 0.59123 0.52976 0.71301 0.0
C2239 C 0.5996 0.54824 0.72032 0.0
C2240 C 0.6039 0.56019 0.71982 0.0
C2241 C 0.59105 0.52617 0.72185 0.0
C2242 C 0.59526 0.5337 0.73003 0.0
C2243 C 0.59948 0.54462 0.72918 0.0
C2244 C 0.59561 0.53027 0.73954 0.0
C2245 C 0.58663 0.51427 0.72243 0.0
C2246 C 0.58707 0.52719 0.74255 0.0
C2247 C 0.58743 0.52347 0.7514 0.0
C2248 C 0.59635 0.52276 0.75739 0.0
C2249 C 0.60492 0.52613 0.75441 0.0
C2250 C 0.60454 0.52989 0.74558 0.0
H2251 H 0.58533 0.50906 0.71565 0.0
H2252 H 0.5914 0.51076 0.728 0.0
H2253 H 0.57957 0.51383 0.72428 0.0
H2254 H 0.58012 0.52761 0.73803 0.0
H2255 H 0.58072 0.52112 0.75353 0.0
loop_
_geom_bond_atom_site_label_1
_geom_bond_atom_site_label_2
_geom_bond_distance
_geom_bond_site_symmetry_2
_ccdc_geom_bond_type
C0 C1 1.264 . S
C0 C5 1.479 . S
C0 C10 1.465 . S
C1 C0 1.264 . S
C1 C3 1.339 . S
C1 H28 0.931 . S
C2 C3 1.395 . S
C2 C4 1.320 . S
C3 C1 1.339 . S
C3 C2 1.395 . S
C3 H29 0.929 . S
C4 C2 1.320 . S
C4 C5 1.405 . S
C4 H30 0.930 . S
C5 C0 1.479 . S
C5 C4 1.405 . S
C5 H31 0.931 . S
U6 O7 2.454 . S
U6 O8 2.458 . S
U6 C9 2.984 . S
U6 C10 2.847 . S
U6 C23 2.882 . S
U6 O24 2.441 . S
U6 O25 2.420 . S
U6 O26 2.455 . S
U6 O27 2.449 . S
O7 U6 2.454 . S
O7 C9 1.353 . S
O8 U6 2.458 . S
O8 C9 1.286 . S
C9 U6 2.984 . S
C9 O7 1.353 . S
C9 O8 1.286 . S
C9 C11 1.363 . S
C10 C0 1.465 . S
C10 U6 2.847 . S
C10 O24 1.249 . S
C10 O25 1.202 . S
C11 C9 1.363 . S
C11 C13 1.408 . S
C11 C16 1.342 . S
C12 C13 1.310 . S
C12 C15 1.461 . S
C12 H32 0.932 1_455 S
C13 C11 1.408 . S
C13 C12 1.310 . S
C13 H33 0.930 . S
C14 C15 1.474 . S
C14 C16 1.285 . S
C14 H34 0.929 . S
C15 C12 1.461 . S
C15 C14 1.474 . S
C16 C11 1.342 . S
C16 C14 1.285 . S
C16 H35 0.930 . S
C17 C20 1.424 . S
C17 C22 1.245 . S
C17 C23 1.428 . S
C18 C21 1.260 . S
C18 C22 1.477 . S
C18 H36 0.932 . S
C19 C20 1.384 . S
C19 C21 1.479 . S
C19 H37 0.929 . S
C20 C17 1.424 . S
C20 C19 1.384 . S
C20 H38 0.928 . S
C21 C18 1.260 . S
C21 C19 1.479 . S
C22 C17 1.245 . S
C22 C18 1.477 . S
C22 H39 0.932 . S
C23 U6 2.882 . S
C23 C17 1.428 . S
C23 O26 1.301 . S
C23 O27 1.282 . S
O24 U6 2.441 . S
O24 C10 1.249 . S
O25 U6 2.420 . S
O25 C10 1.202 . S
O26 U6 2.455 . S
O26 C23 1.301 . S
O27 U6 2.449 . S
O27 C23 1.282 . S
H28 C1 0.931 . S
H29 C3 0.929 . S
H30 C4 0.930 . S
H31 C5 0.931 . S
H32 C12 0.932 1_655 S
H33 C13 0.930 . S
H34 C14 0.929 . S
H35 C16 0.930 . S
H36 C18 0.932 . S
H37 C19 0.929 . S
H38 C20 0.928 . S
H39 C22 0.932 . S
C40 C41 1.264 . S
C40 C45 1.479 . S
C40 C50 1.465 . S
C41 C40 1.264 . S
C41 C43 1.339 . S
C41 H68 0.931 . S
C42 C43 1.395 . S
C42 C44 1.320 . S
C43 C41 1.339 . S
C43 C42 1.395 . S
C43 H69 0.929 . S
C44 C42 1.320 . S
C44 C45 1.405 . S
C44 H70 0.930 . S
C45 C40 1.479 . S
C45 C44 1.405 . S
C45 H71 0.931 . S
U46 O47 2.454 . S
U46 O48 2.458 . S
U46 C49 2.984 . S
U46 C50 2.847 . S
U46 C63 2.882 . S
U46 O64 2.441 . S
U46 O65 2.420 . S
U46 O66 2.455 . S
U46 O67 2.449 . S
O47 U46 2.454 . S
O47 C49 1.353 . S
O48 U46 2.458 . S
O48 C49 1.286 . S
C49 U46 2.984 . S
C49 O47 1.353 . S
C49 O48 1.286 . S
C49 C51 1.363 . S
C50 C40 1.465 . S
C50 U46 2.847 . S
C50 O64 1.249 . S
C50 O65 1.202 . S
C51 C49 1.363 . S
C51 C53 1.408 . S
C51 C56 1.342 . S
C52 C53 1.310 . S
C52 C55 1.461 . S
C52 H72 0.932 . S
C53 C51 1.408 . S
C53 C52 1.310 . S
C53 H73 0.930 . S
C54 C55 1.474 . S
C54 C56 1.285 . S
C54 H74 0.929 . S
C55 C52 1.461 . S
C55 C54 1.474 . S
C56 C51 1.342 . S
C56 C54 1.285 . S
C56 H75 0.930 . S
C57 C60 1.424 . S
C57 C62 1.245 . S
C57 C63 1.428 . S
C58 C61 1.260 . S
C58 C62 1.477 . S
C58 H76 0.932 . S
C59 C60 1.384 . S
C59 C61 1.479 . S
C59 H77 0.929 . S
C60 C57 1.424 . S
C60 C59 1.384 . S
C60 H78 0.928 . S
C61 C58 1.260 . S
C61 C59 1.479 . S
C62 C57 1.245 . S
C62 C58 1.477 . S
C62 H79 0.932 . S
C63 U46 2.882 . S
C63 C57 1.428 . S
C63 O66 1.301 . S
C63 O67 1.282 . S
O64 U46 2.441 . S
O64 C50 1.249 . S
O65 U46 2.420 . S
O65 C50 1.202 . S
O66 U46 2.455 . S
O66 C63 1.301 . S
O67 U46 2.449 . S
O67 C63 1.282 . S
H68 C41 0.931 . S
H69 C43 0.929 . S
H70 C44 0.930 . S
H71 C45 0.931 . S
H72 C52 0.932 . S
H73 C53 0.930 . S
H74 C54 0.929 . S
H75 C56 0.930 . S
H76 C58 0.932 . S
H77 C59 0.929 . S
H78 C60 0.928 . S
H79 C62 0.932 . S
C80 C81 1.264 . S
C80 C85 1.479 . S
C80 C90 1.465 . S
C81 C80 1.264 . S
C81 C83 1.339 . S
C81 H108 0.931 . S
C82 C83 1.395 . S
C82 C84 1.320 . S
C83 C81 1.339 . S
C83 C82 1.395 . S
C83 H109 0.929 . S
C84 C82 1.320 . S
C84 C85 1.405 . S
C84 H110 0.930 . S
C85 C80 1.479 . S
C85 C84 1.405 . S
C85 H111 0.931 . S
U86 O87 2.454 . S
U86 O88 2.458 . S
U86 C89 2.984 . S
U86 C90 2.847 . S
U86 C103 2.882 . S
U86 O104 2.441 . S
U86 O105 2.420 . S
U86 O106 2.455 . S
U86 O107 2.449 . S
O87 U86 2.454 . S
O87 C89 1.353 . S
O88 U86 2.458 . S
O88 C89 1.286 . S
C89 U86 2.984 . S
C89 O87 1.353 . S
C89 O88 1.286 . S
C89 C91 1.363 . S
C90 C80 1.465 . S
C90 U86 2.847 . S
C90 O104 1.249 . S
C90 O105 1.202 . S
C91 C89 1.363 . S
C91 C93 1.408 . S
C91 C96 1.342 . S
C92 C93 1.310 . S
C92 C95 1.461 . S
C92 H112 0.932 . S
C93 C91 1.408 . S
C93 C92 1.310 . S
C93 H113 0.930 . S
C94 C95 1.474 . S
C94 C96 1.285 . S
C94 H114 0.929 . S
C95 C92 1.461 . S
C95 C94 1.474 . S
C96 C91 1.342 . S
C96 C94 1.285 . S
C96 H115 0.930 . S
C97 C100 1.424 . S
C97 C102 1.245 . S
C97 C103 1.428 . S
C98 C101 1.260 . S
C98 C102 1.477 . S
C98 H116 0.932 . S
C99 C100 1.384 . S
C99 C101 1.479 . S
C99 H117 0.929 . S
C100 C97 1.424 . S
C100 C99 1.384 . S
C100 H118 0.928 . S
C101 C98 1.260 . S
C101 C99 1.479 . S
C102 C97 1.245 . S
C102 C98 1.477 . S
C102 H119 0.932 . S
C103 U86 2.882 . S
C103 C97 1.428 . S
C103 O106 1.301 . S
C103 O107 1.282 . S
O104 U86 2.441 . S
O104 C90 1.249 . S
O105 U86 2.420 . S
O105 C90 1.202 . S
O106 U86 2.455 . S
O106 C103 1.301 . S
O107 U86 2.449 . S
O107 C103 1.282 . S
H108 C81 0.931 . S
H109 C83 0.929 . S
H110 C84 0.930 . S
H111 C85 0.931 . S
H112 C92 0.932 . S
H113 C93 0.930 . S
H114 C94 0.929 . S
H115 C96 0.930 . S
H116 C98 0.932 . S
H117 C99 0.929 . S
H118 C100 0.928 . S
H119 C102 0.932 . S
C120 C121 1.264 . S
C120 C125 1.479 . S
C120 C130 1.465 . S
C121 C120 1.264 . S
C121 C123 1.339 . S
C121 H148 0.931 . S
C122 C123 1.395 . S
C122 C124 1.320 . S
C123 C121 1.339 . S
C123 C122 1.395 . S
C123 H149 0.929 . S
C124 C122 1.320 . S
C124 C125 1.405 . S
C124 H150 0.930 . S
C125 C120 1.479 . S
C125 C124 1.405 . S
C125 H151 0.931 . S
U126 O127 2.454 . S
U126 O128 2.458 . S
U126 C129 2.984 . S
U126 C130 2.847 . S
U126 C143 2.882 . S
U126 O144 2.441 . S
U126 O145 2.420 . S
U126 O146 2.455 . S
U126 O147 2.449 . S
O127 U126 2.454 . S
O127 C129 1.353 . S
O128 U126 2.458 . S
O128 C129 1.286 . S
C129 U126 2.984 . S
C129 O127 1.353 . S
C129 O128 1.286 . S
C129 C131 1.363 . S
C130 C120 1.465 . S
C130 U126 2.847 . S
C130 O144 1.249 . S
C130 O145 1.202 . S
C131 C129 1.363 . S
C131 C133 1.408 . S
C131 C136 1.342 . S
C132 C133 1.310 . S
C132 C135 1.461 . S
C132 H152 0.932 . S
C133 C131 1.408 . S
C133 C132 1.310 . S
C133 H153 0.930 . S
C134 C135 1.474 . S
C134 C136 1.285 . S
C134 H154 0.929 . S
C135 C132 1.461 . S
C135 C134 1.474 . S
C136 C131 1.342 . S
C136 C134 1.285 . S
C136 H155 0.930 . S
C137 C140 1.424 . S
C137 C142 1.245 . S
C137 C143 1.428 . S
C138 C141 1.260 . S
C138 C142 1.477 . S
C138 H156 0.932 . S
C139 C140 1.384 . S
C139 C141 1.479 . S
C139 H157 0.929 . S
C140 C137 1.424 . S
C140 C139 1.384 . S
C140 H158 0.928 . S
C141 C138 1.260 . S
C141 C139 1.479 . S
C142 C137 1.245 . S
C142 C138 1.477 . S
C142 H159 0.932 . S
C143 U126 2.882 . S
C143 C137 1.428 . S
C143 O146 1.301 . S
C143 O147 1.282 . S
O144 U126 2.441 . S
O144 C130 1.249 . S
O145 U126 2.420 . S
O145 C130 1.202 . S
O146 U126 2.455 . S
O146 C143 1.301 . S
O147 U126 2.449 . S
O147 C143 1.282 . S
H148 C121 0.931 . S
H149 C123 0.929 . S
H150 C124 0.930 . S
H151 C125 0.931 . S
H152 C132 0.932 . S
H153 C133 0.930 . S
H154 C134 0.929 . S
H155 C136 0.930 . S
H156 C138 0.932 . S
H157 C139 0.929 . S
H158 C140 0.928 . S
H159 C142 0.932 . S
C160 C161 1.264 . S
C160 C165 1.479 . S
C160 C170 1.465 . S
C161 C160 1.264 . S
C161 C163 1.339 . S
C161 H188 0.931 . S
C162 C163 1.395 . S
C162 C164 1.320 . S
C163 C161 1.339 . S
C163 C162 1.395 . S
C163 H189 0.929 . S
C164 C162 1.320 . S
C164 C165 1.405 . S
C164 H190 0.930 . S
C165 C160 1.479 . S
C165 C164 1.405 . S
C165 H191 0.931 . S
U166 O167 2.454 . S
U166 O168 2.458 . S
U166 C169 2.984 . S
U166 C170 2.847 . S
U166 C183 2.882 . S
U166 O184 2.441 . S
U166 O185 2.420 . S
U166 O186 2.455 . S
U166 O187 2.449 . S
O167 U166 2.454 . S
O167 C169 1.353 . S
O168 U166 2.458 . S
O168 C169 1.286 . S
C169 U166 2.984 . S
C169 O167 1.353 . S
C169 O168 1.286 . S
C169 C171 1.363 . S
C170 C160 1.465 . S
C170 U166 2.847 . S
C170 O184 1.249 . S
C170 O185 1.202 . S
C171 C169 1.363 . S
C171 C173 1.408 . S
C171 C176 1.342 . S
C172 C173 1.310 . S
C172 C175 1.461 . S
C172 H192 0.932 . S
C173 C171 1.408 . S
C173 C172 1.310 . S
C173 H193 0.930 . S
C174 C175 1.474 . S
C174 C176 1.285 . S
C174 H194 0.929 . S
C175 C172 1.461 . S
C175 C174 1.474 . S
C176 C171 1.342 . S
C176 C174 1.285 . S
C176 H195 0.930 . S
C177 C180 1.424 . S
C177 C182 1.245 . S
C177 C183 1.428 . S
C178 C181 1.260 . S
C178 C182 1.477 . S
C178 H196 0.932 . S
C179 C180 1.384 . S
C179 C181 1.479 . S
C179 H197 0.929 . S
C180 C177 1.424 . S
C180 C179 1.384 . S
C180 H198 0.928 . S
C181 C178 1.260 . S
C181 C179 1.479 . S
C182 C177 1.245 . S
C182 C178 1.477 . S
C182 H199 0.932 . S
C183 U166 2.882 . S
C183 C177 1.428 . S
C183 O186 1.301 . S
C183 O187 1.282 . S
O184 U166 2.441 . S
O184 C170 1.249 . S
O185 U166 2.420 . S
O185 C170 1.202 . S
O186 U166 2.455 . S
O186 C183 1.301 . S
O187 U166 2.449 . S
O187 C183 1.282 . S
H188 C161 0.931 . S
H189 C163 0.929 . S
H190 C164 0.930 . S
H191 C165 0.931 . S
H192 C172 0.932 . S
H193 C173 0.930 . S
H194 C174 0.929 . S
H195 C176 0.930 . S
H196 C178 0.932 . S
H197 C179 0.929 . S
H198 C180 0.928 . S
H199 C182 0.932 . S
C200 C201 1.264 . S
C200 C205 1.479 . S
C200 C210 1.465 . S
C201 C200 1.264 . S
C201 C203 1.339 . S
C201 H228 0.931 . S
C202 C203 1.395 . S
C202 C204 1.320 . S
C203 C201 1.339 . S
C203 C202 1.395 . S
C203 H229 0.929 . S
C204 C202 1.320 . S
C204 C205 1.405 . S
C204 H230 0.930 . S
C205 C200 1.479 . S
C205 C204 1.405 . S
C205 H231 0.931 . S
U206 O207 2.454 . S
U206 O208 2.458 . S
U206 C209 2.984 . S
U206 C210 2.847 . S
U206 C223 2.882 . S
U206 O224 2.441 . S
U206 O225 2.420 . S
U206 O226 2.455 . S
U206 O227 2.449 . S
O207 U206 2.454 . S
O207 C209 1.353 . S
O208 U206 2.458 . S
O208 C209 1.286 . S
C209 U206 2.984 . S
C209 O207 1.353 . S
C209 O208 1.286 . S
C209 C211 1.363 . S
C210 C200 1.465 . S
C210 U206 2.847 . S
C210 O224 1.249 . S
C210 O225 1.202 . S
C211 C209 1.363 . S
C211 C213 1.408 . S
C211 C216 1.342 . S
C212 C213 1.310 . S
C212 C215 1.461 . S
C212 H232 0.932 . S
C213 C211 1.408 . S
C213 C212 1.310 . S
C213 H233 0.930 . S
C214 C215 1.474 . S
C214 C216 1.285 . S
C214 H234 0.929 . S
C215 C212 1.461 . S
C215 C214 1.474 . S
C216 C211 1.342 . S
C216 C214 1.285 . S
C216 H235 0.930 . S
C217 C220 1.424 . S
C217 C222 1.245 . S
C217 C223 1.428 . S
C218 C221 1.260 . S
C218 C222 1.477 . S
C218 H236 0.932 . S
C219 C220 1.384 . S
C219 C221 1.479 . S
C219 H237 0.929 . S
C220 C217 1.424 . S
C220 C219 1.384 . S
C220 H238 0.928 . S
C221 C218 1.260 . S
C221 C219 1.479 . S
C222 C217 1.245 . S
C222 C218 1.477 . S
C222 H239 0.932 . S
C223 U206 2.882 . S
C223 C217 1.428 . S
C223 O226 1.301 . S
C223 O227 1.282 . S
O224 U206 2.441 . S
O224 C210 1.249 . S
O225 U206 2.420 . S
O225 C210 1.202 . S
O226 U206 2.455 . S
O226 C223 1.301 . S
O227 U206 2.449 . S
O227 C223 1.282 . S
H228 C201 0.931 . S
H229 C203 0.929 . S
H230 C204 0.930 . S
H231 C205 0.931 . S
H232 C212 0.932 . S
H233 C213 0.930 . S
H234 C214 0.929 . S
H235 C216 0.930 . S
H236 C218 0.932 . S
H237 C219 0.929 . S
H238 C220 0.928 . S
H239 C222 0.932 . S
C240 C241 1.264 . S
C240 C245 1.479 . S
C240 C250 1.465 . S
C241 C240 1.264 . S
C241 C243 1.339 . S
C241 H268 0.931 . S
C242 C243 1.395 . S
C242 C244 1.320 . S
C243 C241 1.339 . S
C243 C242 1.395 . S
C243 H269 0.929 . S
C244 C242 1.320 . S
C244 C245 1.405 . S
C244 H270 0.930 . S
C245 C240 1.479 . S
C245 C244 1.405 . S
C245 H271 0.931 . S
U246 O247 2.454 . S
U246 O248 2.458 . S
U246 C249 2.984 . S
U246 C250 2.847 . S
U246 C263 2.882 . S
U246 O264 2.441 . S
U246 O265 2.420 . S
U246 O266 2.455 . S
U246 O267 2.449 . S
O247 U246 2.454 . S
O247 C249 1.353 . S
O248 U246 2.458 . S
O248 C249 1.286 . S
C249 U246 2.984 . S
C249 O247 1.353 . S
C249 O248 1.286 . S
C249 C251 1.363 . S
C250 C240 1.465 . S
C250 U246 2.847 . S
C250 O264 1.249 . S
C250 O265 1.202 . S
C251 C249 1.363 . S
C251 C253 1.408 . S
C251 C256 1.342 . S
C252 C253 1.310 . S
C252 C255 1.461 . S
C252 H272 0.932 . S
C253 C251 1.408 . S
C253 C252 1.310 . S
C253 H273 0.930 . S
C254 C255 1.474 . S
C254 C256 1.285 . S
C254 H274 0.929 . S
C255 C252 1.461 . S
C255 C254 1.474 . S
C256 C251 1.342 . S
C256 C254 1.285 . S
C256 H275 0.930 . S
C257 C260 1.424 . S
C257 C262 1.245 . S
C257 C263 1.428 . S
C258 C261 1.260 . S
C258 C262 1.477 . S
C258 H276 0.932 . S
C259 C260 1.384 . S
C259 C261 1.479 . S
C259 H277 0.929 . S
C260 C257 1.424 . S
C260 C259 1.384 . S
C260 H278 0.928 . S
C261 C258 1.260 . S
C261 C259 1.479 . S
C262 C257 1.245 . S
C262 C258 1.477 . S
C262 H279 0.932 . S
C263 U246 2.882 . S
C263 C257 1.428 . S
C263 O266 1.301 . S
C263 O267 1.282 . S
O264 U246 2.441 . S
O264 C250 1.249 . S
O265 U246 2.420 . S
O265 C250 1.202 . S
O266 U246 2.455 . S
O266 C263 1.301 . S
O267 U246 2.449 . S
O267 C263 1.282 . S
H268 C241 0.931 . S
H269 C243 0.929 . S
H270 C244 0.930 . S
H271 C245 0.931 . S
H272 C252 0.932 . S
H273 C253 0.930 . S
H274 C254 0.929 . S
H275 C256 0.930 . S
H276 C258 0.932 . S
H277 C259 0.929 . S
H278 C260 0.928 . S
H279 C262 0.932 . S
C280 C281 1.264 . S
C280 C285 1.479 . S
C280 C290 1.465 . S
C281 C280 1.264 . S
C281 C283 1.339 . S
C281 H308 0.931 . S
C282 C283 1.395 . S
C282 C284 1.320 . S
C283 C281 1.339 . S
C283 C282 1.395 . S
C283 H309 0.929 . S
C284 C282 1.320 . S
C284 C285 1.405 . S
C284 H310 0.930 . S
C285 C280 1.479 . S
C285 C284 1.405 . S
C285 H311 0.931 . S
U286 O287 2.454 . S
U286 O288 2.458 . S
U286 C289 2.984 . S
U286 C290 2.847 . S
U286 C303 2.882 . S
U286 O304 2.441 . S
U286 O305 2.420 . S
U286 O306 2.455 . S
U286 O307 2.449 . S
O287 U286 2.454 . S
O287 C289 1.353 . S
O288 U286 2.458 . S
O288 C289 1.286 . S
C289 U286 2.984 . S
C289 O287 1.353 . S
C289 O288 1.286 . S
C289 C291 1.363 . S
C290 C280 1.465 . S
C290 U286 2.847 . S
C290 O304 1.249 . S
C290 O305 1.202 . S
C291 C289 1.363 . S
C291 C293 1.408 . S
C291 C296 1.342 . S
C292 C293 1.310 . S
C292 C295 1.461 . S
C292 H312 0.932 . S
C293 C291 1.408 . S
C293 C292 1.310 . S
C293 H313 0.930 . S
C294 C295 1.474 . S
C294 C296 1.285 . S
C294 H314 0.929 . S
C295 C292 1.461 . S
C295 C294 1.474 . S
C296 C291 1.342 . S
C296 C294 1.285 . S
C296 H315 0.930 . S
C297 C300 1.424 . S
C297 C302 1.245 . S
C297 C303 1.428 . S
C298 C301 1.260 . S
C298 C302 1.477 . S
C298 H316 0.932 . S
C299 C300 1.384 . S
C299 C301 1.479 . S
C299 H317 0.929 . S
C300 C297 1.424 . S
C300 C299 1.384 . S
C300 H318 0.928 . S
C301 C298 1.260 . S
C301 C299 1.479 . S
C302 C297 1.245 . S
C302 C298 1.477 . S
C302 H319 0.932 . S
C303 U286 2.882 . S
C303 C297 1.428 . S
C303 O306 1.301 . S
C303 O307 1.282 . S
O304 U286 2.441 . S
O304 C290 1.249 . S
O305 U286 2.420 . S
O305 C290 1.202 . S
O306 U286 2.455 . S
O306 C303 1.301 . S
O307 U286 2.449 . S
O307 C303 1.282 . S
H308 C281 0.931 . S
H309 C283 0.929 . S
H310 C284 0.930 . S
H311 C285 0.931 . S
H312 C292 0.932 . S
H313 C293 0.930 . S
H314 C294 0.929 . S
H315 C296 0.930 . S
H316 C298 0.932 . S
H317 C299 0.929 . S
H318 C300 0.928 . S
H319 C302 0.932 . S
C320 C321 1.202 1_545 S
C320 C325 1.479 . S
C320 C330 1.465 . S
C321 C320 1.202 1_565 S
C321 C323 1.359 1_565 S
C321 H348 0.988 . S
C322 C323 1.409 . S
C322 C324 1.320 . S
C323 C321 1.359 1_545 S
C323 C322 1.409 . S
C323 H349 0.911 1_545 S
C324 C322 1.320 . S
C324 C325 1.405 . S
C324 H350 0.930 . S
C325 C320 1.479 . S
C325 C324 1.405 . S
C325 H351 0.931 . S
U326 O327 2.454 1_565 S
U326 O328 2.444 1_565 S
U326 C329 2.984 1_565 S
U326 C330 2.847 1_565 S
U326 C343 2.882 . S
U326 O344 2.441 1_565 S
U326 O345 2.420 . S
U326 O346 2.455 . S
U326 O347 2.449 . S
O327 U326 2.454 1_545 S
O327 C329 1.353 . S
O328 U326 2.444 1_545 S
O328 C329 1.319 . S
C329 U326 2.984 1_545 S
C329 O327 1.353 . S
C329 O328 1.319 . S
C329 C331 1.363 . S
C330 C320 1.465 . S
C330 U326 2.847 1_545 S
C330 O344 1.249 . S
C330 O345 1.202 1_545 S
C331 C329 1.363 . S
C331 C333 1.408 . S
C331 C336 1.342 . S
C332 C333 1.310 . S
C332 C335 1.461 . S
C332 H352 0.932 . S
C333 C331 1.408 . S
C333 C332 1.310 . S
C333 H353 0.930 . S
C334 C335 1.474 . S
C334 C336 1.285 . S
C334 H354 0.929 . S
C335 C332 1.461 . S
C335 C334 1.474 . S
C336 C331 1.342 . S
C336 C334 1.285 . S
C336 H355 0.930 . S
C337 C340 1.424 . S
C337 C342 1.245 . S
C337 C343 1.428 . S
C338 C341 1.260 . S
C338 C342 1.477 . S
C338 H356 0.932 . S
C339 C340 1.384 . S
C339 C341 1.479 . S
C339 H357 0.929 . S
C340 C337 1.424 . S
C340 C339 1.384 . S
C340 H358 0.928 . S
C341 C338 1.260 . S
C341 C339 1.479 . S
C342 C337 1.245 . S
C342 C338 1.477 . S
C342 H359 0.932 . S
C343 U326 2.882 . S
C343 C337 1.428 . S
C343 O346 1.301 . S
C343 O347 1.282 . S
O344 U326 2.441 1_545 S
O344 C330 1.249 . S
O345 U326 2.420 . S
O345 C330 1.202 1_565 S
O346 U326 2.455 . S
O346 C343 1.301 . S
O347 U326 2.449 . S
O347 C343 1.282 . S
H348 C321 0.988 . S
H349 C323 0.911 1_565 S
H350 C324 0.930 . S
H351 C325 0.931 . S
H352 C332 0.932 . S
H353 C333 0.930 . S
H354 C334 0.929 . S
H355 C336 0.930 . S
H356 C338 0.932 . S
H357 C339 0.929 . S
H358 C340 0.928 . S
H359 C342 0.932 . S
C360 C361 1.264 . S
C360 C365 1.479 . S
C360 C370 1.465 . S
C361 C360 1.264 . S
C361 C363 1.339 . S
C361 H388 0.931 . S
C362 C363 1.395 . S
C362 C364 1.320 . S
C363 C361 1.339 . S
C363 C362 1.395 . S
C363 H389 0.929 . S
C364 C362 1.320 . S
C364 C365 1.405 . S
C364 H390 0.930 . S
C365 C360 1.479 . S
C365 C364 1.405 . S
C365 H391 0.931 . S
U366 O367 2.454 . S
U366 O368 2.458 . S
U366 C369 2.984 . S
U366 C370 2.847 . S
U366 C383 2.882 . S
U366 O384 2.441 . S
U366 O385 2.420 . S
U366 O386 2.455 . S
U366 O387 2.449 . S
O367 U366 2.454 . S
O367 C369 1.353 . S
O368 U366 2.458 . S
O368 C369 1.286 . S
C369 U366 2.984 . S
C369 O367 1.353 . S
C369 O368 1.286 . S
C369 C371 1.363 . S
C370 C360 1.465 . S
C370 U366 2.847 . S
C370 O384 1.249 . S
C370 O385 1.202 . S
C371 C369 1.363 . S
C371 C373 1.408 . S
C371 C376 1.342 . S
C372 C373 1.310 . S
C372 C375 1.461 . S
C372 H392 0.932 . S
C373 C371 1.408 . S
C373 C372 1.310 . S
C373 H393 0.930 . S
C374 C375 1.474 . S
C374 C376 1.285 . S
C374 H394 0.929 . S
C375 C372 1.461 . S
C375 C374 1.474 . S
C376 C371 1.342 . S
C376 C374 1.285 . S
C376 H395 0.930 . S
C377 C380 1.424 . S
C377 C382 1.245 . S
C377 C383 1.428 . S
C378 C381 1.260 . S
C378 C382 1.477 . S
C378 H396 0.932 . S
C379 C380 1.384 . S
C379 C381 1.479 . S
C379 H397 0.929 . S
C380 C377 1.424 . S
C380 C379 1.384 . S
C380 H398 0.928 . S
C381 C378 1.260 . S
C381 C379 1.479 . S
C382 C377 1.245 . S
C382 C378 1.477 . S
C382 H399 0.932 . S
C383 U366 2.882 . S
C383 C377 1.428 . S
C383 O386 1.301 . S
C383 O387 1.282 . S
O384 U366 2.441 . S
O384 C370 1.249 . S
O385 U366 2.420 . S
O385 C370 1.202 . S
O386 U366 2.455 . S
O386 C383 1.301 . S
O387 U366 2.449 . S
O387 C383 1.282 . S
H388 C361 0.931 . S
H389 C363 0.929 . S
H390 C364 0.930 . S
H391 C365 0.931 . S
H392 C372 0.932 . S
H393 C373 0.930 . S
H394 C374 0.929 . S
H395 C376 0.930 . S
H396 C378 0.932 . S
H397 C379 0.929 . S
H398 C380 0.928 . S
H399 C382 0.932 . S
C400 C401 1.264 . S
C400 C405 1.479 . S
C400 C410 1.465 . S
C401 C400 1.264 . S
C401 C403 1.339 . S
C401 H428 0.931 . S
C402 C403 1.395 . S
C402 C404 1.320 . S
C403 C401 1.339 . S
C403 C402 1.395 . S
C403 H429 0.929 . S
C404 C402 1.320 . S
C404 C405 1.405 . S
C404 H430 0.930 . S
C405 C400 1.479 . S
C405 C404 1.405 . S
C405 H431 0.931 . S
U406 O407 2.454 1_545 S
U406 O408 2.458 1_545 S
U406 C409 2.984 1_545 S
U406 C410 2.847 . S
U406 C423 2.882 . S
U406 O424 2.439 . S
U406 O425 2.420 . S
U406 O426 2.455 . S
U406 O427 2.449 . S
O407 U406 2.454 1_565 S
O407 C409 1.353 . S
O408 U406 2.458 1_565 S
O408 C409 1.286 . S
C409 U406 2.984 1_565 S
C409 O407 1.353 . S
C409 O408 1.286 . S
C409 C411 1.363 . S
C410 C400 1.465 . S
C410 U406 2.847 . S
C410 O424 1.257 . S
C410 O425 1.202 . S
C411 C409 1.363 . S
C411 C413 1.408 . S
C411 C416 1.342 . S
C412 C413 1.310 . S
C412 C415 1.461 . S
C412 H432 0.932 . S
C413 C411 1.408 . S
C413 C412 1.310 . S
C413 H433 0.930 . S
C414 C415 1.474 . S
C414 C416 1.285 . S
C414 H434 0.929 . S
C415 C412 1.461 . S
C415 C414 1.474 . S
C416 C411 1.342 . S
C416 C414 1.285 . S
C416 H435 0.930 . S
C417 C420 1.424 . S
C417 C422 1.245 . S
C417 C423 1.428 . S
C418 C421 1.260 . S
C418 C422 1.477 . S
C418 H436 0.932 . S
C419 C420 1.384 . S
C419 C421 1.479 . S
C419 H437 0.929 . S
C420 C417 1.424 . S
C420 C419 1.384 . S
C420 H438 0.928 . S
C421 C418 1.260 . S
C421 C419 1.479 . S
C422 C417 1.245 . S
C422 C418 1.477 . S
C422 H439 0.932 . S
C423 U406 2.882 . S
C423 C417 1.428 . S
C423 O426 1.301 . S
C423 O427 1.282 . S
O424 U406 2.439 . S
O424 C410 1.257 . S
O425 U406 2.420 . S
O425 C410 1.202 . S
O426 U406 2.455 . S
O426 C423 1.301 . S
O427 U406 2.449 . S
O427 C423 1.282 . S
H428 C401 0.931 . S
H429 C403 0.929 . S
H430 C404 0.930 . S
H431 C405 0.931 . S
H432 C412 0.932 . S
H433 C413 0.930 . S
H434 C414 0.929 . S
H435 C416 0.930 . S
H436 C418 0.932 . S
H437 C419 0.929 . S
H438 C420 0.928 . S
H439 C422 0.932 . S
C440 C441 1.264 . S
C440 C445 1.479 . S
C440 C450 1.465 . S
C441 C440 1.264 . S
C441 C443 1.339 . S
C441 H468 0.931 . S
C442 C443 1.395 . S
C442 C444 1.320 . S
C443 C441 1.339 . S
C443 C442 1.395 . S
C443 H469 0.929 . S
C444 C442 1.320 . S
C444 C445 1.405 . S
C444 H470 0.930 . S
C445 C440 1.479 . S
C445 C444 1.405 . S
C445 H471 0.931 . S
U446 O447 2.454 . S
U446 O448 2.458 . S
U446 C449 2.984 . S
U446 C450 2.847 . S
U446 C463 2.882 . S
U446 O464 2.441 . S
U446 O465 2.420 . S
U446 O466 2.455 . S
U446 O467 2.449 . S
O447 U446 2.454 . S
O447 C449 1.353 . S
O448 U446 2.458 . S
O448 C449 1.286 . S
C449 U446 2.984 . S
C449 O447 1.353 . S
C449 O448 1.286 . S
C449 C451 1.363 . S
C450 C440 1.465 . S
C450 U446 2.847 . S
C450 O464 1.249 . S
C450 O465 1.202 . S
C451 C449 1.363 . S
C451 C453 1.408 . S
C451 C456 1.342 . S
C452 C453 1.310 . S
C452 C455 1.461 . S
C452 H472 0.932 . S
C453 C451 1.408 . S
C453 C452 1.310 . S
C453 H473 0.930 . S
C454 C455 1.474 . S
C454 C456 1.285 . S
C454 H474 0.929 . S
C455 C452 1.461 . S
C455 C454 1.474 . S
C456 C451 1.342 . S
C456 C454 1.285 . S
C456 H475 0.930 . S
C457 C460 1.424 . S
C457 C462 1.245 . S
C457 C463 1.428 . S
C458 C461 1.260 . S
C458 C462 1.477 . S
C458 H476 0.932 . S
C459 C460 1.384 . S
C459 C461 1.479 . S
C459 H477 0.929 . S
C460 C457 1.424 . S
C460 C459 1.384 . S
C460 H478 0.928 . S
C461 C458 1.260 . S
C461 C459 1.479 . S
C462 C457 1.245 . S
C462 C458 1.477 . S
C462 H479 0.932 . S
C463 U446 2.882 . S
C463 C457 1.428 . S
C463 O466 1.301 . S
C463 O467 1.282 . S
O464 U446 2.441 . S
O464 C450 1.249 . S
O465 U446 2.420 . S
O465 C450 1.202 . S
O466 U446 2.455 . S
O466 C463 1.301 . S
O467 U446 2.449 . S
O467 C463 1.282 . S
H468 C441 0.931 . S
H469 C443 0.929 . S
H470 C444 0.930 . S
H471 C445 0.931 . S
H472 C452 0.932 . S
H473 C453 0.930 . S
H474 C454 0.929 . S
H475 C456 0.930 . S
H476 C458 0.932 . S
H477 C459 0.929 . S
H478 C460 0.928 . S
H479 C462 0.932 . S
C480 C481 1.264 . S
C480 C485 1.479 . S
C480 C490 1.465 . S
C481 C480 1.264 . S
C481 C483 1.339 . S
C481 H508 0.931 . S
C482 C483 1.395 . S
C482 C484 1.320 . S
C483 C481 1.339 . S
C483 C482 1.395 . S
C483 H509 0.929 . S
C484 C482 1.320 . S
C484 C485 1.405 . S
C484 H510 0.930 . S
C485 C480 1.479 . S
C485 C484 1.405 . S
C485 H511 0.931 . S
U486 O487 2.454 . S
U486 O488 2.458 . S
U486 C489 2.984 . S
U486 C490 2.847 . S
U486 C503 2.882 . S
U486 O504 2.441 . S
U486 O505 2.420 . S
U486 O506 2.455 . S
U486 O507 2.449 . S
O487 U486 2.454 . S
O487 C489 1.353 . S
O488 U486 2.458 . S
O488 C489 1.286 . S
C489 U486 2.984 . S
C489 O487 1.353 . S
C489 O488 1.286 . S
C489 C491 1.363 . S
C490 C480 1.465 . S
C490 U486 2.847 . S
C490 O504 1.249 . S
C490 O505 1.202 . S
C491 C489 1.363 . S
C491 C493 1.408 . S
C491 C496 1.342 . S
C492 C493 1.310 . S
C492 C495 1.461 . S
C492 H512 0.932 . S
C493 C491 1.408 . S
C493 C492 1.310 . S
C493 H513 0.930 . S
C494 C495 1.474 . S
C494 C496 1.285 . S
C494 H514 0.929 . S
C495 C492 1.461 . S
C495 C494 1.474 . S
C496 C491 1.342 . S
C496 C494 1.285 . S
C496 H515 0.930 . S
C497 C500 1.424 . S
C497 C502 1.245 . S
C497 C503 1.428 . S
C498 C501 1.260 . S
C498 C502 1.477 . S
C498 H516 0.932 . S
C499 C500 1.384 . S
C499 C501 1.479 . S
C499 H517 0.929 . S
C500 C497 1.424 . S
C500 C499 1.384 . S
C500 H518 0.928 . S
C501 C498 1.260 . S
C501 C499 1.479 . S
C502 C497 1.245 . S
C502 C498 1.477 . S
C502 H519 0.932 . S
C503 U486 2.882 . S
C503 C497 1.428 . S
C503 O506 1.301 . S
C503 O507 1.282 . S
O504 U486 2.441 . S
O504 C490 1.249 . S
O505 U486 2.420 . S
O505 C490 1.202 . S
O506 U486 2.455 . S
O506 C503 1.301 . S
O507 U486 2.449 . S
O507 C503 1.282 . S
H508 C481 0.931 . S
H509 C483 0.929 . S
H510 C484 0.930 . S
H511 C485 0.931 . S
H512 C492 0.932 . S
H513 C493 0.930 . S
H514 C494 0.929 . S
H515 C496 0.930 . S
H516 C498 0.932 . S
H517 C499 0.929 . S
H518 C500 0.928 . S
H519 C502 0.932 . S
C520 C521 1.264 . S
C520 C525 1.479 . S
C520 C530 1.465 . S
C521 C520 1.264 . S
C521 C523 1.339 . S
C521 H548 0.931 . S
C522 C523 1.395 . S
C522 C524 1.320 . S
C523 C521 1.339 . S
C523 C522 1.395 . S
C523 H549 0.929 . S
C524 C522 1.320 . S
C524 C525 1.405 . S
C524 H550 0.930 . S
C525 C520 1.479 . S
C525 C524 1.405 . S
C525 H551 0.931 . S
U526 O527 2.454 . S
U526 O528 2.458 . S
U526 C529 2.984 . S
U526 C530 2.847 . S
U526 C543 2.882 . S
U526 O544 2.441 . S
U526 O545 2.420 . S
U526 O546 2.455 . S
U526 O547 2.449 . S
O527 U526 2.454 . S
O527 C529 1.353 . S
O528 U526 2.458 . S
O528 C529 1.286 . S
C529 U526 2.984 . S
C529 O527 1.353 . S
C529 O528 1.286 . S
C529 C531 1.363 . S
C530 C520 1.465 . S
C530 U526 2.847 . S
C530 O544 1.249 . S
C530 O545 1.202 . S
C531 C529 1.363 . S
C531 C533 1.408 . S
C531 C536 1.342 . S
C532 C533 1.310 . S
C532 C535 1.461 . S
C532 H552 0.932 . S
C533 C531 1.408 . S
C533 C532 1.310 . S
C533 H553 0.930 . S
C534 C535 1.474 . S
C534 C536 1.285 . S
C534 H554 0.929 . S
C535 C532 1.461 . S
C535 C534 1.474 . S
C536 C531 1.342 . S
C536 C534 1.285 . S
C536 H555 0.930 . S
C537 C540 1.424 . S
C537 C542 1.245 . S
C537 C543 1.428 . S
C538 C541 1.260 . S
C538 C542 1.477 . S
C538 H556 0.932 . S
C539 C540 1.384 . S
C539 C541 1.479 . S
C539 H557 0.929 . S
C540 C537 1.424 . S
C540 C539 1.384 . S
C540 H558 0.928 . S
C541 C538 1.260 . S
C541 C539 1.479 . S
C542 C537 1.245 . S
C542 C538 1.477 . S
C542 H559 0.932 . S
C543 U526 2.882 . S
C543 C537 1.428 . S
C543 O546 1.301 . S
C543 O547 1.282 . S
O544 U526 2.441 . S
O544 C530 1.249 . S
O545 U526 2.420 . S
O545 C530 1.202 . S
O546 U526 2.455 . S
O546 C543 1.301 . S
O547 U526 2.449 . S
O547 C543 1.282 . S
H548 C521 0.931 . S
H549 C523 0.929 . S
H550 C524 0.930 . S
H551 C525 0.931 . S
H552 C532 0.932 . S
H553 C533 0.930 . S
H554 C534 0.929 . S
H555 C536 0.930 . S
H556 C538 0.932 . S
H557 C539 0.929 . S
H558 C540 0.928 . S
H559 C542 0.932 . S
C560 C561 1.264 . S
C560 C565 1.479 . S
C560 C570 1.465 . S
C561 C560 1.264 . S
C561 C563 1.339 . S
C561 H588 0.931 . S
C562 C563 1.395 . S
C562 C564 1.320 . S
C563 C561 1.339 . S
C563 C562 1.395 . S
C563 H589 0.929 . S
C564 C562 1.320 . S
C564 C565 1.405 . S
C564 H590 0.930 . S
C565 C560 1.479 . S
C565 C564 1.405 . S
C565 H591 0.931 . S
U566 O567 2.454 . S
U566 O568 2.458 . S
U566 C569 2.984 . S
U566 C570 2.847 . S
U566 C583 2.882 . S
U566 O584 2.441 . S
U566 O585 2.420 . S
U566 O586 2.455 . S
U566 O587 2.449 . S
O567 U566 2.454 . S
O567 C569 1.353 . S
O568 U566 2.458 . S
O568 C569 1.286 . S
C569 U566 2.984 . S
C569 O567 1.353 . S
C569 O568 1.286 . S
C569 C571 1.363 . S
C570 C560 1.465 . S
C570 U566 2.847 . S
C570 O584 1.249 . S
C570 O585 1.202 . S
C571 C569 1.363 . S
C571 C573 1.408 . S
C571 C576 1.342 . S
C572 C573 1.310 . S
C572 C575 1.461 . S
C572 H592 0.932 . S
C573 C571 1.408 . S
C573 C572 1.310 . S
C573 H593 0.930 . S
C574 C575 1.474 . S
C574 C576 1.285 . S
C574 H594 0.929 . S
C575 C572 1.461 . S
C575 C574 1.474 . S
C576 C571 1.342 . S
C576 C574 1.285 . S
C576 H595 0.930 . S
C577 C580 1.424 . S
C577 C582 1.245 . S
C577 C583 1.428 . S
C578 C581 1.260 . S
C578 C582 1.477 . S
C578 H596 0.932 . S
C579 C580 1.384 . S
C579 C581 1.479 . S
C579 H597 0.929 . S
C580 C577 1.424 . S
C580 C579 1.384 . S
C580 H598 0.928 . S
C581 C578 1.260 . S
C581 C579 1.479 . S
C582 C577 1.245 . S
C582 C578 1.477 . S
C582 H599 0.932 . S
C583 U566 2.882 . S
C583 C577 1.428 . S
C583 O586 1.301 . S
C583 O587 1.282 . S
O584 U566 2.441 . S
O584 C570 1.249 . S
O585 U566 2.420 . S
O585 C570 1.202 . S
O586 U566 2.455 . S
O586 C583 1.301 . S
O587 U566 2.449 . S
O587 C583 1.282 . S
H588 C561 0.931 . S
H589 C563 0.929 . S
H590 C564 0.930 . S
H591 C565 0.931 . S
H592 C572 0.932 . S
H593 C573 0.930 . S
H594 C574 0.929 . S
H595 C576 0.930 . S
H596 C578 0.932 . S
H597 C579 0.929 . S
H598 C580 0.928 . S
H599 C582 0.932 . S
C600 C601 1.264 . S
C600 C605 1.479 . S
C600 C610 1.465 . S
C601 C600 1.264 . S
C601 C603 1.339 . S
C601 H628 0.931 . S
C602 C603 1.395 . S
C602 C604 1.320 . S
C603 C601 1.339 . S
C603 C602 1.395 . S
C603 H629 0.929 . S
C604 C602 1.320 . S
C604 C605 1.405 . S
C604 H630 0.930 . S
C605 C600 1.479 . S
C605 C604 1.405 . S
C605 H631 0.931 . S
U606 O607 2.454 . S
U606 O608 2.458 . S
U606 C609 2.984 . S
U606 C610 2.847 . S
U606 C623 2.882 . S
U606 O624 2.441 . S
U606 O625 2.420 . S
U606 O626 2.455 . S
U606 O627 2.449 . S
O607 U606 2.454 . S
O607 C609 1.353 . S
O608 U606 2.458 . S
O608 C609 1.286 . S
C609 U606 2.984 . S
C609 O607 1.353 . S
C609 O608 1.286 . S
C609 C611 1.363 . S
C610 C600 1.465 . S
C610 U606 2.847 . S
C610 O624 1.249 . S
C610 O625 1.202 . S
C611 C609 1.363 . S
C611 C613 1.408 . S
C611 C616 1.342 . S
C612 C613 1.310 . S
C612 C615 1.461 . S
C612 H632 0.932 . S
C613 C611 1.408 . S
C613 C612 1.310 . S
C613 H633 0.930 . S
C614 C615 1.474 . S
C614 C616 1.285 . S
C614 H634 0.929 . S
C615 C612 1.461 . S
C615 C614 1.474 . S
C616 C611 1.342 . S
C616 C614 1.285 . S
C616 H635 0.930 . S
C617 C620 1.424 . S
C617 C622 1.245 . S
C617 C623 1.428 . S
C618 C621 1.260 . S
C618 C622 1.477 . S
C618 H636 0.932 . S
C619 C620 1.384 . S
C619 C621 1.479 . S
C619 H637 0.929 . S
C620 C617 1.424 . S
C620 C619 1.384 . S
C620 H638 0.928 . S
C621 C618 1.260 . S
C621 C619 1.479 . S
C622 C617 1.245 . S
C622 C618 1.477 . S
C622 H639 0.932 . S
C623 U606 2.882 . S
C623 C617 1.428 . S
C623 O626 1.301 . S
C623 O627 1.282 . S
O624 U606 2.441 . S
O624 C610 1.249 . S
O625 U606 2.420 . S
O625 C610 1.202 . S
O626 U606 2.455 . S
O626 C623 1.301 . S
O627 U606 2.449 . S
O627 C623 1.282 . S
H628 C601 0.931 . S
H629 C603 0.929 . S
H630 C604 0.930 . S
H631 C605 0.931 . S
H632 C612 0.932 . S
H633 C613 0.930 . S
H634 C614 0.929 . S
H635 C616 0.930 . S
H636 C618 0.932 . S
H637 C619 0.929 . S
H638 C620 0.928 . S
H639 C622 0.932 . S
C640 C641 1.264 . S
C640 C645 1.479 . S
C640 C650 1.465 . S
C641 C640 1.264 . S
C641 C643 1.339 . S
C641 H668 0.931 . S
C642 C643 1.395 . S
C642 C644 1.320 . S
C643 C641 1.339 . S
C643 C642 1.395 . S
C643 H669 0.929 . S
C644 C642 1.320 . S
C644 C645 1.405 . S
C644 H670 0.930 . S
C645 C640 1.479 . S
C645 C644 1.405 . S
C645 H671 0.931 . S
U646 O647 2.454 . S
U646 O648 2.458 . S
U646 C649 2.984 . S
U646 C650 2.847 . S
U646 C663 2.882 . S
U646 O664 2.441 . S
U646 O665 2.420 . S
U646 O666 2.455 . S
U646 O667 2.449 . S
O647 U646 2.454 . S
O647 C649 1.353 . S
O648 U646 2.458 . S
O648 C649 1.286 . S
C649 U646 2.984 . S
C649 O647 1.353 . S
C649 O648 1.286 . S
C649 C651 1.363 . S
C650 C640 1.465 . S
C650 U646 2.847 . S
C650 O664 1.249 . S
C650 O665 1.202 . S
C651 C649 1.363 . S
C651 C653 1.408 . S
C651 C656 1.342 . S
C652 C653 1.310 . S
C652 C655 1.461 . S
C652 H672 0.932 . S
C653 C651 1.408 . S
C653 C652 1.310 . S
C653 H673 0.930 . S
C654 C655 1.474 . S
C654 C656 1.285 . S
C654 H674 0.929 . S
C655 C652 1.461 . S
C655 C654 1.474 . S
C656 C651 1.342 . S
C656 C654 1.285 . S
C656 H675 0.930 . S
C657 C660 1.424 . S
C657 C662 1.245 . S
C657 C663 1.428 . S
C658 C661 1.260 . S
C658 C662 1.477 . S
C658 H676 0.932 . S
C659 C660 1.384 . S
C659 C661 1.479 . S
C659 H677 0.929 . S
C660 C657 1.424 . S
C660 C659 1.384 . S
C660 H678 0.928 . S
C661 C658 1.260 . S
C661 C659 1.479 . S
C662 C657 1.245 . S
C662 C658 1.477 . S
C662 H679 0.932 . S
C663 U646 2.882 . S
C663 C657 1.428 . S
C663 O666 1.301 . S
C663 O667 1.282 . S
O664 U646 2.441 . S
O664 C650 1.249 . S
O665 U646 2.420 . S
O665 C650 1.202 . S
O666 U646 2.455 . S
O666 C663 1.301 . S
O667 U646 2.449 . S
O667 C663 1.282 . S
H668 C641 0.931 . S
H669 C643 0.929 . S
H670 C644 0.930 . S
H671 C645 0.931 . S
H672 C652 0.932 . S
H673 C653 0.930 . S
H674 C654 0.929 . S
H675 C656 0.930 . S
H676 C658 0.932 . S
H677 C659 0.929 . S
H678 C660 0.928 . S
H679 C662 0.932 . S
C680 C681 1.264 . S
C680 C685 1.479 . S
C680 C690 1.465 . S
C681 C680 1.264 . S
C681 C683 1.339 . S
C681 H708 0.931 . S
C682 C683 1.395 . S
C682 C684 1.320 . S
C683 C681 1.339 . S
C683 C682 1.395 . S
C683 H709 0.929 . S
C684 C682 1.320 . S
C684 C685 1.405 . S
C684 H710 0.930 . S
C685 C680 1.479 . S
C685 C684 1.405 . S
C685 H711 0.931 . S
U686 O687 2.454 . S
U686 O688 2.458 . S
U686 C689 2.984 . S
U686 C690 2.847 . S
U686 C703 2.882 . S
U686 O704 2.441 . S
U686 O705 2.420 . S
U686 O706 2.455 . S
U686 O707 2.449 . S
O687 U686 2.454 . S
O687 C689 1.353 . S
O688 U686 2.458 . S
O688 C689 1.286 . S
C689 U686 2.984 . S
C689 O687 1.353 . S
C689 O688 1.286 . S
C689 C691 1.363 . S
C690 C680 1.465 . S
C690 U686 2.847 . S
C690 O704 1.249 . S
C690 O705 1.202 . S
C691 C689 1.363 . S
C691 C693 1.408 . S
C691 C696 1.342 . S
C692 C693 1.310 . S
C692 C695 1.461 . S
C692 H712 0.932 . S
C693 C691 1.408 . S
C693 C692 1.310 . S
C693 H713 0.930 . S
C694 C695 1.474 . S
C694 C696 1.285 . S
C694 H714 0.929 . S
C695 C692 1.461 . S
C695 C694 1.474 . S
C696 C691 1.342 . S
C696 C694 1.285 . S
C696 H715 0.930 . S
C697 C700 1.424 . S
C697 C702 1.245 . S
C697 C703 1.428 . S
C698 C701 1.260 . S
C698 C702 1.477 . S
C698 H716 0.932 . S
C699 C700 1.384 . S
C699 C701 1.479 . S
C699 H717 0.929 . S
C700 C697 1.424 . S
C700 C699 1.384 . S
C700 H718 0.928 . S
C701 C698 1.260 . S
C701 C699 1.479 . S
C702 C697 1.245 . S
C702 C698 1.477 . S
C702 H719 0.932 . S
C703 U686 2.882 . S
C703 C697 1.428 . S
C703 O706 1.301 . S
C703 O707 1.282 . S
O704 U686 2.441 . S
O704 C690 1.249 . S
O705 U686 2.420 . S
O705 C690 1.202 . S
O706 U686 2.455 . S
O706 C703 1.301 . S
O707 U686 2.449 . S
O707 C703 1.282 . S
H708 C681 0.931 . S
H709 C683 0.929 . S
H710 C684 0.930 . S
H711 C685 0.931 . S
H712 C692 0.932 . S
H713 C693 0.930 . S
H714 C694 0.929 . S
H715 C696 0.930 . S
H716 C698 0.932 . S
H717 C699 0.929 . S
H718 C700 0.928 . S
H719 C702 0.932 . S
C720 C721 1.264 . S
C720 C725 1.479 . S
C720 C730 1.465 . S
C721 C720 1.264 . S
C721 C723 1.339 . S
C721 H748 0.931 . S
C722 C723 1.395 . S
C722 C724 1.320 . S
C723 C721 1.339 . S
C723 C722 1.395 . S
C723 H749 0.929 . S
C724 C722 1.320 . S
C724 C725 1.405 . S
C724 H750 0.930 . S
C725 C720 1.479 . S
C725 C724 1.405 . S
C725 H751 0.931 . S
U726 O727 2.454 . S
U726 O728 2.458 . S
U726 C729 2.984 . S
U726 C730 2.847 . S
U726 C743 2.882 . S
U726 O744 2.441 . S
U726 O745 2.420 . S
U726 O746 2.455 . S
U726 O747 2.449 . S
O727 U726 2.454 . S
O727 C729 1.353 . S
O728 U726 2.458 . S
O728 C729 1.286 . S
C729 U726 2.984 . S
C729 O727 1.353 . S
C729 O728 1.286 . S
C729 C731 1.363 . S
C730 C720 1.465 . S
C730 U726 2.847 . S
C730 O744 1.249 . S
C730 O745 1.202 . S
C731 C729 1.363 . S
C731 C733 1.408 . S
C731 C736 1.342 . S
C732 C733 1.310 . S
C732 C735 1.461 . S
C732 H752 0.932 . S
C733 C731 1.408 . S
C733 C732 1.310 . S
C733 H753 0.930 . S
C734 C735 1.474 . S
C734 C736 1.285 . S
C734 H754 0.929 . S
C735 C732 1.461 . S
C735 C734 1.474 . S
C736 C731 1.342 . S
C736 C734 1.285 . S
C736 H755 0.930 . S
C737 C740 1.424 . S
C737 C742 1.245 . S
C737 C743 1.428 . S
C738 C741 1.260 . S
C738 C742 1.477 . S
C738 H756 0.932 . S
C739 C740 1.384 . S
C739 C741 1.479 . S
C739 H757 0.929 . S
C740 C737 1.424 . S
C740 C739 1.384 . S
C740 H758 0.928 . S
C741 C738 1.260 . S
C741 C739 1.479 . S
C742 C737 1.245 . S
C742 C738 1.477 . S
C742 H759 0.932 . S
C743 U726 2.882 . S
C743 C737 1.428 . S
C743 O746 1.301 . S
C743 O747 1.282 . S
O744 U726 2.441 . S
O744 C730 1.249 . S
O745 U726 2.420 . S
O745 C730 1.202 . S
O746 U726 2.455 . S
O746 C743 1.301 . S
O747 U726 2.449 . S
O747 C743 1.282 . S
H748 C721 0.931 . S
H749 C723 0.929 . S
H750 C724 0.930 . S
H751 C725 0.931 . S
H752 C732 0.932 . S
H753 C733 0.930 . S
H754 C734 0.929 . S
H755 C736 0.930 . S
H756 C738 0.932 . S
H757 C739 0.929 . S
H758 C740 0.928 . S
H759 C742 0.932 . S
C760 C761 1.264 . S
C760 C765 1.479 . S
C760 C770 1.465 . S
C761 C760 1.264 . S
C761 C763 1.339 . S
C761 H788 0.931 . S
C762 C763 1.395 . S
C762 C764 1.320 . S
C763 C761 1.339 . S
C763 C762 1.395 . S
C763 H789 0.929 . S
C764 C762 1.320 . S
C764 C765 1.405 . S
C764 H790 0.930 . S
C765 C760 1.479 . S
C765 C764 1.405 . S
C765 H791 0.931 . S
U766 O767 2.454 . S
U766 O768 2.458 . S
U766 C769 2.984 . S
U766 C770 2.847 . S
U766 C783 2.882 . S
U766 O784 2.441 . S
U766 O785 2.420 . S
U766 O786 2.455 . S
U766 O787 2.449 . S
O767 U766 2.454 . S
O767 C769 1.353 . S
O768 U766 2.458 . S
O768 C769 1.286 . S
C769 U766 2.984 . S
C769 O767 1.353 . S
C769 O768 1.286 . S
C769 C771 1.376 . S
C770 C760 1.465 . S
C770 U766 2.847 . S
C770 O784 1.249 . S
C770 O785 1.202 . S
C771 C769 1.376 . S
C771 C773 1.403 1_655 S
C771 C776 1.336 1_655 S
C772 C773 1.310 . S
C772 C775 1.461 . S
C772 H792 0.932 . S
C773 C771 1.403 1_455 S
C773 C772 1.310 . S
C773 H793 0.980 . S
C774 C775 1.474 . S
C774 C776 1.285 . S
C774 H794 0.929 . S
C775 C772 1.461 . S
C775 C774 1.474 . S
C776 C771 1.336 1_455 S
C776 C774 1.285 . S
C776 H795 0.895 1_455 S
C777 C780 1.424 . S
C777 C782 1.245 . S
C777 C783 1.428 . S
C778 C781 1.260 . S
C778 C782 1.477 . S
C778 H796 0.932 . S
C779 C780 1.384 . S
C779 C781 1.479 . S
C779 H797 0.929 . S
C780 C777 1.424 . S
C780 C779 1.384 . S
C780 H798 0.928 . S
C781 C778 1.260 . S
C781 C779 1.479 . S
C782 C777 1.245 . S
C782 C778 1.477 . S
C782 H799 0.932 . S
C783 U766 2.882 . S
C783 C777 1.428 . S
C783 O786 1.301 . S
C783 O787 1.282 . S
O784 U766 2.441 . S
O784 C770 1.249 . S
O785 U766 2.420 . S
O785 C770 1.202 . S
O786 U766 2.455 . S
O786 C783 1.301 . S
O787 U766 2.449 . S
O787 C783 1.282 . S
H788 C761 0.931 . S
H789 C763 0.929 . S
H790 C764 0.930 . S
H791 C765 0.931 . S
H792 C772 0.932 . S
H793 C773 0.980 . S
H794 C774 0.929 . S
H795 C776 0.895 1_655 S
H796 C778 0.932 . S
H797 C779 0.929 . S
H798 C780 0.928 . S
H799 C782 0.932 . S
C800 C801 1.264 . S
C800 C805 1.479 . S
C800 C810 1.465 . S
C801 C800 1.264 . S
C801 C803 1.339 . S
C801 H828 0.931 . S
C802 C803 1.395 . S
C802 C804 1.320 . S
C803 C801 1.339 . S
C803 C802 1.395 . S
C803 H829 0.929 . S
C804 C802 1.320 . S
C804 C805 1.405 . S
C804 H830 0.930 . S
C805 C800 1.479 . S
C805 C804 1.405 . S
C805 H831 0.931 . S
U806 O807 2.454 . S
U806 O808 2.458 . S
U806 C809 2.984 . S
U806 C810 2.847 . S
U806 C823 2.882 . S
U806 O824 2.441 . S
U806 O825 2.420 . S
U806 O826 2.455 . S
U806 O827 2.449 . S
O807 U806 2.454 . S
O807 C809 1.353 . S
O808 U806 2.458 . S
O808 C809 1.286 . S
C809 U806 2.984 . S
C809 O807 1.353 . S
C809 O808 1.286 . S
C809 C811 1.363 . S
C810 C800 1.465 . S
C810 U806 2.847 . S
C810 O824 1.249 . S
C810 O825 1.202 . S
C811 C809 1.363 . S
C811 C813 1.408 . S
C811 C816 1.342 . S
C812 C813 1.310 . S
C812 C815 1.461 1_655 S
C812 H832 0.932 . S
C813 C811 1.408 . S
C813 C812 1.310 . S
C813 H833 0.930 . S
C814 C815 1.474 . S
C814 C816 1.285 1_455 S
C814 H834 0.929 . S
C815 C812 1.461 1_455 S
C815 C814 1.474 . S
C816 C811 1.342 . S
C816 C814 1.285 1_655 S
C816 H835 0.930 . S
C817 C820 1.424 . S
C817 C822 1.245 . S
C817 C823 1.428 . S
C818 C821 1.260 . S
C818 C822 1.477 . S
C818 H836 0.932 . S
C819 C820 1.384 . S
C819 C821 1.479 . S
C819 H837 0.929 . S
C820 C817 1.424 . S
C820 C819 1.384 . S
C820 H838 0.928 . S
C821 C818 1.260 . S
C821 C819 1.479 . S
C822 C817 1.245 . S
C822 C818 1.477 . S
C822 H839 0.932 . S
C823 U806 2.882 . S
C823 C817 1.428 . S
C823 O826 1.301 . S
C823 O827 1.282 . S
O824 U806 2.441 . S
O824 C810 1.249 . S
O825 U806 2.420 . S
O825 C810 1.202 . S
O826 U806 2.455 . S
O826 C823 1.301 . S
O827 U806 2.449 . S
O827 C823 1.282 . S
H828 C801 0.931 . S
H829 C803 0.929 . S
H830 C804 0.930 . S
H831 C805 0.931 . S
H832 C812 0.932 . S
H833 C813 0.930 . S
H834 C814 0.929 . S
H835 C816 0.930 . S
H836 C818 0.932 . S
H837 C819 0.929 . S
H838 C820 0.928 . S
H839 C822 0.932 . S
C840 C841 1.264 . S
C840 C845 1.479 . S
C840 C850 1.465 . S
C841 C840 1.264 . S
C841 C843 1.339 . S
C841 H868 0.931 . S
C842 C843 1.395 . S
C842 C844 1.320 . S
C843 C841 1.339 . S
C843 C842 1.395 . S
C843 H869 0.929 . S
C844 C842 1.320 . S
C844 C845 1.405 . S
C844 H870 0.930 . S
C845 C840 1.479 . S
C845 C844 1.405 . S
C845 H871 0.931 . S
U846 O847 2.454 . S
U846 O848 2.458 . S
U846 C849 2.984 . S
U846 C850 2.847 . S
U846 C863 2.882 . S
U846 O864 2.441 . S
U846 O865 2.420 . S
U846 O866 2.455 . S
U846 O867 2.449 . S
O847 U846 2.454 . S
O847 C849 1.353 . S
O848 U846 2.458 . S
O848 C849 1.286 . S
C849 U846 2.984 . S
C849 O847 1.353 . S
C849 O848 1.286 . S
C849 C851 1.363 . S
C850 C840 1.465 . S
C850 U846 2.847 . S
C850 O864 1.249 . S
C850 O865 1.202 . S
C851 C849 1.363 . S
C851 C853 1.408 . S
C851 C856 1.342 . S
C852 C853 1.310 . S
C852 C855 1.461 . S
C852 H872 0.932 . S
C853 C851 1.408 . S
C853 C852 1.310 . S
C853 H873 0.930 . S
C854 C855 1.474 . S
C854 C856 1.285 . S
C854 H874 0.929 . S
C855 C852 1.461 . S
C855 C854 1.474 . S
C856 C851 1.342 . S
C856 C854 1.285 . S
C856 H875 0.930 . S
C857 C860 1.424 . S
C857 C862 1.245 . S
C857 C863 1.428 . S
C858 C861 1.260 . S
C858 C862 1.477 . S
C858 H876 0.932 . S
C859 C860 1.384 . S
C859 C861 1.479 . S
C859 H877 0.929 . S
C860 C857 1.424 . S
C860 C859 1.384 . S
C860 H878 0.928 . S
C861 C858 1.260 . S
C861 C859 1.479 . S
C862 C857 1.245 . S
C862 C858 1.477 . S
C862 H879 0.932 . S
C863 U846 2.882 . S
C863 C857 1.428 . S
C863 O866 1.301 . S
C863 O867 1.282 . S
O864 U846 2.441 . S
O864 C850 1.249 . S
O865 U846 2.420 . S
O865 C850 1.202 . S
O866 U846 2.455 . S
O866 C863 1.301 . S
O867 U846 2.449 . S
O867 C863 1.282 . S
H868 C841 0.931 . S
H869 C843 0.929 . S
H870 C844 0.930 . S
H871 C845 0.931 . S
H872 C852 0.932 . S
H873 C853 0.930 . S
H874 C854 0.929 . S
H875 C856 0.930 . S
H876 C858 0.932 . S
H877 C859 0.929 . S
H878 C860 0.928 . S
H879 C862 0.932 . S
C880 C881 1.264 . S
C880 C885 1.479 . S
C880 C890 1.465 . S
C881 C880 1.264 . S
C881 C883 1.339 . S
C881 H908 0.931 . S
C882 C883 1.395 . S
C882 C884 1.320 . S
C883 C881 1.339 . S
C883 C882 1.395 . S
C883 H909 0.929 . S
C884 C882 1.320 . S
C884 C885 1.405 . S
C884 H910 0.930 . S
C885 C880 1.479 . S
C885 C884 1.405 . S
C885 H911 0.931 . S
U886 O887 2.454 . S
U886 O888 2.458 . S
U886 C889 2.984 . S
U886 C890 2.847 . S
U886 C903 2.882 . S
U886 O904 2.441 . S
U886 O905 2.420 . S
U886 O906 2.455 . S
U886 O907 2.449 . S
O887 U886 2.454 . S
O887 C889 1.353 . S
O888 U886 2.458 . S
O888 C889 1.286 . S
C889 U886 2.984 . S
C889 O887 1.353 . S
C889 O888 1.286 . S
C889 C891 1.363 . S
C890 C880 1.465 . S
C890 U886 2.847 . S
C890 O904 1.249 . S
C890 O905 1.202 . S
C891 C889 1.363 . S
C891 C893 1.408 . S
C891 C896 1.342 . S
C892 C893 1.310 . S
C892 C895 1.461 . S
C892 H912 0.932 . S
C893 C891 1.408 . S
C893 C892 1.310 . S
C893 H913 0.930 . S
C894 C895 1.474 . S
C894 C896 1.285 . S
C894 H914 0.929 . S
C895 C892 1.461 . S
C895 C894 1.474 . S
C896 C891 1.342 . S
C896 C894 1.285 . S
C896 H915 0.930 . S
C897 C900 1.424 . S
C897 C902 1.245 . S
C897 C903 1.428 . S
C898 C901 1.260 . S
C898 C902 1.477 . S
C898 H916 0.932 . S
C899 C900 1.384 . S
C899 C901 1.479 . S
C899 H917 0.929 . S
C900 C897 1.424 . S
C900 C899 1.384 . S
C900 H918 0.928 . S
C901 C898 1.260 . S
C901 C899 1.479 . S
C902 C897 1.245 . S
C902 C898 1.477 . S
C902 H919 0.932 . S
C903 U886 2.882 . S
C903 C897 1.428 . S
C903 O906 1.301 . S
C903 O907 1.282 . S
O904 U886 2.441 . S
O904 C890 1.249 . S
O905 U886 2.420 . S
O905 C890 1.202 . S
O906 U886 2.455 . S
O906 C903 1.301 . S
O907 U886 2.449 . S
O907 C903 1.282 . S
H908 C881 0.931 . S
H909 C883 0.929 . S
H910 C884 0.930 . S
H911 C885 0.931 . S
H912 C892 0.932 . S
H913 C893 0.930 . S
H914 C894 0.929 . S
H915 C896 0.930 . S
H916 C898 0.932 . S
H917 C899 0.929 . S
H918 C900 0.928 . S
H919 C902 0.932 . S
C920 C921 1.264 . S
C920 C925 1.479 . S
C920 C930 1.465 . S
C921 C920 1.264 . S
C921 C923 1.339 . S
C921 H948 0.931 . S
C922 C923 1.395 . S
C922 C924 1.320 . S
C923 C921 1.339 . S
C923 C922 1.395 . S
C923 H949 0.929 . S
C924 C922 1.320 . S
C924 C925 1.405 . S
C924 H950 0.930 . S
C925 C920 1.479 . S
C925 C924 1.405 . S
C925 H951 0.931 . S
U926 O927 2.454 . S
U926 O928 2.458 . S
U926 C929 2.984 . S
U926 C930 2.847 . S
U926 C943 2.882 . S
U926 O944 2.441 . S
U926 O945 2.420 . S
U926 O946 2.455 . S
U926 O947 2.449 . S
O927 U926 2.454 . S
O927 C929 1.353 . S
O928 U926 2.458 . S
O928 C929 1.286 . S
C929 U926 2.984 . S
C929 O927 1.353 . S
C929 O928 1.286 . S
C929 C931 1.363 . S
C930 C920 1.465 . S
C930 U926 2.847 . S
C930 O944 1.249 . S
C930 O945 1.202 . S
C931 C929 1.363 . S
C931 C933 1.408 . S
C931 C936 1.342 . S
C932 C933 1.310 . S
C932 C935 1.461 . S
C932 H952 0.932 . S
C933 C931 1.408 . S
C933 C932 1.310 . S
C933 H953 0.930 . S
C934 C935 1.474 . S
C934 C936 1.285 . S
C934 H954 0.929 . S
C935 C932 1.461 . S
C935 C934 1.474 . S
C936 C931 1.342 . S
C936 C934 1.285 . S
C936 H955 0.930 . S
C937 C940 1.424 . S
C937 C942 1.245 . S
C937 C943 1.428 . S
C938 C941 1.260 . S
C938 C942 1.477 . S
C938 H956 0.932 . S
C939 C940 1.384 . S
C939 C941 1.479 . S
C939 H957 0.929 . S
C940 C937 1.424 . S
C940 C939 1.384 . S
C940 H958 0.928 . S
C941 C938 1.260 . S
C941 C939 1.479 . S
C942 C937 1.245 . S
C942 C938 1.477 . S
C942 H959 0.932 . S
C943 U926 2.882 . S
C943 C937 1.428 . S
C943 O946 1.301 . S
C943 O947 1.282 . S
O944 U926 2.441 . S
O944 C930 1.249 . S
O945 U926 2.420 . S
O945 C930 1.202 . S
O946 U926 2.455 . S
O946 C943 1.301 . S
O947 U926 2.449 . S
O947 C943 1.282 . S
H948 C921 0.931 . S
H949 C923 0.929 . S
H950 C924 0.930 . S
H951 C925 0.931 . S
H952 C932 0.932 . S
H953 C933 0.930 . S
H954 C934 0.929 . S
H955 C936 0.930 . S
H956 C938 0.932 . S
H957 C939 0.929 . S
H958 C940 0.928 . S
H959 C942 0.932 . S
H960 C968 0.929 . S
H961 C970 0.930 . S
H962 C972 0.930 . S
H963 C975 0.929 . S
H964 C978 0.930 . S
H965 C980 0.960 . S
H966 C980 0.960 . S
H967 C980 0.960 . S
C968 H960 0.929 . S
C968 C969 1.377 . S
C968 C970 1.384 . S
C969 C968 1.377 . S
C969 C975 1.390 . S
C970 H961 0.930 . S
C970 C968 1.384 . S
C970 C971 1.372 . S
C971 C970 1.372 . S
C971 C972 1.400 . S
C971 C976 1.490 . S
C972 H962 0.930 . S
C972 C971 1.400 . S
C972 C975 1.386 . S
H973 C989 0.930 . S
H974 C990 0.931 . S
C975 H963 0.929 . S
C975 C969 1.390 . S
C975 C972 1.386 . S
C976 C971 1.490 . S
C976 C978 1.395 . S
C976 C979 1.403 . S
H977 C983 0.930 . S
C978 H964 0.930 . S
C978 C976 1.395 . S
C978 C981 1.403 . S
C979 C976 1.403 . S
C979 C980 1.524 . S
C979 C983 1.400 . S
C980 H965 0.960 . S
C980 H966 0.960 . S
C980 H967 0.960 . S
C980 C979 1.524 . S
C981 C978 1.403 . S
C981 C982 1.392 . S
C981 C985 1.495 . S
C982 C981 1.392 . S
C982 C983 1.385 . S
C982 C984 1.478 . S
C983 H977 0.930 . S
C983 C979 1.400 . S
C983 C982 1.385 . S
C984 C982 1.478 . S
C984 C986 1.381 . S
C984 C990 1.383 . S
C985 C981 1.495 . S
C985 H991 0.959 . S
C985 H992 0.961 . S
C985 H993 0.960 . S
C986 C984 1.381 . S
C986 C987 1.394 . S
C986 H994 0.930 . S
C987 C986 1.394 . S
C987 C988 1.383 . S
C987 H995 0.929 . S
C988 C987 1.383 . S
C988 C989 1.377 . S
C989 H973 0.930 . S
C989 C988 1.377 . S
C989 C990 1.379 . S
C990 H974 0.931 . S
C990 C984 1.383 . S
C990 C989 1.379 . S
H991 C985 0.959 . S
H992 C985 0.961 . S
H993 C985 0.960 . S
H994 C986 0.930 . S
H995 C987 0.929 . S
H996 C1004 0.929 . S
H997 C1006 0.930 . S
H998 C1008 0.930 . S
H999 C1011 0.929 . S
H1000 C1014 0.930 . S
H1001 C1016 0.960 . S
H1002 C1016 0.960 . S
H1003 C1016 0.960 . S
C1004 H996 0.929 . S
C1004 C1005 1.377 . S
C1004 C1006 1.384 . S
C1005 C1004 1.377 . S
C1005 C1011 1.390 . S
C1006 H997 0.930 . S
C1006 C1004 1.384 . S
C1006 C1007 1.372 . S
C1007 C1006 1.372 . S
C1007 C1008 1.400 . S
C1007 C1012 1.490 . S
C1008 H998 0.930 . S
C1008 C1007 1.400 . S
C1008 C1011 1.386 . S
H1009 C1025 0.930 . S
H1010 C1026 0.931 . S
C1011 H999 0.929 . S
C1011 C1005 1.390 . S
C1011 C1008 1.386 . S
C1012 C1007 1.490 . S
C1012 C1014 1.395 . S
C1012 C1015 1.403 . S
H1013 C1019 0.930 . S
C1014 H1000 0.930 . S
C1014 C1012 1.395 . S
C1014 C1017 1.403 . S
C1015 C1012 1.403 . S
C1015 C1016 1.524 . S
C1015 C1019 1.400 . S
C1016 H1001 0.960 . S
C1016 H1002 0.960 . S
C1016 H1003 0.960 . S
C1016 C1015 1.524 . S
C1017 C1014 1.403 . S
C1017 C1018 1.392 . S
C1017 C1021 1.495 . S
C1018 C1017 1.392 . S
C1018 C1019 1.385 . S
C1018 C1020 1.478 . S
C1019 H1013 0.930 . S
C1019 C1015 1.400 . S
C1019 C1018 1.385 . S
C1020 C1018 1.478 . S
C1020 C1022 1.381 . S
C1020 C1026 1.383 . S
C1021 C1017 1.495 . S
C1021 H1027 0.959 . S
C1021 H1028 0.961 . S
C1021 H1029 0.960 . S
C1022 C1020 1.381 . S
C1022 C1023 1.394 . S
C1022 H1030 0.930 . S
C1023 C1022 1.394 . S
C1023 C1024 1.383 . S
C1023 H1031 0.929 . S
C1024 C1023 1.383 . S
C1024 C1025 1.377 . S
C1025 H1009 0.930 . S
C1025 C1024 1.377 . S
C1025 C1026 1.379 . S
C1026 H1010 0.931 . S
C1026 C1020 1.383 . S
C1026 C1025 1.379 . S
H1027 C1021 0.959 . S
H1028 C1021 0.961 . S
H1029 C1021 0.960 . S
H1030 C1022 0.930 . S
H1031 C1023 0.929 . S
H1032 C1040 0.929 . S
H1033 C1042 0.930 . S
H1034 C1044 0.930 . S
H1035 C1047 0.929 . S
H1036 C1050 0.930 . S
H1037 C1052 0.960 . S
H1038 C1052 0.960 . S
H1039 C1052 0.960 . S
C1040 H1032 0.929 . S
C1040 C1041 1.377 . S
C1040 C1042 1.384 . S
C1041 C1040 1.377 . S
C1041 C1047 1.390 . S
C1042 H1033 0.930 . S
C1042 C1040 1.384 . S
C1042 C1043 1.372 . S
C1043 C1042 1.372 . S
C1043 C1044 1.400 . S
C1043 C1048 1.490 . S
C1044 H1034 0.930 . S
C1044 C1043 1.400 . S
C1044 C1047 1.386 . S
H1045 C1061 0.930 . S
H1046 C1062 0.931 . S
C1047 H1035 0.929 . S
C1047 C1041 1.390 . S
C1047 C1044 1.386 . S
C1048 C1043 1.490 . S
C1048 C1050 1.395 . S
C1048 C1051 1.403 . S
H1049 C1055 0.930 . S
C1050 H1036 0.930 . S
C1050 C1048 1.395 . S
C1050 C1053 1.403 . S
C1051 C1048 1.403 . S
C1051 C1052 1.524 . S
C1051 C1055 1.400 . S
C1052 H1037 0.960 . S
C1052 H1038 0.960 . S
C1052 H1039 0.960 . S
C1052 C1051 1.524 . S
C1053 C1050 1.403 . S
C1053 C1054 1.392 . S
C1053 C1057 1.495 . S
C1054 C1053 1.392 . S
C1054 C1055 1.385 . S
C1054 C1056 1.478 . S
C1055 H1049 0.930 . S
C1055 C1051 1.400 . S
C1055 C1054 1.385 . S
C1056 C1054 1.478 . S
C1056 C1058 1.381 . S
C1056 C1062 1.383 . S
C1057 C1053 1.495 . S
C1057 H1063 0.959 . S
C1057 H1064 0.961 . S
C1057 H1065 0.960 . S
C1058 C1056 1.381 . S
C1058 C1059 1.394 . S
C1058 H1066 0.930 . S
C1059 C1058 1.394 . S
C1059 C1060 1.383 . S
C1059 H1067 0.929 . S
C1060 C1059 1.383 . S
C1060 C1061 1.377 . S
C1061 H1045 0.930 . S
C1061 C1060 1.377 . S
C1061 C1062 1.379 . S
C1062 H1046 0.931 . S
C1062 C1056 1.383 . S
C1062 C1061 1.379 . S
H1063 C1057 0.959 . S
H1064 C1057 0.961 . S
H1065 C1057 0.960 . S
H1066 C1058 0.930 . S
H1067 C1059 0.929 . S
H1068 C1076 0.929 . S
H1069 C1078 0.930 . S
H1070 C1080 0.930 . S
H1071 C1083 0.929 . S
H1072 C1086 0.930 . S
H1073 C1088 0.960 . S
H1074 C1088 0.960 . S
H1075 C1088 0.960 . S
C1076 H1068 0.929 . S
C1076 C1077 1.377 . S
C1076 C1078 1.384 . S
C1077 C1076 1.377 . S
C1077 C1083 1.390 . S
C1078 H1069 0.930 . S
C1078 C1076 1.384 . S
C1078 C1079 1.372 . S
C1079 C1078 1.372 . S
C1079 C1080 1.400 . S
C1079 C1084 1.490 . S
C1080 H1070 0.930 . S
C1080 C1079 1.400 . S
C1080 C1083 1.386 . S
H1081 C1097 0.930 . S
H1082 C1098 0.931 . S
C1083 H1071 0.929 . S
C1083 C1077 1.390 . S
C1083 C1080 1.386 . S
C1084 C1079 1.490 . S
C1084 C1086 1.395 . S
C1084 C1087 1.403 . S
H1085 C1091 0.930 . S
C1086 H1072 0.930 . S
C1086 C1084 1.395 . S
C1086 C1089 1.403 . S
C1087 C1084 1.403 . S
C1087 C1088 1.524 . S
C1087 C1091 1.400 . S
C1088 H1073 0.960 . S
C1088 H1074 0.960 . S
C1088 H1075 0.960 . S
C1088 C1087 1.524 . S
C1089 C1086 1.403 . S
C1089 C1090 1.392 . S
C1089 C1093 1.495 . S
C1090 C1089 1.392 . S
C1090 C1091 1.385 . S
C1090 C1092 1.478 . S
C1091 H1085 0.930 . S
C1091 C1087 1.400 . S
C1091 C1090 1.385 . S
C1092 C1090 1.478 . S
C1092 C1094 1.381 . S
C1092 C1098 1.383 . S
C1093 C1089 1.495 . S
C1093 H1099 0.959 . S
C1093 H1100 0.961 . S
C1093 H1101 0.960 . S
C1094 C1092 1.381 . S
C1094 C1095 1.394 . S
C1094 H1102 0.930 . S
C1095 C1094 1.394 . S
C1095 C1096 1.383 . S
C1095 H1103 0.929 . S
C1096 C1095 1.383 . S
C1096 C1097 1.377 . S
C1097 H1081 0.930 . S
C1097 C1096 1.377 . S
C1097 C1098 1.379 . S
C1098 H1082 0.931 . S
C1098 C1092 1.383 . S
C1098 C1097 1.379 . S
H1099 C1093 0.959 . S
H1100 C1093 0.961 . S
H1101 C1093 0.960 . S
H1102 C1094 0.930 . S
H1103 C1095 0.929 . S
H1104 C1112 0.929 . S
H1105 C1114 0.930 . S
H1106 C1116 0.930 . S
H1107 C1119 0.929 . S
H1108 C1122 0.930 . S
H1109 C1124 0.960 . S
H1110 C1124 0.960 . S
H1111 C1124 0.960 . S
C1112 H1104 0.929 . S
C1112 C1113 1.377 . S
C1112 C1114 1.384 . S
C1113 C1112 1.377 . S
C1113 C1119 1.390 . S
C1114 H1105 0.930 . S
C1114 C1112 1.384 . S
C1114 C1115 1.372 . S
C1115 C1114 1.372 . S
C1115 C1116 1.400 . S
C1115 C1120 1.490 . S
C1116 H1106 0.930 . S
C1116 C1115 1.400 . S
C1116 C1119 1.386 . S
H1117 C1133 0.930 . S
H1118 C1134 0.931 . S
C1119 H1107 0.929 . S
C1119 C1113 1.390 . S
C1119 C1116 1.386 . S
C1120 C1115 1.490 . S
C1120 C1122 1.395 . S
C1120 C1123 1.403 . S
H1121 C1127 0.930 . S
C1122 H1108 0.930 . S
C1122 C1120 1.395 . S
C1122 C1125 1.403 . S
C1123 C1120 1.403 . S
C1123 C1124 1.524 . S
C1123 C1127 1.400 . S
C1124 H1109 0.960 . S
C1124 H1110 0.960 . S
C1124 H1111 0.960 . S
C1124 C1123 1.524 . S
C1125 C1122 1.403 . S
C1125 C1126 1.392 . S
C1125 C1129 1.495 . S
C1126 C1125 1.392 . S
C1126 C1127 1.385 . S
C1126 C1128 1.478 . S
C1127 H1121 0.930 . S
C1127 C1123 1.400 . S
C1127 C1126 1.385 . S
C1128 C1126 1.478 . S
C1128 C1130 1.381 . S
C1128 C1134 1.383 . S
C1129 C1125 1.495 . S
C1129 H1135 0.959 . S
C1129 H1136 0.961 . S
C1129 H1137 0.960 . S
C1130 C1128 1.381 . S
C1130 C1131 1.394 . S
C1130 H1138 0.930 . S
C1131 C1130 1.394 . S
C1131 C1132 1.383 . S
C1131 H1139 0.929 . S
C1132 C1131 1.383 . S
C1132 C1133 1.377 . S
C1133 H1117 0.930 . S
C1133 C1132 1.377 . S
C1133 C1134 1.379 . S
C1134 H1118 0.931 . S
C1134 C1128 1.383 . S
C1134 C1133 1.379 . S
H1135 C1129 0.959 . S
H1136 C1129 0.961 . S
H1137 C1129 0.960 . S
H1138 C1130 0.930 . S
H1139 C1131 0.929 . S
H1140 C1148 0.929 . S
H1141 C1150 0.930 . S
H1142 C1152 0.930 . S
H1143 C1155 0.929 . S
H1144 C1158 0.930 . S
H1145 C1160 0.960 . S
H1146 C1160 0.960 . S
H1147 C1160 0.960 . S
C1148 H1140 0.929 . S
C1148 C1149 1.377 . S
C1148 C1150 1.384 . S
C1149 C1148 1.377 . S
C1149 C1155 1.390 . S
C1150 H1141 0.930 . S
C1150 C1148 1.384 . S
C1150 C1151 1.372 . S
C1151 C1150 1.372 . S
C1151 C1152 1.400 . S
C1151 C1156 1.490 . S
C1152 H1142 0.930 . S
C1152 C1151 1.400 . S
C1152 C1155 1.386 . S
H1153 C1169 0.930 . S
H1154 C1170 0.931 . S
C1155 H1143 0.929 . S
C1155 C1149 1.390 . S
C1155 C1152 1.386 . S
C1156 C1151 1.490 . S
C1156 C1158 1.395 . S
C1156 C1159 1.403 . S
H1157 C1163 0.930 . S
C1158 H1144 0.930 . S
C1158 C1156 1.395 . S
C1158 C1161 1.403 . S
C1159 C1156 1.403 . S
C1159 C1160 1.524 . S
C1159 C1163 1.400 . S
C1160 H1145 0.960 . S
C1160 H1146 0.960 . S
C1160 H1147 0.960 . S
C1160 C1159 1.524 . S
C1161 C1158 1.403 . S
C1161 C1162 1.392 . S
C1161 C1165 1.495 . S
C1162 C1161 1.392 . S
C1162 C1163 1.385 . S
C1162 C1164 1.478 . S
C1163 H1157 0.930 . S
C1163 C1159 1.400 . S
C1163 C1162 1.385 . S
C1164 C1162 1.478 . S
C1164 C1166 1.381 . S
C1164 C1170 1.383 . S
C1165 C1161 1.495 . S
C1165 H1171 0.959 . S
C1165 H1172 0.961 . S
C1165 H1173 0.960 . S
C1166 C1164 1.381 . S
C1166 C1167 1.394 . S
C1166 H1174 0.930 . S
C1167 C1166 1.394 . S
C1167 C1168 1.383 . S
C1167 H1175 0.929 . S
C1168 C1167 1.383 . S
C1168 C1169 1.377 . S
C1169 H1153 0.930 . S
C1169 C1168 1.377 . S
C1169 C1170 1.379 . S
C1170 H1154 0.931 . S
C1170 C1164 1.383 . S
C1170 C1169 1.379 . S
H1171 C1165 0.959 . S
H1172 C1165 0.961 . S
H1173 C1165 0.960 . S
H1174 C1166 0.930 . S
H1175 C1167 0.929 . S
H1176 C1184 0.929 . S
H1177 C1186 0.930 . S
H1178 C1188 0.930 . S
H1179 C1191 0.929 . S
H1180 C1194 0.930 . S
H1181 C1196 0.960 . S
H1182 C1196 0.960 . S
H1183 C1196 0.960 . S
C1184 H1176 0.929 . S
C1184 C1185 1.377 . S
C1184 C1186 1.384 . S
C1185 C1184 1.377 . S
C1185 C1191 1.390 . S
C1186 H1177 0.930 . S
C1186 C1184 1.384 . S
C1186 C1187 1.372 . S
C1187 C1186 1.372 . S
C1187 C1188 1.400 . S
C1187 C1192 1.490 . S
C1188 H1178 0.930 . S
C1188 C1187 1.400 . S
C1188 C1191 1.386 . S
H1189 C1205 0.930 . S
H1190 C1206 0.931 . S
C1191 H1179 0.929 . S
C1191 C1185 1.390 . S
C1191 C1188 1.386 . S
C1192 C1187 1.490 . S
C1192 C1194 1.395 . S
C1192 C1195 1.403 . S
H1193 C1199 0.930 . S
C1194 H1180 0.930 . S
C1194 C1192 1.395 . S
C1194 C1197 1.403 . S
C1195 C1192 1.403 . S
C1195 C1196 1.524 . S
C1195 C1199 1.400 . S
C1196 H1181 0.960 . S
C1196 H1182 0.960 . S
C1196 H1183 0.960 . S
C1196 C1195 1.524 . S
C1197 C1194 1.403 . S
C1197 C1198 1.392 . S
C1197 C1201 1.495 . S
C1198 C1197 1.392 . S
C1198 C1199 1.385 . S
C1198 C1200 1.478 . S
C1199 H1193 0.930 . S
C1199 C1195 1.400 . S
C1199 C1198 1.385 . S
C1200 C1198 1.478 . S
C1200 C1202 1.381 . S
C1200 C1206 1.383 . S
C1201 C1197 1.495 . S
C1201 H1207 0.959 . S
C1201 H1208 0.961 . S
C1201 H1209 0.960 . S
C1202 C1200 1.381 . S
C1202 C1203 1.394 . S
C1202 H1210 0.930 . S
C1203 C1202 1.394 . S
C1203 C1204 1.383 . S
C1203 H1211 0.929 . S
C1204 C1203 1.383 . S
C1204 C1205 1.377 . S
C1205 H1189 0.930 . S
C1205 C1204 1.377 . S
C1205 C1206 1.379 . S
C1206 H1190 0.931 . S
C1206 C1200 1.383 . S
C1206 C1205 1.379 . S
H1207 C1201 0.959 . S
H1208 C1201 0.961 . S
H1209 C1201 0.960 . S
H1210 C1202 0.930 . S
H1211 C1203 0.929 . S
H1212 C1220 0.929 . S
H1213 C1222 0.930 . S
H1214 C1224 0.930 . S
H1215 C1227 0.929 . S
H1216 C1230 0.930 . S
H1217 C1232 0.960 . S
H1218 C1232 0.960 . S
H1219 C1232 0.960 . S
C1220 H1212 0.929 . S
C1220 C1221 1.377 . S
C1220 C1222 1.384 . S
C1221 C1220 1.377 . S
C1221 C1227 1.390 . S
C1222 H1213 0.930 . S
C1222 C1220 1.384 . S
C1222 C1223 1.372 . S
C1223 C1222 1.372 . S
C1223 C1224 1.400 . S
C1223 C1228 1.490 . S
C1224 H1214 0.930 . S
C1224 C1223 1.400 . S
C1224 C1227 1.386 . S
H1225 C1241 0.930 . S
H1226 C1242 0.931 . S
C1227 H1215 0.929 . S
C1227 C1221 1.390 . S
C1227 C1224 1.386 . S
C1228 C1223 1.490 . S
C1228 C1230 1.395 . S
C1228 C1231 1.403 . S
H1229 C1235 0.930 . S
C1230 H1216 0.930 . S
C1230 C1228 1.395 . S
C1230 C1233 1.403 . S
C1231 C1228 1.403 . S
C1231 C1232 1.524 . S
C1231 C1235 1.400 . S
C1232 H1217 0.960 . S
C1232 H1218 0.960 . S
C1232 H1219 0.960 . S
C1232 C1231 1.524 . S
C1233 C1230 1.403 . S
C1233 C1234 1.392 . S
C1233 C1237 1.495 . S
C1234 C1233 1.392 . S
C1234 C1235 1.385 . S
C1234 C1236 1.478 . S
C1235 H1229 0.930 . S
C1235 C1231 1.400 . S
C1235 C1234 1.385 . S
C1236 C1234 1.478 . S
C1236 C1238 1.381 . S
C1236 C1242 1.383 . S
C1237 C1233 1.495 . S
C1237 H1243 0.959 . S
C1237 H1244 0.961 . S
C1237 H1245 0.960 . S
C1238 C1236 1.381 . S
C1238 C1239 1.394 . S
C1238 H1246 0.930 . S
C1239 C1238 1.394 . S
C1239 C1240 1.383 . S
C1239 H1247 0.929 . S
C1240 C1239 1.383 . S
C1240 C1241 1.377 . S
C1241 H1225 0.930 . S
C1241 C1240 1.377 . S
C1241 C1242 1.379 . S
C1242 H1226 0.931 . S
C1242 C1236 1.383 . S
C1242 C1241 1.379 . S
H1243 C1237 0.959 . S
H1244 C1237 0.961 . S
H1245 C1237 0.960 . S
H1246 C1238 0.930 . S
H1247 C1239 0.929 . S
H1248 C1256 0.929 . S
H1249 C1258 0.930 . S
H1250 C1260 0.930 . S
H1251 C1263 0.929 . S
H1252 C1266 0.930 . S
H1253 C1268 0.960 . S
H1254 C1268 0.960 . S
H1255 C1268 0.960 . S
C1256 H1248 0.929 . S
C1256 C1257 1.377 . S
C1256 C1258 1.384 . S
C1257 C1256 1.377 . S
C1257 C1263 1.390 . S
C1258 H1249 0.930 . S
C1258 C1256 1.384 . S
C1258 C1259 1.372 . S
C1259 C1258 1.372 . S
C1259 C1260 1.400 . S
C1259 C1264 1.490 . S
C1260 H1250 0.930 . S
C1260 C1259 1.400 . S
C1260 C1263 1.386 . S
H1261 C1277 0.930 . S
H1262 C1278 0.931 . S
C1263 H1251 0.929 . S
C1263 C1257 1.390 . S
C1263 C1260 1.386 . S
C1264 C1259 1.490 . S
C1264 C1266 1.395 . S
C1264 C1267 1.403 . S
H1265 C1271 0.930 . S
C1266 H1252 0.930 . S
C1266 C1264 1.395 . S
C1266 C1269 1.403 . S
C1267 C1264 1.403 . S
C1267 C1268 1.524 . S
C1267 C1271 1.400 . S
C1268 H1253 0.960 . S
C1268 H1254 0.960 . S
C1268 H1255 0.960 . S
C1268 C1267 1.524 . S
C1269 C1266 1.403 . S
C1269 C1270 1.392 . S
C1269 C1273 1.495 . S
C1270 C1269 1.392 . S
C1270 C1271 1.385 . S
C1270 C1272 1.478 . S
C1271 H1265 0.930 . S
C1271 C1267 1.400 . S
C1271 C1270 1.385 . S
C1272 C1270 1.478 . S
C1272 C1274 1.381 . S
C1272 C1278 1.383 . S
C1273 C1269 1.495 . S
C1273 H1279 0.959 . S
C1273 H1280 0.961 . S
C1273 H1281 0.960 . S
C1274 C1272 1.381 . S
C1274 C1275 1.394 . S
C1274 H1282 0.930 . S
C1275 C1274 1.394 . S
C1275 C1276 1.383 . S
C1275 H1283 0.929 . S
C1276 C1275 1.383 . S
C1276 C1277 1.377 . S
C1277 H1261 0.930 . S
C1277 C1276 1.377 . S
C1277 C1278 1.379 . S
C1278 H1262 0.931 . S
C1278 C1272 1.383 . S
C1278 C1277 1.379 . S
H1279 C1273 0.959 . S
H1280 C1273 0.961 . S
H1281 C1273 0.960 . S
H1282 C1274 0.930 . S
H1283 C1275 0.929 . S
H1284 C1292 0.929 . S
H1285 C1294 0.930 . S
H1286 C1296 0.930 . S
H1287 C1299 0.929 . S
H1288 C1302 1.013 . S
H1289 C1304 0.960 . S
H1290 C1304 0.960 . S
H1291 C1304 0.960 . S
C1292 H1284 0.929 . S
C1292 C1293 1.377 . S
C1292 C1294 1.384 . S
C1293 C1292 1.377 . S
C1293 C1299 1.390 1_545 S
C1294 H1285 0.930 . S
C1294 C1292 1.384 . S
C1294 C1295 1.372 1_545 S
C1295 C1294 1.372 1_565 S
C1295 C1296 1.400 . S
C1295 C1300 1.490 . S
C1296 H1286 0.930 . S
C1296 C1295 1.400 . S
C1296 C1299 1.386 . S
H1297 C1313 0.930 . S
H1298 C1314 0.931 . S
C1299 H1287 0.929 . S
C1299 C1293 1.390 1_565 S
C1299 C1296 1.386 . S
C1300 C1295 1.490 . S
C1300 C1302 1.395 . S
C1300 C1303 1.403 . S
H1301 C1307 0.930 . S
C1302 H1288 1.013 . S
C1302 C1300 1.395 . S
C1302 C1305 1.403 . S
C1303 C1300 1.403 . S
C1303 C1304 1.524 . S
C1303 C1307 1.400 . S
C1304 H1289 0.960 . S
C1304 H1290 0.960 . S
C1304 H1291 0.960 . S
C1304 C1303 1.524 . S
C1305 C1302 1.403 . S
C1305 C1306 1.392 . S
C1305 C1309 1.495 . S
C1306 C1305 1.392 . S
C1306 C1307 1.385 . S
C1306 C1308 1.478 . S
C1307 H1301 0.930 . S
C1307 C1303 1.400 . S
C1307 C1306 1.385 . S
C1308 C1306 1.478 . S
C1308 C1310 1.381 . S
C1308 C1314 1.383 . S
C1309 C1305 1.495 . S
C1309 H1315 0.959 . S
C1309 H1316 0.961 . S
C1309 H1317 0.960 . S
C1310 C1308 1.381 . S
C1310 C1311 1.394 . S
C1310 H1318 0.930 . S
C1311 C1310 1.394 . S
C1311 C1312 1.383 . S
C1311 H1319 0.929 . S
C1312 C1311 1.383 . S
C1312 C1313 1.377 . S
C1313 H1297 0.930 . S
C1313 C1312 1.377 . S
C1313 C1314 1.379 . S
C1314 H1298 0.931 . S
C1314 C1308 1.383 . S
C1314 C1313 1.379 . S
H1315 C1309 0.959 . S
H1316 C1309 0.961 . S
H1317 C1309 0.960 . S
H1318 C1310 0.930 . S
H1319 C1311 0.929 . S
H1320 C1328 0.929 . S
H1321 C1330 0.930 . S
H1322 C1332 0.930 . S
H1323 C1335 0.929 . S
H1324 C1338 0.930 . S
H1325 C1340 0.960 . S
H1326 C1340 0.960 . S
H1327 C1340 0.960 . S
C1328 H1320 0.929 . S
C1328 C1329 1.377 . S
C1328 C1330 1.384 . S
C1329 C1328 1.377 . S
C1329 C1335 1.390 . S
C1330 H1321 0.930 . S
C1330 C1328 1.384 . S
C1330 C1331 1.372 . S
C1331 C1330 1.372 . S
C1331 C1332 1.400 . S
C1331 C1336 1.490 . S
C1332 H1322 0.930 . S
C1332 C1331 1.400 . S
C1332 C1335 1.386 . S
H1333 C1349 0.930 . S
H1334 C1350 0.931 . S
C1335 H1323 0.929 . S
C1335 C1329 1.390 . S
C1335 C1332 1.386 . S
C1336 C1331 1.490 . S
C1336 C1338 1.395 . S
C1336 C1339 1.403 . S
H1337 C1343 0.930 . S
C1338 H1324 0.930 . S
C1338 C1336 1.395 . S
C1338 C1341 1.403 . S
C1339 C1336 1.403 . S
C1339 C1340 1.524 . S
C1339 C1343 1.400 . S
C1340 H1325 0.960 . S
C1340 H1326 0.960 . S
C1340 H1327 0.960 . S
C1340 C1339 1.524 . S
C1341 C1338 1.403 . S
C1341 C1342 1.392 . S
C1341 C1345 1.495 . S
C1342 C1341 1.392 . S
C1342 C1343 1.385 . S
C1342 C1344 1.478 . S
C1343 H1337 0.930 . S
C1343 C1339 1.400 . S
C1343 C1342 1.385 . S
C1344 C1342 1.478 . S
C1344 C1346 1.381 . S
C1344 C1350 1.383 . S
C1345 C1341 1.495 . S
C1345 H1351 0.959 . S
C1345 H1352 0.961 . S
C1345 H1353 0.960 . S
C1346 C1344 1.381 . S
C1346 C1347 1.394 . S
C1346 H1354 0.930 . S
C1347 C1346 1.394 . S
C1347 C1348 1.383 . S
C1347 H1355 0.929 . S
C1348 C1347 1.383 . S
C1348 C1349 1.377 . S
C1349 H1333 0.930 . S
C1349 C1348 1.377 . S
C1349 C1350 1.379 . S
C1350 H1334 0.931 . S
C1350 C1344 1.383 . S
C1350 C1349 1.379 . S
H1351 C1345 0.959 . S
H1352 C1345 0.961 . S
H1353 C1345 0.960 . S
H1354 C1346 0.930 . S
H1355 C1347 0.929 . S
H1356 C1364 0.929 . S
H1357 C1366 0.930 . S
H1358 C1368 0.930 . S
H1359 C1371 0.929 . S
H1360 C1374 0.930 . S
H1361 C1376 0.960 . S
H1362 C1376 0.960 . S
H1363 C1376 0.960 . S
C1364 H1356 0.929 . S
C1364 C1365 1.377 . S
C1364 C1366 1.384 . S
C1365 C1364 1.377 . S
C1365 C1371 1.390 . S
C1366 H1357 0.930 . S
C1366 C1364 1.384 . S
C1366 C1367 1.372 . S
C1367 C1366 1.372 . S
C1367 C1368 1.400 . S
C1367 C1372 1.490 . S
C1368 H1358 0.930 . S
C1368 C1367 1.400 . S
C1368 C1371 1.386 . S
H1369 C1385 0.930 . S
H1370 C1386 0.931 . S
C1371 H1359 0.929 . S
C1371 C1365 1.390 . S
C1371 C1368 1.386 . S
C1372 C1367 1.490 . S
C1372 C1374 1.395 . S
C1372 C1375 1.403 . S
H1373 C1379 0.930 . S
C1374 H1360 0.930 . S
C1374 C1372 1.395 . S
C1374 C1377 1.403 . S
C1375 C1372 1.403 . S
C1375 C1376 1.524 . S
C1375 C1379 1.400 . S
C1376 H1361 0.960 . S
C1376 H1362 0.960 . S
C1376 H1363 0.960 . S
C1376 C1375 1.524 . S
C1377 C1374 1.403 . S
C1377 C1378 1.392 . S
C1377 C1381 1.495 . S
C1378 C1377 1.392 . S
C1378 C1379 1.385 . S
C1378 C1380 1.478 . S
C1379 H1373 0.930 . S
C1379 C1375 1.400 . S
C1379 C1378 1.385 . S
C1380 C1378 1.478 . S
C1380 C1382 1.381 . S
C1380 C1386 1.383 . S
C1381 C1377 1.495 . S
C1381 H1387 0.959 . S
C1381 H1388 0.961 . S
C1381 H1389 0.960 . S
C1382 C1380 1.381 . S
C1382 C1383 1.394 . S
C1382 H1390 0.930 . S
C1383 C1382 1.394 . S
C1383 C1384 1.383 . S
C1383 H1391 0.929 . S
C1384 C1383 1.383 . S
C1384 C1385 1.377 . S
C1385 H1369 0.930 . S
C1385 C1384 1.377 . S
C1385 C1386 1.379 . S
C1386 H1370 0.931 . S
C1386 C1380 1.383 . S
C1386 C1385 1.379 . S
H1387 C1381 0.959 . S
H1388 C1381 0.961 . S
H1389 C1381 0.960 . S
H1390 C1382 0.930 . S
H1391 C1383 0.929 . S
H1392 C1400 0.929 . S
H1393 C1402 0.930 . S
H1394 C1404 0.930 . S
H1395 C1407 0.929 . S
H1396 C1410 0.930 . S
H1397 C1412 0.960 . S
H1398 C1412 0.960 . S
H1399 C1412 0.960 . S
C1400 H1392 0.929 . S
C1400 C1401 1.377 . S
C1400 C1402 1.384 . S
C1401 C1400 1.377 . S
C1401 C1407 1.390 . S
C1402 H1393 0.930 . S
C1402 C1400 1.384 . S
C1402 C1403 1.372 . S
C1403 C1402 1.372 . S
C1403 C1404 1.400 . S
C1403 C1408 1.490 . S
C1404 H1394 0.930 . S
C1404 C1403 1.400 . S
C1404 C1407 1.386 . S
H1405 C1421 0.930 . S
H1406 C1422 0.931 . S
C1407 H1395 0.929 . S
C1407 C1401 1.390 . S
C1407 C1404 1.386 . S
C1408 C1403 1.490 . S
C1408 C1410 1.395 . S
C1408 C1411 1.403 . S
H1409 C1415 0.930 . S
C1410 H1396 0.930 . S
C1410 C1408 1.395 . S
C1410 C1413 1.403 . S
C1411 C1408 1.403 . S
C1411 C1412 1.524 . S
C1411 C1415 1.400 . S
C1412 H1397 0.960 . S
C1412 H1398 0.960 . S
C1412 H1399 0.960 . S
C1412 C1411 1.524 . S
C1413 C1410 1.403 . S
C1413 C1414 1.392 . S
C1413 C1417 1.495 . S
C1414 C1413 1.392 . S
C1414 C1415 1.385 . S
C1414 C1416 1.478 . S
C1415 H1409 0.930 . S
C1415 C1411 1.400 . S
C1415 C1414 1.385 . S
C1416 C1414 1.478 . S
C1416 C1418 1.381 . S
C1416 C1422 1.383 . S
C1417 C1413 1.495 . S
C1417 H1423 0.959 . S
C1417 H1424 0.961 . S
C1417 H1425 0.960 . S
C1418 C1416 1.381 . S
C1418 C1419 1.394 . S
C1418 H1426 0.930 . S
C1419 C1418 1.394 . S
C1419 C1420 1.383 . S
C1419 H1427 0.929 . S
C1420 C1419 1.383 . S
C1420 C1421 1.377 . S
C1421 H1405 0.930 . S
C1421 C1420 1.377 . S
C1421 C1422 1.379 . S
C1422 H1406 0.931 . S
C1422 C1416 1.383 . S
C1422 C1421 1.379 . S
H1423 C1417 0.959 . S
H1424 C1417 0.961 . S
H1425 C1417 0.960 . S
H1426 C1418 0.930 . S
H1427 C1419 0.929 . S
H1428 C1436 0.929 . S
H1429 C1438 0.930 . S
H1430 C1440 0.930 . S
H1431 C1443 0.929 . S
H1432 C1446 0.930 . S
H1433 C1448 0.960 . S
H1434 C1448 0.960 . S
H1435 C1448 0.960 . S
C1436 H1428 0.929 . S
C1436 C1437 1.377 . S
C1436 C1438 1.384 . S
C1437 C1436 1.377 . S
C1437 C1443 1.390 . S
C1438 H1429 0.930 . S
C1438 C1436 1.384 . S
C1438 C1439 1.372 . S
C1439 C1438 1.372 . S
C1439 C1440 1.400 . S
C1439 C1444 1.490 . S
C1440 H1430 0.930 . S
C1440 C1439 1.400 . S
C1440 C1443 1.386 . S
H1441 C1457 0.930 . S
H1442 C1458 0.931 . S
C1443 H1431 0.929 . S
C1443 C1437 1.390 . S
C1443 C1440 1.386 . S
C1444 C1439 1.490 . S
C1444 C1446 1.395 . S
C1444 C1447 1.403 . S
H1445 C1451 0.930 . S
C1446 H1432 0.930 . S
C1446 C1444 1.395 . S
C1446 C1449 1.403 . S
C1447 C1444 1.403 . S
C1447 C1448 1.524 . S
C1447 C1451 1.400 . S
C1448 H1433 0.960 . S
C1448 H1434 0.960 . S
C1448 H1435 0.960 . S
C1448 C1447 1.524 . S
C1449 C1446 1.403 . S
C1449 C1450 1.392 . S
C1449 C1453 1.495 . S
C1450 C1449 1.392 . S
C1450 C1451 1.385 . S
C1450 C1452 1.478 . S
C1451 H1445 0.930 . S
C1451 C1447 1.400 . S
C1451 C1450 1.385 . S
C1452 C1450 1.478 . S
C1452 C1454 1.381 . S
C1452 C1458 1.383 . S
C1453 C1449 1.495 . S
C1453 H1459 0.959 . S
C1453 H1460 0.961 . S
C1453 H1461 0.960 . S
C1454 C1452 1.381 . S
C1454 C1455 1.394 . S
C1454 H1462 0.930 . S
C1455 C1454 1.394 . S
C1455 C1456 1.383 . S
C1455 H1463 0.929 . S
C1456 C1455 1.383 . S
C1456 C1457 1.377 . S
C1457 H1441 0.930 . S
C1457 C1456 1.377 . S
C1457 C1458 1.379 . S
C1458 H1442 0.931 . S
C1458 C1452 1.383 . S
C1458 C1457 1.379 . S
H1459 C1453 0.959 . S
H1460 C1453 0.961 . S
H1461 C1453 0.960 . S
H1462 C1454 0.930 . S
H1463 C1455 0.929 . S
H1464 C1472 0.929 . S
H1465 C1474 0.930 . S
H1466 C1476 0.930 . S
H1467 C1479 0.929 . S
H1468 C1482 0.930 . S
H1469 C1484 0.960 . S
H1470 C1484 0.960 . S
H1471 C1484 0.960 . S
C1472 H1464 0.929 . S
C1472 C1473 1.377 . S
C1472 C1474 1.384 . S
C1473 C1472 1.377 . S
C1473 C1479 1.390 . S
C1474 H1465 0.930 . S
C1474 C1472 1.384 . S
C1474 C1475 1.372 . S
C1475 C1474 1.372 . S
C1475 C1476 1.400 . S
C1475 C1480 1.490 . S
C1476 H1466 0.930 . S
C1476 C1475 1.400 . S
C1476 C1479 1.386 . S
H1477 C1493 0.930 . S
H1478 C1494 0.931 . S
C1479 H1467 0.929 . S
C1479 C1473 1.390 . S
C1479 C1476 1.386 . S
C1480 C1475 1.490 . S
C1480 C1482 1.395 . S
C1480 C1483 1.403 . S
H1481 C1487 0.930 . S
C1482 H1468 0.930 . S
C1482 C1480 1.395 . S
C1482 C1485 1.403 . S
C1483 C1480 1.403 . S
C1483 C1484 1.524 . S
C1483 C1487 1.400 . S
C1484 H1469 0.960 . S
C1484 H1470 0.960 . S
C1484 H1471 0.960 . S
C1484 C1483 1.524 . S
C1485 C1482 1.403 . S
C1485 C1486 1.392 . S
C1485 C1489 1.495 . S
C1486 C1485 1.392 . S
C1486 C1487 1.385 . S
C1486 C1488 1.478 . S
C1487 H1481 0.930 . S
C1487 C1483 1.400 . S
C1487 C1486 1.385 . S
C1488 C1486 1.478 . S
C1488 C1490 1.381 . S
C1488 C1494 1.383 . S
C1489 C1485 1.495 . S
C1489 H1495 0.959 . S
C1489 H1496 0.961 . S
C1489 H1497 0.960 . S
C1490 C1488 1.381 . S
C1490 C1491 1.394 . S
C1490 H1498 0.930 . S
C1491 C1490 1.394 . S
C1491 C1492 1.383 . S
C1491 H1499 0.929 . S
C1492 C1491 1.383 . S
C1492 C1493 1.377 . S
C1493 H1477 0.930 . S
C1493 C1492 1.377 . S
C1493 C1494 1.379 . S
C1494 H1478 0.931 . S
C1494 C1488 1.383 . S
C1494 C1493 1.379 . S
H1495 C1489 0.959 . S
H1496 C1489 0.961 . S
H1497 C1489 0.960 . S
H1498 C1490 0.930 . S
H1499 C1491 0.929 . S
H1500 C1508 0.929 . S
H1501 C1510 0.930 . S
H1502 C1512 0.930 . S
H1503 C1515 0.929 . S
H1504 C1518 0.930 . S
H1505 C1520 0.960 . S
H1506 C1520 0.960 . S
H1507 C1520 0.960 . S
C1508 H1500 0.929 . S
C1508 C1509 1.377 . S
C1508 C1510 1.384 . S
C1509 C1508 1.377 . S
C1509 C1515 1.390 . S
C1510 H1501 0.930 . S
C1510 C1508 1.384 . S
C1510 C1511 1.372 . S
C1511 C1510 1.372 . S
C1511 C1512 1.400 . S
C1511 C1516 1.490 . S
C1512 H1502 0.930 . S
C1512 C1511 1.400 . S
C1512 C1515 1.386 . S
H1513 C1529 0.930 . S
H1514 C1530 0.931 . S
C1515 H1503 0.929 . S
C1515 C1509 1.390 . S
C1515 C1512 1.386 . S
C1516 C1511 1.490 . S
C1516 C1518 1.395 . S
C1516 C1519 1.403 . S
H1517 C1523 0.930 . S
C1518 H1504 0.930 . S
C1518 C1516 1.395 . S
C1518 C1521 1.403 . S
C1519 C1516 1.403 . S
C1519 C1520 1.524 . S
C1519 C1523 1.400 . S
C1520 H1505 0.960 . S
C1520 H1506 0.960 . S
C1520 H1507 0.960 . S
C1520 C1519 1.524 . S
C1521 C1518 1.403 . S
C1521 C1522 1.392 . S
C1521 C1525 1.495 . S
C1522 C1521 1.392 . S
C1522 C1523 1.385 . S
C1522 C1524 1.478 . S
C1523 H1517 0.930 . S
C1523 C1519 1.400 . S
C1523 C1522 1.385 . S
C1524 C1522 1.478 . S
C1524 C1526 1.381 . S
C1524 C1530 1.383 . S
C1525 C1521 1.495 . S
C1525 H1531 0.959 . S
C1525 H1532 0.961 . S
C1525 H1533 0.960 . S
C1526 C1524 1.381 . S
C1526 C1527 1.394 . S
C1526 H1534 0.930 . S
C1527 C1526 1.394 . S
C1527 C1528 1.383 . S
C1527 H1535 0.929 . S
C1528 C1527 1.383 . S
C1528 C1529 1.377 . S
C1529 H1513 0.930 . S
C1529 C1528 1.377 . S
C1529 C1530 1.379 . S
C1530 H1514 0.931 . S
C1530 C1524 1.383 . S
C1530 C1529 1.379 . S
H1531 C1525 0.959 . S
H1532 C1525 0.961 . S
H1533 C1525 0.960 . S
H1534 C1526 0.930 . S
H1535 C1527 0.929 . S
H1536 C1544 0.929 . S
H1537 C1546 0.930 . S
H1538 C1548 0.930 . S
H1539 C1551 0.929 . S
H1540 C1554 0.930 . S
H1541 C1556 0.960 . S
H1542 C1556 0.960 . S
H1543 C1556 0.960 . S
C1544 H1536 0.929 . S
C1544 C1545 1.377 . S
C1544 C1546 1.384 . S
C1545 C1544 1.377 . S
C1545 C1551 1.390 . S
C1546 H1537 0.930 . S
C1546 C1544 1.384 . S
C1546 C1547 1.372 . S
C1547 C1546 1.372 . S
C1547 C1548 1.400 . S
C1547 C1552 1.490 . S
C1548 H1538 0.930 . S
C1548 C1547 1.400 . S
C1548 C1551 1.386 . S
H1549 C1565 0.930 . S
H1550 C1566 0.931 . S
C1551 H1539 0.929 . S
C1551 C1545 1.390 . S
C1551 C1548 1.386 . S
C1552 C1547 1.490 . S
C1552 C1554 1.395 . S
C1552 C1555 1.403 . S
H1553 C1559 0.930 . S
C1554 H1540 0.930 . S
C1554 C1552 1.395 . S
C1554 C1557 1.403 . S
C1555 C1552 1.403 . S
C1555 C1556 1.524 . S
C1555 C1559 1.400 . S
C1556 H1541 0.960 . S
C1556 H1542 0.960 . S
C1556 H1543 0.960 . S
C1556 C1555 1.524 . S
C1557 C1554 1.403 . S
C1557 C1558 1.392 . S
C1557 C1561 1.495 . S
C1558 C1557 1.392 . S
C1558 C1559 1.385 . S
C1558 C1560 1.478 . S
C1559 H1553 0.930 . S
C1559 C1555 1.400 . S
C1559 C1558 1.385 . S
C1560 C1558 1.478 . S
C1560 C1562 1.381 . S
C1560 C1566 1.383 . S
C1561 C1557 1.495 . S
C1561 H1567 0.959 . S
C1561 H1568 0.961 . S
C1561 H1569 0.960 . S
C1562 C1560 1.381 . S
C1562 C1563 1.394 . S
C1562 H1570 0.930 . S
C1563 C1562 1.394 . S
C1563 C1564 1.383 . S
C1563 H1571 0.929 . S
C1564 C1563 1.383 . S
C1564 C1565 1.377 . S
C1565 H1549 0.930 . S
C1565 C1564 1.377 . S
C1565 C1566 1.379 . S
C1566 H1550 0.931 . S
C1566 C1560 1.383 . S
C1566 C1565 1.379 . S
H1567 C1561 0.959 . S
H1568 C1561 0.961 . S
H1569 C1561 0.960 . S
H1570 C1562 0.930 . S
H1571 C1563 0.929 . S
H1572 C1580 0.929 . S
H1573 C1582 0.930 . S
H1574 C1584 0.930 . S
H1575 C1587 0.929 . S
H1576 C1590 0.930 . S
H1577 C1592 0.960 . S
H1578 C1592 0.960 . S
H1579 C1592 0.960 . S
C1580 H1572 0.929 . S
C1580 C1581 1.377 . S
C1580 C1582 1.384 . S
C1581 C1580 1.377 . S
C1581 C1587 1.390 . S
C1582 H1573 0.930 . S
C1582 C1580 1.384 . S
C1582 C1583 1.372 . S
C1583 C1582 1.372 . S
C1583 C1584 1.400 . S
C1583 C1588 1.490 . S
C1584 H1574 0.930 . S
C1584 C1583 1.400 . S
C1584 C1587 1.386 . S
H1585 C1601 0.930 . S
H1586 C1602 0.931 . S
C1587 H1575 0.929 . S
C1587 C1581 1.390 . S
C1587 C1584 1.386 . S
C1588 C1583 1.490 . S
C1588 C1590 1.395 . S
C1588 C1591 1.403 . S
H1589 C1595 0.930 . S
C1590 H1576 0.930 . S
C1590 C1588 1.395 . S
C1590 C1593 1.403 . S
C1591 C1588 1.403 . S
C1591 C1592 1.524 . S
C1591 C1595 1.400 . S
C1592 H1577 0.960 . S
C1592 H1578 0.960 . S
C1592 H1579 0.960 . S
C1592 C1591 1.524 . S
C1593 C1590 1.403 . S
C1593 C1594 1.392 . S
C1593 C1597 1.495 . S
C1594 C1593 1.392 . S
C1594 C1595 1.385 . S
C1594 C1596 1.478 . S
C1595 H1589 0.930 . S
C1595 C1591 1.400 . S
C1595 C1594 1.385 . S
C1596 C1594 1.478 . S
C1596 C1598 1.381 . S
C1596 C1602 1.383 . S
C1597 C1593 1.495 . S
C1597 H1603 0.959 . S
C1597 H1604 0.961 . S
C1597 H1605 0.960 . S
C1598 C1596 1.381 . S
C1598 C1599 1.394 . S
C1598 H1606 0.930 . S
C1599 C1598 1.394 . S
C1599 C1600 1.383 . S
C1599 H1607 0.929 . S
C1600 C1599 1.383 . S
C1600 C1601 1.377 . S
C1601 H1585 0.930 . S
C1601 C1600 1.377 . S
C1601 C1602 1.379 . S
C1602 H1586 0.931 . S
C1602 C1596 1.383 . S
C1602 C1601 1.379 . S
H1603 C1597 0.959 . S
H1604 C1597 0.961 . S
H1605 C1597 0.960 . S
H1606 C1598 0.930 . S
H1607 C1599 0.929 . S
H1608 C1616 0.929 . S
H1609 C1618 0.930 . S
H1610 C1620 0.930 . S
H1611 C1623 0.929 . S
H1612 C1626 0.930 . S
H1613 C1628 0.960 . S
H1614 C1628 0.960 . S
H1615 C1628 0.960 . S
C1616 H1608 0.929 . S
C1616 C1617 1.377 . S
C1616 C1618 1.384 . S
C1617 C1616 1.377 . S
C1617 C1623 1.390 . S
C1618 H1609 0.930 . S
C1618 C1616 1.384 . S
C1618 C1619 1.372 . S
C1619 C1618 1.372 . S
C1619 C1620 1.400 . S
C1619 C1624 1.490 . S
C1620 H1610 0.930 . S
C1620 C1619 1.400 . S
C1620 C1623 1.386 . S
H1621 C1637 0.930 . S
H1622 C1638 0.931 . S
C1623 H1611 0.929 . S
C1623 C1617 1.390 . S
C1623 C1620 1.386 . S
C1624 C1619 1.490 . S
C1624 C1626 1.395 . S
C1624 C1627 1.403 . S
H1625 C1631 0.930 . S
C1626 H1612 0.930 . S
C1626 C1624 1.395 . S
C1626 C1629 1.403 . S
C1627 C1624 1.403 . S
C1627 C1628 1.524 . S
C1627 C1631 1.400 . S
C1628 H1613 0.960 . S
C1628 H1614 0.960 . S
C1628 H1615 0.960 . S
C1628 C1627 1.524 . S
C1629 C1626 1.403 . S
C1629 C1630 1.392 . S
C1629 C1633 1.495 . S
C1630 C1629 1.392 . S
C1630 C1631 1.385 . S
C1630 C1632 1.478 . S
C1631 H1625 0.930 . S
C1631 C1627 1.400 . S
C1631 C1630 1.385 . S
C1632 C1630 1.478 . S
C1632 C1634 1.381 . S
C1632 C1638 1.383 . S
C1633 C1629 1.495 . S
C1633 H1639 0.959 . S
C1633 H1640 0.961 . S
C1633 H1641 0.960 . S
C1634 C1632 1.381 . S
C1634 C1635 1.394 . S
C1634 H1642 0.930 . S
C1635 C1634 1.394 . S
C1635 C1636 1.383 . S
C1635 H1643 0.929 . S
C1636 C1635 1.383 . S
C1636 C1637 1.377 . S
C1637 H1621 0.930 . S
C1637 C1636 1.377 . S
C1637 C1638 1.379 . S
C1638 H1622 0.931 . S
C1638 C1632 1.383 . S
C1638 C1637 1.379 . S
H1639 C1633 0.959 . S
H1640 C1633 0.961 . S
H1641 C1633 0.960 . S
H1642 C1634 0.930 . S
H1643 C1635 0.929 . S
H1644 C1652 0.929 . S
H1645 C1654 0.930 . S
H1646 C1656 0.930 . S
H1647 C1659 0.929 . S
H1648 C1662 0.930 . S
H1649 C1664 0.960 . S
H1650 C1664 0.960 . S
H1651 C1664 0.960 . S
C1652 H1644 0.929 . S
C1652 C1653 1.377 . S
C1652 C1654 1.384 . S
C1653 C1652 1.377 . S
C1653 C1659 1.390 . S
C1654 H1645 0.930 . S
C1654 C1652 1.384 . S
C1654 C1655 1.372 . S
C1655 C1654 1.372 . S
C1655 C1656 1.400 . S
C1655 C1660 1.490 . S
C1656 H1646 0.930 . S
C1656 C1655 1.400 . S
C1656 C1659 1.386 . S
H1657 C1673 0.930 . S
H1658 C1674 0.931 . S
C1659 H1647 0.929 . S
C1659 C1653 1.390 . S
C1659 C1656 1.386 . S
C1660 C1655 1.490 . S
C1660 C1662 1.395 . S
C1660 C1663 1.403 . S
H1661 C1667 0.930 . S
C1662 H1648 0.930 . S
C1662 C1660 1.395 . S
C1662 C1665 1.403 . S
C1663 C1660 1.403 . S
C1663 C1664 1.524 . S
C1663 C1667 1.400 . S
C1664 H1649 0.960 . S
C1664 H1650 0.960 . S
C1664 H1651 0.960 . S
C1664 C1663 1.524 . S
C1665 C1662 1.403 . S
C1665 C1666 1.392 . S
C1665 C1669 1.495 . S
C1666 C1665 1.392 . S
C1666 C1667 1.385 . S
C1666 C1668 1.478 . S
C1667 H1661 0.930 . S
C1667 C1663 1.400 . S
C1667 C1666 1.385 . S
C1668 C1666 1.478 . S
C1668 C1670 1.381 . S
C1668 C1674 1.383 . S
C1669 C1665 1.495 . S
C1669 H1675 0.959 . S
C1669 H1676 0.961 . S
C1669 H1677 0.960 . S
C1670 C1668 1.381 . S
C1670 C1671 1.394 . S
C1670 H1678 0.930 . S
C1671 C1670 1.394 . S
C1671 C1672 1.383 . S
C1671 H1679 0.929 . S
C1672 C1671 1.383 . S
C1672 C1673 1.377 . S
C1673 H1657 0.930 . S
C1673 C1672 1.377 . S
C1673 C1674 1.379 . S
C1674 H1658 0.931 . S
C1674 C1668 1.383 . S
C1674 C1673 1.379 . S
H1675 C1669 0.959 . S
H1676 C1669 0.961 . S
H1677 C1669 0.960 . S
H1678 C1670 0.930 . S
H1679 C1671 0.929 . S
H1680 C1688 0.929 . S
H1681 C1690 0.930 . S
H1682 C1692 0.930 . S
H1683 C1695 0.929 . S
H1684 C1698 0.930 . S
H1685 C1700 0.960 . S
H1686 C1700 0.960 . S
H1687 C1700 0.960 . S
C1688 H1680 0.929 . S
C1688 C1689 1.377 . S
C1688 C1690 1.384 . S
C1689 C1688 1.377 . S
C1689 C1695 1.390 . S
C1690 H1681 0.930 . S
C1690 C1688 1.384 . S
C1690 C1691 1.372 . S
C1691 C1690 1.372 . S
C1691 C1692 1.400 . S
C1691 C1696 1.490 . S
C1692 H1682 0.930 . S
C1692 C1691 1.400 . S
C1692 C1695 1.386 . S
H1693 C1709 0.930 . S
H1694 C1710 0.931 . S
C1695 H1683 0.929 . S
C1695 C1689 1.390 . S
C1695 C1692 1.386 . S
C1696 C1691 1.490 . S
C1696 C1698 1.395 . S
C1696 C1699 1.403 . S
H1697 C1703 0.930 . S
C1698 H1684 0.930 . S
C1698 C1696 1.395 . S
C1698 C1701 1.403 . S
C1699 C1696 1.403 . S
C1699 C1700 1.524 . S
C1699 C1703 1.400 . S
C1700 H1685 0.960 . S
C1700 H1686 0.960 . S
C1700 H1687 0.960 . S
C1700 C1699 1.524 . S
C1701 C1698 1.403 . S
C1701 C1702 1.392 . S
C1701 C1705 1.495 . S
C1702 C1701 1.392 . S
C1702 C1703 1.385 . S
C1702 C1704 1.478 . S
C1703 H1697 0.930 . S
C1703 C1699 1.400 . S
C1703 C1702 1.385 . S
C1704 C1702 1.478 . S
C1704 C1706 1.381 . S
C1704 C1710 1.383 . S
C1705 C1701 1.495 . S
C1705 H1711 0.959 . S
C1705 H1712 0.961 . S
C1705 H1713 0.960 . S
C1706 C1704 1.381 . S
C1706 C1707 1.394 . S
C1706 H1714 0.930 . S
C1707 C1706 1.394 . S
C1707 C1708 1.383 . S
C1707 H1715 0.929 . S
C1708 C1707 1.383 . S
C1708 C1709 1.377 . S
C1709 H1693 0.930 . S
C1709 C1708 1.377 . S
C1709 C1710 1.379 . S
C1710 H1694 0.931 . S
C1710 C1704 1.383 . S
C1710 C1709 1.379 . S
H1711 C1705 0.959 . S
H1712 C1705 0.961 . S
H1713 C1705 0.960 . S
H1714 C1706 0.930 . S
H1715 C1707 0.929 . S
H1716 C1724 0.929 . S
H1717 C1726 0.930 . S
H1718 C1728 0.930 . S
H1719 C1731 0.929 . S
H1720 C1734 0.930 . S
H1721 C1736 0.960 . S
H1722 C1736 0.960 . S
H1723 C1736 0.960 . S
C1724 H1716 0.929 . S
C1724 C1725 1.377 . S
C1724 C1726 1.384 . S
C1725 C1724 1.377 . S
C1725 C1731 1.390 . S
C1726 H1717 0.930 . S
C1726 C1724 1.384 . S
C1726 C1727 1.372 . S
C1727 C1726 1.372 . S
C1727 C1728 1.400 . S
C1727 C1732 1.490 . S
C1728 H1718 0.930 . S
C1728 C1727 1.400 . S
C1728 C1731 1.386 . S
H1729 C1745 0.930 . S
H1730 C1746 0.931 . S
C1731 H1719 0.929 . S
C1731 C1725 1.390 . S
C1731 C1728 1.386 . S
C1732 C1727 1.490 . S
C1732 C1734 1.395 . S
C1732 C1735 1.403 . S
H1733 C1739 0.930 . S
C1734 H1720 0.930 . S
C1734 C1732 1.395 . S
C1734 C1737 1.403 . S
C1735 C1732 1.403 . S
C1735 C1736 1.524 . S
C1735 C1739 1.400 . S
C1736 H1721 0.960 . S
C1736 H1722 0.960 . S
C1736 H1723 0.960 . S
C1736 C1735 1.524 . S
C1737 C1734 1.403 . S
C1737 C1738 1.392 . S
C1737 C1741 1.495 . S
C1738 C1737 1.392 . S
C1738 C1739 1.385 . S
C1738 C1740 1.478 . S
C1739 H1733 0.930 . S
C1739 C1735 1.400 . S
C1739 C1738 1.385 . S
C1740 C1738 1.478 . S
C1740 C1742 1.381 . S
C1740 C1746 1.383 . S
C1741 C1737 1.495 . S
C1741 H1747 0.959 . S
C1741 H1748 0.961 . S
C1741 H1749 0.960 . S
C1742 C1740 1.381 . S
C1742 C1743 1.394 . S
C1742 H1750 0.930 . S
C1743 C1742 1.394 . S
C1743 C1744 1.383 . S
C1743 H1751 0.929 . S
C1744 C1743 1.383 . S
C1744 C1745 1.377 . S
C1745 H1729 0.930 . S
C1745 C1744 1.377 . S
C1745 C1746 1.379 . S
C1746 H1730 0.931 . S
C1746 C1740 1.383 . S
C1746 C1745 1.379 . S
H1747 C1741 0.959 . S
H1748 C1741 0.961 . S
H1749 C1741 0.960 . S
H1750 C1742 0.930 . S
H1751 C1743 0.929 . S
H1752 C1760 0.929 . S
H1753 C1762 0.930 . S
H1754 C1764 0.930 . S
H1755 C1767 0.929 . S
H1756 C1770 0.930 . S
H1757 C1772 0.960 . S
H1758 C1772 0.960 . S
H1759 C1772 0.960 . S
C1760 H1752 0.929 . S
C1760 C1761 1.377 . S
C1760 C1762 1.384 . S
C1761 C1760 1.377 . S
C1761 C1767 1.390 . S
C1762 H1753 0.930 . S
C1762 C1760 1.384 . S
C1762 C1763 1.372 . S
C1763 C1762 1.372 . S
C1763 C1764 1.400 . S
C1763 C1768 1.490 . S
C1764 H1754 0.930 . S
C1764 C1763 1.400 . S
C1764 C1767 1.386 . S
H1765 C1781 0.930 . S
H1766 C1782 0.931 . S
C1767 H1755 0.929 . S
C1767 C1761 1.390 . S
C1767 C1764 1.386 . S
C1768 C1763 1.490 . S
C1768 C1770 1.395 . S
C1768 C1771 1.403 . S
H1769 C1775 0.930 . S
C1770 H1756 0.930 . S
C1770 C1768 1.395 . S
C1770 C1773 1.403 . S
C1771 C1768 1.403 . S
C1771 C1772 1.524 . S
C1771 C1775 1.400 . S
C1772 H1757 0.960 . S
C1772 H1758 0.960 . S
C1772 H1759 0.960 . S
C1772 C1771 1.524 . S
C1773 C1770 1.403 . S
C1773 C1774 1.392 . S
C1773 C1777 1.495 . S
C1774 C1773 1.392 . S
C1774 C1775 1.385 . S
C1774 C1776 1.478 . S
C1775 H1769 0.930 . S
C1775 C1771 1.400 . S
C1775 C1774 1.385 . S
C1776 C1774 1.478 . S
C1776 C1778 1.381 . S
C1776 C1782 1.383 . S
C1777 C1773 1.495 . S
C1777 H1783 0.959 . S
C1777 H1784 0.961 . S
C1777 H1785 0.960 . S
C1778 C1776 1.381 . S
C1778 C1779 1.394 . S
C1778 H1786 0.930 . S
C1779 C1778 1.394 . S
C1779 C1780 1.383 . S
C1779 H1787 0.929 . S
C1780 C1779 1.383 . S
C1780 C1781 1.377 . S
C1781 H1765 0.930 . S
C1781 C1780 1.377 . S
C1781 C1782 1.379 . S
C1782 H1766 0.931 . S
C1782 C1776 1.383 . S
C1782 C1781 1.379 . S
H1783 C1777 0.959 . S
H1784 C1777 0.961 . S
H1785 C1777 0.960 . S
H1786 C1778 0.930 . S
H1787 C1779 0.929 . S
H1788 C1796 0.929 . S
H1789 C1798 0.930 . S
H1790 C1800 0.930 . S
H1791 C1803 0.929 . S
H1792 C1806 0.930 . S
H1793 C1808 0.960 . S
H1794 C1808 0.960 . S
H1795 C1808 0.960 . S
C1796 H1788 0.929 . S
C1796 C1797 1.377 . S
C1796 C1798 1.384 . S
C1797 C1796 1.377 . S
C1797 C1803 1.390 . S
C1798 H1789 0.930 . S
C1798 C1796 1.384 . S
C1798 C1799 1.372 . S
C1799 C1798 1.372 . S
C1799 C1800 1.400 . S
C1799 C1804 1.490 . S
C1800 H1790 0.930 . S
C1800 C1799 1.400 . S
C1800 C1803 1.386 . S
H1801 C1817 0.930 . S
H1802 C1818 0.931 . S
C1803 H1791 0.929 . S
C1803 C1797 1.390 . S
C1803 C1800 1.386 . S
C1804 C1799 1.490 . S
C1804 C1806 1.395 . S
C1804 C1807 1.403 . S
H1805 C1811 0.930 . S
C1806 H1792 0.930 . S
C1806 C1804 1.395 . S
C1806 C1809 1.403 . S
C1807 C1804 1.403 . S
C1807 C1808 1.524 . S
C1807 C1811 1.400 . S
C1808 H1793 0.960 . S
C1808 H1794 0.960 . S
C1808 H1795 0.960 . S
C1808 C1807 1.524 . S
C1809 C1806 1.403 . S
C1809 C1810 1.392 . S
C1809 C1813 1.495 . S
C1810 C1809 1.392 . S
C1810 C1811 1.385 . S
C1810 C1812 1.478 . S
C1811 H1805 0.930 . S
C1811 C1807 1.400 . S
C1811 C1810 1.385 . S
C1812 C1810 1.478 . S
C1812 C1814 1.381 . S
C1812 C1818 1.383 . S
C1813 C1809 1.495 . S
C1813 H1819 0.959 . S
C1813 H1820 0.961 . S
C1813 H1821 0.960 . S
C1814 C1812 1.381 . S
C1814 C1815 1.394 . S
C1814 H1822 0.930 . S
C1815 C1814 1.394 . S
C1815 C1816 1.383 . S
C1815 H1823 0.929 . S
C1816 C1815 1.383 . S
C1816 C1817 1.377 . S
C1817 H1801 0.930 . S
C1817 C1816 1.377 . S
C1817 C1818 1.379 . S
C1818 H1802 0.931 . S
C1818 C1812 1.383 . S
C1818 C1817 1.379 . S
H1819 C1813 0.959 . S
H1820 C1813 0.961 . S
H1821 C1813 0.960 . S
H1822 C1814 0.930 . S
H1823 C1815 0.929 . S
H1824 C1832 0.929 1_655 S
H1825 C1834 0.939 . S
H1826 C1836 0.930 . S
H1827 C1839 0.929 . S
H1828 C1842 0.930 . S
H1829 C1844 0.960 . S
H1830 C1844 0.960 . S
H1831 C1844 0.960 . S
C1832 H1824 0.929 1_455 S
C1832 C1833 1.377 . S
C1832 C1834 1.384 . S
C1833 C1832 1.377 . S
C1833 C1839 1.390 . S
C1834 H1825 0.939 . S
C1834 C1832 1.384 . S
C1834 C1835 1.372 . S
C1835 C1834 1.372 . S
C1835 C1836 1.400 . S
C1835 C1840 1.490 . S
C1836 H1826 0.930 . S
C1836 C1835 1.400 . S
C1836 C1839 1.386 . S
H1837 C1853 0.930 . S
H1838 C1854 0.931 . S
C1839 H1827 0.929 . S
C1839 C1833 1.390 . S
C1839 C1836 1.386 . S
C1840 C1835 1.490 . S
C1840 C1842 1.395 . S
C1840 C1843 1.403 . S
H1841 C1847 0.930 . S
C1842 H1828 0.930 . S
C1842 C1840 1.395 . S
C1842 C1845 1.403 . S
C1843 C1840 1.403 . S
C1843 C1844 1.524 1_455 S
C1843 C1847 1.400 . S
C1844 H1829 0.960 . S
C1844 H1830 0.960 . S
C1844 H1831 0.960 . S
C1844 C1843 1.524 1_655 S
C1845 C1842 1.403 . S
C1845 C1846 1.392 . S
C1845 C1849 1.495 . S
C1846 C1845 1.392 . S
C1846 C1847 1.385 . S
C1846 C1848 1.478 . S
C1847 H1841 0.930 . S
C1847 C1843 1.400 . S
C1847 C1846 1.385 . S
C1848 C1846 1.478 . S
C1848 C1850 1.381 . S
C1848 C1854 1.383 . S
C1849 C1845 1.495 . S
C1849 H1855 0.959 . S
C1849 H1856 0.961 . S
C1849 H1857 0.960 . S
C1850 C1848 1.381 . S
C1850 C1851 1.394 . S
C1850 H1858 0.930 . S
C1851 C1850 1.394 . S
C1851 C1852 1.383 . S
C1851 H1859 0.929 . S
C1852 C1851 1.383 . S
C1852 C1853 1.377 . S
C1853 H1837 0.930 . S
C1853 C1852 1.377 . S
C1853 C1854 1.379 . S
C1854 H1838 0.931 . S
C1854 C1848 1.383 . S
C1854 C1853 1.379 . S
H1855 C1849 0.959 . S
H1856 C1849 0.961 . S
H1857 C1849 0.960 . S
H1858 C1850 0.930 . S
H1859 C1851 0.929 . S
H1860 C1868 0.929 . S
H1861 C1870 0.930 . S
H1862 C1872 0.930 . S
H1863 C1875 0.929 . S
H1864 C1878 0.930 . S
H1865 C1880 0.960 . S
H1866 C1880 0.960 . S
H1867 C1880 0.960 . S
C1868 H1860 0.929 . S
C1868 C1869 1.377 . S
C1868 C1870 1.384 . S
C1869 C1868 1.377 . S
C1869 C1875 1.390 . S
C1870 H1861 0.930 . S
C1870 C1868 1.384 . S
C1870 C1871 1.372 . S
C1871 C1870 1.372 . S
C1871 C1872 1.400 . S
C1871 C1876 1.490 . S
C1872 H1862 0.930 . S
C1872 C1871 1.400 . S
C1872 C1875 1.386 . S
H1873 C1889 0.930 . S
H1874 C1890 0.931 . S
C1875 H1863 0.929 . S
C1875 C1869 1.390 . S
C1875 C1872 1.386 . S
C1876 C1871 1.490 . S
C1876 C1878 1.395 . S
C1876 C1879 1.403 . S
H1877 C1883 0.930 . S
C1878 H1864 0.930 . S
C1878 C1876 1.395 . S
C1878 C1881 1.403 . S
C1879 C1876 1.403 . S
C1879 C1880 1.524 . S
C1879 C1883 1.400 . S
C1880 H1865 0.960 . S
C1880 H1866 0.960 . S
C1880 H1867 0.960 . S
C1880 C1879 1.524 . S
C1881 C1878 1.403 . S
C1881 C1882 1.392 . S
C1881 C1885 1.495 . S
C1882 C1881 1.392 . S
C1882 C1883 1.385 . S
C1882 C1884 1.478 . S
C1883 H1877 0.930 . S
C1883 C1879 1.400 . S
C1883 C1882 1.385 . S
C1884 C1882 1.478 . S
C1884 C1886 1.381 . S
C1884 C1890 1.383 . S
C1885 C1881 1.495 . S
C1885 H1891 0.959 . S
C1885 H1892 0.961 . S
C1885 H1893 0.960 . S
C1886 C1884 1.381 . S
C1886 C1887 1.394 . S
C1886 H1894 0.930 . S
C1887 C1886 1.394 . S
C1887 C1888 1.383 . S
C1887 H1895 0.929 . S
C1888 C1887 1.383 . S
C1888 C1889 1.377 . S
C1889 H1873 0.930 . S
C1889 C1888 1.377 . S
C1889 C1890 1.379 . S
C1890 H1874 0.931 . S
C1890 C1884 1.383 . S
C1890 C1889 1.379 . S
H1891 C1885 0.959 . S
H1892 C1885 0.961 . S
H1893 C1885 0.960 . S
H1894 C1886 0.930 . S
H1895 C1887 0.929 . S
H1896 C1904 0.929 . S
H1897 C1906 0.930 . S
H1898 C1908 0.930 . S
H1899 C1911 0.929 . S
H1900 C1914 0.930 . S
H1901 C1916 0.960 . S
H1902 C1916 0.960 . S
H1903 C1916 0.960 . S
C1904 H1896 0.929 . S
C1904 C1905 1.377 . S
C1904 C1906 1.384 . S
C1905 C1904 1.377 . S
C1905 C1911 1.390 . S
C1906 H1897 0.930 . S
C1906 C1904 1.384 . S
C1906 C1907 1.372 . S
C1907 C1906 1.372 . S
C1907 C1908 1.400 . S
C1907 C1912 1.490 . S
C1908 H1898 0.930 . S
C1908 C1907 1.400 . S
C1908 C1911 1.386 . S
H1909 C1925 0.930 . S
H1910 C1926 0.931 . S
C1911 H1899 0.929 . S
C1911 C1905 1.390 . S
C1911 C1908 1.386 . S
C1912 C1907 1.490 . S
C1912 C1914 1.395 . S
C1912 C1915 1.403 . S
H1913 C1919 0.930 . S
C1914 H1900 0.930 . S
C1914 C1912 1.395 . S
C1914 C1917 1.403 . S
C1915 C1912 1.403 . S
C1915 C1916 1.524 . S
C1915 C1919 1.400 . S
C1916 H1901 0.960 . S
C1916 H1902 0.960 . S
C1916 H1903 0.960 . S
C1916 C1915 1.524 . S
C1917 C1914 1.403 . S
C1917 C1918 1.392 . S
C1917 C1921 1.495 . S
C1918 C1917 1.392 . S
C1918 C1919 1.385 . S
C1918 C1920 1.478 . S
C1919 H1913 0.930 . S
C1919 C1915 1.400 . S
C1919 C1918 1.385 . S
C1920 C1918 1.478 . S
C1920 C1922 1.381 . S
C1920 C1926 1.383 . S
C1921 C1917 1.495 . S
C1921 H1927 0.959 . S
C1921 H1928 0.961 . S
C1921 H1929 0.960 . S
C1922 C1920 1.381 . S
C1922 C1923 1.394 . S
C1922 H1930 0.930 . S
C1923 C1922 1.394 . S
C1923 C1924 1.383 . S
C1923 H1931 0.929 . S
C1924 C1923 1.383 . S
C1924 C1925 1.377 . S
C1925 H1909 0.930 . S
C1925 C1924 1.377 . S
C1925 C1926 1.379 . S
C1926 H1910 0.931 . S
C1926 C1920 1.383 . S
C1926 C1925 1.379 . S
H1927 C1921 0.959 . S
H1928 C1921 0.961 . S
H1929 C1921 0.960 . S
H1930 C1922 0.930 . S
H1931 C1923 0.929 . S
H1932 C1940 0.929 . S
H1933 C1942 0.930 . S
H1934 C1944 0.930 . S
H1935 C1947 0.929 . S
H1936 C1950 0.930 . S
H1937 C1952 0.960 . S
H1938 C1952 0.960 . S
H1939 C1952 0.960 . S
C1940 H1932 0.929 . S
C1940 C1941 1.377 . S
C1940 C1942 1.384 . S
C1941 C1940 1.377 . S
C1941 C1947 1.390 . S
C1942 H1933 0.930 . S
C1942 C1940 1.384 . S
C1942 C1943 1.372 . S
C1943 C1942 1.372 . S
C1943 C1944 1.400 . S
C1943 C1948 1.490 . S
C1944 H1934 0.930 . S
C1944 C1943 1.400 . S
C1944 C1947 1.386 . S
H1945 C1961 0.930 . S
H1946 C1962 0.931 . S
C1947 H1935 0.929 . S
C1947 C1941 1.390 . S
C1947 C1944 1.386 . S
C1948 C1943 1.490 . S
C1948 C1950 1.395 . S
C1948 C1951 1.403 . S
H1949 C1955 0.930 . S
C1950 H1936 0.930 . S
C1950 C1948 1.395 . S
C1950 C1953 1.403 . S
C1951 C1948 1.403 . S
C1951 C1952 1.524 . S
C1951 C1955 1.400 . S
C1952 H1937 0.960 . S
C1952 H1938 0.960 . S
C1952 H1939 0.960 . S
C1952 C1951 1.524 . S
C1953 C1950 1.403 . S
C1953 C1954 1.392 . S
C1953 C1957 1.495 . S
C1954 C1953 1.392 . S
C1954 C1955 1.385 . S
C1954 C1956 1.478 . S
C1955 H1949 0.930 . S
C1955 C1951 1.400 . S
C1955 C1954 1.385 . S
C1956 C1954 1.478 . S
C1956 C1958 1.381 . S
C1956 C1962 1.383 . S
C1957 C1953 1.495 . S
C1957 H1963 0.959 . S
C1957 H1964 0.961 . S
C1957 H1965 0.960 . S
C1958 C1956 1.381 . S
C1958 C1959 1.394 . S
C1958 H1966 0.930 . S
C1959 C1958 1.394 . S
C1959 C1960 1.383 . S
C1959 H1967 0.929 . S
C1960 C1959 1.383 . S
C1960 C1961 1.377 . S
C1961 H1945 0.930 . S
C1961 C1960 1.377 . S
C1961 C1962 1.379 . S
C1962 H1946 0.931 . S
C1962 C1956 1.383 . S
C1962 C1961 1.379 . S
H1963 C1957 0.959 . S
H1964 C1957 0.961 . S
H1965 C1957 0.960 . S
H1966 C1958 0.930 . S
H1967 C1959 0.929 . S
H1968 C1976 0.929 . S
H1969 C1978 0.930 . S
H1970 C1980 0.930 . S
H1971 C1983 0.929 . S
H1972 C1986 0.930 . S
H1973 C1988 0.960 . S
H1974 C1988 0.960 . S
H1975 C1988 0.960 . S
C1976 H1968 0.929 . S
C1976 C1977 1.377 . S
C1976 C1978 1.384 . S
C1977 C1976 1.377 . S
C1977 C1983 1.390 . S
C1978 H1969 0.930 . S
C1978 C1976 1.384 . S
C1978 C1979 1.372 . S
C1979 C1978 1.372 . S
C1979 C1980 1.400 . S
C1979 C1984 1.490 . S
C1980 H1970 0.930 . S
C1980 C1979 1.400 . S
C1980 C1983 1.386 . S
H1981 C1997 0.930 . S
H1982 C1998 0.931 . S
C1983 H1971 0.929 . S
C1983 C1977 1.390 . S
C1983 C1980 1.386 . S
C1984 C1979 1.490 . S
C1984 C1986 1.395 . S
C1984 C1987 1.403 . S
H1985 C1991 0.930 . S
C1986 H1972 0.930 . S
C1986 C1984 1.395 . S
C1986 C1989 1.403 . S
C1987 C1984 1.403 . S
C1987 C1988 1.524 . S
C1987 C1991 1.400 . S
C1988 H1973 0.960 . S
C1988 H1974 0.960 . S
C1988 H1975 0.960 . S
C1988 C1987 1.524 . S
C1989 C1986 1.403 . S
C1989 C1990 1.392 . S
C1989 C1993 1.495 . S
C1990 C1989 1.392 . S
C1990 C1991 1.385 . S
C1990 C1992 1.478 . S
C1991 H1985 0.930 . S
C1991 C1987 1.400 . S
C1991 C1990 1.385 . S
C1992 C1990 1.478 . S
C1992 C1994 1.381 . S
C1992 C1998 1.383 . S
C1993 C1989 1.495 . S
C1993 H1999 0.959 . S
C1993 H2000 0.961 . S
C1993 H2001 0.960 . S
C1994 C1992 1.381 . S
C1994 C1995 1.394 . S
C1994 H2002 0.930 . S
C1995 C1994 1.394 . S
C1995 C1996 1.383 . S
C1995 H2003 0.929 . S
C1996 C1995 1.383 . S
C1996 C1997 1.377 . S
C1997 H1981 0.930 . S
C1997 C1996 1.377 . S
C1997 C1998 1.379 . S
C1998 H1982 0.931 . S
C1998 C1992 1.383 . S
C1998 C1997 1.379 . S
H1999 C1993 0.959 . S
H2000 C1993 0.961 . S
H2001 C1993 0.960 . S
H2002 C1994 0.930 . S
H2003 C1995 0.929 . S
H2004 C2012 0.929 . S
H2005 C2014 0.930 . S
H2006 C2016 0.930 . S
H2007 C2019 0.929 . S
H2008 C2022 0.930 . S
H2009 C2024 0.960 . S
H2010 C2024 0.960 . S
H2011 C2024 0.960 . S
C2012 H2004 0.929 . S
C2012 C2013 1.377 . S
C2012 C2014 1.384 . S
C2013 C2012 1.377 . S
C2013 C2019 1.390 . S
C2014 H2005 0.930 . S
C2014 C2012 1.384 . S
C2014 C2015 1.372 . S
C2015 C2014 1.372 . S
C2015 C2016 1.400 . S
C2015 C2020 1.490 . S
C2016 H2006 0.930 . S
C2016 C2015 1.400 . S
C2016 C2019 1.386 . S
H2017 C2033 0.930 . S
H2018 C2034 0.931 . S
C2019 H2007 0.929 . S
C2019 C2013 1.390 . S
C2019 C2016 1.386 . S
C2020 C2015 1.490 . S
C2020 C2022 1.395 . S
C2020 C2023 1.403 . S
H2021 C2027 0.930 . S
C2022 H2008 0.930 . S
C2022 C2020 1.395 . S
C2022 C2025 1.403 . S
C2023 C2020 1.403 . S
C2023 C2024 1.524 . S
C2023 C2027 1.400 . S
C2024 H2009 0.960 . S
C2024 H2010 0.960 . S
C2024 H2011 0.960 . S
C2024 C2023 1.524 . S
C2025 C2022 1.403 . S
C2025 C2026 1.392 . S
C2025 C2029 1.495 . S
C2026 C2025 1.392 . S
C2026 C2027 1.385 . S
C2026 C2028 1.478 . S
C2027 H2021 0.930 . S
C2027 C2023 1.400 . S
C2027 C2026 1.385 . S
C2028 C2026 1.478 . S
C2028 C2030 1.381 . S
C2028 C2034 1.383 . S
C2029 C2025 1.495 . S
C2029 H2035 0.959 . S
C2029 H2036 0.961 . S
C2029 H2037 0.960 . S
C2030 C2028 1.381 . S
C2030 C2031 1.394 . S
C2030 H2038 0.930 . S
C2031 C2030 1.394 . S
C2031 C2032 1.383 . S
C2031 H2039 0.929 . S
C2032 C2031 1.383 . S
C2032 C2033 1.377 . S
C2033 H2017 0.930 . S
C2033 C2032 1.377 . S
C2033 C2034 1.379 . S
C2034 H2018 0.931 . S
C2034 C2028 1.383 . S
C2034 C2033 1.379 . S
H2035 C2029 0.959 . S
H2036 C2029 0.961 . S
H2037 C2029 0.960 . S
H2038 C2030 0.930 . S
H2039 C2031 0.929 . S
H2040 C2048 0.929 . S
H2041 C2050 0.930 . S
H2042 C2052 0.930 . S
H2043 C2055 0.929 . S
H2044 C2058 0.930 . S
H2045 C2060 0.960 . S
H2046 C2060 0.960 . S
H2047 C2060 0.960 . S
C2048 H2040 0.929 . S
C2048 C2049 1.377 . S
C2048 C2050 1.384 . S
C2049 C2048 1.377 . S
C2049 C2055 1.390 . S
C2050 H2041 0.930 . S
C2050 C2048 1.384 . S
C2050 C2051 1.372 . S
C2051 C2050 1.372 . S
C2051 C2052 1.400 . S
C2051 C2056 1.490 . S
C2052 H2042 0.930 . S
C2052 C2051 1.400 . S
C2052 C2055 1.386 . S
H2053 C2069 0.930 . S
H2054 C2070 0.931 . S
C2055 H2043 0.929 . S
C2055 C2049 1.390 . S
C2055 C2052 1.386 . S
C2056 C2051 1.490 . S
C2056 C2058 1.395 . S
C2056 C2059 1.403 . S
H2057 C2063 0.930 . S
C2058 H2044 0.930 . S
C2058 C2056 1.395 . S
C2058 C2061 1.403 . S
C2059 C2056 1.403 . S
C2059 C2060 1.524 . S
C2059 C2063 1.400 . S
C2060 H2045 0.960 . S
C2060 H2046 0.960 . S
C2060 H2047 0.960 . S
C2060 C2059 1.524 . S
C2061 C2058 1.403 . S
C2061 C2062 1.392 . S
C2061 C2065 1.495 . S
C2062 C2061 1.392 . S
C2062 C2063 1.385 . S
C2062 C2064 1.478 . S
C2063 H2057 0.930 . S
C2063 C2059 1.400 . S
C2063 C2062 1.385 . S
C2064 C2062 1.478 . S
C2064 C2066 1.381 . S
C2064 C2070 1.383 . S
C2065 C2061 1.495 . S
C2065 H2071 0.959 . S
C2065 H2072 0.961 . S
C2065 H2073 0.960 . S
C2066 C2064 1.381 . S
C2066 C2067 1.394 . S
C2066 H2074 0.930 . S
C2067 C2066 1.394 . S
C2067 C2068 1.383 . S
C2067 H2075 0.929 . S
C2068 C2067 1.383 . S
C2068 C2069 1.377 . S
C2069 H2053 0.930 . S
C2069 C2068 1.377 . S
C2069 C2070 1.379 . S
C2070 H2054 0.931 . S
C2070 C2064 1.383 . S
C2070 C2069 1.379 . S
H2071 C2065 0.959 . S
H2072 C2065 0.961 . S
H2073 C2065 0.960 . S
H2074 C2066 0.930 . S
H2075 C2067 0.929 . S
H2076 C2084 0.929 . S
H2077 C2086 0.930 . S
H2078 C2088 0.930 . S
H2079 C2091 0.929 . S
H2080 C2094 0.930 . S
H2081 C2096 0.960 . S
H2082 C2096 0.960 . S
H2083 C2096 0.960 . S
C2084 H2076 0.929 . S
C2084 C2085 1.377 . S
C2084 C2086 1.384 . S
C2085 C2084 1.377 . S
C2085 C2091 1.390 . S
C2086 H2077 0.930 . S
C2086 C2084 1.384 . S
C2086 C2087 1.372 . S
C2087 C2086 1.372 . S
C2087 C2088 1.400 . S
C2087 C2092 1.490 . S
C2088 H2078 0.930 . S
C2088 C2087 1.400 . S
C2088 C2091 1.386 . S
H2089 C2105 0.930 . S
H2090 C2106 0.931 . S
C2091 H2079 0.929 . S
C2091 C2085 1.390 . S
C2091 C2088 1.386 . S
C2092 C2087 1.490 . S
C2092 C2094 1.395 . S
C2092 C2095 1.403 . S
H2093 C2099 0.930 . S
C2094 H2080 0.930 . S
C2094 C2092 1.395 . S
C2094 C2097 1.403 1_554 S
C2095 C2092 1.403 . S
C2095 C2096 1.524 . S
C2095 C2099 1.400 1_554 S
C2096 H2081 0.960 . S
C2096 H2082 0.960 . S
C2096 H2083 0.960 . S
C2096 C2095 1.524 . S
C2097 C2094 1.403 1_556 S
C2097 C2098 1.392 . S
C2097 C2101 1.495 . S
C2098 C2097 1.392 . S
C2098 C2099 1.385 . S
C2098 C2100 1.478 . S
C2099 H2093 0.930 . S
C2099 C2095 1.400 1_556 S
C2099 C2098 1.385 . S
C2100 C2098 1.478 . S
C2100 C2102 1.381 . S
C2100 C2106 1.383 . S
C2101 C2097 1.495 . S
C2101 H2107 0.959 . S
C2101 H2108 0.961 . S
C2101 H2109 0.960 . S
C2102 C2100 1.381 . S
C2102 C2103 1.394 . S
C2102 H2110 0.930 . S
C2103 C2102 1.394 . S
C2103 C2104 1.383 . S
C2103 H2111 0.929 . S
C2104 C2103 1.383 . S
C2104 C2105 1.377 . S
C2105 H2089 0.930 . S
C2105 C2104 1.377 . S
C2105 C2106 1.379 . S
C2106 H2090 0.931 . S
C2106 C2100 1.383 . S
C2106 C2105 1.379 . S
H2107 C2101 0.959 . S
H2108 C2101 0.961 . S
H2109 C2101 0.960 . S
H2110 C2102 0.930 . S
H2111 C2103 0.929 . S
H2112 C2120 0.929 . S
H2113 C2122 0.930 . S
H2114 C2124 0.930 . S
H2115 C2127 0.929 . S
H2116 C2130 0.930 . S
H2117 C2132 0.960 . S
H2118 C2132 0.960 . S
H2119 C2132 0.960 . S
C2120 H2112 0.929 . S
C2120 C2121 1.377 . S
C2120 C2122 1.384 . S
C2121 C2120 1.377 . S
C2121 C2127 1.390 . S
C2122 H2113 0.930 . S
C2122 C2120 1.384 . S
C2122 C2123 1.372 . S
C2123 C2122 1.372 . S
C2123 C2124 1.400 . S
C2123 C2128 1.490 . S
C2124 H2114 0.930 . S
C2124 C2123 1.400 . S
C2124 C2127 1.386 . S
H2125 C2141 0.930 . S
H2126 C2142 0.948 . S
C2127 H2115 0.929 . S
C2127 C2121 1.390 . S
C2127 C2124 1.386 . S
C2128 C2123 1.490 . S
C2128 C2130 1.395 . S
C2128 C2131 1.403 . S
H2129 C2135 0.930 . S
C2130 H2116 0.930 . S
C2130 C2128 1.395 . S
C2130 C2133 1.403 . S
C2131 C2128 1.403 . S
C2131 C2132 1.524 . S
C2131 C2135 1.400 . S
C2132 H2117 0.960 . S
C2132 H2118 0.960 . S
C2132 H2119 0.960 . S
C2132 C2131 1.524 . S
C2133 C2130 1.403 . S
C2133 C2134 1.392 . S
C2133 C2137 1.495 . S
C2134 C2133 1.392 . S
C2134 C2135 1.385 . S
C2134 C2136 1.478 . S
C2135 H2129 0.930 . S
C2135 C2131 1.400 . S
C2135 C2134 1.385 . S
C2136 C2134 1.478 . S
C2136 C2138 1.381 1_556 S
C2136 C2142 1.408 . S
C2137 C2133 1.495 . S
C2137 H2143 0.959 . S
C2137 H2144 0.961 . S
C2137 H2145 0.960 . S
C2138 C2136 1.381 1_554 S
C2138 C2139 1.394 . S
C2138 H2146 0.930 1_554 S
C2139 C2138 1.394 . S
C2139 C2140 1.383 . S
C2139 H2147 0.929 . S
C2140 C2139 1.383 . S
C2140 C2141 1.377 . S
C2141 H2125 0.930 . S
C2141 C2140 1.377 . S
C2141 C2142 1.339 1_554 S
C2142 H2126 0.948 . S
C2142 C2136 1.408 . S
C2142 C2141 1.339 1_556 S
H2143 C2137 0.959 . S
H2144 C2137 0.961 . S
H2145 C2137 0.960 . S
H2146 C2138 0.930 1_556 S
H2147 C2139 0.929 . S
H2148 C2156 0.929 . S
H2149 C2158 0.930 . S
H2150 C2160 0.930 . S
H2151 C2163 0.929 . S
H2152 C2166 0.930 . S
H2153 C2168 0.960 . S
H2154 C2168 0.960 . S
H2155 C2168 0.960 . S
C2156 H2148 0.929 . S
C2156 C2157 1.377 . S
C2156 C2158 1.384 . S
C2157 C2156 1.377 . S
C2157 C2163 1.390 . S
C2158 H2149 0.930 . S
C2158 C2156 1.384 . S
C2158 C2159 1.372 . S
C2159 C2158 1.372 . S
C2159 C2160 1.400 . S
C2159 C2164 1.490 . S
C2160 H2150 0.930 . S
C2160 C2159 1.400 . S
C2160 C2163 1.386 . S
H2161 C2177 0.930 . S
H2162 C2178 0.931 . S
C2163 H2151 0.929 . S
C2163 C2157 1.390 . S
C2163 C2160 1.386 . S
C2164 C2159 1.490 . S
C2164 C2166 1.395 . S
C2164 C2167 1.403 . S
H2165 C2171 0.930 . S
C2166 H2152 0.930 . S
C2166 C2164 1.395 . S
C2166 C2169 1.403 . S
C2167 C2164 1.403 . S
C2167 C2168 1.524 . S
C2167 C2171 1.400 . S
C2168 H2153 0.960 . S
C2168 H2154 0.960 . S
C2168 H2155 0.960 . S
C2168 C2167 1.524 . S
C2169 C2166 1.403 . S
C2169 C2170 1.392 . S
C2169 C2173 1.495 . S
C2170 C2169 1.392 . S
C2170 C2171 1.385 . S
C2170 C2172 1.478 . S
C2171 H2165 0.930 . S
C2171 C2167 1.400 . S
C2171 C2170 1.385 . S
C2172 C2170 1.478 . S
C2172 C2174 1.381 . S
C2172 C2178 1.383 . S
C2173 C2169 1.495 . S
C2173 H2179 0.959 . S
C2173 H2180 0.961 . S
C2173 H2181 0.960 . S
C2174 C2172 1.381 . S
C2174 C2175 1.394 . S
C2174 H2182 0.930 . S
C2175 C2174 1.394 . S
C2175 C2176 1.383 . S
C2175 H2183 0.929 . S
C2176 C2175 1.383 . S
C2176 C2177 1.377 . S
C2177 H2161 0.930 . S
C2177 C2176 1.377 . S
C2177 C2178 1.379 . S
C2178 H2162 0.931 . S
C2178 C2172 1.383 . S
C2178 C2177 1.379 . S
H2179 C2173 0.959 . S
H2180 C2173 0.961 . S
H2181 C2173 0.960 . S
H2182 C2174 0.930 . S
H2183 C2175 0.929 . S
H2184 C2192 0.929 . S
H2185 C2194 0.930 . S
H2186 C2196 0.930 . S
H2187 C2199 0.929 . S
H2188 C2202 0.930 . S
H2189 C2204 0.960 . S
H2190 C2204 0.960 . S
H2191 C2204 0.960 . S
C2192 H2184 0.929 . S
C2192 C2193 1.377 . S
C2192 C2194 1.384 . S
C2193 C2192 1.377 . S
C2193 C2199 1.390 . S
C2194 H2185 0.930 . S
C2194 C2192 1.384 . S
C2194 C2195 1.372 . S
C2195 C2194 1.372 . S
C2195 C2196 1.400 . S
C2195 C2200 1.490 . S
C2196 H2186 0.930 . S
C2196 C2195 1.400 . S
C2196 C2199 1.386 . S
H2197 C2213 0.930 . S
H2198 C2214 0.931 . S
C2199 H2187 0.929 . S
C2199 C2193 1.390 . S
C2199 C2196 1.386 . S
C2200 C2195 1.490 . S
C2200 C2202 1.395 . S
C2200 C2203 1.403 . S
H2201 C2207 0.930 . S
C2202 H2188 0.930 . S
C2202 C2200 1.395 . S
C2202 C2205 1.403 . S
C2203 C2200 1.403 . S
C2203 C2204 1.524 . S
C2203 C2207 1.400 . S
C2204 H2189 0.960 . S
C2204 H2190 0.960 . S
C2204 H2191 0.960 . S
C2204 C2203 1.524 . S
C2205 C2202 1.403 . S
C2205 C2206 1.392 . S
C2205 C2209 1.495 . S
C2206 C2205 1.392 . S
C2206 C2207 1.385 . S
C2206 C2208 1.478 . S
C2207 H2201 0.930 . S
C2207 C2203 1.400 . S
C2207 C2206 1.385 . S
C2208 C2206 1.478 . S
C2208 C2210 1.381 . S
C2208 C2214 1.383 . S
C2209 C2205 1.495 . S
C2209 H2215 0.959 . S
C2209 H2216 0.961 . S
C2209 H2217 0.960 . S
C2210 C2208 1.381 . S
C2210 C2211 1.394 . S
C2210 H2218 0.930 . S
C2211 C2210 1.394 . S
C2211 C2212 1.383 . S
C2211 H2219 0.929 . S
C2212 C2211 1.383 . S
C2212 C2213 1.377 . S
C2213 H2197 0.930 . S
C2213 C2212 1.377 . S
C2213 C2214 1.379 . S
C2214 H2198 0.931 . S
C2214 C2208 1.383 . S
C2214 C2213 1.379 . S
H2215 C2209 0.959 . S
H2216 C2209 0.961 . S
H2217 C2209 0.960 . S
H2218 C2210 0.930 . S
H2219 C2211 0.929 . S
H2220 C2228 0.929 . S
H2221 C2230 0.930 . S
H2222 C2232 0.930 . S
H2223 C2235 0.929 . S
H2224 C2238 0.930 . S
H2225 C2240 0.960 . S
H2226 C2240 0.960 . S
H2227 C2240 0.960 . S
C2228 H2220 0.929 . S
C2228 C2229 1.377 . S
C2228 C2230 1.384 . S
C2229 C2228 1.377 . S
C2229 C2235 1.390 . S
C2230 H2221 0.930 . S
C2230 C2228 1.384 . S
C2230 C2231 1.372 . S
C2231 C2230 1.372 . S
C2231 C2232 1.400 . S
C2231 C2236 1.490 . S
C2232 H2222 0.930 . S
C2232 C2231 1.400 . S
C2232 C2235 1.386 . S
H2233 C2249 0.930 . S
H2234 C2250 0.931 . S
C2235 H2223 0.929 . S
C2235 C2229 1.390 . S
C2235 C2232 1.386 . S
C2236 C2231 1.490 . S
C2236 C2238 1.395 . S
C2236 C2239 1.403 . S
H2237 C2243 0.930 . S
C2238 H2224 0.930 . S
C2238 C2236 1.395 . S
C2238 C2241 1.403 . S
C2239 C2236 1.403 . S
C2239 C2240 1.524 . S
C2239 C2243 1.400 . S
C2240 H2225 0.960 . S
C2240 H2226 0.960 . S
C2240 H2227 0.960 . S
C2240 C2239 1.524 . S
C2241 C2238 1.403 . S
C2241 C2242 1.392 . S
C2241 C2245 1.495 . S
C2242 C2241 1.392 . S
C2242 C2243 1.385 . S
C2242 C2244 1.478 . S
C2243 H2237 0.930 . S
C2243 C2239 1.400 . S
C2243 C2242 1.385 . S
C2244 C2242 1.478 . S
C2244 C2246 1.381 . S
C2244 C2250 1.383 . S
C2245 C2241 1.495 . S
C2245 H2251 0.959 . S
C2245 H2252 0.961 . S
C2245 H2253 0.960 . S
C2246 C2244 1.381 . S
C2246 C2247 1.394 . S
C2246 H2254 0.930 . S
C2247 C2246 1.394 . S
C2247 C2248 1.383 . S
C2247 H2255 0.929 . S
C2248 C2247 1.383 . S
C2248 C2249 1.377 . S
C2249 H2233 0.930 . S
C2249 C2248 1.377 . S
C2249 C2250 1.379 . S
C2250 H2234 0.931 . S
C2250 C2244 1.383 . S
C2250 C2249 1.379 . S
H2251 C2245 0.959 . S
H2252 C2245 0.961 . S
H2253 C2245 0.960 . S
H2254 C2246 0.930 . S
H2255 C2247 0.929 . S
C969 C162 1.143 . S
C988 C2 1.214 . S
C1005 C202 1.074 . S
C1024 C61 1.020 . S
C1041 C82 1.515 . S
C1060 C261 1.382 . S
C1077 C122 1.381 . S
C1096 C301 1.496 . S
C1113 C42 1.330 . S
C1132 C341 1.407 . S
C1149 C381 1.103 . S
C1168 C101 1.120 . S
C1185 C141 1.150 . S
C1204 C421 1.221 . S
C1221 C442 1.299 . S
C1240 C21 1.407 . S
C1257 C181 1.269 . S
C1276 C461 1.294 . S
C1293 C322 1.451 . S
C1312 C221 1.316 . S
C1329 C242 1.404 . S
C1348 C362 1.378 . S
C1365 C282 1.515 . S
C1384 C402 1.499 . S
C1401 C482 1.086 . S
C1420 C741 1.050 . S
C1437 C762 1.515 . S
C1456 C541 1.418 . S
C1473 C802 1.366 . S
C1492 C581 1.468 . S
C1509 C621 1.215 . S
C1528 C821 1.189 . S
C1545 C661 1.431 . S
C1564 C722 1.318 . S
C1581 C842 1.150 . S
C1600 C682 1.175 . S
C1617 C781 1.154 . S
C1636 C901 1.043 . S
C1653 C701 1.406 . S
C1672 C922 1.315 . S
C1689 C861 1.264 . S
C1708 C941 1.268 . S
C1725 C501 1.338 . S
C1744 C642 1.448 . S
C1761 C882 1.405 . S
C1780 C522 1.375 . S
C1797 C602 1.513 . S
C1816 C562 1.506 . S
C1833 C15 2.316 . S
C1852 C775 2.321 . S
C1869 C55 2.310 . S
C1888 C815 2.307 . S
C1905 C695 2.316 . S
C1924 C95 2.321 . S
C1941 C135 2.298 . S
C1960 C735 2.316 . S
C1977 C335 2.329 . S
C1996 C175 2.323 . S
C2013 C215 2.168 . S
C2032 C375 2.144 . S
C2049 C415 2.115 . S
C2068 C255 2.094 . S
C2085 C455 2.282 . S
C2104 C295 2.305 . S
C2121 C495 2.172 . S
C2140 C895 2.167 . S
C2157 C535 2.104 . S
C2176 C615 2.118 . S
C2193 C935 2.280 . S
C2212 C575 2.309 . S
C2229 C855 2.319 . S
C2248 C655 2.302 . S
