# Generated by pormake.
# Topology sxq, (6)-cn, num edge types: 1
# Building blocks:
#     Node 0, Type 0, BuildingBlock: IZENUY_clean_sbu_0, # of connection points: 6
#     Node 1, Type 0, BuildingBlock: IZENUY_clean_sbu_0, # of connection points: 6
#     Node 2, Type 0, BuildingBlock: IZENUY_clean_sbu_0, # of connection points: 6
#     Node 3, Type 0, BuildingBlock: IZENUY_clean_sbu_0, # of connection points: 6
#     Node 4, Type 0, BuildingBlock: IZENUY_clean_sbu_0, # of connection points: 6
#     Node 5, Type 0, BuildingBlock: IZENUY_clean_sbu_0, # of connection points: 6
#     Node 6, Type 0, BuildingBlock: IZENUY_clean_sbu_0, # of connection points: 6
#     Node 7, Type 0, BuildingBlock: IZENUY_clean_sbu_0, # of connection points: 6
#     Node 8, Type 0, BuildingBlock: IZENUY_clean_sbu_0, # of connection points: 6
#     Node 9, Type 0, BuildingBlock: IZENUY_clean_sbu_0, # of connection points: 6
#     Node 10, Type 0, BuildingBlock: IZENUY_clean_sbu_0, # of connection points: 6
#     Node 11, Type 0, BuildingBlock: IZENUY_clean_sbu_0, # of connection points: 6
#     Node 12, Type 0, BuildingBlock: IZENUY_clean_sbu_0, # of connection points: 6
#     Node 13, Type 0, BuildingBlock: IZENUY_clean_sbu_0, # of connection points: 6
#     Node 14, Type 0, BuildingBlock: IZENUY_clean_sbu_0, # of connection points: 6
#     Node 15, Type 0, BuildingBlock: IZENUY_clean_sbu_0, # of connection points: 6
#     Node 16, Type 0, BuildingBlock: IZENUY_clean_sbu_0, # of connection points: 6
#     Node 17, Type 0, BuildingBlock: IZENUY_clean_sbu_0, # of connection points: 6
#     Node 18, Type 0, BuildingBlock: IZENUY_clean_sbu_0, # of connection points: 6
#     Node 19, Type 0, BuildingBlock: IZENUY_clean_sbu_0, # of connection points: 6
#     Node 20, Type 0, BuildingBlock: IZENUY_clean_sbu_0, # of connection points: 6
#     Node 21, Type 0, BuildingBlock: IZENUY_clean_sbu_0, # of connection points: 6
#     Node 22, Type 0, BuildingBlock: IZENUY_clean_sbu_0, # of connection points: 6
#     Node 23, Type 0, BuildingBlock: IZENUY_clean_sbu_0, # of connection points: 6
#     Node 24, Type 0, BuildingBlock: IZENUY_clean_sbu_0, # of connection points: 6
#     Node 25, Type 0, BuildingBlock: IZENUY_clean_sbu_0, # of connection points: 6
#     Node 26, Type 0, BuildingBlock: IZENUY_clean_sbu_0, # of connection points: 6
#     Node 27, Type 0, BuildingBlock: IZENUY_clean_sbu_0, # of connection points: 6
#     Node 28, Type 0, BuildingBlock: IZENUY_clean_sbu_0, # of connection points: 6
#     Node 29, Type 0, BuildingBlock: IZENUY_clean_sbu_0, # of connection points: 6
#     Node 30, Type 0, BuildingBlock: IZENUY_clean_sbu_0, # of connection points: 6
#     Node 31, Type 0, BuildingBlock: IZENUY_clean_sbu_0, # of connection points: 6
#     Node 32, Type 0, BuildingBlock: IZENUY_clean_sbu_0, # of connection points: 6
#     Node 33, Type 0, BuildingBlock: IZENUY_clean_sbu_0, # of connection points: 6
#     Node 34, Type 0, BuildingBlock: IZENUY_clean_sbu_0, # of connection points: 6
#     Node 35, Type 0, BuildingBlock: IZENUY_clean_sbu_0, # of connection points: 6
#     Node 36, Type 0, BuildingBlock: IZENUY_clean_sbu_0, # of connection points: 6
#     Node 37, Type 0, BuildingBlock: IZENUY_clean_sbu_0, # of connection points: 6
#     Node 38, Type 0, BuildingBlock: IZENUY_clean_sbu_0, # of connection points: 6
#     Node 39, Type 0, BuildingBlock: IZENUY_clean_sbu_0, # of connection points: 6
#     Node 40, Type 0, BuildingBlock: IZENUY_clean_sbu_0, # of connection points: 6
#     Node 41, Type 0, BuildingBlock: IZENUY_clean_sbu_0, # of connection points: 6
#     Node 42, Type 0, BuildingBlock: IZENUY_clean_sbu_0, # of connection points: 6
#     Node 43, Type 0, BuildingBlock: IZENUY_clean_sbu_0, # of connection points: 6
#     Node 44, Type 0, BuildingBlock: IZENUY_clean_sbu_0, # of connection points: 6
#     Node 45, Type 0, BuildingBlock: IZENUY_clean_sbu_0, # of connection points: 6
#     Node 46, Type 0, BuildingBlock: IZENUY_clean_sbu_0, # of connection points: 6
#     Node 47, Type 0, BuildingBlock: IZENUY_clean_sbu_0, # of connection points: 6
#     Node 48, Type 0, BuildingBlock: IZENUY_clean_sbu_0, # of connection points: 6
#     Node 49, Type 0, BuildingBlock: IZENUY_clean_sbu_0, # of connection points: 6
#     Node 50, Type 0, BuildingBlock: IZENUY_clean_sbu_0, # of connection points: 6
#     Node 51, Type 0, BuildingBlock: IZENUY_clean_sbu_0, # of connection points: 6
#     Node 52, Type 0, BuildingBlock: IZENUY_clean_sbu_0, # of connection points: 6
#     Node 53, Type 0, BuildingBlock: IZENUY_clean_sbu_0, # of connection points: 6
#     Node 54, Type 0, BuildingBlock: IZENUY_clean_sbu_0, # of connection points: 6
#     Node 55, Type 0, BuildingBlock: IZENUY_clean_sbu_0, # of connection points: 6
#     Node 56, Type 0, BuildingBlock: IZENUY_clean_sbu_0, # of connection points: 6
#     Node 57, Type 0, BuildingBlock: IZENUY_clean_sbu_0, # of connection points: 6
#     Node 58, Type 0, BuildingBlock: IZENUY_clean_sbu_0, # of connection points: 6
#     Node 59, Type 0, BuildingBlock: IZENUY_clean_sbu_0, # of connection points: 6
#     Node 60, Type 0, BuildingBlock: IZENUY_clean_sbu_0, # of connection points: 6
#     Node 61, Type 0, BuildingBlock: IZENUY_clean_sbu_0, # of connection points: 6
#     Node 62, Type 0, BuildingBlock: IZENUY_clean_sbu_0, # of connection points: 6
#     Node 63, Type 0, BuildingBlock: IZENUY_clean_sbu_0, # of connection points: 6
#     Node 64, Type 0, BuildingBlock: IZENUY_clean_sbu_0, # of connection points: 6
#     Node 65, Type 0, BuildingBlock: IZENUY_clean_sbu_0, # of connection points: 6
#     Node 66, Type 0, BuildingBlock: IZENUY_clean_sbu_0, # of connection points: 6
#     Node 67, Type 0, BuildingBlock: IZENUY_clean_sbu_0, # of connection points: 6
#     Node 68, Type 0, BuildingBlock: IZENUY_clean_sbu_0, # of connection points: 6
#     Node 69, Type 0, BuildingBlock: IZENUY_clean_sbu_0, # of connection points: 6
#     Node 70, Type 0, BuildingBlock: IZENUY_clean_sbu_0, # of connection points: 6
#     Node 71, Type 0, BuildingBlock: IZENUY_clean_sbu_0, # of connection points: 6
#     Node 72, Type 0, BuildingBlock: IZENUY_clean_sbu_0, # of connection points: 6
#     Node 73, Type 0, BuildingBlock: IZENUY_clean_sbu_0, # of connection points: 6
#     Node 74, Type 0, BuildingBlock: IZENUY_clean_sbu_0, # of connection points: 6
#     Node 75, Type 0, BuildingBlock: IZENUY_clean_sbu_0, # of connection points: 6
#     Node 76, Type 0, BuildingBlock: IZENUY_clean_sbu_0, # of connection points: 6
#     Node 77, Type 0, BuildingBlock: IZENUY_clean_sbu_0, # of connection points: 6
#     Node 78, Type 0, BuildingBlock: IZENUY_clean_sbu_0, # of connection points: 6
#     Node 79, Type 0, BuildingBlock: IZENUY_clean_sbu_0, # of connection points: 6
#     Node 80, Type 0, BuildingBlock: IZENUY_clean_sbu_0, # of connection points: 6
#     Node 81, Type 0, BuildingBlock: IZENUY_clean_sbu_0, # of connection points: 6
#     Node 82, Type 0, BuildingBlock: IZENUY_clean_sbu_0, # of connection points: 6
#     Node 83, Type 0, BuildingBlock: IZENUY_clean_sbu_0, # of connection points: 6
#     Node 84, Type 0, BuildingBlock: IZENUY_clean_sbu_0, # of connection points: 6
#     Node 85, Type 0, BuildingBlock: IZENUY_clean_sbu_0, # of connection points: 6
#     Node 86, Type 0, BuildingBlock: IZENUY_clean_sbu_0, # of connection points: 6
#     Node 87, Type 0, BuildingBlock: IZENUY_clean_sbu_0, # of connection points: 6
#     Node 88, Type 0, BuildingBlock: IZENUY_clean_sbu_0, # of connection points: 6
#     Node 89, Type 0, BuildingBlock: IZENUY_clean_sbu_0, # of connection points: 6
#     Node 90, Type 0, BuildingBlock: IZENUY_clean_sbu_0, # of connection points: 6
#     Node 91, Type 0, BuildingBlock: IZENUY_clean_sbu_0, # of connection points: 6
#     Node 92, Type 0, BuildingBlock: IZENUY_clean_sbu_0, # of connection points: 6
#     Node 93, Type 0, BuildingBlock: IZENUY_clean_sbu_0, # of connection points: 6
#     Node 94, Type 0, BuildingBlock: IZENUY_clean_sbu_0, # of connection points: 6
#     Node 95, Type 0, BuildingBlock: IZENUY_clean_sbu_0, # of connection points: 6
#     Edge 96, Type (0, 0), None
#     Edge 97, Type (0, 0), None
#     Edge 98, Type (0, 0), None
#     Edge 99, Type (0, 0), None
#     Edge 100, Type (0, 0), None
#     Edge 101, Type (0, 0), None
#     Edge 102, Type (0, 0), None
#     Edge 103, Type (0, 0), None
#     Edge 104, Type (0, 0), None
#     Edge 105, Type (0, 0), None
#     Edge 106, Type (0, 0), None
#     Edge 107, Type (0, 0), None
#     Edge 108, Type (0, 0), None
#     Edge 109, Type (0, 0), None
#     Edge 110, Type (0, 0), None
#     Edge 111, Type (0, 0), None
#     Edge 112, Type (0, 0), None
#     Edge 113, Type (0, 0), None
#     Edge 114, Type (0, 0), None
#     Edge 115, Type (0, 0), None
#     Edge 116, Type (0, 0), None
#     Edge 117, Type (0, 0), None
#     Edge 118, Type (0, 0), None
#     Edge 119, Type (0, 0), None
#     Edge 120, Type (0, 0), None
#     Edge 121, Type (0, 0), None
#     Edge 122, Type (0, 0), None
#     Edge 123, Type (0, 0), None
#     Edge 124, Type (0, 0), None
#     Edge 125, Type (0, 0), None
#     Edge 126, Type (0, 0), None
#     Edge 127, Type (0, 0), None
#     Edge 128, Type (0, 0), None
#     Edge 129, Type (0, 0), None
#     Edge 130, Type (0, 0), None
#     Edge 131, Type (0, 0), None
#     Edge 132, Type (0, 0), None
#     Edge 133, Type (0, 0), None
#     Edge 134, Type (0, 0), None
#     Edge 135, Type (0, 0), None
#     Edge 136, Type (0, 0), None
#     Edge 137, Type (0, 0), None
#     Edge 138, Type (0, 0), None
#     Edge 139, Type (0, 0), None
#     Edge 140, Type (0, 0), None
#     Edge 141, Type (0, 0), None
#     Edge 142, Type (0, 0), None
#     Edge 143, Type (0, 0), None
#     Edge 144, Type (0, 0), None
#     Edge 145, Type (0, 0), None
#     Edge 146, Type (0, 0), None
#     Edge 147, Type (0, 0), None
#     Edge 148, Type (0, 0), None
#     Edge 149, Type (0, 0), None
#     Edge 150, Type (0, 0), None
#     Edge 151, Type (0, 0), None
#     Edge 152, Type (0, 0), None
#     Edge 153, Type (0, 0), None
#     Edge 154, Type (0, 0), None
#     Edge 155, Type (0, 0), None
#     Edge 156, Type (0, 0), None
#     Edge 157, Type (0, 0), None
#     Edge 158, Type (0, 0), None
#     Edge 159, Type (0, 0), None
#     Edge 160, Type (0, 0), None
#     Edge 161, Type (0, 0), None
#     Edge 162, Type (0, 0), None
#     Edge 163, Type (0, 0), None
#     Edge 164, Type (0, 0), None
#     Edge 165, Type (0, 0), None
#     Edge 166, Type (0, 0), None
#     Edge 167, Type (0, 0), None
#     Edge 168, Type (0, 0), None
#     Edge 169, Type (0, 0), None
#     Edge 170, Type (0, 0), None
#     Edge 171, Type (0, 0), None
#     Edge 172, Type (0, 0), None
#     Edge 173, Type (0, 0), None
#     Edge 174, Type (0, 0), None
#     Edge 175, Type (0, 0), None
#     Edge 176, Type (0, 0), None
#     Edge 177, Type (0, 0), None
#     Edge 178, Type (0, 0), None
#     Edge 179, Type (0, 0), None
#     Edge 180, Type (0, 0), None
#     Edge 181, Type (0, 0), None
#     Edge 182, Type (0, 0), None
#     Edge 183, Type (0, 0), None
#     Edge 184, Type (0, 0), None
#     Edge 185, Type (0, 0), None
#     Edge 186, Type (0, 0), None
#     Edge 187, Type (0, 0), None
#     Edge 188, Type (0, 0), None
#     Edge 189, Type (0, 0), None
#     Edge 190, Type (0, 0), None
#     Edge 191, Type (0, 0), None
#     Edge 192, Type (0, 0), None
#     Edge 193, Type (0, 0), None
#     Edge 194, Type (0, 0), None
#     Edge 195, Type (0, 0), None
#     Edge 196, Type (0, 0), None
#     Edge 197, Type (0, 0), None
#     Edge 198, Type (0, 0), None
#     Edge 199, Type (0, 0), None
#     Edge 200, Type (0, 0), None
#     Edge 201, Type (0, 0), None
#     Edge 202, Type (0, 0), None
#     Edge 203, Type (0, 0), None
#     Edge 204, Type (0, 0), None
#     Edge 205, Type (0, 0), None
#     Edge 206, Type (0, 0), None
#     Edge 207, Type (0, 0), None
#     Edge 208, Type (0, 0), None
#     Edge 209, Type (0, 0), None
#     Edge 210, Type (0, 0), None
#     Edge 211, Type (0, 0), None
#     Edge 212, Type (0, 0), None
#     Edge 213, Type (0, 0), None
#     Edge 214, Type (0, 0), None
#     Edge 215, Type (0, 0), None
#     Edge 216, Type (0, 0), None
#     Edge 217, Type (0, 0), None
#     Edge 218, Type (0, 0), None
#     Edge 219, Type (0, 0), None
#     Edge 220, Type (0, 0), None
#     Edge 221, Type (0, 0), None
#     Edge 222, Type (0, 0), None
#     Edge 223, Type (0, 0), None
#     Edge 224, Type (0, 0), None
#     Edge 225, Type (0, 0), None
#     Edge 226, Type (0, 0), None
#     Edge 227, Type (0, 0), None
#     Edge 228, Type (0, 0), None
#     Edge 229, Type (0, 0), None
#     Edge 230, Type (0, 0), None
#     Edge 231, Type (0, 0), None
#     Edge 232, Type (0, 0), None
#     Edge 233, Type (0, 0), None
#     Edge 234, Type (0, 0), None
#     Edge 235, Type (0, 0), None
#     Edge 236, Type (0, 0), None
#     Edge 237, Type (0, 0), None
#     Edge 238, Type (0, 0), None
#     Edge 239, Type (0, 0), None
#     Edge 240, Type (0, 0), None
#     Edge 241, Type (0, 0), None
#     Edge 242, Type (0, 0), None
#     Edge 243, Type (0, 0), None
#     Edge 244, Type (0, 0), None
#     Edge 245, Type (0, 0), None
#     Edge 246, Type (0, 0), None
#     Edge 247, Type (0, 0), None
#     Edge 248, Type (0, 0), None
#     Edge 249, Type (0, 0), None
#     Edge 250, Type (0, 0), None
#     Edge 251, Type (0, 0), None
#     Edge 252, Type (0, 0), None
#     Edge 253, Type (0, 0), None
#     Edge 254, Type (0, 0), None
#     Edge 255, Type (0, 0), None
#     Edge 256, Type (0, 0), None
#     Edge 257, Type (0, 0), None
#     Edge 258, Type (0, 0), None
#     Edge 259, Type (0, 0), None
#     Edge 260, Type (0, 0), None
#     Edge 261, Type (0, 0), None
#     Edge 262, Type (0, 0), None
#     Edge 263, Type (0, 0), None
#     Edge 264, Type (0, 0), None
#     Edge 265, Type (0, 0), None
#     Edge 266, Type (0, 0), None
#     Edge 267, Type (0, 0), None
#     Edge 268, Type (0, 0), None
#     Edge 269, Type (0, 0), None
#     Edge 270, Type (0, 0), None
#     Edge 271, Type (0, 0), None
#     Edge 272, Type (0, 0), None
#     Edge 273, Type (0, 0), None
#     Edge 274, Type (0, 0), None
#     Edge 275, Type (0, 0), None
#     Edge 276, Type (0, 0), None
#     Edge 277, Type (0, 0), None
#     Edge 278, Type (0, 0), None
#     Edge 279, Type (0, 0), None
#     Edge 280, Type (0, 0), None
#     Edge 281, Type (0, 0), None
#     Edge 282, Type (0, 0), None
#     Edge 283, Type (0, 0), None
#     Edge 284, Type (0, 0), None
#     Edge 285, Type (0, 0), None
#     Edge 286, Type (0, 0), None
#     Edge 287, Type (0, 0), None
#     Edge 288, Type (0, 0), None
#     Edge 289, Type (0, 0), None
#     Edge 290, Type (0, 0), None
#     Edge 291, Type (0, 0), None
#     Edge 292, Type (0, 0), None
#     Edge 293, Type (0, 0), None
#     Edge 294, Type (0, 0), None
#     Edge 295, Type (0, 0), None
#     Edge 296, Type (0, 0), None
#     Edge 297, Type (0, 0), None
#     Edge 298, Type (0, 0), None
#     Edge 299, Type (0, 0), None
#     Edge 300, Type (0, 0), None
#     Edge 301, Type (0, 0), None
#     Edge 302, Type (0, 0), None
#     Edge 303, Type (0, 0), None
#     Edge 304, Type (0, 0), None
#     Edge 305, Type (0, 0), None
#     Edge 306, Type (0, 0), None
#     Edge 307, Type (0, 0), None
#     Edge 308, Type (0, 0), None
#     Edge 309, Type (0, 0), None
#     Edge 310, Type (0, 0), None
#     Edge 311, Type (0, 0), None
#     Edge 312, Type (0, 0), None
#     Edge 313, Type (0, 0), None
#     Edge 314, Type (0, 0), None
#     Edge 315, Type (0, 0), None
#     Edge 316, Type (0, 0), None
#     Edge 317, Type (0, 0), None
#     Edge 318, Type (0, 0), None
#     Edge 319, Type (0, 0), None
#     Edge 320, Type (0, 0), None
#     Edge 321, Type (0, 0), None
#     Edge 322, Type (0, 0), None
#     Edge 323, Type (0, 0), None
#     Edge 324, Type (0, 0), None
#     Edge 325, Type (0, 0), None
#     Edge 326, Type (0, 0), None
#     Edge 327, Type (0, 0), None
#     Edge 328, Type (0, 0), None
#     Edge 329, Type (0, 0), None
#     Edge 330, Type (0, 0), None
#     Edge 331, Type (0, 0), None
#     Edge 332, Type (0, 0), None
#     Edge 333, Type (0, 0), None
#     Edge 334, Type (0, 0), None
#     Edge 335, Type (0, 0), None
#     Edge 336, Type (0, 0), None
#     Edge 337, Type (0, 0), None
#     Edge 338, Type (0, 0), None
#     Edge 339, Type (0, 0), None
#     Edge 340, Type (0, 0), None
#     Edge 341, Type (0, 0), None
#     Edge 342, Type (0, 0), None
#     Edge 343, Type (0, 0), None
#     Edge 344, Type (0, 0), None
#     Edge 345, Type (0, 0), None
#     Edge 346, Type (0, 0), None
#     Edge 347, Type (0, 0), None
#     Edge 348, Type (0, 0), None
#     Edge 349, Type (0, 0), None
#     Edge 350, Type (0, 0), None
#     Edge 351, Type (0, 0), None
#     Edge 352, Type (0, 0), None
#     Edge 353, Type (0, 0), None
#     Edge 354, Type (0, 0), None
#     Edge 355, Type (0, 0), None
#     Edge 356, Type (0, 0), None
#     Edge 357, Type (0, 0), None
#     Edge 358, Type (0, 0), None
#     Edge 359, Type (0, 0), None
#     Edge 360, Type (0, 0), None
#     Edge 361, Type (0, 0), None
#     Edge 362, Type (0, 0), None
#     Edge 363, Type (0, 0), None
#     Edge 364, Type (0, 0), None
#     Edge 365, Type (0, 0), None
#     Edge 366, Type (0, 0), None
#     Edge 367, Type (0, 0), None
#     Edge 368, Type (0, 0), None
#     Edge 369, Type (0, 0), None
#     Edge 370, Type (0, 0), None
#     Edge 371, Type (0, 0), None
#     Edge 372, Type (0, 0), None
#     Edge 373, Type (0, 0), None
#     Edge 374, Type (0, 0), None
#     Edge 375, Type (0, 0), None
#     Edge 376, Type (0, 0), None
#     Edge 377, Type (0, 0), None
#     Edge 378, Type (0, 0), None
#     Edge 379, Type (0, 0), None
#     Edge 380, Type (0, 0), None
#     Edge 381, Type (0, 0), None
#     Edge 382, Type (0, 0), None
#     Edge 383, Type (0, 0), None
# Relax obj value: 0.471
# Max RMSD: 0.191
# Mean RMSD: 0.191
data_MOF--net-sxq--node1-IZENUY_clean_sbu_0--edge1-none
_symmetry_space_group_name_H-M    P1
_symmetry_Int_Tables_number       1
_symmetry_cell_setting            triclinic
loop_
_symmetry_equiv_pos_as_xyz
'x, y, z'
_cell_length_a     33.128561
_cell_length_b     33.128339
_cell_length_c     33.128477
_cell_angle_alpha  90.000656
_cell_angle_beta   90.000247
_cell_angle_gamma 89.999957
loop_
_atom_site_label
_atom_site_type_symbol
_atom_site_fract_x
_atom_site_fract_y
_atom_site_fract_z
_atom_type_partial_charge
Fe0 Fe 0.0807 0.34549 0.03221 0.0
Fe1 Fe 0.03126 0.41982 0.03165 0.0
O2 O 0.03691 0.37025 0.04697 0.0
Fe3 Fe 0.99889 0.34725 0.07747 0.0
O4 O 0.03435 0.31749 0.1051 0.0
O5 O 0.09404 0.33808 0.08746 0.0
O6 O 0.11436 0.39222 0.03528 0.0
C7 C 0.10972 0.4242 0.05702 0.0
C8 C 0.01731 0.28367 0.02913 0.0
O9 O 0.07373 0.43505 0.06374 0.0
C10 C 0.95581 0.3895 0.01906 0.0
O11 O 0.06642 0.35477 0.97556 0.0
O12 O 0.06444 0.41779 0.9878 0.0
O13 O 0.99035 0.30752 0.04101 0.0
O14 O 0.05459 0.29478 0.02938 0.0
C15 C 1.0073 0.42272 0.10694 0.0
O16 O 0.98799 0.40246 1.00196 0.0
O17 O 0.95754 0.37334 0.05349 0.0
C18 C 0.06307 0.3911 0.96133 0.0
O19 O 0.99899 0.43193 0.07174 0.0
O20 O 1.00512 0.38615 0.11685 0.0
C21 C 0.06855 0.32981 0.11561 0.0
Fe22 Fe 0.92798 0.83071 0.28221 0.0
Fe23 Fe 0.85365 0.78128 0.28165 0.0
O24 O 0.90322 0.78692 0.29697 0.0
Fe25 Fe 0.92622 0.74891 0.32747 0.0
O26 O 0.95598 0.78436 0.3551 0.0
O27 O 0.9354 0.84405 0.33746 0.0
O28 O 0.88126 0.86437 0.28528 0.0
C29 C 0.84928 0.85974 0.30704 0.0
C30 C 0.98981 0.76733 0.27913 0.0
O31 O 0.83842 0.82375 0.31374 0.0
C32 C 0.88397 0.70583 0.26906 0.0
O33 O 0.91869 0.81643 0.22556 0.0
O34 O 0.85568 0.81445 0.2378 0.0
O35 O 0.96595 0.74036 0.29101 0.0
O36 O 0.97869 0.80461 0.27938 0.0
C37 C 0.85075 0.75732 0.35694 0.0
O38 O 0.871 0.73801 0.25196 0.0
O39 O 0.90013 0.70755 0.30349 0.0
C40 C 0.88236 0.81309 0.21133 0.0
O41 O 0.84154 0.74901 0.32175 0.0
O42 O 0.88733 0.75514 0.36686 0.0
C43 C 0.94367 0.81857 0.36561 0.0
Fe44 Fe 0.52458 0.67623 0.57748 0.0
Fe45 Fe 0.44277 0.67798 0.53222 0.0
O46 O 0.48656 0.65323 0.54697 0.0
Fe47 Fe 0.49221 0.60365 0.53165 0.0
O48 O 0.52448 0.59155 0.57175 0.0
O49 O 0.51835 0.63733 0.61686 0.0
O50 O 0.48912 0.70599 0.6051 0.0
C51 C 0.45492 0.69366 0.61561 0.0
C52 C 0.56766 0.63398 0.51907 0.0
O53 O 0.42943 0.6854 0.58746 0.0
C54 C 0.4604 0.63238 0.46134 0.0
O55 O 0.53312 0.71595 0.54101 0.0
O56 O 0.46888 0.72869 0.52939 0.0
O57 O 0.53548 0.62101 0.50196 0.0
O58 O 0.56593 0.65014 0.5535 0.0
C59 C 0.41375 0.59927 0.55702 0.0
O60 O 0.45705 0.6687 0.47556 0.0
O61 O 0.45904 0.60569 0.4878 0.0
C62 C 0.50615 0.73981 0.52913 0.0
O63 O 0.40911 0.63126 0.53528 0.0
O64 O 0.44974 0.58843 0.56374 0.0
C65 C 0.51617 0.60075 0.60694 0.0
Fe66 Fe 0.59725 0.27457 0.82747 0.0
Fe67 Fe 0.59549 0.19276 0.78221 0.0
O68 O 0.62024 0.23655 0.79696 0.0
Fe69 Fe 0.66982 0.24219 0.78165 0.0
O70 O 0.68192 0.27446 0.82174 0.0
O71 O 0.63614 0.26834 0.86685 0.0
O72 O 0.56748 0.23911 0.8551 0.0
C73 C 0.57979 0.20491 0.86561 0.0
C74 C 0.63951 0.31764 0.76906 0.0
O75 O 0.58806 0.17942 0.83746 0.0
C76 C 0.6411 0.21038 0.71133 0.0
O77 O 0.55752 0.28311 0.79101 0.0
O78 O 0.54477 0.21887 0.77937 0.0
O79 O 0.65247 0.28546 0.75196 0.0
O80 O 0.62333 0.31592 0.80349 0.0
C81 C 0.67418 0.16372 0.80704 0.0
O82 O 0.60477 0.20704 0.72555 0.0
O83 O 0.66779 0.20901 0.7378 0.0
C84 C 0.53366 0.25615 0.77912 0.0
O85 O 0.6422 0.1591 0.78528 0.0
O86 O 0.68503 0.19972 0.81375 0.0
C87 C 0.67272 0.26616 0.85694 0.0
Fe88 Fe 0.03129 0.60366 0.49182 0.0
Fe89 Fe 0.99891 0.67623 0.446 0.0
O90 O 0.03693 0.65323 0.4765 0.0
Fe91 Fe 0.08072 0.67799 0.49126 0.0
O92 O 0.11438 0.63127 0.48819 0.0
O93 O 0.07375 0.58843 0.45973 0.0
O94 O 0.99901 0.59155 0.45173 0.0
C95 C 1.00732 0.60076 0.41653 0.0
C96 C 0.06309 0.63238 0.56214 0.0
O97 O 1.00514 0.63734 0.40661 0.0
C98 C 0.01734 0.73982 0.49434 0.0
O99 O 0.98801 0.62102 0.52151 0.0
O100 O 0.95756 0.65015 0.46998 0.0
O101 O 0.06644 0.66871 0.54791 0.0
O102 O 0.06446 0.60569 0.53567 0.0
C103 C 0.06857 0.69367 0.40786 0.0
O104 O 0.99037 0.71596 0.48246 0.0
O105 O 0.05461 0.7287 0.49409 0.0
C106 C 0.95583 0.63398 0.50441 0.0
O107 O 0.03437 0.706 0.41837 0.0
O108 O 0.09406 0.68541 0.43601 0.0
C109 C 0.10975 0.59928 0.46644 0.0
Fe110 Fe 0.66983 0.78127 0.74181 0.0
Fe111 Fe 0.59725 0.7489 0.69599 0.0
O112 O 0.62025 0.78692 0.7265 0.0
Fe113 Fe 0.5955 0.83071 0.74125 0.0
O114 O 0.64222 0.86437 0.73818 0.0
O115 O 0.68505 0.82374 0.70972 0.0
O116 O 0.68193 0.749 0.70172 0.0
C117 C 0.67273 0.75731 0.66653 0.0
C118 C 0.64111 0.81308 0.81213 0.0
O119 O 0.63615 0.75513 0.65661 0.0
C120 C 0.53367 0.76732 0.74433 0.0
O121 O 0.65247 0.738 0.77151 0.0
O122 O 0.62334 0.70755 0.71997 0.0
O123 O 0.60478 0.81643 0.79791 0.0
O124 O 0.66779 0.81445 0.78566 0.0
C125 C 0.57981 0.81856 0.65785 0.0
O126 O 0.55752 0.74036 0.73245 0.0
O127 O 0.54478 0.8046 0.74409 0.0
C128 C 0.6395 0.70582 0.7544 0.0
O129 O 0.56749 0.78436 0.66836 0.0
O130 O 0.58808 0.84405 0.686 0.0
C131 C 0.6742 0.85973 0.71643 0.0
Fe132 Fe 0.49218 0.41982 0.99182 0.0
Fe133 Fe 0.52456 0.34724 0.946 0.0
O134 O 0.48654 0.37024 0.97651 0.0
Fe135 Fe 0.44275 0.34549 0.99126 0.0
O136 O 0.40909 0.39221 0.98819 0.0
O137 O 0.44972 0.43504 0.95973 0.0
O138 O 0.52446 0.43192 0.95173 0.0
C139 C 0.51615 0.42272 0.91653 0.0
C140 C 0.46037 0.3911 0.06214 0.0
O141 O 0.51833 0.38614 0.90662 0.0
C142 C 0.50613 0.28366 0.99434 0.0
O143 O 0.53546 0.40246 0.02152 0.0
O144 O 0.56591 0.37333 0.96998 0.0
O145 O 0.45703 0.35477 0.04791 0.0
O146 O 0.45901 0.41779 0.03567 0.0
C147 C 0.4549 0.32981 0.90786 0.0
O148 O 0.5331 0.30752 0.98247 0.0
O149 O 0.46885 0.29477 0.99409 0.0
C150 C 0.56764 0.3895 1.00441 0.0
O151 O 0.4891 0.31748 0.91838 0.0
O152 O 0.42941 0.33807 0.93601 0.0
C153 C 0.41372 0.4242 0.96644 0.0
Fe154 Fe 0.85364 0.2422 0.24181 0.0
Fe155 Fe 0.92621 0.27457 0.19599 0.0
O156 O 0.90322 0.23655 0.2265 0.0
Fe157 Fe 0.92797 0.19277 0.24125 0.0
O158 O 0.88125 0.15911 0.23818 0.0
O159 O 0.83842 0.19973 0.20972 0.0
O160 O 0.84154 0.27447 0.20172 0.0
C161 C 0.85074 0.26616 0.16653 0.0
C162 C 0.88236 0.21039 0.31213 0.0
O163 O 0.88732 0.26834 0.15661 0.0
C164 C 0.9898 0.25615 0.24433 0.0
O165 O 0.871 0.28547 0.27151 0.0
O166 O 0.90013 0.31592 0.21997 0.0
O167 O 0.91869 0.20704 0.29791 0.0
O168 O 0.85567 0.20902 0.28566 0.0
C169 C 0.94365 0.20491 0.15785 0.0
O170 O 0.96594 0.28311 0.23245 0.0
O171 O 0.97868 0.21887 0.24408 0.0
C172 C 0.88397 0.31765 0.2544 0.0
O173 O 0.95598 0.23911 0.16837 0.0
O174 O 0.93539 0.17943 0.186 0.0
C175 C 0.84927 0.16374 0.21643 0.0
Fe176 Fe 0.03221 0.08073 0.34549 0.0
Fe177 Fe 0.03165 0.03129 0.41982 0.0
O178 O 0.04697 0.03694 0.37024 0.0
Fe179 Fe 0.07747 0.99892 0.34724 0.0
O180 O 0.1051 0.03438 0.31748 0.0
O181 O 0.08746 0.09407 0.33807 0.0
O182 O 0.03528 0.11438 0.39221 0.0
C183 C 0.05703 0.10975 0.42419 0.0
C184 C 0.02913 0.01734 0.28366 0.0
O185 O 0.06374 0.07376 0.43504 0.0
C186 C 0.01906 0.95584 0.38949 0.0
O187 O 0.97556 0.06645 0.35477 0.0
O188 O 0.9878 0.06446 0.41778 0.0
O189 O 0.04101 0.99038 0.30751 0.0
O190 O 0.02938 0.05462 0.29477 0.0
C191 C 0.10694 1.00732 0.42272 0.0
O192 O 1.00196 0.98802 0.40246 0.0
O193 O 0.05349 0.95757 0.37333 0.0
C194 C 0.96133 0.0631 0.39109 0.0
O195 O 0.07174 0.99902 0.43192 0.0
O196 O 0.11685 1.00515 0.38614 0.0
C197 C 0.11561 0.06858 0.3298 0.0
Fe198 Fe 0.24219 0.78166 0.66982 0.0
Fe199 Fe 0.27456 0.82748 0.59724 0.0
O200 O 0.23655 0.79697 0.62024 0.0
Fe201 Fe 0.19276 0.78221 0.59549 0.0
O202 O 0.1591 0.78528 0.64221 0.0
O203 O 0.19972 0.81375 0.68504 0.0
O204 O 0.27446 0.82175 0.68192 0.0
C205 C 0.26616 0.85694 0.67272 0.0
C206 C 0.21038 0.71134 0.6411 0.0
O207 O 0.26833 0.86686 0.63614 0.0
C208 C 0.25614 0.77914 0.53366 0.0
O209 O 0.28546 0.75196 0.65246 0.0
O210 O 0.31592 0.8035 0.62333 0.0
O211 O 0.20704 0.72556 0.60477 0.0
O212 O 0.20902 0.73781 0.66779 0.0
C213 C 0.2049 0.86561 0.5798 0.0
O214 O 0.2831 0.79101 0.55752 0.0
O215 O 0.21886 0.77938 0.54477 0.0
C216 C 0.31765 0.76907 0.6395 0.0
O217 O 0.2391 0.8551 0.56748 0.0
O218 O 0.17942 0.83746 0.58806 0.0
C219 C 0.16373 0.80703 0.67419 0.0
Fe220 Fe 0.44599 0.02456 0.84724 0.0
Fe221 Fe 0.49125 0.94275 0.84549 0.0
O222 O 0.4765 0.98654 0.87024 0.0
Fe223 Fe 0.49181 0.99218 0.91982 0.0
O224 O 0.45172 0.02446 0.93192 0.0
O225 O 0.40661 0.01833 0.88614 0.0
O226 O 0.41837 0.9891 0.81748 0.0
C227 C 0.40785 0.9549 0.8298 0.0
C228 C 0.5044 0.06764 0.8895 0.0
O229 O 0.436 0.92941 0.83807 0.0
C230 C 0.56213 0.96037 0.89109 0.0
O231 O 0.48245 0.0331 0.80752 0.0
O232 O 0.49408 0.96885 0.79477 0.0
O233 O 0.52151 0.03546 0.90246 0.0
O234 O 0.46997 0.06591 0.87333 0.0
C235 C 0.46643 0.91372 0.92419 0.0
O236 O 0.54791 0.95702 0.85476 0.0
O237 O 0.53567 0.95901 0.91778 0.0
C238 C 0.49433 1.00613 0.78366 0.0
O239 O 0.48818 0.90909 0.89221 0.0
O240 O 0.45973 0.94972 0.93504 0.0
C241 C 0.41653 0.01615 0.92272 0.0
Fe242 Fe 0.33071 0.24126 0.09549 0.0
Fe243 Fe 0.28128 0.24181 0.16982 0.0
O244 O 0.28692 0.2265 0.12025 0.0
Fe245 Fe 0.2489 0.19599 0.09725 0.0
O246 O 0.28436 0.16837 0.06748 0.0
O247 O 0.34405 0.18601 0.08807 0.0
O248 O 0.36437 0.23819 0.14221 0.0
C249 C 0.35974 0.21644 0.17419 0.0
C250 C 0.26733 0.24433 0.03366 0.0
O251 O 0.32374 0.20972 0.18504 0.0
C252 C 0.20582 0.2544 0.1395 0.0
O253 O 0.31643 0.29791 0.10477 0.0
O254 O 0.31445 0.28566 0.16779 0.0
O255 O 0.24037 0.23246 0.05752 0.0
O256 O 0.30461 0.24409 0.04478 0.0
C257 C 0.25731 0.16653 0.17272 0.0
O258 O 0.238 0.27151 0.15247 0.0
O259 O 0.20755 0.21998 0.12333 0.0
C260 C 0.31309 0.31213 0.1411 0.0
O261 O 0.249 0.20172 0.18192 0.0
O262 O 0.25513 0.15661 0.13614 0.0
C263 C 0.31857 0.15786 0.0798 0.0
Fe264 Fe 0.03165 0.9922 0.10365 0.0
Fe265 Fe 0.07748 0.02457 0.17622 0.0
O266 O 0.04697 0.98655 0.15323 0.0
Fe267 Fe 0.03221 0.94277 0.17798 0.0
O268 O 0.03528 0.9091 0.13126 0.0
O269 O 0.06373 0.94973 0.08843 0.0
O270 O 0.07174 0.02447 0.09154 0.0
C271 C 0.10694 0.01615 0.10074 0.0
C272 C 0.96133 0.96039 0.13238 0.0
O273 O 0.11686 0.01833 0.13732 0.0
C274 C 0.02913 1.00615 0.2398 0.0
O275 O 1.00196 0.03547 0.12101 0.0
O276 O 0.0535 0.06592 0.15013 0.0
O277 O 0.97556 0.95704 0.1687 0.0
O278 O 0.9878 0.95903 0.10569 0.0
C279 C 0.11561 0.9549 0.19367 0.0
O280 O 0.04102 0.03312 0.21595 0.0
O281 O 0.02938 0.96887 0.2287 0.0
C282 C 0.01907 0.06765 0.13398 0.0
O283 O 0.1051 0.98911 0.20598 0.0
O284 O 0.08746 0.92942 0.1854 0.0
C285 C 0.05702 0.91374 0.09927 0.0
Fe286 Fe 0.33071 0.78222 0.42799 0.0
Fe287 Fe 0.28129 0.78165 0.35365 0.0
O288 O 0.28693 0.79697 0.40323 0.0
Fe289 Fe 0.24891 0.82748 0.42622 0.0
O290 O 0.28436 0.8551 0.45598 0.0
O291 O 0.34405 0.83747 0.43541 0.0
O292 O 0.36438 0.78528 0.38127 0.0
C293 C 0.35974 0.80703 0.34928 0.0
C294 C 0.26733 0.77913 0.4898 0.0
O295 O 0.32375 0.81374 0.33843 0.0
C296 C 0.20583 0.76907 0.38396 0.0
O297 O 0.31644 0.72556 0.41871 0.0
O298 O 0.31446 0.7378 0.35569 0.0
O299 O 0.24036 0.79102 0.46595 0.0
O300 O 0.30461 0.77939 0.4787 0.0
C301 C 0.25732 0.85694 0.35074 0.0
O302 O 0.23801 0.75196 0.371 0.0
O303 O 0.20756 0.80349 0.40013 0.0
C304 C 0.3131 0.71134 0.38238 0.0
O305 O 0.24901 0.82174 0.34154 0.0
O306 O 0.25514 0.86686 0.38732 0.0
C307 C 0.31857 0.86562 0.44367 0.0
Fe308 Fe 0.49125 0.08071 0.67799 0.0
Fe309 Fe 0.49181 0.03128 0.60365 0.0
O310 O 0.4765 0.03692 0.65323 0.0
Fe311 Fe 0.44599 0.9989 0.67622 0.0
O312 O 0.41836 0.03436 0.70599 0.0
O313 O 0.436 0.09405 0.6854 0.0
O314 O 0.48819 0.11437 0.63126 0.0
C315 C 0.46644 0.10974 0.59928 0.0
C316 C 0.49434 0.01732 0.7398 0.0
O317 O 0.45973 0.07375 0.58843 0.0
C318 C 0.5044 0.95582 0.63398 0.0
O319 O 0.54791 0.06643 0.66871 0.0
O320 O 0.53567 0.06445 0.60569 0.0
O321 O 0.48244 0.99036 0.71595 0.0
O322 O 0.49408 0.05461 0.7287 0.0
C323 C 0.41653 1.00732 0.60075 0.0
O324 O 0.52151 0.988 0.62101 0.0
O325 O 0.46997 0.95755 0.65013 0.0
C326 C 0.56213 0.06309 0.63238 0.0
O327 O 0.45172 0.99901 0.59154 0.0
O328 O 0.40661 1.00514 0.63732 0.0
C329 C 0.40785 0.06857 0.69367 0.0
Fe330 Fe 0.19276 0.24126 0.92798 0.0
Fe331 Fe 0.24219 0.24182 0.85365 0.0
O332 O 0.23655 0.2265 0.90323 0.0
Fe333 Fe 0.27457 0.19599 0.92622 0.0
O334 O 0.23911 0.16837 0.95599 0.0
O335 O 0.17942 0.18601 0.93541 0.0
O336 O 0.1591 0.23819 0.88127 0.0
C337 C 0.16373 0.21644 0.84928 0.0
C338 C 0.25614 0.24434 0.9898 0.0
O339 O 0.19972 0.20973 0.83843 0.0
C340 C 0.31765 0.2544 0.88397 0.0
O341 O 0.20704 0.29791 0.9187 0.0
O342 O 0.20902 0.28567 0.85568 0.0
O343 O 0.28311 0.23245 0.96595 0.0
O344 O 0.21886 0.24409 0.9787 0.0
C345 C 0.26616 0.16653 0.85075 0.0
O346 O 0.28547 0.27151 0.87101 0.0
O347 O 0.31592 0.21998 0.90014 0.0
C348 C 0.21038 0.31213 0.88237 0.0
O349 O 0.27447 0.20173 0.84155 0.0
O350 O 0.26834 0.15661 0.88733 0.0
C351 C 0.2049 0.15786 0.94367 0.0
Fe352 Fe 0.34549 0.03221 0.0807 0.0
Fe353 Fe 0.41983 0.03164 0.03127 0.0
O354 O 0.37025 0.04696 0.0369 0.0
Fe355 Fe 0.34725 0.07747 0.99888 0.0
O356 O 0.3175 0.10511 0.03434 0.0
O357 O 0.33808 0.08745 0.09404 0.0
O358 O 0.39221 0.03527 0.11436 0.0
C359 C 0.42419 0.05702 0.10973 0.0
C360 C 0.28366 0.02913 0.01732 0.0
O361 O 0.43503 0.06374 0.07373 0.0
C362 C 0.38945 0.01903 0.95584 0.0
O363 O 0.35477 0.97556 0.06642 0.0
O364 O 0.41779 0.98779 0.06445 0.0
O365 O 0.30751 0.04101 0.99035 0.0
O366 O 0.29478 0.02938 0.0546 0.0
C367 C 0.42273 0.10692 1.0073 0.0
O368 O 0.4025 1.00193 0.98799 0.0
O369 O 0.37333 0.05347 0.95753 0.0
C370 C 0.39109 0.96133 0.06309 0.0
O371 O 0.43193 0.07173 0.99899 0.0
O372 O 0.38615 0.11684 1.00511 0.0
C373 C 0.3298 0.1156 0.06856 0.0
Fe374 Fe 0.84723 0.44602 0.02455 0.0
Fe375 Fe 0.84548 0.49128 0.94275 0.0
O376 O 0.87023 0.47652 0.98654 0.0
Fe377 Fe 0.9198 0.49183 0.99218 0.0
O378 O 0.93191 0.45175 0.02445 0.0
O379 O 0.88611 0.40663 0.01833 0.0
O380 O 0.81746 0.41839 0.98909 0.0
C381 C 0.82979 0.40788 0.95489 0.0
C382 C 0.88949 0.50441 0.06764 0.0
O383 O 0.83806 0.43603 0.9294 0.0
C384 C 0.89109 0.56215 0.96037 0.0
O385 O 0.8075 0.48248 0.03309 0.0
O386 O 0.79476 0.49411 0.96885 0.0
O387 O 0.90245 0.52153 0.03546 0.0
O388 O 0.87331 0.46999 0.06591 0.0
C389 C 0.92418 0.46645 0.91372 0.0
O390 O 0.85476 0.54793 0.95703 0.0
O391 O 0.91778 0.53569 0.95901 0.0
C392 C 0.78365 0.49436 1.00613 0.0
O393 O 0.8922 0.4882 0.90909 0.0
O394 O 0.93503 0.45974 0.94972 0.0
C395 C 0.92269 0.41656 0.01616 0.0
Fe396 Fe 0.78164 0.66982 0.24217 0.0
Fe397 Fe 0.82746 0.59724 0.27456 0.0
O398 O 0.79696 0.62024 0.23654 0.0
Fe399 Fe 0.7822 0.59548 0.19275 0.0
O400 O 0.78527 0.6422 0.15909 0.0
O401 O 0.81373 0.68503 0.19971 0.0
O402 O 0.82172 0.68192 0.27445 0.0
C403 C 0.85692 0.6727 0.26616 0.0
C404 C 0.71133 0.6411 0.21037 0.0
O405 O 0.86684 0.63613 0.26833 0.0
C406 C 0.77911 0.53366 0.25613 0.0
O407 O 0.75195 0.65247 0.28545 0.0
O408 O 0.80348 0.62333 0.3159 0.0
O409 O 0.72555 0.60477 0.20703 0.0
O410 O 0.73779 0.66778 0.209 0.0
C411 C 0.8656 0.5798 0.2049 0.0
O412 O 0.79099 0.55752 0.2831 0.0
O413 O 0.77937 0.54477 0.21885 0.0
C414 C 0.76906 0.63951 0.31763 0.0
O415 O 0.85508 0.56747 0.2391 0.0
O416 O 0.83745 0.58806 0.17941 0.0
C417 C 0.80702 0.67419 0.16372 0.0
Fe418 Fe 0.67625 0.57746 0.52456 0.0
Fe419 Fe 0.67799 0.5322 0.44275 0.0
O420 O 0.65324 0.54696 0.48654 0.0
Fe421 Fe 0.60367 0.53164 0.49219 0.0
O422 O 0.59156 0.57173 0.52446 0.0
O423 O 0.63736 0.61685 0.51834 0.0
O424 O 0.70601 0.60509 0.4891 0.0
C425 C 0.69368 0.6156 0.4549 0.0
C426 C 0.63398 0.51906 0.56764 0.0
O427 O 0.68541 0.58745 0.42941 0.0
C428 C 0.63238 0.46132 0.46038 0.0
O429 O 0.71597 0.54099 0.5331 0.0
O430 O 0.72871 0.52937 0.46885 0.0
O431 O 0.62102 0.50195 0.53547 0.0
O432 O 0.65016 0.55348 0.56591 0.0
C433 C 0.59929 0.55702 0.41373 0.0
O434 O 0.66871 0.47555 0.45703 0.0
O435 O 0.60569 0.48779 0.45901 0.0
C436 C 0.73982 0.52912 0.50613 0.0
O437 O 0.63127 0.53527 0.4091 0.0
O438 O 0.58844 0.56373 0.44972 0.0
C439 C 0.60078 0.60692 0.51616 0.0
Fe440 Fe 0.24126 0.92797 0.19277 0.0
Fe441 Fe 0.24182 0.85363 0.24219 0.0
O442 O 0.22651 0.90322 0.23656 0.0
Fe443 Fe 0.196 0.92621 0.27458 0.0
O444 O 0.16835 0.95597 0.23913 0.0
O445 O 0.18602 0.93539 0.17943 0.0
O446 O 0.23819 0.88126 0.15911 0.0
C447 C 0.21643 0.84928 0.16373 0.0
C448 C 0.24433 0.9898 0.25616 0.0
O449 O 0.20972 0.83843 0.19973 0.0
C450 C 0.25444 0.88401 0.31762 0.0
O451 O 0.29791 0.91869 0.20705 0.0
O452 O 0.28567 0.85567 0.20901 0.0
O453 O 0.23244 0.96595 0.28312 0.0
O454 O 0.24409 0.97868 0.21888 0.0
C455 C 0.16654 0.85073 0.26616 0.0
O456 O 0.27154 0.87096 0.28547 0.0
O457 O 0.21999 0.90013 0.31593 0.0
C458 C 0.31214 0.88236 0.21038 0.0
O459 O 0.20174 0.84153 0.27447 0.0
O460 O 0.15662 0.88731 0.26835 0.0
C461 C 0.15787 0.94367 0.20491 0.0
Fe462 Fe 0.17797 0.99127 0.5807 0.0
Fe463 Fe 0.10364 0.99183 0.53127 0.0
O464 O 0.15322 0.97652 0.5369 0.0
Fe465 Fe 0.17621 0.94601 0.49888 0.0
O466 O 0.20597 0.91836 0.53433 0.0
O467 O 0.18539 0.93602 0.59404 0.0
O468 O 0.13126 0.9882 0.61436 0.0
C469 C 0.09927 0.96645 0.60973 0.0
C470 C 0.23981 0.99434 0.51732 0.0
O471 O 0.08843 0.95973 0.57373 0.0
C472 C 0.13401 1.00445 0.45584 0.0
O473 O 0.1687 0.04792 0.56643 0.0
O474 O 0.10568 0.03568 0.56445 0.0
O475 O 0.21595 0.98246 0.49035 0.0
O476 O 0.22869 0.99409 0.5546 0.0
C477 C 0.10074 0.91655 0.50729 0.0
O478 O 0.12096 0.02155 0.48799 0.0
O479 O 0.15013 0.97 0.45753 0.0
C480 C 0.13237 0.06214 0.56309 0.0
O481 O 0.09153 0.95175 0.49899 0.0
O482 O 0.13732 0.90663 0.50511 0.0
C483 C 0.19367 0.90787 0.56855 0.0
Fe484 Fe 0.7822 0.428 0.33072 0.0
Fe485 Fe 0.78164 0.35366 0.28129 0.0
O486 O 0.79696 0.40324 0.28693 0.0
Fe487 Fe 0.82746 0.42624 0.24891 0.0
O488 O 0.85509 0.456 0.28437 0.0
O489 O 0.83745 0.43542 0.34406 0.0
O490 O 0.78527 0.38128 0.36438 0.0
C491 C 0.80702 0.3493 0.35975 0.0
C492 C 0.7791 0.48981 0.26733 0.0
O493 O 0.81374 0.33845 0.32376 0.0
C494 C 0.76906 0.38397 0.20583 0.0
O495 O 0.72555 0.41871 0.31644 0.0
O496 O 0.7378 0.3557 0.31447 0.0
O497 O 0.79099 0.46596 0.24036 0.0
O498 O 0.77936 0.47871 0.30461 0.0
C499 C 0.85691 0.35077 0.25731 0.0
O500 O 0.75195 0.37101 0.23801 0.0
O501 O 0.80348 0.40015 0.20756 0.0
C502 C 0.71133 0.38238 0.3131 0.0
O503 O 0.82172 0.34156 0.24902 0.0
O504 O 0.86685 0.38735 0.25514 0.0
C505 C 0.8656 0.44369 0.31857 0.0
Fe506 Fe 0.69601 0.59723 0.74891 0.0
Fe507 Fe 0.74127 0.59548 0.83072 0.0
O508 O 0.72651 0.62023 0.78693 0.0
Fe509 Fe 0.74183 0.66981 0.78129 0.0
O510 O 0.70174 0.68192 0.74902 0.0
O511 O 0.65662 0.63612 0.75514 0.0
O512 O 0.66838 0.56747 0.78437 0.0
C513 C 0.65787 0.57979 0.81858 0.0
C514 C 0.75441 0.6395 0.70584 0.0
O515 O 0.68602 0.58806 0.84406 0.0
C516 C 0.81214 0.64109 0.8131 0.0
O517 O 0.73248 0.55751 0.74038 0.0
O518 O 0.7441 0.54477 0.80462 0.0
O519 O 0.77152 0.65246 0.73802 0.0
O520 O 0.71999 0.62332 0.70756 0.0
C521 C 0.71644 0.67418 0.85975 0.0
O522 O 0.79792 0.60476 0.81645 0.0
O523 O 0.78567 0.66778 0.81447 0.0
C524 C 0.74435 0.53365 0.76734 0.0
O525 O 0.73819 0.6422 0.86438 0.0
O526 O 0.70973 0.68503 0.82376 0.0
C527 C 0.66655 0.6727 0.75731 0.0
Fe528 Fe 0.94296 0.67914 0.98997 0.0
Fe529 Fe 0.02687 0.67291 0.94704 0.0
O530 O 0.98649 0.65332 0.97705 0.0
Fe531 Fe 0.9889 0.60324 0.99203 0.0
O532 O 0.93561 0.59422 1.00488 0.0
O533 O 0.90824 0.63707 0.96781 0.0
O534 O 0.93886 0.70183 0.93872 0.0
C535 C 0.95893 0.69507 0.90622 0.0
C536 C 0.97246 0.63624 0.06314 0.0
O537 O 0.99506 0.6853 0.9065 0.0
C538 C 0.06479 0.62635 0.99942 0.0
O539 O 0.97337 0.72436 1.00891 0.0
O540 O 0.02592 0.72254 0.96787 0.0
O541 O 0.99905 0.61946 0.04235 0.0
O542 O 0.944 0.65645 0.04447 0.0
C543 C 1.00656 0.59921 0.91324 0.0
O544 O 0.0634 0.66135 0.9858 0.0
O545 O 0.04155 0.60037 0.98559 0.0
C546 C 1.00712 0.7395 0.99592 0.0
O547 O 0.03282 0.62621 0.91977 0.0
O548 O 0.98001 0.59085 0.93967 0.0
C549 C 0.90691 0.60109 0.98165 0.0
Fe550 Fe 0.09434 0.19297 0.73997 0.0
Fe551 Fe 0.10056 0.27689 0.69703 0.0
O552 O 0.12015 0.23651 0.72705 0.0
Fe553 Fe 0.17023 0.2389 0.74201 0.0
O554 O 0.17923 0.18561 0.75488 0.0
O555 O 0.13641 0.15826 0.71781 0.0
O556 O 0.07165 0.18886 0.68871 0.0
C557 C 0.0784 0.20894 0.65622 0.0
C558 C 0.13723 0.2225 0.81311 0.0
O559 O 0.08814 0.24508 0.6565 0.0
C560 C 0.14714 0.31479 0.74939 0.0
O561 O 0.0491 0.22337 0.75889 0.0
O562 O 0.05093 0.27595 0.71789 0.0
O563 O 0.15405 0.24907 0.79234 0.0
O564 O 0.11701 0.19402 0.79448 0.0
C565 C 0.17426 0.25655 0.66323 0.0
O566 O 0.11214 0.31342 0.73579 0.0
O567 O 0.17311 0.29156 0.73556 0.0
C568 C 0.03397 0.25713 0.74593 0.0
O569 O 0.14725 0.28282 0.66976 0.0
O570 O 0.1826 0.23 0.68965 0.0
C571 C 0.17238 0.15688 0.73168 0.0
Fe572 Fe 0.49659 0.35057 0.44704 0.0
Fe573 Fe 0.53457 0.42023 0.49203 0.0
O574 O 0.53698 0.37015 0.47705 0.0
Fe575 Fe 0.58051 0.34434 0.48997 0.0
O576 O 0.58461 0.32164 0.43872 0.0
O577 O 0.5284 0.33817 0.4065 0.0
O578 O 0.49065 0.39726 0.41978 0.0
C579 C 0.51691 0.42427 0.41325 0.0
C580 C 0.51635 0.28397 0.49592 0.0
O581 O 0.54346 0.43262 0.43968 0.0
C582 C 0.55101 0.38724 0.56314 0.0
O583 O 0.46006 0.36213 0.4858 0.0
O584 O 0.48191 0.4231 0.48559 0.0
O585 O 0.5501 0.29911 0.50891 0.0
O586 O 0.49755 0.30093 0.46787 0.0
C587 C 0.61656 0.42239 0.48165 0.0
O588 O 0.52442 0.40401 0.54235 0.0
O589 O 0.57947 0.36703 0.54448 0.0
C590 C 0.45868 0.39712 0.49942 0.0
O591 O 0.58786 0.42926 0.50488 0.0
O592 O 0.61523 0.3864 0.46782 0.0
C593 C 0.56454 0.32841 0.40622 0.0
Fe594 Fe 0.42291 0.74658 0.19703 0.0
Fe595 Fe 0.35323 0.78455 0.24201 0.0
O596 O 0.40332 0.78696 0.22705 0.0
Fe597 Fe 0.42913 0.8305 0.23997 0.0
O598 O 0.45181 0.83461 0.18872 0.0
O599 O 0.43532 0.7784 0.1565 0.0
O600 O 0.37621 0.74064 0.16975 0.0
C601 C 0.34922 0.76691 0.16322 0.0
C602 C 0.4895 0.76634 0.24592 0.0
O603 O 0.34086 0.79346 0.18965 0.0
C604 C 0.38624 0.80097 0.31311 0.0
O605 O 0.41134 0.71005 0.23579 0.0
O606 O 0.35037 0.7319 0.23556 0.0
O607 O 0.47436 0.8001 0.2589 0.0
O608 O 0.47254 0.74754 0.21788 0.0
C609 C 0.35107 0.86654 0.23166 0.0
O610 O 0.36943 0.7744 0.29234 0.0
O611 O 0.40645 0.82945 0.29448 0.0
C612 C 0.37635 0.70867 0.24939 0.0
O613 O 0.34421 0.83784 0.25488 0.0
O614 O 0.38706 0.86522 0.21782 0.0
C615 C 0.44506 0.81454 0.15622 0.0
Fe616 Fe 0.02689 0.35058 0.57645 0.0
Fe617 Fe 0.9889 0.42024 0.53146 0.0
O618 O 0.98651 0.37015 0.54643 0.0
Fe619 Fe 0.94298 0.34435 0.53351 0.0
O620 O 0.93887 0.32165 0.58476 0.0
O621 O 0.99508 0.33816 0.61698 0.0
O622 O 0.03282 0.39727 0.60372 0.0
C623 C 1.00655 0.42426 0.61025 0.0
C624 C 1.00714 0.28398 0.52755 0.0
O625 O 0.98 0.43261 0.58382 0.0
C626 C 0.97248 0.38725 0.46034 0.0
O627 O 0.06342 0.36215 0.53769 0.0
O628 O 0.04156 0.42312 0.5379 0.0
O629 O 0.97338 0.29912 0.51457 0.0
O630 O 0.02594 0.30094 0.5556 0.0
C631 C 0.90688 0.42239 0.5418 0.0
O632 O 0.99906 0.40403 0.48113 0.0
O633 O 0.94402 0.36703 0.479 0.0
C634 C 0.06479 0.39714 0.52407 0.0
O635 O 0.9356 0.42924 0.51859 0.0
O636 O 0.90827 0.38642 0.55567 0.0
C637 C 0.95894 0.32841 0.61726 0.0
Fe638 Fe 0.35323 0.23889 0.28147 0.0
Fe639 Fe 0.42913 0.19297 0.28351 0.0
O640 O 0.40332 0.2365 0.29643 0.0
Fe641 Fe 0.42291 0.27688 0.32645 0.0
O642 O 0.37622 0.28281 0.35373 0.0
O643 O 0.34087 0.22999 0.33383 0.0
O644 O 0.34423 0.1856 0.26859 0.0
C645 C 0.35109 0.15688 0.2918 0.0
C646 C 0.37633 0.31478 0.27409 0.0
O647 O 0.38706 0.15826 0.30567 0.0
C648 C 0.4895 0.25713 0.27755 0.0
O649 O 0.36942 0.24906 0.23114 0.0
O650 O 0.40646 0.19402 0.229 0.0
O651 O 0.41133 0.31341 0.28769 0.0
O652 O 0.35036 0.29155 0.28792 0.0
C653 C 0.44508 0.20893 0.36726 0.0
O654 O 0.47436 0.22337 0.26458 0.0
O655 O 0.47254 0.27594 0.30559 0.0
C656 C 0.38624 0.2225 0.21037 0.0
O657 O 0.45182 0.18886 0.33476 0.0
O658 O 0.43533 0.24508 0.36698 0.0
C659 C 0.34921 0.25655 0.36026 0.0
Fe660 Fe 0.49658 0.6729 0.07645 0.0
Fe661 Fe 0.53457 0.60324 0.03147 0.0
O662 O 0.53696 0.65332 0.04643 0.0
Fe663 Fe 0.58049 0.67913 0.03351 0.0
O664 O 0.5846 0.70183 0.08476 0.0
O665 O 0.52839 0.68532 0.11698 0.0
O666 O 0.49064 0.62621 0.10372 0.0
C667 C 0.51692 0.59921 0.11026 0.0
C668 C 0.51633 0.7395 0.02755 0.0
O669 O 0.54347 0.59087 0.08383 0.0
C670 C 0.55099 0.63622 0.96035 0.0
O671 O 0.46005 0.66133 0.03769 0.0
O672 O 0.48191 0.60036 0.03791 0.0
O673 O 0.55009 0.72436 0.01458 0.0
O674 O 0.49753 0.72254 0.0556 0.0
C675 C 0.61659 0.60109 0.04181 0.0
O676 O 0.52441 0.61944 0.98114 0.0
O677 O 0.57944 0.65644 0.97901 0.0
C678 C 0.45868 0.62634 0.02408 0.0
O679 O 0.58786 0.59423 0.0186 0.0
O680 O 0.6152 0.63706 0.05568 0.0
C681 C 0.56453 0.69507 0.11726 0.0
Fe682 Fe 0.10056 0.74659 0.82644 0.0
Fe683 Fe 0.17023 0.78458 0.78146 0.0
O684 O 0.12014 0.78697 0.79642 0.0
Fe685 Fe 0.09433 0.8305 0.7835 0.0
O686 O 0.07165 0.83462 0.83476 0.0
O687 O 0.08814 0.7784 0.86697 0.0
O688 O 0.14725 0.74066 0.85372 0.0
C689 C 0.17425 0.76692 0.86025 0.0
C690 C 0.03397 0.76634 0.77755 0.0
O691 O 0.1826 0.79348 0.83382 0.0
C692 C 0.13723 0.80097 0.71036 0.0
O693 O 0.11214 0.71006 0.78768 0.0
O694 O 0.17311 0.73192 0.78791 0.0
O695 O 0.0491 0.8001 0.76458 0.0
O696 O 0.05093 0.74753 0.80558 0.0
C697 C 0.17238 0.86659 0.79179 0.0
O698 O 0.15404 0.77441 0.73113 0.0
O699 O 0.11701 0.82945 0.72899 0.0
C700 C 0.14714 0.70869 0.77408 0.0
O701 O 0.17923 0.83787 0.76859 0.0
O702 O 0.13641 0.86521 0.80566 0.0
C703 C 0.07839 0.81454 0.86725 0.0
Fe704 Fe 0.99199 0.98891 0.60322 0.0
Fe705 Fe 0.98996 0.94299 0.67912 0.0
O706 O 0.97704 0.98652 0.65331 0.0
Fe707 Fe 0.94702 0.02689 0.6729 0.0
O708 O 0.91974 0.03283 0.62621 0.0
O709 O 0.93963 0.98 0.59087 0.0
O710 O 1.00487 0.93562 0.59422 0.0
C711 C 0.98167 0.90689 0.60108 0.0
C712 C 0.99938 0.0648 0.62633 0.0
O713 O 0.9678 0.90827 0.63705 0.0
C714 C 0.99592 1.00715 0.73949 0.0
O715 O 0.04233 0.99908 0.6194 0.0
O716 O 0.04447 0.94404 0.65644 0.0
O717 O 0.98577 0.06342 0.66132 0.0
O718 O 0.98554 0.04157 0.60035 0.0
C719 C 0.90621 0.95894 0.69506 0.0
O720 O 1.00889 0.97339 0.72435 0.0
O721 O 0.96788 0.02595 0.72253 0.0
C722 C 0.0631 0.97251 0.63622 0.0
O723 O 0.93871 0.93887 0.70181 0.0
O724 O 0.90649 0.99508 0.68532 0.0
C725 C 0.9132 1.00655 0.59921 0.0
Fe726 Fe 0.74659 0.19703 0.4229 0.0
Fe727 Fe 0.78455 0.24202 0.35323 0.0
O728 O 0.78697 0.22705 0.40331 0.0
Fe729 Fe 0.8305 0.23998 0.42912 0.0
O730 O 0.83462 0.18872 0.45181 0.0
O731 O 0.7784 0.1565 0.4353 0.0
O732 O 0.74064 0.16976 0.37621 0.0
C733 C 0.76691 0.16324 0.3492 0.0
C734 C 0.76634 0.24593 0.48949 0.0
O735 O 0.79346 0.18967 0.34085 0.0
C736 C 0.80097 0.31312 0.38624 0.0
O737 O 0.71005 0.23579 0.41134 0.0
O738 O 0.7319 0.23557 0.35037 0.0
O739 O 0.8001 0.2589 0.47436 0.0
O740 O 0.74754 0.21788 0.47253 0.0
C741 C 0.86654 0.23166 0.35107 0.0
O742 O 0.7744 0.29235 0.36943 0.0
O743 O 0.82945 0.29448 0.40645 0.0
C744 C 0.70867 0.2494 0.37635 0.0
O745 O 0.83784 0.25489 0.3442 0.0
O746 O 0.86523 0.21783 0.38705 0.0
C747 C 0.81454 0.15622 0.44505 0.0
Fe748 Fe 0.5335 0.08049 0.17912 0.0
Fe749 Fe 0.57644 0.99658 0.1729 0.0
O750 O 0.54642 0.03696 0.15331 0.0
Fe751 Fe 0.53147 0.03457 0.10322 0.0
O752 O 0.51859 0.08786 0.09422 0.0
O753 O 0.55566 0.1152 0.13705 0.0
O754 O 0.58475 0.08461 0.20181 0.0
C755 C 0.61725 0.06454 0.19506 0.0
C756 C 0.46036 0.05096 0.13622 0.0
O757 O 0.61697 0.02839 0.18532 0.0
C758 C 0.52408 0.95868 0.12632 0.0
O759 O 0.51457 0.05009 0.22435 0.0
O760 O 0.55559 0.99753 0.22253 0.0
O761 O 0.48114 0.0244 0.1194 0.0
O762 O 0.47899 0.07944 0.15644 0.0
C763 C 0.61026 0.01693 0.09921 0.0
O764 O 0.53769 0.96005 0.16132 0.0
O765 O 0.53792 0.98191 0.10035 0.0
C766 C 0.52754 0.01633 0.23949 0.0
O767 O 0.60373 0.99065 0.12621 0.0
O768 O 0.58383 0.04348 0.09087 0.0
C769 C 0.5418 0.11658 0.10108 0.0
Fe770 Fe 0.73891 0.78145 0.85323 0.0
Fe771 Fe 0.69297 0.7835 0.92912 0.0
O772 O 0.7365 0.79642 0.90331 0.0
Fe773 Fe 0.77688 0.82644 0.9229 0.0
O774 O 0.78282 0.85371 0.87621 0.0
O775 O 0.73001 0.83381 0.84085 0.0
O776 O 0.68563 0.76859 0.8442 0.0
C777 C 0.65692 0.79181 0.85107 0.0
C778 C 0.8148 0.77407 0.87635 0.0
O779 O 0.65824 0.80565 0.88705 0.0
C780 C 0.75713 0.77755 0.98949 0.0
O781 O 0.74907 0.73113 0.86943 0.0
O782 O 0.69402 0.72899 0.90645 0.0
O783 O 0.81341 0.78769 0.91134 0.0
O784 O 0.79157 0.7879 0.85037 0.0
C785 C 0.70892 0.86726 0.94505 0.0
O786 O 0.72337 0.76457 0.97435 0.0
O787 O 0.77592 0.8056 0.97253 0.0
C788 C 0.7225 0.71036 0.88624 0.0
O789 O 0.68885 0.83476 0.95181 0.0
O790 O 0.74506 0.86698 0.9353 0.0
C791 C 0.75656 0.86024 0.8492 0.0
Fe792 Fe 0.99201 0.03458 0.92023 0.0
Fe793 Fe 0.98996 0.0805 0.84434 0.0
O794 O 0.97704 0.03697 0.87015 0.0
Fe795 Fe 0.94703 0.99658 0.85057 0.0
O796 O 0.91976 0.99065 0.89726 0.0
O797 O 0.93966 0.04348 0.93261 0.0
O798 O 1.00488 0.08788 0.92923 0.0
C799 C 0.98167 0.1166 0.92238 0.0
C800 C 0.9994 0.95869 0.89714 0.0
O801 O 0.9678 0.11521 0.88641 0.0
C802 C 0.99593 0.01633 0.784 0.0
O803 O 0.04234 0.02442 0.90401 0.0
O804 O 0.04447 0.07946 0.86702 0.0
O805 O 0.98578 0.96006 0.86214 0.0
O806 O 0.98558 0.98192 0.92311 0.0
C807 C 0.90621 0.06453 0.82841 0.0
O808 O 1.00889 0.05011 0.79911 0.0
O809 O 0.96788 0.99752 0.80094 0.0
C810 C 0.06313 0.051 0.88724 0.0
O811 O 0.93871 0.08461 0.82165 0.0
O812 O 0.90649 0.02839 0.83815 0.0
C813 C 0.91323 0.01692 0.92426 0.0
Fe814 Fe 0.73891 0.24202 0.67024 0.0
Fe815 Fe 0.69297 0.23997 0.59434 0.0
O816 O 0.7365 0.22705 0.62015 0.0
Fe817 Fe 0.77689 0.19702 0.60058 0.0
O818 O 0.78282 0.16976 0.64727 0.0
O819 O 0.73001 0.18967 0.68262 0.0
O820 O 0.68562 0.25488 0.67926 0.0
C821 C 0.65692 0.23165 0.67239 0.0
C822 C 0.81479 0.2494 0.64713 0.0
O823 O 0.65825 0.21782 0.63641 0.0
C824 C 0.75715 0.24593 0.534 0.0
O825 O 0.74906 0.29235 0.65402 0.0
O826 O 0.69402 0.29448 0.61703 0.0
O827 O 0.81342 0.23578 0.61214 0.0
O828 O 0.79156 0.23558 0.67311 0.0
C829 C 0.70893 0.15622 0.57841 0.0
O830 O 0.72338 0.2589 0.54911 0.0
O831 O 0.77594 0.21787 0.55094 0.0
C832 C 0.72248 0.31314 0.63724 0.0
O833 O 0.68886 0.18872 0.57165 0.0
O834 O 0.74507 0.15649 0.58817 0.0
C835 C 0.75655 0.16323 0.67427 0.0
Fe836 Fe 0.5335 0.94297 0.34434 0.0
Fe837 Fe 0.57644 0.02689 0.35057 0.0
O838 O 0.54642 0.9865 0.37015 0.0
Fe839 Fe 0.53145 0.98889 0.42023 0.0
O840 O 0.51858 0.9356 0.42923 0.0
O841 O 0.55567 0.90826 0.38641 0.0
O842 O 0.58476 0.93887 0.32165 0.0
C843 C 0.61725 0.95894 0.32841 0.0
C844 C 0.46033 0.97248 0.38724 0.0
O845 O 0.61697 0.99508 0.33816 0.0
C846 C 0.52406 0.06479 0.39714 0.0
O847 O 0.51457 0.97337 0.29911 0.0
O848 O 0.55559 0.02595 0.30094 0.0
O849 O 0.48113 0.99905 0.40402 0.0
O850 O 0.47899 0.94402 0.36702 0.0
C851 C 0.61023 1.00655 0.42427 0.0
O852 O 0.53768 0.06342 0.36214 0.0
O853 O 0.53789 0.04155 0.42311 0.0
C854 C 0.52754 1.00714 0.284 0.0
O855 O 0.6037 0.03282 0.39727 0.0
O856 O 0.5838 0.98 0.43261 0.0
C857 C 0.5418 0.90688 0.42238 0.0
Fe858 Fe 0.74658 0.82645 0.10057 0.0
Fe859 Fe 0.78455 0.78146 0.17024 0.0
O860 O 0.78696 0.79643 0.12015 0.0
Fe861 Fe 0.8305 0.7835 0.09434 0.0
O862 O 0.83461 0.83476 0.07166 0.0
O863 O 0.7784 0.86698 0.08816 0.0
O864 O 0.74065 0.85372 0.14726 0.0
C865 C 0.76691 0.86025 0.17427 0.0
C866 C 0.76632 0.77755 0.034 0.0
O867 O 0.79346 0.83382 0.18261 0.0
C868 C 0.80096 0.71036 0.13722 0.0
O869 O 0.71005 0.7877 0.11214 0.0
O870 O 0.7319 0.78791 0.17311 0.0
O871 O 0.8001 0.76458 0.04911 0.0
O872 O 0.74752 0.8056 0.05094 0.0
C873 C 0.86654 0.79182 0.1724 0.0
O874 O 0.77439 0.73113 0.15404 0.0
O875 O 0.82944 0.729 0.11702 0.0
C876 C 0.70867 0.77408 0.14713 0.0
O877 O 0.83784 0.76859 0.17926 0.0
O878 O 0.86522 0.80565 0.13641 0.0
C879 C 0.81454 0.86726 0.07841 0.0
Fe880 Fe 0.67913 0.98996 0.94296 0.0
Fe881 Fe 0.6729 0.94703 0.02687 0.0
O882 O 0.65332 0.97704 0.98649 0.0
Fe883 Fe 0.60324 0.99202 0.98889 0.0
O884 O 0.59421 1.00488 0.9356 0.0
O885 O 0.63706 0.96781 0.90823 0.0
O886 O 0.70182 0.93871 0.93885 0.0
C887 C 0.69503 0.90621 0.95892 0.0
C888 C 0.63623 0.06314 0.97246 0.0
O889 O 0.68529 0.90649 0.99506 0.0
C890 C 0.62636 0.99942 0.06476 0.0
O891 O 0.72435 1.0089 0.97337 0.0
O892 O 0.72254 0.96786 0.02591 0.0
O893 O 0.61946 0.04235 0.99904 0.0
O894 O 0.65644 0.04447 0.944 0.0
C895 C 0.5992 0.91324 1.00656 0.0
O896 O 0.66135 0.98578 0.06341 0.0
O897 O 0.60038 0.9856 0.04154 0.0
C898 C 0.73949 0.99592 1.00712 0.0
O899 O 0.6262 0.91977 0.03282 0.0
O900 O 0.59085 0.93967 0.98001 0.0
C901 C 0.60108 0.98164 0.90691 0.0
Fe902 Fe 0.17911 0.53352 0.08049 0.0
Fe903 Fe 0.17288 0.57646 0.99657 0.0
O904 O 0.1533 0.54645 0.03696 0.0
Fe905 Fe 0.1032 0.53148 0.03457 0.0
O906 O 0.09421 0.5186 0.08786 0.0
O907 O 0.13704 0.55568 0.1152 0.0
O908 O 0.20179 0.58478 0.0846 0.0
C909 C 0.19505 0.61727 0.06452 0.0
C910 C 0.13622 0.46038 0.05096 0.0
O911 O 0.18532 0.61699 0.02838 0.0
C912 C 0.1263 0.5241 0.95868 0.0
O913 O 0.22435 0.5146 0.05009 0.0
O914 O 0.22251 0.5556 0.99751 0.0
O915 O 0.1194 0.48115 0.0244 0.0
O916 O 0.15644 0.47901 0.07943 0.0
C917 C 0.09925 0.61028 0.01698 0.0
O918 O 0.1613 0.53771 0.96005 0.0
O919 O 0.10033 0.53794 0.98191 0.0
C920 C 0.23948 0.52757 0.01633 0.0
O921 O 0.12619 0.60375 0.99065 0.0
O922 O 0.09081 0.58384 0.04348 0.0
C923 C 0.10107 0.5418 0.11659 0.0
Fe924 Fe 0.23996 0.42912 0.83049 0.0
Fe925 Fe 0.19701 0.42289 0.74658 0.0
O926 O 0.22703 0.4033 0.78697 0.0
Fe927 Fe 0.24201 0.35322 0.78456 0.0
O928 O 0.25488 0.3442 0.83785 0.0
O929 O 0.21781 0.38705 0.86522 0.0
O930 O 0.1887 0.45181 0.83461 0.0
C931 C 0.1562 0.44506 0.81454 0.0
C932 C 0.31313 0.38623 0.80098 0.0
O933 O 0.15648 0.43531 0.77839 0.0
C934 C 0.24939 0.37633 0.70868 0.0
O935 O 0.25888 0.47435 0.80009 0.0
O936 O 0.21786 0.47253 0.74753 0.0
O937 O 0.29233 0.36946 0.7744 0.0
O938 O 0.29446 0.40644 0.82945 0.0
C939 C 0.16322 0.34924 0.76696 0.0
O940 O 0.23577 0.41132 0.71005 0.0
O941 O 0.23556 0.35035 0.73191 0.0
C942 C 0.2459 0.48949 0.76633 0.0
O943 O 0.16974 0.3762 0.74065 0.0
O944 O 0.18967 0.34079 0.79346 0.0
C945 C 0.23165 0.35107 0.86655 0.0
Fe946 Fe 0.35058 0.44701 0.49658 0.0
Fe947 Fe 0.42027 0.49199 0.53457 0.0
O948 O 0.37017 0.47703 0.53696 0.0
Fe949 Fe 0.34436 0.48996 0.58049 0.0
O950 O 0.32168 0.4387 0.58461 0.0
O951 O 0.33815 0.40649 0.52838 0.0
O952 O 0.39728 0.41972 0.49066 0.0
C953 C 0.42422 0.41319 0.51698 0.0
C954 C 0.28399 0.49591 0.51633 0.0
O955 O 0.43266 0.43964 0.54349 0.0
C956 C 0.38725 0.5631 0.55096 0.0
O957 O 0.36217 0.48576 0.46005 0.0
O958 O 0.42314 0.48553 0.48191 0.0
O959 O 0.29912 0.50888 0.55009 0.0
O960 O 0.30095 0.46788 0.49751 0.0
C961 C 0.4224 0.48167 0.61659 0.0
O962 O 0.40407 0.54232 0.5244 0.0
O963 O 0.36703 0.54447 0.57944 0.0
C964 C 0.39717 0.49938 0.45869 0.0
O965 O 0.42926 0.50488 0.58786 0.0
O966 O 0.38643 0.4678 0.61521 0.0
C967 C 0.32841 0.40621 0.56453 0.0
Fe968 Fe 0.78351 0.09434 0.83051 0.0
Fe969 Fe 0.82644 0.10056 0.74659 0.0
O970 O 0.79642 0.12014 0.78697 0.0
Fe971 Fe 0.78146 0.17023 0.78459 0.0
O972 O 0.76858 0.17923 0.83788 0.0
O973 O 0.80567 0.13642 0.86522 0.0
O974 O 0.83476 0.07165 0.83462 0.0
C975 C 0.86725 0.07842 0.81454 0.0
C976 C 0.71036 0.13722 0.80098 0.0
O977 O 0.86697 0.08814 0.77839 0.0
C978 C 0.77407 0.14713 0.70872 0.0
O979 O 0.76458 0.0491 0.80011 0.0
O980 O 0.80558 0.05093 0.74753 0.0
O981 O 0.73113 0.15404 0.77442 0.0
O982 O 0.72899 0.11701 0.82946 0.0
C983 C 0.86024 0.17426 0.76692 0.0
O984 O 0.78769 0.11213 0.71005 0.0
O985 O 0.7879 0.17311 0.73194 0.0
C986 C 0.77755 0.03397 0.76634 0.0
O987 O 0.85371 0.14725 0.74066 0.0
O988 O 0.83382 0.1826 0.79348 0.0
C989 C 0.79179 0.17239 0.8666 0.0
Fe990 Fe 0.92023 0.03145 0.48889 0.0
Fe991 Fe 0.84433 0.03351 0.44296 0.0
O992 O 0.87015 0.04643 0.48649 0.0
Fe993 Fe 0.85057 0.07645 0.52687 0.0
O994 O 0.89726 0.10371 0.53282 0.0
O995 O 0.93262 0.0838 0.48001 0.0
O996 O 0.92925 0.0186 0.4356 0.0
C997 C 0.92239 0.04183 0.40691 0.0
C998 C 0.8971 0.02406 0.56476 0.0
O999 O 0.8864 0.05567 0.40823 0.0
C1000 C 0.78397 0.02756 0.50713 0.0
O1001 O 0.90401 0.98113 0.49904 0.0
O1002 O 0.86702 0.979 0.444 0.0
O1003 O 0.86211 0.0377 0.56341 0.0
O1004 O 0.92309 0.03788 0.54154 0.0
C1005 C 0.82844 0.11726 0.45892 0.0
O1006 O 0.79911 0.01458 0.47337 0.0
O1007 O 0.80093 0.05562 0.52591 0.0
C1008 C 0.88723 0.96034 0.47246 0.0
O1009 O 0.82164 0.08477 0.43885 0.0
O1010 O 0.83817 0.11699 0.49506 0.0
C1011 C 0.92427 0.11023 0.50656 0.0
Fe1012 Fe 0.24201 0.67026 0.73891 0.0
Fe1013 Fe 0.23995 0.59435 0.69297 0.0
O1014 O 0.22703 0.62017 0.7365 0.0
Fe1015 Fe 0.19701 0.60059 0.77689 0.0
O1016 O 0.16974 0.64728 0.78282 0.0
O1017 O 0.18967 0.68268 0.73001 0.0
O1018 O 0.25488 0.67927 0.68562 0.0
C1019 C 0.23165 0.6724 0.65692 0.0
C1020 C 0.24939 0.64715 0.81479 0.0
O1021 O 0.21781 0.63642 0.65825 0.0
C1022 C 0.24591 0.53401 0.75715 0.0
O1023 O 0.29233 0.65402 0.74906 0.0
O1024 O 0.29446 0.61703 0.69402 0.0
O1025 O 0.23577 0.61216 0.81342 0.0
O1026 O 0.23556 0.67313 0.79156 0.0
C1027 C 0.1562 0.57842 0.70894 0.0
O1028 O 0.25888 0.54912 0.72337 0.0
O1029 O 0.21786 0.55095 0.77596 0.0
C1030 C 0.31313 0.63724 0.72249 0.0
O1031 O 0.1887 0.57167 0.68886 0.0
O1032 O 0.15648 0.58816 0.74508 0.0
C1033 C 0.16322 0.67424 0.75651 0.0
Fe1034 Fe 0.32646 0.42288 0.27689 0.0
Fe1035 Fe 0.28145 0.35321 0.23891 0.0
O1036 O 0.29644 0.4033 0.23651 0.0
Fe1037 Fe 0.28351 0.42911 0.19298 0.0
O1038 O 0.33477 0.4518 0.18887 0.0
O1039 O 0.36699 0.4353 0.24508 0.0
O1040 O 0.35373 0.37619 0.28283 0.0
C1041 C 0.36025 0.34923 0.25651 0.0
C1042 C 0.27757 0.48948 0.25715 0.0
O1043 O 0.3338 0.34079 0.23001 0.0
C1044 C 0.21034 0.38623 0.22249 0.0
O1045 O 0.2877 0.41132 0.31342 0.0
O1046 O 0.28791 0.35035 0.29157 0.0
O1047 O 0.26459 0.47434 0.22339 0.0
O1048 O 0.30561 0.47252 0.27595 0.0
C1049 C 0.29182 0.35107 0.15692 0.0
O1050 O 0.23113 0.36945 0.24907 0.0
O1051 O 0.22901 0.40644 0.19403 0.0
C1052 C 0.27408 0.37633 0.3148 0.0
O1053 O 0.26859 0.3442 0.18562 0.0
O1054 O 0.30566 0.38705 0.15825 0.0
C1055 C 0.36727 0.44505 0.20894 0.0
Fe1056 Fe 0.58073 0.84549 0.5322 0.0
Fe1057 Fe 0.53129 0.91982 0.53164 0.0
O1058 O 0.53693 0.87024 0.54695 0.0
Fe1059 Fe 0.49891 0.84724 0.57746 0.0
O1060 O 0.53437 0.81748 0.60509 0.0
O1061 O 0.59407 0.83808 0.58745 0.0
O1062 O 0.61438 0.89221 0.53526 0.0
C1063 C 0.60975 0.92419 0.55702 0.0
C1064 C 0.51735 0.78367 0.52911 0.0
O1065 O 0.57375 0.93504 0.56374 0.0
C1066 C 0.45583 0.88951 0.51906 0.0
O1067 O 0.56646 0.85476 0.47554 0.0
O1068 O 0.56445 0.9178 0.48779 0.0
O1069 O 0.49038 0.80752 0.54099 0.0
O1070 O 0.55463 0.79477 0.52937 0.0
C1071 C 0.50731 0.9227 0.60692 0.0
O1072 O 0.48801 0.90248 0.50195 0.0
O1073 O 0.45756 0.87333 0.55348 0.0
C1074 C 0.56306 0.89109 0.46134 0.0
O1075 O 0.49902 0.93192 0.57173 0.0
O1076 O 0.50514 0.88613 0.61685 0.0
C1077 C 0.56858 0.82978 0.61559 0.0
Fe1078 Fe 0.42798 0.33072 0.7822 0.0
Fe1079 Fe 0.35365 0.28127 0.78163 0.0
O1080 O 0.40323 0.28693 0.79696 0.0
Fe1081 Fe 0.42623 0.24891 0.82746 0.0
O1082 O 0.45599 0.28436 0.8551 0.0
O1083 O 0.4354 0.34406 0.83745 0.0
O1084 O 0.38126 0.36439 0.78528 0.0
C1085 C 0.34929 0.35971 0.80702 0.0
C1086 C 0.4898 0.26734 0.77911 0.0
O1087 O 0.3384 0.32373 0.81372 0.0
C1088 C 0.38398 0.20582 0.76905 0.0
O1089 O 0.4187 0.31645 0.72555 0.0
O1090 O 0.35569 0.31446 0.73779 0.0
O1091 O 0.46596 0.24037 0.791 0.0
O1092 O 0.4787 0.30462 0.77937 0.0
C1093 C 0.35077 0.2573 0.85691 0.0
O1094 O 0.37102 0.23801 0.75194 0.0
O1095 O 0.40015 0.20756 0.80348 0.0
C1096 C 0.38238 0.3131 0.71132 0.0
O1097 O 0.34155 0.249 0.82172 0.0
O1098 O 0.38734 0.25513 0.86684 0.0
C1099 C 0.44368 0.31858 0.86559 0.0
Fe1100 Fe 0.02455 0.17624 0.07746 0.0
Fe1101 Fe 0.94274 0.17799 0.0322 0.0
O1102 O 0.98653 0.15323 0.04695 0.0
Fe1103 Fe 0.99218 0.10365 0.03164 0.0
O1104 O 0.02445 0.09155 0.07173 0.0
O1105 O 0.01833 0.13735 0.11685 0.0
O1106 O 0.9891 0.206 0.10509 0.0
C1107 C 0.95489 0.19369 0.11559 0.0
C1108 C 0.06764 0.13397 0.01906 0.0
O1109 O 0.9294 0.1854 0.08745 0.0
C1110 C 0.96041 0.13238 0.96134 0.0
O1111 O 0.03309 0.21596 0.04099 0.0
O1112 O 0.96884 0.2287 0.02937 0.0
O1113 O 0.03546 0.121 1.00195 0.0
O1114 O 0.0659 0.15015 0.05348 0.0
C1115 C 0.91372 0.09928 0.05702 0.0
O1116 O 0.95701 0.16871 0.97554 0.0
O1117 O 0.95902 0.10568 0.98779 0.0
C1118 C 1.00612 0.23981 0.02911 0.0
O1119 O 0.90909 0.13126 0.03526 0.0
O1120 O 0.94971 0.08844 0.06373 0.0
C1121 C 0.01615 0.10077 0.10692 0.0
Fe1122 Fe 0.16983 0.74218 0.28162 0.0
Fe1123 Fe 0.09725 0.77458 0.32745 0.0
O1124 O 0.12025 0.73655 0.29694 0.0
Fe1125 Fe 0.09549 0.69276 0.2822 0.0
O1126 O 0.14221 0.65909 0.28527 0.0
O1127 O 0.18504 0.69972 0.31373 0.0
O1128 O 0.18193 0.77446 0.32171 0.0
C1129 C 0.17271 0.76617 0.3569 0.0
C1130 C 0.1411 0.71037 0.21131 0.0
O1131 O 0.13614 0.76835 0.36683 0.0
C1132 C 0.03367 0.75614 0.27912 0.0
O1133 O 0.15251 0.78546 0.25192 0.0
O1134 O 0.12333 0.81592 0.30346 0.0
O1135 O 0.10477 0.70703 0.22554 0.0
O1136 O 0.16779 0.709 0.23778 0.0
C1137 C 0.07979 0.70491 0.36559 0.0
O1138 O 0.05751 0.78311 0.291 0.0
O1139 O 0.04478 0.71886 0.27937 0.0
C1140 C 0.13946 0.81761 0.26902 0.0
O1141 O 0.06749 0.73912 0.3551 0.0
O1142 O 0.08808 0.67942 0.33745 0.0
C1143 C 0.17419 0.66373 0.30702 0.0
Fe1144 Fe 0.53127 0.10363 0.99183 0.0
Fe1145 Fe 0.49889 0.17622 0.946 0.0
O1146 O 0.53691 0.15322 0.97651 0.0
Fe1147 Fe 0.58071 0.17798 0.99126 0.0
O1148 O 0.61437 0.13126 0.98818 0.0
O1149 O 0.57373 0.08841 0.95973 0.0
O1150 O 0.49899 0.09154 0.95175 0.0
C1151 C 0.50729 0.10075 0.91655 0.0
C1152 C 0.56306 0.13237 0.06212 0.0
O1153 O 0.50511 0.13733 0.90662 0.0
C1154 C 0.51732 0.2398 0.99435 0.0
O1155 O 0.48799 0.12096 0.02154 0.0
O1156 O 0.45754 0.15014 0.96999 0.0
O1157 O 0.56645 0.1687 0.04792 0.0
O1158 O 0.56445 0.10566 0.03567 0.0
C1159 C 0.56856 0.19368 0.90787 0.0
O1160 O 0.49035 0.21595 0.98246 0.0
O1161 O 0.5546 0.22869 0.9941 0.0
C1162 C 0.45584 0.134 1.00444 0.0
O1163 O 0.53434 0.20598 0.91836 0.0
O1164 O 0.59404 0.1854 0.93601 0.0
C1165 C 0.60971 0.0993 0.96642 0.0
Fe1166 Fe 0.16981 0.28127 0.24183 0.0
Fe1167 Fe 0.09723 0.24891 0.196 0.0
O1168 O 0.12024 0.28693 0.22651 0.0
Fe1169 Fe 0.09548 0.33072 0.24127 0.0
O1170 O 0.1422 0.36438 0.23819 0.0
O1171 O 0.18506 0.32373 0.20975 0.0
O1172 O 0.18192 0.249 0.20175 0.0
C1173 C 0.1727 0.2573 0.16656 0.0
C1174 C 0.14109 0.31309 0.31214 0.0
O1175 O 0.13613 0.25513 0.15662 0.0
C1176 C 0.03366 0.26734 0.24435 0.0
O1177 O 0.15244 0.238 0.27153 0.0
O1178 O 0.12331 0.20755 0.21999 0.0
O1179 O 0.10476 0.31645 0.29792 0.0
O1180 O 0.16778 0.31446 0.28568 0.0
C1181 C 0.07978 0.31858 0.15788 0.0
O1182 O 0.05751 0.24037 0.23246 0.0
O1183 O 0.04477 0.30462 0.2441 0.0
C1184 C 0.13949 0.20582 0.25441 0.0
O1185 O 0.06747 0.28436 0.16837 0.0
O1186 O 0.08806 0.34406 0.18602 0.0
C1187 C 0.17418 0.35971 0.21644 0.0
Fe1188 Fe 0.02458 0.84726 0.446 0.0
Fe1189 Fe 0.94276 0.8455 0.49126 0.0
O1190 O 0.98655 0.87026 0.47651 0.0
Fe1191 Fe 0.9922 0.91985 0.49183 0.0
O1192 O 0.02447 0.93194 0.45174 0.0
O1193 O 0.01835 0.88615 0.40662 0.0
O1194 O 0.98912 0.81749 0.41836 0.0
C1195 C 0.95491 0.8298 0.40787 0.0
C1196 C 0.06762 0.88947 0.50444 0.0
O1197 O 0.92942 0.83808 0.43602 0.0
C1198 C 0.96041 0.89111 0.56212 0.0
O1199 O 0.03311 0.80753 0.48246 0.0
O1200 O 0.96886 0.79478 0.4941 0.0
O1201 O 0.03547 0.90252 0.52154 0.0
O1202 O 0.06593 0.87334 0.46999 0.0
C1203 C 0.91376 0.92418 0.46642 0.0
O1204 O 0.95701 0.85478 0.54792 0.0
O1205 O 0.95902 0.91781 0.53567 0.0
C1206 C 1.00614 0.78368 0.49435 0.0
O1207 O 0.90909 0.89221 0.48818 0.0
O1208 O 0.94974 0.93507 0.45973 0.0
C1209 C 0.01617 0.92272 0.41655 0.0
Fe1210 Fe 0.42623 0.77456 0.69601 0.0
Fe1211 Fe 0.42799 0.69275 0.74127 0.0
O1212 O 0.40323 0.73654 0.72651 0.0
Fe1213 Fe 0.35365 0.7422 0.74183 0.0
O1214 O 0.34155 0.77447 0.70175 0.0
O1215 O 0.38734 0.76834 0.65662 0.0
O1216 O 0.45599 0.73911 0.66837 0.0
C1217 C 0.44369 0.70489 0.65788 0.0
C1218 C 0.38398 0.81765 0.75441 0.0
O1219 O 0.43541 0.67941 0.68602 0.0
C1220 C 0.38238 0.71038 0.81214 0.0
O1221 O 0.46596 0.7831 0.73247 0.0
O1222 O 0.4787 0.71885 0.7441 0.0
O1223 O 0.37102 0.78547 0.77153 0.0
O1224 O 0.40015 0.81592 0.71999 0.0
C1225 C 0.34929 0.66376 0.71644 0.0
O1226 O 0.41871 0.70703 0.79792 0.0
O1227 O 0.35569 0.70902 0.78567 0.0
C1228 C 0.48981 0.75613 0.74435 0.0
O1229 O 0.38126 0.65909 0.73819 0.0
O1230 O 0.3384 0.69974 0.70975 0.0
C1231 C 0.35077 0.76617 0.66656 0.0
Fe1232 Fe 0.53221 0.5807 0.8455 0.0
Fe1233 Fe 0.53164 0.53126 0.91984 0.0
O1234 O 0.54696 0.5369 0.87026 0.0
Fe1235 Fe 0.57747 0.49888 0.84726 0.0
O1236 O 0.60512 0.53433 0.81751 0.0
O1237 O 0.58746 0.59403 0.83808 0.0
O1238 O 0.53529 0.61437 0.89222 0.0
C1239 C 0.55704 0.6097 0.92419 0.0
C1240 C 0.52914 0.51732 0.78367 0.0
O1241 O 0.56373 0.57371 0.93508 0.0
C1242 C 0.51902 0.45584 0.88945 0.0
O1243 O 0.47556 0.56643 0.85478 0.0
O1244 O 0.4878 0.56445 0.9178 0.0
O1245 O 0.54102 0.49035 0.80752 0.0
O1246 O 0.52938 0.5546 0.79479 0.0
C1247 C 0.60692 0.50729 0.92274 0.0
O1248 O 0.50192 0.48799 0.9025 0.0
O1249 O 0.55347 0.45753 0.87333 0.0
C1250 C 0.46133 0.56309 0.89111 0.0
O1251 O 0.57172 0.49897 0.93194 0.0
O1252 O 0.61684 0.5051 0.88616 0.0
C1253 C 0.6156 0.56855 0.8298 0.0
Fe1254 Fe 0.74219 0.28163 0.16982 0.0
Fe1255 Fe 0.77457 0.32747 0.09724 0.0
O1256 O 0.73655 0.29696 0.12024 0.0
Fe1257 Fe 0.69276 0.28221 0.09549 0.0
O1258 O 0.6591 0.28528 0.14221 0.0
O1259 O 0.69973 0.31373 0.18504 0.0
O1260 O 0.77447 0.32171 0.18193 0.0
C1261 C 0.76617 0.35691 0.17271 0.0
C1262 C 0.71037 0.21133 0.14109 0.0
O1263 O 0.76835 0.36684 0.13614 0.0
C1264 C 0.75614 0.27914 0.03365 0.0
O1265 O 0.78547 0.25192 0.15249 0.0
O1266 O 0.81593 0.30347 0.12332 0.0
O1267 O 0.70703 0.22556 0.10476 0.0
O1268 O 0.709 0.23779 0.16778 0.0
C1269 C 0.70491 0.36562 0.07981 0.0
O1270 O 0.7831 0.29101 0.05751 0.0
O1271 O 0.71886 0.27939 0.04477 0.0
C1272 C 0.81762 0.26903 0.13945 0.0
O1273 O 0.73911 0.3551 0.06749 0.0
O1274 O 0.67943 0.33747 0.08808 0.0
C1275 C 0.66373 0.30702 0.1742 0.0
Fe1276 Fe 0.99183 0.49222 0.41984 0.0
Fe1277 Fe 0.946 0.5246 0.34726 0.0
O1278 O 0.97651 0.48657 0.37026 0.0
Fe1279 Fe 0.99126 0.44278 0.3455 0.0
O1280 O 0.98818 0.40911 0.39221 0.0
O1281 O 0.95974 0.44976 0.43507 0.0
O1282 O 0.95175 0.52451 0.43193 0.0
C1283 C 0.91655 0.51619 0.42273 0.0
C1284 C 0.06213 0.46039 0.3911 0.0
O1285 O 0.90663 0.51837 0.38616 0.0
C1286 C 0.99433 0.50616 0.28366 0.0
O1287 O 0.02154 0.53549 0.40249 0.0
O1288 O 0.97 0.56595 0.37333 0.0
O1289 O 0.04791 0.45705 0.35478 0.0
O1290 O 0.03567 0.45903 0.4178 0.0
C1291 C 0.90786 0.45493 0.3298 0.0
O1292 O 0.98245 0.53313 0.30752 0.0
O1293 O 0.99409 0.46888 0.29478 0.0
C1294 C 1.00445 0.56764 0.38945 0.0
O1295 O 0.91835 0.48915 0.3175 0.0
O1296 O 0.93601 0.42944 0.33808 0.0
C1297 C 0.96643 0.41378 0.42418 0.0
Fe1298 Fe 0.83071 0.74126 0.59549 0.0
Fe1299 Fe 0.78128 0.74184 0.66983 0.0
O1300 O 0.78691 0.72652 0.62025 0.0
Fe1301 Fe 0.74889 0.69601 0.59725 0.0
O1302 O 0.78435 0.66837 0.56749 0.0
O1303 O 0.84404 0.68601 0.58808 0.0
O1304 O 0.86437 0.73819 0.64222 0.0
C1305 C 0.85973 0.71645 0.6742 0.0
C1306 C 0.76733 0.74434 0.53366 0.0
O1307 O 0.82374 0.70974 0.68504 0.0
C1308 C 0.70585 0.75444 0.63945 0.0
O1309 O 0.81644 0.79791 0.60477 0.0
O1310 O 0.81446 0.78568 0.66779 0.0
O1311 O 0.74036 0.73246 0.55751 0.0
O1312 O 0.80461 0.74409 0.54478 0.0
C1313 C 0.7573 0.66656 0.67272 0.0
O1314 O 0.738 0.77155 0.6525 0.0
O1315 O 0.70754 0.72 0.62333 0.0
C1316 C 0.8131 0.81214 0.64109 0.0
O1317 O 0.749 0.70176 0.68193 0.0
O1318 O 0.75512 0.65663 0.63614 0.0
C1319 C 0.81856 0.65786 0.57981 0.0
Fe1320 Fe 0.53165 0.49221 0.60364 0.0
Fe1321 Fe 0.57747 0.52458 0.67623 0.0
O1322 O 0.54696 0.48656 0.65322 0.0
Fe1323 Fe 0.53222 0.44276 0.67798 0.0
O1324 O 0.53529 0.4091 0.63127 0.0
O1325 O 0.56374 0.44975 0.58841 0.0
O1326 O 0.57173 0.52449 0.59155 0.0
C1327 C 0.60692 0.51618 0.60076 0.0
C1328 C 0.46136 0.46042 0.63237 0.0
O1329 O 0.61685 0.51836 0.63734 0.0
C1330 C 0.52912 0.50614 0.7398 0.0
O1331 O 0.50194 0.53548 0.62098 0.0
O1332 O 0.55348 0.56594 0.65015 0.0
O1333 O 0.47556 0.45702 0.6687 0.0
O1334 O 0.48781 0.45903 0.60567 0.0
C1335 C 0.61562 0.45492 0.69367 0.0
O1336 O 0.54101 0.53311 0.71596 0.0
O1337 O 0.52938 0.46886 0.7287 0.0
C1338 C 0.51904 0.56763 0.63402 0.0
O1339 O 0.6051 0.48912 0.70599 0.0
O1340 O 0.58747 0.42943 0.6854 0.0
C1341 C 0.55705 0.41377 0.5993 0.0
Fe1342 Fe 0.74888 0.32748 0.92621 0.0
Fe1343 Fe 0.8307 0.28222 0.92797 0.0
O1344 O 0.78691 0.29696 0.90321 0.0
Fe1345 Fe 0.78127 0.28165 0.85363 0.0
O1346 O 0.74899 0.32174 0.84153 0.0
O1347 O 0.75512 0.36685 0.88731 0.0
O1348 O 0.78434 0.35512 0.95597 0.0
C1349 C 0.81855 0.36561 0.94367 0.0
C1350 C 0.70584 0.26904 0.88401 0.0
O1351 O 0.84404 0.33747 0.93538 0.0
C1352 C 0.81305 0.21135 0.88237 0.0
O1353 O 0.74035 0.29102 0.96595 0.0
O1354 O 0.8046 0.27939 0.97868 0.0
O1355 O 0.73799 0.25194 0.87096 0.0
O1356 O 0.70753 0.30349 0.90013 0.0
C1357 C 0.85973 0.30703 0.84927 0.0
O1358 O 0.81644 0.22556 0.9187 0.0
O1359 O 0.81443 0.2378 0.85566 0.0
C1360 C 0.76732 0.27914 0.98979 0.0
O1361 O 0.86436 0.28528 0.88125 0.0
O1362 O 0.82374 0.31374 0.83842 0.0
C1363 C 0.75731 0.35694 0.85074 0.0
Fe1364 Fe 0.99125 0.58072 0.17798 0.0
Fe1365 Fe 0.99182 0.53127 0.10363 0.0
O1366 O 0.97651 0.53692 0.15322 0.0
Fe1367 Fe 0.946 0.49889 0.17622 0.0
O1368 O 0.91836 0.53435 0.20598 0.0
O1369 O 0.936 0.59405 0.18539 0.0
O1370 O 0.98818 0.61438 0.13126 0.0
C1371 C 0.96642 0.60971 0.09929 0.0
C1372 C 0.99434 0.51734 0.2398 0.0
O1373 O 0.95973 0.57373 0.0884 0.0
C1374 C 1.00443 0.45585 0.13402 0.0
O1375 O 0.04791 0.56646 0.1687 0.0
O1376 O 0.03566 0.56445 0.10567 0.0
O1377 O 0.98246 0.49036 0.21596 0.0
O1378 O 0.99409 0.55462 0.22869 0.0
C1379 C 0.91655 0.5073 0.10076 0.0
O1380 O 0.02153 0.488 0.12097 0.0
O1381 O 0.96999 0.45754 0.15014 0.0
C1382 C 0.06211 0.56306 0.13237 0.0
O1383 O 0.95174 0.49899 0.09154 0.0
O1384 O 0.90662 0.50511 0.13733 0.0
C1385 C 0.90786 0.56856 0.19368 0.0
Fe1386 Fe 0.69277 0.74126 0.42798 0.0
Fe1387 Fe 0.74219 0.74184 0.35364 0.0
O1388 O 0.73656 0.72652 0.40322 0.0
Fe1389 Fe 0.77458 0.69601 0.42622 0.0
O1390 O 0.73913 0.66836 0.45598 0.0
O1391 O 0.67943 0.68601 0.43539 0.0
O1392 O 0.6591 0.7382 0.38126 0.0
C1393 C 0.66374 0.71645 0.34927 0.0
C1394 C 0.75615 0.74435 0.4898 0.0
O1395 O 0.69973 0.70974 0.33843 0.0
C1396 C 0.81762 0.75445 0.38402 0.0
O1397 O 0.70704 0.79792 0.41871 0.0
O1398 O 0.70901 0.78569 0.35569 0.0
O1399 O 0.78312 0.73246 0.46596 0.0
O1400 O 0.71887 0.74409 0.47869 0.0
C1401 C 0.76617 0.66657 0.35075 0.0
O1402 O 0.78547 0.77155 0.37097 0.0
O1403 O 0.81593 0.72 0.40014 0.0
C1404 C 0.71038 0.81215 0.38238 0.0
O1405 O 0.77447 0.70176 0.34154 0.0
O1406 O 0.76836 0.65663 0.38732 0.0
C1407 C 0.70492 0.65787 0.44368 0.0
Fe1408 Fe 0.84725 0.57747 0.4989 0.0
Fe1409 Fe 0.84549 0.5322 0.58071 0.0
O1410 O 0.87025 0.54695 0.53692 0.0
Fe1411 Fe 0.91984 0.53165 0.53129 0.0
O1412 O 0.93193 0.57173 0.49901 0.0
O1413 O 0.88614 0.61685 0.50513 0.0
O1414 O 0.81749 0.6051 0.53435 0.0
C1415 C 0.82978 0.61559 0.56857 0.0
C1416 C 0.88948 0.51904 0.45585 0.0
O1417 O 0.83808 0.58745 0.59405 0.0
C1418 C 0.8911 0.46135 0.56306 0.0
O1419 O 0.80752 0.54101 0.49036 0.0
O1420 O 0.79478 0.52937 0.55461 0.0
O1421 O 0.90252 0.50194 0.488 0.0
O1422 O 0.87334 0.55348 0.45755 0.0
C1423 C 0.92418 0.55704 0.60975 0.0
O1424 O 0.85477 0.47555 0.56645 0.0
O1425 O 0.91781 0.48779 0.56445 0.0
C1426 C 0.78368 0.52911 0.51732 0.0
O1427 O 0.89221 0.53527 0.61437 0.0
O1428 O 0.93503 0.56375 0.57375 0.0
C1429 C 0.92271 0.60692 0.50731 0.0
Fe1430 Fe 0.34724 0.94601 0.52458 0.0
Fe1431 Fe 0.34549 0.99127 0.44276 0.0
O1432 O 0.37025 0.97652 0.48656 0.0
Fe1433 Fe 0.41983 0.99184 0.4922 0.0
O1434 O 0.43193 0.95176 0.52448 0.0
O1435 O 0.38614 0.90664 0.51836 0.0
O1436 O 0.31749 0.91837 0.48913 0.0
C1437 C 0.32979 0.90788 0.45491 0.0
C1438 C 0.38945 1.00446 0.56762 0.0
O1439 O 0.33807 0.93602 0.42942 0.0
C1440 C 0.3911 0.06215 0.46038 0.0
O1441 O 0.30751 0.98247 0.53311 0.0
O1442 O 0.29478 0.9941 0.46886 0.0
O1443 O 0.40249 0.02156 0.53547 0.0
O1444 O 0.37332 0.97001 0.56593 0.0
C1445 C 0.42417 0.96644 0.41376 0.0
O1446 O 0.35477 0.04792 0.45703 0.0
O1447 O 0.41779 0.03568 0.45901 0.0
C1448 C 0.28367 0.99435 0.50614 0.0
O1449 O 0.3922 0.98819 0.40909 0.0
O1450 O 0.43506 0.95974 0.44975 0.0
C1451 C 0.42271 0.91657 0.51618 0.0
Fe1452 Fe 0.28164 0.16984 0.74219 0.0
Fe1453 Fe 0.32746 0.09725 0.77458 0.0
O1454 O 0.29695 0.12025 0.73656 0.0
Fe1455 Fe 0.2822 0.0955 0.69276 0.0
O1456 O 0.28526 0.14222 0.6591 0.0
O1457 O 0.31373 0.18504 0.69973 0.0
O1458 O 0.32172 0.18193 0.77447 0.0
C1459 C 0.35691 0.17271 0.76616 0.0
C1460 C 0.21134 0.1411 0.71042 0.0
O1461 O 0.36684 0.13614 0.76835 0.0
C1462 C 0.27912 0.03366 0.75614 0.0
O1463 O 0.25193 0.15251 0.78547 0.0
O1464 O 0.30347 0.12333 0.81593 0.0
O1465 O 0.22554 0.10477 0.70702 0.0
O1466 O 0.23779 0.16781 0.70903 0.0
C1467 C 0.36559 0.07979 0.70491 0.0
O1468 O 0.29099 0.05752 0.78311 0.0
O1469 O 0.27937 0.04478 0.71886 0.0
C1470 C 0.26903 0.13946 0.81762 0.0
O1471 O 0.35509 0.06749 0.73912 0.0
O1472 O 0.33745 0.08809 0.67942 0.0
C1473 C 0.30702 0.1742 0.66373 0.0
Fe1474 Fe 0.17622 0.07746 0.02458 0.0
Fe1475 Fe 0.17798 0.0322 0.94276 0.0
O1476 O 0.15322 0.04696 0.98655 0.0
Fe1477 Fe 0.10363 0.03163 0.9922 0.0
O1478 O 0.09154 0.07171 0.02448 0.0
O1479 O 0.13733 0.11684 0.01836 0.0
O1480 O 0.20598 0.10511 0.98913 0.0
C1481 C 0.19368 0.1156 0.95491 0.0
C1482 C 0.13402 0.01902 0.06762 0.0
O1483 O 0.1854 0.08745 0.92942 0.0
C1484 C 0.13236 0.96133 0.96037 0.0
O1485 O 0.21596 0.04101 0.03311 0.0
O1486 O 0.22869 0.02937 0.96886 0.0
O1487 O 0.12098 1.00192 0.03547 0.0
O1488 O 0.15014 0.05347 0.06593 0.0
C1489 C 0.09929 0.05704 0.91376 0.0
O1490 O 0.16869 0.97555 0.95703 0.0
O1491 O 0.10567 0.9878 0.95901 0.0
C1492 C 0.2398 0.02912 1.00614 0.0
O1493 O 0.13126 0.03528 0.90909 0.0
O1494 O 0.0884 0.06373 0.94975 0.0
C1495 C 0.10076 0.1069 0.01618 0.0
Fe1496 Fe 0.74127 0.42799 0.69276 0.0
Fe1497 Fe 0.74184 0.35364 0.74219 0.0
O1498 O 0.72652 0.40322 0.73655 0.0
Fe1499 Fe 0.69601 0.42622 0.77458 0.0
O1500 O 0.66837 0.45599 0.73913 0.0
O1501 O 0.68602 0.43541 0.67942 0.0
O1502 O 0.73819 0.38127 0.65909 0.0
C1503 C 0.71644 0.3493 0.66376 0.0
C1504 C 0.74436 0.4898 0.75615 0.0
O1505 O 0.70974 0.33841 0.69974 0.0
C1506 C 0.75445 0.38402 0.81762 0.0
O1507 O 0.79792 0.4187 0.70703 0.0
O1508 O 0.78568 0.35568 0.709 0.0
O1509 O 0.73247 0.46595 0.78312 0.0
O1510 O 0.7441 0.4787 0.71887 0.0
C1511 C 0.66657 0.35076 0.76617 0.0
O1512 O 0.77155 0.37098 0.78547 0.0
O1513 O 0.72 0.40014 0.81593 0.0
C1514 C 0.81215 0.38237 0.71037 0.0
O1515 O 0.70176 0.34154 0.77447 0.0
O1516 O 0.65663 0.38733 0.76835 0.0
C1517 C 0.65788 0.44369 0.70491 0.0
Fe1518 Fe 0.67798 0.49127 0.08071 0.0
Fe1519 Fe 0.60363 0.49183 0.03129 0.0
O1520 O 0.65322 0.47652 0.03692 0.0
Fe1521 Fe 0.67622 0.44601 0.9989 0.0
O1522 O 0.70598 0.41837 0.03435 0.0
O1523 O 0.6854 0.43602 0.09405 0.0
O1524 O 0.63126 0.4882 0.11438 0.0
C1525 C 0.59929 0.46644 0.10975 0.0
C1526 C 0.73979 0.49436 0.01732 0.0
O1527 O 0.58844 0.45973 0.07375 0.0
C1528 C 0.63399 0.50443 0.95586 0.0
O1529 O 0.6687 0.54793 0.06645 0.0
O1530 O 0.60567 0.53568 0.06446 0.0
O1531 O 0.71594 0.48247 0.99035 0.0
O1532 O 0.72869 0.49411 0.05461 0.0
C1533 C 0.60075 0.41656 1.00731 0.0
O1534 O 0.62095 0.52154 0.98801 0.0
O1535 O 0.65013 0.46999 0.95755 0.0
C1536 C 0.63237 0.56213 0.06307 0.0
O1537 O 0.59153 0.45175 0.99901 0.0
O1538 O 0.63733 0.40663 1.00513 0.0
C1539 C 0.69368 0.40788 0.06857 0.0
Fe1540 Fe 0.28219 0.92798 0.83071 0.0
Fe1541 Fe 0.28163 0.85364 0.78127 0.0
O1542 O 0.29694 0.90323 0.78691 0.0
Fe1543 Fe 0.32746 0.92623 0.74889 0.0
O1544 O 0.35509 0.95599 0.78435 0.0
O1545 O 0.33744 0.93539 0.84404 0.0
O1546 O 0.28526 0.88126 0.86436 0.0
C1547 C 0.30702 0.84928 0.85973 0.0
C1548 C 0.27911 0.9898 0.76732 0.0
O1549 O 0.31373 0.83844 0.82374 0.0
C1550 C 0.26903 0.88402 0.70584 0.0
O1551 O 0.22554 0.91871 0.81644 0.0
O1552 O 0.23778 0.85567 0.81444 0.0
O1553 O 0.291 0.96596 0.74035 0.0
O1554 O 0.27937 0.9787 0.80461 0.0
C1555 C 0.35691 0.85076 0.7573 0.0
O1556 O 0.25193 0.87096 0.73799 0.0
O1557 O 0.30347 0.90014 0.70754 0.0
C1558 C 0.21133 0.88238 0.81305 0.0
O1559 O 0.32172 0.84154 0.749 0.0
O1560 O 0.36684 0.88734 0.75512 0.0
C1561 C 0.36559 0.94368 0.81856 0.0
Fe1562 Fe 0.24127 0.09549 0.33071 0.0
Fe1563 Fe 0.24183 0.16983 0.28127 0.0
O1564 O 0.22652 0.12025 0.28691 0.0
Fe1565 Fe 0.19601 0.09724 0.24889 0.0
O1566 O 0.16837 0.06749 0.28435 0.0
O1567 O 0.18602 0.08809 0.34405 0.0
O1568 O 0.2382 0.14222 0.36437 0.0
C1569 C 0.21645 0.17419 0.35973 0.0
C1570 C 0.24435 0.03367 0.26734 0.0
O1571 O 0.20973 0.18504 0.32374 0.0
C1572 C 0.25444 0.13945 0.20584 0.0
O1573 O 0.29792 0.10476 0.31645 0.0
O1574 O 0.28568 0.1678 0.31444 0.0
O1575 O 0.23247 0.05751 0.24036 0.0
O1576 O 0.24409 0.04478 0.30462 0.0
C1577 C 0.16655 0.17271 0.2573 0.0
O1578 O 0.27154 0.15251 0.23799 0.0
O1579 O 0.22 0.12332 0.20754 0.0
C1580 C 0.31213 0.1411 0.31306 0.0
O1581 O 0.20174 0.18193 0.249 0.0
O1582 O 0.15663 0.13613 0.25512 0.0
C1583 C 0.15788 0.0798 0.31856 0.0
Fe1584 Fe 0.44298 0.17913 0.48996 0.0
Fe1585 Fe 0.5269 0.17289 0.44702 0.0
O1586 O 0.48651 0.1533 0.47703 0.0
Fe1587 Fe 0.48891 0.10321 0.49201 0.0
O1588 O 0.43562 0.09421 0.50488 0.0
O1589 O 0.40825 0.13706 0.46781 0.0
O1590 O 0.43887 0.20181 0.4387 0.0
C1591 C 0.45895 0.19504 0.40621 0.0
C1592 C 0.4725 0.13624 0.56311 0.0
O1593 O 0.4951 0.18532 0.40649 0.0
C1594 C 0.56479 0.12632 0.49939 0.0
O1595 O 0.47338 0.22436 0.50889 0.0
O1596 O 0.52597 0.22252 0.46788 0.0
O1597 O 0.49907 0.11943 0.54233 0.0
O1598 O 0.44403 0.15645 0.54447 0.0
C1599 C 0.5065 0.09924 0.41321 0.0
O1600 O 0.56343 0.16131 0.48577 0.0
O1601 O 0.54156 0.10034 0.48555 0.0
C1602 C 0.50716 0.23946 0.49593 0.0
O1603 O 0.53282 0.1262 0.41974 0.0
O1604 O 0.48 0.09081 0.43966 0.0
C1605 C 0.40692 0.10108 0.48165 0.0
Fe1606 Fe 0.59435 0.69298 0.23996 0.0
Fe1607 Fe 0.60058 0.77691 0.19702 0.0
O1608 O 0.62017 0.73651 0.22703 0.0
Fe1609 Fe 0.67026 0.73891 0.242 0.0
O1610 O 0.67927 0.68563 0.25487 0.0
O1611 O 0.63641 0.65825 0.21781 0.0
O1612 O 0.57166 0.68887 0.1887 0.0
C1613 C 0.57842 0.70895 0.15621 0.0
C1614 C 0.63724 0.72251 0.3131 0.0
O1615 O 0.58814 0.7451 0.15649 0.0
C1616 C 0.64716 0.8148 0.24938 0.0
O1617 O 0.54912 0.72338 0.25889 0.0
O1618 O 0.55095 0.77597 0.21788 0.0
O1619 O 0.65406 0.74908 0.29232 0.0
O1620 O 0.61703 0.69403 0.29446 0.0
C1621 C 0.67422 0.75651 0.1632 0.0
O1622 O 0.61216 0.81343 0.23577 0.0
O1623 O 0.67313 0.79157 0.23554 0.0
C1624 C 0.53401 0.75716 0.24593 0.0
O1625 O 0.64726 0.78283 0.16973 0.0
O1626 O 0.68266 0.73001 0.18964 0.0
C1627 C 0.6724 0.65692 0.23165 0.0
Fe1628 Fe 0.99656 0.85059 0.94702 0.0
Fe1629 Fe 0.03456 0.92026 0.99201 0.0
O1630 O 0.03696 0.87017 0.97703 0.0
Fe1631 Fe 0.08049 0.84435 0.98996 0.0
O1632 O 0.0846 0.82166 0.9387 0.0
O1633 O 0.02837 0.83815 0.90649 0.0
O1634 O 0.99064 0.89728 0.91973 0.0
C1635 C 0.01696 0.92423 0.91321 0.0
C1636 C 0.01631 0.78402 0.99592 0.0
O1637 O 0.04347 0.93267 0.93966 0.0
C1638 C 0.05096 0.88724 0.0631 0.0
O1639 O 0.96004 0.86217 0.98577 0.0
O1640 O 0.9819 0.92313 0.98555 0.0
O1641 O 0.05009 0.79912 1.00888 0.0
O1642 O 0.9975 0.80096 0.96788 0.0
C1643 C 0.11654 0.9224 0.98165 0.0
O1644 O 0.02439 0.90405 0.04233 0.0
O1645 O 0.07944 0.86703 0.04447 0.0
C1646 C 0.95867 0.89716 0.99939 0.0
O1647 O 0.08784 0.92927 1.00488 0.0
O1648 O 0.11522 0.88641 0.96781 0.0
C1649 C 0.06452 0.82843 0.90621 0.0
Fe1650 Fe 0.92913 0.3305 0.73996 0.0
Fe1651 Fe 0.92289 0.24658 0.69701 0.0
O1652 O 0.9033 0.28697 0.72703 0.0
Fe1653 Fe 0.85321 0.28457 0.742 0.0
O1654 O 0.84421 0.33786 0.75487 0.0
O1655 O 0.88706 0.36523 0.71781 0.0
O1656 O 0.95181 0.33461 0.6887 0.0
C1657 C 0.94505 0.31454 0.65621 0.0
C1658 C 0.88623 0.30098 0.8131 0.0
O1659 O 0.93533 0.27839 0.65649 0.0
C1660 C 0.87633 0.20871 0.74938 0.0
O1661 O 0.97435 0.3001 0.75889 0.0
O1662 O 0.97252 0.24751 0.71787 0.0
O1663 O 0.86942 0.27441 0.79232 0.0
O1664 O 0.90645 0.32946 0.79446 0.0
C1665 C 0.84925 0.26697 0.6632 0.0
O1666 O 0.91132 0.21004 0.73575 0.0
O1667 O 0.85035 0.23192 0.73555 0.0
C1668 C 0.98946 0.26632 0.74592 0.0
O1669 O 0.8762 0.24065 0.66973 0.0
O1670 O 0.84081 0.29348 0.68964 0.0
C1671 C 0.85108 0.36656 0.73164 0.0
Fe1672 Fe 0.48889 0.92026 0.03146 0.0
Fe1673 Fe 0.44296 0.84434 0.03351 0.0
O1674 O 0.48649 0.87016 0.04644 0.0
Fe1675 Fe 0.52689 0.85058 0.07646 0.0
O1676 O 0.53281 0.89727 0.10374 0.0
O1677 O 0.47999 0.93267 0.08381 0.0
O1678 O 0.4356 0.92926 0.01859 0.0
C1679 C 0.40691 0.92239 0.04182 0.0
C1680 C 0.56475 0.89714 0.02409 0.0
O1681 O 0.40823 0.88641 0.05566 0.0
C1682 C 0.50714 0.78401 0.02755 0.0
O1683 O 0.49905 0.90404 0.98114 0.0
O1684 O 0.44401 0.86701 0.979 0.0
O1685 O 0.56342 0.86216 0.03771 0.0
O1686 O 0.54153 0.92312 0.03792 0.0
C1687 C 0.45893 0.82843 0.11726 0.0
O1688 O 0.47336 0.79911 0.01459 0.0
O1689 O 0.52595 0.80095 0.05559 0.0
C1690 C 0.47249 0.88722 0.96037 0.0
O1691 O 0.43885 0.82166 0.08477 0.0
O1692 O 0.49508 0.83815 0.11698 0.0
C1693 C 0.5065 0.92423 0.11026 0.0
Fe1694 Fe 0.92289 0.7769 0.82646 0.0
Fe1695 Fe 0.8532 0.73891 0.78148 0.0
O1696 O 0.9033 0.73651 0.79645 0.0
Fe1697 Fe 0.92912 0.69297 0.78352 0.0
O1698 O 0.9518 0.68886 0.83477 0.0
O1699 O 0.93533 0.74509 0.86699 0.0
O1700 O 0.8762 0.78282 0.85375 0.0
C1701 C 0.84925 0.75651 0.86028 0.0
C1702 C 0.98945 0.75715 0.77755 0.0
O1703 O 0.84081 0.73 0.83383 0.0
C1704 C 0.88623 0.7225 0.71038 0.0
O1705 O 0.91131 0.81342 0.78771 0.0
O1706 O 0.85034 0.79157 0.78793 0.0
O1707 O 0.97435 0.72337 0.76459 0.0
O1708 O 0.97251 0.77597 0.80559 0.0
C1709 C 0.85107 0.65692 0.79183 0.0
O1710 O 0.86941 0.74907 0.73115 0.0
O1711 O 0.90644 0.69402 0.72901 0.0
C1712 C 0.87632 0.81479 0.77409 0.0
O1713 O 0.8442 0.68562 0.76861 0.0
O1714 O 0.88705 0.65824 0.80566 0.0
C1715 C 0.94504 0.70894 0.86727 0.0
Fe1716 Fe 0.99658 0.1729 0.57646 0.0
Fe1717 Fe 0.03458 0.10322 0.53147 0.0
O1718 O 0.03697 0.15331 0.54644 0.0
Fe1719 Fe 0.08051 0.17913 0.53352 0.0
O1720 O 0.08462 0.20181 0.58477 0.0
O1721 O 0.02839 0.18533 0.61698 0.0
O1722 O 0.99066 0.12621 0.60374 0.0
C1723 C 0.01697 0.09925 0.61026 0.0
C1724 C 0.01633 0.23947 0.52755 0.0
O1725 O 0.04348 0.09081 0.58382 0.0
C1726 C 0.05098 0.13625 0.46037 0.0
O1727 O 0.96004 0.16132 0.53771 0.0
O1728 O 0.98193 0.10035 0.53792 0.0
O1729 O 0.05011 0.22436 0.51459 0.0
O1730 O 0.99751 0.22253 0.55559 0.0
C1731 C 0.11656 0.10108 0.54182 0.0
O1732 O 0.02441 0.11943 0.48114 0.0
O1733 O 0.07946 0.15646 0.479 0.0
C1734 C 0.95871 0.12633 0.52409 0.0
O1735 O 0.08786 0.09421 0.51859 0.0
O1736 O 0.11523 0.13706 0.55566 0.0
C1737 C 0.06454 0.19505 0.61726 0.0
Fe1738 Fe 0.60058 0.24657 0.32646 0.0
Fe1739 Fe 0.67026 0.28456 0.28148 0.0
O1740 O 0.62017 0.28696 0.29644 0.0
Fe1741 Fe 0.59435 0.3305 0.28352 0.0
O1742 O 0.57166 0.33461 0.33477 0.0
O1743 O 0.58814 0.27838 0.36699 0.0
O1744 O 0.64727 0.24065 0.35375 0.0
C1745 C 0.67422 0.26697 0.36028 0.0
C1746 C 0.53401 0.26632 0.27755 0.0
O1747 O 0.68266 0.29347 0.33383 0.0
C1748 C 0.63724 0.30097 0.21038 0.0
O1749 O 0.61216 0.21005 0.28771 0.0
O1750 O 0.67313 0.23191 0.28793 0.0
O1751 O 0.54912 0.3001 0.26459 0.0
O1752 O 0.55095 0.24751 0.30559 0.0
C1753 C 0.6724 0.36656 0.29183 0.0
O1754 O 0.65406 0.2744 0.23115 0.0
O1755 O 0.61703 0.32945 0.22901 0.0
C1756 C 0.64715 0.20868 0.27409 0.0
O1757 O 0.67927 0.33785 0.2686 0.0
O1758 O 0.63641 0.36523 0.30566 0.0
C1759 C 0.57843 0.31453 0.36727 0.0
Fe1760 Fe 0.49201 0.4889 0.10324 0.0
Fe1761 Fe 0.48997 0.44296 0.17914 0.0
O1762 O 0.47705 0.48649 0.15332 0.0
Fe1763 Fe 0.44703 0.52688 0.17291 0.0
O1764 O 0.41975 0.53282 0.12622 0.0
O1765 O 0.43965 0.48 0.09087 0.0
O1766 O 0.50487 0.43561 0.09421 0.0
C1767 C 0.48165 0.40691 0.10108 0.0
C1768 C 0.4994 0.56476 0.12636 0.0
O1769 O 0.46782 0.40823 0.13707 0.0
C1770 C 0.49592 0.50713 0.2395 0.0
O1771 O 0.54234 0.49905 0.11943 0.0
O1772 O 0.54448 0.44401 0.15646 0.0
O1773 O 0.48578 0.56342 0.16135 0.0
O1774 O 0.48557 0.54154 0.10038 0.0
C1775 C 0.40622 0.45892 0.19505 0.0
O1776 O 0.5089 0.47337 0.22437 0.0
O1777 O 0.46788 0.52593 0.22255 0.0
C1778 C 0.56311 0.47249 0.13625 0.0
O1779 O 0.43872 0.43885 0.20183 0.0
O1780 O 0.4065 0.49506 0.18532 0.0
C1781 C 0.41322 0.50656 0.09922 0.0
Fe1782 Fe 0.3305 0.73997 0.92912 0.0
Fe1783 Fe 0.24659 0.69702 0.92289 0.0
O1784 O 0.28697 0.72704 0.9033 0.0
Fe1785 Fe 0.28457 0.74201 0.85321 0.0
O1786 O 0.33786 0.75488 0.8442 0.0
O1787 O 0.36523 0.71783 0.88706 0.0
O1788 O 0.33461 0.68872 0.95181 0.0
C1789 C 0.31455 0.65622 0.94506 0.0
C1790 C 0.30097 0.81311 0.88623 0.0
O1791 O 0.27841 0.65649 0.93531 0.0
C1792 C 0.2087 0.74939 0.87633 0.0
O1793 O 0.30009 0.7589 0.97434 0.0
O1794 O 0.24753 0.71787 0.97252 0.0
O1795 O 0.27441 0.79234 0.86941 0.0
O1796 O 0.32945 0.79448 0.90644 0.0
C1797 C 0.26697 0.66321 0.84924 0.0
O1798 O 0.21005 0.73576 0.91132 0.0
O1799 O 0.23192 0.73556 0.85035 0.0
C1800 C 0.26633 0.74593 0.98948 0.0
O1801 O 0.24066 0.66974 0.8762 0.0
O1802 O 0.29347 0.68966 0.8408 0.0
C1803 C 0.36656 0.73166 0.85107 0.0
Fe1804 Fe 0.07644 0.4966 0.67291 0.0
Fe1805 Fe 0.03146 0.53458 0.60323 0.0
O1806 O 0.04642 0.53698 0.65332 0.0
Fe1807 Fe 0.0335 0.58052 0.67913 0.0
O1808 O 0.08475 0.58463 0.70182 0.0
O1809 O 0.11697 0.52841 0.68532 0.0
O1810 O 0.10371 0.49066 0.62622 0.0
C1811 C 0.11024 0.51692 0.59921 0.0
C1812 C 0.02754 0.51635 0.7395 0.0
O1813 O 0.08382 0.54348 0.59086 0.0
C1814 C 0.96036 0.55099 0.63624 0.0
O1815 O 0.03769 0.46006 0.66134 0.0
O1816 O 0.0379 0.48193 0.60037 0.0
O1817 O 0.01457 0.55011 0.72436 0.0
O1818 O 0.05559 0.49755 0.72254 0.0
C1819 C 0.04182 0.61657 0.60108 0.0
O1820 O 0.98113 0.52442 0.61942 0.0
O1821 O 0.97899 0.57947 0.65645 0.0
C1822 C 0.02407 0.45872 0.62635 0.0
O1823 O 0.01859 0.58787 0.59421 0.0
O1824 O 0.05565 0.61524 0.63707 0.0
C1825 C 0.11725 0.56456 0.69505 0.0
Fe1826 Fe 0.27688 0.32646 0.4229 0.0
Fe1827 Fe 0.2389 0.28147 0.35321 0.0
O1828 O 0.23649 0.29644 0.4033 0.0
Fe1829 Fe 0.19297 0.28351 0.42912 0.0
O1830 O 0.18885 0.33476 0.45181 0.0
O1831 O 0.24506 0.36698 0.43531 0.0
O1832 O 0.28281 0.35374 0.37621 0.0
C1833 C 0.2565 0.36026 0.34925 0.0
C1834 C 0.25713 0.27756 0.48949 0.0
O1835 O 0.22999 0.33382 0.34081 0.0
C1836 C 0.2225 0.21037 0.38623 0.0
O1837 O 0.31342 0.28771 0.41133 0.0
O1838 O 0.29155 0.28792 0.35036 0.0
O1839 O 0.22337 0.26458 0.47435 0.0
O1840 O 0.27593 0.3056 0.47253 0.0
C1841 C 0.15691 0.29182 0.35108 0.0
O1842 O 0.24906 0.23114 0.36942 0.0
O1843 O 0.19402 0.229 0.40644 0.0
C1844 C 0.31476 0.27408 0.37634 0.0
O1845 O 0.18561 0.26859 0.3442 0.0
O1846 O 0.15823 0.30565 0.38706 0.0
C1847 C 0.20892 0.36726 0.44506 0.0
Fe1848 Fe 0.49202 0.53458 0.42027 0.0
Fe1849 Fe 0.48997 0.5805 0.34435 0.0
O1850 O 0.47704 0.53697 0.37017 0.0
Fe1851 Fe 0.44702 0.49659 0.35059 0.0
O1852 O 0.41974 0.49066 0.39728 0.0
O1853 O 0.43967 0.54348 0.43268 0.0
O1854 O 0.5049 0.58786 0.42927 0.0
C1855 C 0.48167 0.61656 0.4224 0.0
C1856 C 0.49939 0.45871 0.39715 0.0
O1857 O 0.46783 0.61524 0.38642 0.0
C1858 C 0.49593 0.51632 0.28402 0.0
O1859 O 0.54234 0.52441 0.40405 0.0
O1860 O 0.54448 0.57945 0.36702 0.0
O1861 O 0.48576 0.46004 0.36216 0.0
O1862 O 0.48556 0.48193 0.42313 0.0
C1863 C 0.40622 0.56455 0.32842 0.0
O1864 O 0.50889 0.5501 0.29912 0.0
O1865 O 0.46788 0.49752 0.30096 0.0
C1866 C 0.56311 0.55097 0.38723 0.0
O1867 O 0.43872 0.58462 0.32167 0.0
O1868 O 0.4065 0.5284 0.33816 0.0
C1869 C 0.41322 0.51697 0.42424 0.0
Fe1870 Fe 0.2389 0.74201 0.17023 0.0
Fe1871 Fe 0.19296 0.73997 0.09433 0.0
O1872 O 0.2365 0.72705 0.12014 0.0
Fe1873 Fe 0.27688 0.69702 0.10056 0.0
O1874 O 0.28282 0.66975 0.14725 0.0
O1875 O 0.23 0.68965 0.1826 0.0
O1876 O 0.18561 0.75487 0.17925 0.0
C1877 C 0.15691 0.73165 0.17238 0.0
C1878 C 0.31477 0.74939 0.14712 0.0
O1879 O 0.15823 0.71782 0.13639 0.0
C1880 C 0.25714 0.74593 0.03399 0.0
O1881 O 0.24905 0.79234 0.15404 0.0
O1882 O 0.19401 0.79448 0.11701 0.0
O1883 O 0.31343 0.73577 0.11212 0.0
O1884 O 0.29154 0.73557 0.1731 0.0
C1885 C 0.20892 0.65622 0.07842 0.0
O1886 O 0.22337 0.7589 0.0491 0.0
O1887 O 0.27594 0.71788 0.05093 0.0
C1888 C 0.22249 0.81311 0.13723 0.0
O1889 O 0.18885 0.68872 0.07163 0.0
O1890 O 0.24507 0.6565 0.08815 0.0
C1891 C 0.25656 0.66322 0.17426 0.0
Fe1892 Fe 0.0335 0.44297 0.84434 0.0
Fe1893 Fe 0.07645 0.52689 0.85058 0.0
O1894 O 0.04643 0.4865 0.87017 0.0
Fe1895 Fe 0.03145 0.4889 0.92026 0.0
O1896 O 0.01858 0.43561 0.92926 0.0
O1897 O 0.05564 0.40824 0.88641 0.0
O1898 O 0.08476 0.43885 0.82166 0.0
C1899 C 0.11725 0.45893 0.82843 0.0
C1900 C 0.96036 0.4725 0.88722 0.0
O1901 O 0.11697 0.49508 0.83815 0.0
C1902 C 0.02408 0.56476 0.89714 0.0
O1903 O 0.01458 0.47338 0.79911 0.0
O1904 O 0.05559 0.52596 0.80095 0.0
O1905 O 0.98113 0.49907 0.90404 0.0
O1906 O 0.97899 0.44402 0.86702 0.0
C1907 C 0.11025 0.5065 0.92423 0.0
O1908 O 0.03771 0.56343 0.86216 0.0
O1909 O 0.03791 0.54154 0.92312 0.0
C1910 C 0.02754 0.50715 0.78401 0.0
O1911 O 0.10373 0.53281 0.89727 0.0
O1912 O 0.0838 0.48 0.93267 0.0
C1913 C 0.0418 0.40691 0.92239 0.0
Fe1914 Fe 0.24658 0.32646 0.60057 0.0
Fe1915 Fe 0.28457 0.28147 0.67026 0.0
O1916 O 0.28697 0.29644 0.62016 0.0
Fe1917 Fe 0.3305 0.28351 0.59434 0.0
O1918 O 0.33461 0.33476 0.57165 0.0
O1919 O 0.27839 0.36698 0.58814 0.0
O1920 O 0.24065 0.35374 0.64726 0.0
C1921 C 0.26697 0.36027 0.67422 0.0
C1922 C 0.26632 0.27755 0.534 0.0
O1923 O 0.29347 0.33382 0.68266 0.0
C1924 C 0.30097 0.21037 0.63723 0.0
O1925 O 0.21004 0.28772 0.61215 0.0
O1926 O 0.23192 0.28792 0.67312 0.0
O1927 O 0.30009 0.26458 0.54911 0.0
O1928 O 0.24751 0.3056 0.55094 0.0
C1929 C 0.36656 0.29182 0.67239 0.0
O1930 O 0.27441 0.23114 0.65405 0.0
O1931 O 0.32945 0.229 0.61702 0.0
C1932 C 0.2087 0.27409 0.64714 0.0
O1933 O 0.33786 0.2686 0.67926 0.0
O1934 O 0.36523 0.30566 0.63641 0.0
C1935 C 0.31454 0.36726 0.57842 0.0
Fe1936 Fe 0.10322 0.49201 0.4889 0.0
Fe1937 Fe 0.17913 0.48996 0.44297 0.0
O1938 O 0.15331 0.47704 0.4865 0.0
Fe1939 Fe 0.1729 0.44701 0.52689 0.0
O1940 O 0.1262 0.41973 0.53282 0.0
O1941 O 0.09081 0.43966 0.48 0.0
O1942 O 0.09421 0.50489 0.43562 0.0
C1943 C 0.10107 0.48166 0.40692 0.0
C1944 C 0.12634 0.49939 0.56477 0.0
O1945 O 0.13705 0.46782 0.40824 0.0
C1946 C 0.23947 0.49591 0.50714 0.0
O1947 O 0.11943 0.54234 0.49906 0.0
O1948 O 0.15646 0.54447 0.44402 0.0
O1949 O 0.16132 0.48576 0.56343 0.0
O1950 O 0.10035 0.48556 0.54155 0.0
C1951 C 0.19503 0.40621 0.45893 0.0
O1952 O 0.22436 0.50888 0.47337 0.0
O1953 O 0.22253 0.46787 0.52596 0.0
C1954 C 0.13625 0.56311 0.4725 0.0
O1955 O 0.2018 0.4387 0.43885 0.0
O1956 O 0.18532 0.40649 0.49508 0.0
C1957 C 0.09924 0.41321 0.5065 0.0
Fe1958 Fe 0.67912 0.03351 0.58051 0.0
Fe1959 Fe 0.67289 0.07646 0.49658 0.0
O1960 O 0.6533 0.04644 0.53697 0.0
Fe1961 Fe 0.60321 0.03146 0.53458 0.0
O1962 O 0.5942 0.01859 0.58787 0.0
O1963 O 0.63705 0.05566 0.61524 0.0
O1964 O 0.7018 0.08477 0.58462 0.0
C1965 C 0.69504 0.11726 0.56454 0.0
C1966 C 0.63625 0.96037 0.55097 0.0
O1967 O 0.68532 0.11698 0.52839 0.0
C1968 C 0.62632 0.02408 0.45871 0.0
O1969 O 0.72436 0.01459 0.5501 0.0
O1970 O 0.72251 0.0556 0.49751 0.0
O1971 O 0.61943 0.98114 0.52441 0.0
O1972 O 0.65645 0.979 0.57946 0.0
C1973 C 0.59924 0.11026 0.51697 0.0
O1974 O 0.66131 0.03771 0.46005 0.0
O1975 O 0.60034 0.03791 0.48193 0.0
C1976 C 0.73946 0.02755 0.51632 0.0
O1977 O 0.6262 0.10373 0.49066 0.0
O1978 O 0.5908 0.08381 0.54348 0.0
C1979 C 0.60107 0.04182 0.61656 0.0
Fe1980 Fe 0.73996 0.92913 0.33051 0.0
Fe1981 Fe 0.69701 0.9229 0.24659 0.0
O1982 O 0.72703 0.90331 0.28698 0.0
Fe1983 Fe 0.74201 0.85322 0.28458 0.0
O1984 O 0.75488 0.84421 0.33787 0.0
O1985 O 0.71781 0.88707 0.36524 0.0
O1986 O 0.6887 0.95182 0.33462 0.0
C1987 C 0.65621 0.94505 0.31454 0.0
C1988 C 0.8131 0.88625 0.30098 0.0
O1989 O 0.65649 0.93532 0.2784 0.0
C1990 C 0.74939 0.87634 0.20871 0.0
O1991 O 0.75888 0.97436 0.3001 0.0
O1992 O 0.71787 0.97253 0.24753 0.0
O1993 O 0.79233 0.86943 0.27442 0.0
O1994 O 0.79447 0.90646 0.32946 0.0
C1995 C 0.66322 0.84925 0.26697 0.0
O1996 O 0.73576 0.91133 0.21005 0.0
O1997 O 0.73556 0.85036 0.23193 0.0
C1998 C 0.74591 0.98949 0.26633 0.0
O1999 O 0.66974 0.87621 0.24066 0.0
O2000 O 0.68966 0.84081 0.29348 0.0
C2001 C 0.73165 0.85109 0.36657 0.0
Fe2002 Fe 0.85058 0.94702 0.99658 0.0
Fe2003 Fe 0.92025 0.99201 0.03458 0.0
O2004 O 0.87016 0.97704 0.03697 0.0
Fe2005 Fe 0.84434 0.98996 0.0805 0.0
O2006 O 0.82166 0.9387 0.08462 0.0
O2007 O 0.83814 0.90649 0.02839 0.0
O2008 O 0.89727 0.91974 0.99066 0.0
C2009 C 0.92423 0.91322 0.01697 0.0
C2010 C 0.784 0.99592 0.01632 0.0
O2011 O 0.93266 0.93967 0.04348 0.0
C2012 C 0.88722 0.06311 0.05097 0.0
O2013 O 0.86215 0.98576 0.96004 0.0
O2014 O 0.92312 0.98556 0.98193 0.0
O2015 O 0.79911 1.00888 0.0501 0.0
O2016 O 0.80095 0.96788 0.99751 0.0
C2017 C 0.92239 0.98166 0.11656 0.0
O2018 O 0.90404 0.04234 0.02441 0.0
O2019 O 0.86701 0.04447 0.07945 0.0
C2020 C 0.89714 0.99939 0.95871 0.0
O2021 O 0.92926 1.00489 0.08786 0.0
O2022 O 0.88641 0.96782 0.11523 0.0
C2023 C 0.82843 0.90621 0.06454 0.0
Fe2024 Fe 0.28352 0.59435 0.33051 0.0
Fe2025 Fe 0.32647 0.60057 0.24658 0.0
O2026 O 0.29645 0.62016 0.28697 0.0
Fe2027 Fe 0.28148 0.67026 0.28457 0.0
O2028 O 0.2686 0.67927 0.33786 0.0
O2029 O 0.30566 0.63642 0.36523 0.0
O2030 O 0.33478 0.57167 0.33462 0.0
C2031 C 0.36727 0.57844 0.31455 0.0
C2032 C 0.21038 0.63723 0.30097 0.0
O2033 O 0.36699 0.58814 0.27839 0.0
C2034 C 0.2741 0.64713 0.2087 0.0
O2035 O 0.2646 0.54911 0.30011 0.0
O2036 O 0.3056 0.55094 0.24752 0.0
O2037 O 0.23115 0.65405 0.27441 0.0
O2038 O 0.22901 0.61702 0.32945 0.0
C2039 C 0.36028 0.67422 0.26697 0.0
O2040 O 0.28772 0.61215 0.21004 0.0
O2041 O 0.28793 0.67312 0.23192 0.0
C2042 C 0.27756 0.534 0.26633 0.0
O2043 O 0.35375 0.64726 0.24065 0.0
O2044 O 0.33383 0.68266 0.29348 0.0
C2045 C 0.29182 0.6724 0.36656 0.0
Fe2046 Fe 0.34434 0.53352 0.94297 0.0
Fe2047 Fe 0.35057 0.57647 0.02689 0.0
O2048 O 0.37016 0.54644 0.9865 0.0
Fe2049 Fe 0.42025 0.53147 0.9889 0.0
O2050 O 0.42926 0.51859 0.93562 0.0
O2051 O 0.38641 0.55566 0.90824 0.0
O2052 O 0.32167 0.58478 0.93885 0.0
C2053 C 0.32844 0.61727 0.95893 0.0
C2054 C 0.38722 0.46037 0.9725 0.0
O2055 O 0.33815 0.61699 0.99508 0.0
C2056 C 0.39713 0.52409 0.06477 0.0
O2057 O 0.29911 0.5146 0.97337 0.0
O2058 O 0.30094 0.55561 0.02596 0.0
O2059 O 0.40404 0.48114 0.99907 0.0
O2060 O 0.36701 0.47901 0.94402 0.0
C2061 C 0.42422 0.61027 1.00651 0.0
O2062 O 0.36214 0.53772 0.06343 0.0
O2063 O 0.42311 0.53792 0.04155 0.0
C2064 C 0.284 0.52757 1.00714 0.0
O2065 O 0.39727 0.60375 0.03282 0.0
O2066 O 0.43266 0.58382 0.98 0.0
C2067 C 0.42239 0.54182 0.90692 0.0
Fe2068 Fe 0.742 0.17026 0.23889 0.0
Fe2069 Fe 0.73995 0.09434 0.19296 0.0
O2070 O 0.72703 0.12017 0.23649 0.0
Fe2071 Fe 0.69701 0.10058 0.27688 0.0
O2072 O 0.66973 0.14727 0.28281 0.0
O2073 O 0.68965 0.18267 0.22999 0.0
O2074 O 0.75487 0.17926 0.1856 0.0
C2075 C 0.73164 0.17239 0.1569 0.0
C2076 C 0.74938 0.14714 0.31475 0.0
O2077 O 0.7178 0.13641 0.15823 0.0
C2078 C 0.74591 0.03401 0.25714 0.0
O2079 O 0.79233 0.15404 0.24905 0.0
O2080 O 0.79446 0.11702 0.194 0.0
O2081 O 0.73575 0.11215 0.31342 0.0
O2082 O 0.73555 0.17312 0.29153 0.0
C2083 C 0.6562 0.07843 0.20893 0.0
O2084 O 0.75888 0.04911 0.22337 0.0
O2085 O 0.71787 0.05095 0.27595 0.0
C2086 C 0.8131 0.13723 0.22248 0.0
O2087 O 0.6887 0.07166 0.18885 0.0
O2088 O 0.65648 0.08815 0.24507 0.0
C2089 C 0.66321 0.17423 0.2565 0.0
Fe2090 Fe 0.82646 0.92289 0.77689 0.0
Fe2091 Fe 0.78146 0.85321 0.73889 0.0
O2092 O 0.79644 0.9033 0.73649 0.0
Fe2093 Fe 0.78351 0.92913 0.69296 0.0
O2094 O 0.83477 0.95182 0.68886 0.0
O2095 O 0.86699 0.93532 0.74508 0.0
O2096 O 0.85374 0.8762 0.78281 0.0
C2097 C 0.86026 0.84924 0.7565 0.0
C2098 C 0.77755 0.98946 0.75715 0.0
O2099 O 0.83381 0.8408 0.72999 0.0
C2100 C 0.71037 0.88624 0.72249 0.0
O2101 O 0.78772 0.91132 0.81342 0.0
O2102 O 0.78792 0.85035 0.79154 0.0
O2103 O 0.76458 0.97435 0.72337 0.0
O2104 O 0.8056 0.97252 0.77595 0.0
C2105 C 0.79182 0.85108 0.65691 0.0
O2106 O 0.73114 0.86943 0.74905 0.0
O2107 O 0.729 0.90645 0.69401 0.0
C2108 C 0.77409 0.87633 0.81476 0.0
O2109 O 0.76859 0.84421 0.6856 0.0
O2110 O 0.80566 0.88706 0.65823 0.0
C2111 C 0.86726 0.94504 0.70893 0.0
loop_
_geom_bond_atom_site_label_1
_geom_bond_atom_site_label_2
_geom_bond_distance
_geom_bond_site_symmetry_2
_ccdc_geom_bond_type
Fe0 O2 1.918 . S
Fe0 O5 1.997 . S
Fe0 O6 2.002 . S
Fe0 O11 1.976 1_554 S
Fe0 O14 1.996 . S
Fe1 O2 1.918 . S
Fe1 O9 1.997 . S
Fe1 O12 1.996 1_554 S
Fe1 O16 1.976 1_454 S
Fe1 O19 2.002 . S
O2 Fe0 1.918 . S
O2 Fe1 1.918 . S
O2 Fe3 1.918 1_455 S
Fe3 O2 1.918 1_655 S
Fe3 O4 2.002 1_655 S
Fe3 O13 1.976 . S
Fe3 O17 1.996 . S
Fe3 O20 1.997 . S
O4 Fe3 2.002 1_455 S
O4 C21 1.295 . S
O5 Fe0 1.997 . S
O5 C21 1.235 . S
O6 Fe0 2.002 . S
O6 C7 1.295 . S
C7 O6 1.295 . S
C7 O9 1.235 . S
C8 O13 1.287 1_455 S
C8 O14 1.255 . S
O9 Fe1 1.997 . S
O9 C7 1.235 . S
C10 O16 1.287 1_554 S
C10 O17 1.255 . S
O11 Fe0 1.976 1_556 S
O11 C18 1.287 . S
O12 Fe1 1.996 1_556 S
O12 C18 1.255 . S
O13 Fe3 1.976 . S
O13 C8 1.287 1_655 S
O14 Fe0 1.996 . S
O14 C8 1.255 . S
C15 O19 1.295 . S
C15 O20 1.235 1_455 S
O16 Fe1 1.976 1_656 S
O16 C10 1.287 1_556 S
O17 Fe3 1.996 . S
O17 C10 1.255 . S
C18 O11 1.287 . S
C18 O12 1.255 . S
O19 Fe1 2.002 . S
O19 C15 1.295 . S
O20 Fe3 1.997 . S
O20 C15 1.235 1_655 S
C21 O4 1.295 . S
C21 O5 1.235 . S
Fe22 O24 1.918 . S
Fe22 O27 1.997 . S
Fe22 O28 2.002 . S
Fe22 O33 1.976 . S
Fe22 O36 1.996 . S
Fe23 O24 1.918 . S
Fe23 O31 1.997 . S
Fe23 O34 1.996 . S
Fe23 O38 1.976 . S
Fe23 O41 2.002 . S
O24 Fe22 1.918 . S
O24 Fe23 1.918 . S
O24 Fe25 1.918 . S
Fe25 O24 1.918 . S
Fe25 O26 2.002 . S
Fe25 O35 1.976 . S
Fe25 O39 1.996 . S
Fe25 O42 1.997 . S
O26 Fe25 2.002 . S
O26 C43 1.295 . S
O27 Fe22 1.997 . S
O27 C43 1.235 . S
O28 Fe22 2.002 . S
O28 C29 1.295 . S
C29 O28 1.295 . S
C29 O31 1.235 . S
C30 O35 1.287 . S
C30 O36 1.255 . S
O31 Fe23 1.997 . S
O31 C29 1.235 . S
C32 O38 1.287 . S
C32 O39 1.255 . S
O33 Fe22 1.976 . S
O33 C40 1.287 . S
O34 Fe23 1.996 . S
O34 C40 1.255 . S
O35 Fe25 1.976 . S
O35 C30 1.287 . S
O36 Fe22 1.996 . S
O36 C30 1.255 . S
C37 O41 1.295 . S
C37 O42 1.235 . S
O38 Fe23 1.976 . S
O38 C32 1.287 . S
O39 Fe25 1.996 . S
O39 C32 1.255 . S
C40 O33 1.287 . S
C40 O34 1.255 . S
O41 Fe23 2.002 . S
O41 C37 1.295 . S
O42 Fe25 1.997 . S
O42 C37 1.235 . S
C43 O26 1.295 . S
C43 O27 1.235 . S
Fe44 O46 1.918 . S
Fe44 O49 1.997 . S
Fe44 O50 2.002 . S
Fe44 O55 1.976 . S
Fe44 O58 1.996 . S
Fe45 O46 1.918 . S
Fe45 O53 1.997 . S
Fe45 O56 1.996 . S
Fe45 O60 1.976 . S
Fe45 O63 2.002 . S
O46 Fe44 1.918 . S
O46 Fe45 1.918 . S
O46 Fe47 1.918 . S
Fe47 O46 1.918 . S
Fe47 O48 2.002 . S
Fe47 O57 1.976 . S
Fe47 O61 1.996 . S
Fe47 O64 1.997 . S
O48 Fe47 2.002 . S
O48 C65 1.295 . S
O49 Fe44 1.997 . S
O49 C65 1.235 . S
O50 Fe44 2.002 . S
O50 C51 1.295 . S
C51 O50 1.295 . S
C51 O53 1.235 . S
C52 O57 1.287 . S
C52 O58 1.255 . S
O53 Fe45 1.997 . S
O53 C51 1.235 . S
C54 O60 1.287 . S
C54 O61 1.255 . S
O55 Fe44 1.976 . S
O55 C62 1.287 . S
O56 Fe45 1.996 . S
O56 C62 1.255 . S
O57 Fe47 1.976 . S
O57 C52 1.287 . S
O58 Fe44 1.996 . S
O58 C52 1.255 . S
C59 O63 1.295 . S
C59 O64 1.235 . S
O60 Fe45 1.976 . S
O60 C54 1.287 . S
O61 Fe47 1.996 . S
O61 C54 1.255 . S
C62 O55 1.287 . S
C62 O56 1.255 . S
O63 Fe45 2.002 . S
O63 C59 1.295 . S
O64 Fe47 1.997 . S
O64 C59 1.235 . S
C65 O48 1.295 . S
C65 O49 1.235 . S
Fe66 O68 1.918 . S
Fe66 O71 1.997 . S
Fe66 O72 2.002 . S
Fe66 O77 1.976 . S
Fe66 O80 1.996 . S
Fe67 O68 1.918 . S
Fe67 O75 1.997 . S
Fe67 O78 1.996 . S
Fe67 O82 1.976 . S
Fe67 O85 2.002 . S
O68 Fe66 1.918 . S
O68 Fe67 1.918 . S
O68 Fe69 1.918 . S
Fe69 O68 1.918 . S
Fe69 O70 2.002 . S
Fe69 O79 1.976 . S
Fe69 O83 1.996 . S
Fe69 O86 1.997 . S
O70 Fe69 2.002 . S
O70 C87 1.295 . S
O71 Fe66 1.997 . S
O71 C87 1.235 . S
O72 Fe66 2.002 . S
O72 C73 1.295 . S
C73 O72 1.295 . S
C73 O75 1.235 . S
C74 O79 1.287 . S
C74 O80 1.255 . S
O75 Fe67 1.997 . S
O75 C73 1.235 . S
C76 O82 1.287 . S
C76 O83 1.255 . S
O77 Fe66 1.976 . S
O77 C84 1.287 . S
O78 Fe67 1.996 . S
O78 C84 1.255 . S
O79 Fe69 1.976 . S
O79 C74 1.287 . S
O80 Fe66 1.996 . S
O80 C74 1.255 . S
C81 O85 1.295 . S
C81 O86 1.235 . S
O82 Fe67 1.976 . S
O82 C76 1.287 . S
O83 Fe69 1.996 . S
O83 C76 1.255 . S
C84 O77 1.287 . S
C84 O78 1.255 . S
O85 Fe67 2.002 . S
O85 C81 1.295 . S
O86 Fe69 1.997 . S
O86 C81 1.235 . S
C87 O70 1.295 . S
C87 O71 1.235 . S
Fe88 O90 1.918 . S
Fe88 O93 1.997 . S
Fe88 O94 2.002 . S
Fe88 O99 1.976 1_455 S
Fe88 O102 1.996 . S
Fe89 O90 1.918 1_655 S
Fe89 O97 1.997 . S
Fe89 O100 1.996 . S
Fe89 O104 1.976 . S
Fe89 O107 2.002 1_655 S
O90 Fe88 1.918 . S
O90 Fe89 1.918 1_455 S
O90 Fe91 1.918 . S
Fe91 O90 1.918 . S
Fe91 O92 2.002 . S
Fe91 O101 1.976 . S
Fe91 O105 1.996 . S
Fe91 O108 1.997 . S
O92 Fe91 2.002 . S
O92 C109 1.295 . S
O93 Fe88 1.997 . S
O93 C109 1.235 . S
O94 Fe88 2.002 . S
O94 C95 1.295 . S
C95 O94 1.295 . S
C95 O97 1.235 1_455 S
C96 O101 1.287 . S
C96 O102 1.255 . S
O97 Fe89 1.997 . S
O97 C95 1.235 1_655 S
C98 O104 1.287 1_455 S
C98 O105 1.255 . S
O99 Fe88 1.976 1_655 S
O99 C106 1.287 . S
O100 Fe89 1.996 . S
O100 C106 1.255 . S
O101 Fe91 1.976 . S
O101 C96 1.287 . S
O102 Fe88 1.996 . S
O102 C96 1.255 . S
C103 O107 1.295 . S
C103 O108 1.235 . S
O104 Fe89 1.976 . S
O104 C98 1.287 1_655 S
O105 Fe91 1.996 . S
O105 C98 1.255 . S
C106 O99 1.287 . S
C106 O100 1.255 . S
O107 Fe89 2.002 1_455 S
O107 C103 1.295 . S
O108 Fe91 1.997 . S
O108 C103 1.235 . S
C109 O92 1.295 . S
C109 O93 1.235 . S
Fe110 O112 1.918 . S
Fe110 O115 1.997 . S
Fe110 O116 2.002 . S
Fe110 O121 1.976 . S
Fe110 O124 1.996 . S
Fe111 O112 1.918 . S
Fe111 O119 1.997 . S
Fe111 O122 1.996 . S
Fe111 O126 1.976 . S
Fe111 O129 2.002 . S
O112 Fe110 1.918 . S
O112 Fe111 1.918 . S
O112 Fe113 1.918 . S
Fe113 O112 1.918 . S
Fe113 O114 2.002 . S
Fe113 O123 1.976 . S
Fe113 O127 1.996 . S
Fe113 O130 1.997 . S
O114 Fe113 2.002 . S
O114 C131 1.295 . S
O115 Fe110 1.997 . S
O115 C131 1.235 . S
O116 Fe110 2.002 . S
O116 C117 1.295 . S
C117 O116 1.295 . S
C117 O119 1.235 . S
C118 O123 1.287 . S
C118 O124 1.255 . S
O119 Fe111 1.997 . S
O119 C117 1.235 . S
C120 O126 1.287 . S
C120 O127 1.255 . S
O121 Fe110 1.976 . S
O121 C128 1.287 . S
O122 Fe111 1.996 . S
O122 C128 1.255 . S
O123 Fe113 1.976 . S
O123 C118 1.287 . S
O124 Fe110 1.996 . S
O124 C118 1.255 . S
C125 O129 1.295 . S
C125 O130 1.235 . S
O126 Fe111 1.976 . S
O126 C120 1.287 . S
O127 Fe113 1.996 . S
O127 C120 1.255 . S
C128 O121 1.287 . S
C128 O122 1.255 . S
O129 Fe111 2.002 . S
O129 C125 1.295 . S
O130 Fe113 1.997 . S
O130 C125 1.235 . S
C131 O114 1.295 . S
C131 O115 1.235 . S
Fe132 O134 1.918 . S
Fe132 O137 1.997 . S
Fe132 O138 2.002 . S
Fe132 O143 1.976 1_556 S
Fe132 O146 1.996 1_556 S
Fe133 O134 1.918 . S
Fe133 O141 1.997 . S
Fe133 O144 1.996 . S
Fe133 O148 1.976 . S
Fe133 O151 2.002 . S
O134 Fe132 1.918 . S
O134 Fe133 1.918 . S
O134 Fe135 1.918 . S
Fe135 O134 1.918 . S
Fe135 O136 2.002 . S
Fe135 O145 1.976 1_556 S
Fe135 O149 1.996 . S
Fe135 O152 1.997 . S
O136 Fe135 2.002 . S
O136 C153 1.295 . S
O137 Fe132 1.997 . S
O137 C153 1.235 . S
O138 Fe132 2.002 . S
O138 C139 1.295 . S
C139 O138 1.295 . S
C139 O141 1.235 . S
C140 O145 1.287 . S
C140 O146 1.255 . S
O141 Fe133 1.997 . S
O141 C139 1.235 . S
C142 O148 1.287 . S
C142 O149 1.255 . S
O143 Fe132 1.976 1_554 S
O143 C150 1.287 1_554 S
O144 Fe133 1.996 . S
O144 C150 1.255 . S
O145 Fe135 1.976 1_554 S
O145 C140 1.287 . S
O146 Fe132 1.996 1_554 S
O146 C140 1.255 . S
C147 O151 1.295 . S
C147 O152 1.235 . S
O148 Fe133 1.976 . S
O148 C142 1.287 . S
O149 Fe135 1.996 . S
O149 C142 1.255 . S
C150 O143 1.287 1_556 S
C150 O144 1.255 . S
O151 Fe133 2.002 . S
O151 C147 1.295 . S
O152 Fe135 1.997 . S
O152 C147 1.235 . S
C153 O136 1.295 . S
C153 O137 1.235 . S
Fe154 O156 1.918 . S
Fe154 O159 1.997 . S
Fe154 O160 2.002 . S
Fe154 O165 1.976 . S
Fe154 O168 1.996 . S
Fe155 O156 1.918 . S
Fe155 O163 1.997 . S
Fe155 O166 1.996 . S
Fe155 O170 1.976 . S
Fe155 O173 2.002 . S
O156 Fe154 1.918 . S
O156 Fe155 1.918 . S
O156 Fe157 1.918 . S
Fe157 O156 1.918 . S
Fe157 O158 2.002 . S
Fe157 O167 1.976 . S
Fe157 O171 1.996 . S
Fe157 O174 1.997 . S
O158 Fe157 2.002 . S
O158 C175 1.295 . S
O159 Fe154 1.997 . S
O159 C175 1.235 . S
O160 Fe154 2.002 . S
O160 C161 1.295 . S
C161 O160 1.295 . S
C161 O163 1.235 . S
C162 O167 1.287 . S
C162 O168 1.255 . S
O163 Fe155 1.997 . S
O163 C161 1.235 . S
C164 O170 1.287 . S
C164 O171 1.255 . S
O165 Fe154 1.976 . S
O165 C172 1.287 . S
O166 Fe155 1.996 . S
O166 C172 1.255 . S
O167 Fe157 1.976 . S
O167 C162 1.287 . S
O168 Fe154 1.996 . S
O168 C162 1.255 . S
C169 O173 1.295 . S
C169 O174 1.235 . S
O170 Fe155 1.976 . S
O170 C164 1.287 . S
O171 Fe157 1.996 . S
O171 C164 1.255 . S
C172 O165 1.287 . S
C172 O166 1.255 . S
O173 Fe155 2.002 . S
O173 C169 1.295 . S
O174 Fe157 1.997 . S
O174 C169 1.235 . S
C175 O158 1.295 . S
C175 O159 1.235 . S
Fe176 O178 1.918 . S
Fe176 O181 1.997 . S
Fe176 O182 2.002 . S
Fe176 O187 1.976 1_455 S
Fe176 O190 1.996 . S
Fe177 O178 1.918 . S
Fe177 O185 1.997 . S
Fe177 O188 1.996 1_455 S
Fe177 O192 1.976 1_445 S
Fe177 O195 2.002 . S
O178 Fe176 1.918 . S
O178 Fe177 1.918 . S
O178 Fe179 1.918 1_545 S
Fe179 O178 1.918 1_565 S
Fe179 O180 2.002 1_565 S
Fe179 O189 1.976 . S
Fe179 O193 1.996 . S
Fe179 O196 1.997 . S
O180 Fe179 2.002 1_545 S
O180 C197 1.295 . S
O181 Fe176 1.997 . S
O181 C197 1.235 . S
O182 Fe176 2.002 . S
O182 C183 1.295 . S
C183 O182 1.295 . S
C183 O185 1.235 . S
C184 O189 1.287 1_545 S
C184 O190 1.255 . S
O185 Fe177 1.997 . S
O185 C183 1.235 . S
C186 O192 1.287 1_455 S
C186 O193 1.255 . S
O187 Fe176 1.976 1_655 S
O187 C194 1.287 . S
O188 Fe177 1.996 1_655 S
O188 C194 1.255 . S
O189 Fe179 1.976 . S
O189 C184 1.287 1_565 S
O190 Fe176 1.996 . S
O190 C184 1.255 . S
C191 O195 1.295 . S
C191 O196 1.235 1_545 S
O192 Fe177 1.976 1_665 S
O192 C186 1.287 1_655 S
O193 Fe179 1.996 . S
O193 C186 1.255 . S
C194 O187 1.287 . S
C194 O188 1.255 . S
O195 Fe177 2.002 . S
O195 C191 1.295 . S
O196 Fe179 1.997 . S
O196 C191 1.235 1_565 S
C197 O180 1.295 . S
C197 O181 1.235 . S
Fe198 O200 1.918 . S
Fe198 O203 1.997 . S
Fe198 O204 2.002 . S
Fe198 O209 1.976 . S
Fe198 O212 1.996 . S
Fe199 O200 1.918 . S
Fe199 O207 1.997 . S
Fe199 O210 1.996 . S
Fe199 O214 1.976 . S
Fe199 O217 2.002 . S
O200 Fe198 1.918 . S
O200 Fe199 1.918 . S
O200 Fe201 1.918 . S
Fe201 O200 1.918 . S
Fe201 O202 2.002 . S
Fe201 O211 1.976 . S
Fe201 O215 1.996 . S
Fe201 O218 1.997 . S
O202 Fe201 2.002 . S
O202 C219 1.295 . S
O203 Fe198 1.997 . S
O203 C219 1.235 . S
O204 Fe198 2.002 . S
O204 C205 1.295 . S
C205 O204 1.295 . S
C205 O207 1.235 . S
C206 O211 1.287 . S
C206 O212 1.255 . S
O207 Fe199 1.997 . S
O207 C205 1.235 . S
C208 O214 1.287 . S
C208 O215 1.255 . S
O209 Fe198 1.976 . S
O209 C216 1.287 . S
O210 Fe199 1.996 . S
O210 C216 1.255 . S
O211 Fe201 1.976 . S
O211 C206 1.287 . S
O212 Fe198 1.996 . S
O212 C206 1.255 . S
C213 O217 1.295 . S
C213 O218 1.235 . S
O214 Fe199 1.976 . S
O214 C208 1.287 . S
O215 Fe201 1.996 . S
O215 C208 1.255 . S
C216 O209 1.287 . S
C216 O210 1.255 . S
O217 Fe199 2.002 . S
O217 C213 1.295 . S
O218 Fe201 1.997 . S
O218 C213 1.235 . S
C219 O202 1.295 . S
C219 O203 1.235 . S
Fe220 O222 1.918 1_545 S
Fe220 O225 1.997 . S
Fe220 O226 2.002 1_545 S
Fe220 O231 1.976 . S
Fe220 O234 1.996 . S
Fe221 O222 1.918 . S
Fe221 O229 1.997 . S
Fe221 O232 1.996 . S
Fe221 O236 1.976 . S
Fe221 O239 2.002 . S
O222 Fe220 1.918 1_565 S
O222 Fe221 1.918 . S
O222 Fe223 1.918 . S
Fe223 O222 1.918 . S
Fe223 O224 2.002 . S
Fe223 O233 1.976 1_565 S
Fe223 O237 1.996 . S
Fe223 O240 1.997 . S
O224 Fe223 2.002 . S
O224 C241 1.295 . S
O225 Fe220 1.997 . S
O225 C241 1.235 1_545 S
O226 Fe220 2.002 1_565 S
O226 C227 1.295 . S
C227 O226 1.295 . S
C227 O229 1.235 . S
C228 O233 1.287 . S
C228 O234 1.255 . S
O229 Fe221 1.997 . S
O229 C227 1.235 . S
C230 O236 1.287 . S
C230 O237 1.255 . S
O231 Fe220 1.976 . S
O231 C238 1.287 1_545 S
O232 Fe221 1.996 . S
O232 C238 1.255 . S
O233 Fe223 1.976 1_545 S
O233 C228 1.287 . S
O234 Fe220 1.996 . S
O234 C228 1.255 . S
C235 O239 1.295 . S
C235 O240 1.235 . S
O236 Fe221 1.976 . S
O236 C230 1.287 . S
O237 Fe223 1.996 . S
O237 C230 1.255 . S
C238 O231 1.287 1_565 S
C238 O232 1.255 . S
O239 Fe221 2.002 . S
O239 C235 1.295 . S
O240 Fe223 1.997 . S
O240 C235 1.235 . S
C241 O224 1.295 . S
C241 O225 1.235 1_565 S
Fe242 O244 1.918 . S
Fe242 O247 1.997 . S
Fe242 O248 2.002 . S
Fe242 O253 1.976 . S
Fe242 O256 1.996 . S
Fe243 O244 1.918 . S
Fe243 O251 1.997 . S
Fe243 O254 1.996 . S
Fe243 O258 1.976 . S
Fe243 O261 2.002 . S
O244 Fe242 1.918 . S
O244 Fe243 1.918 . S
O244 Fe245 1.918 . S
Fe245 O244 1.918 . S
Fe245 O246 2.002 . S
Fe245 O255 1.976 . S
Fe245 O259 1.996 . S
Fe245 O262 1.997 . S
O246 Fe245 2.002 . S
O246 C263 1.295 . S
O247 Fe242 1.997 . S
O247 C263 1.235 . S
O248 Fe242 2.002 . S
O248 C249 1.295 . S
C249 O248 1.295 . S
C249 O251 1.235 . S
C250 O255 1.287 . S
C250 O256 1.255 . S
O251 Fe243 1.997 . S
O251 C249 1.235 . S
C252 O258 1.287 . S
C252 O259 1.255 . S
O253 Fe242 1.976 . S
O253 C260 1.287 . S
O254 Fe243 1.996 . S
O254 C260 1.255 . S
O255 Fe245 1.976 . S
O255 C250 1.287 . S
O256 Fe242 1.996 . S
O256 C250 1.255 . S
C257 O261 1.295 . S
C257 O262 1.235 . S
O258 Fe243 1.976 . S
O258 C252 1.287 . S
O259 Fe245 1.996 . S
O259 C252 1.255 . S
C260 O253 1.287 . S
C260 O254 1.255 . S
O261 Fe243 2.002 . S
O261 C257 1.295 . S
O262 Fe245 1.997 . S
O262 C257 1.235 . S
C263 O246 1.295 . S
C263 O247 1.235 . S
Fe264 O266 1.918 . S
Fe264 O269 1.997 . S
Fe264 O270 2.002 . S
Fe264 O275 1.976 1_465 S
Fe264 O278 1.996 1_455 S
Fe265 O266 1.918 1_545 S
Fe265 O273 1.997 . S
Fe265 O276 1.996 . S
Fe265 O280 1.976 . S
Fe265 O283 2.002 1_545 S
O266 Fe264 1.918 . S
O266 Fe265 1.918 1_565 S
O266 Fe267 1.918 . S
Fe267 O266 1.918 . S
Fe267 O268 2.002 . S
Fe267 O277 1.976 1_455 S
Fe267 O281 1.996 . S
Fe267 O284 1.997 . S
O268 Fe267 2.002 . S
O268 C285 1.295 . S
O269 Fe264 1.997 . S
O269 C285 1.235 . S
O270 Fe264 2.002 . S
O270 C271 1.295 . S
C271 O270 1.295 . S
C271 O273 1.235 1_565 S
C272 O277 1.287 . S
C272 O278 1.255 . S
O273 Fe265 1.997 . S
O273 C271 1.235 1_545 S
C274 O280 1.287 1_565 S
C274 O281 1.255 . S
O275 Fe264 1.976 1_645 S
O275 C282 1.287 1_655 S
O276 Fe265 1.996 . S
O276 C282 1.255 . S
O277 Fe267 1.976 1_655 S
O277 C272 1.287 . S
O278 Fe264 1.996 1_655 S
O278 C272 1.255 . S
C279 O283 1.295 . S
C279 O284 1.235 . S
O280 Fe265 1.976 . S
O280 C274 1.287 1_545 S
O281 Fe267 1.996 . S
O281 C274 1.255 . S
C282 O275 1.287 1_455 S
C282 O276 1.255 . S
O283 Fe265 2.002 1_565 S
O283 C279 1.295 . S
O284 Fe267 1.997 . S
O284 C279 1.235 . S
C285 O268 1.295 . S
C285 O269 1.235 . S
Fe286 O288 1.918 . S
Fe286 O291 1.997 . S
Fe286 O292 2.002 . S
Fe286 O297 1.976 . S
Fe286 O300 1.996 . S
Fe287 O288 1.918 . S
Fe287 O295 1.997 . S
Fe287 O298 1.996 . S
Fe287 O302 1.976 . S
Fe287 O305 2.002 . S
O288 Fe286 1.918 . S
O288 Fe287 1.918 . S
O288 Fe289 1.918 . S
Fe289 O288 1.918 . S
Fe289 O290 2.002 . S
Fe289 O299 1.976 . S
Fe289 O303 1.996 . S
Fe289 O306 1.997 . S
O290 Fe289 2.002 . S
O290 C307 1.295 . S
O291 Fe286 1.997 . S
O291 C307 1.235 . S
O292 Fe286 2.002 . S
O292 C293 1.295 . S
C293 O292 1.295 . S
C293 O295 1.235 . S
C294 O299 1.287 . S
C294 O300 1.255 . S
O295 Fe287 1.997 . S
O295 C293 1.235 . S
C296 O302 1.287 . S
C296 O303 1.255 . S
O297 Fe286 1.976 . S
O297 C304 1.287 . S
O298 Fe287 1.996 . S
O298 C304 1.255 . S
O299 Fe289 1.976 . S
O299 C294 1.287 . S
O300 Fe286 1.996 . S
O300 C294 1.255 . S
C301 O305 1.295 . S
C301 O306 1.235 . S
O302 Fe287 1.976 . S
O302 C296 1.287 . S
O303 Fe289 1.996 . S
O303 C296 1.255 . S
C304 O297 1.287 . S
C304 O298 1.255 . S
O305 Fe287 2.002 . S
O305 C301 1.295 . S
O306 Fe289 1.997 . S
O306 C301 1.235 . S
C307 O290 1.295 . S
C307 O291 1.235 . S
Fe308 O310 1.918 . S
Fe308 O313 1.997 . S
Fe308 O314 2.002 . S
Fe308 O319 1.976 . S
Fe308 O322 1.996 . S
Fe309 O310 1.918 . S
Fe309 O317 1.997 . S
Fe309 O320 1.996 . S
Fe309 O324 1.976 1_545 S
Fe309 O327 2.002 . S
O310 Fe308 1.918 . S
O310 Fe309 1.918 . S
O310 Fe311 1.918 1_545 S
Fe311 O310 1.918 1_565 S
Fe311 O312 2.002 1_565 S
Fe311 O321 1.976 . S
Fe311 O325 1.996 . S
Fe311 O328 1.997 . S
O312 Fe311 2.002 1_545 S
O312 C329 1.295 . S
O313 Fe308 1.997 . S
O313 C329 1.235 . S
O314 Fe308 2.002 . S
O314 C315 1.295 . S
C315 O314 1.295 . S
C315 O317 1.235 . S
C316 O321 1.287 1_545 S
C316 O322 1.255 . S
O317 Fe309 1.997 . S
O317 C315 1.235 . S
C318 O324 1.287 . S
C318 O325 1.255 . S
O319 Fe308 1.976 . S
O319 C326 1.287 . S
O320 Fe309 1.996 . S
O320 C326 1.255 . S
O321 Fe311 1.976 . S
O321 C316 1.287 1_565 S
O322 Fe308 1.996 . S
O322 C316 1.255 . S
C323 O327 1.295 . S
C323 O328 1.235 1_545 S
O324 Fe309 1.976 1_565 S
O324 C318 1.287 . S
O325 Fe311 1.996 . S
O325 C318 1.255 . S
C326 O319 1.287 . S
C326 O320 1.255 . S
O327 Fe309 2.002 . S
O327 C323 1.295 . S
O328 Fe311 1.997 . S
O328 C323 1.235 1_565 S
C329 O312 1.295 . S
C329 O313 1.235 . S
Fe330 O332 1.918 . S
Fe330 O335 1.997 . S
Fe330 O336 2.002 . S
Fe330 O341 1.976 . S
Fe330 O344 1.996 . S
Fe331 O332 1.918 . S
Fe331 O339 1.997 . S
Fe331 O342 1.996 . S
Fe331 O346 1.976 . S
Fe331 O349 2.002 . S
O332 Fe330 1.918 . S
O332 Fe331 1.918 . S
O332 Fe333 1.918 . S
Fe333 O332 1.918 . S
Fe333 O334 2.002 . S
Fe333 O343 1.976 . S
Fe333 O347 1.996 . S
Fe333 O350 1.997 . S
O334 Fe333 2.002 . S
O334 C351 1.295 . S
O335 Fe330 1.997 . S
O335 C351 1.235 . S
O336 Fe330 2.002 . S
O336 C337 1.295 . S
C337 O336 1.295 . S
C337 O339 1.235 . S
C338 O343 1.287 . S
C338 O344 1.255 . S
O339 Fe331 1.997 . S
O339 C337 1.235 . S
C340 O346 1.287 . S
C340 O347 1.255 . S
O341 Fe330 1.976 . S
O341 C348 1.287 . S
O342 Fe331 1.996 . S
O342 C348 1.255 . S
O343 Fe333 1.976 . S
O343 C338 1.287 . S
O344 Fe330 1.996 . S
O344 C338 1.255 . S
C345 O349 1.295 . S
C345 O350 1.235 . S
O346 Fe331 1.976 . S
O346 C340 1.287 . S
O347 Fe333 1.996 . S
O347 C340 1.255 . S
C348 O341 1.287 . S
C348 O342 1.255 . S
O349 Fe331 2.002 . S
O349 C345 1.295 . S
O350 Fe333 1.997 . S
O350 C345 1.235 . S
C351 O334 1.295 . S
C351 O335 1.235 . S
Fe352 O354 1.918 . S
Fe352 O357 1.997 . S
Fe352 O358 2.002 . S
Fe352 O363 1.976 1_545 S
Fe352 O366 1.996 . S
Fe353 O354 1.918 . S
Fe353 O361 1.997 . S
Fe353 O364 1.996 1_545 S
Fe353 O368 1.976 1_544 S
Fe353 O371 2.002 . S
O354 Fe352 1.918 . S
O354 Fe353 1.918 . S
O354 Fe355 1.918 1_554 S
Fe355 O354 1.918 1_556 S
Fe355 O356 2.002 1_556 S
Fe355 O365 1.976 . S
Fe355 O369 1.996 . S
Fe355 O372 1.997 . S
O356 Fe355 2.002 1_554 S
O356 C373 1.295 . S
O357 Fe352 1.997 . S
O357 C373 1.235 . S
O358 Fe352 2.002 . S
O358 C359 1.295 . S
C359 O358 1.295 . S
C359 O361 1.235 . S
C360 O365 1.287 1_554 S
C360 O366 1.255 . S
O361 Fe353 1.997 . S
O361 C359 1.235 . S
C362 O368 1.287 1_545 S
C362 O369 1.255 . S
O363 Fe352 1.976 1_565 S
O363 C370 1.287 . S
O364 Fe353 1.996 1_565 S
O364 C370 1.255 . S
O365 Fe355 1.976 . S
O365 C360 1.287 1_556 S
O366 Fe352 1.996 . S
O366 C360 1.255 . S
C367 O371 1.295 . S
C367 O372 1.235 1_554 S
O368 Fe353 1.976 1_566 S
O368 C362 1.287 1_565 S
O369 Fe355 1.996 . S
O369 C362 1.255 . S
C370 O363 1.287 . S
C370 O364 1.255 . S
O371 Fe353 2.002 . S
O371 C367 1.295 . S
O372 Fe355 1.997 . S
O372 C367 1.235 1_556 S
C373 O356 1.295 . S
C373 O357 1.235 . S
Fe374 O376 1.918 1_554 S
Fe374 O379 1.997 . S
Fe374 O380 2.002 1_554 S
Fe374 O385 1.976 . S
Fe374 O388 1.996 . S
Fe375 O376 1.918 . S
Fe375 O383 1.997 . S
Fe375 O386 1.996 . S
Fe375 O390 1.976 . S
Fe375 O393 2.002 . S
O376 Fe374 1.918 1_556 S
O376 Fe375 1.918 . S
O376 Fe377 1.918 . S
Fe377 O376 1.918 . S
Fe377 O378 2.002 . S
Fe377 O387 1.976 1_556 S
Fe377 O391 1.996 . S
Fe377 O394 1.997 . S
O378 Fe377 2.002 . S
O378 C395 1.295 . S
O379 Fe374 1.997 . S
O379 C395 1.235 1_554 S
O380 Fe374 2.002 1_556 S
O380 C381 1.295 . S
C381 O380 1.295 . S
C381 O383 1.235 . S
C382 O387 1.287 . S
C382 O388 1.255 . S
O383 Fe375 1.997 . S
O383 C381 1.235 . S
C384 O390 1.287 . S
C384 O391 1.255 . S
O385 Fe374 1.976 . S
O385 C392 1.287 1_554 S
O386 Fe375 1.996 . S
O386 C392 1.255 . S
O387 Fe377 1.976 1_554 S
O387 C382 1.287 . S
O388 Fe374 1.996 . S
O388 C382 1.255 . S
C389 O393 1.295 . S
C389 O394 1.235 . S
O390 Fe375 1.976 . S
O390 C384 1.287 . S
O391 Fe377 1.996 . S
O391 C384 1.255 . S
C392 O385 1.287 1_556 S
C392 O386 1.255 . S
O393 Fe375 2.002 . S
O393 C389 1.295 . S
O394 Fe377 1.997 . S
O394 C389 1.235 . S
C395 O378 1.295 . S
C395 O379 1.235 1_556 S
Fe396 O398 1.918 . S
Fe396 O401 1.997 . S
Fe396 O402 2.002 . S
Fe396 O407 1.976 . S
Fe396 O410 1.996 . S
Fe397 O398 1.918 . S
Fe397 O405 1.997 . S
Fe397 O408 1.996 . S
Fe397 O412 1.976 . S
Fe397 O415 2.002 . S
O398 Fe396 1.918 . S
O398 Fe397 1.918 . S
O398 Fe399 1.918 . S
Fe399 O398 1.918 . S
Fe399 O400 2.002 . S
Fe399 O409 1.976 . S
Fe399 O413 1.996 . S
Fe399 O416 1.997 . S
O400 Fe399 2.002 . S
O400 C417 1.295 . S
O401 Fe396 1.997 . S
O401 C417 1.235 . S
O402 Fe396 2.002 . S
O402 C403 1.295 . S
C403 O402 1.295 . S
C403 O405 1.235 . S
C404 O409 1.287 . S
C404 O410 1.255 . S
O405 Fe397 1.997 . S
O405 C403 1.235 . S
C406 O412 1.287 . S
C406 O413 1.255 . S
O407 Fe396 1.976 . S
O407 C414 1.287 . S
O408 Fe397 1.996 . S
O408 C414 1.255 . S
O409 Fe399 1.976 . S
O409 C404 1.287 . S
O410 Fe396 1.996 . S
O410 C404 1.255 . S
C411 O415 1.295 . S
C411 O416 1.235 . S
O412 Fe397 1.976 . S
O412 C406 1.287 . S
O413 Fe399 1.996 . S
O413 C406 1.255 . S
C414 O407 1.287 . S
C414 O408 1.255 . S
O415 Fe397 2.002 . S
O415 C411 1.295 . S
O416 Fe399 1.997 . S
O416 C411 1.235 . S
C417 O400 1.295 . S
C417 O401 1.235 . S
Fe418 O420 1.918 . S
Fe418 O423 1.997 . S
Fe418 O424 2.002 . S
Fe418 O429 1.976 . S
Fe418 O432 1.996 . S
Fe419 O420 1.918 . S
Fe419 O427 1.997 . S
Fe419 O430 1.996 . S
Fe419 O434 1.976 . S
Fe419 O437 2.002 . S
O420 Fe418 1.918 . S
O420 Fe419 1.918 . S
O420 Fe421 1.918 . S
Fe421 O420 1.918 . S
Fe421 O422 2.002 . S
Fe421 O431 1.976 . S
Fe421 O435 1.996 . S
Fe421 O438 1.997 . S
O422 Fe421 2.002 . S
O422 C439 1.295 . S
O423 Fe418 1.997 . S
O423 C439 1.235 . S
O424 Fe418 2.002 . S
O424 C425 1.295 . S
C425 O424 1.295 . S
C425 O427 1.235 . S
C426 O431 1.287 . S
C426 O432 1.255 . S
O427 Fe419 1.997 . S
O427 C425 1.235 . S
C428 O434 1.287 . S
C428 O435 1.255 . S
O429 Fe418 1.976 . S
O429 C436 1.287 . S
O430 Fe419 1.996 . S
O430 C436 1.255 . S
O431 Fe421 1.976 . S
O431 C426 1.287 . S
O432 Fe418 1.996 . S
O432 C426 1.255 . S
C433 O437 1.295 . S
C433 O438 1.235 . S
O434 Fe419 1.976 . S
O434 C428 1.287 . S
O435 Fe421 1.996 . S
O435 C428 1.255 . S
C436 O429 1.287 . S
C436 O430 1.255 . S
O437 Fe419 2.002 . S
O437 C433 1.295 . S
O438 Fe421 1.997 . S
O438 C433 1.235 . S
C439 O422 1.295 . S
C439 O423 1.235 . S
Fe440 O442 1.918 . S
Fe440 O445 1.997 . S
Fe440 O446 2.002 . S
Fe440 O451 1.976 . S
Fe440 O454 1.996 . S
Fe441 O442 1.918 . S
Fe441 O449 1.997 . S
Fe441 O452 1.996 . S
Fe441 O456 1.976 . S
Fe441 O459 2.002 . S
O442 Fe440 1.918 . S
O442 Fe441 1.918 . S
O442 Fe443 1.918 . S
Fe443 O442 1.918 . S
Fe443 O444 2.002 . S
Fe443 O453 1.976 . S
Fe443 O457 1.996 . S
Fe443 O460 1.997 . S
O444 Fe443 2.002 . S
O444 C461 1.295 . S
O445 Fe440 1.997 . S
O445 C461 1.235 . S
O446 Fe440 2.002 . S
O446 C447 1.295 . S
C447 O446 1.295 . S
C447 O449 1.235 . S
C448 O453 1.287 . S
C448 O454 1.255 . S
O449 Fe441 1.997 . S
O449 C447 1.235 . S
C450 O456 1.287 . S
C450 O457 1.255 . S
O451 Fe440 1.976 . S
O451 C458 1.287 . S
O452 Fe441 1.996 . S
O452 C458 1.255 . S
O453 Fe443 1.976 . S
O453 C448 1.287 . S
O454 Fe440 1.996 . S
O454 C448 1.255 . S
C455 O459 1.295 . S
C455 O460 1.235 . S
O456 Fe441 1.976 . S
O456 C450 1.287 . S
O457 Fe443 1.996 . S
O457 C450 1.255 . S
C458 O451 1.287 . S
C458 O452 1.255 . S
O459 Fe441 2.002 . S
O459 C455 1.295 . S
O460 Fe443 1.997 . S
O460 C455 1.235 . S
C461 O444 1.295 . S
C461 O445 1.235 . S
Fe462 O464 1.918 . S
Fe462 O467 1.997 . S
Fe462 O468 2.002 . S
Fe462 O473 1.976 1_565 S
Fe462 O476 1.996 . S
Fe463 O464 1.918 . S
Fe463 O471 1.997 . S
Fe463 O474 1.996 1_565 S
Fe463 O478 1.976 1_565 S
Fe463 O481 2.002 . S
O464 Fe462 1.918 . S
O464 Fe463 1.918 . S
O464 Fe465 1.918 . S
Fe465 O464 1.918 . S
Fe465 O466 2.002 . S
Fe465 O475 1.976 . S
Fe465 O479 1.996 . S
Fe465 O482 1.997 . S
O466 Fe465 2.002 . S
O466 C483 1.295 . S
O467 Fe462 1.997 . S
O467 C483 1.235 . S
O468 Fe462 2.002 . S
O468 C469 1.295 . S
C469 O468 1.295 . S
C469 O471 1.235 . S
C470 O475 1.287 . S
C470 O476 1.255 . S
O471 Fe463 1.997 . S
O471 C469 1.235 . S
C472 O478 1.287 1_565 S
C472 O479 1.255 . S
O473 Fe462 1.976 1_545 S
O473 C480 1.287 . S
O474 Fe463 1.996 1_545 S
O474 C480 1.255 . S
O475 Fe465 1.976 . S
O475 C470 1.287 . S
O476 Fe462 1.996 . S
O476 C470 1.255 . S
C477 O481 1.295 . S
C477 O482 1.235 . S
O478 Fe463 1.976 1_545 S
O478 C472 1.287 1_545 S
O479 Fe465 1.996 . S
O479 C472 1.255 . S
C480 O473 1.287 . S
C480 O474 1.255 . S
O481 Fe463 2.002 . S
O481 C477 1.295 . S
O482 Fe465 1.997 . S
O482 C477 1.235 . S
C483 O466 1.295 . S
C483 O467 1.235 . S
Fe484 O486 1.918 . S
Fe484 O489 1.997 . S
Fe484 O490 2.002 . S
Fe484 O495 1.976 . S
Fe484 O498 1.996 . S
Fe485 O486 1.918 . S
Fe485 O493 1.997 . S
Fe485 O496 1.996 . S
Fe485 O500 1.976 . S
Fe485 O503 2.002 . S
O486 Fe484 1.918 . S
O486 Fe485 1.918 . S
O486 Fe487 1.918 . S
Fe487 O486 1.918 . S
Fe487 O488 2.002 . S
Fe487 O497 1.976 . S
Fe487 O501 1.996 . S
Fe487 O504 1.997 . S
O488 Fe487 2.002 . S
O488 C505 1.295 . S
O489 Fe484 1.997 . S
O489 C505 1.235 . S
O490 Fe484 2.002 . S
O490 C491 1.295 . S
C491 O490 1.295 . S
C491 O493 1.235 . S
C492 O497 1.287 . S
C492 O498 1.255 . S
O493 Fe485 1.997 . S
O493 C491 1.235 . S
C494 O500 1.287 . S
C494 O501 1.255 . S
O495 Fe484 1.976 . S
O495 C502 1.287 . S
O496 Fe485 1.996 . S
O496 C502 1.255 . S
O497 Fe487 1.976 . S
O497 C492 1.287 . S
O498 Fe484 1.996 . S
O498 C492 1.255 . S
C499 O503 1.295 . S
C499 O504 1.235 . S
O500 Fe485 1.976 . S
O500 C494 1.287 . S
O501 Fe487 1.996 . S
O501 C494 1.255 . S
C502 O495 1.287 . S
C502 O496 1.255 . S
O503 Fe485 2.002 . S
O503 C499 1.295 . S
O504 Fe487 1.997 . S
O504 C499 1.235 . S
C505 O488 1.295 . S
C505 O489 1.235 . S
Fe506 O508 1.918 . S
Fe506 O511 1.997 . S
Fe506 O512 2.002 . S
Fe506 O517 1.976 . S
Fe506 O520 1.996 . S
Fe507 O508 1.918 . S
Fe507 O515 1.997 . S
Fe507 O518 1.996 . S
Fe507 O522 1.976 . S
Fe507 O525 2.002 . S
O508 Fe506 1.918 . S
O508 Fe507 1.918 . S
O508 Fe509 1.918 . S
Fe509 O508 1.918 . S
Fe509 O510 2.002 . S
Fe509 O519 1.976 . S
Fe509 O523 1.996 . S
Fe509 O526 1.997 . S
O510 Fe509 2.002 . S
O510 C527 1.295 . S
O511 Fe506 1.997 . S
O511 C527 1.235 . S
O512 Fe506 2.002 . S
O512 C513 1.295 . S
C513 O512 1.295 . S
C513 O515 1.235 . S
C514 O519 1.287 . S
C514 O520 1.255 . S
O515 Fe507 1.997 . S
O515 C513 1.235 . S
C516 O522 1.287 . S
C516 O523 1.255 . S
O517 Fe506 1.976 . S
O517 C524 1.287 . S
O518 Fe507 1.996 . S
O518 C524 1.255 . S
O519 Fe509 1.976 . S
O519 C514 1.287 . S
O520 Fe506 1.996 . S
O520 C514 1.255 . S
C521 O525 1.295 . S
C521 O526 1.235 . S
O522 Fe507 1.976 . S
O522 C516 1.287 . S
O523 Fe509 1.996 . S
O523 C516 1.255 . S
C524 O517 1.287 . S
C524 O518 1.255 . S
O525 Fe507 2.002 . S
O525 C521 1.295 . S
O526 Fe509 1.997 . S
O526 C521 1.235 . S
C527 O510 1.295 . S
C527 O511 1.235 . S
Fe528 O530 1.918 . S
Fe528 O533 1.997 . S
Fe528 O534 2.002 . S
Fe528 O539 1.976 . S
Fe528 O542 1.996 1_556 S
Fe529 O530 1.918 1_455 S
Fe529 O537 1.997 1_455 S
Fe529 O540 1.996 . S
Fe529 O544 1.976 . S
Fe529 O547 2.002 . S
O530 Fe528 1.918 . S
O530 Fe529 1.918 1_655 S
O530 Fe531 1.918 . S
Fe531 O530 1.918 . S
Fe531 O532 2.002 . S
Fe531 O541 1.976 1_556 S
Fe531 O545 1.996 1_656 S
Fe531 O548 1.997 . S
O532 Fe531 2.002 . S
O532 C549 1.295 . S
O533 Fe528 1.997 . S
O533 C549 1.235 . S
O534 Fe528 2.002 . S
O534 C535 1.295 . S
C535 O534 1.295 . S
C535 O537 1.235 . S
C536 O541 1.287 . S
C536 O542 1.255 . S
O537 Fe529 1.997 1_655 S
O537 C535 1.235 . S
C538 O544 1.287 . S
C538 O545 1.255 1_556 S
O539 Fe528 1.976 . S
O539 C546 1.287 . S
O540 Fe529 1.996 . S
O540 C546 1.255 1_455 S
O541 Fe531 1.976 1_554 S
O541 C536 1.287 . S
O542 Fe528 1.996 1_554 S
O542 C536 1.255 . S
C543 O547 1.295 1_655 S
C543 O548 1.235 . S
O544 Fe529 1.976 . S
O544 C538 1.287 . S
O545 Fe531 1.996 1_454 S
O545 C538 1.255 1_554 S
C546 O539 1.287 . S
C546 O540 1.255 1_655 S
O547 Fe529 2.002 . S
O547 C543 1.295 1_455 S
O548 Fe531 1.997 . S
O548 C543 1.235 . S
C549 O532 1.295 . S
C549 O533 1.235 . S
Fe550 O552 1.918 . S
Fe550 O555 1.997 . S
Fe550 O556 2.002 . S
Fe550 O561 1.976 . S
Fe550 O564 1.996 . S
Fe551 O552 1.918 . S
Fe551 O559 1.997 . S
Fe551 O562 1.996 . S
Fe551 O566 1.976 . S
Fe551 O569 2.002 . S
O552 Fe550 1.918 . S
O552 Fe551 1.918 . S
O552 Fe553 1.918 . S
Fe553 O552 1.918 . S
Fe553 O554 2.002 . S
Fe553 O563 1.976 . S
Fe553 O567 1.996 . S
Fe553 O570 1.997 . S
O554 Fe553 2.002 . S
O554 C571 1.295 . S
O555 Fe550 1.997 . S
O555 C571 1.235 . S
O556 Fe550 2.002 . S
O556 C557 1.295 . S
C557 O556 1.295 . S
C557 O559 1.235 . S
C558 O563 1.287 . S
C558 O564 1.255 . S
O559 Fe551 1.997 . S
O559 C557 1.235 . S
C560 O566 1.287 . S
C560 O567 1.255 . S
O561 Fe550 1.976 . S
O561 C568 1.287 . S
O562 Fe551 1.996 . S
O562 C568 1.255 . S
O563 Fe553 1.976 . S
O563 C558 1.287 . S
O564 Fe550 1.996 . S
O564 C558 1.255 . S
C565 O569 1.295 . S
C565 O570 1.235 . S
O566 Fe551 1.976 . S
O566 C560 1.287 . S
O567 Fe553 1.996 . S
O567 C560 1.255 . S
C568 O561 1.287 . S
C568 O562 1.255 . S
O569 Fe551 2.002 . S
O569 C565 1.295 . S
O570 Fe553 1.997 . S
O570 C565 1.235 . S
C571 O554 1.295 . S
C571 O555 1.235 . S
Fe572 O574 1.918 . S
Fe572 O577 1.997 . S
Fe572 O578 2.002 . S
Fe572 O583 1.976 . S
Fe572 O586 1.996 . S
Fe573 O574 1.918 . S
Fe573 O581 1.997 . S
Fe573 O584 1.996 . S
Fe573 O588 1.976 . S
Fe573 O591 2.002 . S
O574 Fe572 1.918 . S
O574 Fe573 1.918 . S
O574 Fe575 1.918 . S
Fe575 O574 1.918 . S
Fe575 O576 2.002 . S
Fe575 O585 1.976 . S
Fe575 O589 1.996 . S
Fe575 O592 1.997 . S
O576 Fe575 2.002 . S
O576 C593 1.295 . S
O577 Fe572 1.997 . S
O577 C593 1.235 . S
O578 Fe572 2.002 . S
O578 C579 1.295 . S
C579 O578 1.295 . S
C579 O581 1.235 . S
C580 O585 1.287 . S
C580 O586 1.255 . S
O581 Fe573 1.997 . S
O581 C579 1.235 . S
C582 O588 1.287 . S
C582 O589 1.255 . S
O583 Fe572 1.976 . S
O583 C590 1.287 . S
O584 Fe573 1.996 . S
O584 C590 1.255 . S
O585 Fe575 1.976 . S
O585 C580 1.287 . S
O586 Fe572 1.996 . S
O586 C580 1.255 . S
C587 O591 1.295 . S
C587 O592 1.235 . S
O588 Fe573 1.976 . S
O588 C582 1.287 . S
O589 Fe575 1.996 . S
O589 C582 1.255 . S
C590 O583 1.287 . S
C590 O584 1.255 . S
O591 Fe573 2.002 . S
O591 C587 1.295 . S
O592 Fe575 1.997 . S
O592 C587 1.235 . S
C593 O576 1.295 . S
C593 O577 1.235 . S
Fe594 O596 1.918 . S
Fe594 O599 1.997 . S
Fe594 O600 2.002 . S
Fe594 O605 1.976 . S
Fe594 O608 1.996 . S
Fe595 O596 1.918 . S
Fe595 O603 1.997 . S
Fe595 O606 1.996 . S
Fe595 O610 1.976 . S
Fe595 O613 2.002 . S
O596 Fe594 1.918 . S
O596 Fe595 1.918 . S
O596 Fe597 1.918 . S
Fe597 O596 1.918 . S
Fe597 O598 2.002 . S
Fe597 O607 1.976 . S
Fe597 O611 1.996 . S
Fe597 O614 1.997 . S
O598 Fe597 2.002 . S
O598 C615 1.295 . S
O599 Fe594 1.997 . S
O599 C615 1.235 . S
O600 Fe594 2.002 . S
O600 C601 1.295 . S
C601 O600 1.295 . S
C601 O603 1.235 . S
C602 O607 1.287 . S
C602 O608 1.255 . S
O603 Fe595 1.997 . S
O603 C601 1.235 . S
C604 O610 1.287 . S
C604 O611 1.255 . S
O605 Fe594 1.976 . S
O605 C612 1.287 . S
O606 Fe595 1.996 . S
O606 C612 1.255 . S
O607 Fe597 1.976 . S
O607 C602 1.287 . S
O608 Fe594 1.996 . S
O608 C602 1.255 . S
C609 O613 1.295 . S
C609 O614 1.235 . S
O610 Fe595 1.976 . S
O610 C604 1.287 . S
O611 Fe597 1.996 . S
O611 C604 1.255 . S
C612 O605 1.287 . S
C612 O606 1.255 . S
O613 Fe595 2.002 . S
O613 C609 1.295 . S
O614 Fe597 1.997 . S
O614 C609 1.235 . S
C615 O598 1.295 . S
C615 O599 1.235 . S
Fe616 O618 1.918 1_455 S
Fe616 O621 1.997 1_455 S
Fe616 O622 2.002 . S
Fe616 O627 1.976 . S
Fe616 O630 1.996 . S
Fe617 O618 1.918 . S
Fe617 O625 1.997 . S
Fe617 O628 1.996 1_655 S
Fe617 O632 1.976 . S
Fe617 O635 2.002 . S
O618 Fe616 1.918 1_655 S
O618 Fe617 1.918 . S
O618 Fe619 1.918 . S
Fe619 O618 1.918 . S
Fe619 O620 2.002 . S
Fe619 O629 1.976 . S
Fe619 O633 1.996 . S
Fe619 O636 1.997 . S
O620 Fe619 2.002 . S
O620 C637 1.295 . S
O621 Fe616 1.997 1_655 S
O621 C637 1.235 . S
O622 Fe616 2.002 . S
O622 C623 1.295 1_455 S
C623 O622 1.295 1_655 S
C623 O625 1.235 . S
C624 O629 1.287 . S
C624 O630 1.255 1_655 S
O625 Fe617 1.997 . S
O625 C623 1.235 . S
C626 O632 1.287 . S
C626 O633 1.255 . S
O627 Fe616 1.976 . S
O627 C634 1.287 . S
O628 Fe617 1.996 1_455 S
O628 C634 1.255 . S
O629 Fe619 1.976 . S
O629 C624 1.287 . S
O630 Fe616 1.996 . S
O630 C624 1.255 1_455 S
C631 O635 1.295 . S
C631 O636 1.235 . S
O632 Fe617 1.976 . S
O632 C626 1.287 . S
O633 Fe619 1.996 . S
O633 C626 1.255 . S
C634 O627 1.287 . S
C634 O628 1.255 . S
O635 Fe617 2.002 . S
O635 C631 1.295 . S
O636 Fe619 1.997 . S
O636 C631 1.235 . S
C637 O620 1.295 . S
C637 O621 1.235 . S
Fe638 O640 1.918 . S
Fe638 O643 1.997 . S
Fe638 O644 2.002 . S
Fe638 O649 1.976 . S
Fe638 O652 1.996 . S
Fe639 O640 1.918 . S
Fe639 O647 1.997 . S
Fe639 O650 1.996 . S
Fe639 O654 1.976 . S
Fe639 O657 2.002 . S
O640 Fe638 1.918 . S
O640 Fe639 1.918 . S
O640 Fe641 1.918 . S
Fe641 O640 1.918 . S
Fe641 O642 2.002 . S
Fe641 O651 1.976 . S
Fe641 O655 1.996 . S
Fe641 O658 1.997 . S
O642 Fe641 2.002 . S
O642 C659 1.295 . S
O643 Fe638 1.997 . S
O643 C659 1.235 . S
O644 Fe638 2.002 . S
O644 C645 1.295 . S
C645 O644 1.295 . S
C645 O647 1.235 . S
C646 O651 1.287 . S
C646 O652 1.255 . S
O647 Fe639 1.997 . S
O647 C645 1.235 . S
C648 O654 1.287 . S
C648 O655 1.255 . S
O649 Fe638 1.976 . S
O649 C656 1.287 . S
O650 Fe639 1.996 . S
O650 C656 1.255 . S
O651 Fe641 1.976 . S
O651 C646 1.287 . S
O652 Fe638 1.996 . S
O652 C646 1.255 . S
C653 O657 1.295 . S
C653 O658 1.235 . S
O654 Fe639 1.976 . S
O654 C648 1.287 . S
O655 Fe641 1.996 . S
O655 C648 1.255 . S
C656 O649 1.287 . S
C656 O650 1.255 . S
O657 Fe639 2.002 . S
O657 C653 1.295 . S
O658 Fe641 1.997 . S
O658 C653 1.235 . S
C659 O642 1.295 . S
C659 O643 1.235 . S
Fe660 O662 1.918 . S
Fe660 O665 1.997 . S
Fe660 O666 2.002 . S
Fe660 O671 1.976 . S
Fe660 O674 1.996 . S
Fe661 O662 1.918 . S
Fe661 O669 1.997 . S
Fe661 O672 1.996 1_554 S
Fe661 O676 1.976 1_554 S
Fe661 O679 2.002 . S
O662 Fe660 1.918 . S
O662 Fe661 1.918 . S
O662 Fe663 1.918 . S
Fe663 O662 1.918 . S
Fe663 O664 2.002 . S
Fe663 O673 1.976 . S
Fe663 O677 1.996 1_554 S
Fe663 O680 1.997 . S
O664 Fe663 2.002 . S
O664 C681 1.295 . S
O665 Fe660 1.997 . S
O665 C681 1.235 . S
O666 Fe660 2.002 . S
O666 C667 1.295 . S
C667 O666 1.295 . S
C667 O669 1.235 . S
C668 O673 1.287 . S
C668 O674 1.255 . S
O669 Fe661 1.997 . S
O669 C667 1.235 . S
C670 O676 1.287 . S
C670 O677 1.255 . S
O671 Fe660 1.976 . S
O671 C678 1.287 . S
O672 Fe661 1.996 1_556 S
O672 C678 1.255 1_556 S
O673 Fe663 1.976 . S
O673 C668 1.287 . S
O674 Fe660 1.996 . S
O674 C668 1.255 . S
C675 O679 1.295 . S
C675 O680 1.235 . S
O676 Fe661 1.976 1_556 S
O676 C670 1.287 . S
O677 Fe663 1.996 1_556 S
O677 C670 1.255 . S
C678 O671 1.287 . S
C678 O672 1.255 1_554 S
O679 Fe661 2.002 . S
O679 C675 1.295 . S
O680 Fe663 1.997 . S
O680 C675 1.235 . S
C681 O664 1.295 . S
C681 O665 1.235 . S
Fe682 O684 1.918 . S
Fe682 O687 1.997 . S
Fe682 O688 2.002 . S
Fe682 O693 1.976 . S
Fe682 O696 1.996 . S
Fe683 O684 1.918 . S
Fe683 O691 1.997 . S
Fe683 O694 1.996 . S
Fe683 O698 1.976 . S
Fe683 O701 2.002 . S
O684 Fe682 1.918 . S
O684 Fe683 1.918 . S
O684 Fe685 1.918 . S
Fe685 O684 1.918 . S
Fe685 O686 2.002 . S
Fe685 O695 1.976 . S
Fe685 O699 1.996 . S
Fe685 O702 1.997 . S
O686 Fe685 2.002 . S
O686 C703 1.295 . S
O687 Fe682 1.997 . S
O687 C703 1.235 . S
O688 Fe682 2.002 . S
O688 C689 1.295 . S
C689 O688 1.295 . S
C689 O691 1.235 . S
C690 O695 1.287 . S
C690 O696 1.255 . S
O691 Fe683 1.997 . S
O691 C689 1.235 . S
C692 O698 1.287 . S
C692 O699 1.255 . S
O693 Fe682 1.976 . S
O693 C700 1.287 . S
O694 Fe683 1.996 . S
O694 C700 1.255 . S
O695 Fe685 1.976 . S
O695 C690 1.287 . S
O696 Fe682 1.996 . S
O696 C690 1.255 . S
C697 O701 1.295 . S
C697 O702 1.235 . S
O698 Fe683 1.976 . S
O698 C692 1.287 . S
O699 Fe685 1.996 . S
O699 C692 1.255 . S
C700 O693 1.287 . S
C700 O694 1.255 . S
O701 Fe683 2.002 . S
O701 C697 1.295 . S
O702 Fe685 1.997 . S
O702 C697 1.235 . S
C703 O686 1.295 . S
C703 O687 1.235 . S
Fe704 O706 1.918 . S
Fe704 O709 1.997 . S
Fe704 O710 2.002 . S
Fe704 O715 1.976 1_655 S
Fe704 O718 1.996 1_665 S
Fe705 O706 1.918 . S
Fe705 O713 1.997 . S
Fe705 O716 1.996 1_655 S
Fe705 O720 1.976 . S
Fe705 O723 2.002 . S
O706 Fe704 1.918 . S
O706 Fe705 1.918 . S
O706 Fe707 1.918 1_565 S
Fe707 O706 1.918 1_545 S
Fe707 O708 2.002 . S
Fe707 O717 1.976 . S
Fe707 O721 1.996 . S
Fe707 O724 1.997 1_545 S
O708 Fe707 2.002 . S
O708 C725 1.295 1_545 S
O709 Fe704 1.997 . S
O709 C725 1.235 . S
O710 Fe704 2.002 . S
O710 C711 1.295 . S
C711 O710 1.295 . S
C711 O713 1.235 . S
C712 O717 1.287 . S
C712 O718 1.255 1_655 S
O713 Fe705 1.997 . S
O713 C711 1.235 . S
C714 O720 1.287 . S
C714 O721 1.255 1_565 S
O715 Fe704 1.976 1_455 S
O715 C722 1.287 . S
O716 Fe705 1.996 1_455 S
O716 C722 1.255 . S
O717 Fe707 1.976 . S
O717 C712 1.287 . S
O718 Fe704 1.996 1_445 S
O718 C712 1.255 1_455 S
C719 O723 1.295 . S
C719 O724 1.235 . S
O720 Fe705 1.976 . S
O720 C714 1.287 . S
O721 Fe707 1.996 . S
O721 C714 1.255 1_545 S
C722 O715 1.287 . S
C722 O716 1.255 . S
O723 Fe705 2.002 . S
O723 C719 1.295 . S
O724 Fe707 1.997 1_565 S
O724 C719 1.235 . S
C725 O708 1.295 1_565 S
C725 O709 1.235 . S
Fe726 O728 1.918 . S
Fe726 O731 1.997 . S
Fe726 O732 2.002 . S
Fe726 O737 1.976 . S
Fe726 O740 1.996 . S
Fe727 O728 1.918 . S
Fe727 O735 1.997 . S
Fe727 O738 1.996 . S
Fe727 O742 1.976 . S
Fe727 O745 2.002 . S
O728 Fe726 1.918 . S
O728 Fe727 1.918 . S
O728 Fe729 1.918 . S
Fe729 O728 1.918 . S
Fe729 O730 2.002 . S
Fe729 O739 1.976 . S
Fe729 O743 1.996 . S
Fe729 O746 1.997 . S
O730 Fe729 2.002 . S
O730 C747 1.295 . S
O731 Fe726 1.997 . S
O731 C747 1.235 . S
O732 Fe726 2.002 . S
O732 C733 1.295 . S
C733 O732 1.295 . S
C733 O735 1.235 . S
C734 O739 1.287 . S
C734 O740 1.255 . S
O735 Fe727 1.997 . S
O735 C733 1.235 . S
C736 O742 1.287 . S
C736 O743 1.255 . S
O737 Fe726 1.976 . S
O737 C744 1.287 . S
O738 Fe727 1.996 . S
O738 C744 1.255 . S
O739 Fe729 1.976 . S
O739 C734 1.287 . S
O740 Fe726 1.996 . S
O740 C734 1.255 . S
C741 O745 1.295 . S
C741 O746 1.235 . S
O742 Fe727 1.976 . S
O742 C736 1.287 . S
O743 Fe729 1.996 . S
O743 C736 1.255 . S
C744 O737 1.287 . S
C744 O738 1.255 . S
O745 Fe727 2.002 . S
O745 C741 1.295 . S
O746 Fe729 1.997 . S
O746 C741 1.235 . S
C747 O730 1.295 . S
C747 O731 1.235 . S
Fe748 O750 1.918 . S
Fe748 O753 1.997 . S
Fe748 O754 2.002 . S
Fe748 O759 1.976 . S
Fe748 O762 1.996 . S
Fe749 O750 1.918 1_565 S
Fe749 O757 1.997 1_565 S
Fe749 O760 1.996 . S
Fe749 O764 1.976 . S
Fe749 O767 2.002 . S
O750 Fe748 1.918 . S
O750 Fe749 1.918 1_545 S
O750 Fe751 1.918 . S
Fe751 O750 1.918 . S
Fe751 O752 2.002 . S
Fe751 O761 1.976 . S
Fe751 O765 1.996 1_545 S
Fe751 O768 1.997 . S
O752 Fe751 2.002 . S
O752 C769 1.295 . S
O753 Fe748 1.997 . S
O753 C769 1.235 . S
O754 Fe748 2.002 . S
O754 C755 1.295 . S
C755 O754 1.295 . S
C755 O757 1.235 . S
C756 O761 1.287 . S
C756 O762 1.255 . S
O757 Fe749 1.997 1_545 S
O757 C755 1.235 . S
C758 O764 1.287 . S
C758 O765 1.255 . S
O759 Fe748 1.976 . S
O759 C766 1.287 . S
O760 Fe749 1.996 . S
O760 C766 1.255 1_565 S
O761 Fe751 1.976 . S
O761 C756 1.287 . S
O762 Fe748 1.996 . S
O762 C756 1.255 . S
C763 O767 1.295 1_545 S
C763 O768 1.235 . S
O764 Fe749 1.976 . S
O764 C758 1.287 . S
O765 Fe751 1.996 1_565 S
O765 C758 1.255 . S
C766 O759 1.287 . S
C766 O760 1.255 1_545 S
O767 Fe749 2.002 . S
O767 C763 1.295 1_565 S
O768 Fe751 1.997 . S
O768 C763 1.235 . S
C769 O752 1.295 . S
C769 O753 1.235 . S
Fe770 O772 1.918 . S
Fe770 O775 1.997 . S
Fe770 O776 2.002 . S
Fe770 O781 1.976 . S
Fe770 O784 1.996 . S
Fe771 O772 1.918 . S
Fe771 O779 1.997 . S
Fe771 O782 1.996 . S
Fe771 O786 1.976 . S
Fe771 O789 2.002 . S
O772 Fe770 1.918 . S
O772 Fe771 1.918 . S
O772 Fe773 1.918 . S
Fe773 O772 1.918 . S
Fe773 O774 2.002 . S
Fe773 O783 1.976 . S
Fe773 O787 1.996 . S
Fe773 O790 1.997 . S
O774 Fe773 2.002 . S
O774 C791 1.295 . S
O775 Fe770 1.997 . S
O775 C791 1.235 . S
O776 Fe770 2.002 . S
O776 C777 1.295 . S
C777 O776 1.295 . S
C777 O779 1.235 . S
C778 O783 1.287 . S
C778 O784 1.255 . S
O779 Fe771 1.997 . S
O779 C777 1.235 . S
C780 O786 1.287 . S
C780 O787 1.255 . S
O781 Fe770 1.976 . S
O781 C788 1.287 . S
O782 Fe771 1.996 . S
O782 C788 1.255 . S
O783 Fe773 1.976 . S
O783 C778 1.287 . S
O784 Fe770 1.996 . S
O784 C778 1.255 . S
C785 O789 1.295 . S
C785 O790 1.235 . S
O786 Fe771 1.976 . S
O786 C780 1.287 . S
O787 Fe773 1.996 . S
O787 C780 1.255 . S
C788 O781 1.287 . S
C788 O782 1.255 . S
O789 Fe771 2.002 . S
O789 C785 1.295 . S
O790 Fe773 1.997 . S
O790 C785 1.235 . S
C791 O774 1.295 . S
C791 O775 1.235 . S
Fe792 O794 1.918 . S
Fe792 O797 1.997 . S
Fe792 O798 2.002 . S
Fe792 O803 1.976 1_655 S
Fe792 O806 1.996 1_645 S
Fe793 O794 1.918 . S
Fe793 O801 1.997 . S
Fe793 O804 1.996 1_655 S
Fe793 O808 1.976 . S
Fe793 O811 2.002 . S
O794 Fe792 1.918 . S
O794 Fe793 1.918 . S
O794 Fe795 1.918 1_545 S
Fe795 O794 1.918 1_565 S
Fe795 O796 2.002 . S
Fe795 O805 1.976 . S
Fe795 O809 1.996 . S
Fe795 O812 1.997 1_565 S
O796 Fe795 2.002 . S
O796 C813 1.295 1_565 S
O797 Fe792 1.997 . S
O797 C813 1.235 . S
O798 Fe792 2.002 . S
O798 C799 1.295 . S
C799 O798 1.295 . S
C799 O801 1.235 . S
C800 O805 1.287 . S
C800 O806 1.255 1_655 S
O801 Fe793 1.997 . S
O801 C799 1.235 . S
C802 O808 1.287 . S
C802 O809 1.255 1_545 S
O803 Fe792 1.976 1_455 S
O803 C810 1.287 . S
O804 Fe793 1.996 1_455 S
O804 C810 1.255 . S
O805 Fe795 1.976 . S
O805 C800 1.287 . S
O806 Fe792 1.996 1_465 S
O806 C800 1.255 1_455 S
C807 O811 1.295 . S
C807 O812 1.235 . S
O808 Fe793 1.976 . S
O808 C802 1.287 . S
O809 Fe795 1.996 . S
O809 C802 1.255 1_565 S
C810 O803 1.287 . S
C810 O804 1.255 . S
O811 Fe793 2.002 . S
O811 C807 1.295 . S
O812 Fe795 1.997 1_545 S
O812 C807 1.235 . S
C813 O796 1.295 1_545 S
C813 O797 1.235 . S
Fe814 O816 1.918 . S
Fe814 O819 1.997 . S
Fe814 O820 2.002 . S
Fe814 O825 1.976 . S
Fe814 O828 1.996 . S
Fe815 O816 1.918 . S
Fe815 O823 1.997 . S
Fe815 O826 1.996 . S
Fe815 O830 1.976 . S
Fe815 O833 2.002 . S
O816 Fe814 1.918 . S
O816 Fe815 1.918 . S
O816 Fe817 1.918 . S
Fe817 O816 1.918 . S
Fe817 O818 2.002 . S
Fe817 O827 1.976 . S
Fe817 O831 1.996 . S
Fe817 O834 1.997 . S
O818 Fe817 2.002 . S
O818 C835 1.295 . S
O819 Fe814 1.997 . S
O819 C835 1.235 . S
O820 Fe814 2.002 . S
O820 C821 1.295 . S
C821 O820 1.295 . S
C821 O823 1.235 . S
C822 O827 1.287 . S
C822 O828 1.255 . S
O823 Fe815 1.997 . S
O823 C821 1.235 . S
C824 O830 1.287 . S
C824 O831 1.255 . S
O825 Fe814 1.976 . S
O825 C832 1.287 . S
O826 Fe815 1.996 . S
O826 C832 1.255 . S
O827 Fe817 1.976 . S
O827 C822 1.287 . S
O828 Fe814 1.996 . S
O828 C822 1.255 . S
C829 O833 1.295 . S
C829 O834 1.235 . S
O830 Fe815 1.976 . S
O830 C824 1.287 . S
O831 Fe817 1.996 . S
O831 C824 1.255 . S
C832 O825 1.287 . S
C832 O826 1.255 . S
O833 Fe815 2.002 . S
O833 C829 1.295 . S
O834 Fe817 1.997 . S
O834 C829 1.235 . S
C835 O818 1.295 . S
C835 O819 1.235 . S
Fe836 O838 1.918 . S
Fe836 O841 1.997 . S
Fe836 O842 2.002 . S
Fe836 O847 1.976 . S
Fe836 O850 1.996 . S
Fe837 O838 1.918 1_545 S
Fe837 O845 1.997 1_545 S
Fe837 O848 1.996 . S
Fe837 O852 1.976 . S
Fe837 O855 2.002 . S
O838 Fe836 1.918 . S
O838 Fe837 1.918 1_565 S
O838 Fe839 1.918 . S
Fe839 O838 1.918 . S
Fe839 O840 2.002 . S
Fe839 O849 1.976 . S
Fe839 O853 1.996 1_565 S
Fe839 O856 1.997 . S
O840 Fe839 2.002 . S
O840 C857 1.295 . S
O841 Fe836 1.997 . S
O841 C857 1.235 . S
O842 Fe836 2.002 . S
O842 C843 1.295 . S
C843 O842 1.295 . S
C843 O845 1.235 . S
C844 O849 1.287 . S
C844 O850 1.255 . S
O845 Fe837 1.997 1_565 S
O845 C843 1.235 . S
C846 O852 1.287 . S
C846 O853 1.255 . S
O847 Fe836 1.976 . S
O847 C854 1.287 . S
O848 Fe837 1.996 . S
O848 C854 1.255 1_545 S
O849 Fe839 1.976 . S
O849 C844 1.287 . S
O850 Fe836 1.996 . S
O850 C844 1.255 . S
C851 O855 1.295 1_565 S
C851 O856 1.235 . S
O852 Fe837 1.976 . S
O852 C846 1.287 . S
O853 Fe839 1.996 1_545 S
O853 C846 1.255 . S
C854 O847 1.287 . S
C854 O848 1.255 1_565 S
O855 Fe837 2.002 . S
O855 C851 1.295 1_545 S
O856 Fe839 1.997 . S
O856 C851 1.235 . S
C857 O840 1.295 . S
C857 O841 1.235 . S
Fe858 O860 1.918 . S
Fe858 O863 1.997 . S
Fe858 O864 2.002 . S
Fe858 O869 1.976 . S
Fe858 O872 1.996 . S
Fe859 O860 1.918 . S
Fe859 O867 1.997 . S
Fe859 O870 1.996 . S
Fe859 O874 1.976 . S
Fe859 O877 2.002 . S
O860 Fe858 1.918 . S
O860 Fe859 1.918 . S
O860 Fe861 1.918 . S
Fe861 O860 1.918 . S
Fe861 O862 2.002 . S
Fe861 O871 1.976 . S
Fe861 O875 1.996 . S
Fe861 O878 1.997 . S
O862 Fe861 2.002 . S
O862 C879 1.295 . S
O863 Fe858 1.997 . S
O863 C879 1.235 . S
O864 Fe858 2.002 . S
O864 C865 1.295 . S
C865 O864 1.295 . S
C865 O867 1.235 . S
C866 O871 1.287 . S
C866 O872 1.255 . S
O867 Fe859 1.997 . S
O867 C865 1.235 . S
C868 O874 1.287 . S
C868 O875 1.255 . S
O869 Fe858 1.976 . S
O869 C876 1.287 . S
O870 Fe859 1.996 . S
O870 C876 1.255 . S
O871 Fe861 1.976 . S
O871 C866 1.287 . S
O872 Fe858 1.996 . S
O872 C866 1.255 . S
C873 O877 1.295 . S
C873 O878 1.235 . S
O874 Fe859 1.976 . S
O874 C868 1.287 . S
O875 Fe861 1.996 . S
O875 C868 1.255 . S
C876 O869 1.287 . S
C876 O870 1.255 . S
O877 Fe859 2.002 . S
O877 C873 1.295 . S
O878 Fe861 1.997 . S
O878 C873 1.235 . S
C879 O862 1.295 . S
C879 O863 1.235 . S
Fe880 O882 1.918 . S
Fe880 O885 1.997 . S
Fe880 O886 2.002 . S
Fe880 O891 1.976 . S
Fe880 O894 1.996 1_565 S
Fe881 O882 1.918 1_554 S
Fe881 O889 1.997 1_554 S
Fe881 O892 1.996 . S
Fe881 O896 1.976 . S
Fe881 O899 2.002 . S
O882 Fe880 1.918 . S
O882 Fe881 1.918 1_556 S
O882 Fe883 1.918 . S
Fe883 O882 1.918 . S
Fe883 O884 2.002 . S
Fe883 O893 1.976 1_565 S
Fe883 O897 1.996 1_566 S
Fe883 O900 1.997 . S
O884 Fe883 2.002 . S
O884 C901 1.295 . S
O885 Fe880 1.997 . S
O885 C901 1.235 . S
O886 Fe880 2.002 . S
O886 C887 1.295 . S
C887 O886 1.295 . S
C887 O889 1.235 . S
C888 O893 1.287 . S
C888 O894 1.255 . S
O889 Fe881 1.997 1_556 S
O889 C887 1.235 . S
C890 O896 1.287 . S
C890 O897 1.255 1_565 S
O891 Fe880 1.976 . S
O891 C898 1.287 . S
O892 Fe881 1.996 . S
O892 C898 1.255 1_554 S
O893 Fe883 1.976 1_545 S
O893 C888 1.287 . S
O894 Fe880 1.996 1_545 S
O894 C888 1.255 . S
C895 O899 1.295 1_556 S
C895 O900 1.235 . S
O896 Fe881 1.976 . S
O896 C890 1.287 . S
O897 Fe883 1.996 1_544 S
O897 C890 1.255 1_545 S
C898 O891 1.287 . S
C898 O892 1.255 1_556 S
O899 Fe881 2.002 . S
O899 C895 1.295 1_554 S
O900 Fe883 1.997 . S
O900 C895 1.235 . S
C901 O884 1.295 . S
C901 O885 1.235 . S
Fe902 O904 1.918 . S
Fe902 O907 1.997 . S
Fe902 O908 2.002 . S
Fe902 O913 1.976 . S
Fe902 O916 1.996 . S
Fe903 O904 1.918 1_556 S
Fe903 O911 1.997 1_556 S
Fe903 O914 1.996 . S
Fe903 O918 1.976 . S
Fe903 O921 2.002 . S
O904 Fe902 1.918 . S
O904 Fe903 1.918 1_554 S
O904 Fe905 1.918 . S
Fe905 O904 1.918 . S
Fe905 O906 2.002 . S
Fe905 O915 1.976 . S
Fe905 O919 1.996 1_554 S
Fe905 O922 1.997 . S
O906 Fe905 2.002 . S
O906 C923 1.295 . S
O907 Fe902 1.997 . S
O907 C923 1.235 . S
O908 Fe902 2.002 . S
O908 C909 1.295 . S
C909 O908 1.295 . S
C909 O911 1.235 . S
C910 O915 1.287 . S
C910 O916 1.255 . S
O911 Fe903 1.997 1_554 S
O911 C909 1.235 . S
C912 O918 1.287 . S
C912 O919 1.255 . S
O913 Fe902 1.976 . S
O913 C920 1.287 . S
O914 Fe903 1.996 . S
O914 C920 1.255 1_556 S
O915 Fe905 1.976 . S
O915 C910 1.287 . S
O916 Fe902 1.996 . S
O916 C910 1.255 . S
C917 O921 1.295 1_554 S
C917 O922 1.235 . S
O918 Fe903 1.976 . S
O918 C912 1.287 . S
O919 Fe905 1.996 1_556 S
O919 C912 1.255 . S
C920 O913 1.287 . S
C920 O914 1.255 1_554 S
O921 Fe903 2.002 . S
O921 C917 1.295 1_556 S
O922 Fe905 1.997 . S
O922 C917 1.235 . S
C923 O906 1.295 . S
C923 O907 1.235 . S
Fe924 O926 1.918 . S
Fe924 O929 1.997 . S
Fe924 O930 2.002 . S
Fe924 O935 1.976 . S
Fe924 O938 1.996 . S
Fe925 O926 1.918 . S
Fe925 O933 1.997 . S
Fe925 O936 1.996 . S
Fe925 O940 1.976 . S
Fe925 O943 2.002 . S
O926 Fe924 1.918 . S
O926 Fe925 1.918 . S
O926 Fe927 1.918 . S
Fe927 O926 1.918 . S
Fe927 O928 2.002 . S
Fe927 O937 1.976 . S
Fe927 O941 1.996 . S
Fe927 O944 1.997 . S
O928 Fe927 2.002 . S
O928 C945 1.295 . S
O929 Fe924 1.997 . S
O929 C945 1.235 . S
O930 Fe924 2.002 . S
O930 C931 1.295 . S
C931 O930 1.295 . S
C931 O933 1.235 . S
C932 O937 1.287 . S
C932 O938 1.255 . S
O933 Fe925 1.997 . S
O933 C931 1.235 . S
C934 O940 1.287 . S
C934 O941 1.255 . S
O935 Fe924 1.976 . S
O935 C942 1.287 . S
O936 Fe925 1.996 . S
O936 C942 1.255 . S
O937 Fe927 1.976 . S
O937 C932 1.287 . S
O938 Fe924 1.996 . S
O938 C932 1.255 . S
C939 O943 1.295 . S
C939 O944 1.235 . S
O940 Fe925 1.976 . S
O940 C934 1.287 . S
O941 Fe927 1.996 . S
O941 C934 1.255 . S
C942 O935 1.287 . S
C942 O936 1.255 . S
O943 Fe925 2.002 . S
O943 C939 1.295 . S
O944 Fe927 1.997 . S
O944 C939 1.235 . S
C945 O928 1.295 . S
C945 O929 1.235 . S
Fe946 O948 1.918 . S
Fe946 O951 1.997 . S
Fe946 O952 2.002 . S
Fe946 O957 1.976 . S
Fe946 O960 1.996 . S
Fe947 O948 1.918 . S
Fe947 O955 1.997 . S
Fe947 O958 1.996 . S
Fe947 O962 1.976 . S
Fe947 O965 2.002 . S
O948 Fe946 1.918 . S
O948 Fe947 1.918 . S
O948 Fe949 1.918 . S
Fe949 O948 1.918 . S
Fe949 O950 2.002 . S
Fe949 O959 1.976 . S
Fe949 O963 1.996 . S
Fe949 O966 1.997 . S
O950 Fe949 2.002 . S
O950 C967 1.295 . S
O951 Fe946 1.997 . S
O951 C967 1.235 . S
O952 Fe946 2.002 . S
O952 C953 1.295 . S
C953 O952 1.295 . S
C953 O955 1.235 . S
C954 O959 1.287 . S
C954 O960 1.255 . S
O955 Fe947 1.997 . S
O955 C953 1.235 . S
C956 O962 1.287 . S
C956 O963 1.255 . S
O957 Fe946 1.976 . S
O957 C964 1.287 . S
O958 Fe947 1.996 . S
O958 C964 1.255 . S
O959 Fe949 1.976 . S
O959 C954 1.287 . S
O960 Fe946 1.996 . S
O960 C954 1.255 . S
C961 O965 1.295 . S
C961 O966 1.235 . S
O962 Fe947 1.976 . S
O962 C956 1.287 . S
O963 Fe949 1.996 . S
O963 C956 1.255 . S
C964 O957 1.287 . S
C964 O958 1.255 . S
O965 Fe947 2.002 . S
O965 C961 1.295 . S
O966 Fe949 1.997 . S
O966 C961 1.235 . S
C967 O950 1.295 . S
C967 O951 1.235 . S
Fe968 O970 1.918 . S
Fe968 O973 1.997 . S
Fe968 O974 2.002 . S
Fe968 O979 1.976 . S
Fe968 O982 1.996 . S
Fe969 O970 1.918 . S
Fe969 O977 1.997 . S
Fe969 O980 1.996 . S
Fe969 O984 1.976 . S
Fe969 O987 2.002 . S
O970 Fe968 1.918 . S
O970 Fe969 1.918 . S
O970 Fe971 1.918 . S
Fe971 O970 1.918 . S
Fe971 O972 2.002 . S
Fe971 O981 1.976 . S
Fe971 O985 1.996 . S
Fe971 O988 1.997 . S
O972 Fe971 2.002 . S
O972 C989 1.295 . S
O973 Fe968 1.997 . S
O973 C989 1.235 . S
O974 Fe968 2.002 . S
O974 C975 1.295 . S
C975 O974 1.295 . S
C975 O977 1.235 . S
C976 O981 1.287 . S
C976 O982 1.255 . S
O977 Fe969 1.997 . S
O977 C975 1.235 . S
C978 O984 1.287 . S
C978 O985 1.255 . S
O979 Fe968 1.976 . S
O979 C986 1.287 . S
O980 Fe969 1.996 . S
O980 C986 1.255 . S
O981 Fe971 1.976 . S
O981 C976 1.287 . S
O982 Fe968 1.996 . S
O982 C976 1.255 . S
C983 O987 1.295 . S
C983 O988 1.235 . S
O984 Fe969 1.976 . S
O984 C978 1.287 . S
O985 Fe971 1.996 . S
O985 C978 1.255 . S
C986 O979 1.287 . S
C986 O980 1.255 . S
O987 Fe969 2.002 . S
O987 C983 1.295 . S
O988 Fe971 1.997 . S
O988 C983 1.235 . S
C989 O972 1.295 . S
C989 O973 1.235 . S
Fe990 O992 1.918 . S
Fe990 O995 1.997 . S
Fe990 O996 2.002 . S
Fe990 O1001 1.976 1_545 S
Fe990 O1004 1.996 1_545 S
Fe991 O992 1.918 . S
Fe991 O999 1.997 . S
Fe991 O1002 1.996 1_545 S
Fe991 O1006 1.976 . S
Fe991 O1009 2.002 . S
O992 Fe990 1.918 . S
O992 Fe991 1.918 . S
O992 Fe993 1.918 . S
Fe993 O992 1.918 . S
Fe993 O994 2.002 . S
Fe993 O1003 1.976 . S
Fe993 O1007 1.996 . S
Fe993 O1010 1.997 . S
O994 Fe993 2.002 . S
O994 C1011 1.295 . S
O995 Fe990 1.997 . S
O995 C1011 1.235 . S
O996 Fe990 2.002 . S
O996 C997 1.295 . S
C997 O996 1.295 . S
C997 O999 1.235 . S
C998 O1003 1.287 . S
C998 O1004 1.255 1_545 S
O999 Fe991 1.997 . S
O999 C997 1.235 . S
C1000 O1006 1.287 . S
C1000 O1007 1.255 . S
O1001 Fe990 1.976 1_565 S
O1001 C1008 1.287 . S
O1002 Fe991 1.996 1_565 S
O1002 C1008 1.255 . S
O1003 Fe993 1.976 . S
O1003 C998 1.287 . S
O1004 Fe990 1.996 1_565 S
O1004 C998 1.255 1_565 S
C1005 O1009 1.295 . S
C1005 O1010 1.235 . S
O1006 Fe991 1.976 . S
O1006 C1000 1.287 . S
O1007 Fe993 1.996 . S
O1007 C1000 1.255 . S
C1008 O1001 1.287 . S
C1008 O1002 1.255 . S
O1009 Fe991 2.002 . S
O1009 C1005 1.295 . S
O1010 Fe993 1.997 . S
O1010 C1005 1.235 . S
C1011 O994 1.295 . S
C1011 O995 1.235 . S
Fe1012 O1014 1.918 . S
Fe1012 O1017 1.997 . S
Fe1012 O1018 2.002 . S
Fe1012 O1023 1.976 . S
Fe1012 O1026 1.996 . S
Fe1013 O1014 1.918 . S
Fe1013 O1021 1.997 . S
Fe1013 O1024 1.996 . S
Fe1013 O1028 1.976 . S
Fe1013 O1031 2.002 . S
O1014 Fe1012 1.918 . S
O1014 Fe1013 1.918 . S
O1014 Fe1015 1.918 . S
Fe1015 O1014 1.918 . S
Fe1015 O1016 2.002 . S
Fe1015 O1025 1.976 . S
Fe1015 O1029 1.996 . S
Fe1015 O1032 1.997 . S
O1016 Fe1015 2.002 . S
O1016 C1033 1.295 . S
O1017 Fe1012 1.997 . S
O1017 C1033 1.235 . S
O1018 Fe1012 2.002 . S
O1018 C1019 1.295 . S
C1019 O1018 1.295 . S
C1019 O1021 1.235 . S
C1020 O1025 1.287 . S
C1020 O1026 1.255 . S
O1021 Fe1013 1.997 . S
O1021 C1019 1.235 . S
C1022 O1028 1.287 . S
C1022 O1029 1.255 . S
O1023 Fe1012 1.976 . S
O1023 C1030 1.287 . S
O1024 Fe1013 1.996 . S
O1024 C1030 1.255 . S
O1025 Fe1015 1.976 . S
O1025 C1020 1.287 . S
O1026 Fe1012 1.996 . S
O1026 C1020 1.255 . S
C1027 O1031 1.295 . S
C1027 O1032 1.235 . S
O1028 Fe1013 1.976 . S
O1028 C1022 1.287 . S
O1029 Fe1015 1.996 . S
O1029 C1022 1.255 . S
C1030 O1023 1.287 . S
C1030 O1024 1.255 . S
O1031 Fe1013 2.002 . S
O1031 C1027 1.295 . S
O1032 Fe1015 1.997 . S
O1032 C1027 1.235 . S
C1033 O1016 1.295 . S
C1033 O1017 1.235 . S
Fe1034 O1036 1.918 . S
Fe1034 O1039 1.997 . S
Fe1034 O1040 2.002 . S
Fe1034 O1045 1.976 . S
Fe1034 O1048 1.996 . S
Fe1035 O1036 1.918 . S
Fe1035 O1043 1.997 . S
Fe1035 O1046 1.996 . S
Fe1035 O1050 1.976 . S
Fe1035 O1053 2.002 . S
O1036 Fe1034 1.918 . S
O1036 Fe1035 1.918 . S
O1036 Fe1037 1.918 . S
Fe1037 O1036 1.918 . S
Fe1037 O1038 2.002 . S
Fe1037 O1047 1.976 . S
Fe1037 O1051 1.996 . S
Fe1037 O1054 1.997 . S
O1038 Fe1037 2.002 . S
O1038 C1055 1.295 . S
O1039 Fe1034 1.997 . S
O1039 C1055 1.235 . S
O1040 Fe1034 2.002 . S
O1040 C1041 1.295 . S
C1041 O1040 1.295 . S
C1041 O1043 1.235 . S
C1042 O1047 1.287 . S
C1042 O1048 1.255 . S
O1043 Fe1035 1.997 . S
O1043 C1041 1.235 . S
C1044 O1050 1.287 . S
C1044 O1051 1.255 . S
O1045 Fe1034 1.976 . S
O1045 C1052 1.287 . S
O1046 Fe1035 1.996 . S
O1046 C1052 1.255 . S
O1047 Fe1037 1.976 . S
O1047 C1042 1.287 . S
O1048 Fe1034 1.996 . S
O1048 C1042 1.255 . S
C1049 O1053 1.295 . S
C1049 O1054 1.235 . S
O1050 Fe1035 1.976 . S
O1050 C1044 1.287 . S
O1051 Fe1037 1.996 . S
O1051 C1044 1.255 . S
C1052 O1045 1.287 . S
C1052 O1046 1.255 . S
O1053 Fe1035 2.002 . S
O1053 C1049 1.295 . S
O1054 Fe1037 1.997 . S
O1054 C1049 1.235 . S
C1055 O1038 1.295 . S
C1055 O1039 1.235 . S
Fe1056 O1058 1.918 . S
Fe1056 O1061 1.997 . S
Fe1056 O1062 2.002 . S
Fe1056 O1067 1.976 . S
Fe1056 O1070 1.996 . S
Fe1057 O1058 1.918 . S
Fe1057 O1065 1.997 . S
Fe1057 O1068 1.996 . S
Fe1057 O1072 1.976 . S
Fe1057 O1075 2.002 . S
O1058 Fe1056 1.918 . S
O1058 Fe1057 1.918 . S
O1058 Fe1059 1.918 . S
Fe1059 O1058 1.918 . S
Fe1059 O1060 2.002 . S
Fe1059 O1069 1.976 . S
Fe1059 O1073 1.996 . S
Fe1059 O1076 1.997 . S
O1060 Fe1059 2.002 . S
O1060 C1077 1.295 . S
O1061 Fe1056 1.997 . S
O1061 C1077 1.235 . S
O1062 Fe1056 2.002 . S
O1062 C1063 1.295 . S
C1063 O1062 1.295 . S
C1063 O1065 1.235 . S
C1064 O1069 1.287 . S
C1064 O1070 1.255 . S
O1065 Fe1057 1.997 . S
O1065 C1063 1.235 . S
C1066 O1072 1.287 . S
C1066 O1073 1.255 . S
O1067 Fe1056 1.976 . S
O1067 C1074 1.287 . S
O1068 Fe1057 1.996 . S
O1068 C1074 1.255 . S
O1069 Fe1059 1.976 . S
O1069 C1064 1.287 . S
O1070 Fe1056 1.996 . S
O1070 C1064 1.255 . S
C1071 O1075 1.295 . S
C1071 O1076 1.235 . S
O1072 Fe1057 1.976 . S
O1072 C1066 1.287 . S
O1073 Fe1059 1.996 . S
O1073 C1066 1.255 . S
C1074 O1067 1.287 . S
C1074 O1068 1.255 . S
O1075 Fe1057 2.002 . S
O1075 C1071 1.295 . S
O1076 Fe1059 1.997 . S
O1076 C1071 1.235 . S
C1077 O1060 1.295 . S
C1077 O1061 1.235 . S
Fe1078 O1080 1.918 . S
Fe1078 O1083 1.997 . S
Fe1078 O1084 2.002 . S
Fe1078 O1089 1.976 . S
Fe1078 O1092 1.996 . S
Fe1079 O1080 1.918 . S
Fe1079 O1087 1.997 . S
Fe1079 O1090 1.996 . S
Fe1079 O1094 1.976 . S
Fe1079 O1097 2.002 . S
O1080 Fe1078 1.918 . S
O1080 Fe1079 1.918 . S
O1080 Fe1081 1.918 . S
Fe1081 O1080 1.918 . S
Fe1081 O1082 2.002 . S
Fe1081 O1091 1.976 . S
Fe1081 O1095 1.996 . S
Fe1081 O1098 1.997 . S
O1082 Fe1081 2.002 . S
O1082 C1099 1.295 . S
O1083 Fe1078 1.997 . S
O1083 C1099 1.235 . S
O1084 Fe1078 2.002 . S
O1084 C1085 1.295 . S
C1085 O1084 1.295 . S
C1085 O1087 1.235 . S
C1086 O1091 1.287 . S
C1086 O1092 1.255 . S
O1087 Fe1079 1.997 . S
O1087 C1085 1.235 . S
C1088 O1094 1.287 . S
C1088 O1095 1.255 . S
O1089 Fe1078 1.976 . S
O1089 C1096 1.287 . S
O1090 Fe1079 1.996 . S
O1090 C1096 1.255 . S
O1091 Fe1081 1.976 . S
O1091 C1086 1.287 . S
O1092 Fe1078 1.996 . S
O1092 C1086 1.255 . S
C1093 O1097 1.295 . S
C1093 O1098 1.235 . S
O1094 Fe1079 1.976 . S
O1094 C1088 1.287 . S
O1095 Fe1081 1.996 . S
O1095 C1088 1.255 . S
C1096 O1089 1.287 . S
C1096 O1090 1.255 . S
O1097 Fe1079 2.002 . S
O1097 C1093 1.295 . S
O1098 Fe1081 1.997 . S
O1098 C1093 1.235 . S
C1099 O1082 1.295 . S
C1099 O1083 1.235 . S
Fe1100 O1102 1.918 1_455 S
Fe1100 O1105 1.997 . S
Fe1100 O1106 2.002 1_455 S
Fe1100 O1111 1.976 . S
Fe1100 O1114 1.996 . S
Fe1101 O1102 1.918 . S
Fe1101 O1109 1.997 . S
Fe1101 O1112 1.996 . S
Fe1101 O1116 1.976 1_554 S
Fe1101 O1119 2.002 . S
O1102 Fe1100 1.918 1_655 S
O1102 Fe1101 1.918 . S
O1102 Fe1103 1.918 . S
Fe1103 O1102 1.918 . S
Fe1103 O1104 2.002 . S
Fe1103 O1113 1.976 1_654 S
Fe1103 O1117 1.996 1_554 S
Fe1103 O1120 1.997 . S
O1104 Fe1103 2.002 . S
O1104 C1121 1.295 . S
O1105 Fe1100 1.997 . S
O1105 C1121 1.235 1_455 S
O1106 Fe1100 2.002 1_655 S
O1106 C1107 1.295 . S
C1107 O1106 1.295 . S
C1107 O1109 1.235 . S
C1108 O1113 1.287 1_554 S
C1108 O1114 1.255 . S
O1109 Fe1101 1.997 . S
O1109 C1107 1.235 . S
C1110 O1116 1.287 . S
C1110 O1117 1.255 . S
O1111 Fe1100 1.976 . S
O1111 C1118 1.287 1_455 S
O1112 Fe1101 1.996 . S
O1112 C1118 1.255 . S
O1113 Fe1103 1.976 1_456 S
O1113 C1108 1.287 1_556 S
O1114 Fe1100 1.996 . S
O1114 C1108 1.255 . S
C1115 O1119 1.295 . S
C1115 O1120 1.235 . S
O1116 Fe1101 1.976 1_556 S
O1116 C1110 1.287 . S
O1117 Fe1103 1.996 1_556 S
O1117 C1110 1.255 . S
C1118 O1111 1.287 1_655 S
C1118 O1112 1.255 . S
O1119 Fe1101 2.002 . S
O1119 C1115 1.295 . S
O1120 Fe1103 1.997 . S
O1120 C1115 1.235 . S
C1121 O1104 1.295 . S
C1121 O1105 1.235 1_655 S
Fe1122 O1124 1.918 . S
Fe1122 O1127 1.997 . S
Fe1122 O1128 2.002 . S
Fe1122 O1133 1.976 . S
Fe1122 O1136 1.996 . S
Fe1123 O1124 1.918 . S
Fe1123 O1131 1.997 . S
Fe1123 O1134 1.996 . S
Fe1123 O1138 1.976 . S
Fe1123 O1141 2.002 . S
O1124 Fe1122 1.918 . S
O1124 Fe1123 1.918 . S
O1124 Fe1125 1.918 . S
Fe1125 O1124 1.918 . S
Fe1125 O1126 2.002 . S
Fe1125 O1135 1.976 . S
Fe1125 O1139 1.996 . S
Fe1125 O1142 1.997 . S
O1126 Fe1125 2.002 . S
O1126 C1143 1.295 . S
O1127 Fe1122 1.997 . S
O1127 C1143 1.235 . S
O1128 Fe1122 2.002 . S
O1128 C1129 1.295 . S
C1129 O1128 1.295 . S
C1129 O1131 1.235 . S
C1130 O1135 1.287 . S
C1130 O1136 1.255 . S
O1131 Fe1123 1.997 . S
O1131 C1129 1.235 . S
C1132 O1138 1.287 . S
C1132 O1139 1.255 . S
O1133 Fe1122 1.976 . S
O1133 C1140 1.287 . S
O1134 Fe1123 1.996 . S
O1134 C1140 1.255 . S
O1135 Fe1125 1.976 . S
O1135 C1130 1.287 . S
O1136 Fe1122 1.996 . S
O1136 C1130 1.255 . S
C1137 O1141 1.295 . S
C1137 O1142 1.235 . S
O1138 Fe1123 1.976 . S
O1138 C1132 1.287 . S
O1139 Fe1125 1.996 . S
O1139 C1132 1.255 . S
C1140 O1133 1.287 . S
C1140 O1134 1.255 . S
O1141 Fe1123 2.002 . S
O1141 C1137 1.295 . S
O1142 Fe1125 1.997 . S
O1142 C1137 1.235 . S
C1143 O1126 1.295 . S
C1143 O1127 1.235 . S
Fe1144 O1146 1.918 . S
Fe1144 O1149 1.997 . S
Fe1144 O1150 2.002 . S
Fe1144 O1155 1.976 1_556 S
Fe1144 O1158 1.996 1_556 S
Fe1145 O1146 1.918 . S
Fe1145 O1153 1.997 . S
Fe1145 O1156 1.996 . S
Fe1145 O1160 1.976 . S
Fe1145 O1163 2.002 . S
O1146 Fe1144 1.918 . S
O1146 Fe1145 1.918 . S
O1146 Fe1147 1.918 . S
Fe1147 O1146 1.918 . S
Fe1147 O1148 2.002 . S
Fe1147 O1157 1.976 1_556 S
Fe1147 O1161 1.996 . S
Fe1147 O1164 1.997 . S
O1148 Fe1147 2.002 . S
O1148 C1165 1.295 . S
O1149 Fe1144 1.997 . S
O1149 C1165 1.235 . S
O1150 Fe1144 2.002 . S
O1150 C1151 1.295 . S
C1151 O1150 1.295 . S
C1151 O1153 1.235 . S
C1152 O1157 1.287 . S
C1152 O1158 1.255 . S
O1153 Fe1145 1.997 . S
O1153 C1151 1.235 . S
C1154 O1160 1.287 . S
C1154 O1161 1.255 . S
O1155 Fe1144 1.976 1_554 S
O1155 C1162 1.287 1_554 S
O1156 Fe1145 1.996 . S
O1156 C1162 1.255 . S
O1157 Fe1147 1.976 1_554 S
O1157 C1152 1.287 . S
O1158 Fe1144 1.996 1_554 S
O1158 C1152 1.255 . S
C1159 O1163 1.295 . S
C1159 O1164 1.235 . S
O1160 Fe1145 1.976 . S
O1160 C1154 1.287 . S
O1161 Fe1147 1.996 . S
O1161 C1154 1.255 . S
C1162 O1155 1.287 1_556 S
C1162 O1156 1.255 . S
O1163 Fe1145 2.002 . S
O1163 C1159 1.295 . S
O1164 Fe1147 1.997 . S
O1164 C1159 1.235 . S
C1165 O1148 1.295 . S
C1165 O1149 1.235 . S
Fe1166 O1168 1.918 . S
Fe1166 O1171 1.997 . S
Fe1166 O1172 2.002 . S
Fe1166 O1177 1.976 . S
Fe1166 O1180 1.996 . S
Fe1167 O1168 1.918 . S
Fe1167 O1175 1.997 . S
Fe1167 O1178 1.996 . S
Fe1167 O1182 1.976 . S
Fe1167 O1185 2.002 . S
O1168 Fe1166 1.918 . S
O1168 Fe1167 1.918 . S
O1168 Fe1169 1.918 . S
Fe1169 O1168 1.918 . S
Fe1169 O1170 2.002 . S
Fe1169 O1179 1.976 . S
Fe1169 O1183 1.996 . S
Fe1169 O1186 1.997 . S
O1170 Fe1169 2.002 . S
O1170 C1187 1.295 . S
O1171 Fe1166 1.997 . S
O1171 C1187 1.235 . S
O1172 Fe1166 2.002 . S
O1172 C1173 1.295 . S
C1173 O1172 1.295 . S
C1173 O1175 1.235 . S
C1174 O1179 1.287 . S
C1174 O1180 1.255 . S
O1175 Fe1167 1.997 . S
O1175 C1173 1.235 . S
C1176 O1182 1.287 . S
C1176 O1183 1.255 . S
O1177 Fe1166 1.976 . S
O1177 C1184 1.287 . S
O1178 Fe1167 1.996 . S
O1178 C1184 1.255 . S
O1179 Fe1169 1.976 . S
O1179 C1174 1.287 . S
O1180 Fe1166 1.996 . S
O1180 C1174 1.255 . S
C1181 O1185 1.295 . S
C1181 O1186 1.235 . S
O1182 Fe1167 1.976 . S
O1182 C1176 1.287 . S
O1183 Fe1169 1.996 . S
O1183 C1176 1.255 . S
C1184 O1177 1.287 . S
C1184 O1178 1.255 . S
O1185 Fe1167 2.002 . S
O1185 C1181 1.295 . S
O1186 Fe1169 1.997 . S
O1186 C1181 1.235 . S
C1187 O1170 1.295 . S
C1187 O1171 1.235 . S
Fe1188 O1190 1.918 1_455 S
Fe1188 O1193 1.997 . S
Fe1188 O1194 2.002 1_455 S
Fe1188 O1199 1.976 . S
Fe1188 O1202 1.996 . S
Fe1189 O1190 1.918 . S
Fe1189 O1197 1.997 . S
Fe1189 O1200 1.996 . S
Fe1189 O1204 1.976 . S
Fe1189 O1207 2.002 . S
O1190 Fe1188 1.918 1_655 S
O1190 Fe1189 1.918 . S
O1190 Fe1191 1.918 . S
Fe1191 O1190 1.918 . S
Fe1191 O1192 2.002 . S
Fe1191 O1201 1.976 1_655 S
Fe1191 O1205 1.996 . S
Fe1191 O1208 1.997 . S
O1192 Fe1191 2.002 . S
O1192 C1209 1.295 . S
O1193 Fe1188 1.997 . S
O1193 C1209 1.235 1_455 S
O1194 Fe1188 2.002 1_655 S
O1194 C1195 1.295 . S
C1195 O1194 1.295 . S
C1195 O1197 1.235 . S
C1196 O1201 1.287 . S
C1196 O1202 1.255 . S
O1197 Fe1189 1.997 . S
O1197 C1195 1.235 . S
C1198 O1204 1.287 . S
C1198 O1205 1.255 . S
O1199 Fe1188 1.976 . S
O1199 C1206 1.287 1_455 S
O1200 Fe1189 1.996 . S
O1200 C1206 1.255 . S
O1201 Fe1191 1.976 1_455 S
O1201 C1196 1.287 . S
O1202 Fe1188 1.996 . S
O1202 C1196 1.255 . S
C1203 O1207 1.295 . S
C1203 O1208 1.235 . S
O1204 Fe1189 1.976 . S
O1204 C1198 1.287 . S
O1205 Fe1191 1.996 . S
O1205 C1198 1.255 . S
C1206 O1199 1.287 1_655 S
C1206 O1200 1.255 . S
O1207 Fe1189 2.002 . S
O1207 C1203 1.295 . S
O1208 Fe1191 1.997 . S
O1208 C1203 1.235 . S
C1209 O1192 1.295 . S
C1209 O1193 1.235 1_655 S
Fe1210 O1212 1.918 . S
Fe1210 O1215 1.997 . S
Fe1210 O1216 2.002 . S
Fe1210 O1221 1.976 . S
Fe1210 O1224 1.996 . S
Fe1211 O1212 1.918 . S
Fe1211 O1219 1.997 . S
Fe1211 O1222 1.996 . S
Fe1211 O1226 1.976 . S
Fe1211 O1229 2.002 . S
O1212 Fe1210 1.918 . S
O1212 Fe1211 1.918 . S
O1212 Fe1213 1.918 . S
Fe1213 O1212 1.918 . S
Fe1213 O1214 2.002 . S
Fe1213 O1223 1.976 . S
Fe1213 O1227 1.996 . S
Fe1213 O1230 1.997 . S
O1214 Fe1213 2.002 . S
O1214 C1231 1.295 . S
O1215 Fe1210 1.997 . S
O1215 C1231 1.235 . S
O1216 Fe1210 2.002 . S
O1216 C1217 1.295 . S
C1217 O1216 1.295 . S
C1217 O1219 1.235 . S
C1218 O1223 1.287 . S
C1218 O1224 1.255 . S
O1219 Fe1211 1.997 . S
O1219 C1217 1.235 . S
C1220 O1226 1.287 . S
C1220 O1227 1.255 . S
O1221 Fe1210 1.976 . S
O1221 C1228 1.287 . S
O1222 Fe1211 1.996 . S
O1222 C1228 1.255 . S
O1223 Fe1213 1.976 . S
O1223 C1218 1.287 . S
O1224 Fe1210 1.996 . S
O1224 C1218 1.255 . S
C1225 O1229 1.295 . S
C1225 O1230 1.235 . S
O1226 Fe1211 1.976 . S
O1226 C1220 1.287 . S
O1227 Fe1213 1.996 . S
O1227 C1220 1.255 . S
C1228 O1221 1.287 . S
C1228 O1222 1.255 . S
O1229 Fe1211 2.002 . S
O1229 C1225 1.295 . S
O1230 Fe1213 1.997 . S
O1230 C1225 1.235 . S
C1231 O1214 1.295 . S
C1231 O1215 1.235 . S
Fe1232 O1234 1.918 . S
Fe1232 O1237 1.997 . S
Fe1232 O1238 2.002 . S
Fe1232 O1243 1.976 . S
Fe1232 O1246 1.996 . S
Fe1233 O1234 1.918 . S
Fe1233 O1241 1.997 . S
Fe1233 O1244 1.996 . S
Fe1233 O1248 1.976 . S
Fe1233 O1251 2.002 . S
O1234 Fe1232 1.918 . S
O1234 Fe1233 1.918 . S
O1234 Fe1235 1.918 . S
Fe1235 O1234 1.918 . S
Fe1235 O1236 2.002 . S
Fe1235 O1245 1.976 . S
Fe1235 O1249 1.996 . S
Fe1235 O1252 1.997 . S
O1236 Fe1235 2.002 . S
O1236 C1253 1.295 . S
O1237 Fe1232 1.997 . S
O1237 C1253 1.235 . S
O1238 Fe1232 2.002 . S
O1238 C1239 1.295 . S
C1239 O1238 1.295 . S
C1239 O1241 1.235 . S
C1240 O1245 1.287 . S
C1240 O1246 1.255 . S
O1241 Fe1233 1.997 . S
O1241 C1239 1.235 . S
C1242 O1248 1.287 . S
C1242 O1249 1.255 . S
O1243 Fe1232 1.976 . S
O1243 C1250 1.287 . S
O1244 Fe1233 1.996 . S
O1244 C1250 1.255 . S
O1245 Fe1235 1.976 . S
O1245 C1240 1.287 . S
O1246 Fe1232 1.996 . S
O1246 C1240 1.255 . S
C1247 O1251 1.295 . S
C1247 O1252 1.235 . S
O1248 Fe1233 1.976 . S
O1248 C1242 1.287 . S
O1249 Fe1235 1.996 . S
O1249 C1242 1.255 . S
C1250 O1243 1.287 . S
C1250 O1244 1.255 . S
O1251 Fe1233 2.002 . S
O1251 C1247 1.295 . S
O1252 Fe1235 1.997 . S
O1252 C1247 1.235 . S
C1253 O1236 1.295 . S
C1253 O1237 1.235 . S
Fe1254 O1256 1.918 . S
Fe1254 O1259 1.997 . S
Fe1254 O1260 2.002 . S
Fe1254 O1265 1.976 . S
Fe1254 O1268 1.996 . S
Fe1255 O1256 1.918 . S
Fe1255 O1263 1.997 . S
Fe1255 O1266 1.996 . S
Fe1255 O1270 1.976 . S
Fe1255 O1273 2.002 . S
O1256 Fe1254 1.918 . S
O1256 Fe1255 1.918 . S
O1256 Fe1257 1.918 . S
Fe1257 O1256 1.918 . S
Fe1257 O1258 2.002 . S
Fe1257 O1267 1.976 . S
Fe1257 O1271 1.996 . S
Fe1257 O1274 1.997 . S
O1258 Fe1257 2.002 . S
O1258 C1275 1.295 . S
O1259 Fe1254 1.997 . S
O1259 C1275 1.235 . S
O1260 Fe1254 2.002 . S
O1260 C1261 1.295 . S
C1261 O1260 1.295 . S
C1261 O1263 1.235 . S
C1262 O1267 1.287 . S
C1262 O1268 1.255 . S
O1263 Fe1255 1.997 . S
O1263 C1261 1.235 . S
C1264 O1270 1.287 . S
C1264 O1271 1.255 . S
O1265 Fe1254 1.976 . S
O1265 C1272 1.287 . S
O1266 Fe1255 1.996 . S
O1266 C1272 1.255 . S
O1267 Fe1257 1.976 . S
O1267 C1262 1.287 . S
O1268 Fe1254 1.996 . S
O1268 C1262 1.255 . S
C1269 O1273 1.295 . S
C1269 O1274 1.235 . S
O1270 Fe1255 1.976 . S
O1270 C1264 1.287 . S
O1271 Fe1257 1.996 . S
O1271 C1264 1.255 . S
C1272 O1265 1.287 . S
C1272 O1266 1.255 . S
O1273 Fe1255 2.002 . S
O1273 C1269 1.295 . S
O1274 Fe1257 1.997 . S
O1274 C1269 1.235 . S
C1275 O1258 1.295 . S
C1275 O1259 1.235 . S
Fe1276 O1278 1.918 . S
Fe1276 O1281 1.997 . S
Fe1276 O1282 2.002 . S
Fe1276 O1287 1.976 1_655 S
Fe1276 O1290 1.996 1_655 S
Fe1277 O1278 1.918 . S
Fe1277 O1285 1.997 . S
Fe1277 O1288 1.996 . S
Fe1277 O1292 1.976 . S
Fe1277 O1295 2.002 . S
O1278 Fe1276 1.918 . S
O1278 Fe1277 1.918 . S
O1278 Fe1279 1.918 . S
Fe1279 O1278 1.918 . S
Fe1279 O1280 2.002 . S
Fe1279 O1289 1.976 1_655 S
Fe1279 O1293 1.996 . S
Fe1279 O1296 1.997 . S
O1280 Fe1279 2.002 . S
O1280 C1297 1.295 . S
O1281 Fe1276 1.997 . S
O1281 C1297 1.235 . S
O1282 Fe1276 2.002 . S
O1282 C1283 1.295 . S
C1283 O1282 1.295 . S
C1283 O1285 1.235 . S
C1284 O1289 1.287 . S
C1284 O1290 1.255 . S
O1285 Fe1277 1.997 . S
O1285 C1283 1.235 . S
C1286 O1292 1.287 . S
C1286 O1293 1.255 . S
O1287 Fe1276 1.976 1_455 S
O1287 C1294 1.287 1_455 S
O1288 Fe1277 1.996 . S
O1288 C1294 1.255 . S
O1289 Fe1279 1.976 1_455 S
O1289 C1284 1.287 . S
O1290 Fe1276 1.996 1_455 S
O1290 C1284 1.255 . S
C1291 O1295 1.295 . S
C1291 O1296 1.235 . S
O1292 Fe1277 1.976 . S
O1292 C1286 1.287 . S
O1293 Fe1279 1.996 . S
O1293 C1286 1.255 . S
C1294 O1287 1.287 1_655 S
C1294 O1288 1.255 . S
O1295 Fe1277 2.002 . S
O1295 C1291 1.295 . S
O1296 Fe1279 1.997 . S
O1296 C1291 1.235 . S
C1297 O1280 1.295 . S
C1297 O1281 1.235 . S
Fe1298 O1300 1.918 . S
Fe1298 O1303 1.997 . S
Fe1298 O1304 2.002 . S
Fe1298 O1309 1.976 . S
Fe1298 O1312 1.996 . S
Fe1299 O1300 1.918 . S
Fe1299 O1307 1.997 . S
Fe1299 O1310 1.996 . S
Fe1299 O1314 1.976 . S
Fe1299 O1317 2.002 . S
O1300 Fe1298 1.918 . S
O1300 Fe1299 1.918 . S
O1300 Fe1301 1.918 . S
Fe1301 O1300 1.918 . S
Fe1301 O1302 2.002 . S
Fe1301 O1311 1.976 . S
Fe1301 O1315 1.996 . S
Fe1301 O1318 1.997 . S
O1302 Fe1301 2.002 . S
O1302 C1319 1.295 . S
O1303 Fe1298 1.997 . S
O1303 C1319 1.235 . S
O1304 Fe1298 2.002 . S
O1304 C1305 1.295 . S
C1305 O1304 1.295 . S
C1305 O1307 1.235 . S
C1306 O1311 1.287 . S
C1306 O1312 1.255 . S
O1307 Fe1299 1.997 . S
O1307 C1305 1.235 . S
C1308 O1314 1.287 . S
C1308 O1315 1.255 . S
O1309 Fe1298 1.976 . S
O1309 C1316 1.287 . S
O1310 Fe1299 1.996 . S
O1310 C1316 1.255 . S
O1311 Fe1301 1.976 . S
O1311 C1306 1.287 . S
O1312 Fe1298 1.996 . S
O1312 C1306 1.255 . S
C1313 O1317 1.295 . S
C1313 O1318 1.235 . S
O1314 Fe1299 1.976 . S
O1314 C1308 1.287 . S
O1315 Fe1301 1.996 . S
O1315 C1308 1.255 . S
C1316 O1309 1.287 . S
C1316 O1310 1.255 . S
O1317 Fe1299 2.002 . S
O1317 C1313 1.295 . S
O1318 Fe1301 1.997 . S
O1318 C1313 1.235 . S
C1319 O1302 1.295 . S
C1319 O1303 1.235 . S
Fe1320 O1322 1.918 . S
Fe1320 O1325 1.997 . S
Fe1320 O1326 2.002 . S
Fe1320 O1331 1.976 . S
Fe1320 O1334 1.996 . S
Fe1321 O1322 1.918 . S
Fe1321 O1329 1.997 . S
Fe1321 O1332 1.996 . S
Fe1321 O1336 1.976 . S
Fe1321 O1339 2.002 . S
O1322 Fe1320 1.918 . S
O1322 Fe1321 1.918 . S
O1322 Fe1323 1.918 . S
Fe1323 O1322 1.918 . S
Fe1323 O1324 2.002 . S
Fe1323 O1333 1.976 . S
Fe1323 O1337 1.996 . S
Fe1323 O1340 1.997 . S
O1324 Fe1323 2.002 . S
O1324 C1341 1.295 . S
O1325 Fe1320 1.997 . S
O1325 C1341 1.235 . S
O1326 Fe1320 2.002 . S
O1326 C1327 1.295 . S
C1327 O1326 1.295 . S
C1327 O1329 1.235 . S
C1328 O1333 1.287 . S
C1328 O1334 1.255 . S
O1329 Fe1321 1.997 . S
O1329 C1327 1.235 . S
C1330 O1336 1.287 . S
C1330 O1337 1.255 . S
O1331 Fe1320 1.976 . S
O1331 C1338 1.287 . S
O1332 Fe1321 1.996 . S
O1332 C1338 1.255 . S
O1333 Fe1323 1.976 . S
O1333 C1328 1.287 . S
O1334 Fe1320 1.996 . S
O1334 C1328 1.255 . S
C1335 O1339 1.295 . S
C1335 O1340 1.235 . S
O1336 Fe1321 1.976 . S
O1336 C1330 1.287 . S
O1337 Fe1323 1.996 . S
O1337 C1330 1.255 . S
C1338 O1331 1.287 . S
C1338 O1332 1.255 . S
O1339 Fe1321 2.002 . S
O1339 C1335 1.295 . S
O1340 Fe1323 1.997 . S
O1340 C1335 1.235 . S
C1341 O1324 1.295 . S
C1341 O1325 1.235 . S
Fe1342 O1344 1.918 . S
Fe1342 O1347 1.997 . S
Fe1342 O1348 2.002 . S
Fe1342 O1353 1.976 . S
Fe1342 O1356 1.996 . S
Fe1343 O1344 1.918 . S
Fe1343 O1351 1.997 . S
Fe1343 O1354 1.996 . S
Fe1343 O1358 1.976 . S
Fe1343 O1361 2.002 . S
O1344 Fe1342 1.918 . S
O1344 Fe1343 1.918 . S
O1344 Fe1345 1.918 . S
Fe1345 O1344 1.918 . S
Fe1345 O1346 2.002 . S
Fe1345 O1355 1.976 . S
Fe1345 O1359 1.996 . S
Fe1345 O1362 1.997 . S
O1346 Fe1345 2.002 . S
O1346 C1363 1.295 . S
O1347 Fe1342 1.997 . S
O1347 C1363 1.235 . S
O1348 Fe1342 2.002 . S
O1348 C1349 1.295 . S
C1349 O1348 1.295 . S
C1349 O1351 1.235 . S
C1350 O1355 1.287 . S
C1350 O1356 1.255 . S
O1351 Fe1343 1.997 . S
O1351 C1349 1.235 . S
C1352 O1358 1.287 . S
C1352 O1359 1.255 . S
O1353 Fe1342 1.976 . S
O1353 C1360 1.287 . S
O1354 Fe1343 1.996 . S
O1354 C1360 1.255 . S
O1355 Fe1345 1.976 . S
O1355 C1350 1.287 . S
O1356 Fe1342 1.996 . S
O1356 C1350 1.255 . S
C1357 O1361 1.295 . S
C1357 O1362 1.235 . S
O1358 Fe1343 1.976 . S
O1358 C1352 1.287 . S
O1359 Fe1345 1.996 . S
O1359 C1352 1.255 . S
C1360 O1353 1.287 . S
C1360 O1354 1.255 . S
O1361 Fe1343 2.002 . S
O1361 C1357 1.295 . S
O1362 Fe1345 1.997 . S
O1362 C1357 1.235 . S
C1363 O1346 1.295 . S
C1363 O1347 1.235 . S
Fe1364 O1366 1.918 . S
Fe1364 O1369 1.997 . S
Fe1364 O1370 2.002 . S
Fe1364 O1375 1.976 1_655 S
Fe1364 O1378 1.996 . S
Fe1365 O1366 1.918 . S
Fe1365 O1373 1.997 . S
Fe1365 O1376 1.996 1_655 S
Fe1365 O1380 1.976 1_655 S
Fe1365 O1383 2.002 . S
O1366 Fe1364 1.918 . S
O1366 Fe1365 1.918 . S
O1366 Fe1367 1.918 . S
Fe1367 O1366 1.918 . S
Fe1367 O1368 2.002 . S
Fe1367 O1377 1.976 . S
Fe1367 O1381 1.996 . S
Fe1367 O1384 1.997 . S
O1368 Fe1367 2.002 . S
O1368 C1385 1.295 . S
O1369 Fe1364 1.997 . S
O1369 C1385 1.235 . S
O1370 Fe1364 2.002 . S
O1370 C1371 1.295 . S
C1371 O1370 1.295 . S
C1371 O1373 1.235 . S
C1372 O1377 1.287 . S
C1372 O1378 1.255 . S
O1373 Fe1365 1.997 . S
O1373 C1371 1.235 . S
C1374 O1380 1.287 1_655 S
C1374 O1381 1.255 . S
O1375 Fe1364 1.976 1_455 S
O1375 C1382 1.287 . S
O1376 Fe1365 1.996 1_455 S
O1376 C1382 1.255 . S
O1377 Fe1367 1.976 . S
O1377 C1372 1.287 . S
O1378 Fe1364 1.996 . S
O1378 C1372 1.255 . S
C1379 O1383 1.295 . S
C1379 O1384 1.235 . S
O1380 Fe1365 1.976 1_455 S
O1380 C1374 1.287 1_455 S
O1381 Fe1367 1.996 . S
O1381 C1374 1.255 . S
C1382 O1375 1.287 . S
C1382 O1376 1.255 . S
O1383 Fe1365 2.002 . S
O1383 C1379 1.295 . S
O1384 Fe1367 1.997 . S
O1384 C1379 1.235 . S
C1385 O1368 1.295 . S
C1385 O1369 1.235 . S
Fe1386 O1388 1.918 . S
Fe1386 O1391 1.997 . S
Fe1386 O1392 2.002 . S
Fe1386 O1397 1.976 . S
Fe1386 O1400 1.996 . S
Fe1387 O1388 1.918 . S
Fe1387 O1395 1.997 . S
Fe1387 O1398 1.996 . S
Fe1387 O1402 1.976 . S
Fe1387 O1405 2.002 . S
O1388 Fe1386 1.918 . S
O1388 Fe1387 1.918 . S
O1388 Fe1389 1.918 . S
Fe1389 O1388 1.918 . S
Fe1389 O1390 2.002 . S
Fe1389 O1399 1.976 . S
Fe1389 O1403 1.996 . S
Fe1389 O1406 1.997 . S
O1390 Fe1389 2.002 . S
O1390 C1407 1.295 . S
O1391 Fe1386 1.997 . S
O1391 C1407 1.235 . S
O1392 Fe1386 2.002 . S
O1392 C1393 1.295 . S
C1393 O1392 1.295 . S
C1393 O1395 1.235 . S
C1394 O1399 1.287 . S
C1394 O1400 1.255 . S
O1395 Fe1387 1.997 . S
O1395 C1393 1.235 . S
C1396 O1402 1.287 . S
C1396 O1403 1.255 . S
O1397 Fe1386 1.976 . S
O1397 C1404 1.287 . S
O1398 Fe1387 1.996 . S
O1398 C1404 1.255 . S
O1399 Fe1389 1.976 . S
O1399 C1394 1.287 . S
O1400 Fe1386 1.996 . S
O1400 C1394 1.255 . S
C1401 O1405 1.295 . S
C1401 O1406 1.235 . S
O1402 Fe1387 1.976 . S
O1402 C1396 1.287 . S
O1403 Fe1389 1.996 . S
O1403 C1396 1.255 . S
C1404 O1397 1.287 . S
C1404 O1398 1.255 . S
O1405 Fe1387 2.002 . S
O1405 C1401 1.295 . S
O1406 Fe1389 1.997 . S
O1406 C1401 1.235 . S
C1407 O1390 1.295 . S
C1407 O1391 1.235 . S
Fe1408 O1410 1.918 . S
Fe1408 O1413 1.997 . S
Fe1408 O1414 2.002 . S
Fe1408 O1419 1.976 . S
Fe1408 O1422 1.996 . S
Fe1409 O1410 1.918 . S
Fe1409 O1417 1.997 . S
Fe1409 O1420 1.996 . S
Fe1409 O1424 1.976 . S
Fe1409 O1427 2.002 . S
O1410 Fe1408 1.918 . S
O1410 Fe1409 1.918 . S
O1410 Fe1411 1.918 . S
Fe1411 O1410 1.918 . S
Fe1411 O1412 2.002 . S
Fe1411 O1421 1.976 . S
Fe1411 O1425 1.996 . S
Fe1411 O1428 1.997 . S
O1412 Fe1411 2.002 . S
O1412 C1429 1.295 . S
O1413 Fe1408 1.997 . S
O1413 C1429 1.235 . S
O1414 Fe1408 2.002 . S
O1414 C1415 1.295 . S
C1415 O1414 1.295 . S
C1415 O1417 1.235 . S
C1416 O1421 1.287 . S
C1416 O1422 1.255 . S
O1417 Fe1409 1.997 . S
O1417 C1415 1.235 . S
C1418 O1424 1.287 . S
C1418 O1425 1.255 . S
O1419 Fe1408 1.976 . S
O1419 C1426 1.287 . S
O1420 Fe1409 1.996 . S
O1420 C1426 1.255 . S
O1421 Fe1411 1.976 . S
O1421 C1416 1.287 . S
O1422 Fe1408 1.996 . S
O1422 C1416 1.255 . S
C1423 O1427 1.295 . S
C1423 O1428 1.235 . S
O1424 Fe1409 1.976 . S
O1424 C1418 1.287 . S
O1425 Fe1411 1.996 . S
O1425 C1418 1.255 . S
C1426 O1419 1.287 . S
C1426 O1420 1.255 . S
O1427 Fe1409 2.002 . S
O1427 C1423 1.295 . S
O1428 Fe1411 1.997 . S
O1428 C1423 1.235 . S
C1429 O1412 1.295 . S
C1429 O1413 1.235 . S
Fe1430 O1432 1.918 . S
Fe1430 O1435 1.997 . S
Fe1430 O1436 2.002 . S
Fe1430 O1441 1.976 . S
Fe1430 O1444 1.996 . S
Fe1431 O1432 1.918 . S
Fe1431 O1439 1.997 . S
Fe1431 O1442 1.996 . S
Fe1431 O1446 1.976 1_565 S
Fe1431 O1449 2.002 . S
O1432 Fe1430 1.918 . S
O1432 Fe1431 1.918 . S
O1432 Fe1433 1.918 . S
Fe1433 O1432 1.918 . S
Fe1433 O1434 2.002 . S
Fe1433 O1443 1.976 1_565 S
Fe1433 O1447 1.996 1_565 S
Fe1433 O1450 1.997 . S
O1434 Fe1433 2.002 . S
O1434 C1451 1.295 . S
O1435 Fe1430 1.997 . S
O1435 C1451 1.235 . S
O1436 Fe1430 2.002 . S
O1436 C1437 1.295 . S
C1437 O1436 1.295 . S
C1437 O1439 1.235 . S
C1438 O1443 1.287 1_565 S
C1438 O1444 1.255 . S
O1439 Fe1431 1.997 . S
O1439 C1437 1.235 . S
C1440 O1446 1.287 . S
C1440 O1447 1.255 . S
O1441 Fe1430 1.976 . S
O1441 C1448 1.287 . S
O1442 Fe1431 1.996 . S
O1442 C1448 1.255 . S
O1443 Fe1433 1.976 1_545 S
O1443 C1438 1.287 1_545 S
O1444 Fe1430 1.996 . S
O1444 C1438 1.255 . S
C1445 O1449 1.295 . S
C1445 O1450 1.235 . S
O1446 Fe1431 1.976 1_545 S
O1446 C1440 1.287 . S
O1447 Fe1433 1.996 1_545 S
O1447 C1440 1.255 . S
C1448 O1441 1.287 . S
C1448 O1442 1.255 . S
O1449 Fe1431 2.002 . S
O1449 C1445 1.295 . S
O1450 Fe1433 1.997 . S
O1450 C1445 1.235 . S
C1451 O1434 1.295 . S
C1451 O1435 1.235 . S
Fe1452 O1454 1.918 . S
Fe1452 O1457 1.997 . S
Fe1452 O1458 2.002 . S
Fe1452 O1463 1.976 . S
Fe1452 O1466 1.996 . S
Fe1453 O1454 1.918 . S
Fe1453 O1461 1.997 . S
Fe1453 O1464 1.996 . S
Fe1453 O1468 1.976 . S
Fe1453 O1471 2.002 . S
O1454 Fe1452 1.918 . S
O1454 Fe1453 1.918 . S
O1454 Fe1455 1.918 . S
Fe1455 O1454 1.918 . S
Fe1455 O1456 2.002 . S
Fe1455 O1465 1.976 . S
Fe1455 O1469 1.996 . S
Fe1455 O1472 1.997 . S
O1456 Fe1455 2.002 . S
O1456 C1473 1.295 . S
O1457 Fe1452 1.997 . S
O1457 C1473 1.235 . S
O1458 Fe1452 2.002 . S
O1458 C1459 1.295 . S
C1459 O1458 1.295 . S
C1459 O1461 1.235 . S
C1460 O1465 1.287 . S
C1460 O1466 1.255 . S
O1461 Fe1453 1.997 . S
O1461 C1459 1.235 . S
C1462 O1468 1.287 . S
C1462 O1469 1.255 . S
O1463 Fe1452 1.976 . S
O1463 C1470 1.287 . S
O1464 Fe1453 1.996 . S
O1464 C1470 1.255 . S
O1465 Fe1455 1.976 . S
O1465 C1460 1.287 . S
O1466 Fe1452 1.996 . S
O1466 C1460 1.255 . S
C1467 O1471 1.295 . S
C1467 O1472 1.235 . S
O1468 Fe1453 1.976 . S
O1468 C1462 1.287 . S
O1469 Fe1455 1.996 . S
O1469 C1462 1.255 . S
C1470 O1463 1.287 . S
C1470 O1464 1.255 . S
O1471 Fe1453 2.002 . S
O1471 C1467 1.295 . S
O1472 Fe1455 1.997 . S
O1472 C1467 1.235 . S
C1473 O1456 1.295 . S
C1473 O1457 1.235 . S
Fe1474 O1476 1.918 1_554 S
Fe1474 O1479 1.997 . S
Fe1474 O1480 2.002 1_554 S
Fe1474 O1485 1.976 . S
Fe1474 O1488 1.996 . S
Fe1475 O1476 1.918 . S
Fe1475 O1483 1.997 . S
Fe1475 O1486 1.996 . S
Fe1475 O1490 1.976 1_545 S
Fe1475 O1493 2.002 . S
O1476 Fe1474 1.918 1_556 S
O1476 Fe1475 1.918 . S
O1476 Fe1477 1.918 . S
Fe1477 O1476 1.918 . S
Fe1477 O1478 2.002 . S
Fe1477 O1487 1.976 1_546 S
Fe1477 O1491 1.996 1_545 S
Fe1477 O1494 1.997 . S
O1478 Fe1477 2.002 . S
O1478 C1495 1.295 . S
O1479 Fe1474 1.997 . S
O1479 C1495 1.235 1_554 S
O1480 Fe1474 2.002 1_556 S
O1480 C1481 1.295 . S
C1481 O1480 1.295 . S
C1481 O1483 1.235 . S
C1482 O1487 1.287 1_545 S
C1482 O1488 1.255 . S
O1483 Fe1475 1.997 . S
O1483 C1481 1.235 . S
C1484 O1490 1.287 . S
C1484 O1491 1.255 . S
O1485 Fe1474 1.976 . S
O1485 C1492 1.287 1_554 S
O1486 Fe1475 1.996 . S
O1486 C1492 1.255 . S
O1487 Fe1477 1.976 1_564 S
O1487 C1482 1.287 1_565 S
O1488 Fe1474 1.996 . S
O1488 C1482 1.255 . S
C1489 O1493 1.295 . S
C1489 O1494 1.235 . S
O1490 Fe1475 1.976 1_565 S
O1490 C1484 1.287 . S
O1491 Fe1477 1.996 1_565 S
O1491 C1484 1.255 . S
C1492 O1485 1.287 1_556 S
C1492 O1486 1.255 . S
O1493 Fe1475 2.002 . S
O1493 C1489 1.295 . S
O1494 Fe1477 1.997 . S
O1494 C1489 1.235 . S
C1495 O1478 1.295 . S
C1495 O1479 1.235 1_556 S
Fe1496 O1498 1.918 . S
Fe1496 O1501 1.997 . S
Fe1496 O1502 2.002 . S
Fe1496 O1507 1.976 . S
Fe1496 O1510 1.996 . S
Fe1497 O1498 1.918 . S
Fe1497 O1505 1.997 . S
Fe1497 O1508 1.996 . S
Fe1497 O1512 1.976 . S
Fe1497 O1515 2.002 . S
O1498 Fe1496 1.918 . S
O1498 Fe1497 1.918 . S
O1498 Fe1499 1.918 . S
Fe1499 O1498 1.918 . S
Fe1499 O1500 2.002 . S
Fe1499 O1509 1.976 . S
Fe1499 O1513 1.996 . S
Fe1499 O1516 1.997 . S
O1500 Fe1499 2.002 . S
O1500 C1517 1.295 . S
O1501 Fe1496 1.997 . S
O1501 C1517 1.235 . S
O1502 Fe1496 2.002 . S
O1502 C1503 1.295 . S
C1503 O1502 1.295 . S
C1503 O1505 1.235 . S
C1504 O1509 1.287 . S
C1504 O1510 1.255 . S
O1505 Fe1497 1.997 . S
O1505 C1503 1.235 . S
C1506 O1512 1.287 . S
C1506 O1513 1.255 . S
O1507 Fe1496 1.976 . S
O1507 C1514 1.287 . S
O1508 Fe1497 1.996 . S
O1508 C1514 1.255 . S
O1509 Fe1499 1.976 . S
O1509 C1504 1.287 . S
O1510 Fe1496 1.996 . S
O1510 C1504 1.255 . S
C1511 O1515 1.295 . S
C1511 O1516 1.235 . S
O1512 Fe1497 1.976 . S
O1512 C1506 1.287 . S
O1513 Fe1499 1.996 . S
O1513 C1506 1.255 . S
C1514 O1507 1.287 . S
C1514 O1508 1.255 . S
O1515 Fe1497 2.002 . S
O1515 C1511 1.295 . S
O1516 Fe1499 1.997 . S
O1516 C1511 1.235 . S
C1517 O1500 1.295 . S
C1517 O1501 1.235 . S
Fe1518 O1520 1.918 . S
Fe1518 O1523 1.997 . S
Fe1518 O1524 2.002 . S
Fe1518 O1529 1.976 . S
Fe1518 O1532 1.996 . S
Fe1519 O1520 1.918 . S
Fe1519 O1527 1.997 . S
Fe1519 O1530 1.996 . S
Fe1519 O1534 1.976 1_554 S
Fe1519 O1537 2.002 . S
O1520 Fe1518 1.918 . S
O1520 Fe1519 1.918 . S
O1520 Fe1521 1.918 1_554 S
Fe1521 O1520 1.918 1_556 S
Fe1521 O1522 2.002 1_556 S
Fe1521 O1531 1.976 . S
Fe1521 O1535 1.996 . S
Fe1521 O1538 1.997 . S
O1522 Fe1521 2.002 1_554 S
O1522 C1539 1.295 . S
O1523 Fe1518 1.997 . S
O1523 C1539 1.235 . S
O1524 Fe1518 2.002 . S
O1524 C1525 1.295 . S
C1525 O1524 1.295 . S
C1525 O1527 1.235 . S
C1526 O1531 1.287 1_554 S
C1526 O1532 1.255 . S
O1527 Fe1519 1.997 . S
O1527 C1525 1.235 . S
C1528 O1534 1.287 . S
C1528 O1535 1.255 . S
O1529 Fe1518 1.976 . S
O1529 C1536 1.287 . S
O1530 Fe1519 1.996 . S
O1530 C1536 1.255 . S
O1531 Fe1521 1.976 . S
O1531 C1526 1.287 1_556 S
O1532 Fe1518 1.996 . S
O1532 C1526 1.255 . S
C1533 O1537 1.295 . S
C1533 O1538 1.235 1_554 S
O1534 Fe1519 1.976 1_556 S
O1534 C1528 1.287 . S
O1535 Fe1521 1.996 . S
O1535 C1528 1.255 . S
C1536 O1529 1.287 . S
C1536 O1530 1.255 . S
O1537 Fe1519 2.002 . S
O1537 C1533 1.295 . S
O1538 Fe1521 1.997 . S
O1538 C1533 1.235 1_556 S
C1539 O1522 1.295 . S
C1539 O1523 1.235 . S
Fe1540 O1542 1.918 . S
Fe1540 O1545 1.997 . S
Fe1540 O1546 2.002 . S
Fe1540 O1551 1.976 . S
Fe1540 O1554 1.996 . S
Fe1541 O1542 1.918 . S
Fe1541 O1549 1.997 . S
Fe1541 O1552 1.996 . S
Fe1541 O1556 1.976 . S
Fe1541 O1559 2.002 . S
O1542 Fe1540 1.918 . S
O1542 Fe1541 1.918 . S
O1542 Fe1543 1.918 . S
Fe1543 O1542 1.918 . S
Fe1543 O1544 2.002 . S
Fe1543 O1553 1.976 . S
Fe1543 O1557 1.996 . S
Fe1543 O1560 1.997 . S
O1544 Fe1543 2.002 . S
O1544 C1561 1.295 . S
O1545 Fe1540 1.997 . S
O1545 C1561 1.235 . S
O1546 Fe1540 2.002 . S
O1546 C1547 1.295 . S
C1547 O1546 1.295 . S
C1547 O1549 1.235 . S
C1548 O1553 1.287 . S
C1548 O1554 1.255 . S
O1549 Fe1541 1.997 . S
O1549 C1547 1.235 . S
C1550 O1556 1.287 . S
C1550 O1557 1.255 . S
O1551 Fe1540 1.976 . S
O1551 C1558 1.287 . S
O1552 Fe1541 1.996 . S
O1552 C1558 1.255 . S
O1553 Fe1543 1.976 . S
O1553 C1548 1.287 . S
O1554 Fe1540 1.996 . S
O1554 C1548 1.255 . S
C1555 O1559 1.295 . S
C1555 O1560 1.235 . S
O1556 Fe1541 1.976 . S
O1556 C1550 1.287 . S
O1557 Fe1543 1.996 . S
O1557 C1550 1.255 . S
C1558 O1551 1.287 . S
C1558 O1552 1.255 . S
O1559 Fe1541 2.002 . S
O1559 C1555 1.295 . S
O1560 Fe1543 1.997 . S
O1560 C1555 1.235 . S
C1561 O1544 1.295 . S
C1561 O1545 1.235 . S
Fe1562 O1564 1.918 . S
Fe1562 O1567 1.997 . S
Fe1562 O1568 2.002 . S
Fe1562 O1573 1.976 . S
Fe1562 O1576 1.996 . S
Fe1563 O1564 1.918 . S
Fe1563 O1571 1.997 . S
Fe1563 O1574 1.996 . S
Fe1563 O1578 1.976 . S
Fe1563 O1581 2.002 . S
O1564 Fe1562 1.918 . S
O1564 Fe1563 1.918 . S
O1564 Fe1565 1.918 . S
Fe1565 O1564 1.918 . S
Fe1565 O1566 2.002 . S
Fe1565 O1575 1.976 . S
Fe1565 O1579 1.996 . S
Fe1565 O1582 1.997 . S
O1566 Fe1565 2.002 . S
O1566 C1583 1.295 . S
O1567 Fe1562 1.997 . S
O1567 C1583 1.235 . S
O1568 Fe1562 2.002 . S
O1568 C1569 1.295 . S
C1569 O1568 1.295 . S
C1569 O1571 1.235 . S
C1570 O1575 1.287 . S
C1570 O1576 1.255 . S
O1571 Fe1563 1.997 . S
O1571 C1569 1.235 . S
C1572 O1578 1.287 . S
C1572 O1579 1.255 . S
O1573 Fe1562 1.976 . S
O1573 C1580 1.287 . S
O1574 Fe1563 1.996 . S
O1574 C1580 1.255 . S
O1575 Fe1565 1.976 . S
O1575 C1570 1.287 . S
O1576 Fe1562 1.996 . S
O1576 C1570 1.255 . S
C1577 O1581 1.295 . S
C1577 O1582 1.235 . S
O1578 Fe1563 1.976 . S
O1578 C1572 1.287 . S
O1579 Fe1565 1.996 . S
O1579 C1572 1.255 . S
C1580 O1573 1.287 . S
C1580 O1574 1.255 . S
O1581 Fe1563 2.002 . S
O1581 C1577 1.295 . S
O1582 Fe1565 1.997 . S
O1582 C1577 1.235 . S
C1583 O1566 1.295 . S
C1583 O1567 1.235 . S
Fe1584 O1586 1.918 . S
Fe1584 O1589 1.997 . S
Fe1584 O1590 2.002 . S
Fe1584 O1595 1.976 . S
Fe1584 O1598 1.996 . S
Fe1585 O1586 1.918 . S
Fe1585 O1593 1.997 . S
Fe1585 O1596 1.996 . S
Fe1585 O1600 1.976 . S
Fe1585 O1603 2.002 . S
O1586 Fe1584 1.918 . S
O1586 Fe1585 1.918 . S
O1586 Fe1587 1.918 . S
Fe1587 O1586 1.918 . S
Fe1587 O1588 2.002 . S
Fe1587 O1597 1.976 . S
Fe1587 O1601 1.996 . S
Fe1587 O1604 1.997 . S
O1588 Fe1587 2.002 . S
O1588 C1605 1.295 . S
O1589 Fe1584 1.997 . S
O1589 C1605 1.235 . S
O1590 Fe1584 2.002 . S
O1590 C1591 1.295 . S
C1591 O1590 1.295 . S
C1591 O1593 1.235 . S
C1592 O1597 1.287 . S
C1592 O1598 1.255 . S
O1593 Fe1585 1.997 . S
O1593 C1591 1.235 . S
C1594 O1600 1.287 . S
C1594 O1601 1.255 . S
O1595 Fe1584 1.976 . S
O1595 C1602 1.287 . S
O1596 Fe1585 1.996 . S
O1596 C1602 1.255 . S
O1597 Fe1587 1.976 . S
O1597 C1592 1.287 . S
O1598 Fe1584 1.996 . S
O1598 C1592 1.255 . S
C1599 O1603 1.295 . S
C1599 O1604 1.235 . S
O1600 Fe1585 1.976 . S
O1600 C1594 1.287 . S
O1601 Fe1587 1.996 . S
O1601 C1594 1.255 . S
C1602 O1595 1.287 . S
C1602 O1596 1.255 . S
O1603 Fe1585 2.002 . S
O1603 C1599 1.295 . S
O1604 Fe1587 1.997 . S
O1604 C1599 1.235 . S
C1605 O1588 1.295 . S
C1605 O1589 1.235 . S
Fe1606 O1608 1.918 . S
Fe1606 O1611 1.997 . S
Fe1606 O1612 2.002 . S
Fe1606 O1617 1.976 . S
Fe1606 O1620 1.996 . S
Fe1607 O1608 1.918 . S
Fe1607 O1615 1.997 . S
Fe1607 O1618 1.996 . S
Fe1607 O1622 1.976 . S
Fe1607 O1625 2.002 . S
O1608 Fe1606 1.918 . S
O1608 Fe1607 1.918 . S
O1608 Fe1609 1.918 . S
Fe1609 O1608 1.918 . S
Fe1609 O1610 2.002 . S
Fe1609 O1619 1.976 . S
Fe1609 O1623 1.996 . S
Fe1609 O1626 1.997 . S
O1610 Fe1609 2.002 . S
O1610 C1627 1.295 . S
O1611 Fe1606 1.997 . S
O1611 C1627 1.235 . S
O1612 Fe1606 2.002 . S
O1612 C1613 1.295 . S
C1613 O1612 1.295 . S
C1613 O1615 1.235 . S
C1614 O1619 1.287 . S
C1614 O1620 1.255 . S
O1615 Fe1607 1.997 . S
O1615 C1613 1.235 . S
C1616 O1622 1.287 . S
C1616 O1623 1.255 . S
O1617 Fe1606 1.976 . S
O1617 C1624 1.287 . S
O1618 Fe1607 1.996 . S
O1618 C1624 1.255 . S
O1619 Fe1609 1.976 . S
O1619 C1614 1.287 . S
O1620 Fe1606 1.996 . S
O1620 C1614 1.255 . S
C1621 O1625 1.295 . S
C1621 O1626 1.235 . S
O1622 Fe1607 1.976 . S
O1622 C1616 1.287 . S
O1623 Fe1609 1.996 . S
O1623 C1616 1.255 . S
C1624 O1617 1.287 . S
C1624 O1618 1.255 . S
O1625 Fe1607 2.002 . S
O1625 C1621 1.295 . S
O1626 Fe1609 1.997 . S
O1626 C1621 1.235 . S
C1627 O1610 1.295 . S
C1627 O1611 1.235 . S
Fe1628 O1630 1.918 1_655 S
Fe1628 O1633 1.997 1_655 S
Fe1628 O1634 2.002 . S
Fe1628 O1639 1.976 . S
Fe1628 O1642 1.996 . S
Fe1629 O1630 1.918 . S
Fe1629 O1637 1.997 . S
Fe1629 O1640 1.996 1_456 S
Fe1629 O1644 1.976 1_556 S
Fe1629 O1647 2.002 . S
O1630 Fe1628 1.918 1_455 S
O1630 Fe1629 1.918 . S
O1630 Fe1631 1.918 . S
Fe1631 O1630 1.918 . S
Fe1631 O1632 2.002 . S
Fe1631 O1641 1.976 . S
Fe1631 O1645 1.996 1_556 S
Fe1631 O1648 1.997 . S
O1632 Fe1631 2.002 . S
O1632 C1649 1.295 . S
O1633 Fe1628 1.997 1_455 S
O1633 C1649 1.235 . S
O1634 Fe1628 2.002 . S
O1634 C1635 1.295 1_655 S
C1635 O1634 1.295 1_455 S
C1635 O1637 1.235 . S
C1636 O1641 1.287 . S
C1636 O1642 1.255 1_455 S
O1637 Fe1629 1.997 . S
O1637 C1635 1.235 . S
C1638 O1644 1.287 . S
C1638 O1645 1.255 . S
O1639 Fe1628 1.976 . S
O1639 C1646 1.287 . S
O1640 Fe1629 1.996 1_654 S
O1640 C1646 1.255 1_554 S
O1641 Fe1631 1.976 . S
O1641 C1636 1.287 . S
O1642 Fe1628 1.996 . S
O1642 C1636 1.255 1_655 S
C1643 O1647 1.295 . S
C1643 O1648 1.235 . S
O1644 Fe1629 1.976 1_554 S
O1644 C1638 1.287 . S
O1645 Fe1631 1.996 1_554 S
O1645 C1638 1.255 . S
C1646 O1639 1.287 . S
C1646 O1640 1.255 1_556 S
O1647 Fe1629 2.002 . S
O1647 C1643 1.295 . S
O1648 Fe1631 1.997 . S
O1648 C1643 1.235 . S
C1649 O1632 1.295 . S
C1649 O1633 1.235 . S
Fe1650 O1652 1.918 . S
Fe1650 O1655 1.997 . S
Fe1650 O1656 2.002 . S
Fe1650 O1661 1.976 . S
Fe1650 O1664 1.996 . S
Fe1651 O1652 1.918 . S
Fe1651 O1659 1.997 . S
Fe1651 O1662 1.996 . S
Fe1651 O1666 1.976 . S
Fe1651 O1669 2.002 . S
O1652 Fe1650 1.918 . S
O1652 Fe1651 1.918 . S
O1652 Fe1653 1.918 . S
Fe1653 O1652 1.918 . S
Fe1653 O1654 2.002 . S
Fe1653 O1663 1.976 . S
Fe1653 O1667 1.996 . S
Fe1653 O1670 1.997 . S
O1654 Fe1653 2.002 . S
O1654 C1671 1.295 . S
O1655 Fe1650 1.997 . S
O1655 C1671 1.235 . S
O1656 Fe1650 2.002 . S
O1656 C1657 1.295 . S
C1657 O1656 1.295 . S
C1657 O1659 1.235 . S
C1658 O1663 1.287 . S
C1658 O1664 1.255 . S
O1659 Fe1651 1.997 . S
O1659 C1657 1.235 . S
C1660 O1666 1.287 . S
C1660 O1667 1.255 . S
O1661 Fe1650 1.976 . S
O1661 C1668 1.287 . S
O1662 Fe1651 1.996 . S
O1662 C1668 1.255 . S
O1663 Fe1653 1.976 . S
O1663 C1658 1.287 . S
O1664 Fe1650 1.996 . S
O1664 C1658 1.255 . S
C1665 O1669 1.295 . S
C1665 O1670 1.235 . S
O1666 Fe1651 1.976 . S
O1666 C1660 1.287 . S
O1667 Fe1653 1.996 . S
O1667 C1660 1.255 . S
C1668 O1661 1.287 . S
C1668 O1662 1.255 . S
O1669 Fe1651 2.002 . S
O1669 C1665 1.295 . S
O1670 Fe1653 1.997 . S
O1670 C1665 1.235 . S
C1671 O1654 1.295 . S
C1671 O1655 1.235 . S
Fe1672 O1674 1.918 . S
Fe1672 O1677 1.997 . S
Fe1672 O1678 2.002 . S
Fe1672 O1683 1.976 1_554 S
Fe1672 O1686 1.996 1_554 S
Fe1673 O1674 1.918 . S
Fe1673 O1681 1.997 . S
Fe1673 O1684 1.996 1_554 S
Fe1673 O1688 1.976 . S
Fe1673 O1691 2.002 . S
O1674 Fe1672 1.918 . S
O1674 Fe1673 1.918 . S
O1674 Fe1675 1.918 . S
Fe1675 O1674 1.918 . S
Fe1675 O1676 2.002 . S
Fe1675 O1685 1.976 . S
Fe1675 O1689 1.996 . S
Fe1675 O1692 1.997 . S
O1676 Fe1675 2.002 . S
O1676 C1693 1.295 . S
O1677 Fe1672 1.997 . S
O1677 C1693 1.235 . S
O1678 Fe1672 2.002 . S
O1678 C1679 1.295 . S
C1679 O1678 1.295 . S
C1679 O1681 1.235 . S
C1680 O1685 1.287 . S
C1680 O1686 1.255 1_554 S
O1681 Fe1673 1.997 . S
O1681 C1679 1.235 . S
C1682 O1688 1.287 . S
C1682 O1689 1.255 . S
O1683 Fe1672 1.976 1_556 S
O1683 C1690 1.287 . S
O1684 Fe1673 1.996 1_556 S
O1684 C1690 1.255 . S
O1685 Fe1675 1.976 . S
O1685 C1680 1.287 . S
O1686 Fe1672 1.996 1_556 S
O1686 C1680 1.255 1_556 S
C1687 O1691 1.295 . S
C1687 O1692 1.235 . S
O1688 Fe1673 1.976 . S
O1688 C1682 1.287 . S
O1689 Fe1675 1.996 . S
O1689 C1682 1.255 . S
C1690 O1683 1.287 . S
C1690 O1684 1.255 . S
O1691 Fe1673 2.002 . S
O1691 C1687 1.295 . S
O1692 Fe1675 1.997 . S
O1692 C1687 1.235 . S
C1693 O1676 1.295 . S
C1693 O1677 1.235 . S
Fe1694 O1696 1.918 . S
Fe1694 O1699 1.997 . S
Fe1694 O1700 2.002 . S
Fe1694 O1705 1.976 . S
Fe1694 O1708 1.996 . S
Fe1695 O1696 1.918 . S
Fe1695 O1703 1.997 . S
Fe1695 O1706 1.996 . S
Fe1695 O1710 1.976 . S
Fe1695 O1713 2.002 . S
O1696 Fe1694 1.918 . S
O1696 Fe1695 1.918 . S
O1696 Fe1697 1.918 . S
Fe1697 O1696 1.918 . S
Fe1697 O1698 2.002 . S
Fe1697 O1707 1.976 . S
Fe1697 O1711 1.996 . S
Fe1697 O1714 1.997 . S
O1698 Fe1697 2.002 . S
O1698 C1715 1.295 . S
O1699 Fe1694 1.997 . S
O1699 C1715 1.235 . S
O1700 Fe1694 2.002 . S
O1700 C1701 1.295 . S
C1701 O1700 1.295 . S
C1701 O1703 1.235 . S
C1702 O1707 1.287 . S
C1702 O1708 1.255 . S
O1703 Fe1695 1.997 . S
O1703 C1701 1.235 . S
C1704 O1710 1.287 . S
C1704 O1711 1.255 . S
O1705 Fe1694 1.976 . S
O1705 C1712 1.287 . S
O1706 Fe1695 1.996 . S
O1706 C1712 1.255 . S
O1707 Fe1697 1.976 . S
O1707 C1702 1.287 . S
O1708 Fe1694 1.996 . S
O1708 C1702 1.255 . S
C1709 O1713 1.295 . S
C1709 O1714 1.235 . S
O1710 Fe1695 1.976 . S
O1710 C1704 1.287 . S
O1711 Fe1697 1.996 . S
O1711 C1704 1.255 . S
C1712 O1705 1.287 . S
C1712 O1706 1.255 . S
O1713 Fe1695 2.002 . S
O1713 C1709 1.295 . S
O1714 Fe1697 1.997 . S
O1714 C1709 1.235 . S
C1715 O1698 1.295 . S
C1715 O1699 1.235 . S
Fe1716 O1718 1.918 1_655 S
Fe1716 O1721 1.997 1_655 S
Fe1716 O1722 2.002 . S
Fe1716 O1727 1.976 . S
Fe1716 O1730 1.996 . S
Fe1717 O1718 1.918 . S
Fe1717 O1725 1.997 . S
Fe1717 O1728 1.996 1_455 S
Fe1717 O1732 1.976 . S
Fe1717 O1735 2.002 . S
O1718 Fe1716 1.918 1_455 S
O1718 Fe1717 1.918 . S
O1718 Fe1719 1.918 . S
Fe1719 O1718 1.918 . S
Fe1719 O1720 2.002 . S
Fe1719 O1729 1.976 . S
Fe1719 O1733 1.996 . S
Fe1719 O1736 1.997 . S
O1720 Fe1719 2.002 . S
O1720 C1737 1.295 . S
O1721 Fe1716 1.997 1_455 S
O1721 C1737 1.235 . S
O1722 Fe1716 2.002 . S
O1722 C1723 1.295 1_655 S
C1723 O1722 1.295 1_455 S
C1723 O1725 1.235 . S
C1724 O1729 1.287 . S
C1724 O1730 1.255 1_455 S
O1725 Fe1717 1.997 . S
O1725 C1723 1.235 . S
C1726 O1732 1.287 . S
C1726 O1733 1.255 . S
O1727 Fe1716 1.976 . S
O1727 C1734 1.287 . S
O1728 Fe1717 1.996 1_655 S
O1728 C1734 1.255 . S
O1729 Fe1719 1.976 . S
O1729 C1724 1.287 . S
O1730 Fe1716 1.996 . S
O1730 C1724 1.255 1_655 S
C1731 O1735 1.295 . S
C1731 O1736 1.235 . S
O1732 Fe1717 1.976 . S
O1732 C1726 1.287 . S
O1733 Fe1719 1.996 . S
O1733 C1726 1.255 . S
C1734 O1727 1.287 . S
C1734 O1728 1.255 . S
O1735 Fe1717 2.002 . S
O1735 C1731 1.295 . S
O1736 Fe1719 1.997 . S
O1736 C1731 1.235 . S
C1737 O1720 1.295 . S
C1737 O1721 1.235 . S
Fe1738 O1740 1.918 . S
Fe1738 O1743 1.997 . S
Fe1738 O1744 2.002 . S
Fe1738 O1749 1.976 . S
Fe1738 O1752 1.996 . S
Fe1739 O1740 1.918 . S
Fe1739 O1747 1.997 . S
Fe1739 O1750 1.996 . S
Fe1739 O1754 1.976 . S
Fe1739 O1757 2.002 . S
O1740 Fe1738 1.918 . S
O1740 Fe1739 1.918 . S
O1740 Fe1741 1.918 . S
Fe1741 O1740 1.918 . S
Fe1741 O1742 2.002 . S
Fe1741 O1751 1.976 . S
Fe1741 O1755 1.996 . S
Fe1741 O1758 1.997 . S
O1742 Fe1741 2.002 . S
O1742 C1759 1.295 . S
O1743 Fe1738 1.997 . S
O1743 C1759 1.235 . S
O1744 Fe1738 2.002 . S
O1744 C1745 1.295 . S
C1745 O1744 1.295 . S
C1745 O1747 1.235 . S
C1746 O1751 1.287 . S
C1746 O1752 1.255 . S
O1747 Fe1739 1.997 . S
O1747 C1745 1.235 . S
C1748 O1754 1.287 . S
C1748 O1755 1.255 . S
O1749 Fe1738 1.976 . S
O1749 C1756 1.287 . S
O1750 Fe1739 1.996 . S
O1750 C1756 1.255 . S
O1751 Fe1741 1.976 . S
O1751 C1746 1.287 . S
O1752 Fe1738 1.996 . S
O1752 C1746 1.255 . S
C1753 O1757 1.295 . S
C1753 O1758 1.235 . S
O1754 Fe1739 1.976 . S
O1754 C1748 1.287 . S
O1755 Fe1741 1.996 . S
O1755 C1748 1.255 . S
C1756 O1749 1.287 . S
C1756 O1750 1.255 . S
O1757 Fe1739 2.002 . S
O1757 C1753 1.295 . S
O1758 Fe1741 1.997 . S
O1758 C1753 1.235 . S
C1759 O1742 1.295 . S
C1759 O1743 1.235 . S
Fe1760 O1762 1.918 . S
Fe1760 O1765 1.997 . S
Fe1760 O1766 2.002 . S
Fe1760 O1771 1.976 . S
Fe1760 O1774 1.996 . S
Fe1761 O1762 1.918 . S
Fe1761 O1769 1.997 . S
Fe1761 O1772 1.996 . S
Fe1761 O1776 1.976 . S
Fe1761 O1779 2.002 . S
O1762 Fe1760 1.918 . S
O1762 Fe1761 1.918 . S
O1762 Fe1763 1.918 . S
Fe1763 O1762 1.918 . S
Fe1763 O1764 2.002 . S
Fe1763 O1773 1.976 . S
Fe1763 O1777 1.996 . S
Fe1763 O1780 1.997 . S
O1764 Fe1763 2.002 . S
O1764 C1781 1.295 . S
O1765 Fe1760 1.997 . S
O1765 C1781 1.235 . S
O1766 Fe1760 2.002 . S
O1766 C1767 1.295 . S
C1767 O1766 1.295 . S
C1767 O1769 1.235 . S
C1768 O1773 1.287 . S
C1768 O1774 1.255 . S
O1769 Fe1761 1.997 . S
O1769 C1767 1.235 . S
C1770 O1776 1.287 . S
C1770 O1777 1.255 . S
O1771 Fe1760 1.976 . S
O1771 C1778 1.287 . S
O1772 Fe1761 1.996 . S
O1772 C1778 1.255 . S
O1773 Fe1763 1.976 . S
O1773 C1768 1.287 . S
O1774 Fe1760 1.996 . S
O1774 C1768 1.255 . S
C1775 O1779 1.295 . S
C1775 O1780 1.235 . S
O1776 Fe1761 1.976 . S
O1776 C1770 1.287 . S
O1777 Fe1763 1.996 . S
O1777 C1770 1.255 . S
C1778 O1771 1.287 . S
C1778 O1772 1.255 . S
O1779 Fe1761 2.002 . S
O1779 C1775 1.295 . S
O1780 Fe1763 1.997 . S
O1780 C1775 1.235 . S
C1781 O1764 1.295 . S
C1781 O1765 1.235 . S
Fe1782 O1784 1.918 . S
Fe1782 O1787 1.997 . S
Fe1782 O1788 2.002 . S
Fe1782 O1793 1.976 . S
Fe1782 O1796 1.996 . S
Fe1783 O1784 1.918 . S
Fe1783 O1791 1.997 . S
Fe1783 O1794 1.996 . S
Fe1783 O1798 1.976 . S
Fe1783 O1801 2.002 . S
O1784 Fe1782 1.918 . S
O1784 Fe1783 1.918 . S
O1784 Fe1785 1.918 . S
Fe1785 O1784 1.918 . S
Fe1785 O1786 2.002 . S
Fe1785 O1795 1.976 . S
Fe1785 O1799 1.996 . S
Fe1785 O1802 1.997 . S
O1786 Fe1785 2.002 . S
O1786 C1803 1.295 . S
O1787 Fe1782 1.997 . S
O1787 C1803 1.235 . S
O1788 Fe1782 2.002 . S
O1788 C1789 1.295 . S
C1789 O1788 1.295 . S
C1789 O1791 1.235 . S
C1790 O1795 1.287 . S
C1790 O1796 1.255 . S
O1791 Fe1783 1.997 . S
O1791 C1789 1.235 . S
C1792 O1798 1.287 . S
C1792 O1799 1.255 . S
O1793 Fe1782 1.976 . S
O1793 C1800 1.287 . S
O1794 Fe1783 1.996 . S
O1794 C1800 1.255 . S
O1795 Fe1785 1.976 . S
O1795 C1790 1.287 . S
O1796 Fe1782 1.996 . S
O1796 C1790 1.255 . S
C1797 O1801 1.295 . S
C1797 O1802 1.235 . S
O1798 Fe1783 1.976 . S
O1798 C1792 1.287 . S
O1799 Fe1785 1.996 . S
O1799 C1792 1.255 . S
C1800 O1793 1.287 . S
C1800 O1794 1.255 . S
O1801 Fe1783 2.002 . S
O1801 C1797 1.295 . S
O1802 Fe1785 1.997 . S
O1802 C1797 1.235 . S
C1803 O1786 1.295 . S
C1803 O1787 1.235 . S
Fe1804 O1806 1.918 . S
Fe1804 O1809 1.997 . S
Fe1804 O1810 2.002 . S
Fe1804 O1815 1.976 . S
Fe1804 O1818 1.996 . S
Fe1805 O1806 1.918 . S
Fe1805 O1813 1.997 . S
Fe1805 O1816 1.996 1_455 S
Fe1805 O1820 1.976 1_455 S
Fe1805 O1823 2.002 . S
O1806 Fe1804 1.918 . S
O1806 Fe1805 1.918 . S
O1806 Fe1807 1.918 . S
Fe1807 O1806 1.918 . S
Fe1807 O1808 2.002 . S
Fe1807 O1817 1.976 . S
Fe1807 O1821 1.996 1_455 S
Fe1807 O1824 1.997 . S
O1808 Fe1807 2.002 . S
O1808 C1825 1.295 . S
O1809 Fe1804 1.997 . S
O1809 C1825 1.235 . S
O1810 Fe1804 2.002 . S
O1810 C1811 1.295 . S
C1811 O1810 1.295 . S
C1811 O1813 1.235 . S
C1812 O1817 1.287 . S
C1812 O1818 1.255 . S
O1813 Fe1805 1.997 . S
O1813 C1811 1.235 . S
C1814 O1820 1.287 . S
C1814 O1821 1.255 . S
O1815 Fe1804 1.976 . S
O1815 C1822 1.287 . S
O1816 Fe1805 1.996 1_655 S
O1816 C1822 1.255 1_655 S
O1817 Fe1807 1.976 . S
O1817 C1812 1.287 . S
O1818 Fe1804 1.996 . S
O1818 C1812 1.255 . S
C1819 O1823 1.295 . S
C1819 O1824 1.235 . S
O1820 Fe1805 1.976 1_655 S
O1820 C1814 1.287 . S
O1821 Fe1807 1.996 1_655 S
O1821 C1814 1.255 . S
C1822 O1815 1.287 . S
C1822 O1816 1.255 1_455 S
O1823 Fe1805 2.002 . S
O1823 C1819 1.295 . S
O1824 Fe1807 1.997 . S
O1824 C1819 1.235 . S
C1825 O1808 1.295 . S
C1825 O1809 1.235 . S
Fe1826 O1828 1.918 . S
Fe1826 O1831 1.997 . S
Fe1826 O1832 2.002 . S
Fe1826 O1837 1.976 . S
Fe1826 O1840 1.996 . S
Fe1827 O1828 1.918 . S
Fe1827 O1835 1.997 . S
Fe1827 O1838 1.996 . S
Fe1827 O1842 1.976 . S
Fe1827 O1845 2.002 . S
O1828 Fe1826 1.918 . S
O1828 Fe1827 1.918 . S
O1828 Fe1829 1.918 . S
Fe1829 O1828 1.918 . S
Fe1829 O1830 2.002 . S
Fe1829 O1839 1.976 . S
Fe1829 O1843 1.996 . S
Fe1829 O1846 1.997 . S
O1830 Fe1829 2.002 . S
O1830 C1847 1.295 . S
O1831 Fe1826 1.997 . S
O1831 C1847 1.235 . S
O1832 Fe1826 2.002 . S
O1832 C1833 1.295 . S
C1833 O1832 1.295 . S
C1833 O1835 1.235 . S
C1834 O1839 1.287 . S
C1834 O1840 1.255 . S
O1835 Fe1827 1.997 . S
O1835 C1833 1.235 . S
C1836 O1842 1.287 . S
C1836 O1843 1.255 . S
O1837 Fe1826 1.976 . S
O1837 C1844 1.287 . S
O1838 Fe1827 1.996 . S
O1838 C1844 1.255 . S
O1839 Fe1829 1.976 . S
O1839 C1834 1.287 . S
O1840 Fe1826 1.996 . S
O1840 C1834 1.255 . S
C1841 O1845 1.295 . S
C1841 O1846 1.235 . S
O1842 Fe1827 1.976 . S
O1842 C1836 1.287 . S
O1843 Fe1829 1.996 . S
O1843 C1836 1.255 . S
C1844 O1837 1.287 . S
C1844 O1838 1.255 . S
O1845 Fe1827 2.002 . S
O1845 C1841 1.295 . S
O1846 Fe1829 1.997 . S
O1846 C1841 1.235 . S
C1847 O1830 1.295 . S
C1847 O1831 1.235 . S
Fe1848 O1850 1.918 . S
Fe1848 O1853 1.997 . S
Fe1848 O1854 2.002 . S
Fe1848 O1859 1.976 . S
Fe1848 O1862 1.996 . S
Fe1849 O1850 1.918 . S
Fe1849 O1857 1.997 . S
Fe1849 O1860 1.996 . S
Fe1849 O1864 1.976 . S
Fe1849 O1867 2.002 . S
O1850 Fe1848 1.918 . S
O1850 Fe1849 1.918 . S
O1850 Fe1851 1.918 . S
Fe1851 O1850 1.918 . S
Fe1851 O1852 2.002 . S
Fe1851 O1861 1.976 . S
Fe1851 O1865 1.996 . S
Fe1851 O1868 1.997 . S
O1852 Fe1851 2.002 . S
O1852 C1869 1.295 . S
O1853 Fe1848 1.997 . S
O1853 C1869 1.235 . S
O1854 Fe1848 2.002 . S
O1854 C1855 1.295 . S
C1855 O1854 1.295 . S
C1855 O1857 1.235 . S
C1856 O1861 1.287 . S
C1856 O1862 1.255 . S
O1857 Fe1849 1.997 . S
O1857 C1855 1.235 . S
C1858 O1864 1.287 . S
C1858 O1865 1.255 . S
O1859 Fe1848 1.976 . S
O1859 C1866 1.287 . S
O1860 Fe1849 1.996 . S
O1860 C1866 1.255 . S
O1861 Fe1851 1.976 . S
O1861 C1856 1.287 . S
O1862 Fe1848 1.996 . S
O1862 C1856 1.255 . S
C1863 O1867 1.295 . S
C1863 O1868 1.235 . S
O1864 Fe1849 1.976 . S
O1864 C1858 1.287 . S
O1865 Fe1851 1.996 . S
O1865 C1858 1.255 . S
C1866 O1859 1.287 . S
C1866 O1860 1.255 . S
O1867 Fe1849 2.002 . S
O1867 C1863 1.295 . S
O1868 Fe1851 1.997 . S
O1868 C1863 1.235 . S
C1869 O1852 1.295 . S
C1869 O1853 1.235 . S
Fe1870 O1872 1.918 . S
Fe1870 O1875 1.997 . S
Fe1870 O1876 2.002 . S
Fe1870 O1881 1.976 . S
Fe1870 O1884 1.996 . S
Fe1871 O1872 1.918 . S
Fe1871 O1879 1.997 . S
Fe1871 O1882 1.996 . S
Fe1871 O1886 1.976 . S
Fe1871 O1889 2.002 . S
O1872 Fe1870 1.918 . S
O1872 Fe1871 1.918 . S
O1872 Fe1873 1.918 . S
Fe1873 O1872 1.918 . S
Fe1873 O1874 2.002 . S
Fe1873 O1883 1.976 . S
Fe1873 O1887 1.996 . S
Fe1873 O1890 1.997 . S
O1874 Fe1873 2.002 . S
O1874 C1891 1.295 . S
O1875 Fe1870 1.997 . S
O1875 C1891 1.235 . S
O1876 Fe1870 2.002 . S
O1876 C1877 1.295 . S
C1877 O1876 1.295 . S
C1877 O1879 1.235 . S
C1878 O1883 1.287 . S
C1878 O1884 1.255 . S
O1879 Fe1871 1.997 . S
O1879 C1877 1.235 . S
C1880 O1886 1.287 . S
C1880 O1887 1.255 . S
O1881 Fe1870 1.976 . S
O1881 C1888 1.287 . S
O1882 Fe1871 1.996 . S
O1882 C1888 1.255 . S
O1883 Fe1873 1.976 . S
O1883 C1878 1.287 . S
O1884 Fe1870 1.996 . S
O1884 C1878 1.255 . S
C1885 O1889 1.295 . S
C1885 O1890 1.235 . S
O1886 Fe1871 1.976 . S
O1886 C1880 1.287 . S
O1887 Fe1873 1.996 . S
O1887 C1880 1.255 . S
C1888 O1881 1.287 . S
C1888 O1882 1.255 . S
O1889 Fe1871 2.002 . S
O1889 C1885 1.295 . S
O1890 Fe1873 1.997 . S
O1890 C1885 1.235 . S
C1891 O1874 1.295 . S
C1891 O1875 1.235 . S
Fe1892 O1894 1.918 . S
Fe1892 O1897 1.997 . S
Fe1892 O1898 2.002 . S
Fe1892 O1903 1.976 . S
Fe1892 O1906 1.996 1_455 S
Fe1893 O1894 1.918 . S
Fe1893 O1901 1.997 . S
Fe1893 O1904 1.996 . S
Fe1893 O1908 1.976 . S
Fe1893 O1911 2.002 . S
O1894 Fe1892 1.918 . S
O1894 Fe1893 1.918 . S
O1894 Fe1895 1.918 . S
Fe1895 O1894 1.918 . S
Fe1895 O1896 2.002 . S
Fe1895 O1905 1.976 1_455 S
Fe1895 O1909 1.996 1_455 S
Fe1895 O1912 1.997 . S
O1896 Fe1895 2.002 . S
O1896 C1913 1.295 . S
O1897 Fe1892 1.997 . S
O1897 C1913 1.235 . S
O1898 Fe1892 2.002 . S
O1898 C1899 1.295 . S
C1899 O1898 1.295 . S
C1899 O1901 1.235 . S
C1900 O1905 1.287 . S
C1900 O1906 1.255 . S
O1901 Fe1893 1.997 . S
O1901 C1899 1.235 . S
C1902 O1908 1.287 . S
C1902 O1909 1.255 1_455 S
O1903 Fe1892 1.976 . S
O1903 C1910 1.287 . S
O1904 Fe1893 1.996 . S
O1904 C1910 1.255 . S
O1905 Fe1895 1.976 1_655 S
O1905 C1900 1.287 . S
O1906 Fe1892 1.996 1_655 S
O1906 C1900 1.255 . S
C1907 O1911 1.295 . S
C1907 O1912 1.235 . S
O1908 Fe1893 1.976 . S
O1908 C1902 1.287 . S
O1909 Fe1895 1.996 1_655 S
O1909 C1902 1.255 1_655 S
C1910 O1903 1.287 . S
C1910 O1904 1.255 . S
O1911 Fe1893 2.002 . S
O1911 C1907 1.295 . S
O1912 Fe1895 1.997 . S
O1912 C1907 1.235 . S
C1913 O1896 1.295 . S
C1913 O1897 1.235 . S
Fe1914 O1916 1.918 . S
Fe1914 O1919 1.997 . S
Fe1914 O1920 2.002 . S
Fe1914 O1925 1.976 . S
Fe1914 O1928 1.996 . S
Fe1915 O1916 1.918 . S
Fe1915 O1923 1.997 . S
Fe1915 O1926 1.996 . S
Fe1915 O1930 1.976 . S
Fe1915 O1933 2.002 . S
O1916 Fe1914 1.918 . S
O1916 Fe1915 1.918 . S
O1916 Fe1917 1.918 . S
Fe1917 O1916 1.918 . S
Fe1917 O1918 2.002 . S
Fe1917 O1927 1.976 . S
Fe1917 O1931 1.996 . S
Fe1917 O1934 1.997 . S
O1918 Fe1917 2.002 . S
O1918 C1935 1.295 . S
O1919 Fe1914 1.997 . S
O1919 C1935 1.235 . S
O1920 Fe1914 2.002 . S
O1920 C1921 1.295 . S
C1921 O1920 1.295 . S
C1921 O1923 1.235 . S
C1922 O1927 1.287 . S
C1922 O1928 1.255 . S
O1923 Fe1915 1.997 . S
O1923 C1921 1.235 . S
C1924 O1930 1.287 . S
C1924 O1931 1.255 . S
O1925 Fe1914 1.976 . S
O1925 C1932 1.287 . S
O1926 Fe1915 1.996 . S
O1926 C1932 1.255 . S
O1927 Fe1917 1.976 . S
O1927 C1922 1.287 . S
O1928 Fe1914 1.996 . S
O1928 C1922 1.255 . S
C1929 O1933 1.295 . S
C1929 O1934 1.235 . S
O1930 Fe1915 1.976 . S
O1930 C1924 1.287 . S
O1931 Fe1917 1.996 . S
O1931 C1924 1.255 . S
C1932 O1925 1.287 . S
C1932 O1926 1.255 . S
O1933 Fe1915 2.002 . S
O1933 C1929 1.295 . S
O1934 Fe1917 1.997 . S
O1934 C1929 1.235 . S
C1935 O1918 1.295 . S
C1935 O1919 1.235 . S
Fe1936 O1938 1.918 . S
Fe1936 O1941 1.997 . S
Fe1936 O1942 2.002 . S
Fe1936 O1947 1.976 . S
Fe1936 O1950 1.996 . S
Fe1937 O1938 1.918 . S
Fe1937 O1945 1.997 . S
Fe1937 O1948 1.996 . S
Fe1937 O1952 1.976 . S
Fe1937 O1955 2.002 . S
O1938 Fe1936 1.918 . S
O1938 Fe1937 1.918 . S
O1938 Fe1939 1.918 . S
Fe1939 O1938 1.918 . S
Fe1939 O1940 2.002 . S
Fe1939 O1949 1.976 . S
Fe1939 O1953 1.996 . S
Fe1939 O1956 1.997 . S
O1940 Fe1939 2.002 . S
O1940 C1957 1.295 . S
O1941 Fe1936 1.997 . S
O1941 C1957 1.235 . S
O1942 Fe1936 2.002 . S
O1942 C1943 1.295 . S
C1943 O1942 1.295 . S
C1943 O1945 1.235 . S
C1944 O1949 1.287 . S
C1944 O1950 1.255 . S
O1945 Fe1937 1.997 . S
O1945 C1943 1.235 . S
C1946 O1952 1.287 . S
C1946 O1953 1.255 . S
O1947 Fe1936 1.976 . S
O1947 C1954 1.287 . S
O1948 Fe1937 1.996 . S
O1948 C1954 1.255 . S
O1949 Fe1939 1.976 . S
O1949 C1944 1.287 . S
O1950 Fe1936 1.996 . S
O1950 C1944 1.255 . S
C1951 O1955 1.295 . S
C1951 O1956 1.235 . S
O1952 Fe1937 1.976 . S
O1952 C1946 1.287 . S
O1953 Fe1939 1.996 . S
O1953 C1946 1.255 . S
C1954 O1947 1.287 . S
C1954 O1948 1.255 . S
O1955 Fe1937 2.002 . S
O1955 C1951 1.295 . S
O1956 Fe1939 1.997 . S
O1956 C1951 1.235 . S
C1957 O1940 1.295 . S
C1957 O1941 1.235 . S
Fe1958 O1960 1.918 . S
Fe1958 O1963 1.997 . S
Fe1958 O1964 2.002 . S
Fe1958 O1969 1.976 . S
Fe1958 O1972 1.996 1_545 S
Fe1959 O1960 1.918 . S
Fe1959 O1967 1.997 . S
Fe1959 O1970 1.996 . S
Fe1959 O1974 1.976 . S
Fe1959 O1977 2.002 . S
O1960 Fe1958 1.918 . S
O1960 Fe1959 1.918 . S
O1960 Fe1961 1.918 . S
Fe1961 O1960 1.918 . S
Fe1961 O1962 2.002 . S
Fe1961 O1971 1.976 1_545 S
Fe1961 O1975 1.996 1_545 S
Fe1961 O1978 1.997 . S
O1962 Fe1961 2.002 . S
O1962 C1979 1.295 . S
O1963 Fe1958 1.997 . S
O1963 C1979 1.235 . S
O1964 Fe1958 2.002 . S
O1964 C1965 1.295 . S
C1965 O1964 1.295 . S
C1965 O1967 1.235 . S
C1966 O1971 1.287 . S
C1966 O1972 1.255 . S
O1967 Fe1959 1.997 . S
O1967 C1965 1.235 . S
C1968 O1974 1.287 . S
C1968 O1975 1.255 1_545 S
O1969 Fe1958 1.976 . S
O1969 C1976 1.287 . S
O1970 Fe1959 1.996 . S
O1970 C1976 1.255 . S
O1971 Fe1961 1.976 1_565 S
O1971 C1966 1.287 . S
O1972 Fe1958 1.996 1_565 S
O1972 C1966 1.255 . S
C1973 O1977 1.295 . S
C1973 O1978 1.235 . S
O1974 Fe1959 1.976 . S
O1974 C1968 1.287 . S
O1975 Fe1961 1.996 1_565 S
O1975 C1968 1.255 1_565 S
C1976 O1969 1.287 . S
C1976 O1970 1.255 . S
O1977 Fe1959 2.002 . S
O1977 C1973 1.295 . S
O1978 Fe1961 1.997 . S
O1978 C1973 1.235 . S
C1979 O1962 1.295 . S
C1979 O1963 1.235 . S
Fe1980 O1982 1.918 . S
Fe1980 O1985 1.997 . S
Fe1980 O1986 2.002 . S
Fe1980 O1991 1.976 . S
Fe1980 O1994 1.996 . S
Fe1981 O1982 1.918 . S
Fe1981 O1989 1.997 . S
Fe1981 O1992 1.996 . S
Fe1981 O1996 1.976 . S
Fe1981 O1999 2.002 . S
O1982 Fe1980 1.918 . S
O1982 Fe1981 1.918 . S
O1982 Fe1983 1.918 . S
Fe1983 O1982 1.918 . S
Fe1983 O1984 2.002 . S
Fe1983 O1993 1.976 . S
Fe1983 O1997 1.996 . S
Fe1983 O2000 1.997 . S
O1984 Fe1983 2.002 . S
O1984 C2001 1.295 . S
O1985 Fe1980 1.997 . S
O1985 C2001 1.235 . S
O1986 Fe1980 2.002 . S
O1986 C1987 1.295 . S
C1987 O1986 1.295 . S
C1987 O1989 1.235 . S
C1988 O1993 1.287 . S
C1988 O1994 1.255 . S
O1989 Fe1981 1.997 . S
O1989 C1987 1.235 . S
C1990 O1996 1.287 . S
C1990 O1997 1.255 . S
O1991 Fe1980 1.976 . S
O1991 C1998 1.287 . S
O1992 Fe1981 1.996 . S
O1992 C1998 1.255 . S
O1993 Fe1983 1.976 . S
O1993 C1988 1.287 . S
O1994 Fe1980 1.996 . S
O1994 C1988 1.255 . S
C1995 O1999 1.295 . S
C1995 O2000 1.235 . S
O1996 Fe1981 1.976 . S
O1996 C1990 1.287 . S
O1997 Fe1983 1.996 . S
O1997 C1990 1.255 . S
C1998 O1991 1.287 . S
C1998 O1992 1.255 . S
O1999 Fe1981 2.002 . S
O1999 C1995 1.295 . S
O2000 Fe1983 1.997 . S
O2000 C1995 1.235 . S
C2001 O1984 1.295 . S
C2001 O1985 1.235 . S
Fe2002 O2004 1.918 1_556 S
Fe2002 O2007 1.997 1_556 S
Fe2002 O2008 2.002 . S
Fe2002 O2013 1.976 . S
Fe2002 O2016 1.996 . S
Fe2003 O2004 1.918 . S
Fe2003 O2011 1.997 . S
Fe2003 O2014 1.996 1_564 S
Fe2003 O2018 1.976 1_565 S
Fe2003 O2021 2.002 . S
O2004 Fe2002 1.918 1_554 S
O2004 Fe2003 1.918 . S
O2004 Fe2005 1.918 . S
Fe2005 O2004 1.918 . S
Fe2005 O2006 2.002 . S
Fe2005 O2015 1.976 . S
Fe2005 O2019 1.996 1_565 S
Fe2005 O2022 1.997 . S
O2006 Fe2005 2.002 . S
O2006 C2023 1.295 . S
O2007 Fe2002 1.997 1_554 S
O2007 C2023 1.235 . S
O2008 Fe2002 2.002 . S
O2008 C2009 1.295 1_556 S
C2009 O2008 1.295 1_554 S
C2009 O2011 1.235 . S
C2010 O2015 1.287 . S
C2010 O2016 1.255 1_554 S
O2011 Fe2003 1.997 . S
O2011 C2009 1.235 . S
C2012 O2018 1.287 . S
C2012 O2019 1.255 . S
O2013 Fe2002 1.976 . S
O2013 C2020 1.287 . S
O2014 Fe2003 1.996 1_546 S
O2014 C2020 1.255 1_545 S
O2015 Fe2005 1.976 . S
O2015 C2010 1.287 . S
O2016 Fe2002 1.996 . S
O2016 C2010 1.255 1_556 S
C2017 O2021 1.295 . S
C2017 O2022 1.235 . S
O2018 Fe2003 1.976 1_545 S
O2018 C2012 1.287 . S
O2019 Fe2005 1.996 1_545 S
O2019 C2012 1.255 . S
C2020 O2013 1.287 . S
C2020 O2014 1.255 1_565 S
O2021 Fe2003 2.002 . S
O2021 C2017 1.295 . S
O2022 Fe2005 1.997 . S
O2022 C2017 1.235 . S
C2023 O2006 1.295 . S
C2023 O2007 1.235 . S
Fe2024 O2026 1.918 . S
Fe2024 O2029 1.997 . S
Fe2024 O2030 2.002 . S
Fe2024 O2035 1.976 . S
Fe2024 O2038 1.996 . S
Fe2025 O2026 1.918 . S
Fe2025 O2033 1.997 . S
Fe2025 O2036 1.996 . S
Fe2025 O2040 1.976 . S
Fe2025 O2043 2.002 . S
O2026 Fe2024 1.918 . S
O2026 Fe2025 1.918 . S
O2026 Fe2027 1.918 . S
Fe2027 O2026 1.918 . S
Fe2027 O2028 2.002 . S
Fe2027 O2037 1.976 . S
Fe2027 O2041 1.996 . S
Fe2027 O2044 1.997 . S
O2028 Fe2027 2.002 . S
O2028 C2045 1.295 . S
O2029 Fe2024 1.997 . S
O2029 C2045 1.235 . S
O2030 Fe2024 2.002 . S
O2030 C2031 1.295 . S
C2031 O2030 1.295 . S
C2031 O2033 1.235 . S
C2032 O2037 1.287 . S
C2032 O2038 1.255 . S
O2033 Fe2025 1.997 . S
O2033 C2031 1.235 . S
C2034 O2040 1.287 . S
C2034 O2041 1.255 . S
O2035 Fe2024 1.976 . S
O2035 C2042 1.287 . S
O2036 Fe2025 1.996 . S
O2036 C2042 1.255 . S
O2037 Fe2027 1.976 . S
O2037 C2032 1.287 . S
O2038 Fe2024 1.996 . S
O2038 C2032 1.255 . S
C2039 O2043 1.295 . S
C2039 O2044 1.235 . S
O2040 Fe2025 1.976 . S
O2040 C2034 1.287 . S
O2041 Fe2027 1.996 . S
O2041 C2034 1.255 . S
C2042 O2035 1.287 . S
C2042 O2036 1.255 . S
O2043 Fe2025 2.002 . S
O2043 C2039 1.295 . S
O2044 Fe2027 1.997 . S
O2044 C2039 1.235 . S
C2045 O2028 1.295 . S
C2045 O2029 1.235 . S
Fe2046 O2048 1.918 . S
Fe2046 O2051 1.997 . S
Fe2046 O2052 2.002 . S
Fe2046 O2057 1.976 . S
Fe2046 O2060 1.996 . S
Fe2047 O2048 1.918 1_554 S
Fe2047 O2055 1.997 1_554 S
Fe2047 O2058 1.996 . S
Fe2047 O2062 1.976 . S
Fe2047 O2065 2.002 . S
O2048 Fe2046 1.918 . S
O2048 Fe2047 1.918 1_556 S
O2048 Fe2049 1.918 . S
Fe2049 O2048 1.918 . S
Fe2049 O2050 2.002 . S
Fe2049 O2059 1.976 . S
Fe2049 O2063 1.996 1_556 S
Fe2049 O2066 1.997 . S
O2050 Fe2049 2.002 . S
O2050 C2067 1.295 . S
O2051 Fe2046 1.997 . S
O2051 C2067 1.235 . S
O2052 Fe2046 2.002 . S
O2052 C2053 1.295 . S
C2053 O2052 1.295 . S
C2053 O2055 1.235 . S
C2054 O2059 1.287 . S
C2054 O2060 1.255 . S
O2055 Fe2047 1.997 1_556 S
O2055 C2053 1.235 . S
C2056 O2062 1.287 . S
C2056 O2063 1.255 . S
O2057 Fe2046 1.976 . S
O2057 C2064 1.287 . S
O2058 Fe2047 1.996 . S
O2058 C2064 1.255 1_554 S
O2059 Fe2049 1.976 . S
O2059 C2054 1.287 . S
O2060 Fe2046 1.996 . S
O2060 C2054 1.255 . S
C2061 O2065 1.295 1_556 S
C2061 O2066 1.235 . S
O2062 Fe2047 1.976 . S
O2062 C2056 1.287 . S
O2063 Fe2049 1.996 1_554 S
O2063 C2056 1.255 . S
C2064 O2057 1.287 . S
C2064 O2058 1.255 1_556 S
O2065 Fe2047 2.002 . S
O2065 C2061 1.295 1_554 S
O2066 Fe2049 1.997 . S
O2066 C2061 1.235 . S
C2067 O2050 1.295 . S
C2067 O2051 1.235 . S
Fe2068 O2070 1.918 . S
Fe2068 O2073 1.997 . S
Fe2068 O2074 2.002 . S
Fe2068 O2079 1.976 . S
Fe2068 O2082 1.996 . S
Fe2069 O2070 1.918 . S
Fe2069 O2077 1.997 . S
Fe2069 O2080 1.996 . S
Fe2069 O2084 1.976 . S
Fe2069 O2087 2.002 . S
O2070 Fe2068 1.918 . S
O2070 Fe2069 1.918 . S
O2070 Fe2071 1.918 . S
Fe2071 O2070 1.918 . S
Fe2071 O2072 2.002 . S
Fe2071 O2081 1.976 . S
Fe2071 O2085 1.996 . S
Fe2071 O2088 1.997 . S
O2072 Fe2071 2.002 . S
O2072 C2089 1.295 . S
O2073 Fe2068 1.997 . S
O2073 C2089 1.235 . S
O2074 Fe2068 2.002 . S
O2074 C2075 1.295 . S
C2075 O2074 1.295 . S
C2075 O2077 1.235 . S
C2076 O2081 1.287 . S
C2076 O2082 1.255 . S
O2077 Fe2069 1.997 . S
O2077 C2075 1.235 . S
C2078 O2084 1.287 . S
C2078 O2085 1.255 . S
O2079 Fe2068 1.976 . S
O2079 C2086 1.287 . S
O2080 Fe2069 1.996 . S
O2080 C2086 1.255 . S
O2081 Fe2071 1.976 . S
O2081 C2076 1.287 . S
O2082 Fe2068 1.996 . S
O2082 C2076 1.255 . S
C2083 O2087 1.295 . S
C2083 O2088 1.235 . S
O2084 Fe2069 1.976 . S
O2084 C2078 1.287 . S
O2085 Fe2071 1.996 . S
O2085 C2078 1.255 . S
C2086 O2079 1.287 . S
C2086 O2080 1.255 . S
O2087 Fe2069 2.002 . S
O2087 C2083 1.295 . S
O2088 Fe2071 1.997 . S
O2088 C2083 1.235 . S
C2089 O2072 1.295 . S
C2089 O2073 1.235 . S
Fe2090 O2092 1.918 . S
Fe2090 O2095 1.997 . S
Fe2090 O2096 2.002 . S
Fe2090 O2101 1.976 . S
Fe2090 O2104 1.996 . S
Fe2091 O2092 1.918 . S
Fe2091 O2099 1.997 . S
Fe2091 O2102 1.996 . S
Fe2091 O2106 1.976 . S
Fe2091 O2109 2.002 . S
O2092 Fe2090 1.918 . S
O2092 Fe2091 1.918 . S
O2092 Fe2093 1.918 . S
Fe2093 O2092 1.918 . S
Fe2093 O2094 2.002 . S
Fe2093 O2103 1.976 . S
Fe2093 O2107 1.996 . S
Fe2093 O2110 1.997 . S
O2094 Fe2093 2.002 . S
O2094 C2111 1.295 . S
O2095 Fe2090 1.997 . S
O2095 C2111 1.235 . S
O2096 Fe2090 2.002 . S
O2096 C2097 1.295 . S
C2097 O2096 1.295 . S
C2097 O2099 1.235 . S
C2098 O2103 1.287 . S
C2098 O2104 1.255 . S
O2099 Fe2091 1.997 . S
O2099 C2097 1.235 . S
C2100 O2106 1.287 . S
C2100 O2107 1.255 . S
O2101 Fe2090 1.976 . S
O2101 C2108 1.287 . S
O2102 Fe2091 1.996 . S
O2102 C2108 1.255 . S
O2103 Fe2093 1.976 . S
O2103 C2098 1.287 . S
O2104 Fe2090 1.996 . S
O2104 C2098 1.255 . S
C2105 O2109 1.295 . S
C2105 O2110 1.235 . S
O2106 Fe2091 1.976 . S
O2106 C2100 1.287 . S
O2107 Fe2093 1.996 . S
O2107 C2100 1.255 . S
C2108 O2101 1.287 . S
C2108 O2102 1.255 . S
O2109 Fe2091 2.002 . S
O2109 C2105 1.295 . S
O2110 Fe2093 1.997 . S
O2110 C2105 1.235 . S
C2111 O2094 1.295 . S
C2111 O2095 1.235 . S
C1118 C8 1.739 1_655 S
C30 C1132 1.739 1_655 S
C62 C1064 1.739 . S
C84 C1086 1.739 . S
C1206 C98 1.739 1_655 S
C1228 C120 1.739 . S
C1154 C142 1.739 . S
C1176 C164 1.739 1_455 S
C274 C184 1.739 1_565 S
C208 C294 1.739 . S
C238 C316 1.739 1_565 S
C250 C338 1.739 1_554 S
C360 C1492 1.739 1_554 S
C1526 C392 1.739 1_554 S
C406 C492 1.739 . S
C436 C1426 1.739 . S
C1570 C448 1.739 1_545 S
C1448 C470 1.739 . S
C1504 C524 1.739 . S
C1636 C546 1.637 1_455 S
C1668 C568 1.637 1_655 S
C580 C1602 1.637 . S
C602 C1624 1.637 . S
C624 C1724 1.637 1_655 S
C648 C1746 1.637 . S
C1682 C668 1.637 . S
C1702 C690 1.637 1_655 S
C714 C802 1.637 1_565 S
C824 C734 1.637 . S
C854 C766 1.637 1_565 S
C780 C866 1.637 1_556 S
C898 C2010 1.637 1_556 S
C2064 C920 1.637 1_556 S
C1022 C942 1.637 . S
C1946 C954 1.637 . S
C2098 C986 1.637 1_565 S
C1976 C1000 1.637 . S
C1042 C2042 1.637 . S
C1330 C1240 1.739 . S
C1360 C1264 1.739 1_556 S
C1286 C1372 1.739 . S
C1306 C1394 1.739 . S
C1462 C1548 1.739 1_545 S
C1858 C1770 1.637 . S
C1800 C1880 1.637 1_556 S
C1910 C1812 1.637 . S
C1922 C1834 1.637 . S
C2078 C1998 1.637 1_545 S
C1913 C18 1.682 . S
C873 C40 1.682 . S
C54 C1855 1.682 . S
C76 C821 1.682 . S
C1819 C96 1.682 . S
C777 C118 1.683 . S
C140 C1767 1.682 . S
C162 C741 1.682 . S
C194 C997 1.682 . S
C206 C1019 1.682 . S
C901 C230 1.682 . S
C260 C1049 1.682 . S
C272 C2017 1.682 . S
C304 C2045 1.682 . S
C1979 C326 1.682 . S
C348 C945 1.682 . S
C370 C1679 1.682 . S
C549 C384 1.682 . S
C1627 C404 1.682 . S
C587 C428 1.682 . S
C609 C458 1.682 . S
C1731 C480 1.683 . S
C1753 C502 1.682 . S
C516 C1709 1.683 . S
C1371 C536 1.750 . S
C337 C558 1.750 . S
C1341 C582 1.750 . S
C293 C604 1.750 . S
C1297 C626 1.750 . S
C249 C656 1.750 . S
C670 C1239 1.750 . S
C219 C692 1.750 . S
C469 C722 1.750 . S
C736 C491 1.750 . S
C359 C756 1.750 . S
C521 C788 1.750 . S
C810 C1489 1.750 . S
C1503 C832 1.750 . S
C1445 C844 1.750 . S
C868 C417 1.750 . S
C1165 C888 1.750 . S
C7 C910 1.750 . S
C932 C1085 1.750 . S
C59 C956 1.750 . S
C976 C81 1.750 . S
C1008 C1203 1.750 . S
C1030 C1225 1.750 . S
C1187 C1044 1.750 . S
C1074 C857 1.683 . S
C1096 C1929 1.682 . S
C799 C1110 1.682 . S
C1130 C1877 1.682 . S
C1152 C769 1.683 . S
C1841 C1174 1.682 . S
C1198 C711 1.682 . S
C1220 C1803 1.683 . S
C2067 C1250 1.683 . S
C1262 C2075 1.682 . S
C1284 C1943 1.682 . S
C1316 C2105 1.683 . S
C1328 C961 1.682 . S
C989 C1352 1.682 . S
C1382 C923 1.683 . S
C1404 C2001 1.683 . S
C1418 C631 1.683 . S
C1605 C1440 1.682 . S
C571 C1460 1.682 . S
C1484 C1643 1.682 . S
C1514 C1671 1.683 . S
C675 C1536 1.682 . S
C697 C1558 1.682 . S
C645 C1580 1.682 . S
C315 C1592 1.750 . S
C1393 C1614 1.750 . S
C1638 C285 1.750 . S
C1357 C1658 1.750 . S
C1690 C235 1.750 . S
C1704 C1305 1.750 . S
C1726 C183 1.750 . S
C1748 C1275 1.750 . S
C1525 C1778 1.750 . S
C1790 C1547 1.750 . S
C1423 C1814 1.750 . S
C1836 C1569 1.750 . S
C433 C1866 1.750 . S
C447 C1888 1.750 . S
C389 C1900 1.750 . S
C1473 C1924 1.750 . S
C1954 C109 1.750 . S
C1966 C1063 1.750 . S
C29 C1988 1.750 . S
C1115 C2012 1.750 . S
C1143 C2032 1.750 . S
C2054 C153 1.750 . S
C2086 C175 1.750 . S
C2100 C131 1.750 . S
C395 C10 1.380 1_556 S
C403 C32 1.380 . S
C439 C52 1.380 . S
C1511 C74 1.380 . S
C1429 C106 1.380 . S
C527 C128 1.380 . S
C150 C1533 1.380 1_556 S
C499 C172 1.380 . S
C186 C1209 1.380 1_455 S
C1231 C216 1.380 . S
C1151 C228 1.380 . S
C252 C1173 1.380 . S
C282 C1121 1.380 1_455 S
C296 C1129 1.380 . S
C318 C1071 1.380 . S
C340 C1093 1.380 . S
C362 C241 1.380 1_545 S
C382 C1379 1.380 . S
C1401 C414 1.380 . S
C426 C1327 1.380 . S
C301 C450 1.380 . S
C191 C472 1.380 1_545 S
C494 C1261 1.380 . S
C1313 C514 1.380 . S
C538 C917 1.342 1_556 S
C560 C939 1.342 . S
C953 C590 1.342 . S
C612 C2039 1.342 . S
C1957 C634 1.342 . S
C646 C1041 1.342 . S
C678 C2061 1.342 1_554 S
C1033 C700 1.342 . S
C712 C1723 1.342 1_655 S
C744 C1745 1.342 . S
C1693 C758 1.342 . S
C1701 C778 1.342 . S
C1635 C800 1.342 1_455 S
C822 C1665 1.342 . S
C1599 C846 1.342 . S
C876 C1621 1.342 . S
C890 C763 1.342 1_565 S
C1907 C912 1.342 . S
C1921 C934 1.342 . S
C964 C1869 1.342 . S
C835 C978 1.342 . S
C725 C998 1.342 1_565 S
C1797 C1020 1.342 . S
C1833 C1052 1.342 . S
C1451 C1066 1.380 . S
C1088 C1459 1.380 . S
C1108 C1495 1.380 1_554 S
C1140 C455 1.380 . S
C1162 C367 1.380 1_556 S
C1184 C1577 1.380 . S
C1196 C477 1.380 . S
C1555 C1218 1.380 . S
C139 C1242 1.380 . S
C1272 C161 1.380 . S
C95 C1294 1.380 1_455 S
C1308 C117 1.380 . S
C1338 C65 1.380 . S
C1350 C87 1.380 . S
C1374 C15 1.380 1_655 S
C1396 C37 1.380 . S
C1283 C1416 1.380 . S
C1438 C323 1.380 1_565 S
C345 C1470 1.380 . S
C1482 C271 1.380 1_545 S
C1506 C1363 1.380 . S
C1247 C1528 1.380 . S
C205 C1550 1.380 . S
C1572 C257 1.380 . S
C1594 C1973 1.342 . S
C1995 C1616 1.342 . S
C2009 C1646 1.342 1_554 S
C1660 C983 1.342 . S
C1680 C895 1.342 1_554 S
C1712 C2097 1.342 . S
C1734 C1011 1.342 . S
C2089 C1756 1.342 . S
C1768 C667 1.342 . S
C689 C1792 1.342 . S
C1822 C623 1.342 1_455 S
C1844 C659 1.342 . S
C579 C1856 1.342 . S
C1878 C601 1.342 . S
C543 C1902 1.342 1_655 S
C1932 C565 1.342 . S
C1811 C1944 1.342 . S
C1968 C851 1.342 1_545 S
C1990 C865 1.342 . S
C2020 C813 1.342 1_565 S
C2034 C1891 1.342 . S
C1781 C2056 1.342 . S
C2076 C733 1.342 . S
C791 C2108 1.342 . S
C21 C1181 1.616 . S
C43 C1195 1.617 . S
C1217 C51 1.617 . S
C1159 C73 1.617 . S
C1137 C103 1.617 . S
C125 C1077 1.617 . S
C1099 C147 1.617 . S
C1107 C169 1.616 . S
C1583 C197 1.616 . S
C213 C483 1.617 . S
C227 C1561 1.617 . S
C373 C263 1.616 . S
C461 C279 1.616 . S
C307 C1437 1.617 . S
C329 C1467 1.617 . S
C1481 C351 1.616 . S
C1349 C381 1.617 . S
C1385 C411 1.617 . S
C425 C1407 1.617 . S
C1291 C505 1.617 . S
C513 C1253 1.617 . S
C1715 C535 1.731 . S
C1737 C557 1.731 . S
C1759 C593 1.731 . S
C615 C1687 1.731 . S
C637 C1657 1.731 . S
C1591 C653 1.731 . S
C1613 C681 1.731 . S
C1649 C703 1.731 . S
C2111 C719 1.731 . S
C747 C1005 1.731 . S
C755 C2083 1.731 . S
C785 C887 1.731 . S
C807 C975 1.731 . S
C829 C1965 1.731 . S
C843 C1987 1.731 . S
C2023 C879 1.731 . S
C1885 C909 1.731 . S
C931 C1899 1.731 . S
C1935 C967 1.731 . S
C1027 C1825 1.731 . S
C1775 C1055 1.731 . S
C1539 C1269 1.617 . S
C1415 C1319 1.617 . S
C1517 C1335 1.617 . S
C2053 C1789 1.731 . S
C1847 C1951 1.731 . S
C2031 C1863 1.731 . S
