# Generated by pormake.
# Topology ana, (4)-cn, num edge types: 1
# Building blocks:
#     Node 0, Type 0, BuildingBlock: KUFVIS_clean_sbu_0, # of connection points: 4
#     Node 1, Type 0, BuildingBlock: KUFVIS_clean_sbu_0, # of connection points: 4
#     Node 2, Type 0, BuildingBlock: KUFVIS_clean_sbu_0, # of connection points: 4
#     Node 3, Type 0, BuildingBlock: KUFVIS_clean_sbu_0, # of connection points: 4
#     Node 4, Type 0, BuildingBlock: KUFVIS_clean_sbu_0, # of connection points: 4
#     Node 5, Type 0, BuildingBlock: KUFVIS_clean_sbu_0, # of connection points: 4
#     Node 6, Type 0, BuildingBlock: KUFVIS_clean_sbu_0, # of connection points: 4
#     Node 7, Type 0, BuildingBlock: KUFVIS_clean_sbu_0, # of connection points: 4
#     Node 8, Type 0, BuildingBlock: KUFVIS_clean_sbu_0, # of connection points: 4
#     Node 9, Type 0, BuildingBlock: KUFVIS_clean_sbu_0, # of connection points: 4
#     Node 10, Type 0, BuildingBlock: KUFVIS_clean_sbu_0, # of connection points: 4
#     Node 11, Type 0, BuildingBlock: KUFVIS_clean_sbu_0, # of connection points: 4
#     Node 12, Type 0, BuildingBlock: KUFVIS_clean_sbu_0, # of connection points: 4
#     Node 13, Type 0, BuildingBlock: KUFVIS_clean_sbu_0, # of connection points: 4
#     Node 14, Type 0, BuildingBlock: KUFVIS_clean_sbu_0, # of connection points: 4
#     Node 15, Type 0, BuildingBlock: KUFVIS_clean_sbu_0, # of connection points: 4
#     Node 16, Type 0, BuildingBlock: KUFVIS_clean_sbu_0, # of connection points: 4
#     Node 17, Type 0, BuildingBlock: KUFVIS_clean_sbu_0, # of connection points: 4
#     Node 18, Type 0, BuildingBlock: KUFVIS_clean_sbu_0, # of connection points: 4
#     Node 19, Type 0, BuildingBlock: KUFVIS_clean_sbu_0, # of connection points: 4
#     Node 20, Type 0, BuildingBlock: KUFVIS_clean_sbu_0, # of connection points: 4
#     Node 21, Type 0, BuildingBlock: KUFVIS_clean_sbu_0, # of connection points: 4
#     Node 22, Type 0, BuildingBlock: KUFVIS_clean_sbu_0, # of connection points: 4
#     Node 23, Type 0, BuildingBlock: KUFVIS_clean_sbu_0, # of connection points: 4
#     Node 24, Type 0, BuildingBlock: KUFVIS_clean_sbu_0, # of connection points: 4
#     Node 25, Type 0, BuildingBlock: KUFVIS_clean_sbu_0, # of connection points: 4
#     Node 26, Type 0, BuildingBlock: KUFVIS_clean_sbu_0, # of connection points: 4
#     Node 27, Type 0, BuildingBlock: KUFVIS_clean_sbu_0, # of connection points: 4
#     Node 28, Type 0, BuildingBlock: KUFVIS_clean_sbu_0, # of connection points: 4
#     Node 29, Type 0, BuildingBlock: KUFVIS_clean_sbu_0, # of connection points: 4
#     Node 30, Type 0, BuildingBlock: KUFVIS_clean_sbu_0, # of connection points: 4
#     Node 31, Type 0, BuildingBlock: KUFVIS_clean_sbu_0, # of connection points: 4
#     Node 32, Type 0, BuildingBlock: KUFVIS_clean_sbu_0, # of connection points: 4
#     Node 33, Type 0, BuildingBlock: KUFVIS_clean_sbu_0, # of connection points: 4
#     Node 34, Type 0, BuildingBlock: KUFVIS_clean_sbu_0, # of connection points: 4
#     Node 35, Type 0, BuildingBlock: KUFVIS_clean_sbu_0, # of connection points: 4
#     Node 36, Type 0, BuildingBlock: KUFVIS_clean_sbu_0, # of connection points: 4
#     Node 37, Type 0, BuildingBlock: KUFVIS_clean_sbu_0, # of connection points: 4
#     Node 38, Type 0, BuildingBlock: KUFVIS_clean_sbu_0, # of connection points: 4
#     Node 39, Type 0, BuildingBlock: KUFVIS_clean_sbu_0, # of connection points: 4
#     Node 40, Type 0, BuildingBlock: KUFVIS_clean_sbu_0, # of connection points: 4
#     Node 41, Type 0, BuildingBlock: KUFVIS_clean_sbu_0, # of connection points: 4
#     Node 42, Type 0, BuildingBlock: KUFVIS_clean_sbu_0, # of connection points: 4
#     Node 43, Type 0, BuildingBlock: KUFVIS_clean_sbu_0, # of connection points: 4
#     Node 44, Type 0, BuildingBlock: KUFVIS_clean_sbu_0, # of connection points: 4
#     Node 45, Type 0, BuildingBlock: KUFVIS_clean_sbu_0, # of connection points: 4
#     Node 46, Type 0, BuildingBlock: KUFVIS_clean_sbu_0, # of connection points: 4
#     Node 47, Type 0, BuildingBlock: KUFVIS_clean_sbu_0, # of connection points: 4
#     Edge 48, Type (0, 0), BuildingBlock: KIFKEQ_clean_linker_1, # of connection points: 2
#     Edge 49, Type (0, 0), BuildingBlock: KIFKEQ_clean_linker_1, # of connection points: 2
#     Edge 50, Type (0, 0), BuildingBlock: KIFKEQ_clean_linker_1, # of connection points: 2
#     Edge 51, Type (0, 0), BuildingBlock: KIFKEQ_clean_linker_1, # of connection points: 2
#     Edge 52, Type (0, 0), BuildingBlock: KIFKEQ_clean_linker_1, # of connection points: 2
#     Edge 53, Type (0, 0), BuildingBlock: KIFKEQ_clean_linker_1, # of connection points: 2
#     Edge 54, Type (0, 0), BuildingBlock: KIFKEQ_clean_linker_1, # of connection points: 2
#     Edge 55, Type (0, 0), BuildingBlock: KIFKEQ_clean_linker_1, # of connection points: 2
#     Edge 56, Type (0, 0), BuildingBlock: KIFKEQ_clean_linker_1, # of connection points: 2
#     Edge 57, Type (0, 0), BuildingBlock: KIFKEQ_clean_linker_1, # of connection points: 2
#     Edge 58, Type (0, 0), BuildingBlock: KIFKEQ_clean_linker_1, # of connection points: 2
#     Edge 59, Type (0, 0), BuildingBlock: KIFKEQ_clean_linker_1, # of connection points: 2
#     Edge 60, Type (0, 0), BuildingBlock: KIFKEQ_clean_linker_1, # of connection points: 2
#     Edge 61, Type (0, 0), BuildingBlock: KIFKEQ_clean_linker_1, # of connection points: 2
#     Edge 62, Type (0, 0), BuildingBlock: KIFKEQ_clean_linker_1, # of connection points: 2
#     Edge 63, Type (0, 0), BuildingBlock: KIFKEQ_clean_linker_1, # of connection points: 2
#     Edge 64, Type (0, 0), BuildingBlock: KIFKEQ_clean_linker_1, # of connection points: 2
#     Edge 65, Type (0, 0), BuildingBlock: KIFKEQ_clean_linker_1, # of connection points: 2
#     Edge 66, Type (0, 0), BuildingBlock: KIFKEQ_clean_linker_1, # of connection points: 2
#     Edge 67, Type (0, 0), BuildingBlock: KIFKEQ_clean_linker_1, # of connection points: 2
#     Edge 68, Type (0, 0), BuildingBlock: KIFKEQ_clean_linker_1, # of connection points: 2
#     Edge 69, Type (0, 0), BuildingBlock: KIFKEQ_clean_linker_1, # of connection points: 2
#     Edge 70, Type (0, 0), BuildingBlock: KIFKEQ_clean_linker_1, # of connection points: 2
#     Edge 71, Type (0, 0), BuildingBlock: KIFKEQ_clean_linker_1, # of connection points: 2
#     Edge 72, Type (0, 0), BuildingBlock: KIFKEQ_clean_linker_1, # of connection points: 2
#     Edge 73, Type (0, 0), BuildingBlock: KIFKEQ_clean_linker_1, # of connection points: 2
#     Edge 74, Type (0, 0), BuildingBlock: KIFKEQ_clean_linker_1, # of connection points: 2
#     Edge 75, Type (0, 0), BuildingBlock: KIFKEQ_clean_linker_1, # of connection points: 2
#     Edge 76, Type (0, 0), BuildingBlock: KIFKEQ_clean_linker_1, # of connection points: 2
#     Edge 77, Type (0, 0), BuildingBlock: KIFKEQ_clean_linker_1, # of connection points: 2
#     Edge 78, Type (0, 0), BuildingBlock: KIFKEQ_clean_linker_1, # of connection points: 2
#     Edge 79, Type (0, 0), BuildingBlock: KIFKEQ_clean_linker_1, # of connection points: 2
#     Edge 80, Type (0, 0), BuildingBlock: KIFKEQ_clean_linker_1, # of connection points: 2
#     Edge 81, Type (0, 0), BuildingBlock: KIFKEQ_clean_linker_1, # of connection points: 2
#     Edge 82, Type (0, 0), BuildingBlock: KIFKEQ_clean_linker_1, # of connection points: 2
#     Edge 83, Type (0, 0), BuildingBlock: KIFKEQ_clean_linker_1, # of connection points: 2
#     Edge 84, Type (0, 0), BuildingBlock: KIFKEQ_clean_linker_1, # of connection points: 2
#     Edge 85, Type (0, 0), BuildingBlock: KIFKEQ_clean_linker_1, # of connection points: 2
#     Edge 86, Type (0, 0), BuildingBlock: KIFKEQ_clean_linker_1, # of connection points: 2
#     Edge 87, Type (0, 0), BuildingBlock: KIFKEQ_clean_linker_1, # of connection points: 2
#     Edge 88, Type (0, 0), BuildingBlock: KIFKEQ_clean_linker_1, # of connection points: 2
#     Edge 89, Type (0, 0), BuildingBlock: KIFKEQ_clean_linker_1, # of connection points: 2
#     Edge 90, Type (0, 0), BuildingBlock: KIFKEQ_clean_linker_1, # of connection points: 2
#     Edge 91, Type (0, 0), BuildingBlock: KIFKEQ_clean_linker_1, # of connection points: 2
#     Edge 92, Type (0, 0), BuildingBlock: KIFKEQ_clean_linker_1, # of connection points: 2
#     Edge 93, Type (0, 0), BuildingBlock: KIFKEQ_clean_linker_1, # of connection points: 2
#     Edge 94, Type (0, 0), BuildingBlock: KIFKEQ_clean_linker_1, # of connection points: 2
#     Edge 95, Type (0, 0), BuildingBlock: KIFKEQ_clean_linker_1, # of connection points: 2
#     Edge 96, Type (0, 0), BuildingBlock: KIFKEQ_clean_linker_1, # of connection points: 2
#     Edge 97, Type (0, 0), BuildingBlock: KIFKEQ_clean_linker_1, # of connection points: 2
#     Edge 98, Type (0, 0), BuildingBlock: KIFKEQ_clean_linker_1, # of connection points: 2
#     Edge 99, Type (0, 0), BuildingBlock: KIFKEQ_clean_linker_1, # of connection points: 2
#     Edge 100, Type (0, 0), BuildingBlock: KIFKEQ_clean_linker_1, # of connection points: 2
#     Edge 101, Type (0, 0), BuildingBlock: KIFKEQ_clean_linker_1, # of connection points: 2
#     Edge 102, Type (0, 0), BuildingBlock: KIFKEQ_clean_linker_1, # of connection points: 2
#     Edge 103, Type (0, 0), BuildingBlock: KIFKEQ_clean_linker_1, # of connection points: 2
#     Edge 104, Type (0, 0), BuildingBlock: KIFKEQ_clean_linker_1, # of connection points: 2
#     Edge 105, Type (0, 0), BuildingBlock: KIFKEQ_clean_linker_1, # of connection points: 2
#     Edge 106, Type (0, 0), BuildingBlock: KIFKEQ_clean_linker_1, # of connection points: 2
#     Edge 107, Type (0, 0), BuildingBlock: KIFKEQ_clean_linker_1, # of connection points: 2
#     Edge 108, Type (0, 0), BuildingBlock: KIFKEQ_clean_linker_1, # of connection points: 2
#     Edge 109, Type (0, 0), BuildingBlock: KIFKEQ_clean_linker_1, # of connection points: 2
#     Edge 110, Type (0, 0), BuildingBlock: KIFKEQ_clean_linker_1, # of connection points: 2
#     Edge 111, Type (0, 0), BuildingBlock: KIFKEQ_clean_linker_1, # of connection points: 2
#     Edge 112, Type (0, 0), BuildingBlock: KIFKEQ_clean_linker_1, # of connection points: 2
#     Edge 113, Type (0, 0), BuildingBlock: KIFKEQ_clean_linker_1, # of connection points: 2
#     Edge 114, Type (0, 0), BuildingBlock: KIFKEQ_clean_linker_1, # of connection points: 2
#     Edge 115, Type (0, 0), BuildingBlock: KIFKEQ_clean_linker_1, # of connection points: 2
#     Edge 116, Type (0, 0), BuildingBlock: KIFKEQ_clean_linker_1, # of connection points: 2
#     Edge 117, Type (0, 0), BuildingBlock: KIFKEQ_clean_linker_1, # of connection points: 2
#     Edge 118, Type (0, 0), BuildingBlock: KIFKEQ_clean_linker_1, # of connection points: 2
#     Edge 119, Type (0, 0), BuildingBlock: KIFKEQ_clean_linker_1, # of connection points: 2
#     Edge 120, Type (0, 0), BuildingBlock: KIFKEQ_clean_linker_1, # of connection points: 2
#     Edge 121, Type (0, 0), BuildingBlock: KIFKEQ_clean_linker_1, # of connection points: 2
#     Edge 122, Type (0, 0), BuildingBlock: KIFKEQ_clean_linker_1, # of connection points: 2
#     Edge 123, Type (0, 0), BuildingBlock: KIFKEQ_clean_linker_1, # of connection points: 2
#     Edge 124, Type (0, 0), BuildingBlock: KIFKEQ_clean_linker_1, # of connection points: 2
#     Edge 125, Type (0, 0), BuildingBlock: KIFKEQ_clean_linker_1, # of connection points: 2
#     Edge 126, Type (0, 0), BuildingBlock: KIFKEQ_clean_linker_1, # of connection points: 2
#     Edge 127, Type (0, 0), BuildingBlock: KIFKEQ_clean_linker_1, # of connection points: 2
#     Edge 128, Type (0, 0), BuildingBlock: KIFKEQ_clean_linker_1, # of connection points: 2
#     Edge 129, Type (0, 0), BuildingBlock: KIFKEQ_clean_linker_1, # of connection points: 2
#     Edge 130, Type (0, 0), BuildingBlock: KIFKEQ_clean_linker_1, # of connection points: 2
#     Edge 131, Type (0, 0), BuildingBlock: KIFKEQ_clean_linker_1, # of connection points: 2
#     Edge 132, Type (0, 0), BuildingBlock: KIFKEQ_clean_linker_1, # of connection points: 2
#     Edge 133, Type (0, 0), BuildingBlock: KIFKEQ_clean_linker_1, # of connection points: 2
#     Edge 134, Type (0, 0), BuildingBlock: KIFKEQ_clean_linker_1, # of connection points: 2
#     Edge 135, Type (0, 0), BuildingBlock: KIFKEQ_clean_linker_1, # of connection points: 2
#     Edge 136, Type (0, 0), BuildingBlock: KIFKEQ_clean_linker_1, # of connection points: 2
#     Edge 137, Type (0, 0), BuildingBlock: KIFKEQ_clean_linker_1, # of connection points: 2
#     Edge 138, Type (0, 0), BuildingBlock: KIFKEQ_clean_linker_1, # of connection points: 2
#     Edge 139, Type (0, 0), BuildingBlock: KIFKEQ_clean_linker_1, # of connection points: 2
#     Edge 140, Type (0, 0), BuildingBlock: KIFKEQ_clean_linker_1, # of connection points: 2
#     Edge 141, Type (0, 0), BuildingBlock: KIFKEQ_clean_linker_1, # of connection points: 2
#     Edge 142, Type (0, 0), BuildingBlock: KIFKEQ_clean_linker_1, # of connection points: 2
#     Edge 143, Type (0, 0), BuildingBlock: KIFKEQ_clean_linker_1, # of connection points: 2
# Relax obj value: 0.110
# Max RMSD: 0.147
# Mean RMSD: 0.127
data_MOF--net-ana--node1-KUFVIS_clean_sbu_0--edge1-KIFKEQ_clean_linker_1
_symmetry_space_group_name_H-M    P1
_symmetry_Int_Tables_number       1
_symmetry_cell_setting            triclinic
loop_
_symmetry_equiv_pos_as_xyz
'x, y, z'
_cell_length_a     64.093566
_cell_length_b     66.361817
_cell_length_c     66.299962
_cell_angle_alpha  90.053831
_cell_angle_beta   90.109306
_cell_angle_gamma 90.491129
loop_
_atom_site_label
_atom_site_type_symbol
_atom_site_fract_x
_atom_site_fract_y
_atom_site_fract_z
_atom_type_partial_charge
Mn0 Mn 0.11673 0.16844 0.41652 0.0
Mn1 Mn 0.11472 0.11798 0.41003 0.0
C2 C 0.08546 0.15275 0.40866 0.0
C3 C 0.12227 0.20055 0.40284 0.0
C4 C 0.11513 0.13763 0.45126 0.0
O5 O 0.14725 0.16138 0.41303 0.0
O6 O 0.14415 0.12771 0.40946 0.0
C7 C 0.12954 0.11743 0.36777 0.0
N8 N 0.11479 0.11252 0.38173 0.0
C9 C 0.09395 0.09532 0.3568 0.0
C10 C 0.10896 0.10008 0.34217 0.0
C11 C 0.1268 0.11126 0.34767 0.0
C12 C 0.09746 0.10201 0.37656 0.0
H13 H 0.14331 0.12596 0.37193 0.0
C14 C 0.15498 0.14396 0.41054 0.0
O15 O 0.12404 0.19738 0.42212 0.0
O16 O 0.11765 0.1851 0.39171 0.0
N17 N 0.08743 0.10607 0.41004 0.0
C18 C 0.07423 0.10309 0.42587 0.0
C19 C 0.05539 0.09255 0.42278 0.0
C20 C 0.05055 0.08481 0.40359 0.0
C21 C 0.06463 0.08766 0.38766 0.0
C22 C 0.08307 0.09841 0.39159 0.0
H23 H 0.07796 0.10887 0.44068 0.0
O24 O 0.08576 0.17044 0.41698 0.0
O25 O 0.10353 0.14484 0.40476 0.0
O26 O 0.11665 0.1559 0.44513 0.0
O27 O 0.11408 0.12251 0.43933 0.0
C28 C 0.06109 0.08026 0.36803 0.0
C29 C 0.07564 0.08422 0.35257 0.0
H30 H 0.10693 0.09528 0.32666 0.0
H31 H 0.13843 0.11505 0.33645 0.0
H32 H 0.04465 0.09035 0.43518 0.0
H33 H 0.036 0.0767 0.40126 0.0
H34 H 0.04724 0.07151 0.36465 0.0
H35 H 0.07258 0.07865 0.33748 0.0
Mn36 Mn 0.09688 0.8792 0.6607 0.0
Mn37 Mn 0.10538 0.88711 0.61104 0.0
C38 C 0.10037 0.91158 0.64846 0.0
C39 C 0.10976 0.87357 0.69315 0.0
C40 C 0.06313 0.87589 0.6283 0.0
O41 O 0.1057 0.85153 0.65056 0.0
O42 O 0.11298 0.85903 0.61811 0.0
C43 C 0.15143 0.88425 0.61096 0.0
N44 N 0.13383 0.8949 0.60699 0.0
C45 C 0.15395 0.92303 0.59456 0.0
C46 C 0.17229 0.9123 0.59838 0.0
C47 C 0.17101 0.89284 0.60664 0.0
C48 C 0.13487 0.91362 0.59901 0.0
H49 H 0.15051 0.86934 0.61743 0.0
C50 C 0.11201 0.84666 0.63293 0.0
O51 O 0.0907 0.86874 0.68835 0.0
O52 O 0.12145 0.88083 0.67892 0.0
N53 N 0.09873 0.91376 0.60226 0.0
C54 C 0.07965 0.92251 0.60059 0.0
C55 C 0.07822 0.94227 0.59317 0.0
C56 C 0.09639 0.95277 0.58746 0.0
C57 C 0.11583 0.94337 0.58911 0.0
C58 C 0.11626 0.92358 0.59642 0.0
H59 H 0.06564 0.91454 0.60504 0.0
O60 O 0.09124 0.90834 0.66559 0.0
O61 O 0.10748 0.89581 0.63919 0.0
O62 O 0.0685 0.87581 0.64684 0.0
O63 O 0.07569 0.87953 0.61379 0.0
C64 C 0.13482 0.95301 0.58421 0.0
C65 C 0.15387 0.94285 0.58694 0.0
H66 H 0.18743 0.91893 0.59522 0.0
H67 H 0.1851 0.88451 0.60975 0.0
H68 H 0.06316 0.94943 0.59196 0.0
H69 H 0.09525 0.9681 0.58197 0.0
H70 H 0.13498 0.96834 0.57861 0.0
H71 H 0.16839 0.95052 0.58339 0.0
Mn72 Mn 0.37937 0.83624 0.91898 0.0
Mn73 Mn 0.38204 0.88626 0.91176 0.0
C74 C 0.41125 0.85128 0.91193 0.0
C75 C 0.37287 0.80437 0.9053 0.0
C76 C 0.37607 0.86653 0.95277 0.0
O77 O 0.34904 0.84467 0.91495 0.0
O78 O 0.35377 0.87657 0.90381 0.0
C79 C 0.37819 0.88914 0.86736 0.0
N80 N 0.3891 0.89296 0.8846 0.0
C81 C 0.41536 0.91151 0.86637 0.0
C82 C 0.40433 0.90792 0.84842 0.0
C83 C 0.38573 0.89657 0.84891 0.0
C84 C 0.40716 0.90361 0.88427 0.0
H85 H 0.36386 0.8805 0.8677 0.0
C86 C 0.34233 0.86098 0.90713 0.0
O87 O 0.37091 0.80771 0.92452 0.0
O88 O 0.37822 0.81958 0.89414 0.0
N89 N 0.40884 0.89717 0.91872 0.0
C90 C 0.41839 0.898 0.93709 0.0
C91 C 0.43779 0.90782 0.93899 0.0
C92 C 0.44703 0.9169 0.92206 0.0
C93 C 0.43685 0.91594 0.90335 0.0
C94 C 0.41764 0.9058 0.90233 0.0
H95 H 0.41132 0.89121 0.95021 0.0
O96 O 0.41046 0.83344 0.91992 0.0
O97 O 0.39338 0.85938 0.90786 0.0
O98 O 0.37945 0.84842 0.94735 0.0
O99 O 0.37507 0.88126 0.94042 0.0
C100 C 0.44504 0.92462 0.88567 0.0
C101 C 0.43425 0.92249 0.8672 0.0
H102 H 0.4101 0.91365 0.83417 0.0
H103 H 0.37719 0.89363 0.8351 0.0
H104 H 0.44555 0.90846 0.95349 0.0
H105 H 0.46197 0.9245 0.92359 0.0
H106 H 0.45964 0.93293 0.88615 0.0
H107 H 0.44065 0.92925 0.85368 0.0
Mn108 Mn 0.39956 0.12344 0.16452 0.0
Mn109 Mn 0.39142 0.11578 0.11476 0.0
C110 C 0.39596 0.09112 0.15203 0.0
C111 C 0.38621 0.12859 0.19684 0.0
C112 C 0.43361 0.12683 0.13254 0.0
O113 O 0.39075 0.15119 0.1545 0.0
O114 O 0.38386 0.14388 0.1219 0.0
C115 C 0.3454 0.11886 0.11406 0.0
N116 N 0.36298 0.10812 0.11031 0.0
C117 C 0.34285 0.08008 0.09759 0.0
C118 C 0.32453 0.09089 0.10119 0.0
C119 C 0.32582 0.11036 0.10948 0.0
C120 C 0.36193 0.0894 0.10228 0.0
H121 H 0.34632 0.13377 0.12056 0.0
C122 C 0.38465 0.15617 0.13683 0.0
O123 O 0.40526 0.13377 0.19242 0.0
O124 O 0.37483 0.12144 0.18228 0.0
N125 N 0.39804 0.0891 0.10599 0.0
C126 C 0.41708 0.08022 0.10468 0.0
C127 C 0.41847 0.06042 0.09734 0.0
C128 C 0.40031 0.05 0.09137 0.0
C129 C 0.38092 0.05952 0.0927 0.0
C130 C 0.38051 0.07935 0.09993 0.0
H131 H 0.43107 0.08813 0.10936 0.0
O132 O 0.40515 0.09424 0.16921 0.0
O133 O 0.38908 0.107 0.1428 0.0
O134 O 0.42812 0.12696 0.15103 0.0
O135 O 0.42111 0.12322 0.11791 0.0
C136 C 0.36193 0.04996 0.08755 0.0
C137 C 0.34291 0.06023 0.08999 0.0
H138 H 0.30938 0.08432 0.09783 0.0
H139 H 0.31174 0.11875 0.11241 0.0
H140 H 0.43349 0.05316 0.09641 0.0
H141 H 0.40142 0.03465 0.08595 0.0
H142 H 0.36174 0.03461 0.08199 0.0
H143 H 0.32839 0.05262 0.08627 0.0
Mn144 Mn 0.12878 0.82833 0.07861 0.0
Mn145 Mn 0.13239 0.83399 0.12906 0.0
C146 C 0.16051 0.836 0.09354 0.0
C147 C 0.12262 0.8419 0.04662 0.0
C148 C 0.13226 0.79327 0.10892 0.0
O149 O 0.09837 0.83172 0.08642 0.0
O150 O 0.103 0.83316 0.11992 0.0
C151 C 0.11506 0.87522 0.13023 0.0
N152 N 0.13057 0.86211 0.13493 0.0
C153 C 0.1482 0.8871 0.15509 0.0
C154 C 0.1324 0.90087 0.15053 0.0
C155 C 0.11586 0.89494 0.13788 0.0
C156 C 0.14688 0.86784 0.14654 0.0
H157 H 0.10208 0.87065 0.12084 0.0
C158 C 0.09129 0.83301 0.10429 0.0
O159 O 0.1208 0.82265 0.0499 0.0
O160 O 0.12768 0.8531 0.0619 0.0
N161 N 0.15961 0.83555 0.14086 0.0
C162 C 0.1737 0.82055 0.14365 0.0
C163 C 0.19145 0.82419 0.15562 0.0
C164 C 0.19409 0.84291 0.16524 0.0
C165 C 0.17914 0.85798 0.16251 0.0
C166 C 0.16215 0.85371 0.14988 0.0
H167 H 0.17141 0.80595 0.13677 0.0
O168 O 0.15972 0.82781 0.0758 0.0
O169 O 0.14272 0.84002 0.10197 0.0
O170 O 0.12887 0.79974 0.09102 0.0
O171 O 0.13469 0.80482 0.12419 0.0
C172 C 0.18011 0.87689 0.17219 0.0
C173 C 0.16491 0.89157 0.16817 0.0
H174 H 0.13277 0.91598 0.15672 0.0
H175 H 0.10358 0.90546 0.13428 0.0
H176 H 0.20286 0.81245 0.15774 0.0
H177 H 0.20758 0.84549 0.17479 0.0
H178 H 0.19229 0.8803 0.18298 0.0
H179 H 0.16607 0.90616 0.17546 0.0
Mn180 Mn 0.4128 0.87565 0.34695 0.0
Mn181 Mn 0.36171 0.86933 0.3577 0.0
C182 C 0.39968 0.84365 0.35241 0.0
C183 C 0.44686 0.88198 0.35754 0.0
C184 C 0.37801 0.87636 0.31528 0.0
O185 O 0.40352 0.90407 0.35368 0.0
O186 O 0.37009 0.89805 0.36233 0.0
C187 C 0.36471 0.87633 0.40171 0.0
N188 N 0.35911 0.86425 0.38596 0.0
C189 C 0.3471 0.83821 0.40846 0.0
C190 C 0.35259 0.85044 0.42493 0.0
C191 C 0.36146 0.86957 0.42153 0.0
C192 C 0.35068 0.84577 0.38906 0.0
H193 H 0.37166 0.89098 0.39917 0.0
C194 C 0.38575 0.90993 0.35985 0.0
O195 O 0.44101 0.88568 0.33915 0.0
O196 O 0.43272 0.87538 0.36991 0.0
N197 N 0.35109 0.84252 0.35411 0.0
C198 C 0.34654 0.83264 0.33659 0.0
C199 C 0.33754 0.81328 0.33735 0.0
C200 C 0.33309 0.80438 0.35608 0.0
C201 C 0.3374 0.81505 0.37389 0.0
C202 C 0.34618 0.83437 0.37219 0.0
H203 H 0.34992 0.83939 0.32214 0.0
O204 O 0.4172 0.84626 0.343 0.0
O205 O 0.3906 0.85988 0.35897 0.0
O206 O 0.39733 0.87729 0.31997 0.0
O207 O 0.36342 0.87381 0.32822 0.0
C208 C 0.33351 0.80719 0.39327 0.0
C209 C 0.33842 0.81874 0.41055 0.0
H210 H 0.35016 0.84526 0.44025 0.0
H211 H 0.36583 0.87906 0.43416 0.0
H212 H 0.33415 0.8052 0.32353 0.0
H213 H 0.32636 0.78936 0.35661 0.0
H214 H 0.32688 0.79223 0.39506 0.0
H215 H 0.33551 0.81248 0.42537 0.0
Mn216 Mn 0.37028 0.16828 0.58394 0.0
Mn217 Mn 0.36717 0.15949 0.63397 0.0
C218 C 0.33857 0.16033 0.59843 0.0
C219 C 0.37654 0.15589 0.55151 0.0
C220 C 0.36766 0.20148 0.6163 0.0
O221 O 0.40069 0.1646 0.59156 0.0
O222 O 0.39651 0.15974 0.62478 0.0
C223 C 0.3825 0.11756 0.63247 0.0
N224 N 0.36766 0.13103 0.63807 0.0
C225 C 0.34876 0.10557 0.65639 0.0
C226 C 0.36384 0.09142 0.65088 0.0
C227 C 0.38069 0.09741 0.63871 0.0
C228 C 0.35107 0.12529 0.64923 0.0
H229 H 0.3957 0.12219 0.62344 0.0
C230 C 0.40797 0.16144 0.60912 0.0
O231 O 0.37827 0.17503 0.55547 0.0
O232 O 0.37141 0.14419 0.56634 0.0
N233 N 0.33999 0.15845 0.6458 0.0
C234 C 0.32679 0.17394 0.64976 0.0
C235 C 0.30894 0.17039 0.66152 0.0
C236 C 0.30528 0.15118 0.66974 0.0
C237 C 0.31935 0.13559 0.66585 0.0
C238 C 0.33654 0.13987 0.65354 0.0
H239 H 0.3299 0.18889 0.64401 0.0
O240 O 0.33944 0.16907 0.58097 0.0
O241 O 0.35633 0.1556 0.60664 0.0
O242 O 0.37001 0.19624 0.59782 0.0
O243 O 0.36617 0.18888 0.63082 0.0
C244 C 0.31733 0.11609 0.67408 0.0
C245 C 0.33178 0.101 0.66905 0.0
H246 H 0.36268 0.07594 0.65598 0.0
H247 H 0.39242 0.08659 0.63439 0.0
H248 H 0.29823 0.18254 0.66457 0.0
H249 H 0.29174 0.14866 0.67917 0.0
H250 H 0.30484 0.11248 0.68444 0.0
H251 H 0.32982 0.08599 0.67522 0.0
Mn252 Mn 0.08225 0.12717 0.84555 0.0
Mn253 Mn 0.13341 0.13285 0.85652 0.0
C254 C 0.09582 0.15897 0.851 0.0
C255 C 0.0481 0.12156 0.85598 0.0
C256 C 0.11699 0.12574 0.81403 0.0
O257 O 0.0911 0.09865 0.85245 0.0
O258 O 0.12452 0.10438 0.86154 0.0
C259 C 0.13039 0.12655 0.90061 0.0
N260 N 0.13614 0.13832 0.88472 0.0
C261 C 0.14852 0.16455 0.90691 0.0
C262 C 0.14289 0.15264 0.92352 0.0
C263 C 0.13375 0.13357 0.92035 0.0
C264 C 0.14483 0.15673 0.8876 0.0
H265 H 0.12322 0.11196 0.89825 0.0
C266 C 0.10869 0.09267 0.85905 0.0
O267 O 0.05387 0.11779 0.83759 0.0
O268 O 0.06239 0.12771 0.86848 0.0
N269 N 0.14442 0.15947 0.85261 0.0
C270 C 0.14906 0.16904 0.83497 0.0
C271 C 0.1583 0.1883 0.83551 0.0
C272 C 0.1629 0.19743 0.85413 0.0
C273 C 0.15848 0.18707 0.87207 0.0
C274 C 0.14947 0.16782 0.87059 0.0
H275 H 0.14556 0.16213 0.82061 0.0
O276 O 0.07827 0.15657 0.84153 0.0
O277 O 0.10468 0.14266 0.85764 0.0
O278 O 0.09766 0.12527 0.81862 0.0
O279 O 0.13161 0.12799 0.82706 0.0
C280 C 0.16249 0.19517 0.89135 0.0
C281 C 0.15745 0.18394 0.90876 0.0
H282 H 0.1454 0.15802 0.93877 0.0
H283 H 0.12926 0.12434 0.9331 0.0
H284 H 0.16177 0.19615 0.82159 0.0
H285 H 0.16981 0.21238 0.85449 0.0
H286 H 0.1693 0.21009 0.89297 0.0
H287 H 0.16046 0.1904 0.92351 0.0
Mn288 Mn 0.16163 0.40556 0.11614 0.0
Mn289 Mn 0.11065 0.39439 0.10987 0.0
C290 C 0.14812 0.40188 0.08398 0.0
C291 C 0.19568 0.39476 0.12136 0.0
C292 C 0.12686 0.43606 0.12143 0.0
O293 O 0.15245 0.39629 0.14413 0.0
O294 O 0.11969 0.38568 0.1372 0.0
C295 C 0.11299 0.34987 0.11027 0.0
N296 N 0.1075 0.3672 0.10074 0.0
C297 C 0.09433 0.34875 0.0721 0.0
C298 C 0.09968 0.33068 0.08168 0.0
C299 C 0.10909 0.33125 0.10083 0.0
C300 C 0.09848 0.36683 0.08229 0.0
H301 H 0.12035 0.35025 0.12493 0.0
C302 C 0.13528 0.38782 0.14919 0.0
O303 O 0.18997 0.41283 0.12636 0.0
O304 O 0.18146 0.38287 0.11391 0.0
N305 N 0.09999 0.40185 0.08396 0.0
C306 C 0.09664 0.42063 0.0764 0.0
C307 C 0.08773 0.42272 0.05715 0.0
C308 C 0.08226 0.4055 0.04593 0.0
C309 C 0.08564 0.38632 0.05412 0.0
C310 C 0.09438 0.38518 0.07346 0.0
H311 H 0.10082 0.43393 0.08493 0.0
O312 O 0.16558 0.41151 0.0868 0.0
O313 O 0.13938 0.39442 0.10001 0.0
O314 O 0.14625 0.43217 0.11999 0.0
O315 O 0.11242 0.42287 0.11883 0.0
C316 C 0.08102 0.36831 0.04371 0.0
C317 C 0.0854 0.34954 0.05267 0.0
H318 H 0.09682 0.3163 0.07439 0.0
H319 H 0.11339 0.31738 0.10827 0.0
H320 H 0.08517 0.43757 0.05094 0.0
H321 H 0.0756 0.40717 0.03101 0.0
H322 H 0.07437 0.36872 0.02869 0.0
H323 H 0.08205 0.3358 0.0444 0.0
Mn324 Mn 0.65507 0.08939 0.87939 0.0
Mn325 Mn 0.60307 0.09317 0.88579 0.0
C326 C 0.64143 0.0925 0.9114 0.0
C327 C 0.68783 0.10354 0.87446 0.0
C328 C 0.62448 0.05371 0.87693 0.0
O329 O 0.64518 0.0967 0.85127 0.0
O330 O 0.61068 0.0991 0.85718 0.0
C331 C 0.59948 0.1371 0.87908 0.0
N332 N 0.59642 0.12069 0.89107 0.0
C333 C 0.58104 0.14103 0.91708 0.0
C334 C 0.58389 0.15813 0.90494 0.0
C335 C 0.59318 0.15615 0.88587 0.0
C336 C 0.58748 0.12242 0.90944 0.0
H337 H 0.6067 0.13567 0.86445 0.0
C338 C 0.62656 0.09999 0.8454 0.0
O339 O 0.68398 0.08483 0.86993 0.0
O340 O 0.67244 0.11428 0.881 0.0
N341 N 0.59356 0.08806 0.91267 0.0
C342 C 0.59297 0.07029 0.92295 0.0
C343 C 0.58469 0.06977 0.94254 0.0
C344 C 0.57699 0.08749 0.95131 0.0
C345 C 0.57754 0.10555 0.94035 0.0
C346 C 0.58583 0.10511 0.92083 0.0
H347 H 0.59901 0.05667 0.91634 0.0
O348 O 0.65965 0.08464 0.90869 0.0
O349 O 0.63163 0.09838 0.89524 0.0
O350 O 0.64289 0.06102 0.87585 0.0
O351 O 0.60842 0.06427 0.8809 0.0
C352 C 0.57065 0.12405 0.94822 0.0
C353 C 0.57241 0.14179 0.9366 0.0
H354 H 0.57918 0.17286 0.91018 0.0
H355 H 0.59553 0.16929 0.87646 0.0
H356 H 0.58437 0.05579 0.95091 0.0
H357 H 0.57085 0.08708 0.96651 0.0
H358 H 0.56424 0.12487 0.9633 0.0
H359 H 0.5673 0.15597 0.94291 0.0
Mn360 Mn 0.84286 0.90699 0.37752 0.0
Mn361 Mn 0.89441 0.90668 0.38772 0.0
C362 C 0.85423 0.90476 0.41048 0.0
C363 C 0.8117 0.89038 0.37011 0.0
C364 C 0.87092 0.9447 0.37771 0.0
O365 O 0.85535 0.90053 0.35023 0.0
O366 O 0.88945 0.9009 0.35846 0.0
C367 C 0.90148 0.86323 0.38059 0.0
N368 N 0.90253 0.87955 0.39303 0.0
C369 C 0.91734 0.85972 0.41977 0.0
C370 C 0.91654 0.84273 0.40719 0.0
C371 C 0.90855 0.8445 0.38753 0.0
C372 C 0.91019 0.87802 0.41198 0.0
H373 H 0.89526 0.86449 0.3655 0.0
C374 C 0.87456 0.89897 0.34559 0.0
O375 O 0.81447 0.90925 0.36558 0.0
O376 O 0.82734 0.88102 0.37812 0.0
N377 N 0.90161 0.91186 0.41529 0.0
C378 C 0.90036 0.92945 0.42583 0.0
C379 C 0.90722 0.93012 0.44595 0.0
C380 C 0.91543 0.91276 0.45498 0.0
C381 C 0.91681 0.8949 0.44376 0.0
C382 C 0.90987 0.89518 0.42372 0.0
H383 H 0.89392 0.94279 0.41901 0.0
O384 O 0.83571 0.91135 0.4064 0.0
O385 O 0.86563 0.8996 0.3951 0.0
O386 O 0.85325 0.93616 0.37486 0.0
O387 O 0.88732 0.9352 0.38295 0.0
C388 C 0.92436 0.87672 0.45181 0.0
C389 C 0.92461 0.85914 0.43983 0.0
H390 H 0.92187 0.82823 0.41252 0.0
H391 H 0.90779 0.83143 0.37776 0.0
H392 H 0.90606 0.94395 0.45452 0.0
H393 H 0.92047 0.91327 0.47057 0.0
H394 H 0.92975 0.87603 0.46729 0.0
H395 H 0.93021 0.8452 0.44627 0.0
Mn396 Mn 0.84147 0.09172 0.12838 0.0
Mn397 Mn 0.8454 0.14205 0.13475 0.0
C398 C 0.84384 0.1053 0.16039 0.0
C399 C 0.85724 0.06047 0.12408 0.0
C400 C 0.80457 0.12066 0.12533 0.0
O401 O 0.84966 0.10141 0.10033 0.0
O402 O 0.85233 0.13475 0.10641 0.0
C403 C 0.89114 0.14564 0.1295 0.0
N404 N 0.87381 0.14855 0.14096 0.0
C405 C 0.89433 0.16274 0.16798 0.0
C406 C 0.91238 0.16003 0.15641 0.0
C407 C 0.91077 0.15142 0.13709 0.0
C408 C 0.87519 0.15678 0.15958 0.0
H409 H 0.89 0.1389 0.11471 0.0
C410 C 0.8534 0.11946 0.09462 0.0
O411 O 0.83794 0.06327 0.11881 0.0
O412 O 0.86745 0.076 0.13088 0.0
N413 N 0.83935 0.15125 0.16147 0.0
C414 C 0.82051 0.15237 0.17089 0.0
C415 C 0.81943 0.16048 0.19044 0.0
C416 C 0.83768 0.16743 0.20004 0.0
C417 C 0.85683 0.16639 0.18992 0.0
C418 C 0.85691 0.1584 0.17036 0.0
H419 H 0.80645 0.14698 0.16362 0.0
O420 O 0.83602 0.08742 0.15774 0.0
O421 O 0.85015 0.1146 0.14425 0.0
O422 O 0.81202 0.10288 0.12442 0.0
O423 O 0.81566 0.13634 0.12905 0.0
C424 C 0.87588 0.1727 0.19859 0.0
C425 C 0.89463 0.17083 0.18765 0.0
H426 H 0.92756 0.16436 0.16225 0.0
H427 H 0.92464 0.14918 0.12811 0.0
H428 H 0.80458 0.16124 0.19813 0.0
H429 H 0.83682 0.17345 0.2152 0.0
H430 H 0.87633 0.17881 0.21374 0.0
H431 H 0.90921 0.17552 0.19456 0.0
Mn432 Mn 0.3405 0.59008 0.62945 0.0
Mn433 Mn 0.34695 0.64035 0.63463 0.0
C434 C 0.34373 0.6042 0.66121 0.0
C435 C 0.35497 0.55824 0.62516 0.0
C436 C 0.30514 0.62044 0.62537 0.0
O437 O 0.34846 0.59903 0.60108 0.0
O438 O 0.35466 0.63207 0.60674 0.0
C439 C 0.39296 0.6419 0.63098 0.0
N440 N 0.37535 0.64593 0.64166 0.0
C441 C 0.39541 0.66048 0.66881 0.0
C442 C 0.41374 0.65667 0.658 0.0
C443 C 0.41251 0.6473 0.63902 0.0
C444 C 0.37637 0.65484 0.65998 0.0
H445 H 0.3921 0.63452 0.61647 0.0
C446 C 0.35423 0.61653 0.59522 0.0
O447 O 0.33568 0.56168 0.62029 0.0
O448 O 0.36588 0.57342 0.63174 0.0
N449 N 0.34032 0.65044 0.66089 0.0
C450 C 0.32125 0.65237 0.6697 0.0
C451 C 0.31979 0.66117 0.68891 0.0
C452 C 0.33791 0.66798 0.69882 0.0
C453 C 0.35733 0.66607 0.68934 0.0
C454 C 0.3578 0.6574 0.67009 0.0
H455 H 0.30726 0.64713 0.66219 0.0
O456 O 0.33537 0.58648 0.659 0.0
O457 O 0.35022 0.61293 0.64482 0.0
O458 O 0.31157 0.60229 0.62574 0.0
O459 O 0.31711 0.63575 0.62804 0.0
C460 C 0.37628 0.67216 0.69838 0.0
C461 C 0.39531 0.6693 0.68815 0.0
H462 H 0.42886 0.66071 0.66421 0.0
H463 H 0.4266 0.64417 0.63066 0.0
H464 H 0.30473 0.66259 0.69612 0.0
H465 H 0.33675 0.67455 0.71373 0.0
H466 H 0.37642 0.6788 0.71332 0.0
H467 H 0.40979 0.67378 0.69538 0.0
Mn468 Mn 0.15809 0.58724 0.37877 0.0
Mn469 Mn 0.10674 0.59473 0.38614 0.0
C470 C 0.14538 0.5911 0.41109 0.0
C471 C 0.19124 0.6002 0.37286 0.0
C472 C 0.12511 0.55383 0.37608 0.0
O473 O 0.14776 0.59473 0.3507 0.0
O474 O 0.11426 0.6018 0.35787 0.0
C475 C 0.1066 0.63915 0.38226 0.0
N476 N 0.10247 0.62229 0.39329 0.0
C477 C 0.08994 0.64207 0.42112 0.0
C478 C 0.09393 0.65965 0.41 0.0
C479 C 0.10232 0.65818 0.3905 0.0
C480 C 0.09444 0.62354 0.41209 0.0
H481 H 0.11318 0.63809 0.36731 0.0
C482 C 0.12964 0.60072 0.34556 0.0
O483 O 0.18668 0.58154 0.3687 0.0
O484 O 0.1764 0.61145 0.37966 0.0
N485 N 0.09735 0.58862 0.41285 0.0
C486 C 0.09481 0.57024 0.42172 0.0
C487 C 0.08671 0.56908 0.44136 0.0
C488 C 0.08119 0.58678 0.45161 0.0
C489 C 0.08362 0.60548 0.44204 0.0
C490 C 0.09153 0.60569 0.42237 0.0
H491 H 0.09906 0.55659 0.41392 0.0
O492 O 0.16322 0.58258 0.4081 0.0
O493 O 0.13569 0.5974 0.39509 0.0
O494 O 0.1442 0.55947 0.37601 0.0
O495 O 0.10997 0.56586 0.37933 0.0
C496 C 0.07876 0.62395 0.45135 0.0
C497 C 0.08197 0.64223 0.44092 0.0
H498 H 0.09074 0.67435 0.41634 0.0
H499 H 0.10554 0.67168 0.38186 0.0
H500 H 0.08484 0.55458 0.44862 0.0
H501 H 0.07517 0.58584 0.46684 0.0
H502 H 0.07275 0.62427 0.46661 0.0
H503 H 0.07839 0.65634 0.44832 0.0
Mn504 Mn 0.34246 0.41114 0.87794 0.0
Mn505 Mn 0.39413 0.40719 0.88655 0.0
C506 C 0.35469 0.40754 0.91046 0.0
C507 C 0.30995 0.39721 0.87107 0.0
C508 C 0.3731 0.44687 0.87772 0.0
O509 O 0.35367 0.40464 0.85008 0.0
O510 O 0.38784 0.40191 0.85748 0.0
C511 C 0.39738 0.36333 0.87917 0.0
N512 N 0.40005 0.37946 0.89164 0.0
C513 C 0.4128 0.35829 0.91833 0.0
C514 C 0.41032 0.34146 0.90572 0.0
C515 C 0.40255 0.344 0.88606 0.0
C516 C 0.40746 0.37719 0.9106 0.0
H517 H 0.39127 0.36518 0.8641 0.0
C518 C 0.37254 0.40147 0.84495 0.0
O519 O 0.31408 0.41599 0.86719 0.0
O520 O 0.32499 0.38625 0.87807 0.0
N521 N 0.40253 0.41173 0.91392 0.0
C522 C 0.40388 0.42948 0.9242 0.0
C523 C 0.41136 0.42957 0.94413 0.0
C524 C 0.41749 0.41144 0.95322 0.0
C525 C 0.41633 0.39342 0.94221 0.0
C526 C 0.409 0.3943 0.92232 0.0
H527 H 0.39909 0.44344 0.91733 0.0
O528 O 0.33648 0.4152 0.90712 0.0
O529 O 0.36517 0.40195 0.89464 0.0
O530 O 0.35478 0.4395 0.87581 0.0
O531 O 0.3891 0.43628 0.88199 0.0
C532 C 0.42194 0.37458 0.95026 0.0
C533 C 0.42013 0.35702 0.93834 0.0
H534 H 0.4142 0.32651 0.91101 0.0
H535 H 0.4005 0.33107 0.87627 0.0
H536 H 0.41225 0.44355 0.95251 0.0
H537 H 0.423 0.41153 0.96868 0.0
H538 H 0.4275 0.37341 0.96564 0.0
H539 H 0.42433 0.3426 0.94475 0.0
Mn540 Mn 0.88018 0.83248 0.58785 0.0
Mn541 Mn 0.88958 0.88169 0.59756 0.0
C542 C 0.91401 0.84399 0.59122 0.0
C543 C 0.87303 0.80008 0.59972 0.0
C544 C 0.8781 0.86579 0.55595 0.0
O545 O 0.85191 0.8427 0.59669 0.0
O546 O 0.86021 0.87477 0.6048 0.0
C547 C 0.88632 0.87978 0.64205 0.0
N548 N 0.89751 0.88449 0.62523 0.0
C549 C 0.9267 0.89585 0.64523 0.0
C550 C 0.91542 0.89128 0.66277 0.0
C551 C 0.89517 0.88316 0.66117 0.0
C552 C 0.91706 0.89216 0.62661 0.0
H553 H 0.87079 0.87344 0.64089 0.0
C554 C 0.84719 0.86004 0.6035 0.0
O555 O 0.86813 0.80537 0.58145 0.0
O556 O 0.88148 0.81376 0.61114 0.0
N557 N 0.91735 0.89065 0.59154 0.0
C558 C 0.92628 0.89391 0.57317 0.0
C559 C 0.9466 0.90192 0.57213 0.0
C560 C 0.95747 0.90665 0.58996 0.0
C561 C 0.94784 0.90348 0.60867 0.0
C562 C 0.92748 0.89565 0.60876 0.0
H563 H 0.91803 0.89031 0.55942 0.0
O564 O 0.91014 0.82711 0.58201 0.0
O565 O 0.89801 0.85342 0.5985 0.0
O566 O 0.87696 0.84718 0.56082 0.0
O567 O 0.88222 0.87988 0.56858 0.0
C568 C 0.95772 0.9076 0.62723 0.0
C569 C 0.9472 0.90369 0.64551 0.0
H570 H 0.92221 0.89381 0.67754 0.0
H571 H 0.88641 0.87949 0.67463 0.0
H572 H 0.95391 0.90435 0.55763 0.0
H573 H 0.97322 0.91262 0.5891 0.0
H574 H 0.9735 0.91358 0.62763 0.0
H575 H 0.95505 0.90669 0.65969 0.0
Mn576 Mn 0.90885 0.13189 0.3424 0.0
Mn577 Mn 0.94223 0.10423 0.31507 0.0
C578 C 0.94231 0.12676 0.35435 0.0
C579 C 0.89413 0.16331 0.34856 0.0
C580 C 0.90619 0.08648 0.33924 0.0
O581 O 0.89499 0.12972 0.3147 0.0
O582 O 0.9214 0.11642 0.29664 0.0
C583 C 0.96327 0.13611 0.29123 0.0
N584 N 0.96436 0.1205 0.30449 0.0
C585 C 0.00176 0.12345 0.3064 0.0
C586 C 0.00106 0.13946 0.29264 0.0
C587 C 0.98172 0.14585 0.28506 0.0
C588 C 0.98287 0.11424 0.31189 0.0
H589 H 0.94843 0.14112 0.28547 0.0
C590 C 0.90336 0.12443 0.29807 0.0
O591 O 0.88451 0.14678 0.35372 0.0
O592 O 0.91189 0.16146 0.33946 0.0
N593 N 0.96325 0.09186 0.33126 0.0
C594 C 0.96107 0.07719 0.34549 0.0
C595 C 0.97884 0.06967 0.35518 0.0
C596 C 0.99866 0.07722 0.35008 0.0
C597 C 0.00055 0.09222 0.3353 0.0
C598 C 0.98228 0.09904 0.32604 0.0
H599 H 0.94589 0.07131 0.3495 0.0
O600 O 0.92771 0.13258 0.3665 0.0
O601 O 0.93695 0.12471 0.33555 0.0
O602 O 0.90094 0.10258 0.34838 0.0
O603 O 0.9203 0.08589 0.32564 0.0
C604 C 0.01978 0.10097 0.32966 0.0
C605 C 0.02039 0.11659 0.31526 0.0
H606 H 0.01524 0.14711 0.28795 0.0
H607 H 0.98104 0.15828 0.27453 0.0
H608 H 0.97728 0.05812 0.36661 0.0
H609 H 0.01224 0.07147 0.35775 0.0
H610 H 0.03416 0.09604 0.33654 0.0
H611 H 0.03524 0.12342 0.31133 0.0
Mn612 Mn 0.6157 0.1675 0.08743 0.0
Mn613 Mn 0.60788 0.11823 0.09786 0.0
C614 C 0.58239 0.15551 0.09256 0.0
C615 C 0.62307 0.20012 0.09852 0.0
C616 C 0.61606 0.13387 0.05562 0.0
O617 O 0.64458 0.15798 0.09487 0.0
O618 O 0.63781 0.12555 0.10253 0.0
C619 C 0.61525 0.1207 0.14188 0.0
N620 N 0.60257 0.11574 0.12611 0.0
C621 C 0.57529 0.1048 0.14857 0.0
C622 C 0.58812 0.10966 0.16506 0.0
C623 C 0.60817 0.11768 0.16169 0.0
C624 C 0.58321 0.10811 0.12918 0.0
H625 H 0.63063 0.12697 0.13937 0.0
C626 C 0.65035 0.14061 0.1007 0.0
O627 O 0.62693 0.19464 0.08008 0.0
O628 O 0.61544 0.18654 0.11052 0.0
N629 N 0.57979 0.10884 0.09424 0.0
C630 C 0.56931 0.10509 0.07671 0.0
C631 C 0.54898 0.09705 0.07744 0.0
C632 C 0.53971 0.09279 0.09616 0.0
C633 C 0.55096 0.0964 0.11397 0.0
C634 C 0.57125 0.10422 0.1123 0.0
H635 H 0.5763 0.1084 0.06229 0.0
O636 O 0.58545 0.17231 0.08301 0.0
O637 O 0.59894 0.14639 0.0992 0.0
O638 O 0.61768 0.15248 0.06043 0.0
O639 O 0.61256 0.11982 0.06841 0.0
C640 C 0.54275 0.09275 0.13334 0.0
C641 C 0.55488 0.09702 0.15063 0.0
H642 H 0.58269 0.10741 0.18036 0.0
H643 H 0.61812 0.12156 0.17434 0.0
H644 H 0.54042 0.09427 0.06362 0.0
H645 H 0.52394 0.08682 0.09667 0.0
H646 H 0.52705 0.08683 0.13511 0.0
H647 H 0.54832 0.09433 0.16544 0.0
Mn648 Mn 0.58407 0.86819 0.83516 0.0
Mn649 Mn 0.548 0.8963 0.81134 0.0
C650 C 0.55178 0.8733 0.84995 0.0
C651 C 0.59939 0.83687 0.84068 0.0
C652 C 0.5854 0.91405 0.83346 0.0
O653 O 0.59531 0.87007 0.80625 0.0
O654 O 0.56824 0.88582 0.79155 0.0
C655 C 0.52733 0.86414 0.7874 0.0
N656 N 0.52614 0.87941 0.80108 0.0
C657 C 0.48896 0.87514 0.80399 0.0
C658 C 0.48974 0.85949 0.78979 0.0
C659 C 0.50902 0.85392 0.78152 0.0
C660 C 0.50771 0.88478 0.80925 0.0
H661 H 0.54213 0.85976 0.78109 0.0
C662 C 0.58585 0.87691 0.79072 0.0
O663 O 0.60937 0.85353 0.84469 0.0
O664 O 0.58095 0.8385 0.83281 0.0
N665 N 0.52723 0.90728 0.82871 0.0
C666 C 0.52937 0.9219 0.84302 0.0
C667 C 0.51162 0.92886 0.85313 0.0
C668 C 0.4919 0.92086 0.84828 0.0
C669 C 0.49005 0.9059 0.83343 0.0
C670 C 0.50827 0.89966 0.82377 0.0
H671 H 0.54448 0.92819 0.84672 0.0
O672 O 0.56754 0.86763 0.86077 0.0
O673 O 0.55527 0.87533 0.83076 0.0
O674 O 0.59244 0.89757 0.84054 0.0
O675 O 0.56959 0.91506 0.82174 0.0
C676 C 0.47092 0.89677 0.828 0.0
C677 C 0.47038 0.88133 0.81338 0.0
H678 H 0.47566 0.85153 0.78526 0.0
H679 H 0.50977 0.84177 0.77065 0.0
H680 H 0.51312 0.9404 0.8646 0.0
H681 H 0.47832 0.92632 0.85606 0.0
H682 H 0.45655 0.90125 0.83519 0.0
H683 H 0.45563 0.87419 0.8096 0.0
Mn684 Mn 0.86413 0.16508 0.91517 0.0
Mn685 Mn 0.85745 0.15708 0.86526 0.0
C686 C 0.83102 0.15986 0.90231 0.0
C687 C 0.87055 0.15299 0.94761 0.0
C688 C 0.86731 0.19812 0.88345 0.0
O689 O 0.89329 0.15788 0.90537 0.0
O690 O 0.88618 0.14923 0.87309 0.0
C691 C 0.86031 0.1126 0.86376 0.0
N692 N 0.84953 0.12977 0.85991 0.0
C693 C 0.82136 0.11094 0.84467 0.0
C694 C 0.83228 0.09308 0.84827 0.0
C695 C 0.85181 0.09391 0.85791 0.0
C696 C 0.83072 0.12914 0.85065 0.0
H697 H 0.87525 0.11317 0.87129 0.0
C698 C 0.8986 0.15074 0.88822 0.0
O699 O 0.87468 0.17154 0.94271 0.0
O700 O 0.86339 0.14129 0.93347 0.0
N701 N 0.83009 0.1638 0.85596 0.0
C702 C 0.82076 0.18217 0.85533 0.0
C703 C 0.8006 0.18381 0.8472 0.0
C704 C 0.79029 0.16659 0.83971 0.0
C705 C 0.80024 0.14787 0.84042 0.0
C706 C 0.82039 0.14718 0.84858 0.0
H707 H 0.82857 0.19544 0.86112 0.0
O708 O 0.83354 0.16883 0.91956 0.0
O709 O 0.84791 0.15419 0.89321 0.0
O710 O 0.86634 0.19281 0.90189 0.0
O711 O 0.86521 0.18581 0.86876 0.0
C712 C 0.79074 0.1298 0.83384 0.0
C713 C 0.8013 0.11135 0.83594 0.0
H714 H 0.82568 0.07861 0.84396 0.0
H715 H 0.86025 0.08017 0.8609 0.0
H716 H 0.79299 0.19829 0.84678 0.0
H717 H 0.77466 0.16788 0.83364 0.0
H718 H 0.77515 0.12987 0.8275 0.0
H719 H 0.79367 0.09751 0.83118 0.0
Mn720 Mn 0.58837 0.12457 0.6553 0.0
Mn721 Mn 0.54911 0.10019 0.67863 0.0
C722 C 0.55539 0.12344 0.64088 0.0
C723 C 0.60618 0.155 0.65065 0.0
C724 C 0.5847 0.07898 0.65699 0.0
O725 O 0.59932 0.12101 0.68412 0.0
O726 O 0.5699 0.10926 0.69907 0.0
C727 C 0.53087 0.13373 0.70202 0.0
N728 N 0.52869 0.11877 0.6881 0.0
C729 C 0.49223 0.12603 0.6838 0.0
C730 C 0.49403 0.14134 0.69829 0.0
C731 C 0.51347 0.14529 0.70735 0.0
C732 C 0.51013 0.11507 0.67905 0.0
H733 H 0.54577 0.13685 0.70894 0.0
C734 C 0.58875 0.11589 0.69969 0.0
O735 O 0.61481 0.138 0.64577 0.0
O736 O 0.58791 0.15409 0.65883 0.0
N737 N 0.52791 0.0911 0.66026 0.0
C738 C 0.52909 0.07668 0.64567 0.0
C739 C 0.51117 0.07157 0.63449 0.0
C740 C 0.49221 0.08121 0.63853 0.0
C741 C 0.49134 0.09592 0.65369 0.0
C742 C 0.50971 0.1004 0.66432 0.0
H743 H 0.54357 0.06913 0.64254 0.0
O744 O 0.57155 0.12743 0.62982 0.0
O745 O 0.55922 0.12026 0.65976 0.0
O746 O 0.59345 0.09463 0.64946 0.0
O747 O 0.56898 0.07977 0.66883 0.0
C748 C 0.47302 0.10644 0.65854 0.0
C749 C 0.47345 0.1214 0.67367 0.0
H750 H 0.48065 0.1503 0.70241 0.0
H751 H 0.51504 0.1572 0.71842 0.0
H752 H 0.51197 0.06021 0.62281 0.0
H753 H 0.47843 0.07727 0.62984 0.0
H754 H 0.45857 0.10329 0.65061 0.0
H755 H 0.45929 0.12948 0.67718 0.0
Mn756 Mn 0.63339 0.84097 0.40843 0.0
Mn757 Mn 0.63794 0.84701 0.35805 0.0
C758 C 0.66596 0.84264 0.39382 0.0
C759 C 0.62995 0.85479 0.4406 0.0
C760 C 0.62625 0.80725 0.3777 0.0
O761 O 0.60447 0.85031 0.39995 0.0
O762 O 0.60995 0.85611 0.36686 0.0
C763 C 0.63728 0.89157 0.35664 0.0
N764 N 0.64706 0.87392 0.35248 0.0
C765 C 0.67615 0.89147 0.33749 0.0
C766 C 0.66632 0.90984 0.34149 0.0
C767 C 0.64682 0.90988 0.35114 0.0
C768 C 0.66584 0.8737 0.34324 0.0
H769 H 0.62235 0.89167 0.36416 0.0
C770 C 0.59838 0.85629 0.38262 0.0
O771 O 0.62393 0.83644 0.43673 0.0
O772 O 0.63735 0.86522 0.42566 0.0
N773 N 0.66436 0.83892 0.34752 0.0
C774 C 0.6721 0.81997 0.34544 0.0
C775 C 0.69167 0.8173 0.33636 0.0
C776 C 0.703 0.83412 0.32942 0.0
C777 C 0.6946 0.85345 0.33149 0.0
C778 C 0.67493 0.85515 0.34046 0.0
H779 H 0.66347 0.80699 0.35077 0.0
O780 O 0.66363 0.83462 0.41152 0.0
O781 O 0.64923 0.84969 0.3854 0.0
O782 O 0.62793 0.81318 0.39595 0.0
O783 O 0.62896 0.81875 0.36245 0.0
C784 C 0.70512 0.87111 0.32531 0.0
C785 C 0.69592 0.89011 0.32835 0.0
H786 H 0.67368 0.924 0.33737 0.0
H787 H 0.63919 0.92401 0.35438 0.0
H788 H 0.69804 0.80233 0.33481 0.0
H789 H 0.71819 0.83202 0.32263 0.0
H790 H 0.72041 0.87027 0.31844 0.0
H791 H 0.70429 0.9036 0.32378 0.0
Mn792 Mn 0.91583 0.87861 0.15643 0.0
Mn793 Mn 0.9561 0.90663 0.17353 0.0
C794 C 0.94736 0.87918 0.13946 0.0
C795 C 0.89892 0.8475 0.15435 0.0
C796 C 0.91901 0.92439 0.15153 0.0
O797 O 0.90748 0.88368 0.18569 0.0
O798 O 0.9354 0.90221 0.19549 0.0
C799 C 0.97334 0.87727 0.20263 0.0
N800 N 0.97585 0.88916 0.18606 0.0
C801 C 0.01146 0.87865 0.18221 0.0
C802 C 0.00929 0.86639 0.19929 0.0
C803 C 0.99012 0.86567 0.20952 0.0
C804 C 0.99419 0.88987 0.17604 0.0
H805 H 0.95864 0.87663 0.21054 0.0
C806 C 0.91783 0.89349 0.19905 0.0
O807 O 0.88911 0.86401 0.14993 0.0
O808 O 0.9177 0.84939 0.1613 0.0
N809 N 0.97735 0.91145 0.15379 0.0
C810 C 0.9766 0.92324 0.13699 0.0
C811 C 0.99441 0.92525 0.12483 0.0
C812 C 0.01281 0.91514 0.13006 0.0
C813 C 0.01322 0.90309 0.14741 0.0
C814 C 0.99502 0.90176 0.15902 0.0
H815 H 0.96246 0.93087 0.13279 0.0
O816 O 0.93032 0.8745 0.12994 0.0
O817 O 0.94516 0.88391 0.15828 0.0
O818 O 0.90889 0.90789 0.14912 0.0
O819 O 0.93678 0.92555 0.1603 0.0
C820 C 0.0309 0.89218 0.15351 0.0
C821 C 0.03003 0.88001 0.17092 0.0
H822 H 0.02219 0.85739 0.20463 0.0
H823 H 0.98829 0.85618 0.22267 0.0
H824 H 0.99393 0.93449 0.1114 0.0
H825 H 0.02647 0.91661 0.12056 0.0
H826 H 0.04518 0.89288 0.14481 0.0
H827 H 0.04367 0.87155 0.17537 0.0
Mn828 Mn 0.84117 0.59657 0.88144 0.0
Mn829 Mn 0.80455 0.57232 0.85371 0.0
C830 C 0.80736 0.60839 0.88008 0.0
C831 C 0.85835 0.60209 0.91199 0.0
C832 C 0.83715 0.59989 0.83532 0.0
O833 O 0.85428 0.56899 0.87747 0.0
O834 O 0.82919 0.55475 0.85807 0.0
C835 C 0.79343 0.54108 0.8838 0.0
N836 N 0.78763 0.55641 0.8714 0.0
C837 C 0.75159 0.5524 0.88083 0.0
C838 C 0.75716 0.53649 0.89361 0.0
C839 C 0.77819 0.53087 0.89515 0.0
C840 C 0.76747 0.56207 0.86996 0.0
H841 H 0.80955 0.53666 0.88501 0.0
C842 C 0.84681 0.55429 0.86724 0.0
O843 O 0.86661 0.60786 0.89504 0.0
O844 O 0.8407 0.5925 0.91108 0.0
N845 N 0.77967 0.58724 0.8485 0.0
C846 C 0.777 0.60354 0.8363 0.0
C847 C 0.75691 0.61134 0.83345 0.0
C848 C 0.73975 0.60221 0.84303 0.0
C849 C 0.74285 0.58538 0.8554 0.0
C850 C 0.76323 0.57828 0.85767 0.0
H851 H 0.79013 0.6107 0.82907 0.0
O852 O 0.82266 0.62047 0.88461 0.0
O853 O 0.81228 0.58982 0.8763 0.0
O854 O 0.84695 0.60383 0.85169 0.0
O855 O 0.82085 0.5887 0.83447 0.0
C856 C 0.72654 0.5755 0.86573 0.0
C857 C 0.73092 0.55912 0.87856 0.0
H858 H 0.74545 0.52856 0.90237 0.0
H859 H 0.78262 0.51865 0.90503 0.0
H860 H 0.75468 0.6244 0.82396 0.0
H861 H 0.72429 0.60834 0.84089 0.0
H862 H 0.71061 0.58058 0.86416 0.0
H863 H 0.71829 0.55187 0.8867 0.0
Mn864 Mn 0.33426 0.90798 0.12756 0.0
Mn865 Mn 0.29559 0.92991 0.15371 0.0
C866 C 0.30152 0.89297 0.12869 0.0
C867 C 0.35195 0.90452 0.09715 0.0
C868 C 0.33121 0.90723 0.17344 0.0
O869 O 0.34523 0.93666 0.13191 0.0
O870 O 0.3169 0.95038 0.14646 0.0
C871 C 0.27786 0.95631 0.12219 0.0
N872 N 0.27538 0.9413 0.13598 0.0
C873 C 0.2387 0.93851 0.12864 0.0
C874 C 0.24081 0.95403 0.11443 0.0
C875 C 0.26049 0.96293 0.11115 0.0
C876 C 0.25653 0.93264 0.13925 0.0
H877 H 0.29297 0.96318 0.11966 0.0
C878 C 0.33537 0.95168 0.13917 0.0
O879 O 0.3606 0.8992 0.11405 0.0
O880 O 0.33355 0.91234 0.09805 0.0
N881 N 0.27401 0.9116 0.16155 0.0
C882 C 0.27508 0.89572 0.1745 0.0
C883 C 0.25708 0.88424 0.17837 0.0
C884 C 0.23819 0.8894 0.16909 0.0
C885 C 0.23732 0.90615 0.15625 0.0
C886 C 0.25582 0.9169 0.15281 0.0
H887 H 0.28963 0.8916 0.18153 0.0
O888 O 0.31777 0.88244 0.12411 0.0
O889 O 0.30491 0.91197 0.13228 0.0
O890 O 0.34017 0.90116 0.15736 0.0
O891 O 0.31513 0.91843 0.17332 0.0
C892 C 0.21902 0.91223 0.14626 0.0
C893 C 0.21971 0.92837 0.13243 0.0
H894 H 0.22748 0.9591 0.10581 0.0
H895 H 0.26227 0.97485 0.10015 0.0
H896 H 0.25782 0.8713 0.18826 0.0
H897 H 0.22464 0.88004 0.17158 0.0
H898 H 0.20443 0.90435 0.14875 0.0
H899 H 0.20561 0.93261 0.12452 0.0
Mn900 Mn 0.16107 0.09549 0.62592 0.0
Mn901 Mn 0.19867 0.07209 0.65249 0.0
C902 C 0.19424 0.10955 0.62822 0.0
C903 C 0.14434 0.10022 0.59495 0.0
C904 C 0.16359 0.0956 0.67198 0.0
O905 O 0.14914 0.06695 0.62925 0.0
O906 O 0.17654 0.05268 0.64489 0.0
C907 C 0.21516 0.04532 0.62066 0.0
N908 N 0.21834 0.05998 0.63474 0.0
C909 C 0.2552 0.0608 0.62803 0.0
C910 C 0.25236 0.04564 0.61351 0.0
C911 C 0.23224 0.03791 0.60977 0.0
C912 C 0.2376 0.06757 0.63841 0.0
H913 H 0.19972 0.03932 0.6178 0.0
C914 C 0.15833 0.05176 0.63698 0.0
O915 O 0.13532 0.10525 0.61175 0.0
O916 O 0.16247 0.09191 0.59631 0.0
N917 N 0.22111 0.08924 0.66078 0.0
C918 C 0.22087 0.10478 0.67422 0.0
C919 C 0.23953 0.11498 0.6788 0.0
C920 C 0.25821 0.10886 0.66977 0.0
C921 C 0.25818 0.09248 0.65641 0.0
C922 C 0.23907 0.08303 0.65226 0.0
H923 H 0.20651 0.10955 0.68116 0.0
O924 O 0.17842 0.12066 0.62355 0.0
O925 O 0.19021 0.0906 0.63125 0.0
O926 O 0.15469 0.10173 0.65583 0.0
O927 O 0.17958 0.08429 0.67196 0.0
C928 C 0.27621 0.08544 0.64666 0.0
C929 C 0.27473 0.06968 0.63242 0.0
H930 H 0.26549 0.03992 0.60505 0.0
H931 H 0.22991 0.02626 0.59853 0.0
H932 H 0.23949 0.12762 0.68913 0.0
H933 H 0.27236 0.11714 0.67295 0.0
H934 H 0.29124 0.0923 0.64966 0.0
H935 H 0.28867 0.06472 0.62472 0.0
Mn936 Mn 0.16062 0.90658 0.8784 0.0
Mn937 Mn 0.19679 0.9321 0.85149 0.0
C938 C 0.19418 0.89432 0.8755 0.0
C939 C 0.14438 0.90008 0.90928 0.0
C940 C 0.16284 0.90643 0.83213 0.0
O941 O 0.14769 0.93452 0.87591 0.0
O942 O 0.17322 0.95013 0.85828 0.0
C943 C 0.21079 0.95999 0.88375 0.0
N944 N 0.21526 0.94557 0.86982 0.0
C945 C 0.25162 0.94623 0.87891 0.0
C946 C 0.24744 0.96119 0.89326 0.0
C947 C 0.22693 0.96806 0.89572 0.0
C948 C 0.23491 0.93874 0.86744 0.0
H949 H 0.19503 0.96527 0.88572 0.0
C950 C 0.15549 0.94998 0.86717 0.0
O951 O 0.13538 0.89522 0.89235 0.0
O952 O 0.16218 0.90937 0.90812 0.0
N953 N 0.22055 0.9166 0.84388 0.0
C954 C 0.22186 0.90182 0.82967 0.0
C955 C 0.24132 0.89327 0.82538 0.0
C956 C 0.25924 0.90013 0.83561 0.0
C957 C 0.25753 0.91549 0.85004 0.0
C958 C 0.23775 0.92355 0.85355 0.0
H959 H 0.20815 0.89657 0.82168 0.0
O960 O 0.17886 0.8823 0.88005 0.0
O961 O 0.18938 0.91311 0.87282 0.0
O962 O 0.15412 0.90058 0.84848 0.0
O963 O 0.17873 0.9182 0.83173 0.0
C964 C 0.27465 0.92305 0.86116 0.0
C965 C 0.27168 0.93832 0.87567 0.0
H966 H 0.25984 0.96743 0.90254 0.0
H967 H 0.22356 0.97953 0.90683 0.0
H968 H 0.24252 0.88145 0.81421 0.0
H969 H 0.27421 0.8935 0.83223 0.0
H970 H 0.29015 0.91714 0.85878 0.0
H971 H 0.28492 0.94384 0.88429 0.0
Mn972 Mn 0.66136 0.40755 0.37718 0.0
Mn973 Mn 0.69965 0.43119 0.35165 0.0
C974 C 0.69451 0.3937 0.3756 0.0
C975 C 0.64399 0.40235 0.40769 0.0
C976 C 0.66349 0.40879 0.33143 0.0
O977 O 0.65016 0.43628 0.37365 0.0
O978 O 0.67909 0.45138 0.36099 0.0
C979 C 0.7189 0.45488 0.38479 0.0
N980 N 0.72069 0.44118 0.36961 0.0
C981 C 0.75753 0.43786 0.3757 0.0
C982 C 0.75615 0.45228 0.3911 0.0
C983 C 0.73672 0.4607 0.39577 0.0
C984 C 0.73923 0.43263 0.36531 0.0
H985 H 0.70396 0.46115 0.38858 0.0
C986 C 0.6605 0.45194 0.36812 0.0
O987 O 0.63521 0.39766 0.39061 0.0
O988 O 0.6622 0.41089 0.40686 0.0
N989 N 0.72063 0.4131 0.34221 0.0
C990 C 0.71898 0.39822 0.32809 0.0
C991 C 0.7368 0.38737 0.32257 0.0
C992 C 0.75615 0.39202 0.33149 0.0
C993 C 0.75749 0.40746 0.34589 0.0
C994 C 0.7392 0.41775 0.3508 0.0
H995 H 0.70419 0.39463 0.3211 0.0
O996 O 0.67855 0.38239 0.37993 0.0
O997 O 0.69042 0.41247 0.37233 0.0
O998 O 0.65544 0.40134 0.3474 0.0
O999 O 0.67912 0.42091 0.33168 0.0
C1000 C 0.77621 0.41288 0.35574 0.0
C1001 C 0.77624 0.42816 0.37055 0.0
H1002 H 0.76985 0.45675 0.39965 0.0
H1003 H 0.73546 0.47161 0.40784 0.0
H1004 H 0.73563 0.37546 0.31146 0.0
H1005 H 0.76984 0.38357 0.32724 0.0
H1006 H 0.79061 0.40523 0.35224 0.0
H1007 H 0.79069 0.43205 0.37818 0.0
Mn1008 Mn 0.82948 0.40653 0.62713 0.0
Mn1009 Mn 0.79446 0.43557 0.651 0.0
C1010 C 0.79588 0.39472 0.63229 0.0
C1011 C 0.84467 0.39686 0.59681 0.0
C1012 C 0.82943 0.41339 0.67251 0.0
O1013 O 0.84298 0.43444 0.6265 0.0
O1014 O 0.81665 0.45298 0.63921 0.0
C1015 C 0.77674 0.45717 0.61596 0.0
N1016 N 0.77402 0.44517 0.63241 0.0
C1017 C 0.73697 0.44328 0.62671 0.0
C1018 C 0.73934 0.45582 0.60985 0.0
C1019 C 0.75933 0.46274 0.60442 0.0
C1020 C 0.75487 0.43837 0.63773 0.0
H1021 H 0.79209 0.46234 0.61163 0.0
C1022 C 0.83472 0.45124 0.63118 0.0
O1023 O 0.85434 0.39408 0.61384 0.0
O1024 O 0.82691 0.40594 0.59746 0.0
N1025 N 0.77209 0.42046 0.66281 0.0
C1026 C 0.77274 0.4072 0.67848 0.0
C1027 C 0.75418 0.39814 0.68523 0.0
C1028 C 0.73518 0.40285 0.67588 0.0
C1029 C 0.73487 0.41661 0.65984 0.0
C1030 C 0.75385 0.42529 0.65386 0.0
H1031 H 0.78731 0.40347 0.68569 0.0
O1032 O 0.81085 0.38221 0.62868 0.0
O1033 O 0.80108 0.41365 0.63259 0.0
O1034 O 0.83663 0.4041 0.65718 0.0
O1035 O 0.81445 0.42595 0.67147 0.0
C1036 C 0.71658 0.42175 0.64928 0.0
C1037 C 0.71762 0.43504 0.63271 0.0
H1038 H 0.72597 0.46001 0.60081 0.0
H1039 H 0.76132 0.47228 0.59132 0.0
H1040 H 0.75453 0.38748 0.69757 0.0
H1041 H 0.721 0.39567 0.68108 0.0
H1042 H 0.70167 0.41535 0.65355 0.0
H1043 H 0.7035 0.43856 0.62449 0.0
Mn1044 Mn 0.65874 0.59716 0.12287 0.0
Mn1045 Mn 0.69398 0.57549 0.1536 0.0
C1046 C 0.69074 0.6126 0.12872 0.0
C1047 C 0.64547 0.60181 0.09045 0.0
C1048 C 0.65557 0.597 0.1688 0.0
O1049 O 0.64803 0.56804 0.12479 0.0
O1050 O 0.67381 0.55512 0.14384 0.0
C1051 C 0.71512 0.54937 0.12394 0.0
N1052 N 0.71605 0.56432 0.13801 0.0
C1053 C 0.75323 0.5675 0.13423 0.0
C1054 C 0.75272 0.55207 0.11977 0.0
C1055 C 0.73356 0.54299 0.11458 0.0
C1056 C 0.73438 0.57313 0.14314 0.0
H1057 H 0.70042 0.54238 0.11989 0.0
C1058 C 0.65689 0.5533 0.13371 0.0
O1059 O 0.63418 0.60564 0.10625 0.0
O1060 O 0.66378 0.59434 0.09358 0.0
N1061 N 0.71454 0.59381 0.16386 0.0
C1062 C 0.71206 0.60947 0.17691 0.0
C1063 C 0.72955 0.62088 0.18284 0.0
C1064 C 0.74937 0.61595 0.17541 0.0
C1065 C 0.75156 0.59956 0.16222 0.0
C1066 C 0.73357 0.58876 0.15684 0.0
H1067 H 0.69682 0.61335 0.18256 0.0
O1068 O 0.67502 0.62311 0.12251 0.0
O1069 O 0.68715 0.59353 0.1314 0.0
O1070 O 0.64863 0.60286 0.15173 0.0
O1071 O 0.67208 0.58661 0.17102 0.0
C1072 C 0.77076 0.59381 0.1538 0.0
C1073 C 0.77163 0.57781 0.13983 0.0
H1074 H 0.76689 0.5472 0.11243 0.0
H1075 H 0.73301 0.53114 0.10336 0.0
H1076 H 0.72776 0.63352 0.19298 0.0
H1077 H 0.76269 0.62505 0.17975 0.0
H1078 H 0.78492 0.60184 0.15758 0.0
H1079 H 0.78647 0.57382 0.13321 0.0
Mn1080 Mn 0.61996 0.66805 0.91064 0.0
Mn1081 Mn 0.61447 0.61761 0.90641 0.0
C1082 C 0.5876 0.65389 0.90411 0.0
C1083 C 0.62656 0.69957 0.89618 0.0
C1084 C 0.6168 0.63882 0.94661 0.0
O1085 O 0.64996 0.65922 0.90688 0.0
O1086 O 0.64434 0.62578 0.9057 0.0
C1087 C 0.62972 0.61472 0.86438 0.0
N1088 N 0.61457 0.6111 0.87833 0.0
C1089 C 0.5934 0.5935 0.85395 0.0
C1090 C 0.6088 0.59695 0.83933 0.0
C1091 C 0.62699 0.60771 0.84455 0.0
C1092 C 0.59687 0.60107 0.87339 0.0
H1093 H 0.6438 0.62284 0.86833 0.0
C1094 C 0.6565 0.64119 0.90558 0.0
O1095 O 0.62893 0.69663 0.91542 0.0
O1096 O 0.62103 0.68411 0.88542 0.0
N1097 N 0.5866 0.60706 0.90652 0.0
C1098 C 0.5731 0.60526 0.92228 0.0
C1099 C 0.55393 0.59523 0.91943 0.0
C1100 C 0.54908 0.58671 0.90058 0.0
C1101 C 0.56344 0.58834 0.88473 0.0
C1102 C 0.58215 0.59874 0.88837 0.0
H1103 H 0.57685 0.61161 0.93684 0.0
O1104 O 0.58919 0.67178 0.91184 0.0
O1105 O 0.60501 0.64483 0.9 0.0
O1106 O 0.62008 0.65649 0.9395 0.0
O1107 O 0.61379 0.62324 0.9356 0.0
C1108 C 0.55999 0.57995 0.86548 0.0
C1109 C 0.57483 0.58272 0.85003 0.0
H1110 H 0.60681 0.59143 0.82406 0.0
H1111 H 0.63894 0.61047 0.83335 0.0
H1112 H 0.54297 0.59398 0.93177 0.0
H1113 H 0.53431 0.57893 0.89845 0.0
H1114 H 0.54607 0.57123 0.8624 0.0
H1115 H 0.57182 0.57641 0.83522 0.0
Mn1116 Mn 0.598 0.38058 0.15889 0.0
Mn1117 Mn 0.60579 0.38679 0.10887 0.0
C1118 C 0.60122 0.41251 0.14546 0.0
C1119 C 0.61121 0.37631 0.19147 0.0
C1120 C 0.56378 0.37622 0.12701 0.0
O1121 O 0.60683 0.35256 0.14965 0.0
O1122 O 0.6134 0.35898 0.11684 0.0
C1123 C 0.65182 0.38374 0.10828 0.0
N1124 N 0.6342 0.39431 0.10415 0.0
C1125 C 0.65422 0.42182 0.09029 0.0
C1126 C 0.67258 0.41117 0.09426 0.0
C1127 C 0.67137 0.39206 0.10332 0.0
C1128 C 0.63518 0.41269 0.09539 0.0
H1129 H 0.65095 0.3691 0.11534 0.0
C1130 C 0.61278 0.34711 0.13208 0.0
O1131 O 0.59217 0.37113 0.18698 0.0
O1132 O 0.62273 0.38303 0.17685 0.0
N1133 N 0.59911 0.41314 0.09921 0.0
C1134 C 0.58005 0.42193 0.09757 0.0
C1135 C 0.57858 0.44141 0.08945 0.0
C1136 C 0.59669 0.45158 0.08302 0.0
C1137 C 0.61611 0.44213 0.08467 0.0
C1138 C 0.61658 0.42263 0.0927 0.0
H1139 H 0.56609 0.41421 0.10257 0.0
O1140 O 0.59226 0.40984 0.16278 0.0
O1141 O 0.6083 0.39645 0.13668 0.0
O1142 O 0.56944 0.37661 0.14548 0.0
O1143 O 0.57613 0.37945 0.11225 0.0
C1144 C 0.63505 0.45147 0.07908 0.0
C1145 C 0.6541 0.44133 0.0819 0.0
H1146 H 0.6877 0.4176 0.09061 0.0
H1147 H 0.68547 0.3838 0.10654 0.0
H1148 H 0.56355 0.44861 0.08825 0.0
H1149 H 0.59553 0.46669 0.07698 0.0
H1150 H 0.63519 0.46657 0.0729 0.0
H1151 H 0.66859 0.44878 0.07782 0.0
Mn1152 Mn 0.87886 0.33228 0.41848 0.0
Mn1153 Mn 0.88518 0.38275 0.41595 0.0
C1154 C 0.91144 0.34621 0.41219 0.0
C1155 C 0.8714 0.30134 0.40326 0.0
C1156 C 0.88036 0.36012 0.45532 0.0
O1157 O 0.84912 0.34206 0.41454 0.0
O1158 O 0.85534 0.37542 0.41173 0.0
C1159 C 0.87477 0.38877 0.37286 0.0
N1160 N 0.88844 0.39084 0.38849 0.0
C1161 C 0.91301 0.40871 0.36761 0.0
C1162 C 0.89917 0.40686 0.35128 0.0
C1163 C 0.88001 0.39676 0.3539 0.0
C1164 C 0.907 0.40034 0.38608 0.0
H1165 H 0.85998 0.38113 0.37485 0.0
C1166 C 0.84301 0.36009 0.41164 0.0
O1167 O 0.86916 0.30397 0.42254 0.0
O1168 O 0.87744 0.31683 0.39279 0.0
N1169 N 0.91333 0.39186 0.41957 0.0
C1170 C 0.9254 0.39135 0.4365 0.0
C1171 C 0.94537 0.40021 0.43621 0.0
C1172 C 0.95262 0.40967 0.41861 0.0
C1173 C 0.93984 0.41011 0.40143 0.0
C1174 C 0.92013 0.40097 0.40257 0.0
H1175 H 0.91992 0.38409 0.45007 0.0
O1176 O 0.90975 0.32813 0.41946 0.0
O1177 O 0.89407 0.35555 0.4088 0.0
O1178 O 0.87881 0.34252 0.44768 0.0
O1179 O 0.88253 0.37608 0.44479 0.0
C1180 C 0.94594 0.41921 0.38319 0.0
C1181 C 0.93255 0.41848 0.36626 0.0
H1182 H 0.90315 0.41305 0.33666 0.0
H1183 H 0.86928 0.39522 0.34137 0.0
H1184 H 0.95515 0.39974 0.44953 0.0
H1185 H 0.96805 0.41645 0.41841 0.0
H1186 H 0.96091 0.42678 0.38212 0.0
H1187 H 0.93741 0.42545 0.35226 0.0
Mn1188 Mn 0.90066 0.62031 0.66173 0.0
Mn1189 Mn 0.89154 0.61345 0.612 0.0
C1190 C 0.89687 0.58817 0.64876 0.0
C1191 C 0.88794 0.62519 0.69434 0.0
C1192 C 0.93413 0.62402 0.62917 0.0
O1193 O 0.89179 0.64827 0.65229 0.0
O1194 O 0.8842 0.64139 0.61976 0.0
C1195 C 0.84551 0.61646 0.61276 0.0
N1196 N 0.86298 0.60584 0.60824 0.0
C1197 C 0.84249 0.578 0.59559 0.0
C1198 C 0.82427 0.5887 0.59999 0.0
C1199 C 0.8258 0.60799 0.60865 0.0
C1200 C 0.86169 0.58724 0.59998 0.0
H1201 H 0.84663 0.63125 0.61951 0.0
C1202 C 0.88533 0.6535 0.63481 0.0
O1203 O 0.90693 0.63031 0.68962 0.0
O1204 O 0.87627 0.61817 0.67993 0.0
N1205 N 0.89791 0.58698 0.60244 0.0
C1206 C 0.91695 0.57842 0.59974 0.0
C1207 C 0.91816 0.55898 0.59145 0.0
C1208 C 0.89982 0.54861 0.58592 0.0
C1209 C 0.88042 0.55784 0.58861 0.0
C1210 C 0.8802 0.57732 0.59674 0.0
H1211 H 0.93109 0.58632 0.60395 0.0
O1212 O 0.90621 0.59098 0.66591 0.0
O1213 O 0.88984 0.6042 0.63993 0.0
O1214 O 0.92893 0.62389 0.64775 0.0
O1215 O 0.92136 0.62077 0.61467 0.0
C1216 C 0.86129 0.54838 0.58379 0.0
C1217 C 0.84233 0.55842 0.58733 0.0
H1218 H 0.80904 0.58218 0.59692 0.0
H1219 H 0.81181 0.61629 0.61218 0.0
H1220 H 0.93319 0.55196 0.58941 0.0
H1221 H 0.9008 0.53354 0.57973 0.0
H1222 H 0.86097 0.53327 0.57759 0.0
H1223 H 0.82772 0.55088 0.58382 0.0
Mn1224 Mn 0.62527 0.33201 0.57739 0.0
Mn1225 Mn 0.62451 0.33946 0.62783 0.0
C1226 C 0.65538 0.34133 0.59412 0.0
C1227 C 0.62045 0.34486 0.54489 0.0
C1228 C 0.62733 0.29803 0.60898 0.0
O1229 O 0.59436 0.33423 0.58314 0.0
O1230 O 0.59568 0.33826 0.61684 0.0
C1231 C 0.60748 0.38078 0.62669 0.0
N1232 N 0.62263 0.36778 0.63263 0.0
C1233 C 0.64092 0.39408 0.65051 0.0
C1234 C 0.62547 0.40774 0.64468 0.0
C1235 C 0.60872 0.40107 0.63264 0.0
C1236 C 0.63895 0.37409 0.64396 0.0
H1237 H 0.59452 0.37572 0.61752 0.0
C1238 C 0.58571 0.33653 0.6002 0.0
O1239 O 0.61948 0.32558 0.54834 0.0
O1240 O 0.62404 0.35644 0.56026 0.0
N1241 N 0.65101 0.34121 0.6411 0.0
C1242 C 0.66472 0.32619 0.6453 0.0
C1243 C 0.68253 0.33047 0.65696 0.0
C1244 C 0.68581 0.34999 0.66459 0.0
C1245 C 0.6712 0.36506 0.66051 0.0
C1246 C 0.65385 0.35997 0.64866 0.0
H1247 H 0.6622 0.31113 0.6396 0.0
O1248 O 0.65626 0.33289 0.5765 0.0
O1249 O 0.63684 0.3447 0.60129 0.0
O1250 O 0.62606 0.30369 0.59053 0.0
O1251 O 0.62703 0.31023 0.6239 0.0
C1252 C 0.67315 0.38493 0.66776 0.0
C1253 C 0.65815 0.39949 0.66261 0.0
H1254 H 0.62633 0.42337 0.64934 0.0
H1255 H 0.59675 0.41152 0.62804 0.0
H1256 H 0.69369 0.31872 0.6601 0.0
H1257 H 0.69958 0.35324 0.67356 0.0
H1258 H 0.6861 0.3892 0.67734 0.0
H1259 H 0.66 0.41478 0.6681 0.0
Mn1260 Mn 0.91194 0.37485 0.84446 0.0
Mn1261 Mn 0.86093 0.3709 0.85622 0.0
C1262 C 0.89714 0.34344 0.84899 0.0
C1263 C 0.9464 0.37903 0.85471 0.0
C1264 C 0.87659 0.37942 0.81383 0.0
O1265 O 0.90444 0.40335 0.85259 0.0
O1266 O 0.87107 0.39882 0.86233 0.0
C1267 C 0.86502 0.37508 0.9005 0.0
N1268 N 0.85858 0.36422 0.88417 0.0
C1269 C 0.84591 0.33733 0.90529 0.0
C1270 C 0.85227 0.34829 0.92235 0.0
C1271 C 0.86189 0.36724 0.91994 0.0
C1272 C 0.84936 0.34595 0.88631 0.0
H1273 H 0.87257 0.38958 0.8987 0.0
C1274 C 0.88734 0.40992 0.85973 0.0
O1275 O 0.94052 0.38371 0.83655 0.0
O1276 O 0.93213 0.37259 0.86701 0.0
N1277 N 0.84892 0.34486 0.85124 0.0
C1278 C 0.84387 0.33614 0.83323 0.0
C1279 C 0.83422 0.31706 0.83299 0.0
C1280 C 0.82971 0.30722 0.85124 0.0
C1281 C 0.83465 0.31667 0.86958 0.0
C1282 C 0.84404 0.33579 0.86888 0.0
H1283 H 0.84733 0.34362 0.81916 0.0
O1284 O 0.91452 0.34545 0.83921 0.0
O1285 O 0.8892 0.35989 0.85634 0.0
O1286 O 0.89603 0.37851 0.81796 0.0
O1287 O 0.86222 0.37719 0.82705 0.0
C1288 C 0.83086 0.30777 0.88852 0.0
C1289 C 0.83653 0.31807 0.90636 0.0
H1290 H 0.84996 0.34226 0.93737 0.0
H1291 H 0.86693 0.37574 0.93303 0.0
H1292 H 0.83038 0.3099 0.81877 0.0
H1293 H 0.82249 0.29241 0.85099 0.0
H1294 H 0.82377 0.29293 0.88953 0.0
H1295 H 0.83371 0.31099 0.92083 0.0
Mn1296 Mn 0.86636 0.67061 0.08384 0.0
Mn1297 Mn 0.86232 0.66609 0.1344 0.0
C1298 C 0.83425 0.66505 0.09867 0.0
C1299 C 0.87174 0.65651 0.05201 0.0
C1300 C 0.86512 0.70628 0.11353 0.0
O1301 O 0.89638 0.66549 0.09196 0.0
O1302 O 0.89182 0.6648 0.12551 0.0
C1303 C 0.87663 0.62384 0.1369 0.0
N1304 N 0.86205 0.63808 0.14101 0.0
C1305 C 0.84235 0.61485 0.1614 0.0
C1306 C 0.85716 0.59993 0.15744 0.0
C1307 C 0.87428 0.6044 0.14499 0.0
C1308 C 0.84524 0.63378 0.15251 0.0
H1309 H 0.89003 0.6273 0.12766 0.0
C1310 C 0.90343 0.66407 0.10986 0.0
O1311 O 0.87511 0.67557 0.05531 0.0
O1312 O 0.86566 0.64571 0.06721 0.0
N1313 N 0.83494 0.66666 0.14581 0.0
C1314 C 0.82173 0.68253 0.14767 0.0
C1315 C 0.80341 0.6803 0.15908 0.0
C1316 C 0.79925 0.66204 0.16905 0.0
C1317 C 0.81332 0.64607 0.16728 0.0
C1318 C 0.83098 0.64897 0.15522 0.0
H1319 H 0.82507 0.69671 0.14035 0.0
O1320 O 0.83557 0.67299 0.08084 0.0
O1321 O 0.85173 0.66012 0.10728 0.0
O1322 O 0.86814 0.69929 0.09579 0.0
O1323 O 0.86206 0.69521 0.12899 0.0
C1324 C 0.81068 0.62748 0.17721 0.0
C1325 C 0.825 0.61178 0.17405 0.0
H1326 H 0.85555 0.58501 0.16391 0.0
H1327 H 0.88579 0.59298 0.14186 0.0
H1328 H 0.79267 0.69273 0.16042 0.0
H1329 H 0.78526 0.66046 0.17806 0.0
H1330 H 0.79765 0.625 0.18726 0.0
H1331 H 0.82255 0.59742 0.18147 0.0
Mn1332 Mn 0.58339 0.62805 0.34582 0.0
Mn1333 Mn 0.63492 0.63801 0.34956 0.0
C1334 C 0.59514 0.66092 0.34783 0.0
C1335 C 0.55091 0.62159 0.36011 0.0
C1336 C 0.61386 0.62821 0.30999 0.0
O1337 O 0.59483 0.60076 0.35389 0.0
O1338 O 0.62898 0.60881 0.35435 0.0
C1339 C 0.63822 0.63016 0.39341 0.0
N1340 N 0.64084 0.64282 0.37744 0.0
C1341 C 0.65386 0.66925 0.39907 0.0
C1342 C 0.65142 0.65644 0.41572 0.0
C1343 C 0.64354 0.63682 0.41287 0.0
C1344 C 0.64831 0.66177 0.38003 0.0
H1345 H 0.63208 0.6151 0.39132 0.0
C1346 C 0.61395 0.59602 0.35592 0.0
O1347 O 0.55501 0.6164 0.34165 0.0
O1348 O 0.56601 0.62955 0.37053 0.0
N1349 N 0.64329 0.66547 0.34547 0.0
C1350 C 0.64492 0.67587 0.32782 0.0
C1351 C 0.65267 0.69573 0.32803 0.0
C1352 C 0.65886 0.70462 0.34634 0.0
C1353 C 0.65753 0.69347 0.36424 0.0
C1354 C 0.64987 0.67366 0.36307 0.0
H1355 H 0.6401 0.66916 0.31372 0.0
O1356 O 0.57701 0.65679 0.34013 0.0
O1357 O 0.60588 0.64569 0.3544 0.0
O1358 O 0.59584 0.62473 0.3175 0.0
O1359 O 0.62964 0.63386 0.32046 0.0
C1360 C 0.66334 0.70126 0.38322 0.0
C1361 C 0.66144 0.68919 0.40064 0.0
H1362 H 0.65546 0.66153 0.43077 0.0
H1363 H 0.64153 0.62687 0.42566 0.0
H1364 H 0.65373 0.70421 0.31413 0.0
H1365 H 0.66461 0.72002 0.34648 0.0
H1366 H 0.66918 0.71657 0.38462 0.0
H1367 H 0.66583 0.69539 0.41517 0.0
Mn1368 Mn 0.66296 0.90661 0.61589 0.0
Mn1369 Mn 0.61197 0.89607 0.6083 0.0
C1370 C 0.65036 0.90223 0.58345 0.0
C1371 C 0.69682 0.89595 0.62224 0.0
C1372 C 0.62846 0.93787 0.61899 0.0
O1373 O 0.65295 0.89807 0.64381 0.0
O1374 O 0.61999 0.88852 0.6363 0.0
C1375 C 0.61365 0.85158 0.61088 0.0
N1376 N 0.60871 0.86852 0.60039 0.0
C1377 C 0.59611 0.8489 0.57229 0.0
C1378 C 0.6009 0.83124 0.58286 0.0
C1379 C 0.60975 0.8326 0.60223 0.0
C1380 C 0.60025 0.86739 0.58172 0.0
H1381 H 0.62057 0.85256 0.62572 0.0
C1382 C 0.63532 0.89039 0.64865 0.0
O1383 O 0.691 0.91417 0.62648 0.0
O1384 O 0.68279 0.88378 0.6149 0.0
N1385 N 0.6022 0.90242 0.58178 0.0
C1386 C 0.59922 0.92088 0.5733 0.0
C1387 C 0.59083 0.92216 0.55376 0.0
C1388 C 0.58547 0.90449 0.54321 0.0
C1389 C 0.58842 0.88569 0.55235 0.0
C1390 C 0.59665 0.88535 0.57193 0.0
H1391 H 0.6033 0.93452 0.58132 0.0
O1392 O 0.66779 0.91183 0.58655 0.0
O1393 O 0.64104 0.89522 0.59938 0.0
O1394 O 0.64776 0.93339 0.6188 0.0
O1395 O 0.61387 0.92494 0.61588 0.0
C1396 C 0.58382 0.86726 0.54269 0.0
C1397 C 0.58771 0.84888 0.55262 0.0
H1398 H 0.59802 0.81656 0.5762 0.0
H1399 H 0.61361 0.81904 0.61044 0.0
H1400 H 0.58858 0.93674 0.54682 0.0
H1401 H 0.5792 0.90554 0.52806 0.0
H1402 H 0.57753 0.86705 0.52751 0.0
H1403 H 0.58437 0.8348 0.54493 0.0
Mn1404 Mn 0.38023 0.3345 0.08787 0.0
Mn1405 Mn 0.38956 0.3839 0.09655 0.0
C1406 C 0.41403 0.34599 0.0911 0.0
C1407 C 0.3728 0.30237 0.10025 0.0
C1408 C 0.37789 0.36715 0.05543 0.0
O1409 O 0.35194 0.34506 0.09653 0.0
O1410 O 0.36035 0.37719 0.10429 0.0
C1411 C 0.3871 0.38308 0.14112 0.0
N1412 N 0.39801 0.38731 0.12401 0.0
C1413 C 0.42768 0.39884 0.14325 0.0
C1414 C 0.4167 0.39474 0.16107 0.0
C1415 C 0.39634 0.38679 0.16 0.0
C1416 C 0.41765 0.39486 0.12487 0.0
H1417 H 0.37149 0.37687 0.14034 0.0
C1418 C 0.34727 0.36251 0.10316 0.0
O1419 O 0.36806 0.30738 0.08187 0.0
O1420 O 0.38126 0.31618 0.11151 0.0
N1421 N 0.41724 0.39262 0.08985 0.0
C1422 C 0.42582 0.3954 0.07125 0.0
C1423 C 0.4462 0.40316 0.06968 0.0
C1424 C 0.45748 0.40815 0.0872 0.0
C1425 C 0.44818 0.40549 0.10615 0.0
C1426 C 0.42774 0.39788 0.10677 0.0
H1427 H 0.41722 0.39163 0.05773 0.0
O1428 O 0.41018 0.32888 0.08231 0.0
O1429 O 0.39802 0.35563 0.09809 0.0
O1430 O 0.37745 0.34858 0.06045 0.0
O1431 O 0.38149 0.38156 0.06782 0.0
C1432 C 0.45848 0.40987 0.12445 0.0
C1433 C 0.44826 0.40647 0.14299 0.0
H1434 H 0.4238 0.39752 0.17567 0.0
H1435 H 0.38781 0.38349 0.17369 0.0
H1436 H 0.45324 0.40522 0.05499 0.0
H1437 H 0.47327 0.41393 0.08593 0.0
H1438 H 0.47433 0.41566 0.12444 0.0
H1439 H 0.45643 0.40967 0.15696 0.0
Mn1440 Mn 0.40857 0.63487 0.84275 0.0
Mn1441 Mn 0.44168 0.60756 0.81478 0.0
C1442 C 0.44231 0.63003 0.85409 0.0
C1443 C 0.3938 0.66616 0.84947 0.0
C1444 C 0.40625 0.58952 0.83947 0.0
O1445 O 0.39425 0.63261 0.8152 0.0
O1446 O 0.42068 0.6199 0.7967 0.0
C1447 C 0.46259 0.63946 0.79083 0.0
N1448 N 0.46375 0.62379 0.80402 0.0
C1449 C 0.5012 0.62632 0.80528 0.0
C1450 C 0.50043 0.64239 0.79159 0.0
C1451 C 0.48103 0.64902 0.78438 0.0
C1452 C 0.48232 0.6173 0.81107 0.0
H1453 H 0.4477 0.64463 0.78533 0.0
C1454 C 0.40251 0.62763 0.7984 0.0
O1455 O 0.38438 0.64954 0.85466 0.0
O1456 O 0.41128 0.66448 0.83986 0.0
N1457 N 0.46281 0.59507 0.83071 0.0
C1458 C 0.4607 0.58047 0.84501 0.0
C1459 C 0.47854 0.57282 0.85448 0.0
C1460 C 0.49833 0.58016 0.84904 0.0
C1461 C 0.50016 0.59508 0.83417 0.0
C1462 C 0.48182 0.60207 0.8252 0.0
H1463 H 0.44555 0.57474 0.84928 0.0
O1464 O 0.42789 0.6357 0.86651 0.0
O1465 O 0.43661 0.62797 0.83538 0.0
O1466 O 0.40114 0.60548 0.8489 0.0
O1467 O 0.41989 0.58917 0.82544 0.0
C1468 C 0.51938 0.60358 0.82819 0.0
C1469 C 0.51991 0.61921 0.81378 0.0
H1470 H 0.51461 0.6499 0.78668 0.0
H1471 H 0.4803 0.66149 0.7739 0.0
H1472 H 0.47703 0.56134 0.86598 0.0
H1473 H 0.51192 0.57432 0.85656 0.0
H1474 H 0.53383 0.59847 0.83481 0.0
H1475 H 0.53477 0.62588 0.8096 0.0
Mn1476 Mn 0.11604 0.66741 0.58588 0.0
Mn1477 Mn 0.10981 0.61816 0.59704 0.0
C1478 C 0.08301 0.65458 0.59079 0.0
C1479 C 0.1227 0.70015 0.59696 0.0
C1480 C 0.11897 0.63357 0.55484 0.0
O1481 O 0.14522 0.65848 0.59346 0.0
O1482 O 0.13891 0.62667 0.6037 0.0
C1483 C 0.11364 0.62115 0.64143 0.0
N1484 N 0.10241 0.61564 0.62483 0.0
C1485 C 0.07389 0.60384 0.64536 0.0
C1486 C 0.08521 0.60926 0.66268 0.0
C1487 C 0.10516 0.61798 0.6607 0.0
C1488 C 0.08317 0.60731 0.62656 0.0
H1489 H 0.12892 0.62797 0.63996 0.0
C1490 C 0.15117 0.64179 0.60095 0.0
O1491 O 0.12668 0.69476 0.57852 0.0
O1492 O 0.11531 0.68643 0.60895 0.0
N1493 N 0.08243 0.6078 0.59148 0.0
C1494 C 0.07342 0.60373 0.57327 0.0
C1495 C 0.05336 0.59507 0.57259 0.0
C1496 C 0.04285 0.59054 0.59061 0.0
C1497 C 0.05258 0.59452 0.60917 0.0
C1498 C 0.07268 0.60295 0.6089 0.0
H1499 H 0.08143 0.60718 0.55936 0.0
O1500 O 0.08565 0.67153 0.58137 0.0
O1501 O 0.09979 0.64597 0.59755 0.0
O1502 O 0.11827 0.65235 0.55898 0.0
O1503 O 0.11685 0.61962 0.568 0.0
C1504 C 0.04303 0.59068 0.62791 0.0
C1505 C 0.05365 0.5954 0.64599 0.0
H1506 H 0.07869 0.60693 0.67756 0.0
H1507 H 0.11395 0.6223 0.67399 0.0
H1508 H 0.04598 0.59199 0.55821 0.0
H1509 H 0.02728 0.58407 0.59003 0.0
H1510 H 0.02743 0.5843 0.62859 0.0
H1511 H 0.04605 0.59259 0.66031 0.0
Mn1512 Mn 0.08372 0.36772 0.33541 0.0
Mn1513 Mn 0.04695 0.39341 0.30994 0.0
C1514 C 0.05106 0.37261 0.34962 0.0
C1515 C 0.09931 0.33685 0.34277 0.0
C1516 C 0.08337 0.41358 0.33176 0.0
O1517 O 0.09528 0.36833 0.3066 0.0
O1518 O 0.06807 0.38294 0.291 0.0
C1519 C 0.02815 0.35946 0.28706 0.0
N1520 N 0.02604 0.37529 0.29995 0.0
C1521 C 0.98893 0.36993 0.30204 0.0
C1522 C 0.99067 0.35369 0.28862 0.0
C1523 C 0.01039 0.34838 0.28117 0.0
C1524 C 0.00718 0.38039 0.30738 0.0
H1525 H 0.04329 0.35529 0.28136 0.0
C1526 C 0.0859 0.3744 0.29072 0.0
O1527 O 0.10909 0.35377 0.34612 0.0
O1528 O 0.08105 0.33797 0.33447 0.0
N1529 N 0.02533 0.40431 0.32635 0.0
C1530 C 0.02652 0.41968 0.33996 0.0
C1531 C 0.00819 0.42675 0.34896 0.0
C1532 C 0.9889 0.41803 0.34377 0.0
C1533 C 0.98805 0.40212 0.32989 0.0
C1534 C 0.00679 0.39589 0.32121 0.0
H1535 H 0.0413 0.4266 0.34382 0.0
O1536 O 0.06691 0.36811 0.36086 0.0
O1537 O 0.05471 0.37373 0.33039 0.0
O1538 O 0.09137 0.39765 0.33923 0.0
O1539 O 0.06743 0.41332 0.32014 0.0
C1540 C 0.96939 0.39217 0.32437 0.0
C1541 C 0.96985 0.37598 0.31057 0.0
H1542 H 0.97701 0.34509 0.28407 0.0
H1543 H 0.01188 0.33579 0.27091 0.0
H1544 H 0.00891 0.43901 0.35971 0.0
H1545 H 0.97482 0.4238 0.35038 0.0
H1546 H 0.95464 0.39664 0.33086 0.0
H1547 H 0.95545 0.36822 0.3067 0.0
Mn1548 Mn 0.36561 0.66441 0.41615 0.0
Mn1549 Mn 0.36071 0.65675 0.36596 0.0
C1550 C 0.33313 0.65817 0.40224 0.0
C1551 C 0.37124 0.65274 0.44889 0.0
C1552 C 0.36854 0.69787 0.38467 0.0
O1553 O 0.39531 0.65788 0.40734 0.0
O1554 O 0.3896 0.65047 0.37452 0.0
C1555 C 0.36625 0.61256 0.36409 0.0
N1556 N 0.35451 0.62912 0.36023 0.0
C1557 C 0.32784 0.60895 0.34422 0.0
C1558 C 0.3397 0.59168 0.34793 0.0
C1559 C 0.35897 0.5935 0.35794 0.0
C1560 C 0.33598 0.62756 0.35055 0.0
H1561 H 0.38105 0.61389 0.37182 0.0
C1562 C 0.4015 0.65179 0.39006 0.0
O1563 O 0.37482 0.67136 0.44394 0.0
O1564 O 0.36508 0.64065 0.43462 0.0
N1565 N 0.33329 0.6621 0.35592 0.0
C1566 C 0.32302 0.67997 0.35504 0.0
C1567 C 0.30304 0.68062 0.34634 0.0
C1568 C 0.29389 0.66294 0.33855 0.0
C1569 C 0.30482 0.64475 0.33952 0.0
C1570 C 0.32473 0.64504 0.34826 0.0
H1571 H 0.32996 0.69359 0.36105 0.0
O1572 O 0.3348 0.66727 0.41952 0.0
O1573 O 0.35049 0.65306 0.39363 0.0
O1574 O 0.36755 0.69228 0.40301 0.0
O1575 O 0.36682 0.68574 0.36981 0.0
C1576 C 0.29651 0.62625 0.33264 0.0
C1577 C 0.30802 0.60837 0.33498 0.0
H1578 H 0.33406 0.57694 0.34336 0.0
H1579 H 0.36816 0.58023 0.36095 0.0
H1580 H 0.29468 0.69471 0.34571 0.0
H1581 H 0.27839 0.66347 0.33205 0.0
H1582 H 0.28113 0.62555 0.32587 0.0
H1583 H 0.30132 0.59419 0.32994 0.0
Mn1584 Mn 0.0824 0.62239 0.15782 0.0
Mn1585 Mn 0.04255 0.59621 0.17838 0.0
C1586 C 0.04973 0.62188 0.14272 0.0
C1587 C 0.09996 0.6531 0.15356 0.0
C1588 C 0.07762 0.57645 0.15519 0.0
O1589 O 0.09265 0.6183 0.18674 0.0
O1590 O 0.06485 0.60105 0.19871 0.0
C1591 C 0.02814 0.62717 0.20726 0.0
N1592 N 0.02415 0.61459 0.19144 0.0
C1593 C 0.98827 0.62492 0.19012 0.0
C1594 C 0.99197 0.6379 0.20646 0.0
C1595 C 0.01202 0.63908 0.21501 0.0
C1596 C 0.00496 0.61347 0.18299 0.0
H1597 H 0.0435 0.62811 0.21392 0.0
C1598 C 0.08287 0.60931 0.20099 0.0
O1599 O 0.10898 0.63616 0.14917 0.0
O1600 O 0.08163 0.65191 0.16158 0.0
N1601 N 0.01978 0.59099 0.16031 0.0
C1602 C 0.01907 0.57861 0.14391 0.0
C1603 C 0.00025 0.57617 0.13327 0.0
C1604 C 0.98234 0.58644 0.13962 0.0
C1605 C 0.98345 0.5991 0.15653 0.0
C1606 C 0.00262 0.6009 0.16657 0.0
H1607 H 0.03282 0.57087 0.13885 0.0
O1608 O 0.06621 0.62576 0.13207 0.0
O1609 O 0.05303 0.61796 0.16158 0.0
O1610 O 0.08808 0.59252 0.15145 0.0
O1611 O 0.06038 0.57627 0.16485 0.0
C1612 C 0.96632 0.61015 0.16371 0.0
C1613 C 0.96873 0.62303 0.18052 0.0
H1614 H 0.97958 0.64711 0.21249 0.0
H1615 H 0.01502 0.64912 0.22758 0.0
H1616 H -0.00043 0.56648 0.12015 0.0
H1617 H 0.96789 0.58461 0.13131 0.0
H1618 H 0.95129 0.60905 0.15628 0.0
H1619 H 0.95551 0.63163 0.18575 0.0
Mn1620 Mn 0.13275 0.34003 0.90976 0.0
Mn1621 Mn 0.13832 0.34439 0.85928 0.0
C1622 C 0.16556 0.34357 0.89595 0.0
C1623 C 0.12765 0.3545 0.94143 0.0
C1624 C 0.12842 0.30488 0.88027 0.0
O1625 O 0.10358 0.34741 0.90023 0.0
O1626 O 0.10958 0.35222 0.86703 0.0
C1627 C 0.13463 0.3886 0.85497 0.0
N1628 N 0.1457 0.37141 0.85215 0.0
C1629 C 0.17338 0.38965 0.83559 0.0
C1630 C 0.16221 0.40755 0.83821 0.0
C1631 C 0.14278 0.40702 0.84797 0.0
C1632 C 0.16438 0.37173 0.84271 0.0
H1633 H 0.11971 0.38826 0.86252 0.0
C1634 C 0.09764 0.35241 0.88253 0.0
O1635 O 0.12286 0.33576 0.93794 0.0
O1636 O 0.13471 0.36496 0.92636 0.0
N1637 N 0.16556 0.33745 0.84993 0.0
C1638 C 0.17509 0.31918 0.8502 0.0
C1639 C 0.19513 0.31729 0.84193 0.0
C1640 C 0.20511 0.33417 0.83339 0.0
C1641 C 0.19493 0.35279 0.83318 0.0
C1642 C 0.17491 0.35372 0.84153 0.0
H1643 H 0.16753 0.30618 0.85681 0.0
O1644 O 0.16326 0.33571 0.91374 0.0
O1645 O 0.14859 0.34909 0.88681 0.0
O1646 O 0.12928 0.31149 0.89832 0.0
O1647 O 0.13103 0.31599 0.86477 0.0
C1648 C 0.20409 0.37057 0.82552 0.0
C1649 C 0.19332 0.38898 0.82671 0.0
H1650 H 0.16852 0.42181 0.83299 0.0
H1651 H 0.13412 0.42078 0.85013 0.0
H1652 H 0.20292 0.30289 0.84221 0.0
H1653 H 0.22066 0.33271 0.82722 0.0
H1654 H 0.21958 0.37032 0.81901 0.0
H1655 H 0.20068 0.40261 0.82108 0.0
Mn1656 Mn 0.41012 0.37526 0.65602 0.0
Mn1657 Mn 0.4513 0.40328 0.67145 0.0
C1658 C 0.44136 0.37421 0.63872 0.0
C1659 C 0.39189 0.34478 0.65592 0.0
C1660 C 0.41422 0.4207 0.64912 0.0
O1661 O 0.40224 0.3821 0.68502 0.0
O1662 O 0.43095 0.39995 0.69392 0.0
C1663 C 0.46896 0.37518 0.70152 0.0
N1664 N 0.47125 0.38641 0.68447 0.0
C1665 C 0.50695 0.37605 0.6808 0.0
C1666 C 0.505 0.36447 0.69839 0.0
C1667 C 0.48591 0.36402 0.70877 0.0
C1668 C 0.48957 0.387 0.6744 0.0
H1669 H 0.4543 0.3747 0.70952 0.0
C1670 C 0.41311 0.39197 0.69794 0.0
O1671 O 0.38289 0.36136 0.65035 0.0
O1672 O 0.41085 0.34621 0.66256 0.0
N1673 N 0.47223 0.40714 0.65118 0.0
C1674 C 0.47103 0.4177 0.63361 0.0
C1675 C 0.48858 0.419 0.62102 0.0
C1676 C 0.50718 0.40943 0.62661 0.0
C1677 C 0.50805 0.39864 0.64475 0.0
C1678 C 0.49011 0.39802 0.65678 0.0
H1679 H 0.45671 0.42484 0.62909 0.0
O1680 O 0.42408 0.36939 0.62969 0.0
O1681 O 0.43974 0.3799 0.65738 0.0
O1682 O 0.40388 0.40427 0.64724 0.0
O1683 O 0.43199 0.42188 0.65782 0.0
C1684 C 0.52584 0.38804 0.6511 0.0
C1685 C 0.52529 0.37676 0.66912 0.0
H1686 H 0.51798 0.35571 0.70394 0.0
H1687 H 0.48425 0.35504 0.7223 0.0
H1688 H 0.48774 0.42723 0.60696 0.0
H1689 H 0.52061 0.41026 0.61673 0.0
H1690 H 0.53991 0.38817 0.64207 0.0
H1691 H 0.53896 0.36841 0.67368 0.0
Mn1692 Mn 0.33712 0.09619 0.3826 0.0
Mn1693 Mn 0.29937 0.07436 0.35428 0.0
C1694 C 0.30397 0.10956 0.38171 0.0
C1695 C 0.35441 0.1005 0.41334 0.0
C1696 C 0.33338 0.1008 0.33661 0.0
O1697 O 0.34874 0.06808 0.37803 0.0
O1698 O 0.32308 0.05541 0.35823 0.0
C1699 C 0.28639 0.04279 0.38333 0.0
N1700 N 0.2815 0.05878 0.37141 0.0
C1701 C 0.24538 0.05673 0.38113 0.0
C1702 C 0.25002 0.04016 0.3934 0.0
C1703 C 0.27062 0.03318 0.39452 0.0
C1704 C 0.26172 0.0656 0.3702 0.0
H1705 H 0.30221 0.03742 0.38432 0.0
C1706 C 0.34062 0.05393 0.36746 0.0
O1707 O 0.36311 0.10591 0.39647 0.0
O1708 O 0.33633 0.09171 0.41214 0.0
N1709 N 0.27539 0.09074 0.34953 0.0
C1710 C 0.27381 0.10786 0.33833 0.0
C1711 C 0.25435 0.11719 0.33623 0.0
C1712 C 0.23669 0.10883 0.34566 0.0
C1713 C 0.23868 0.09119 0.35711 0.0
C1714 C 0.25845 0.08245 0.3585 0.0
H1715 H 0.28737 0.11455 0.33136 0.0
O1716 O 0.31988 0.12086 0.3863 0.0
O1717 O 0.30795 0.09087 0.37738 0.0
O1718 O 0.34336 0.10384 0.35305 0.0
O1719 O 0.31655 0.09042 0.3355 0.0
C1720 C 0.22193 0.08227 0.36766 0.0
C1721 C 0.22528 0.06506 0.37967 0.0
H1722 H 0.23792 0.03279 0.40216 0.0
H1723 H 0.27434 0.02047 0.40404 0.0
H1724 H 0.25299 0.13091 0.32753 0.0
H1725 H 0.22176 0.11622 0.34425 0.0
H1726 H 0.20648 0.08875 0.36694 0.0
H1727 H 0.21235 0.05853 0.38797 0.0
H1728 H 0.08555 0.29982 0.33133 0.0
H1729 H 0.13066 0.3293 0.37007 0.0
H1730 H 0.09481 0.26741 0.34551 0.0
H1731 H 0.14018 0.29648 0.38431 0.0
H1732 H 0.12467 0.23728 0.42202 0.0
H1733 H 0.12297 0.27066 0.40636 0.0
H1734 H 0.12267 0.24291 0.34741 0.0
H1735 H 0.12397 0.20978 0.36295 0.0
C1736 C 0.09773 0.29933 0.34266 0.0
C1737 C 0.10736 0.31714 0.34958 0.0
C1738 C 0.10313 0.28069 0.35075 0.0
C1739 C 0.11825 0.27932 0.36606 0.0
C1740 C 0.12836 0.29707 0.37263 0.0
C1741 C 0.12306 0.31581 0.36435 0.0
C1742 C 0.12456 0.23837 0.40572 0.0
C1743 C 0.12415 0.22088 0.39374 0.0
C1744 C 0.12368 0.25749 0.39674 0.0
C1745 C 0.12241 0.25944 0.37563 0.0
C1746 C 0.12322 0.24194 0.36371 0.0
C1747 C 0.12402 0.22293 0.37265 0.0
H1748 H 0.02818 0.88565 0.64947 0.0
H1749 H 0.04891 0.85559 0.59547 0.0
H1750 H 0.99203 0.87861 0.64029 0.0
H1751 H 0.01304 0.84723 0.58685 0.0
H1752 H 0.94631 0.85069 0.56576 0.0
H1753 H 0.98223 0.85916 0.57471 0.0
H1754 H 0.96624 0.85455 0.63801 0.0
H1755 H 0.93007 0.84766 0.6287 0.0
C1756 C 0.02494 0.8773 0.63575 0.0
C1757 C 0.04125 0.87122 0.62313 0.0
C1758 C 0.00422 0.87313 0.6305 0.0
C1759 C -0.0006 0.86234 0.61274 0.0
C1760 C 0.01592 0.85602 0.60034 0.0
C1761 C 0.03656 0.86065 0.60534 0.0
C1762 C 0.95061 0.85175 0.58154 0.0
C1763 C 0.93554 0.84926 0.59658 0.0
C1764 C 0.97123 0.85634 0.58675 0.0
C1765 C 0.97734 0.85764 0.60716 0.0
C1766 C 0.96217 0.85428 0.62216 0.0
C1767 C 0.94146 0.85023 0.6169 0.0
H1768 H 0.36891 0.76825 0.92505 0.0
H1769 H 0.37181 0.79442 0.86549 0.0
H1770 H 0.3701 0.73455 0.91019 0.0
H1771 H 0.37249 0.76087 0.85066 0.0
H1772 H 0.40824 0.70256 0.8368 0.0
H1773 H 0.39929 0.73561 0.84961 0.0
H1774 H 0.35319 0.70862 0.8889 0.0
H1775 H 0.36248 0.67519 0.87616 0.0
C1776 C 0.36937 0.7668 0.90879 0.0
C1777 C 0.37057 0.78399 0.89646 0.0
C1778 C 0.36994 0.74749 0.90026 0.0
C1779 C 0.37166 0.74502 0.87924 0.0
C1780 C 0.3716 0.76224 0.86692 0.0
C1781 C 0.37113 0.78148 0.87543 0.0
C1782 C 0.39599 0.70364 0.84797 0.0
C1783 C 0.38613 0.68624 0.85552 0.0
C1784 C 0.39075 0.72265 0.85525 0.0
C1785 C 0.37551 0.7248 0.87031 0.0
C1786 C 0.36512 0.70745 0.87742 0.0
C1787 C 0.37032 0.68834 0.87003 0.0
H1788 H 0.44797 0.14753 0.10019 0.0
H1789 H 0.46856 0.11597 0.15339 0.0
H1790 H 0.48394 0.15464 0.0911 0.0
H1791 H 0.50484 0.12178 0.14367 0.0
H1792 H 0.56773 0.15149 0.1306 0.0
H1793 H 0.53174 0.14513 0.14091 0.0
H1794 H 0.51356 0.14078 0.07809 0.0
H1795 H 0.54931 0.14857 0.06815 0.0
C1796 C 0.4603 0.14192 0.10982 0.0
C1797 C 0.45555 0.13122 0.12747 0.0
C1798 C 0.48098 0.14581 0.10453 0.0
C1799 C 0.49749 0.13861 0.11648 0.0
C1800 C 0.49264 0.12786 0.13422 0.0
C1801 C 0.47186 0.12442 0.13978 0.0
C1802 C 0.55593 0.14901 0.11912 0.0
C1803 C 0.56116 0.14992 0.09864 0.0
C1804 C 0.53531 0.14531 0.12497 0.0
C1805 C 0.51957 0.14235 0.11038 0.0
C1806 C 0.52504 0.14336 0.08982 0.0
C1807 C 0.54555 0.14755 0.08404 0.0
H1808 H 0.08033 0.68901 0.15582 0.0
H1809 H 0.13836 0.66224 0.13682 0.0
H1810 H 0.09175 0.72136 0.14243 0.0
H1811 H 0.14996 0.69528 0.12376 0.0
H1812 H 0.15184 0.77339 0.1395 0.0
H1813 H 0.14761 0.73801 0.14902 0.0
H1814 H 0.10799 0.72807 0.09731 0.0
H1815 H 0.11248 0.76345 0.08737 0.0
C1816 C 0.09566 0.69004 0.14903 0.0
C1817 C 0.10846 0.67299 0.14741 0.0
C1818 C 0.10208 0.70857 0.14126 0.0
C1819 C 0.12154 0.7106 0.13192 0.0
C1820 C 0.13478 0.69388 0.1308 0.0
C1821 C 0.1282 0.6751 0.13836 0.0
C1822 C 0.14263 0.76359 0.12985 0.0
C1823 C 0.13237 0.77127 0.11273 0.0
C1824 C 0.14037 0.74334 0.13526 0.0
C1825 C 0.12764 0.73046 0.12379 0.0
C1826 C 0.11812 0.73778 0.1062 0.0
C1827 C 0.12066 0.75799 0.10056 0.0
H1828 H 0.46467 0.86615 0.39124 0.0
H1829 H 0.47917 0.89984 0.3373 0.0
H1830 H 0.50165 0.86278 0.39843 0.0
H1831 H 0.51628 0.89737 0.34496 0.0
H1832 H 0.57714 0.86213 0.34748 0.0
H1833 H 0.54108 0.87166 0.3431 0.0
H1834 H 0.53419 0.87687 0.40776 0.0
H1835 H 0.57034 0.86643 0.41219 0.0
C1836 C 0.47578 0.8733 0.38118 0.0
C1837 C 0.46904 0.88304 0.36356 0.0
C1838 C 0.49704 0.87146 0.38537 0.0
C1839 C 0.51206 0.87956 0.37214 0.0
C1840 C 0.5052 0.89047 0.35521 0.0
C1841 C 0.48392 0.89205 0.35088 0.0
C1842 C 0.56804 0.86543 0.36081 0.0
C1843 C 0.57664 0.86336 0.38021 0.0
C1844 C 0.54731 0.8711 0.35827 0.0
C1845 C 0.53462 0.87513 0.37506 0.0
C1846 C 0.54339 0.8736 0.39448 0.0
C1847 C 0.56414 0.86768 0.39704 0.0
H1848 H 0.37387 0.23468 0.59188 0.0
H1849 H 0.35926 0.21758 0.65324 0.0
H1850 H 0.37522 0.27012 0.60231 0.0
H1851 H 0.36054 0.25266 0.66338 0.0
H1852 H 0.40055 0.31032 0.67591 0.0
H1853 H 0.39108 0.27612 0.66603 0.0
H1854 H 0.35371 0.29934 0.61716 0.0
H1855 H 0.36316 0.33386 0.62724 0.0
C1856 C 0.37071 0.23843 0.60747 0.0
C1857 C 0.36682 0.22318 0.62173 0.0
C1858 C 0.37134 0.25872 0.6134 0.0
C1859 C 0.36814 0.2641 0.6337 0.0
C1860 C 0.36333 0.24895 0.6477 0.0
C1861 C 0.36265 0.22879 0.64182 0.0
C1862 C 0.3899 0.30816 0.66337 0.0
C1863 C 0.38253 0.32471 0.65239 0.0
C1864 C 0.38447 0.28857 0.6577 0.0
C1865 C 0.37176 0.28507 0.64074 0.0
C1866 C 0.36366 0.30164 0.6302 0.0
C1867 C 0.36885 0.32135 0.63611 0.0
H1868 H 0.0319 0.12344 0.89399 0.0
H1869 H 0.01422 0.1196 0.83122 0.0
H1870 H 0.99541 0.12759 0.90332 0.0
H1871 H 0.97799 0.12472 0.84031 0.0
H1872 H 0.9122 0.12285 0.86127 0.0
H1873 H 0.94774 0.11213 0.85519 0.0
H1874 H 0.96966 0.15263 0.90195 0.0
H1875 H 0.9338 0.16252 0.90874 0.0
C1876 C 0.02017 0.12332 0.88221 0.0
C1877 C 0.0259 0.12124 0.86187 0.0
C1878 C -0.00073 0.1259 0.88753 0.0
C1879 C 0.98367 0.12674 0.87259 0.0
C1880 C 0.98943 0.12388 0.8523 0.0
C1881 C 0.01027 0.12101 0.84704 0.0
C1882 C 0.92459 0.12936 0.87037 0.0
C1883 C 0.92021 0.14366 0.88539 0.0
C1884 C 0.94503 0.12328 0.86681 0.0
C1885 C 0.96171 0.13165 0.87788 0.0
C1886 C 0.95724 0.14561 0.89328 0.0
C1887 C 0.93669 0.15142 0.8971 0.0
H1888 H 0.34929 0.11335 0.2099 0.0
H1889 H 0.40518 0.14336 0.23122 0.0
H1890 H 0.33731 0.10942 0.24415 0.0
H1891 H 0.3926 0.14033 0.26598 0.0
H1892 H 0.37424 0.10665 0.32546 0.0
H1893 H 0.38717 0.11639 0.29212 0.0
H1894 H 0.32367 0.12519 0.27203 0.0
H1895 H 0.31098 0.11415 0.30457 0.0
C1896 C 0.35884 0.11955 0.22193 0.0
C1897 C 0.3782 0.12869 0.21779 0.0
C1898 C 0.35187 0.11742 0.2417 0.0
C1899 C 0.36385 0.12468 0.25802 0.0
C1900 C 0.38303 0.13435 0.25386 0.0
C1901 C 0.39017 0.13626 0.23394 0.0
C1902 C 0.36313 0.11087 0.31391 0.0
C1903 C 0.34159 0.10938 0.31756 0.0
C1904 C 0.37052 0.11656 0.29481 0.0
C1905 C 0.35648 0.12123 0.27912 0.0
C1906 C 0.33499 0.12105 0.2834 0.0
C1907 C 0.32766 0.11489 0.30221 0.0
H1908 H 0.10705 0.10149 0.46928 0.0
H1909 H 0.12289 0.16344 0.48324 0.0
H1910 H 0.11035 0.09271 0.5046 0.0
H1911 H 0.12625 0.15439 0.51898 0.0
H1912 H 0.11673 0.13002 0.58467 0.0
H1913 H 0.10645 0.14009 0.55036 0.0
H1914 H 0.1426 0.09122 0.52593 0.0
H1915 H 0.15287 0.08137 0.5598 0.0
C1916 C 0.11111 0.11334 0.47987 0.0
C1917 C 0.11506 0.13317 0.47325 0.0
C1918 C 0.11297 0.10824 0.50017 0.0
C1919 C 0.11878 0.12279 0.51452 0.0
C1920 C 0.12166 0.14287 0.50823 0.0
C1921 C 0.11984 0.14802 0.48776 0.0
C1922 C 0.12211 0.12127 0.57193 0.0
C1923 C 0.13554 0.10487 0.57488 0.0
C1924 C 0.11642 0.12715 0.55234 0.0
C1925 C 0.12373 0.11645 0.53548 0.0
C1926 C 0.13654 0.09966 0.5386 0.0
C1927 C 0.14246 0.09403 0.55802 0.0
H1928 H 0.17499 0.91864 0.79469 0.0
H1929 H 0.1318 0.87821 0.8246 0.0
H1930 H 0.16208 0.90753 0.76228 0.0
H1931 H 0.11911 0.86657 0.79166 0.0
H1932 H 0.08673 0.87196 0.72791 0.0
H1933 H 0.09938 0.87766 0.7623 0.0
H1934 H 0.16276 0.87937 0.7402 0.0
H1935 H 0.15006 0.87447 0.70594 0.0
C1936 C 0.16282 0.90722 0.79441 0.0
C1937 C 0.1545 0.89932 0.81239 0.0
C1938 C 0.15551 0.90068 0.77569 0.0
C1939 C 0.13974 0.8859 0.77427 0.0
C1940 C 0.13124 0.87802 0.7922 0.0
C1941 C 0.13855 0.88466 0.81108 0.0
C1942 C 0.10338 0.87319 0.7305 0.0
C1943 C 0.1174 0.87304 0.71422 0.0
C1944 C 0.11065 0.87642 0.75022 0.0
C1945 C 0.13207 0.87941 0.754 0.0
C1946 C 0.14612 0.87774 0.7378 0.0
C1947 C 0.13886 0.87476 0.71815 0.0
H1948 H 0.35021 0.89385 0.96953 0.0
H1949 H 0.39694 0.84997 0.98467 0.0
H1950 H 0.34719 0.90312 0.00477 0.0
H1951 H 0.39513 0.86015 0.02006 0.0
H1952 H 0.36934 0.86943 0.08465 0.0
H1953 H 0.37635 0.85966 0.04982 0.0
H1954 H 0.36278 0.92045 0.03046 0.0
H1955 H 0.35418 0.92944 0.06502 0.0
C1956 C 0.35999 0.88631 0.98048 0.0
C1957 C 0.37375 0.87118 0.97442 0.0
C1958 C 0.35851 0.8918 1.00073 0.0
C1959 C 0.37122 0.88273 0.01546 0.0
C1960 C 0.38492 0.8674 0.00932 0.0
C1961 C 0.38601 0.86154 0.98903 0.0
C1962 C 0.36832 0.88072 0.0729 0.0
C1963 C 0.36119 0.90013 0.07737 0.0
C1964 C 0.37231 0.87516 0.05289 0.0
C1965 C 0.36967 0.88909 0.03705 0.0
C1966 C 0.3642 0.90902 0.042 0.0
C1967 C 0.35961 0.91434 0.06186 0.0
H1968 H 0.40309 0.88686 0.2833 0.0
H1969 H 0.33956 0.87038 0.29829 0.0
H1970 H 0.39261 0.8923 0.2483 0.0
H1971 H 0.32933 0.87537 0.26338 0.0
H1972 H 0.31333 0.91457 0.20984 0.0
H1973 H 0.32551 0.90533 0.24294 0.0
H1974 H 0.379 0.87622 0.21664 0.0
H1975 H 0.36686 0.88589 0.18287 0.0
C1976 C 0.38696 0.88419 0.27913 0.0
C1977 C 0.37211 0.87848 0.29373 0.0
C1978 C 0.38101 0.88716 0.25903 0.0
C1979 C 0.36011 0.88447 0.25311 0.0
C1980 C 0.34549 0.87796 0.26754 0.0
C1981 C 0.35138 0.87507 0.28758 0.0
C1982 C 0.32771 0.90619 0.21089 0.0
C1983 C 0.33911 0.90101 0.19354 0.0
C1984 C 0.3346 0.90072 0.23 0.0
C1985 C 0.3531 0.88985 0.23245 0.0
C1986 C 0.36468 0.88466 0.21521 0.0
C1987 C 0.3577 0.89012 0.19589 0.0
H1988 H 0.38032 0.11649 0.5412 0.0
H1989 H 0.3784 0.17619 0.51543 0.0
H1990 H 0.37988 0.10183 0.50758 0.0
H1991 H 0.37747 0.16143 0.48156 0.0
H1992 H 0.38526 0.12823 0.42181 0.0
H1993 H 0.39512 0.14125 0.45515 0.0
H1994 H 0.35224 0.09907 0.48289 0.0
H1995 H 0.34268 0.08605 0.4499 0.0
C1996 C 0.37998 0.12652 0.52832 0.0
C1997 C 0.37909 0.1475 0.53097 0.0
C1998 C 0.37967 0.11809 0.50903 0.0
C1999 C 0.37831 0.13042 0.49187 0.0
C2000 C 0.37864 0.15149 0.49446 0.0
C2001 C 0.37906 0.15996 0.51385 0.0
C2002 C 0.37834 0.12147 0.43509 0.0
C2003 C 0.36317 0.10614 0.43324 0.0
C2004 C 0.38383 0.12905 0.45416 0.0
C2005 C 0.37441 0.12127 0.47169 0.0
C2006 C 0.36001 0.10527 0.46977 0.0
C2007 C 0.35444 0.09784 0.45081 0.0
H2008 H 0.15556 0.13115 0.79726 0.0
H2009 H 0.09177 0.11585 0.78184 0.0
H2010 H 0.16569 0.12644 0.76232 0.0
H2011 H 0.10215 0.11066 0.74678 0.0
H2012 H 0.12812 0.11729 0.68145 0.0
H2013 H 0.11602 0.12675 0.7153 0.0
H2014 H 0.1691 0.0968 0.74152 0.0
H2015 H 0.18125 0.08779 0.70841 0.0
C2016 C 0.14366 0.12676 0.78645 0.0
C2017 C 0.12288 0.12362 0.79249 0.0
C2018 C 0.1495 0.12404 0.76638 0.0
C2019 C 0.13477 0.11794 0.7518 0.0
C2020 C 0.11384 0.11548 0.75762 0.0
C2021 C 0.10795 0.11831 0.77776 0.0
C2022 C 0.1372 0.11285 0.69447 0.0
C2023 C 0.15567 0.10179 0.6921 0.0
C2024 C 0.13024 0.11818 0.71383 0.0
C2025 C 0.14173 0.11269 0.73108 0.0
C2026 C 0.16009 0.10165 0.72859 0.0
C2027 C 0.16696 0.09632 0.70946 0.0
H2028 H 0.11999 0.82243 0.01011 0.0
H2029 H 0.12021 0.88167 0.03712 0.0
H2030 H 0.12113 0.83776 0.97657 0.0
H2031 H 0.12082 0.89693 0.00378 0.0
H2032 H 0.11356 0.87218 0.91746 0.0
H2033 H 0.104 0.85861 0.95062 0.0
H2034 H 0.1479 0.89964 0.97884 0.0
H2035 H 0.1571 0.91324 0.94608 0.0
C2036 C 0.11986 0.8387 0.00888 0.0
C2037 C 0.12033 0.85083 0.02627 0.0
C2038 C 0.1204 0.8475 0.98966 0.0
C2039 C 0.12134 0.86859 0.98748 0.0
C2040 C 0.12055 0.88065 0.00491 0.0
C2041 C 0.12013 0.87188 0.02404 0.0
C2042 C 0.1208 0.87854 0.93082 0.0
C2043 C 0.13611 0.89375 0.92915 0.0
C2044 C 0.11548 0.87065 0.94978 0.0
C2045 C 0.12521 0.87799 0.96741 0.0
C2046 C 0.13985 0.89379 0.96567 0.0
C2047 C 0.14523 0.90153 0.94682 0.0
H2048 H 0.32865 0.39894 0.10862 0.0
H2049 H 0.31633 0.33487 0.11122 0.0
H2050 H 0.29227 0.40557 0.11574 0.0
H2051 H 0.27993 0.3415 0.11926 0.0
H2052 H 0.21294 0.36133 0.10473 0.0
H2053 H 0.24966 0.35284 0.10291 0.0
H2054 H 0.26498 0.405 0.13936 0.0
H2055 H 0.22816 0.41398 0.14034 0.0
C2056 C 0.31825 0.38624 0.11106 0.0
C2057 C 0.3254 0.36636 0.10917 0.0
C2058 C 0.29733 0.39005 0.11532 0.0
C2059 C 0.28303 0.37409 0.11806 0.0
C2060 C 0.29037 0.35419 0.11687 0.0
C2061 C 0.31128 0.35037 0.11235 0.0
C2062 C 0.22413 0.37087 0.11255 0.0
C2063 C 0.21769 0.38842 0.12253 0.0
C2064 C 0.24523 0.36592 0.11162 0.0
C2065 C 0.26041 0.37829 0.12087 0.0
C2066 C 0.25381 0.39536 0.13168 0.0
C2067 C 0.23269 0.40044 0.13238 0.0
H2068 H 0.7013 0.14162 0.86558 0.0
H2069 H 0.72234 0.08336 0.88539 0.0
H2070 H 0.73647 0.15531 0.87008 0.0
H2071 H 0.75671 0.09711 0.89196 0.0
H2072 H 0.82124 0.12168 0.89215 0.0
H2073 H 0.78766 0.10824 0.88186 0.0
H2074 H 0.75982 0.16644 0.89333 0.0
H2075 H 0.79427 0.18015 0.90144 0.0
C2076 C 0.71355 0.13179 0.87088 0.0
C2077 C 0.70929 0.11145 0.87498 0.0
C2078 C 0.73366 0.13965 0.87379 0.0
C2079 C 0.74968 0.1275 0.88165 0.0
C2080 C 0.74521 0.10701 0.88542 0.0
C2081 C 0.72538 0.09903 0.88177 0.0
C2082 C 0.80796 0.13166 0.89183 0.0
C2083 C 0.81037 0.1521 0.89655 0.0
C2084 C 0.7885 0.12388 0.8864 0.0
C2085 C 0.77068 0.13616 0.88657 0.0
C2086 C 0.7731 0.15656 0.89227 0.0
C2087 C 0.79278 0.16443 0.89718 0.0
H2088 H 0.09227 0.44798 0.14171 0.0
H2089 H 0.14736 0.47119 0.11214 0.0
H2090 H 0.08151 0.48205 0.14955 0.0
H2091 H 0.13599 0.50558 0.11878 0.0
H2092 H 0.11837 0.56495 0.15024 0.0
H2093 H 0.13108 0.53124 0.14229 0.0
H2094 H 0.06734 0.51025 0.13554 0.0
H2095 H 0.05493 0.54323 0.14488 0.0
C2096 C 0.10196 0.46045 0.13667 0.0
C2097 C 0.12061 0.45692 0.12626 0.0
C2098 C 0.09572 0.48008 0.14099 0.0
C2099 C 0.10766 0.4968 0.13455 0.0
C2100 C 0.12645 0.4932 0.12423 0.0
C2101 C 0.13295 0.47347 0.1203 0.0
C2102 C 0.10716 0.55309 0.14695 0.0
C2103 C 0.08565 0.55675 0.14831 0.0
C2104 C 0.11441 0.53374 0.1423 0.0
C2105 C 0.10028 0.51775 0.13852 0.0
C2106 C 0.07879 0.52184 0.13901 0.0
C2107 C 0.0716 0.54093 0.14412 0.0
H2108 H 0.69851 0.81752 0.38701 0.0
H2109 H 0.68065 0.87996 0.38623 0.0
H2110 H 0.73393 0.82703 0.37678 0.0
H2111 H 0.71604 0.88978 0.37705 0.0
H2112 H 0.77731 0.9038 0.34985 0.0
H2113 H 0.74185 0.89033 0.35196 0.0
H2114 H 0.76379 0.84233 0.39045 0.0
H2115 H 0.79917 0.8552 0.38743 0.0
C2116 C 0.70226 0.83327 0.38454 0.0
C2117 C 0.68693 0.848 0.38677 0.0
C2118 C 0.72251 0.83878 0.37882 0.0
C2119 C 0.7279 0.8592 0.37592 0.0
C2120 C 0.71243 0.87389 0.37855 0.0
C2121 C 0.69217 0.86833 0.38393 0.0
C2122 C 0.77456 0.89013 0.35839 0.0
C2123 C 0.79096 0.88066 0.36862 0.0
C2124 C 0.75422 0.88249 0.35976 0.0
C2125 C 0.74982 0.86542 0.37168 0.0
C2126 C 0.7665 0.85536 0.38097 0.0
C2127 C 0.78685 0.86282 0.37933 0.0
H2128 H 0.87767 0.93327 0.14588 0.0
H2129 H 0.9397 0.9585 0.14012 0.0
H2130 H 0.86286 0.96577 0.13659 0.0
H2131 H 0.92514 0.99036 0.1296 0.0
H2132 H 0.89446 0.05038 0.1405 0.0
H2133 H 0.90887 0.01718 0.14487 0.0
H2134 H 0.85656 0.99122 0.11239 0.0
H2135 H 0.84149 0.02482 0.10893 0.0
C2136 C 0.88814 0.94564 0.14223 0.0
C2137 C 0.90985 0.94337 0.14398 0.0
C2138 C 0.87967 0.96426 0.13676 0.0
C2139 C 0.89276 0.9809 0.13258 0.0
C2140 C 0.9145 0.97816 0.13329 0.0
C2141 C 0.9229 0.95977 0.13918 0.0
C2142 C 0.88608 0.03766 0.13407 0.0
C2143 C 0.86681 0.04026 0.12436 0.0
C2144 C 0.89446 0.0185 0.13646 0.0
C2145 C 0.88401 0.00135 0.12891 0.0
C2146 C 0.86495 0.00401 0.11865 0.0
C2147 C 0.85638 0.02327 0.11649 0.0
H2148 H 0.1697 0.61067 0.62114 0.0
H2149 H 0.1835 0.66757 0.59213 0.0
H2150 H 0.20671 0.60599 0.62776 0.0
H2151 H 0.22052 0.66259 0.59829 0.0
H2152 H 0.28391 0.65596 0.6288 0.0
H2153 H 0.2467 0.66148 0.62422 0.0
H2154 H 0.23803 0.59851 0.60949 0.0
H2155 H 0.2751 0.59284 0.61459 0.0
C2156 C 0.1806 0.62219 0.61616 0.0
C2157 C 0.17357 0.63947 0.60603 0.0
C2158 C 0.20186 0.61943 0.61985 0.0
C2159 C 0.21663 0.63383 0.61342 0.0
C2160 C 0.20957 0.65129 0.60365 0.0
C2161 C 0.18831 0.6541 0.60004 0.0
C2162 C 0.27409 0.64328 0.62456 0.0
C2163 C 0.28256 0.62394 0.62208 0.0
C2164 C 0.25274 0.64647 0.62186 0.0
C2165 C 0.23934 0.63044 0.61652 0.0
C2166 C 0.24782 0.61114 0.61395 0.0
C2167 C 0.26915 0.60792 0.61674 0.0
H2168 H 0.1155 0.4225 0.35821 0.0
H2169 H 0.07012 0.45039 0.31899 0.0
H2170 H 0.12656 0.45594 0.37002 0.0
H2171 H 0.0812 0.48337 0.33069 0.0
H2172 H 0.0865 0.53617 0.37324 0.0
H2173 H 0.07797 0.5019 0.36301 0.0
H2174 H 0.14352 0.48848 0.35776 0.0
H2175 H 0.15224 0.5229 0.36816 0.0
C2176 C 0.10803 0.43568 0.35195 0.0
C2177 C 0.0918 0.43365 0.33773 0.0
C2178 C 0.11439 0.45482 0.35871 0.0
C2179 C 0.10452 0.47224 0.3515 0.0
C2180 C 0.08881 0.47021 0.33685 0.0
C2181 C 0.08256 0.45123 0.33004 0.0
C2182 C 0.09917 0.52596 0.37004 0.0
C2183 C 0.12008 0.53244 0.37135 0.0
C2184 C 0.09425 0.50631 0.36408 0.0
C2185 C 0.11007 0.49258 0.35933 0.0
C2186 C 0.131 0.49873 0.36136 0.0
C2187 C 0.13596 0.51848 0.36724 0.0
H2188 H 0.39755 0.57716 0.8778 0.0
H2189 H 0.39603 0.55762 0.81567 0.0
H2190 H 0.38799 0.54292 0.88864 0.0
H2191 H 0.38593 0.52369 0.82648 0.0
H2192 H 0.34813 0.47129 0.85538 0.0
H2193 H 0.35371 0.5068 0.8472 0.0
H2194 H 0.40975 0.50753 0.88332 0.0
H2195 H 0.40455 0.47177 0.89123 0.0
C2196 C 0.39466 0.56568 0.86648 0.0
C2197 C 0.39743 0.56998 0.8459 0.0
C2198 C 0.38939 0.54613 0.87268 0.0
C2199 C 0.38629 0.53078 0.85836 0.0
C2200 C 0.38815 0.53533 0.83777 0.0
C2201 C 0.39391 0.55469 0.83161 0.0
C2202 C 0.36156 0.47903 0.86176 0.0
C2203 C 0.37594 0.46869 0.87393 0.0
C2204 C 0.36473 0.49932 0.85702 0.0
C2205 C 0.38209 0.5098 0.86471 0.0
C2206 C 0.39615 0.49974 0.87738 0.0
C2207 C 0.39323 0.47929 0.88179 0.0
H2208 H 0.87981 0.68399 0.6625 0.0
H2209 H 0.8785 0.67153 0.5985 0.0
H2210 H 0.87288 0.71945 0.65558 0.0
H2211 H 0.87257 0.70674 0.59159 0.0
H2212 H 0.85079 0.7693 0.58219 0.0
H2213 H 0.84986 0.73399 0.5924 0.0
H2214 H 0.89025 0.74807 0.64291 0.0
H2215 H 0.89023 0.78336 0.63325 0.0
C2216 C 0.87802 0.68877 0.64698 0.0
C2217 C 0.87981 0.67486 0.63109 0.0
C2218 C 0.87415 0.70914 0.64298 0.0
C2219 C 0.87221 0.7161 0.62299 0.0
C2220 C 0.87354 0.70203 0.60719 0.0
C2221 C 0.87714 0.68173 0.61118 0.0
C2222 C 0.8592 0.76484 0.59564 0.0
C2223 C 0.8707 0.77906 0.60682 0.0
C2224 C 0.85881 0.74457 0.60144 0.0
C2225 C 0.87022 0.73801 0.61837 0.0
C2226 C 0.88105 0.75247 0.62996 0.0
C2227 C 0.88117 0.77276 0.62432 0.0
H2228 H 0.95898 0.10709 0.38643 0.0
H2229 H 0.97405 0.14859 0.33856 0.0
H2230 H 0.99481 0.11006 0.39936 0.0
H2231 H 0.00977 0.15157 0.35126 0.0
H2232 H 0.07675 0.14117 0.37027 0.0
H2233 H 0.04258 0.13171 0.35638 0.0
H2234 H 0.01516 0.13843 0.41546 0.0
H2235 H 0.04937 0.14778 0.42922 0.0
C2236 C 0.9701 0.1166 0.37856 0.0
C2237 C 0.96413 0.1271 0.36117 0.0
C2238 C 0.99051 0.11835 0.38594 0.0
C2239 C 0.00513 0.13089 0.37619 0.0
C2240 C -0.001 0.14146 0.35883 0.0
C2241 C 0.97861 0.13975 0.35154 0.0
C2242 C 0.06346 0.1401 0.3803 0.0
C2243 C 0.06563 0.14463 0.40086 0.0
C2244 C 0.04392 0.13487 0.37236 0.0
C2245 C 0.02623 0.13424 0.38486 0.0
C2246 C 0.02856 0.13847 0.40553 0.0
C2247 C 0.04805 0.1439 0.41339 0.0
H2248 H 0.60724 0.21739 0.13237 0.0
H2249 H 0.6448 0.23047 0.07993 0.0
H2250 H 0.60786 0.25282 0.14161 0.0
H2251 H 0.64642 0.26589 0.08969 0.0
H2252 H 0.61829 0.32854 0.09583 0.0
H2253 H 0.62384 0.29322 0.08923 0.0
H2254 H 0.62593 0.2815 0.15335 0.0
H2255 H 0.61935 0.31709 0.16001 0.0
C2256 C 0.61603 0.22781 0.12304 0.0
C2257 C 0.62577 0.2212 0.10528 0.0
C2258 C 0.61653 0.24816 0.12843 0.0
C2259 C 0.62703 0.26237 0.11633 0.0
C2260 C 0.63774 0.2555 0.09913 0.0
C2261 C 0.63694 0.23517 0.09357 0.0
C2262 C 0.62011 0.31854 0.10861 0.0
C2263 C 0.6182 0.32571 0.12849 0.0
C2264 C 0.6235 0.29818 0.10479 0.0
C2265 C 0.62536 0.28435 0.12072 0.0
C2266 C 0.62422 0.29162 0.14067 0.0
C2267 C 0.62056 0.31205 0.14451 0.0
H2268 H 0.44817 0.8565 0.93158 0.0
H2269 H 0.41893 0.8615 0.87323 0.0
H2270 H 0.48213 0.8645 0.91645 0.0
H2271 H 0.45261 0.86968 0.85806 0.0
H2272 H 0.51855 0.85179 0.83668 0.0
H2273 H 0.48391 0.84948 0.85181 0.0
H2274 H 0.50344 0.89061 0.8989 0.0
H2275 H 0.53827 0.89275 0.88359 0.0
C2276 C 0.44902 0.85978 0.91559 0.0
C2277 C 0.43102 0.85888 0.90359 0.0
C2278 C 0.46837 0.86444 0.90694 0.0
C2279 C 0.47006 0.86774 0.88604 0.0
C2280 C 0.45186 0.86718 0.87417 0.0
C2281 C 0.43256 0.86269 0.88285 0.0
C2282 C 0.51524 0.86062 0.85003 0.0
C2283 C 0.53069 0.87298 0.85864 0.0
C2284 C 0.49545 0.85931 0.85872 0.0
C2285 C 0.49085 0.87007 0.87642 0.0
C2286 C 0.50653 0.88216 0.88525 0.0
C2287 C 0.52636 0.88346 0.87651 0.0
H2288 H 0.8558 0.23095 0.90564 0.0
H2289 H 0.88657 0.21389 0.85044 0.0
H2290 H 0.86064 0.26644 0.89713 0.0
H2291 H 0.89266 0.24915 0.84247 0.0
H2292 H 0.89269 0.32755 0.8864 0.0
H2293 H 0.88497 0.29251 0.89501 0.0
H2294 H 0.87779 0.27861 0.83155 0.0
H2295 H 0.88684 0.31337 0.82322 0.0
C2296 C 0.86385 0.23482 0.89181 0.0
C2297 C 0.8708 0.21966 0.8787 0.0
C2298 C 0.86672 0.25518 0.88694 0.0
C2299 C 0.87705 0.26085 0.86905 0.0
C2300 C 0.88418 0.24555 0.85611 0.0
C2301 C 0.88088 0.22525 0.86076 0.0
C2302 C 0.88915 0.31694 0.87441 0.0
C2303 C 0.88976 0.3231 0.85421 0.0
C2304 C 0.88469 0.29686 0.87929 0.0
C2305 C 0.88074 0.28252 0.86401 0.0
C2306 C 0.88115 0.28897 0.84376 0.0
C2307 C 0.88605 0.30894 0.83893 0.0
H2308 H 0.42954 0.16336 0.64428 0.0
H2309 H 0.43763 0.15287 0.58042 0.0
H2310 H 0.46566 0.15569 0.65011 0.0
H2311 H 0.47446 0.1453 0.58629 0.0
H2312 H 0.5315 0.10891 0.60972 0.0
H2313 H 0.49636 0.12005 0.60033 0.0
H2314 H 0.4997 0.16595 0.64669 0.0
H2315 H 0.53378 0.1538 0.6567 0.0
C2316 C 0.43912 0.15954 0.6314 0.0
C2317 C 0.43063 0.1586 0.61189 0.0
C2318 C 0.46 0.15517 0.63475 0.0
C2319 C 0.47306 0.14961 0.61872 0.0
C2320 C 0.46476 0.14919 0.59905 0.0
C2321 C 0.44373 0.15373 0.59565 0.0
C2322 C 0.52447 0.12129 0.61783 0.0
C2323 C 0.53477 0.13011 0.63431 0.0
C2324 C 0.50453 0.12785 0.61236 0.0
C2325 C 0.49499 0.14374 0.62294 0.0
C2326 C 0.50615 0.15327 0.63861 0.0
C2327 C 0.52571 0.1464 0.64433 0.0
H2328 H 0.6015 0.79176 0.3481 0.0
H2329 H 0.64007 0.77458 0.39849 0.0
H2330 H 0.59341 0.75652 0.34141 0.0
H2331 H 0.63344 0.73915 0.39101 0.0
H2332 H 0.60359 0.6774 0.38436 0.0
H2333 H 0.61009 0.71283 0.39212 0.0
H2334 H 0.60548 0.72705 0.32852 0.0
H2335 H 0.59744 0.69182 0.32131 0.0
C2336 C 0.60842 0.78034 0.35761 0.0
C2337 C 0.6213 0.78584 0.37385 0.0
C2338 C 0.60398 0.76007 0.35368 0.0
C2339 C 0.61283 0.74473 0.36555 0.0
C2340 C 0.62591 0.75038 0.38175 0.0
C2341 C 0.62985 0.77071 0.38601 0.0
C2342 C 0.60412 0.68822 0.37213 0.0
C2343 C 0.60066 0.68199 0.3522 0.0
C2344 C 0.60791 0.70854 0.37651 0.0
C2345 C 0.60851 0.72303 0.36098 0.0
C2346 C 0.6048 0.71658 0.34101 0.0
C2347 C 0.60046 0.69635 0.33676 0.0
H2348 H 0.07134 0.83484 0.14031 0.0
H2349 H 0.06018 0.83938 0.07613 0.0
H2350 H 0.03613 0.84459 0.14693 0.0
H2351 H 0.02394 0.84854 0.08287 0.0
H2352 H 0.96897 0.88854 0.10496 0.0
H2353 H 0.00295 0.87511 0.09482 0.0
H2354 H 0.00194 0.83561 0.14677 0.0
H2355 H 0.96931 0.85029 0.15745 0.0
C2356 C 0.06124 0.83759 0.12751 0.0
C2357 C 0.06874 0.83639 0.10765 0.0
C2358 C 0.0408 0.84314 0.13134 0.0
C2359 C 0.02699 0.84747 0.11547 0.0
C2360 C 0.0342 0.84564 0.0955 0.0
C2361 C 0.05491 0.84016 0.09162 0.0
C2362 C 0.97629 0.87709 0.11413 0.0
C2363 C 0.96716 0.87094 0.13231 0.0
C2364 C 0.99557 0.86919 0.10826 0.0
C2365 C 0.00552 0.85449 0.12016 0.0
C2366 C 0.99531 0.84743 0.13759 0.0
C2367 C 0.97654 0.85575 0.1437 0.0
H2368 H 0.60608 0.86376 0.66231 0.0
H2369 H 0.65647 0.90234 0.68282 0.0
H2370 H 0.59678 0.8565 0.69707 0.0
H2371 H 0.64672 0.89543 0.71784 0.0
H2372 H 0.62716 0.87093 0.78044 0.0
H2373 H 0.64197 0.8706 0.74623 0.0
H2374 H 0.58023 0.87838 0.72134 0.0
H2375 H 0.56564 0.87846 0.75486 0.0
C2376 C 0.61529 0.87059 0.67425 0.0
C2377 C 0.63177 0.88395 0.66978 0.0
C2378 C 0.60994 0.86643 0.6942 0.0
C2379 C 0.62075 0.87569 0.71023 0.0
C2380 C 0.63812 0.88801 0.70583 0.0
C2381 C 0.64364 0.89205 0.68577 0.0
C2382 C 0.6168 0.87226 0.76759 0.0
C2383 C 0.59523 0.87481 0.77041 0.0
C2384 C 0.62528 0.8722 0.74805 0.0
C2385 C 0.61227 0.87436 0.73106 0.0
C2386 C 0.5907 0.87633 0.73401 0.0
C2387 C 0.58233 0.87656 0.75334 0.0
H2388 H 0.88681 0.90199 0.53789 0.0
H2389 H 0.86241 0.84237 0.52523 0.0
H2390 H 0.88235 0.91113 0.50267 0.0
H2391 H 0.85715 0.85181 0.49011 0.0
H2392 H 0.8679 0.86875 0.42441 0.0
H2393 H 0.87462 0.85921 0.45941 0.0
H2394 H 0.85582 0.91858 0.47884 0.0
H2395 H 0.85008 0.92816 0.44371 0.0
C2396 C 0.88032 0.89085 0.52765 0.0
C2397 C 0.87494 0.87142 0.53448 0.0
C2398 C 0.87765 0.89615 0.50741 0.0
C2399 C 0.86929 0.88226 0.49348 0.0
C2400 C 0.86392 0.86282 0.5003 0.0
C2401 C 0.8668 0.85744 0.52052 0.0
C2402 C 0.86573 0.87983 0.43621 0.0
C2403 C 0.85937 0.89942 0.43144 0.0
C2404 C 0.8692 0.8743 0.45628 0.0
C2405 C 0.86592 0.88816 0.47203 0.0
C2406 C 0.85902 0.90765 0.46714 0.0
C2407 C 0.85562 0.91315 0.44706 0.0
H2408 H 0.81999 0.10957 0.19409 0.0
H2409 H 0.88315 0.11336 0.17223 0.0
H2410 H 0.83204 0.11843 0.22806 0.0
H2411 H 0.89558 0.12088 0.20603 0.0
H2412 H 0.91499 0.14502 0.26467 0.0
H2413 H 0.89831 0.14408 0.23162 0.0
H2414 H 0.84949 0.10568 0.25581 0.0
H2415 H 0.86554 0.10811 0.28913 0.0
C2416 C 0.83646 0.11238 0.19666 0.0
C2417 C 0.85062 0.11147 0.18063 0.0
C2418 C 0.84344 0.11728 0.21609 0.0
C2419 C 0.86483 0.1206 0.21993 0.0
C2420 C 0.87895 0.11913 0.20374 0.0
C2421 C 0.87189 0.11468 0.18433 0.0
C2422 C 0.90039 0.13685 0.2629 0.0
C2423 C 0.89147 0.12664 0.27927 0.0
C2424 C 0.89093 0.13606 0.24394 0.0
C2425 C 0.87276 0.12438 0.24078 0.0
C2426 C 0.86333 0.11499 0.25755 0.0
C2427 C 0.87252 0.11629 0.27667 0.0
H2428 H 0.62921 0.12938 0.92425 0.0
H2429 H 0.64167 0.0691 0.94482 0.0
H2430 H 0.62109 0.13966 0.95873 0.0
H2431 H 0.63471 0.07939 0.9795 0.0
H2432 H 0.60444 0.09841 0.03755 0.0
H2433 H 0.6084 0.08882 0.00238 0.0
H2434 H 0.63759 0.14642 0.98987 0.0
H2435 H 0.63272 0.15637 0.02488 0.0
C2436 C 0.62985 0.11828 0.9362 0.0
C2437 C 0.63516 0.09828 0.93191 0.0
C2438 C 0.62559 0.12421 0.956 0.0
C2439 C 0.62711 0.11035 0.97199 0.0
C2440 C 0.63284 0.09038 0.96758 0.0
C2441 C 0.63696 0.08447 0.94777 0.0
C2442 C 0.61162 0.10909 0.02729 0.0
C2443 C 0.61831 0.12817 0.03409 0.0
C2444 C 0.61401 0.10353 0.0071 0.0
C2445 C 0.62346 0.11676 0.99323 0.0
C2446 C 0.62996 0.13592 1.0 0.0
C2447 C 0.6273 0.1416 0.02015 0.0
H2448 H 0.65554 0.10498 0.81515 0.0
H2449 H 0.58913 0.10547 0.82651 0.0
H2450 H 0.64897 0.11179 0.7795 0.0
H2451 H 0.58265 0.11163 0.79109 0.0
H2452 H 0.57438 0.13795 0.73083 0.0
H2453 H 0.58562 0.1367 0.76584 0.0
H2454 H 0.63493 0.0958 0.74941 0.0
H2455 H 0.62393 0.09781 0.714 0.0
C2456 C 0.63956 0.10655 0.8101 0.0
C2457 C 0.62287 0.10469 0.82379 0.0
C2458 C 0.63581 0.11036 0.78962 0.0
C2459 C 0.61529 0.1124 0.78239 0.0
C2460 C 0.59868 0.11061 0.79613 0.0
C2461 C 0.60241 0.1069 0.81652 0.0
C2462 C 0.58784 0.12898 0.73467 0.0
C2463 C 0.59821 0.11786 0.71984 0.0
C2464 C 0.59421 0.12813 0.75476 0.0
C2465 C 0.61088 0.11576 0.76058 0.0
C2466 C 0.62207 0.10553 0.74548 0.0
C2467 C 0.61582 0.10665 0.72522 0.0
H2468 H 0.64882 0.88922 0.45392 0.0
H2469 H 0.61124 0.83888 0.47419 0.0
H2470 H 0.65211 0.90111 0.48842 0.0
H2471 H 0.6137 0.85127 0.5088 0.0
H2472 H 0.64401 0.92634 0.55097 0.0
H2473 H 0.6361 0.91585 0.5164 0.0
H2474 H 0.63848 0.85343 0.53503 0.0
H2475 H 0.64541 0.86419 0.5696 0.0
C2476 C 0.6409 0.88089 0.46574 0.0
C2477 C 0.62988 0.86303 0.46134 0.0
C2478 C 0.64268 0.8878 0.48558 0.0
C2479 C 0.63325 0.87715 0.50153 0.0
C2480 C 0.62153 0.85967 0.49699 0.0
C2481 C 0.61997 0.85262 0.47713 0.0
C2482 C 0.64254 0.91042 0.54757 0.0
C2483 C 0.64464 0.89605 0.56288 0.0
C2484 C 0.63819 0.90435 0.52778 0.0
C2485 C 0.63655 0.88374 0.52282 0.0
C2486 C 0.6391 0.86941 0.53827 0.0
C2487 C 0.64314 0.87552 0.55807 0.0
H2488 H 0.91335 0.8932 0.32941 0.0
H2489 H 0.84829 0.89768 0.31277 0.0
H2490 H 0.92275 0.89092 0.29397 0.0
H2491 H 0.85784 0.89573 0.27722 0.0
H2492 H 0.93461 0.91421 0.23086 0.0
H2493 H 0.92347 0.91409 0.26575 0.0
H2494 H 0.87236 0.87401 0.2506 0.0
H2495 H 0.88335 0.87432 0.21526 0.0
C2496 C 0.90102 0.89363 0.31824 0.0
C2497 C 0.88007 0.89582 0.32404 0.0
C2498 C 0.90644 0.89244 0.29787 0.0
C2499 C 0.89108 0.89342 0.28272 0.0
C2500 C 0.87005 0.89484 0.28849 0.0
C2501 C 0.8646 0.89603 0.30891 0.0
C2502 C 0.92093 0.90539 0.23482 0.0
C2503 C 0.90994 0.8942 0.22013 0.0
C2504 C 0.91464 0.9052 0.25495 0.0
C2505 C 0.89719 0.89382 0.26106 0.0
C2506 C 0.88584 0.88299 0.24637 0.0
C2507 C 0.89217 0.88315 0.22612 0.0
H2508 H 0.85448 0.11844 0.9639 0.0
H2509 H 0.88987 0.17199 0.97916 0.0
H2510 H 0.85268 0.10937 0.99943 0.0
H2511 H 0.88889 0.16253 0.01465 0.0
H2512 H 0.85684 0.15583 0.07565 0.0
H2513 H 0.86363 0.16243 0.04037 0.0
H2514 H 0.86967 0.09853 0.02938 0.0
H2515 H 0.86206 0.09182 0.06483 0.0
C2516 C 0.86228 0.12805 0.97482 0.0
C2517 C 0.87212 0.14604 0.96875 0.0
C2518 C 0.86134 0.12279 0.99523 0.0
C2519 C 0.87041 0.13533 0.01003 0.0
C2520 C 0.88126 0.15276 0.00376 0.0
C2521 C 0.88198 0.15812 0.98339 0.0
C2522 C 0.85972 0.14312 0.06581 0.0
C2523 C 0.85878 0.12326 0.07315 0.0
C2524 C 0.86382 0.14694 0.0455 0.0
C2525 C 0.86731 0.13104 0.03192 0.0
C2526 C 0.8668 0.11115 0.03932 0.0
C2527 C 0.86252 0.1073 0.05969 0.0
H2528 H 0.78653 0.64152 0.86686 0.0
H2529 H 0.78059 0.58914 0.90484 0.0
H2530 H 0.75034 0.6505 0.8742 0.0
H2531 H 0.74503 0.59847 0.91323 0.0
H2532 H 0.67586 0.60487 0.90347 0.0
H2533 H 0.71236 0.59818 0.89866 0.0
H2534 H 0.72567 0.66215 0.89789 0.0
H2535 H 0.68858 0.66897 0.90249 0.0
C2536 C 0.77743 0.63206 0.87691 0.0
C2537 C 0.78586 0.61427 0.88469 0.0
C2538 C 0.7568 0.63727 0.88131 0.0
C2539 C 0.74454 0.62507 0.89411 0.0
C2540 C 0.75366 0.60791 0.90281 0.0
C2541 C 0.77404 0.60254 0.89807 0.0
C2542 C 0.68647 0.61761 0.90231 0.0
C2543 C 0.67916 0.6375 0.90331 0.0
C2544 C 0.70758 0.61373 0.8996 0.0
C2545 C 0.72212 0.62959 0.89772 0.0
C2546 C 0.71491 0.64954 0.89894 0.0
C2547 C 0.69365 0.65346 0.90172 0.0
H2548 H 0.28541 0.85766 0.14284 0.0
H2549 H 0.27129 0.90863 0.10512 0.0
H2550 H 0.25066 0.84335 0.13593 0.0
H2551 H 0.23668 0.89451 0.09812 0.0
H2552 H 0.16933 0.87372 0.10664 0.0
H2553 H 0.20345 0.88747 0.11589 0.0
H2554 H 0.23108 0.8291 0.10641 0.0
H2555 H 0.19685 0.81554 0.09653 0.0
C2556 C 0.27476 0.86581 0.13318 0.0
C2557 C 0.28054 0.88457 0.12513 0.0
C2558 C 0.25498 0.85763 0.12916 0.0
C2559 C 0.24085 0.86795 0.11671 0.0
C2560 C 0.24702 0.88643 0.10816 0.0
C2561 C 0.26675 0.89455 0.11218 0.0
C2562 C 0.18267 0.8638 0.10694 0.0
C2563 C 0.18055 0.84353 0.10135 0.0
C2564 C 0.20221 0.87166 0.11217 0.0
C2565 C 0.21993 0.85932 0.11217 0.0
C2566 C 0.21767 0.8389 0.10687 0.0
C2567 C 0.19817 0.83116 0.10116 0.0
H2568 H 0.85235 0.52972 0.83504 0.0
H2569 H 0.86555 0.535 0.89869 0.0
H2570 H 0.86602 0.49539 0.83514 0.0
H2571 H 0.87859 0.50024 0.89892 0.0
H2572 H 0.86112 0.42897 0.88602 0.0
H2573 H 0.85549 0.46532 0.88927 0.0
H2574 H 0.90318 0.47665 0.84482 0.0
H2575 H 0.9093 0.44043 0.84189 0.0
C2576 C 0.85852 0.52362 0.84897 0.0
C2577 C 0.85805 0.53499 0.86683 0.0
C2578 C 0.86633 0.50403 0.84902 0.0
C2579 C 0.8733 0.49526 0.86704 0.0
C2580 C 0.87332 0.50676 0.88485 0.0
C2581 C 0.86603 0.52661 0.88468 0.0
C2582 C 0.87068 0.43923 0.87724 0.0
C2583 C 0.88561 0.43182 0.86367 0.0
C2584 C 0.86753 0.45999 0.87918 0.0
C2585 C 0.87893 0.47368 0.86729 0.0
C2586 C 0.89426 0.46635 0.85418 0.0
C2587 C 0.89776 0.44564 0.85257 0.0
H2588 H 0.22413 0.0935 0.60473 0.0
H2589 H 0.21157 0.1437 0.64403 0.0
H2590 H 0.25958 0.10609 0.59934 0.0
H2591 H 0.24726 0.15637 0.63893 0.0
H2592 H 0.30394 0.18285 0.60316 0.0
H2593 H 0.26884 0.17086 0.61176 0.0
H2594 H 0.29246 0.11035 0.61748 0.0
H2595 H 0.32747 0.12253 0.60948 0.0
C2596 C 0.22917 0.1071 0.61244 0.0
C2597 C 0.21556 0.11729 0.62535 0.0
C2598 C 0.24942 0.11431 0.60939 0.0
C2599 C 0.25634 0.13206 0.61898 0.0
C2600 C 0.24238 0.14265 0.63136 0.0
C2601 C 0.22205 0.13541 0.63435 0.0
C2602 C 0.30156 0.16708 0.60679 0.0
C2603 C 0.31831 0.15363 0.60621 0.0
C2604 C 0.28156 0.16022 0.61175 0.0
C2605 C 0.27788 0.13967 0.61555 0.0
C2606 C 0.29477 0.12628 0.61495 0.0
C2607 C 0.31483 0.13322 0.61044 0.0
H2608 H 0.13694 0.96904 0.89899 0.0
H2609 H 0.14862 0.97415 0.83512 0.0
H2610 H 0.12233 0.00327 0.89908 0.0
H2611 H 0.13343 0.00783 0.83507 0.0
H2612 H 0.08818 0.06107 0.84124 0.0
H2613 H 0.09593 0.02514 0.84456 0.0
H2614 H 0.14309 0.03901 0.88906 0.0
H2615 H 0.13581 0.07499 0.88541 0.0
C2616 C 0.13586 0.97728 0.88493 0.0
C2617 C 0.14382 0.96905 0.86704 0.0
C2618 C 0.12764 0.99682 0.885 0.0
C2619 C 0.12673 0.00807 0.86706 0.0
C2620 C 0.1338 0.99938 0.84905 0.0
C2621 C 0.14251 0.98018 0.84909 0.0
C2622 C 0.09995 0.05644 0.85198 0.0
C2623 C 0.11148 0.07087 0.86298 0.0
C2624 C 0.10439 0.03591 0.85384 0.0
C2625 C 0.12004 0.02938 0.8671 0.0
C2626 C 0.13081 0.04368 0.87887 0.0
C2627 C 0.12673 0.06425 0.87668 0.0
H2628 H 0.81188 0.33236 0.40339 0.0
H2629 H 0.82338 0.39629 0.41033 0.0
H2630 H 0.77533 0.33917 0.39551 0.0
H2631 H 0.78738 0.40299 0.40246 0.0
H2632 H 0.71871 0.4105 0.40408 0.0
H2633 H 0.75359 0.40084 0.41443 0.0
H2634 H 0.75272 0.35277 0.37028 0.0
H2635 H 0.71701 0.36203 0.3608 0.0
C2636 C 0.80664 0.34784 0.40328 0.0
C2637 C 0.82062 0.36377 0.40748 0.0
C2638 C 0.78572 0.35176 0.39859 0.0
C2639 C 0.77834 0.37167 0.39815 0.0
C2640 C 0.79235 0.38747 0.40264 0.0
C2641 C 0.81315 0.3836 0.40715 0.0
C2642 C 0.72604 0.39787 0.39662 0.0
C2643 C 0.71559 0.38732 0.38129 0.0
C2644 C 0.74607 0.39235 0.40247 0.0
C2645 C 0.75624 0.37623 0.39296 0.0
C2646 C 0.74537 0.36518 0.37804 0.0
C2647 C 0.72504 0.37054 0.37244 0.0
H2648 H 0.87397 0.45933 0.64456 0.0
H2649 H 0.82229 0.48526 0.61232 0.0
H2650 H 0.89067 0.49246 0.64677 0.0
H2651 H 0.83942 0.51809 0.61311 0.0
H2652 H 0.85704 0.57611 0.64468 0.0
H2653 H 0.84392 0.54244 0.63752 0.0
H2654 H 0.90734 0.52084 0.63343 0.0
H2655 H 0.92023 0.55469 0.64192 0.0
C2656 C 0.86659 0.47206 0.63732 0.0
C2657 C 0.84683 0.46992 0.62844 0.0
C2658 C 0.87614 0.49106 0.63852 0.0
C2659 C 0.86622 0.50816 0.6305 0.0
C2660 C 0.84722 0.50548 0.6201 0.0
C2661 C 0.83747 0.48664 0.6194 0.0
C2662 C 0.8681 0.56413 0.64206 0.0
C2663 C 0.88957 0.56792 0.64324 0.0
C2664 C 0.86065 0.54482 0.63779 0.0
C2665 C 0.87454 0.52883 0.63446 0.0
C2666 C 0.89615 0.53269 0.63597 0.0
C2667 C 0.90358 0.55204 0.64067 0.0
H2668 H 0.62166 0.54 0.1131 0.0
H2669 H 0.67093 0.51996 0.15287 0.0
H2670 H 0.60718 0.50555 0.11273 0.0
H2671 H 0.65641 0.48649 0.1528 0.0
H2672 H 0.64036 0.42444 0.13694 0.0
H2673 H 0.65285 0.45848 0.13014 0.0
H2674 H 0.5901 0.4809 0.13672 0.0
H2675 H 0.57749 0.4463 0.14254 0.0
C2676 C 0.62938 0.52837 0.1217 0.0
C2677 C 0.64753 0.53281 0.13291 0.0
C2678 C 0.62107 0.50871 0.12154 0.0
C2679 C 0.63084 0.49327 0.13251 0.0
C2680 C 0.6488 0.49787 0.14375 0.0
C2681 C 0.65705 0.51725 0.14389 0.0
C2682 C 0.62918 0.43658 0.13629 0.0
C2683 C 0.60795 0.43283 0.1396 0.0
C2684 C 0.63632 0.45609 0.13265 0.0
C2685 C 0.62246 0.4724 0.13301 0.0
C2686 C 0.60108 0.46861 0.13607 0.0
C2687 C 0.5939 0.44893 0.13956 0.0
H2688 H 0.63181 0.73603 0.91519 0.0
H2689 H 0.62448 0.70902 0.85627 0.0
H2690 H 0.62885 0.7695 0.90012 0.0
H2691 H 0.62187 0.74235 0.84123 0.0
H2692 H 0.58385 0.80016 0.82992 0.0
H2693 H 0.5943 0.76732 0.84233 0.0
H2694 H 0.64386 0.79522 0.87699 0.0
H2695 H 0.63318 0.82837 0.86461 0.0
C2696 C 0.63001 0.73724 0.89899 0.0
C2697 C 0.62811 0.71986 0.88697 0.0
C2698 C 0.6284 0.75643 0.89033 0.0
C2699 C 0.62485 0.75859 0.86949 0.0
C2700 C 0.6242 0.7412 0.85738 0.0
C2701 C 0.62579 0.72209 0.866 0.0
C2702 C 0.59717 0.79931 0.83996 0.0
C2703 C 0.60764 0.81688 0.84632 0.0
C2704 C 0.60325 0.78044 0.84701 0.0
C2705 C 0.61992 0.77862 0.86068 0.0
C2706 C 0.63084 0.79614 0.8666 0.0
C2707 C 0.62483 0.81509 0.8594 0.0
H2708 H 0.52921 0.38703 0.14827 0.0
H2709 H 0.54891 0.3552 0.09492 0.0
H2710 H 0.49283 0.38061 0.13938 0.0
H2711 H 0.51281 0.34748 0.08664 0.0
H2712 H 0.4463 0.35216 0.0655 0.0
H2713 H 0.48237 0.36024 0.07427 0.0
H2714 H 0.46642 0.35692 0.13765 0.0
H2715 H 0.43014 0.35034 0.12851 0.0
C2716 C 0.52569 0.3784 0.13479 0.0
C2717 C 0.54179 0.37167 0.12223 0.0
C2718 C 0.50485 0.37459 0.1297 0.0
C2719 C 0.49969 0.36353 0.1122 0.0
C2720 C 0.51598 0.3565 0.09992 0.0
C2721 C 0.53675 0.36076 0.10474 0.0
C2722 C 0.45064 0.35344 0.08126 0.0
C2723 C 0.43557 0.35134 0.09635 0.0
C2724 C 0.47133 0.35781 0.08636 0.0
C2725 C 0.47751 0.35929 0.10674 0.0
C2726 C 0.46231 0.35645 0.12182 0.0
C2727 C 0.44153 0.35259 0.11665 0.0
H2728 H 0.8609 0.17273 0.3728 0.0
H2729 H 0.90982 0.19955 0.33673 0.0
H2730 H 0.85081 0.20629 0.38449 0.0
H2731 H 0.90011 0.23274 0.34858 0.0
H2732 H 0.86462 0.26517 0.42198 0.0
H2733 H 0.86615 0.23169 0.40687 0.0
H2734 H 0.87402 0.2586 0.34803 0.0
H2735 H 0.87304 0.29203 0.36321 0.0
C2736 C 0.86931 0.18578 0.36718 0.0
C2737 C 0.88623 0.18349 0.35394 0.0
C2738 C 0.86362 0.20497 0.37396 0.0
C2739 C 0.87468 0.22222 0.36753 0.0
C2740 C 0.89104 0.21987 0.35365 0.0
C2741 C 0.89673 0.20077 0.34695 0.0
C2742 C 0.86634 0.26393 0.40578 0.0
C2743 C 0.86901 0.28123 0.39383 0.0
C2744 C 0.8671 0.24473 0.39709 0.0
C2745 C 0.87047 0.24244 0.37626 0.0
C2746 C 0.87182 0.25982 0.36417 0.0
C2747 C 0.87116 0.27899 0.37287 0.0
H2748 H 0.94872 0.64356 0.59608 0.0
H2749 H 0.969 0.61373 0.6504 0.0
H2750 H 0.98476 0.65066 0.58717 0.0
H2751 H 0.00531 0.61955 0.64092 0.0
H2752 H 0.06762 0.65077 0.62854 0.0
H2753 H 0.03161 0.64352 0.63819 0.0
H2754 H 0.01509 0.63714 0.57512 0.0
H2755 H 0.05083 0.64581 0.56578 0.0
C2756 C 0.96099 0.6383 0.60599 0.0
C2757 C 0.95611 0.62816 0.62394 0.0
C2758 C 0.98171 0.64219 0.60081 0.0
C2759 C 0.99814 0.63557 0.6132 0.0
C2760 C 0.99317 0.62523 0.63114 0.0
C2761 C 0.97236 0.62178 0.63657 0.0
C2762 C 0.05619 0.64762 0.61686 0.0
C2763 C 0.06189 0.64825 0.59649 0.0
C2764 C 0.03557 0.6434 0.62233 0.0
C2765 C 0.02027 0.63965 0.60748 0.0
C2766 C 0.02622 0.64032 0.58703 0.0
C2767 C 0.04672 0.64501 0.58161 0.0
H2768 H 0.62029 0.26498 0.58436 0.0
H2769 H 0.63869 0.28165 0.64495 0.0
H2770 H 0.61985 0.2294 0.59447 0.0
H2771 H 0.63865 0.24653 0.65469 0.0
H2772 H 0.5999 0.18986 0.67049 0.0
H2773 H 0.60875 0.22371 0.65946 0.0
H2774 H 0.64092 0.19942 0.60778 0.0
H2775 H 0.63191 0.16509 0.61902 0.0
C2776 C 0.62457 0.2611 0.59967 0.0
C2777 C 0.62913 0.27626 0.6139 0.0
C2778 C 0.62446 0.24072 0.60542 0.0
C2779 C 0.62898 0.23521 0.62545 0.0
C2780 C 0.63473 0.25031 0.63925 0.0
C2781 C 0.63474 0.27051 0.6336 0.0
C2782 C 0.60926 0.19168 0.65701 0.0
C2783 C 0.6153 0.17487 0.64566 0.0
C2784 C 0.61437 0.2111 0.65068 0.0
C2785 C 0.62551 0.21426 0.63271 0.0
C2786 C 0.63222 0.19742 0.62163 0.0
C2787 C 0.6273 0.17782 0.62818 0.0
H2788 H 0.07685 0.35609 0.84682 0.0
H2789 H 0.06886 0.36304 0.91118 0.0
H2790 H 0.04079 0.3653 0.84144 0.0
H2791 H 0.03275 0.37307 0.90571 0.0
H2792 H 0.9635 0.36282 0.88855 0.0
H2793 H 0.0003 0.35859 0.89613 0.0
H2794 H 0.01642 0.39176 0.84217 0.0
H2795 H 0.97946 0.3952 0.83416 0.0
C2796 C 0.06746 0.35984 0.85985 0.0
C2797 C 0.07574 0.3587 0.87946 0.0
C2798 C 0.04676 0.36532 0.85673 0.0
C2799 C 0.0338 0.37004 0.87312 0.0
C2800 C 0.04218 0.36927 0.89275 0.0
C2801 C 0.0629 0.36357 0.89589 0.0
C2802 C 0.9749 0.36944 0.87843 0.0
C2803 C 0.96861 0.37915 0.86064 0.0
C2804 C 0.99605 0.36711 0.88285 0.0
C2805 C 0.0114 0.37463 0.86966 0.0
C2806 C 0.00503 0.38535 0.85242 0.0
C2807 C 0.98386 0.38747 0.84789 0.0
H2808 H 0.8451 0.72776 0.14262 0.0
H2809 H 0.8873 0.73447 0.09227 0.0
H2810 H 0.85011 0.7633 0.15114 0.0
H2811 H 0.89269 0.76999 0.10128 0.0
H2812 H 0.92086 0.8129 0.15302 0.0
H2813 H 0.90956 0.78019 0.14046 0.0
H2814 H 0.84757 0.80299 0.13066 0.0
H2815 H 0.85903 0.83646 0.14277 0.0
C2816 C 0.85516 0.73689 0.13317 0.0
C2817 C 0.86593 0.7283 0.11684 0.0
C2818 C 0.85788 0.75723 0.138 0.0
C2819 C 0.87171 0.76922 0.12682 0.0
C2820 C 0.88183 0.76094 0.11 0.0
C2821 C 0.87876 0.74068 0.10487 0.0
C2822 C 0.90474 0.81106 0.14836 0.0
C2823 C 0.8908 0.8273 0.14893 0.0
C2824 C 0.89839 0.79235 0.14099 0.0
C2825 C 0.87787 0.7893 0.13437 0.0
C2826 C 0.86357 0.80519 0.13556 0.0
C2827 C 0.87007 0.8242 0.14257 0.0
H2828 H 0.43086 0.6443 0.41944 0.0
H2829 H 0.42194 0.64497 0.35478 0.0
H2830 H 0.46676 0.63311 0.41459 0.0
H2831 H 0.45762 0.63451 0.34999 0.0
H2832 H 0.51694 0.60244 0.34387 0.0
H2833 H 0.48055 0.60692 0.35332 0.0
H2834 H 0.49976 0.64542 0.40273 0.0
H2835 H 0.53611 0.64022 0.39378 0.0
C2836 C 0.43656 0.64218 0.40422 0.0
C2837 C 0.42348 0.64553 0.38752 0.0
C2838 C 0.45713 0.63576 0.40144 0.0
C2839 C 0.46506 0.63268 0.38189 0.0
C2840 C 0.45195 0.63617 0.36527 0.0
C2841 C 0.43146 0.6424 0.36804 0.0
C2842 C 0.51338 0.61149 0.35702 0.0
C2843 C 0.52935 0.62116 0.36793 0.0
C2844 C 0.49252 0.61421 0.36234 0.0
C2845 C 0.48717 0.62692 0.37852 0.0
C2846 C 0.50326 0.63548 0.39024 0.0
C2847 C 0.52414 0.63255 0.38506 0.0
H2848 H 0.87777 0.60632 0.82377 0.0
H2849 H 0.81422 0.61201 0.80313 0.0
H2850 H 0.89025 0.61529 0.79005 0.0
H2851 H 0.82641 0.62229 0.77018 0.0
H2852 H 0.85163 0.60929 0.7082 0.0
H2853 H 0.84013 0.60595 0.74267 0.0
H2854 H 0.895 0.63847 0.76314 0.0
H2855 H 0.90711 0.64089 0.72818 0.0
C2856 C 0.8665 0.61 0.81218 0.0
C2857 C 0.84501 0.60821 0.81604 0.0
C2858 C 0.87362 0.61524 0.79285 0.0
C2859 C 0.85936 0.61915 0.77714 0.0
C2860 C 0.83791 0.61871 0.78159 0.0
C2861 C 0.83086 0.613 0.80063 0.0
C2862 C 0.8612 0.61595 0.71997 0.0
C2863 C 0.88029 0.62539 0.7154 0.0
C2864 C 0.8545 0.61417 0.73987 0.0
C2865 C 0.86649 0.62209 0.75588 0.0
C2866 C 0.88543 0.63199 0.75128 0.0
C2867 C 0.8923 0.63354 0.73124 0.0
H2868 H 0.60593 0.60939 0.07616 0.0
H2869 H 0.67069 0.60769 0.05828 0.0
H2870 H 0.59637 0.6202 0.04185 0.0
H2871 H 0.6612 0.61894 0.02457 0.0
H2872 H 0.63815 0.66117 0.97463 0.0
H2873 H 0.64302 0.65327 0.0104 0.0
H2874 H 0.60191 0.60182 0.00435 0.0
H2875 H 0.59738 0.60931 0.96852 0.0
C2876 C 0.61806 0.61132 0.06496 0.0
C2877 C 0.63902 0.60757 0.06984 0.0
C2878 C 0.61261 0.61752 0.04543 0.0
C2879 C 0.62812 0.62059 0.03076 0.0
C2880 C 0.64901 0.61691 0.03571 0.0
C2881 C 0.65438 0.61029 0.05496 0.0
C2882 C 0.62986 0.64839 0.981 0.0
C2883 C 0.6175 0.63579 0.96872 0.0
C2884 C 0.63269 0.64386 0.00142 0.0
C2885 C 0.62283 0.62695 0.01001 0.0
C2886 C 0.60955 0.61501 0.99806 0.0
C2887 C 0.60707 0.61926 0.97755 0.0
H2888 H 0.65135 0.38106 0.20418 0.0
H2889 H 0.58852 0.37314 0.22637 0.0
H2890 H 0.6637 0.38691 0.23841 0.0
H2891 H 0.60078 0.37966 0.26072 0.0
H2892 H 0.63397 0.37956 0.3227 0.0
H2893 H 0.62156 0.36893 0.2894 0.0
H2894 H 0.66104 0.41412 0.2617 0.0
H2895 H 0.67374 0.42432 0.29461 0.0
C2896 C 0.64019 0.38039 0.21641 0.0
C2897 C 0.61893 0.37679 0.21254 0.0
C2898 C 0.64724 0.38393 0.23605 0.0
C2899 C 0.63319 0.38419 0.25233 0.0
C2900 C 0.61206 0.37953 0.24859 0.0
C2901 C 0.60502 0.37581 0.22888 0.0
C2902 C 0.63996 0.38724 0.30949 0.0
C2903 C 0.65495 0.40276 0.31141 0.0
C2904 C 0.63281 0.38116 0.29039 0.0
C2905 C 0.64047 0.39048 0.2728 0.0
C2906 C 0.65516 0.40622 0.27483 0.0
C2907 C 0.66233 0.41222 0.29381 0.0
H2908 H 0.82124 0.3846 0.56526 0.0
H2909 H 0.88526 0.39108 0.5848 0.0
H2910 H 0.83291 0.3725 0.53252 0.0
H2911 H 0.89704 0.37943 0.55142 0.0
H2912 H 0.89582 0.39098 0.47832 0.0
H2913 H 0.89016 0.3969 0.51423 0.0
H2914 H 0.85533 0.34115 0.51829 0.0
H2915 H 0.86139 0.33484 0.48238 0.0
C2916 C 0.83784 0.3834 0.56253 0.0
C2917 C 0.85238 0.38889 0.57748 0.0
C2918 C 0.84449 0.3763 0.54387 0.0
C2919 C 0.86583 0.37494 0.53957 0.0
C2920 C 0.88048 0.38029 0.5545 0.0
C2921 C 0.87378 0.38693 0.5735 0.0
C2922 C 0.88731 0.37976 0.48692 0.0
C2923 C 0.87893 0.36249 0.47747 0.0
C2924 C 0.88423 0.38311 0.5075 0.0
C2925 C 0.87236 0.36946 0.51893 0.0
C2926 C 0.8646 0.35184 0.50973 0.0
C2927 C 0.86807 0.34826 0.48922 0.0
H2928 H 0.83704 0.38332 0.79879 0.0
H2929 H 0.90188 0.38475 0.78081 0.0
H2930 H 0.8267 0.39116 0.7644 0.0
H2931 H 0.89139 0.39285 0.74637 0.0
H2932 H 0.86077 0.3871 0.68269 0.0
H2933 H 0.87271 0.37827 0.71659 0.0
H2934 H 0.82927 0.42059 0.7421 0.0
H2935 H 0.81718 0.42925 0.70857 0.0
C2936 C 0.84912 0.3853 0.78755 0.0
C2937 C 0.87032 0.38353 0.79268 0.0
C2938 C 0.84317 0.3899 0.76783 0.0
C2939 C 0.85824 0.39279 0.75271 0.0
C2940 C 0.87942 0.39059 0.75767 0.0
C2941 C 0.8854 0.38606 0.77745 0.0
C2942 C 0.85385 0.3946 0.69552 0.0
C2943 C 0.83793 0.40882 0.69283 0.0
C2944 C 0.86074 0.38957 0.71493 0.0
C2945 C 0.85177 0.39858 0.73201 0.0
C2946 C 0.83622 0.4131 0.72927 0.0
C2947 C 0.8294 0.41816 0.70997 0.0
H2948 H 0.87429 0.63872 0.92237 0.0
H2949 H 0.86069 0.57961 0.94604 0.0
H2950 H 0.88032 0.6513 0.95641 0.0
H2951 H 0.86854 0.59144 0.97999 0.0
H2952 H 0.85187 0.62316 0.03801 0.0
H2953 H 0.85241 0.60929 0.00429 0.0
H2954 H 0.89744 0.65489 0.98647 0.0
H2955 H 0.89548 0.66966 0.02017 0.0
C2956 C 0.87342 0.62825 0.93488 0.0
C2957 C 0.86692 0.60827 0.93169 0.0
C2958 C 0.87692 0.63542 0.95448 0.0
C2959 C 0.8745 0.62258 0.97128 0.0
C2960 C 0.86976 0.60209 0.96769 0.0
C2961 C 0.86558 0.59514 0.94818 0.0
C2962 C 0.86197 0.63015 0.0269 0.0
C2963 C 0.87357 0.64753 0.03169 0.0
C2964 C 0.8625 0.62205 0.00748 0.0
C2965 C 0.87511 0.63075 0.99237 0.0
C2966 C 0.88723 0.64788 0.99744 0.0
C2967 C 0.88625 0.65632 0.01681 0.0
H2968 H 0.59063 0.6046 0.28444 0.0
H2969 H 0.64368 0.64524 0.28582 0.0
H2970 H 0.59691 0.59822 0.24859 0.0
H2971 H 0.6495 0.6392 0.24995 0.0
H2972 H 0.64219 0.63416 0.18057 0.0
H2973 H 0.62896 0.64339 0.21414 0.0
H2974 H 0.63083 0.58093 0.23211 0.0
H2975 H 0.64459 0.57187 0.19898 0.0
C2976 C 0.6034 0.61241 0.27706 0.0
C2977 C 0.61672 0.62535 0.28802 0.0
C2978 C 0.60695 0.60876 0.25657 0.0
C2979 C 0.62357 0.61834 0.24657 0.0
C2980 C 0.63642 0.63183 0.25729 0.0
C2981 C 0.63317 0.63515 0.27786 0.0
C2982 C 0.6393 0.62243 0.19161 0.0
C2983 C 0.64432 0.60234 0.18733 0.0
C2984 C 0.63188 0.62769 0.21075 0.0
C2985 C 0.62889 0.61283 0.2256 0.0
C2986 C 0.63284 0.59262 0.22086 0.0
C2987 C 0.64074 0.58746 0.20197 0.0
H2988 H 0.61991 0.32505 0.50845 0.0
H2989 H 0.61683 0.38441 0.535 0.0
H2990 H 0.62128 0.34024 0.47482 0.0
H2991 H 0.61776 0.39947 0.5016 0.0
H2992 H 0.65531 0.41636 0.44458 0.0
H2993 H 0.64569 0.4028 0.47727 0.0
H2994 H 0.60346 0.36057 0.44846 0.0
H2995 H 0.61338 0.37417 0.4154 0.0
C2996 C 0.61914 0.34129 0.50709 0.0
C2997 C 0.61859 0.35353 0.52439 0.0
C2998 C 0.6198 0.35 0.48783 0.0
C2999 C 0.61988 0.3711 0.48553 0.0
C3000 C 0.61813 0.3832 0.50284 0.0
C3001 C 0.61755 0.37454 0.522 0.0
C3002 C 0.64368 0.40444 0.44519 0.0
C3003 C 0.63514 0.39631 0.42741 0.0
C3004 C 0.63807 0.39669 0.46398 0.0
C3005 C 0.62384 0.38053 0.46551 0.0
C3006 C 0.61462 0.3729 0.44776 0.0
C3007 C 0.62013 0.38081 0.42887 0.0
H3008 H 0.73106 0.92031 0.62559 0.0
H3009 H 0.71224 0.85777 0.62235 0.0
H3010 H 0.76744 0.91057 0.62347 0.0
H3011 H 0.74873 0.8478 0.62135 0.0
H3012 H 0.81225 0.83987 0.59091 0.0
H3013 H 0.77614 0.84779 0.59833 0.0
H3014 H 0.79664 0.89582 0.63804 0.0
H3015 H 0.83277 0.88849 0.6297 0.0
C3016 C 0.73475 0.90442 0.62493 0.0
C3017 C 0.71883 0.88981 0.62396 0.0
C3018 C 0.75567 0.89879 0.62382 0.0
C3019 C 0.76116 0.87836 0.62205 0.0
C3020 C 0.74515 0.8637 0.62218 0.0
C3021 C 0.72422 0.86938 0.62293 0.0
C3022 C 0.80904 0.85201 0.60136 0.0
C3023 C 0.82535 0.86367 0.60957 0.0
C3024 C 0.78828 0.8565 0.60576 0.0
C3025 C 0.78333 0.87255 0.61876 0.0
C3026 C 0.79976 0.88366 0.62761 0.0
C3027 C 0.82051 0.87939 0.62293 0.0
H3028 H 0.20488 0.63778 0.36275 0.0
H3029 H 0.22594 0.5798 0.38334 0.0
H3030 H 0.23994 0.65161 0.36719 0.0
H3031 H 0.26038 0.59375 0.38974 0.0
H3032 H 0.32466 0.61977 0.39146 0.0
H3033 H 0.2916 0.60556 0.38034 0.0
H3034 H 0.26207 0.66301 0.39146 0.0
H3035 H 0.29589 0.67746 0.40055 0.0
C3036 C 0.21714 0.62801 0.36814 0.0
C3037 C 0.21286 0.60776 0.37261 0.0
C3038 C 0.23719 0.63597 0.37103 0.0
C3039 C 0.25318 0.62402 0.37925 0.0
C3040 C 0.24883 0.6035 0.38307 0.0
C3041 C 0.22899 0.59542 0.37948 0.0
C3042 C 0.31112 0.62942 0.39089 0.0
C3043 C 0.31287 0.64988 0.39583 0.0
C3044 C 0.29199 0.6212 0.38494 0.0
C3045 C 0.27387 0.63306 0.38472 0.0
C3046 C 0.27562 0.65345 0.39064 0.0
C3047 C 0.29494 0.66176 0.39612 0.0
H3048 H 0.61731 0.06914 0.63182 0.0
H3049 H 0.56925 0.04254 0.66927 0.0
H3050 H 0.62829 0.0354 0.62164 0.0
H3051 H 0.58038 0.00919 0.65933 0.0
H3052 H 0.65439 0.97012 0.62692 0.0
H3053 H 0.64453 0.00449 0.63555 0.0
H3054 H 0.5795 0.98813 0.62915 0.0
H3055 H 0.58921 0.95378 0.6208 0.0
C3056 C 0.60917 0.05618 0.63798 0.0
C3057 C 0.59233 0.05866 0.65133 0.0
C3058 C 0.61551 0.03685 0.63219 0.0
C3059 C 0.60507 0.01962 0.63953 0.0
C3060 C 0.58849 0.02213 0.65309 0.0
C3061 C 0.58222 0.04134 0.65891 0.0
C3062 C 0.63798 0.97384 0.62728 0.0
C3063 C 0.6226 0.95905 0.62333 0.0
C3064 C 0.63235 0.99359 0.63212 0.0
C3065 C 0.61124 0.99901 0.63319 0.0
C3066 C 0.59591 0.98436 0.62879 0.0
C3067 C 0.6015 0.96466 0.62392 0.0
H3068 H 0.17577 0.38076 0.88288 0.0
H3069 H 0.20202 0.32286 0.89662 0.0
H3070 H 0.20966 0.39319 0.87237 0.0
H3071 H 0.23673 0.33574 0.88844 0.0
H3072 H 0.29671 0.35883 0.86284 0.0
H3073 H 0.26122 0.34554 0.86572 0.0
H3074 H 0.24011 0.40481 0.88357 0.0
H3075 H 0.27492 0.41806 0.87867 0.0
C3076 C 0.18893 0.37065 0.88342 0.0
C3077 C 0.18626 0.35062 0.88954 0.0
C3078 C 0.20856 0.37788 0.87788 0.0
C3079 C 0.22628 0.36558 0.87946 0.0
C3080 C 0.22356 0.3456 0.88633 0.0
C3081 C 0.20372 0.33821 0.89128 0.0
C3082 C 0.28424 0.36897 0.86689 0.0
C3083 C 0.28842 0.38944 0.87041 0.0
C3084 C 0.26392 0.36135 0.86884 0.0
C3085 C 0.24753 0.37393 0.87514 0.0
C3086 C 0.25191 0.39456 0.87822 0.0
C3087 C 0.27201 0.40225 0.87554 0.0
H3088 H 0.37292 0.43033 0.64484 0.0
H3089 H 0.43519 0.454 0.63604 0.0
H3090 H 0.35851 0.46321 0.63626 0.0
H3091 H 0.42095 0.48628 0.6263 0.0
H3092 H 0.39249 0.54687 0.64007 0.0
H3093 H 0.40619 0.51321 0.64315 0.0
H3094 H 0.35175 0.48918 0.61253 0.0
H3095 H 0.33749 0.52322 0.6103 0.0
C3096 C 0.38349 0.44242 0.64061 0.0
C3097 C 0.40519 0.43964 0.64137 0.0
C3098 C 0.37525 0.46126 0.63558 0.0
C3099 C 0.38855 0.4776 0.63088 0.0
C3100 C 0.4102 0.47431 0.63043 0.0
C3101 C 0.41841 0.45569 0.63586 0.0
C3102 C 0.38348 0.53447 0.63379 0.0
C3103 C 0.36389 0.53774 0.62494 0.0
C3104 C 0.39144 0.51507 0.63542 0.0
C3105 C 0.3802 0.49833 0.62799 0.0
C3106 C 0.36076 0.50165 0.61865 0.0
C3107 C 0.35265 0.52116 0.61722 0.0
H3108 H 0.77582 0.09265 0.11223 0.0
H3109 H 0.7817 0.15473 0.13144 0.0
H3110 H 0.73857 0.09737 0.10675 0.0
H3111 H 0.74447 0.15923 0.12651 0.0
H3112 H 0.68266 0.16683 0.09368 0.0
H3113 H 0.71959 0.16165 0.09975 0.0
H3114 H 0.70606 0.10265 0.12423 0.0
H3115 H 0.66902 0.10759 0.11765 0.0
C3116 C 0.76918 0.10726 0.11541 0.0
C3117 C 0.78183 0.12333 0.12218 0.0
C3118 C 0.74778 0.10993 0.11239 0.0
C3119 C 0.7385 0.12869 0.11615 0.0
C3120 C 0.75113 0.14467 0.12312 0.0
C3121 C 0.77251 0.14205 0.12604 0.0
C3122 C 0.68749 0.15276 0.10043 0.0
C3123 C 0.6728 0.13762 0.10515 0.0
C3124 C 0.70872 0.14983 0.10401 0.0
C3125 C 0.71583 0.13175 0.11252 0.0
C3126 C 0.70115 0.11665 0.11739 0.0
C3127 C 0.67989 0.11954 0.11373 0.0
H3128 H 0.59343 0.02867 0.89047 0.0
H3129 H 0.64836 0.02997 0.85276 0.0
H3130 H 0.58707 0.99349 0.88084 0.0
H3131 H 0.64148 0.995 0.84272 0.0
H3132 H 0.59048 0.94818 0.81131 0.0
H3133 H 0.60273 0.9812 0.82317 0.0
H3134 H 0.6128 0.95667 0.88257 0.0
H3135 H 0.6012 0.92335 0.87059 0.0
C3136 C 0.60421 0.02142 0.88028 0.0
C3137 C 0.6214 0.03207 0.87238 0.0
C3138 C 0.60061 0.00132 0.87487 0.0
C3139 C 0.61386 0.9917 0.86113 0.0
C3140 C 0.63116 0.00218 0.85342 0.0
C3141 C 0.63507 0.02212 0.8592 0.0
C3142 C 0.59568 0.94976 0.8268 0.0
C3143 C 0.595 0.93325 0.84003 0.0
C3144 C 0.60269 0.96858 0.83353 0.0
C3145 C 0.60863 0.97131 0.85372 0.0
C3146 C 0.60831 0.95479 0.86691 0.0
C3147 C 0.60181 0.9358 0.86004 0.0
H3148 H 0.89789 0.05397 0.31548 0.0
H3149 H 0.89352 0.07521 0.37691 0.0
H3150 H 0.88604 0.02053 0.32619 0.0
H3151 H 0.88216 0.04149 0.38768 0.0
H3152 H 0.89924 0.97109 0.39403 0.0
H3153 H 0.90411 0.00671 0.38578 0.0
H3154 H 0.85244 0.00334 0.34407 0.0
H3155 H 0.84713 0.96777 0.35265 0.0
C3156 C 0.89413 0.05153 0.33122 0.0
C3157 C 0.8966 0.06714 0.34538 0.0
C3158 C 0.88729 0.03245 0.33731 0.0
C3159 C 0.88324 0.02852 0.35773 0.0
C3160 C 0.8852 0.04422 0.37185 0.0
C3161 C 0.89157 0.06347 0.36567 0.0
C3162 C 0.88871 0.97799 0.38332 0.0
C3163 C 0.87282 0.96661 0.37396 0.0
C3164 C 0.89144 0.99839 0.3787 0.0
C3165 C 0.87862 0.00768 0.36433 0.0
C3166 C 0.86249 0.99646 0.35523 0.0
C3167 C 0.85945 0.97616 0.36018 0.0
H3168 H 0.35062 0.27149 0.08288 0.0
H3169 H 0.38958 0.28596 0.13417 0.0
H3170 H 0.34957 0.23628 0.09336 0.0
H3171 H 0.38945 0.25075 0.14413 0.0
H3172 H 0.3786 0.18686 0.16415 0.0
H3173 H 0.37175 0.22225 0.15684 0.0
H3174 H 0.37245 0.20904 0.09297 0.0
H3175 H 0.37832 0.17387 0.10024 0.0
C3176 C 0.35889 0.26715 0.09644 0.0
C3177 C 0.3703 0.28145 0.1076 0.0
C3178 C 0.35843 0.24693 0.1024 0.0
C3179 C 0.36967 0.2405 0.11948 0.0
C3180 C 0.38039 0.25506 0.13106 0.0
C3181 C 0.38059 0.2753 0.12526 0.0
C3182 C 0.37705 0.19151 0.14856 0.0
C3183 C 0.37912 0.17748 0.13281 0.0
C3184 C 0.37322 0.21184 0.14435 0.0
C3185 C 0.3716 0.21863 0.12428 0.0
C3186 C 0.37318 0.20444 0.10861 0.0
C3187 C 0.37675 0.18417 0.11282 0.0
H3188 H 0.55183 0.65177 0.92566 0.0
H3189 H 0.57729 0.64122 0.86648 0.0
H3190 H 0.51688 0.64316 0.91313 0.0
H3191 H 0.54237 0.6328 0.8538 0.0
H3192 H 0.47373 0.65171 0.83753 0.0
H3193 H 0.50981 0.65448 0.84933 0.0
H3194 H 0.49572 0.61363 0.89822 0.0
H3195 H 0.45956 0.61071 0.88609 0.0
C3196 C 0.5499 0.64726 0.91006 0.0
C3197 C 0.56715 0.64661 0.89711 0.0
C3198 C 0.53001 0.64226 0.90291 0.0
C3199 C 0.52696 0.63717 0.88254 0.0
C3200 C 0.54429 0.63656 0.86959 0.0
C3201 C 0.56423 0.64124 0.87683 0.0
C3202 C 0.47855 0.64295 0.85048 0.0
C3203 C 0.46424 0.63044 0.86052 0.0
C3204 C 0.49912 0.64457 0.85727 0.0
C3205 C 0.50558 0.63409 0.87456 0.0
C3206 C 0.49113 0.6218 0.88481 0.0
C3207 C 0.47055 0.62009 0.87789 0.0
H3208 H 0.14373 0.73096 0.57832 0.0
H3209 H 0.10689 0.71699 0.63103 0.0
H3210 H 0.14512 0.76629 0.58846 0.0
H3211 H 0.1073 0.7523 0.64065 0.0
H3212 H 0.11901 0.81612 0.6601 0.0
H3213 H 0.12554 0.7807 0.65265 0.0
H3214 H 0.12255 0.79368 0.58881 0.0
H3215 H 0.11705 0.82889 0.59621 0.0
C3216 C 0.13597 0.73545 0.59209 0.0
C3217 C 0.12509 0.72125 0.6038 0.0
C3218 C 0.13663 0.75572 0.59787 0.0
C3219 C 0.12612 0.7623 0.61529 0.0
C3220 C 0.11584 0.74787 0.62731 0.0
C3221 C 0.11546 0.72758 0.6217 0.0
C3222 C 0.12 0.8114 0.64449 0.0
C3223 C 0.11741 0.82537 0.62879 0.0
C3224 C 0.12363 0.79106 0.6402 0.0
C3225 C 0.12449 0.78419 0.6201 0.0
C3226 C 0.12241 0.79833 0.60446 0.0
C3227 C 0.11907 0.81862 0.60874 0.0
H3228 H 0.03654 0.39159 0.38312 0.0
H3229 H 0.01876 0.34994 0.33608 0.0
H3230 H 0.00194 0.38749 0.39864 0.0
H3231 H 0.98418 0.34617 0.35115 0.0
H3232 H 0.94935 0.34791 0.43071 0.0
H3233 H 0.98296 0.357 0.41532 0.0
H3234 H 0.95184 0.36753 0.35852 0.0
H3235 H 0.91839 0.35858 0.37397 0.0
C3236 C 0.02507 0.38184 0.37598 0.0
C3237 C 0.02989 0.37163 0.35806 0.0
C3238 C 0.00539 0.37945 0.38483 0.0
C3239 C 0.99036 0.36668 0.37596 0.0
C3240 C 0.99532 0.35641 0.35809 0.0
C3241 C 0.01502 0.35864 0.3494 0.0
C3242 C 0.94979 0.35246 0.41503 0.0
C3243 C 0.93139 0.35306 0.4036 0.0
C3244 C 0.9689 0.35776 0.40627 0.0
C3245 C 0.96993 0.36308 0.38577 0.0
C3246 C 0.95147 0.36354 0.37435 0.0
C3247 C 0.93237 0.35855 0.38319 0.0
H3248 H 0.39425 0.8274 0.38963 0.0
H3249 H 0.39139 0.81346 0.32623 0.0
H3250 H 0.38653 0.79222 0.39778 0.0
H3251 H 0.38229 0.77862 0.334 0.0
H3252 H 0.38904 0.71379 0.35251 0.0
H3253 H 0.39605 0.74901 0.34522 0.0
H3254 H 0.36216 0.76618 0.39886 0.0
H3255 H 0.35643 0.73063 0.40677 0.0
C3256 C 0.39143 0.8168 0.37747 0.0
C3257 C 0.3928 0.82307 0.35734 0.0
C3258 C 0.38696 0.79663 0.38207 0.0
C3259 C 0.38372 0.78236 0.36658 0.0
C3260 C 0.38508 0.78891 0.34641 0.0
C3261 C 0.39002 0.80893 0.34187 0.0
C3262 C 0.38309 0.72511 0.36274 0.0
C3263 C 0.37222 0.71946 0.38022 0.0
C3264 C 0.38695 0.7454 0.35848 0.0
C3265 C 0.37957 0.76067 0.37133 0.0
C3266 C 0.36845 0.75495 0.38876 0.0
C3267 C 0.36503 0.73456 0.39327 0.0
H3268 H 0.02734 0.65056 0.1607 0.0
H3269 H 0.02726 0.61092 0.10918 0.0
H3270 H 0.99361 0.66359 0.1508 0.0
H3271 H 0.99242 0.62283 0.09978 0.0
H3272 H 0.934 0.65717 0.08148 0.0
H3273 H 0.9705 0.64874 0.08776 0.0
H3274 H 0.95957 0.6533 0.15194 0.0
H3275 H 0.92385 0.66201 0.14576 0.0
C3276 C 0.01983 0.64447 0.14733 0.0
C3277 C 0.0294 0.62934 0.136 0.0
C3278 C 0.00044 0.65184 0.14167 0.0
C3279 C 0.98992 0.64396 0.12473 0.0
C3280 C 4e-05 0.62936 0.11285 0.0
C3281 C 0.01983 0.62235 0.11829 0.0
C3282 C 0.93953 0.65653 0.09691 0.0
C3283 C 0.92593 0.66024 0.1131 0.0
C3284 C 0.96041 0.65151 0.10052 0.0
C3285 C 0.96808 0.65015 0.12039 0.0
C3286 C 0.95447 0.65431 0.13643 0.0
C3287 C 0.93378 0.65927 0.13286 0.0
H3288 H 0.10671 0.28834 0.84923 0.0
H3289 H 0.14008 0.27277 0.90353 0.0
H3290 H 0.09934 0.253 0.84289 0.0
H3291 H 0.13396 0.23701 0.89657 0.0
H3292 H 0.10147 0.17554 0.88811 0.0
H3293 H 0.10938 0.21082 0.8959 0.0
H3294 H 0.11386 0.22351 0.83199 0.0
H3295 H 0.1046 0.18863 0.82456 0.0
C3296 C 0.11269 0.27725 0.8597 0.0
C3297 C 0.12397 0.28327 0.87685 0.0
C3298 C 0.10865 0.25691 0.85598 0.0
C3299 C 0.11626 0.24195 0.86905 0.0
C3300 C 0.12757 0.24803 0.88629 0.0
C3301 C 0.13118 0.26851 0.89026 0.0
C3302 C 0.10441 0.18597 0.87585 0.0
C3303 C 0.10303 0.17946 0.85578 0.0
C3304 C 0.10897 0.20617 0.88025 0.0
C3305 C 0.11224 0.22021 0.8646 0.0
C3306 C 0.11099 0.21339 0.84449 0.0
C3307 C 0.10597 0.19336 0.84016 0.0
H3308 H 0.55793 0.31191 0.61866 0.0
H3309 H 0.5631 0.36694 0.58453 0.0
H3310 H 0.52106 0.31845 0.62469 0.0
H3311 H 0.52664 0.37451 0.59172 0.0
H3312 H 0.45723 0.38021 0.60095 0.0
H3313 H 0.49068 0.36808 0.58798 0.0
H3314 H 0.50274 0.33965 0.64554 0.0
H3315 H 0.46913 0.3508 0.65769 0.0
C3316 C 0.55097 0.3253 0.61227 0.0
C3317 C 0.56305 0.33887 0.60105 0.0
C3318 C 0.52996 0.32923 0.6159 0.0
C3319 C 0.52085 0.3472 0.60897 0.0
C3320 C 0.53293 0.36038 0.59704 0.0
C3321 C 0.55382 0.35614 0.59296 0.0
C3322 C 0.46714 0.37126 0.61063 0.0
C3323 C 0.46122 0.36709 0.63052 0.0
C3324 C 0.48629 0.36438 0.6033 0.0
C3325 C 0.4996 0.353 0.61574 0.0
C3326 C 0.49293 0.34809 0.63534 0.0
C3327 C 0.47384 0.35484 0.64252 0.0
H3328 H 0.06606 0.37316 0.25466 0.0
H3329 H 0.12761 0.37015 0.28116 0.0
H3330 H 0.08109 0.3727 0.22132 0.0
H3331 H 0.1429 0.36944 0.24715 0.0
H3332 H 0.1558 0.40099 0.18323 0.0
H3333 H 0.14642 0.39375 0.21827 0.0
H3334 H 0.09936 0.3515 0.19769 0.0
H3335 H 0.10825 0.35911 0.16288 0.0
C3336 C 0.08287 0.37214 0.25338 0.0
C3337 C 0.09564 0.37181 0.27063 0.0
C3338 C 0.0915 0.37168 0.23416 0.0
C3339 C 0.11321 0.37092 0.23152 0.0
C3340 C 0.12611 0.37009 0.24872 0.0
C3341 C 0.11737 0.37036 0.26815 0.0
C3342 C 0.14373 0.38987 0.18623 0.0
C3343 C 0.13246 0.38095 0.17028 0.0
C3344 C 0.13843 0.38565 0.20631 0.0
C3345 C 0.12188 0.37232 0.21076 0.0
C3346 C 0.11185 0.3622 0.19477 0.0
C3347 C 0.11697 0.36655 0.1748 0.0
H3348 H 0.35793 0.43196 0.94305 0.0
H3349 H 0.36237 0.36997 0.9244 0.0
H3350 H 0.36483 0.42227 0.97784 0.0
H3351 H 0.36766 0.35973 0.95933 0.0
H3352 H 0.39272 0.3479 0.02214 0.0
H3353 H 0.38904 0.35807 0.98697 0.0
H3354 H 0.35049 0.40797 0.00569 0.0
H3355 H 0.35576 0.39859 0.04074 0.0
C3356 C 0.36041 0.41622 0.94653 0.0
C3357 C 0.36031 0.40177 0.93114 0.0
C3358 C 0.36407 0.41054 0.96651 0.0
C3359 C 0.36672 0.3901 0.97168 0.0
C3360 C 0.3662 0.37563 0.9561 0.0
C3361 C 0.3631 0.38144 0.93604 0.0
C3362 C 0.38346 0.36102 0.0186 0.0
C3363 C 0.37451 0.37247 0.03408 0.0
C3364 C 0.38122 0.36684 0.99842 0.0
C3365 C 0.36946 0.38394 0.99323 0.0
C3366 C 0.36016 0.39507 0.00889 0.0
C3367 C 0.36294 0.38958 0.02905 0.0
H3368 H 0.38309 0.61148 0.67342 0.0
H3369 H 0.31951 0.61041 0.69436 0.0
H3370 H 0.39518 0.6202 0.70708 0.0
H3371 H 0.33127 0.62037 0.72813 0.0
H3372 H 0.36416 0.61196 0.79013 0.0
H3373 H 0.34821 0.60845 0.75683 0.0
H3374 H 0.39782 0.64499 0.73135 0.0
H3375 H 0.41429 0.64712 0.76442 0.0
C3376 C 0.37169 0.61363 0.68527 0.0
C3377 C 0.35039 0.61089 0.68134 0.0
C3378 C 0.37854 0.61876 0.70457 0.0
C3379 C 0.36421 0.62138 0.72044 0.0
C3380 C 0.34281 0.6184 0.71641 0.0
C3381 C 0.33601 0.61285 0.69709 0.0
C3382 C 0.37129 0.61957 0.77741 0.0
C3383 C 0.39043 0.6297 0.77968 0.0
C3384 C 0.36218 0.61761 0.75829 0.0
C3385 C 0.37191 0.62608 0.74118 0.0
C3386 C 0.3902 0.63767 0.74397 0.0
C3387 C 0.39954 0.63915 0.76294 0.0
H3388 H 0.10553 0.65255 0.52075 0.0
H3389 H 0.13976 0.60073 0.54124 0.0
H3390 H 0.11012 0.64181 0.48588 0.0
H3391 H 0.14572 0.59064 0.50651 0.0
H3392 H 0.13934 0.56673 0.44337 0.0
H3393 H 0.13149 0.57678 0.47792 0.0
H3394 H 0.13361 0.63942 0.45972 0.0
H3395 H 0.13999 0.62898 0.42503 0.0
C3396 C 0.1143 0.639 0.51773 0.0
C3397 C 0.1223 0.62747 0.53366 0.0
C3398 C 0.11706 0.63286 0.49772 0.0
C3399 C 0.12835 0.6153 0.49317 0.0
C3400 C 0.13651 0.60395 0.50926 0.0
C3401 C 0.13328 0.60982 0.52924 0.0
C3402 C 0.13777 0.5826 0.44687 0.0
C3403 C 0.13956 0.59708 0.43163 0.0
C3404 C 0.13355 0.58844 0.46669 0.0
C3405 C 0.1319 0.60899 0.47183 0.0
C3406 C 0.13422 0.62346 0.45643 0.0
C3407 C 0.13795 0.61754 0.43654 0.0
H3408 H 0.06445 0.59509 0.23514 0.0
H3409 H 0.12171 0.62271 0.21391 0.0
H3410 H 0.07779 0.59541 0.26923 0.0
H3411 H 0.13513 0.62302 0.24867 0.0
H3412 H 0.15471 0.59391 0.31254 0.0
H3413 H 0.14523 0.59769 0.27693 0.0
H3414 H 0.08587 0.62238 0.29444 0.0
H3415 H 0.09509 0.61858 0.32976 0.0
C3416 C 0.07995 0.60122 0.23766 0.0
C3417 C 0.09195 0.60895 0.22164 0.0
C3418 C 0.08753 0.60152 0.25734 0.0
C3419 C 0.10737 0.6095 0.26168 0.0
C3420 C 0.11974 0.61681 0.24573 0.0
C3421 C 0.11203 0.61667 0.22587 0.0
C3422 C 0.13977 0.60045 0.30879 0.0
C3423 C 0.12551 0.60558 0.32406 0.0
C3424 C 0.1344 0.60266 0.28839 0.0
C3425 C 0.11468 0.61 0.28294 0.0
C3426 C 0.10102 0.61629 0.2982 0.0
C3427 C 0.10635 0.61412 0.31847 0.0
H3428 H 0.1437 0.36398 0.06975 0.0
H3429 H 0.14025 0.42629 0.05199 0.0
H3430 H 0.13623 0.35349 0.03523 0.0
H3431 H 0.13179 0.41603 0.01744 0.0
H3432 H 0.14486 0.38984 0.95449 0.0
H3433 H 0.14772 0.40196 0.98897 0.0
H3434 H 0.111 0.35102 0.00948 0.0
H3435 H 0.10901 0.33843 0.97494 0.0
C3436 C 0.14084 0.3754 0.05843 0.0
C3437 C 0.14196 0.39588 0.06347 0.0
C3438 C 0.13648 0.36944 0.03865 0.0
C3439 C 0.1332 0.38388 0.02345 0.0
C3440 C 0.13442 0.40446 0.02864 0.0
C3441 C 0.13909 0.41039 0.04841 0.0
C3442 C 0.13719 0.38135 0.96632 0.0
C3443 C 0.12687 0.36309 0.96201 0.0
C3444 C 0.13872 0.38837 0.98615 0.0
C3445 C 0.12974 0.37742 0.00215 0.0
C3446 C 0.11852 0.35963 0.99764 0.0
C3447 C 0.11723 0.35247 0.97782 0.0
H3448 H 0.41029 0.3926 0.82808 0.0
H3449 H 0.34563 0.40257 0.81256 0.0
H3450 H 0.41883 0.38969 0.79251 0.0
H3451 H 0.35437 0.39989 0.77682 0.0
H3452 H 0.43169 0.41196 0.7293 0.0
H3453 H 0.42091 0.4131 0.76429 0.0
H3454 H 0.36677 0.37655 0.7501 0.0
H3455 H 0.37743 0.37556 0.71468 0.0
C3456 C 0.39785 0.39412 0.81712 0.0
C3457 C 0.37729 0.39803 0.82328 0.0
C3458 C 0.40279 0.39255 0.79668 0.0
C3459 C 0.38733 0.39484 0.7818 0.0
C3460 C 0.36662 0.39799 0.7879 0.0
C3461 C 0.36165 0.39959 0.80842 0.0
C3462 C 0.41741 0.4042 0.73349 0.0
C3463 C 0.4055 0.39358 0.71906 0.0
C3464 C 0.41131 0.40474 0.75366 0.0
C3465 C 0.39313 0.39469 0.76006 0.0
C3466 C 0.38085 0.38449 0.74563 0.0
C3467 C 0.38699 0.3839 0.72534 0.0
H3468 H 0.37456 0.67639 0.48227 0.0
H3469 H 0.37011 0.61416 0.46362 0.0
H3470 H 0.37254 0.6662 0.51729 0.0
H3471 H 0.36919 0.60369 0.49891 0.0
H3472 H 0.34046 0.59537 0.56227 0.0
H3473 H 0.34696 0.60301 0.52686 0.0
H3474 H 0.38872 0.65143 0.54463 0.0
H3475 H 0.38119 0.64448 0.57986 0.0
C3476 C 0.37361 0.66045 0.48569 0.0
C3477 C 0.37242 0.64609 0.47016 0.0
C3478 C 0.37259 0.65454 0.50587 0.0
C3479 C 0.3707 0.63405 0.51113 0.0
C3480 C 0.37025 0.61962 0.49553 0.0
C3481 C 0.37096 0.62559 0.47527 0.0
C3482 C 0.35117 0.60751 0.55855 0.0
C3483 C 0.36011 0.61947 0.57383 0.0
C3484 C 0.35502 0.61186 0.53822 0.0
C3485 C 0.3682 0.62805 0.53272 0.0
C3486 C 0.378 0.63925 0.54815 0.0
C3487 C 0.37382 0.63517 0.56842 0.0
H3488 H 0.18161 0.1254 0.4359 0.0
H3489 H 0.17878 0.15782 0.37971 0.0
H3490 H 0.21873 0.11949 0.43083 0.0
H3491 H 0.21558 0.15072 0.3736 0.0
H3492 H 0.28576 0.1454 0.37253 0.0
H3493 H 0.2506 0.15631 0.38158 0.0
H3494 H 0.24018 0.09945 0.41207 0.0
H3495 H 0.27556 0.08948 0.40409 0.0
C3496 C 0.1891 0.13129 0.42248 0.0
C3497 C 0.17762 0.14215 0.40825 0.0
C3498 C 0.21029 0.12773 0.41939 0.0
C3499 C 0.22027 0.13441 0.40166 0.0
C3500 C 0.20865 0.14564 0.3876 0.0
C3501 C 0.18756 0.14965 0.39099 0.0
C3502 C 0.27582 0.1354 0.38122 0.0
C3503 C 0.28285 0.11628 0.38689 0.0
C3504 C 0.25566 0.14153 0.38632 0.0
C3505 C 0.24228 0.1287 0.39736 0.0
C3506 C 0.24992 0.10992 0.40377 0.0
C3507 C 0.27007 0.10396 0.39884 0.0
H3508 H 0.76741 0.40967 0.60658 0.0
H3509 H 0.77633 0.3636 0.6515 0.0
H3510 H 0.73196 0.39735 0.60046 0.0
H3511 H 0.74075 0.35089 0.64517 0.0
H3512 H 0.66347 0.3797 0.60605 0.0
H3513 H 0.69679 0.39339 0.61838 0.0
H3514 H 0.72408 0.33428 0.6138 0.0
H3515 H 0.69077 0.32072 0.6014 0.0
C3516 C 0.76151 0.39719 0.61548 0.0
C3517 C 0.77415 0.38798 0.63 0.0
C3518 C 0.7413 0.39011 0.61195 0.0
C3519 C 0.73358 0.37332 0.62251 0.0
C3520 C 0.74635 0.36392 0.63691 0.0
C3521 C 0.76658 0.37115 0.64055 0.0
C3522 C 0.67653 0.36964 0.60812 0.0
C3523 C 0.6746 0.34913 0.60337 0.0
C3524 C 0.69555 0.37745 0.61503 0.0
C3525 C 0.7129 0.36482 0.61722 0.0
C3526 C 0.71084 0.34424 0.61261 0.0
C3527 C 0.69191 0.33652 0.60542 0.0
H3528 H 0.35867 0.92802 0.38593 0.0
H3529 H 0.40519 0.94123 0.34065 0.0
H3530 H 0.35099 0.96406 0.3887 0.0
H3531 H 0.39693 0.97715 0.34303 0.0
H3532 H 0.34239 0.0282 0.33556 0.0
H3533 H 0.35644 0.99399 0.33503 0.0
H3534 H 0.37537 1.00029 0.39718 0.0
H3535 H 0.36196 0.0349 0.39757 0.0
C3536 C 0.36739 0.93862 0.37673 0.0
C3537 C 0.38254 0.9318 0.36308 0.0
C3538 C 0.36304 0.9592 0.37839 0.0
C3539 C 0.37341 0.97326 0.36608 0.0
C3540 C 0.38881 0.96655 0.35271 0.0
C3541 C 0.39355 0.94603 0.35141 0.0
C3542 C 0.34989 0.02241 0.349 0.0
C3543 C 0.35117 0.03421 0.36658 0.0
C3544 C 0.35794 0.0029 0.34867 0.0
C3545 C 0.36693 0.99461 0.36607 0.0
C3546 C 0.36852 0.00644 0.38359 0.0
C3547 C 0.36097 0.02621 0.38376 0.0
H3548 H 0.79858 0.68678 0.1003 0.0
H3549 H 0.82395 0.62813 0.11281 0.0
H3550 H 0.76373 0.67455 0.10977 0.0
H3551 H 0.78931 0.6158 0.12199 0.0
H3552 H 0.72181 0.59626 0.10715 0.0
H3553 H 0.75704 0.60945 0.10217 0.0
H3554 H 0.74233 0.66119 0.13895 0.0
H3555 H 0.70682 0.64774 0.14391 0.0
C3556 C 0.79666 0.67137 0.10541 0.0
C3557 C 0.81384 0.65846 0.10631 0.0
C3558 C 0.77683 0.66441 0.11092 0.0
C3559 C 0.77382 0.64425 0.11679 0.0
C3560 C 0.79114 0.63142 0.11771 0.0
C3561 C 0.81097 0.63847 0.11255 0.0
C3562 C 0.72627 0.61027 0.11446 0.0
C3563 C 0.71202 0.62067 0.12652 0.0
C3564 C 0.74639 0.61784 0.1116 0.0
C3565 C 0.75253 0.6362 0.12043 0.0
C3566 C 0.73801 0.64696 0.13203 0.0
C3567 C 0.71781 0.6393 0.13493 0.0
H3568 H 0.58812 0.56471 0.36769 0.0
H3569 H 0.65203 0.57863 0.35197 0.0
H3570 H 0.59762 0.52948 0.3732 0.0
H3571 H 0.66125 0.54372 0.35658 0.0
H3572 H 0.67948 0.48568 0.38207 0.0
H3573 H 0.66673 0.51987 0.38165 0.0
H3574 H 0.60803 0.49872 0.35689 0.0
H3575 H 0.6207 0.46393 0.35852 0.0
C3576 C 0.60416 0.56028 0.36537 0.0
C3577 C 0.61934 0.57459 0.35958 0.0
C3578 C 0.60958 0.54004 0.36842 0.0
C3579 C 0.63028 0.53368 0.36559 0.0
C3580 C 0.64529 0.54804 0.35952 0.0
C3581 C 0.63995 0.56816 0.35673 0.0
C3582 C 0.66374 0.48823 0.37684 0.0
C3583 C 0.65116 0.47214 0.37017 0.0
C3584 C 0.65645 0.50793 0.37639 0.0
C3585 C 0.63653 0.51225 0.36869 0.0
C3586 C 0.62346 0.49601 0.36294 0.0
C3587 C 0.63068 0.47608 0.36383 0.0
H3588 H 0.21461 0.86275 0.8584 0.0
H3589 H 0.22149 0.91076 0.90188 0.0
H3590 H 0.25054 0.85186 0.86562 0.0
H3591 H 0.257 0.89956 0.9095 0.0
H3592 H 0.30865 0.85158 0.93037 0.0
H3593 H 0.27177 0.85794 0.92236 0.0
H3594 H 0.28946 0.87899 0.86328 0.0
H3595 H 0.32624 0.8737 0.87156 0.0
C3596 C 0.22385 0.8709 0.86947 0.0
C3597 C 0.21571 0.88789 0.87919 0.0
C3598 C 0.24422 0.86466 0.87363 0.0
C3599 C 0.25629 0.87488 0.88815 0.0
C3600 C 0.24786 0.89144 0.89833 0.0
C3601 C 0.22773 0.89793 0.89384 0.0
C3602 C 0.30455 0.85734 0.91561 0.0
C3603 C 0.32016 0.86226 0.90159 0.0
C3604 C 0.28358 0.86098 0.91107 0.0
C3605 C 0.27798 0.86896 0.89224 0.0
C3606 C 0.29349 0.87288 0.87788 0.0
C3607 C 0.31446 0.86987 0.88263 0.0
H3608 H 0.37153 0.96441 0.12025 0.0
H3609 H 0.32215 0.98469 0.15955 0.0
H3610 H 0.38711 0.99832 0.1212 0.0
H3611 H 0.3378 0.01784 0.16083 0.0
H3612 H 0.35624 0.08007 0.14477 0.0
H3613 H 0.3425 0.04625 0.13908 0.0
H3614 H 0.40466 0.02214 0.14505 0.0
H3615 H 0.41848 0.05647 0.14989 0.0
C3616 C 0.36406 0.976 0.12912 0.0
C3617 C 0.34549 0.97183 0.13968 0.0
C3618 C 0.373 0.99536 0.12971 0.0
C3619 C 0.36353 0.01081 0.14089 0.0
C3620 C 0.34521 0.00646 0.15165 0.0
C3621 C 0.33629 0.98732 0.15099 0.0
C3622 C 0.367 0.06757 0.14431 0.0
C3623 C 0.38842 0.07078 0.14708 0.0
C3624 C 0.35914 0.04818 0.14135 0.0
C3625 C 0.37249 0.03148 0.14172 0.0
C3626 C 0.39403 0.03472 0.14441 0.0
C3627 C 0.40192 0.05426 0.1473 0.0
H3628 H 0.13975 0.92377 0.6415 0.0
H3629 H 0.07668 0.94544 0.6457 0.0
H3630 H 0.15241 0.95802 0.636 0.0
H3631 H 0.08941 0.98018 0.64086 0.0
H3632 H 0.12324 0.03871 0.61606 0.0
H3633 H 0.10789 0.00457 0.61645 0.0
H3634 H 0.15443 0.98617 0.6597 0.0
H3635 H 0.16971 0.01944 0.65921 0.0
C3636 C 0.12858 0.93592 0.64084 0.0
C3637 C 0.10726 0.93207 0.64339 0.0
C3638 C 0.1358 0.95553 0.63792 0.0
C3639 C 0.12188 0.97178 0.63808 0.0
C3640 C 0.10043 0.96791 0.64041 0.0
C3641 C 0.09318 0.94815 0.6433 0.0
C3642 C 0.13009 0.02732 0.62565 0.0
C3643 C 0.14786 0.03178 0.63738 0.0
C3644 C 0.12131 0.00785 0.62589 0.0
C3645 C 0.13023 0.99266 0.63784 0.0
C3646 C 0.14756 0.99738 0.64992 0.0
C3647 C 0.15626 0.01659 0.64967 0.0
loop_
_geom_bond_atom_site_label_1
_geom_bond_atom_site_label_2
_geom_bond_distance
_geom_bond_site_symmetry_2
_ccdc_geom_bond_type
Mn0 O5 2.095 . S
Mn0 O15 2.162 . S
Mn0 O16 2.297 . S
Mn0 O24 2.385 . S
Mn0 O25 2.209 . S
Mn0 O26 2.094 . S
Mn1 O6 2.121 . S
Mn1 N8 2.257 . S
Mn1 N17 2.282 . S
Mn1 O25 2.215 . S
Mn1 O27 2.117 . S
C2 O24 1.234 . S
C2 O25 1.283 . S
C3 O15 1.281 . S
C3 O16 1.236 . S
C4 O26 1.240 . S
C4 O27 1.264 . S
O5 Mn0 2.095 . S
O5 C14 1.250 . S
O6 Mn1 2.121 . S
O6 C14 1.258 . S
C7 N8 1.326 . S
C7 C11 1.460 . S
C7 H13 0.929 . S
N8 Mn1 2.257 . S
N8 C7 1.326 . S
N8 C12 1.362 . S
C9 C10 1.258 . S
C9 C12 1.431 . S
C9 C29 1.449 . S
C10 C9 1.258 . S
C10 C11 1.477 . S
C10 H30 0.931 . S
C11 C7 1.460 . S
C11 C10 1.477 . S
C11 H31 0.930 . S
C12 N8 1.362 . S
C12 C9 1.431 . S
C12 C22 1.476 . S
H13 C7 0.929 . S
C14 O5 1.250 . S
C14 O6 1.258 . S
O15 Mn0 2.162 . S
O15 C3 1.281 . S
O16 Mn0 2.297 . S
O16 C3 1.236 . S
N17 Mn1 2.282 . S
N17 C18 1.328 . S
N17 C22 1.318 . S
C18 N17 1.328 . S
C18 C19 1.457 . S
C18 H23 0.929 . S
C19 C18 1.457 . S
C19 C20 1.291 . S
C19 H32 0.931 . S
C20 C19 1.291 . S
C20 C21 1.373 . S
C20 H33 0.929 . S
C21 C20 1.373 . S
C21 C22 1.396 . S
C21 C28 1.403 . S
C22 C12 1.476 . S
C22 N17 1.318 . S
C22 C21 1.396 . S
H23 C18 0.929 . S
O24 Mn0 2.385 . S
O24 C2 1.234 . S
O25 Mn0 2.209 . S
O25 Mn1 2.215 . S
O25 C2 1.283 . S
O26 Mn0 2.094 . S
O26 C4 1.240 . S
O27 Mn1 2.117 . S
O27 C4 1.264 . S
C28 C21 1.403 . S
C28 C29 1.399 . S
C28 H34 0.929 . S
C29 C9 1.449 . S
C29 C28 1.399 . S
C29 H35 0.930 . S
H30 C10 0.931 . S
H31 C11 0.930 . S
H32 C19 0.931 . S
H33 C20 0.929 . S
H34 C28 0.929 . S
H35 C29 0.930 . S
Mn36 O41 2.095 . S
Mn36 O51 2.162 . S
Mn36 O52 2.297 . S
Mn36 O60 2.385 . S
Mn36 O61 2.209 . S
Mn36 O62 2.094 . S
Mn37 O42 2.121 . S
Mn37 N44 2.257 . S
Mn37 N53 2.282 . S
Mn37 O61 2.215 . S
Mn37 O63 2.117 . S
C38 O60 1.234 . S
C38 O61 1.283 . S
C39 O51 1.281 . S
C39 O52 1.236 . S
C40 O62 1.240 . S
C40 O63 1.264 . S
O41 Mn36 2.095 . S
O41 C50 1.250 . S
O42 Mn37 2.121 . S
O42 C50 1.258 . S
C43 N44 1.326 . S
C43 C47 1.460 . S
C43 H49 0.929 . S
N44 Mn37 2.257 . S
N44 C43 1.326 . S
N44 C48 1.362 . S
C45 C46 1.258 . S
C45 C48 1.431 . S
C45 C65 1.449 . S
C46 C45 1.258 . S
C46 C47 1.477 . S
C46 H66 0.931 . S
C47 C43 1.460 . S
C47 C46 1.477 . S
C47 H67 0.930 . S
C48 N44 1.362 . S
C48 C45 1.431 . S
C48 C58 1.476 . S
H49 C43 0.929 . S
C50 O41 1.250 . S
C50 O42 1.258 . S
O51 Mn36 2.162 . S
O51 C39 1.281 . S
O52 Mn36 2.297 . S
O52 C39 1.236 . S
N53 Mn37 2.282 . S
N53 C54 1.328 . S
N53 C58 1.318 . S
C54 N53 1.328 . S
C54 C55 1.457 . S
C54 H59 0.929 . S
C55 C54 1.457 . S
C55 C56 1.291 . S
C55 H68 0.931 . S
C56 C55 1.291 . S
C56 C57 1.373 . S
C56 H69 0.929 . S
C57 C56 1.373 . S
C57 C58 1.396 . S
C57 C64 1.403 . S
C58 C48 1.476 . S
C58 N53 1.318 . S
C58 C57 1.396 . S
H59 C54 0.929 . S
O60 Mn36 2.385 . S
O60 C38 1.234 . S
O61 Mn36 2.209 . S
O61 Mn37 2.215 . S
O61 C38 1.283 . S
O62 Mn36 2.094 . S
O62 C40 1.240 . S
O63 Mn37 2.117 . S
O63 C40 1.264 . S
C64 C57 1.403 . S
C64 C65 1.399 . S
C64 H70 0.929 . S
C65 C45 1.449 . S
C65 C64 1.399 . S
C65 H71 0.930 . S
H66 C46 0.931 . S
H67 C47 0.930 . S
H68 C55 0.931 . S
H69 C56 0.929 . S
H70 C64 0.929 . S
H71 C65 0.930 . S
Mn72 O77 2.095 . S
Mn72 O87 2.162 . S
Mn72 O88 2.297 . S
Mn72 O96 2.385 . S
Mn72 O97 2.209 . S
Mn72 O98 2.094 . S
Mn73 O78 2.121 . S
Mn73 N80 2.257 . S
Mn73 N89 2.282 . S
Mn73 O97 2.215 . S
Mn73 O99 2.117 . S
C74 O96 1.234 . S
C74 O97 1.283 . S
C75 O87 1.281 . S
C75 O88 1.236 . S
C76 O98 1.240 . S
C76 O99 1.264 . S
O77 Mn72 2.095 . S
O77 C86 1.250 . S
O78 Mn73 2.121 . S
O78 C86 1.258 . S
C79 N80 1.326 . S
C79 C83 1.460 . S
C79 H85 0.929 . S
N80 Mn73 2.257 . S
N80 C79 1.326 . S
N80 C84 1.362 . S
C81 C82 1.258 . S
C81 C84 1.431 . S
C81 C101 1.449 . S
C82 C81 1.258 . S
C82 C83 1.477 . S
C82 H102 0.931 . S
C83 C79 1.460 . S
C83 C82 1.477 . S
C83 H103 0.930 . S
C84 N80 1.362 . S
C84 C81 1.431 . S
C84 C94 1.476 . S
H85 C79 0.929 . S
C86 O77 1.250 . S
C86 O78 1.258 . S
O87 Mn72 2.162 . S
O87 C75 1.281 . S
O88 Mn72 2.297 . S
O88 C75 1.236 . S
N89 Mn73 2.282 . S
N89 C90 1.328 . S
N89 C94 1.318 . S
C90 N89 1.328 . S
C90 C91 1.457 . S
C90 H95 0.929 . S
C91 C90 1.457 . S
C91 C92 1.291 . S
C91 H104 0.931 . S
C92 C91 1.291 . S
C92 C93 1.373 . S
C92 H105 0.929 . S
C93 C92 1.373 . S
C93 C94 1.396 . S
C93 C100 1.403 . S
C94 C84 1.476 . S
C94 N89 1.318 . S
C94 C93 1.396 . S
H95 C90 0.929 . S
O96 Mn72 2.385 . S
O96 C74 1.234 . S
O97 Mn72 2.209 . S
O97 Mn73 2.215 . S
O97 C74 1.283 . S
O98 Mn72 2.094 . S
O98 C76 1.240 . S
O99 Mn73 2.117 . S
O99 C76 1.264 . S
C100 C93 1.403 . S
C100 C101 1.399 . S
C100 H106 0.929 . S
C101 C81 1.449 . S
C101 C100 1.399 . S
C101 H107 0.930 . S
H102 C82 0.931 . S
H103 C83 0.930 . S
H104 C91 0.931 . S
H105 C92 0.929 . S
H106 C100 0.929 . S
H107 C101 0.930 . S
Mn108 O113 2.095 . S
Mn108 O123 2.162 . S
Mn108 O124 2.297 . S
Mn108 O132 2.385 . S
Mn108 O133 2.209 . S
Mn108 O134 2.094 . S
Mn109 O114 2.121 . S
Mn109 N116 2.257 . S
Mn109 N125 2.282 . S
Mn109 O133 2.215 . S
Mn109 O135 2.117 . S
C110 O132 1.234 . S
C110 O133 1.283 . S
C111 O123 1.281 . S
C111 O124 1.236 . S
C112 O134 1.240 . S
C112 O135 1.264 . S
O113 Mn108 2.095 . S
O113 C122 1.250 . S
O114 Mn109 2.121 . S
O114 C122 1.258 . S
C115 N116 1.326 . S
C115 C119 1.460 . S
C115 H121 0.929 . S
N116 Mn109 2.257 . S
N116 C115 1.326 . S
N116 C120 1.362 . S
C117 C118 1.258 . S
C117 C120 1.431 . S
C117 C137 1.449 . S
C118 C117 1.258 . S
C118 C119 1.477 . S
C118 H138 0.931 . S
C119 C115 1.460 . S
C119 C118 1.477 . S
C119 H139 0.930 . S
C120 N116 1.362 . S
C120 C117 1.431 . S
C120 C130 1.476 . S
H121 C115 0.929 . S
C122 O113 1.250 . S
C122 O114 1.258 . S
O123 Mn108 2.162 . S
O123 C111 1.281 . S
O124 Mn108 2.297 . S
O124 C111 1.236 . S
N125 Mn109 2.282 . S
N125 C126 1.328 . S
N125 C130 1.318 . S
C126 N125 1.328 . S
C126 C127 1.457 . S
C126 H131 0.929 . S
C127 C126 1.457 . S
C127 C128 1.291 . S
C127 H140 0.931 . S
C128 C127 1.291 . S
C128 C129 1.373 . S
C128 H141 0.929 . S
C129 C128 1.373 . S
C129 C130 1.396 . S
C129 C136 1.403 . S
C130 C120 1.476 . S
C130 N125 1.318 . S
C130 C129 1.396 . S
H131 C126 0.929 . S
O132 Mn108 2.385 . S
O132 C110 1.234 . S
O133 Mn108 2.209 . S
O133 Mn109 2.215 . S
O133 C110 1.283 . S
O134 Mn108 2.094 . S
O134 C112 1.240 . S
O135 Mn109 2.117 . S
O135 C112 1.264 . S
C136 C129 1.403 . S
C136 C137 1.399 . S
C136 H142 0.929 . S
C137 C117 1.449 . S
C137 C136 1.399 . S
C137 H143 0.930 . S
H138 C118 0.931 . S
H139 C119 0.930 . S
H140 C127 0.931 . S
H141 C128 0.929 . S
H142 C136 0.929 . S
H143 C137 0.930 . S
Mn144 O149 2.095 . S
Mn144 O159 2.162 . S
Mn144 O160 2.297 . S
Mn144 O168 2.385 . S
Mn144 O169 2.209 . S
Mn144 O170 2.094 . S
Mn145 O150 2.121 . S
Mn145 N152 2.257 . S
Mn145 N161 2.282 . S
Mn145 O169 2.215 . S
Mn145 O171 2.117 . S
C146 O168 1.234 . S
C146 O169 1.283 . S
C147 O159 1.281 . S
C147 O160 1.236 . S
C148 O170 1.240 . S
C148 O171 1.264 . S
O149 Mn144 2.095 . S
O149 C158 1.250 . S
O150 Mn145 2.121 . S
O150 C158 1.258 . S
C151 N152 1.326 . S
C151 C155 1.460 . S
C151 H157 0.929 . S
N152 Mn145 2.257 . S
N152 C151 1.326 . S
N152 C156 1.362 . S
C153 C154 1.258 . S
C153 C156 1.431 . S
C153 C173 1.449 . S
C154 C153 1.258 . S
C154 C155 1.477 . S
C154 H174 0.931 . S
C155 C151 1.460 . S
C155 C154 1.477 . S
C155 H175 0.930 . S
C156 N152 1.362 . S
C156 C153 1.431 . S
C156 C166 1.476 . S
H157 C151 0.929 . S
C158 O149 1.250 . S
C158 O150 1.258 . S
O159 Mn144 2.162 . S
O159 C147 1.281 . S
O160 Mn144 2.297 . S
O160 C147 1.236 . S
N161 Mn145 2.282 . S
N161 C162 1.328 . S
N161 C166 1.318 . S
C162 N161 1.328 . S
C162 C163 1.457 . S
C162 H167 0.929 . S
C163 C162 1.457 . S
C163 C164 1.291 . S
C163 H176 0.931 . S
C164 C163 1.291 . S
C164 C165 1.373 . S
C164 H177 0.929 . S
C165 C164 1.373 . S
C165 C166 1.396 . S
C165 C172 1.403 . S
C166 C156 1.476 . S
C166 N161 1.318 . S
C166 C165 1.396 . S
H167 C162 0.929 . S
O168 Mn144 2.385 . S
O168 C146 1.234 . S
O169 Mn144 2.209 . S
O169 Mn145 2.215 . S
O169 C146 1.283 . S
O170 Mn144 2.094 . S
O170 C148 1.240 . S
O171 Mn145 2.117 . S
O171 C148 1.264 . S
C172 C165 1.403 . S
C172 C173 1.399 . S
C172 H178 0.929 . S
C173 C153 1.449 . S
C173 C172 1.399 . S
C173 H179 0.930 . S
H174 C154 0.931 . S
H175 C155 0.930 . S
H176 C163 0.931 . S
H177 C164 0.929 . S
H178 C172 0.929 . S
H179 C173 0.930 . S
Mn180 O185 2.095 . S
Mn180 O195 2.162 . S
Mn180 O196 2.297 . S
Mn180 O204 2.385 . S
Mn180 O205 2.209 . S
Mn180 O206 2.094 . S
Mn181 O186 2.121 . S
Mn181 N188 2.257 . S
Mn181 N197 2.282 . S
Mn181 O205 2.215 . S
Mn181 O207 2.117 . S
C182 O204 1.234 . S
C182 O205 1.283 . S
C183 O195 1.281 . S
C183 O196 1.236 . S
C184 O206 1.240 . S
C184 O207 1.264 . S
O185 Mn180 2.095 . S
O185 C194 1.250 . S
O186 Mn181 2.121 . S
O186 C194 1.258 . S
C187 N188 1.326 . S
C187 C191 1.460 . S
C187 H193 0.929 . S
N188 Mn181 2.257 . S
N188 C187 1.326 . S
N188 C192 1.362 . S
C189 C190 1.258 . S
C189 C192 1.431 . S
C189 C209 1.449 . S
C190 C189 1.258 . S
C190 C191 1.477 . S
C190 H210 0.931 . S
C191 C187 1.460 . S
C191 C190 1.477 . S
C191 H211 0.930 . S
C192 N188 1.362 . S
C192 C189 1.431 . S
C192 C202 1.476 . S
H193 C187 0.929 . S
C194 O185 1.250 . S
C194 O186 1.258 . S
O195 Mn180 2.162 . S
O195 C183 1.281 . S
O196 Mn180 2.297 . S
O196 C183 1.236 . S
N197 Mn181 2.282 . S
N197 C198 1.328 . S
N197 C202 1.318 . S
C198 N197 1.328 . S
C198 C199 1.457 . S
C198 H203 0.929 . S
C199 C198 1.457 . S
C199 C200 1.291 . S
C199 H212 0.931 . S
C200 C199 1.291 . S
C200 C201 1.373 . S
C200 H213 0.929 . S
C201 C200 1.373 . S
C201 C202 1.396 . S
C201 C208 1.403 . S
C202 C192 1.476 . S
C202 N197 1.318 . S
C202 C201 1.396 . S
H203 C198 0.929 . S
O204 Mn180 2.385 . S
O204 C182 1.234 . S
O205 Mn180 2.209 . S
O205 Mn181 2.215 . S
O205 C182 1.283 . S
O206 Mn180 2.094 . S
O206 C184 1.240 . S
O207 Mn181 2.117 . S
O207 C184 1.264 . S
C208 C201 1.403 . S
C208 C209 1.399 . S
C208 H214 0.929 . S
C209 C189 1.449 . S
C209 C208 1.399 . S
C209 H215 0.930 . S
H210 C190 0.931 . S
H211 C191 0.930 . S
H212 C199 0.931 . S
H213 C200 0.929 . S
H214 C208 0.929 . S
H215 C209 0.930 . S
Mn216 O221 2.095 . S
Mn216 O231 2.162 . S
Mn216 O232 2.297 . S
Mn216 O240 2.385 . S
Mn216 O241 2.209 . S
Mn216 O242 2.094 . S
Mn217 O222 2.121 . S
Mn217 N224 2.257 . S
Mn217 N233 2.282 . S
Mn217 O241 2.215 . S
Mn217 O243 2.117 . S
C218 O240 1.234 . S
C218 O241 1.283 . S
C219 O231 1.281 . S
C219 O232 1.236 . S
C220 O242 1.240 . S
C220 O243 1.264 . S
O221 Mn216 2.095 . S
O221 C230 1.250 . S
O222 Mn217 2.121 . S
O222 C230 1.258 . S
C223 N224 1.326 . S
C223 C227 1.460 . S
C223 H229 0.929 . S
N224 Mn217 2.257 . S
N224 C223 1.326 . S
N224 C228 1.362 . S
C225 C226 1.258 . S
C225 C228 1.431 . S
C225 C245 1.449 . S
C226 C225 1.258 . S
C226 C227 1.477 . S
C226 H246 0.931 . S
C227 C223 1.460 . S
C227 C226 1.477 . S
C227 H247 0.930 . S
C228 N224 1.362 . S
C228 C225 1.431 . S
C228 C238 1.476 . S
H229 C223 0.929 . S
C230 O221 1.250 . S
C230 O222 1.258 . S
O231 Mn216 2.162 . S
O231 C219 1.281 . S
O232 Mn216 2.297 . S
O232 C219 1.236 . S
N233 Mn217 2.282 . S
N233 C234 1.328 . S
N233 C238 1.318 . S
C234 N233 1.328 . S
C234 C235 1.457 . S
C234 H239 0.929 . S
C235 C234 1.457 . S
C235 C236 1.291 . S
C235 H248 0.931 . S
C236 C235 1.291 . S
C236 C237 1.373 . S
C236 H249 0.929 . S
C237 C236 1.373 . S
C237 C238 1.396 . S
C237 C244 1.403 . S
C238 C228 1.476 . S
C238 N233 1.318 . S
C238 C237 1.396 . S
H239 C234 0.929 . S
O240 Mn216 2.385 . S
O240 C218 1.234 . S
O241 Mn216 2.209 . S
O241 Mn217 2.215 . S
O241 C218 1.283 . S
O242 Mn216 2.094 . S
O242 C220 1.240 . S
O243 Mn217 2.117 . S
O243 C220 1.264 . S
C244 C237 1.403 . S
C244 C245 1.399 . S
C244 H250 0.929 . S
C245 C225 1.449 . S
C245 C244 1.399 . S
C245 H251 0.930 . S
H246 C226 0.931 . S
H247 C227 0.930 . S
H248 C235 0.931 . S
H249 C236 0.929 . S
H250 C244 0.929 . S
H251 C245 0.930 . S
Mn252 O257 2.095 . S
Mn252 O267 2.162 . S
Mn252 O268 2.297 . S
Mn252 O276 2.385 . S
Mn252 O277 2.209 . S
Mn252 O278 2.094 . S
Mn253 O258 2.121 . S
Mn253 N260 2.257 . S
Mn253 N269 2.282 . S
Mn253 O277 2.215 . S
Mn253 O279 2.117 . S
C254 O276 1.234 . S
C254 O277 1.283 . S
C255 O267 1.281 . S
C255 O268 1.236 . S
C256 O278 1.240 . S
C256 O279 1.264 . S
O257 Mn252 2.095 . S
O257 C266 1.250 . S
O258 Mn253 2.121 . S
O258 C266 1.258 . S
C259 N260 1.326 . S
C259 C263 1.460 . S
C259 H265 0.929 . S
N260 Mn253 2.257 . S
N260 C259 1.326 . S
N260 C264 1.362 . S
C261 C262 1.258 . S
C261 C264 1.431 . S
C261 C281 1.449 . S
C262 C261 1.258 . S
C262 C263 1.477 . S
C262 H282 0.931 . S
C263 C259 1.460 . S
C263 C262 1.477 . S
C263 H283 0.930 . S
C264 N260 1.362 . S
C264 C261 1.431 . S
C264 C274 1.476 . S
H265 C259 0.929 . S
C266 O257 1.250 . S
C266 O258 1.258 . S
O267 Mn252 2.162 . S
O267 C255 1.281 . S
O268 Mn252 2.297 . S
O268 C255 1.236 . S
N269 Mn253 2.282 . S
N269 C270 1.328 . S
N269 C274 1.318 . S
C270 N269 1.328 . S
C270 C271 1.457 . S
C270 H275 0.929 . S
C271 C270 1.457 . S
C271 C272 1.291 . S
C271 H284 0.931 . S
C272 C271 1.291 . S
C272 C273 1.373 . S
C272 H285 0.929 . S
C273 C272 1.373 . S
C273 C274 1.396 . S
C273 C280 1.403 . S
C274 C264 1.476 . S
C274 N269 1.318 . S
C274 C273 1.396 . S
H275 C270 0.929 . S
O276 Mn252 2.385 . S
O276 C254 1.234 . S
O277 Mn252 2.209 . S
O277 Mn253 2.215 . S
O277 C254 1.283 . S
O278 Mn252 2.094 . S
O278 C256 1.240 . S
O279 Mn253 2.117 . S
O279 C256 1.264 . S
C280 C273 1.403 . S
C280 C281 1.399 . S
C280 H286 0.929 . S
C281 C261 1.449 . S
C281 C280 1.399 . S
C281 H287 0.930 . S
H282 C262 0.931 . S
H283 C263 0.930 . S
H284 C271 0.931 . S
H285 C272 0.929 . S
H286 C280 0.929 . S
H287 C281 0.930 . S
Mn288 O293 2.095 . S
Mn288 O303 2.162 . S
Mn288 O304 2.297 . S
Mn288 O312 2.385 . S
Mn288 O313 2.209 . S
Mn288 O314 2.094 . S
Mn289 O294 2.121 . S
Mn289 N296 2.257 . S
Mn289 N305 2.282 . S
Mn289 O313 2.215 . S
Mn289 O315 2.117 . S
C290 O312 1.234 . S
C290 O313 1.283 . S
C291 O303 1.281 . S
C291 O304 1.236 . S
C292 O314 1.240 . S
C292 O315 1.264 . S
O293 Mn288 2.095 . S
O293 C302 1.250 . S
O294 Mn289 2.121 . S
O294 C302 1.258 . S
C295 N296 1.326 . S
C295 C299 1.460 . S
C295 H301 0.929 . S
N296 Mn289 2.257 . S
N296 C295 1.326 . S
N296 C300 1.362 . S
C297 C298 1.258 . S
C297 C300 1.431 . S
C297 C317 1.449 . S
C298 C297 1.258 . S
C298 C299 1.477 . S
C298 H318 0.931 . S
C299 C295 1.460 . S
C299 C298 1.477 . S
C299 H319 0.930 . S
C300 N296 1.362 . S
C300 C297 1.431 . S
C300 C310 1.476 . S
H301 C295 0.929 . S
C302 O293 1.250 . S
C302 O294 1.258 . S
O303 Mn288 2.162 . S
O303 C291 1.281 . S
O304 Mn288 2.297 . S
O304 C291 1.236 . S
N305 Mn289 2.282 . S
N305 C306 1.328 . S
N305 C310 1.318 . S
C306 N305 1.328 . S
C306 C307 1.457 . S
C306 H311 0.929 . S
C307 C306 1.457 . S
C307 C308 1.291 . S
C307 H320 0.931 . S
C308 C307 1.291 . S
C308 C309 1.373 . S
C308 H321 0.929 . S
C309 C308 1.373 . S
C309 C310 1.396 . S
C309 C316 1.403 . S
C310 C300 1.476 . S
C310 N305 1.318 . S
C310 C309 1.396 . S
H311 C306 0.929 . S
O312 Mn288 2.385 . S
O312 C290 1.234 . S
O313 Mn288 2.209 . S
O313 Mn289 2.215 . S
O313 C290 1.283 . S
O314 Mn288 2.094 . S
O314 C292 1.240 . S
O315 Mn289 2.117 . S
O315 C292 1.264 . S
C316 C309 1.403 . S
C316 C317 1.399 . S
C316 H322 0.929 . S
C317 C297 1.449 . S
C317 C316 1.399 . S
C317 H323 0.930 . S
H318 C298 0.931 . S
H319 C299 0.930 . S
H320 C307 0.931 . S
H321 C308 0.929 . S
H322 C316 0.929 . S
H323 C317 0.930 . S
Mn324 O329 2.095 . S
Mn324 O339 2.162 . S
Mn324 O340 2.297 . S
Mn324 O348 2.385 . S
Mn324 O349 2.209 . S
Mn324 O350 2.094 . S
Mn325 O330 2.121 . S
Mn325 N332 2.257 . S
Mn325 N341 2.282 . S
Mn325 O349 2.215 . S
Mn325 O351 2.117 . S
C326 O348 1.234 . S
C326 O349 1.283 . S
C327 O339 1.281 . S
C327 O340 1.236 . S
C328 O350 1.240 . S
C328 O351 1.264 . S
O329 Mn324 2.095 . S
O329 C338 1.250 . S
O330 Mn325 2.121 . S
O330 C338 1.258 . S
C331 N332 1.326 . S
C331 C335 1.460 . S
C331 H337 0.929 . S
N332 Mn325 2.257 . S
N332 C331 1.326 . S
N332 C336 1.362 . S
C333 C334 1.258 . S
C333 C336 1.431 . S
C333 C353 1.449 . S
C334 C333 1.258 . S
C334 C335 1.477 . S
C334 H354 0.931 . S
C335 C331 1.460 . S
C335 C334 1.477 . S
C335 H355 0.930 . S
C336 N332 1.362 . S
C336 C333 1.431 . S
C336 C346 1.476 . S
H337 C331 0.929 . S
C338 O329 1.250 . S
C338 O330 1.258 . S
O339 Mn324 2.162 . S
O339 C327 1.281 . S
O340 Mn324 2.297 . S
O340 C327 1.236 . S
N341 Mn325 2.282 . S
N341 C342 1.328 . S
N341 C346 1.318 . S
C342 N341 1.328 . S
C342 C343 1.457 . S
C342 H347 0.929 . S
C343 C342 1.457 . S
C343 C344 1.291 . S
C343 H356 0.931 . S
C344 C343 1.291 . S
C344 C345 1.373 . S
C344 H357 0.929 . S
C345 C344 1.373 . S
C345 C346 1.396 . S
C345 C352 1.403 . S
C346 C336 1.476 . S
C346 N341 1.318 . S
C346 C345 1.396 . S
H347 C342 0.929 . S
O348 Mn324 2.385 . S
O348 C326 1.234 . S
O349 Mn324 2.209 . S
O349 Mn325 2.215 . S
O349 C326 1.283 . S
O350 Mn324 2.094 . S
O350 C328 1.240 . S
O351 Mn325 2.117 . S
O351 C328 1.264 . S
C352 C345 1.403 . S
C352 C353 1.399 . S
C352 H358 0.929 . S
C353 C333 1.449 . S
C353 C352 1.399 . S
C353 H359 0.930 . S
H354 C334 0.931 . S
H355 C335 0.930 . S
H356 C343 0.931 . S
H357 C344 0.929 . S
H358 C352 0.929 . S
H359 C353 0.930 . S
Mn360 O365 2.095 . S
Mn360 O375 2.162 . S
Mn360 O376 2.297 . S
Mn360 O384 2.385 . S
Mn360 O385 2.209 . S
Mn360 O386 2.094 . S
Mn361 O366 2.121 . S
Mn361 N368 2.257 . S
Mn361 N377 2.282 . S
Mn361 O385 2.215 . S
Mn361 O387 2.117 . S
C362 O384 1.234 . S
C362 O385 1.283 . S
C363 O375 1.281 . S
C363 O376 1.236 . S
C364 O386 1.240 . S
C364 O387 1.264 . S
O365 Mn360 2.095 . S
O365 C374 1.250 . S
O366 Mn361 2.121 . S
O366 C374 1.258 . S
C367 N368 1.326 . S
C367 C371 1.460 . S
C367 H373 0.929 . S
N368 Mn361 2.257 . S
N368 C367 1.326 . S
N368 C372 1.362 . S
C369 C370 1.258 . S
C369 C372 1.431 . S
C369 C389 1.449 . S
C370 C369 1.258 . S
C370 C371 1.477 . S
C370 H390 0.931 . S
C371 C367 1.460 . S
C371 C370 1.477 . S
C371 H391 0.930 . S
C372 N368 1.362 . S
C372 C369 1.431 . S
C372 C382 1.476 . S
H373 C367 0.929 . S
C374 O365 1.250 . S
C374 O366 1.258 . S
O375 Mn360 2.162 . S
O375 C363 1.281 . S
O376 Mn360 2.297 . S
O376 C363 1.236 . S
N377 Mn361 2.282 . S
N377 C378 1.328 . S
N377 C382 1.318 . S
C378 N377 1.328 . S
C378 C379 1.457 . S
C378 H383 0.929 . S
C379 C378 1.457 . S
C379 C380 1.291 . S
C379 H392 0.931 . S
C380 C379 1.291 . S
C380 C381 1.373 . S
C380 H393 0.929 . S
C381 C380 1.373 . S
C381 C382 1.396 . S
C381 C388 1.403 . S
C382 C372 1.476 . S
C382 N377 1.318 . S
C382 C381 1.396 . S
H383 C378 0.929 . S
O384 Mn360 2.385 . S
O384 C362 1.234 . S
O385 Mn360 2.209 . S
O385 Mn361 2.215 . S
O385 C362 1.283 . S
O386 Mn360 2.094 . S
O386 C364 1.240 . S
O387 Mn361 2.117 . S
O387 C364 1.264 . S
C388 C381 1.403 . S
C388 C389 1.399 . S
C388 H394 0.929 . S
C389 C369 1.449 . S
C389 C388 1.399 . S
C389 H395 0.930 . S
H390 C370 0.931 . S
H391 C371 0.930 . S
H392 C379 0.931 . S
H393 C380 0.929 . S
H394 C388 0.929 . S
H395 C389 0.930 . S
Mn396 O401 2.095 . S
Mn396 O411 2.162 . S
Mn396 O412 2.297 . S
Mn396 O420 2.385 . S
Mn396 O421 2.209 . S
Mn396 O422 2.094 . S
Mn397 O402 2.121 . S
Mn397 N404 2.257 . S
Mn397 N413 2.282 . S
Mn397 O421 2.215 . S
Mn397 O423 2.117 . S
C398 O420 1.234 . S
C398 O421 1.283 . S
C399 O411 1.281 . S
C399 O412 1.236 . S
C400 O422 1.240 . S
C400 O423 1.264 . S
O401 Mn396 2.095 . S
O401 C410 1.250 . S
O402 Mn397 2.121 . S
O402 C410 1.258 . S
C403 N404 1.326 . S
C403 C407 1.460 . S
C403 H409 0.929 . S
N404 Mn397 2.257 . S
N404 C403 1.326 . S
N404 C408 1.362 . S
C405 C406 1.258 . S
C405 C408 1.431 . S
C405 C425 1.449 . S
C406 C405 1.258 . S
C406 C407 1.477 . S
C406 H426 0.931 . S
C407 C403 1.460 . S
C407 C406 1.477 . S
C407 H427 0.930 . S
C408 N404 1.362 . S
C408 C405 1.431 . S
C408 C418 1.476 . S
H409 C403 0.929 . S
C410 O401 1.250 . S
C410 O402 1.258 . S
O411 Mn396 2.162 . S
O411 C399 1.281 . S
O412 Mn396 2.297 . S
O412 C399 1.236 . S
N413 Mn397 2.282 . S
N413 C414 1.328 . S
N413 C418 1.318 . S
C414 N413 1.328 . S
C414 C415 1.457 . S
C414 H419 0.929 . S
C415 C414 1.457 . S
C415 C416 1.291 . S
C415 H428 0.931 . S
C416 C415 1.291 . S
C416 C417 1.373 . S
C416 H429 0.929 . S
C417 C416 1.373 . S
C417 C418 1.396 . S
C417 C424 1.403 . S
C418 C408 1.476 . S
C418 N413 1.318 . S
C418 C417 1.396 . S
H419 C414 0.929 . S
O420 Mn396 2.385 . S
O420 C398 1.234 . S
O421 Mn396 2.209 . S
O421 Mn397 2.215 . S
O421 C398 1.283 . S
O422 Mn396 2.094 . S
O422 C400 1.240 . S
O423 Mn397 2.117 . S
O423 C400 1.264 . S
C424 C417 1.403 . S
C424 C425 1.399 . S
C424 H430 0.929 . S
C425 C405 1.449 . S
C425 C424 1.399 . S
C425 H431 0.930 . S
H426 C406 0.931 . S
H427 C407 0.930 . S
H428 C415 0.931 . S
H429 C416 0.929 . S
H430 C424 0.929 . S
H431 C425 0.930 . S
Mn432 O437 2.095 . S
Mn432 O447 2.162 . S
Mn432 O448 2.297 . S
Mn432 O456 2.385 . S
Mn432 O457 2.209 . S
Mn432 O458 2.094 . S
Mn433 O438 2.121 . S
Mn433 N440 2.257 . S
Mn433 N449 2.282 . S
Mn433 O457 2.215 . S
Mn433 O459 2.117 . S
C434 O456 1.234 . S
C434 O457 1.283 . S
C435 O447 1.281 . S
C435 O448 1.236 . S
C436 O458 1.240 . S
C436 O459 1.264 . S
O437 Mn432 2.095 . S
O437 C446 1.250 . S
O438 Mn433 2.121 . S
O438 C446 1.258 . S
C439 N440 1.326 . S
C439 C443 1.460 . S
C439 H445 0.929 . S
N440 Mn433 2.257 . S
N440 C439 1.326 . S
N440 C444 1.362 . S
C441 C442 1.258 . S
C441 C444 1.431 . S
C441 C461 1.449 . S
C442 C441 1.258 . S
C442 C443 1.477 . S
C442 H462 0.931 . S
C443 C439 1.460 . S
C443 C442 1.477 . S
C443 H463 0.930 . S
C444 N440 1.362 . S
C444 C441 1.431 . S
C444 C454 1.476 . S
H445 C439 0.929 . S
C446 O437 1.250 . S
C446 O438 1.258 . S
O447 Mn432 2.162 . S
O447 C435 1.281 . S
O448 Mn432 2.297 . S
O448 C435 1.236 . S
N449 Mn433 2.282 . S
N449 C450 1.328 . S
N449 C454 1.318 . S
C450 N449 1.328 . S
C450 C451 1.457 . S
C450 H455 0.929 . S
C451 C450 1.457 . S
C451 C452 1.291 . S
C451 H464 0.931 . S
C452 C451 1.291 . S
C452 C453 1.373 . S
C452 H465 0.929 . S
C453 C452 1.373 . S
C453 C454 1.396 . S
C453 C460 1.403 . S
C454 C444 1.476 . S
C454 N449 1.318 . S
C454 C453 1.396 . S
H455 C450 0.929 . S
O456 Mn432 2.385 . S
O456 C434 1.234 . S
O457 Mn432 2.209 . S
O457 Mn433 2.215 . S
O457 C434 1.283 . S
O458 Mn432 2.094 . S
O458 C436 1.240 . S
O459 Mn433 2.117 . S
O459 C436 1.264 . S
C460 C453 1.403 . S
C460 C461 1.399 . S
C460 H466 0.929 . S
C461 C441 1.449 . S
C461 C460 1.399 . S
C461 H467 0.930 . S
H462 C442 0.931 . S
H463 C443 0.930 . S
H464 C451 0.931 . S
H465 C452 0.929 . S
H466 C460 0.929 . S
H467 C461 0.930 . S
Mn468 O473 2.095 . S
Mn468 O483 2.162 . S
Mn468 O484 2.297 . S
Mn468 O492 2.385 . S
Mn468 O493 2.209 . S
Mn468 O494 2.094 . S
Mn469 O474 2.121 . S
Mn469 N476 2.257 . S
Mn469 N485 2.282 . S
Mn469 O493 2.215 . S
Mn469 O495 2.117 . S
C470 O492 1.234 . S
C470 O493 1.283 . S
C471 O483 1.281 . S
C471 O484 1.236 . S
C472 O494 1.240 . S
C472 O495 1.264 . S
O473 Mn468 2.095 . S
O473 C482 1.250 . S
O474 Mn469 2.121 . S
O474 C482 1.258 . S
C475 N476 1.326 . S
C475 C479 1.460 . S
C475 H481 0.929 . S
N476 Mn469 2.257 . S
N476 C475 1.326 . S
N476 C480 1.362 . S
C477 C478 1.258 . S
C477 C480 1.431 . S
C477 C497 1.449 . S
C478 C477 1.258 . S
C478 C479 1.477 . S
C478 H498 0.931 . S
C479 C475 1.460 . S
C479 C478 1.477 . S
C479 H499 0.930 . S
C480 N476 1.362 . S
C480 C477 1.431 . S
C480 C490 1.476 . S
H481 C475 0.929 . S
C482 O473 1.250 . S
C482 O474 1.258 . S
O483 Mn468 2.162 . S
O483 C471 1.281 . S
O484 Mn468 2.297 . S
O484 C471 1.236 . S
N485 Mn469 2.282 . S
N485 C486 1.328 . S
N485 C490 1.318 . S
C486 N485 1.328 . S
C486 C487 1.457 . S
C486 H491 0.929 . S
C487 C486 1.457 . S
C487 C488 1.291 . S
C487 H500 0.931 . S
C488 C487 1.291 . S
C488 C489 1.373 . S
C488 H501 0.929 . S
C489 C488 1.373 . S
C489 C490 1.396 . S
C489 C496 1.403 . S
C490 C480 1.476 . S
C490 N485 1.318 . S
C490 C489 1.396 . S
H491 C486 0.929 . S
O492 Mn468 2.385 . S
O492 C470 1.234 . S
O493 Mn468 2.209 . S
O493 Mn469 2.215 . S
O493 C470 1.283 . S
O494 Mn468 2.094 . S
O494 C472 1.240 . S
O495 Mn469 2.117 . S
O495 C472 1.264 . S
C496 C489 1.403 . S
C496 C497 1.399 . S
C496 H502 0.929 . S
C497 C477 1.449 . S
C497 C496 1.399 . S
C497 H503 0.930 . S
H498 C478 0.931 . S
H499 C479 0.930 . S
H500 C487 0.931 . S
H501 C488 0.929 . S
H502 C496 0.929 . S
H503 C497 0.930 . S
Mn504 O509 2.095 . S
Mn504 O519 2.162 . S
Mn504 O520 2.297 . S
Mn504 O528 2.385 . S
Mn504 O529 2.209 . S
Mn504 O530 2.094 . S
Mn505 O510 2.121 . S
Mn505 N512 2.257 . S
Mn505 N521 2.282 . S
Mn505 O529 2.215 . S
Mn505 O531 2.117 . S
C506 O528 1.234 . S
C506 O529 1.283 . S
C507 O519 1.281 . S
C507 O520 1.236 . S
C508 O530 1.240 . S
C508 O531 1.264 . S
O509 Mn504 2.095 . S
O509 C518 1.250 . S
O510 Mn505 2.121 . S
O510 C518 1.258 . S
C511 N512 1.326 . S
C511 C515 1.460 . S
C511 H517 0.929 . S
N512 Mn505 2.257 . S
N512 C511 1.326 . S
N512 C516 1.362 . S
C513 C514 1.258 . S
C513 C516 1.431 . S
C513 C533 1.449 . S
C514 C513 1.258 . S
C514 C515 1.477 . S
C514 H534 0.931 . S
C515 C511 1.460 . S
C515 C514 1.477 . S
C515 H535 0.930 . S
C516 N512 1.362 . S
C516 C513 1.431 . S
C516 C526 1.476 . S
H517 C511 0.929 . S
C518 O509 1.250 . S
C518 O510 1.258 . S
O519 Mn504 2.162 . S
O519 C507 1.281 . S
O520 Mn504 2.297 . S
O520 C507 1.236 . S
N521 Mn505 2.282 . S
N521 C522 1.328 . S
N521 C526 1.318 . S
C522 N521 1.328 . S
C522 C523 1.457 . S
C522 H527 0.929 . S
C523 C522 1.457 . S
C523 C524 1.291 . S
C523 H536 0.931 . S
C524 C523 1.291 . S
C524 C525 1.373 . S
C524 H537 0.929 . S
C525 C524 1.373 . S
C525 C526 1.396 . S
C525 C532 1.403 . S
C526 C516 1.476 . S
C526 N521 1.318 . S
C526 C525 1.396 . S
H527 C522 0.929 . S
O528 Mn504 2.385 . S
O528 C506 1.234 . S
O529 Mn504 2.209 . S
O529 Mn505 2.215 . S
O529 C506 1.283 . S
O530 Mn504 2.094 . S
O530 C508 1.240 . S
O531 Mn505 2.117 . S
O531 C508 1.264 . S
C532 C525 1.403 . S
C532 C533 1.399 . S
C532 H538 0.929 . S
C533 C513 1.449 . S
C533 C532 1.399 . S
C533 H539 0.930 . S
H534 C514 0.931 . S
H535 C515 0.930 . S
H536 C523 0.931 . S
H537 C524 0.929 . S
H538 C532 0.929 . S
H539 C533 0.930 . S
Mn540 O545 2.095 . S
Mn540 O555 2.162 . S
Mn540 O556 2.297 . S
Mn540 O564 2.385 . S
Mn540 O565 2.209 . S
Mn540 O566 2.094 . S
Mn541 O546 2.121 . S
Mn541 N548 2.257 . S
Mn541 N557 2.282 . S
Mn541 O565 2.215 . S
Mn541 O567 2.117 . S
C542 O564 1.234 . S
C542 O565 1.283 . S
C543 O555 1.281 . S
C543 O556 1.236 . S
C544 O566 1.240 . S
C544 O567 1.264 . S
O545 Mn540 2.095 . S
O545 C554 1.250 . S
O546 Mn541 2.121 . S
O546 C554 1.258 . S
C547 N548 1.326 . S
C547 C551 1.460 . S
C547 H553 0.929 . S
N548 Mn541 2.257 . S
N548 C547 1.326 . S
N548 C552 1.362 . S
C549 C550 1.258 . S
C549 C552 1.431 . S
C549 C569 1.449 . S
C550 C549 1.258 . S
C550 C551 1.477 . S
C550 H570 0.931 . S
C551 C547 1.460 . S
C551 C550 1.477 . S
C551 H571 0.930 . S
C552 N548 1.362 . S
C552 C549 1.431 . S
C552 C562 1.476 . S
H553 C547 0.929 . S
C554 O545 1.250 . S
C554 O546 1.258 . S
O555 Mn540 2.162 . S
O555 C543 1.281 . S
O556 Mn540 2.297 . S
O556 C543 1.236 . S
N557 Mn541 2.282 . S
N557 C558 1.328 . S
N557 C562 1.318 . S
C558 N557 1.328 . S
C558 C559 1.457 . S
C558 H563 0.929 . S
C559 C558 1.457 . S
C559 C560 1.291 . S
C559 H572 0.931 . S
C560 C559 1.291 . S
C560 C561 1.373 . S
C560 H573 0.929 . S
C561 C560 1.373 . S
C561 C562 1.396 . S
C561 C568 1.403 . S
C562 C552 1.476 . S
C562 N557 1.318 . S
C562 C561 1.396 . S
H563 C558 0.929 . S
O564 Mn540 2.385 . S
O564 C542 1.234 . S
O565 Mn540 2.209 . S
O565 Mn541 2.215 . S
O565 C542 1.283 . S
O566 Mn540 2.094 . S
O566 C544 1.240 . S
O567 Mn541 2.117 . S
O567 C544 1.264 . S
C568 C561 1.403 . S
C568 C569 1.399 . S
C568 H574 0.929 . S
C569 C549 1.449 . S
C569 C568 1.399 . S
C569 H575 0.930 . S
H570 C550 0.931 . S
H571 C551 0.930 . S
H572 C559 0.931 . S
H573 C560 0.929 . S
H574 C568 0.929 . S
H575 C569 0.930 . S
Mn576 O581 2.095 . S
Mn576 O591 2.162 . S
Mn576 O592 2.297 . S
Mn576 O600 2.385 . S
Mn576 O601 2.209 . S
Mn576 O602 2.094 . S
Mn577 O582 2.121 . S
Mn577 N584 2.257 . S
Mn577 N593 2.282 . S
Mn577 O601 2.215 . S
Mn577 O603 2.117 . S
C578 O600 1.234 . S
C578 O601 1.283 . S
C579 O591 1.281 . S
C579 O592 1.236 . S
C580 O602 1.240 . S
C580 O603 1.264 . S
O581 Mn576 2.095 . S
O581 C590 1.250 . S
O582 Mn577 2.121 . S
O582 C590 1.258 . S
C583 N584 1.326 . S
C583 C587 1.460 . S
C583 H589 0.929 . S
N584 Mn577 2.257 . S
N584 C583 1.326 . S
N584 C588 1.362 . S
C585 C586 1.254 1_655 S
C585 C588 1.431 . S
C585 C605 1.449 1_655 S
C586 C585 1.254 1_455 S
C586 C587 1.452 1_455 S
C586 H606 0.960 . S
C587 C583 1.460 . S
C587 C586 1.452 1_655 S
C587 H607 0.930 . S
C588 N584 1.362 . S
C588 C585 1.431 . S
C588 C598 1.476 . S
H589 C583 0.929 . S
C590 O581 1.250 . S
C590 O582 1.258 . S
O591 Mn576 2.162 . S
O591 C579 1.281 . S
O592 Mn576 2.297 . S
O592 C579 1.236 . S
N593 Mn577 2.282 . S
N593 C594 1.328 . S
N593 C598 1.318 . S
C594 N593 1.328 . S
C594 C595 1.457 . S
C594 H599 0.929 . S
C595 C594 1.457 . S
C595 C596 1.291 . S
C595 H608 0.931 . S
C596 C595 1.291 . S
C596 C597 1.373 . S
C596 H609 0.929 1_655 S
C597 C596 1.373 . S
C597 C598 1.396 . S
C597 C604 1.403 1_655 S
C598 C588 1.476 . S
C598 N593 1.318 . S
C598 C597 1.396 . S
H599 C594 0.929 . S
O600 Mn576 2.385 . S
O600 C578 1.234 . S
O601 Mn576 2.209 . S
O601 Mn577 2.215 . S
O601 C578 1.283 . S
O602 Mn576 2.094 . S
O602 C580 1.240 . S
O603 Mn577 2.117 . S
O603 C580 1.264 . S
C604 C597 1.403 1_455 S
C604 C605 1.399 . S
C604 H610 0.929 . S
C605 C585 1.449 1_455 S
C605 C604 1.399 . S
C605 H611 0.930 . S
H606 C586 0.960 . S
H607 C587 0.930 . S
H608 C595 0.931 . S
H609 C596 0.929 1_455 S
H610 C604 0.929 . S
H611 C605 0.930 . S
Mn612 O617 2.095 . S
Mn612 O627 2.162 . S
Mn612 O628 2.297 . S
Mn612 O636 2.385 . S
Mn612 O637 2.209 . S
Mn612 O638 2.094 . S
Mn613 O618 2.121 . S
Mn613 N620 2.257 . S
Mn613 N629 2.282 . S
Mn613 O637 2.215 . S
Mn613 O639 2.117 . S
C614 O636 1.234 . S
C614 O637 1.283 . S
C615 O627 1.281 . S
C615 O628 1.236 . S
C616 O638 1.240 . S
C616 O639 1.264 . S
O617 Mn612 2.095 . S
O617 C626 1.250 . S
O618 Mn613 2.121 . S
O618 C626 1.258 . S
C619 N620 1.326 . S
C619 C623 1.460 . S
C619 H625 0.929 . S
N620 Mn613 2.257 . S
N620 C619 1.326 . S
N620 C624 1.362 . S
C621 C622 1.258 . S
C621 C624 1.431 . S
C621 C641 1.449 . S
C622 C621 1.258 . S
C622 C623 1.477 . S
C622 H642 0.931 . S
C623 C619 1.460 . S
C623 C622 1.477 . S
C623 H643 0.930 . S
C624 N620 1.362 . S
C624 C621 1.431 . S
C624 C634 1.476 . S
H625 C619 0.929 . S
C626 O617 1.250 . S
C626 O618 1.258 . S
O627 Mn612 2.162 . S
O627 C615 1.281 . S
O628 Mn612 2.297 . S
O628 C615 1.236 . S
N629 Mn613 2.282 . S
N629 C630 1.328 . S
N629 C634 1.318 . S
C630 N629 1.328 . S
C630 C631 1.457 . S
C630 H635 0.929 . S
C631 C630 1.457 . S
C631 C632 1.291 . S
C631 H644 0.931 . S
C632 C631 1.291 . S
C632 C633 1.373 . S
C632 H645 0.929 . S
C633 C632 1.373 . S
C633 C634 1.396 . S
C633 C640 1.403 . S
C634 C624 1.476 . S
C634 N629 1.318 . S
C634 C633 1.396 . S
H635 C630 0.929 . S
O636 Mn612 2.385 . S
O636 C614 1.234 . S
O637 Mn612 2.209 . S
O637 Mn613 2.215 . S
O637 C614 1.283 . S
O638 Mn612 2.094 . S
O638 C616 1.240 . S
O639 Mn613 2.117 . S
O639 C616 1.264 . S
C640 C633 1.403 . S
C640 C641 1.399 . S
C640 H646 0.929 . S
C641 C621 1.449 . S
C641 C640 1.399 . S
C641 H647 0.930 . S
H642 C622 0.931 . S
H643 C623 0.930 . S
H644 C631 0.931 . S
H645 C632 0.929 . S
H646 C640 0.929 . S
H647 C641 0.930 . S
Mn648 O653 2.095 . S
Mn648 O663 2.162 . S
Mn648 O664 2.297 . S
Mn648 O672 2.385 . S
Mn648 O673 2.209 . S
Mn648 O674 2.094 . S
Mn649 O654 2.121 . S
Mn649 N656 2.257 . S
Mn649 N665 2.282 . S
Mn649 O673 2.215 . S
Mn649 O675 2.117 . S
C650 O672 1.234 . S
C650 O673 1.283 . S
C651 O663 1.281 . S
C651 O664 1.236 . S
C652 O674 1.240 . S
C652 O675 1.264 . S
O653 Mn648 2.095 . S
O653 C662 1.250 . S
O654 Mn649 2.121 . S
O654 C662 1.258 . S
C655 N656 1.326 . S
C655 C659 1.460 . S
C655 H661 0.929 . S
N656 Mn649 2.257 . S
N656 C655 1.326 . S
N656 C660 1.362 . S
C657 C658 1.258 . S
C657 C660 1.431 . S
C657 C677 1.449 . S
C658 C657 1.258 . S
C658 C659 1.477 . S
C658 H678 0.931 . S
C659 C655 1.460 . S
C659 C658 1.477 . S
C659 H679 0.930 . S
C660 N656 1.362 . S
C660 C657 1.431 . S
C660 C670 1.476 . S
H661 C655 0.929 . S
C662 O653 1.250 . S
C662 O654 1.258 . S
O663 Mn648 2.162 . S
O663 C651 1.281 . S
O664 Mn648 2.297 . S
O664 C651 1.236 . S
N665 Mn649 2.282 . S
N665 C666 1.328 . S
N665 C670 1.318 . S
C666 N665 1.328 . S
C666 C667 1.457 . S
C666 H671 0.929 . S
C667 C666 1.457 . S
C667 C668 1.291 . S
C667 H680 0.931 . S
C668 C667 1.291 . S
C668 C669 1.373 . S
C668 H681 0.929 . S
C669 C668 1.373 . S
C669 C670 1.396 . S
C669 C676 1.403 . S
C670 C660 1.476 . S
C670 N665 1.318 . S
C670 C669 1.396 . S
H671 C666 0.929 . S
O672 Mn648 2.385 . S
O672 C650 1.234 . S
O673 Mn648 2.209 . S
O673 Mn649 2.215 . S
O673 C650 1.283 . S
O674 Mn648 2.094 . S
O674 C652 1.240 . S
O675 Mn649 2.117 . S
O675 C652 1.264 . S
C676 C669 1.403 . S
C676 C677 1.399 . S
C676 H682 0.929 . S
C677 C657 1.449 . S
C677 C676 1.399 . S
C677 H683 0.930 . S
H678 C658 0.931 . S
H679 C659 0.930 . S
H680 C667 0.931 . S
H681 C668 0.929 . S
H682 C676 0.929 . S
H683 C677 0.930 . S
Mn684 O689 2.095 . S
Mn684 O699 2.162 . S
Mn684 O700 2.297 . S
Mn684 O708 2.385 . S
Mn684 O709 2.209 . S
Mn684 O710 2.094 . S
Mn685 O690 2.121 . S
Mn685 N692 2.257 . S
Mn685 N701 2.282 . S
Mn685 O709 2.215 . S
Mn685 O711 2.117 . S
C686 O708 1.234 . S
C686 O709 1.283 . S
C687 O699 1.281 . S
C687 O700 1.236 . S
C688 O710 1.240 . S
C688 O711 1.264 . S
O689 Mn684 2.095 . S
O689 C698 1.250 . S
O690 Mn685 2.121 . S
O690 C698 1.258 . S
C691 N692 1.326 . S
C691 C695 1.460 . S
C691 H697 0.929 . S
N692 Mn685 2.257 . S
N692 C691 1.326 . S
N692 C696 1.362 . S
C693 C694 1.258 . S
C693 C696 1.431 . S
C693 C713 1.449 . S
C694 C693 1.258 . S
C694 C695 1.477 . S
C694 H714 0.931 . S
C695 C691 1.460 . S
C695 C694 1.477 . S
C695 H715 0.930 . S
C696 N692 1.362 . S
C696 C693 1.431 . S
C696 C706 1.476 . S
H697 C691 0.929 . S
C698 O689 1.250 . S
C698 O690 1.258 . S
O699 Mn684 2.162 . S
O699 C687 1.281 . S
O700 Mn684 2.297 . S
O700 C687 1.236 . S
N701 Mn685 2.282 . S
N701 C702 1.328 . S
N701 C706 1.318 . S
C702 N701 1.328 . S
C702 C703 1.457 . S
C702 H707 0.929 . S
C703 C702 1.457 . S
C703 C704 1.291 . S
C703 H716 0.931 . S
C704 C703 1.291 . S
C704 C705 1.373 . S
C704 H717 0.929 . S
C705 C704 1.373 . S
C705 C706 1.396 . S
C705 C712 1.403 . S
C706 C696 1.476 . S
C706 N701 1.318 . S
C706 C705 1.396 . S
H707 C702 0.929 . S
O708 Mn684 2.385 . S
O708 C686 1.234 . S
O709 Mn684 2.209 . S
O709 Mn685 2.215 . S
O709 C686 1.283 . S
O710 Mn684 2.094 . S
O710 C688 1.240 . S
O711 Mn685 2.117 . S
O711 C688 1.264 . S
C712 C705 1.403 . S
C712 C713 1.399 . S
C712 H718 0.929 . S
C713 C693 1.449 . S
C713 C712 1.399 . S
C713 H719 0.930 . S
H714 C694 0.931 . S
H715 C695 0.930 . S
H716 C703 0.931 . S
H717 C704 0.929 . S
H718 C712 0.929 . S
H719 C713 0.930 . S
Mn720 O725 2.095 . S
Mn720 O735 2.162 . S
Mn720 O736 2.297 . S
Mn720 O744 2.385 . S
Mn720 O745 2.209 . S
Mn720 O746 2.094 . S
Mn721 O726 2.121 . S
Mn721 N728 2.257 . S
Mn721 N737 2.282 . S
Mn721 O745 2.215 . S
Mn721 O747 2.117 . S
C722 O744 1.234 . S
C722 O745 1.283 . S
C723 O735 1.281 . S
C723 O736 1.236 . S
C724 O746 1.240 . S
C724 O747 1.264 . S
O725 Mn720 2.095 . S
O725 C734 1.250 . S
O726 Mn721 2.121 . S
O726 C734 1.258 . S
C727 N728 1.326 . S
C727 C731 1.460 . S
C727 H733 0.929 . S
N728 Mn721 2.257 . S
N728 C727 1.326 . S
N728 C732 1.362 . S
C729 C730 1.258 . S
C729 C732 1.431 . S
C729 C749 1.449 . S
C730 C729 1.258 . S
C730 C731 1.477 . S
C730 H750 0.931 . S
C731 C727 1.460 . S
C731 C730 1.477 . S
C731 H751 0.930 . S
C732 N728 1.362 . S
C732 C729 1.431 . S
C732 C742 1.476 . S
H733 C727 0.929 . S
C734 O725 1.250 . S
C734 O726 1.258 . S
O735 Mn720 2.162 . S
O735 C723 1.281 . S
O736 Mn720 2.297 . S
O736 C723 1.236 . S
N737 Mn721 2.282 . S
N737 C738 1.328 . S
N737 C742 1.318 . S
C738 N737 1.328 . S
C738 C739 1.457 . S
C738 H743 0.929 . S
C739 C738 1.457 . S
C739 C740 1.291 . S
C739 H752 0.931 . S
C740 C739 1.291 . S
C740 C741 1.373 . S
C740 H753 0.929 . S
C741 C740 1.373 . S
C741 C742 1.396 . S
C741 C748 1.403 . S
C742 C732 1.476 . S
C742 N737 1.318 . S
C742 C741 1.396 . S
H743 C738 0.929 . S
O744 Mn720 2.385 . S
O744 C722 1.234 . S
O745 Mn720 2.209 . S
O745 Mn721 2.215 . S
O745 C722 1.283 . S
O746 Mn720 2.094 . S
O746 C724 1.240 . S
O747 Mn721 2.117 . S
O747 C724 1.264 . S
C748 C741 1.403 . S
C748 C749 1.399 . S
C748 H754 0.929 . S
C749 C729 1.449 . S
C749 C748 1.399 . S
C749 H755 0.930 . S
H750 C730 0.931 . S
H751 C731 0.930 . S
H752 C739 0.931 . S
H753 C740 0.929 . S
H754 C748 0.929 . S
H755 C749 0.930 . S
Mn756 O761 2.095 . S
Mn756 O771 2.162 . S
Mn756 O772 2.297 . S
Mn756 O780 2.385 . S
Mn756 O781 2.209 . S
Mn756 O782 2.094 . S
Mn757 O762 2.121 . S
Mn757 N764 2.257 . S
Mn757 N773 2.282 . S
Mn757 O781 2.215 . S
Mn757 O783 2.117 . S
C758 O780 1.234 . S
C758 O781 1.283 . S
C759 O771 1.281 . S
C759 O772 1.236 . S
C760 O782 1.240 . S
C760 O783 1.264 . S
O761 Mn756 2.095 . S
O761 C770 1.250 . S
O762 Mn757 2.121 . S
O762 C770 1.258 . S
C763 N764 1.326 . S
C763 C767 1.460 . S
C763 H769 0.929 . S
N764 Mn757 2.257 . S
N764 C763 1.326 . S
N764 C768 1.362 . S
C765 C766 1.258 . S
C765 C768 1.431 . S
C765 C785 1.449 . S
C766 C765 1.258 . S
C766 C767 1.477 . S
C766 H786 0.931 . S
C767 C763 1.460 . S
C767 C766 1.477 . S
C767 H787 0.930 . S
C768 N764 1.362 . S
C768 C765 1.431 . S
C768 C778 1.476 . S
H769 C763 0.929 . S
C770 O761 1.250 . S
C770 O762 1.258 . S
O771 Mn756 2.162 . S
O771 C759 1.281 . S
O772 Mn756 2.297 . S
O772 C759 1.236 . S
N773 Mn757 2.282 . S
N773 C774 1.328 . S
N773 C778 1.318 . S
C774 N773 1.328 . S
C774 C775 1.457 . S
C774 H779 0.929 . S
C775 C774 1.457 . S
C775 C776 1.291 . S
C775 H788 0.931 . S
C776 C775 1.291 . S
C776 C777 1.373 . S
C776 H789 0.929 . S
C777 C776 1.373 . S
C777 C778 1.396 . S
C777 C784 1.403 . S
C778 C768 1.476 . S
C778 N773 1.318 . S
C778 C777 1.396 . S
H779 C774 0.929 . S
O780 Mn756 2.385 . S
O780 C758 1.234 . S
O781 Mn756 2.209 . S
O781 Mn757 2.215 . S
O781 C758 1.283 . S
O782 Mn756 2.094 . S
O782 C760 1.240 . S
O783 Mn757 2.117 . S
O783 C760 1.264 . S
C784 C777 1.403 . S
C784 C785 1.399 . S
C784 H790 0.929 . S
C785 C765 1.449 . S
C785 C784 1.399 . S
C785 H791 0.930 . S
H786 C766 0.931 . S
H787 C767 0.930 . S
H788 C775 0.931 . S
H789 C776 0.929 . S
H790 C784 0.929 . S
H791 C785 0.930 . S
Mn792 O797 2.095 . S
Mn792 O807 2.162 . S
Mn792 O808 2.297 . S
Mn792 O816 2.385 . S
Mn792 O817 2.209 . S
Mn792 O818 2.094 . S
Mn793 O798 2.121 . S
Mn793 N800 2.257 . S
Mn793 N809 2.282 . S
Mn793 O817 2.215 . S
Mn793 O819 2.117 . S
C794 O816 1.234 . S
C794 O817 1.283 . S
C795 O807 1.281 . S
C795 O808 1.236 . S
C796 O818 1.240 . S
C796 O819 1.264 . S
O797 Mn792 2.095 . S
O797 C806 1.250 . S
O798 Mn793 2.121 . S
O798 C806 1.258 . S
C799 N800 1.326 . S
C799 C803 1.460 . S
C799 H805 0.929 . S
N800 Mn793 2.257 . S
N800 C799 1.326 . S
N800 C804 1.362 . S
C801 C802 1.258 1_655 S
C801 C804 1.431 . S
C801 C821 1.449 1_655 S
C802 C801 1.258 1_455 S
C802 C803 1.477 1_455 S
C802 H822 0.930 . S
C803 C799 1.460 . S
C803 C802 1.477 1_655 S
C803 H823 0.930 . S
C804 N800 1.362 . S
C804 C801 1.431 . S
C804 C814 1.476 . S
H805 C799 0.929 . S
C806 O797 1.250 . S
C806 O798 1.258 . S
O807 Mn792 2.162 . S
O807 C795 1.281 . S
O808 Mn792 2.297 . S
O808 C795 1.236 . S
N809 Mn793 2.282 . S
N809 C810 1.328 . S
N809 C814 1.318 . S
C810 N809 1.328 . S
C810 C811 1.457 . S
C810 H815 0.929 . S
C811 C810 1.457 . S
C811 C812 1.291 . S
C811 H824 0.931 . S
C812 C811 1.291 . S
C812 C813 1.373 . S
C812 H825 0.929 1_655 S
C813 C812 1.373 . S
C813 C814 1.396 . S
C813 C820 1.403 1_655 S
C814 C804 1.476 . S
C814 N809 1.318 . S
C814 C813 1.396 . S
H815 C810 0.929 . S
O816 Mn792 2.385 . S
O816 C794 1.234 . S
O817 Mn792 2.209 . S
O817 Mn793 2.215 . S
O817 C794 1.283 . S
O818 Mn792 2.094 . S
O818 C796 1.240 . S
O819 Mn793 2.117 . S
O819 C796 1.264 . S
C820 C813 1.403 1_455 S
C820 C821 1.399 . S
C820 H826 0.929 . S
C821 C801 1.449 1_455 S
C821 C820 1.399 . S
C821 H827 0.930 . S
H822 C802 0.930 . S
H823 C803 0.930 . S
H824 C811 0.931 . S
H825 C812 0.929 1_455 S
H826 C820 0.929 . S
H827 C821 0.930 . S
Mn828 O833 2.095 . S
Mn828 O843 2.162 . S
Mn828 O844 2.297 . S
Mn828 O852 2.385 . S
Mn828 O853 2.209 . S
Mn828 O854 2.094 . S
Mn829 O834 2.121 . S
Mn829 N836 2.257 . S
Mn829 N845 2.282 . S
Mn829 O853 2.215 . S
Mn829 O855 2.117 . S
C830 O852 1.234 . S
C830 O853 1.283 . S
C831 O843 1.281 . S
C831 O844 1.236 . S
C832 O854 1.240 . S
C832 O855 1.264 . S
O833 Mn828 2.095 . S
O833 C842 1.250 . S
O834 Mn829 2.121 . S
O834 C842 1.258 . S
C835 N836 1.326 . S
C835 C839 1.460 . S
C835 H841 0.929 . S
N836 Mn829 2.257 . S
N836 C835 1.326 . S
N836 C840 1.362 . S
C837 C838 1.258 . S
C837 C840 1.431 . S
C837 C857 1.449 . S
C838 C837 1.258 . S
C838 C839 1.477 . S
C838 H858 0.931 . S
C839 C835 1.460 . S
C839 C838 1.477 . S
C839 H859 0.930 . S
C840 N836 1.362 . S
C840 C837 1.431 . S
C840 C850 1.476 . S
H841 C835 0.929 . S
C842 O833 1.250 . S
C842 O834 1.258 . S
O843 Mn828 2.162 . S
O843 C831 1.281 . S
O844 Mn828 2.297 . S
O844 C831 1.236 . S
N845 Mn829 2.282 . S
N845 C846 1.328 . S
N845 C850 1.318 . S
C846 N845 1.328 . S
C846 C847 1.457 . S
C846 H851 0.929 . S
C847 C846 1.457 . S
C847 C848 1.291 . S
C847 H860 0.931 . S
C848 C847 1.291 . S
C848 C849 1.373 . S
C848 H861 0.929 . S
C849 C848 1.373 . S
C849 C850 1.396 . S
C849 C856 1.403 . S
C850 C840 1.476 . S
C850 N845 1.318 . S
C850 C849 1.396 . S
H851 C846 0.929 . S
O852 Mn828 2.385 . S
O852 C830 1.234 . S
O853 Mn828 2.209 . S
O853 Mn829 2.215 . S
O853 C830 1.283 . S
O854 Mn828 2.094 . S
O854 C832 1.240 . S
O855 Mn829 2.117 . S
O855 C832 1.264 . S
C856 C849 1.403 . S
C856 C857 1.399 . S
C856 H862 0.929 . S
C857 C837 1.449 . S
C857 C856 1.399 . S
C857 H863 0.930 . S
H858 C838 0.931 . S
H859 C839 0.930 . S
H860 C847 0.931 . S
H861 C848 0.929 . S
H862 C856 0.929 . S
H863 C857 0.930 . S
Mn864 O869 2.095 . S
Mn864 O879 2.162 . S
Mn864 O880 2.297 . S
Mn864 O888 2.385 . S
Mn864 O889 2.209 . S
Mn864 O890 2.094 . S
Mn865 O870 2.121 . S
Mn865 N872 2.257 . S
Mn865 N881 2.282 . S
Mn865 O889 2.215 . S
Mn865 O891 2.117 . S
C866 O888 1.234 . S
C866 O889 1.283 . S
C867 O879 1.281 . S
C867 O880 1.236 . S
C868 O890 1.240 . S
C868 O891 1.264 . S
O869 Mn864 2.095 . S
O869 C878 1.250 . S
O870 Mn865 2.121 . S
O870 C878 1.258 . S
C871 N872 1.326 . S
C871 C875 1.460 . S
C871 H877 0.929 . S
N872 Mn865 2.257 . S
N872 C871 1.326 . S
N872 C876 1.362 . S
C873 C874 1.258 . S
C873 C876 1.431 . S
C873 C893 1.449 . S
C874 C873 1.258 . S
C874 C875 1.477 . S
C874 H894 0.931 . S
C875 C871 1.460 . S
C875 C874 1.477 . S
C875 H895 0.930 . S
C876 N872 1.362 . S
C876 C873 1.431 . S
C876 C886 1.476 . S
H877 C871 0.929 . S
C878 O869 1.250 . S
C878 O870 1.258 . S
O879 Mn864 2.162 . S
O879 C867 1.281 . S
O880 Mn864 2.297 . S
O880 C867 1.236 . S
N881 Mn865 2.282 . S
N881 C882 1.328 . S
N881 C886 1.318 . S
C882 N881 1.328 . S
C882 C883 1.457 . S
C882 H887 0.929 . S
C883 C882 1.457 . S
C883 C884 1.291 . S
C883 H896 0.931 . S
C884 C883 1.291 . S
C884 C885 1.373 . S
C884 H897 0.929 . S
C885 C884 1.373 . S
C885 C886 1.396 . S
C885 C892 1.403 . S
C886 C876 1.476 . S
C886 N881 1.318 . S
C886 C885 1.396 . S
H887 C882 0.929 . S
O888 Mn864 2.385 . S
O888 C866 1.234 . S
O889 Mn864 2.209 . S
O889 Mn865 2.215 . S
O889 C866 1.283 . S
O890 Mn864 2.094 . S
O890 C868 1.240 . S
O891 Mn865 2.117 . S
O891 C868 1.264 . S
C892 C885 1.403 . S
C892 C893 1.399 . S
C892 H898 0.929 . S
C893 C873 1.449 . S
C893 C892 1.399 . S
C893 H899 0.930 . S
H894 C874 0.931 . S
H895 C875 0.930 . S
H896 C883 0.931 . S
H897 C884 0.929 . S
H898 C892 0.929 . S
H899 C893 0.930 . S
Mn900 O905 2.095 . S
Mn900 O915 2.162 . S
Mn900 O916 2.297 . S
Mn900 O924 2.385 . S
Mn900 O925 2.209 . S
Mn900 O926 2.094 . S
Mn901 O906 2.121 . S
Mn901 N908 2.257 . S
Mn901 N917 2.282 . S
Mn901 O925 2.215 . S
Mn901 O927 2.117 . S
C902 O924 1.234 . S
C902 O925 1.283 . S
C903 O915 1.281 . S
C903 O916 1.236 . S
C904 O926 1.240 . S
C904 O927 1.264 . S
O905 Mn900 2.095 . S
O905 C914 1.250 . S
O906 Mn901 2.121 . S
O906 C914 1.258 . S
C907 N908 1.326 . S
C907 C911 1.460 . S
C907 H913 0.929 . S
N908 Mn901 2.257 . S
N908 C907 1.326 . S
N908 C912 1.362 . S
C909 C910 1.258 . S
C909 C912 1.431 . S
C909 C929 1.449 . S
C910 C909 1.258 . S
C910 C911 1.477 . S
C910 H930 0.931 . S
C911 C907 1.460 . S
C911 C910 1.477 . S
C911 H931 0.930 . S
C912 N908 1.362 . S
C912 C909 1.431 . S
C912 C922 1.476 . S
H913 C907 0.929 . S
C914 O905 1.250 . S
C914 O906 1.258 . S
O915 Mn900 2.162 . S
O915 C903 1.281 . S
O916 Mn900 2.297 . S
O916 C903 1.236 . S
N917 Mn901 2.282 . S
N917 C918 1.328 . S
N917 C922 1.318 . S
C918 N917 1.328 . S
C918 C919 1.457 . S
C918 H923 0.929 . S
C919 C918 1.457 . S
C919 C920 1.291 . S
C919 H932 0.931 . S
C920 C919 1.291 . S
C920 C921 1.373 . S
C920 H933 0.929 . S
C921 C920 1.373 . S
C921 C922 1.396 . S
C921 C928 1.403 . S
C922 C912 1.476 . S
C922 N917 1.318 . S
C922 C921 1.396 . S
H923 C918 0.929 . S
O924 Mn900 2.385 . S
O924 C902 1.234 . S
O925 Mn900 2.209 . S
O925 Mn901 2.215 . S
O925 C902 1.283 . S
O926 Mn900 2.094 . S
O926 C904 1.240 . S
O927 Mn901 2.117 . S
O927 C904 1.264 . S
C928 C921 1.403 . S
C928 C929 1.399 . S
C928 H934 0.929 . S
C929 C909 1.449 . S
C929 C928 1.399 . S
C929 H935 0.930 . S
H930 C910 0.931 . S
H931 C911 0.930 . S
H932 C919 0.931 . S
H933 C920 0.929 . S
H934 C928 0.929 . S
H935 C929 0.930 . S
Mn936 O941 2.095 . S
Mn936 O951 2.162 . S
Mn936 O952 2.297 . S
Mn936 O960 2.385 . S
Mn936 O961 2.209 . S
Mn936 O962 2.094 . S
Mn937 O942 2.121 . S
Mn937 N944 2.257 . S
Mn937 N953 2.282 . S
Mn937 O961 2.215 . S
Mn937 O963 2.117 . S
C938 O960 1.234 . S
C938 O961 1.283 . S
C939 O951 1.281 . S
C939 O952 1.236 . S
C940 O962 1.240 . S
C940 O963 1.264 . S
O941 Mn936 2.095 . S
O941 C950 1.250 . S
O942 Mn937 2.121 . S
O942 C950 1.258 . S
C943 N944 1.326 . S
C943 C947 1.460 . S
C943 H949 0.929 . S
N944 Mn937 2.257 . S
N944 C943 1.326 . S
N944 C948 1.362 . S
C945 C946 1.258 . S
C945 C948 1.431 . S
C945 C965 1.449 . S
C946 C945 1.258 . S
C946 C947 1.477 . S
C946 H966 0.931 . S
C947 C943 1.460 . S
C947 C946 1.477 . S
C947 H967 0.930 . S
C948 N944 1.362 . S
C948 C945 1.431 . S
C948 C958 1.476 . S
H949 C943 0.929 . S
C950 O941 1.250 . S
C950 O942 1.258 . S
O951 Mn936 2.162 . S
O951 C939 1.281 . S
O952 Mn936 2.297 . S
O952 C939 1.236 . S
N953 Mn937 2.282 . S
N953 C954 1.328 . S
N953 C958 1.318 . S
C954 N953 1.328 . S
C954 C955 1.457 . S
C954 H959 0.929 . S
C955 C954 1.457 . S
C955 C956 1.291 . S
C955 H968 0.931 . S
C956 C955 1.291 . S
C956 C957 1.373 . S
C956 H969 0.929 . S
C957 C956 1.373 . S
C957 C958 1.396 . S
C957 C964 1.403 . S
C958 C948 1.476 . S
C958 N953 1.318 . S
C958 C957 1.396 . S
H959 C954 0.929 . S
O960 Mn936 2.385 . S
O960 C938 1.234 . S
O961 Mn936 2.209 . S
O961 Mn937 2.215 . S
O961 C938 1.283 . S
O962 Mn936 2.094 . S
O962 C940 1.240 . S
O963 Mn937 2.117 . S
O963 C940 1.264 . S
C964 C957 1.403 . S
C964 C965 1.399 . S
C964 H970 0.929 . S
C965 C945 1.449 . S
C965 C964 1.399 . S
C965 H971 0.930 . S
H966 C946 0.931 . S
H967 C947 0.930 . S
H968 C955 0.931 . S
H969 C956 0.929 . S
H970 C964 0.929 . S
H971 C965 0.930 . S
Mn972 O977 2.095 . S
Mn972 O987 2.162 . S
Mn972 O988 2.297 . S
Mn972 O996 2.385 . S
Mn972 O997 2.209 . S
Mn972 O998 2.094 . S
Mn973 O978 2.121 . S
Mn973 N980 2.257 . S
Mn973 N989 2.282 . S
Mn973 O997 2.215 . S
Mn973 O999 2.117 . S
C974 O996 1.234 . S
C974 O997 1.283 . S
C975 O987 1.281 . S
C975 O988 1.236 . S
C976 O998 1.240 . S
C976 O999 1.264 . S
O977 Mn972 2.095 . S
O977 C986 1.250 . S
O978 Mn973 2.121 . S
O978 C986 1.258 . S
C979 N980 1.326 . S
C979 C983 1.460 . S
C979 H985 0.929 . S
N980 Mn973 2.257 . S
N980 C979 1.326 . S
N980 C984 1.362 . S
C981 C982 1.258 . S
C981 C984 1.431 . S
C981 C1001 1.449 . S
C982 C981 1.258 . S
C982 C983 1.477 . S
C982 H1002 0.931 . S
C983 C979 1.460 . S
C983 C982 1.477 . S
C983 H1003 0.930 . S
C984 N980 1.362 . S
C984 C981 1.431 . S
C984 C994 1.476 . S
H985 C979 0.929 . S
C986 O977 1.250 . S
C986 O978 1.258 . S
O987 Mn972 2.162 . S
O987 C975 1.281 . S
O988 Mn972 2.297 . S
O988 C975 1.236 . S
N989 Mn973 2.282 . S
N989 C990 1.328 . S
N989 C994 1.318 . S
C990 N989 1.328 . S
C990 C991 1.457 . S
C990 H995 0.929 . S
C991 C990 1.457 . S
C991 C992 1.291 . S
C991 H1004 0.931 . S
C992 C991 1.291 . S
C992 C993 1.373 . S
C992 H1005 0.929 . S
C993 C992 1.373 . S
C993 C994 1.396 . S
C993 C1000 1.403 . S
C994 C984 1.476 . S
C994 N989 1.318 . S
C994 C993 1.396 . S
H995 C990 0.929 . S
O996 Mn972 2.385 . S
O996 C974 1.234 . S
O997 Mn972 2.209 . S
O997 Mn973 2.215 . S
O997 C974 1.283 . S
O998 Mn972 2.094 . S
O998 C976 1.240 . S
O999 Mn973 2.117 . S
O999 C976 1.264 . S
C1000 C993 1.403 . S
C1000 C1001 1.399 . S
C1000 H1006 0.929 . S
C1001 C981 1.449 . S
C1001 C1000 1.399 . S
C1001 H1007 0.930 . S
H1002 C982 0.931 . S
H1003 C983 0.930 . S
H1004 C991 0.931 . S
H1005 C992 0.929 . S
H1006 C1000 0.929 . S
H1007 C1001 0.930 . S
Mn1008 O1013 2.095 . S
Mn1008 O1023 2.162 . S
Mn1008 O1024 2.297 . S
Mn1008 O1032 2.385 . S
Mn1008 O1033 2.209 . S
Mn1008 O1034 2.094 . S
Mn1009 O1014 2.121 . S
Mn1009 N1016 2.257 . S
Mn1009 N1025 2.282 . S
Mn1009 O1033 2.215 . S
Mn1009 O1035 2.117 . S
C1010 O1032 1.234 . S
C1010 O1033 1.283 . S
C1011 O1023 1.281 . S
C1011 O1024 1.236 . S
C1012 O1034 1.240 . S
C1012 O1035 1.264 . S
O1013 Mn1008 2.095 . S
O1013 C1022 1.250 . S
O1014 Mn1009 2.121 . S
O1014 C1022 1.258 . S
C1015 N1016 1.326 . S
C1015 C1019 1.460 . S
C1015 H1021 0.929 . S
N1016 Mn1009 2.257 . S
N1016 C1015 1.326 . S
N1016 C1020 1.362 . S
C1017 C1018 1.258 . S
C1017 C1020 1.431 . S
C1017 C1037 1.449 . S
C1018 C1017 1.258 . S
C1018 C1019 1.477 . S
C1018 H1038 0.931 . S
C1019 C1015 1.460 . S
C1019 C1018 1.477 . S
C1019 H1039 0.930 . S
C1020 N1016 1.362 . S
C1020 C1017 1.431 . S
C1020 C1030 1.476 . S
H1021 C1015 0.929 . S
C1022 O1013 1.250 . S
C1022 O1014 1.258 . S
O1023 Mn1008 2.162 . S
O1023 C1011 1.281 . S
O1024 Mn1008 2.297 . S
O1024 C1011 1.236 . S
N1025 Mn1009 2.282 . S
N1025 C1026 1.328 . S
N1025 C1030 1.318 . S
C1026 N1025 1.328 . S
C1026 C1027 1.457 . S
C1026 H1031 0.929 . S
C1027 C1026 1.457 . S
C1027 C1028 1.291 . S
C1027 H1040 0.931 . S
C1028 C1027 1.291 . S
C1028 C1029 1.373 . S
C1028 H1041 0.929 . S
C1029 C1028 1.373 . S
C1029 C1030 1.396 . S
C1029 C1036 1.403 . S
C1030 C1020 1.476 . S
C1030 N1025 1.318 . S
C1030 C1029 1.396 . S
H1031 C1026 0.929 . S
O1032 Mn1008 2.385 . S
O1032 C1010 1.234 . S
O1033 Mn1008 2.209 . S
O1033 Mn1009 2.215 . S
O1033 C1010 1.283 . S
O1034 Mn1008 2.094 . S
O1034 C1012 1.240 . S
O1035 Mn1009 2.117 . S
O1035 C1012 1.264 . S
C1036 C1029 1.403 . S
C1036 C1037 1.399 . S
C1036 H1042 0.929 . S
C1037 C1017 1.449 . S
C1037 C1036 1.399 . S
C1037 H1043 0.930 . S
H1038 C1018 0.931 . S
H1039 C1019 0.930 . S
H1040 C1027 0.931 . S
H1041 C1028 0.929 . S
H1042 C1036 0.929 . S
H1043 C1037 0.930 . S
Mn1044 O1049 2.095 . S
Mn1044 O1059 2.162 . S
Mn1044 O1060 2.297 . S
Mn1044 O1068 2.385 . S
Mn1044 O1069 2.209 . S
Mn1044 O1070 2.094 . S
Mn1045 O1050 2.121 . S
Mn1045 N1052 2.257 . S
Mn1045 N1061 2.282 . S
Mn1045 O1069 2.215 . S
Mn1045 O1071 2.117 . S
C1046 O1068 1.234 . S
C1046 O1069 1.283 . S
C1047 O1059 1.281 . S
C1047 O1060 1.236 . S
C1048 O1070 1.240 . S
C1048 O1071 1.264 . S
O1049 Mn1044 2.095 . S
O1049 C1058 1.250 . S
O1050 Mn1045 2.121 . S
O1050 C1058 1.258 . S
C1051 N1052 1.326 . S
C1051 C1055 1.460 . S
C1051 H1057 0.929 . S
N1052 Mn1045 2.257 . S
N1052 C1051 1.326 . S
N1052 C1056 1.362 . S
C1053 C1054 1.258 . S
C1053 C1056 1.431 . S
C1053 C1073 1.449 . S
C1054 C1053 1.258 . S
C1054 C1055 1.477 . S
C1054 H1074 0.931 . S
C1055 C1051 1.460 . S
C1055 C1054 1.477 . S
C1055 H1075 0.930 . S
C1056 N1052 1.362 . S
C1056 C1053 1.431 . S
C1056 C1066 1.476 . S
H1057 C1051 0.929 . S
C1058 O1049 1.250 . S
C1058 O1050 1.258 . S
O1059 Mn1044 2.162 . S
O1059 C1047 1.281 . S
O1060 Mn1044 2.297 . S
O1060 C1047 1.236 . S
N1061 Mn1045 2.282 . S
N1061 C1062 1.328 . S
N1061 C1066 1.318 . S
C1062 N1061 1.328 . S
C1062 C1063 1.457 . S
C1062 H1067 0.929 . S
C1063 C1062 1.457 . S
C1063 C1064 1.291 . S
C1063 H1076 0.931 . S
C1064 C1063 1.291 . S
C1064 C1065 1.373 . S
C1064 H1077 0.929 . S
C1065 C1064 1.373 . S
C1065 C1066 1.396 . S
C1065 C1072 1.403 . S
C1066 C1056 1.476 . S
C1066 N1061 1.318 . S
C1066 C1065 1.396 . S
H1067 C1062 0.929 . S
O1068 Mn1044 2.385 . S
O1068 C1046 1.234 . S
O1069 Mn1044 2.209 . S
O1069 Mn1045 2.215 . S
O1069 C1046 1.283 . S
O1070 Mn1044 2.094 . S
O1070 C1048 1.240 . S
O1071 Mn1045 2.117 . S
O1071 C1048 1.264 . S
C1072 C1065 1.403 . S
C1072 C1073 1.399 . S
C1072 H1078 0.929 . S
C1073 C1053 1.449 . S
C1073 C1072 1.399 . S
C1073 H1079 0.930 . S
H1074 C1054 0.931 . S
H1075 C1055 0.930 . S
H1076 C1063 0.931 . S
H1077 C1064 0.929 . S
H1078 C1072 0.929 . S
H1079 C1073 0.930 . S
Mn1080 O1085 2.095 . S
Mn1080 O1095 2.162 . S
Mn1080 O1096 2.297 . S
Mn1080 O1104 2.385 . S
Mn1080 O1105 2.209 . S
Mn1080 O1106 2.094 . S
Mn1081 O1086 2.121 . S
Mn1081 N1088 2.257 . S
Mn1081 N1097 2.282 . S
Mn1081 O1105 2.215 . S
Mn1081 O1107 2.117 . S
C1082 O1104 1.234 . S
C1082 O1105 1.283 . S
C1083 O1095 1.281 . S
C1083 O1096 1.236 . S
C1084 O1106 1.240 . S
C1084 O1107 1.264 . S
O1085 Mn1080 2.095 . S
O1085 C1094 1.250 . S
O1086 Mn1081 2.121 . S
O1086 C1094 1.258 . S
C1087 N1088 1.326 . S
C1087 C1091 1.460 . S
C1087 H1093 0.929 . S
N1088 Mn1081 2.257 . S
N1088 C1087 1.326 . S
N1088 C1092 1.362 . S
C1089 C1090 1.258 . S
C1089 C1092 1.431 . S
C1089 C1109 1.449 . S
C1090 C1089 1.258 . S
C1090 C1091 1.477 . S
C1090 H1110 0.931 . S
C1091 C1087 1.460 . S
C1091 C1090 1.477 . S
C1091 H1111 0.930 . S
C1092 N1088 1.362 . S
C1092 C1089 1.431 . S
C1092 C1102 1.476 . S
H1093 C1087 0.929 . S
C1094 O1085 1.250 . S
C1094 O1086 1.258 . S
O1095 Mn1080 2.162 . S
O1095 C1083 1.281 . S
O1096 Mn1080 2.297 . S
O1096 C1083 1.236 . S
N1097 Mn1081 2.282 . S
N1097 C1098 1.328 . S
N1097 C1102 1.318 . S
C1098 N1097 1.328 . S
C1098 C1099 1.457 . S
C1098 H1103 0.929 . S
C1099 C1098 1.457 . S
C1099 C1100 1.291 . S
C1099 H1112 0.931 . S
C1100 C1099 1.291 . S
C1100 C1101 1.373 . S
C1100 H1113 0.929 . S
C1101 C1100 1.373 . S
C1101 C1102 1.396 . S
C1101 C1108 1.403 . S
C1102 C1092 1.476 . S
C1102 N1097 1.318 . S
C1102 C1101 1.396 . S
H1103 C1098 0.929 . S
O1104 Mn1080 2.385 . S
O1104 C1082 1.234 . S
O1105 Mn1080 2.209 . S
O1105 Mn1081 2.215 . S
O1105 C1082 1.283 . S
O1106 Mn1080 2.094 . S
O1106 C1084 1.240 . S
O1107 Mn1081 2.117 . S
O1107 C1084 1.264 . S
C1108 C1101 1.403 . S
C1108 C1109 1.399 . S
C1108 H1114 0.929 . S
C1109 C1089 1.449 . S
C1109 C1108 1.399 . S
C1109 H1115 0.930 . S
H1110 C1090 0.931 . S
H1111 C1091 0.930 . S
H1112 C1099 0.931 . S
H1113 C1100 0.929 . S
H1114 C1108 0.929 . S
H1115 C1109 0.930 . S
Mn1116 O1121 2.095 . S
Mn1116 O1131 2.162 . S
Mn1116 O1132 2.297 . S
Mn1116 O1140 2.385 . S
Mn1116 O1141 2.209 . S
Mn1116 O1142 2.094 . S
Mn1117 O1122 2.121 . S
Mn1117 N1124 2.257 . S
Mn1117 N1133 2.282 . S
Mn1117 O1141 2.215 . S
Mn1117 O1143 2.117 . S
C1118 O1140 1.234 . S
C1118 O1141 1.283 . S
C1119 O1131 1.281 . S
C1119 O1132 1.236 . S
C1120 O1142 1.240 . S
C1120 O1143 1.264 . S
O1121 Mn1116 2.095 . S
O1121 C1130 1.250 . S
O1122 Mn1117 2.121 . S
O1122 C1130 1.258 . S
C1123 N1124 1.326 . S
C1123 C1127 1.460 . S
C1123 H1129 0.929 . S
N1124 Mn1117 2.257 . S
N1124 C1123 1.326 . S
N1124 C1128 1.362 . S
C1125 C1126 1.258 . S
C1125 C1128 1.431 . S
C1125 C1145 1.449 . S
C1126 C1125 1.258 . S
C1126 C1127 1.477 . S
C1126 H1146 0.931 . S
C1127 C1123 1.460 . S
C1127 C1126 1.477 . S
C1127 H1147 0.930 . S
C1128 N1124 1.362 . S
C1128 C1125 1.431 . S
C1128 C1138 1.476 . S
H1129 C1123 0.929 . S
C1130 O1121 1.250 . S
C1130 O1122 1.258 . S
O1131 Mn1116 2.162 . S
O1131 C1119 1.281 . S
O1132 Mn1116 2.297 . S
O1132 C1119 1.236 . S
N1133 Mn1117 2.282 . S
N1133 C1134 1.328 . S
N1133 C1138 1.318 . S
C1134 N1133 1.328 . S
C1134 C1135 1.457 . S
C1134 H1139 0.929 . S
C1135 C1134 1.457 . S
C1135 C1136 1.291 . S
C1135 H1148 0.931 . S
C1136 C1135 1.291 . S
C1136 C1137 1.373 . S
C1136 H1149 0.929 . S
C1137 C1136 1.373 . S
C1137 C1138 1.396 . S
C1137 C1144 1.403 . S
C1138 C1128 1.476 . S
C1138 N1133 1.318 . S
C1138 C1137 1.396 . S
H1139 C1134 0.929 . S
O1140 Mn1116 2.385 . S
O1140 C1118 1.234 . S
O1141 Mn1116 2.209 . S
O1141 Mn1117 2.215 . S
O1141 C1118 1.283 . S
O1142 Mn1116 2.094 . S
O1142 C1120 1.240 . S
O1143 Mn1117 2.117 . S
O1143 C1120 1.264 . S
C1144 C1137 1.403 . S
C1144 C1145 1.399 . S
C1144 H1150 0.929 . S
C1145 C1125 1.449 . S
C1145 C1144 1.399 . S
C1145 H1151 0.930 . S
H1146 C1126 0.931 . S
H1147 C1127 0.930 . S
H1148 C1135 0.931 . S
H1149 C1136 0.929 . S
H1150 C1144 0.929 . S
H1151 C1145 0.930 . S
Mn1152 O1157 2.095 . S
Mn1152 O1167 2.162 . S
Mn1152 O1168 2.297 . S
Mn1152 O1176 2.385 . S
Mn1152 O1177 2.209 . S
Mn1152 O1178 2.094 . S
Mn1153 O1158 2.121 . S
Mn1153 N1160 2.257 . S
Mn1153 N1169 2.282 . S
Mn1153 O1177 2.215 . S
Mn1153 O1179 2.117 . S
C1154 O1176 1.234 . S
C1154 O1177 1.283 . S
C1155 O1167 1.281 . S
C1155 O1168 1.236 . S
C1156 O1178 1.240 . S
C1156 O1179 1.264 . S
O1157 Mn1152 2.095 . S
O1157 C1166 1.250 . S
O1158 Mn1153 2.121 . S
O1158 C1166 1.258 . S
C1159 N1160 1.326 . S
C1159 C1163 1.460 . S
C1159 H1165 0.929 . S
N1160 Mn1153 2.257 . S
N1160 C1159 1.326 . S
N1160 C1164 1.362 . S
C1161 C1162 1.258 . S
C1161 C1164 1.431 . S
C1161 C1181 1.449 . S
C1162 C1161 1.258 . S
C1162 C1163 1.477 . S
C1162 H1182 0.931 . S
C1163 C1159 1.460 . S
C1163 C1162 1.477 . S
C1163 H1183 0.930 . S
C1164 N1160 1.362 . S
C1164 C1161 1.431 . S
C1164 C1174 1.476 . S
H1165 C1159 0.929 . S
C1166 O1157 1.250 . S
C1166 O1158 1.258 . S
O1167 Mn1152 2.162 . S
O1167 C1155 1.281 . S
O1168 Mn1152 2.297 . S
O1168 C1155 1.236 . S
N1169 Mn1153 2.282 . S
N1169 C1170 1.328 . S
N1169 C1174 1.318 . S
C1170 N1169 1.328 . S
C1170 C1171 1.457 . S
C1170 H1175 0.929 . S
C1171 C1170 1.457 . S
C1171 C1172 1.291 . S
C1171 H1184 0.931 . S
C1172 C1171 1.291 . S
C1172 C1173 1.373 . S
C1172 H1185 0.929 . S
C1173 C1172 1.373 . S
C1173 C1174 1.396 . S
C1173 C1180 1.403 . S
C1174 C1164 1.476 . S
C1174 N1169 1.318 . S
C1174 C1173 1.396 . S
H1175 C1170 0.929 . S
O1176 Mn1152 2.385 . S
O1176 C1154 1.234 . S
O1177 Mn1152 2.209 . S
O1177 Mn1153 2.215 . S
O1177 C1154 1.283 . S
O1178 Mn1152 2.094 . S
O1178 C1156 1.240 . S
O1179 Mn1153 2.117 . S
O1179 C1156 1.264 . S
C1180 C1173 1.403 . S
C1180 C1181 1.399 . S
C1180 H1186 0.929 . S
C1181 C1161 1.449 . S
C1181 C1180 1.399 . S
C1181 H1187 0.930 . S
H1182 C1162 0.931 . S
H1183 C1163 0.930 . S
H1184 C1171 0.931 . S
H1185 C1172 0.929 . S
H1186 C1180 0.929 . S
H1187 C1181 0.930 . S
Mn1188 O1193 2.095 . S
Mn1188 O1203 2.162 . S
Mn1188 O1204 2.297 . S
Mn1188 O1212 2.385 . S
Mn1188 O1213 2.209 . S
Mn1188 O1214 2.094 . S
Mn1189 O1194 2.121 . S
Mn1189 N1196 2.257 . S
Mn1189 N1205 2.282 . S
Mn1189 O1213 2.215 . S
Mn1189 O1215 2.117 . S
C1190 O1212 1.234 . S
C1190 O1213 1.283 . S
C1191 O1203 1.281 . S
C1191 O1204 1.236 . S
C1192 O1214 1.240 . S
C1192 O1215 1.264 . S
O1193 Mn1188 2.095 . S
O1193 C1202 1.250 . S
O1194 Mn1189 2.121 . S
O1194 C1202 1.258 . S
C1195 N1196 1.326 . S
C1195 C1199 1.460 . S
C1195 H1201 0.929 . S
N1196 Mn1189 2.257 . S
N1196 C1195 1.326 . S
N1196 C1200 1.362 . S
C1197 C1198 1.258 . S
C1197 C1200 1.431 . S
C1197 C1217 1.449 . S
C1198 C1197 1.258 . S
C1198 C1199 1.477 . S
C1198 H1218 0.931 . S
C1199 C1195 1.460 . S
C1199 C1198 1.477 . S
C1199 H1219 0.930 . S
C1200 N1196 1.362 . S
C1200 C1197 1.431 . S
C1200 C1210 1.476 . S
H1201 C1195 0.929 . S
C1202 O1193 1.250 . S
C1202 O1194 1.258 . S
O1203 Mn1188 2.162 . S
O1203 C1191 1.281 . S
O1204 Mn1188 2.297 . S
O1204 C1191 1.236 . S
N1205 Mn1189 2.282 . S
N1205 C1206 1.328 . S
N1205 C1210 1.318 . S
C1206 N1205 1.328 . S
C1206 C1207 1.457 . S
C1206 H1211 0.929 . S
C1207 C1206 1.457 . S
C1207 C1208 1.291 . S
C1207 H1220 0.931 . S
C1208 C1207 1.291 . S
C1208 C1209 1.373 . S
C1208 H1221 0.929 . S
C1209 C1208 1.373 . S
C1209 C1210 1.396 . S
C1209 C1216 1.403 . S
C1210 C1200 1.476 . S
C1210 N1205 1.318 . S
C1210 C1209 1.396 . S
H1211 C1206 0.929 . S
O1212 Mn1188 2.385 . S
O1212 C1190 1.234 . S
O1213 Mn1188 2.209 . S
O1213 Mn1189 2.215 . S
O1213 C1190 1.283 . S
O1214 Mn1188 2.094 . S
O1214 C1192 1.240 . S
O1215 Mn1189 2.117 . S
O1215 C1192 1.264 . S
C1216 C1209 1.403 . S
C1216 C1217 1.399 . S
C1216 H1222 0.929 . S
C1217 C1197 1.449 . S
C1217 C1216 1.399 . S
C1217 H1223 0.930 . S
H1218 C1198 0.931 . S
H1219 C1199 0.930 . S
H1220 C1207 0.931 . S
H1221 C1208 0.929 . S
H1222 C1216 0.929 . S
H1223 C1217 0.930 . S
Mn1224 O1229 2.095 . S
Mn1224 O1239 2.162 . S
Mn1224 O1240 2.297 . S
Mn1224 O1248 2.385 . S
Mn1224 O1249 2.209 . S
Mn1224 O1250 2.094 . S
Mn1225 O1230 2.121 . S
Mn1225 N1232 2.257 . S
Mn1225 N1241 2.282 . S
Mn1225 O1249 2.215 . S
Mn1225 O1251 2.117 . S
C1226 O1248 1.234 . S
C1226 O1249 1.283 . S
C1227 O1239 1.281 . S
C1227 O1240 1.236 . S
C1228 O1250 1.240 . S
C1228 O1251 1.264 . S
O1229 Mn1224 2.095 . S
O1229 C1238 1.250 . S
O1230 Mn1225 2.121 . S
O1230 C1238 1.258 . S
C1231 N1232 1.326 . S
C1231 C1235 1.460 . S
C1231 H1237 0.929 . S
N1232 Mn1225 2.257 . S
N1232 C1231 1.326 . S
N1232 C1236 1.362 . S
C1233 C1234 1.258 . S
C1233 C1236 1.431 . S
C1233 C1253 1.449 . S
C1234 C1233 1.258 . S
C1234 C1235 1.477 . S
C1234 H1254 0.931 . S
C1235 C1231 1.460 . S
C1235 C1234 1.477 . S
C1235 H1255 0.930 . S
C1236 N1232 1.362 . S
C1236 C1233 1.431 . S
C1236 C1246 1.476 . S
H1237 C1231 0.929 . S
C1238 O1229 1.250 . S
C1238 O1230 1.258 . S
O1239 Mn1224 2.162 . S
O1239 C1227 1.281 . S
O1240 Mn1224 2.297 . S
O1240 C1227 1.236 . S
N1241 Mn1225 2.282 . S
N1241 C1242 1.328 . S
N1241 C1246 1.318 . S
C1242 N1241 1.328 . S
C1242 C1243 1.457 . S
C1242 H1247 0.929 . S
C1243 C1242 1.457 . S
C1243 C1244 1.291 . S
C1243 H1256 0.931 . S
C1244 C1243 1.291 . S
C1244 C1245 1.373 . S
C1244 H1257 0.929 . S
C1245 C1244 1.373 . S
C1245 C1246 1.396 . S
C1245 C1252 1.403 . S
C1246 C1236 1.476 . S
C1246 N1241 1.318 . S
C1246 C1245 1.396 . S
H1247 C1242 0.929 . S
O1248 Mn1224 2.385 . S
O1248 C1226 1.234 . S
O1249 Mn1224 2.209 . S
O1249 Mn1225 2.215 . S
O1249 C1226 1.283 . S
O1250 Mn1224 2.094 . S
O1250 C1228 1.240 . S
O1251 Mn1225 2.117 . S
O1251 C1228 1.264 . S
C1252 C1245 1.403 . S
C1252 C1253 1.399 . S
C1252 H1258 0.929 . S
C1253 C1233 1.449 . S
C1253 C1252 1.399 . S
C1253 H1259 0.930 . S
H1254 C1234 0.931 . S
H1255 C1235 0.930 . S
H1256 C1243 0.931 . S
H1257 C1244 0.929 . S
H1258 C1252 0.929 . S
H1259 C1253 0.930 . S
Mn1260 O1265 2.095 . S
Mn1260 O1275 2.162 . S
Mn1260 O1276 2.297 . S
Mn1260 O1284 2.385 . S
Mn1260 O1285 2.209 . S
Mn1260 O1286 2.094 . S
Mn1261 O1266 2.121 . S
Mn1261 N1268 2.257 . S
Mn1261 N1277 2.282 . S
Mn1261 O1285 2.215 . S
Mn1261 O1287 2.117 . S
C1262 O1284 1.234 . S
C1262 O1285 1.283 . S
C1263 O1275 1.281 . S
C1263 O1276 1.236 . S
C1264 O1286 1.240 . S
C1264 O1287 1.264 . S
O1265 Mn1260 2.095 . S
O1265 C1274 1.250 . S
O1266 Mn1261 2.121 . S
O1266 C1274 1.258 . S
C1267 N1268 1.326 . S
C1267 C1271 1.460 . S
C1267 H1273 0.929 . S
N1268 Mn1261 2.257 . S
N1268 C1267 1.326 . S
N1268 C1272 1.362 . S
C1269 C1270 1.258 . S
C1269 C1272 1.431 . S
C1269 C1289 1.449 . S
C1270 C1269 1.258 . S
C1270 C1271 1.477 . S
C1270 H1290 0.931 . S
C1271 C1267 1.460 . S
C1271 C1270 1.477 . S
C1271 H1291 0.930 . S
C1272 N1268 1.362 . S
C1272 C1269 1.431 . S
C1272 C1282 1.476 . S
H1273 C1267 0.929 . S
C1274 O1265 1.250 . S
C1274 O1266 1.258 . S
O1275 Mn1260 2.162 . S
O1275 C1263 1.281 . S
O1276 Mn1260 2.297 . S
O1276 C1263 1.236 . S
N1277 Mn1261 2.282 . S
N1277 C1278 1.328 . S
N1277 C1282 1.318 . S
C1278 N1277 1.328 . S
C1278 C1279 1.457 . S
C1278 H1283 0.929 . S
C1279 C1278 1.457 . S
C1279 C1280 1.291 . S
C1279 H1292 0.931 . S
C1280 C1279 1.291 . S
C1280 C1281 1.373 . S
C1280 H1293 0.929 . S
C1281 C1280 1.373 . S
C1281 C1282 1.396 . S
C1281 C1288 1.403 . S
C1282 C1272 1.476 . S
C1282 N1277 1.318 . S
C1282 C1281 1.396 . S
H1283 C1278 0.929 . S
O1284 Mn1260 2.385 . S
O1284 C1262 1.234 . S
O1285 Mn1260 2.209 . S
O1285 Mn1261 2.215 . S
O1285 C1262 1.283 . S
O1286 Mn1260 2.094 . S
O1286 C1264 1.240 . S
O1287 Mn1261 2.117 . S
O1287 C1264 1.264 . S
C1288 C1281 1.403 . S
C1288 C1289 1.399 . S
C1288 H1294 0.929 . S
C1289 C1269 1.449 . S
C1289 C1288 1.399 . S
C1289 H1295 0.930 . S
H1290 C1270 0.931 . S
H1291 C1271 0.930 . S
H1292 C1279 0.931 . S
H1293 C1280 0.929 . S
H1294 C1288 0.929 . S
H1295 C1289 0.930 . S
Mn1296 O1301 2.095 . S
Mn1296 O1311 2.162 . S
Mn1296 O1312 2.297 . S
Mn1296 O1320 2.385 . S
Mn1296 O1321 2.209 . S
Mn1296 O1322 2.094 . S
Mn1297 O1302 2.121 . S
Mn1297 N1304 2.257 . S
Mn1297 N1313 2.282 . S
Mn1297 O1321 2.215 . S
Mn1297 O1323 2.117 . S
C1298 O1320 1.234 . S
C1298 O1321 1.283 . S
C1299 O1311 1.281 . S
C1299 O1312 1.236 . S
C1300 O1322 1.240 . S
C1300 O1323 1.264 . S
O1301 Mn1296 2.095 . S
O1301 C1310 1.250 . S
O1302 Mn1297 2.121 . S
O1302 C1310 1.258 . S
C1303 N1304 1.326 . S
C1303 C1307 1.460 . S
C1303 H1309 0.929 . S
N1304 Mn1297 2.257 . S
N1304 C1303 1.326 . S
N1304 C1308 1.362 . S
C1305 C1306 1.258 . S
C1305 C1308 1.431 . S
C1305 C1325 1.449 . S
C1306 C1305 1.258 . S
C1306 C1307 1.477 . S
C1306 H1326 0.931 . S
C1307 C1303 1.460 . S
C1307 C1306 1.477 . S
C1307 H1327 0.930 . S
C1308 N1304 1.362 . S
C1308 C1305 1.431 . S
C1308 C1318 1.476 . S
H1309 C1303 0.929 . S
C1310 O1301 1.250 . S
C1310 O1302 1.258 . S
O1311 Mn1296 2.162 . S
O1311 C1299 1.281 . S
O1312 Mn1296 2.297 . S
O1312 C1299 1.236 . S
N1313 Mn1297 2.282 . S
N1313 C1314 1.328 . S
N1313 C1318 1.318 . S
C1314 N1313 1.328 . S
C1314 C1315 1.457 . S
C1314 H1319 0.929 . S
C1315 C1314 1.457 . S
C1315 C1316 1.291 . S
C1315 H1328 0.931 . S
C1316 C1315 1.291 . S
C1316 C1317 1.373 . S
C1316 H1329 0.929 . S
C1317 C1316 1.373 . S
C1317 C1318 1.396 . S
C1317 C1324 1.403 . S
C1318 C1308 1.476 . S
C1318 N1313 1.318 . S
C1318 C1317 1.396 . S
H1319 C1314 0.929 . S
O1320 Mn1296 2.385 . S
O1320 C1298 1.234 . S
O1321 Mn1296 2.209 . S
O1321 Mn1297 2.215 . S
O1321 C1298 1.283 . S
O1322 Mn1296 2.094 . S
O1322 C1300 1.240 . S
O1323 Mn1297 2.117 . S
O1323 C1300 1.264 . S
C1324 C1317 1.403 . S
C1324 C1325 1.399 . S
C1324 H1330 0.929 . S
C1325 C1305 1.449 . S
C1325 C1324 1.399 . S
C1325 H1331 0.930 . S
H1326 C1306 0.931 . S
H1327 C1307 0.930 . S
H1328 C1315 0.931 . S
H1329 C1316 0.929 . S
H1330 C1324 0.929 . S
H1331 C1325 0.930 . S
Mn1332 O1337 2.095 . S
Mn1332 O1347 2.162 . S
Mn1332 O1348 2.297 . S
Mn1332 O1356 2.385 . S
Mn1332 O1357 2.209 . S
Mn1332 O1358 2.094 . S
Mn1333 O1338 2.121 . S
Mn1333 N1340 2.257 . S
Mn1333 N1349 2.282 . S
Mn1333 O1357 2.215 . S
Mn1333 O1359 2.117 . S
C1334 O1356 1.234 . S
C1334 O1357 1.283 . S
C1335 O1347 1.281 . S
C1335 O1348 1.236 . S
C1336 O1358 1.240 . S
C1336 O1359 1.264 . S
O1337 Mn1332 2.095 . S
O1337 C1346 1.250 . S
O1338 Mn1333 2.121 . S
O1338 C1346 1.258 . S
C1339 N1340 1.326 . S
C1339 C1343 1.460 . S
C1339 H1345 0.929 . S
N1340 Mn1333 2.257 . S
N1340 C1339 1.326 . S
N1340 C1344 1.362 . S
C1341 C1342 1.258 . S
C1341 C1344 1.431 . S
C1341 C1361 1.449 . S
C1342 C1341 1.258 . S
C1342 C1343 1.477 . S
C1342 H1362 0.931 . S
C1343 C1339 1.460 . S
C1343 C1342 1.477 . S
C1343 H1363 0.930 . S
C1344 N1340 1.362 . S
C1344 C1341 1.431 . S
C1344 C1354 1.476 . S
H1345 C1339 0.929 . S
C1346 O1337 1.250 . S
C1346 O1338 1.258 . S
O1347 Mn1332 2.162 . S
O1347 C1335 1.281 . S
O1348 Mn1332 2.297 . S
O1348 C1335 1.236 . S
N1349 Mn1333 2.282 . S
N1349 C1350 1.328 . S
N1349 C1354 1.318 . S
C1350 N1349 1.328 . S
C1350 C1351 1.457 . S
C1350 H1355 0.929 . S
C1351 C1350 1.457 . S
C1351 C1352 1.291 . S
C1351 H1364 0.931 . S
C1352 C1351 1.291 . S
C1352 C1353 1.373 . S
C1352 H1365 0.929 . S
C1353 C1352 1.373 . S
C1353 C1354 1.396 . S
C1353 C1360 1.403 . S
C1354 C1344 1.476 . S
C1354 N1349 1.318 . S
C1354 C1353 1.396 . S
H1355 C1350 0.929 . S
O1356 Mn1332 2.385 . S
O1356 C1334 1.234 . S
O1357 Mn1332 2.209 . S
O1357 Mn1333 2.215 . S
O1357 C1334 1.283 . S
O1358 Mn1332 2.094 . S
O1358 C1336 1.240 . S
O1359 Mn1333 2.117 . S
O1359 C1336 1.264 . S
C1360 C1353 1.403 . S
C1360 C1361 1.399 . S
C1360 H1366 0.929 . S
C1361 C1341 1.449 . S
C1361 C1360 1.399 . S
C1361 H1367 0.930 . S
H1362 C1342 0.931 . S
H1363 C1343 0.930 . S
H1364 C1351 0.931 . S
H1365 C1352 0.929 . S
H1366 C1360 0.929 . S
H1367 C1361 0.930 . S
Mn1368 O1373 2.095 . S
Mn1368 O1383 2.162 . S
Mn1368 O1384 2.297 . S
Mn1368 O1392 2.385 . S
Mn1368 O1393 2.209 . S
Mn1368 O1394 2.094 . S
Mn1369 O1374 2.121 . S
Mn1369 N1376 2.257 . S
Mn1369 N1385 2.282 . S
Mn1369 O1393 2.215 . S
Mn1369 O1395 2.117 . S
C1370 O1392 1.234 . S
C1370 O1393 1.283 . S
C1371 O1383 1.281 . S
C1371 O1384 1.236 . S
C1372 O1394 1.240 . S
C1372 O1395 1.264 . S
O1373 Mn1368 2.095 . S
O1373 C1382 1.250 . S
O1374 Mn1369 2.121 . S
O1374 C1382 1.258 . S
C1375 N1376 1.326 . S
C1375 C1379 1.460 . S
C1375 H1381 0.929 . S
N1376 Mn1369 2.257 . S
N1376 C1375 1.326 . S
N1376 C1380 1.362 . S
C1377 C1378 1.258 . S
C1377 C1380 1.431 . S
C1377 C1397 1.449 . S
C1378 C1377 1.258 . S
C1378 C1379 1.477 . S
C1378 H1398 0.931 . S
C1379 C1375 1.460 . S
C1379 C1378 1.477 . S
C1379 H1399 0.930 . S
C1380 N1376 1.362 . S
C1380 C1377 1.431 . S
C1380 C1390 1.476 . S
H1381 C1375 0.929 . S
C1382 O1373 1.250 . S
C1382 O1374 1.258 . S
O1383 Mn1368 2.162 . S
O1383 C1371 1.281 . S
O1384 Mn1368 2.297 . S
O1384 C1371 1.236 . S
N1385 Mn1369 2.282 . S
N1385 C1386 1.328 . S
N1385 C1390 1.318 . S
C1386 N1385 1.328 . S
C1386 C1387 1.457 . S
C1386 H1391 0.929 . S
C1387 C1386 1.457 . S
C1387 C1388 1.291 . S
C1387 H1400 0.931 . S
C1388 C1387 1.291 . S
C1388 C1389 1.373 . S
C1388 H1401 0.929 . S
C1389 C1388 1.373 . S
C1389 C1390 1.396 . S
C1389 C1396 1.403 . S
C1390 C1380 1.476 . S
C1390 N1385 1.318 . S
C1390 C1389 1.396 . S
H1391 C1386 0.929 . S
O1392 Mn1368 2.385 . S
O1392 C1370 1.234 . S
O1393 Mn1368 2.209 . S
O1393 Mn1369 2.215 . S
O1393 C1370 1.283 . S
O1394 Mn1368 2.094 . S
O1394 C1372 1.240 . S
O1395 Mn1369 2.117 . S
O1395 C1372 1.264 . S
C1396 C1389 1.403 . S
C1396 C1397 1.399 . S
C1396 H1402 0.929 . S
C1397 C1377 1.449 . S
C1397 C1396 1.399 . S
C1397 H1403 0.930 . S
H1398 C1378 0.931 . S
H1399 C1379 0.930 . S
H1400 C1387 0.931 . S
H1401 C1388 0.929 . S
H1402 C1396 0.929 . S
H1403 C1397 0.930 . S
Mn1404 O1409 2.095 . S
Mn1404 O1419 2.162 . S
Mn1404 O1420 2.297 . S
Mn1404 O1428 2.385 . S
Mn1404 O1429 2.209 . S
Mn1404 O1430 2.094 . S
Mn1405 O1410 2.121 . S
Mn1405 N1412 2.257 . S
Mn1405 N1421 2.282 . S
Mn1405 O1429 2.215 . S
Mn1405 O1431 2.117 . S
C1406 O1428 1.234 . S
C1406 O1429 1.283 . S
C1407 O1419 1.281 . S
C1407 O1420 1.236 . S
C1408 O1430 1.240 . S
C1408 O1431 1.264 . S
O1409 Mn1404 2.095 . S
O1409 C1418 1.250 . S
O1410 Mn1405 2.121 . S
O1410 C1418 1.258 . S
C1411 N1412 1.326 . S
C1411 C1415 1.460 . S
C1411 H1417 0.929 . S
N1412 Mn1405 2.257 . S
N1412 C1411 1.326 . S
N1412 C1416 1.362 . S
C1413 C1414 1.258 . S
C1413 C1416 1.431 . S
C1413 C1433 1.449 . S
C1414 C1413 1.258 . S
C1414 C1415 1.477 . S
C1414 H1434 0.931 . S
C1415 C1411 1.460 . S
C1415 C1414 1.477 . S
C1415 H1435 0.930 . S
C1416 N1412 1.362 . S
C1416 C1413 1.431 . S
C1416 C1426 1.476 . S
H1417 C1411 0.929 . S
C1418 O1409 1.250 . S
C1418 O1410 1.258 . S
O1419 Mn1404 2.162 . S
O1419 C1407 1.281 . S
O1420 Mn1404 2.297 . S
O1420 C1407 1.236 . S
N1421 Mn1405 2.282 . S
N1421 C1422 1.328 . S
N1421 C1426 1.318 . S
C1422 N1421 1.328 . S
C1422 C1423 1.457 . S
C1422 H1427 0.929 . S
C1423 C1422 1.457 . S
C1423 C1424 1.291 . S
C1423 H1436 0.931 . S
C1424 C1423 1.291 . S
C1424 C1425 1.373 . S
C1424 H1437 0.929 . S
C1425 C1424 1.373 . S
C1425 C1426 1.396 . S
C1425 C1432 1.403 . S
C1426 C1416 1.476 . S
C1426 N1421 1.318 . S
C1426 C1425 1.396 . S
H1427 C1422 0.929 . S
O1428 Mn1404 2.385 . S
O1428 C1406 1.234 . S
O1429 Mn1404 2.209 . S
O1429 Mn1405 2.215 . S
O1429 C1406 1.283 . S
O1430 Mn1404 2.094 . S
O1430 C1408 1.240 . S
O1431 Mn1405 2.117 . S
O1431 C1408 1.264 . S
C1432 C1425 1.403 . S
C1432 C1433 1.399 . S
C1432 H1438 0.929 . S
C1433 C1413 1.449 . S
C1433 C1432 1.399 . S
C1433 H1439 0.930 . S
H1434 C1414 0.931 . S
H1435 C1415 0.930 . S
H1436 C1423 0.931 . S
H1437 C1424 0.929 . S
H1438 C1432 0.929 . S
H1439 C1433 0.930 . S
Mn1440 O1445 2.095 . S
Mn1440 O1455 2.162 . S
Mn1440 O1456 2.297 . S
Mn1440 O1464 2.385 . S
Mn1440 O1465 2.209 . S
Mn1440 O1466 2.094 . S
Mn1441 O1446 2.121 . S
Mn1441 N1448 2.257 . S
Mn1441 N1457 2.282 . S
Mn1441 O1465 2.215 . S
Mn1441 O1467 2.117 . S
C1442 O1464 1.234 . S
C1442 O1465 1.283 . S
C1443 O1455 1.281 . S
C1443 O1456 1.236 . S
C1444 O1466 1.240 . S
C1444 O1467 1.264 . S
O1445 Mn1440 2.095 . S
O1445 C1454 1.250 . S
O1446 Mn1441 2.121 . S
O1446 C1454 1.258 . S
C1447 N1448 1.326 . S
C1447 C1451 1.460 . S
C1447 H1453 0.929 . S
N1448 Mn1441 2.257 . S
N1448 C1447 1.326 . S
N1448 C1452 1.362 . S
C1449 C1450 1.258 . S
C1449 C1452 1.431 . S
C1449 C1469 1.449 . S
C1450 C1449 1.258 . S
C1450 C1451 1.477 . S
C1450 H1470 0.931 . S
C1451 C1447 1.460 . S
C1451 C1450 1.477 . S
C1451 H1471 0.930 . S
C1452 N1448 1.362 . S
C1452 C1449 1.431 . S
C1452 C1462 1.476 . S
H1453 C1447 0.929 . S
C1454 O1445 1.250 . S
C1454 O1446 1.258 . S
O1455 Mn1440 2.162 . S
O1455 C1443 1.281 . S
O1456 Mn1440 2.297 . S
O1456 C1443 1.236 . S
N1457 Mn1441 2.282 . S
N1457 C1458 1.328 . S
N1457 C1462 1.318 . S
C1458 N1457 1.328 . S
C1458 C1459 1.457 . S
C1458 H1463 0.929 . S
C1459 C1458 1.457 . S
C1459 C1460 1.291 . S
C1459 H1472 0.931 . S
C1460 C1459 1.291 . S
C1460 C1461 1.373 . S
C1460 H1473 0.929 . S
C1461 C1460 1.373 . S
C1461 C1462 1.396 . S
C1461 C1468 1.403 . S
C1462 C1452 1.476 . S
C1462 N1457 1.318 . S
C1462 C1461 1.396 . S
H1463 C1458 0.929 . S
O1464 Mn1440 2.385 . S
O1464 C1442 1.234 . S
O1465 Mn1440 2.209 . S
O1465 Mn1441 2.215 . S
O1465 C1442 1.283 . S
O1466 Mn1440 2.094 . S
O1466 C1444 1.240 . S
O1467 Mn1441 2.117 . S
O1467 C1444 1.264 . S
C1468 C1461 1.403 . S
C1468 C1469 1.399 . S
C1468 H1474 0.929 . S
C1469 C1449 1.449 . S
C1469 C1468 1.399 . S
C1469 H1475 0.930 . S
H1470 C1450 0.931 . S
H1471 C1451 0.930 . S
H1472 C1459 0.931 . S
H1473 C1460 0.929 . S
H1474 C1468 0.929 . S
H1475 C1469 0.930 . S
Mn1476 O1481 2.095 . S
Mn1476 O1491 2.162 . S
Mn1476 O1492 2.297 . S
Mn1476 O1500 2.385 . S
Mn1476 O1501 2.209 . S
Mn1476 O1502 2.094 . S
Mn1477 O1482 2.121 . S
Mn1477 N1484 2.257 . S
Mn1477 N1493 2.282 . S
Mn1477 O1501 2.215 . S
Mn1477 O1503 2.117 . S
C1478 O1500 1.234 . S
C1478 O1501 1.283 . S
C1479 O1491 1.281 . S
C1479 O1492 1.236 . S
C1480 O1502 1.240 . S
C1480 O1503 1.264 . S
O1481 Mn1476 2.095 . S
O1481 C1490 1.250 . S
O1482 Mn1477 2.121 . S
O1482 C1490 1.258 . S
C1483 N1484 1.326 . S
C1483 C1487 1.460 . S
C1483 H1489 0.929 . S
N1484 Mn1477 2.257 . S
N1484 C1483 1.326 . S
N1484 C1488 1.362 . S
C1485 C1486 1.258 . S
C1485 C1488 1.431 . S
C1485 C1505 1.449 . S
C1486 C1485 1.258 . S
C1486 C1487 1.477 . S
C1486 H1506 0.931 . S
C1487 C1483 1.460 . S
C1487 C1486 1.477 . S
C1487 H1507 0.930 . S
C1488 N1484 1.362 . S
C1488 C1485 1.431 . S
C1488 C1498 1.476 . S
H1489 C1483 0.929 . S
C1490 O1481 1.250 . S
C1490 O1482 1.258 . S
O1491 Mn1476 2.162 . S
O1491 C1479 1.281 . S
O1492 Mn1476 2.297 . S
O1492 C1479 1.236 . S
N1493 Mn1477 2.282 . S
N1493 C1494 1.328 . S
N1493 C1498 1.318 . S
C1494 N1493 1.328 . S
C1494 C1495 1.457 . S
C1494 H1499 0.929 . S
C1495 C1494 1.457 . S
C1495 C1496 1.291 . S
C1495 H1508 0.931 . S
C1496 C1495 1.291 . S
C1496 C1497 1.373 . S
C1496 H1509 0.929 . S
C1497 C1496 1.373 . S
C1497 C1498 1.396 . S
C1497 C1504 1.403 . S
C1498 C1488 1.476 . S
C1498 N1493 1.318 . S
C1498 C1497 1.396 . S
H1499 C1494 0.929 . S
O1500 Mn1476 2.385 . S
O1500 C1478 1.234 . S
O1501 Mn1476 2.209 . S
O1501 Mn1477 2.215 . S
O1501 C1478 1.283 . S
O1502 Mn1476 2.094 . S
O1502 C1480 1.240 . S
O1503 Mn1477 2.117 . S
O1503 C1480 1.264 . S
C1504 C1497 1.403 . S
C1504 C1505 1.399 . S
C1504 H1510 0.929 . S
C1505 C1485 1.449 . S
C1505 C1504 1.399 . S
C1505 H1511 0.930 . S
H1506 C1486 0.931 . S
H1507 C1487 0.930 . S
H1508 C1495 0.931 . S
H1509 C1496 0.929 . S
H1510 C1504 0.929 . S
H1511 C1505 0.930 . S
Mn1512 O1517 2.095 . S
Mn1512 O1527 2.162 . S
Mn1512 O1528 2.297 . S
Mn1512 O1536 2.385 . S
Mn1512 O1537 2.209 . S
Mn1512 O1538 2.094 . S
Mn1513 O1518 2.121 . S
Mn1513 N1520 2.257 . S
Mn1513 N1529 2.282 . S
Mn1513 O1537 2.215 . S
Mn1513 O1539 2.117 . S
C1514 O1536 1.234 . S
C1514 O1537 1.283 . S
C1515 O1527 1.281 . S
C1515 O1528 1.236 . S
C1516 O1538 1.240 . S
C1516 O1539 1.264 . S
O1517 Mn1512 2.095 . S
O1517 C1526 1.250 . S
O1518 Mn1513 2.121 . S
O1518 C1526 1.258 . S
C1519 N1520 1.326 . S
C1519 C1523 1.460 . S
C1519 H1525 0.929 . S
N1520 Mn1513 2.257 . S
N1520 C1519 1.326 . S
N1520 C1524 1.362 . S
C1521 C1522 1.255 1_455 S
C1521 C1524 1.457 . S
C1521 C1541 1.426 1_455 S
C1522 C1521 1.255 1_655 S
C1522 C1523 1.477 1_655 S
C1522 H1542 0.931 . S
C1523 C1519 1.460 . S
C1523 C1522 1.477 1_455 S
C1523 H1543 0.930 . S
C1524 N1520 1.362 . S
C1524 C1521 1.457 . S
C1524 C1534 1.476 . S
H1525 C1519 0.929 . S
C1526 O1517 1.250 . S
C1526 O1518 1.258 . S
O1527 Mn1512 2.162 . S
O1527 C1515 1.281 . S
O1528 Mn1512 2.297 . S
O1528 C1515 1.236 . S
N1529 Mn1513 2.282 . S
N1529 C1530 1.328 . S
N1529 C1534 1.318 . S
C1530 N1529 1.328 . S
C1530 C1531 1.457 . S
C1530 H1535 0.929 . S
C1531 C1530 1.457 . S
C1531 C1532 1.291 . S
C1531 H1544 0.931 . S
C1532 C1531 1.291 . S
C1532 C1533 1.373 . S
C1532 H1545 0.929 1_455 S
C1533 C1532 1.373 . S
C1533 C1534 1.396 . S
C1533 C1540 1.403 1_455 S
C1534 C1524 1.476 . S
C1534 N1529 1.318 . S
C1534 C1533 1.396 . S
H1535 C1530 0.929 . S
O1536 Mn1512 2.385 . S
O1536 C1514 1.234 . S
O1537 Mn1512 2.209 . S
O1537 Mn1513 2.215 . S
O1537 C1514 1.283 . S
O1538 Mn1512 2.094 . S
O1538 C1516 1.240 . S
O1539 Mn1513 2.117 . S
O1539 C1516 1.264 . S
C1540 C1533 1.403 1_655 S
C1540 C1541 1.399 . S
C1540 H1546 0.929 . S
C1541 C1521 1.426 1_655 S
C1541 C1540 1.399 . S
C1541 H1547 0.930 . S
H1542 C1522 0.931 . S
H1543 C1523 0.930 . S
H1544 C1531 0.931 . S
H1545 C1532 0.929 1_655 S
H1546 C1540 0.929 . S
H1547 C1541 0.930 . S
Mn1548 O1553 2.095 . S
Mn1548 O1563 2.162 . S
Mn1548 O1564 2.297 . S
Mn1548 O1572 2.385 . S
Mn1548 O1573 2.209 . S
Mn1548 O1574 2.094 . S
Mn1549 O1554 2.121 . S
Mn1549 N1556 2.257 . S
Mn1549 N1565 2.282 . S
Mn1549 O1573 2.215 . S
Mn1549 O1575 2.117 . S
C1550 O1572 1.234 . S
C1550 O1573 1.283 . S
C1551 O1563 1.281 . S
C1551 O1564 1.236 . S
C1552 O1574 1.240 . S
C1552 O1575 1.264 . S
O1553 Mn1548 2.095 . S
O1553 C1562 1.250 . S
O1554 Mn1549 2.121 . S
O1554 C1562 1.258 . S
C1555 N1556 1.326 . S
C1555 C1559 1.460 . S
C1555 H1561 0.929 . S
N1556 Mn1549 2.257 . S
N1556 C1555 1.326 . S
N1556 C1560 1.362 . S
C1557 C1558 1.258 . S
C1557 C1560 1.431 . S
C1557 C1577 1.449 . S
C1558 C1557 1.258 . S
C1558 C1559 1.477 . S
C1558 H1578 0.931 . S
C1559 C1555 1.460 . S
C1559 C1558 1.477 . S
C1559 H1579 0.930 . S
C1560 N1556 1.362 . S
C1560 C1557 1.431 . S
C1560 C1570 1.476 . S
H1561 C1555 0.929 . S
C1562 O1553 1.250 . S
C1562 O1554 1.258 . S
O1563 Mn1548 2.162 . S
O1563 C1551 1.281 . S
O1564 Mn1548 2.297 . S
O1564 C1551 1.236 . S
N1565 Mn1549 2.282 . S
N1565 C1566 1.328 . S
N1565 C1570 1.318 . S
C1566 N1565 1.328 . S
C1566 C1567 1.457 . S
C1566 H1571 0.929 . S
C1567 C1566 1.457 . S
C1567 C1568 1.291 . S
C1567 H1580 0.931 . S
C1568 C1567 1.291 . S
C1568 C1569 1.373 . S
C1568 H1581 0.929 . S
C1569 C1568 1.373 . S
C1569 C1570 1.396 . S
C1569 C1576 1.403 . S
C1570 C1560 1.476 . S
C1570 N1565 1.318 . S
C1570 C1569 1.396 . S
H1571 C1566 0.929 . S
O1572 Mn1548 2.385 . S
O1572 C1550 1.234 . S
O1573 Mn1548 2.209 . S
O1573 Mn1549 2.215 . S
O1573 C1550 1.283 . S
O1574 Mn1548 2.094 . S
O1574 C1552 1.240 . S
O1575 Mn1549 2.117 . S
O1575 C1552 1.264 . S
C1576 C1569 1.403 . S
C1576 C1577 1.399 . S
C1576 H1582 0.929 . S
C1577 C1557 1.449 . S
C1577 C1576 1.399 . S
C1577 H1583 0.930 . S
H1578 C1558 0.931 . S
H1579 C1559 0.930 . S
H1580 C1567 0.931 . S
H1581 C1568 0.929 . S
H1582 C1576 0.929 . S
H1583 C1577 0.930 . S
Mn1584 O1589 2.095 . S
Mn1584 O1599 2.162 . S
Mn1584 O1600 2.297 . S
Mn1584 O1608 2.385 . S
Mn1584 O1609 2.209 . S
Mn1584 O1610 2.094 . S
Mn1585 O1590 2.121 . S
Mn1585 N1592 2.257 . S
Mn1585 N1601 2.282 . S
Mn1585 O1609 2.215 . S
Mn1585 O1611 2.117 . S
C1586 O1608 1.234 . S
C1586 O1609 1.283 . S
C1587 O1599 1.281 . S
C1587 O1600 1.236 . S
C1588 O1610 1.240 . S
C1588 O1611 1.264 . S
O1589 Mn1584 2.095 . S
O1589 C1598 1.250 . S
O1590 Mn1585 2.121 . S
O1590 C1598 1.258 . S
C1591 N1592 1.326 . S
C1591 C1595 1.460 . S
C1591 H1597 0.929 . S
N1592 Mn1585 2.257 . S
N1592 C1591 1.326 . S
N1592 C1596 1.362 . S
C1593 C1594 1.258 . S
C1593 C1596 1.431 . S
C1593 C1613 1.449 1_455 S
C1594 C1593 1.258 . S
C1594 C1595 1.480 . S
C1594 H1614 0.927 1_455 S
C1595 C1591 1.460 . S
C1595 C1594 1.480 . S
C1595 H1615 0.930 . S
C1596 N1592 1.362 . S
C1596 C1593 1.431 . S
C1596 C1606 1.476 . S
H1597 C1591 0.929 . S
C1598 O1589 1.250 . S
C1598 O1590 1.258 . S
O1599 Mn1584 2.162 . S
O1599 C1587 1.281 . S
O1600 Mn1584 2.297 . S
O1600 C1587 1.236 . S
N1601 Mn1585 2.282 . S
N1601 C1602 1.328 . S
N1601 C1606 1.318 . S
C1602 N1601 1.328 . S
C1602 C1603 1.457 . S
C1602 H1607 0.929 . S
C1603 C1602 1.457 . S
C1603 C1604 1.291 . S
C1603 H1616 0.931 . S
C1604 C1603 1.291 . S
C1604 C1605 1.373 . S
C1604 H1617 0.929 1_455 S
C1605 C1604 1.373 . S
C1605 C1606 1.396 . S
C1605 C1612 1.403 1_455 S
C1606 C1596 1.476 . S
C1606 N1601 1.318 . S
C1606 C1605 1.396 . S
H1607 C1602 0.929 . S
O1608 Mn1584 2.385 . S
O1608 C1586 1.234 . S
O1609 Mn1584 2.209 . S
O1609 Mn1585 2.215 . S
O1609 C1586 1.283 . S
O1610 Mn1584 2.094 . S
O1610 C1588 1.240 . S
O1611 Mn1585 2.117 . S
O1611 C1588 1.264 . S
C1612 C1605 1.403 1_655 S
C1612 C1613 1.399 . S
C1612 H1618 0.929 . S
C1613 C1593 1.449 1_655 S
C1613 C1612 1.399 . S
C1613 H1619 0.930 . S
H1614 C1594 0.927 1_655 S
H1615 C1595 0.930 . S
H1616 C1603 0.931 . S
H1617 C1604 0.929 1_655 S
H1618 C1612 0.929 . S
H1619 C1613 0.930 . S
Mn1620 O1625 2.095 . S
Mn1620 O1635 2.162 . S
Mn1620 O1636 2.297 . S
Mn1620 O1644 2.385 . S
Mn1620 O1645 2.209 . S
Mn1620 O1646 2.094 . S
Mn1621 O1626 2.121 . S
Mn1621 N1628 2.257 . S
Mn1621 N1637 2.282 . S
Mn1621 O1645 2.215 . S
Mn1621 O1647 2.117 . S
C1622 O1644 1.234 . S
C1622 O1645 1.283 . S
C1623 O1635 1.281 . S
C1623 O1636 1.236 . S
C1624 O1646 1.240 . S
C1624 O1647 1.264 . S
O1625 Mn1620 2.095 . S
O1625 C1634 1.250 . S
O1626 Mn1621 2.121 . S
O1626 C1634 1.258 . S
C1627 N1628 1.326 . S
C1627 C1631 1.460 . S
C1627 H1633 0.929 . S
N1628 Mn1621 2.257 . S
N1628 C1627 1.326 . S
N1628 C1632 1.362 . S
C1629 C1630 1.258 . S
C1629 C1632 1.431 . S
C1629 C1649 1.449 . S
C1630 C1629 1.258 . S
C1630 C1631 1.477 . S
C1630 H1650 0.931 . S
C1631 C1627 1.460 . S
C1631 C1630 1.477 . S
C1631 H1651 0.930 . S
C1632 N1628 1.362 . S
C1632 C1629 1.431 . S
C1632 C1642 1.476 . S
H1633 C1627 0.929 . S
C1634 O1625 1.250 . S
C1634 O1626 1.258 . S
O1635 Mn1620 2.162 . S
O1635 C1623 1.281 . S
O1636 Mn1620 2.297 . S
O1636 C1623 1.236 . S
N1637 Mn1621 2.282 . S
N1637 C1638 1.328 . S
N1637 C1642 1.318 . S
C1638 N1637 1.328 . S
C1638 C1639 1.457 . S
C1638 H1643 0.929 . S
C1639 C1638 1.457 . S
C1639 C1640 1.291 . S
C1639 H1652 0.931 . S
C1640 C1639 1.291 . S
C1640 C1641 1.373 . S
C1640 H1653 0.929 . S
C1641 C1640 1.373 . S
C1641 C1642 1.396 . S
C1641 C1648 1.403 . S
C1642 C1632 1.476 . S
C1642 N1637 1.318 . S
C1642 C1641 1.396 . S
H1643 C1638 0.929 . S
O1644 Mn1620 2.385 . S
O1644 C1622 1.234 . S
O1645 Mn1620 2.209 . S
O1645 Mn1621 2.215 . S
O1645 C1622 1.283 . S
O1646 Mn1620 2.094 . S
O1646 C1624 1.240 . S
O1647 Mn1621 2.117 . S
O1647 C1624 1.264 . S
C1648 C1641 1.403 . S
C1648 C1649 1.399 . S
C1648 H1654 0.929 . S
C1649 C1629 1.449 . S
C1649 C1648 1.399 . S
C1649 H1655 0.930 . S
H1650 C1630 0.931 . S
H1651 C1631 0.930 . S
H1652 C1639 0.931 . S
H1653 C1640 0.929 . S
H1654 C1648 0.929 . S
H1655 C1649 0.930 . S
Mn1656 O1661 2.095 . S
Mn1656 O1671 2.162 . S
Mn1656 O1672 2.297 . S
Mn1656 O1680 2.385 . S
Mn1656 O1681 2.209 . S
Mn1656 O1682 2.094 . S
Mn1657 O1662 2.121 . S
Mn1657 N1664 2.257 . S
Mn1657 N1673 2.282 . S
Mn1657 O1681 2.215 . S
Mn1657 O1683 2.117 . S
C1658 O1680 1.234 . S
C1658 O1681 1.283 . S
C1659 O1671 1.281 . S
C1659 O1672 1.236 . S
C1660 O1682 1.240 . S
C1660 O1683 1.264 . S
O1661 Mn1656 2.095 . S
O1661 C1670 1.250 . S
O1662 Mn1657 2.121 . S
O1662 C1670 1.258 . S
C1663 N1664 1.326 . S
C1663 C1667 1.460 . S
C1663 H1669 0.929 . S
N1664 Mn1657 2.257 . S
N1664 C1663 1.326 . S
N1664 C1668 1.362 . S
C1665 C1666 1.258 . S
C1665 C1668 1.431 . S
C1665 C1685 1.449 . S
C1666 C1665 1.258 . S
C1666 C1667 1.477 . S
C1666 H1686 0.931 . S
C1667 C1663 1.460 . S
C1667 C1666 1.477 . S
C1667 H1687 0.930 . S
C1668 N1664 1.362 . S
C1668 C1665 1.431 . S
C1668 C1678 1.476 . S
H1669 C1663 0.929 . S
C1670 O1661 1.250 . S
C1670 O1662 1.258 . S
O1671 Mn1656 2.162 . S
O1671 C1659 1.281 . S
O1672 Mn1656 2.297 . S
O1672 C1659 1.236 . S
N1673 Mn1657 2.282 . S
N1673 C1674 1.328 . S
N1673 C1678 1.318 . S
C1674 N1673 1.328 . S
C1674 C1675 1.457 . S
C1674 H1679 0.929 . S
C1675 C1674 1.457 . S
C1675 C1676 1.291 . S
C1675 H1688 0.931 . S
C1676 C1675 1.291 . S
C1676 C1677 1.373 . S
C1676 H1689 0.929 . S
C1677 C1676 1.373 . S
C1677 C1678 1.396 . S
C1677 C1684 1.403 . S
C1678 C1668 1.476 . S
C1678 N1673 1.318 . S
C1678 C1677 1.396 . S
H1679 C1674 0.929 . S
O1680 Mn1656 2.385 . S
O1680 C1658 1.234 . S
O1681 Mn1656 2.209 . S
O1681 Mn1657 2.215 . S
O1681 C1658 1.283 . S
O1682 Mn1656 2.094 . S
O1682 C1660 1.240 . S
O1683 Mn1657 2.117 . S
O1683 C1660 1.264 . S
C1684 C1677 1.403 . S
C1684 C1685 1.399 . S
C1684 H1690 0.929 . S
C1685 C1665 1.449 . S
C1685 C1684 1.399 . S
C1685 H1691 0.930 . S
H1686 C1666 0.931 . S
H1687 C1667 0.930 . S
H1688 C1675 0.931 . S
H1689 C1676 0.929 . S
H1690 C1684 0.929 . S
H1691 C1685 0.930 . S
Mn1692 O1697 2.095 . S
Mn1692 O1707 2.162 . S
Mn1692 O1708 2.297 . S
Mn1692 O1716 2.385 . S
Mn1692 O1717 2.209 . S
Mn1692 O1718 2.094 . S
Mn1693 O1698 2.121 . S
Mn1693 N1700 2.257 . S
Mn1693 N1709 2.282 . S
Mn1693 O1717 2.215 . S
Mn1693 O1719 2.117 . S
C1694 O1716 1.234 . S
C1694 O1717 1.283 . S
C1695 O1707 1.281 . S
C1695 O1708 1.236 . S
C1696 O1718 1.240 . S
C1696 O1719 1.264 . S
O1697 Mn1692 2.095 . S
O1697 C1706 1.250 . S
O1698 Mn1693 2.121 . S
O1698 C1706 1.258 . S
C1699 N1700 1.326 . S
C1699 C1703 1.460 . S
C1699 H1705 0.929 . S
N1700 Mn1693 2.257 . S
N1700 C1699 1.326 . S
N1700 C1704 1.362 . S
C1701 C1702 1.258 . S
C1701 C1704 1.431 . S
C1701 C1721 1.449 . S
C1702 C1701 1.258 . S
C1702 C1703 1.477 . S
C1702 H1722 0.931 . S
C1703 C1699 1.460 . S
C1703 C1702 1.477 . S
C1703 H1723 0.930 . S
C1704 N1700 1.362 . S
C1704 C1701 1.431 . S
C1704 C1714 1.476 . S
H1705 C1699 0.929 . S
C1706 O1697 1.250 . S
C1706 O1698 1.258 . S
O1707 Mn1692 2.162 . S
O1707 C1695 1.281 . S
O1708 Mn1692 2.297 . S
O1708 C1695 1.236 . S
N1709 Mn1693 2.282 . S
N1709 C1710 1.328 . S
N1709 C1714 1.318 . S
C1710 N1709 1.328 . S
C1710 C1711 1.457 . S
C1710 H1715 0.929 . S
C1711 C1710 1.457 . S
C1711 C1712 1.291 . S
C1711 H1724 0.931 . S
C1712 C1711 1.291 . S
C1712 C1713 1.373 . S
C1712 H1725 0.929 . S
C1713 C1712 1.373 . S
C1713 C1714 1.396 . S
C1713 C1720 1.403 . S
C1714 C1704 1.476 . S
C1714 N1709 1.318 . S
C1714 C1713 1.396 . S
H1715 C1710 0.929 . S
O1716 Mn1692 2.385 . S
O1716 C1694 1.234 . S
O1717 Mn1692 2.209 . S
O1717 Mn1693 2.215 . S
O1717 C1694 1.283 . S
O1718 Mn1692 2.094 . S
O1718 C1696 1.240 . S
O1719 Mn1693 2.117 . S
O1719 C1696 1.264 . S
C1720 C1713 1.403 . S
C1720 C1721 1.399 . S
C1720 H1726 0.929 . S
C1721 C1701 1.449 . S
C1721 C1720 1.399 . S
C1721 H1727 0.930 . S
H1722 C1702 0.931 . S
H1723 C1703 0.930 . S
H1724 C1711 0.931 . S
H1725 C1712 0.929 . S
H1726 C1720 0.929 . S
H1727 C1721 0.930 . S
H1728 C1736 0.950 . S
H1729 C1741 0.950 . S
H1730 C1738 0.950 . S
H1731 C1740 0.950 . S
H1732 C1742 0.950 . S
H1733 C1744 0.950 . S
H1734 C1746 0.950 . S
H1735 C1747 0.950 . S
C1736 H1728 0.950 . S
C1736 C1737 1.386 . S
C1736 C1738 1.391 . S
C1737 C1736 1.386 . S
C1737 C1741 1.393 . S
C1738 H1730 0.950 . S
C1738 C1736 1.391 . S
C1738 C1739 1.400 . S
C1739 C1738 1.400 . S
C1739 C1740 1.398 . S
C1739 C1745 1.491 . S
C1740 H1731 0.950 . S
C1740 C1739 1.398 . S
C1740 C1741 1.391 . S
C1741 H1729 0.950 . S
C1741 C1737 1.393 . S
C1741 C1740 1.391 . S
C1742 H1732 0.950 . S
C1742 C1743 1.386 . S
C1742 C1744 1.391 . S
C1743 C1742 1.386 . S
C1743 C1747 1.393 . S
C1744 H1733 0.950 . S
C1744 C1742 1.391 . S
C1744 C1745 1.400 . S
C1745 C1739 1.491 . S
C1745 C1744 1.400 . S
C1745 C1746 1.398 . S
C1746 H1734 0.950 . S
C1746 C1745 1.398 . S
C1746 C1747 1.391 . S
C1747 H1735 0.950 . S
C1747 C1743 1.393 . S
C1747 C1746 1.391 . S
H1748 C1756 0.950 . S
H1749 C1761 0.950 . S
H1750 C1758 0.978 . S
H1751 C1760 0.950 . S
H1752 C1762 0.950 . S
H1753 C1764 0.950 . S
H1754 C1766 0.950 . S
H1755 C1767 0.950 . S
C1756 H1748 0.950 . S
C1756 C1757 1.386 . S
C1756 C1758 1.348 1_455 S
C1757 C1756 1.386 . S
C1757 C1761 1.393 . S
C1758 H1750 0.978 . S
C1758 C1756 1.348 1_655 S
C1758 C1759 1.416 . S
C1759 C1758 1.416 . S
C1759 C1760 1.398 1_655 S
C1759 C1765 1.491 . S
C1760 H1751 0.950 . S
C1760 C1759 1.398 1_455 S
C1760 C1761 1.391 . S
C1761 H1749 0.950 . S
C1761 C1757 1.393 . S
C1761 C1760 1.391 . S
C1762 H1752 0.950 . S
C1762 C1763 1.386 . S
C1762 C1764 1.391 . S
C1763 C1762 1.386 . S
C1763 C1767 1.393 . S
C1764 H1753 0.950 . S
C1764 C1762 1.391 . S
C1764 C1765 1.400 . S
C1765 C1759 1.491 . S
C1765 C1764 1.400 . S
C1765 C1766 1.398 . S
C1766 H1754 0.950 . S
C1766 C1765 1.398 . S
C1766 C1767 1.391 . S
C1767 H1755 0.950 . S
C1767 C1763 1.393 . S
C1767 C1766 1.391 . S
H1768 C1776 0.950 . S
H1769 C1781 0.950 . S
H1770 C1778 0.950 . S
H1771 C1780 0.950 . S
H1772 C1782 0.950 . S
H1773 C1784 0.950 . S
H1774 C1786 0.950 . S
H1775 C1787 0.950 . S
C1776 H1768 0.950 . S
C1776 C1777 1.386 . S
C1776 C1778 1.391 . S
C1777 C1776 1.386 . S
C1777 C1781 1.393 . S
C1778 H1770 0.950 . S
C1778 C1776 1.391 . S
C1778 C1779 1.400 . S
C1779 C1778 1.400 . S
C1779 C1780 1.398 . S
C1779 C1785 1.491 . S
C1780 H1771 0.950 . S
C1780 C1779 1.398 . S
C1780 C1781 1.391 . S
C1781 H1769 0.950 . S
C1781 C1777 1.393 . S
C1781 C1780 1.391 . S
C1782 H1772 0.950 . S
C1782 C1783 1.386 . S
C1782 C1784 1.391 . S
C1783 C1782 1.386 . S
C1783 C1787 1.393 . S
C1784 H1773 0.950 . S
C1784 C1782 1.391 . S
C1784 C1785 1.400 . S
C1785 C1779 1.491 . S
C1785 C1784 1.400 . S
C1785 C1786 1.398 . S
C1786 H1774 0.950 . S
C1786 C1785 1.398 . S
C1786 C1787 1.391 . S
C1787 H1775 0.950 . S
C1787 C1783 1.393 . S
C1787 C1786 1.391 . S
H1788 C1796 0.950 . S
H1789 C1801 0.950 . S
H1790 C1798 0.950 . S
H1791 C1800 0.950 . S
H1792 C1802 0.950 . S
H1793 C1804 0.950 . S
H1794 C1806 0.950 . S
H1795 C1807 0.950 . S
C1796 H1788 0.950 . S
C1796 C1797 1.386 . S
C1796 C1798 1.391 . S
C1797 C1796 1.386 . S
C1797 C1801 1.393 . S
C1798 H1790 0.950 . S
C1798 C1796 1.391 . S
C1798 C1799 1.400 . S
C1799 C1798 1.400 . S
C1799 C1800 1.398 . S
C1799 C1805 1.491 . S
C1800 H1791 0.950 . S
C1800 C1799 1.398 . S
C1800 C1801 1.391 . S
C1801 H1789 0.950 . S
C1801 C1797 1.393 . S
C1801 C1800 1.391 . S
C1802 H1792 0.950 . S
C1802 C1803 1.386 . S
C1802 C1804 1.391 . S
C1803 C1802 1.386 . S
C1803 C1807 1.393 . S
C1804 H1793 0.950 . S
C1804 C1802 1.391 . S
C1804 C1805 1.400 . S
C1805 C1799 1.491 . S
C1805 C1804 1.400 . S
C1805 C1806 1.398 . S
C1806 H1794 0.950 . S
C1806 C1805 1.398 . S
C1806 C1807 1.391 . S
C1807 H1795 0.950 . S
C1807 C1803 1.393 . S
C1807 C1806 1.391 . S
H1808 C1816 0.950 . S
H1809 C1821 0.950 . S
H1810 C1818 0.950 . S
H1811 C1820 0.950 . S
H1812 C1822 0.950 . S
H1813 C1824 0.950 . S
H1814 C1826 0.950 . S
H1815 C1827 0.950 . S
C1816 H1808 0.950 . S
C1816 C1817 1.386 . S
C1816 C1818 1.391 . S
C1817 C1816 1.386 . S
C1817 C1821 1.393 . S
C1818 H1810 0.950 . S
C1818 C1816 1.391 . S
C1818 C1819 1.400 . S
C1819 C1818 1.400 . S
C1819 C1820 1.398 . S
C1819 C1825 1.491 . S
C1820 H1811 0.950 . S
C1820 C1819 1.398 . S
C1820 C1821 1.391 . S
C1821 H1809 0.950 . S
C1821 C1817 1.393 . S
C1821 C1820 1.391 . S
C1822 H1812 0.950 . S
C1822 C1823 1.386 . S
C1822 C1824 1.391 . S
C1823 C1822 1.386 . S
C1823 C1827 1.393 . S
C1824 H1813 0.950 . S
C1824 C1822 1.391 . S
C1824 C1825 1.400 . S
C1825 C1819 1.491 . S
C1825 C1824 1.400 . S
C1825 C1826 1.398 . S
C1826 H1814 0.950 . S
C1826 C1825 1.398 . S
C1826 C1827 1.391 . S
C1827 H1815 0.950 . S
C1827 C1823 1.393 . S
C1827 C1826 1.391 . S
H1828 C1836 0.950 . S
H1829 C1841 0.950 . S
H1830 C1838 0.950 . S
H1831 C1840 0.950 . S
H1832 C1842 0.950 . S
H1833 C1844 0.950 . S
H1834 C1846 0.950 . S
H1835 C1847 0.950 . S
C1836 H1828 0.950 . S
C1836 C1837 1.386 . S
C1836 C1838 1.391 . S
C1837 C1836 1.386 . S
C1837 C1841 1.393 . S
C1838 H1830 0.950 . S
C1838 C1836 1.391 . S
C1838 C1839 1.400 . S
C1839 C1838 1.400 . S
C1839 C1840 1.398 . S
C1839 C1845 1.491 . S
C1840 H1831 0.950 . S
C1840 C1839 1.398 . S
C1840 C1841 1.391 . S
C1841 H1829 0.950 . S
C1841 C1837 1.393 . S
C1841 C1840 1.391 . S
C1842 H1832 0.950 . S
C1842 C1843 1.386 . S
C1842 C1844 1.391 . S
C1843 C1842 1.386 . S
C1843 C1847 1.393 . S
C1844 H1833 0.950 . S
C1844 C1842 1.391 . S
C1844 C1845 1.400 . S
C1845 C1839 1.491 . S
C1845 C1844 1.400 . S
C1845 C1846 1.398 . S
C1846 H1834 0.950 . S
C1846 C1845 1.398 . S
C1846 C1847 1.391 . S
C1847 H1835 0.950 . S
C1847 C1843 1.393 . S
C1847 C1846 1.391 . S
H1848 C1856 0.950 . S
H1849 C1861 0.950 . S
H1850 C1858 0.950 . S
H1851 C1860 0.950 . S
H1852 C1862 0.950 . S
H1853 C1864 0.950 . S
H1854 C1866 0.950 . S
H1855 C1867 0.950 . S
C1856 H1848 0.950 . S
C1856 C1857 1.386 . S
C1856 C1858 1.391 . S
C1857 C1856 1.386 . S
C1857 C1861 1.393 . S
C1858 H1850 0.950 . S
C1858 C1856 1.391 . S
C1858 C1859 1.400 . S
C1859 C1858 1.400 . S
C1859 C1860 1.398 . S
C1859 C1865 1.491 . S
C1860 H1851 0.950 . S
C1860 C1859 1.398 . S
C1860 C1861 1.391 . S
C1861 H1849 0.950 . S
C1861 C1857 1.393 . S
C1861 C1860 1.391 . S
C1862 H1852 0.950 . S
C1862 C1863 1.386 . S
C1862 C1864 1.391 . S
C1863 C1862 1.386 . S
C1863 C1867 1.393 . S
C1864 H1853 0.950 . S
C1864 C1862 1.391 . S
C1864 C1865 1.400 . S
C1865 C1859 1.491 . S
C1865 C1864 1.400 . S
C1865 C1866 1.398 . S
C1866 H1854 0.950 . S
C1866 C1865 1.398 . S
C1866 C1867 1.391 . S
C1867 H1855 0.950 . S
C1867 C1863 1.393 . S
C1867 C1866 1.391 . S
H1868 C1876 0.950 . S
H1869 C1881 0.950 . S
H1870 C1878 0.950 . S
H1871 C1880 0.955 . S
H1872 C1882 0.950 . S
H1873 C1884 0.950 . S
H1874 C1886 0.950 . S
H1875 C1887 0.950 . S
C1876 H1868 0.950 . S
C1876 C1877 1.386 . S
C1876 C1878 1.391 . S
C1877 C1876 1.386 . S
C1877 C1881 1.393 . S
C1878 H1870 0.950 . S
C1878 C1876 1.391 . S
C1878 C1879 1.400 1_455 S
C1879 C1878 1.400 1_655 S
C1879 C1880 1.400 . S
C1879 C1885 1.491 . S
C1880 H1871 0.955 . S
C1880 C1879 1.400 . S
C1880 C1881 1.383 1_655 S
C1881 H1869 0.950 . S
C1881 C1877 1.393 . S
C1881 C1880 1.383 1_455 S
C1882 H1872 0.950 . S
C1882 C1883 1.386 . S
C1882 C1884 1.391 . S
C1883 C1882 1.386 . S
C1883 C1887 1.393 . S
C1884 H1873 0.950 . S
C1884 C1882 1.391 . S
C1884 C1885 1.400 . S
C1885 C1879 1.491 . S
C1885 C1884 1.400 . S
C1885 C1886 1.398 . S
C1886 H1874 0.950 . S
C1886 C1885 1.398 . S
C1886 C1887 1.391 . S
C1887 H1875 0.950 . S
C1887 C1883 1.393 . S
C1887 C1886 1.391 . S
H1888 C1896 0.950 . S
H1889 C1901 0.950 . S
H1890 C1898 0.950 . S
H1891 C1900 0.950 . S
H1892 C1902 0.950 . S
H1893 C1904 0.950 . S
H1894 C1906 0.950 . S
H1895 C1907 0.950 . S
C1896 H1888 0.950 . S
C1896 C1897 1.386 . S
C1896 C1898 1.391 . S
C1897 C1896 1.386 . S
C1897 C1901 1.393 . S
C1898 H1890 0.950 . S
C1898 C1896 1.391 . S
C1898 C1899 1.400 . S
C1899 C1898 1.400 . S
C1899 C1900 1.398 . S
C1899 C1905 1.491 . S
C1900 H1891 0.950 . S
C1900 C1899 1.398 . S
C1900 C1901 1.391 . S
C1901 H1889 0.950 . S
C1901 C1897 1.393 . S
C1901 C1900 1.391 . S
C1902 H1892 0.950 . S
C1902 C1903 1.386 . S
C1902 C1904 1.391 . S
C1903 C1902 1.386 . S
C1903 C1907 1.393 . S
C1904 H1893 0.950 . S
C1904 C1902 1.391 . S
C1904 C1905 1.400 . S
C1905 C1899 1.491 . S
C1905 C1904 1.400 . S
C1905 C1906 1.398 . S
C1906 H1894 0.950 . S
C1906 C1905 1.398 . S
C1906 C1907 1.391 . S
C1907 H1895 0.950 . S
C1907 C1903 1.393 . S
C1907 C1906 1.391 . S
H1908 C1916 0.950 . S
H1909 C1921 0.950 . S
H1910 C1918 0.950 . S
H1911 C1920 0.950 . S
H1912 C1922 0.950 . S
H1913 C1924 0.950 . S
H1914 C1926 0.950 . S
H1915 C1927 0.950 . S
C1916 H1908 0.950 . S
C1916 C1917 1.386 . S
C1916 C1918 1.391 . S
C1917 C1916 1.386 . S
C1917 C1921 1.393 . S
C1918 H1910 0.950 . S
C1918 C1916 1.391 . S
C1918 C1919 1.400 . S
C1919 C1918 1.400 . S
C1919 C1920 1.398 . S
C1919 C1925 1.491 . S
C1920 H1911 0.950 . S
C1920 C1919 1.398 . S
C1920 C1921 1.391 . S
C1921 H1909 0.950 . S
C1921 C1917 1.393 . S
C1921 C1920 1.391 . S
C1922 H1912 0.950 . S
C1922 C1923 1.386 . S
C1922 C1924 1.391 . S
C1923 C1922 1.386 . S
C1923 C1927 1.393 . S
C1924 H1913 0.950 . S
C1924 C1922 1.391 . S
C1924 C1925 1.400 . S
C1925 C1919 1.491 . S
C1925 C1924 1.400 . S
C1925 C1926 1.398 . S
C1926 H1914 0.950 . S
C1926 C1925 1.398 . S
C1926 C1927 1.391 . S
C1927 H1915 0.950 . S
C1927 C1923 1.393 . S
C1927 C1926 1.391 . S
H1928 C1936 0.950 . S
H1929 C1941 0.950 . S
H1930 C1938 0.950 . S
H1931 C1940 0.950 . S
H1932 C1942 0.950 . S
H1933 C1944 0.950 . S
H1934 C1946 0.950 . S
H1935 C1947 0.950 . S
C1936 H1928 0.950 . S
C1936 C1937 1.386 . S
C1936 C1938 1.391 . S
C1937 C1936 1.386 . S
C1937 C1941 1.393 . S
C1938 H1930 0.950 . S
C1938 C1936 1.391 . S
C1938 C1939 1.400 . S
C1939 C1938 1.400 . S
C1939 C1940 1.398 . S
C1939 C1945 1.491 . S
C1940 H1931 0.950 . S
C1940 C1939 1.398 . S
C1940 C1941 1.391 . S
C1941 H1929 0.950 . S
C1941 C1937 1.393 . S
C1941 C1940 1.391 . S
C1942 H1932 0.950 . S
C1942 C1943 1.386 . S
C1942 C1944 1.391 . S
C1943 C1942 1.386 . S
C1943 C1947 1.393 . S
C1944 H1933 0.950 . S
C1944 C1942 1.391 . S
C1944 C1945 1.400 . S
C1945 C1939 1.491 . S
C1945 C1944 1.400 . S
C1945 C1946 1.398 . S
C1946 H1934 0.950 . S
C1946 C1945 1.398 . S
C1946 C1947 1.391 . S
C1947 H1935 0.950 . S
C1947 C1943 1.393 . S
C1947 C1946 1.391 . S
H1948 C1956 0.950 . S
H1949 C1961 0.950 . S
H1950 C1958 0.950 . S
H1951 C1960 0.950 1_554 S
H1952 C1962 0.950 . S
H1953 C1964 0.950 . S
H1954 C1966 0.950 . S
H1955 C1967 0.950 . S
C1956 H1948 0.950 . S
C1956 C1957 1.386 . S
C1956 C1958 1.391 . S
C1957 C1956 1.386 . S
C1957 C1961 1.393 . S
C1958 H1950 0.950 . S
C1958 C1956 1.391 . S
C1958 C1959 1.400 1_556 S
C1959 C1958 1.400 1_554 S
C1959 C1960 1.398 1_554 S
C1959 C1965 1.491 . S
C1960 H1951 0.950 1_556 S
C1960 C1959 1.398 1_556 S
C1960 C1961 1.391 . S
C1961 H1949 0.950 . S
C1961 C1957 1.393 . S
C1961 C1960 1.391 . S
C1962 H1952 0.950 . S
C1962 C1963 1.386 . S
C1962 C1964 1.391 . S
C1963 C1962 1.386 . S
C1963 C1967 1.393 . S
C1964 H1953 0.950 . S
C1964 C1962 1.391 . S
C1964 C1965 1.400 . S
C1965 C1959 1.491 . S
C1965 C1964 1.400 . S
C1965 C1966 1.398 . S
C1966 H1954 0.950 . S
C1966 C1965 1.398 . S
C1966 C1967 1.391 . S
C1967 H1955 0.950 . S
C1967 C1963 1.393 . S
C1967 C1966 1.391 . S
H1968 C1976 0.950 . S
H1969 C1981 0.950 . S
H1970 C1978 0.950 . S
H1971 C1980 0.950 . S
H1972 C1982 0.950 . S
H1973 C1984 0.950 . S
H1974 C1986 0.950 . S
H1975 C1987 0.950 . S
C1976 H1968 0.950 . S
C1976 C1977 1.386 . S
C1976 C1978 1.391 . S
C1977 C1976 1.386 . S
C1977 C1981 1.393 . S
C1978 H1970 0.950 . S
C1978 C1976 1.391 . S
C1978 C1979 1.400 . S
C1979 C1978 1.400 . S
C1979 C1980 1.398 . S
C1979 C1985 1.491 . S
C1980 H1971 0.950 . S
C1980 C1979 1.398 . S
C1980 C1981 1.391 . S
C1981 H1969 0.950 . S
C1981 C1977 1.393 . S
C1981 C1980 1.391 . S
C1982 H1972 0.950 . S
C1982 C1983 1.386 . S
C1982 C1984 1.391 . S
C1983 C1982 1.386 . S
C1983 C1987 1.393 . S
C1984 H1973 0.950 . S
C1984 C1982 1.391 . S
C1984 C1985 1.400 . S
C1985 C1979 1.491 . S
C1985 C1984 1.400 . S
C1985 C1986 1.398 . S
C1986 H1974 0.950 . S
C1986 C1985 1.398 . S
C1986 C1987 1.391 . S
C1987 H1975 0.950 . S
C1987 C1983 1.393 . S
C1987 C1986 1.391 . S
H1988 C1996 0.950 . S
H1989 C2001 0.950 . S
H1990 C1998 0.950 . S
H1991 C2000 0.950 . S
H1992 C2002 0.950 . S
H1993 C2004 0.950 . S
H1994 C2006 0.950 . S
H1995 C2007 0.950 . S
C1996 H1988 0.950 . S
C1996 C1997 1.386 . S
C1996 C1998 1.391 . S
C1997 C1996 1.386 . S
C1997 C2001 1.393 . S
C1998 H1990 0.950 . S
C1998 C1996 1.391 . S
C1998 C1999 1.400 . S
C1999 C1998 1.400 . S
C1999 C2000 1.398 . S
C1999 C2005 1.491 . S
C2000 H1991 0.950 . S
C2000 C1999 1.398 . S
C2000 C2001 1.391 . S
C2001 H1989 0.950 . S
C2001 C1997 1.393 . S
C2001 C2000 1.391 . S
C2002 H1992 0.950 . S
C2002 C2003 1.386 . S
C2002 C2004 1.391 . S
C2003 C2002 1.386 . S
C2003 C2007 1.393 . S
C2004 H1993 0.950 . S
C2004 C2002 1.391 . S
C2004 C2005 1.400 . S
C2005 C1999 1.491 . S
C2005 C2004 1.400 . S
C2005 C2006 1.398 . S
C2006 H1994 0.950 . S
C2006 C2005 1.398 . S
C2006 C2007 1.391 . S
C2007 H1995 0.950 . S
C2007 C2003 1.393 . S
C2007 C2006 1.391 . S
H2008 C2016 0.950 . S
H2009 C2021 0.950 . S
H2010 C2018 0.950 . S
H2011 C2020 0.950 . S
H2012 C2022 0.950 . S
H2013 C2024 0.950 . S
H2014 C2026 0.950 . S
H2015 C2027 0.950 . S
C2016 H2008 0.950 . S
C2016 C2017 1.386 . S
C2016 C2018 1.391 . S
C2017 C2016 1.386 . S
C2017 C2021 1.393 . S
C2018 H2010 0.950 . S
C2018 C2016 1.391 . S
C2018 C2019 1.400 . S
C2019 C2018 1.400 . S
C2019 C2020 1.398 . S
C2019 C2025 1.491 . S
C2020 H2011 0.950 . S
C2020 C2019 1.398 . S
C2020 C2021 1.391 . S
C2021 H2009 0.950 . S
C2021 C2017 1.393 . S
C2021 C2020 1.391 . S
C2022 H2012 0.950 . S
C2022 C2023 1.386 . S
C2022 C2024 1.391 . S
C2023 C2022 1.386 . S
C2023 C2027 1.393 . S
C2024 H2013 0.950 . S
C2024 C2022 1.391 . S
C2024 C2025 1.400 . S
C2025 C2019 1.491 . S
C2025 C2024 1.400 . S
C2025 C2026 1.398 . S
C2026 H2014 0.950 . S
C2026 C2025 1.398 . S
C2026 C2027 1.391 . S
C2027 H2015 0.950 . S
C2027 C2023 1.393 . S
C2027 C2026 1.391 . S
H2028 C2036 0.950 . S
H2029 C2041 0.950 . S
H2030 C2038 0.935 1_556 S
H2031 C2040 0.950 . S
H2032 C2042 0.950 . S
H2033 C2044 0.950 . S
H2034 C2046 0.950 . S
H2035 C2047 0.950 . S
C2036 H2028 0.950 . S
C2036 C2037 1.386 . S
C2036 C2038 1.391 . S
C2037 C2036 1.386 . S
C2037 C2041 1.393 . S
C2038 H2030 0.935 1_554 S
C2038 C2036 1.391 . S
C2038 C2039 1.400 1_554 S
C2039 C2038 1.400 1_556 S
C2039 C2040 1.398 1_556 S
C2039 C2045 1.491 . S
C2040 H2031 0.950 . S
C2040 C2039 1.398 1_554 S
C2040 C2041 1.391 . S
C2041 H2029 0.950 . S
C2041 C2037 1.393 . S
C2041 C2040 1.391 . S
C2042 H2032 0.950 . S
C2042 C2043 1.386 . S
C2042 C2044 1.391 . S
C2043 C2042 1.386 . S
C2043 C2047 1.393 . S
C2044 H2033 0.950 . S
C2044 C2042 1.391 . S
C2044 C2045 1.400 . S
C2045 C2039 1.491 . S
C2045 C2044 1.400 . S
C2045 C2046 1.398 . S
C2046 H2034 0.950 . S
C2046 C2045 1.398 . S
C2046 C2047 1.391 . S
C2047 H2035 0.950 . S
C2047 C2043 1.393 . S
C2047 C2046 1.391 . S
H2048 C2056 0.950 . S
H2049 C2061 0.950 . S
H2050 C2058 0.950 . S
H2051 C2060 0.950 . S
H2052 C2062 0.950 . S
H2053 C2064 0.950 . S
H2054 C2066 0.950 . S
H2055 C2067 0.950 . S
C2056 H2048 0.950 . S
C2056 C2057 1.386 . S
C2056 C2058 1.391 . S
C2057 C2056 1.386 . S
C2057 C2061 1.393 . S
C2058 H2050 0.950 . S
C2058 C2056 1.391 . S
C2058 C2059 1.400 . S
C2059 C2058 1.400 . S
C2059 C2060 1.398 . S
C2059 C2065 1.491 . S
C2060 H2051 0.950 . S
C2060 C2059 1.398 . S
C2060 C2061 1.391 . S
C2061 H2049 0.950 . S
C2061 C2057 1.393 . S
C2061 C2060 1.391 . S
C2062 H2052 0.950 . S
C2062 C2063 1.386 . S
C2062 C2064 1.391 . S
C2063 C2062 1.386 . S
C2063 C2067 1.393 . S
C2064 H2053 0.950 . S
C2064 C2062 1.391 . S
C2064 C2065 1.400 . S
C2065 C2059 1.491 . S
C2065 C2064 1.400 . S
C2065 C2066 1.398 . S
C2066 H2054 0.950 . S
C2066 C2065 1.398 . S
C2066 C2067 1.391 . S
C2067 H2055 0.950 . S
C2067 C2063 1.393 . S
C2067 C2066 1.391 . S
H2068 C2076 0.950 . S
H2069 C2081 0.950 . S
H2070 C2078 0.950 . S
H2071 C2080 0.950 . S
H2072 C2082 0.950 . S
H2073 C2084 0.950 . S
H2074 C2086 0.950 . S
H2075 C2087 0.950 . S
C2076 H2068 0.950 . S
C2076 C2077 1.386 . S
C2076 C2078 1.391 . S
C2077 C2076 1.386 . S
C2077 C2081 1.393 . S
C2078 H2070 0.950 . S
C2078 C2076 1.391 . S
C2078 C2079 1.400 . S
C2079 C2078 1.400 . S
C2079 C2080 1.398 . S
C2079 C2085 1.491 . S
C2080 H2071 0.950 . S
C2080 C2079 1.398 . S
C2080 C2081 1.391 . S
C2081 H2069 0.950 . S
C2081 C2077 1.393 . S
C2081 C2080 1.391 . S
C2082 H2072 0.950 . S
C2082 C2083 1.386 . S
C2082 C2084 1.391 . S
C2083 C2082 1.386 . S
C2083 C2087 1.393 . S
C2084 H2073 0.950 . S
C2084 C2082 1.391 . S
C2084 C2085 1.400 . S
C2085 C2079 1.491 . S
C2085 C2084 1.400 . S
C2085 C2086 1.398 . S
C2086 H2074 0.950 . S
C2086 C2085 1.398 . S
C2086 C2087 1.391 . S
C2087 H2075 0.950 . S
C2087 C2083 1.393 . S
C2087 C2086 1.391 . S
H2088 C2096 0.950 . S
H2089 C2101 0.950 . S
H2090 C2098 0.950 . S
H2091 C2100 0.950 . S
H2092 C2102 0.950 . S
H2093 C2104 0.950 . S
H2094 C2106 0.950 . S
H2095 C2107 0.950 . S
C2096 H2088 0.950 . S
C2096 C2097 1.386 . S
C2096 C2098 1.391 . S
C2097 C2096 1.386 . S
C2097 C2101 1.393 . S
C2098 H2090 0.950 . S
C2098 C2096 1.391 . S
C2098 C2099 1.400 . S
C2099 C2098 1.400 . S
C2099 C2100 1.398 . S
C2099 C2105 1.491 . S
C2100 H2091 0.950 . S
C2100 C2099 1.398 . S
C2100 C2101 1.391 . S
C2101 H2089 0.950 . S
C2101 C2097 1.393 . S
C2101 C2100 1.391 . S
C2102 H2092 0.950 . S
C2102 C2103 1.386 . S
C2102 C2104 1.391 . S
C2103 C2102 1.386 . S
C2103 C2107 1.393 . S
C2104 H2093 0.950 . S
C2104 C2102 1.391 . S
C2104 C2105 1.400 . S
C2105 C2099 1.491 . S
C2105 C2104 1.400 . S
C2105 C2106 1.398 . S
C2106 H2094 0.950 . S
C2106 C2105 1.398 . S
C2106 C2107 1.391 . S
C2107 H2095 0.950 . S
C2107 C2103 1.393 . S
C2107 C2106 1.391 . S
H2108 C2116 0.950 . S
H2109 C2121 0.950 . S
H2110 C2118 0.950 . S
H2111 C2120 0.950 . S
H2112 C2122 0.950 . S
H2113 C2124 0.950 . S
H2114 C2126 0.950 . S
H2115 C2127 0.950 . S
C2116 H2108 0.950 . S
C2116 C2117 1.386 . S
C2116 C2118 1.391 . S
C2117 C2116 1.386 . S
C2117 C2121 1.393 . S
C2118 H2110 0.950 . S
C2118 C2116 1.391 . S
C2118 C2119 1.400 . S
C2119 C2118 1.400 . S
C2119 C2120 1.398 . S
C2119 C2125 1.491 . S
C2120 H2111 0.950 . S
C2120 C2119 1.398 . S
C2120 C2121 1.391 . S
C2121 H2109 0.950 . S
C2121 C2117 1.393 . S
C2121 C2120 1.391 . S
C2122 H2112 0.950 . S
C2122 C2123 1.386 . S
C2122 C2124 1.391 . S
C2123 C2122 1.386 . S
C2123 C2127 1.393 . S
C2124 H2113 0.950 . S
C2124 C2122 1.391 . S
C2124 C2125 1.400 . S
C2125 C2119 1.491 . S
C2125 C2124 1.400 . S
C2125 C2126 1.398 . S
C2126 H2114 0.950 . S
C2126 C2125 1.398 . S
C2126 C2127 1.391 . S
C2127 H2115 0.950 . S
C2127 C2123 1.393 . S
C2127 C2126 1.391 . S
H2128 C2136 0.950 . S
H2129 C2141 0.950 . S
H2130 C2138 0.950 . S
H2131 C2140 0.950 . S
H2132 C2142 0.950 . S
H2133 C2144 0.950 . S
H2134 C2146 0.950 1_565 S
H2135 C2147 0.950 . S
C2136 H2128 0.950 . S
C2136 C2137 1.386 . S
C2136 C2138 1.391 . S
C2137 C2136 1.386 . S
C2137 C2141 1.393 . S
C2138 H2130 0.950 . S
C2138 C2136 1.391 . S
C2138 C2139 1.400 . S
C2139 C2138 1.400 . S
C2139 C2140 1.398 . S
C2139 C2145 1.491 . S
C2140 H2131 0.950 . S
C2140 C2139 1.398 . S
C2140 C2141 1.391 . S
C2141 H2129 0.950 . S
C2141 C2137 1.393 . S
C2141 C2140 1.391 . S
C2142 H2132 0.950 . S
C2142 C2143 1.386 . S
C2142 C2144 1.391 . S
C2143 C2142 1.386 . S
C2143 C2147 1.393 . S
C2144 H2133 0.950 . S
C2144 C2142 1.391 . S
C2144 C2145 1.400 1_545 S
C2145 C2139 1.491 . S
C2145 C2144 1.400 1_565 S
C2145 C2146 1.398 1_565 S
C2146 H2134 0.950 1_545 S
C2146 C2145 1.398 1_545 S
C2146 C2147 1.391 . S
C2147 H2135 0.950 . S
C2147 C2143 1.393 . S
C2147 C2146 1.391 . S
H2148 C2156 0.950 . S
H2149 C2161 0.950 . S
H2150 C2158 0.950 . S
H2151 C2160 0.950 . S
H2152 C2162 0.950 . S
H2153 C2164 0.950 . S
H2154 C2166 0.950 . S
H2155 C2167 0.950 . S
C2156 H2148 0.950 . S
C2156 C2157 1.386 . S
C2156 C2158 1.391 . S
C2157 C2156 1.386 . S
C2157 C2161 1.393 . S
C2158 H2150 0.950 . S
C2158 C2156 1.391 . S
C2158 C2159 1.400 . S
C2159 C2158 1.400 . S
C2159 C2160 1.398 . S
C2159 C2165 1.491 . S
C2160 H2151 0.950 . S
C2160 C2159 1.398 . S
C2160 C2161 1.391 . S
C2161 H2149 0.950 . S
C2161 C2157 1.393 . S
C2161 C2160 1.391 . S
C2162 H2152 0.950 . S
C2162 C2163 1.386 . S
C2162 C2164 1.391 . S
C2163 C2162 1.386 . S
C2163 C2167 1.393 . S
C2164 H2153 0.950 . S
C2164 C2162 1.391 . S
C2164 C2165 1.400 . S
C2165 C2159 1.491 . S
C2165 C2164 1.400 . S
C2165 C2166 1.398 . S
C2166 H2154 0.950 . S
C2166 C2165 1.398 . S
C2166 C2167 1.391 . S
C2167 H2155 0.950 . S
C2167 C2163 1.393 . S
C2167 C2166 1.391 . S
H2168 C2176 0.950 . S
H2169 C2181 0.950 . S
H2170 C2178 0.950 . S
H2171 C2180 0.950 . S
H2172 C2182 0.950 . S
H2173 C2184 0.950 . S
H2174 C2186 0.950 . S
H2175 C2187 0.950 . S
C2176 H2168 0.950 . S
C2176 C2177 1.386 . S
C2176 C2178 1.391 . S
C2177 C2176 1.386 . S
C2177 C2181 1.393 . S
C2178 H2170 0.950 . S
C2178 C2176 1.391 . S
C2178 C2179 1.400 . S
C2179 C2178 1.400 . S
C2179 C2180 1.398 . S
C2179 C2185 1.491 . S
C2180 H2171 0.950 . S
C2180 C2179 1.398 . S
C2180 C2181 1.391 . S
C2181 H2169 0.950 . S
C2181 C2177 1.393 . S
C2181 C2180 1.391 . S
C2182 H2172 0.950 . S
C2182 C2183 1.386 . S
C2182 C2184 1.391 . S
C2183 C2182 1.386 . S
C2183 C2187 1.393 . S
C2184 H2173 0.950 . S
C2184 C2182 1.391 . S
C2184 C2185 1.400 . S
C2185 C2179 1.491 . S
C2185 C2184 1.400 . S
C2185 C2186 1.398 . S
C2186 H2174 0.950 . S
C2186 C2185 1.398 . S
C2186 C2187 1.391 . S
C2187 H2175 0.950 . S
C2187 C2183 1.393 . S
C2187 C2186 1.391 . S
H2188 C2196 0.950 . S
H2189 C2201 0.950 . S
H2190 C2198 0.950 . S
H2191 C2200 0.950 . S
H2192 C2202 0.950 . S
H2193 C2204 0.950 . S
H2194 C2206 0.950 . S
H2195 C2207 0.950 . S
C2196 H2188 0.950 . S
C2196 C2197 1.386 . S
C2196 C2198 1.391 . S
C2197 C2196 1.386 . S
C2197 C2201 1.393 . S
C2198 H2190 0.950 . S
C2198 C2196 1.391 . S
C2198 C2199 1.400 . S
C2199 C2198 1.400 . S
C2199 C2200 1.398 . S
C2199 C2205 1.491 . S
C2200 H2191 0.950 . S
C2200 C2199 1.398 . S
C2200 C2201 1.391 . S
C2201 H2189 0.950 . S
C2201 C2197 1.393 . S
C2201 C2200 1.391 . S
C2202 H2192 0.950 . S
C2202 C2203 1.386 . S
C2202 C2204 1.391 . S
C2203 C2202 1.386 . S
C2203 C2207 1.393 . S
C2204 H2193 0.950 . S
C2204 C2202 1.391 . S
C2204 C2205 1.400 . S
C2205 C2199 1.491 . S
C2205 C2204 1.400 . S
C2205 C2206 1.398 . S
C2206 H2194 0.950 . S
C2206 C2205 1.398 . S
C2206 C2207 1.391 . S
C2207 H2195 0.950 . S
C2207 C2203 1.393 . S
C2207 C2206 1.391 . S
H2208 C2216 0.950 . S
H2209 C2221 0.950 . S
H2210 C2218 0.950 . S
H2211 C2220 0.950 . S
H2212 C2222 0.950 . S
H2213 C2224 0.950 . S
H2214 C2226 0.950 . S
H2215 C2227 0.950 . S
C2216 H2208 0.950 . S
C2216 C2217 1.386 . S
C2216 C2218 1.391 . S
C2217 C2216 1.386 . S
C2217 C2221 1.393 . S
C2218 H2210 0.950 . S
C2218 C2216 1.391 . S
C2218 C2219 1.400 . S
C2219 C2218 1.400 . S
C2219 C2220 1.398 . S
C2219 C2225 1.491 . S
C2220 H2211 0.950 . S
C2220 C2219 1.398 . S
C2220 C2221 1.391 . S
C2221 H2209 0.950 . S
C2221 C2217 1.393 . S
C2221 C2220 1.391 . S
C2222 H2212 0.950 . S
C2222 C2223 1.386 . S
C2222 C2224 1.391 . S
C2223 C2222 1.386 . S
C2223 C2227 1.393 . S
C2224 H2213 0.950 . S
C2224 C2222 1.391 . S
C2224 C2225 1.400 . S
C2225 C2219 1.491 . S
C2225 C2224 1.400 . S
C2225 C2226 1.398 . S
C2226 H2214 0.950 . S
C2226 C2225 1.398 . S
C2226 C2227 1.391 . S
C2227 H2215 0.950 . S
C2227 C2223 1.393 . S
C2227 C2226 1.391 . S
H2228 C2236 0.950 . S
H2229 C2241 0.950 . S
H2230 C2238 0.950 . S
H2231 C2240 0.917 1_455 S
H2232 C2242 0.950 . S
H2233 C2244 0.950 . S
H2234 C2246 0.950 . S
H2235 C2247 0.950 . S
C2236 H2228 0.950 . S
C2236 C2237 1.386 . S
C2236 C2238 1.391 . S
C2237 C2236 1.386 . S
C2237 C2241 1.393 . S
C2238 H2230 0.950 . S
C2238 C2236 1.391 . S
C2238 C2239 1.400 1_655 S
C2239 C2238 1.400 1_455 S
C2239 C2240 1.385 1_455 S
C2239 C2245 1.491 . S
C2240 H2231 0.917 1_655 S
C2240 C2239 1.385 1_655 S
C2240 C2241 1.438 . S
C2241 H2229 0.950 . S
C2241 C2237 1.393 . S
C2241 C2240 1.438 . S
C2242 H2232 0.950 . S
C2242 C2243 1.386 . S
C2242 C2244 1.391 . S
C2243 C2242 1.386 . S
C2243 C2247 1.393 . S
C2244 H2233 0.950 . S
C2244 C2242 1.391 . S
C2244 C2245 1.400 . S
C2245 C2239 1.491 . S
C2245 C2244 1.400 . S
C2245 C2246 1.398 . S
C2246 H2234 0.950 . S
C2246 C2245 1.398 . S
C2246 C2247 1.391 . S
C2247 H2235 0.950 . S
C2247 C2243 1.393 . S
C2247 C2246 1.391 . S
H2248 C2256 0.950 . S
H2249 C2261 0.950 . S
H2250 C2258 0.950 . S
H2251 C2260 0.950 . S
H2252 C2262 0.950 . S
H2253 C2264 0.950 . S
H2254 C2266 0.950 . S
H2255 C2267 0.950 . S
C2256 H2248 0.950 . S
C2256 C2257 1.386 . S
C2256 C2258 1.391 . S
C2257 C2256 1.386 . S
C2257 C2261 1.393 . S
C2258 H2250 0.950 . S
C2258 C2256 1.391 . S
C2258 C2259 1.400 . S
C2259 C2258 1.400 . S
C2259 C2260 1.398 . S
C2259 C2265 1.491 . S
C2260 H2251 0.950 . S
C2260 C2259 1.398 . S
C2260 C2261 1.391 . S
C2261 H2249 0.950 . S
C2261 C2257 1.393 . S
C2261 C2260 1.391 . S
C2262 H2252 0.950 . S
C2262 C2263 1.386 . S
C2262 C2264 1.391 . S
C2263 C2262 1.386 . S
C2263 C2267 1.393 . S
C2264 H2253 0.950 . S
C2264 C2262 1.391 . S
C2264 C2265 1.400 . S
C2265 C2259 1.491 . S
C2265 C2264 1.400 . S
C2265 C2266 1.398 . S
C2266 H2254 0.950 . S
C2266 C2265 1.398 . S
C2266 C2267 1.391 . S
C2267 H2255 0.950 . S
C2267 C2263 1.393 . S
C2267 C2266 1.391 . S
H2268 C2276 0.950 . S
H2269 C2281 0.950 . S
H2270 C2278 0.950 . S
H2271 C2280 0.950 . S
H2272 C2282 0.950 . S
H2273 C2284 0.950 . S
H2274 C2286 0.950 . S
H2275 C2287 0.950 . S
C2276 H2268 0.950 . S
C2276 C2277 1.386 . S
C2276 C2278 1.391 . S
C2277 C2276 1.386 . S
C2277 C2281 1.393 . S
C2278 H2270 0.950 . S
C2278 C2276 1.391 . S
C2278 C2279 1.400 . S
C2279 C2278 1.400 . S
C2279 C2280 1.398 . S
C2279 C2285 1.491 . S
C2280 H2271 0.950 . S
C2280 C2279 1.398 . S
C2280 C2281 1.391 . S
C2281 H2269 0.950 . S
C2281 C2277 1.393 . S
C2281 C2280 1.391 . S
C2282 H2272 0.950 . S
C2282 C2283 1.386 . S
C2282 C2284 1.391 . S
C2283 C2282 1.386 . S
C2283 C2287 1.393 . S
C2284 H2273 0.950 . S
C2284 C2282 1.391 . S
C2284 C2285 1.400 . S
C2285 C2279 1.491 . S
C2285 C2284 1.400 . S
C2285 C2286 1.398 . S
C2286 H2274 0.950 . S
C2286 C2285 1.398 . S
C2286 C2287 1.391 . S
C2287 H2275 0.950 . S
C2287 C2283 1.393 . S
C2287 C2286 1.391 . S
H2288 C2296 0.950 . S
H2289 C2301 0.950 . S
H2290 C2298 0.950 . S
H2291 C2300 0.950 . S
H2292 C2302 0.950 . S
H2293 C2304 0.950 . S
H2294 C2306 0.950 . S
H2295 C2307 0.950 . S
C2296 H2288 0.950 . S
C2296 C2297 1.386 . S
C2296 C2298 1.391 . S
C2297 C2296 1.386 . S
C2297 C2301 1.393 . S
C2298 H2290 0.950 . S
C2298 C2296 1.391 . S
C2298 C2299 1.400 . S
C2299 C2298 1.400 . S
C2299 C2300 1.398 . S
C2299 C2305 1.491 . S
C2300 H2291 0.950 . S
C2300 C2299 1.398 . S
C2300 C2301 1.391 . S
C2301 H2289 0.950 . S
C2301 C2297 1.393 . S
C2301 C2300 1.391 . S
C2302 H2292 0.950 . S
C2302 C2303 1.386 . S
C2302 C2304 1.391 . S
C2303 C2302 1.386 . S
C2303 C2307 1.393 . S
C2304 H2293 0.950 . S
C2304 C2302 1.391 . S
C2304 C2305 1.400 . S
C2305 C2299 1.491 . S
C2305 C2304 1.400 . S
C2305 C2306 1.398 . S
C2306 H2294 0.950 . S
C2306 C2305 1.398 . S
C2306 C2307 1.391 . S
C2307 H2295 0.950 . S
C2307 C2303 1.393 . S
C2307 C2306 1.391 . S
H2308 C2316 0.950 . S
H2309 C2321 0.950 . S
H2310 C2318 0.950 . S
H2311 C2320 0.950 . S
H2312 C2322 0.950 . S
H2313 C2324 0.950 . S
H2314 C2326 0.950 . S
H2315 C2327 0.950 . S
C2316 H2308 0.950 . S
C2316 C2317 1.386 . S
C2316 C2318 1.391 . S
C2317 C2316 1.386 . S
C2317 C2321 1.393 . S
C2318 H2310 0.950 . S
C2318 C2316 1.391 . S
C2318 C2319 1.400 . S
C2319 C2318 1.400 . S
C2319 C2320 1.398 . S
C2319 C2325 1.491 . S
C2320 H2311 0.950 . S
C2320 C2319 1.398 . S
C2320 C2321 1.391 . S
C2321 H2309 0.950 . S
C2321 C2317 1.393 . S
C2321 C2320 1.391 . S
C2322 H2312 0.950 . S
C2322 C2323 1.386 . S
C2322 C2324 1.391 . S
C2323 C2322 1.386 . S
C2323 C2327 1.393 . S
C2324 H2313 0.950 . S
C2324 C2322 1.391 . S
C2324 C2325 1.400 . S
C2325 C2319 1.491 . S
C2325 C2324 1.400 . S
C2325 C2326 1.398 . S
C2326 H2314 0.950 . S
C2326 C2325 1.398 . S
C2326 C2327 1.391 . S
C2327 H2315 0.950 . S
C2327 C2323 1.393 . S
C2327 C2326 1.391 . S
H2328 C2336 0.950 . S
H2329 C2341 0.950 . S
H2330 C2338 0.950 . S
H2331 C2340 0.950 . S
H2332 C2342 0.950 . S
H2333 C2344 0.950 . S
H2334 C2346 0.950 . S
H2335 C2347 0.950 . S
C2336 H2328 0.950 . S
C2336 C2337 1.386 . S
C2336 C2338 1.391 . S
C2337 C2336 1.386 . S
C2337 C2341 1.393 . S
C2338 H2330 0.950 . S
C2338 C2336 1.391 . S
C2338 C2339 1.400 . S
C2339 C2338 1.400 . S
C2339 C2340 1.398 . S
C2339 C2345 1.491 . S
C2340 H2331 0.950 . S
C2340 C2339 1.398 . S
C2340 C2341 1.391 . S
C2341 H2329 0.950 . S
C2341 C2337 1.393 . S
C2341 C2340 1.391 . S
C2342 H2332 0.950 . S
C2342 C2343 1.386 . S
C2342 C2344 1.391 . S
C2343 C2342 1.386 . S
C2343 C2347 1.393 . S
C2344 H2333 0.950 . S
C2344 C2342 1.391 . S
C2344 C2345 1.400 . S
C2345 C2339 1.491 . S
C2345 C2344 1.400 . S
C2345 C2346 1.398 . S
C2346 H2334 0.950 . S
C2346 C2345 1.398 . S
C2346 C2347 1.391 . S
C2347 H2335 0.950 . S
C2347 C2343 1.393 . S
C2347 C2346 1.391 . S
H2348 C2356 0.950 . S
H2349 C2361 0.950 . S
H2350 C2358 0.950 . S
H2351 C2360 0.950 . S
H2352 C2362 0.950 . S
H2353 C2364 0.950 . S
H2354 C2366 0.950 1_455 S
H2355 C2367 0.950 . S
C2356 H2348 0.950 . S
C2356 C2357 1.386 . S
C2356 C2358 1.391 . S
C2357 C2356 1.386 . S
C2357 C2361 1.393 . S
C2358 H2350 0.950 . S
C2358 C2356 1.391 . S
C2358 C2359 1.400 . S
C2359 C2358 1.400 . S
C2359 C2360 1.398 . S
C2359 C2365 1.491 . S
C2360 H2351 0.950 . S
C2360 C2359 1.398 . S
C2360 C2361 1.391 . S
C2361 H2349 0.950 . S
C2361 C2357 1.393 . S
C2361 C2360 1.391 . S
C2362 H2352 0.950 . S
C2362 C2363 1.386 . S
C2362 C2364 1.391 . S
C2363 C2362 1.386 . S
C2363 C2367 1.393 . S
C2364 H2353 0.950 . S
C2364 C2362 1.391 . S
C2364 C2365 1.400 1_655 S
C2365 C2359 1.491 . S
C2365 C2364 1.400 1_455 S
C2365 C2366 1.398 1_455 S
C2366 H2354 0.950 1_655 S
C2366 C2365 1.398 1_655 S
C2366 C2367 1.391 . S
C2367 H2355 0.950 . S
C2367 C2363 1.393 . S
C2367 C2366 1.391 . S
H2368 C2376 0.950 . S
H2369 C2381 0.950 . S
H2370 C2378 0.950 . S
H2371 C2380 0.950 . S
H2372 C2382 0.950 . S
H2373 C2384 0.950 . S
H2374 C2386 0.950 . S
H2375 C2387 0.950 . S
C2376 H2368 0.950 . S
C2376 C2377 1.386 . S
C2376 C2378 1.391 . S
C2377 C2376 1.386 . S
C2377 C2381 1.393 . S
C2378 H2370 0.950 . S
C2378 C2376 1.391 . S
C2378 C2379 1.400 . S
C2379 C2378 1.400 . S
C2379 C2380 1.398 . S
C2379 C2385 1.491 . S
C2380 H2371 0.950 . S
C2380 C2379 1.398 . S
C2380 C2381 1.391 . S
C2381 H2369 0.950 . S
C2381 C2377 1.393 . S
C2381 C2380 1.391 . S
C2382 H2372 0.950 . S
C2382 C2383 1.386 . S
C2382 C2384 1.391 . S
C2383 C2382 1.386 . S
C2383 C2387 1.393 . S
C2384 H2373 0.950 . S
C2384 C2382 1.391 . S
C2384 C2385 1.400 . S
C2385 C2379 1.491 . S
C2385 C2384 1.400 . S
C2385 C2386 1.398 . S
C2386 H2374 0.950 . S
C2386 C2385 1.398 . S
C2386 C2387 1.391 . S
C2387 H2375 0.950 . S
C2387 C2383 1.393 . S
C2387 C2386 1.391 . S
H2388 C2396 0.950 . S
H2389 C2401 0.950 . S
H2390 C2398 0.950 . S
H2391 C2400 0.950 . S
H2392 C2402 0.950 . S
H2393 C2404 0.950 . S
H2394 C2406 0.950 . S
H2395 C2407 0.950 . S
C2396 H2388 0.950 . S
C2396 C2397 1.386 . S
C2396 C2398 1.391 . S
C2397 C2396 1.386 . S
C2397 C2401 1.393 . S
C2398 H2390 0.950 . S
C2398 C2396 1.391 . S
C2398 C2399 1.400 . S
C2399 C2398 1.400 . S
C2399 C2400 1.398 . S
C2399 C2405 1.491 . S
C2400 H2391 0.950 . S
C2400 C2399 1.398 . S
C2400 C2401 1.391 . S
C2401 H2389 0.950 . S
C2401 C2397 1.393 . S
C2401 C2400 1.391 . S
C2402 H2392 0.950 . S
C2402 C2403 1.386 . S
C2402 C2404 1.391 . S
C2403 C2402 1.386 . S
C2403 C2407 1.393 . S
C2404 H2393 0.950 . S
C2404 C2402 1.391 . S
C2404 C2405 1.400 . S
C2405 C2399 1.491 . S
C2405 C2404 1.400 . S
C2405 C2406 1.398 . S
C2406 H2394 0.950 . S
C2406 C2405 1.398 . S
C2406 C2407 1.391 . S
C2407 H2395 0.950 . S
C2407 C2403 1.393 . S
C2407 C2406 1.391 . S
H2408 C2416 0.950 . S
H2409 C2421 0.950 . S
H2410 C2418 0.950 . S
H2411 C2420 0.950 . S
H2412 C2422 0.950 . S
H2413 C2424 0.950 . S
H2414 C2426 0.950 . S
H2415 C2427 0.950 . S
C2416 H2408 0.950 . S
C2416 C2417 1.386 . S
C2416 C2418 1.391 . S
C2417 C2416 1.386 . S
C2417 C2421 1.393 . S
C2418 H2410 0.950 . S
C2418 C2416 1.391 . S
C2418 C2419 1.400 . S
C2419 C2418 1.400 . S
C2419 C2420 1.398 . S
C2419 C2425 1.491 . S
C2420 H2411 0.950 . S
C2420 C2419 1.398 . S
C2420 C2421 1.391 . S
C2421 H2409 0.950 . S
C2421 C2417 1.393 . S
C2421 C2420 1.391 . S
C2422 H2412 0.950 . S
C2422 C2423 1.386 . S
C2422 C2424 1.391 . S
C2423 C2422 1.386 . S
C2423 C2427 1.393 . S
C2424 H2413 0.950 . S
C2424 C2422 1.391 . S
C2424 C2425 1.400 . S
C2425 C2419 1.491 . S
C2425 C2424 1.400 . S
C2425 C2426 1.398 . S
C2426 H2414 0.950 . S
C2426 C2425 1.398 . S
C2426 C2427 1.391 . S
C2427 H2415 0.950 . S
C2427 C2423 1.393 . S
C2427 C2426 1.391 . S
H2428 C2436 0.950 . S
H2429 C2441 0.950 . S
H2430 C2438 0.950 . S
H2431 C2440 0.950 . S
H2432 C2442 0.950 . S
H2433 C2444 0.950 1_556 S
H2434 C2446 0.950 . S
H2435 C2447 0.950 . S
C2436 H2428 0.950 . S
C2436 C2437 1.386 . S
C2436 C2438 1.391 . S
C2437 C2436 1.386 . S
C2437 C2441 1.393 . S
C2438 H2430 0.950 . S
C2438 C2436 1.391 . S
C2438 C2439 1.400 . S
C2439 C2438 1.400 . S
C2439 C2440 1.398 . S
C2439 C2445 1.491 . S
C2440 H2431 0.950 . S
C2440 C2439 1.398 . S
C2440 C2441 1.391 . S
C2441 H2429 0.950 . S
C2441 C2437 1.393 . S
C2441 C2440 1.391 . S
C2442 H2432 0.950 . S
C2442 C2443 1.386 . S
C2442 C2444 1.391 . S
C2443 C2442 1.386 . S
C2443 C2447 1.393 . S
C2444 H2433 0.950 1_554 S
C2444 C2442 1.391 . S
C2444 C2445 1.400 1_554 S
C2445 C2439 1.491 . S
C2445 C2444 1.400 1_556 S
C2445 C2446 1.398 . S
C2446 H2434 0.950 . S
C2446 C2445 1.398 . S
C2446 C2447 1.391 1_556 S
C2447 H2435 0.950 . S
C2447 C2443 1.393 . S
C2447 C2446 1.391 1_554 S
H2448 C2456 0.950 . S
H2449 C2461 0.950 . S
H2450 C2458 0.950 . S
H2451 C2460 0.950 . S
H2452 C2462 0.950 . S
H2453 C2464 0.950 . S
H2454 C2466 0.950 . S
H2455 C2467 0.950 . S
C2456 H2448 0.950 . S
C2456 C2457 1.386 . S
C2456 C2458 1.391 . S
C2457 C2456 1.386 . S
C2457 C2461 1.393 . S
C2458 H2450 0.950 . S
C2458 C2456 1.391 . S
C2458 C2459 1.400 . S
C2459 C2458 1.400 . S
C2459 C2460 1.398 . S
C2459 C2465 1.491 . S
C2460 H2451 0.950 . S
C2460 C2459 1.398 . S
C2460 C2461 1.391 . S
C2461 H2449 0.950 . S
C2461 C2457 1.393 . S
C2461 C2460 1.391 . S
C2462 H2452 0.950 . S
C2462 C2463 1.386 . S
C2462 C2464 1.391 . S
C2463 C2462 1.386 . S
C2463 C2467 1.393 . S
C2464 H2453 0.950 . S
C2464 C2462 1.391 . S
C2464 C2465 1.400 . S
C2465 C2459 1.491 . S
C2465 C2464 1.400 . S
C2465 C2466 1.398 . S
C2466 H2454 0.950 . S
C2466 C2465 1.398 . S
C2466 C2467 1.391 . S
C2467 H2455 0.950 . S
C2467 C2463 1.393 . S
C2467 C2466 1.391 . S
H2468 C2476 0.950 . S
H2469 C2481 0.950 . S
H2470 C2478 0.950 . S
H2471 C2480 0.950 . S
H2472 C2482 0.950 . S
H2473 C2484 0.950 . S
H2474 C2486 0.950 . S
H2475 C2487 0.950 . S
C2476 H2468 0.950 . S
C2476 C2477 1.386 . S
C2476 C2478 1.391 . S
C2477 C2476 1.386 . S
C2477 C2481 1.393 . S
C2478 H2470 0.950 . S
C2478 C2476 1.391 . S
C2478 C2479 1.400 . S
C2479 C2478 1.400 . S
C2479 C2480 1.398 . S
C2479 C2485 1.491 . S
C2480 H2471 0.950 . S
C2480 C2479 1.398 . S
C2480 C2481 1.391 . S
C2481 H2469 0.950 . S
C2481 C2477 1.393 . S
C2481 C2480 1.391 . S
C2482 H2472 0.950 . S
C2482 C2483 1.386 . S
C2482 C2484 1.391 . S
C2483 C2482 1.386 . S
C2483 C2487 1.393 . S
C2484 H2473 0.950 . S
C2484 C2482 1.391 . S
C2484 C2485 1.400 . S
C2485 C2479 1.491 . S
C2485 C2484 1.400 . S
C2485 C2486 1.398 . S
C2486 H2474 0.950 . S
C2486 C2485 1.398 . S
C2486 C2487 1.391 . S
C2487 H2475 0.950 . S
C2487 C2483 1.393 . S
C2487 C2486 1.391 . S
H2488 C2496 0.950 . S
H2489 C2501 0.950 . S
H2490 C2498 0.950 . S
H2491 C2500 0.950 . S
H2492 C2502 0.950 . S
H2493 C2504 0.950 . S
H2494 C2506 0.950 . S
H2495 C2507 0.950 . S
C2496 H2488 0.950 . S
C2496 C2497 1.386 . S
C2496 C2498 1.391 . S
C2497 C2496 1.386 . S
C2497 C2501 1.393 . S
C2498 H2490 0.950 . S
C2498 C2496 1.391 . S
C2498 C2499 1.400 . S
C2499 C2498 1.400 . S
C2499 C2500 1.398 . S
C2499 C2505 1.491 . S
C2500 H2491 0.950 . S
C2500 C2499 1.398 . S
C2500 C2501 1.391 . S
C2501 H2489 0.950 . S
C2501 C2497 1.393 . S
C2501 C2500 1.391 . S
C2502 H2492 0.950 . S
C2502 C2503 1.386 . S
C2502 C2504 1.391 . S
C2503 C2502 1.386 . S
C2503 C2507 1.393 . S
C2504 H2493 0.950 . S
C2504 C2502 1.391 . S
C2504 C2505 1.400 . S
C2505 C2499 1.491 . S
C2505 C2504 1.400 . S
C2505 C2506 1.398 . S
C2506 H2494 0.950 . S
C2506 C2505 1.398 . S
C2506 C2507 1.391 . S
C2507 H2495 0.950 . S
C2507 C2503 1.393 . S
C2507 C2506 1.391 . S
H2508 C2516 0.950 . S
H2509 C2521 0.950 . S
H2510 C2518 0.949 1_554 S
H2511 C2520 0.950 . S
H2512 C2522 0.950 . S
H2513 C2524 0.950 . S
H2514 C2526 0.950 . S
H2515 C2527 0.950 . S
C2516 H2508 0.950 . S
C2516 C2517 1.386 . S
C2516 C2518 1.394 . S
C2517 C2516 1.386 . S
C2517 C2521 1.393 . S
C2518 H2510 0.949 1_556 S
C2518 C2516 1.394 . S
C2518 C2519 1.399 1_556 S
C2519 C2518 1.399 1_554 S
C2519 C2520 1.398 . S
C2519 C2525 1.491 . S
C2520 H2511 0.950 . S
C2520 C2519 1.398 . S
C2520 C2521 1.391 1_554 S
C2521 H2509 0.950 . S
C2521 C2517 1.393 . S
C2521 C2520 1.391 1_556 S
C2522 H2512 0.950 . S
C2522 C2523 1.386 . S
C2522 C2524 1.391 . S
C2523 C2522 1.386 . S
C2523 C2527 1.393 . S
C2524 H2513 0.950 . S
C2524 C2522 1.391 . S
C2524 C2525 1.400 . S
C2525 C2519 1.491 . S
C2525 C2524 1.400 . S
C2525 C2526 1.398 . S
C2526 H2514 0.950 . S
C2526 C2525 1.398 . S
C2526 C2527 1.391 . S
C2527 H2515 0.950 . S
C2527 C2523 1.393 . S
C2527 C2526 1.391 . S
H2528 C2536 0.950 . S
H2529 C2541 0.950 . S
H2530 C2538 0.950 . S
H2531 C2540 0.950 . S
H2532 C2542 0.950 . S
H2533 C2544 0.950 . S
H2534 C2546 0.950 . S
H2535 C2547 0.950 . S
C2536 H2528 0.950 . S
C2536 C2537 1.386 . S
C2536 C2538 1.391 . S
C2537 C2536 1.386 . S
C2537 C2541 1.393 . S
C2538 H2530 0.950 . S
C2538 C2536 1.391 . S
C2538 C2539 1.400 . S
C2539 C2538 1.400 . S
C2539 C2540 1.398 . S
C2539 C2545 1.491 . S
C2540 H2531 0.950 . S
C2540 C2539 1.398 . S
C2540 C2541 1.391 . S
C2541 H2529 0.950 . S
C2541 C2537 1.393 . S
C2541 C2540 1.391 . S
C2542 H2532 0.950 . S
C2542 C2543 1.386 . S
C2542 C2544 1.391 . S
C2543 C2542 1.386 . S
C2543 C2547 1.393 . S
C2544 H2533 0.950 . S
C2544 C2542 1.391 . S
C2544 C2545 1.400 . S
C2545 C2539 1.491 . S
C2545 C2544 1.400 . S
C2545 C2546 1.398 . S
C2546 H2534 0.950 . S
C2546 C2545 1.398 . S
C2546 C2547 1.391 . S
C2547 H2535 0.950 . S
C2547 C2543 1.393 . S
C2547 C2546 1.391 . S
H2548 C2556 0.950 . S
H2549 C2561 0.950 . S
H2550 C2558 0.950 . S
H2551 C2560 0.950 . S
H2552 C2562 0.950 . S
H2553 C2564 0.950 . S
H2554 C2566 0.950 . S
H2555 C2567 0.950 . S
C2556 H2548 0.950 . S
C2556 C2557 1.386 . S
C2556 C2558 1.391 . S
C2557 C2556 1.386 . S
C2557 C2561 1.393 . S
C2558 H2550 0.950 . S
C2558 C2556 1.391 . S
C2558 C2559 1.400 . S
C2559 C2558 1.400 . S
C2559 C2560 1.398 . S
C2559 C2565 1.491 . S
C2560 H2551 0.950 . S
C2560 C2559 1.398 . S
C2560 C2561 1.391 . S
C2561 H2549 0.950 . S
C2561 C2557 1.393 . S
C2561 C2560 1.391 . S
C2562 H2552 0.950 . S
C2562 C2563 1.386 . S
C2562 C2564 1.391 . S
C2563 C2562 1.386 . S
C2563 C2567 1.393 . S
C2564 H2553 0.950 . S
C2564 C2562 1.391 . S
C2564 C2565 1.400 . S
C2565 C2559 1.491 . S
C2565 C2564 1.400 . S
C2565 C2566 1.398 . S
C2566 H2554 0.950 . S
C2566 C2565 1.398 . S
C2566 C2567 1.391 . S
C2567 H2555 0.950 . S
C2567 C2563 1.393 . S
C2567 C2566 1.391 . S
H2568 C2576 0.950 . S
H2569 C2581 0.950 . S
H2570 C2578 0.950 . S
H2571 C2580 0.950 . S
H2572 C2582 0.950 . S
H2573 C2584 0.950 . S
H2574 C2586 0.950 . S
H2575 C2587 0.950 . S
C2576 H2568 0.950 . S
C2576 C2577 1.386 . S
C2576 C2578 1.391 . S
C2577 C2576 1.386 . S
C2577 C2581 1.393 . S
C2578 H2570 0.950 . S
C2578 C2576 1.391 . S
C2578 C2579 1.400 . S
C2579 C2578 1.400 . S
C2579 C2580 1.398 . S
C2579 C2585 1.491 . S
C2580 H2571 0.950 . S
C2580 C2579 1.398 . S
C2580 C2581 1.391 . S
C2581 H2569 0.950 . S
C2581 C2577 1.393 . S
C2581 C2580 1.391 . S
C2582 H2572 0.950 . S
C2582 C2583 1.386 . S
C2582 C2584 1.391 . S
C2583 C2582 1.386 . S
C2583 C2587 1.393 . S
C2584 H2573 0.950 . S
C2584 C2582 1.391 . S
C2584 C2585 1.400 . S
C2585 C2579 1.491 . S
C2585 C2584 1.400 . S
C2585 C2586 1.398 . S
C2586 H2574 0.950 . S
C2586 C2585 1.398 . S
C2586 C2587 1.391 . S
C2587 H2575 0.950 . S
C2587 C2583 1.393 . S
C2587 C2586 1.391 . S
H2588 C2596 0.950 . S
H2589 C2601 0.950 . S
H2590 C2598 0.950 . S
H2591 C2600 0.950 . S
H2592 C2602 0.950 . S
H2593 C2604 0.950 . S
H2594 C2606 0.950 . S
H2595 C2607 0.950 . S
C2596 H2588 0.950 . S
C2596 C2597 1.386 . S
C2596 C2598 1.391 . S
C2597 C2596 1.386 . S
C2597 C2601 1.393 . S
C2598 H2590 0.950 . S
C2598 C2596 1.391 . S
C2598 C2599 1.400 . S
C2599 C2598 1.400 . S
C2599 C2600 1.398 . S
C2599 C2605 1.491 . S
C2600 H2591 0.950 . S
C2600 C2599 1.398 . S
C2600 C2601 1.391 . S
C2601 H2589 0.950 . S
C2601 C2597 1.393 . S
C2601 C2600 1.391 . S
C2602 H2592 0.950 . S
C2602 C2603 1.386 . S
C2602 C2604 1.391 . S
C2603 C2602 1.386 . S
C2603 C2607 1.393 . S
C2604 H2593 0.950 . S
C2604 C2602 1.391 . S
C2604 C2605 1.400 . S
C2605 C2599 1.491 . S
C2605 C2604 1.400 . S
C2605 C2606 1.398 . S
C2606 H2594 0.950 . S
C2606 C2605 1.398 . S
C2606 C2607 1.391 . S
C2607 H2595 0.950 . S
C2607 C2603 1.393 . S
C2607 C2606 1.391 . S
H2608 C2616 0.950 . S
H2609 C2621 0.950 . S
H2610 C2618 0.950 1_545 S
H2611 C2620 0.936 1_545 S
H2612 C2622 0.950 . S
H2613 C2624 0.950 . S
H2614 C2626 0.950 . S
H2615 C2627 0.950 . S
C2616 H2608 0.950 . S
C2616 C2617 1.386 . S
C2616 C2618 1.391 . S
C2617 C2616 1.386 . S
C2617 C2621 1.393 . S
C2618 H2610 0.950 1_565 S
C2618 C2616 1.391 . S
C2618 C2619 1.400 1_565 S
C2619 C2618 1.400 1_545 S
C2619 C2620 1.387 1_545 S
C2619 C2625 1.491 . S
C2620 H2611 0.936 1_565 S
C2620 C2619 1.387 1_565 S
C2620 C2621 1.415 . S
C2621 H2609 0.950 . S
C2621 C2617 1.393 . S
C2621 C2620 1.415 . S
C2622 H2612 0.950 . S
C2622 C2623 1.386 . S
C2622 C2624 1.391 . S
C2623 C2622 1.386 . S
C2623 C2627 1.393 . S
C2624 H2613 0.950 . S
C2624 C2622 1.391 . S
C2624 C2625 1.400 . S
C2625 C2619 1.491 . S
C2625 C2624 1.400 . S
C2625 C2626 1.398 . S
C2626 H2614 0.950 . S
C2626 C2625 1.398 . S
C2626 C2627 1.391 . S
C2627 H2615 0.950 . S
C2627 C2623 1.393 . S
C2627 C2626 1.391 . S
H2628 C2636 0.950 . S
H2629 C2641 0.950 . S
H2630 C2638 0.950 . S
H2631 C2640 0.950 . S
H2632 C2642 0.950 . S
H2633 C2644 0.950 . S
H2634 C2646 0.950 . S
H2635 C2647 0.950 . S
C2636 H2628 0.950 . S
C2636 C2637 1.386 . S
C2636 C2638 1.391 . S
C2637 C2636 1.386 . S
C2637 C2641 1.393 . S
C2638 H2630 0.950 . S
C2638 C2636 1.391 . S
C2638 C2639 1.400 . S
C2639 C2638 1.400 . S
C2639 C2640 1.398 . S
C2639 C2645 1.491 . S
C2640 H2631 0.950 . S
C2640 C2639 1.398 . S
C2640 C2641 1.391 . S
C2641 H2629 0.950 . S
C2641 C2637 1.393 . S
C2641 C2640 1.391 . S
C2642 H2632 0.950 . S
C2642 C2643 1.386 . S
C2642 C2644 1.391 . S
C2643 C2642 1.386 . S
C2643 C2647 1.393 . S
C2644 H2633 0.950 . S
C2644 C2642 1.391 . S
C2644 C2645 1.400 . S
C2645 C2639 1.491 . S
C2645 C2644 1.400 . S
C2645 C2646 1.398 . S
C2646 H2634 0.950 . S
C2646 C2645 1.398 . S
C2646 C2647 1.391 . S
C2647 H2635 0.950 . S
C2647 C2643 1.393 . S
C2647 C2646 1.391 . S
H2648 C2656 0.950 . S
H2649 C2661 0.950 . S
H2650 C2658 0.950 . S
H2651 C2660 0.950 . S
H2652 C2662 0.950 . S
H2653 C2664 0.950 . S
H2654 C2666 0.950 . S
H2655 C2667 0.950 . S
C2656 H2648 0.950 . S
C2656 C2657 1.386 . S
C2656 C2658 1.391 . S
C2657 C2656 1.386 . S
C2657 C2661 1.393 . S
C2658 H2650 0.950 . S
C2658 C2656 1.391 . S
C2658 C2659 1.400 . S
C2659 C2658 1.400 . S
C2659 C2660 1.398 . S
C2659 C2665 1.491 . S
C2660 H2651 0.950 . S
C2660 C2659 1.398 . S
C2660 C2661 1.391 . S
C2661 H2649 0.950 . S
C2661 C2657 1.393 . S
C2661 C2660 1.391 . S
C2662 H2652 0.950 . S
C2662 C2663 1.386 . S
C2662 C2664 1.391 . S
C2663 C2662 1.386 . S
C2663 C2667 1.393 . S
C2664 H2653 0.950 . S
C2664 C2662 1.391 . S
C2664 C2665 1.400 . S
C2665 C2659 1.491 . S
C2665 C2664 1.400 . S
C2665 C2666 1.398 . S
C2666 H2654 0.950 . S
C2666 C2665 1.398 . S
C2666 C2667 1.391 . S
C2667 H2655 0.950 . S
C2667 C2663 1.393 . S
C2667 C2666 1.391 . S
H2668 C2676 0.950 . S
H2669 C2681 0.950 . S
H2670 C2678 0.950 . S
H2671 C2680 0.950 . S
H2672 C2682 0.950 . S
H2673 C2684 0.950 . S
H2674 C2686 0.950 . S
H2675 C2687 0.950 . S
C2676 H2668 0.950 . S
C2676 C2677 1.386 . S
C2676 C2678 1.391 . S
C2677 C2676 1.386 . S
C2677 C2681 1.393 . S
C2678 H2670 0.950 . S
C2678 C2676 1.391 . S
C2678 C2679 1.400 . S
C2679 C2678 1.400 . S
C2679 C2680 1.398 . S
C2679 C2685 1.491 . S
C2680 H2671 0.950 . S
C2680 C2679 1.398 . S
C2680 C2681 1.391 . S
C2681 H2669 0.950 . S
C2681 C2677 1.393 . S
C2681 C2680 1.391 . S
C2682 H2672 0.950 . S
C2682 C2683 1.386 . S
C2682 C2684 1.391 . S
C2683 C2682 1.386 . S
C2683 C2687 1.393 . S
C2684 H2673 0.950 . S
C2684 C2682 1.391 . S
C2684 C2685 1.400 . S
C2685 C2679 1.491 . S
C2685 C2684 1.400 . S
C2685 C2686 1.398 . S
C2686 H2674 0.950 . S
C2686 C2685 1.398 . S
C2686 C2687 1.391 . S
C2687 H2675 0.950 . S
C2687 C2683 1.393 . S
C2687 C2686 1.391 . S
H2688 C2696 0.950 . S
H2689 C2701 0.950 . S
H2690 C2698 0.950 . S
H2691 C2700 0.950 . S
H2692 C2702 0.950 . S
H2693 C2704 0.950 . S
H2694 C2706 0.950 . S
H2695 C2707 0.950 . S
C2696 H2688 0.950 . S
C2696 C2697 1.386 . S
C2696 C2698 1.391 . S
C2697 C2696 1.386 . S
C2697 C2701 1.393 . S
C2698 H2690 0.950 . S
C2698 C2696 1.391 . S
C2698 C2699 1.400 . S
C2699 C2698 1.400 . S
C2699 C2700 1.398 . S
C2699 C2705 1.491 . S
C2700 H2691 0.950 . S
C2700 C2699 1.398 . S
C2700 C2701 1.391 . S
C2701 H2689 0.950 . S
C2701 C2697 1.393 . S
C2701 C2700 1.391 . S
C2702 H2692 0.950 . S
C2702 C2703 1.386 . S
C2702 C2704 1.391 . S
C2703 C2702 1.386 . S
C2703 C2707 1.393 . S
C2704 H2693 0.950 . S
C2704 C2702 1.391 . S
C2704 C2705 1.400 . S
C2705 C2699 1.491 . S
C2705 C2704 1.400 . S
C2705 C2706 1.398 . S
C2706 H2694 0.950 . S
C2706 C2705 1.398 . S
C2706 C2707 1.391 . S
C2707 H2695 0.950 . S
C2707 C2703 1.393 . S
C2707 C2706 1.391 . S
H2708 C2716 0.950 . S
H2709 C2721 0.950 . S
H2710 C2718 0.950 . S
H2711 C2720 0.950 . S
H2712 C2722 0.950 . S
H2713 C2724 0.950 . S
H2714 C2726 0.950 . S
H2715 C2727 0.950 . S
C2716 H2708 0.950 . S
C2716 C2717 1.386 . S
C2716 C2718 1.391 . S
C2717 C2716 1.386 . S
C2717 C2721 1.393 . S
C2718 H2710 0.950 . S
C2718 C2716 1.391 . S
C2718 C2719 1.400 . S
C2719 C2718 1.400 . S
C2719 C2720 1.398 . S
C2719 C2725 1.491 . S
C2720 H2711 0.950 . S
C2720 C2719 1.398 . S
C2720 C2721 1.391 . S
C2721 H2709 0.950 . S
C2721 C2717 1.393 . S
C2721 C2720 1.391 . S
C2722 H2712 0.950 . S
C2722 C2723 1.386 . S
C2722 C2724 1.391 . S
C2723 C2722 1.386 . S
C2723 C2727 1.393 . S
C2724 H2713 0.950 . S
C2724 C2722 1.391 . S
C2724 C2725 1.400 . S
C2725 C2719 1.491 . S
C2725 C2724 1.400 . S
C2725 C2726 1.398 . S
C2726 H2714 0.950 . S
C2726 C2725 1.398 . S
C2726 C2727 1.391 . S
C2727 H2715 0.950 . S
C2727 C2723 1.393 . S
C2727 C2726 1.391 . S
H2728 C2736 0.950 . S
H2729 C2741 0.950 . S
H2730 C2738 0.950 . S
H2731 C2740 0.950 . S
H2732 C2742 0.950 . S
H2733 C2744 0.950 . S
H2734 C2746 0.950 . S
H2735 C2747 0.950 . S
C2736 H2728 0.950 . S
C2736 C2737 1.386 . S
C2736 C2738 1.391 . S
C2737 C2736 1.386 . S
C2737 C2741 1.393 . S
C2738 H2730 0.950 . S
C2738 C2736 1.391 . S
C2738 C2739 1.400 . S
C2739 C2738 1.400 . S
C2739 C2740 1.398 . S
C2739 C2745 1.491 . S
C2740 H2731 0.950 . S
C2740 C2739 1.398 . S
C2740 C2741 1.391 . S
C2741 H2729 0.950 . S
C2741 C2737 1.393 . S
C2741 C2740 1.391 . S
C2742 H2732 0.950 . S
C2742 C2743 1.386 . S
C2742 C2744 1.391 . S
C2743 C2742 1.386 . S
C2743 C2747 1.393 . S
C2744 H2733 0.950 . S
C2744 C2742 1.391 . S
C2744 C2745 1.400 . S
C2745 C2739 1.491 . S
C2745 C2744 1.400 . S
C2745 C2746 1.398 . S
C2746 H2734 0.950 . S
C2746 C2745 1.398 . S
C2746 C2747 1.391 . S
C2747 H2735 0.950 . S
C2747 C2743 1.393 . S
C2747 C2746 1.391 . S
H2748 C2756 0.950 . S
H2749 C2761 0.950 . S
H2750 C2758 0.950 . S
H2751 C2760 0.950 . S
H2752 C2762 0.950 . S
H2753 C2764 0.950 . S
H2754 C2766 0.950 . S
H2755 C2767 0.950 . S
C2756 H2748 0.950 . S
C2756 C2757 1.386 . S
C2756 C2758 1.391 . S
C2757 C2756 1.386 . S
C2757 C2761 1.393 . S
C2758 H2750 0.950 . S
C2758 C2756 1.391 . S
C2758 C2759 1.400 1_655 S
C2759 C2758 1.400 1_455 S
C2759 C2760 1.398 . S
C2759 C2765 1.491 . S
C2760 H2751 0.950 . S
C2760 C2759 1.398 . S
C2760 C2761 1.391 1_455 S
C2761 H2749 0.950 . S
C2761 C2757 1.393 . S
C2761 C2760 1.391 1_655 S
C2762 H2752 0.950 . S
C2762 C2763 1.386 . S
C2762 C2764 1.391 . S
C2763 C2762 1.386 . S
C2763 C2767 1.393 . S
C2764 H2753 0.950 . S
C2764 C2762 1.391 . S
C2764 C2765 1.400 . S
C2765 C2759 1.491 . S
C2765 C2764 1.400 . S
C2765 C2766 1.398 . S
C2766 H2754 0.950 . S
C2766 C2765 1.398 . S
C2766 C2767 1.391 . S
C2767 H2755 0.950 . S
C2767 C2763 1.393 . S
C2767 C2766 1.391 . S
H2768 C2776 0.950 . S
H2769 C2781 0.950 . S
H2770 C2778 0.950 . S
H2771 C2780 0.950 . S
H2772 C2782 0.950 . S
H2773 C2784 0.950 . S
H2774 C2786 0.950 . S
H2775 C2787 0.950 . S
C2776 H2768 0.950 . S
C2776 C2777 1.386 . S
C2776 C2778 1.391 . S
C2777 C2776 1.386 . S
C2777 C2781 1.393 . S
C2778 H2770 0.950 . S
C2778 C2776 1.391 . S
C2778 C2779 1.400 . S
C2779 C2778 1.400 . S
C2779 C2780 1.398 . S
C2779 C2785 1.491 . S
C2780 H2771 0.950 . S
C2780 C2779 1.398 . S
C2780 C2781 1.391 . S
C2781 H2769 0.950 . S
C2781 C2777 1.393 . S
C2781 C2780 1.391 . S
C2782 H2772 0.950 . S
C2782 C2783 1.386 . S
C2782 C2784 1.391 . S
C2783 C2782 1.386 . S
C2783 C2787 1.393 . S
C2784 H2773 0.950 . S
C2784 C2782 1.391 . S
C2784 C2785 1.400 . S
C2785 C2779 1.491 . S
C2785 C2784 1.400 . S
C2785 C2786 1.398 . S
C2786 H2774 0.950 . S
C2786 C2785 1.398 . S
C2786 C2787 1.391 . S
C2787 H2775 0.950 . S
C2787 C2783 1.393 . S
C2787 C2786 1.391 . S
H2788 C2796 0.950 . S
H2789 C2801 0.950 . S
H2790 C2798 0.950 . S
H2791 C2800 0.950 . S
H2792 C2802 0.950 . S
H2793 C2804 0.950 . S
H2794 C2806 0.952 . S
H2795 C2807 0.950 . S
C2796 H2788 0.950 . S
C2796 C2797 1.386 . S
C2796 C2798 1.391 . S
C2797 C2796 1.386 . S
C2797 C2801 1.393 . S
C2798 H2790 0.950 . S
C2798 C2796 1.391 . S
C2798 C2799 1.400 . S
C2799 C2798 1.400 . S
C2799 C2800 1.398 . S
C2799 C2805 1.491 . S
C2800 H2791 0.950 . S
C2800 C2799 1.398 . S
C2800 C2801 1.391 . S
C2801 H2789 0.950 . S
C2801 C2797 1.393 . S
C2801 C2800 1.391 . S
C2802 H2792 0.950 . S
C2802 C2803 1.386 . S
C2802 C2804 1.391 . S
C2803 C2802 1.386 . S
C2803 C2807 1.393 . S
C2804 H2793 0.950 . S
C2804 C2802 1.391 . S
C2804 C2805 1.400 1_655 S
C2805 C2799 1.491 . S
C2805 C2804 1.400 1_455 S
C2805 C2806 1.399 . S
C2806 H2794 0.952 . S
C2806 C2805 1.399 . S
C2806 C2807 1.389 1_455 S
C2807 H2795 0.950 . S
C2807 C2803 1.393 . S
C2807 C2806 1.389 1_655 S
H2808 C2816 0.950 . S
H2809 C2821 0.950 . S
H2810 C2818 0.950 . S
H2811 C2820 0.950 . S
H2812 C2822 0.950 . S
H2813 C2824 0.950 . S
H2814 C2826 0.950 . S
H2815 C2827 0.950 . S
C2816 H2808 0.950 . S
C2816 C2817 1.386 . S
C2816 C2818 1.391 . S
C2817 C2816 1.386 . S
C2817 C2821 1.393 . S
C2818 H2810 0.950 . S
C2818 C2816 1.391 . S
C2818 C2819 1.400 . S
C2819 C2818 1.400 . S
C2819 C2820 1.398 . S
C2819 C2825 1.491 . S
C2820 H2811 0.950 . S
C2820 C2819 1.398 . S
C2820 C2821 1.391 . S
C2821 H2809 0.950 . S
C2821 C2817 1.393 . S
C2821 C2820 1.391 . S
C2822 H2812 0.950 . S
C2822 C2823 1.386 . S
C2822 C2824 1.391 . S
C2823 C2822 1.386 . S
C2823 C2827 1.393 . S
C2824 H2813 0.950 . S
C2824 C2822 1.391 . S
C2824 C2825 1.400 . S
C2825 C2819 1.491 . S
C2825 C2824 1.400 . S
C2825 C2826 1.398 . S
C2826 H2814 0.950 . S
C2826 C2825 1.398 . S
C2826 C2827 1.391 . S
C2827 H2815 0.950 . S
C2827 C2823 1.393 . S
C2827 C2826 1.391 . S
H2828 C2836 0.950 . S
H2829 C2841 0.950 . S
H2830 C2838 0.950 . S
H2831 C2840 0.950 . S
H2832 C2842 0.950 . S
H2833 C2844 0.950 . S
H2834 C2846 0.950 . S
H2835 C2847 0.950 . S
C2836 H2828 0.950 . S
C2836 C2837 1.386 . S
C2836 C2838 1.391 . S
C2837 C2836 1.386 . S
C2837 C2841 1.393 . S
C2838 H2830 0.950 . S
C2838 C2836 1.391 . S
C2838 C2839 1.400 . S
C2839 C2838 1.400 . S
C2839 C2840 1.398 . S
C2839 C2845 1.491 . S
C2840 H2831 0.950 . S
C2840 C2839 1.398 . S
C2840 C2841 1.391 . S
C2841 H2829 0.950 . S
C2841 C2837 1.393 . S
C2841 C2840 1.391 . S
C2842 H2832 0.950 . S
C2842 C2843 1.386 . S
C2842 C2844 1.391 . S
C2843 C2842 1.386 . S
C2843 C2847 1.393 . S
C2844 H2833 0.950 . S
C2844 C2842 1.391 . S
C2844 C2845 1.400 . S
C2845 C2839 1.491 . S
C2845 C2844 1.400 . S
C2845 C2846 1.398 . S
C2846 H2834 0.950 . S
C2846 C2845 1.398 . S
C2846 C2847 1.391 . S
C2847 H2835 0.950 . S
C2847 C2843 1.393 . S
C2847 C2846 1.391 . S
H2848 C2856 0.950 . S
H2849 C2861 0.950 . S
H2850 C2858 0.950 . S
H2851 C2860 0.950 . S
H2852 C2862 0.950 . S
H2853 C2864 0.950 . S
H2854 C2866 0.950 . S
H2855 C2867 0.950 . S
C2856 H2848 0.950 . S
C2856 C2857 1.386 . S
C2856 C2858 1.391 . S
C2857 C2856 1.386 . S
C2857 C2861 1.393 . S
C2858 H2850 0.950 . S
C2858 C2856 1.391 . S
C2858 C2859 1.400 . S
C2859 C2858 1.400 . S
C2859 C2860 1.398 . S
C2859 C2865 1.491 . S
C2860 H2851 0.950 . S
C2860 C2859 1.398 . S
C2860 C2861 1.391 . S
C2861 H2849 0.950 . S
C2861 C2857 1.393 . S
C2861 C2860 1.391 . S
C2862 H2852 0.950 . S
C2862 C2863 1.386 . S
C2862 C2864 1.391 . S
C2863 C2862 1.386 . S
C2863 C2867 1.393 . S
C2864 H2853 0.950 . S
C2864 C2862 1.391 . S
C2864 C2865 1.400 . S
C2865 C2859 1.491 . S
C2865 C2864 1.400 . S
C2865 C2866 1.398 . S
C2866 H2854 0.950 . S
C2866 C2865 1.398 . S
C2866 C2867 1.391 . S
C2867 H2855 0.950 . S
C2867 C2863 1.393 . S
C2867 C2866 1.391 . S
H2868 C2876 0.950 . S
H2869 C2881 0.950 . S
H2870 C2878 0.950 . S
H2871 C2880 0.950 . S
H2872 C2882 0.950 . S
H2873 C2884 0.950 . S
H2874 C2886 0.948 . S
H2875 C2887 0.950 . S
C2876 H2868 0.950 . S
C2876 C2877 1.386 . S
C2876 C2878 1.391 . S
C2877 C2876 1.386 . S
C2877 C2881 1.393 . S
C2878 H2870 0.950 . S
C2878 C2876 1.391 . S
C2878 C2879 1.400 . S
C2879 C2878 1.400 . S
C2879 C2880 1.398 . S
C2879 C2885 1.491 . S
C2880 H2871 0.950 . S
C2880 C2879 1.398 . S
C2880 C2881 1.391 . S
C2881 H2869 0.950 . S
C2881 C2877 1.393 . S
C2881 C2880 1.391 . S
C2882 H2872 0.950 . S
C2882 C2883 1.386 . S
C2882 C2884 1.391 . S
C2883 C2882 1.386 . S
C2883 C2887 1.393 . S
C2884 H2873 0.950 . S
C2884 C2882 1.391 . S
C2884 C2885 1.400 1_556 S
C2885 C2879 1.491 . S
C2885 C2884 1.400 1_554 S
C2885 C2886 1.398 1_554 S
C2886 H2874 0.948 . S
C2886 C2885 1.398 1_556 S
C2886 C2887 1.391 . S
C2887 H2875 0.950 . S
C2887 C2883 1.393 . S
C2887 C2886 1.391 . S
H2888 C2896 0.950 . S
H2889 C2901 0.950 . S
H2890 C2898 0.950 . S
H2891 C2900 0.950 . S
H2892 C2902 0.950 . S
H2893 C2904 0.950 . S
H2894 C2906 0.950 . S
H2895 C2907 0.950 . S
C2896 H2888 0.950 . S
C2896 C2897 1.386 . S
C2896 C2898 1.391 . S
C2897 C2896 1.386 . S
C2897 C2901 1.393 . S
C2898 H2890 0.950 . S
C2898 C2896 1.391 . S
C2898 C2899 1.400 . S
C2899 C2898 1.400 . S
C2899 C2900 1.398 . S
C2899 C2905 1.491 . S
C2900 H2891 0.950 . S
C2900 C2899 1.398 . S
C2900 C2901 1.391 . S
C2901 H2889 0.950 . S
C2901 C2897 1.393 . S
C2901 C2900 1.391 . S
C2902 H2892 0.950 . S
C2902 C2903 1.386 . S
C2902 C2904 1.391 . S
C2903 C2902 1.386 . S
C2903 C2907 1.393 . S
C2904 H2893 0.950 . S
C2904 C2902 1.391 . S
C2904 C2905 1.400 . S
C2905 C2899 1.491 . S
C2905 C2904 1.400 . S
C2905 C2906 1.398 . S
C2906 H2894 0.950 . S
C2906 C2905 1.398 . S
C2906 C2907 1.391 . S
C2907 H2895 0.950 . S
C2907 C2903 1.393 . S
C2907 C2906 1.391 . S
H2908 C2916 0.950 . S
H2909 C2921 0.950 . S
H2910 C2918 0.950 . S
H2911 C2920 0.950 . S
H2912 C2922 0.950 . S
H2913 C2924 0.950 . S
H2914 C2926 0.950 . S
H2915 C2927 0.950 . S
C2916 H2908 0.950 . S
C2916 C2917 1.386 . S
C2916 C2918 1.391 . S
C2917 C2916 1.386 . S
C2917 C2921 1.393 . S
C2918 H2910 0.950 . S
C2918 C2916 1.391 . S
C2918 C2919 1.400 . S
C2919 C2918 1.400 . S
C2919 C2920 1.398 . S
C2919 C2925 1.491 . S
C2920 H2911 0.950 . S
C2920 C2919 1.398 . S
C2920 C2921 1.391 . S
C2921 H2909 0.950 . S
C2921 C2917 1.393 . S
C2921 C2920 1.391 . S
C2922 H2912 0.950 . S
C2922 C2923 1.386 . S
C2922 C2924 1.391 . S
C2923 C2922 1.386 . S
C2923 C2927 1.393 . S
C2924 H2913 0.950 . S
C2924 C2922 1.391 . S
C2924 C2925 1.400 . S
C2925 C2919 1.491 . S
C2925 C2924 1.400 . S
C2925 C2926 1.398 . S
C2926 H2914 0.950 . S
C2926 C2925 1.398 . S
C2926 C2927 1.391 . S
C2927 H2915 0.950 . S
C2927 C2923 1.393 . S
C2927 C2926 1.391 . S
H2928 C2936 0.950 . S
H2929 C2941 0.950 . S
H2930 C2938 0.950 . S
H2931 C2940 0.950 . S
H2932 C2942 0.950 . S
H2933 C2944 0.950 . S
H2934 C2946 0.950 . S
H2935 C2947 0.950 . S
C2936 H2928 0.950 . S
C2936 C2937 1.386 . S
C2936 C2938 1.391 . S
C2937 C2936 1.386 . S
C2937 C2941 1.393 . S
C2938 H2930 0.950 . S
C2938 C2936 1.391 . S
C2938 C2939 1.400 . S
C2939 C2938 1.400 . S
C2939 C2940 1.398 . S
C2939 C2945 1.491 . S
C2940 H2931 0.950 . S
C2940 C2939 1.398 . S
C2940 C2941 1.391 . S
C2941 H2929 0.950 . S
C2941 C2937 1.393 . S
C2941 C2940 1.391 . S
C2942 H2932 0.950 . S
C2942 C2943 1.386 . S
C2942 C2944 1.391 . S
C2943 C2942 1.386 . S
C2943 C2947 1.393 . S
C2944 H2933 0.950 . S
C2944 C2942 1.391 . S
C2944 C2945 1.400 . S
C2945 C2939 1.491 . S
C2945 C2944 1.400 . S
C2945 C2946 1.398 . S
C2946 H2934 0.950 . S
C2946 C2945 1.398 . S
C2946 C2947 1.391 . S
C2947 H2935 0.950 . S
C2947 C2943 1.393 . S
C2947 C2946 1.391 . S
H2948 C2956 0.950 . S
H2949 C2961 0.950 . S
H2950 C2958 0.950 . S
H2951 C2960 0.950 . S
H2952 C2962 0.950 . S
H2953 C2964 0.950 . S
H2954 C2966 0.940 1_556 S
H2955 C2967 0.950 . S
C2956 H2948 0.950 . S
C2956 C2957 1.386 . S
C2956 C2958 1.391 . S
C2957 C2956 1.386 . S
C2957 C2961 1.393 . S
C2958 H2950 0.950 . S
C2958 C2956 1.391 . S
C2958 C2959 1.400 . S
C2959 C2958 1.400 . S
C2959 C2960 1.398 . S
C2959 C2965 1.491 . S
C2960 H2951 0.950 . S
C2960 C2959 1.398 . S
C2960 C2961 1.391 . S
C2961 H2949 0.950 . S
C2961 C2957 1.393 . S
C2961 C2960 1.391 . S
C2962 H2952 0.950 . S
C2962 C2963 1.386 . S
C2962 C2964 1.391 . S
C2963 C2962 1.386 . S
C2963 C2967 1.393 . S
C2964 H2953 0.950 . S
C2964 C2962 1.391 . S
C2964 C2965 1.400 1_554 S
C2965 C2959 1.491 . S
C2965 C2964 1.400 1_556 S
C2965 C2966 1.398 1_556 S
C2966 H2954 0.940 1_554 S
C2966 C2965 1.398 1_554 S
C2966 C2967 1.391 . S
C2967 H2955 0.950 . S
C2967 C2963 1.393 . S
C2967 C2966 1.391 . S
H2968 C2976 0.950 . S
H2969 C2981 0.950 . S
H2970 C2978 0.950 . S
H2971 C2980 0.950 . S
H2972 C2982 0.950 . S
H2973 C2984 0.950 . S
H2974 C2986 0.950 . S
H2975 C2987 0.950 . S
C2976 H2968 0.950 . S
C2976 C2977 1.386 . S
C2976 C2978 1.391 . S
C2977 C2976 1.386 . S
C2977 C2981 1.393 . S
C2978 H2970 0.950 . S
C2978 C2976 1.391 . S
C2978 C2979 1.400 . S
C2979 C2978 1.400 . S
C2979 C2980 1.398 . S
C2979 C2985 1.491 . S
C2980 H2971 0.950 . S
C2980 C2979 1.398 . S
C2980 C2981 1.391 . S
C2981 H2969 0.950 . S
C2981 C2977 1.393 . S
C2981 C2980 1.391 . S
C2982 H2972 0.950 . S
C2982 C2983 1.386 . S
C2982 C2984 1.391 . S
C2983 C2982 1.386 . S
C2983 C2987 1.393 . S
C2984 H2973 0.950 . S
C2984 C2982 1.391 . S
C2984 C2985 1.400 . S
C2985 C2979 1.491 . S
C2985 C2984 1.400 . S
C2985 C2986 1.398 . S
C2986 H2974 0.950 . S
C2986 C2985 1.398 . S
C2986 C2987 1.391 . S
C2987 H2975 0.950 . S
C2987 C2983 1.393 . S
C2987 C2986 1.391 . S
H2988 C2996 0.950 . S
H2989 C3001 0.950 . S
H2990 C2998 0.950 . S
H2991 C3000 0.950 . S
H2992 C3002 0.950 . S
H2993 C3004 0.950 . S
H2994 C3006 0.950 . S
H2995 C3007 0.950 . S
C2996 H2988 0.950 . S
C2996 C2997 1.386 . S
C2996 C2998 1.391 . S
C2997 C2996 1.386 . S
C2997 C3001 1.393 . S
C2998 H2990 0.950 . S
C2998 C2996 1.391 . S
C2998 C2999 1.400 . S
C2999 C2998 1.400 . S
C2999 C3000 1.398 . S
C2999 C3005 1.491 . S
C3000 H2991 0.950 . S
C3000 C2999 1.398 . S
C3000 C3001 1.391 . S
C3001 H2989 0.950 . S
C3001 C2997 1.393 . S
C3001 C3000 1.391 . S
C3002 H2992 0.950 . S
C3002 C3003 1.386 . S
C3002 C3004 1.391 . S
C3003 C3002 1.386 . S
C3003 C3007 1.393 . S
C3004 H2993 0.950 . S
C3004 C3002 1.391 . S
C3004 C3005 1.400 . S
C3005 C2999 1.491 . S
C3005 C3004 1.400 . S
C3005 C3006 1.398 . S
C3006 H2994 0.950 . S
C3006 C3005 1.398 . S
C3006 C3007 1.391 . S
C3007 H2995 0.950 . S
C3007 C3003 1.393 . S
C3007 C3006 1.391 . S
H3008 C3016 0.950 . S
H3009 C3021 0.950 . S
H3010 C3018 0.950 . S
H3011 C3020 0.950 . S
H3012 C3022 0.950 . S
H3013 C3024 0.950 . S
H3014 C3026 0.950 . S
H3015 C3027 0.950 . S
C3016 H3008 0.950 . S
C3016 C3017 1.386 . S
C3016 C3018 1.391 . S
C3017 C3016 1.386 . S
C3017 C3021 1.393 . S
C3018 H3010 0.950 . S
C3018 C3016 1.391 . S
C3018 C3019 1.400 . S
C3019 C3018 1.400 . S
C3019 C3020 1.398 . S
C3019 C3025 1.491 . S
C3020 H3011 0.950 . S
C3020 C3019 1.398 . S
C3020 C3021 1.391 . S
C3021 H3009 0.950 . S
C3021 C3017 1.393 . S
C3021 C3020 1.391 . S
C3022 H3012 0.950 . S
C3022 C3023 1.386 . S
C3022 C3024 1.391 . S
C3023 C3022 1.386 . S
C3023 C3027 1.393 . S
C3024 H3013 0.950 . S
C3024 C3022 1.391 . S
C3024 C3025 1.400 . S
C3025 C3019 1.491 . S
C3025 C3024 1.400 . S
C3025 C3026 1.398 . S
C3026 H3014 0.950 . S
C3026 C3025 1.398 . S
C3026 C3027 1.391 . S
C3027 H3015 0.950 . S
C3027 C3023 1.393 . S
C3027 C3026 1.391 . S
H3028 C3036 0.950 . S
H3029 C3041 0.950 . S
H3030 C3038 0.950 . S
H3031 C3040 0.950 . S
H3032 C3042 0.950 . S
H3033 C3044 0.950 . S
H3034 C3046 0.950 . S
H3035 C3047 0.950 . S
C3036 H3028 0.950 . S
C3036 C3037 1.386 . S
C3036 C3038 1.391 . S
C3037 C3036 1.386 . S
C3037 C3041 1.393 . S
C3038 H3030 0.950 . S
C3038 C3036 1.391 . S
C3038 C3039 1.400 . S
C3039 C3038 1.400 . S
C3039 C3040 1.398 . S
C3039 C3045 1.491 . S
C3040 H3031 0.950 . S
C3040 C3039 1.398 . S
C3040 C3041 1.391 . S
C3041 H3029 0.950 . S
C3041 C3037 1.393 . S
C3041 C3040 1.391 . S
C3042 H3032 0.950 . S
C3042 C3043 1.386 . S
C3042 C3044 1.391 . S
C3043 C3042 1.386 . S
C3043 C3047 1.393 . S
C3044 H3033 0.950 . S
C3044 C3042 1.391 . S
C3044 C3045 1.400 . S
C3045 C3039 1.491 . S
C3045 C3044 1.400 . S
C3045 C3046 1.398 . S
C3046 H3034 0.950 . S
C3046 C3045 1.398 . S
C3046 C3047 1.391 . S
C3047 H3035 0.950 . S
C3047 C3043 1.393 . S
C3047 C3046 1.391 . S
H3048 C3056 0.950 . S
H3049 C3061 0.950 . S
H3050 C3058 0.950 . S
H3051 C3060 0.950 . S
H3052 C3062 0.950 . S
H3053 C3064 0.950 1_545 S
H3054 C3066 0.950 . S
H3055 C3067 0.950 . S
C3056 H3048 0.950 . S
C3056 C3057 1.386 . S
C3056 C3058 1.391 . S
C3057 C3056 1.386 . S
C3057 C3061 1.393 . S
C3058 H3050 0.950 . S
C3058 C3056 1.391 . S
C3058 C3059 1.400 . S
C3059 C3058 1.400 . S
C3059 C3060 1.398 . S
C3059 C3065 1.491 . S
C3060 H3051 0.950 . S
C3060 C3059 1.398 . S
C3060 C3061 1.391 . S
C3061 H3049 0.950 . S
C3061 C3057 1.393 . S
C3061 C3060 1.391 . S
C3062 H3052 0.950 . S
C3062 C3063 1.386 . S
C3062 C3064 1.391 . S
C3063 C3062 1.386 . S
C3063 C3067 1.393 . S
C3064 H3053 0.950 1_565 S
C3064 C3062 1.391 . S
C3064 C3065 1.400 1_565 S
C3065 C3059 1.491 . S
C3065 C3064 1.400 1_545 S
C3065 C3066 1.398 1_545 S
C3066 H3054 0.950 . S
C3066 C3065 1.398 1_565 S
C3066 C3067 1.391 . S
C3067 H3055 0.950 . S
C3067 C3063 1.393 . S
C3067 C3066 1.391 . S
H3068 C3076 0.950 . S
H3069 C3081 0.950 . S
H3070 C3078 0.950 . S
H3071 C3080 0.950 . S
H3072 C3082 0.950 . S
H3073 C3084 0.950 . S
H3074 C3086 0.950 . S
H3075 C3087 0.950 . S
C3076 H3068 0.950 . S
C3076 C3077 1.386 . S
C3076 C3078 1.391 . S
C3077 C3076 1.386 . S
C3077 C3081 1.393 . S
C3078 H3070 0.950 . S
C3078 C3076 1.391 . S
C3078 C3079 1.400 . S
C3079 C3078 1.400 . S
C3079 C3080 1.398 . S
C3079 C3085 1.491 . S
C3080 H3071 0.950 . S
C3080 C3079 1.398 . S
C3080 C3081 1.391 . S
C3081 H3069 0.950 . S
C3081 C3077 1.393 . S
C3081 C3080 1.391 . S
C3082 H3072 0.950 . S
C3082 C3083 1.386 . S
C3082 C3084 1.391 . S
C3083 C3082 1.386 . S
C3083 C3087 1.393 . S
C3084 H3073 0.950 . S
C3084 C3082 1.391 . S
C3084 C3085 1.400 . S
C3085 C3079 1.491 . S
C3085 C3084 1.400 . S
C3085 C3086 1.398 . S
C3086 H3074 0.950 . S
C3086 C3085 1.398 . S
C3086 C3087 1.391 . S
C3087 H3075 0.950 . S
C3087 C3083 1.393 . S
C3087 C3086 1.391 . S
H3088 C3096 0.950 . S
H3089 C3101 0.950 . S
H3090 C3098 0.950 . S
H3091 C3100 0.950 . S
H3092 C3102 0.950 . S
H3093 C3104 0.950 . S
H3094 C3106 0.950 . S
H3095 C3107 0.950 . S
C3096 H3088 0.950 . S
C3096 C3097 1.386 . S
C3096 C3098 1.391 . S
C3097 C3096 1.386 . S
C3097 C3101 1.393 . S
C3098 H3090 0.950 . S
C3098 C3096 1.391 . S
C3098 C3099 1.400 . S
C3099 C3098 1.400 . S
C3099 C3100 1.398 . S
C3099 C3105 1.491 . S
C3100 H3091 0.950 . S
C3100 C3099 1.398 . S
C3100 C3101 1.391 . S
C3101 H3089 0.950 . S
C3101 C3097 1.393 . S
C3101 C3100 1.391 . S
C3102 H3092 0.950 . S
C3102 C3103 1.386 . S
C3102 C3104 1.391 . S
C3103 C3102 1.386 . S
C3103 C3107 1.393 . S
C3104 H3093 0.950 . S
C3104 C3102 1.391 . S
C3104 C3105 1.400 . S
C3105 C3099 1.491 . S
C3105 C3104 1.400 . S
C3105 C3106 1.398 . S
C3106 H3094 0.950 . S
C3106 C3105 1.398 . S
C3106 C3107 1.391 . S
C3107 H3095 0.950 . S
C3107 C3103 1.393 . S
C3107 C3106 1.391 . S
H3108 C3116 0.950 . S
H3109 C3121 0.950 . S
H3110 C3118 0.950 . S
H3111 C3120 0.950 . S
H3112 C3122 0.950 . S
H3113 C3124 0.950 . S
H3114 C3126 0.950 . S
H3115 C3127 0.950 . S
C3116 H3108 0.950 . S
C3116 C3117 1.386 . S
C3116 C3118 1.391 . S
C3117 C3116 1.386 . S
C3117 C3121 1.393 . S
C3118 H3110 0.950 . S
C3118 C3116 1.391 . S
C3118 C3119 1.400 . S
C3119 C3118 1.400 . S
C3119 C3120 1.398 . S
C3119 C3125 1.491 . S
C3120 H3111 0.950 . S
C3120 C3119 1.398 . S
C3120 C3121 1.391 . S
C3121 H3109 0.950 . S
C3121 C3117 1.393 . S
C3121 C3120 1.391 . S
C3122 H3112 0.950 . S
C3122 C3123 1.386 . S
C3122 C3124 1.391 . S
C3123 C3122 1.386 . S
C3123 C3127 1.393 . S
C3124 H3113 0.950 . S
C3124 C3122 1.391 . S
C3124 C3125 1.400 . S
C3125 C3119 1.491 . S
C3125 C3124 1.400 . S
C3125 C3126 1.398 . S
C3126 H3114 0.950 . S
C3126 C3125 1.398 . S
C3126 C3127 1.391 . S
C3127 H3115 0.950 . S
C3127 C3123 1.393 . S
C3127 C3126 1.391 . S
H3128 C3136 0.950 . S
H3129 C3141 0.950 . S
H3130 C3138 0.950 . S
H3131 C3140 0.950 1_565 S
H3132 C3142 0.950 . S
H3133 C3144 0.950 . S
H3134 C3146 0.950 . S
H3135 C3147 0.950 . S
C3136 H3128 0.950 . S
C3136 C3137 1.386 . S
C3136 C3138 1.391 . S
C3137 C3136 1.386 . S
C3137 C3141 1.393 . S
C3138 H3130 0.950 . S
C3138 C3136 1.391 . S
C3138 C3139 1.400 1_545 S
C3139 C3138 1.400 1_565 S
C3139 C3140 1.398 1_565 S
C3139 C3145 1.491 . S
C3140 H3131 0.950 1_545 S
C3140 C3139 1.398 1_545 S
C3140 C3141 1.391 . S
C3141 H3129 0.950 . S
C3141 C3137 1.393 . S
C3141 C3140 1.391 . S
C3142 H3132 0.950 . S
C3142 C3143 1.386 . S
C3142 C3144 1.391 . S
C3143 C3142 1.386 . S
C3143 C3147 1.393 . S
C3144 H3133 0.950 . S
C3144 C3142 1.391 . S
C3144 C3145 1.400 . S
C3145 C3139 1.491 . S
C3145 C3144 1.400 . S
C3145 C3146 1.398 . S
C3146 H3134 0.950 . S
C3146 C3145 1.398 . S
C3146 C3147 1.391 . S
C3147 H3135 0.950 . S
C3147 C3143 1.393 . S
C3147 C3146 1.391 . S
H3148 C3156 0.950 . S
H3149 C3161 0.950 . S
H3150 C3158 0.950 . S
H3151 C3160 0.950 . S
H3152 C3162 0.950 . S
H3153 C3164 0.950 . S
H3154 C3166 0.950 1_545 S
H3155 C3167 0.950 . S
C3156 H3148 0.950 . S
C3156 C3157 1.386 . S
C3156 C3158 1.391 . S
C3157 C3156 1.386 . S
C3157 C3161 1.393 . S
C3158 H3150 0.950 . S
C3158 C3156 1.391 . S
C3158 C3159 1.400 . S
C3159 C3158 1.400 . S
C3159 C3160 1.398 . S
C3159 C3165 1.491 . S
C3160 H3151 0.950 . S
C3160 C3159 1.398 . S
C3160 C3161 1.391 . S
C3161 H3149 0.950 . S
C3161 C3157 1.393 . S
C3161 C3160 1.391 . S
C3162 H3152 0.950 . S
C3162 C3163 1.386 . S
C3162 C3164 1.391 . S
C3163 C3162 1.386 . S
C3163 C3167 1.393 . S
C3164 H3153 0.950 . S
C3164 C3162 1.391 . S
C3164 C3165 1.400 1_565 S
C3165 C3159 1.491 . S
C3165 C3164 1.400 1_545 S
C3165 C3166 1.398 1_545 S
C3166 H3154 0.950 1_565 S
C3166 C3165 1.398 1_565 S
C3166 C3167 1.391 . S
C3167 H3155 0.950 . S
C3167 C3163 1.393 . S
C3167 C3166 1.391 . S
H3168 C3176 0.950 . S
H3169 C3181 0.950 . S
H3170 C3178 0.950 . S
H3171 C3180 0.950 . S
H3172 C3182 0.950 . S
H3173 C3184 0.950 . S
H3174 C3186 0.950 . S
H3175 C3187 0.950 . S
C3176 H3168 0.950 . S
C3176 C3177 1.386 . S
C3176 C3178 1.391 . S
C3177 C3176 1.386 . S
C3177 C3181 1.393 . S
C3178 H3170 0.950 . S
C3178 C3176 1.391 . S
C3178 C3179 1.400 . S
C3179 C3178 1.400 . S
C3179 C3180 1.398 . S
C3179 C3185 1.491 . S
C3180 H3171 0.950 . S
C3180 C3179 1.398 . S
C3180 C3181 1.391 . S
C3181 H3169 0.950 . S
C3181 C3177 1.393 . S
C3181 C3180 1.391 . S
C3182 H3172 0.950 . S
C3182 C3183 1.386 . S
C3182 C3184 1.391 . S
C3183 C3182 1.386 . S
C3183 C3187 1.393 . S
C3184 H3173 0.950 . S
C3184 C3182 1.391 . S
C3184 C3185 1.400 . S
C3185 C3179 1.491 . S
C3185 C3184 1.400 . S
C3185 C3186 1.398 . S
C3186 H3174 0.950 . S
C3186 C3185 1.398 . S
C3186 C3187 1.391 . S
C3187 H3175 0.950 . S
C3187 C3183 1.393 . S
C3187 C3186 1.391 . S
H3188 C3196 0.950 . S
H3189 C3201 0.950 . S
H3190 C3198 0.950 . S
H3191 C3200 0.950 . S
H3192 C3202 0.950 . S
H3193 C3204 0.950 . S
H3194 C3206 0.950 . S
H3195 C3207 0.950 . S
C3196 H3188 0.950 . S
C3196 C3197 1.386 . S
C3196 C3198 1.391 . S
C3197 C3196 1.386 . S
C3197 C3201 1.393 . S
C3198 H3190 0.950 . S
C3198 C3196 1.391 . S
C3198 C3199 1.400 . S
C3199 C3198 1.400 . S
C3199 C3200 1.398 . S
C3199 C3205 1.491 . S
C3200 H3191 0.950 . S
C3200 C3199 1.398 . S
C3200 C3201 1.391 . S
C3201 H3189 0.950 . S
C3201 C3197 1.393 . S
C3201 C3200 1.391 . S
C3202 H3192 0.950 . S
C3202 C3203 1.386 . S
C3202 C3204 1.391 . S
C3203 C3202 1.386 . S
C3203 C3207 1.393 . S
C3204 H3193 0.950 . S
C3204 C3202 1.391 . S
C3204 C3205 1.400 . S
C3205 C3199 1.491 . S
C3205 C3204 1.400 . S
C3205 C3206 1.398 . S
C3206 H3194 0.950 . S
C3206 C3205 1.398 . S
C3206 C3207 1.391 . S
C3207 H3195 0.950 . S
C3207 C3203 1.393 . S
C3207 C3206 1.391 . S
H3208 C3216 0.950 . S
H3209 C3221 0.950 . S
H3210 C3218 0.950 . S
H3211 C3220 0.950 . S
H3212 C3222 0.950 . S
H3213 C3224 0.950 . S
H3214 C3226 0.950 . S
H3215 C3227 0.950 . S
C3216 H3208 0.950 . S
C3216 C3217 1.386 . S
C3216 C3218 1.391 . S
C3217 C3216 1.386 . S
C3217 C3221 1.393 . S
C3218 H3210 0.950 . S
C3218 C3216 1.391 . S
C3218 C3219 1.400 . S
C3219 C3218 1.400 . S
C3219 C3220 1.398 . S
C3219 C3225 1.491 . S
C3220 H3211 0.950 . S
C3220 C3219 1.398 . S
C3220 C3221 1.391 . S
C3221 H3209 0.950 . S
C3221 C3217 1.393 . S
C3221 C3220 1.391 . S
C3222 H3212 0.950 . S
C3222 C3223 1.386 . S
C3222 C3224 1.391 . S
C3223 C3222 1.386 . S
C3223 C3227 1.393 . S
C3224 H3213 0.950 . S
C3224 C3222 1.391 . S
C3224 C3225 1.400 . S
C3225 C3219 1.491 . S
C3225 C3224 1.400 . S
C3225 C3226 1.398 . S
C3226 H3214 0.950 . S
C3226 C3225 1.398 . S
C3226 C3227 1.391 . S
C3227 H3215 0.950 . S
C3227 C3223 1.393 . S
C3227 C3226 1.391 . S
H3228 C3236 0.950 . S
H3229 C3241 0.950 . S
H3230 C3238 0.950 1_655 S
H3231 C3240 0.935 1_655 S
H3232 C3242 0.950 . S
H3233 C3244 0.950 . S
H3234 C3246 0.950 . S
H3235 C3247 0.950 . S
C3236 H3228 0.950 . S
C3236 C3237 1.386 . S
C3236 C3238 1.391 . S
C3237 C3236 1.386 . S
C3237 C3241 1.393 . S
C3238 H3230 0.950 1_455 S
C3238 C3236 1.391 . S
C3238 C3239 1.400 1_455 S
C3239 C3238 1.400 1_655 S
C3239 C3240 1.398 1_655 S
C3239 C3245 1.491 . S
C3240 H3231 0.935 1_455 S
C3240 C3239 1.398 1_455 S
C3240 C3241 1.391 . S
C3241 H3229 0.950 . S
C3241 C3237 1.393 . S
C3241 C3240 1.391 . S
C3242 H3232 0.950 . S
C3242 C3243 1.386 . S
C3242 C3244 1.391 . S
C3243 C3242 1.386 . S
C3243 C3247 1.393 . S
C3244 H3233 0.950 . S
C3244 C3242 1.391 . S
C3244 C3245 1.400 . S
C3245 C3239 1.491 . S
C3245 C3244 1.400 . S
C3245 C3246 1.398 . S
C3246 H3234 0.950 . S
C3246 C3245 1.398 . S
C3246 C3247 1.391 . S
C3247 H3235 0.950 . S
C3247 C3243 1.393 . S
C3247 C3246 1.391 . S
H3248 C3256 0.950 . S
H3249 C3261 0.950 . S
H3250 C3258 0.950 . S
H3251 C3260 0.950 . S
H3252 C3262 0.950 . S
H3253 C3264 0.950 . S
H3254 C3266 0.950 . S
H3255 C3267 0.950 . S
C3256 H3248 0.950 . S
C3256 C3257 1.386 . S
C3256 C3258 1.391 . S
C3257 C3256 1.386 . S
C3257 C3261 1.393 . S
C3258 H3250 0.950 . S
C3258 C3256 1.391 . S
C3258 C3259 1.400 . S
C3259 C3258 1.400 . S
C3259 C3260 1.398 . S
C3259 C3265 1.491 . S
C3260 H3251 0.950 . S
C3260 C3259 1.398 . S
C3260 C3261 1.391 . S
C3261 H3249 0.950 . S
C3261 C3257 1.393 . S
C3261 C3260 1.391 . S
C3262 H3252 0.950 . S
C3262 C3263 1.386 . S
C3262 C3264 1.391 . S
C3263 C3262 1.386 . S
C3263 C3267 1.393 . S
C3264 H3253 0.950 . S
C3264 C3262 1.391 . S
C3264 C3265 1.400 . S
C3265 C3259 1.491 . S
C3265 C3264 1.400 . S
C3265 C3266 1.398 . S
C3266 H3254 0.950 . S
C3266 C3265 1.398 . S
C3266 C3267 1.391 . S
C3267 H3255 0.950 . S
C3267 C3263 1.393 . S
C3267 C3266 1.391 . S
H3268 C3276 0.950 . S
H3269 C3281 0.950 . S
H3270 C3278 0.950 1_655 S
H3271 C3280 0.950 . S
H3272 C3282 0.950 . S
H3273 C3284 0.950 . S
H3274 C3286 0.950 . S
H3275 C3287 0.950 . S
C3276 H3268 0.950 . S
C3276 C3277 1.386 . S
C3276 C3278 1.391 . S
C3277 C3276 1.386 . S
C3277 C3281 1.393 . S
C3278 H3270 0.950 1_455 S
C3278 C3276 1.391 . S
C3278 C3279 1.400 1_455 S
C3279 C3278 1.400 1_655 S
C3279 C3280 1.398 1_655 S
C3279 C3285 1.491 . S
C3280 H3271 0.950 . S
C3280 C3279 1.398 1_455 S
C3280 C3281 1.391 . S
C3281 H3269 0.950 . S
C3281 C3277 1.393 . S
C3281 C3280 1.391 . S
C3282 H3272 0.950 . S
C3282 C3283 1.386 . S
C3282 C3284 1.391 . S
C3283 C3282 1.386 . S
C3283 C3287 1.393 . S
C3284 H3273 0.950 . S
C3284 C3282 1.391 . S
C3284 C3285 1.400 . S
C3285 C3279 1.491 . S
C3285 C3284 1.400 . S
C3285 C3286 1.398 . S
C3286 H3274 0.950 . S
C3286 C3285 1.398 . S
C3286 C3287 1.391 . S
C3287 H3275 0.950 . S
C3287 C3283 1.393 . S
C3287 C3286 1.391 . S
H3288 C3296 0.950 . S
H3289 C3301 0.950 . S
H3290 C3298 0.950 . S
H3291 C3300 0.950 . S
H3292 C3302 0.950 . S
H3293 C3304 0.950 . S
H3294 C3306 0.950 . S
H3295 C3307 0.950 . S
C3296 H3288 0.950 . S
C3296 C3297 1.386 . S
C3296 C3298 1.391 . S
C3297 C3296 1.386 . S
C3297 C3301 1.393 . S
C3298 H3290 0.950 . S
C3298 C3296 1.391 . S
C3298 C3299 1.400 . S
C3299 C3298 1.400 . S
C3299 C3300 1.398 . S
C3299 C3305 1.491 . S
C3300 H3291 0.950 . S
C3300 C3299 1.398 . S
C3300 C3301 1.391 . S
C3301 H3289 0.950 . S
C3301 C3297 1.393 . S
C3301 C3300 1.391 . S
C3302 H3292 0.950 . S
C3302 C3303 1.386 . S
C3302 C3304 1.391 . S
C3303 C3302 1.386 . S
C3303 C3307 1.393 . S
C3304 H3293 0.950 . S
C3304 C3302 1.391 . S
C3304 C3305 1.400 . S
C3305 C3299 1.491 . S
C3305 C3304 1.400 . S
C3305 C3306 1.398 . S
C3306 H3294 0.950 . S
C3306 C3305 1.398 . S
C3306 C3307 1.391 . S
C3307 H3295 0.950 . S
C3307 C3303 1.393 . S
C3307 C3306 1.391 . S
H3308 C3316 0.950 . S
H3309 C3321 0.950 . S
H3310 C3318 0.950 . S
H3311 C3320 0.950 . S
H3312 C3322 0.950 . S
H3313 C3324 0.950 . S
H3314 C3326 0.950 . S
H3315 C3327 0.950 . S
C3316 H3308 0.950 . S
C3316 C3317 1.386 . S
C3316 C3318 1.391 . S
C3317 C3316 1.386 . S
C3317 C3321 1.393 . S
C3318 H3310 0.950 . S
C3318 C3316 1.391 . S
C3318 C3319 1.400 . S
C3319 C3318 1.400 . S
C3319 C3320 1.398 . S
C3319 C3325 1.491 . S
C3320 H3311 0.950 . S
C3320 C3319 1.398 . S
C3320 C3321 1.391 . S
C3321 H3309 0.950 . S
C3321 C3317 1.393 . S
C3321 C3320 1.391 . S
C3322 H3312 0.950 . S
C3322 C3323 1.386 . S
C3322 C3324 1.391 . S
C3323 C3322 1.386 . S
C3323 C3327 1.393 . S
C3324 H3313 0.950 . S
C3324 C3322 1.391 . S
C3324 C3325 1.400 . S
C3325 C3319 1.491 . S
C3325 C3324 1.400 . S
C3325 C3326 1.398 . S
C3326 H3314 0.950 . S
C3326 C3325 1.398 . S
C3326 C3327 1.391 . S
C3327 H3315 0.950 . S
C3327 C3323 1.393 . S
C3327 C3326 1.391 . S
H3328 C3336 0.950 . S
H3329 C3341 0.950 . S
H3330 C3338 0.950 . S
H3331 C3340 0.950 . S
H3332 C3342 0.950 . S
H3333 C3344 0.950 . S
H3334 C3346 0.950 . S
H3335 C3347 0.950 . S
C3336 H3328 0.950 . S
C3336 C3337 1.386 . S
C3336 C3338 1.391 . S
C3337 C3336 1.386 . S
C3337 C3341 1.393 . S
C3338 H3330 0.950 . S
C3338 C3336 1.391 . S
C3338 C3339 1.400 . S
C3339 C3338 1.400 . S
C3339 C3340 1.398 . S
C3339 C3345 1.491 . S
C3340 H3331 0.950 . S
C3340 C3339 1.398 . S
C3340 C3341 1.391 . S
C3341 H3329 0.950 . S
C3341 C3337 1.393 . S
C3341 C3340 1.391 . S
C3342 H3332 0.950 . S
C3342 C3343 1.386 . S
C3342 C3344 1.391 . S
C3343 C3342 1.386 . S
C3343 C3347 1.393 . S
C3344 H3333 0.950 . S
C3344 C3342 1.391 . S
C3344 C3345 1.400 . S
C3345 C3339 1.491 . S
C3345 C3344 1.400 . S
C3345 C3346 1.398 . S
C3346 H3334 0.950 . S
C3346 C3345 1.398 . S
C3346 C3347 1.391 . S
C3347 H3335 0.950 . S
C3347 C3343 1.393 . S
C3347 C3346 1.391 . S
H3348 C3356 0.950 . S
H3349 C3361 0.950 . S
H3350 C3358 0.950 . S
H3351 C3360 0.950 . S
H3352 C3362 0.950 . S
H3353 C3364 0.950 . S
H3354 C3366 0.950 . S
H3355 C3367 0.950 . S
C3356 H3348 0.950 . S
C3356 C3357 1.386 . S
C3356 C3358 1.391 . S
C3357 C3356 1.386 . S
C3357 C3361 1.393 . S
C3358 H3350 0.950 . S
C3358 C3356 1.391 . S
C3358 C3359 1.400 . S
C3359 C3358 1.400 . S
C3359 C3360 1.398 . S
C3359 C3365 1.491 . S
C3360 H3351 0.950 . S
C3360 C3359 1.398 . S
C3360 C3361 1.391 . S
C3361 H3349 0.950 . S
C3361 C3357 1.393 . S
C3361 C3360 1.391 . S
C3362 H3352 0.950 . S
C3362 C3363 1.386 . S
C3362 C3364 1.391 1_554 S
C3363 C3362 1.386 . S
C3363 C3367 1.393 . S
C3364 H3353 0.950 . S
C3364 C3362 1.391 1_556 S
C3364 C3365 1.400 . S
C3365 C3359 1.491 . S
C3365 C3364 1.400 . S
C3365 C3366 1.398 . S
C3366 H3354 0.950 . S
C3366 C3365 1.398 . S
C3366 C3367 1.391 1_556 S
C3367 H3355 0.950 . S
C3367 C3363 1.393 . S
C3367 C3366 1.391 1_554 S
H3368 C3376 0.950 . S
H3369 C3381 0.950 . S
H3370 C3378 0.950 . S
H3371 C3380 0.950 . S
H3372 C3382 0.950 . S
H3373 C3384 0.950 . S
H3374 C3386 0.950 . S
H3375 C3387 0.950 . S
C3376 H3368 0.950 . S
C3376 C3377 1.386 . S
C3376 C3378 1.391 . S
C3377 C3376 1.386 . S
C3377 C3381 1.393 . S
C3378 H3370 0.950 . S
C3378 C3376 1.391 . S
C3378 C3379 1.400 . S
C3379 C3378 1.400 . S
C3379 C3380 1.398 . S
C3379 C3385 1.491 . S
C3380 H3371 0.950 . S
C3380 C3379 1.398 . S
C3380 C3381 1.391 . S
C3381 H3369 0.950 . S
C3381 C3377 1.393 . S
C3381 C3380 1.391 . S
C3382 H3372 0.950 . S
C3382 C3383 1.386 . S
C3382 C3384 1.391 . S
C3383 C3382 1.386 . S
C3383 C3387 1.393 . S
C3384 H3373 0.950 . S
C3384 C3382 1.391 . S
C3384 C3385 1.400 . S
C3385 C3379 1.491 . S
C3385 C3384 1.400 . S
C3385 C3386 1.398 . S
C3386 H3374 0.950 . S
C3386 C3385 1.398 . S
C3386 C3387 1.391 . S
C3387 H3375 0.950 . S
C3387 C3383 1.393 . S
C3387 C3386 1.391 . S
H3388 C3396 0.950 . S
H3389 C3401 0.950 . S
H3390 C3398 0.950 . S
H3391 C3400 0.950 . S
H3392 C3402 0.950 . S
H3393 C3404 0.950 . S
H3394 C3406 0.950 . S
H3395 C3407 0.950 . S
C3396 H3388 0.950 . S
C3396 C3397 1.386 . S
C3396 C3398 1.391 . S
C3397 C3396 1.386 . S
C3397 C3401 1.393 . S
C3398 H3390 0.950 . S
C3398 C3396 1.391 . S
C3398 C3399 1.400 . S
C3399 C3398 1.400 . S
C3399 C3400 1.398 . S
C3399 C3405 1.491 . S
C3400 H3391 0.950 . S
C3400 C3399 1.398 . S
C3400 C3401 1.391 . S
C3401 H3389 0.950 . S
C3401 C3397 1.393 . S
C3401 C3400 1.391 . S
C3402 H3392 0.950 . S
C3402 C3403 1.386 . S
C3402 C3404 1.391 . S
C3403 C3402 1.386 . S
C3403 C3407 1.393 . S
C3404 H3393 0.950 . S
C3404 C3402 1.391 . S
C3404 C3405 1.400 . S
C3405 C3399 1.491 . S
C3405 C3404 1.400 . S
C3405 C3406 1.398 . S
C3406 H3394 0.950 . S
C3406 C3405 1.398 . S
C3406 C3407 1.391 . S
C3407 H3395 0.950 . S
C3407 C3403 1.393 . S
C3407 C3406 1.391 . S
H3408 C3416 0.950 . S
H3409 C3421 0.950 . S
H3410 C3418 0.950 . S
H3411 C3420 0.950 . S
H3412 C3422 0.950 . S
H3413 C3424 0.950 . S
H3414 C3426 0.950 . S
H3415 C3427 0.950 . S
C3416 H3408 0.950 . S
C3416 C3417 1.386 . S
C3416 C3418 1.391 . S
C3417 C3416 1.386 . S
C3417 C3421 1.393 . S
C3418 H3410 0.950 . S
C3418 C3416 1.391 . S
C3418 C3419 1.400 . S
C3419 C3418 1.400 . S
C3419 C3420 1.398 . S
C3419 C3425 1.491 . S
C3420 H3411 0.950 . S
C3420 C3419 1.398 . S
C3420 C3421 1.391 . S
C3421 H3409 0.950 . S
C3421 C3417 1.393 . S
C3421 C3420 1.391 . S
C3422 H3412 0.950 . S
C3422 C3423 1.386 . S
C3422 C3424 1.391 . S
C3423 C3422 1.386 . S
C3423 C3427 1.393 . S
C3424 H3413 0.950 . S
C3424 C3422 1.391 . S
C3424 C3425 1.400 . S
C3425 C3419 1.491 . S
C3425 C3424 1.400 . S
C3425 C3426 1.398 . S
C3426 H3414 0.950 . S
C3426 C3425 1.398 . S
C3426 C3427 1.391 . S
C3427 H3415 0.950 . S
C3427 C3423 1.393 . S
C3427 C3426 1.391 . S
H3428 C3436 0.950 . S
H3429 C3441 0.950 . S
H3430 C3438 0.950 . S
H3431 C3440 0.950 . S
H3432 C3442 0.950 . S
H3433 C3444 0.950 1_554 S
H3434 C3446 0.950 . S
H3435 C3447 0.950 . S
C3436 H3428 0.950 . S
C3436 C3437 1.386 . S
C3436 C3438 1.391 . S
C3437 C3436 1.386 . S
C3437 C3441 1.393 . S
C3438 H3430 0.950 . S
C3438 C3436 1.391 . S
C3438 C3439 1.400 . S
C3439 C3438 1.400 . S
C3439 C3440 1.398 . S
C3439 C3445 1.491 . S
C3440 H3431 0.950 . S
C3440 C3439 1.398 . S
C3440 C3441 1.391 . S
C3441 H3429 0.950 . S
C3441 C3437 1.393 . S
C3441 C3440 1.391 . S
C3442 H3432 0.950 . S
C3442 C3443 1.386 . S
C3442 C3444 1.391 . S
C3443 C3442 1.386 . S
C3443 C3447 1.393 . S
C3444 H3433 0.950 1_556 S
C3444 C3442 1.391 . S
C3444 C3445 1.400 1_556 S
C3445 C3439 1.491 . S
C3445 C3444 1.400 1_554 S
C3445 C3446 1.398 . S
C3446 H3434 0.950 . S
C3446 C3445 1.398 . S
C3446 C3447 1.391 1_554 S
C3447 H3435 0.950 . S
C3447 C3443 1.393 . S
C3447 C3446 1.391 1_556 S
H3448 C3456 0.950 . S
H3449 C3461 0.950 . S
H3450 C3458 0.950 . S
H3451 C3460 0.950 . S
H3452 C3462 0.950 . S
H3453 C3464 0.950 . S
H3454 C3466 0.950 . S
H3455 C3467 0.950 . S
C3456 H3448 0.950 . S
C3456 C3457 1.386 . S
C3456 C3458 1.391 . S
C3457 C3456 1.386 . S
C3457 C3461 1.393 . S
C3458 H3450 0.950 . S
C3458 C3456 1.391 . S
C3458 C3459 1.400 . S
C3459 C3458 1.400 . S
C3459 C3460 1.398 . S
C3459 C3465 1.491 . S
C3460 H3451 0.950 . S
C3460 C3459 1.398 . S
C3460 C3461 1.391 . S
C3461 H3449 0.950 . S
C3461 C3457 1.393 . S
C3461 C3460 1.391 . S
C3462 H3452 0.950 . S
C3462 C3463 1.386 . S
C3462 C3464 1.391 . S
C3463 C3462 1.386 . S
C3463 C3467 1.393 . S
C3464 H3453 0.950 . S
C3464 C3462 1.391 . S
C3464 C3465 1.400 . S
C3465 C3459 1.491 . S
C3465 C3464 1.400 . S
C3465 C3466 1.398 . S
C3466 H3454 0.950 . S
C3466 C3465 1.398 . S
C3466 C3467 1.391 . S
C3467 H3455 0.950 . S
C3467 C3463 1.393 . S
C3467 C3466 1.391 . S
H3468 C3476 0.950 . S
H3469 C3481 0.950 . S
H3470 C3478 0.950 . S
H3471 C3480 0.950 . S
H3472 C3482 0.950 . S
H3473 C3484 0.950 . S
H3474 C3486 0.950 . S
H3475 C3487 0.950 . S
C3476 H3468 0.950 . S
C3476 C3477 1.386 . S
C3476 C3478 1.391 . S
C3477 C3476 1.386 . S
C3477 C3481 1.393 . S
C3478 H3470 0.950 . S
C3478 C3476 1.391 . S
C3478 C3479 1.400 . S
C3479 C3478 1.400 . S
C3479 C3480 1.398 . S
C3479 C3485 1.491 . S
C3480 H3471 0.950 . S
C3480 C3479 1.398 . S
C3480 C3481 1.391 . S
C3481 H3469 0.950 . S
C3481 C3477 1.393 . S
C3481 C3480 1.391 . S
C3482 H3472 0.950 . S
C3482 C3483 1.386 . S
C3482 C3484 1.391 . S
C3483 C3482 1.386 . S
C3483 C3487 1.393 . S
C3484 H3473 0.950 . S
C3484 C3482 1.391 . S
C3484 C3485 1.400 . S
C3485 C3479 1.491 . S
C3485 C3484 1.400 . S
C3485 C3486 1.398 . S
C3486 H3474 0.950 . S
C3486 C3485 1.398 . S
C3486 C3487 1.391 . S
C3487 H3475 0.950 . S
C3487 C3483 1.393 . S
C3487 C3486 1.391 . S
H3488 C3496 0.950 . S
H3489 C3501 0.950 . S
H3490 C3498 0.950 . S
H3491 C3500 0.950 . S
H3492 C3502 0.950 . S
H3493 C3504 0.950 . S
H3494 C3506 0.950 . S
H3495 C3507 0.950 . S
C3496 H3488 0.950 . S
C3496 C3497 1.386 . S
C3496 C3498 1.391 . S
C3497 C3496 1.386 . S
C3497 C3501 1.393 . S
C3498 H3490 0.950 . S
C3498 C3496 1.391 . S
C3498 C3499 1.400 . S
C3499 C3498 1.400 . S
C3499 C3500 1.398 . S
C3499 C3505 1.491 . S
C3500 H3491 0.950 . S
C3500 C3499 1.398 . S
C3500 C3501 1.391 . S
C3501 H3489 0.950 . S
C3501 C3497 1.393 . S
C3501 C3500 1.391 . S
C3502 H3492 0.950 . S
C3502 C3503 1.386 . S
C3502 C3504 1.391 . S
C3503 C3502 1.386 . S
C3503 C3507 1.393 . S
C3504 H3493 0.950 . S
C3504 C3502 1.391 . S
C3504 C3505 1.400 . S
C3505 C3499 1.491 . S
C3505 C3504 1.400 . S
C3505 C3506 1.398 . S
C3506 H3494 0.950 . S
C3506 C3505 1.398 . S
C3506 C3507 1.391 . S
C3507 H3495 0.950 . S
C3507 C3503 1.393 . S
C3507 C3506 1.391 . S
H3508 C3516 0.950 . S
H3509 C3521 0.950 . S
H3510 C3518 0.950 . S
H3511 C3520 0.950 . S
H3512 C3522 0.950 . S
H3513 C3524 0.950 . S
H3514 C3526 0.950 . S
H3515 C3527 0.950 . S
C3516 H3508 0.950 . S
C3516 C3517 1.386 . S
C3516 C3518 1.391 . S
C3517 C3516 1.386 . S
C3517 C3521 1.393 . S
C3518 H3510 0.950 . S
C3518 C3516 1.391 . S
C3518 C3519 1.400 . S
C3519 C3518 1.400 . S
C3519 C3520 1.398 . S
C3519 C3525 1.491 . S
C3520 H3511 0.950 . S
C3520 C3519 1.398 . S
C3520 C3521 1.391 . S
C3521 H3509 0.950 . S
C3521 C3517 1.393 . S
C3521 C3520 1.391 . S
C3522 H3512 0.950 . S
C3522 C3523 1.386 . S
C3522 C3524 1.391 . S
C3523 C3522 1.386 . S
C3523 C3527 1.393 . S
C3524 H3513 0.950 . S
C3524 C3522 1.391 . S
C3524 C3525 1.400 . S
C3525 C3519 1.491 . S
C3525 C3524 1.400 . S
C3525 C3526 1.398 . S
C3526 H3514 0.950 . S
C3526 C3525 1.398 . S
C3526 C3527 1.391 . S
C3527 H3515 0.950 . S
C3527 C3523 1.393 . S
C3527 C3526 1.391 . S
H3528 C3536 0.950 . S
H3529 C3541 0.950 . S
H3530 C3538 0.950 . S
H3531 C3540 0.950 . S
H3532 C3542 0.950 . S
H3533 C3544 0.950 . S
H3534 C3546 0.950 . S
H3535 C3547 0.950 . S
C3536 H3528 0.950 . S
C3536 C3537 1.386 . S
C3536 C3538 1.391 . S
C3537 C3536 1.386 . S
C3537 C3541 1.393 . S
C3538 H3530 0.950 . S
C3538 C3536 1.391 . S
C3538 C3539 1.400 . S
C3539 C3538 1.400 . S
C3539 C3540 1.398 . S
C3539 C3545 1.491 . S
C3540 H3531 0.950 . S
C3540 C3539 1.398 . S
C3540 C3541 1.391 . S
C3541 H3529 0.950 . S
C3541 C3537 1.393 . S
C3541 C3540 1.391 . S
C3542 H3532 0.950 . S
C3542 C3543 1.386 . S
C3542 C3544 1.391 . S
C3543 C3542 1.386 . S
C3543 C3547 1.393 . S
C3544 H3533 0.950 . S
C3544 C3542 1.391 . S
C3544 C3545 1.400 1_545 S
C3545 C3539 1.491 . S
C3545 C3544 1.400 1_565 S
C3545 C3546 1.398 . S
C3546 H3534 0.950 . S
C3546 C3545 1.398 . S
C3546 C3547 1.391 1_565 S
C3547 H3535 0.950 . S
C3547 C3543 1.393 . S
C3547 C3546 1.391 1_545 S
H3548 C3556 0.950 . S
H3549 C3561 0.950 . S
H3550 C3558 0.950 . S
H3551 C3560 0.950 . S
H3552 C3562 0.950 . S
H3553 C3564 0.950 . S
H3554 C3566 0.950 . S
H3555 C3567 0.950 . S
C3556 H3548 0.950 . S
C3556 C3557 1.386 . S
C3556 C3558 1.391 . S
C3557 C3556 1.386 . S
C3557 C3561 1.393 . S
C3558 H3550 0.950 . S
C3558 C3556 1.391 . S
C3558 C3559 1.400 . S
C3559 C3558 1.400 . S
C3559 C3560 1.398 . S
C3559 C3565 1.491 . S
C3560 H3551 0.950 . S
C3560 C3559 1.398 . S
C3560 C3561 1.391 . S
C3561 H3549 0.950 . S
C3561 C3557 1.393 . S
C3561 C3560 1.391 . S
C3562 H3552 0.950 . S
C3562 C3563 1.386 . S
C3562 C3564 1.391 . S
C3563 C3562 1.386 . S
C3563 C3567 1.393 . S
C3564 H3553 0.950 . S
C3564 C3562 1.391 . S
C3564 C3565 1.400 . S
C3565 C3559 1.491 . S
C3565 C3564 1.400 . S
C3565 C3566 1.398 . S
C3566 H3554 0.950 . S
C3566 C3565 1.398 . S
C3566 C3567 1.391 . S
C3567 H3555 0.950 . S
C3567 C3563 1.393 . S
C3567 C3566 1.391 . S
H3568 C3576 0.950 . S
H3569 C3581 0.950 . S
H3570 C3578 0.950 . S
H3571 C3580 0.950 . S
H3572 C3582 0.950 . S
H3573 C3584 0.950 . S
H3574 C3586 0.950 . S
H3575 C3587 0.950 . S
C3576 H3568 0.950 . S
C3576 C3577 1.386 . S
C3576 C3578 1.391 . S
C3577 C3576 1.386 . S
C3577 C3581 1.393 . S
C3578 H3570 0.950 . S
C3578 C3576 1.391 . S
C3578 C3579 1.400 . S
C3579 C3578 1.400 . S
C3579 C3580 1.398 . S
C3579 C3585 1.491 . S
C3580 H3571 0.950 . S
C3580 C3579 1.398 . S
C3580 C3581 1.391 . S
C3581 H3569 0.950 . S
C3581 C3577 1.393 . S
C3581 C3580 1.391 . S
C3582 H3572 0.950 . S
C3582 C3583 1.386 . S
C3582 C3584 1.391 . S
C3583 C3582 1.386 . S
C3583 C3587 1.393 . S
C3584 H3573 0.950 . S
C3584 C3582 1.391 . S
C3584 C3585 1.400 . S
C3585 C3579 1.491 . S
C3585 C3584 1.400 . S
C3585 C3586 1.398 . S
C3586 H3574 0.950 . S
C3586 C3585 1.398 . S
C3586 C3587 1.391 . S
C3587 H3575 0.950 . S
C3587 C3583 1.393 . S
C3587 C3586 1.391 . S
H3588 C3596 0.950 . S
H3589 C3601 0.950 . S
H3590 C3598 0.950 . S
H3591 C3600 0.950 . S
H3592 C3602 0.950 . S
H3593 C3604 0.950 . S
H3594 C3606 0.950 . S
H3595 C3607 0.950 . S
C3596 H3588 0.950 . S
C3596 C3597 1.386 . S
C3596 C3598 1.391 . S
C3597 C3596 1.386 . S
C3597 C3601 1.393 . S
C3598 H3590 0.950 . S
C3598 C3596 1.391 . S
C3598 C3599 1.400 . S
C3599 C3598 1.400 . S
C3599 C3600 1.398 . S
C3599 C3605 1.491 . S
C3600 H3591 0.950 . S
C3600 C3599 1.398 . S
C3600 C3601 1.391 . S
C3601 H3589 0.950 . S
C3601 C3597 1.393 . S
C3601 C3600 1.391 . S
C3602 H3592 0.950 . S
C3602 C3603 1.386 . S
C3602 C3604 1.391 . S
C3603 C3602 1.386 . S
C3603 C3607 1.393 . S
C3604 H3593 0.950 . S
C3604 C3602 1.391 . S
C3604 C3605 1.400 . S
C3605 C3599 1.491 . S
C3605 C3604 1.400 . S
C3605 C3606 1.398 . S
C3606 H3594 0.950 . S
C3606 C3605 1.398 . S
C3606 C3607 1.391 . S
C3607 H3595 0.950 . S
C3607 C3603 1.393 . S
C3607 C3606 1.391 . S
H3608 C3616 0.950 . S
H3609 C3621 0.950 . S
H3610 C3618 0.950 . S
H3611 C3620 0.950 . S
H3612 C3622 0.950 . S
H3613 C3624 0.950 . S
H3614 C3626 0.950 . S
H3615 C3627 0.950 . S
C3616 H3608 0.950 . S
C3616 C3617 1.386 . S
C3616 C3618 1.391 . S
C3617 C3616 1.386 . S
C3617 C3621 1.393 . S
C3618 H3610 0.950 . S
C3618 C3616 1.391 . S
C3618 C3619 1.400 1_565 S
C3619 C3618 1.400 1_545 S
C3619 C3620 1.398 . S
C3619 C3625 1.491 . S
C3620 H3611 0.950 . S
C3620 C3619 1.398 . S
C3620 C3621 1.391 1_545 S
C3621 H3609 0.950 . S
C3621 C3617 1.393 . S
C3621 C3620 1.391 1_565 S
C3622 H3612 0.950 . S
C3622 C3623 1.386 . S
C3622 C3624 1.391 . S
C3623 C3622 1.386 . S
C3623 C3627 1.393 . S
C3624 H3613 0.950 . S
C3624 C3622 1.391 . S
C3624 C3625 1.400 . S
C3625 C3619 1.491 . S
C3625 C3624 1.400 . S
C3625 C3626 1.398 . S
C3626 H3614 0.950 . S
C3626 C3625 1.398 . S
C3626 C3627 1.391 . S
C3627 H3615 0.950 . S
C3627 C3623 1.393 . S
C3627 C3626 1.391 . S
H3628 C3636 0.950 . S
H3629 C3641 0.950 . S
H3630 C3638 0.950 . S
H3631 C3640 0.950 . S
H3632 C3642 0.950 . S
H3633 C3644 0.950 1_565 S
H3634 C3646 0.950 1_565 S
H3635 C3647 0.950 . S
C3636 H3628 0.950 . S
C3636 C3637 1.386 . S
C3636 C3638 1.391 . S
C3637 C3636 1.386 . S
C3637 C3641 1.393 . S
C3638 H3630 0.950 . S
C3638 C3636 1.391 . S
C3638 C3639 1.400 . S
C3639 C3638 1.400 . S
C3639 C3640 1.398 . S
C3639 C3645 1.491 . S
C3640 H3631 0.950 . S
C3640 C3639 1.398 . S
C3640 C3641 1.391 . S
C3641 H3629 0.950 . S
C3641 C3637 1.393 . S
C3641 C3640 1.391 . S
C3642 H3632 0.950 . S
C3642 C3643 1.386 . S
C3642 C3644 1.391 . S
C3643 C3642 1.386 . S
C3643 C3647 1.393 . S
C3644 H3633 0.950 1_545 S
C3644 C3642 1.391 . S
C3644 C3645 1.400 1_545 S
C3645 C3639 1.491 . S
C3645 C3644 1.400 1_565 S
C3645 C3646 1.398 1_565 S
C3646 H3634 0.950 1_545 S
C3646 C3645 1.398 1_545 S
C3646 C3647 1.391 . S
C3647 H3635 0.950 . S
C3647 C3643 1.393 . S
C3647 C3646 1.391 . S
C1737 C1515 1.352 . S
C1743 C3 1.347 . S
C1757 C40 1.292 . S
C1763 C542 1.270 . S
C1777 C75 1.357 . S
C1783 C1443 1.354 . S
C1797 C112 1.295 . S
C1803 C614 1.260 . S
C1817 C1587 1.348 . S
C1823 C148 1.358 . S
C1837 C183 1.274 . S
C1843 C770 1.255 . S
C1857 C220 1.356 . S
C1863 C1659 1.345 . S
C1877 C255 1.267 . S
C1883 C698 1.249 . S
C1897 C111 1.335 . S
C1903 C1696 1.317 . S
C1917 C4 1.354 . S
C1923 C903 1.352 . S
C1937 C940 1.310 . S
C1943 C39 1.330 . S
C1957 C76 1.347 . S
C1963 C867 1.342 . S
C1977 C184 1.318 . S
C1983 C868 1.278 . S
C1997 C219 1.347 . S
C2003 C1695 1.350 . S
C2017 C256 1.325 . S
C2023 C904 1.285 . S
C2037 C147 1.353 . S
C2043 C939 1.352 . S
C2057 C1418 1.209 . S
C2063 C291 1.258 . S
C2077 C327 1.313 . S
C2083 C686 1.294 . S
C2097 C292 1.322 . S
C2103 C1588 1.306 . S
C2117 C758 1.270 . S
C2123 C363 1.294 . S
C2137 C796 1.289 . S
C2143 C399 1.322 . S
C2157 C1490 1.209 . S
C2163 C436 1.257 . S
C2177 C1516 1.309 . S
C2183 C472 1.327 . S
C2197 C1444 1.301 . S
C2203 C508 1.315 . S
C2217 C1202 1.286 . S
C2223 C543 1.357 . S
C2237 C578 1.376 . S
C2243 C2 1.323 . S
C2257 C615 1.349 . S
C2263 C1130 1.292 . S
C2277 C74 1.313 . S
C2283 C650 1.370 . S
C2297 C688 1.345 . S
C2303 C1262 1.289 . S
C2317 C230 1.316 . S
C2323 C722 1.360 . S
C2337 C760 1.350 . S
C2343 C1334 1.315 . S
C2357 C158 1.324 . S
C2363 C794 1.367 . S
C2377 C1382 1.302 . S
C2383 C662 1.283 . S
C2397 C544 1.336 . S
C2403 C362 1.277 . S
C2417 C398 1.331 . S
C2423 C590 1.332 . S
C2437 C326 1.328 . S
C2443 C616 1.362 . S
C2457 C338 1.280 . S
C2463 C734 1.304 . S
C2477 C759 1.366 . S
C2483 C1370 1.329 . S
C2497 C374 1.274 . S
C2503 C806 1.259 . S
C2517 C687 1.333 . S
C2523 C410 1.284 . S
C2537 C830 1.345 . S
C2543 C1094 1.277 . S
C2557 C866 1.396 . S
C2563 C146 1.336 . S
C2577 C842 1.272 . S
C2583 C1274 1.253 . S
C2597 C902 1.396 . S
C2603 C218 1.356 . S
C2617 C950 1.264 . S
C2623 C266 1.267 . S
C2637 C1166 1.275 . S
C2643 C974 1.343 . S
C2657 C1022 1.335 . S
C2663 C1190 1.338 . S
C2677 C1058 1.328 . S
C2683 C1118 1.326 . S
C2697 C1083 1.351 . S
C2703 C651 1.348 . S
C2717 C1120 1.293 . S
C2723 C1406 1.265 . S
C2737 C579 1.359 . S
C2743 C1155 1.357 . S
C2757 C1192 1.295 . S
C2763 C1478 1.264 . S
C2777 C1228 1.355 . S
C2783 C723 1.353 . S
C2797 C1634 1.228 . S
C2803 C1263 1.279 . S
C2817 C1300 1.353 . S
C2823 C795 1.353 . S
C2837 C1562 1.247 . S
C2843 C1335 1.266 . S
C2857 C832 1.303 . S
C2863 C1191 1.335 . S
C2877 C1047 1.353 . S
C2883 C1084 1.353 . S
C2897 C1119 1.328 . S
C2903 C976 1.301 . S
C2917 C1011 1.339 . S
C2923 C1156 1.348 . S
C2937 C1264 1.317 . S
C2943 C1012 1.285 . S
C2957 C831 1.356 . S
C2963 C1299 1.358 . S
C2977 C1336 1.325 . S
C2983 C1048 1.285 . S
C2997 C1227 1.359 . S
C3003 C975 1.356 . S
C3017 C1371 1.262 . S
C3023 C554 1.209 . S
C3037 C471 1.312 . S
C3043 C1550 1.294 . S
C3057 C724 1.306 . S
C3063 C1372 1.322 . S
C3077 C1622 1.259 . S
C3083 C507 1.296 . S
C3097 C1660 1.290 . S
C3103 C435 1.322 . S
C3117 C400 1.257 . S
C3123 C626 1.204 . S
C3137 C328 1.329 . S
C3143 C652 1.303 . S
C3157 C580 1.279 . S
C3163 C364 1.318 . S
C3177 C1407 1.350 . S
C3183 C122 1.313 . S
C3197 C1082 1.334 . S
C3203 C1442 1.372 . S
C3217 C1479 1.348 . S
C3223 C50 1.311 . S
C3237 C1514 1.371 . S
C3243 C1154 1.321 . S
C3257 C182 1.292 . S
C3263 C1552 1.345 . S
C3277 C1586 1.360 . S
C3283 C1310 1.315 . S
C3297 C1624 1.351 . S
C3303 C254 1.296 . S
C3317 C1238 1.308 . S
C3323 C1658 1.359 . S
C3337 C1526 1.287 . S
C3343 C302 1.297 . S
C3357 C506 1.302 . S
C3363 C1408 1.333 . S
C3377 C434 1.328 . S
C3383 C1454 1.307 . S
C3397 C1480 1.362 . S
C3403 C470 1.328 . S
C3417 C1598 1.296 . S
C3423 C482 1.284 . S
C3437 C290 1.327 . S
C3443 C1623 1.362 . S
C3457 C518 1.280 . S
C3463 C1670 1.251 . S
C3477 C1551 1.341 . S
C3483 C446 1.286 . S
C3497 C14 1.298 . S
C3503 C1694 1.344 . S
C3517 C1010 1.388 . S
C3523 C1226 1.352 . S
C3537 C194 1.273 . S
C3543 C1706 1.249 . S
C3557 C1298 1.355 . S
C3563 C1046 1.390 . S
C3577 C1346 1.247 . S
C3583 C986 1.280 . S
C3597 C938 1.350 . S
C3603 C86 1.292 . S
C3617 C878 1.331 . S
C3623 C110 1.324 . S
C3637 C38 1.352 . S
C3643 C914 1.321 . S
