# Generated by pormake.
# Topology umk, (4)-cn, num edge types: 1
# Building blocks:
#     Node 0, Type 0, BuildingBlock: NAHDIM_clean_sbu_0, # of connection points: 4
#     Node 1, Type 0, BuildingBlock: NAHDIM_clean_sbu_0, # of connection points: 4
#     Node 2, Type 0, BuildingBlock: NAHDIM_clean_sbu_0, # of connection points: 4
#     Node 3, Type 0, BuildingBlock: NAHDIM_clean_sbu_0, # of connection points: 4
#     Node 4, Type 0, BuildingBlock: NAHDIM_clean_sbu_0, # of connection points: 4
#     Node 5, Type 0, BuildingBlock: NAHDIM_clean_sbu_0, # of connection points: 4
#     Node 6, Type 0, BuildingBlock: NAHDIM_clean_sbu_0, # of connection points: 4
#     Node 7, Type 0, BuildingBlock: NAHDIM_clean_sbu_0, # of connection points: 4
#     Node 8, Type 0, BuildingBlock: NAHDIM_clean_sbu_0, # of connection points: 4
#     Node 9, Type 0, BuildingBlock: NAHDIM_clean_sbu_0, # of connection points: 4
#     Node 10, Type 0, BuildingBlock: NAHDIM_clean_sbu_0, # of connection points: 4
#     Node 11, Type 0, BuildingBlock: NAHDIM_clean_sbu_0, # of connection points: 4
#     Node 12, Type 0, BuildingBlock: NAHDIM_clean_sbu_0, # of connection points: 4
#     Node 13, Type 0, BuildingBlock: NAHDIM_clean_sbu_0, # of connection points: 4
#     Node 14, Type 0, BuildingBlock: NAHDIM_clean_sbu_0, # of connection points: 4
#     Node 15, Type 0, BuildingBlock: NAHDIM_clean_sbu_0, # of connection points: 4
#     Node 16, Type 0, BuildingBlock: NAHDIM_clean_sbu_0, # of connection points: 4
#     Node 17, Type 0, BuildingBlock: NAHDIM_clean_sbu_0, # of connection points: 4
#     Node 18, Type 0, BuildingBlock: NAHDIM_clean_sbu_0, # of connection points: 4
#     Node 19, Type 0, BuildingBlock: NAHDIM_clean_sbu_0, # of connection points: 4
#     Node 20, Type 0, BuildingBlock: NAHDIM_clean_sbu_0, # of connection points: 4
#     Node 21, Type 0, BuildingBlock: NAHDIM_clean_sbu_0, # of connection points: 4
#     Node 22, Type 0, BuildingBlock: NAHDIM_clean_sbu_0, # of connection points: 4
#     Node 23, Type 0, BuildingBlock: NAHDIM_clean_sbu_0, # of connection points: 4
#     Edge 24, Type (0, 0), None
#     Edge 25, Type (0, 0), None
#     Edge 26, Type (0, 0), None
#     Edge 27, Type (0, 0), None
#     Edge 28, Type (0, 0), None
#     Edge 29, Type (0, 0), None
#     Edge 30, Type (0, 0), None
#     Edge 31, Type (0, 0), None
#     Edge 32, Type (0, 0), None
#     Edge 33, Type (0, 0), None
#     Edge 34, Type (0, 0), None
#     Edge 35, Type (0, 0), None
#     Edge 36, Type (0, 0), None
#     Edge 37, Type (0, 0), None
#     Edge 38, Type (0, 0), None
#     Edge 39, Type (0, 0), None
#     Edge 40, Type (0, 0), None
#     Edge 41, Type (0, 0), None
#     Edge 42, Type (0, 0), None
#     Edge 43, Type (0, 0), None
#     Edge 44, Type (0, 0), None
#     Edge 45, Type (0, 0), None
#     Edge 46, Type (0, 0), None
#     Edge 47, Type (0, 0), None
#     Edge 48, Type (0, 0), None
#     Edge 49, Type (0, 0), None
#     Edge 50, Type (0, 0), None
#     Edge 51, Type (0, 0), None
#     Edge 52, Type (0, 0), None
#     Edge 53, Type (0, 0), None
#     Edge 54, Type (0, 0), None
#     Edge 55, Type (0, 0), None
#     Edge 56, Type (0, 0), None
#     Edge 57, Type (0, 0), None
#     Edge 58, Type (0, 0), None
#     Edge 59, Type (0, 0), None
#     Edge 60, Type (0, 0), None
#     Edge 61, Type (0, 0), None
#     Edge 62, Type (0, 0), None
#     Edge 63, Type (0, 0), None
#     Edge 64, Type (0, 0), None
#     Edge 65, Type (0, 0), None
#     Edge 66, Type (0, 0), None
#     Edge 67, Type (0, 0), None
#     Edge 68, Type (0, 0), None
#     Edge 69, Type (0, 0), None
#     Edge 70, Type (0, 0), None
#     Edge 71, Type (0, 0), None
# Relax obj value: 0.115
# Max RMSD: 0.141
# Mean RMSD: 0.141
data_MOF--net-umk--node1-NAHDIM_clean_sbu_0--edge1-none
_symmetry_space_group_name_H-M    P1
_symmetry_Int_Tables_number       1
_symmetry_cell_setting            triclinic
loop_
_symmetry_equiv_pos_as_xyz
'x, y, z'
_cell_length_a     30.728587
_cell_length_b     30.680738
_cell_length_c     18.305821
_cell_angle_alpha  90.234827
_cell_angle_beta   90.028381
_cell_angle_gamma 120.09574
loop_
_atom_site_label
_atom_site_type_symbol
_atom_site_fract_x
_atom_site_fract_y
_atom_site_fract_z
_atom_type_partial_charge
C0 C 0.24875 0.45298 0.02667 0.0
O1 O 0.27756 0.49527 0.06188 0.0
O2 O 0.3192 0.44189 0.18548 0.0
Zn3 Zn 0.32623 0.43768 0.07605 0.0
O4 O 0.3809 0.50448 0.038 0.0
C5 C 0.3406 0.35233 0.10007 0.0
O6 O 0.30874 0.34219 0.15389 0.0
O7 O 0.26122 0.41929 0.02448 0.0
C8 C 0.42458 0.52296 0.06564 0.0
O9 O 0.43231 0.49909 0.11894 0.0
C10 C 0.33167 0.48251 0.22013 0.0
O11 O 0.34871 0.52498 0.18441 0.0
O12 O 0.35032 0.38858 0.05727 0.0
C13 C 0.79777 0.24269 0.5389 0.0
O14 O 0.78268 0.2619 0.59047 0.0
O15 O 0.87927 0.32007 0.68894 0.0
Zn16 Zn 0.88977 0.32784 0.57918 0.0
O17 O 0.87606 0.38172 0.5425 0.0
C18 C 0.99052 0.34479 0.60197 0.0
O19 O 0.96972 0.31295 0.65602 0.0
O20 O 0.84435 0.26356 0.52433 0.0
C21 C 0.90227 0.42605 0.568 0.0
O22 O 0.93603 0.43511 0.61875 0.0
C23 C 0.85342 0.33476 0.72459 0.0
O24 O 0.82927 0.35357 0.68971 0.0
O25 O 0.96314 0.35372 0.55969 0.0
C26 C 0.54243 0.79434 0.03115 0.0
O27 O 0.50418 0.77701 0.07626 0.0
O28 O 0.54091 0.86326 0.18749 0.0
Zn29 Zn 0.54641 0.88226 0.08033 0.0
O30 O 0.47915 0.86807 0.0395 0.0
C31 C 0.59578 0.98362 0.12903 0.0
O32 O 0.57109 0.96016 0.18802 0.0
O33 O 0.56953 0.8416 0.02225 0.0
C34 C 0.45472 0.88611 0.07088 0.0
O35 O 0.47222 0.91215 0.13153 0.0
C36 C 0.50077 0.8357 0.2229 0.0
O37 O 0.45734 0.81265 0.18867 0.0
O38 O 0.59379 0.95806 0.07288 0.0
C39 C 0.74947 0.54794 0.53284 0.0
O40 O 0.72378 0.50779 0.57334 0.0
O41 O 0.67586 0.55602 0.6866 0.0
Zn42 Zn 0.66881 0.56008 0.57715 0.0
O43 O 0.61425 0.4932 0.53815 0.0
C44 C 0.6541 0.64514 0.60254 0.0
O45 O 0.68616 0.65542 0.65632 0.0
O46 O 0.73385 0.57896 0.52553 0.0
C47 C 0.57052 0.47505 0.56519 0.0
O48 O 0.56288 0.4992 0.61847 0.0
C49 C 0.66287 0.51542 0.72105 0.0
O50 O 0.64535 0.47275 0.68509 0.0
O51 O 0.64438 0.6089 0.5592 0.0
C52 C 0.19014 0.75399 0.03319 0.0
O53 O 0.20578 0.73503 0.08415 0.0
O54 O 0.11333 0.67725 0.1827 0.0
Zn55 Zn 0.10024 0.66815 0.07354 0.0
O56 O 0.11578 0.61592 0.03422 0.0
C57 C -0.00063 0.64958 0.1007 0.0
O58 O 0.02124 0.68321 0.15287 0.0
O59 O 0.14346 0.73261 0.01868 0.0
C60 C 0.09846 0.59698 0.97167 0.0
O61 O 0.07194 0.61224 0.93479 0.0
C62 C 0.13953 0.66228 0.21654 0.0
O63 O 0.16136 0.6416 0.17999 0.0
O64 O 0.026 0.64003 0.05774 0.0
C65 C 0.44771 0.20353 0.53001 0.0
O66 O 0.4886 0.22015 0.56985 0.0
O67 O 0.4504 0.13339 0.68596 0.0
Zn68 Zn 0.44304 0.11595 0.57812 0.0
O69 O 0.50994 0.13193 0.53559 0.0
C70 C 0.41439 0.01802 0.6102 0.0
O71 O 0.45464 0.04522 0.65033 0.0
O72 O 0.41798 0.15635 0.52425 0.0
C73 C 0.51605 0.13485 0.46675 0.0
O74 O 0.47926 0.1292 0.42394 0.0
C75 C 0.49206 0.16126 0.71829 0.0
O76 O 0.53399 0.18293 0.68062 0.0
O77 O 0.39813 0.04028 0.56946 0.0
C78 C 0.55123 0.75867 0.98933 0.0
O79 O 0.58635 0.77443 0.93915 0.0
O80 O 0.51596 0.66113 0.83615 0.0
Zn81 Zn 0.5214 0.65459 0.9448 0.0
O82 O 0.46142 0.59036 0.98051 0.0
C83 C 0.62062 0.66711 0.92106 0.0
O84 O 0.62332 0.69682 0.86768 0.0
O85 O 0.52234 0.71183 0.9996 0.0
C86 C 0.46638 0.57026 0.03815 0.0
O87 O 0.50982 0.59152 0.07243 0.0
C88 C 0.47505 0.64712 0.8019 0.0
O89 O 0.43257 0.62861 0.83801 0.0
O90 O 0.58268 0.64828 0.96309 0.0
C91 C 0.79402 0.5547 0.49372 0.0
O92 O 0.81832 0.59247 0.44859 0.0
O93 O 0.85043 0.51293 0.3389 0.0
Zn94 Zn 0.86338 0.52004 0.44741 0.0
O95 O 0.86829 0.4608 0.48491 0.0
C96 C 0.94941 0.61935 0.42028 0.0
O97 O 0.92158 0.62084 0.36699 0.0
O98 O 0.80738 0.52194 0.50113 0.0
C99 C 0.89572 0.4672 0.54053 0.0
O100 O 0.91965 0.5116 0.57231 0.0
C101 C 0.81966 0.47252 0.30592 0.0
O102 O 0.7921 0.43119 0.3433 0.0
O103 O 0.93106 0.58207 0.46353 0.0
C104 C 0.22721 0.79544 0.98828 0.0
O105 O 0.21315 0.81063 0.93061 0.0
O106 O 0.31931 0.84133 0.832 0.0
Zn107 Zn 0.3317 0.86064 0.93893 0.0
O108 O 0.39329 0.86017 0.97596 0.0
C109 C 0.37666 0.95975 0.89494 0.0
O110 O 0.39007 0.93803 0.84493 0.0
O111 O 0.27362 0.81264 1.00117 0.0
C112 C 0.40822 0.87991 0.03881 0.0
O113 O 0.3829 0.89743 0.0739 0.0
C114 C 0.31542 0.80322 0.79844 0.0
O115 O 0.31673 0.76713 0.83488 0.0
O116 O 0.34806 0.93328 0.94658 0.0
C117 C 0.4391 0.23969 0.48977 0.0
O118 O 0.4006 0.22443 0.44523 0.0
O119 O 0.47846 0.33732 0.33326 0.0
Zn120 Zn 0.47292 0.34391 0.44197 0.0
O121 O 0.53327 0.40777 0.4789 0.0
C122 C 0.37384 0.33171 0.41812 0.0
O123 O 0.37093 0.30181 0.36449 0.0
O124 O 0.47125 0.28626 0.49562 0.0
C125 C 0.52852 0.42791 0.53692 0.0
O126 O 0.48505 0.40693 0.57074 0.0
C127 C 0.5194 0.35104 0.2995 0.0
O128 O 0.56178 0.36936 0.33614 0.0
O129 O 0.41193 0.35069 0.4602 0.0
C130 C 0.20388 0.44627 0.98847 0.0
O131 O 0.17569 0.40544 0.94984 0.0
O132 O 0.14637 0.48683 0.83032 0.0
Zn133 Zn 0.13637 0.48254 0.9395 0.0
O134 O 0.13257 0.54258 0.97605 0.0
C135 C 0.04969 0.38301 0.91871 0.0
O136 O 0.07632 0.38007 0.86484 0.0
O137 O 0.19345 0.4814 0.99117 0.0
C138 C 0.10539 0.55635 0.94234 0.0
O139 O 0.08153 0.53238 0.88264 0.0
C140 C 0.17611 0.52648 0.79547 0.0
O141 O 0.20464 0.56869 0.83105 0.0
O142 O 0.06896 0.42155 0.96019 0.0
C143 C 0.76034 0.20142 0.49344 0.0
O144 O 0.77412 0.18583 0.43571 0.0
O145 O 0.67043 0.15443 0.33559 0.0
Zn146 Zn 0.65618 0.13655 0.44252 0.0
O147 O 0.59506 0.1394 0.47652 0.0
C148 C 0.60347 0.03506 0.4094 0.0
O149 O 0.58533 0.05508 0.36411 0.0
O150 O 0.71399 0.18457 0.50603 0.0
C151 C 0.56208 0.13978 0.43506 0.0
O152 O 0.56717 0.14006 0.36386 0.0
C153 C 0.678 0.19417 0.30302 0.0
O154 O 0.67865 0.23117 0.34021 0.0
O155 O 0.63858 0.06371 0.45305 0.0
C156 C 0.74579 0.54511 0.9946 0.0
O157 O 0.71699 0.50282 0.95939 0.0
O158 O 0.67534 0.55619 0.83579 0.0
Zn159 Zn 0.66831 0.56041 0.94523 0.0
O160 O 0.61364 0.49361 0.98328 0.0
C161 C 0.65395 0.64576 0.9212 0.0
O162 O 0.6858 0.65591 0.86737 0.0
O163 O 0.73332 0.5788 0.99679 0.0
C164 C 0.56996 0.47513 0.95564 0.0
O165 O 0.56223 0.499 0.90233 0.0
C166 C 0.66287 0.51558 0.80115 0.0
O167 O 0.64583 0.47311 0.83687 0.0
O168 O 0.64422 0.60951 0.964 0.0
C169 C 0.19677 0.75541 0.48237 0.0
O170 O 0.21186 0.73619 0.4308 0.0
O171 O 0.11527 0.67803 0.33233 0.0
Zn172 Zn 0.10477 0.67025 0.44209 0.0
O173 O 0.11848 0.61638 0.47877 0.0
C174 C 0.00403 0.65331 0.4193 0.0
O175 O 0.02481 0.68515 0.36524 0.0
O176 O 0.15019 0.73453 0.49694 0.0
C177 C 0.09227 0.57204 0.45328 0.0
O178 O 0.05851 0.56298 0.40252 0.0
C179 C 0.14112 0.66333 0.29669 0.0
O180 O 0.16527 0.64453 0.33156 0.0
O181 O 0.03141 0.64438 0.46158 0.0
C182 C 0.45211 0.20375 0.99012 0.0
O183 O 0.49036 0.22108 0.94502 0.0
O184 O 0.45364 0.13484 0.83378 0.0
Zn185 Zn 0.44813 0.11583 0.94094 0.0
O186 O 0.51539 0.13002 0.98177 0.0
C187 C 0.39877 0.01448 0.89224 0.0
O188 O 0.42345 0.03793 0.83325 0.0
O189 O 0.42501 0.15649 0.99902 0.0
C190 C 0.53983 0.11198 0.95039 0.0
O191 O 0.52233 0.08594 0.88975 0.0
C192 C 0.49377 0.1624 0.79838 0.0
O193 O 0.53721 0.18545 0.8326 0.0
O194 O 0.40075 0.04003 0.94839 0.0
C195 C 0.24507 0.45016 0.48844 0.0
O196 O 0.27077 0.49031 0.44793 0.0
O197 O 0.31868 0.44207 0.33467 0.0
Zn198 Zn 0.32573 0.438 0.44413 0.0
O199 O 0.38028 0.50488 0.48312 0.0
C200 C 0.34043 0.35295 0.41874 0.0
O201 O 0.30837 0.34265 0.36494 0.0
O202 O 0.26069 0.41914 0.49574 0.0
C203 C 0.42402 0.52304 0.45609 0.0
O204 O 0.43166 0.49888 0.4028 0.0
C205 C 0.33167 0.48266 0.30023 0.0
O206 O 0.34918 0.52534 0.33618 0.0
O207 O 0.35016 0.38918 0.46208 0.0
C208 C 0.8044 0.24411 0.98808 0.0
O209 O 0.78876 0.26307 0.93713 0.0
O210 O 0.88122 0.32085 0.83857 0.0
Zn211 Zn 0.8943 0.32995 0.94773 0.0
O212 O 0.87876 0.38218 0.98705 0.0
C213 C 0.99517 0.34851 0.92057 0.0
O214 O 0.97331 0.31488 0.8684 0.0
O215 O 0.85108 0.26549 1.00259 0.0
C216 C 0.89609 0.40112 0.0496 0.0
O217 O 0.92261 0.38586 0.08648 0.0
C218 C 0.85501 0.33582 0.80473 0.0
O219 O 0.83318 0.35649 0.84128 0.0
O220 O 0.96854 0.35806 0.96353 0.0
C221 C 0.54683 0.79456 0.49126 0.0
O222 O 0.50594 0.77794 0.45142 0.0
O223 O 0.54414 0.8647 0.33532 0.0
Zn224 Zn 0.5515 0.88214 0.44315 0.0
O225 O 0.48461 0.86617 0.48569 0.0
C226 C 0.58015 0.98007 0.41107 0.0
O227 O 0.53991 0.95288 0.37095 0.0
O228 O 0.57656 0.84174 0.49703 0.0
C229 C 0.47849 0.86324 0.55452 0.0
O230 O 0.51528 0.86889 0.59734 0.0
C231 C 0.50249 0.83683 0.30298 0.0
O232 O 0.46055 0.81516 0.34065 0.0
O233 O 0.59641 0.95781 0.45181 0.0
C234 C 0.44331 0.23942 0.03194 0.0
O235 O 0.40818 0.22366 0.08212 0.0
O236 O 0.47857 0.33696 0.18513 0.0
Zn237 Zn 0.47314 0.3435 0.07647 0.0
O238 O 0.53312 0.40773 0.04077 0.0
C239 C 0.37392 0.33097 0.10021 0.0
O240 O 0.37121 0.30127 0.1536 0.0
O241 O 0.47221 0.28626 0.02167 0.0
C242 C 0.52816 0.42784 0.98313 0.0
O243 O 0.48472 0.40657 0.94884 0.0
C244 C 0.51948 0.35096 0.21937 0.0
O245 O 0.56197 0.36945 0.18327 0.0
O246 O 0.41186 0.34981 0.05818 0.0
C247 C 0.20052 0.44339 0.52755 0.0
O248 O 0.17622 0.40562 0.57268 0.0
O249 O 0.14411 0.48516 0.68237 0.0
Zn250 Zn 0.13116 0.47805 0.57386 0.0
O251 O 0.12625 0.53729 0.53636 0.0
C252 C 0.04514 0.37874 0.60099 0.0
O253 O 0.07296 0.37724 0.65429 0.0
O254 O 0.18716 0.47615 0.52014 0.0
C255 C 0.09882 0.53089 0.48075 0.0
O256 O 0.07489 0.4865 0.44896 0.0
C257 C 0.17489 0.52557 0.71535 0.0
O258 O 0.20244 0.5669 0.67798 0.0
O259 O 0.06348 0.41602 0.55774 0.0
C260 C 0.76733 0.20266 0.03299 0.0
O261 O 0.78139 0.18746 0.09066 0.0
O262 O 0.67524 0.15677 0.18927 0.0
Zn263 Zn 0.66284 0.13746 0.08234 0.0
O264 O 0.60125 0.13793 0.04532 0.0
C265 C 0.61788 0.03834 0.12632 0.0
O266 O 0.60447 0.06006 0.17634 0.0
O267 O 0.72093 0.18546 0.02011 0.0
C268 C 0.58632 0.11819 0.98246 0.0
O269 O 0.61165 0.10066 0.94737 0.0
C270 C 0.67913 0.19487 0.22283 0.0
O271 O 0.67781 0.23097 0.1864 0.0
O272 O 0.64649 0.06482 0.07469 0.0
C273 C 0.55544 0.7584 0.5315 0.0
O274 O 0.59394 0.77366 0.57605 0.0
O275 O 0.51608 0.66077 0.68801 0.0
Zn276 Zn 0.52162 0.65418 0.57931 0.0
O277 O 0.46127 0.59032 0.54237 0.0
C278 C 0.6207 0.66638 0.60315 0.0
O279 O 0.62361 0.69628 0.6568 0.0
O280 O 0.52329 0.71183 0.52565 0.0
C281 C 0.46602 0.57018 0.48436 0.0
O282 O 0.50949 0.59116 0.45053 0.0
C283 C 0.47513 0.64704 0.72177 0.0
O284 O 0.43275 0.62871 0.68513 0.0
O285 O 0.58261 0.6474 0.56108 0.0
C286 C 0.79066 0.55182 0.0328 0.0
O287 O 0.81884 0.59265 0.07144 0.0
O288 O 0.84817 0.51126 0.19095 0.0
Zn289 Zn 0.85817 0.51556 0.08177 0.0
O290 O 0.86198 0.45552 0.04522 0.0
C291 C 0.94485 0.61508 0.10256 0.0
O292 O 0.91823 0.61803 0.15643 0.0
O293 O 0.80109 0.5167 0.0301 0.0
C294 C 0.88916 0.44175 0.07894 0.0
O295 O 0.91302 0.46572 0.13863 0.0
C296 C 0.81844 0.47161 0.2258 0.0
O297 O 0.78991 0.4294 0.19022 0.0
O298 O 0.92558 0.57654 0.06108 0.0
C299 C 0.23421 0.79668 0.52783 0.0
O300 O 0.22042 0.81226 0.58556 0.0
O301 O 0.32411 0.84366 0.68569 0.0
Zn302 Zn 0.33836 0.86154 0.57875 0.0
O303 O 0.39949 0.85869 0.54475 0.0
C304 C 0.39107 0.96303 0.61187 0.0
O305 O 0.40922 0.94301 0.65716 0.0
O306 O 0.28055 0.81352 0.51525 0.0
C307 C 0.43246 0.85831 0.58621 0.0
O308 O 0.42737 0.85803 0.65742 0.0
C309 C 0.31654 0.80392 0.71825 0.0
O310 O 0.31589 0.76692 0.68107 0.0
O311 O 0.35596 0.93438 0.56822 0.0
loop_
_geom_bond_atom_site_label_1
_geom_bond_atom_site_label_2
_geom_bond_distance
_geom_bond_site_symmetry_2
_ccdc_geom_bond_type
C0 O1 1.160 . S
C0 O7 1.185 . S
O1 C0 1.160 . S
O2 Zn3 1.899 . S
O2 C10 1.284 . S
Zn3 O2 1.899 . S
Zn3 O4 2.032 . S
Zn3 O7 2.086 . S
Zn3 O12 1.977 . S
O4 Zn3 2.032 . S
O4 C8 1.278 . S
C5 O6 1.203 . S
C5 O12 1.267 . S
O6 C5 1.203 . S
O7 C0 1.185 . S
O7 Zn3 2.086 . S
C8 O4 1.278 . S
C8 O9 1.211 . S
O9 C8 1.211 . S
C10 O2 1.284 . S
C10 O11 1.273 . S
O11 C10 1.273 . S
O12 Zn3 1.977 . S
O12 C5 1.267 . S
C13 O14 1.160 . S
C13 O20 1.185 . S
O14 C13 1.160 . S
O15 Zn16 1.899 . S
O15 C23 1.284 . S
Zn16 O15 1.899 . S
Zn16 O17 2.032 . S
Zn16 O20 2.086 . S
Zn16 O25 1.977 . S
O17 Zn16 2.032 . S
O17 C21 1.278 . S
C18 O19 1.203 . S
C18 O25 1.267 . S
O19 C18 1.203 . S
O20 C13 1.185 . S
O20 Zn16 2.086 . S
C21 O17 1.278 . S
C21 O22 1.211 . S
O22 C21 1.211 . S
C23 O15 1.284 . S
C23 O24 1.273 . S
O24 C23 1.273 . S
O25 Zn16 1.977 . S
O25 C18 1.267 . S
C26 O27 1.160 . S
C26 O33 1.185 . S
O27 C26 1.160 . S
O28 Zn29 1.899 . S
O28 C36 1.284 . S
Zn29 O28 1.899 . S
Zn29 O30 2.032 . S
Zn29 O33 2.086 . S
Zn29 O38 1.977 . S
O30 Zn29 2.032 . S
O30 C34 1.278 . S
C31 O32 1.203 . S
C31 O38 1.267 . S
O32 C31 1.203 . S
O33 C26 1.185 . S
O33 Zn29 2.086 . S
C34 O30 1.278 . S
C34 O35 1.211 . S
O35 C34 1.211 . S
C36 O28 1.284 . S
C36 O37 1.273 . S
O37 C36 1.273 . S
O38 Zn29 1.977 . S
O38 C31 1.267 . S
C39 O40 1.160 . S
C39 O46 1.185 . S
O40 C39 1.160 . S
O41 Zn42 1.899 . S
O41 C49 1.284 . S
Zn42 O41 1.899 . S
Zn42 O43 2.032 . S
Zn42 O46 2.086 . S
Zn42 O51 1.977 . S
O43 Zn42 2.032 . S
O43 C47 1.278 . S
C44 O45 1.203 . S
C44 O51 1.267 . S
O45 C44 1.203 . S
O46 C39 1.185 . S
O46 Zn42 2.086 . S
C47 O43 1.278 . S
C47 O48 1.211 . S
O48 C47 1.211 . S
C49 O41 1.284 . S
C49 O50 1.273 . S
O50 C49 1.273 . S
O51 Zn42 1.977 . S
O51 C44 1.267 . S
C52 O53 1.160 . S
C52 O59 1.185 . S
O53 C52 1.160 . S
O54 Zn55 1.899 . S
O54 C62 1.284 . S
Zn55 O54 1.899 . S
Zn55 O56 2.032 . S
Zn55 O59 2.086 . S
Zn55 O64 1.977 . S
O56 Zn55 2.032 . S
O56 C60 1.278 . S
C57 O58 1.203 . S
C57 O64 1.267 . S
O58 C57 1.203 . S
O59 C52 1.185 . S
O59 Zn55 2.086 . S
C60 O56 1.278 . S
C60 O61 1.211 . S
O61 C60 1.211 . S
C62 O54 1.284 . S
C62 O63 1.273 . S
O63 C62 1.273 . S
O64 Zn55 1.977 . S
O64 C57 1.267 . S
C65 O66 1.160 . S
C65 O72 1.185 . S
O66 C65 1.160 . S
O67 Zn68 1.899 . S
O67 C75 1.284 . S
Zn68 O67 1.899 . S
Zn68 O69 2.032 . S
Zn68 O72 2.086 . S
Zn68 O77 1.977 . S
O69 Zn68 2.032 . S
O69 C73 1.278 . S
C70 O71 1.203 . S
C70 O77 1.267 . S
O71 C70 1.203 . S
O72 C65 1.185 . S
O72 Zn68 2.086 . S
C73 O69 1.278 . S
C73 O74 1.211 . S
O74 C73 1.211 . S
C75 O67 1.284 . S
C75 O76 1.273 . S
O76 C75 1.273 . S
O77 Zn68 1.977 . S
O77 C70 1.267 . S
C78 O79 1.160 . S
C78 O85 1.185 . S
O79 C78 1.160 . S
O80 Zn81 1.899 . S
O80 C88 1.284 . S
Zn81 O80 1.899 . S
Zn81 O82 2.032 . S
Zn81 O85 2.086 . S
Zn81 O90 1.977 . S
O82 Zn81 2.032 . S
O82 C86 1.278 . S
C83 O84 1.203 . S
C83 O90 1.267 . S
O84 C83 1.203 . S
O85 C78 1.185 . S
O85 Zn81 2.086 . S
C86 O82 1.278 . S
C86 O87 1.211 . S
O87 C86 1.211 . S
C88 O80 1.284 . S
C88 O89 1.273 . S
O89 C88 1.273 . S
O90 Zn81 1.977 . S
O90 C83 1.267 . S
C91 O92 1.160 . S
C91 O98 1.185 . S
O92 C91 1.160 . S
O93 Zn94 1.899 . S
O93 C101 1.284 . S
Zn94 O93 1.899 . S
Zn94 O95 2.032 . S
Zn94 O98 2.086 . S
Zn94 O103 1.977 . S
O95 Zn94 2.032 . S
O95 C99 1.278 . S
C96 O97 1.203 . S
C96 O103 1.267 . S
O97 C96 1.203 . S
O98 C91 1.185 . S
O98 Zn94 2.086 . S
C99 O95 1.278 . S
C99 O100 1.211 . S
O100 C99 1.211 . S
C101 O93 1.284 . S
C101 O102 1.273 . S
O102 C101 1.273 . S
O103 Zn94 1.977 . S
O103 C96 1.267 . S
C104 O105 1.160 . S
C104 O111 1.185 . S
O105 C104 1.160 . S
O106 Zn107 1.899 . S
O106 C114 1.284 . S
Zn107 O106 1.899 . S
Zn107 O108 2.032 . S
Zn107 O111 2.086 . S
Zn107 O116 1.977 . S
O108 Zn107 2.032 . S
O108 C112 1.278 . S
C109 O110 1.203 . S
C109 O116 1.267 . S
O110 C109 1.203 . S
O111 C104 1.185 . S
O111 Zn107 2.086 . S
C112 O108 1.278 . S
C112 O113 1.211 . S
O113 C112 1.211 . S
C114 O106 1.284 . S
C114 O115 1.273 . S
O115 C114 1.273 . S
O116 Zn107 1.977 . S
O116 C109 1.267 . S
C117 O118 1.160 . S
C117 O124 1.185 . S
O118 C117 1.160 . S
O119 Zn120 1.899 . S
O119 C127 1.284 . S
Zn120 O119 1.899 . S
Zn120 O121 2.032 . S
Zn120 O124 2.086 . S
Zn120 O129 1.977 . S
O121 Zn120 2.032 . S
O121 C125 1.278 . S
C122 O123 1.203 . S
C122 O129 1.267 . S
O123 C122 1.203 . S
O124 C117 1.185 . S
O124 Zn120 2.086 . S
C125 O121 1.278 . S
C125 O126 1.211 . S
O126 C125 1.211 . S
C127 O119 1.284 . S
C127 O128 1.273 . S
O128 C127 1.273 . S
O129 Zn120 1.977 . S
O129 C122 1.267 . S
C130 O131 1.160 . S
C130 O137 1.185 . S
O131 C130 1.160 . S
O132 Zn133 1.899 . S
O132 C140 1.284 . S
Zn133 O132 1.899 . S
Zn133 O134 2.032 . S
Zn133 O137 2.086 . S
Zn133 O142 1.977 . S
O134 Zn133 2.032 . S
O134 C138 1.278 . S
C135 O136 1.203 . S
C135 O142 1.267 . S
O136 C135 1.203 . S
O137 C130 1.185 . S
O137 Zn133 2.086 . S
C138 O134 1.278 . S
C138 O139 1.211 . S
O139 C138 1.211 . S
C140 O132 1.284 . S
C140 O141 1.273 . S
O141 C140 1.273 . S
O142 Zn133 1.977 . S
O142 C135 1.267 . S
C143 O144 1.160 . S
C143 O150 1.185 . S
O144 C143 1.160 . S
O145 Zn146 1.899 . S
O145 C153 1.284 . S
Zn146 O145 1.899 . S
Zn146 O147 2.032 . S
Zn146 O150 2.086 . S
Zn146 O155 1.977 . S
O147 Zn146 2.032 . S
O147 C151 1.278 . S
C148 O149 1.203 . S
C148 O155 1.267 . S
O149 C148 1.203 . S
O150 C143 1.185 . S
O150 Zn146 2.086 . S
C151 O147 1.278 . S
C151 O152 1.211 . S
O152 C151 1.211 . S
C153 O145 1.284 . S
C153 O154 1.273 . S
O154 C153 1.273 . S
O155 Zn146 1.977 . S
O155 C148 1.267 . S
C156 O157 1.160 . S
C156 O163 1.185 . S
O157 C156 1.160 . S
O158 Zn159 1.899 . S
O158 C166 1.284 . S
Zn159 O158 1.899 . S
Zn159 O160 2.032 . S
Zn159 O163 2.086 . S
Zn159 O168 1.977 . S
O160 Zn159 2.032 . S
O160 C164 1.278 . S
C161 O162 1.203 . S
C161 O168 1.267 . S
O162 C161 1.203 . S
O163 C156 1.185 . S
O163 Zn159 2.086 . S
C164 O160 1.278 . S
C164 O165 1.211 . S
O165 C164 1.211 . S
C166 O158 1.284 . S
C166 O167 1.273 . S
O167 C166 1.273 . S
O168 Zn159 1.977 . S
O168 C161 1.267 . S
C169 O170 1.160 . S
C169 O176 1.185 . S
O170 C169 1.160 . S
O171 Zn172 1.899 . S
O171 C179 1.284 . S
Zn172 O171 1.899 . S
Zn172 O173 2.032 . S
Zn172 O176 2.086 . S
Zn172 O181 1.977 . S
O173 Zn172 2.032 . S
O173 C177 1.278 . S
C174 O175 1.203 . S
C174 O181 1.267 . S
O175 C174 1.203 . S
O176 C169 1.185 . S
O176 Zn172 2.086 . S
C177 O173 1.278 . S
C177 O178 1.211 . S
O178 C177 1.211 . S
C179 O171 1.284 . S
C179 O180 1.273 . S
O180 C179 1.273 . S
O181 Zn172 1.977 . S
O181 C174 1.267 . S
C182 O183 1.160 . S
C182 O189 1.185 . S
O183 C182 1.160 . S
O184 Zn185 1.899 . S
O184 C192 1.284 . S
Zn185 O184 1.899 . S
Zn185 O186 2.032 . S
Zn185 O189 2.086 . S
Zn185 O194 1.977 . S
O186 Zn185 2.032 . S
O186 C190 1.278 . S
C187 O188 1.203 . S
C187 O194 1.267 . S
O188 C187 1.203 . S
O189 C182 1.185 . S
O189 Zn185 2.086 . S
C190 O186 1.278 . S
C190 O191 1.211 . S
O191 C190 1.211 . S
C192 O184 1.284 . S
C192 O193 1.273 . S
O193 C192 1.273 . S
O194 Zn185 1.977 . S
O194 C187 1.267 . S
C195 O196 1.160 . S
C195 O202 1.185 . S
O196 C195 1.160 . S
O197 Zn198 1.899 . S
O197 C205 1.284 . S
Zn198 O197 1.899 . S
Zn198 O199 2.032 . S
Zn198 O202 2.086 . S
Zn198 O207 1.977 . S
O199 Zn198 2.032 . S
O199 C203 1.278 . S
C200 O201 1.203 . S
C200 O207 1.267 . S
O201 C200 1.203 . S
O202 C195 1.185 . S
O202 Zn198 2.086 . S
C203 O199 1.278 . S
C203 O204 1.211 . S
O204 C203 1.211 . S
C205 O197 1.284 . S
C205 O206 1.273 . S
O206 C205 1.273 . S
O207 Zn198 1.977 . S
O207 C200 1.267 . S
C208 O209 1.160 . S
C208 O215 1.185 . S
O209 C208 1.160 . S
O210 Zn211 1.899 . S
O210 C218 1.284 . S
Zn211 O210 1.899 . S
Zn211 O212 2.032 . S
Zn211 O215 2.086 . S
Zn211 O220 1.977 . S
O212 Zn211 2.032 . S
O212 C216 1.278 . S
C213 O214 1.203 . S
C213 O220 1.267 . S
O214 C213 1.203 . S
O215 C208 1.185 . S
O215 Zn211 2.086 . S
C216 O212 1.278 . S
C216 O217 1.211 . S
O217 C216 1.211 . S
C218 O210 1.284 . S
C218 O219 1.273 . S
O219 C218 1.273 . S
O220 Zn211 1.977 . S
O220 C213 1.267 . S
C221 O222 1.160 . S
C221 O228 1.185 . S
O222 C221 1.160 . S
O223 Zn224 1.899 . S
O223 C231 1.284 . S
Zn224 O223 1.899 . S
Zn224 O225 2.032 . S
Zn224 O228 2.086 . S
Zn224 O233 1.977 . S
O225 Zn224 2.032 . S
O225 C229 1.278 . S
C226 O227 1.203 . S
C226 O233 1.267 . S
O227 C226 1.203 . S
O228 C221 1.185 . S
O228 Zn224 2.086 . S
C229 O225 1.278 . S
C229 O230 1.211 . S
O230 C229 1.211 . S
C231 O223 1.284 . S
C231 O232 1.273 . S
O232 C231 1.273 . S
O233 Zn224 1.977 . S
O233 C226 1.267 . S
C234 O235 1.160 . S
C234 O241 1.185 . S
O235 C234 1.160 . S
O236 Zn237 1.899 . S
O236 C244 1.284 . S
Zn237 O236 1.899 . S
Zn237 O238 2.032 . S
Zn237 O241 2.086 . S
Zn237 O246 1.977 . S
O238 Zn237 2.032 . S
O238 C242 1.278 . S
C239 O240 1.203 . S
C239 O246 1.267 . S
O240 C239 1.203 . S
O241 C234 1.185 . S
O241 Zn237 2.086 . S
C242 O238 1.278 . S
C242 O243 1.211 . S
O243 C242 1.211 . S
C244 O236 1.284 . S
C244 O245 1.273 . S
O245 C244 1.273 . S
O246 Zn237 1.977 . S
O246 C239 1.267 . S
C247 O248 1.160 . S
C247 O254 1.185 . S
O248 C247 1.160 . S
O249 Zn250 1.899 . S
O249 C257 1.284 . S
Zn250 O249 1.899 . S
Zn250 O251 2.032 . S
Zn250 O254 2.086 . S
Zn250 O259 1.977 . S
O251 Zn250 2.032 . S
O251 C255 1.278 . S
C252 O253 1.203 . S
C252 O259 1.267 . S
O253 C252 1.203 . S
O254 C247 1.185 . S
O254 Zn250 2.086 . S
C255 O251 1.278 . S
C255 O256 1.211 . S
O256 C255 1.211 . S
C257 O249 1.284 . S
C257 O258 1.273 . S
O258 C257 1.273 . S
O259 Zn250 1.977 . S
O259 C252 1.267 . S
C260 O261 1.160 . S
C260 O267 1.185 . S
O261 C260 1.160 . S
O262 Zn263 1.899 . S
O262 C270 1.284 . S
Zn263 O262 1.899 . S
Zn263 O264 2.032 . S
Zn263 O267 2.086 . S
Zn263 O272 1.977 . S
O264 Zn263 2.032 . S
O264 C268 1.278 . S
C265 O266 1.203 . S
C265 O272 1.267 . S
O266 C265 1.203 . S
O267 C260 1.185 . S
O267 Zn263 2.086 . S
C268 O264 1.278 . S
C268 O269 1.211 . S
O269 C268 1.211 . S
C270 O262 1.284 . S
C270 O271 1.273 . S
O271 C270 1.273 . S
O272 Zn263 1.977 . S
O272 C265 1.267 . S
C273 O274 1.160 . S
C273 O280 1.185 . S
O274 C273 1.160 . S
O275 Zn276 1.899 . S
O275 C283 1.284 . S
Zn276 O275 1.899 . S
Zn276 O277 2.032 . S
Zn276 O280 2.086 . S
Zn276 O285 1.977 . S
O277 Zn276 2.032 . S
O277 C281 1.278 . S
C278 O279 1.203 . S
C278 O285 1.267 . S
O279 C278 1.203 . S
O280 C273 1.185 . S
O280 Zn276 2.086 . S
C281 O277 1.278 . S
C281 O282 1.211 . S
O282 C281 1.211 . S
C283 O275 1.284 . S
C283 O284 1.273 . S
O284 C283 1.273 . S
O285 Zn276 1.977 . S
O285 C278 1.267 . S
C286 O287 1.160 . S
C286 O293 1.185 . S
O287 C286 1.160 . S
O288 Zn289 1.899 . S
O288 C296 1.284 . S
Zn289 O288 1.899 . S
Zn289 O290 2.032 . S
Zn289 O293 2.086 . S
Zn289 O298 1.977 . S
O290 Zn289 2.032 . S
O290 C294 1.278 . S
C291 O292 1.203 . S
C291 O298 1.267 . S
O292 C291 1.203 . S
O293 C286 1.185 . S
O293 Zn289 2.086 . S
C294 O290 1.278 . S
C294 O295 1.211 . S
O295 C294 1.211 . S
C296 O288 1.284 . S
C296 O297 1.273 . S
O297 C296 1.273 . S
O298 Zn289 1.977 . S
O298 C291 1.267 . S
C299 O300 1.160 . S
C299 O306 1.185 . S
O300 C299 1.160 . S
O301 Zn302 1.899 . S
O301 C309 1.284 . S
Zn302 O301 1.899 . S
Zn302 O303 2.032 . S
Zn302 O306 2.086 . S
Zn302 O311 1.977 . S
O303 Zn302 2.032 . S
O303 C307 1.278 . S
C304 O305 1.203 . S
C304 O311 1.267 . S
O305 C304 1.203 . S
O306 C299 1.185 . S
O306 Zn302 2.086 . S
C307 O303 1.278 . S
C307 O308 1.211 . S
O308 C307 1.211 . S
C309 O301 1.284 . S
C309 O310 1.273 . S
O310 C309 1.273 . S
O311 Zn302 1.977 . S
O311 C304 1.267 . S
C10 C205 1.439 . S
C23 C218 1.439 . S
C231 C36 1.439 . S
C166 C49 1.439 . S
C179 C62 1.439 . S
C192 C75 1.439 . S
C283 C88 1.439 . S
C101 C296 1.439 . S
C309 C114 1.439 . S
C127 C244 1.439 . S
C257 C140 1.439 . S
C153 C270 1.439 . S
C130 C0 1.104 1_556 S
C143 C13 1.104 . S
C26 C78 1.104 1_554 S
C39 C91 1.104 . S
C104 C52 1.104 1_556 S
C65 C117 1.104 . S
C286 C156 1.104 1_554 S
C169 C299 1.104 . S
C182 C234 1.104 1_556 S
C247 C195 1.104 . S
C208 C260 1.104 1_556 S
C221 C273 1.104 . S
C5 C239 1.108 . S
C252 C18 1.108 1_455 S
C31 C265 1.108 1_565 S
C44 C278 1.108 . S
C291 C57 1.108 1_655 S
C70 C304 1.108 1_545 S
C83 C161 1.108 . S
C96 C174 1.108 1_655 S
C187 C109 1.108 1_545 S
C200 C122 1.108 . S
C135 C213 1.108 1_455 S
C226 C148 1.108 1_565 S
C86 C8 1.396 1_556 S
C21 C99 1.396 . S
C112 C34 1.396 1_556 S
C125 C47 1.396 . S
C138 C60 1.396 1_556 S
C73 C151 1.396 . S
C242 C164 1.396 1_554 S
C177 C255 1.396 . S
C268 C190 1.396 1_554 S
C281 C203 1.396 . S
C216 C294 1.396 1_556 S
C229 C307 1.396 . S
