# Generated by pormake.
# Topology umh, (4)-cn, num edge types: 1
# Building blocks:
#     Node 0, Type 0, BuildingBlock: NAWXER_clean_sbu_0, # of connection points: 4
#     Node 1, Type 0, BuildingBlock: NAWXER_clean_sbu_0, # of connection points: 4
#     Node 2, Type 0, BuildingBlock: NAWXER_clean_sbu_0, # of connection points: 4
#     Node 3, Type 0, BuildingBlock: NAWXER_clean_sbu_0, # of connection points: 4
#     Node 4, Type 0, BuildingBlock: NAWXER_clean_sbu_0, # of connection points: 4
#     Node 5, Type 0, BuildingBlock: NAWXER_clean_sbu_0, # of connection points: 4
#     Node 6, Type 0, BuildingBlock: NAWXER_clean_sbu_0, # of connection points: 4
#     Node 7, Type 0, BuildingBlock: NAWXER_clean_sbu_0, # of connection points: 4
#     Node 8, Type 0, BuildingBlock: NAWXER_clean_sbu_0, # of connection points: 4
#     Node 9, Type 0, BuildingBlock: NAWXER_clean_sbu_0, # of connection points: 4
#     Node 10, Type 0, BuildingBlock: NAWXER_clean_sbu_0, # of connection points: 4
#     Node 11, Type 0, BuildingBlock: NAWXER_clean_sbu_0, # of connection points: 4
#     Node 12, Type 0, BuildingBlock: NAWXER_clean_sbu_0, # of connection points: 4
#     Node 13, Type 0, BuildingBlock: NAWXER_clean_sbu_0, # of connection points: 4
#     Node 14, Type 0, BuildingBlock: NAWXER_clean_sbu_0, # of connection points: 4
#     Node 15, Type 0, BuildingBlock: NAWXER_clean_sbu_0, # of connection points: 4
#     Edge 16, Type (0, 0), BuildingBlock: MIFKUJ_clean_linker_0, # of connection points: 2
#     Edge 17, Type (0, 0), BuildingBlock: MIFKUJ_clean_linker_0, # of connection points: 2
#     Edge 18, Type (0, 0), BuildingBlock: MIFKUJ_clean_linker_0, # of connection points: 2
#     Edge 19, Type (0, 0), BuildingBlock: MIFKUJ_clean_linker_0, # of connection points: 2
#     Edge 20, Type (0, 0), BuildingBlock: MIFKUJ_clean_linker_0, # of connection points: 2
#     Edge 21, Type (0, 0), BuildingBlock: MIFKUJ_clean_linker_0, # of connection points: 2
#     Edge 22, Type (0, 0), BuildingBlock: MIFKUJ_clean_linker_0, # of connection points: 2
#     Edge 23, Type (0, 0), BuildingBlock: MIFKUJ_clean_linker_0, # of connection points: 2
#     Edge 24, Type (0, 0), BuildingBlock: MIFKUJ_clean_linker_0, # of connection points: 2
#     Edge 25, Type (0, 0), BuildingBlock: MIFKUJ_clean_linker_0, # of connection points: 2
#     Edge 26, Type (0, 0), BuildingBlock: MIFKUJ_clean_linker_0, # of connection points: 2
#     Edge 27, Type (0, 0), BuildingBlock: MIFKUJ_clean_linker_0, # of connection points: 2
#     Edge 28, Type (0, 0), BuildingBlock: MIFKUJ_clean_linker_0, # of connection points: 2
#     Edge 29, Type (0, 0), BuildingBlock: MIFKUJ_clean_linker_0, # of connection points: 2
#     Edge 30, Type (0, 0), BuildingBlock: MIFKUJ_clean_linker_0, # of connection points: 2
#     Edge 31, Type (0, 0), BuildingBlock: MIFKUJ_clean_linker_0, # of connection points: 2
#     Edge 32, Type (0, 0), BuildingBlock: MIFKUJ_clean_linker_0, # of connection points: 2
#     Edge 33, Type (0, 0), BuildingBlock: MIFKUJ_clean_linker_0, # of connection points: 2
#     Edge 34, Type (0, 0), BuildingBlock: MIFKUJ_clean_linker_0, # of connection points: 2
#     Edge 35, Type (0, 0), BuildingBlock: MIFKUJ_clean_linker_0, # of connection points: 2
#     Edge 36, Type (0, 0), BuildingBlock: MIFKUJ_clean_linker_0, # of connection points: 2
#     Edge 37, Type (0, 0), BuildingBlock: MIFKUJ_clean_linker_0, # of connection points: 2
#     Edge 38, Type (0, 0), BuildingBlock: MIFKUJ_clean_linker_0, # of connection points: 2
#     Edge 39, Type (0, 0), BuildingBlock: MIFKUJ_clean_linker_0, # of connection points: 2
#     Edge 40, Type (0, 0), BuildingBlock: MIFKUJ_clean_linker_0, # of connection points: 2
#     Edge 41, Type (0, 0), BuildingBlock: MIFKUJ_clean_linker_0, # of connection points: 2
#     Edge 42, Type (0, 0), BuildingBlock: MIFKUJ_clean_linker_0, # of connection points: 2
#     Edge 43, Type (0, 0), BuildingBlock: MIFKUJ_clean_linker_0, # of connection points: 2
#     Edge 44, Type (0, 0), BuildingBlock: MIFKUJ_clean_linker_0, # of connection points: 2
#     Edge 45, Type (0, 0), BuildingBlock: MIFKUJ_clean_linker_0, # of connection points: 2
#     Edge 46, Type (0, 0), BuildingBlock: MIFKUJ_clean_linker_0, # of connection points: 2
#     Edge 47, Type (0, 0), BuildingBlock: MIFKUJ_clean_linker_0, # of connection points: 2
# Relax obj value: 0.044
# Max RMSD: 0.109
# Mean RMSD: 0.109
data_MOF--net-umh--node1-NAWXER_clean_sbu_0--edge1-MIFKUJ_clean_linker_0
_symmetry_space_group_name_H-M    P1
_symmetry_Int_Tables_number       1
_symmetry_cell_setting            triclinic
loop_
_symmetry_equiv_pos_as_xyz
'x, y, z'
_cell_length_a     53.310206
_cell_length_b     53.050876
_cell_length_c     70.292642
_cell_angle_alpha  89.730163
_cell_angle_beta   90.017632
_cell_angle_gamma 91.093738
loop_
_atom_site_label
_atom_site_type_symbol
_atom_site_fract_x
_atom_site_fract_y
_atom_site_fract_z
_atom_type_partial_charge
C0 C 0.34918 0.1008 0.1162 0.0
C1 C 0.3227 0.07966 0.18164 0.0
O2 O 0.3624 0.11178 0.12906 0.0
Zn3 Zn 0.3645 0.11334 0.15942 0.0
O4 O 0.33139 0.08586 0.12118 0.0
Zn5 Zn 0.33546 0.08902 0.14872 0.0
O6 O 0.32493 0.12718 0.15398 0.0
O7 O 0.35819 0.14831 0.16449 0.0
O8 O 0.31316 0.07087 0.16638 0.0
O9 O 0.34149 0.09507 0.1806 0.0
O10 O 0.39725 0.10035 0.1648 0.0
O11 O 0.37068 0.07145 0.1539 0.0
C12 C 0.33506 0.14773 0.16005 0.0
C13 C 0.3926 0.07767 0.16001 0.0
C14 C 0.3832 0.35089 0.68973 0.0
C15 C 0.36764 0.39193 0.62779 0.0
O16 O 0.3711 0.37109 0.68717 0.0
Zn17 Zn 0.37515 0.37354 0.65938 0.0
O18 O 0.39333 0.34019 0.67546 0.0
Zn19 Zn 0.39743 0.34491 0.64565 0.0
O20 O 0.4336 0.35176 0.64261 0.0
O21 O 0.41377 0.38307 0.65611 0.0
O22 O 0.38164 0.37257 0.62728 0.0
O23 O 0.35933 0.39956 0.64373 0.0
O24 O 0.35478 0.34145 0.64927 0.0
O25 O 0.38034 0.3142 0.63619 0.0
C26 C 0.43408 0.37383 0.64968 0.0
C27 C 0.35818 0.32056 0.64068 0.0
C28 C 0.1895 0.43061 0.17556 0.0
C29 C 0.16179 0.40086 0.1127 0.0
O30 O 0.17009 0.41596 0.17613 0.0
Zn31 Zn 0.14659 0.39489 0.15672 0.0
O32 O 0.19948 0.43624 0.1596 0.0
Zn33 Zn 0.17625 0.41665 0.14398 0.0
O34 O 0.14172 0.43606 0.14777 0.0
O35 O 0.11429 0.4095 0.16082 0.0
O36 O 0.18013 0.41573 0.11637 0.0
O37 O 0.14835 0.39215 0.12643 0.0
O38 O 0.15207 0.36052 0.16488 0.0
O39 O 0.18586 0.37955 0.153 0.0
C40 C 0.11965 0.43133 0.15429 0.0
C41 C 0.1753 0.36024 0.16083 0.0
C42 C 0.04013 0.14311 0.64459 0.0
C43 C 0.12273 0.18608 0.63913 0.0
O44 O 0.04456 0.16473 0.63725 0.0
Zn45 Zn 0.08083 0.16619 0.64186 0.0
O46 O 0.05832 0.13077 0.65176 0.0
Zn47 Zn 0.09791 0.13477 0.65603 0.0
O48 O 0.10076 0.13543 0.68384 0.0
O49 O 0.08358 0.1696 0.67203 0.0
O50 O 0.12312 0.16458 0.64749 0.0
O51 O 0.10185 0.19489 0.63363 0.0
O52 O 0.09429 0.13731 0.62357 0.0
O53 O 0.11134 0.10728 0.64084 0.0
C54 C 0.09139 0.15704 0.68641 0.0
C55 C 0.10563 0.11625 0.62459 0.0
C56 C 0.2886 0.4362 0.36444 0.0
C57 C 0.30764 0.42756 0.4324 0.0
O58 O 0.30877 0.42404 0.3675 0.0
Zn59 Zn 0.3301 0.41146 0.39156 0.0
O60 O 0.27621 0.44433 0.3785 0.0
Zn61 Zn 0.29802 0.43213 0.39856 0.0
O62 O 0.3321 0.45453 0.39487 0.0
O63 O 0.3621 0.42822 0.38759 0.0
O64 O 0.28949 0.43908 0.42476 0.0
O65 O 0.32367 0.41665 0.42173 0.0
O66 O 0.32818 0.37526 0.38867 0.0
O67 O 0.29216 0.39169 0.39709 0.0
C68 C 0.35516 0.4506 0.39071 0.0
C69 C 0.30517 0.37233 0.393 0.0
C70 C 0.06478 0.37459 0.87407 0.0
C71 C 0.13535 0.31822 0.87869 0.0
O72 O 0.05836 0.35348 0.88185 0.0
Zn73 Zn 0.07659 0.31893 0.88956 0.0
O74 O 0.08729 0.37814 0.86871 0.0
Zn75 Zn 0.10043 0.34635 0.87659 0.0
O76 O 0.0839 0.31913 0.85738 0.0
O77 O 0.06002 0.29305 0.87429 0.0
O78 O 0.13553 0.34072 0.87237 0.0
O79 O 0.11505 0.30837 0.88541 0.0
O80 O 0.07362 0.31778 0.91719 0.0
O81 O 0.09948 0.34781 0.9071 0.0
C82 C 0.06939 0.29958 0.85833 0.0
C83 C 0.08878 0.33589 0.92088 0.0
C84 C 0.14352 0.04282 0.39019 0.0
C85 C 0.1877 0.1245 0.39402 0.0
O86 O 0.16624 0.04089 0.39597 0.0
Zn87 Zn 0.19813 0.06549 0.40125 0.0
O88 O 0.13525 0.06445 0.38592 0.0
Zn89 Zn 0.16534 0.08391 0.39171 0.0
O90 O 0.19026 0.07304 0.36954 0.0
O91 O 0.22267 0.05446 0.38253 0.0
O92 O 0.16537 0.1202 0.38837 0.0
O93 O 0.20135 0.10604 0.39924 0.0
O94 O 0.20381 0.05983 0.42826 0.0
O95 O 0.16854 0.07938 0.42213 0.0
C96 C 0.21135 0.06213 0.36772 0.0
C97 C 0.18385 0.06995 0.43421 0.0
C98 C 0.36069 0.17621 0.88007 0.0
C99 C 0.43875 0.13063 0.87404 0.0
O100 O 0.37972 0.18826 0.8869 0.0
Zn101 Zn 0.41952 0.18337 0.89018 0.0
O102 O 0.36352 0.15447 0.87289 0.0
Zn103 Zn 0.39932 0.15356 0.87688 0.0
O104 O 0.40076 0.15133 0.9075 0.0
O105 O 0.42294 0.18404 0.91771 0.0
O106 O 0.41687 0.12428 0.86854 0.0
O107 O 0.44226 0.15207 0.8821 0.0
O108 O 0.43189 0.2119 0.87514 0.0
O109 O 0.41143 0.18354 0.85799 0.0
C110 C 0.41012 0.16412 0.92132 0.0
C111 C 0.42309 0.20486 0.85916 0.0
C112 C 0.66633 0.91136 0.91936 0.0
C113 C 0.70294 0.93201 0.8569 0.0
O114 O 0.68543 0.92535 0.91585 0.0
Zn115 Zn 0.68372 0.92439 0.88818 0.0
O116 O 0.65344 0.90245 0.90544 0.0
Zn117 Zn 0.65427 0.90361 0.87489 0.0
O118 O 0.65719 0.8683 0.86887 0.0
O119 O 0.69096 0.88535 0.88224 0.0
O120 O 0.68232 0.91921 0.85591 0.0
O121 O 0.71051 0.93996 0.87301 0.0
O122 O 0.65115 0.94619 0.88158 0.0
O123 O 0.62386 0.92033 0.86795 0.0
C124 C 0.67968 0.86632 0.87467 0.0
C125 C 0.62957 0.94223 0.87392 0.0
C126 C 0.61908 0.61466 0.40465 0.0
C127 C 0.60613 0.65691 0.34278 0.0
O128 O 0.60584 0.63454 0.40509 0.0
Zn129 Zn 0.59197 0.66321 0.38682 0.0
O130 O 0.62793 0.60706 0.38887 0.0
Zn131 Zn 0.61365 0.63405 0.37323 0.0
O132 O 0.63505 0.66467 0.38434 0.0
O133 O 0.61009 0.69298 0.39676 0.0
O134 O 0.6186 0.63699 0.34554 0.0
O135 O 0.59583 0.66761 0.35699 0.0
O136 O 0.55578 0.65769 0.38997 0.0
O137 O 0.57445 0.62596 0.37597 0.0
C138 C 0.63211 0.68551 0.39304 0.0
C139 C 0.55449 0.63585 0.38251 0.0
C140 C 0.82892 0.64515 0.87487 0.0
C141 C 0.88467 0.57319 0.87449 0.0
O142 O 0.85208 0.64547 0.87048 0.0
Zn143 Zn 0.85752 0.61002 0.87527 0.0
O144 O 0.81844 0.62466 0.88088 0.0
Zn145 Zn 0.82803 0.58609 0.88603 0.0
O146 O 0.82399 0.58281 0.91363 0.0
O147 O 0.8553 0.60836 0.9056 0.0
O148 O 0.86262 0.5675 0.88064 0.0
O149 O 0.88984 0.59583 0.86973 0.0
O150 O 0.8333 0.59344 0.85416 0.0
O151 O 0.80478 0.56933 0.86842 0.0
C152 C 0.84191 0.59758 0.91852 0.0
C153 C 0.81394 0.57878 0.85318 0.0
C154 C 0.87285 0.80562 0.39577 0.0
C155 C 0.95352 0.85099 0.38558 0.0
O156 O 0.87167 0.82728 0.3878 0.0
Zn157 Zn 0.89448 0.85769 0.37831 0.0
O158 O 0.89423 0.79667 0.39988 0.0
Zn159 Zn 0.91455 0.82578 0.39067 0.0
O160 O 0.90376 0.85392 0.41013 0.0
O161 O 0.88292 0.88415 0.3957 0.0
O162 O 0.95137 0.82891 0.39272 0.0
O163 O 0.93386 0.8624 0.38003 0.0
O164 O 0.88892 0.85749 0.35058 0.0
O165 O 0.90876 0.82392 0.36083 0.0
C166 C 0.89211 0.87474 0.41086 0.0
C167 C 0.89912 0.83646 0.34713 0.0
C168 C 0.69388 0.58571 0.66945 0.0
C169 C 0.67061 0.58965 0.60226 0.0
O170 O 0.70538 0.57747 0.65502 0.0
Zn171 Zn 0.6818 0.58799 0.63595 0.0
O172 O 0.67289 0.59682 0.66716 0.0
Zn173 Zn 0.64862 0.60574 0.64328 0.0
O174 O 0.61844 0.58657 0.64882 0.0
O175 O 0.6501 0.56254 0.64128 0.0
O176 O 0.65379 0.59933 0.61294 0.0
O177 O 0.6902 0.58084 0.60987 0.0
O178 O 0.68411 0.62918 0.63681 0.0
O179 O 0.64643 0.64184 0.64475 0.0
C180 C 0.62702 0.56472 0.64614 0.0
C181 C 0.66901 0.6472 0.64037 0.0
C182 C 0.92821 0.70094 0.17363 0.0
C183 C 0.90559 0.66326 0.11221 0.0
O184 O 0.93519 0.70813 0.15715 0.0
Zn185 Zn 0.9191 0.68103 0.14295 0.0
O186 O 0.91548 0.68028 0.17546 0.0
Zn187 Zn 0.89915 0.65184 0.15699 0.0
O188 O 0.91518 0.62145 0.16397 0.0
O189 O 0.94088 0.64808 0.14924 0.0
O190 O 0.89716 0.65034 0.12638 0.0
O191 O 0.91932 0.68265 0.11534 0.0
O192 O 0.88036 0.68823 0.1497 0.0
O193 O 0.86449 0.654 0.1636 0.0
C194 C 0.93676 0.6266 0.15727 0.0
C195 C 0.86191 0.67646 0.15769 0.0
C196 C 0.8453 0.91077 0.60965 0.0
C197 C 0.8248 0.91305 0.67814 0.0
O198 O 0.82576 0.92316 0.614 0.0
Zn199 Zn 0.80502 0.93471 0.63815 0.0
O200 O 0.85861 0.90134 0.62287 0.0
Zn201 Zn 0.83781 0.91211 0.64438 0.0
O202 O 0.80394 0.89146 0.63873 0.0
O203 O 0.77266 0.91728 0.63327 0.0
O204 O 0.84426 0.90306 0.67113 0.0
O205 O 0.80974 0.92491 0.66727 0.0
O206 O 0.81036 0.97182 0.6376 0.0
O207 O 0.84479 0.95141 0.64456 0.0
C208 C 0.7808 0.89488 0.63476 0.0
C209 C 0.83361 0.97224 0.64183 0.0
C210 C 0.57266 0.88055 0.15949 0.0
C211 C 0.64244 0.82416 0.15335 0.0
O212 O 0.59533 0.88377 0.16454 0.0
Zn213 Zn 0.60795 0.85242 0.1558 0.0
O214 O 0.56588 0.85987 0.1514 0.0
Zn215 Zn 0.58359 0.82564 0.14283 0.0
O216 O 0.56715 0.79932 0.15805 0.0
O217 O 0.59208 0.82436 0.17477 0.0
O218 O 0.62204 0.81473 0.14649 0.0
O219 O 0.64288 0.84651 0.1598 0.0
O220 O 0.60637 0.85506 0.12534 0.0
O221 O 0.57998 0.8256 0.11525 0.0
C222 C 0.57744 0.80493 0.17386 0.0
C223 C 0.59519 0.84373 0.11157 0.0
H224 H 0.43032 0.18323 0.95438 0.0
H225 H 0.42009 0.17059 0.98711 0.0
H226 H 0.36748 0.11463 0.96606 0.0
H227 H 0.37759 0.12702 0.93341 0.0
H228 H 0.34753 0.14251 0.99497 0.0
H229 H 0.42204 0.09612 0.9833 0.0
H230 H 0.46596 0.09042 0.97355 0.0
H231 H 0.49094 0.14031 0.01792 0.0
H232 H 0.44708 0.14656 0.02779 0.0
H233 H 0.3267 0.08027 0.08433 0.0
H234 H 0.33703 0.08916 0.05093 0.0
H235 H 0.39492 0.1419 0.06864 0.0
H236 H 0.38509 0.13286 0.10183 0.0
H237 H 0.41187 0.1138 0.04079 0.0
H238 H 0.33727 0.16135 0.05177 0.0
H239 H 0.29328 0.16761 0.06118 0.0
H240 H 0.26844 0.11602 0.01789 0.0
H241 H 0.31234 0.10921 1.00839 0.0
C242 C 0.41667 0.16815 0.95671 0.0
C243 C 0.40485 0.15611 0.94124 0.0
C244 C 0.41087 0.16091 0.97543 0.0
C245 C 0.39307 0.14157 0.97905 0.0
C246 C 0.38124 0.12959 0.96364 0.0
C247 C 0.38716 0.13665 0.94495 0.0
C248 C 0.38653 0.13403 0.99889 0.0
C249 C 0.36153 0.13589 1.00493 0.0
C250 C 0.40485 0.12581 1.01198 0.0
C251 C 0.43125 0.12201 1.00616 0.0
C252 C 0.43688 0.10604 0.99088 0.0
C253 C 0.46177 0.10268 0.98535 0.0
C254 C 0.48124 0.11506 0.99507 0.0
C255 C 0.47584 0.13076 1.01038 0.0
C256 C 0.45097 0.1342 1.01597 0.0
C257 C 0.34162 0.09375 0.0811 0.0
C258 C 0.35499 0.10587 0.09582 0.0
C259 C 0.34746 0.0989 0.06199 0.0
C260 C 0.36665 0.1164 0.05721 0.0
C261 C 0.3801 0.1283 0.0719 0.0
C262 C 0.37434 0.12315 0.09093 0.0
C263 C 0.37285 0.12249 0.03699 0.0
C264 C 0.39782 0.12034 0.03085 0.0
C265 C 0.35449 0.13049 0.02381 0.0
C266 C 0.3281 0.13455 0.02951 0.0
C267 C 0.32244 0.15118 0.04437 0.0
C268 C 0.29752 0.15486 0.0497 0.0
C269 C 0.27808 0.14216 0.04018 0.0
C270 C 0.28352 0.12581 0.02528 0.0
C271 C 0.30841 0.12204 0.0199 0.0
H272 H 0.2588 0.14504 0.04433 0.0
H273 H 0.5005 0.11243 0.99077 0.0
H274 H 0.28074 0.45268 0.45955 0.0
H275 H 0.2862 0.45098 0.49419 0.0
H276 H 0.34638 0.3986 0.48738 0.0
H277 H 0.34106 0.40012 0.45293 0.0
H278 H 0.31429 0.38355 0.51537 0.0
H279 H 0.35852 0.4601 0.49651 0.0
H280 H 0.36247 0.50222 0.4817 0.0
H281 H 0.30595 0.53003 0.51926 0.0
H282 H 0.30143 0.48794 0.53414 0.0
H283 H 0.39099 0.38687 0.59388 0.0
H284 H 0.37547 0.3982 0.56255 0.0
H285 H 0.3119 0.43403 0.58798 0.0
H286 H 0.32733 0.42239 0.61987 0.0
H287 H 0.33763 0.45955 0.55285 0.0
H288 H 0.29746 0.38294 0.57428 0.0
H289 H 0.29686 0.34116 0.58982 0.0
H290 H 0.34719 0.31347 0.54743 0.0
H291 H 0.34853 0.35526 0.53186 0.0
C292 C 0.29511 0.44077 0.46544 0.0
C293 C 0.3105 0.42657 0.45343 0.0
C294 C 0.29825 0.43988 0.48524 0.0
C295 C 0.31678 0.42475 0.4934 0.0
C296 C 0.33192 0.41037 0.48143 0.0
C297 C 0.32891 0.41135 0.4617 0.0
C298 C 0.32071 0.42376 0.51436 0.0
C299 C 0.31933 0.4002 0.52353 0.0
C300 C 0.3267 0.44554 0.52519 0.0
C301 C 0.3294 0.47081 0.51626 0.0
C302 C 0.34677 0.47514 0.50149 0.0
C303 C 0.34915 0.49902 0.49311 0.0
C304 C 0.33441 0.51877 0.49949 0.0
C305 C 0.31731 0.5147 0.51431 0.0
C306 C 0.31484 0.49084 0.52272 0.0
C307 C 0.37389 0.39752 0.59296 0.0
C308 C 0.36021 0.40343 0.60941 0.0
C309 C 0.36509 0.40403 0.57498 0.0
C310 C 0.34241 0.41665 0.57295 0.0
C311 C 0.32947 0.42425 0.58931 0.0
C312 C 0.3383 0.41762 0.60748 0.0
C313 C 0.33159 0.41935 0.55362 0.0
C314 C 0.33185 0.44308 0.54475 0.0
C315 C 0.32455 0.39774 0.54301 0.0
C316 C 0.32322 0.37231 0.55197 0.0
C317 C 0.30853 0.36799 0.56834 0.0
C318 C 0.30805 0.34431 0.57715 0.0
C319 C 0.32201 0.32469 0.56963 0.0
C320 C 0.3364 0.3287 0.55324 0.0
C321 C 0.337 0.35238 0.5444 0.0
H322 H 0.32164 0.30638 0.5765 0.0
H323 H 0.33628 0.53724 0.49299 0.0
H324 H 0.12249 0.37185 0.9328 0.0
H325 H 0.1346 0.38232 0.96529 0.0
H326 H 0.08213 0.32628 0.9868 0.0
H327 H 0.06971 0.31567 0.95414 0.0
H328 H 0.08051 0.37048 1.007 0.0
H329 H 0.1436 0.31398 0.98585 0.0
H330 H 0.17597 0.29821 0.96412 0.0
H331 H 0.21941 0.36643 0.97161 0.0
H332 H 0.1871 0.38279 0.99317 0.0
H333 H 0.12653 0.36631 0.10108 0.0
H334 H 0.11444 0.35537 0.0687 0.0
H335 H 0.16959 0.40843 0.04671 0.0
H336 H 0.18223 0.4192 0.07929 0.0
H337 H 0.16971 0.36559 0.02668 0.0
H338 H 0.10653 0.42219 0.04784 0.0
H339 H 0.07402 0.43798 0.06945 0.0
H340 H 0.03063 0.36974 0.06186 0.0
H341 H 0.06307 0.35337 0.04042 0.0
C342 C 0.11339 0.36174 0.94439 0.0
C343 C 0.09515 0.34281 0.9408 0.0
C344 C 0.12046 0.36771 0.963 0.0
C345 C 0.10954 0.35487 0.9785 0.0
C346 C 0.09088 0.33638 0.97505 0.0
C347 C 0.08383 0.3303 0.95637 0.0
C348 C 0.11777 0.36079 0.99826 0.0
C349 C 0.09995 0.36907 1.01139 0.0
C350 C 0.14326 0.35955 1.00386 0.0
C351 C 0.1628 0.34971 0.99098 0.0
C352 C 0.15996 0.32571 0.98274 0.0
C353 C 0.17831 0.31665 0.97048 0.0
C354 C 0.1997 0.33133 0.96645 0.0
C355 C 0.20282 0.35509 0.97472 0.0
C356 C 0.18449 0.36426 0.98698 0.0
C357 C 0.13618 0.37569 0.0894 0.0
C358 C 0.15528 0.3938 0.09283 0.0
C359 C 0.12913 0.36946 0.07084 0.0
C360 C 0.14074 0.38139 0.05521 0.0
C361 C 0.16024 0.39905 0.05853 0.0
C362 C 0.16744 0.40523 0.07717 0.0
C363 C 0.13245 0.37535 0.03546 0.0
C364 C 0.15027 0.36704 0.02231 0.0
C365 C 0.10695 0.37659 0.02984 0.0
C366 C 0.08735 0.38646 0.04265 0.0
C367 C 0.09014 0.41047 0.05089 0.0
C368 C 0.07171 0.41953 0.06309 0.0
C369 C 0.0503 0.40484 0.06706 0.0
C370 C 0.04725 0.38108 0.05879 0.0
C371 C 0.06564 0.37191 0.0466 0.0
H372 H 0.03605 0.41187 0.0765 0.0
H373 H 0.2139 0.32428 0.95695 0.0
H374 H 0.08566 0.1235 0.58954 0.0
H375 H 0.10086 0.10824 0.55916 0.0
H376 H 0.15836 0.06657 0.58797 0.0
H377 H 0.14313 0.082 0.61878 0.0
H378 H 0.17694 0.09551 0.55787 0.0
H379 H 0.11109 0.0347 0.56711 0.0
H380 H 0.06831 0.01956 0.57498 0.0
H381 H 0.03872 0.06209 0.52825 0.0
H382 H 0.08127 0.07779 0.52025 0.0
H383 H 0.21064 0.05091 0.46446 0.0
H384 H 0.19948 0.05216 0.49832 0.0
H385 H 0.13231 0.0924 0.48438 0.0
H386 H 0.14306 0.09094 0.45078 0.0
H387 H 0.12181 0.05604 0.5091 0.0
H388 H 0.18522 0.12198 0.50315 0.0
H389 H 0.22715 0.13978 0.49563 0.0
H390 H 0.26047 0.08971 0.53618 0.0
H391 H 0.21873 0.07138 0.54376 0.0
C392 C 0.10133 0.11079 0.58952 0.0
C393 C 0.11317 0.10395 0.60662 0.0
C394 C 0.10995 0.10199 0.57208 0.0
C395 C 0.13065 0.0861 0.57124 0.0
C396 C 0.14229 0.07875 0.58829 0.0
C397 C 0.13347 0.08742 0.60588 0.0
C398 C 0.14064 0.07861 0.55236 0.0
C399 C 0.16512 0.08629 0.54733 0.0
C400 C 0.12505 0.06707 0.53847 0.0
C401 C 0.0994 0.05751 0.54314 0.0
C402 C 0.09545 0.04095 0.55858 0.0
C403 C 0.07123 0.03225 0.56305 0.0
C404 C 0.05081 0.03988 0.55214 0.0
C405 C 0.05456 0.05619 0.53669 0.0
C406 C 0.07873 0.06496 0.53216 0.0
C407 C 0.19352 0.06005 0.46863 0.0
C408 C 0.17777 0.07083 0.45485 0.0
C409 C 0.18719 0.06081 0.488 0.0
C410 C 0.16507 0.07248 0.49396 0.0
C411 C 0.1494 0.08319 0.48019 0.0
C412 C 0.15566 0.08241 0.46092 0.0
C413 C 0.15786 0.07363 0.51443 0.0
C414 C 0.13386 0.06475 0.51974 0.0
C415 C 0.17382 0.08425 0.52851 0.0
C416 C 0.19892 0.09507 0.52382 0.0
C417 C 0.20152 0.11459 0.51032 0.0
C418 C 0.22524 0.12482 0.50608 0.0
C419 C 0.24647 0.11582 0.51537 0.0
C420 C 0.24401 0.09661 0.52896 0.0
C421 C 0.22034 0.0863 0.53323 0.0
H422 H 0.26482 0.12378 0.51209 0.0
H423 H 0.03207 0.03314 0.55563 0.0
H424 H 0.62887 0.87978 0.09951 0.0
H425 H 0.63981 0.89151 0.06696 0.0
H426 H 0.58558 0.83722 0.04572 0.0
H427 H 0.57483 0.82493 0.07843 0.0
H428 H 0.62836 0.83417 0.02664 0.0
H429 H 0.57498 0.90167 0.0444 0.0
H430 H 0.56017 0.93629 0.06453 0.0
H431 H 0.63051 0.97586 0.05703 0.0
H432 H 0.64588 0.94131 0.03705 0.0
H433 H 0.62965 0.87808 0.93099 0.0
H434 H 0.61752 0.86683 0.96345 0.0
H435 H 0.67404 0.91818 0.98535 0.0
H436 H 0.68633 0.92966 0.95277 0.0
H437 H 0.6296 0.92287 1.00395 0.0
H438 H 0.683 0.85524 0.98647 0.0
H439 H 0.69872 0.81957 0.96784 0.0
H440 H 0.62842 0.77993 0.97529 0.0
H441 H 0.61213 0.81552 0.99372 0.0
C442 C 0.6191 0.87039 0.08796 0.0
C443 C 0.60088 0.85143 0.09164 0.0
C444 C 0.62532 0.87724 0.0693 0.0
C445 C 0.6133 0.86554 0.05381 0.0
C446 C 0.59508 0.8466 0.05741 0.0
C447 C 0.58889 0.83963 0.07613 0.0
C448 C 0.62038 0.87255 0.03393 0.0
C449 C 0.62818 0.85352 0.02158 0.0
C450 C 0.6209 0.8979 0.02744 0.0
C451 C 0.61166 0.91879 0.03936 0.0
C452 C 0.58736 0.91767 0.04715 0.0
C453 C 0.57885 0.9373 0.05852 0.0
C454 C 0.59441 0.95824 0.0621 0.0
C455 C 0.61849 0.95962 0.05426 0.0
C456 C 0.6271 0.94003 0.0429 0.0
C457 C 0.63957 0.88703 0.94268 0.0
C458 C 0.65902 0.9048 0.93922 0.0
C459 C 0.63266 0.88045 0.96126 0.0
C460 C 0.64502 0.89144 0.97688 0.0
C461 C 0.66427 0.90939 0.97353 0.0
C462 C 0.67131 0.9159 0.95489 0.0
C463 C 0.6375 0.88446 0.99667 0.0
C464 C 0.62965 0.90351 1.00899 0.0
C465 C 0.63688 0.85912 1.00312 0.0
C466 C 0.64626 0.83816 0.99134 0.0
C467 C 0.67077 0.83907 0.98392 0.0
C468 C 0.67981 0.81883 0.97345 0.0
C469 C 0.66458 0.7975 0.97042 0.0
C470 C 0.6402 0.79646 0.97767 0.0
C471 C 0.63105 0.81666 0.98813 0.0
H472 H 0.67173 0.7817 0.96257 0.0
H473 H 0.58779 0.97341 0.0709 0.0
H474 H 0.62924 0.60293 0.58169 0.0
H475 H 0.62329 0.60085 0.54727 0.0
H476 H 0.69785 0.57199 0.54074 0.0
H477 H 0.70403 0.57411 0.57524 0.0
H478 H 0.68801 0.60854 0.51416 0.0
H479 H 0.64775 0.53212 0.53621 0.0
H480 H 0.61896 0.50495 0.55491 0.0
H481 H 0.556 0.54615 0.53405 0.0
H482 H 0.58448 0.5737 0.51527 0.0
H483 H 0.66169 0.5895 0.41533 0.0
H484 H 0.67349 0.57793 0.44807 0.0
H485 H 0.60146 0.60241 0.46811 0.0
H486 H 0.58959 0.61335 0.43578 0.0
H487 H 0.61481 0.56204 0.48704 0.0
H488 H 0.65438 0.64206 0.46896 0.0
H489 H 0.68131 0.66774 0.44754 0.0
H490 H 0.7438 0.62057 0.46011 0.0
H491 H 0.71716 0.59449 0.48152 0.0
C492 C 0.6444 0.59613 0.57298 0.0
C493 C 0.66708 0.5886 0.58129 0.0
C494 C 0.64093 0.59484 0.55327 0.0
C495 C 0.66001 0.58597 0.54139 0.0
C496 C 0.68283 0.57881 0.5496 0.0
C497 C 0.68629 0.57998 0.56934 0.0
C498 C 0.65605 0.58438 0.52045 0.0
C499 C 0.67225 0.59801 0.50821 0.0
C500 C 0.63535 0.57094 0.5126 0.0
C501 C 0.61827 0.55506 0.52445 0.0
C502 C 0.62779 0.53555 0.53577 0.0
C503 C 0.6115 0.52003 0.54634 0.0
C504 C 0.58563 0.52381 0.54569 0.0
C505 C 0.57602 0.54322 0.53454 0.0
C506 C 0.59223 0.55877 0.5239 0.0
C507 C 0.64819 0.59165 0.42669 0.0
C508 C 0.6248 0.60245 0.42305 0.0
C509 C 0.65502 0.58533 0.4454 0.0
C510 C 0.63853 0.58976 0.46063 0.0
C511 C 0.61457 0.59889 0.45669 0.0
C512 C 0.60781 0.6052 0.43816 0.0
C513 C 0.64627 0.58671 0.48085 0.0
C514 C 0.63078 0.57226 0.49297 0.0
C515 C 0.66738 0.59966 0.48857 0.0
C516 C 0.68374 0.61617 0.47663 0.0
C517 C 0.67387 0.63717 0.46713 0.0
C518 C 0.68904 0.65174 0.45496 0.0
C519 C 0.71416 0.64558 0.45229 0.0
C520 C 0.72428 0.62518 0.46209 0.0
C521 C 0.70918 0.61053 0.47427 0.0
H522 H 0.72581 0.6567 0.4427 0.0
H523 H 0.573 0.51164 0.55374 0.0
H524 H 0.82082 0.57577 0.95063 0.0
H525 H 0.83095 0.58517 0.98394 0.0
H526 H 0.88538 0.64138 0.96559 0.0
H527 H 0.87587 0.63174 0.93254 0.0
H528 H 0.90461 0.61498 0.993 0.0
H529 H 0.82611 0.65652 0.98342 0.0
H530 H 0.78139 0.65942 0.97483 0.0
H531 H 0.76202 0.60571 0.01856 0.0
H532 H 0.80668 0.60224 0.02724 0.0
H533 H 0.92225 0.68416 0.07856 0.0
H534 H 0.91081 0.67148 0.0462 0.0
H535 H 0.86237 0.61258 0.06875 0.0
H536 H 0.87357 0.62518 0.1011 0.0
H537 H 0.8397 0.63807 0.04 0.0
H538 H 0.91874 0.59836 0.05027 0.0
H539 H 0.96351 0.5967 0.0589 0.0
H540 H 0.9819 0.64846 1.01364 0.0
H541 H 0.93717 0.6507 1.0049 0.0
C542 C 0.83493 0.59012 0.95371 0.0
C543 C 0.8475 0.60297 0.93886 0.0
C544 C 0.84064 0.59558 0.97278 0.0
C545 C 0.85881 0.61419 0.97736 0.0
C546 C 0.87136 0.62691 0.96251 0.0
C547 C 0.86581 0.62138 0.94355 0.0
C548 C 0.86511 0.62047 0.99751 0.0
C549 C 0.89039 0.62029 1.00319 0.0
C550 C 0.8466 0.62687 1.01104 0.0
C551 C 0.81976 0.62891 1.00583 0.0
C552 C 0.81233 0.64517 0.9911 0.0
C553 C 0.787 0.64695 0.98623 0.0
C554 C 0.76889 0.6327 0.9961 0.0
C555 C 0.77607 0.61669 1.0109 0.0
C556 C 0.80139 0.61483 1.01581 0.0
C557 C 0.90919 0.66849 0.07665 0.0
C558 C 0.89893 0.65565 0.09247 0.0
C559 C 0.90272 0.6612 0.05812 0.0
C560 C 0.88588 0.64091 0.05501 0.0
C561 C 0.8754 0.62826 0.07077 0.0
C562 C 0.88193 0.63546 0.08928 0.0
C563 C 0.87918 0.63288 0.03533 0.0
C564 C 0.85385 0.63268 0.02979 0.0
C565 C 0.89765 0.62628 0.02187 0.0
C566 C 0.92457 0.62487 0.02704 0.0
C567 C 0.93231 0.60953 0.04225 0.0
C568 C 0.95768 0.60846 0.04715 0.0
C569 C 0.97553 0.62251 0.03686 0.0
C570 C 0.96805 0.63761 0.02161 0.0
C571 C 0.94269 0.63877 1.01667 0.0
H572 H 0.99517 0.62166 0.04067 0.0
H573 H 0.74928 0.6341 0.99232 0.0
H574 H 0.92596 0.87527 0.43932 0.0
H575 H 0.91865 0.88477 0.47273 0.0
H576 H 0.84364 0.90816 0.45924 0.0
H577 H 0.85113 0.89901 0.4254 0.0
H578 H 0.8652 0.93704 0.48779 0.0
H579 H 0.85254 0.84958 0.47462 0.0
H580 H 0.86338 0.80802 0.46177 0.0
H581 H 0.92733 0.80532 0.49883 0.0
H582 H 0.91712 0.8471 0.51166 0.0
H583 H 0.81477 0.92004 0.5796 0.0
H584 H 0.82371 0.91616 0.54589 0.0
H585 H 0.89802 0.8904 0.55896 0.0
H586 H 0.88891 0.89369 0.59318 0.0
H587 H 0.87678 0.86329 0.53044 0.0
H588 H 0.88652 0.95113 0.54486 0.0
H589 H 0.87295 0.99154 0.55792 0.0
H590 H 0.81202 0.99333 0.51807 0.0
H591 H 0.82458 0.95227 0.50522 0.0
C592 C 0.90808 0.88302 0.44338 0.0
C593 C 0.88903 0.88626 0.4298 0.0
C594 C 0.90389 0.88829 0.46251 0.0
C595 C 0.88039 0.89652 0.46858 0.0
C596 C 0.86187 0.90163 0.45488 0.0
C597 C 0.86618 0.89655 0.43555 0.0
C598 C 0.87487 0.89792 0.4893 0.0
C599 C 0.86741 0.92086 0.49709 0.0
C600 C 0.87814 0.87686 0.5015 0.0
C601 C 0.88419 0.85159 0.49398 0.0
C602 C 0.86902 0.84021 0.47993 0.0
C603 C 0.87504 0.81661 0.47266 0.0
C604 C 0.89606 0.80406 0.47945 0.0
C605 C 0.91107 0.81508 0.49356 0.0
C606 C 0.90517 0.83872 0.50085 0.0
C607 C 0.8331 0.91356 0.57542 0.0
C608 C 0.85126 0.90745 0.58917 0.0
C609 C 0.83818 0.91143 0.55605 0.0
C610 C 0.86172 0.90354 0.54981 0.0
C611 C 0.87977 0.89673 0.56344 0.0
C612 C 0.87458 0.89865 0.58298 0.0
C613 C 0.86726 0.9025 0.52904 0.0
C614 C 0.87466 0.87954 0.5212 0.0
C615 C 0.86364 0.92348 0.51679 0.0
C616 C 0.85639 0.94848 0.52418 0.0
C617 C 0.87012 0.96002 0.53895 0.0
C618 C 0.8626 0.98308 0.54633 0.0
C619 C 0.84171 0.9951 0.53881 0.0
C620 C 0.82821 0.98401 0.52389 0.0
C621 C 0.83548 0.9608 0.51659 0.0
H622 H 0.83598 0.01299 0.54455 0.0
H623 H 0.90069 0.78578 0.47381 0.0
H624 H 0.22453 0.36082 0.17004 0.0
H625 H 0.25175 0.3248 0.17427 0.0
H626 H 0.18852 0.27412 0.16559 0.0
H627 H 0.16087 0.31039 0.162 0.0
H628 H 0.22037 0.25575 0.19212 0.0
H629 H 0.22729 0.28981 0.12879 0.0
H630 H 0.23403 0.32338 0.10485 0.0
H631 H 0.30829 0.3374 0.12651 0.0
H632 H 0.30185 0.30413 0.15077 0.0
H633 H 0.28428 0.15 0.15678 0.0
H634 H 0.2579 0.18653 0.16102 0.0
H635 H 0.32338 0.23266 0.17322 0.0
H636 H 0.35014 0.19601 0.16898 0.0
H637 H 0.29166 0.25391 0.14675 0.0
H638 H 0.28523 0.21642 0.20861 0.0
H639 H 0.2778 0.18203 0.23177 0.0
H640 H 0.202 0.17311 0.2119 0.0
H641 H 0.20908 0.2072 0.18841 0.0
C642 C 0.21638 0.34199 0.1692 0.0
C643 C 0.19073 0.33829 0.16532 0.0
C644 C 0.23194 0.32144 0.17163 0.0
C645 C 0.22227 0.29681 0.16975 0.0
C646 C 0.19637 0.29301 0.16697 0.0
C647 C 0.18063 0.31367 0.16487 0.0
C648 C 0.23954 0.27528 0.16929 0.0
C649 C 0.23581 0.25519 0.18209 0.0
C650 C 0.25997 0.27483 0.15642 0.0
C651 C 0.264 0.29465 0.14171 0.0
C652 C 0.245 0.30017 0.12852 0.0
C653 C 0.24877 0.31913 0.11489 0.0
C654 C 0.27156 0.33256 0.11419 0.0
C655 C 0.29064 0.327 0.12709 0.0
C656 C 0.28695 0.30809 0.14077 0.0
C657 C 0.29316 0.16788 0.16038 0.0
C658 C 0.31935 0.17013 0.1625 0.0
C659 C 0.27799 0.18869 0.16295 0.0
C660 C 0.28868 0.21217 0.16767 0.0
C661 C 0.31481 0.21461 0.16969 0.0
C662 C 0.33004 0.19369 0.16725 0.0
C663 C 0.27251 0.23436 0.16956 0.0
C664 C 0.27638 0.25455 0.15692 0.0
C665 C 0.25213 0.23472 0.18245 0.0
C666 C 0.24776 0.21425 0.19663 0.0
C667 C 0.26704 0.20699 0.20906 0.0
C668 C 0.26288 0.18757 0.22227 0.0
C669 C 0.23946 0.17536 0.22328 0.0
C670 C 0.22014 0.18258 0.2111 0.0
C671 C 0.22421 0.20197 0.19785 0.0
H672 H 0.23628 0.16033 0.23353 0.0
H673 H 0.27444 0.34724 0.10362 0.0
H674 H 0.31157 0.33741 0.63401 0.0
H675 H 0.27285 0.31291 0.63045 0.0
H676 H 0.31444 0.24405 0.63317 0.0
H677 H 0.35384 0.26881 0.63651 0.0
H678 H 0.27425 0.24152 0.60717 0.0
H679 H 0.28727 0.26269 0.67201 0.0
H680 H 0.29734 0.29023 0.69922 0.0
H681 H 0.23282 0.33475 0.68702 0.0
H682 H 0.22263 0.30777 0.65947 0.0
H683 H 0.16931 0.16625 0.63876 0.0
H684 H 0.20963 0.1883 0.63542 0.0
H685 H 0.17172 0.25894 0.62923 0.0
H686 H 0.13092 0.23681 0.63238 0.0
H687 H 0.21085 0.25899 0.65689 0.0
H688 H 0.19822 0.23469 0.59158 0.0
H689 H 0.1892 0.2047 0.56567 0.0
H690 H 0.2541 0.16235 0.58091 0.0
H691 H 0.26331 0.1919 0.60711 0.0
C692 C 0.31261 0.31704 0.63369 0.0
C693 C 0.33571 0.305 0.63591 0.0
C694 C 0.29041 0.30306 0.63163 0.0
C695 C 0.29065 0.27665 0.63199 0.0
C696 C 0.31383 0.26444 0.63299 0.0
C697 C 0.33629 0.27856 0.63491 0.0
C698 C 0.26642 0.2623 0.63265 0.0
C699 C 0.26051 0.24506 0.61817 0.0
C700 C 0.24838 0.26709 0.64693 0.0
C701 C 0.25432 0.28333 0.66356 0.0
C702 C 0.27534 0.27848 0.67503 0.0
C703 C 0.28105 0.29396 0.69053 0.0
C704 C 0.26574 0.31424 0.69484 0.0
C705 C 0.24467 0.31905 0.68365 0.0
C706 C 0.23891 0.30366 0.66809 0.0
C707 C 0.16945 0.18648 0.63656 0.0
C708 C 0.14687 0.19982 0.63591 0.0
C709 C 0.19256 0.19902 0.63455 0.0
C710 C 0.1937 0.22522 0.63198 0.0
C711 C 0.17123 0.23866 0.63114 0.0
C712 C 0.14796 0.22602 0.63289 0.0
C713 C 0.21845 0.23855 0.63122 0.0
C714 C 0.22453 0.25552 0.64582 0.0
C715 C 0.23674 0.23308 0.61728 0.0
C716 C 0.23132 0.2154 0.60143 0.0
C717 C 0.21046 0.21887 0.58952 0.0
C718 C 0.20533 0.20197 0.57475 0.0
C719 C 0.22103 0.1816 0.57167 0.0
C720 C 0.24193 0.17813 0.58332 0.0
C721 C 0.24713 0.19496 0.59812 0.0
H722 H 0.21703 0.16853 0.56023 0.0
H723 H 0.27019 0.32619 0.70686 0.0
H724 H 0.26491 0.35639 0.41401 0.0
H725 H 0.2452 0.31444 0.41473 0.0
H726 H 0.29754 0.28942 0.37224 0.0
H727 H 0.31825 0.33096 0.37244 0.0
H728 H 0.22054 0.28805 0.39208 0.0
H729 H 0.30702 0.22746 0.37445 0.0
H730 H 0.35283 0.22819 0.37952 0.0
H731 H 0.34389 0.27464 0.42883 0.0
H732 H 0.29802 0.27393 0.42419 0.0
H733 H 0.1763 0.16424 0.37079 0.0
H734 H 0.19609 0.20627 0.37034 0.0
H735 H 0.24211 0.18558 0.41831 0.0
H736 H 0.2235 0.14319 0.41792 0.0
H737 H 0.26979 0.20991 0.39645 0.0
H738 H 0.18803 0.22637 0.4207 0.0
H739 H 0.14176 0.22586 0.4213 0.0
H740 H 0.14049 0.26801 0.36902 0.0
H741 H 0.18677 0.2685 0.36799 0.0
C742 C 0.27231 0.34185 0.40493 0.0
C743 C 0.29325 0.34688 0.39329 0.0
C744 C 0.26095 0.31786 0.40527 0.0
C745 C 0.26998 0.29845 0.39373 0.0
C746 C 0.29057 0.30371 0.38172 0.0
C747 C 0.30235 0.32753 0.38175 0.0
C748 C 0.25767 0.27289 0.3942 0.0
C749 C 0.23136 0.27099 0.39308 0.0
C750 C 0.27156 0.25046 0.39585 0.0
C751 C 0.29912 0.25086 0.39884 0.0
C752 C 0.31483 0.23777 0.3864 0.0
C753 C 0.34081 0.23819 0.3892 0.0
C754 C 0.35127 0.25153 0.40445 0.0
C755 C 0.33577 0.2644 0.41698 0.0
C756 C 0.30979 0.26402 0.41426 0.0
C757 C 0.19054 0.16878 0.38128 0.0
C758 C 0.19832 0.15048 0.39442 0.0
C759 C 0.2018 0.19287 0.3811 0.0
C760 C 0.22044 0.19944 0.39448 0.0
C761 C 0.22792 0.18113 0.40775 0.0
C762 C 0.21717 0.15689 0.40759 0.0
C763 C 0.23263 0.22506 0.39449 0.0
C764 C 0.25894 0.22697 0.39554 0.0
C765 C 0.21867 0.24752 0.39362 0.0
C766 C 0.19085 0.24725 0.39418 0.0
C767 C 0.17787 0.23537 0.40927 0.0
C768 C 0.15165 0.23511 0.40969 0.0
C769 C 0.1382 0.24684 0.39518 0.0
C770 C 0.15094 0.2589 0.38024 0.0
C771 C 0.17716 0.2592 0.37973 0.0
H772 H 0.1179 0.24662 0.39554 0.0
H773 H 0.37138 0.25185 0.40657 0.0
H774 H 0.35098 0.22447 0.88985 0.0
H775 H 0.31103 0.2456 0.88926 0.0
H776 H 0.27427 0.17726 0.86985 0.0
H777 H 0.31474 0.15589 0.86993 0.0
H778 H 0.25768 0.21696 0.85057 0.0
H779 H 0.26744 0.19644 0.91563 0.0
H780 H 0.28852 0.1927 0.9467 0.0
H781 H 0.29573 0.2733 0.95009 0.0
H782 H 0.27504 0.27754 0.91888 0.0
H783 H 0.13725 0.26725 0.87682 0.0
H784 H 0.1746 0.24119 0.87597 0.0
H785 H 0.22175 0.30806 0.87814 0.0
H786 H 0.18436 0.33444 0.87852 0.0
H787 H 0.23025 0.26568 0.90672 0.0
H788 H 0.22097 0.28374 0.83927 0.0
H789 H 0.19723 0.28481 0.80917 0.0
H790 H 0.18546 0.2046 0.8121 0.0
H791 H 0.20883 0.2031 0.84239 0.0
C792 C 0.33445 0.21378 0.88554 0.0
C793 C 0.33601 0.1884 0.88007 0.0
C794 C 0.31156 0.22592 0.88528 0.0
C795 C 0.2896 0.21289 0.87985 0.0
C796 C 0.29102 0.1876 0.87418 0.0
C797 C 0.31409 0.17541 0.8743 0.0
C798 C 0.26542 0.22617 0.87987 0.0
C799 C 0.25146 0.22725 0.86295 0.0
C800 C 0.25736 0.2397 0.89601 0.0
C801 C 0.26985 0.23729 0.91482 0.0
C802 C 0.2737 0.21337 0.92292 0.0
C803 C 0.28555 0.21116 0.94057 0.0
C804 C 0.29351 0.23275 0.95035 0.0
C805 C 0.28958 0.2566 0.9425 0.0
C806 C 0.27776 0.25891 0.92483 0.0
C807 C 0.15558 0.27642 0.87707 0.0
C808 C 0.158 0.30284 0.87782 0.0
C809 C 0.17682 0.26152 0.87649 0.0
C810 C 0.20076 0.2728 0.87695 0.0
C811 C 0.20331 0.29915 0.87772 0.0
C812 C 0.18203 0.31413 0.8779 0.0
C813 C 0.22312 0.25694 0.87735 0.0
C814 C 0.23653 0.25527 0.89441 0.0
C815 C 0.2303 0.24247 0.8615 0.0
C816 C 0.2164 0.24335 0.84322 0.0
C817 C 0.2131 0.26636 0.8336 0.0
C818 C 0.19976 0.26704 0.81648 0.0
C819 C 0.18976 0.2448 0.80876 0.0
C820 C 0.19317 0.22182 0.81811 0.0
C821 C 0.20648 0.22104 0.83525 0.0
H822 H 0.17943 0.24536 0.7955 0.0
H823 H 0.30267 0.231 0.96402 0.0
H824 H 0.66119 0.81929 0.86527 0.0
H825 H 0.68525 0.78062 0.86141 0.0
H826 H 0.75373 0.82212 0.87342 0.0
H827 H 0.73007 0.86056 0.87732 0.0
H828 H 0.75811 0.7881 0.84299 0.0
H829 H 0.72621 0.79073 0.90779 0.0
H830 H 0.69191 0.79362 0.9311 0.0
H831 H 0.65794 0.72582 0.90891 0.0
H832 H 0.69181 0.7229 0.88513 0.0
H833 H 0.84435 0.69472 0.87187 0.0
H834 H 0.81767 0.73161 0.86854 0.0
H835 H 0.75188 0.68288 0.86789 0.0
H836 H 0.77823 0.6463 0.87193 0.0
H837 H 0.74351 0.71944 0.8901 0.0
H838 H 0.77558 0.71365 0.82706 0.0
H839 H 0.80748 0.71078 0.80182 0.0
H840 H 0.83877 0.78261 0.81825 0.0
H841 H 0.80728 0.78576 0.84379 0.0
C842 C 0.68137 0.82013 0.86702 0.0
C843 C 0.69368 0.84286 0.87189 0.0
C844 C 0.69507 0.7981 0.86476 0.0
C845 C 0.72122 0.79859 0.86722 0.0
C846 C 0.73357 0.8214 0.87145 0.0
C847 C 0.71995 0.84329 0.87386 0.0
C848 C 0.73578 0.77516 0.86672 0.0
C849 C 0.75509 0.77306 0.85331 0.0
C850 C 0.73129 0.7554 0.8799 0.0
C851 C 0.71137 0.75676 0.89455 0.0
C852 C 0.71134 0.77653 0.90781 0.0
C853 C 0.69198 0.77817 0.92111 0.0
C854 C 0.67271 0.75993 0.92147 0.0
C855 C 0.67285 0.73996 0.90859 0.0
C856 C 0.69211 0.73832 0.89518 0.0
C857 C 0.82421 0.69195 0.87096 0.0
C858 C 0.81338 0.66767 0.87231 0.0
C859 C 0.80897 0.713 0.86893 0.0
C860 C 0.78272 0.71003 0.86778 0.0
C861 C 0.77202 0.68571 0.86883 0.0
C862 C 0.78715 0.66479 0.87116 0.0
C863 C 0.76622 0.73221 0.86639 0.0
C864 C 0.74652 0.73419 0.87955 0.0
C865 C 0.77016 0.75166 0.85277 0.0
C866 C 0.78921 0.74981 0.83748 0.0
C867 C 0.7894 0.72873 0.82541 0.0
C868 C 0.80739 0.72708 0.81102 0.0
C869 C 0.82519 0.74647 0.80847 0.0
C870 C 0.825 0.76759 0.82027 0.0
C871 C 0.80707 0.76932 0.83469 0.0
H872 H 0.83909 0.74516 0.79732 0.0
H873 H 0.65767 0.76125 0.93174 0.0
H874 H 0.67432 0.66539 0.40715 0.0
H875 H 0.71465 0.68656 0.41296 0.0
H876 H 0.68233 0.75792 0.39807 0.0
H877 H 0.64148 0.73668 0.39254 0.0
H878 H 0.72502 0.74564 0.37687 0.0
H879 H 0.69924 0.74745 0.44153 0.0
H880 H 0.68396 0.73111 0.47233 0.0
H881 H 0.74943 0.68578 0.4778 0.0
H882 H 0.76474 0.70113 0.44669 0.0
H883 H 0.82644 0.82534 0.39481 0.0
H884 H 0.78623 0.80397 0.39879 0.0
H885 H 0.8234 0.73416 0.41058 0.0
H886 H 0.86454 0.75571 0.40657 0.0
H887 H 0.77901 0.74467 0.43439 0.0
H888 H 0.80271 0.73958 0.36888 0.0
H889 H 0.8187 0.75606 0.33826 0.0
H890 H 0.7574 0.80725 0.33506 0.0
H891 H 0.74127 0.79136 0.36584 0.0
C892 C 0.67568 0.6857 0.40547 0.0
C893 C 0.65487 0.69945 0.39928 0.0
C894 C 0.69871 0.69776 0.4089 0.0
C895 C 0.70151 0.72379 0.40596 0.0
C896 C 0.68049 0.73779 0.40048 0.0
C897 C 0.6572 0.72573 0.3974 0.0
C898 C 0.72694 0.73567 0.40655 0.0
C899 C 0.73663 0.74576 0.38955 0.0
C900 C 0.74245 0.7349 0.42294 0.0
C901 C 0.733 0.72522 0.44155 0.0
C902 C 0.71022 0.73367 0.4491 0.0
C903 C 0.70156 0.72462 0.46667 0.0
C904 C 0.71568 0.70738 0.477 0.0
C905 C 0.73851 0.69917 0.46979 0.0
C906 C 0.74714 0.70797 0.45214 0.0
C907 C 0.82632 0.80544 0.39833 0.0
C908 C 0.84883 0.79213 0.40004 0.0
C909 C 0.80318 0.79328 0.40067 0.0
C910 C 0.8018 0.76745 0.40471 0.0
C911 C 0.82413 0.75415 0.4074 0.0
C912 C 0.84756 0.76643 0.40505 0.0
C913 C 0.77684 0.75458 0.40476 0.0
C914 C 0.7673 0.74435 0.42177 0.0
C915 C 0.76141 0.75496 0.38838 0.0
C916 C 0.77091 0.76442 0.36976 0.0
C917 C 0.79275 0.75449 0.36173 0.0
C918 C 0.80182 0.76371 0.34433 0.0
C919 C 0.7891 0.78273 0.33474 0.0
C920 C 0.76725 0.79253 0.34251 0.0
C921 C 0.75812 0.78341 0.35993 0.0
H922 H 0.79616 0.78984 0.32127 0.0
H923 H 0.70895 0.70039 0.4906 0.0
H924 H 0.72972 0.88906 0.64093 0.0
H925 H 0.70515 0.84921 0.6401 0.0
H926 H 0.77104 0.80986 0.62208 0.0
H927 H 0.79533 0.8491 0.62286 0.0
H928 H 0.73009 0.79345 0.60286 0.0
H929 H 0.75366 0.81035 0.66823 0.0
H930 H 0.75468 0.8356 0.69761 0.0
H931 H 0.67424 0.83199 0.70056 0.0
H932 H 0.67274 0.80704 0.671 0.0
H933 H 0.71509 0.66566 0.62913 0.0
H934 H 0.72899 0.70975 0.62666 0.0
H935 H 0.65665 0.73366 0.64629 0.0
H936 H 0.64263 0.68957 0.64894 0.0
H937 H 0.69434 0.76037 0.66338 0.0
H938 H 0.6714 0.73881 0.59978 0.0
H939 H 0.67098 0.71334 0.57052 0.0
H940 H 0.75039 0.7256 0.56415 0.0
H941 H 0.75136 0.75084 0.59353 0.0
C942 C 0.73875 0.87195 0.63649 0.0
C943 C 0.76448 0.87219 0.63209 0.0
C944 C 0.72478 0.84918 0.63614 0.0
C945 C 0.73632 0.82645 0.6312 0.0
C946 C 0.76168 0.82706 0.62594 0.0
C947 C 0.77559 0.84956 0.62648 0.0
C948 C 0.72282 0.80162 0.6323 0.0
C949 C 0.7223 0.78621 0.6161 0.0
C950 C 0.71217 0.79229 0.64946 0.0
C951 C 0.71307 0.80712 0.66729 0.0
C952 C 0.73618 0.81512 0.67506 0.0
C953 C 0.73685 0.82935 0.69175 0.0
C954 C 0.71454 0.83546 0.70091 0.0
C955 C 0.69151 0.82729 0.69342 0.0
C956 C 0.69073 0.81311 0.6767 0.0
C957 C 0.70211 0.68026 0.63295 0.0
C958 C 0.67769 0.674 0.63916 0.0
C959 C 0.71006 0.70551 0.63144 0.0
C960 C 0.69377 0.7251 0.63605 0.0
C961 C 0.66954 0.71892 0.64259 0.0
C962 C 0.66154 0.69366 0.64404 0.0
C963 C 0.70214 0.75198 0.63403 0.0
C964 C 0.70171 0.76773 0.65004 0.0
C965 C 0.71198 0.76163 0.6167 0.0
C966 C 0.71147 0.74657 0.59895 0.0
C967 C 0.68881 0.73593 0.59222 0.0
C968 C 0.68847 0.72155 0.5756 0.0
C969 C 0.71065 0.71782 0.5655 0.0
C970 C 0.73322 0.7285 0.57199 0.0
C971 C 0.73367 0.74287 0.58861 0.0
H972 H 0.71034 0.70668 0.55264 0.0
H973 H 0.71509 0.84647 0.71384 0.0
H974 H 0.85544 0.72697 0.15953 0.0
H975 H 0.81601 0.74916 0.1632 0.0
H976 H 0.77554 0.67809 0.1659 0.0
H977 H 0.8151 0.65556 0.16254 0.0
H978 H 0.76025 0.7155 0.13698 0.0
H979 H 0.77693 0.70627 0.20304 0.0
H980 H 0.80052 0.70891 0.23311 0.0
H981 H 0.80381 0.7896 0.22844 0.0
H982 H 0.78099 0.78747 0.19798 0.0
H983 H 0.64369 0.77331 0.14942 0.0
H984 H 0.67955 0.74611 0.15339 0.0
H985 H 0.72692 0.81102 0.16527 0.0
H986 H 0.69077 0.83851 0.16179 0.0
H987 H 0.73667 0.77314 0.18912 0.0
H988 H 0.72705 0.78267 0.12147 0.0
H989 H 0.7042 0.78159 0.09096 0.0
H990 H 0.68915 0.70234 0.0983 0.0
H991 H 0.71163 0.70302 0.129 0.0
C992 C 0.83816 0.71604 0.16101 0.0
C993 C 0.8382 0.68957 0.16058 0.0
C994 C 0.81577 0.72874 0.16332 0.0
C995 C 0.7931 0.71518 0.16502 0.0
C996 C 0.79302 0.68875 0.16479 0.0
C997 C 0.81552 0.67597 0.16283 0.0
C998 C 0.76941 0.72887 0.16504 0.0
C999 C 0.75476 0.72773 0.14853 0.0
C1000 C 0.76297 0.74535 0.17994 0.0
C1001 C 0.77745 0.74666 0.19802 0.0
C1002 C 0.78304 0.72458 0.20821 0.0
C1003 C 0.79621 0.72599 0.22539 0.0
C1004 C 0.80364 0.7494 0.23269 0.0
C1005 C 0.79796 0.77147 0.2228 0.0
C1006 C 0.78498 0.77016 0.20553 0.0
C1007 C 0.66176 0.78189 0.15273 0.0
C1008 C 0.66453 0.8081 0.15504 0.0
C1009 C 0.68221 0.76628 0.15502 0.0
C1010 C 0.7059 0.77661 0.15935 0.0
C1011 C 0.70873 0.80273 0.1619 0.0
C1012 C 0.68816 0.8184 0.15979 0.0
C1013 C 0.72779 0.76011 0.1609 0.0
C1014 C 0.74208 0.76075 0.17766 0.0
C1015 C 0.73423 0.74343 0.14611 0.0
C1016 C 0.72079 0.74295 0.12762 0.0
C1017 C 0.7187 0.76505 0.11665 0.0
C1018 C 0.70585 0.76451 0.09931 0.0
C1019 C 0.69517 0.74192 0.09272 0.0
C1020 C 0.69739 0.71982 0.10344 0.0
C1021 C 0.7102 0.72027 0.1208 0.0
H1022 H 0.68523 0.74154 0.0793 0.0
H1023 H 0.81385 0.75046 0.24598 0.0
H1024 H 0.25671 0.04191 0.35762 0.0
H1025 H 0.27558 0.04114 0.32575 0.0
H1026 H 0.20986 0.07594 0.30243 0.0
H1027 H 0.191 0.0769 0.33397 0.0
H1028 H 0.26087 0.02048 0.29054 0.0
H1029 H 0.22994 0.12074 0.26988 0.0
H1030 H 0.21908 0.16074 0.28531 0.0
H1031 H 0.26525 0.14216 0.33324 0.0
H1032 H 0.27675 0.10227 0.31795 0.0
H1033 H 0.2818 0.04903 0.19054 0.0
H1034 H 0.26301 0.04215 0.22213 0.0
H1035 H 0.3203 0.09 0.2471 0.0
H1036 H 0.33902 0.09694 0.21595 0.0
H1037 H 0.27413 0.10318 0.25845 0.0
H1038 H 0.32169 0.02722 0.25322 0.0
H1039 H 0.33445 0.98755 0.23821 0.0
H1040 H 0.25909 0.95818 0.24297 0.0
H1041 H 0.2458 0.99783 0.25779 0.0
C1042 C 0.2462 0.04919 0.34568 0.0
C1043 C 0.22243 0.05968 0.34843 0.0
C1044 C 0.25697 0.04865 0.32747 0.0
C1045 C 0.24423 0.05874 0.31175 0.0
C1046 C 0.22016 0.06832 0.31437 0.0
C1047 C 0.20941 0.06884 0.33247 0.0
C1048 C 0.25651 0.06063 0.29278 0.0
C1049 C 0.26376 0.03854 0.2835 0.0
C1050 C 0.26041 0.08422 0.28362 0.0
C1051 C 0.25394 0.10835 0.29286 0.0
C1052 C 0.23784 0.12523 0.28368 0.0
C1053 C 0.23158 0.14789 0.29241 0.0
C1054 C 0.24138 0.15393 0.31029 0.0
C1055 C 0.25758 0.1374 0.31943 0.0
C1056 C 0.26396 0.11475 0.31075 0.0
C1057 C 0.29049 0.05788 0.2028 0.0
C1058 C 0.31188 0.07361 0.20064 0.0
C1059 C 0.27978 0.05389 0.22084 0.0
C1060 C 0.29025 0.06559 0.23699 0.0
C1061 C 0.31181 0.08087 0.23486 0.0
C1062 C 0.32254 0.08476 0.21697 0.0
C1063 C 0.2784 0.06303 0.25609 0.0
C1064 C 0.27115 0.08506 0.26541 0.0
C1065 C 0.27473 0.03944 0.26528 0.0
C1066 C 0.2827 0.01559 0.25643 0.0
C1067 C 0.30779 0.01238 0.25092 0.0
C1068 C 0.31513 0.98989 0.24247 0.0
C1069 C 0.29758 0.97038 0.23959 0.0
C1070 C 0.27266 0.97331 0.24519 0.0
C1071 C 0.26522 0.99579 0.25362 0.0
H1072 H 0.30329 0.95298 0.23305 0.0
H1073 H 0.23647 0.17146 0.31703 0.0
H1074 H 0.39334 0.30199 0.69717 0.0
H1075 H 0.39921 0.28158 0.7279 0.0
H1076 H 0.38519 0.35171 0.75636 0.0
H1077 H 0.37887 0.37249 0.72529 0.0
H1078 H 0.43003 0.32334 0.76919 0.0
H1079 H 0.34163 0.3119 0.75943 0.0
H1080 H 0.30379 0.30064 0.74091 0.0
H1081 H 0.32929 0.22475 0.73536 0.0
H1082 H 0.36753 0.23566 0.75354 0.0
H1083 H 0.4283 0.25643 0.85874 0.0
H1084 H 0.4212 0.28485 0.8318 0.0
H1085 H 0.41085 0.22071 0.79489 0.0
H1086 H 0.41694 0.19236 0.82186 0.0
H1087 H 0.3752 0.25115 0.78861 0.0
H1088 H 0.46477 0.26226 0.79427 0.0
H1089 H 0.50464 0.27245 0.81058 0.0
H1090 H 0.47912 0.34714 0.82207 0.0
H1091 H 0.43896 0.33727 0.80603 0.0
C1092 C 0.39142 0.31318 0.70992 0.0
C1093 C 0.38563 0.33892 0.70876 0.0
C1094 C 0.39475 0.30142 0.7275 0.0
C1095 C 0.39261 0.31509 0.74441 0.0
C1096 C 0.38693 0.34084 0.74344 0.0
C1097 C 0.38318 0.35263 0.72572 0.0
C1098 C 0.39638 0.30197 0.7629 0.0
C1099 C 0.41778 0.30789 0.77374 0.0
C1100 C 0.38075 0.2814 0.76847 0.0
C1101 C 0.35755 0.27466 0.75777 0.0
C1102 C 0.33927 0.29285 0.75415 0.0
C1103 C 0.31773 0.28653 0.74373 0.0
C1104 C 0.31415 0.26201 0.73695 0.0
C1105 C 0.33209 0.24374 0.74062 0.0
C1106 C 0.35369 0.24998 0.751 0.0
C1107 C 0.42501 0.24841 0.8448 0.0
C1108 C 0.42323 0.22211 0.84245 0.0
C1109 C 0.42093 0.26471 0.82936 0.0
C1110 C 0.4155 0.25504 0.81118 0.0
C1111 C 0.41477 0.22875 0.80874 0.0
C1112 C 0.41844 0.21251 0.82417 0.0
C1113 C 0.40933 0.27199 0.79484 0.0
C1114 C 0.38738 0.26678 0.78434 0.0
C1115 C 0.42466 0.29299 0.78947 0.0
C1116 C 0.44875 0.29892 0.79915 0.0
C1117 C 0.46758 0.28078 0.80042 0.0
C1118 C 0.49024 0.28651 0.80958 0.0
C1119 C 0.49437 0.3104 0.81741 0.0
C1120 C 0.47587 0.32863 0.81604 0.0
C1121 C 0.45317 0.32298 0.8069 0.0
H1122 H 0.51193 0.3148 0.82449 0.0
H1123 H 0.29746 0.25715 0.72888 0.0
H1124 H 0.23908 0.44077 0.18313 0.0
H1125 H 0.25818 0.44712 0.21462 0.0
H1126 H 0.18476 0.44515 0.24035 0.0
H1127 H 0.16566 0.4383 0.2091 0.0
H1128 H 0.21982 0.48292 0.25585 0.0
H1129 H 0.21297 0.39397 0.24021 0.0
H1130 H 0.22031 0.35766 0.21928 0.0
H1131 H 0.29988 0.37019 0.22387 0.0
H1132 H 0.29299 0.40693 0.24452 0.0
H1133 H 0.24197 0.45027 0.35228 0.0
H1134 H 0.22713 0.45391 0.31947 0.0
H1135 H 0.30065 0.43494 0.29894 0.0
H1136 H 0.31528 0.43036 0.33166 0.0
H1137 H 0.26812 0.41011 0.27948 0.0
H1138 H 0.2765 0.49677 0.29662 0.0
H1139 H 0.27052 0.53476 0.31606 0.0
H1140 H 0.19084 0.52864 0.30772 0.0
H1141 H 0.19632 0.49041 0.28844 0.0
C1142 C 0.22702 0.44229 0.19546 0.0
C1143 C 0.20091 0.43894 0.19371 0.0
C1144 C 0.23794 0.44582 0.21342 0.0
C1145 C 0.22285 0.44646 0.2298 0.0
C1146 C 0.1967 0.44476 0.22789 0.0
C1147 C 0.18585 0.44076 0.21004 0.0
C1148 C 0.2342 0.44645 0.24907 0.0
C1149 C 0.23029 0.467 0.26112 0.0
C1150 C 0.24828 0.42587 0.25571 0.0
C1151 C 0.25246 0.40337 0.24373 0.0
C1152 C 0.23203 0.3891 0.23664 0.0
C1153 C 0.2361 0.36843 0.22483 0.0
C1154 C 0.26054 0.36166 0.2202 0.0
C1155 C 0.28096 0.37549 0.22744 0.0
C1156 C 0.27698 0.39624 0.23919 0.0
C1157 C 0.25502 0.44706 0.34077 0.0
C1158 C 0.2798 0.44003 0.34461 0.0
C1159 C 0.24655 0.44927 0.32198 0.0
C1160 C 0.26282 0.44502 0.30661 0.0
C1161 C 0.28767 0.43829 0.31047 0.0
C1162 C 0.29604 0.43574 0.32923 0.0
C1163 C 0.25376 0.44666 0.28655 0.0
C1164 C 0.25797 0.42628 0.27429 0.0
C1165 C 0.2402 0.46757 0.27966 0.0
C1166 C 0.23681 0.49059 0.29122 0.0
C1167 C 0.25769 0.50342 0.29905 0.0
C1168 C 0.25439 0.52501 0.31002 0.0
C1169 C 0.23031 0.53407 0.31316 0.0
C1170 C 0.20948 0.52159 0.3053 0.0
C1171 C 0.21267 0.49997 0.29433 0.0
H1172 H 0.2278 0.5508 0.32166 0.0
H1173 H 0.26366 0.34567 0.21105 0.0
H1174 H 0.08791 0.20677 0.69461 0.0
H1175 H 0.08435 0.22656 0.72568 0.0
H1176 H 0.08716 0.1537 0.75291 0.0
H1177 H 0.09125 0.13354 0.72155 0.0
H1178 H 0.04654 0.18778 0.76556 0.0
H1179 H 0.13568 0.18617 0.75808 0.0
H1180 H 0.17609 0.19243 0.74151 0.0
H1181 H 0.16286 0.27182 0.73701 0.0
H1182 H 0.12217 0.26598 0.75329 0.0
H1183 H 0.05667 0.24922 0.85693 0.0
H1184 H 0.05961 0.22131 0.82938 0.0
H1185 H 0.07898 0.28524 0.79377 0.0
H1186 H 0.07688 0.31295 0.82129 0.0
H1187 H 0.11059 0.25004 0.78769 0.0
H1188 H 0.02032 0.25195 0.79196 0.0
H1189 H 0.97918 0.24668 0.80768 0.0
H1190 H 0.99347 0.16827 0.81738 0.0
H1191 H 0.03485 0.17317 0.80193 0.0
C1192 C 0.08783 0.19485 0.70716 0.0
C1193 C 0.08984 0.16853 0.70559 0.0
C1194 C 0.08585 0.20625 0.72494 0.0
C1195 C 0.08554 0.19163 0.7416 0.0
C1196 C 0.08738 0.1653 0.74019 0.0
C1197 C 0.08982 0.15384 0.72231 0.0
C1198 C 0.08308 0.2043 0.76031 0.0
C1199 C 0.06073 0.20104 0.77066 0.0
C1200 C 0.10134 0.222 0.76668 0.0
C1201 C 0.12575 0.22558 0.75676 0.0
C1202 C 0.14126 0.20492 0.75339 0.0
C1203 C 0.16425 0.20841 0.74409 0.0
C1204 C 0.17201 0.2325 0.73817 0.0
C1205 C 0.15681 0.25316 0.74158 0.0
C1206 C 0.13379 0.24978 0.75086 0.0
C1207 C 0.06102 0.25738 0.84314 0.0
C1208 C 0.06655 0.28332 0.84131 0.0
C1209 C 0.06273 0.24138 0.82737 0.0
C1210 C 0.06954 0.25109 0.80939 0.0
C1211 C 0.07391 0.27718 0.80746 0.0
C1212 C 0.07254 0.29307 0.82321 0.0
C1213 C 0.07364 0.2342 0.79278 0.0
C1214 C 0.09641 0.23663 0.7828 0.0
C1215 C 0.05563 0.21594 0.78669 0.0
C1216 C 0.03079 0.213 0.79599 0.0
C1217 C 0.01478 0.23364 0.79759 0.0
C1218 C 0.9914 0.23071 0.80642 0.0
C1219 C 0.98375 0.20717 0.81358 0.0
C1220 C 0.99944 0.1865 0.81187 0.0
C1221 C 0.02284 0.18934 0.80306 0.0
H1222 H 0.96564 0.20494 0.8204 0.0
H1223 H 0.18982 0.23516 0.73098 0.0
H1224 H 0.6898 0.92078 0.82045 0.0
H1225 H 0.7173 0.91669 0.79306 0.0
H1226 H 0.7803 0.94284 0.82652 0.0
H1227 H 0.75266 0.94708 0.85429 0.0
H1228 H 0.78141 0.96184 0.7893 0.0
H1229 H 0.77549 0.88235 0.81949 0.0
H1230 H 0.75489 0.84596 0.83535 0.0
H1231 H 0.71357 0.82933 0.78436 0.0
H1232 H 0.7337 0.86584 0.76823 0.0
H1233 H 0.85526 0.91806 0.70968 0.0
H1234 H 0.84138 0.9199 0.74316 0.0
H1235 H 0.76522 0.90424 0.72547 0.0
H1236 H 0.7788 0.90298 0.69234 0.0
H1237 H 0.77976 0.8775 0.75895 0.0
H1238 H 0.78265 0.96272 0.73165 0.0
H1239 H 0.8048 0.99897 0.71675 0.0
H1240 H 0.8553 0.00334 0.76428 0.0
H1241 H 0.83362 0.96686 0.77933 0.0
C1242 C 0.70942 0.92606 0.82201 0.0
C1243 C 0.71902 0.93408 0.83966 0.0
C1244 C 0.72517 0.92356 0.80631 0.0
C1245 C 0.75098 0.9289 0.80783 0.0
C1246 C 0.76047 0.93842 0.82507 0.0
C1247 C 0.74463 0.94092 0.8409 0.0
C1248 C 0.76775 0.92346 0.79148 0.0
C1249 C 0.78153 0.94326 0.78291 0.0
C1250 C 0.76806 0.89918 0.78317 0.0
C1251 C 0.75601 0.87697 0.79268 0.0
C1252 C 0.76189 0.87104 0.81168 0.0
C1253 C 0.7503 0.85038 0.82073 0.0
C1254 C 0.73288 0.83538 0.81089 0.0
C1255 C 0.72707 0.84098 0.79196 0.0
C1256 C 0.7386 0.86163 0.78285 0.0
C1257 C 0.83568 0.91455 0.71307 0.0
C1258 C 0.81807 0.91046 0.69848 0.0
C1259 C 0.82775 0.91572 0.73213 0.0
C1260 C 0.80222 0.91232 0.73679 0.0
C1261 C 0.78497 0.90688 0.72225 0.0
C1262 C 0.79275 0.90625 0.70331 0.0
C1263 C 0.79269 0.91606 0.75645 0.0
C1264 C 0.78017 0.8959 0.76562 0.0
C1265 C 0.79391 0.93987 0.76546 0.0
C1266 C 0.80674 0.9619 0.75649 0.0
C1267 C 0.79861 0.97129 0.73884 0.0
C1268 C 0.81105 0.99189 0.73038 0.0
C1269 C 0.8315 0.0034 0.73953 0.0
C1270 C 0.83949 0.99437 0.75719 0.0
C1271 C 0.82714 0.97374 0.76569 0.0
H1272 H 0.84111 0.01935 0.73297 0.0
H1273 H 0.72392 0.8194 0.81794 0.0
H1274 H 0.57981 0.69867 0.33361 0.0
H1275 H 0.57376 0.71778 0.30256 0.0
H1276 H 0.61867 0.66045 0.2768 0.0
H1277 H 0.62514 0.64104 0.30827 0.0
H1278 H 0.63059 0.70689 0.26258 0.0
H1279 H 0.55581 0.65847 0.27086 0.0
H1280 H 0.51842 0.64169 0.28763 0.0
H1281 H 0.48878 0.71622 0.29103 0.0
H1282 H 0.52617 0.73352 0.27453 0.0
H1283 H 0.55384 0.7583 0.17646 0.0
H1284 H 0.55731 0.72761 0.20258 0.0
H1285 H 0.60151 0.78137 0.23469 0.0
H1286 H 0.59812 0.81196 0.20894 0.0
H1287 H 0.54473 0.72762 0.24087 0.0
H1288 H 0.65044 0.75114 0.25472 0.0
H1289 H 0.68746 0.76551 0.23629 0.0
H1290 H 0.65487 0.73486 0.18534 0.0
H1291 H 0.61787 0.72 0.20348 0.0
C1292 C 0.58844 0.68994 0.32141 0.0
C1293 C 0.60291 0.66816 0.32351 0.0
C1294 C 0.58482 0.7009 0.30358 0.0
C1295 C 0.59538 0.69037 0.28724 0.0
C1296 C 0.61019 0.66883 0.28919 0.0
C1297 C 0.61384 0.65774 0.30717 0.0
C1298 C 0.59107 0.70247 0.26836 0.0
C1299 C 0.61182 0.71123 0.25776 0.0
C1300 C 0.56656 0.70763 0.26173 0.0
C1301 C 0.54388 0.69731 0.27153 0.0
C1302 C 0.54139 0.67131 0.27528 0.0
C1303 C 0.52019 0.6617 0.28473 0.0
C1304 C 0.50125 0.67788 0.29041 0.0
C1305 C 0.50346 0.7037 0.28662 0.0
C1306 C 0.52464 0.71342 0.27719 0.0
C1307 C 0.56392 0.76372 0.18922 0.0
C1308 C 0.5758 0.78759 0.19052 0.0
C1309 C 0.56596 0.74613 0.2041 0.0
C1310 C 0.58011 0.75202 0.22042 0.0
C1311 C 0.59091 0.77622 0.22209 0.0
C1312 C 0.58879 0.79378 0.20735 0.0
C1313 C 0.58424 0.73297 0.23566 0.0
C1314 C 0.56348 0.72295 0.24555 0.0
C1315 C 0.60872 0.72622 0.24139 0.0
C1316 C 0.63126 0.73462 0.23047 0.0
C1317 C 0.65123 0.74733 0.23961 0.0
C1318 C 0.67221 0.7556 0.2292 0.0
C1319 C 0.67349 0.75119 0.20964 0.0
C1320 C 0.65384 0.73839 0.20047 0.0
C1321 C 0.63285 0.73005 0.21081 0.0
H1322 H 0.68971 0.75765 0.20161 0.0
H1323 H 0.48485 0.6704 0.29773 0.0
H1324 H 0.82785 0.59974 0.8193 0.0
H1325 H 0.80611 0.59757 0.78902 0.0
H1326 H 0.75043 0.54705 0.81353 0.0
H1327 H 0.77186 0.54984 0.84441 0.0
H1328 H 0.79634 0.56378 0.76467 0.0
H1329 H 0.69377 0.55642 0.79157 0.0
H1330 H 0.66882 0.56858 0.81953 0.0
H1331 H 0.72142 0.62876 0.83145 0.0
H1332 H 0.74647 0.61717 0.80344 0.0
H1333 H 0.72267 0.54727 0.68229 0.0
H1334 H 0.74076 0.54196 0.71397 0.0
H1335 H 0.70854 0.61222 0.73149 0.0
H1336 H 0.68895 0.61656 0.70017 0.0
H1337 H 0.70601 0.58349 0.7597 0.0
H1338 H 0.77382 0.60455 0.71739 0.0
H1339 H 0.80096 0.60027 0.68921 0.0
H1340 H 0.82166 0.52628 0.70775 0.0
H1341 H 0.79441 0.53001 0.73593 0.0
C1342 C 0.81106 0.58799 0.81835 0.0
C1343 C 0.80158 0.57503 0.8344 0.0
C1344 C 0.79864 0.58672 0.8009 0.0
C1345 C 0.77643 0.57236 0.79891 0.0
C1346 C 0.7673 0.55863 0.81473 0.0
C1347 C 0.77966 0.56009 0.83236 0.0
C1348 C 0.76289 0.57247 0.78031 0.0
C1349 C 0.77654 0.56795 0.76363 0.0
C1350 C 0.73718 0.57847 0.77877 0.0
C1351 C 0.72214 0.58569 0.79556 0.0
C1352 C 0.69997 0.57227 0.80014 0.0
C1353 C 0.68581 0.57907 0.81599 0.0
C1354 C 0.69359 0.59936 0.8273 0.0
C1355 C 0.71548 0.61297 0.82273 0.0
C1356 C 0.72967 0.60628 0.80689 0.0
C1357 C 0.71939 0.56152 0.69295 0.0
C1358 C 0.70459 0.58245 0.68872 0.0
C1359 C 0.72987 0.55856 0.71106 0.0
C1360 C 0.72664 0.57699 0.72514 0.0
C1361 C 0.71142 0.59769 0.72098 0.0
C1362 C 0.7003 0.60026 0.70303 0.0
C1363 C 0.73954 0.57505 0.74399 0.0
C1364 C 0.72576 0.57911 0.76073 0.0
C1365 C 0.76545 0.56974 0.74556 0.0
C1366 C 0.78188 0.56746 0.72865 0.0
C1367 C 0.78404 0.58731 0.71539 0.0
C1368 C 0.79946 0.58499 0.69943 0.0
C1369 C 0.81297 0.56299 0.69667 0.0
C1370 C 0.81115 0.54329 0.70989 0.0
C1371 C 0.79574 0.5455 0.72586 0.0
H1372 H 0.82489 0.56123 0.6843 0.0
H1373 H 0.68261 0.60458 0.83957 0.0
H1374 H 0.90613 0.78765 0.3378 0.0
H1375 H 0.91313 0.76978 0.30656 0.0
H1376 H 0.90313 0.84278 0.2807 0.0
H1377 H 0.89555 0.86098 0.31237 0.0
H1378 H 0.88182 0.80483 0.25903 0.0
H1379 H 0.96152 0.82173 0.28637 0.0
H1380 H 0.9941 0.82243 0.31127 0.0
H1381 H 0.9939 0.74149 0.31229 0.0
H1382 H 0.96105 0.74029 0.28758 0.0
H1383 H 0.93477 0.75228 0.17409 0.0
H1384 H 0.9327 0.78001 0.20188 0.0
H1385 H 0.92659 0.715 0.23873 0.0
H1386 H 0.92814 0.68723 0.21107 0.0
H1387 H 0.9596 0.75559 0.2523 0.0
H1388 H 0.87602 0.74091 0.226 0.0
H1389 H 0.84605 0.74196 0.19934 0.0
H1390 H 0.85601 0.82229 0.19498 0.0
H1391 H 0.88664 0.82161 0.22131 0.0
C1392 C 0.90526 0.80001 0.32552 0.0
C1393 C 0.90061 0.82587 0.32764 0.0
C1394 C 0.90934 0.78972 0.30761 0.0
C1395 C 0.90931 0.80501 0.29128 0.0
C1396 C 0.90347 0.83065 0.29313 0.0
C1397 C 0.89913 0.84102 0.3112 0.0
C1398 C 0.91623 0.79388 0.2726 0.0
C1399 C 0.89907 0.79452 0.25744 0.0
C1400 C 0.93875 0.78037 0.27042 0.0
C1401 C 0.95869 0.78093 0.28518 0.0
C1402 C 0.96831 0.80407 0.29199 0.0
C1403 C 0.98684 0.80456 0.30606 0.0
C1404 C 0.99604 0.78202 0.31338 0.0
C1405 C 0.98676 0.75894 0.3066 0.0
C1406 C 0.9682 0.75834 0.29254 0.0
C1407 C 0.93356 0.74389 0.18815 0.0
C1408 C 0.9316 0.71754 0.19039 0.0
C1409 C 0.93223 0.75977 0.20399 0.0
C1410 C 0.9293 0.74956 0.22235 0.0
C1411 C 0.92885 0.72327 0.2247 0.0
C1412 C 0.92972 0.70742 0.20887 0.0
C1413 C 0.92494 0.76601 0.23904 0.0
C1414 C 0.94259 0.76629 0.25382 0.0
C1415 C 0.90311 0.78067 0.24071 0.0
C1416 C 0.88392 0.78116 0.22543 0.0
C1417 C 0.87204 0.75877 0.21923 0.0
C1418 C 0.855 0.75928 0.20412 0.0
C1419 C 0.84931 0.78215 0.19534 0.0
C1420 C 0.86055 0.80457 0.20173 0.0
C1421 C 0.87778 0.80413 0.21672 0.0
H1422 H 0.83603 0.78255 0.18371 0.0
H1423 H 0.01038 0.78243 0.32428 0.0
H1424 H 0.4411 0.0833 0.17268 0.0
H1425 H 0.47284 0.05064 0.17509 0.0
H1426 H 0.41981 0.99573 0.153 0.0
H1427 H 0.38802 0.02798 0.15079 0.0
H1428 H 0.44455 0.97719 0.18296 0.0
H1429 H 0.46546 0.02137 0.12489 0.0
H1430 H 0.47631 0.05858 0.10518 0.0
H1431 H 0.54233 0.07218 0.1389 0.0
H1432 H 0.53168 0.03521 0.15897 0.0
H1433 H 0.52266 0.87969 0.15082 0.0
H1434 H 0.49318 0.91414 0.15373 0.0
H1435 H 0.5518 0.96186 0.17711 0.0
H1436 H 0.58152 0.92758 0.1741 0.0
H1437 H 0.526 0.98549 0.14915 0.0
H1438 H 0.50626 0.9385 0.20566 0.0
H1439 H 0.49518 0.90058 0.2245 0.0
H1440 H 0.42662 0.89157 0.19297 0.0
H1441 H 0.43745 0.92925 0.17375 0.0
C1442 C 0.43622 0.06427 0.16834 0.0
C1443 C 0.41206 0.05827 0.16149 0.0
C1444 C 0.45438 0.04566 0.16968 0.0
C1445 C 0.4487 0.02081 0.1641 0.0
C1446 C 0.42456 0.01477 0.15743 0.0
C1447 C 0.40644 0.03329 0.1561 0.0
C1448 C 0.46783 1.00096 0.16505 0.0
C1449 C 0.46229 0.9789 0.17545 0.0
C1450 C 0.49119 0.0035 0.15562 0.0
C1451 C 0.49762 0.02572 0.14357 0.0
C1452 C 0.48218 0.03243 0.1282 0.0
C1453 C 0.48831 0.05345 0.11694 0.0
C1454 C 0.50995 0.06779 0.12082 0.0
C1455 C 0.52554 0.06109 0.13593 0.0
C1456 C 0.51948 0.0401 0.14725 0.0
C1457 C 0.52927 0.89744 0.15671 0.0
C1458 C 0.55444 0.90089 0.16223 0.0
C1459 C 0.51236 0.91708 0.15843 0.0
C1460 C 0.52028 0.94047 0.16578 0.0
C1461 C 0.54533 0.94393 0.17143 0.0
C1462 C 0.56225 0.92428 0.16975 0.0
C1463 C 0.50258 0.96159 0.16686 0.0
C1464 C 0.50839 0.98388 0.15684 0.0
C1465 C 0.47941 0.95921 0.17656 0.0
C1466 C 0.47278 0.93659 0.18816 0.0
C1467 C 0.48891 0.92833 0.20264 0.0
C1468 C 0.48266 0.9069 0.21341 0.0
C1469 C 0.46024 0.89365 0.20991 0.0
C1470 C 0.44399 0.90184 0.19566 0.0
C1471 C 0.45016 0.92325 0.18484 0.0
H1472 H 0.45544 0.87706 0.21826 0.0
H1473 H 0.51467 0.08405 0.11209 0.0
H1474 H 0.63962 0.51487 0.6433 0.0
H1475 H 0.61183 0.47775 0.64635 0.0
H1476 H 0.54921 0.52605 0.65687 0.0
H1477 H 0.57684 0.56309 0.65421 0.0
H1478 H 0.54835 0.48601 0.68061 0.0
H1479 H 0.56338 0.50015 0.61296 0.0
H1480 H 0.59126 0.50376 0.58518 0.0
H1481 H 0.61433 0.42736 0.59341 0.0
H1482 H 0.5874 0.42369 0.62187 0.0
H1483 H 0.43763 0.42372 0.65772 0.0
H1484 H 0.4748 0.45063 0.65907 0.0
H1485 H 0.52096 0.38759 0.6447 0.0
H1486 H 0.48318 0.36025 0.64278 0.0
H1487 H 0.53646 0.42835 0.62583 0.0
H1488 H 0.52017 0.41113 0.69059 0.0
H1489 H 0.49531 0.40592 0.71996 0.0
H1490 H 0.47719 0.48442 0.7185 0.0
H1491 H 0.50163 0.49005 0.68896 0.0
C1492 C 0.61994 0.51759 0.64633 0.0
C1493 C 0.61046 0.54202 0.6484 0.0
C1494 C 0.60407 0.49632 0.64804 0.0
C1495 C 0.57833 0.49906 0.65164 0.0
C1496 C 0.56897 0.5234 0.65409 0.0
C1497 C 0.58481 0.54462 0.65249 0.0
C1498 C 0.56074 0.47687 0.65239 0.0
C1499 C 0.54566 0.47349 0.66859 0.0
C1500 C 0.55801 0.4597 0.63709 0.0
C1501 C 0.57361 0.46176 0.61968 0.0
C1502 C 0.57454 0.48418 0.60894 0.0
C1503 C 0.59018 0.48623 0.59305 0.0
C1504 C 0.6045 0.46575 0.58745 0.0
C1505 C 0.60325 0.44321 0.59778 0.0
C1506 C 0.58789 0.44118 0.61384 0.0
C1507 C 0.45563 0.41536 0.65491 0.0
C1508 C 0.45738 0.38967 0.65031 0.0
C1509 C 0.47698 0.43086 0.65581 0.0
C1510 C 0.50084 0.4211 0.65247 0.0
C1511 C 0.50277 0.39553 0.64752 0.0
C1512 C 0.48119 0.37991 0.64644 0.0
C1513 C 0.52334 0.43817 0.65376 0.0
C1514 C 0.53938 0.44057 0.63799 0.0
C1515 C 0.5273 0.45418 0.66962 0.0
C1516 C 0.51266 0.45098 0.68748 0.0
C1517 C 0.51076 0.42726 0.69646 0.0
C1518 C 0.49675 0.42423 0.71315 0.0
C1519 C 0.48465 0.44482 0.72108 0.0
C1520 C 0.48658 0.46849 0.71234 0.0
C1521 C 0.50054 0.47162 0.69564 0.0
H1522 H 0.47381 0.44243 0.734 0.0
H1523 H 0.61658 0.46732 0.57512 0.0
H1524 H 0.07058 0.42819 0.1659 0.0
H1525 H 0.04003 0.46203 0.16622 0.0
H1526 H 0.09567 0.51374 0.14312 0.0
H1527 H 0.12633 0.48021 0.1429 0.0
H1528 H 0.07071 0.53464 0.17215 0.0
H1529 H 0.05026 0.49087 0.11493 0.0
H1530 H 0.03981 0.45412 0.09495 0.0
H1531 H 0.97267 0.44032 0.1274 0.0
H1532 H 0.9829 0.47687 0.14777 0.0
H1533 H 0.98551 0.6313 0.14519 0.0
H1534 H 0.01727 0.59855 0.14488 0.0
H1535 H 0.96439 0.54591 0.17035 0.0
H1536 H 0.93258 0.57836 0.17067 0.0
H1537 H 0.98852 0.52611 0.13943 0.0
H1538 H 0.01036 0.57125 0.19674 0.0
H1539 H 0.02165 0.60897 0.21549 0.0
H1540 H 0.08727 0.62127 0.18102 0.0
H1541 H 0.07618 0.5838 0.16188 0.0
C1542 C 0.0763 0.44674 0.16086 0.0
C1543 C 0.10087 0.45148 0.15434 0.0
C1544 C 0.05881 0.46604 0.161 0.0
C1545 C 0.06557 0.49033 0.15456 0.0
C1546 C 0.0901 0.49513 0.14816 0.0
C1547 C 0.10756 0.47588 0.14798 0.0
C1548 C 0.04712 0.51084 0.15463 0.0
C1549 C 0.05286 0.53292 0.1648 0.0
C1550 C 0.02376 0.50843 0.14522 0.0
C1551 C 0.01749 0.48645 0.133 0.0
C1552 C 0.03338 0.47988 0.11792 0.0
C1553 C 0.02747 0.4591 0.1065 0.0
C1554 C 0.00563 0.44483 0.10994 0.0
C1555 C 0.98961 0.45137 0.12477 0.0
C1556 C 0.99544 0.47213 0.13625 0.0
C1557 C 0.9807 0.6128 0.15084 0.0
C1558 C 0.95653 0.60744 0.15797 0.0
C1559 C 0.99887 0.59415 0.15068 0.0
C1560 C 0.99316 0.56987 0.15766 0.0
C1561 C 0.96913 0.56453 0.16487 0.0
C1562 C 0.95102 0.58315 0.16512 0.0
C1563 C 0.01201 0.54978 0.1571 0.0
C1564 C 0.00637 0.5278 0.14679 0.0
C1565 C 0.03556 0.55241 0.16622 0.0
C1566 C 0.0423 0.57487 0.17776 0.0
C1567 C 0.02708 0.58212 0.19305 0.0
C1568 C 0.03347 0.60343 0.20377 0.0
C1569 C 0.05512 0.61755 0.19941 0.0
C1570 C 0.07048 0.61034 0.18436 0.0
C1571 C 0.06417 0.58906 0.17358 0.0
H1572 H 0.06003 0.63404 0.20773 0.0
H1573 H 0.00109 0.42875 0.10107 0.0
H1574 H 0.82497 0.01915 0.62576 0.0
H1575 H 0.85336 0.05641 0.62647 0.0
H1576 H 0.90475 0.01564 0.66205 0.0
H1577 H 0.87681 0.97898 0.66148 0.0
H1578 H 0.90052 0.06273 0.67452 0.0
H1579 H 0.91462 0.02213 0.61302 0.0
H1580 H 0.90289 0.00729 0.58102 0.0
H1581 H 0.87813 0.08144 0.56622 0.0
H1582 H 0.88991 0.09672 0.59819 0.0
H1583 H 0.02508 0.09983 0.66252 0.0
H1584 H 0.98382 0.07958 0.66257 0.0
H1585 H 0.95513 0.13948 0.62758 0.0
H1586 H 0.99691 0.16003 0.62732 0.0
H1587 H 0.94002 0.09322 0.61461 0.0
H1588 H 0.93736 0.13531 0.67377 0.0
H1589 H 0.95273 0.14986 0.705 0.0
H1590 H 0.95634 0.07323 0.72455 0.0
H1591 H 0.94136 0.05816 0.69335 0.0
C1592 C 0.84216 0.01836 0.63393 0.0
C1593 C 0.84865 0.99604 0.64348 0.0
C1594 C 0.85846 0.03958 0.63423 0.0
C1595 C 0.88137 0.03882 0.64421 0.0
C1596 C 0.88726 0.01682 0.65427 0.0
C1597 C 0.87123 0.99576 0.65385 0.0
C1598 C 0.90001 0.06022 0.64397 0.0
C1599 C 0.9091 0.06945 0.66141 0.0
C1600 C 0.9107 0.06979 0.6269 0.0
C1601 C 0.90279 0.06044 0.60801 0.0
C1602 C 0.90642 0.03517 0.60299 0.0
C1603 C 0.89984 0.02672 0.58484 0.0
C1604 C 0.88961 0.04338 0.5716 0.0
C1605 C 0.88598 0.06854 0.5765 0.0
C1606 C 0.89265 0.07712 0.59461 0.0
C1607 C 0.01006 0.10891 0.65488 0.0
C1608 C 0.01441 0.13165 0.64493 0.0
C1609 C 0.98633 0.09732 0.65504 0.0
C1610 C 0.96617 0.10815 0.64534 0.0
C1611 C 0.97034 0.13084 0.63529 0.0
C1612 C 0.99421 0.14259 0.63519 0.0
C1613 C 0.94126 0.09481 0.6452 0.0
C1614 C 0.93099 0.08714 0.62772 0.0
C1615 C 0.92947 0.08666 0.66227 0.0
C1616 C 0.9383 0.0956 0.68116 0.0
C1617 C 0.94157 0.12154 0.68468 0.0
C1618 C 0.9502 0.12988 0.70239 0.0
C1619 C 0.95553 0.11248 0.71674 0.0
C1620 C 0.95219 0.08669 0.71342 0.0
C1621 C 0.94358 0.07823 0.69574 0.0
H1622 H 0.96222 0.11898 0.73044 0.0
H1623 H 0.88463 0.03689 0.5575 0.0
H1624 H 0.50821 0.6473 0.39766 0.0
H1625 H 0.47037 0.62009 0.39835 0.0
H1626 H 0.50975 0.56288 0.36755 0.0
H1627 H 0.54698 0.58985 0.3664 0.0
H1628 H 0.46439 0.56586 0.35416 0.0
H1629 H 0.50137 0.56106 0.4169 0.0
H1630 H 0.51675 0.57826 0.44738 0.0
H1631 H 0.44363 0.60688 0.45931 0.0
H1632 H 0.42791 0.59012 0.42876 0.0
H1633 H 0.40323 0.45036 0.37701 0.0
H1634 H 0.43318 0.48577 0.37503 0.0
H1635 H 0.37873 0.53473 0.40002 0.0
H1636 H 0.34855 0.4994 0.40199 0.0
H1637 H 0.42664 0.5405 0.41601 0.0
H1638 H 0.3891 0.53968 0.35413 0.0
H1639 H 0.37482 0.52057 0.32402 0.0
H1640 H 0.4505 0.50069 0.31073 0.0
H1641 H 0.46519 0.51935 0.34091 0.0
C1642 C 0.50866 0.62903 0.39088 0.0
C1643 C 0.53071 0.62076 0.38206 0.0
C1644 C 0.48708 0.61342 0.39137 0.0
C1645 C 0.48725 0.58925 0.38318 0.0
C1646 C 0.50904 0.5814 0.37395 0.0
C1647 C 0.53043 0.5969 0.37338 0.0
C1648 C 0.46526 0.57155 0.38449 0.0
C1649 C 0.45624 0.56027 0.36771 0.0
C1650 C 0.45414 0.56458 0.4021 0.0
C1651 C 0.46355 0.57462 0.42045 0.0
C1652 C 0.48863 0.5712 0.42596 0.0
C1653 C 0.4974 0.58083 0.44326 0.0
C1654 C 0.4812 0.59373 0.45525 0.0
C1655 C 0.45617 0.59694 0.44999 0.0
C1656 C 0.44732 0.58738 0.43269 0.0
C1657 C 0.39758 0.46864 0.38209 0.0
C1658 C 0.37343 0.47204 0.3896 0.0
C1659 C 0.4147 0.4889 0.38089 0.0
C1660 C 0.40811 0.51295 0.38723 0.0
C1661 C 0.38418 0.51635 0.395 0.0
C1662 C 0.36694 0.49614 0.39605 0.0
C1663 C 0.42635 0.53444 0.38574 0.0
C1664 C 0.43458 0.5464 0.40245 0.0
C1665 C 0.43696 0.54186 0.3681 0.0
C1666 C 0.42821 0.53076 0.34987 0.0
C1667 C 0.40267 0.53107 0.34486 0.0
C1668 C 0.39451 0.52034 0.32776 0.0
C1669 C 0.41173 0.50938 0.31548 0.0
C1670 C 0.43717 0.50917 0.32026 0.0
C1671 C 0.44543 0.51985 0.33735 0.0
H1672 H 0.40537 0.50109 0.30225 0.0
H1673 H 0.48801 0.60116 0.46864 0.0
H1674 H 0.01484 0.37295 0.88316 0.0
H1675 H 0.98497 0.40726 0.88122 0.0
H1676 H 0.04293 0.45672 0.85865 0.0
H1677 H 0.073 0.42257 0.86067 0.0
H1678 H 0.01684 0.47906 0.88689 0.0
H1679 H 0.99744 0.43363 0.82982 0.0
H1680 H 0.98656 0.39618 0.81065 0.0
H1681 H 0.91813 0.38585 0.84219 0.0
H1682 H 0.92877 0.42305 0.86173 0.0
H1683 H 0.9336 0.57795 0.86252 0.0
H1684 H 0.96482 0.54476 0.86067 0.0
H1685 H 0.91019 0.49045 0.88167 0.0
H1686 H 0.87889 0.52327 0.88332 0.0
H1687 H 0.93575 0.47148 0.85255 0.0
H1688 H 0.95573 0.51484 0.91065 0.0
H1689 H 0.96637 0.55165 0.93059 0.0
H1690 H 0.03335 0.56522 0.8979 0.0
H1691 H 0.02292 0.52867 0.8776 0.0
C1692 C 0.02122 0.39107 0.87767 0.0
C1693 C 0.04632 0.39498 0.87205 0.0
C1694 C 0.00409 0.41065 0.87651 0.0
C1695 C 0.01167 0.4345 0.86965 0.0
C1696 C 0.03667 0.43846 0.86397 0.0
C1697 C 0.05381 0.41887 0.86507 0.0
C1698 C 0.99367 0.4555 0.86891 0.0
C1699 C 0.99929 0.47758 0.87911 0.0
C1700 C 0.97053 0.45333 0.85913 0.0
C1701 C 0.96402 0.43101 0.84735 0.0
C1702 C 0.98016 0.42326 0.83277 0.0
C1703 C 0.97402 0.4021 0.82182 0.0
C1704 C 0.9517 0.38861 0.82523 0.0
C1705 C 0.93543 0.3963 0.83957 0.0
C1706 C 0.9415 0.41744 0.85058 0.0
C1707 C 0.92823 0.55893 0.86672 0.0
C1708 C 0.90375 0.55331 0.87312 0.0
C1709 C 0.94612 0.54 0.86572 0.0
C1710 C 0.9399 0.51515 0.87119 0.0
C1711 C 0.91541 0.50946 0.87736 0.0
C1712 C 0.89755 0.52832 0.87835 0.0
C1713 C 0.95884 0.49498 0.87064 0.0
C1714 C 0.95338 0.47304 0.86021 0.0
C1715 C 0.98208 0.49722 0.88029 0.0
C1716 C 0.98839 0.5192 0.89247 0.0
C1717 C 0.97261 0.5258 0.90761 0.0
C1718 C 0.97863 0.54659 0.919 0.0
C1719 C 0.00048 0.56081 0.91548 0.0
C1720 C 0.0164 0.55422 0.90059 0.0
C1721 C 0.01046 0.53346 0.88915 0.0
H1722 H 0.00511 0.57689 0.92431 0.0
H1723 H 0.94698 0.37222 0.81674 0.0
H1724 H 0.96307 0.89379 0.36556 0.0
H1725 H 0.00057 0.92013 0.36566 0.0
H1726 H 0.03743 0.86675 0.40219 0.0
H1727 H 0.999 0.84015 0.40263 0.0
H1728 H 0.04454 0.91375 0.41495 0.0
H1729 H 0.05565 0.87477 0.35531 0.0
H1730 H 0.04357 0.85847 0.32376 0.0
H1731 H 0.02705 0.93345 0.30494 0.0
H1732 H 0.0386 0.95019 0.33647 0.0
H1733 H 0.15281 0.99556 0.40389 0.0
H1734 H 0.12558 0.95799 0.40227 0.0
H1735 H 0.07011 1.00043 0.37186 0.0
H1736 H 0.09717 0.0382 0.3735 0.0
H1737 H 0.07914 0.95265 0.35597 0.0
H1738 H 0.06221 0.98932 0.41773 0.0
H1739 H 0.07425 0.005 0.44949 0.0
H1740 H 0.10337 0.93247 0.46397 0.0
H1741 H 0.0918 0.91647 0.43217 0.0
C1742 C 0.97915 0.88734 0.37352 0.0
C1743 C 0.97794 0.8648 0.38415 0.0
C1744 C 0.00076 0.90244 0.37342 0.0
C1745 C 0.02206 0.89534 0.38368 0.0
C1746 C 0.02126 0.87256 0.39405 0.0
C1747 C 0.99938 0.8573 0.39421 0.0
C1748 C 0.04421 0.91287 0.3843 0.0
C1749 C 0.05257 0.92175 0.40204 0.0
C1750 C 0.05454 0.92363 0.36747 0.0
C1751 C 0.04792 0.91373 0.34833 0.0
C1752 C 0.04932 0.88779 0.34448 0.0
C1753 C 0.04256 0.87846 0.32659 0.0
C1754 C 0.03453 0.89491 0.31236 0.0
C1755 C 0.03329 0.92073 0.31597 0.0
C1756 C 0.03998 0.93016 0.33385 0.0
C1757 C 0.13485 0.99693 0.3968 0.0
C1758 C 0.12714 0.01995 0.38886 0.0
C1759 C 0.11929 0.97542 0.39593 0.0
C1760 C 0.09578 0.97643 0.38702 0.0
C1761 C 0.08821 0.99924 0.37879 0.0
C1762 C 0.10365 0.02083 0.37981 0.0
C1763 C 0.07878 0.95392 0.38655 0.0
C1764 C 0.07146 0.94418 0.36883 0.0
C1765 C 0.06962 0.94221 0.40337 0.0
C1766 C 0.07642 0.95179 0.42251 0.0
C1767 C 0.07137 0.97678 0.42763 0.0
C1768 C 0.07808 0.98572 0.44565 0.0
C1769 C 0.08965 0.96977 0.45872 0.0
C1770 C 0.09446 0.94482 0.45382 0.0
C1771 C 0.08782 0.93581 0.43581 0.0
H1772 H 0.09482 0.97672 0.47265 0.0
H1773 H 0.02929 0.88765 0.29852 0.0
H1774 H 0.58183 0.94 0.85956 0.0
H1775 H 0.55126 0.97367 0.85834 0.0
H1776 H 0.60514 0.02496 0.88383 0.0
H1777 H 0.63574 0.99124 0.88538 0.0
H1778 H 0.56044 0.02909 0.90037 0.0
H1779 H 0.59075 0.02883 0.83642 0.0
H1780 H 0.60175 0.01031 0.80549 0.0
H1781 H 0.52495 0.9872 0.79697 0.0
H1782 H 0.51355 0.00527 0.82799 0.0
H1783 H 0.48788 0.13813 0.88437 0.0
H1784 H 0.52185 0.10788 0.88297 0.0
H1785 H 0.47123 0.05265 0.85835 0.0
H1786 H 0.43727 0.0829 0.8594 0.0
H1787 H 0.51603 0.05226 0.84096 0.0
H1788 H 0.48644 0.05144 0.90587 0.0
H1789 H 0.47593 0.0705 0.93673 0.0
H1790 H 0.55224 0.09636 0.94327 0.0
H1791 H 0.56313 0.07776 0.91231 0.0
C1792 C 0.58726 0.95846 0.86482 0.0
C1793 C 0.61128 0.96291 0.87253 0.0
C1794 C 0.56977 0.97775 0.86404 0.0
C1795 C 0.57597 1.00196 0.8708 0.0
C1796 C 0.59993 0.00646 0.87851 0.0
C1797 C 0.61743 0.98716 0.87932 0.0
C1798 C 0.55722 0.02236 0.87026 0.0
C1799 C 0.55103 0.03444 0.88732 0.0
C1800 C 0.54457 0.02905 0.8533 0.0
C1801 C 0.55134 0.01821 0.83461 0.0
C1802 C 0.57624 0.01962 0.82802 0.0
C1803 C 0.58254 0.00924 0.81046 0.0
C1804 C 0.56407 0.99753 0.79929 0.0
C1805 C 0.53925 0.99625 0.80564 0.0
C1806 C 0.53285 0.00658 0.82321 0.0
C1807 C 0.48399 0.11961 0.87853 0.0
C1808 C 0.45979 0.11291 0.87209 0.0
C1809 C 0.50343 0.10229 0.87782 0.0
C1810 C 0.49901 0.07785 0.87082 0.0
C1811 C 0.47507 0.07137 0.86386 0.0
C1812 C 0.45565 0.08869 0.86451 0.0
C1813 C 0.51913 0.05882 0.87108 0.0
C1814 C 0.52555 0.047 0.85398 0.0
C1815 C 0.53205 0.05242 0.88799 0.0
C1816 C 0.52554 0.06343 0.90668 0.0
C1817 C 0.50093 0.06135 0.91382 0.0
C1818 C 0.49491 0.07204 0.93134 0.0
C1819 C 0.51339 0.08469 0.94193 0.0
C1820 C 0.53794 0.08659 0.93504 0.0
C1821 C 0.54405 0.07597 0.91752 0.0
H1822 H 0.50872 0.09297 0.95548 0.0
H1823 H 0.56899 0.9895 0.78569 0.0
loop_
_geom_bond_atom_site_label_1
_geom_bond_atom_site_label_2
_geom_bond_distance
_geom_bond_site_symmetry_2
_ccdc_geom_bond_type
C0 O2 1.247 . S
C0 O4 1.258 . S
C1 O8 1.247 . S
C1 O9 1.258 . S
O2 C0 1.247 . S
O2 Zn3 2.028 . S
Zn3 O2 2.028 . S
Zn3 O7 2.035 . S
Zn3 O9 2.035 . S
Zn3 O10 2.028 . S
O4 C0 1.258 . S
O4 Zn5 2.035 . S
Zn5 O4 2.035 . S
Zn5 O6 2.028 . S
Zn5 O8 2.028 . S
Zn5 O11 2.035 . S
O6 Zn5 2.028 . S
O6 C12 1.247 . S
O7 Zn3 2.035 . S
O7 C12 1.258 . S
O8 C1 1.247 . S
O8 Zn5 2.028 . S
O9 C1 1.258 . S
O9 Zn3 2.035 . S
O10 Zn3 2.028 . S
O10 C13 1.247 . S
O11 Zn5 2.035 . S
O11 C13 1.258 . S
C12 O6 1.247 . S
C12 O7 1.258 . S
C13 O10 1.247 . S
C13 O11 1.258 . S
C14 O16 1.247 . S
C14 O18 1.258 . S
C15 O22 1.247 . S
C15 O23 1.258 . S
O16 C14 1.247 . S
O16 Zn17 2.028 . S
Zn17 O16 2.028 . S
Zn17 O21 2.035 . S
Zn17 O23 2.035 . S
Zn17 O24 2.028 . S
O18 C14 1.258 . S
O18 Zn19 2.035 . S
Zn19 O18 2.035 . S
Zn19 O20 2.028 . S
Zn19 O22 2.028 . S
Zn19 O25 2.035 . S
O20 Zn19 2.028 . S
O20 C26 1.247 . S
O21 Zn17 2.035 . S
O21 C26 1.258 . S
O22 C15 1.247 . S
O22 Zn19 2.028 . S
O23 C15 1.258 . S
O23 Zn17 2.035 . S
O24 Zn17 2.028 . S
O24 C27 1.247 . S
O25 Zn19 2.035 . S
O25 C27 1.258 . S
C26 O20 1.247 . S
C26 O21 1.258 . S
C27 O24 1.247 . S
C27 O25 1.258 . S
C28 O30 1.247 . S
C28 O32 1.258 . S
C29 O36 1.247 . S
C29 O37 1.258 . S
O30 C28 1.247 . S
O30 Zn31 2.028 . S
Zn31 O30 2.028 . S
Zn31 O35 2.035 . S
Zn31 O37 2.035 . S
Zn31 O38 2.028 . S
O32 C28 1.258 . S
O32 Zn33 2.035 . S
Zn33 O32 2.035 . S
Zn33 O34 2.028 . S
Zn33 O36 2.028 . S
Zn33 O39 2.035 . S
O34 Zn33 2.028 . S
O34 C40 1.247 . S
O35 Zn31 2.035 . S
O35 C40 1.258 . S
O36 C29 1.247 . S
O36 Zn33 2.028 . S
O37 C29 1.258 . S
O37 Zn31 2.035 . S
O38 Zn31 2.028 . S
O38 C41 1.247 . S
O39 Zn33 2.035 . S
O39 C41 1.258 . S
C40 O34 1.247 . S
C40 O35 1.258 . S
C41 O38 1.247 . S
C41 O39 1.258 . S
C42 O44 1.247 . S
C42 O46 1.258 . S
C43 O50 1.247 . S
C43 O51 1.258 . S
O44 C42 1.247 . S
O44 Zn45 2.028 . S
Zn45 O44 2.028 . S
Zn45 O49 2.035 . S
Zn45 O51 2.035 . S
Zn45 O52 2.028 . S
O46 C42 1.258 . S
O46 Zn47 2.035 . S
Zn47 O46 2.035 . S
Zn47 O48 2.028 . S
Zn47 O50 2.028 . S
Zn47 O53 2.035 . S
O48 Zn47 2.028 . S
O48 C54 1.247 . S
O49 Zn45 2.035 . S
O49 C54 1.258 . S
O50 C43 1.247 . S
O50 Zn47 2.028 . S
O51 C43 1.258 . S
O51 Zn45 2.035 . S
O52 Zn45 2.028 . S
O52 C55 1.247 . S
O53 Zn47 2.035 . S
O53 C55 1.258 . S
C54 O48 1.247 . S
C54 O49 1.258 . S
C55 O52 1.247 . S
C55 O53 1.258 . S
C56 O58 1.247 . S
C56 O60 1.258 . S
C57 O64 1.247 . S
C57 O65 1.258 . S
O58 C56 1.247 . S
O58 Zn59 2.028 . S
Zn59 O58 2.028 . S
Zn59 O63 2.035 . S
Zn59 O65 2.035 . S
Zn59 O66 2.028 . S
O60 C56 1.258 . S
O60 Zn61 2.035 . S
Zn61 O60 2.035 . S
Zn61 O62 2.028 . S
Zn61 O64 2.028 . S
Zn61 O67 2.035 . S
O62 Zn61 2.028 . S
O62 C68 1.247 . S
O63 Zn59 2.035 . S
O63 C68 1.258 . S
O64 C57 1.247 . S
O64 Zn61 2.028 . S
O65 C57 1.258 . S
O65 Zn59 2.035 . S
O66 Zn59 2.028 . S
O66 C69 1.247 . S
O67 Zn61 2.035 . S
O67 C69 1.258 . S
C68 O62 1.247 . S
C68 O63 1.258 . S
C69 O66 1.247 . S
C69 O67 1.258 . S
C70 O72 1.247 . S
C70 O74 1.258 . S
C71 O78 1.247 . S
C71 O79 1.258 . S
O72 C70 1.247 . S
O72 Zn73 2.028 . S
Zn73 O72 2.028 . S
Zn73 O77 2.035 . S
Zn73 O79 2.035 . S
Zn73 O80 2.028 . S
O74 C70 1.258 . S
O74 Zn75 2.035 . S
Zn75 O74 2.035 . S
Zn75 O76 2.028 . S
Zn75 O78 2.028 . S
Zn75 O81 2.035 . S
O76 Zn75 2.028 . S
O76 C82 1.247 . S
O77 Zn73 2.035 . S
O77 C82 1.258 . S
O78 C71 1.247 . S
O78 Zn75 2.028 . S
O79 C71 1.258 . S
O79 Zn73 2.035 . S
O80 Zn73 2.028 . S
O80 C83 1.247 . S
O81 Zn75 2.035 . S
O81 C83 1.258 . S
C82 O76 1.247 . S
C82 O77 1.258 . S
C83 O80 1.247 . S
C83 O81 1.258 . S
C84 O86 1.247 . S
C84 O88 1.258 . S
C85 O92 1.247 . S
C85 O93 1.258 . S
O86 C84 1.247 . S
O86 Zn87 2.028 . S
Zn87 O86 2.028 . S
Zn87 O91 2.035 . S
Zn87 O93 2.035 . S
Zn87 O94 2.028 . S
O88 C84 1.258 . S
O88 Zn89 2.035 . S
Zn89 O88 2.035 . S
Zn89 O90 2.028 . S
Zn89 O92 2.028 . S
Zn89 O95 2.035 . S
O90 Zn89 2.028 . S
O90 C96 1.247 . S
O91 Zn87 2.035 . S
O91 C96 1.258 . S
O92 C85 1.247 . S
O92 Zn89 2.028 . S
O93 C85 1.258 . S
O93 Zn87 2.035 . S
O94 Zn87 2.028 . S
O94 C97 1.247 . S
O95 Zn89 2.035 . S
O95 C97 1.258 . S
C96 O90 1.247 . S
C96 O91 1.258 . S
C97 O94 1.247 . S
C97 O95 1.258 . S
C98 O100 1.247 . S
C98 O102 1.258 . S
C99 O106 1.247 . S
C99 O107 1.258 . S
O100 C98 1.247 . S
O100 Zn101 2.028 . S
Zn101 O100 2.028 . S
Zn101 O105 2.035 . S
Zn101 O107 2.035 . S
Zn101 O108 2.028 . S
O102 C98 1.258 . S
O102 Zn103 2.035 . S
Zn103 O102 2.035 . S
Zn103 O104 2.028 . S
Zn103 O106 2.028 . S
Zn103 O109 2.035 . S
O104 Zn103 2.028 . S
O104 C110 1.247 . S
O105 Zn101 2.035 . S
O105 C110 1.258 . S
O106 C99 1.247 . S
O106 Zn103 2.028 . S
O107 C99 1.258 . S
O107 Zn101 2.035 . S
O108 Zn101 2.028 . S
O108 C111 1.247 . S
O109 Zn103 2.035 . S
O109 C111 1.258 . S
C110 O104 1.247 . S
C110 O105 1.258 . S
C111 O108 1.247 . S
C111 O109 1.258 . S
C112 O114 1.247 . S
C112 O116 1.258 . S
C113 O120 1.247 . S
C113 O121 1.258 . S
O114 C112 1.247 . S
O114 Zn115 2.028 . S
Zn115 O114 2.028 . S
Zn115 O119 2.035 . S
Zn115 O121 2.035 . S
Zn115 O122 2.028 . S
O116 C112 1.258 . S
O116 Zn117 2.035 . S
Zn117 O116 2.035 . S
Zn117 O118 2.028 . S
Zn117 O120 2.028 . S
Zn117 O123 2.035 . S
O118 Zn117 2.028 . S
O118 C124 1.247 . S
O119 Zn115 2.035 . S
O119 C124 1.258 . S
O120 C113 1.247 . S
O120 Zn117 2.028 . S
O121 C113 1.258 . S
O121 Zn115 2.035 . S
O122 Zn115 2.028 . S
O122 C125 1.247 . S
O123 Zn117 2.035 . S
O123 C125 1.258 . S
C124 O118 1.247 . S
C124 O119 1.258 . S
C125 O122 1.247 . S
C125 O123 1.258 . S
C126 O128 1.247 . S
C126 O130 1.258 . S
C127 O134 1.247 . S
C127 O135 1.258 . S
O128 C126 1.247 . S
O128 Zn129 2.028 . S
Zn129 O128 2.028 . S
Zn129 O133 2.035 . S
Zn129 O135 2.035 . S
Zn129 O136 2.028 . S
O130 C126 1.258 . S
O130 Zn131 2.035 . S
Zn131 O130 2.035 . S
Zn131 O132 2.028 . S
Zn131 O134 2.028 . S
Zn131 O137 2.035 . S
O132 Zn131 2.028 . S
O132 C138 1.247 . S
O133 Zn129 2.035 . S
O133 C138 1.258 . S
O134 C127 1.247 . S
O134 Zn131 2.028 . S
O135 C127 1.258 . S
O135 Zn129 2.035 . S
O136 Zn129 2.028 . S
O136 C139 1.247 . S
O137 Zn131 2.035 . S
O137 C139 1.258 . S
C138 O132 1.247 . S
C138 O133 1.258 . S
C139 O136 1.247 . S
C139 O137 1.258 . S
C140 O142 1.247 . S
C140 O144 1.258 . S
C141 O148 1.247 . S
C141 O149 1.258 . S
O142 C140 1.247 . S
O142 Zn143 2.028 . S
Zn143 O142 2.028 . S
Zn143 O147 2.035 . S
Zn143 O149 2.035 . S
Zn143 O150 2.028 . S
O144 C140 1.258 . S
O144 Zn145 2.035 . S
Zn145 O144 2.035 . S
Zn145 O146 2.028 . S
Zn145 O148 2.028 . S
Zn145 O151 2.035 . S
O146 Zn145 2.028 . S
O146 C152 1.247 . S
O147 Zn143 2.035 . S
O147 C152 1.258 . S
O148 C141 1.247 . S
O148 Zn145 2.028 . S
O149 C141 1.258 . S
O149 Zn143 2.035 . S
O150 Zn143 2.028 . S
O150 C153 1.247 . S
O151 Zn145 2.035 . S
O151 C153 1.258 . S
C152 O146 1.247 . S
C152 O147 1.258 . S
C153 O150 1.247 . S
C153 O151 1.258 . S
C154 O156 1.247 . S
C154 O158 1.258 . S
C155 O162 1.247 . S
C155 O163 1.258 . S
O156 C154 1.247 . S
O156 Zn157 2.028 . S
Zn157 O156 2.028 . S
Zn157 O161 2.035 . S
Zn157 O163 2.035 . S
Zn157 O164 2.028 . S
O158 C154 1.258 . S
O158 Zn159 2.035 . S
Zn159 O158 2.035 . S
Zn159 O160 2.028 . S
Zn159 O162 2.028 . S
Zn159 O165 2.035 . S
O160 Zn159 2.028 . S
O160 C166 1.247 . S
O161 Zn157 2.035 . S
O161 C166 1.258 . S
O162 C155 1.247 . S
O162 Zn159 2.028 . S
O163 C155 1.258 . S
O163 Zn157 2.035 . S
O164 Zn157 2.028 . S
O164 C167 1.247 . S
O165 Zn159 2.035 . S
O165 C167 1.258 . S
C166 O160 1.247 . S
C166 O161 1.258 . S
C167 O164 1.247 . S
C167 O165 1.258 . S
C168 O170 1.247 . S
C168 O172 1.258 . S
C169 O176 1.247 . S
C169 O177 1.258 . S
O170 C168 1.247 . S
O170 Zn171 2.028 . S
Zn171 O170 2.028 . S
Zn171 O175 2.035 . S
Zn171 O177 2.035 . S
Zn171 O178 2.028 . S
O172 C168 1.258 . S
O172 Zn173 2.035 . S
Zn173 O172 2.035 . S
Zn173 O174 2.028 . S
Zn173 O176 2.028 . S
Zn173 O179 2.035 . S
O174 Zn173 2.028 . S
O174 C180 1.247 . S
O175 Zn171 2.035 . S
O175 C180 1.258 . S
O176 C169 1.247 . S
O176 Zn173 2.028 . S
O177 C169 1.258 . S
O177 Zn171 2.035 . S
O178 Zn171 2.028 . S
O178 C181 1.247 . S
O179 Zn173 2.035 . S
O179 C181 1.258 . S
C180 O174 1.247 . S
C180 O175 1.258 . S
C181 O178 1.247 . S
C181 O179 1.258 . S
C182 O184 1.247 . S
C182 O186 1.258 . S
C183 O190 1.247 . S
C183 O191 1.258 . S
O184 C182 1.247 . S
O184 Zn185 2.028 . S
Zn185 O184 2.028 . S
Zn185 O189 2.035 . S
Zn185 O191 2.035 . S
Zn185 O192 2.028 . S
O186 C182 1.258 . S
O186 Zn187 2.035 . S
Zn187 O186 2.035 . S
Zn187 O188 2.028 . S
Zn187 O190 2.028 . S
Zn187 O193 2.035 . S
O188 Zn187 2.028 . S
O188 C194 1.247 . S
O189 Zn185 2.035 . S
O189 C194 1.258 . S
O190 C183 1.247 . S
O190 Zn187 2.028 . S
O191 C183 1.258 . S
O191 Zn185 2.035 . S
O192 Zn185 2.028 . S
O192 C195 1.247 . S
O193 Zn187 2.035 . S
O193 C195 1.258 . S
C194 O188 1.247 . S
C194 O189 1.258 . S
C195 O192 1.247 . S
C195 O193 1.258 . S
C196 O198 1.247 . S
C196 O200 1.258 . S
C197 O204 1.247 . S
C197 O205 1.258 . S
O198 C196 1.247 . S
O198 Zn199 2.028 . S
Zn199 O198 2.028 . S
Zn199 O203 2.035 . S
Zn199 O205 2.035 . S
Zn199 O206 2.028 . S
O200 C196 1.258 . S
O200 Zn201 2.035 . S
Zn201 O200 2.035 . S
Zn201 O202 2.028 . S
Zn201 O204 2.028 . S
Zn201 O207 2.035 . S
O202 Zn201 2.028 . S
O202 C208 1.247 . S
O203 Zn199 2.035 . S
O203 C208 1.258 . S
O204 C197 1.247 . S
O204 Zn201 2.028 . S
O205 C197 1.258 . S
O205 Zn199 2.035 . S
O206 Zn199 2.028 . S
O206 C209 1.247 . S
O207 Zn201 2.035 . S
O207 C209 1.258 . S
C208 O202 1.247 . S
C208 O203 1.258 . S
C209 O206 1.247 . S
C209 O207 1.258 . S
C210 O212 1.247 . S
C210 O214 1.258 . S
C211 O218 1.247 . S
C211 O219 1.258 . S
O212 C210 1.247 . S
O212 Zn213 2.028 . S
Zn213 O212 2.028 . S
Zn213 O217 2.035 . S
Zn213 O219 2.035 . S
Zn213 O220 2.028 . S
O214 C210 1.258 . S
O214 Zn215 2.035 . S
Zn215 O214 2.035 . S
Zn215 O216 2.028 . S
Zn215 O218 2.028 . S
Zn215 O221 2.035 . S
O216 Zn215 2.028 . S
O216 C222 1.247 . S
O217 Zn213 2.035 . S
O217 C222 1.258 . S
O218 C211 1.247 . S
O218 Zn215 2.028 . S
O219 C211 1.258 . S
O219 Zn213 2.035 . S
O220 Zn213 2.028 . S
O220 C223 1.247 . S
O221 Zn215 2.035 . S
O221 C223 1.258 . S
C222 O216 1.247 . S
C222 O217 1.258 . S
C223 O220 1.247 . S
C223 O221 1.258 . S
H224 C242 0.951 . S
H225 C244 0.951 . S
H226 C246 0.950 . S
H227 C247 0.950 . S
H228 C249 0.950 . S
H229 C252 0.950 . S
H230 C253 0.950 . S
H231 C255 0.950 . S
H232 C256 0.950 . S
H233 C257 0.951 . S
H234 C259 0.951 . S
H235 C261 0.950 . S
H236 C262 0.950 . S
H237 C264 0.950 . S
H238 C267 0.950 . S
H239 C268 0.950 . S
H240 C270 0.950 . S
H241 C271 0.950 . S
C242 H224 0.951 . S
C242 C243 1.366 . S
C242 C244 1.388 . S
C243 C242 1.366 . S
C243 C247 1.385 . S
C244 H225 0.951 . S
C244 C242 1.388 . S
C244 C245 1.366 . S
C245 C244 1.366 . S
C245 C246 1.414 . S
C245 C248 1.499 . S
C246 H226 0.950 . S
C246 C245 1.414 . S
C246 C247 1.374 . S
C247 H227 0.950 . S
C247 C243 1.385 . S
C247 C246 1.374 . S
C248 C245 1.499 . S
C248 C249 1.373 . S
C248 C250 1.389 . S
C249 H228 0.950 . S
C249 C248 1.373 . S
C249 C265 1.377 1_556 S
C250 C248 1.389 . S
C250 C251 1.524 . S
C250 C264 1.377 1_556 S
C251 C250 1.524 . S
C251 C252 1.397 . S
C251 C256 1.363 1_556 S
C252 H229 0.950 . S
C252 C251 1.397 . S
C252 C253 1.334 . S
C253 H230 0.950 . S
C253 C252 1.334 . S
C253 C254 1.287 . S
C254 C253 1.287 . S
C254 C255 1.524 1_556 S
C254 H273 0.913 . S
C255 H231 0.950 . S
C255 C254 1.524 1_554 S
C255 C256 1.415 . S
C256 H232 0.950 . S
C256 C251 1.363 1_554 S
C256 C255 1.415 . S
C257 H233 0.951 . S
C257 C258 1.366 . S
C257 C259 1.388 . S
C258 C257 1.366 . S
C258 C262 1.385 . S
C259 H234 0.951 . S
C259 C257 1.388 . S
C259 C260 1.366 . S
C260 C259 1.366 . S
C260 C261 1.414 . S
C260 C263 1.499 . S
C261 H235 0.950 . S
C261 C260 1.414 . S
C261 C262 1.374 . S
C262 H236 0.950 . S
C262 C258 1.385 . S
C262 C261 1.374 . S
C263 C260 1.499 . S
C263 C264 1.373 . S
C263 C265 1.389 . S
C264 H237 0.950 . S
C264 C250 1.377 1_554 S
C264 C263 1.373 . S
C265 C249 1.377 1_554 S
C265 C263 1.389 . S
C265 C266 1.524 . S
C266 C265 1.524 . S
C266 C267 1.397 . S
C266 C271 1.363 1_554 S
C267 H238 0.950 . S
C267 C266 1.397 . S
C267 C268 1.334 . S
C268 H239 0.950 . S
C268 C267 1.334 . S
C268 C269 1.287 . S
C269 C268 1.287 . S
C269 C270 1.524 1_554 S
C269 H272 0.999 . S
C270 H240 0.950 . S
C270 C269 1.524 1_556 S
C270 C271 1.415 . S
C271 H241 0.950 . S
C271 C266 1.363 1_556 S
C271 C270 1.415 . S
H272 C269 0.999 . S
H273 C254 0.913 . S
H274 C292 0.951 . S
H275 C294 0.951 . S
H276 C296 0.950 . S
H277 C297 0.950 . S
H278 C299 0.950 . S
H279 C302 0.950 . S
H280 C303 0.950 . S
H281 C305 0.950 . S
H282 C306 0.950 . S
H283 C307 0.951 . S
H284 C309 0.951 . S
H285 C311 0.950 . S
H286 C312 0.950 . S
H287 C314 0.950 . S
H288 C317 0.950 . S
H289 C318 0.950 . S
H290 C320 0.950 . S
H291 C321 0.950 . S
C292 H274 0.951 . S
C292 C293 1.366 . S
C292 C294 1.388 . S
C293 C292 1.366 . S
C293 C297 1.385 . S
C294 H275 0.951 . S
C294 C292 1.388 . S
C294 C295 1.366 . S
C295 C294 1.366 . S
C295 C296 1.414 . S
C295 C298 1.499 . S
C296 H276 0.950 . S
C296 C295 1.414 . S
C296 C297 1.374 . S
C297 H277 0.950 . S
C297 C293 1.385 . S
C297 C296 1.374 . S
C298 C295 1.499 . S
C298 C299 1.373 . S
C298 C300 1.389 . S
C299 H278 0.950 . S
C299 C298 1.373 . S
C299 C315 1.377 . S
C300 C298 1.389 . S
C300 C301 1.524 . S
C300 C314 1.377 . S
C301 C300 1.524 . S
C301 C302 1.397 . S
C301 C306 1.363 . S
C302 H279 0.950 . S
C302 C301 1.397 . S
C302 C303 1.334 . S
C303 H280 0.950 . S
C303 C302 1.334 . S
C303 C304 1.287 . S
C304 C303 1.287 . S
C304 C305 1.524 . S
C304 H323 0.913 . S
C305 H281 0.950 . S
C305 C304 1.524 . S
C305 C306 1.415 . S
C306 H282 0.950 . S
C306 C301 1.363 . S
C306 C305 1.415 . S
C307 H283 0.951 . S
C307 C308 1.366 . S
C307 C309 1.388 . S
C308 C307 1.366 . S
C308 C312 1.385 . S
C309 H284 0.951 . S
C309 C307 1.388 . S
C309 C310 1.366 . S
C310 C309 1.366 . S
C310 C311 1.414 . S
C310 C313 1.499 . S
C311 H285 0.950 . S
C311 C310 1.414 . S
C311 C312 1.374 . S
C312 H286 0.950 . S
C312 C308 1.385 . S
C312 C311 1.374 . S
C313 C310 1.499 . S
C313 C314 1.373 . S
C313 C315 1.389 . S
C314 H287 0.950 . S
C314 C300 1.377 . S
C314 C313 1.373 . S
C315 C299 1.377 . S
C315 C313 1.389 . S
C315 C316 1.524 . S
C316 C315 1.524 . S
C316 C317 1.397 . S
C316 C321 1.363 . S
C317 H288 0.950 . S
C317 C316 1.397 . S
C317 C318 1.334 . S
C318 H289 0.950 . S
C318 C317 1.334 . S
C318 C319 1.287 . S
C319 C318 1.287 . S
C319 C320 1.524 . S
C319 H322 0.999 . S
C320 H290 0.950 . S
C320 C319 1.524 . S
C320 C321 1.415 . S
C321 H291 0.950 . S
C321 C316 1.363 . S
C321 C320 1.415 . S
H322 C319 0.999 . S
H323 C304 0.913 . S
H324 C342 0.951 . S
H325 C344 0.951 . S
H326 C346 0.950 . S
H327 C347 0.950 . S
H328 C349 0.950 . S
H329 C352 0.950 . S
H330 C353 0.950 . S
H331 C355 0.950 . S
H332 C356 0.950 . S
H333 C357 0.951 . S
H334 C359 0.951 . S
H335 C361 0.950 . S
H336 C362 0.950 . S
H337 C364 0.950 . S
H338 C367 0.950 . S
H339 C368 0.950 . S
H340 C370 0.950 . S
H341 C371 0.950 . S
C342 H324 0.951 . S
C342 C343 1.366 . S
C342 C344 1.388 . S
C343 C342 1.366 . S
C343 C347 1.385 . S
C344 H325 0.951 . S
C344 C342 1.388 . S
C344 C345 1.366 . S
C345 C344 1.366 . S
C345 C346 1.414 . S
C345 C348 1.499 . S
C346 H326 0.950 . S
C346 C345 1.414 . S
C346 C347 1.374 . S
C347 H327 0.950 . S
C347 C343 1.385 . S
C347 C346 1.374 . S
C348 C345 1.499 . S
C348 C349 1.373 . S
C348 C350 1.389 . S
C349 H328 0.950 . S
C349 C348 1.373 . S
C349 C365 1.377 1_556 S
C350 C348 1.389 . S
C350 C351 1.524 . S
C350 C364 1.377 1_556 S
C351 C350 1.524 . S
C351 C352 1.397 . S
C351 C356 1.363 . S
C352 H329 0.950 . S
C352 C351 1.397 . S
C352 C353 1.334 . S
C353 H330 0.950 . S
C353 C352 1.334 . S
C353 C354 1.287 . S
C354 C353 1.287 . S
C354 C355 1.524 . S
C354 H373 0.913 . S
C355 H331 0.950 . S
C355 C354 1.524 . S
C355 C356 1.415 . S
C356 H332 0.950 . S
C356 C351 1.363 . S
C356 C355 1.415 . S
C357 H333 0.951 . S
C357 C358 1.366 . S
C357 C359 1.388 . S
C358 C357 1.366 . S
C358 C362 1.385 . S
C359 H334 0.951 . S
C359 C357 1.388 . S
C359 C360 1.366 . S
C360 C359 1.366 . S
C360 C361 1.414 . S
C360 C363 1.499 . S
C361 H335 0.950 . S
C361 C360 1.414 . S
C361 C362 1.374 . S
C362 H336 0.950 . S
C362 C358 1.385 . S
C362 C361 1.374 . S
C363 C360 1.499 . S
C363 C364 1.373 . S
C363 C365 1.389 . S
C364 H337 0.950 . S
C364 C350 1.377 1_554 S
C364 C363 1.373 . S
C365 C349 1.377 1_554 S
C365 C363 1.389 . S
C365 C366 1.524 . S
C366 C365 1.524 . S
C366 C367 1.397 . S
C366 C371 1.363 . S
C367 H338 0.950 . S
C367 C366 1.397 . S
C367 C368 1.334 . S
C368 H339 0.950 . S
C368 C367 1.334 . S
C368 C369 1.287 . S
C369 C368 1.287 . S
C369 C370 1.524 . S
C369 H372 0.999 . S
C370 H340 0.950 . S
C370 C369 1.524 . S
C370 C371 1.415 . S
C371 H341 0.950 . S
C371 C366 1.363 . S
C371 C370 1.415 . S
H372 C369 0.999 . S
H373 C354 0.913 . S
H374 C392 0.951 . S
H375 C394 0.951 . S
H376 C396 0.950 . S
H377 C397 0.950 . S
H378 C399 0.950 . S
H379 C402 0.950 . S
H380 C403 0.950 . S
H381 C405 0.950 . S
H382 C406 0.950 . S
H383 C407 0.951 . S
H384 C409 0.951 . S
H385 C411 0.950 . S
H386 C412 0.950 . S
H387 C414 0.950 . S
H388 C417 0.950 . S
H389 C418 0.950 . S
H390 C420 0.950 . S
H391 C421 0.950 . S
C392 H374 0.951 . S
C392 C393 1.366 . S
C392 C394 1.388 . S
C393 C392 1.366 . S
C393 C397 1.385 . S
C394 H375 0.951 . S
C394 C392 1.388 . S
C394 C395 1.366 . S
C395 C394 1.366 . S
C395 C396 1.414 . S
C395 C398 1.499 . S
C396 H376 0.950 . S
C396 C395 1.414 . S
C396 C397 1.374 . S
C397 H377 0.950 . S
C397 C393 1.385 . S
C397 C396 1.374 . S
C398 C395 1.499 . S
C398 C399 1.373 . S
C398 C400 1.389 . S
C399 H378 0.950 . S
C399 C398 1.373 . S
C399 C415 1.377 . S
C400 C398 1.389 . S
C400 C401 1.524 . S
C400 C414 1.377 . S
C401 C400 1.524 . S
C401 C402 1.397 . S
C401 C406 1.363 . S
C402 H379 0.950 . S
C402 C401 1.397 . S
C402 C403 1.334 . S
C403 H380 0.950 . S
C403 C402 1.334 . S
C403 C404 1.287 . S
C404 C403 1.287 . S
C404 C405 1.524 . S
C404 H423 0.913 . S
C405 H381 0.950 . S
C405 C404 1.524 . S
C405 C406 1.415 . S
C406 H382 0.950 . S
C406 C401 1.363 . S
C406 C405 1.415 . S
C407 H383 0.951 . S
C407 C408 1.366 . S
C407 C409 1.388 . S
C408 C407 1.366 . S
C408 C412 1.385 . S
C409 H384 0.951 . S
C409 C407 1.388 . S
C409 C410 1.366 . S
C410 C409 1.366 . S
C410 C411 1.414 . S
C410 C413 1.499 . S
C411 H385 0.950 . S
C411 C410 1.414 . S
C411 C412 1.374 . S
C412 H386 0.950 . S
C412 C408 1.385 . S
C412 C411 1.374 . S
C413 C410 1.499 . S
C413 C414 1.373 . S
C413 C415 1.389 . S
C414 H387 0.950 . S
C414 C400 1.377 . S
C414 C413 1.373 . S
C415 C399 1.377 . S
C415 C413 1.389 . S
C415 C416 1.524 . S
C416 C415 1.524 . S
C416 C417 1.397 . S
C416 C421 1.363 . S
C417 H388 0.950 . S
C417 C416 1.397 . S
C417 C418 1.334 . S
C418 H389 0.950 . S
C418 C417 1.334 . S
C418 C419 1.287 . S
C419 C418 1.287 . S
C419 C420 1.524 . S
C419 H422 0.999 . S
C420 H390 0.950 . S
C420 C419 1.524 . S
C420 C421 1.415 . S
C421 H391 0.950 . S
C421 C416 1.363 . S
C421 C420 1.415 . S
H422 C419 0.999 . S
H423 C404 0.913 . S
H424 C442 0.951 . S
H425 C444 0.951 . S
H426 C446 0.950 . S
H427 C447 0.950 . S
H428 C449 0.950 . S
H429 C452 0.950 . S
H430 C453 0.950 . S
H431 C455 0.950 . S
H432 C456 0.950 . S
H433 C457 0.951 . S
H434 C459 0.951 . S
H435 C461 0.950 . S
H436 C462 0.950 . S
H437 C464 0.950 . S
H438 C467 0.950 . S
H439 C468 0.950 . S
H440 C470 0.950 . S
H441 C471 0.950 . S
C442 H424 0.951 . S
C442 C443 1.366 . S
C442 C444 1.388 . S
C443 C442 1.366 . S
C443 C447 1.385 . S
C444 H425 0.951 . S
C444 C442 1.388 . S
C444 C445 1.366 . S
C445 C444 1.366 . S
C445 C446 1.414 . S
C445 C448 1.499 . S
C446 H426 0.950 . S
C446 C445 1.414 . S
C446 C447 1.374 . S
C447 H427 0.950 . S
C447 C443 1.385 . S
C447 C446 1.374 . S
C448 C445 1.499 . S
C448 C449 1.373 . S
C448 C450 1.389 . S
C449 H428 0.950 . S
C449 C448 1.373 . S
C449 C465 1.377 1_554 S
C450 C448 1.389 . S
C450 C451 1.524 . S
C450 C464 1.377 1_554 S
C451 C450 1.524 . S
C451 C452 1.397 . S
C451 C456 1.363 . S
C452 H429 0.950 . S
C452 C451 1.397 . S
C452 C453 1.334 . S
C453 H430 0.950 . S
C453 C452 1.334 . S
C453 C454 1.287 . S
C454 C453 1.287 . S
C454 C455 1.524 . S
C454 H473 0.913 . S
C455 H431 0.950 . S
C455 C454 1.524 . S
C455 C456 1.415 . S
C456 H432 0.950 . S
C456 C451 1.363 . S
C456 C455 1.415 . S
C457 H433 0.951 . S
C457 C458 1.366 . S
C457 C459 1.388 . S
C458 C457 1.366 . S
C458 C462 1.385 . S
C459 H434 0.951 . S
C459 C457 1.388 . S
C459 C460 1.366 . S
C460 C459 1.366 . S
C460 C461 1.414 . S
C460 C463 1.499 . S
C461 H435 0.950 . S
C461 C460 1.414 . S
C461 C462 1.374 . S
C462 H436 0.950 . S
C462 C458 1.385 . S
C462 C461 1.374 . S
C463 C460 1.499 . S
C463 C464 1.373 . S
C463 C465 1.389 . S
C464 H437 0.950 . S
C464 C450 1.377 1_556 S
C464 C463 1.373 . S
C465 C449 1.377 1_556 S
C465 C463 1.389 . S
C465 C466 1.524 . S
C466 C465 1.524 . S
C466 C467 1.397 . S
C466 C471 1.363 . S
C467 H438 0.950 . S
C467 C466 1.397 . S
C467 C468 1.334 . S
C468 H439 0.950 . S
C468 C467 1.334 . S
C468 C469 1.287 . S
C469 C468 1.287 . S
C469 C470 1.524 . S
C469 H472 0.999 . S
C470 H440 0.950 . S
C470 C469 1.524 . S
C470 C471 1.415 . S
C471 H441 0.950 . S
C471 C466 1.363 . S
C471 C470 1.415 . S
H472 C469 0.999 . S
H473 C454 0.913 . S
H474 C492 0.951 . S
H475 C494 0.951 . S
H476 C496 0.950 . S
H477 C497 0.950 . S
H478 C499 0.950 . S
H479 C502 0.950 . S
H480 C503 0.950 . S
H481 C505 0.950 . S
H482 C506 0.950 . S
H483 C507 0.951 . S
H484 C509 0.951 . S
H485 C511 0.950 . S
H486 C512 0.950 . S
H487 C514 0.950 . S
H488 C517 0.950 . S
H489 C518 0.950 . S
H490 C520 0.950 . S
H491 C521 0.950 . S
C492 H474 0.951 . S
C492 C493 1.366 . S
C492 C494 1.388 . S
C493 C492 1.366 . S
C493 C497 1.385 . S
C494 H475 0.951 . S
C494 C492 1.388 . S
C494 C495 1.366 . S
C495 C494 1.366 . S
C495 C496 1.414 . S
C495 C498 1.499 . S
C496 H476 0.950 . S
C496 C495 1.414 . S
C496 C497 1.374 . S
C497 H477 0.950 . S
C497 C493 1.385 . S
C497 C496 1.374 . S
C498 C495 1.499 . S
C498 C499 1.373 . S
C498 C500 1.389 . S
C499 H478 0.950 . S
C499 C498 1.373 . S
C499 C515 1.377 . S
C500 C498 1.389 . S
C500 C501 1.524 . S
C500 C514 1.377 . S
C501 C500 1.524 . S
C501 C502 1.397 . S
C501 C506 1.363 . S
C502 H479 0.950 . S
C502 C501 1.397 . S
C502 C503 1.334 . S
C503 H480 0.950 . S
C503 C502 1.334 . S
C503 C504 1.287 . S
C504 C503 1.287 . S
C504 C505 1.524 . S
C504 H523 0.913 . S
C505 H481 0.950 . S
C505 C504 1.524 . S
C505 C506 1.415 . S
C506 H482 0.950 . S
C506 C501 1.363 . S
C506 C505 1.415 . S
C507 H483 0.951 . S
C507 C508 1.366 . S
C507 C509 1.388 . S
C508 C507 1.366 . S
C508 C512 1.385 . S
C509 H484 0.951 . S
C509 C507 1.388 . S
C509 C510 1.366 . S
C510 C509 1.366 . S
C510 C511 1.414 . S
C510 C513 1.499 . S
C511 H485 0.950 . S
C511 C510 1.414 . S
C511 C512 1.374 . S
C512 H486 0.950 . S
C512 C508 1.385 . S
C512 C511 1.374 . S
C513 C510 1.499 . S
C513 C514 1.373 . S
C513 C515 1.389 . S
C514 H487 0.950 . S
C514 C500 1.377 . S
C514 C513 1.373 . S
C515 C499 1.377 . S
C515 C513 1.389 . S
C515 C516 1.524 . S
C516 C515 1.524 . S
C516 C517 1.397 . S
C516 C521 1.363 . S
C517 H488 0.950 . S
C517 C516 1.397 . S
C517 C518 1.334 . S
C518 H489 0.950 . S
C518 C517 1.334 . S
C518 C519 1.287 . S
C519 C518 1.287 . S
C519 C520 1.524 . S
C519 H522 0.999 . S
C520 H490 0.950 . S
C520 C519 1.524 . S
C520 C521 1.415 . S
C521 H491 0.950 . S
C521 C516 1.363 . S
C521 C520 1.415 . S
H522 C519 0.999 . S
H523 C504 0.913 . S
H524 C542 0.951 . S
H525 C544 0.951 . S
H526 C546 0.950 . S
H527 C547 0.950 . S
H528 C549 0.950 . S
H529 C552 0.950 . S
H530 C553 0.950 . S
H531 C555 0.975 . S
H532 C556 0.950 . S
H533 C557 0.951 . S
H534 C559 0.951 . S
H535 C561 0.950 . S
H536 C562 0.950 . S
H537 C564 0.950 . S
H538 C567 0.950 . S
H539 C568 0.950 . S
H540 C570 0.975 . S
H541 C571 0.950 . S
C542 H524 0.951 . S
C542 C543 1.366 . S
C542 C544 1.388 . S
C543 C542 1.366 . S
C543 C547 1.385 . S
C544 H525 0.951 . S
C544 C542 1.388 . S
C544 C545 1.366 . S
C545 C544 1.366 . S
C545 C546 1.414 . S
C545 C548 1.499 . S
C546 H526 0.950 . S
C546 C545 1.414 . S
C546 C547 1.374 . S
C547 H527 0.950 . S
C547 C543 1.385 . S
C547 C546 1.374 . S
C548 C545 1.499 . S
C548 C549 1.373 . S
C548 C550 1.389 . S
C549 H528 0.950 . S
C549 C548 1.373 . S
C549 C565 1.377 1_556 S
C550 C548 1.389 . S
C550 C551 1.524 . S
C550 C564 1.377 1_556 S
C551 C550 1.524 . S
C551 C552 1.397 . S
C551 C556 1.363 1_556 S
C552 H529 0.950 . S
C552 C551 1.397 . S
C552 C553 1.334 . S
C553 H530 0.950 . S
C553 C552 1.334 . S
C553 C554 1.287 . S
C554 C553 1.287 . S
C554 C555 1.491 1_556 S
C554 H573 0.913 . S
C555 H531 0.975 . S
C555 C554 1.491 1_554 S
C555 C556 1.422 . S
C556 H532 0.950 . S
C556 C551 1.363 1_554 S
C556 C555 1.422 . S
C557 H533 0.951 . S
C557 C558 1.366 . S
C557 C559 1.388 . S
C558 C557 1.366 . S
C558 C562 1.385 . S
C559 H534 0.951 . S
C559 C557 1.388 . S
C559 C560 1.366 . S
C560 C559 1.366 . S
C560 C561 1.414 . S
C560 C563 1.499 . S
C561 H535 0.950 . S
C561 C560 1.414 . S
C561 C562 1.374 . S
C562 H536 0.950 . S
C562 C558 1.385 . S
C562 C561 1.374 . S
C563 C560 1.499 . S
C563 C564 1.373 . S
C563 C565 1.389 . S
C564 H537 0.950 . S
C564 C550 1.377 1_554 S
C564 C563 1.373 . S
C565 C549 1.377 1_554 S
C565 C563 1.389 . S
C565 C566 1.524 . S
C566 C565 1.524 . S
C566 C567 1.397 . S
C566 C571 1.363 1_554 S
C567 H538 0.950 . S
C567 C566 1.397 . S
C567 C568 1.334 . S
C568 H539 0.950 . S
C568 C567 1.334 . S
C568 C569 1.287 . S
C569 C568 1.287 . S
C569 C570 1.491 1_554 S
C569 H572 0.999 . S
C570 H540 0.975 . S
C570 C569 1.491 1_556 S
C570 C571 1.422 . S
C571 H541 0.950 . S
C571 C566 1.363 1_556 S
C571 C570 1.422 . S
H572 C569 0.999 . S
H573 C554 0.913 . S
H574 C592 0.951 . S
H575 C594 0.951 . S
H576 C596 0.950 . S
H577 C597 0.950 . S
H578 C599 0.950 . S
H579 C602 0.950 . S
H580 C603 0.950 . S
H581 C605 0.950 . S
H582 C606 0.950 . S
H583 C607 0.951 . S
H584 C609 0.951 . S
H585 C611 0.950 . S
H586 C612 0.950 . S
H587 C614 0.950 . S
H588 C617 0.950 . S
H589 C618 0.950 . S
H590 C620 0.950 . S
H591 C621 0.950 . S
C592 H574 0.951 . S
C592 C593 1.366 . S
C592 C594 1.388 . S
C593 C592 1.366 . S
C593 C597 1.385 . S
C594 H575 0.951 . S
C594 C592 1.388 . S
C594 C595 1.366 . S
C595 C594 1.366 . S
C595 C596 1.414 . S
C595 C598 1.499 . S
C596 H576 0.950 . S
C596 C595 1.414 . S
C596 C597 1.374 . S
C597 H577 0.950 . S
C597 C593 1.385 . S
C597 C596 1.374 . S
C598 C595 1.499 . S
C598 C599 1.373 . S
C598 C600 1.389 . S
C599 H578 0.950 . S
C599 C598 1.373 . S
C599 C615 1.377 . S
C600 C598 1.389 . S
C600 C601 1.524 . S
C600 C614 1.377 . S
C601 C600 1.524 . S
C601 C602 1.397 . S
C601 C606 1.363 . S
C602 H579 0.950 . S
C602 C601 1.397 . S
C602 C603 1.334 . S
C603 H580 0.950 . S
C603 C602 1.334 . S
C603 C604 1.287 . S
C604 C603 1.287 . S
C604 C605 1.524 . S
C604 H623 0.913 . S
C605 H581 0.950 . S
C605 C604 1.524 . S
C605 C606 1.415 . S
C606 H582 0.950 . S
C606 C601 1.363 . S
C606 C605 1.415 . S
C607 H583 0.951 . S
C607 C608 1.366 . S
C607 C609 1.388 . S
C608 C607 1.366 . S
C608 C612 1.385 . S
C609 H584 0.951 . S
C609 C607 1.388 . S
C609 C610 1.366 . S
C610 C609 1.366 . S
C610 C611 1.414 . S
C610 C613 1.499 . S
C611 H585 0.950 . S
C611 C610 1.414 . S
C611 C612 1.374 . S
C612 H586 0.950 . S
C612 C608 1.385 . S
C612 C611 1.374 . S
C613 C610 1.499 . S
C613 C614 1.373 . S
C613 C615 1.389 . S
C614 H587 0.950 . S
C614 C600 1.377 . S
C614 C613 1.373 . S
C615 C599 1.377 . S
C615 C613 1.389 . S
C615 C616 1.524 . S
C616 C615 1.524 . S
C616 C617 1.397 . S
C616 C621 1.363 . S
C617 H588 0.950 . S
C617 C616 1.397 . S
C617 C618 1.334 . S
C618 H589 0.950 . S
C618 C617 1.334 . S
C618 C619 1.287 . S
C619 C618 1.287 . S
C619 C620 1.524 . S
C619 H622 0.999 . S
C620 H590 0.950 . S
C620 C619 1.524 . S
C620 C621 1.415 . S
C621 H591 0.950 . S
C621 C616 1.363 . S
C621 C620 1.415 . S
H622 C619 0.999 . S
H623 C604 0.913 . S
H624 C642 0.951 . S
H625 C644 0.951 . S
H626 C646 0.950 . S
H627 C647 0.950 . S
H628 C649 0.950 . S
H629 C652 0.950 . S
H630 C653 0.950 . S
H631 C655 0.950 . S
H632 C656 0.950 . S
H633 C657 0.951 . S
H634 C659 0.951 . S
H635 C661 0.950 . S
H636 C662 0.950 . S
H637 C664 0.950 . S
H638 C667 0.950 . S
H639 C668 0.950 . S
H640 C670 0.950 . S
H641 C671 0.950 . S
C642 H624 0.951 . S
C642 C643 1.366 . S
C642 C644 1.388 . S
C643 C642 1.366 . S
C643 C647 1.385 . S
C644 H625 0.951 . S
C644 C642 1.388 . S
C644 C645 1.366 . S
C645 C644 1.366 . S
C645 C646 1.414 . S
C645 C648 1.499 . S
C646 H626 0.950 . S
C646 C645 1.414 . S
C646 C647 1.374 . S
C647 H627 0.950 . S
C647 C643 1.385 . S
C647 C646 1.374 . S
C648 C645 1.499 . S
C648 C649 1.373 . S
C648 C650 1.389 . S
C649 H628 0.950 . S
C649 C648 1.373 . S
C649 C665 1.377 . S
C650 C648 1.389 . S
C650 C651 1.524 . S
C650 C664 1.377 . S
C651 C650 1.524 . S
C651 C652 1.397 . S
C651 C656 1.363 . S
C652 H629 0.950 . S
C652 C651 1.397 . S
C652 C653 1.334 . S
C653 H630 0.950 . S
C653 C652 1.334 . S
C653 C654 1.287 . S
C654 C653 1.287 . S
C654 C655 1.524 . S
C654 H673 0.913 . S
C655 H631 0.950 . S
C655 C654 1.524 . S
C655 C656 1.415 . S
C656 H632 0.950 . S
C656 C651 1.363 . S
C656 C655 1.415 . S
C657 H633 0.951 . S
C657 C658 1.366 . S
C657 C659 1.388 . S
C658 C657 1.366 . S
C658 C662 1.385 . S
C659 H634 0.951 . S
C659 C657 1.388 . S
C659 C660 1.366 . S
C660 C659 1.366 . S
C660 C661 1.414 . S
C660 C663 1.499 . S
C661 H635 0.950 . S
C661 C660 1.414 . S
C661 C662 1.374 . S
C662 H636 0.950 . S
C662 C658 1.385 . S
C662 C661 1.374 . S
C663 C660 1.499 . S
C663 C664 1.373 . S
C663 C665 1.389 . S
C664 H637 0.950 . S
C664 C650 1.377 . S
C664 C663 1.373 . S
C665 C649 1.377 . S
C665 C663 1.389 . S
C665 C666 1.524 . S
C666 C665 1.524 . S
C666 C667 1.397 . S
C666 C671 1.363 . S
C667 H638 0.950 . S
C667 C666 1.397 . S
C667 C668 1.334 . S
C668 H639 0.950 . S
C668 C667 1.334 . S
C668 C669 1.287 . S
C669 C668 1.287 . S
C669 C670 1.524 . S
C669 H672 0.999 . S
C670 H640 0.950 . S
C670 C669 1.524 . S
C670 C671 1.415 . S
C671 H641 0.950 . S
C671 C666 1.363 . S
C671 C670 1.415 . S
H672 C669 0.999 . S
H673 C654 0.913 . S
H674 C692 0.951 . S
H675 C694 0.951 . S
H676 C696 0.950 . S
H677 C697 0.950 . S
H678 C699 0.950 . S
H679 C702 0.950 . S
H680 C703 0.950 . S
H681 C705 0.950 . S
H682 C706 0.950 . S
H683 C707 0.951 . S
H684 C709 0.951 . S
H685 C711 0.950 . S
H686 C712 0.950 . S
H687 C714 0.950 . S
H688 C717 0.950 . S
H689 C718 0.950 . S
H690 C720 0.950 . S
H691 C721 0.950 . S
C692 H674 0.951 . S
C692 C693 1.366 . S
C692 C694 1.388 . S
C693 C692 1.366 . S
C693 C697 1.385 . S
C694 H675 0.951 . S
C694 C692 1.388 . S
C694 C695 1.366 . S
C695 C694 1.366 . S
C695 C696 1.414 . S
C695 C698 1.499 . S
C696 H676 0.950 . S
C696 C695 1.414 . S
C696 C697 1.374 . S
C697 H677 0.950 . S
C697 C693 1.385 . S
C697 C696 1.374 . S
C698 C695 1.499 . S
C698 C699 1.373 . S
C698 C700 1.389 . S
C699 H678 0.950 . S
C699 C698 1.373 . S
C699 C715 1.377 . S
C700 C698 1.389 . S
C700 C701 1.524 . S
C700 C714 1.377 . S
C701 C700 1.524 . S
C701 C702 1.397 . S
C701 C706 1.363 . S
C702 H679 0.950 . S
C702 C701 1.397 . S
C702 C703 1.334 . S
C703 H680 0.950 . S
C703 C702 1.334 . S
C703 C704 1.287 . S
C704 C703 1.287 . S
C704 C705 1.524 . S
C704 H723 0.913 . S
C705 H681 0.950 . S
C705 C704 1.524 . S
C705 C706 1.415 . S
C706 H682 0.950 . S
C706 C701 1.363 . S
C706 C705 1.415 . S
C707 H683 0.951 . S
C707 C708 1.366 . S
C707 C709 1.388 . S
C708 C707 1.366 . S
C708 C712 1.385 . S
C709 H684 0.951 . S
C709 C707 1.388 . S
C709 C710 1.366 . S
C710 C709 1.366 . S
C710 C711 1.414 . S
C710 C713 1.499 . S
C711 H685 0.950 . S
C711 C710 1.414 . S
C711 C712 1.374 . S
C712 H686 0.950 . S
C712 C708 1.385 . S
C712 C711 1.374 . S
C713 C710 1.499 . S
C713 C714 1.373 . S
C713 C715 1.389 . S
C714 H687 0.950 . S
C714 C700 1.377 . S
C714 C713 1.373 . S
C715 C699 1.377 . S
C715 C713 1.389 . S
C715 C716 1.524 . S
C716 C715 1.524 . S
C716 C717 1.397 . S
C716 C721 1.363 . S
C717 H688 0.950 . S
C717 C716 1.397 . S
C717 C718 1.334 . S
C718 H689 0.950 . S
C718 C717 1.334 . S
C718 C719 1.287 . S
C719 C718 1.287 . S
C719 C720 1.524 . S
C719 H722 0.999 . S
C720 H690 0.950 . S
C720 C719 1.524 . S
C720 C721 1.415 . S
C721 H691 0.950 . S
C721 C716 1.363 . S
C721 C720 1.415 . S
H722 C719 0.999 . S
H723 C704 0.913 . S
H724 C742 0.951 . S
H725 C744 0.951 . S
H726 C746 0.950 . S
H727 C747 0.950 . S
H728 C749 0.950 . S
H729 C752 0.950 . S
H730 C753 0.950 . S
H731 C755 0.950 . S
H732 C756 0.950 . S
H733 C757 0.951 . S
H734 C759 0.951 . S
H735 C761 0.950 . S
H736 C762 0.950 . S
H737 C764 0.950 . S
H738 C767 0.950 . S
H739 C768 0.950 . S
H740 C770 0.950 . S
H741 C771 0.950 . S
C742 H724 0.951 . S
C742 C743 1.366 . S
C742 C744 1.388 . S
C743 C742 1.366 . S
C743 C747 1.385 . S
C744 H725 0.951 . S
C744 C742 1.388 . S
C744 C745 1.366 . S
C745 C744 1.366 . S
C745 C746 1.414 . S
C745 C748 1.499 . S
C746 H726 0.950 . S
C746 C745 1.414 . S
C746 C747 1.374 . S
C747 H727 0.950 . S
C747 C743 1.385 . S
C747 C746 1.374 . S
C748 C745 1.499 . S
C748 C749 1.373 . S
C748 C750 1.389 . S
C749 H728 0.950 . S
C749 C748 1.373 . S
C749 C765 1.377 . S
C750 C748 1.389 . S
C750 C751 1.524 . S
C750 C764 1.377 . S
C751 C750 1.524 . S
C751 C752 1.397 . S
C751 C756 1.363 . S
C752 H729 0.950 . S
C752 C751 1.397 . S
C752 C753 1.334 . S
C753 H730 0.950 . S
C753 C752 1.334 . S
C753 C754 1.287 . S
C754 C753 1.287 . S
C754 C755 1.524 . S
C754 H773 0.913 . S
C755 H731 0.950 . S
C755 C754 1.524 . S
C755 C756 1.415 . S
C756 H732 0.950 . S
C756 C751 1.363 . S
C756 C755 1.415 . S
C757 H733 0.951 . S
C757 C758 1.366 . S
C757 C759 1.388 . S
C758 C757 1.366 . S
C758 C762 1.385 . S
C759 H734 0.951 . S
C759 C757 1.388 . S
C759 C760 1.366 . S
C760 C759 1.366 . S
C760 C761 1.414 . S
C760 C763 1.499 . S
C761 H735 0.950 . S
C761 C760 1.414 . S
C761 C762 1.374 . S
C762 H736 0.950 . S
C762 C758 1.385 . S
C762 C761 1.374 . S
C763 C760 1.499 . S
C763 C764 1.373 . S
C763 C765 1.389 . S
C764 H737 0.950 . S
C764 C750 1.377 . S
C764 C763 1.373 . S
C765 C749 1.377 . S
C765 C763 1.389 . S
C765 C766 1.524 . S
C766 C765 1.524 . S
C766 C767 1.397 . S
C766 C771 1.363 . S
C767 H738 0.950 . S
C767 C766 1.397 . S
C767 C768 1.334 . S
C768 H739 0.950 . S
C768 C767 1.334 . S
C768 C769 1.287 . S
C769 C768 1.287 . S
C769 C770 1.524 . S
C769 H772 0.999 . S
C770 H740 0.950 . S
C770 C769 1.524 . S
C770 C771 1.415 . S
C771 H741 0.950 . S
C771 C766 1.363 . S
C771 C770 1.415 . S
H772 C769 0.999 . S
H773 C754 0.913 . S
H774 C792 0.951 . S
H775 C794 0.951 . S
H776 C796 0.950 . S
H777 C797 0.950 . S
H778 C799 0.950 . S
H779 C802 0.950 . S
H780 C803 0.950 . S
H781 C805 0.950 . S
H782 C806 0.950 . S
H783 C807 0.951 . S
H784 C809 0.951 . S
H785 C811 0.950 . S
H786 C812 0.950 . S
H787 C814 0.950 . S
H788 C817 0.950 . S
H789 C818 0.950 . S
H790 C820 0.950 . S
H791 C821 0.950 . S
C792 H774 0.951 . S
C792 C793 1.366 . S
C792 C794 1.388 . S
C793 C792 1.366 . S
C793 C797 1.385 . S
C794 H775 0.951 . S
C794 C792 1.388 . S
C794 C795 1.366 . S
C795 C794 1.366 . S
C795 C796 1.414 . S
C795 C798 1.499 . S
C796 H776 0.950 . S
C796 C795 1.414 . S
C796 C797 1.374 . S
C797 H777 0.950 . S
C797 C793 1.385 . S
C797 C796 1.374 . S
C798 C795 1.499 . S
C798 C799 1.373 . S
C798 C800 1.389 . S
C799 H778 0.950 . S
C799 C798 1.373 . S
C799 C815 1.377 . S
C800 C798 1.389 . S
C800 C801 1.524 . S
C800 C814 1.377 . S
C801 C800 1.524 . S
C801 C802 1.397 . S
C801 C806 1.363 . S
C802 H779 0.950 . S
C802 C801 1.397 . S
C802 C803 1.334 . S
C803 H780 0.950 . S
C803 C802 1.334 . S
C803 C804 1.287 . S
C804 C803 1.287 . S
C804 C805 1.524 . S
C804 H823 0.913 . S
C805 H781 0.950 . S
C805 C804 1.524 . S
C805 C806 1.415 . S
C806 H782 0.950 . S
C806 C801 1.363 . S
C806 C805 1.415 . S
C807 H783 0.951 . S
C807 C808 1.366 . S
C807 C809 1.388 . S
C808 C807 1.366 . S
C808 C812 1.385 . S
C809 H784 0.951 . S
C809 C807 1.388 . S
C809 C810 1.366 . S
C810 C809 1.366 . S
C810 C811 1.414 . S
C810 C813 1.499 . S
C811 H785 0.950 . S
C811 C810 1.414 . S
C811 C812 1.374 . S
C812 H786 0.950 . S
C812 C808 1.385 . S
C812 C811 1.374 . S
C813 C810 1.499 . S
C813 C814 1.373 . S
C813 C815 1.389 . S
C814 H787 0.950 . S
C814 C800 1.377 . S
C814 C813 1.373 . S
C815 C799 1.377 . S
C815 C813 1.389 . S
C815 C816 1.524 . S
C816 C815 1.524 . S
C816 C817 1.397 . S
C816 C821 1.363 . S
C817 H788 0.950 . S
C817 C816 1.397 . S
C817 C818 1.334 . S
C818 H789 0.950 . S
C818 C817 1.334 . S
C818 C819 1.287 . S
C819 C818 1.287 . S
C819 C820 1.524 . S
C819 H822 0.999 . S
C820 H790 0.950 . S
C820 C819 1.524 . S
C820 C821 1.415 . S
C821 H791 0.950 . S
C821 C816 1.363 . S
C821 C820 1.415 . S
H822 C819 0.999 . S
H823 C804 0.913 . S
H824 C842 0.951 . S
H825 C844 0.951 . S
H826 C846 0.950 . S
H827 C847 0.950 . S
H828 C849 0.950 . S
H829 C852 0.950 . S
H830 C853 0.950 . S
H831 C855 0.950 . S
H832 C856 0.950 . S
H833 C857 0.951 . S
H834 C859 0.951 . S
H835 C861 0.950 . S
H836 C862 0.950 . S
H837 C864 0.950 . S
H838 C867 0.950 . S
H839 C868 0.950 . S
H840 C870 0.950 . S
H841 C871 0.950 . S
C842 H824 0.951 . S
C842 C843 1.366 . S
C842 C844 1.388 . S
C843 C842 1.366 . S
C843 C847 1.385 . S
C844 H825 0.951 . S
C844 C842 1.388 . S
C844 C845 1.366 . S
C845 C844 1.366 . S
C845 C846 1.414 . S
C845 C848 1.499 . S
C846 H826 0.950 . S
C846 C845 1.414 . S
C846 C847 1.374 . S
C847 H827 0.950 . S
C847 C843 1.385 . S
C847 C846 1.374 . S
C848 C845 1.499 . S
C848 C849 1.373 . S
C848 C850 1.389 . S
C849 H828 0.950 . S
C849 C848 1.373 . S
C849 C865 1.377 . S
C850 C848 1.389 . S
C850 C851 1.524 . S
C850 C864 1.377 . S
C851 C850 1.524 . S
C851 C852 1.397 . S
C851 C856 1.363 . S
C852 H829 0.950 . S
C852 C851 1.397 . S
C852 C853 1.334 . S
C853 H830 0.950 . S
C853 C852 1.334 . S
C853 C854 1.287 . S
C854 C853 1.287 . S
C854 C855 1.524 . S
C854 H873 0.913 . S
C855 H831 0.950 . S
C855 C854 1.524 . S
C855 C856 1.415 . S
C856 H832 0.950 . S
C856 C851 1.363 . S
C856 C855 1.415 . S
C857 H833 0.951 . S
C857 C858 1.366 . S
C857 C859 1.388 . S
C858 C857 1.366 . S
C858 C862 1.385 . S
C859 H834 0.951 . S
C859 C857 1.388 . S
C859 C860 1.366 . S
C860 C859 1.366 . S
C860 C861 1.414 . S
C860 C863 1.499 . S
C861 H835 0.950 . S
C861 C860 1.414 . S
C861 C862 1.374 . S
C862 H836 0.950 . S
C862 C858 1.385 . S
C862 C861 1.374 . S
C863 C860 1.499 . S
C863 C864 1.373 . S
C863 C865 1.389 . S
C864 H837 0.950 . S
C864 C850 1.377 . S
C864 C863 1.373 . S
C865 C849 1.377 . S
C865 C863 1.389 . S
C865 C866 1.524 . S
C866 C865 1.524 . S
C866 C867 1.397 . S
C866 C871 1.363 . S
C867 H838 0.950 . S
C867 C866 1.397 . S
C867 C868 1.334 . S
C868 H839 0.950 . S
C868 C867 1.334 . S
C868 C869 1.287 . S
C869 C868 1.287 . S
C869 C870 1.524 . S
C869 H872 0.999 . S
C870 H840 0.950 . S
C870 C869 1.524 . S
C870 C871 1.415 . S
C871 H841 0.950 . S
C871 C866 1.363 . S
C871 C870 1.415 . S
H872 C869 0.999 . S
H873 C854 0.913 . S
H874 C892 0.951 . S
H875 C894 0.951 . S
H876 C896 0.950 . S
H877 C897 0.950 . S
H878 C899 0.950 . S
H879 C902 0.950 . S
H880 C903 0.950 . S
H881 C905 0.950 . S
H882 C906 0.950 . S
H883 C907 0.951 . S
H884 C909 0.951 . S
H885 C911 0.950 . S
H886 C912 0.950 . S
H887 C914 0.950 . S
H888 C917 0.950 . S
H889 C918 0.950 . S
H890 C920 0.950 . S
H891 C921 0.950 . S
C892 H874 0.951 . S
C892 C893 1.366 . S
C892 C894 1.388 . S
C893 C892 1.366 . S
C893 C897 1.385 . S
C894 H875 0.951 . S
C894 C892 1.388 . S
C894 C895 1.366 . S
C895 C894 1.366 . S
C895 C896 1.414 . S
C895 C898 1.499 . S
C896 H876 0.950 . S
C896 C895 1.414 . S
C896 C897 1.374 . S
C897 H877 0.950 . S
C897 C893 1.385 . S
C897 C896 1.374 . S
C898 C895 1.499 . S
C898 C899 1.373 . S
C898 C900 1.389 . S
C899 H878 0.950 . S
C899 C898 1.373 . S
C899 C915 1.377 . S
C900 C898 1.389 . S
C900 C901 1.524 . S
C900 C914 1.377 . S
C901 C900 1.524 . S
C901 C902 1.397 . S
C901 C906 1.363 . S
C902 H879 0.950 . S
C902 C901 1.397 . S
C902 C903 1.334 . S
C903 H880 0.950 . S
C903 C902 1.334 . S
C903 C904 1.287 . S
C904 C903 1.287 . S
C904 C905 1.524 . S
C904 H923 0.913 . S
C905 H881 0.950 . S
C905 C904 1.524 . S
C905 C906 1.415 . S
C906 H882 0.950 . S
C906 C901 1.363 . S
C906 C905 1.415 . S
C907 H883 0.951 . S
C907 C908 1.366 . S
C907 C909 1.388 . S
C908 C907 1.366 . S
C908 C912 1.385 . S
C909 H884 0.951 . S
C909 C907 1.388 . S
C909 C910 1.366 . S
C910 C909 1.366 . S
C910 C911 1.414 . S
C910 C913 1.499 . S
C911 H885 0.950 . S
C911 C910 1.414 . S
C911 C912 1.374 . S
C912 H886 0.950 . S
C912 C908 1.385 . S
C912 C911 1.374 . S
C913 C910 1.499 . S
C913 C914 1.373 . S
C913 C915 1.389 . S
C914 H887 0.950 . S
C914 C900 1.377 . S
C914 C913 1.373 . S
C915 C899 1.377 . S
C915 C913 1.389 . S
C915 C916 1.524 . S
C916 C915 1.524 . S
C916 C917 1.397 . S
C916 C921 1.363 . S
C917 H888 0.950 . S
C917 C916 1.397 . S
C917 C918 1.334 . S
C918 H889 0.950 . S
C918 C917 1.334 . S
C918 C919 1.287 . S
C919 C918 1.287 . S
C919 C920 1.524 . S
C919 H922 0.999 . S
C920 H890 0.950 . S
C920 C919 1.524 . S
C920 C921 1.415 . S
C921 H891 0.950 . S
C921 C916 1.363 . S
C921 C920 1.415 . S
H922 C919 0.999 . S
H923 C904 0.913 . S
H924 C942 0.951 . S
H925 C944 0.951 . S
H926 C946 0.950 . S
H927 C947 0.950 . S
H928 C949 0.950 . S
H929 C952 0.950 . S
H930 C953 0.950 . S
H931 C955 0.950 . S
H932 C956 0.950 . S
H933 C957 0.951 . S
H934 C959 0.951 . S
H935 C961 0.950 . S
H936 C962 0.950 . S
H937 C964 0.950 . S
H938 C967 0.950 . S
H939 C968 0.950 . S
H940 C970 0.950 . S
H941 C971 0.950 . S
C942 H924 0.951 . S
C942 C943 1.366 . S
C942 C944 1.388 . S
C943 C942 1.366 . S
C943 C947 1.385 . S
C944 H925 0.951 . S
C944 C942 1.388 . S
C944 C945 1.366 . S
C945 C944 1.366 . S
C945 C946 1.414 . S
C945 C948 1.499 . S
C946 H926 0.950 . S
C946 C945 1.414 . S
C946 C947 1.374 . S
C947 H927 0.950 . S
C947 C943 1.385 . S
C947 C946 1.374 . S
C948 C945 1.499 . S
C948 C949 1.373 . S
C948 C950 1.389 . S
C949 H928 0.950 . S
C949 C948 1.373 . S
C949 C965 1.377 . S
C950 C948 1.389 . S
C950 C951 1.524 . S
C950 C964 1.377 . S
C951 C950 1.524 . S
C951 C952 1.397 . S
C951 C956 1.363 . S
C952 H929 0.950 . S
C952 C951 1.397 . S
C952 C953 1.334 . S
C953 H930 0.950 . S
C953 C952 1.334 . S
C953 C954 1.287 . S
C954 C953 1.287 . S
C954 C955 1.524 . S
C954 H973 0.913 . S
C955 H931 0.950 . S
C955 C954 1.524 . S
C955 C956 1.415 . S
C956 H932 0.950 . S
C956 C951 1.363 . S
C956 C955 1.415 . S
C957 H933 0.951 . S
C957 C958 1.366 . S
C957 C959 1.388 . S
C958 C957 1.366 . S
C958 C962 1.385 . S
C959 H934 0.951 . S
C959 C957 1.388 . S
C959 C960 1.366 . S
C960 C959 1.366 . S
C960 C961 1.414 . S
C960 C963 1.499 . S
C961 H935 0.950 . S
C961 C960 1.414 . S
C961 C962 1.374 . S
C962 H936 0.950 . S
C962 C958 1.385 . S
C962 C961 1.374 . S
C963 C960 1.499 . S
C963 C964 1.373 . S
C963 C965 1.389 . S
C964 H937 0.950 . S
C964 C950 1.377 . S
C964 C963 1.373 . S
C965 C949 1.377 . S
C965 C963 1.389 . S
C965 C966 1.524 . S
C966 C965 1.524 . S
C966 C967 1.397 . S
C966 C971 1.363 . S
C967 H938 0.950 . S
C967 C966 1.397 . S
C967 C968 1.334 . S
C968 H939 0.950 . S
C968 C967 1.334 . S
C968 C969 1.287 . S
C969 C968 1.287 . S
C969 C970 1.524 . S
C969 H972 0.999 . S
C970 H940 0.950 . S
C970 C969 1.524 . S
C970 C971 1.415 . S
C971 H941 0.950 . S
C971 C966 1.363 . S
C971 C970 1.415 . S
H972 C969 0.999 . S
H973 C954 0.913 . S
H974 C992 0.951 . S
H975 C994 0.951 . S
H976 C996 0.950 . S
H977 C997 0.950 . S
H978 C999 0.950 . S
H979 C1002 0.950 . S
H980 C1003 0.950 . S
H981 C1005 0.950 . S
H982 C1006 0.950 . S
H983 C1007 0.951 . S
H984 C1009 0.951 . S
H985 C1011 0.950 . S
H986 C1012 0.950 . S
H987 C1014 0.950 . S
H988 C1017 0.950 . S
H989 C1018 0.950 . S
H990 C1020 0.950 . S
H991 C1021 0.950 . S
C992 H974 0.951 . S
C992 C993 1.366 . S
C992 C994 1.388 . S
C993 C992 1.366 . S
C993 C997 1.385 . S
C994 H975 0.951 . S
C994 C992 1.388 . S
C994 C995 1.366 . S
C995 C994 1.366 . S
C995 C996 1.414 . S
C995 C998 1.499 . S
C996 H976 0.950 . S
C996 C995 1.414 . S
C996 C997 1.374 . S
C997 H977 0.950 . S
C997 C993 1.385 . S
C997 C996 1.374 . S
C998 C995 1.499 . S
C998 C999 1.373 . S
C998 C1000 1.389 . S
C999 H978 0.950 . S
C999 C998 1.373 . S
C999 C1015 1.377 . S
C1000 C998 1.389 . S
C1000 C1001 1.524 . S
C1000 C1014 1.377 . S
C1001 C1000 1.524 . S
C1001 C1002 1.397 . S
C1001 C1006 1.363 . S
C1002 H979 0.950 . S
C1002 C1001 1.397 . S
C1002 C1003 1.334 . S
C1003 H980 0.950 . S
C1003 C1002 1.334 . S
C1003 C1004 1.287 . S
C1004 C1003 1.287 . S
C1004 C1005 1.524 . S
C1004 H1023 0.913 . S
C1005 H981 0.950 . S
C1005 C1004 1.524 . S
C1005 C1006 1.415 . S
C1006 H982 0.950 . S
C1006 C1001 1.363 . S
C1006 C1005 1.415 . S
C1007 H983 0.951 . S
C1007 C1008 1.366 . S
C1007 C1009 1.388 . S
C1008 C1007 1.366 . S
C1008 C1012 1.385 . S
C1009 H984 0.951 . S
C1009 C1007 1.388 . S
C1009 C1010 1.366 . S
C1010 C1009 1.366 . S
C1010 C1011 1.414 . S
C1010 C1013 1.499 . S
C1011 H985 0.950 . S
C1011 C1010 1.414 . S
C1011 C1012 1.374 . S
C1012 H986 0.950 . S
C1012 C1008 1.385 . S
C1012 C1011 1.374 . S
C1013 C1010 1.499 . S
C1013 C1014 1.373 . S
C1013 C1015 1.389 . S
C1014 H987 0.950 . S
C1014 C1000 1.377 . S
C1014 C1013 1.373 . S
C1015 C999 1.377 . S
C1015 C1013 1.389 . S
C1015 C1016 1.524 . S
C1016 C1015 1.524 . S
C1016 C1017 1.397 . S
C1016 C1021 1.363 . S
C1017 H988 0.950 . S
C1017 C1016 1.397 . S
C1017 C1018 1.334 . S
C1018 H989 0.950 . S
C1018 C1017 1.334 . S
C1018 C1019 1.287 . S
C1019 C1018 1.287 . S
C1019 C1020 1.524 . S
C1019 H1022 0.999 . S
C1020 H990 0.950 . S
C1020 C1019 1.524 . S
C1020 C1021 1.415 . S
C1021 H991 0.950 . S
C1021 C1016 1.363 . S
C1021 C1020 1.415 . S
H1022 C1019 0.999 . S
H1023 C1004 0.913 . S
H1024 C1042 0.951 . S
H1025 C1044 0.951 . S
H1026 C1046 0.950 . S
H1027 C1047 0.950 . S
H1028 C1049 0.950 . S
H1029 C1052 0.950 . S
H1030 C1053 0.950 . S
H1031 C1055 0.950 . S
H1032 C1056 0.950 . S
H1033 C1057 0.951 . S
H1034 C1059 0.951 . S
H1035 C1061 0.950 . S
H1036 C1062 0.950 . S
H1037 C1064 0.950 . S
H1038 C1067 0.950 . S
H1039 C1068 0.950 . S
H1040 C1070 0.950 . S
H1041 C1071 0.950 . S
C1042 H1024 0.951 . S
C1042 C1043 1.366 . S
C1042 C1044 1.388 . S
C1043 C1042 1.366 . S
C1043 C1047 1.385 . S
C1044 H1025 0.951 . S
C1044 C1042 1.388 . S
C1044 C1045 1.366 . S
C1045 C1044 1.366 . S
C1045 C1046 1.414 . S
C1045 C1048 1.499 . S
C1046 H1026 0.950 . S
C1046 C1045 1.414 . S
C1046 C1047 1.374 . S
C1047 H1027 0.950 . S
C1047 C1043 1.385 . S
C1047 C1046 1.374 . S
C1048 C1045 1.499 . S
C1048 C1049 1.373 . S
C1048 C1050 1.389 . S
C1049 H1028 0.950 . S
C1049 C1048 1.373 . S
C1049 C1065 1.377 . S
C1050 C1048 1.389 . S
C1050 C1051 1.524 . S
C1050 C1064 1.377 . S
C1051 C1050 1.524 . S
C1051 C1052 1.397 . S
C1051 C1056 1.363 . S
C1052 H1029 0.950 . S
C1052 C1051 1.397 . S
C1052 C1053 1.334 . S
C1053 H1030 0.950 . S
C1053 C1052 1.334 . S
C1053 C1054 1.287 . S
C1054 C1053 1.287 . S
C1054 C1055 1.524 . S
C1054 H1073 0.913 . S
C1055 H1031 0.950 . S
C1055 C1054 1.524 . S
C1055 C1056 1.415 . S
C1056 H1032 0.950 . S
C1056 C1051 1.363 . S
C1056 C1055 1.415 . S
C1057 H1033 0.951 . S
C1057 C1058 1.366 . S
C1057 C1059 1.388 . S
C1058 C1057 1.366 . S
C1058 C1062 1.385 . S
C1059 H1034 0.951 . S
C1059 C1057 1.388 . S
C1059 C1060 1.366 . S
C1060 C1059 1.366 . S
C1060 C1061 1.414 . S
C1060 C1063 1.499 . S
C1061 H1035 0.950 . S
C1061 C1060 1.414 . S
C1061 C1062 1.374 . S
C1062 H1036 0.950 . S
C1062 C1058 1.385 . S
C1062 C1061 1.374 . S
C1063 C1060 1.499 . S
C1063 C1064 1.373 . S
C1063 C1065 1.389 . S
C1064 H1037 0.950 . S
C1064 C1050 1.377 . S
C1064 C1063 1.373 . S
C1065 C1049 1.377 . S
C1065 C1063 1.389 . S
C1065 C1066 1.524 . S
C1066 C1065 1.524 . S
C1066 C1067 1.397 . S
C1066 C1071 1.363 . S
C1067 H1038 0.950 . S
C1067 C1066 1.397 . S
C1067 C1068 1.334 . S
C1068 H1039 0.950 . S
C1068 C1067 1.334 . S
C1068 C1069 1.251 1_545 S
C1069 C1068 1.251 1_565 S
C1069 C1070 1.533 . S
C1069 H1072 1.031 . S
C1070 H1040 0.950 . S
C1070 C1069 1.533 . S
C1070 C1071 1.415 1_565 S
C1071 H1041 0.950 . S
C1071 C1066 1.363 . S
C1071 C1070 1.415 1_545 S
H1072 C1069 1.031 . S
H1073 C1054 0.913 . S
H1074 C1092 0.951 . S
H1075 C1094 0.951 . S
H1076 C1096 0.950 . S
H1077 C1097 0.950 . S
H1078 C1099 0.950 . S
H1079 C1102 0.950 . S
H1080 C1103 0.950 . S
H1081 C1105 0.950 . S
H1082 C1106 0.950 . S
H1083 C1107 0.951 . S
H1084 C1109 0.951 . S
H1085 C1111 0.950 . S
H1086 C1112 0.950 . S
H1087 C1114 0.950 . S
H1088 C1117 0.950 . S
H1089 C1118 0.950 . S
H1090 C1120 0.950 . S
H1091 C1121 0.950 . S
C1092 H1074 0.951 . S
C1092 C1093 1.366 . S
C1092 C1094 1.388 . S
C1093 C1092 1.366 . S
C1093 C1097 1.385 . S
C1094 H1075 0.951 . S
C1094 C1092 1.388 . S
C1094 C1095 1.366 . S
C1095 C1094 1.366 . S
C1095 C1096 1.414 . S
C1095 C1098 1.499 . S
C1096 H1076 0.950 . S
C1096 C1095 1.414 . S
C1096 C1097 1.374 . S
C1097 H1077 0.950 . S
C1097 C1093 1.385 . S
C1097 C1096 1.374 . S
C1098 C1095 1.499 . S
C1098 C1099 1.373 . S
C1098 C1100 1.389 . S
C1099 H1078 0.950 . S
C1099 C1098 1.373 . S
C1099 C1115 1.377 . S
C1100 C1098 1.389 . S
C1100 C1101 1.524 . S
C1100 C1114 1.377 . S
C1101 C1100 1.524 . S
C1101 C1102 1.397 . S
C1101 C1106 1.363 . S
C1102 H1079 0.950 . S
C1102 C1101 1.397 . S
C1102 C1103 1.334 . S
C1103 H1080 0.950 . S
C1103 C1102 1.334 . S
C1103 C1104 1.287 . S
C1104 C1103 1.287 . S
C1104 C1105 1.524 . S
C1104 H1123 0.913 . S
C1105 H1081 0.950 . S
C1105 C1104 1.524 . S
C1105 C1106 1.415 . S
C1106 H1082 0.950 . S
C1106 C1101 1.363 . S
C1106 C1105 1.415 . S
C1107 H1083 0.951 . S
C1107 C1108 1.366 . S
C1107 C1109 1.388 . S
C1108 C1107 1.366 . S
C1108 C1112 1.385 . S
C1109 H1084 0.951 . S
C1109 C1107 1.388 . S
C1109 C1110 1.366 . S
C1110 C1109 1.366 . S
C1110 C1111 1.414 . S
C1110 C1113 1.499 . S
C1111 H1085 0.950 . S
C1111 C1110 1.414 . S
C1111 C1112 1.374 . S
C1112 H1086 0.950 . S
C1112 C1108 1.385 . S
C1112 C1111 1.374 . S
C1113 C1110 1.499 . S
C1113 C1114 1.373 . S
C1113 C1115 1.389 . S
C1114 H1087 0.950 . S
C1114 C1100 1.377 . S
C1114 C1113 1.373 . S
C1115 C1099 1.377 . S
C1115 C1113 1.389 . S
C1115 C1116 1.524 . S
C1116 C1115 1.524 . S
C1116 C1117 1.397 . S
C1116 C1121 1.363 . S
C1117 H1088 0.950 . S
C1117 C1116 1.397 . S
C1117 C1118 1.334 . S
C1118 H1089 0.950 . S
C1118 C1117 1.334 . S
C1118 C1119 1.287 . S
C1119 C1118 1.287 . S
C1119 C1120 1.524 . S
C1119 H1122 0.999 . S
C1120 H1090 0.950 . S
C1120 C1119 1.524 . S
C1120 C1121 1.415 . S
C1121 H1091 0.950 . S
C1121 C1116 1.363 . S
C1121 C1120 1.415 . S
H1122 C1119 0.999 . S
H1123 C1104 0.913 . S
H1124 C1142 0.951 . S
H1125 C1144 0.951 . S
H1126 C1146 0.950 . S
H1127 C1147 0.950 . S
H1128 C1149 0.950 . S
H1129 C1152 0.950 . S
H1130 C1153 0.950 . S
H1131 C1155 0.950 . S
H1132 C1156 0.950 . S
H1133 C1157 0.951 . S
H1134 C1159 0.951 . S
H1135 C1161 0.950 . S
H1136 C1162 0.950 . S
H1137 C1164 0.950 . S
H1138 C1167 0.950 . S
H1139 C1168 0.950 . S
H1140 C1170 0.950 . S
H1141 C1171 0.950 . S
C1142 H1124 0.951 . S
C1142 C1143 1.366 . S
C1142 C1144 1.388 . S
C1143 C1142 1.366 . S
C1143 C1147 1.385 . S
C1144 H1125 0.951 . S
C1144 C1142 1.388 . S
C1144 C1145 1.366 . S
C1145 C1144 1.366 . S
C1145 C1146 1.414 . S
C1145 C1148 1.499 . S
C1146 H1126 0.950 . S
C1146 C1145 1.414 . S
C1146 C1147 1.374 . S
C1147 H1127 0.950 . S
C1147 C1143 1.385 . S
C1147 C1146 1.374 . S
C1148 C1145 1.499 . S
C1148 C1149 1.373 . S
C1148 C1150 1.389 . S
C1149 H1128 0.950 . S
C1149 C1148 1.373 . S
C1149 C1165 1.377 . S
C1150 C1148 1.389 . S
C1150 C1151 1.524 . S
C1150 C1164 1.377 . S
C1151 C1150 1.524 . S
C1151 C1152 1.397 . S
C1151 C1156 1.363 . S
C1152 H1129 0.950 . S
C1152 C1151 1.397 . S
C1152 C1153 1.334 . S
C1153 H1130 0.950 . S
C1153 C1152 1.334 . S
C1153 C1154 1.287 . S
C1154 C1153 1.287 . S
C1154 C1155 1.524 . S
C1154 H1173 0.913 . S
C1155 H1131 0.950 . S
C1155 C1154 1.524 . S
C1155 C1156 1.415 . S
C1156 H1132 0.950 . S
C1156 C1151 1.363 . S
C1156 C1155 1.415 . S
C1157 H1133 0.951 . S
C1157 C1158 1.366 . S
C1157 C1159 1.388 . S
C1158 C1157 1.366 . S
C1158 C1162 1.385 . S
C1159 H1134 0.951 . S
C1159 C1157 1.388 . S
C1159 C1160 1.366 . S
C1160 C1159 1.366 . S
C1160 C1161 1.414 . S
C1160 C1163 1.499 . S
C1161 H1135 0.950 . S
C1161 C1160 1.414 . S
C1161 C1162 1.374 . S
C1162 H1136 0.950 . S
C1162 C1158 1.385 . S
C1162 C1161 1.374 . S
C1163 C1160 1.499 . S
C1163 C1164 1.373 . S
C1163 C1165 1.389 . S
C1164 H1137 0.950 . S
C1164 C1150 1.377 . S
C1164 C1163 1.373 . S
C1165 C1149 1.377 . S
C1165 C1163 1.389 . S
C1165 C1166 1.524 . S
C1166 C1165 1.524 . S
C1166 C1167 1.397 . S
C1166 C1171 1.363 . S
C1167 H1138 0.950 . S
C1167 C1166 1.397 . S
C1167 C1168 1.334 . S
C1168 H1139 0.950 . S
C1168 C1167 1.334 . S
C1168 C1169 1.287 . S
C1169 C1168 1.287 . S
C1169 C1170 1.524 . S
C1169 H1172 0.999 . S
C1170 H1140 0.950 . S
C1170 C1169 1.524 . S
C1170 C1171 1.415 . S
C1171 H1141 0.950 . S
C1171 C1166 1.363 . S
C1171 C1170 1.415 . S
H1172 C1169 0.999 . S
H1173 C1154 0.913 . S
H1174 C1192 0.951 . S
H1175 C1194 0.951 . S
H1176 C1196 0.950 . S
H1177 C1197 0.950 . S
H1178 C1199 0.950 . S
H1179 C1202 0.950 . S
H1180 C1203 0.950 . S
H1181 C1205 0.950 . S
H1182 C1206 0.950 . S
H1183 C1207 0.951 . S
H1184 C1209 0.951 . S
H1185 C1211 0.950 . S
H1186 C1212 0.950 . S
H1187 C1214 0.950 . S
H1188 C1217 0.950 . S
H1189 C1218 0.950 1_655 S
H1190 C1220 0.950 . S
H1191 C1221 0.950 . S
C1192 H1174 0.951 . S
C1192 C1193 1.366 . S
C1192 C1194 1.388 . S
C1193 C1192 1.366 . S
C1193 C1197 1.385 . S
C1194 H1175 0.951 . S
C1194 C1192 1.388 . S
C1194 C1195 1.366 . S
C1195 C1194 1.366 . S
C1195 C1196 1.414 . S
C1195 C1198 1.499 . S
C1196 H1176 0.950 . S
C1196 C1195 1.414 . S
C1196 C1197 1.374 . S
C1197 H1177 0.950 . S
C1197 C1193 1.385 . S
C1197 C1196 1.374 . S
C1198 C1195 1.499 . S
C1198 C1199 1.373 . S
C1198 C1200 1.389 . S
C1199 H1178 0.950 . S
C1199 C1198 1.373 . S
C1199 C1215 1.377 . S
C1200 C1198 1.389 . S
C1200 C1201 1.524 . S
C1200 C1214 1.377 . S
C1201 C1200 1.524 . S
C1201 C1202 1.397 . S
C1201 C1206 1.363 . S
C1202 H1179 0.950 . S
C1202 C1201 1.397 . S
C1202 C1203 1.334 . S
C1203 H1180 0.950 . S
C1203 C1202 1.334 . S
C1203 C1204 1.287 . S
C1204 C1203 1.287 . S
C1204 C1205 1.524 . S
C1204 H1223 0.913 . S
C1205 H1181 0.950 . S
C1205 C1204 1.524 . S
C1205 C1206 1.415 . S
C1206 H1182 0.950 . S
C1206 C1201 1.363 . S
C1206 C1205 1.415 . S
C1207 H1183 0.951 . S
C1207 C1208 1.366 . S
C1207 C1209 1.388 . S
C1208 C1207 1.366 . S
C1208 C1212 1.385 . S
C1209 H1184 0.951 . S
C1209 C1207 1.388 . S
C1209 C1210 1.366 . S
C1210 C1209 1.366 . S
C1210 C1211 1.414 . S
C1210 C1213 1.499 . S
C1211 H1185 0.950 . S
C1211 C1210 1.414 . S
C1211 C1212 1.374 . S
C1212 H1186 0.950 . S
C1212 C1208 1.385 . S
C1212 C1211 1.374 . S
C1213 C1210 1.499 . S
C1213 C1214 1.373 . S
C1213 C1215 1.389 . S
C1214 H1187 0.950 . S
C1214 C1200 1.377 . S
C1214 C1213 1.373 . S
C1215 C1199 1.377 . S
C1215 C1213 1.389 . S
C1215 C1216 1.524 . S
C1216 C1215 1.524 . S
C1216 C1217 1.397 . S
C1216 C1221 1.363 . S
C1217 H1188 0.950 . S
C1217 C1216 1.397 . S
C1217 C1218 1.334 . S
C1218 H1189 0.950 1_455 S
C1218 C1217 1.334 . S
C1218 C1219 1.287 1_455 S
C1219 C1218 1.287 1_655 S
C1219 C1220 1.524 . S
C1219 H1222 0.999 . S
C1220 H1190 0.950 . S
C1220 C1219 1.524 . S
C1220 C1221 1.415 1_655 S
C1221 H1191 0.950 . S
C1221 C1216 1.363 . S
C1221 C1220 1.415 1_455 S
H1222 C1219 0.999 . S
H1223 C1204 0.913 . S
H1224 C1242 0.951 . S
H1225 C1244 0.951 . S
H1226 C1246 0.950 . S
H1227 C1247 0.950 . S
H1228 C1249 0.950 . S
H1229 C1252 0.950 . S
H1230 C1253 0.950 . S
H1231 C1255 0.950 . S
H1232 C1256 0.950 . S
H1233 C1257 0.951 . S
H1234 C1259 0.951 . S
H1235 C1261 0.950 . S
H1236 C1262 0.950 . S
H1237 C1264 0.950 . S
H1238 C1267 0.950 . S
H1239 C1268 0.950 1_545 S
H1240 C1270 0.950 . S
H1241 C1271 0.950 . S
C1242 H1224 0.951 . S
C1242 C1243 1.366 . S
C1242 C1244 1.388 . S
C1243 C1242 1.366 . S
C1243 C1247 1.385 . S
C1244 H1225 0.951 . S
C1244 C1242 1.388 . S
C1244 C1245 1.366 . S
C1245 C1244 1.366 . S
C1245 C1246 1.414 . S
C1245 C1248 1.499 . S
C1246 H1226 0.950 . S
C1246 C1245 1.414 . S
C1246 C1247 1.374 . S
C1247 H1227 0.950 . S
C1247 C1243 1.385 . S
C1247 C1246 1.374 . S
C1248 C1245 1.499 . S
C1248 C1249 1.373 . S
C1248 C1250 1.389 . S
C1249 H1228 0.950 . S
C1249 C1248 1.373 . S
C1249 C1265 1.377 . S
C1250 C1248 1.389 . S
C1250 C1251 1.524 . S
C1250 C1264 1.377 . S
C1251 C1250 1.524 . S
C1251 C1252 1.397 . S
C1251 C1256 1.363 . S
C1252 H1229 0.950 . S
C1252 C1251 1.397 . S
C1252 C1253 1.334 . S
C1253 H1230 0.950 . S
C1253 C1252 1.334 . S
C1253 C1254 1.287 . S
C1254 C1253 1.287 . S
C1254 C1255 1.524 . S
C1254 H1273 0.913 . S
C1255 H1231 0.950 . S
C1255 C1254 1.524 . S
C1255 C1256 1.415 . S
C1256 H1232 0.950 . S
C1256 C1251 1.363 . S
C1256 C1255 1.415 . S
C1257 H1233 0.951 . S
C1257 C1258 1.366 . S
C1257 C1259 1.388 . S
C1258 C1257 1.366 . S
C1258 C1262 1.385 . S
C1259 H1234 0.951 . S
C1259 C1257 1.388 . S
C1259 C1260 1.366 . S
C1260 C1259 1.366 . S
C1260 C1261 1.414 . S
C1260 C1263 1.499 . S
C1261 H1235 0.950 . S
C1261 C1260 1.414 . S
C1261 C1262 1.374 . S
C1262 H1236 0.950 . S
C1262 C1258 1.385 . S
C1262 C1261 1.374 . S
C1263 C1260 1.499 . S
C1263 C1264 1.373 . S
C1263 C1265 1.389 . S
C1264 H1237 0.950 . S
C1264 C1250 1.377 . S
C1264 C1263 1.373 . S
C1265 C1249 1.377 . S
C1265 C1263 1.389 . S
C1265 C1266 1.524 . S
C1266 C1265 1.524 . S
C1266 C1267 1.397 . S
C1266 C1271 1.363 . S
C1267 H1238 0.950 . S
C1267 C1266 1.397 . S
C1267 C1268 1.334 . S
C1268 H1239 0.950 1_565 S
C1268 C1267 1.334 . S
C1268 C1269 1.287 1_565 S
C1269 C1268 1.287 1_545 S
C1269 C1270 1.524 . S
C1269 H1272 0.999 . S
C1270 H1240 0.950 . S
C1270 C1269 1.524 . S
C1270 C1271 1.415 1_545 S
C1271 H1241 0.950 . S
C1271 C1266 1.363 . S
C1271 C1270 1.415 1_565 S
H1272 C1269 0.999 . S
H1273 C1254 0.913 . S
H1274 C1292 0.951 . S
H1275 C1294 0.951 . S
H1276 C1296 0.950 . S
H1277 C1297 0.950 . S
H1278 C1299 0.950 . S
H1279 C1302 0.950 . S
H1280 C1303 0.950 . S
H1281 C1305 0.950 . S
H1282 C1306 0.950 . S
H1283 C1307 0.951 . S
H1284 C1309 0.951 . S
H1285 C1311 0.950 . S
H1286 C1312 0.950 . S
H1287 C1314 0.950 . S
H1288 C1317 0.950 . S
H1289 C1318 0.950 . S
H1290 C1320 0.950 . S
H1291 C1321 0.950 . S
C1292 H1274 0.951 . S
C1292 C1293 1.366 . S
C1292 C1294 1.388 . S
C1293 C1292 1.366 . S
C1293 C1297 1.385 . S
C1294 H1275 0.951 . S
C1294 C1292 1.388 . S
C1294 C1295 1.366 . S
C1295 C1294 1.366 . S
C1295 C1296 1.414 . S
C1295 C1298 1.499 . S
C1296 H1276 0.950 . S
C1296 C1295 1.414 . S
C1296 C1297 1.374 . S
C1297 H1277 0.950 . S
C1297 C1293 1.385 . S
C1297 C1296 1.374 . S
C1298 C1295 1.499 . S
C1298 C1299 1.373 . S
C1298 C1300 1.389 . S
C1299 H1278 0.950 . S
C1299 C1298 1.373 . S
C1299 C1315 1.377 . S
C1300 C1298 1.389 . S
C1300 C1301 1.524 . S
C1300 C1314 1.377 . S
C1301 C1300 1.524 . S
C1301 C1302 1.397 . S
C1301 C1306 1.363 . S
C1302 H1279 0.950 . S
C1302 C1301 1.397 . S
C1302 C1303 1.334 . S
C1303 H1280 0.950 . S
C1303 C1302 1.334 . S
C1303 C1304 1.287 . S
C1304 C1303 1.287 . S
C1304 C1305 1.524 . S
C1304 H1323 0.913 . S
C1305 H1281 0.950 . S
C1305 C1304 1.524 . S
C1305 C1306 1.415 . S
C1306 H1282 0.950 . S
C1306 C1301 1.363 . S
C1306 C1305 1.415 . S
C1307 H1283 0.951 . S
C1307 C1308 1.366 . S
C1307 C1309 1.388 . S
C1308 C1307 1.366 . S
C1308 C1312 1.385 . S
C1309 H1284 0.951 . S
C1309 C1307 1.388 . S
C1309 C1310 1.366 . S
C1310 C1309 1.366 . S
C1310 C1311 1.414 . S
C1310 C1313 1.499 . S
C1311 H1285 0.950 . S
C1311 C1310 1.414 . S
C1311 C1312 1.374 . S
C1312 H1286 0.950 . S
C1312 C1308 1.385 . S
C1312 C1311 1.374 . S
C1313 C1310 1.499 . S
C1313 C1314 1.373 . S
C1313 C1315 1.389 . S
C1314 H1287 0.950 . S
C1314 C1300 1.377 . S
C1314 C1313 1.373 . S
C1315 C1299 1.377 . S
C1315 C1313 1.389 . S
C1315 C1316 1.524 . S
C1316 C1315 1.524 . S
C1316 C1317 1.397 . S
C1316 C1321 1.363 . S
C1317 H1288 0.950 . S
C1317 C1316 1.397 . S
C1317 C1318 1.334 . S
C1318 H1289 0.950 . S
C1318 C1317 1.334 . S
C1318 C1319 1.287 . S
C1319 C1318 1.287 . S
C1319 C1320 1.524 . S
C1319 H1322 0.999 . S
C1320 H1290 0.950 . S
C1320 C1319 1.524 . S
C1320 C1321 1.415 . S
C1321 H1291 0.950 . S
C1321 C1316 1.363 . S
C1321 C1320 1.415 . S
H1322 C1319 0.999 . S
H1323 C1304 0.913 . S
H1324 C1342 0.951 . S
H1325 C1344 0.951 . S
H1326 C1346 0.950 . S
H1327 C1347 0.950 . S
H1328 C1349 0.950 . S
H1329 C1352 0.950 . S
H1330 C1353 0.950 . S
H1331 C1355 0.950 . S
H1332 C1356 0.950 . S
H1333 C1357 0.951 . S
H1334 C1359 0.951 . S
H1335 C1361 0.950 . S
H1336 C1362 0.950 . S
H1337 C1364 0.950 . S
H1338 C1367 0.950 . S
H1339 C1368 0.950 . S
H1340 C1370 0.950 . S
H1341 C1371 0.950 . S
C1342 H1324 0.951 . S
C1342 C1343 1.366 . S
C1342 C1344 1.388 . S
C1343 C1342 1.366 . S
C1343 C1347 1.385 . S
C1344 H1325 0.951 . S
C1344 C1342 1.388 . S
C1344 C1345 1.366 . S
C1345 C1344 1.366 . S
C1345 C1346 1.414 . S
C1345 C1348 1.499 . S
C1346 H1326 0.950 . S
C1346 C1345 1.414 . S
C1346 C1347 1.374 . S
C1347 H1327 0.950 . S
C1347 C1343 1.385 . S
C1347 C1346 1.374 . S
C1348 C1345 1.499 . S
C1348 C1349 1.373 . S
C1348 C1350 1.389 . S
C1349 H1328 0.950 . S
C1349 C1348 1.373 . S
C1349 C1365 1.377 . S
C1350 C1348 1.389 . S
C1350 C1351 1.524 . S
C1350 C1364 1.377 . S
C1351 C1350 1.524 . S
C1351 C1352 1.397 . S
C1351 C1356 1.363 . S
C1352 H1329 0.950 . S
C1352 C1351 1.397 . S
C1352 C1353 1.334 . S
C1353 H1330 0.950 . S
C1353 C1352 1.334 . S
C1353 C1354 1.287 . S
C1354 C1353 1.287 . S
C1354 C1355 1.524 . S
C1354 H1373 0.913 . S
C1355 H1331 0.950 . S
C1355 C1354 1.524 . S
C1355 C1356 1.415 . S
C1356 H1332 0.950 . S
C1356 C1351 1.363 . S
C1356 C1355 1.415 . S
C1357 H1333 0.951 . S
C1357 C1358 1.366 . S
C1357 C1359 1.388 . S
C1358 C1357 1.366 . S
C1358 C1362 1.385 . S
C1359 H1334 0.951 . S
C1359 C1357 1.388 . S
C1359 C1360 1.366 . S
C1360 C1359 1.366 . S
C1360 C1361 1.414 . S
C1360 C1363 1.499 . S
C1361 H1335 0.950 . S
C1361 C1360 1.414 . S
C1361 C1362 1.374 . S
C1362 H1336 0.950 . S
C1362 C1358 1.385 . S
C1362 C1361 1.374 . S
C1363 C1360 1.499 . S
C1363 C1364 1.373 . S
C1363 C1365 1.389 . S
C1364 H1337 0.950 . S
C1364 C1350 1.377 . S
C1364 C1363 1.373 . S
C1365 C1349 1.377 . S
C1365 C1363 1.389 . S
C1365 C1366 1.524 . S
C1366 C1365 1.524 . S
C1366 C1367 1.397 . S
C1366 C1371 1.363 . S
C1367 H1338 0.950 . S
C1367 C1366 1.397 . S
C1367 C1368 1.334 . S
C1368 H1339 0.950 . S
C1368 C1367 1.334 . S
C1368 C1369 1.287 . S
C1369 C1368 1.287 . S
C1369 C1370 1.524 . S
C1369 H1372 0.999 . S
C1370 H1340 0.950 . S
C1370 C1369 1.524 . S
C1370 C1371 1.415 . S
C1371 H1341 0.950 . S
C1371 C1366 1.363 . S
C1371 C1370 1.415 . S
H1372 C1369 0.999 . S
H1373 C1354 0.913 . S
H1374 C1392 0.951 . S
H1375 C1394 0.951 . S
H1376 C1396 0.950 . S
H1377 C1397 0.950 . S
H1378 C1399 0.950 . S
H1379 C1402 0.950 . S
H1380 C1403 0.950 . S
H1381 C1405 0.950 . S
H1382 C1406 0.950 . S
H1383 C1407 0.951 . S
H1384 C1409 0.951 . S
H1385 C1411 0.950 . S
H1386 C1412 0.950 . S
H1387 C1414 0.950 . S
H1388 C1417 0.950 . S
H1389 C1418 0.950 . S
H1390 C1420 0.950 . S
H1391 C1421 0.950 . S
C1392 H1374 0.951 . S
C1392 C1393 1.366 . S
C1392 C1394 1.388 . S
C1393 C1392 1.366 . S
C1393 C1397 1.385 . S
C1394 H1375 0.951 . S
C1394 C1392 1.388 . S
C1394 C1395 1.366 . S
C1395 C1394 1.366 . S
C1395 C1396 1.414 . S
C1395 C1398 1.499 . S
C1396 H1376 0.950 . S
C1396 C1395 1.414 . S
C1396 C1397 1.374 . S
C1397 H1377 0.950 . S
C1397 C1393 1.385 . S
C1397 C1396 1.374 . S
C1398 C1395 1.499 . S
C1398 C1399 1.373 . S
C1398 C1400 1.389 . S
C1399 H1378 0.950 . S
C1399 C1398 1.373 . S
C1399 C1415 1.377 . S
C1400 C1398 1.389 . S
C1400 C1401 1.524 . S
C1400 C1414 1.377 . S
C1401 C1400 1.524 . S
C1401 C1402 1.397 . S
C1401 C1406 1.363 . S
C1402 H1379 0.950 . S
C1402 C1401 1.397 . S
C1402 C1403 1.334 . S
C1403 H1380 0.950 . S
C1403 C1402 1.334 . S
C1403 C1404 1.287 . S
C1404 C1403 1.287 . S
C1404 C1405 1.524 . S
C1404 H1423 0.913 . S
C1405 H1381 0.950 . S
C1405 C1404 1.524 . S
C1405 C1406 1.415 . S
C1406 H1382 0.950 . S
C1406 C1401 1.363 . S
C1406 C1405 1.415 . S
C1407 H1383 0.951 . S
C1407 C1408 1.366 . S
C1407 C1409 1.388 . S
C1408 C1407 1.366 . S
C1408 C1412 1.385 . S
C1409 H1384 0.951 . S
C1409 C1407 1.388 . S
C1409 C1410 1.366 . S
C1410 C1409 1.366 . S
C1410 C1411 1.414 . S
C1410 C1413 1.499 . S
C1411 H1385 0.950 . S
C1411 C1410 1.414 . S
C1411 C1412 1.374 . S
C1412 H1386 0.950 . S
C1412 C1408 1.385 . S
C1412 C1411 1.374 . S
C1413 C1410 1.499 . S
C1413 C1414 1.373 . S
C1413 C1415 1.389 . S
C1414 H1387 0.950 . S
C1414 C1400 1.377 . S
C1414 C1413 1.373 . S
C1415 C1399 1.377 . S
C1415 C1413 1.389 . S
C1415 C1416 1.524 . S
C1416 C1415 1.524 . S
C1416 C1417 1.397 . S
C1416 C1421 1.363 . S
C1417 H1388 0.950 . S
C1417 C1416 1.397 . S
C1417 C1418 1.334 . S
C1418 H1389 0.950 . S
C1418 C1417 1.334 . S
C1418 C1419 1.287 . S
C1419 C1418 1.287 . S
C1419 C1420 1.524 . S
C1419 H1422 0.999 . S
C1420 H1390 0.950 . S
C1420 C1419 1.524 . S
C1420 C1421 1.415 . S
C1421 H1391 0.950 . S
C1421 C1416 1.363 . S
C1421 C1420 1.415 . S
H1422 C1419 0.999 . S
H1423 C1404 0.913 . S
H1424 C1442 0.951 . S
H1425 C1444 0.951 . S
H1426 C1446 0.950 . S
H1427 C1447 0.950 1_565 S
H1428 C1449 0.950 . S
H1429 C1452 0.950 . S
H1430 C1453 0.950 . S
H1431 C1455 0.950 . S
H1432 C1456 0.950 . S
H1433 C1457 0.951 . S
H1434 C1459 0.951 . S
H1435 C1461 0.950 . S
H1436 C1462 0.950 . S
H1437 C1464 0.950 . S
H1438 C1467 0.950 . S
H1439 C1468 0.950 . S
H1440 C1470 0.950 . S
H1441 C1471 0.950 . S
C1442 H1424 0.951 . S
C1442 C1443 1.366 . S
C1442 C1444 1.388 . S
C1443 C1442 1.366 . S
C1443 C1447 1.385 . S
C1444 H1425 0.951 . S
C1444 C1442 1.388 . S
C1444 C1445 1.366 1_545 S
C1445 C1444 1.366 1_565 S
C1445 C1446 1.414 . S
C1445 C1448 1.499 . S
C1446 H1426 0.950 . S
C1446 C1445 1.414 . S
C1446 C1447 1.374 1_565 S
C1447 H1427 0.950 1_545 S
C1447 C1443 1.385 . S
C1447 C1446 1.374 1_545 S
C1448 C1445 1.499 . S
C1448 C1449 1.373 . S
C1448 C1450 1.389 . S
C1449 H1428 0.950 . S
C1449 C1448 1.373 . S
C1449 C1465 1.377 . S
C1450 C1448 1.389 . S
C1450 C1451 1.524 . S
C1450 C1464 1.377 . S
C1451 C1450 1.524 . S
C1451 C1452 1.397 . S
C1451 C1456 1.363 1_565 S
C1452 H1429 0.950 . S
C1452 C1451 1.397 . S
C1452 C1453 1.334 1_565 S
C1453 H1430 0.950 . S
C1453 C1452 1.334 1_545 S
C1453 C1454 1.287 . S
C1454 C1453 1.287 . S
C1454 C1455 1.524 . S
C1454 H1473 0.913 . S
C1455 H1431 0.950 . S
C1455 C1454 1.524 . S
C1455 C1456 1.415 . S
C1456 H1432 0.950 . S
C1456 C1451 1.363 1_545 S
C1456 C1455 1.415 . S
C1457 H1433 0.951 . S
C1457 C1458 1.366 . S
C1457 C1459 1.388 . S
C1458 C1457 1.366 . S
C1458 C1462 1.385 . S
C1459 H1434 0.951 . S
C1459 C1457 1.388 . S
C1459 C1460 1.366 . S
C1460 C1459 1.366 . S
C1460 C1461 1.414 . S
C1460 C1463 1.499 . S
C1461 H1435 0.950 . S
C1461 C1460 1.414 . S
C1461 C1462 1.374 . S
C1462 H1436 0.950 . S
C1462 C1458 1.385 . S
C1462 C1461 1.374 . S
C1463 C1460 1.499 . S
C1463 C1464 1.373 . S
C1463 C1465 1.389 . S
C1464 H1437 0.950 . S
C1464 C1450 1.377 . S
C1464 C1463 1.373 . S
C1465 C1449 1.377 . S
C1465 C1463 1.389 . S
C1465 C1466 1.524 . S
C1466 C1465 1.524 . S
C1466 C1467 1.397 . S
C1466 C1471 1.363 . S
C1467 H1438 0.950 . S
C1467 C1466 1.397 . S
C1467 C1468 1.334 . S
C1468 H1439 0.950 . S
C1468 C1467 1.334 . S
C1468 C1469 1.287 . S
C1469 C1468 1.287 . S
C1469 C1470 1.524 . S
C1469 H1472 0.999 . S
C1470 H1440 0.950 . S
C1470 C1469 1.524 . S
C1470 C1471 1.415 . S
C1471 H1441 0.950 . S
C1471 C1466 1.363 . S
C1471 C1470 1.415 . S
H1472 C1469 0.999 . S
H1473 C1454 0.913 . S
H1474 C1492 0.951 . S
H1475 C1494 0.951 . S
H1476 C1496 0.950 . S
H1477 C1497 0.950 . S
H1478 C1499 0.950 . S
H1479 C1502 0.950 . S
H1480 C1503 0.950 . S
H1481 C1505 0.950 . S
H1482 C1506 0.950 . S
H1483 C1507 0.951 . S
H1484 C1509 0.951 . S
H1485 C1511 0.950 . S
H1486 C1512 0.950 . S
H1487 C1514 0.950 . S
H1488 C1517 0.950 . S
H1489 C1518 0.950 . S
H1490 C1520 0.950 . S
H1491 C1521 0.950 . S
C1492 H1474 0.951 . S
C1492 C1493 1.366 . S
C1492 C1494 1.388 . S
C1493 C1492 1.366 . S
C1493 C1497 1.385 . S
C1494 H1475 0.951 . S
C1494 C1492 1.388 . S
C1494 C1495 1.366 . S
C1495 C1494 1.366 . S
C1495 C1496 1.414 . S
C1495 C1498 1.499 . S
C1496 H1476 0.950 . S
C1496 C1495 1.414 . S
C1496 C1497 1.374 . S
C1497 H1477 0.950 . S
C1497 C1493 1.385 . S
C1497 C1496 1.374 . S
C1498 C1495 1.499 . S
C1498 C1499 1.373 . S
C1498 C1500 1.389 . S
C1499 H1478 0.950 . S
C1499 C1498 1.373 . S
C1499 C1515 1.377 . S
C1500 C1498 1.389 . S
C1500 C1501 1.524 . S
C1500 C1514 1.377 . S
C1501 C1500 1.524 . S
C1501 C1502 1.397 . S
C1501 C1506 1.363 . S
C1502 H1479 0.950 . S
C1502 C1501 1.397 . S
C1502 C1503 1.334 . S
C1503 H1480 0.950 . S
C1503 C1502 1.334 . S
C1503 C1504 1.287 . S
C1504 C1503 1.287 . S
C1504 C1505 1.524 . S
C1504 H1523 0.913 . S
C1505 H1481 0.950 . S
C1505 C1504 1.524 . S
C1505 C1506 1.415 . S
C1506 H1482 0.950 . S
C1506 C1501 1.363 . S
C1506 C1505 1.415 . S
C1507 H1483 0.951 . S
C1507 C1508 1.366 . S
C1507 C1509 1.388 . S
C1508 C1507 1.366 . S
C1508 C1512 1.385 . S
C1509 H1484 0.951 . S
C1509 C1507 1.388 . S
C1509 C1510 1.366 . S
C1510 C1509 1.366 . S
C1510 C1511 1.414 . S
C1510 C1513 1.499 . S
C1511 H1485 0.950 . S
C1511 C1510 1.414 . S
C1511 C1512 1.374 . S
C1512 H1486 0.950 . S
C1512 C1508 1.385 . S
C1512 C1511 1.374 . S
C1513 C1510 1.499 . S
C1513 C1514 1.373 . S
C1513 C1515 1.389 . S
C1514 H1487 0.950 . S
C1514 C1500 1.377 . S
C1514 C1513 1.373 . S
C1515 C1499 1.377 . S
C1515 C1513 1.389 . S
C1515 C1516 1.524 . S
C1516 C1515 1.524 . S
C1516 C1517 1.397 . S
C1516 C1521 1.363 . S
C1517 H1488 0.950 . S
C1517 C1516 1.397 . S
C1517 C1518 1.334 . S
C1518 H1489 0.950 . S
C1518 C1517 1.334 . S
C1518 C1519 1.287 . S
C1519 C1518 1.287 . S
C1519 C1520 1.524 . S
C1519 H1522 0.999 . S
C1520 H1490 0.950 . S
C1520 C1519 1.524 . S
C1520 C1521 1.415 . S
C1521 H1491 0.950 . S
C1521 C1516 1.363 . S
C1521 C1520 1.415 . S
H1522 C1519 0.999 . S
H1523 C1504 0.913 . S
H1524 C1542 0.951 . S
H1525 C1544 0.951 . S
H1526 C1546 0.950 . S
H1527 C1547 0.950 . S
H1528 C1549 0.950 . S
H1529 C1552 0.950 . S
H1530 C1553 0.950 . S
H1531 C1555 0.950 . S
H1532 C1556 0.950 . S
H1533 C1557 0.951 . S
H1534 C1559 0.951 . S
H1535 C1561 0.950 . S
H1536 C1562 0.950 . S
H1537 C1564 0.950 . S
H1538 C1567 0.950 . S
H1539 C1568 0.950 1_655 S
H1540 C1570 0.950 . S
H1541 C1571 0.950 . S
C1542 H1524 0.951 . S
C1542 C1543 1.366 . S
C1542 C1544 1.388 . S
C1543 C1542 1.366 . S
C1543 C1547 1.385 . S
C1544 H1525 0.951 . S
C1544 C1542 1.388 . S
C1544 C1545 1.366 . S
C1545 C1544 1.366 . S
C1545 C1546 1.414 . S
C1545 C1548 1.499 . S
C1546 H1526 0.950 . S
C1546 C1545 1.414 . S
C1546 C1547 1.374 . S
C1547 H1527 0.950 . S
C1547 C1543 1.385 . S
C1547 C1546 1.374 . S
C1548 C1545 1.499 . S
C1548 C1549 1.373 . S
C1548 C1550 1.389 . S
C1549 H1528 0.950 . S
C1549 C1548 1.373 . S
C1549 C1565 1.377 . S
C1550 C1548 1.389 . S
C1550 C1551 1.524 . S
C1550 C1564 1.377 . S
C1551 C1550 1.524 . S
C1551 C1552 1.397 . S
C1551 C1556 1.363 . S
C1552 H1529 0.950 . S
C1552 C1551 1.397 . S
C1552 C1553 1.334 . S
C1553 H1530 0.950 . S
C1553 C1552 1.334 . S
C1553 C1554 1.287 . S
C1554 C1553 1.287 . S
C1554 C1555 1.524 . S
C1554 H1573 0.913 . S
C1555 H1531 0.950 . S
C1555 C1554 1.524 . S
C1555 C1556 1.415 . S
C1556 H1532 0.950 . S
C1556 C1551 1.363 . S
C1556 C1555 1.415 . S
C1557 H1533 0.951 . S
C1557 C1558 1.366 . S
C1557 C1559 1.388 1_655 S
C1558 C1557 1.366 . S
C1558 C1562 1.385 . S
C1559 H1534 0.951 . S
C1559 C1557 1.388 1_455 S
C1559 C1560 1.366 . S
C1560 C1559 1.366 . S
C1560 C1561 1.414 1_455 S
C1560 C1563 1.499 . S
C1561 H1535 0.950 . S
C1561 C1560 1.414 1_655 S
C1561 C1562 1.374 . S
C1562 H1536 0.950 . S
C1562 C1558 1.385 . S
C1562 C1561 1.374 . S
C1563 C1560 1.499 . S
C1563 C1564 1.373 . S
C1563 C1565 1.389 . S
C1564 H1537 0.950 . S
C1564 C1550 1.377 . S
C1564 C1563 1.373 . S
C1565 C1549 1.377 . S
C1565 C1563 1.389 . S
C1565 C1566 1.524 . S
C1566 C1565 1.524 . S
C1566 C1567 1.397 . S
C1566 C1571 1.363 . S
C1567 H1538 0.950 . S
C1567 C1566 1.397 . S
C1567 C1568 1.334 . S
C1568 H1539 0.950 1_455 S
C1568 C1567 1.334 . S
C1568 C1569 1.287 . S
C1569 C1568 1.287 . S
C1569 C1570 1.524 . S
C1569 H1572 0.999 . S
C1570 H1540 0.950 . S
C1570 C1569 1.524 . S
C1570 C1571 1.415 . S
C1571 H1541 0.950 . S
C1571 C1566 1.363 . S
C1571 C1570 1.415 . S
H1572 C1569 0.999 . S
H1573 C1554 0.913 . S
H1574 C1592 0.951 1_545 S
H1575 C1594 0.951 . S
H1576 C1596 0.950 . S
H1577 C1597 0.950 . S
H1578 C1599 0.950 . S
H1579 C1602 0.950 . S
H1580 C1603 0.950 . S
H1581 C1605 0.950 . S
H1582 C1606 0.950 . S
H1583 C1607 0.951 . S
H1584 C1609 0.951 . S
H1585 C1611 0.950 . S
H1586 C1612 0.950 1_655 S
H1587 C1614 0.950 . S
H1588 C1617 0.950 . S
H1589 C1618 0.949 1_455 S
H1590 C1620 0.950 . S
H1591 C1621 0.950 . S
C1592 H1574 0.951 1_565 S
C1592 C1593 1.366 . S
C1592 C1594 1.388 1_565 S
C1593 C1592 1.366 . S
C1593 C1597 1.385 . S
C1594 H1575 0.951 . S
C1594 C1592 1.388 1_545 S
C1594 C1595 1.366 . S
C1595 C1594 1.366 . S
C1595 C1596 1.414 1_545 S
C1595 C1598 1.499 . S
C1596 H1576 0.950 . S
C1596 C1595 1.414 1_565 S
C1596 C1597 1.374 . S
C1597 H1577 0.950 . S
C1597 C1593 1.385 . S
C1597 C1596 1.374 . S
C1598 C1595 1.499 . S
C1598 C1599 1.373 . S
C1598 C1600 1.389 . S
C1599 H1578 0.950 . S
C1599 C1598 1.373 . S
C1599 C1615 1.377 . S
C1600 C1598 1.389 . S
C1600 C1601 1.524 . S
C1600 C1614 1.377 . S
C1601 C1600 1.524 . S
C1601 C1602 1.397 . S
C1601 C1606 1.363 . S
C1602 H1579 0.950 . S
C1602 C1601 1.397 . S
C1602 C1603 1.334 . S
C1603 H1580 0.950 . S
C1603 C1602 1.334 . S
C1603 C1604 1.287 . S
C1604 C1603 1.287 . S
C1604 C1605 1.524 . S
C1604 H1623 0.913 . S
C1605 H1581 0.950 . S
C1605 C1604 1.524 . S
C1605 C1606 1.415 . S
C1606 H1582 0.950 . S
C1606 C1601 1.363 . S
C1606 C1605 1.415 . S
C1607 H1583 0.951 . S
C1607 C1608 1.366 . S
C1607 C1609 1.388 . S
C1608 C1607 1.366 . S
C1608 C1612 1.385 . S
C1609 H1584 0.951 . S
C1609 C1607 1.388 . S
C1609 C1610 1.366 1_455 S
C1610 C1609 1.366 1_655 S
C1610 C1611 1.414 . S
C1610 C1613 1.499 . S
C1611 H1585 0.950 . S
C1611 C1610 1.414 . S
C1611 C1612 1.374 1_655 S
C1612 H1586 0.950 1_455 S
C1612 C1608 1.385 . S
C1612 C1611 1.374 1_455 S
C1613 C1610 1.499 . S
C1613 C1614 1.373 . S
C1613 C1615 1.389 . S
C1614 H1587 0.950 . S
C1614 C1600 1.377 . S
C1614 C1613 1.373 . S
C1615 C1599 1.377 . S
C1615 C1613 1.389 . S
C1615 C1616 1.524 . S
C1616 C1615 1.524 . S
C1616 C1617 1.397 . S
C1616 C1621 1.363 . S
C1617 H1588 0.950 . S
C1617 C1616 1.397 . S
C1617 C1618 1.347 . S
C1618 H1589 0.949 1_655 S
C1618 C1617 1.347 . S
C1618 C1619 1.276 1_655 S
C1619 C1618 1.276 1_455 S
C1619 C1620 1.524 . S
C1619 H1622 0.999 . S
C1620 H1590 0.950 . S
C1620 C1619 1.524 . S
C1620 C1621 1.415 1_455 S
C1621 H1591 0.950 . S
C1621 C1616 1.363 . S
C1621 C1620 1.415 1_655 S
H1622 C1619 0.999 . S
H1623 C1604 0.913 . S
H1624 C1642 0.951 . S
H1625 C1644 0.951 . S
H1626 C1646 0.950 . S
H1627 C1647 0.950 . S
H1628 C1649 0.950 . S
H1629 C1652 0.950 . S
H1630 C1653 0.950 . S
H1631 C1655 0.950 . S
H1632 C1656 0.950 . S
H1633 C1657 0.951 . S
H1634 C1659 0.951 . S
H1635 C1661 0.950 . S
H1636 C1662 0.950 . S
H1637 C1664 0.950 . S
H1638 C1667 0.950 . S
H1639 C1668 0.950 . S
H1640 C1670 0.950 . S
H1641 C1671 0.950 . S
C1642 H1624 0.951 . S
C1642 C1643 1.366 . S
C1642 C1644 1.388 . S
C1643 C1642 1.366 . S
C1643 C1647 1.385 . S
C1644 H1625 0.951 . S
C1644 C1642 1.388 . S
C1644 C1645 1.366 . S
C1645 C1644 1.366 . S
C1645 C1646 1.414 . S
C1645 C1648 1.499 . S
C1646 H1626 0.950 . S
C1646 C1645 1.414 . S
C1646 C1647 1.374 . S
C1647 H1627 0.950 . S
C1647 C1643 1.385 . S
C1647 C1646 1.374 . S
C1648 C1645 1.499 . S
C1648 C1649 1.373 . S
C1648 C1650 1.389 . S
C1649 H1628 0.950 . S
C1649 C1648 1.373 . S
C1649 C1665 1.377 . S
C1650 C1648 1.389 . S
C1650 C1651 1.524 . S
C1650 C1664 1.377 . S
C1651 C1650 1.524 . S
C1651 C1652 1.397 . S
C1651 C1656 1.363 . S
C1652 H1629 0.950 . S
C1652 C1651 1.397 . S
C1652 C1653 1.334 . S
C1653 H1630 0.950 . S
C1653 C1652 1.334 . S
C1653 C1654 1.287 . S
C1654 C1653 1.287 . S
C1654 C1655 1.524 . S
C1654 H1673 0.913 . S
C1655 H1631 0.950 . S
C1655 C1654 1.524 . S
C1655 C1656 1.415 . S
C1656 H1632 0.950 . S
C1656 C1651 1.363 . S
C1656 C1655 1.415 . S
C1657 H1633 0.951 . S
C1657 C1658 1.366 . S
C1657 C1659 1.388 . S
C1658 C1657 1.366 . S
C1658 C1662 1.385 . S
C1659 H1634 0.951 . S
C1659 C1657 1.388 . S
C1659 C1660 1.366 . S
C1660 C1659 1.366 . S
C1660 C1661 1.414 . S
C1660 C1663 1.499 . S
C1661 H1635 0.950 . S
C1661 C1660 1.414 . S
C1661 C1662 1.374 . S
C1662 H1636 0.950 . S
C1662 C1658 1.385 . S
C1662 C1661 1.374 . S
C1663 C1660 1.499 . S
C1663 C1664 1.373 . S
C1663 C1665 1.389 . S
C1664 H1637 0.950 . S
C1664 C1650 1.377 . S
C1664 C1663 1.373 . S
C1665 C1649 1.377 . S
C1665 C1663 1.389 . S
C1665 C1666 1.524 . S
C1666 C1665 1.524 . S
C1666 C1667 1.397 . S
C1666 C1671 1.363 . S
C1667 H1638 0.950 . S
C1667 C1666 1.397 . S
C1667 C1668 1.334 . S
C1668 H1639 0.950 . S
C1668 C1667 1.334 . S
C1668 C1669 1.287 . S
C1669 C1668 1.287 . S
C1669 C1670 1.524 . S
C1669 H1672 0.999 . S
C1670 H1640 0.950 . S
C1670 C1669 1.524 . S
C1670 C1671 1.415 . S
C1671 H1641 0.950 . S
C1671 C1666 1.363 . S
C1671 C1670 1.415 . S
H1672 C1669 0.999 . S
H1673 C1654 0.913 . S
H1674 C1692 0.951 . S
H1675 C1694 0.951 . S
H1676 C1696 0.950 . S
H1677 C1697 0.950 . S
H1678 C1699 0.950 . S
H1679 C1702 0.936 1_455 S
H1680 C1703 0.950 . S
H1681 C1705 0.950 . S
H1682 C1706 0.950 . S
H1683 C1707 0.951 . S
H1684 C1709 0.951 . S
H1685 C1711 0.950 . S
H1686 C1712 0.950 . S
H1687 C1714 0.950 . S
H1688 C1717 0.950 . S
H1689 C1718 0.950 . S
H1690 C1720 0.950 . S
H1691 C1721 0.950 . S
C1692 H1674 0.951 . S
C1692 C1693 1.366 . S
C1692 C1694 1.388 1_455 S
C1693 C1692 1.366 . S
C1693 C1697 1.385 . S
C1694 H1675 0.951 . S
C1694 C1692 1.388 1_655 S
C1694 C1695 1.366 . S
C1695 C1694 1.366 . S
C1695 C1696 1.414 1_655 S
C1695 C1698 1.499 . S
C1696 H1676 0.950 . S
C1696 C1695 1.414 1_455 S
C1696 C1697 1.374 . S
C1697 H1677 0.950 . S
C1697 C1693 1.385 . S
C1697 C1696 1.374 . S
C1698 C1695 1.499 . S
C1698 C1699 1.373 . S
C1698 C1700 1.389 . S
C1699 H1678 0.950 . S
C1699 C1698 1.373 . S
C1699 C1715 1.377 . S
C1700 C1698 1.389 . S
C1700 C1701 1.524 . S
C1700 C1714 1.377 . S
C1701 C1700 1.524 . S
C1701 C1702 1.422 . S
C1701 C1706 1.363 . S
C1702 H1679 0.936 1_655 S
C1702 C1701 1.422 . S
C1702 C1703 1.322 1_655 S
C1703 H1680 0.950 . S
C1703 C1702 1.322 1_455 S
C1703 C1704 1.287 1_455 S
C1704 C1703 1.287 1_655 S
C1704 C1705 1.524 . S
C1704 H1723 0.913 1_655 S
C1705 H1681 0.950 . S
C1705 C1704 1.524 . S
C1705 C1706 1.415 . S
C1706 H1682 0.950 . S
C1706 C1701 1.363 . S
C1706 C1705 1.415 . S
C1707 H1683 0.951 . S
C1707 C1708 1.366 . S
C1707 C1709 1.388 . S
C1708 C1707 1.366 . S
C1708 C1712 1.385 . S
C1709 H1684 0.951 . S
C1709 C1707 1.388 . S
C1709 C1710 1.366 . S
C1710 C1709 1.366 . S
C1710 C1711 1.414 . S
C1710 C1713 1.499 . S
C1711 H1685 0.950 . S
C1711 C1710 1.414 . S
C1711 C1712 1.374 . S
C1712 H1686 0.950 . S
C1712 C1708 1.385 . S
C1712 C1711 1.374 . S
C1713 C1710 1.499 . S
C1713 C1714 1.373 . S
C1713 C1715 1.389 . S
C1714 H1687 0.950 . S
C1714 C1700 1.377 . S
C1714 C1713 1.373 . S
C1715 C1699 1.377 . S
C1715 C1713 1.389 . S
C1715 C1716 1.524 . S
C1716 C1715 1.524 . S
C1716 C1717 1.397 . S
C1716 C1721 1.363 . S
C1717 H1688 0.950 . S
C1717 C1716 1.397 . S
C1717 C1718 1.334 . S
C1718 H1689 0.950 . S
C1718 C1717 1.334 . S
C1718 C1719 1.287 . S
C1719 C1718 1.287 . S
C1719 C1720 1.524 . S
C1719 H1722 0.999 . S
C1720 H1690 0.950 . S
C1720 C1719 1.524 . S
C1720 C1721 1.415 . S
C1721 H1691 0.950 . S
C1721 C1716 1.363 . S
C1721 C1720 1.415 . S
H1722 C1719 0.999 . S
H1723 C1704 0.913 1_455 S
H1724 C1742 0.951 . S
H1725 C1744 0.951 . S
H1726 C1746 0.950 . S
H1727 C1747 0.950 1_455 S
H1728 C1749 0.950 . S
H1729 C1752 0.950 . S
H1730 C1753 0.951 . S
H1731 C1755 0.950 . S
H1732 C1756 0.950 . S
H1733 C1757 0.951 1_565 S
H1734 C1759 0.951 . S
H1735 C1761 0.950 . S
H1736 C1762 0.950 . S
H1737 C1764 0.950 . S
H1738 C1767 0.950 . S
H1739 C1768 0.950 . S
H1740 C1770 0.950 . S
H1741 C1771 0.950 . S
C1742 H1724 0.951 . S
C1742 C1743 1.366 . S
C1742 C1744 1.388 . S
C1743 C1742 1.366 . S
C1743 C1747 1.385 . S
C1744 H1725 0.951 . S
C1744 C1742 1.388 . S
C1744 C1745 1.366 1_655 S
C1745 C1744 1.366 1_455 S
C1745 C1746 1.414 . S
C1745 C1748 1.499 . S
C1746 H1726 0.950 . S
C1746 C1745 1.414 . S
C1746 C1747 1.374 1_455 S
C1747 H1727 0.950 1_655 S
C1747 C1743 1.385 . S
C1747 C1746 1.374 1_655 S
C1748 C1745 1.499 . S
C1748 C1749 1.373 . S
C1748 C1750 1.389 . S
C1749 H1728 0.950 . S
C1749 C1748 1.373 . S
C1749 C1765 1.377 . S
C1750 C1748 1.389 . S
C1750 C1751 1.524 . S
C1750 C1764 1.377 . S
C1751 C1750 1.524 . S
C1751 C1752 1.397 . S
C1751 C1756 1.363 . S
C1752 H1729 0.950 . S
C1752 C1751 1.397 . S
C1752 C1753 1.330 1_455 S
C1753 H1730 0.951 . S
C1753 C1752 1.330 1_655 S
C1753 C1754 1.291 . S
C1754 C1753 1.291 . S
C1754 C1755 1.524 . S
C1754 H1773 0.913 . S
C1755 H1731 0.950 . S
C1755 C1754 1.524 . S
C1755 C1756 1.415 1_655 S
C1756 H1732 0.950 . S
C1756 C1751 1.363 . S
C1756 C1755 1.415 1_455 S
C1757 H1733 0.951 1_545 S
C1757 C1758 1.366 . S
C1757 C1759 1.388 1_545 S
C1758 C1757 1.366 . S
C1758 C1762 1.385 . S
C1759 H1734 0.951 . S
C1759 C1757 1.388 1_565 S
C1759 C1760 1.366 . S
C1760 C1759 1.366 . S
C1760 C1761 1.414 1_565 S
C1760 C1763 1.499 . S
C1761 H1735 0.950 . S
C1761 C1760 1.414 1_545 S
C1761 C1762 1.374 . S
C1762 H1736 0.950 . S
C1762 C1758 1.385 . S
C1762 C1761 1.374 . S
C1763 C1760 1.499 . S
C1763 C1764 1.373 . S
C1763 C1765 1.389 . S
C1764 H1737 0.950 . S
C1764 C1750 1.377 . S
C1764 C1763 1.373 . S
C1765 C1749 1.377 . S
C1765 C1763 1.389 . S
C1765 C1766 1.524 . S
C1766 C1765 1.524 . S
C1766 C1767 1.397 . S
C1766 C1771 1.363 . S
C1767 H1738 0.950 . S
C1767 C1766 1.397 . S
C1767 C1768 1.334 . S
C1768 H1739 0.950 . S
C1768 C1767 1.334 . S
C1768 C1769 1.287 . S
C1769 C1768 1.287 . S
C1769 C1770 1.524 . S
C1769 H1772 0.999 . S
C1770 H1740 0.950 . S
C1770 C1769 1.524 . S
C1770 C1771 1.415 . S
C1771 H1741 0.950 . S
C1771 C1766 1.363 . S
C1771 C1770 1.415 . S
H1772 C1769 0.999 . S
H1773 C1754 0.913 . S
H1774 C1792 0.951 . S
H1775 C1794 0.951 . S
H1776 C1796 0.950 . S
H1777 C1797 0.950 . S
H1778 C1799 0.950 . S
H1779 C1802 0.950 . S
H1780 C1803 0.950 . S
H1781 C1805 0.950 . S
H1782 C1806 0.950 . S
H1783 C1807 0.951 . S
H1784 C1809 0.951 . S
H1785 C1811 0.950 . S
H1786 C1812 0.950 . S
H1787 C1814 0.950 . S
H1788 C1817 0.950 . S
H1789 C1818 0.950 . S
H1790 C1820 0.950 . S
H1791 C1821 0.950 . S
C1792 H1774 0.951 . S
C1792 C1793 1.366 . S
C1792 C1794 1.388 . S
C1793 C1792 1.366 . S
C1793 C1797 1.385 . S
C1794 H1775 0.951 . S
C1794 C1792 1.388 . S
C1794 C1795 1.366 1_565 S
C1795 C1794 1.366 1_545 S
C1795 C1796 1.414 . S
C1795 C1798 1.499 . S
C1796 H1776 0.950 . S
C1796 C1795 1.414 . S
C1796 C1797 1.374 1_545 S
C1797 H1777 0.950 . S
C1797 C1793 1.385 . S
C1797 C1796 1.374 1_565 S
C1798 C1795 1.499 . S
C1798 C1799 1.373 . S
C1798 C1800 1.389 . S
C1799 H1778 0.950 . S
C1799 C1798 1.373 . S
C1799 C1815 1.377 . S
C1800 C1798 1.389 . S
C1800 C1801 1.524 1_545 S
C1800 C1814 1.377 . S
C1801 C1800 1.524 1_565 S
C1801 C1802 1.397 . S
C1801 C1806 1.363 . S
C1802 H1779 0.950 . S
C1802 C1801 1.397 . S
C1802 C1803 1.334 . S
C1803 H1780 0.950 . S
C1803 C1802 1.334 . S
C1803 C1804 1.287 . S
C1804 C1803 1.287 . S
C1804 C1805 1.524 . S
C1804 H1823 0.913 . S
C1805 H1781 0.950 . S
C1805 C1804 1.524 . S
C1805 C1806 1.415 . S
C1806 H1782 0.950 . S
C1806 C1801 1.363 . S
C1806 C1805 1.415 . S
C1807 H1783 0.951 . S
C1807 C1808 1.366 . S
C1807 C1809 1.388 . S
C1808 C1807 1.366 . S
C1808 C1812 1.385 . S
C1809 H1784 0.951 . S
C1809 C1807 1.388 . S
C1809 C1810 1.366 . S
C1810 C1809 1.366 . S
C1810 C1811 1.414 . S
C1810 C1813 1.499 . S
C1811 H1785 0.950 . S
C1811 C1810 1.414 . S
C1811 C1812 1.374 . S
C1812 H1786 0.950 . S
C1812 C1808 1.385 . S
C1812 C1811 1.374 . S
C1813 C1810 1.499 . S
C1813 C1814 1.373 . S
C1813 C1815 1.389 . S
C1814 H1787 0.950 . S
C1814 C1800 1.377 . S
C1814 C1813 1.373 . S
C1815 C1799 1.377 . S
C1815 C1813 1.389 . S
C1815 C1816 1.524 . S
C1816 C1815 1.524 . S
C1816 C1817 1.397 . S
C1816 C1821 1.363 . S
C1817 H1788 0.950 . S
C1817 C1816 1.397 . S
C1817 C1818 1.334 . S
C1818 H1789 0.950 . S
C1818 C1817 1.334 . S
C1818 C1819 1.287 . S
C1819 C1818 1.287 . S
C1819 C1820 1.524 . S
C1819 H1822 0.999 . S
C1820 H1790 0.950 . S
C1820 C1819 1.524 . S
C1820 C1821 1.415 . S
C1821 H1791 0.950 . S
C1821 C1816 1.363 . S
C1821 C1820 1.415 . S
H1822 C1819 0.999 . S
H1823 C1804 0.913 . S
C243 C110 1.608 . S
C258 C0 1.609 . S
C293 C57 1.608 . S
C308 C15 1.609 . S
C343 C83 1.609 . S
C358 C29 1.608 . S
C393 C55 1.608 . S
C408 C97 1.608 . S
C443 C223 1.608 . S
C458 C112 1.609 . S
C493 C169 1.608 . S
C508 C126 1.609 . S
C543 C152 1.609 . S
C558 C183 1.608 . S
C593 C166 1.608 . S
C608 C196 1.608 . S
C643 C41 1.393 . S
C658 C12 1.394 . S
C693 C27 1.393 . S
C708 C43 1.393 . S
C743 C69 1.393 . S
C758 C85 1.393 . S
C793 C98 1.394 . S
C808 C71 1.393 . S
C843 C124 1.393 . S
C858 C140 1.393 . S
C893 C138 1.393 . S
C908 C154 1.393 . S
C943 C208 1.393 . S
C958 C181 1.394 . S
C993 C195 1.394 . S
C1008 C211 1.394 . S
C1043 C96 1.621 . S
C1058 C1 1.620 . S
C1093 C14 1.621 . S
C1108 C111 1.620 . S
C1143 C28 1.621 . S
C1158 C56 1.621 . S
C1193 C54 1.621 . S
C1208 C82 1.621 . S
C1243 C113 1.621 . S
C1258 C197 1.621 . S
C1293 C127 1.621 . S
C1308 C222 1.620 . S
C1343 C153 1.621 . S
C1358 C168 1.621 . S
C1393 C167 1.621 . S
C1408 C182 1.620 . S
C1443 C13 1.559 . S
C1458 C210 1.559 . S
C1493 C180 1.559 . S
C1508 C26 1.560 . S
C1543 C40 1.560 . S
C1558 C194 1.559 . S
C1593 C209 1.560 . S
C1608 C42 1.560 . S
C1643 C139 1.560 . S
C1658 C68 1.560 . S
C1693 C70 1.560 . S
C1708 C141 1.560 . S
C1743 C155 1.560 . S
C1758 C84 1.560 . S
C1793 C125 1.560 . S
C1808 C99 1.559 . S
