# Generated by pormake.
# Topology uop, (4)-cn, num edge types: 1
# Building blocks:
#     Node 0, Type 0, BuildingBlock: NAWXER_clean_sbu_0, # of connection points: 4
#     Node 1, Type 0, BuildingBlock: NAWXER_clean_sbu_0, # of connection points: 4
#     Node 2, Type 0, BuildingBlock: NAWXER_clean_sbu_0, # of connection points: 4
#     Node 3, Type 0, BuildingBlock: NAWXER_clean_sbu_0, # of connection points: 4
#     Node 4, Type 0, BuildingBlock: NAWXER_clean_sbu_0, # of connection points: 4
#     Node 5, Type 0, BuildingBlock: NAWXER_clean_sbu_0, # of connection points: 4
#     Node 6, Type 0, BuildingBlock: NAWXER_clean_sbu_0, # of connection points: 4
#     Node 7, Type 0, BuildingBlock: NAWXER_clean_sbu_0, # of connection points: 4
#     Node 8, Type 0, BuildingBlock: NAWXER_clean_sbu_0, # of connection points: 4
#     Node 9, Type 0, BuildingBlock: NAWXER_clean_sbu_0, # of connection points: 4
#     Node 10, Type 0, BuildingBlock: NAWXER_clean_sbu_0, # of connection points: 4
#     Node 11, Type 0, BuildingBlock: NAWXER_clean_sbu_0, # of connection points: 4
#     Edge 12, Type (0, 0), BuildingBlock: EZIPEK_clean_linker_0, # of connection points: 2
#     Edge 13, Type (0, 0), BuildingBlock: EZIPEK_clean_linker_0, # of connection points: 2
#     Edge 14, Type (0, 0), BuildingBlock: EZIPEK_clean_linker_0, # of connection points: 2
#     Edge 15, Type (0, 0), BuildingBlock: EZIPEK_clean_linker_0, # of connection points: 2
#     Edge 16, Type (0, 0), BuildingBlock: EZIPEK_clean_linker_0, # of connection points: 2
#     Edge 17, Type (0, 0), BuildingBlock: EZIPEK_clean_linker_0, # of connection points: 2
#     Edge 18, Type (0, 0), BuildingBlock: EZIPEK_clean_linker_0, # of connection points: 2
#     Edge 19, Type (0, 0), BuildingBlock: EZIPEK_clean_linker_0, # of connection points: 2
#     Edge 20, Type (0, 0), BuildingBlock: EZIPEK_clean_linker_0, # of connection points: 2
#     Edge 21, Type (0, 0), BuildingBlock: EZIPEK_clean_linker_0, # of connection points: 2
#     Edge 22, Type (0, 0), BuildingBlock: EZIPEK_clean_linker_0, # of connection points: 2
#     Edge 23, Type (0, 0), BuildingBlock: EZIPEK_clean_linker_0, # of connection points: 2
#     Edge 24, Type (0, 0), BuildingBlock: EZIPEK_clean_linker_0, # of connection points: 2
#     Edge 25, Type (0, 0), BuildingBlock: EZIPEK_clean_linker_0, # of connection points: 2
#     Edge 26, Type (0, 0), BuildingBlock: EZIPEK_clean_linker_0, # of connection points: 2
#     Edge 27, Type (0, 0), BuildingBlock: EZIPEK_clean_linker_0, # of connection points: 2
#     Edge 28, Type (0, 0), BuildingBlock: EZIPEK_clean_linker_0, # of connection points: 2
#     Edge 29, Type (0, 0), BuildingBlock: EZIPEK_clean_linker_0, # of connection points: 2
#     Edge 30, Type (0, 0), BuildingBlock: EZIPEK_clean_linker_0, # of connection points: 2
#     Edge 31, Type (0, 0), BuildingBlock: EZIPEK_clean_linker_0, # of connection points: 2
#     Edge 32, Type (0, 0), BuildingBlock: EZIPEK_clean_linker_0, # of connection points: 2
#     Edge 33, Type (0, 0), BuildingBlock: EZIPEK_clean_linker_0, # of connection points: 2
#     Edge 34, Type (0, 0), BuildingBlock: EZIPEK_clean_linker_0, # of connection points: 2
#     Edge 35, Type (0, 0), BuildingBlock: EZIPEK_clean_linker_0, # of connection points: 2
# Relax obj value: 0.102
# Max RMSD: 0.272
# Mean RMSD: 0.272
data_MOF--net-uop--node1-NAWXER_clean_sbu_0--edge1-EZIPEK_clean_linker_0
_symmetry_space_group_name_H-M    P1
_symmetry_Int_Tables_number       1
_symmetry_cell_setting            triclinic
loop_
_symmetry_equiv_pos_as_xyz
'x, y, z'
_cell_length_a     24.474326
_cell_length_b     24.475478
_cell_length_c     33.963832
_cell_angle_alpha  90.079877
_cell_angle_beta   89.986607
_cell_angle_gamma 119.99786
loop_
_atom_site_label
_atom_site_type_symbol
_atom_site_fract_x
_atom_site_fract_y
_atom_site_fract_z
_atom_type_partial_charge
C0 C 0.2662 0.35649 0.27073 0.0
C1 C 0.24669 0.51721 0.19893 0.0
O2 O 0.26401 0.34701 0.23341 0.0
Zn3 Zn 0.25202 0.39105 0.18111 0.0
O4 O 0.25913 0.40087 0.28431 0.0
Zn5 Zn 0.2511 0.43349 0.2348 0.0
O6 O 0.15946 0.36436 0.21475 0.0
O7 O 0.17251 0.32951 0.15778 0.0
O8 O 0.24493 0.50863 0.23588 0.0
O9 O 0.25076 0.47815 0.17566 0.0
O10 O 0.32862 0.41276 0.15306 0.0
O11 O 0.34323 0.46576 0.20866 0.0
C12 C 0.13591 0.32974 0.18417 0.0
C13 C 0.36564 0.45337 0.17791 0.0
C14 C 0.80117 0.12947 0.52455 0.0
C15 C 0.9159 0.35915 0.52795 0.0
O16 O 0.78013 0.14998 0.55205 0.0
Zn17 Zn 0.80645 0.24132 0.57688 0.0
O18 O 0.84874 0.16859 0.50488 0.0
Zn19 Zn 0.85912 0.24514 0.52805 0.0
O20 O 0.90479 0.25367 0.58425 0.0
O21 O 0.83371 0.23903 0.6292 0.0
O22 O 0.92006 0.32214 0.50348 0.0
O23 O 0.87602 0.33653 0.55641 0.0
O24 O 0.72968 0.2424 0.57419 0.0
O25 O 0.77102 0.24456 0.51582 0.0
C26 C 0.88889 0.25089 0.6205 0.0
C27 C 0.72693 0.24357 0.53698 0.0
C28 C 0.65768 0.91598 0.93436 0.0
C29 C 0.49552 0.73956 0.86298 0.0
O30 O 0.66661 0.92566 0.89719 0.0
Zn31 Zn 0.62392 0.87031 0.8443 0.0
O32 O 0.61561 0.86263 0.94688 0.0
Zn33 Zn 0.5816 0.8255 0.89692 0.0
O34 O 0.64627 0.79855 0.87368 0.0
O35 O 0.68748 0.85627 0.82051 0.0
O36 O 0.50507 0.74737 0.89974 0.0
O37 O 0.53507 0.78066 0.83874 0.0
O38 O 0.60421 0.92659 0.81659 0.0
O39 O 0.55098 0.88842 0.87207 0.0
C40 C 0.68401 0.81488 0.84429 0.0
C41 C 0.56408 0.92361 0.84147 0.0
C42 C 0.76024 0.66609 0.27152 0.0
C43 C 0.75258 0.49708 0.19163 0.0
O44 O 0.75693 0.67587 0.23469 0.0
Zn45 Zn 0.75352 0.62833 0.17964 0.0
O46 O 0.75871 0.61541 0.28153 0.0
Zn47 Zn 0.75441 0.58133 0.23067 0.0
O48 O 0.84633 0.6458 0.20631 0.0
O49 O 0.83027 0.68907 0.15376 0.0
O50 O 0.75048 0.50154 0.22876 0.0
O51 O 0.75526 0.54123 0.16988 0.0
O52 O 0.67389 0.61067 0.15637 0.0
O53 O 0.66172 0.55747 0.21109 0.0
C54 C 0.86807 0.6837 0.17693 0.0
C55 C 0.63778 0.57155 0.18201 0.0
C56 C 0.10758 0.73679 0.61595 0.0
C57 C 0.26994 0.75236 0.5285 0.0
O58 O 0.09006 0.73349 0.58004 0.0
Zn59 Zn 0.13362 0.74352 0.52315 0.0
O60 O 0.16312 0.74884 0.62368 0.0
Zn61 Zn 0.19035 0.7504 0.57073 0.0
O62 O 0.21052 0.84022 0.54693 0.0
O63 O 0.13956 0.81876 0.50071 0.0
O64 O 0.26948 0.75429 0.56581 0.0
O65 O 0.22385 0.74962 0.50864 0.0
O66 O 0.07482 0.66387 0.49938 0.0
O67 O 0.12675 0.65521 0.54912 0.0
C68 C 0.18694 0.85915 0.52013 0.0
C69 C 0.08682 0.62889 0.52103 0.0
C70 C 0.34251 0.08191 0.92803 0.0
C71 C 0.5112 0.26219 0.86162 0.0
O72 O 0.33672 0.07485 0.89051 0.0
Zn73 Zn 0.38571 0.13211 0.83956 0.0
O74 O 0.38431 0.13395 0.94255 0.0
Zn75 Zn 0.42321 0.17422 0.89425 0.0
O76 O 0.35969 0.20103 0.86863 0.0
O77 O 0.32404 0.14645 0.81348 0.0
O78 O 0.50113 0.25211 0.89827 0.0
O79 O 0.47124 0.22292 0.83687 0.0
O80 O 0.41372 0.08032 0.81317 0.0
O81 O 0.45529 0.11246 0.87211 0.0
C82 C 0.32483 0.18618 0.83783 0.0
C83 C 0.44881 0.08041 0.84081 0.0
C84 C 0.48681 0.75106 0.4629 0.0
C85 C 0.65695 0.74967 0.39064 0.0
O86 O 0.52638 0.74799 0.48644 0.0
Zn87 Zn 0.61486 0.74689 0.48013 0.0
O88 O 0.49536 0.75342 0.42595 0.0
Zn89 Zn 0.57223 0.75189 0.42781 0.0
O90 O 0.54055 0.65756 0.44856 0.0
O91 O 0.59659 0.66577 0.5011 0.0
O92 O 0.60934 0.75172 0.37784 0.0
O93 O 0.66576 0.75084 0.42784 0.0
O94 O 0.67464 0.82169 0.50794 0.0
O95 O 0.63496 0.84209 0.4554 0.0
C96 C 0.55504 0.63118 0.47603 0.0
C97 C 0.67068 0.86152 0.48597 0.0
C98 C 0.91526 0.63883 0.73578 0.0
C99 C 0.7396 0.48616 0.81303 0.0
O100 O 0.92464 0.65339 0.77248 0.0
Zn101 Zn 0.87068 0.61521 0.82662 0.0
O102 O 0.86329 0.59266 0.72441 0.0
Zn103 Zn 0.82608 0.56683 0.77503 0.0
O104 O 0.80245 0.63687 0.79135 0.0
O105 O 0.85297 0.67882 0.84667 0.0
O106 O 0.74636 0.49158 0.77598 0.0
O107 O 0.78257 0.52755 0.83549 0.0
O108 O 0.92865 0.59915 0.85599 0.0
O109 O 0.88889 0.53955 0.80292 0.0
C110 C 0.81477 0.67511 0.82015 0.0
C111 C 0.92555 0.55661 0.83302 0.0
C112 C 0.24927 0.7389 0.1378 0.0
C113 C 0.25129 0.89382 0.04961 0.0
O114 O 0.24933 0.78375 0.15752 0.0
Zn115 Zn 0.25272 0.87203 0.14302 0.0
O116 O 0.24842 0.74004 0.1005 0.0
Zn117 Zn 0.24638 0.81602 0.09488 0.0
O118 O 0.34152 0.88625 0.11169 0.0
O119 O 0.33337 0.934 0.1647 0.0
O120 O 0.24034 0.83841 0.04236 0.0
O121 O 0.25654 0.91282 0.0854 0.0
O122 O 0.17691 0.86273 0.1674 0.0
O123 O 0.15698 0.79414 0.11961 0.0
C124 C 0.36761 0.9277 0.13899 0.0
C125 C 0.1374 0.81605 0.14706 0.0
C126 C 0.5073 0.23755 0.47053 0.0
C127 C 0.35412 0.2445 0.38567 0.0
O128 O 0.46562 0.2418 0.49134 0.0
Zn129 Zn 0.37843 0.2431 0.47855 0.0
O130 O 0.50164 0.23208 0.43344 0.0
Zn131 Zn 0.42535 0.23381 0.43021 0.0
O132 O 0.45495 0.33085 0.44905 0.0
O133 O 0.39692 0.32279 0.50102 0.0
O134 O 0.39481 0.22856 0.37782 0.0
O135 O 0.3423 0.25072 0.42168 0.0
O136 O 0.31135 0.16781 0.50306 0.0
O137 O 0.35926 0.14548 0.45633 0.0
C138 C 0.43951 0.35708 0.47641 0.0
C139 C 0.31825 0.12714 0.48396 0.0
C140 C 0.0907 0.36037 0.73421 0.0
C141 C 0.2698 0.5182 0.8082 0.0
O142 O 0.0844 0.34737 0.77112 0.0
Zn143 Zn 0.14089 0.38809 0.82381 0.0
O144 O 0.14095 0.40727 0.7214 0.0
Zn145 Zn 0.18217 0.43586 0.77111 0.0
O146 O 0.20719 0.3664 0.78621 0.0
O147 O 0.16119 0.32587 0.84286 0.0
O148 O 0.26197 0.51255 0.77119 0.0
O149 O 0.22825 0.47626 0.831 0.0
O150 O 0.08379 0.40409 0.85439 0.0
O151 O 0.12019 0.46241 0.80063 0.0
C152 C 0.19732 0.32899 0.81508 0.0
C153 C 0.08521 0.44585 0.83147 0.0
C154 C 0.75637 0.27581 0.13456 0.0
C155 C 0.75438 0.11657 0.04926 0.0
O156 O 0.74945 0.22831 0.15461 0.0
Zn157 Zn 0.75301 0.14259 0.14203 0.0
O158 O 0.7676 0.27797 0.09795 0.0
Zn159 Zn 0.76377 0.19863 0.09322 0.0
O160 O 0.66635 0.13113 0.11094 0.0
O161 O 0.67335 0.08059 0.16308 0.0
O162 O 0.76751 0.17225 0.04072 0.0
O163 O 0.74831 0.09932 0.0854 0.0
O164 O 0.82781 0.15205 0.16814 0.0
O165 O 0.85137 0.21811 0.1187 0.0
C166 C 0.63982 0.08924 0.13801 0.0
C167 C 0.86892 0.19638 0.14724 0.0
C168 C 0.1973 0.62233 0.14528 0.0
C169 C 0.24531 0.68295 0.15753 0.0
C170 C 0.29458 0.63475 0.1966 0.0
C171 C 0.24758 0.57419 0.18313 0.0
N172 N 0.163 0.51192 0.13725 0.0
N173 N 0.33214 0.74688 0.20128 0.0
C174 C 0.20138 0.56831 0.15542 0.0
C175 C 0.29167 0.68925 0.18521 0.0
N176 N 0.1455 0.61608 0.1258 0.0
N177 N 0.34512 0.64059 0.21747 0.0
H178 H 0.33284 0.78824 0.19344 0.0
H179 H 0.36176 0.75344 0.22497 0.0
H180 H 0.35083 0.60234 0.22465 0.0
H181 H 0.38483 0.68353 0.22436 0.0
H182 H 0.10516 0.5728 0.12038 0.0
H183 H 0.13956 0.6543 0.11893 0.0
H184 H 0.13418 0.50704 0.11339 0.0
H185 H 0.16389 0.47071 0.14295 0.0
C186 C 0.6246 0.18702 0.50055 0.0
C187 C 0.67218 0.24317 0.51846 0.0
C188 C 0.61162 0.29623 0.50483 0.0
C189 C 0.5623 0.23882 0.48928 0.0
N190 N 0.51629 0.12724 0.47766 0.0
N191 N 0.71023 0.34968 0.54107 0.0
C192 C 0.56735 0.18356 0.48846 0.0
C193 C 0.66534 0.29732 0.52171 0.0
N194 N 0.63425 0.1371 0.49499 0.0
N195 N 0.60822 0.35022 0.50189 0.0
H196 H 0.7524 0.35399 0.55131 0.0
H197 H 0.70458 0.38772 0.5488 0.0
H198 H 0.56921 0.35108 0.49028 0.0
H199 H 0.64548 0.39499 0.50846 0.0
H200 H 0.60471 0.09763 0.47815 0.0
H201 H 0.67434 0.13671 0.50495 0.0
H202 H 0.51434 0.08394 0.48032 0.0
H203 H 0.47334 0.12288 0.46909 0.0
C204 C 0.43049 0.62276 0.85475 0.0
C205 C 0.43789 0.6833 0.84859 0.0
C206 C 0.33414 0.63566 0.81683 0.0
C207 C 0.3254 0.57477 0.8248 0.0
N208 N 0.35819 0.51084 0.86091 0.0
N209 N 0.3918 0.74733 0.8324 0.0
C210 C 0.37133 0.56835 0.84673 0.0
C211 C 0.38845 0.68988 0.83183 0.0
N212 N 0.4806 0.61718 0.86725 0.0
N213 N 0.29004 0.6417 0.79554 0.0
H214 H 0.43002 0.78755 0.84435 0.0
H215 H 0.35457 0.75418 0.82446 0.0
H216 H 0.24658 0.60341 0.78745 0.0
H217 H 0.29758 0.68457 0.78444 0.0
H218 H 0.48024 0.57445 0.86778 0.0
H219 H 0.52464 0.656 0.87373 0.0
H220 H 0.38777 0.5047 0.8802 0.0
H221 H 0.3149 0.46997 0.85703 0.0
C222 C 0.79425 0.42255 0.19276 0.0
C223 C 0.75477 0.44208 0.17443 0.0
C224 C 0.71068 0.34756 0.13221 0.0
C225 C 0.7479 0.32682 0.15252 0.0
N226 N 0.80726 0.33489 0.21142 0.0
N227 N 0.67291 0.4218 0.12696 0.0
C228 C 0.78417 0.36114 0.18565 0.0
C229 C 0.71257 0.40449 0.14396 0.0
N230 N 0.84382 0.46398 0.21561 0.0
N231 N 0.67266 0.31197 0.10189 0.0
H232 H 0.67678 0.46565 0.13091 0.0
H233 H 0.63454 0.39217 0.10939 0.0
H234 H 0.66219 0.26573 0.09656 0.0
H235 H 0.65197 0.32802 0.08166 0.0
H236 H 0.87796 0.45426 0.22632 0.0
H237 H 0.85529 0.51077 0.21977 0.0
H238 H 0.82952 0.35666 0.23771 0.0
H239 H 0.79689 0.28831 0.20971 0.0
C240 C 0.3702 0.69833 0.47349 0.0
C241 C 0.431 0.75203 0.47866 0.0
C242 C 0.38497 0.80822 0.51245 0.0
C243 C 0.32436 0.75385 0.50842 0.0
N244 N 0.25663 0.65062 0.48073 0.0
N245 N 0.49853 0.85631 0.50486 0.0
C246 C 0.31616 0.69995 0.48748 0.0
C247 C 0.43902 0.80658 0.49861 0.0
N248 N 0.3648 0.64459 0.45725 0.0
N249 N 0.39009 0.86244 0.52765 0.0
H250 H 0.53896 0.85835 0.49328 0.0
H251 H 0.50877 0.89443 0.5231 0.0
H252 H 0.35122 0.86568 0.53706 0.0
H253 H 0.43166 0.90575 0.52821 0.0
H254 H 0.3231 0.60144 0.4561 0.0
H255 H 0.40336 0.64156 0.44696 0.0
H256 H 0.24635 0.61277 0.46226 0.0
H257 H 0.21611 0.64886 0.49179 0.0
C258 C 0.58131 0.37953 0.86229 0.0
C259 C 0.56877 0.3198 0.84796 0.0
C260 C 0.67241 0.36927 0.81586 0.0
C261 C 0.68431 0.42909 0.82934 0.0
N262 N 0.65738 0.48988 0.87321 0.0
N263 N 0.597 0.25941 0.80428 0.0
C264 C 0.641 0.43396 0.85493 0.0
C265 C 0.6127 0.31502 0.82279 0.0
N266 N 0.53416 0.38487 0.88033 0.0
N267 N 0.72012 0.36383 0.79872 0.0
H268 H 0.55451 0.21784 0.80834 0.0
H269 H 0.62385 0.25545 0.78187 0.0
H270 H 0.76545 0.40214 0.79472 0.0
H271 H 0.71734 0.32086 0.79249 0.0
H272 H 0.53738 0.42774 0.88747 0.0
H273 H 0.48884 0.34665 0.88451 0.0
H274 H 0.63085 0.49467 0.89547 0.0
H275 H 0.70053 0.53078 0.86913 0.0
C276 C 0.5306 0.4743 0.17654 0.0
C277 C 0.56802 0.54121 0.1784 0.0
C278 C 0.47248 0.54958 0.17193 0.0
C279 C 0.435 0.48291 0.17384 0.0
N280 N 0.42722 0.38128 0.18231 0.0
N281 N 0.5742 0.64244 0.18429 0.0
C282 C 0.46371 0.44503 0.17682 0.0
C283 C 0.53892 0.57895 0.1775 0.0
N284 N 0.55898 0.43848 0.17395 0.0
N285 N 0.44449 0.5847 0.16401 0.0
H286 H 0.62268 0.6656 0.18946 0.0
H287 H 0.55478 0.67139 0.18838 0.0
H288 H 0.39601 0.56454 0.15949 0.0
H289 H 0.4696 0.63294 0.15833 0.0
H290 H 0.53508 0.39073 0.16672 0.0
H291 H 0.60737 0.45715 0.17661 0.0
H292 H 0.44534 0.35228 0.18997 0.0
H293 H 0.37808 0.35742 0.18258 0.0
C294 C 1.00089 0.5275 0.48891 0.0
C295 C 0.05079 0.55788 0.51677 0.0
C296 C 0.01483 0.45603 0.54968 0.0
C297 C 0.96074 0.42793 0.52508 0.0
N298 N 0.89841 0.43734 0.47361 0.0
N299 N 0.1217 0.54152 0.55811 0.0
C300 C 0.95286 0.46372 0.4952 0.0
C301 C 0.06254 0.51964 0.54305 0.0
N302 N 0.00299 0.55692 0.45432 0.0
N303 N 0.02059 0.42215 0.57971 0.0
H304 H 0.16071 0.58311 0.54845 0.0
H305 H 0.13447 0.51425 0.57506 0.0
H306 H 0.98871 0.3745 0.58423 0.0
H307 H 0.05429 0.44244 0.60192 0.0
H308 H 0.97038 0.53552 0.43168 0.0
H309 H 0.04277 0.59849 0.44539 0.0
H310 H 0.88644 0.46312 0.45465 0.0
H311 H 0.86245 0.39068 0.47729 0.0
C312 C 0.4464 0.97844 0.82394 0.0
C313 C 0.48011 0.04158 0.83832 0.0
C314 C 0.56906 0.02622 0.85554 0.0
C315 C 0.53746 0.96581 0.83773 0.0
N316 N 0.45359 0.89094 0.7963 0.0
N317 N 0.57981 0.12946 0.86038 0.0
C318 C 0.4786 0.9441 0.81902 0.0
C319 C 0.54325 0.06662 0.85206 0.0
N320 N 0.38274 0.94924 0.81777 0.0
N321 N 0.62331 0.04479 0.87645 0.0
H322 H 0.56395 0.16155 0.85805 0.0
H323 H 0.62803 0.15111 0.86603 0.0
H324 H 0.6457 0.01814 0.87795 0.0
H325 H 0.64362 0.0845 0.89457 0.0
H326 H 0.35551 0.90144 0.81096 0.0
H327 H 0.35568 0.97015 0.82405 0.0
H328 H 0.41339 0.87611 0.77904 0.0
H329 H 0.47672 0.8654 0.79169 0.0
C330 C 0.51072 0.52618 0.44097 0.0
C331 C 0.52544 0.56083 0.47689 0.0
C332 C 0.49099 0.4617 0.51286 0.0
C333 C 0.46815 0.42704 0.47728 0.0
N334 N 0.43775 0.42799 0.40977 0.0
N335 N 0.51221 0.55643 0.54778 0.0
C336 C 0.47255 0.45971 0.44197 0.0
C337 C 0.51078 0.52724 0.51318 0.0
N338 N 0.5351 0.55554 0.40586 0.0
N339 N 0.49577 0.433 0.54608 0.0
H340 H 0.52116 0.60271 0.54927 0.0
H341 H 0.49671 0.53216 0.57434 0.0
H342 H 0.48415 0.38581 0.54673 0.0
H343 H 0.51759 0.4579 0.5717 0.0
H344 H 0.52901 0.53052 0.37979 0.0
H345 H 0.56769 0.60341 0.40333 0.0
H346 H 0.43568 0.45099 0.38446 0.0
H347 H 0.40484 0.37995 0.41036 0.0
C348 C 0.93909 0.46263 0.84243 0.0
C349 C 0.9668 0.52898 0.83894 0.0
C350 C 0.0721 0.54006 0.84078 0.0
C351 C 0.04423 0.47356 0.83843 0.0
N352 N 0.95056 0.37128 0.83096 0.0
N353 N 0.05988 0.63076 0.82865 0.0
C354 C 0.97749 0.43456 0.83805 0.0
C355 C 0.03345 0.56789 0.83686 0.0
N356 N 0.87614 0.42652 0.85048 0.0
N357 N 0.13553 0.57659 0.84725 0.0
H358 H 0.03356 0.65314 0.82474 0.0
H359 H 0.10757 0.65969 0.82222 0.0
H360 H 0.16505 0.55758 0.85079 0.0
H361 H 0.15769 0.62483 0.85298 0.0
H362 H 0.85435 0.37861 0.85708 0.0
H363 H 0.84687 0.44577 0.85438 0.0
H364 H 0.9025 0.34206 0.82573 0.0
H365 H 0.97661 0.34866 0.82679 0.0
C366 C 0.46448 0.03602 0.13995 0.0
C367 C 0.43742 0.9693 0.13937 0.0
C368 C 0.54324 0.98232 0.13298 0.0
C369 C 0.57026 0.04831 0.13848 0.0
N370 N 0.55717 0.13754 0.15309 0.0
N371 N 0.45205 0.87868 0.14149 0.0
C372 C 0.53104 0.0751 0.14363 0.0
C373 C 0.4771 0.94236 0.13756 0.0
N374 N 0.42714 0.06232 0.13474 0.0
N375 N 0.58033 0.95795 0.12156 0.0
H376 H 0.40397 0.84741 0.14473 0.0
H377 H 0.47947 0.85741 0.14505 0.0
H378 H 0.62883 0.98565 0.11704 0.0
H379 H 0.56217 0.91122 0.11279 0.0
H380 H 0.44511 0.11052 0.13076 0.0
H381 H 0.37856 0.03571 0.13025 0.0
H382 H 0.53055 0.15812 0.16136 0.0
H383 H 0.60569 0.16766 0.15611 0.0
C384 C 0.24288 0.27432 0.32259 0.0
C385 C 0.28684 0.32259 0.29748 0.0
C386 C 0.3743 0.31892 0.32991 0.0
C387 C 0.33022 0.26819 0.35376 0.0
N388 N 0.22272 0.19049 0.3688 0.0
N389 N 0.39309 0.38421 0.27266 0.0
C390 C 0.26442 0.24384 0.34899 0.0
C391 C 0.35198 0.34221 0.29949 0.0
N392 N 0.18082 0.25843 0.32156 0.0
N393 N 0.43755 0.34854 0.33822 0.0
H394 H 0.37999 0.40666 0.25193 0.0
H395 H 0.4392 0.39345 0.26906 0.0
H396 H 0.45691 0.33611 0.36143 0.0
H397 H 0.47086 0.39047 0.325 0.0
H398 H 0.14748 0.22881 0.34201 0.0
H399 H 0.16323 0.27787 0.30134 0.0
H400 H 0.17423 0.16672 0.36398 0.0
H401 H 0.23717 0.16677 0.38788 0.0
C402 C 0.97372 0.24518 0.65917 0.0
C403 C 0.93817 0.2753 0.65133 0.0
C404 C 0.99581 0.3535 0.70269 0.0
C405 C 0.03588 0.32773 0.70763 0.0
N406 N 0.0672 0.25228 0.68938 0.0
N407 N 0.92458 0.36612 0.6597 0.0
C408 C 0.02598 0.27428 0.68557 0.0
C409 C 0.95133 0.33137 0.67166 0.0
N410 N 0.95642 0.18814 0.64217 0.0
N411 N 0.99981 0.39898 0.72788 0.0
H412 H 0.89313 0.35343 0.63623 0.0
H413 H 0.93861 0.41119 0.67034 0.0
H414 H 0.03281 0.41776 0.75048 0.0
H415 H 0.96674 0.41393 0.72865 0.0
H416 H 0.97648 0.16069 0.6494 0.0
H417 H 0.91835 0.16584 0.62281 0.0
H418 H 0.06683 0.2178 0.67123 0.0
H419 H 0.10442 0.27127 0.70952 0.0
C420 C 0.74783 0.99523 0.97585 0.0
C421 C 0.68514 0.96995 0.96193 0.0
C422 C 0.67191 0.04652 0.00137 0.0
C423 C 0.73261 0.06821 0.01795 0.0
N424 N 0.82708 0.06151 0.02408 0.0
N425 N 0.58471 0.96652 0.96364 0.0
C426 C 0.77036 0.04213 0.00602 0.0
C427 C 0.64652 0.99441 0.97518 0.0
N428 N 0.78567 0.97465 0.95995 0.0
N429 N 0.63844 0.07596 0.01049 0.0
H430 H 0.5646 0.9304 0.9429 0.0
H431 H 0.55173 0.97615 0.97634 0.0
H432 H 0.65266 0.11142 0.0316 0.0
H433 H 0.59828 0.06838 0.99532 0.0
H434 H 0.83364 0.99503 0.96592 0.0
H435 H 0.76981 0.93933 0.93854 0.0
H436 H 0.85419 0.04011 0.01986 0.0
H437 H 0.84571 0.09734 0.04518 0.0
C438 C 0.72297 0.70032 0.37093 0.0
C439 C 0.6996 0.74202 0.36261 0.0
C440 C 0.74033 0.75462 0.29493 0.0
C441 C 0.75763 0.70819 0.3029 0.0
N442 N 0.80153 0.67249 0.35331 0.0
N443 N 0.7093 0.82717 0.32196 0.0
C444 C 0.76108 0.69299 0.34259 0.0
C445 C 0.71531 0.77486 0.32608 0.0
N446 N 0.70578 0.6638 0.40406 0.0
N447 N 0.74877 0.78035 0.25829 0.0
H448 H 0.69536 0.84554 0.3451 0.0
H449 H 0.72451 0.85625 0.2973 0.0
H450 H 0.7794 0.77851 0.23774 0.0
H451 H 0.72719 0.80548 0.24889 0.0
H452 H 0.71751 0.62872 0.40838 0.0
H453 H 0.67474 0.66285 0.42525 0.0
H454 H 0.80883 0.66494 0.38258 0.0
H455 H 0.83373 0.67175 0.33344 0.0
C456 C 0.03334 0.75113 0.66039 0.0
C457 C 0.06012 0.71433 0.64774 0.0
C458 C 0.99947 0.63442 0.69745 0.0
C459 C 0.96812 0.66798 0.70758 0.0
N460 N 0.95076 0.75549 0.69777 0.0
N461 N 0.06103 0.61603 0.64917 0.0
C462 C 0.984 0.72584 0.68892 0.0
C463 C 0.04134 0.65475 0.66501 0.0
N464 N 0.05611 0.81058 0.64571 0.0
N465 N 0.9902 0.58366 0.71939 0.0
H466 H 0.09176 0.6287 0.62531 0.0
H467 H 0.04259 0.56906 0.65736 0.0
H468 H 0.95922 0.56659 0.74312 0.0
H469 H 0.01726 0.56191 0.71637 0.0
H470 H 0.04328 0.84246 0.65637 0.0
H471 H 0.09142 0.82971 0.62437 0.0
H472 H 0.95516 0.79423 0.68239 0.0
H473 H 0.91583 0.73902 0.71941 0.0
C474 C 0.31821 0.94621 0.99098 0.0
C475 C 0.26968 0.93939 0.01685 0.0
C476 C 0.26436 0.02446 0.98215 0.0
C477 C 0.30908 0.02702 0.95451 0.0
N478 N 0.36464 0.97751 0.92665 0.0
N479 N 0.18886 0.96436 0.03352 0.0
C480 C 0.33101 0.98338 0.95681 0.0
C481 C 0.24037 0.97634 0.01146 0.0
N482 N 0.35557 0.92117 0.00037 0.0
N483 N 0.24548 0.06833 0.98056 0.0
H484 H 0.16988 0.92902 0.05485 0.0
H485 H 0.16191 0.98576 0.02852 0.0
H486 H 0.25946 0.10167 0.95805 0.0
H487 H 0.2186 0.07355 0.00243 0.0
H488 H 0.3958 0.9308 0.98443 0.0
H489 H 0.3514 0.89725 0.02656 0.0
H490 H 0.37645 0.94208 0.9256 0.0
H491 H 0.37434 0.0029 0.90066 0.0
C492 C 0.97206 0.19785 0.15462 0.0
C493 C 0.9364 0.22868 0.15865 0.0
C494 C 0.03065 0.32522 0.18084 0.0
C495 C 0.06626 0.29374 0.17831 0.0
N496 N 0.06759 0.19629 0.17157 0.0
N497 N 0.9281 0.31714 0.18221 0.0
C498 C 0.036 0.22889 0.16763 0.0
C499 C 0.96472 0.291 0.17369 0.0
N500 N 0.94549 0.13984 0.13706 0.0
N501 N 0.05979 0.38863 0.18818 0.0
H502 H 0.88018 0.29481 0.17579 0.0
H503 H 0.94386 0.35855 0.19836 0.0
H504 H 0.10695 0.41617 0.19587 0.0
H505 H 0.03807 0.4155 0.18407 0.0
H506 H 0.97097 0.11789 0.12917 0.0
H507 H 0.89871 0.11566 0.1275 0.0
H508 H 0.04636 0.14764 0.16796 0.0
H509 H 0.11359 0.21689 0.18235 0.0
C510 C 0.74704 0.01498 0.54528 0.0
C511 C 0.76872 0.0608 0.51482 0.0
C512 C 0.73572 0.97591 0.46611 0.0
C513 C 0.7055 0.93005 0.4961 0.0
N514 N 0.66849 0.90905 0.56356 0.0
N515 N 0.76632 0.08158 0.44528 0.0
C516 C 0.70719 0.95032 0.53558 0.0
C517 C 0.75825 0.04046 0.47489 0.0
N518 N 0.76609 0.03236 0.5833 0.0
N519 N 0.74517 0.95862 0.4296 0.0
H520 H 0.77777 0.12813 0.45031 0.0
H521 H 0.75385 0.06714 0.41617 0.0
H522 H 0.7331 0.91247 0.42248 0.0
H523 H 0.77182 0.99142 0.40798 0.0
H524 H 0.75559 0.99961 0.60577 0.0
H525 H 0.79834 0.07858 0.59151 0.0
H526 H 0.66444 0.92341 0.5918 0.0
H527 H 0.63492 0.86234 0.55739 0.0
C528 C 0.7147 0.6811 0.82096 0.0
C529 C 0.78176 0.71213 0.82358 0.0
C530 C 0.78472 0.81113 0.84091 0.0
C531 C 0.7184 0.78076 0.83601 0.0
N532 N 0.62217 0.69162 0.81239 0.0
N533 N 0.88115 0.80977 0.82683 0.0
C534 C 0.68398 0.71717 0.82334 0.0
C535 C 0.81701 0.77811 0.83099 0.0
N536 N 0.67967 0.61684 0.81815 0.0
N537 N 0.81662 0.87084 0.85608 0.0
H538 H 0.90623 0.78769 0.81807 0.0
H539 H 0.9088 0.85872 0.82808 0.0
H540 H 0.79455 0.89663 0.86317 0.0
H541 H 0.86384 0.89285 0.8645 0.0
H542 H 0.63082 0.59163 0.8215 0.0
H543 H 0.69909 0.58772 0.81581 0.0
H544 H 0.59659 0.64781 0.7987 0.0
H545 H 0.59798 0.7166 0.81348 0.0
C546 C 0.97028 0.78532 0.16548 0.0
C547 C 0.93706 0.71855 0.16924 0.0
C548 C 0.03689 0.71838 0.16508 0.0
C549 C 0.06899 0.78379 0.15632 0.0
N550 N 0.06446 0.87794 0.14178 0.0
N551 N 0.9376 0.62034 0.16368 0.0
C552 C 0.03527 0.817 0.15482 0.0
C553 C 0.97004 0.68468 0.16659 0.0
N554 N 0.94061 0.81877 0.1736 0.0
N555 N 0.07027 0.68875 0.17352 0.0
H556 H 0.8885 0.59377 0.16278 0.0
H557 H 0.95938 0.59392 0.15782 0.0
H558 H 0.11943 0.71237 0.17444 0.0
H559 H 0.04929 0.64251 0.18379 0.0
H560 H 0.96424 0.86784 0.17528 0.0
H561 H 0.89355 0.79753 0.1824 0.0
H562 H 0.0404 0.90216 0.13607 0.0
H563 H 0.11173 0.90254 0.13329 0.0
C564 C 0.23539 0.97262 0.54188 0.0
C565 C 0.2168 0.92772 0.5109 0.0
C566 C 0.25274 0.01378 0.46297 0.0
C567 C 0.28042 0.05878 0.49373 0.0
N568 N 0.30936 0.07899 0.5626 0.0
N569 N 0.22255 0.90842 0.44144 0.0
C570 C 0.27471 0.03778 0.53332 0.0
C571 C 0.22926 0.94894 0.47122 0.0
N572 N 0.2141 0.95354 0.57934 0.0
N573 N 0.24714 0.03248 0.42602 0.0
H574 H 0.20984 0.86147 0.44607 0.0
H575 H 0.23689 0.92345 0.41264 0.0
H576 H 0.26106 0.07916 0.4191 0.0
H577 H 0.22211 1.00062 0.40355 0.0
H578 H 0.22163 0.9851 0.60214 0.0
H579 H 0.18304 0.90661 0.58662 0.0
H580 H 0.31128 0.06441 0.59113 0.0
H581 H 0.34156 0.12649 0.55763 0.0
C582 C 0.19345 0.22516 0.8244 0.0
C583 C 0.22946 0.29096 0.81666 0.0
C584 C 0.32624 0.28395 0.81567 0.0
C585 C 0.29111 0.22068 0.82877 0.0
N586 N 0.19245 0.13159 0.84901 0.0
N587 N 0.33193 0.38462 0.80779 0.0
C588 C 0.22494 0.19126 0.83392 0.0
C589 C 0.2963 0.32074 0.81266 0.0
N590 N 0.12921 0.19453 0.8209 0.0
N591 N 0.3881 0.30849 0.80507 0.0
H592 H 0.31313 0.41389 0.80336 0.0
H593 H 0.38083 0.40969 0.81072 0.0
H594 H 0.41189 0.2832 0.80709 0.0
H595 H 0.41437 0.35174 0.79096 0.0
H596 H 0.10076 0.1457 0.82239 0.0
H597 H 0.10472 0.21731 0.81237 0.0
H598 H 0.14541 0.11023 0.85771 0.0
H599 H 0.21386 0.10501 0.85557 0.0
loop_
_geom_bond_atom_site_label_1
_geom_bond_atom_site_label_2
_geom_bond_distance
_geom_bond_site_symmetry_2
_ccdc_geom_bond_type
C0 O2 1.247 . S
C0 O4 1.258 . S
C1 O8 1.247 . S
C1 O9 1.258 . S
O2 C0 1.247 . S
O2 Zn3 2.028 . S
Zn3 O2 2.028 . S
Zn3 O7 2.035 . S
Zn3 O9 2.035 . S
Zn3 O10 2.028 . S
O4 C0 1.258 . S
O4 Zn5 2.035 . S
Zn5 O4 2.035 . S
Zn5 O6 2.028 . S
Zn5 O8 2.028 . S
Zn5 O11 2.035 . S
O6 Zn5 2.028 . S
O6 C12 1.247 . S
O7 Zn3 2.035 . S
O7 C12 1.258 . S
O8 C1 1.247 . S
O8 Zn5 2.028 . S
O9 C1 1.258 . S
O9 Zn3 2.035 . S
O10 Zn3 2.028 . S
O10 C13 1.247 . S
O11 Zn5 2.035 . S
O11 C13 1.258 . S
C12 O6 1.247 . S
C12 O7 1.258 . S
C13 O10 1.247 . S
C13 O11 1.258 . S
C14 O16 1.247 . S
C14 O18 1.258 . S
C15 O22 1.247 . S
C15 O23 1.258 . S
O16 C14 1.247 . S
O16 Zn17 2.028 . S
Zn17 O16 2.028 . S
Zn17 O21 2.035 . S
Zn17 O23 2.035 . S
Zn17 O24 2.028 . S
O18 C14 1.258 . S
O18 Zn19 2.035 . S
Zn19 O18 2.035 . S
Zn19 O20 2.028 . S
Zn19 O22 2.028 . S
Zn19 O25 2.035 . S
O20 Zn19 2.028 . S
O20 C26 1.247 . S
O21 Zn17 2.035 . S
O21 C26 1.258 . S
O22 C15 1.247 . S
O22 Zn19 2.028 . S
O23 C15 1.258 . S
O23 Zn17 2.035 . S
O24 Zn17 2.028 . S
O24 C27 1.247 . S
O25 Zn19 2.035 . S
O25 C27 1.258 . S
C26 O20 1.247 . S
C26 O21 1.258 . S
C27 O24 1.247 . S
C27 O25 1.258 . S
C28 O30 1.247 . S
C28 O32 1.258 . S
C29 O36 1.247 . S
C29 O37 1.258 . S
O30 C28 1.247 . S
O30 Zn31 2.028 . S
Zn31 O30 2.028 . S
Zn31 O35 2.035 . S
Zn31 O37 2.035 . S
Zn31 O38 2.028 . S
O32 C28 1.258 . S
O32 Zn33 2.035 . S
Zn33 O32 2.035 . S
Zn33 O34 2.028 . S
Zn33 O36 2.028 . S
Zn33 O39 2.035 . S
O34 Zn33 2.028 . S
O34 C40 1.247 . S
O35 Zn31 2.035 . S
O35 C40 1.258 . S
O36 C29 1.247 . S
O36 Zn33 2.028 . S
O37 C29 1.258 . S
O37 Zn31 2.035 . S
O38 Zn31 2.028 . S
O38 C41 1.247 . S
O39 Zn33 2.035 . S
O39 C41 1.258 . S
C40 O34 1.247 . S
C40 O35 1.258 . S
C41 O38 1.247 . S
C41 O39 1.258 . S
C42 O44 1.247 . S
C42 O46 1.258 . S
C43 O50 1.247 . S
C43 O51 1.258 . S
O44 C42 1.247 . S
O44 Zn45 2.028 . S
Zn45 O44 2.028 . S
Zn45 O49 2.035 . S
Zn45 O51 2.035 . S
Zn45 O52 2.028 . S
O46 C42 1.258 . S
O46 Zn47 2.035 . S
Zn47 O46 2.035 . S
Zn47 O48 2.028 . S
Zn47 O50 2.028 . S
Zn47 O53 2.035 . S
O48 Zn47 2.028 . S
O48 C54 1.247 . S
O49 Zn45 2.035 . S
O49 C54 1.258 . S
O50 C43 1.247 . S
O50 Zn47 2.028 . S
O51 C43 1.258 . S
O51 Zn45 2.035 . S
O52 Zn45 2.028 . S
O52 C55 1.247 . S
O53 Zn47 2.035 . S
O53 C55 1.258 . S
C54 O48 1.247 . S
C54 O49 1.258 . S
C55 O52 1.247 . S
C55 O53 1.258 . S
C56 O58 1.247 . S
C56 O60 1.258 . S
C57 O64 1.247 . S
C57 O65 1.258 . S
O58 C56 1.247 . S
O58 Zn59 2.028 . S
Zn59 O58 2.028 . S
Zn59 O63 2.035 . S
Zn59 O65 2.035 . S
Zn59 O66 2.028 . S
O60 C56 1.258 . S
O60 Zn61 2.035 . S
Zn61 O60 2.035 . S
Zn61 O62 2.028 . S
Zn61 O64 2.028 . S
Zn61 O67 2.035 . S
O62 Zn61 2.028 . S
O62 C68 1.247 . S
O63 Zn59 2.035 . S
O63 C68 1.258 . S
O64 C57 1.247 . S
O64 Zn61 2.028 . S
O65 C57 1.258 . S
O65 Zn59 2.035 . S
O66 Zn59 2.028 . S
O66 C69 1.247 . S
O67 Zn61 2.035 . S
O67 C69 1.258 . S
C68 O62 1.247 . S
C68 O63 1.258 . S
C69 O66 1.247 . S
C69 O67 1.258 . S
C70 O72 1.247 . S
C70 O74 1.258 . S
C71 O78 1.247 . S
C71 O79 1.258 . S
O72 C70 1.247 . S
O72 Zn73 2.028 . S
Zn73 O72 2.028 . S
Zn73 O77 2.035 . S
Zn73 O79 2.035 . S
Zn73 O80 2.028 . S
O74 C70 1.258 . S
O74 Zn75 2.035 . S
Zn75 O74 2.035 . S
Zn75 O76 2.028 . S
Zn75 O78 2.028 . S
Zn75 O81 2.035 . S
O76 Zn75 2.028 . S
O76 C82 1.247 . S
O77 Zn73 2.035 . S
O77 C82 1.258 . S
O78 C71 1.247 . S
O78 Zn75 2.028 . S
O79 C71 1.258 . S
O79 Zn73 2.035 . S
O80 Zn73 2.028 . S
O80 C83 1.247 . S
O81 Zn75 2.035 . S
O81 C83 1.258 . S
C82 O76 1.247 . S
C82 O77 1.258 . S
C83 O80 1.247 . S
C83 O81 1.258 . S
C84 O86 1.247 . S
C84 O88 1.258 . S
C85 O92 1.247 . S
C85 O93 1.258 . S
O86 C84 1.247 . S
O86 Zn87 2.028 . S
Zn87 O86 2.028 . S
Zn87 O91 2.035 . S
Zn87 O93 2.035 . S
Zn87 O94 2.028 . S
O88 C84 1.258 . S
O88 Zn89 2.035 . S
Zn89 O88 2.035 . S
Zn89 O90 2.028 . S
Zn89 O92 2.028 . S
Zn89 O95 2.035 . S
O90 Zn89 2.028 . S
O90 C96 1.247 . S
O91 Zn87 2.035 . S
O91 C96 1.258 . S
O92 C85 1.247 . S
O92 Zn89 2.028 . S
O93 C85 1.258 . S
O93 Zn87 2.035 . S
O94 Zn87 2.028 . S
O94 C97 1.247 . S
O95 Zn89 2.035 . S
O95 C97 1.258 . S
C96 O90 1.247 . S
C96 O91 1.258 . S
C97 O94 1.247 . S
C97 O95 1.258 . S
C98 O100 1.247 . S
C98 O102 1.258 . S
C99 O106 1.247 . S
C99 O107 1.258 . S
O100 C98 1.247 . S
O100 Zn101 2.028 . S
Zn101 O100 2.028 . S
Zn101 O105 2.035 . S
Zn101 O107 2.035 . S
Zn101 O108 2.028 . S
O102 C98 1.258 . S
O102 Zn103 2.035 . S
Zn103 O102 2.035 . S
Zn103 O104 2.028 . S
Zn103 O106 2.028 . S
Zn103 O109 2.035 . S
O104 Zn103 2.028 . S
O104 C110 1.247 . S
O105 Zn101 2.035 . S
O105 C110 1.258 . S
O106 C99 1.247 . S
O106 Zn103 2.028 . S
O107 C99 1.258 . S
O107 Zn101 2.035 . S
O108 Zn101 2.028 . S
O108 C111 1.247 . S
O109 Zn103 2.035 . S
O109 C111 1.258 . S
C110 O104 1.247 . S
C110 O105 1.258 . S
C111 O108 1.247 . S
C111 O109 1.258 . S
C112 O114 1.247 . S
C112 O116 1.258 . S
C113 O120 1.247 . S
C113 O121 1.258 . S
O114 C112 1.247 . S
O114 Zn115 2.028 . S
Zn115 O114 2.028 . S
Zn115 O119 2.035 . S
Zn115 O121 2.035 . S
Zn115 O122 2.028 . S
O116 C112 1.258 . S
O116 Zn117 2.035 . S
Zn117 O116 2.035 . S
Zn117 O118 2.028 . S
Zn117 O120 2.028 . S
Zn117 O123 2.035 . S
O118 Zn117 2.028 . S
O118 C124 1.247 . S
O119 Zn115 2.035 . S
O119 C124 1.258 . S
O120 C113 1.247 . S
O120 Zn117 2.028 . S
O121 C113 1.258 . S
O121 Zn115 2.035 . S
O122 Zn115 2.028 . S
O122 C125 1.247 . S
O123 Zn117 2.035 . S
O123 C125 1.258 . S
C124 O118 1.247 . S
C124 O119 1.258 . S
C125 O122 1.247 . S
C125 O123 1.258 . S
C126 O128 1.247 . S
C126 O130 1.258 . S
C127 O134 1.247 . S
C127 O135 1.258 . S
O128 C126 1.247 . S
O128 Zn129 2.028 . S
Zn129 O128 2.028 . S
Zn129 O133 2.035 . S
Zn129 O135 2.035 . S
Zn129 O136 2.028 . S
O130 C126 1.258 . S
O130 Zn131 2.035 . S
Zn131 O130 2.035 . S
Zn131 O132 2.028 . S
Zn131 O134 2.028 . S
Zn131 O137 2.035 . S
O132 Zn131 2.028 . S
O132 C138 1.247 . S
O133 Zn129 2.035 . S
O133 C138 1.258 . S
O134 C127 1.247 . S
O134 Zn131 2.028 . S
O135 C127 1.258 . S
O135 Zn129 2.035 . S
O136 Zn129 2.028 . S
O136 C139 1.247 . S
O137 Zn131 2.035 . S
O137 C139 1.258 . S
C138 O132 1.247 . S
C138 O133 1.258 . S
C139 O136 1.247 . S
C139 O137 1.258 . S
C140 O142 1.247 . S
C140 O144 1.258 . S
C141 O148 1.247 . S
C141 O149 1.258 . S
O142 C140 1.247 . S
O142 Zn143 2.028 . S
Zn143 O142 2.028 . S
Zn143 O147 2.035 . S
Zn143 O149 2.035 . S
Zn143 O150 2.028 . S
O144 C140 1.258 . S
O144 Zn145 2.035 . S
Zn145 O144 2.035 . S
Zn145 O146 2.028 . S
Zn145 O148 2.028 . S
Zn145 O151 2.035 . S
O146 Zn145 2.028 . S
O146 C152 1.247 . S
O147 Zn143 2.035 . S
O147 C152 1.258 . S
O148 C141 1.247 . S
O148 Zn145 2.028 . S
O149 C141 1.258 . S
O149 Zn143 2.035 . S
O150 Zn143 2.028 . S
O150 C153 1.247 . S
O151 Zn145 2.035 . S
O151 C153 1.258 . S
C152 O146 1.247 . S
C152 O147 1.258 . S
C153 O150 1.247 . S
C153 O151 1.258 . S
C154 O156 1.247 . S
C154 O158 1.258 . S
C155 O162 1.247 . S
C155 O163 1.258 . S
O156 C154 1.247 . S
O156 Zn157 2.028 . S
Zn157 O156 2.028 . S
Zn157 O161 2.035 . S
Zn157 O163 2.035 . S
Zn157 O164 2.028 . S
O158 C154 1.258 . S
O158 Zn159 2.035 . S
Zn159 O158 2.035 . S
Zn159 O160 2.028 . S
Zn159 O162 2.028 . S
Zn159 O165 2.035 . S
O160 Zn159 2.028 . S
O160 C166 1.247 . S
O161 Zn157 2.035 . S
O161 C166 1.258 . S
O162 C155 1.247 . S
O162 Zn159 2.028 . S
O163 C155 1.258 . S
O163 Zn157 2.035 . S
O164 Zn157 2.028 . S
O164 C167 1.247 . S
O165 Zn159 2.035 . S
O165 C167 1.258 . S
C166 O160 1.247 . S
C166 O161 1.258 . S
C167 O164 1.247 . S
C167 O165 1.258 . S
C168 C169 1.363 . S
C168 C174 1.379 . S
C168 N176 1.356 . S
C169 C168 1.363 . S
C169 C175 1.363 . S
C170 C171 1.363 . S
C170 C175 1.379 . S
C170 N177 1.356 . S
C171 C170 1.363 . S
C171 C174 1.363 . S
N172 C174 1.356 . S
N172 H184 0.984 . S
N172 H185 0.985 . S
N173 C175 1.356 . S
N173 H178 0.984 . S
N173 H179 0.985 . S
C174 C168 1.379 . S
C174 C171 1.363 . S
C174 N172 1.356 . S
C175 C169 1.363 . S
C175 C170 1.379 . S
C175 N173 1.356 . S
N176 C168 1.356 . S
N176 H182 0.984 . S
N176 H183 0.984 . S
N177 C170 1.356 . S
N177 H180 0.984 . S
N177 H181 0.985 . S
H178 N173 0.984 . S
H179 N173 0.985 . S
H180 N177 0.984 . S
H181 N177 0.985 . S
H182 N176 0.984 . S
H183 N176 0.984 . S
H184 N172 0.984 . S
H185 N172 0.985 . S
C186 C187 1.363 . S
C186 C192 1.379 . S
C186 N194 1.356 . S
C187 C186 1.363 . S
C187 C193 1.363 . S
C188 C189 1.363 . S
C188 C193 1.379 . S
C188 N195 1.356 . S
C189 C188 1.363 . S
C189 C192 1.363 . S
N190 C192 1.356 . S
N190 H202 0.984 . S
N190 H203 0.985 . S
N191 C193 1.356 . S
N191 H196 0.984 . S
N191 H197 0.985 . S
C192 C186 1.379 . S
C192 C189 1.363 . S
C192 N190 1.356 . S
C193 C187 1.363 . S
C193 C188 1.379 . S
C193 N191 1.356 . S
N194 C186 1.356 . S
N194 H200 0.984 . S
N194 H201 0.984 . S
N195 C188 1.356 . S
N195 H198 0.984 . S
N195 H199 0.985 . S
H196 N191 0.984 . S
H197 N191 0.985 . S
H198 N195 0.984 . S
H199 N195 0.985 . S
H200 N194 0.984 . S
H201 N194 0.984 . S
H202 N190 0.984 . S
H203 N190 0.985 . S
C204 C205 1.363 . S
C204 C210 1.379 . S
C204 N212 1.356 . S
C205 C204 1.363 . S
C205 C211 1.363 . S
C206 C207 1.363 . S
C206 C211 1.379 . S
C206 N213 1.356 . S
C207 C206 1.363 . S
C207 C210 1.363 . S
N208 C210 1.356 . S
N208 H220 0.984 . S
N208 H221 0.985 . S
N209 C211 1.356 . S
N209 H214 0.984 . S
N209 H215 0.985 . S
C210 C204 1.379 . S
C210 C207 1.363 . S
C210 N208 1.356 . S
C211 C205 1.363 . S
C211 C206 1.379 . S
C211 N209 1.356 . S
N212 C204 1.356 . S
N212 H218 0.984 . S
N212 H219 0.984 . S
N213 C206 1.356 . S
N213 H216 0.984 . S
N213 H217 0.985 . S
H214 N209 0.984 . S
H215 N209 0.985 . S
H216 N213 0.984 . S
H217 N213 0.985 . S
H218 N212 0.984 . S
H219 N212 0.984 . S
H220 N208 0.984 . S
H221 N208 0.985 . S
C222 C223 1.363 . S
C222 C228 1.379 . S
C222 N230 1.356 . S
C223 C222 1.363 . S
C223 C229 1.363 . S
C224 C225 1.363 . S
C224 C229 1.379 . S
C224 N231 1.356 . S
C225 C224 1.363 . S
C225 C228 1.363 . S
N226 C228 1.356 . S
N226 H238 0.984 . S
N226 H239 0.985 . S
N227 C229 1.356 . S
N227 H232 0.984 . S
N227 H233 0.985 . S
C228 C222 1.379 . S
C228 C225 1.363 . S
C228 N226 1.356 . S
C229 C223 1.363 . S
C229 C224 1.379 . S
C229 N227 1.356 . S
N230 C222 1.356 . S
N230 H236 0.984 . S
N230 H237 0.984 . S
N231 C224 1.356 . S
N231 H234 0.984 . S
N231 H235 0.985 . S
H232 N227 0.984 . S
H233 N227 0.985 . S
H234 N231 0.984 . S
H235 N231 0.985 . S
H236 N230 0.984 . S
H237 N230 0.984 . S
H238 N226 0.984 . S
H239 N226 0.985 . S
C240 C241 1.363 . S
C240 C246 1.379 . S
C240 N248 1.356 . S
C241 C240 1.363 . S
C241 C247 1.363 . S
C242 C243 1.363 . S
C242 C247 1.379 . S
C242 N249 1.356 . S
C243 C242 1.363 . S
C243 C246 1.363 . S
N244 C246 1.356 . S
N244 H256 0.984 . S
N244 H257 0.985 . S
N245 C247 1.356 . S
N245 H250 0.984 . S
N245 H251 0.985 . S
C246 C240 1.379 . S
C246 C243 1.363 . S
C246 N244 1.356 . S
C247 C241 1.363 . S
C247 C242 1.379 . S
C247 N245 1.356 . S
N248 C240 1.356 . S
N248 H254 0.984 . S
N248 H255 0.984 . S
N249 C242 1.356 . S
N249 H252 0.984 . S
N249 H253 0.985 . S
H250 N245 0.984 . S
H251 N245 0.985 . S
H252 N249 0.984 . S
H253 N249 0.985 . S
H254 N248 0.984 . S
H255 N248 0.984 . S
H256 N244 0.984 . S
H257 N244 0.985 . S
C258 C259 1.363 . S
C258 C264 1.379 . S
C258 N266 1.356 . S
C259 C258 1.363 . S
C259 C265 1.363 . S
C260 C261 1.363 . S
C260 C265 1.379 . S
C260 N267 1.356 . S
C261 C260 1.363 . S
C261 C264 1.363 . S
N262 C264 1.356 . S
N262 H274 0.984 . S
N262 H275 0.985 . S
N263 C265 1.356 . S
N263 H268 0.984 . S
N263 H269 0.985 . S
C264 C258 1.379 . S
C264 C261 1.363 . S
C264 N262 1.356 . S
C265 C259 1.363 . S
C265 C260 1.379 . S
C265 N263 1.356 . S
N266 C258 1.356 . S
N266 H272 0.984 . S
N266 H273 0.984 . S
N267 C260 1.356 . S
N267 H270 0.984 . S
N267 H271 0.985 . S
H268 N263 0.984 . S
H269 N263 0.985 . S
H270 N267 0.984 . S
H271 N267 0.985 . S
H272 N266 0.984 . S
H273 N266 0.984 . S
H274 N262 0.984 . S
H275 N262 0.985 . S
C276 C277 1.363 . S
C276 C282 1.379 . S
C276 N284 1.356 . S
C277 C276 1.363 . S
C277 C283 1.363 . S
C278 C279 1.363 . S
C278 C283 1.379 . S
C278 N285 1.356 . S
C279 C278 1.363 . S
C279 C282 1.363 . S
N280 C282 1.356 . S
N280 H292 0.984 . S
N280 H293 0.985 . S
N281 C283 1.356 . S
N281 H286 0.984 . S
N281 H287 0.985 . S
C282 C276 1.379 . S
C282 C279 1.363 . S
C282 N280 1.356 . S
C283 C277 1.363 . S
C283 C278 1.379 . S
C283 N281 1.356 . S
N284 C276 1.356 . S
N284 H290 0.984 . S
N284 H291 0.984 . S
N285 C278 1.356 . S
N285 H288 0.984 . S
N285 H289 0.985 . S
H286 N281 0.984 . S
H287 N281 0.985 . S
H288 N285 0.984 . S
H289 N285 0.985 . S
H290 N284 0.984 . S
H291 N284 0.984 . S
H292 N280 0.984 . S
H293 N280 0.985 . S
C294 C295 1.354 1_655 S
C294 C300 1.382 . S
C294 N302 1.359 1_655 S
C295 C294 1.354 1_455 S
C295 C301 1.363 . S
C296 C297 1.354 1_455 S
C296 C301 1.382 . S
C296 N303 1.359 1_455 S
C297 C296 1.354 1_655 S
C297 C300 1.363 . S
N298 C300 1.356 . S
N298 H310 0.984 . S
N298 H311 0.985 . S
N299 C301 1.356 . S
N299 H304 0.984 . S
N299 H305 0.985 . S
C300 C294 1.382 . S
C300 C297 1.363 . S
C300 N298 1.356 . S
C301 C295 1.363 . S
C301 C296 1.382 . S
C301 N299 1.356 . S
N302 C294 1.359 1_455 S
N302 H308 0.984 1_455 S
N302 H309 0.984 . S
N303 C296 1.359 1_655 S
N303 H306 0.984 . S
N303 H307 0.985 1_655 S
H304 N299 0.984 . S
H305 N299 0.985 . S
H306 N303 0.984 . S
H307 N303 0.985 1_455 S
H308 N302 0.984 1_655 S
H309 N302 0.984 . S
H310 N298 0.984 . S
H311 N298 0.985 . S
C312 C313 1.353 1_565 S
C312 C318 1.393 . S
C312 N320 1.347 1_565 S
C313 C312 1.353 1_545 S
C313 C319 1.363 . S
C314 C315 1.353 1_545 S
C314 C319 1.393 . S
C314 N321 1.347 1_545 S
C315 C314 1.353 1_565 S
C315 C318 1.363 . S
N316 C318 1.356 . S
N316 H328 0.984 . S
N316 H329 0.985 . S
N317 C319 1.356 . S
N317 H322 0.984 . S
N317 H323 0.985 . S
C318 C312 1.393 . S
C318 C315 1.363 . S
C318 N316 1.356 . S
C319 C313 1.363 . S
C319 C314 1.393 . S
C319 N317 1.356 . S
N320 C312 1.347 1_545 S
N320 H326 0.984 1_545 S
N320 H327 0.984 . S
N321 C314 1.347 1_565 S
N321 H324 0.984 . S
N321 H325 0.985 1_565 S
H322 N317 0.984 . S
H323 N317 0.985 . S
H324 N321 0.984 . S
H325 N321 0.985 1_545 S
H326 N320 0.984 1_565 S
H327 N320 0.984 . S
H328 N316 0.984 . S
H329 N316 0.985 . S
C330 C331 1.363 . S
C330 C336 1.379 . S
C330 N338 1.356 . S
C331 C330 1.363 . S
C331 C337 1.363 . S
C332 C333 1.363 . S
C332 C337 1.379 . S
C332 N339 1.356 . S
C333 C332 1.363 . S
C333 C336 1.363 . S
N334 C336 1.356 . S
N334 H346 0.984 . S
N334 H347 0.985 . S
N335 C337 1.356 . S
N335 H340 0.984 . S
N335 H341 0.985 . S
C336 C330 1.379 . S
C336 C333 1.363 . S
C336 N334 1.356 . S
C337 C331 1.363 . S
C337 C332 1.379 . S
C337 N335 1.356 . S
N338 C330 1.356 . S
N338 H344 0.984 . S
N338 H345 0.984 . S
N339 C332 1.356 . S
N339 H342 0.984 . S
N339 H343 0.985 . S
H340 N335 0.984 . S
H341 N335 0.985 . S
H342 N339 0.984 . S
H343 N339 0.985 . S
H344 N338 0.984 . S
H345 N338 0.984 . S
H346 N334 0.984 . S
H347 N334 0.985 . S
C348 C349 1.363 . S
C348 C354 1.393 . S
C348 N356 1.356 . S
C349 C348 1.363 . S
C349 C355 1.353 1_655 S
C350 C351 1.363 . S
C350 C355 1.393 . S
C350 N357 1.356 . S
C351 C350 1.363 . S
C351 C354 1.353 1_455 S
N352 C354 1.347 1_455 S
N352 H364 0.984 1_455 S
N352 H365 0.985 . S
N353 C355 1.347 1_655 S
N353 H358 0.984 . S
N353 H359 0.985 1_655 S
C354 C348 1.393 . S
C354 C351 1.353 1_655 S
C354 N352 1.347 1_655 S
C355 C349 1.353 1_455 S
C355 C350 1.393 . S
C355 N353 1.347 1_455 S
N356 C348 1.356 . S
N356 H362 0.984 . S
N356 H363 0.984 . S
N357 C350 1.356 . S
N357 H360 0.984 . S
N357 H361 0.985 . S
H358 N353 0.984 . S
H359 N353 0.985 1_455 S
H360 N357 0.984 . S
H361 N357 0.985 . S
H362 N356 0.984 . S
H363 N356 0.984 . S
H364 N352 0.984 1_655 S
H365 N352 0.985 . S
C366 C367 1.354 1_545 S
C366 C372 1.382 . S
C366 N374 1.359 1_545 S
C367 C366 1.354 1_565 S
C367 C373 1.363 . S
C368 C369 1.354 1_565 S
C368 C373 1.382 . S
C368 N375 1.359 1_565 S
C369 C368 1.354 1_545 S
C369 C372 1.363 . S
N370 C372 1.356 . S
N370 H382 0.984 . S
N370 H383 0.985 . S
N371 C373 1.356 . S
N371 H376 0.984 . S
N371 H377 0.985 . S
C372 C366 1.382 . S
C372 C369 1.363 . S
C372 N370 1.356 . S
C373 C367 1.363 . S
C373 C368 1.382 . S
C373 N371 1.356 . S
N374 C366 1.359 1_565 S
N374 H380 0.984 1_565 S
N374 H381 0.984 . S
N375 C368 1.359 1_545 S
N375 H378 0.984 . S
N375 H379 0.985 1_545 S
H376 N371 0.984 . S
H377 N371 0.985 . S
H378 N375 0.984 . S
H379 N375 0.985 1_565 S
H380 N374 0.984 1_545 S
H381 N374 0.984 . S
H382 N370 0.984 . S
H383 N370 0.985 . S
C384 C385 1.363 . S
C384 C390 1.379 . S
C384 N392 1.356 . S
C385 C384 1.363 . S
C385 C391 1.363 . S
C386 C387 1.363 . S
C386 C391 1.379 . S
C386 N393 1.356 . S
C387 C386 1.363 . S
C387 C390 1.363 . S
N388 C390 1.356 . S
N388 H400 0.984 . S
N388 H401 0.985 . S
N389 C391 1.356 . S
N389 H394 0.984 . S
N389 H395 0.985 . S
C390 C384 1.379 . S
C390 C387 1.363 . S
C390 N388 1.356 . S
C391 C385 1.363 . S
C391 C386 1.379 . S
C391 N389 1.356 . S
N392 C384 1.356 . S
N392 H398 0.984 . S
N392 H399 0.984 . S
N393 C386 1.356 . S
N393 H396 0.984 . S
N393 H397 0.985 . S
H394 N389 0.984 . S
H395 N389 0.985 . S
H396 N393 0.984 . S
H397 N393 0.985 . S
H398 N392 0.984 . S
H399 N392 0.984 . S
H400 N388 0.984 . S
H401 N388 0.985 . S
C402 C403 1.363 1_455 S
C402 C408 1.379 . S
C402 N410 1.356 . S
C403 C402 1.363 1_655 S
C403 C409 1.363 . S
C404 C405 1.363 1_655 S
C404 C409 1.379 . S
C404 N411 1.356 . S
C405 C404 1.363 1_455 S
C405 C408 1.363 . S
N406 C408 1.356 . S
N406 H418 0.984 . S
N406 H419 0.985 . S
N407 C409 1.356 . S
N407 H412 0.984 . S
N407 H413 0.985 . S
C408 C402 1.379 . S
C408 C405 1.363 . S
C408 N406 1.356 . S
C409 C403 1.363 . S
C409 C404 1.379 . S
C409 N407 1.356 . S
N410 C402 1.356 . S
N410 H416 0.984 . S
N410 H417 0.984 . S
N411 C404 1.356 . S
N411 H414 0.984 . S
N411 H415 0.985 . S
H412 N407 0.984 . S
H413 N407 0.985 . S
H414 N411 0.984 . S
H415 N411 0.985 . S
H416 N410 0.984 . S
H417 N410 0.984 . S
H418 N406 0.984 . S
H419 N406 0.985 . S
C420 C421 1.363 . S
C420 C426 1.379 1_566 S
C420 N428 1.356 . S
C421 C420 1.363 . S
C421 C427 1.363 . S
C422 C423 1.363 . S
C422 C427 1.379 1_544 S
C422 N429 1.356 . S
C423 C422 1.363 . S
C423 C426 1.363 . S
N424 C426 1.356 . S
N424 H436 0.984 . S
N424 H437 0.985 . S
N425 C427 1.356 . S
N425 H430 0.984 . S
N425 H431 0.985 . S
C426 C420 1.379 1_544 S
C426 C423 1.363 . S
C426 N424 1.356 . S
C427 C421 1.363 . S
C427 C422 1.379 1_566 S
C427 N425 1.356 . S
N428 C420 1.356 . S
N428 H434 0.984 . S
N428 H435 0.984 . S
N429 C422 1.356 . S
N429 H432 0.984 . S
N429 H433 0.985 . S
H430 N425 0.984 . S
H431 N425 0.985 . S
H432 N429 0.984 . S
H433 N429 0.985 . S
H434 N428 0.984 . S
H435 N428 0.984 . S
H436 N424 0.984 . S
H437 N424 0.985 . S
C438 C439 1.363 . S
C438 C444 1.379 . S
C438 N446 1.356 . S
C439 C438 1.363 . S
C439 C445 1.363 . S
C440 C441 1.363 . S
C440 C445 1.379 . S
C440 N447 1.356 . S
C441 C440 1.363 . S
C441 C444 1.363 . S
N442 C444 1.356 . S
N442 H454 0.984 . S
N442 H455 0.985 . S
N443 C445 1.356 . S
N443 H448 0.984 . S
N443 H449 0.985 . S
C444 C438 1.379 . S
C444 C441 1.363 . S
C444 N442 1.356 . S
C445 C439 1.363 . S
C445 C440 1.379 . S
C445 N443 1.356 . S
N446 C438 1.356 . S
N446 H452 0.984 . S
N446 H453 0.984 . S
N447 C440 1.356 . S
N447 H450 0.984 . S
N447 H451 0.985 . S
H448 N443 0.984 . S
H449 N443 0.985 . S
H450 N447 0.984 . S
H451 N447 0.985 . S
H452 N446 0.984 . S
H453 N446 0.984 . S
H454 N442 0.984 . S
H455 N442 0.985 . S
C456 C457 1.363 . S
C456 C462 1.379 . S
C456 N464 1.356 . S
C457 C456 1.363 . S
C457 C463 1.363 1_455 S
C458 C459 1.363 . S
C458 C463 1.379 . S
C458 N465 1.356 . S
C459 C458 1.363 . S
C459 C462 1.363 1_655 S
N460 C462 1.356 . S
N460 H472 0.984 . S
N460 H473 0.985 . S
N461 C463 1.356 . S
N461 H466 0.984 . S
N461 H467 0.985 . S
C462 C456 1.379 . S
C462 C459 1.363 1_455 S
C462 N460 1.356 . S
C463 C457 1.363 1_655 S
C463 C458 1.379 . S
C463 N461 1.356 . S
N464 C456 1.356 . S
N464 H470 0.984 . S
N464 H471 0.984 . S
N465 C458 1.356 . S
N465 H468 0.984 . S
N465 H469 0.985 . S
H466 N461 0.984 . S
H467 N461 0.985 . S
H468 N465 0.984 . S
H469 N465 0.985 . S
H470 N464 0.984 . S
H471 N464 0.984 . S
H472 N460 0.984 . S
H473 N460 0.985 . S
C474 C475 1.363 . S
C474 C480 1.379 1_554 S
C474 N482 1.356 . S
C475 C474 1.363 . S
C475 C481 1.363 1_565 S
C476 C477 1.363 . S
C476 C481 1.379 1_556 S
C476 N483 1.356 . S
C477 C476 1.363 . S
C477 C480 1.363 1_545 S
N478 C480 1.356 . S
N478 H490 0.984 . S
N478 H491 0.985 . S
N479 C481 1.356 . S
N479 H484 0.984 . S
N479 H485 0.985 . S
C480 C474 1.379 1_556 S
C480 C477 1.363 1_565 S
C480 N478 1.356 . S
C481 C475 1.363 1_545 S
C481 C476 1.379 1_554 S
C481 N479 1.356 . S
N482 C474 1.356 . S
N482 H488 0.984 . S
N482 H489 0.984 . S
N483 C476 1.356 . S
N483 H486 0.984 . S
N483 H487 0.985 . S
H484 N479 0.984 . S
H485 N479 0.985 . S
H486 N483 0.984 . S
H487 N483 0.985 . S
H488 N482 0.984 . S
H489 N482 0.984 . S
H490 N478 0.984 . S
H491 N478 0.985 . S
C492 C493 1.363 . S
C492 C498 1.379 1_655 S
C492 N500 1.356 . S
C493 C492 1.363 . S
C493 C499 1.363 . S
C494 C495 1.363 . S
C494 C499 1.379 1_455 S
C494 N501 1.356 . S
C495 C494 1.363 . S
C495 C498 1.363 . S
N496 C498 1.356 . S
N496 H508 0.984 . S
N496 H509 0.985 . S
N497 C499 1.356 . S
N497 H502 0.984 . S
N497 H503 0.985 . S
C498 C492 1.379 1_455 S
C498 C495 1.363 . S
C498 N496 1.356 . S
C499 C493 1.363 . S
C499 C494 1.379 1_655 S
C499 N497 1.356 . S
N500 C492 1.356 . S
N500 H506 0.984 . S
N500 H507 0.984 . S
N501 C494 1.356 . S
N501 H504 0.984 . S
N501 H505 0.985 . S
H502 N497 0.984 . S
H503 N497 0.985 . S
H504 N501 0.984 . S
H505 N501 0.985 . S
H506 N500 0.984 . S
H507 N500 0.984 . S
H508 N496 0.984 . S
H509 N496 0.985 . S
C510 C511 1.363 . S
C510 C516 1.379 1_545 S
C510 N518 1.356 . S
C511 C510 1.363 . S
C511 C517 1.363 . S
C512 C513 1.363 . S
C512 C517 1.379 1_565 S
C512 N519 1.356 . S
C513 C512 1.363 . S
C513 C516 1.363 . S
N514 C516 1.356 . S
N514 H526 0.984 . S
N514 H527 0.985 . S
N515 C517 1.356 . S
N515 H520 0.984 . S
N515 H521 0.985 . S
C516 C510 1.379 1_565 S
C516 C513 1.363 . S
C516 N514 1.356 . S
C517 C511 1.363 . S
C517 C512 1.379 1_545 S
C517 N515 1.356 . S
N518 C510 1.356 . S
N518 H524 0.984 1_545 S
N518 H525 0.984 . S
N519 C512 1.356 . S
N519 H522 0.984 . S
N519 H523 0.985 1_565 S
H520 N515 0.984 . S
H521 N515 0.985 . S
H522 N519 0.984 . S
H523 N519 0.985 1_545 S
H524 N518 0.984 1_565 S
H525 N518 0.984 . S
H526 N514 0.984 . S
H527 N514 0.985 . S
C528 C529 1.363 . S
C528 C534 1.379 . S
C528 N536 1.356 . S
C529 C528 1.363 . S
C529 C535 1.363 . S
C530 C531 1.363 . S
C530 C535 1.379 . S
C530 N537 1.356 . S
C531 C530 1.363 . S
C531 C534 1.363 . S
N532 C534 1.356 . S
N532 H544 0.984 . S
N532 H545 0.985 . S
N533 C535 1.356 . S
N533 H538 0.984 . S
N533 H539 0.985 . S
C534 C528 1.379 . S
C534 C531 1.363 . S
C534 N532 1.356 . S
C535 C529 1.363 . S
C535 C530 1.379 . S
C535 N533 1.356 . S
N536 C528 1.356 . S
N536 H542 0.984 . S
N536 H543 0.984 . S
N537 C530 1.356 . S
N537 H540 0.984 . S
N537 H541 0.985 . S
H538 N533 0.984 . S
H539 N533 0.985 . S
H540 N537 0.984 . S
H541 N537 0.985 . S
H542 N536 0.984 . S
H543 N536 0.984 . S
H544 N532 0.984 . S
H545 N532 0.985 . S
C546 C547 1.363 . S
C546 C552 1.379 1_655 S
C546 N554 1.356 . S
C547 C546 1.363 . S
C547 C553 1.363 . S
C548 C549 1.363 . S
C548 C553 1.379 1_455 S
C548 N555 1.356 . S
C549 C548 1.363 . S
C549 C552 1.363 . S
N550 C552 1.356 . S
N550 H562 0.984 . S
N550 H563 0.985 . S
N551 C553 1.356 . S
N551 H556 0.984 . S
N551 H557 0.985 . S
C552 C546 1.379 1_455 S
C552 C549 1.363 . S
C552 N550 1.356 . S
C553 C547 1.363 . S
C553 C548 1.379 1_655 S
C553 N551 1.356 . S
N554 C546 1.356 . S
N554 H560 0.984 . S
N554 H561 0.984 . S
N555 C548 1.356 . S
N555 H558 0.984 . S
N555 H559 0.985 . S
H556 N551 0.984 . S
H557 N551 0.985 . S
H558 N555 0.984 . S
H559 N555 0.985 . S
H560 N554 0.984 . S
H561 N554 0.984 . S
H562 N550 0.984 . S
H563 N550 0.985 . S
C564 C565 1.363 . S
C564 C570 1.379 1_565 S
C564 N572 1.356 . S
C565 C564 1.363 . S
C565 C571 1.363 . S
C566 C567 1.363 . S
C566 C571 1.379 1_545 S
C566 N573 1.356 . S
C567 C566 1.363 . S
C567 C570 1.363 . S
N568 C570 1.356 . S
N568 H580 0.984 . S
N568 H581 0.985 . S
N569 C571 1.356 . S
N569 H574 0.984 . S
N569 H575 0.985 . S
C570 C564 1.379 1_545 S
C570 C567 1.363 . S
C570 N568 1.356 . S
C571 C565 1.363 . S
C571 C566 1.379 1_565 S
C571 N569 1.356 . S
N572 C564 1.356 . S
N572 H578 0.984 . S
N572 H579 0.984 . S
N573 C566 1.356 . S
N573 H576 0.984 . S
N573 H577 0.985 . S
H574 N569 0.984 . S
H575 N569 0.985 . S
H576 N573 0.984 . S
H577 N573 0.985 . S
H578 N572 0.984 . S
H579 N572 0.984 . S
H580 N568 0.984 . S
H581 N568 0.985 . S
C582 C583 1.363 . S
C582 C588 1.379 . S
C582 N590 1.356 . S
C583 C582 1.363 . S
C583 C589 1.363 . S
C584 C585 1.363 . S
C584 C589 1.379 . S
C584 N591 1.356 . S
C585 C584 1.363 . S
C585 C588 1.363 . S
N586 C588 1.356 . S
N586 H598 0.984 . S
N586 H599 0.985 . S
N587 C589 1.356 . S
N587 H592 0.984 . S
N587 H593 0.985 . S
C588 C582 1.379 . S
C588 C585 1.363 . S
C588 N586 1.356 . S
C589 C583 1.363 . S
C589 C584 1.379 . S
C589 N587 1.356 . S
N590 C582 1.356 . S
N590 H596 0.984 . S
N590 H597 0.984 . S
N591 C584 1.356 . S
N591 H594 0.984 . S
N591 H595 0.985 . S
H592 N587 0.984 . S
H593 N587 0.985 . S
H594 N591 0.984 . S
H595 N591 0.985 . S
H596 N590 0.984 . S
H597 N590 0.984 . S
H598 N586 0.984 . S
H599 N586 0.985 . S
C169 C112 2.130 . S
C171 C1 2.125 . S
C187 C27 2.125 . S
C189 C126 2.130 . S
C205 C29 2.125 . S
C207 C141 2.125 . S
C223 C43 2.125 . S
C225 C154 2.130 . S
C241 C84 2.130 . S
C243 C57 2.125 . S
C259 C71 2.125 . S
C261 C99 2.125 . S
C277 C55 1.488 . S
C279 C13 1.488 . S
C295 C69 1.488 . S
C297 C15 1.488 . S
C313 C83 1.488 . S
C315 C41 1.488 . S
C331 C96 1.489 . S
C333 C138 1.489 . S
C349 C111 1.488 . S
C351 C153 1.488 . S
C367 C124 1.489 . S
C369 C166 1.489 . S
C385 C0 1.905 . S
C387 C127 1.901 . S
C403 C26 1.905 . S
C405 C140 1.905 . S
C421 C28 1.905 . S
C423 C155 1.901 . S
C439 C85 1.901 . S
C441 C42 1.905 . S
C457 C56 1.905 . S
C459 C98 1.905 . S
C475 C113 1.901 . S
C477 C70 1.905 . S
C493 C167 1.484 . S
C495 C12 1.486 . S
C511 C14 1.486 . S
C513 C97 1.484 . S
C529 C110 1.486 . S
C531 C40 1.486 . S
C547 C54 1.486 . S
C549 C125 1.484 . S
C565 C68 1.486 . S
C567 C139 1.484 . S
C583 C152 1.486 . S
C585 C82 1.486 . S
