# Generated by pormake.
# Topology uot, (4)-cn, num edge types: 1
# Building blocks:
#     Node 0, Type 0, BuildingBlock: ESEHIV_clean_sbu_0, # of connection points: 4
#     Node 1, Type 0, BuildingBlock: ESEHIV_clean_sbu_0, # of connection points: 4
#     Node 2, Type 0, BuildingBlock: ESEHIV_clean_sbu_0, # of connection points: 4
#     Node 3, Type 0, BuildingBlock: ESEHIV_clean_sbu_0, # of connection points: 4
#     Node 4, Type 0, BuildingBlock: ESEHIV_clean_sbu_0, # of connection points: 4
#     Node 5, Type 0, BuildingBlock: ESEHIV_clean_sbu_0, # of connection points: 4
#     Node 6, Type 0, BuildingBlock: ESEHIV_clean_sbu_0, # of connection points: 4
#     Node 7, Type 0, BuildingBlock: ESEHIV_clean_sbu_0, # of connection points: 4
#     Node 8, Type 0, BuildingBlock: ESEHIV_clean_sbu_0, # of connection points: 4
#     Node 9, Type 0, BuildingBlock: ESEHIV_clean_sbu_0, # of connection points: 4
#     Node 10, Type 0, BuildingBlock: ESEHIV_clean_sbu_0, # of connection points: 4
#     Node 11, Type 0, BuildingBlock: ESEHIV_clean_sbu_0, # of connection points: 4
#     Node 12, Type 0, BuildingBlock: ESEHIV_clean_sbu_0, # of connection points: 4
#     Node 13, Type 0, BuildingBlock: ESEHIV_clean_sbu_0, # of connection points: 4
#     Node 14, Type 0, BuildingBlock: ESEHIV_clean_sbu_0, # of connection points: 4
#     Node 15, Type 0, BuildingBlock: ESEHIV_clean_sbu_0, # of connection points: 4
#     Edge 16, Type (0, 0), BuildingBlock: KIFKEQ_clean_linker_1, # of connection points: 2
#     Edge 17, Type (0, 0), BuildingBlock: KIFKEQ_clean_linker_1, # of connection points: 2
#     Edge 18, Type (0, 0), BuildingBlock: KIFKEQ_clean_linker_1, # of connection points: 2
#     Edge 19, Type (0, 0), BuildingBlock: KIFKEQ_clean_linker_1, # of connection points: 2
#     Edge 20, Type (0, 0), BuildingBlock: KIFKEQ_clean_linker_1, # of connection points: 2
#     Edge 21, Type (0, 0), BuildingBlock: KIFKEQ_clean_linker_1, # of connection points: 2
#     Edge 22, Type (0, 0), BuildingBlock: KIFKEQ_clean_linker_1, # of connection points: 2
#     Edge 23, Type (0, 0), BuildingBlock: KIFKEQ_clean_linker_1, # of connection points: 2
#     Edge 24, Type (0, 0), BuildingBlock: KIFKEQ_clean_linker_1, # of connection points: 2
#     Edge 25, Type (0, 0), BuildingBlock: KIFKEQ_clean_linker_1, # of connection points: 2
#     Edge 26, Type (0, 0), BuildingBlock: KIFKEQ_clean_linker_1, # of connection points: 2
#     Edge 27, Type (0, 0), BuildingBlock: KIFKEQ_clean_linker_1, # of connection points: 2
#     Edge 28, Type (0, 0), BuildingBlock: KIFKEQ_clean_linker_1, # of connection points: 2
#     Edge 29, Type (0, 0), BuildingBlock: KIFKEQ_clean_linker_1, # of connection points: 2
#     Edge 30, Type (0, 0), BuildingBlock: KIFKEQ_clean_linker_1, # of connection points: 2
#     Edge 31, Type (0, 0), BuildingBlock: KIFKEQ_clean_linker_1, # of connection points: 2
#     Edge 32, Type (0, 0), BuildingBlock: KIFKEQ_clean_linker_1, # of connection points: 2
#     Edge 33, Type (0, 0), BuildingBlock: KIFKEQ_clean_linker_1, # of connection points: 2
#     Edge 34, Type (0, 0), BuildingBlock: KIFKEQ_clean_linker_1, # of connection points: 2
#     Edge 35, Type (0, 0), BuildingBlock: KIFKEQ_clean_linker_1, # of connection points: 2
#     Edge 36, Type (0, 0), BuildingBlock: KIFKEQ_clean_linker_1, # of connection points: 2
#     Edge 37, Type (0, 0), BuildingBlock: KIFKEQ_clean_linker_1, # of connection points: 2
#     Edge 38, Type (0, 0), BuildingBlock: KIFKEQ_clean_linker_1, # of connection points: 2
#     Edge 39, Type (0, 0), BuildingBlock: KIFKEQ_clean_linker_1, # of connection points: 2
#     Edge 40, Type (0, 0), BuildingBlock: KIFKEQ_clean_linker_1, # of connection points: 2
#     Edge 41, Type (0, 0), BuildingBlock: KIFKEQ_clean_linker_1, # of connection points: 2
#     Edge 42, Type (0, 0), BuildingBlock: KIFKEQ_clean_linker_1, # of connection points: 2
#     Edge 43, Type (0, 0), BuildingBlock: KIFKEQ_clean_linker_1, # of connection points: 2
#     Edge 44, Type (0, 0), BuildingBlock: KIFKEQ_clean_linker_1, # of connection points: 2
#     Edge 45, Type (0, 0), BuildingBlock: KIFKEQ_clean_linker_1, # of connection points: 2
#     Edge 46, Type (0, 0), BuildingBlock: KIFKEQ_clean_linker_1, # of connection points: 2
#     Edge 47, Type (0, 0), BuildingBlock: KIFKEQ_clean_linker_1, # of connection points: 2
# Relax obj value: 0.100
# Max RMSD: 0.253
# Mean RMSD: 0.253
data_MOF--net-uot--node1-ESEHIV_clean_sbu_0--edge1-KIFKEQ_clean_linker_1
_symmetry_space_group_name_H-M    P1
_symmetry_Int_Tables_number       1
_symmetry_cell_setting            triclinic
loop_
_symmetry_equiv_pos_as_xyz
'x, y, z'
_cell_length_a     48.779468
_cell_length_b     48.688016
_cell_length_c     46.975806
_cell_angle_alpha  90.355528
_cell_angle_beta   89.686842
_cell_angle_gamma 89.967569
loop_
_atom_site_label
_atom_site_type_symbol
_atom_site_fract_x
_atom_site_fract_y
_atom_site_fract_z
_atom_type_partial_charge
Cu0 Cu 0.20695 0.46101 0.35452 0.0
N1 N 0.20786 0.49569 0.33767 0.0
N2 N 0.1982 0.53303 0.31205 0.0
C3 C 0.19181 0.50647 0.31728 0.0
C4 C 0.21915 0.53891 0.32976 0.0
C5 C 0.22503 0.51592 0.34541 0.0
O6 O 0.17682 0.43902 0.3399 0.0
C7 C 0.19087 0.48573 0.40667 0.0
O8 O 0.1761 0.50135 0.38997 0.0
H9 H 0.17572 0.49513 0.30671 0.0
H10 H 0.24034 0.51418 0.36187 0.0
N11 N 0.23964 0.44305 0.34505 0.0
N12 N 0.27362 0.41219 0.34233 0.0
C13 C 0.2496 0.41915 0.35507 0.0
C14 C 0.2579 0.45149 0.32544 0.0
C15 C 0.27884 0.4326 0.32374 0.0
C16 C 0.15199 0.44693 0.33857 0.0
O17 O 0.14524 0.4713 0.34848 0.0
H18 H 0.23919 0.40697 0.371 0.0
H19 H 0.25605 0.47009 0.31313 0.0
O20 O 0.2049 0.46622 0.3957 0.0
H21 H 0.22895 0.55872 0.33213 0.0
H22 H 0.29671 0.43407 0.3101 0.0
Cu23 Cu 0.46495 0.82441 0.68339 0.0
N24 N 0.49756 0.82568 0.70415 0.0
N25 N 0.53118 0.83817 0.7337 0.0
C26 C 0.50608 0.84439 0.72345 0.0
C27 C 0.53856 0.81464 0.72037 0.0
C28 C 0.51784 0.80703 0.70221 0.0
O29 O 0.44094 0.85432 0.69519 0.0
C30 C 0.4951 0.83826 0.63398 0.0
O31 O 0.50997 0.85201 0.65241 0.0
H32 H 0.49408 0.86205 0.72997 0.0
H33 H 0.51759 0.78925 0.6883 0.0
N34 N 0.44771 0.79135 0.69277 0.0
N35 N 0.42159 0.75359 0.69326 0.0
C36 C 0.42853 0.77657 0.67879 0.0
C37 C 0.45273 0.77744 0.71682 0.0
C38 C 0.43679 0.75422 0.71717 0.0
C39 C 0.44749 0.87958 0.69397 0.0
O40 O 0.47124 0.8865 0.68284 0.0
H41 H 0.42014 0.78232 0.65839 0.0
H42 H 0.46699 0.78387 0.73309 0.0
O43 O 0.47393 0.82541 0.64277 0.0
H44 H 0.55786 0.80401 0.72299 0.0
H45 H 0.43616 0.73913 0.73399 0.0
Cu46 Cu 0.81412 0.56207 0.36086 0.0
N47 N 0.81771 0.52749 0.34379 0.0
N48 N 0.82953 0.49296 0.31465 0.0
C49 C 0.8324 0.52001 0.32061 0.0
C50 C 0.81241 0.48317 0.33483 0.0
C51 C 0.80524 0.50447 0.35277 0.0
O52 O 0.84178 0.58665 0.34567 0.0
C53 C 0.79726 0.55407 0.41807 0.0
O54 O 0.7726 0.55674 0.40738 0.0
H55 H 0.84472 0.53412 0.30825 0.0
H56 H 0.79185 0.50333 0.37116 0.0
N57 N 0.77942 0.57584 0.35173 0.0
N58 N 0.7425 0.6028 0.34685 0.0
C59 C 0.76858 0.601 0.35651 0.0
C60 C 0.75965 0.56134 0.33868 0.0
C61 C 0.73697 0.57776 0.33572 0.0
C62 C 0.86713 0.58052 0.34465 0.0
O63 O 0.87541 0.5572 0.35562 0.0
H64 H 0.77962 0.61754 0.36679 0.0
H65 H 0.7615 0.54013 0.33202 0.0
O66 O 0.81806 0.55678 0.40182 0.0
H67 H 0.80598 0.46199 0.33684 0.0
H68 H 0.71765 0.57137 0.32663 0.0
Cu69 Cu 0.5649 0.2075 0.6705 0.0
N70 N 0.53615 0.21342 0.69614 0.0
N71 N 0.50341 0.20564 0.72851 0.0
C72 C 0.52629 0.19582 0.7157 0.0
C73 C 0.4988 0.23036 0.71665 0.0
C74 C 0.51905 0.23512 0.69674 0.0
O75 O 0.59121 0.1828 0.6877 0.0
C76 C 0.56279 0.18633 0.61389 0.0
O77 O 0.58966 0.18801 0.61467 0.0
H78 H 0.53495 0.17571 0.71951 0.0
H79 H 0.52069 0.25279 0.68303 0.0
N80 N 0.58076 0.24129 0.66165 0.0
N81 N 0.60723 0.27865 0.66085 0.0
C82 C 0.60448 0.2527 0.67051 0.0
C83 C 0.56849 0.26052 0.64568 0.0
C84 C 0.58464 0.28363 0.64532 0.0
C85 C 0.58747 0.15693 0.6877 0.0
O86 O 0.56619 0.1467 0.67429 0.0
H87 H 0.61884 0.24266 0.68452 0.0
H88 H 0.54876 0.25804 0.63559 0.0
O89 O 0.54892 0.19268 0.63596 0.0
H90 H 0.48176 0.24383 0.72169 0.0
H91 H 0.58008 0.30277 0.63472 0.0
Cu92 Cu 0.21288 0.56208 0.66653 0.0
N93 N 0.20959 0.52806 0.68448 0.0
N94 N 0.19609 0.49442 0.71354 0.0
C95 C 0.19308 0.52111 0.7064 0.0
C96 C 0.21511 0.48426 0.69536 0.0
C97 C 0.22328 0.50498 0.67743 0.0
O98 O 0.18715 0.58754 0.68413 0.0
C99 C 0.22395 0.54617 0.61002 0.0
O100 O 0.24838 0.54154 0.62058 0.0
H101 H 0.17926 0.53533 0.71695 0.0
H102 H 0.2381 0.50329 0.66033 0.0
N103 N 0.24864 0.57525 0.67158 0.0
N104 N 0.28618 0.60165 0.67139 0.0
C105 C 0.25903 0.60032 0.66574 0.0
C106 C 0.26982 0.5605 0.68151 0.0
C107 C 0.29293 0.57662 0.68134 0.0
C108 C 0.16131 0.58443 0.68246 0.0
O109 O 0.15151 0.56412 0.66703 0.0
H110 H 0.24707 0.61704 0.65716 0.0
H111 H 0.26862 0.53939 0.68837 0.0
O112 O 0.2054 0.55626 0.62619 0.0
H113 H 0.22216 0.46318 0.69461 0.0
H114 H 0.31309 0.57051 0.68845 0.0
Cu115 Cu 0.55531 0.81808 0.37021 0.0
N116 N 0.52131 0.82119 0.35251 0.0
N117 N 0.48677 0.83395 0.32443 0.0
C118 C 0.51401 0.83582 0.32947 0.0
C119 C 0.47679 0.81744 0.34501 0.0
C120 C 0.49806 0.80974 0.36228 0.0
O121 O 0.58083 0.8439 0.3532 0.0
C122 C 0.56363 0.81967 0.43094 0.0
O123 O 0.5878 0.80875 0.42583 0.0
H124 H 0.52819 0.84821 0.31727 0.0
H125 H 0.49671 0.79686 0.38091 0.0
N126 N 0.56784 0.782 0.36515 0.0
N127 N 0.59388 0.7441 0.36232 0.0
C128 C 0.59319 0.77133 0.36853 0.0
C129 C 0.55215 0.76095 0.35635 0.0
C130 C 0.56802 0.73772 0.35455 0.0
C131 C 0.57708 0.86973 0.35479 0.0
O132 O 0.55611 0.87922 0.36952 0.0
H133 H 0.61064 0.78328 0.37548 0.0
H134 H 0.53064 0.76244 0.3512 0.0
O135 O 0.5481 0.82566 0.41023 0.0
H136 H 0.45559 0.81132 0.34749 0.0
H137 H 0.56101 0.71779 0.34736 0.0
Cu138 Cu 0.81882 0.46848 0.67388 0.0
N139 N 0.82265 0.50253 0.69188 0.0
N140 N 0.83663 0.53655 0.72044 0.0
C141 C 0.83986 0.50988 0.71296 0.0
C142 C 0.81674 0.54625 0.70334 0.0
C143 C 0.80827 0.52527 0.68572 0.0
O144 O 0.84675 0.44366 0.68766 0.0
C145 C 0.80042 0.47978 0.61832 0.0
O146 O 0.77629 0.47916 0.63081 0.0
H147 H 0.85427 0.49594 0.72271 0.0
H148 H 0.79273 0.52647 0.66943 0.0
N149 N 0.7844 0.45405 0.68339 0.0
N150 N 0.74752 0.42696 0.68552 0.0
C151 C 0.77402 0.429 0.67728 0.0
C152 C 0.76389 0.46799 0.6962 0.0
C153 C 0.7411 0.45142 0.69738 0.0
C154 C 0.87233 0.44802 0.68491 0.0
O155 O 0.88073 0.46968 0.67079 0.0
H156 H 0.78525 0.41307 0.66603 0.0
H157 H 0.76518 0.48903 0.70353 0.0
O158 O 0.82176 0.47476 0.63293 0.0
H159 H 0.80927 0.56718 0.70314 0.0
H160 H 0.7212 0.45698 0.70598 0.0
Cu161 Cu 0.45955 0.19778 0.36945 0.0
N162 N 0.48653 0.20373 0.34189 0.0
N163 N 0.51881 0.19514 0.30909 0.0
C164 C 0.49708 0.18508 0.32357 0.0
C165 C 0.52195 0.22116 0.31857 0.0
C166 C 0.50196 0.22642 0.33876 0.0
O167 O 0.43356 0.17103 0.355 0.0
C168 C 0.46519 0.17773 0.42581 0.0
O169 O 0.43831 0.17617 0.42536 0.0
H170 H 0.48993 0.1641 0.32196 0.0
H171 H 0.49949 0.24509 0.35111 0.0
N172 N 0.44217 0.23089 0.37853 0.0
N173 N 0.41267 0.26605 0.38127 0.0
C174 C 0.41858 0.24163 0.36865 0.0
C175 C 0.45149 0.24904 0.39783 0.0
C176 C 0.43344 0.27069 0.39957 0.0
C177 C 0.43961 0.14562 0.35396 0.0
O178 O 0.4631 0.13741 0.36451 0.0
H179 H 0.40591 0.23158 0.35288 0.0
H180 H 0.47021 0.24664 0.4098 0.0
O181 O 0.47794 0.18537 0.40355 0.0
H182 H 0.53792 0.23517 0.31187 0.0
H183 H 0.43576 0.28869 0.41296 0.0
Cu184 Cu 0.71316 0.97001 0.86646 0.0
N185 N 0.7088 1.00452 0.84997 0.0
N186 N 0.69548 0.03879 0.82177 0.0
C187 C 0.69255 1.01191 0.82819 0.0
C188 C 0.71426 0.04857 0.84022 0.0
C189 C 0.72237 0.02743 0.85759 0.0
O190 O 0.68526 0.94538 0.85185 0.0
C191 C 0.73104 0.97981 0.92289 0.0
O192 O 0.75546 0.97959 0.91098 0.0
H193 H 0.67916 0.99781 0.81704 0.0
H194 H 0.73722 0.02858 0.87457 0.0
N195 N 0.74768 0.95648 0.85569 0.0
N196 N 0.78552 0.9308 0.85046 0.0
C197 C 0.76043 0.93287 0.86283 0.0
C198 C 0.76509 0.9695 0.83809 0.0
C199 C 0.78833 0.95383 0.83483 0.0
C200 C 0.65976 0.95059 0.8538 0.0
O201 O 0.6517 0.97284 0.86745 0.0
H202 H 0.75165 0.91779 0.87704 0.0
H203 H 0.76108 0.98904 0.82811 0.0
O204 O 0.71006 0.97507 0.9076 0.0
H205 H 0.72133 0.06962 0.8414 0.0
H206 H 0.80575 0.95885 0.8215 0.0
Cu207 Cu 0.96012 0.31996 0.16796 0.0
N208 N 0.98761 0.3179 0.19532 0.0
N209 N 0.01936 0.33065 0.22701 0.0
C210 C 0.99958 0.33911 0.20897 0.0
C211 C 0.01968 0.30298 0.22449 0.0
C212 C 1.00011 0.29522 0.205 0.0
O213 O 0.93218 0.34492 0.18223 0.0
C214 C 0.96419 0.33104 0.10914 0.0
O215 O 0.93842 0.32318 0.10907 0.0
H216 H 0.99375 0.36028 0.2057 0.0
H217 H 0.99555 0.27449 0.19812 0.0
N218 N 0.94584 0.28488 0.16143 0.0
N219 N 0.91854 0.248 0.15837 0.0
C220 C 0.92074 0.27451 0.16709 0.0
C221 C 0.95989 0.26441 0.14878 0.0
C222 C 0.94328 0.24172 0.14697 0.0
C223 C 0.93473 0.37083 0.17997 0.0
O224 O 0.95561 0.38076 0.16556 0.0
H225 H 0.90446 0.28628 0.17706 0.0
H226 H 0.98091 0.26595 0.1415 0.0
O227 O 0.97687 0.33233 0.13269 0.0
H228 H 0.03345 0.28923 0.23541 0.0
H229 H 0.9493 0.22196 0.13833 0.0
Cu230 Cu 0.32737 0.07341 0.86863 0.0
N231 N 0.32366 0.04604 0.84086 0.0
N232 N 0.33447 1.01404 0.80819 0.0
C233 C 0.34379 0.03468 0.82495 0.0
C234 C 0.30731 1.01257 0.8138 0.0
C235 C 0.30074 0.03227 0.83392 0.0
O236 O 0.35286 0.10091 0.85486 0.0
C237 C 0.34015 0.06905 0.92679 0.0
O238 O 0.33216 0.09483 0.92736 0.0
H239 H 0.36488 0.04136 0.82585 0.0
H240 H 0.28077 0.03588 0.84334 0.0
N241 N 0.29297 0.08837 0.87712 0.0
N242 N 0.25682 0.11619 0.88287 0.0
C243 C 0.28202 0.11312 0.871 0.0
C244 C 0.27409 0.07546 0.8931 0.0
C245 C 0.25186 0.09245 0.89667 0.0
C246 C 0.37841 0.09557 0.85463 0.0
O247 O 0.38696 0.07234 0.86556 0.0
H248 H 0.2925 0.12869 0.85872 0.0
H249 H 0.27655 0.05508 0.90179 0.0
O250 O 0.34071 0.05627 0.90309 0.0
H251 H 0.29323 0.99777 0.80479 0.0
H252 H 0.23331 0.08757 0.90833 0.0
Cu253 Cu 0.05987 0.70834 0.17329 0.0
N254 N 0.0255 0.70613 0.1907 0.0
N255 N 0.98994 0.69213 0.21709 0.0
C256 C 0.01667 0.68814 0.21043 0.0
C257 C 0.98182 0.71348 0.20097 0.0
C258 C 1.00375 0.72201 0.18474 0.0
O259 O 0.08251 0.67831 0.18686 0.0
C260 C 0.04884 0.72745 0.11796 0.0
O261 O 0.04928 0.75148 0.13081 0.0
H262 H 0.02938 0.67205 0.21912 0.0
H263 H 1.00384 0.73854 0.16947 0.0
N264 N 0.07593 0.74205 0.18307 0.0
N265 N 0.10395 0.77833 0.18499 0.0
C266 C 0.10021 0.75263 0.17463 0.0
C267 C 0.06421 0.76155 0.19952 0.0
C268 C 0.08135 0.78394 0.20065 0.0
C269 C 0.09322 0.68027 0.21143 0.0
O270 O 0.08894 0.70263 0.22662 0.0
H271 H 0.11435 0.74212 0.16046 0.0
H272 H 0.04436 0.75976 0.20967 0.0
O273 O 0.05386 0.70591 0.1323 0.0
H274 H 0.9615 0.7224 0.20094 0.0
H275 H 0.07745 0.80296 0.21203 0.0
Cu276 Cu 0.70427 0.06185 0.18122 0.0
N277 N 0.70144 0.02797 0.19962 0.0
N278 N 0.68855 0.99367 0.22821 0.0
C279 C 0.6847 0.02028 0.2211 0.0
C280 C 0.70853 0.98443 0.21061 0.0
C281 C 0.71636 1.00556 0.19304 0.0
O282 O 0.67487 0.08618 0.19349 0.0
C283 C 0.72472 0.04963 0.12613 0.0
O284 O 0.74848 0.05063 0.1391 0.0
H285 H 0.6701 0.03389 0.23136 0.0
H286 H 0.73173 1.00464 0.17638 0.0
N287 N 0.73773 0.07795 0.1913 0.0
N288 N 0.77444 0.10541 0.19273 0.0
C289 C 0.74907 0.10155 0.18195 0.0
C290 C 0.75639 0.0668 0.20877 0.0
C291 C 0.77904 0.08359 0.20962 0.0
C292 C 0.64979 0.07901 0.19407 0.0
O293 O 0.64288 0.05446 0.18483 0.0
H294 H 0.73938 0.11503 0.16676 0.0
H295 H 0.75388 0.0475 0.21974 0.0
O296 O 0.7029 0.05461 0.14029 0.0
H297 H 0.71643 0.96366 0.20993 0.0
H298 H 0.79757 0.07995 0.2216 0.0
Cu299 Cu 0.06238 0.32372 0.85968 0.0
N300 N 0.02992 0.32488 0.83882 0.0
N301 N 0.99732 0.33702 0.80811 0.0
C302 C 0.02356 0.3408 0.81641 0.0
C303 C 0.98685 0.31819 0.82608 0.0
C304 C 1.00689 0.31095 0.84509 0.0
O305 O 0.08841 0.34904 0.84293 0.0
C306 C 0.06381 0.32528 0.92086 0.0
O307 O 0.0854 0.30928 0.91857 0.0
H308 H 0.03771 0.3551 0.80668 0.0
H309 H 1.00461 0.29708 0.86284 0.0
N310 N 0.0765 0.28788 0.8584 0.0
N311 N 0.10449 0.25152 0.86086 0.0
C312 C 0.10251 0.27922 0.86239 0.0
C313 C 0.06177 0.26493 0.85384 0.0
C314 C 0.07888 0.24258 0.85538 0.0
C315 C 0.08496 0.37492 0.84427 0.0
O316 O 0.06396 0.38481 0.85867 0.0
H317 H 0.11942 0.29286 0.86712 0.0
H318 H 0.04001 0.26435 0.84984 0.0
O319 O 0.05233 0.33409 0.89843 0.0
H320 H 0.96584 0.31104 0.82625 0.0
H321 H 0.07288 0.22133 0.8526 0.0
Cu322 Cu 0.32188 0.9607 0.16838 0.0
N323 N 0.3181 0.98882 0.19535 0.0
N324 N 0.32849 0.02025 0.22858 0.0
C325 C 0.33786 0.99933 0.2121 0.0
C326 C 0.30171 0.02282 0.22185 0.0
C327 C 0.2954 1.00346 0.20141 0.0
O328 O 0.34614 0.93303 0.18378 0.0
C329 C 0.33524 0.96382 0.11004 0.0
O330 O 0.32539 0.93871 0.10953 0.0
H331 H 0.35867 0.9917 0.21216 0.0
H332 H 0.27572 1.00054 0.19137 0.0
N333 N 0.28729 0.94631 0.16009 0.0
N334 N 0.25055 0.9191 0.15541 0.0
C335 C 0.27634 0.92146 0.16577 0.0
C336 C 0.26794 0.96003 0.14575 0.0
C337 C 0.24533 0.94348 0.14293 0.0
C338 C 0.37196 0.93683 0.18373 0.0
O339 O 0.38198 0.95871 0.17118 0.0
H340 H 0.28719 0.90546 0.17694 0.0
H341 H 0.27018 0.98077 0.13795 0.0
O342 O 0.33657 0.97657 0.1337 0.0
H343 H 0.28775 0.03804 0.23048 0.0
H344 H 0.22633 0.9493 0.13285 0.0
Cu345 Cu 0.97057 0.71305 0.859 0.0
N346 N 1.00511 0.70853 0.84226 0.0
N347 N 0.03972 0.69449 0.81436 0.0
C348 C 1.01276 0.6918 0.82064 0.0
C349 C 0.04927 0.71355 0.83279 0.0
C350 C 0.02793 0.72207 0.84998 0.0
O351 O 0.94573 0.68572 0.84368 0.0
C352 C 0.97857 0.73054 0.91598 0.0
O353 O 0.97691 0.75513 0.90481 0.0
H354 H 0.99883 0.67818 0.80959 0.0
H355 H 0.0289 0.73711 0.86698 0.0
N356 N 0.95722 0.74784 0.84931 0.0
N357 N 0.93038 0.78473 0.84366 0.0
C358 C 0.93238 0.75912 0.85458 0.0
C359 C 0.97131 0.76688 0.83469 0.0
C360 C 0.95493 0.78957 0.83124 0.0
C361 C 0.9496 0.65996 0.84571 0.0
O362 O 0.97074 0.6509 0.8601 0.0
H363 H 0.9161 0.74865 0.86587 0.0
H364 H 0.99212 0.76446 0.82707 0.0
O365 O 0.97533 0.70952 0.90007 0.0
H366 H 0.0703 0.72048 0.83413 0.0
H367 H 0.96089 0.80837 0.82072 0.0
H368 H 0.30992 0.38842 0.30579 0.0
H369 H 0.27593 0.38159 0.39053 0.0
H370 H 0.34121 0.35086 0.31553 0.0
H371 H 0.30654 0.34308 0.39991 0.0
H372 H 0.39057 0.30333 0.41788 0.0
H373 H 0.3547 0.3365 0.40812 0.0
H374 H 0.34533 0.30226 0.32367 0.0
H375 H 0.3822 0.26968 0.3331 0.0
C376 C 0.309 0.37884 0.32649 0.0
C377 C 0.29057 0.38838 0.34749 0.0
C378 C 0.32673 0.35696 0.33194 0.0
C379 C 0.32653 0.34392 0.35855 0.0
C380 C 0.30753 0.35287 0.37929 0.0
C381 C 0.28975 0.3748 0.37382 0.0
C382 C 0.38099 0.30288 0.39716 0.0
C383 C 0.38963 0.28401 0.37614 0.0
C384 C 0.36008 0.32172 0.39169 0.0
C385 C 0.34712 0.3222 0.36505 0.0
C386 C 0.35511 0.30273 0.3443 0.0
C387 C 0.37608 0.28384 0.3498 0.0
H388 H 0.4249 0.69986 0.7062 0.0
H389 H 0.37454 0.7591 0.66286 0.0
H390 H 0.39123 0.66435 0.69691 0.0
H391 H 0.34068 0.72301 0.65276 0.0
H392 H 0.2742 0.65584 0.67823 0.0
H393 H 0.30706 0.69395 0.6793 0.0
H394 H 0.37251 0.63744 0.65832 0.0
H395 H 0.33988 0.59966 0.65764 0.0
C396 C 0.40662 0.70527 0.69454 0.0
C397 C 0.40233 0.73237 0.68547 0.0
C398 C 0.3874 0.6848 0.6889 0.0
C399 C 0.36324 0.69075 0.67397 0.0
C400 C 0.35901 0.71779 0.66445 0.0
C401 C 0.37848 0.73838 0.66998 0.0
C402 C 0.29554 0.65174 0.67338 0.0
C403 C 0.30455 0.62469 0.66839 0.0
C404 C 0.31436 0.67355 0.67394 0.0
C405 C 0.34251 0.66868 0.66939 0.0
C406 C 0.35111 0.64184 0.66265 0.0
C407 C 0.33242 0.62016 0.66226 0.0
H408 H 0.6485 0.75683 0.36033 0.0
H409 H 0.59215 0.68856 0.3661 0.0
H410 H 0.68694 0.72437 0.35748 0.0
H411 H 0.63018 0.65667 0.36229 0.0
H412 H 0.69787 0.6117 0.31397 0.0
H413 H 0.66358 0.64742 0.31969 0.0
H414 H 0.71006 0.68338 0.38827 0.0
H415 H 0.7444 0.64679 0.38329 0.0
C416 C 0.64422 0.73506 0.36124 0.0
C417 C 0.61701 0.72544 0.36288 0.0
C418 C 0.66626 0.7165 0.35956 0.0
C419 C 0.66145 0.68804 0.35921 0.0
C420 C 0.63444 0.67851 0.36194 0.0
C421 C 0.61258 0.69689 0.36395 0.0
C422 C 0.70088 0.62695 0.33049 0.0
C423 C 0.72376 0.62583 0.34857 0.0
C424 C 0.68122 0.64757 0.33362 0.0
C425 C 0.68399 0.66794 0.35465 0.0
C426 C 0.70746 0.66788 0.37187 0.0
C427 C 0.72712 0.64693 0.36895 0.0
H428 H 0.60018 0.33031 0.6793 0.0
H429 H 0.66199 0.27099 0.65619 0.0
H430 H 0.63527 0.36509 0.68639 0.0
H431 H 0.69757 0.30624 0.66136 0.0
H432 H 0.75712 0.3729 0.69431 0.0
H433 H 0.7238 0.33538 0.69029 0.0
H434 H 0.66325 0.39328 0.66037 0.0
H435 H 0.69602 0.43039 0.66618 0.0
C436 C 0.62145 0.32488 0.67563 0.0
C437 C 0.62848 0.29817 0.66709 0.0
C438 C 0.64163 0.34485 0.67935 0.0
C439 C 0.66943 0.33886 0.6738 0.0
C440 C 0.67651 0.31172 0.66602 0.0
C441 C 0.65621 0.2915 0.66296 0.0
C442 C 0.73664 0.37733 0.68683 0.0
C443 C 0.72893 0.40446 0.68088 0.0
C444 C 0.71753 0.3559 0.68441 0.0
C445 C 0.69048 0.36117 0.67547 0.0
C446 C 0.68342 0.38834 0.66834 0.0
C447 C 0.70226 0.40968 0.67138 0.0
H448 H 0.84048 0.93503 0.84427 0.0
H449 H 0.77601 0.87675 0.86203 0.0
H450 H 0.87387 0.89808 0.84345 0.0
H451 H 0.80988 0.83943 0.86153 0.0
H452 H 0.88936 0.78682 0.88338 0.0
H453 H 0.85267 0.8212 0.88686 0.0
H454 H 0.88268 0.85937 0.8101 0.0
H455 H 0.91876 0.8252 0.80641 0.0
C456 C 0.83336 0.9143 0.8479 0.0
C457 C 0.8054 0.90888 0.85267 0.0
C458 C 0.85257 0.89308 0.84748 0.0
C459 C 0.84448 0.86575 0.85193 0.0
C460 C 0.81674 0.8603 0.85802 0.0
C461 C 0.79736 0.88167 0.85834 0.0
C462 C 0.88788 0.80234 0.86707 0.0
C463 C 0.90737 0.80348 0.84488 0.0
C464 C 0.86688 0.82204 0.86909 0.0
C465 C 0.86507 0.84329 0.84903 0.0
C466 C 0.88391 0.84369 0.82631 0.0
C467 C 0.90468 0.82408 0.82423 0.0
H468 H 0.82924 0.10047 0.18732 0.0
H469 H 0.76317 0.15925 0.18365 0.0
H470 H 0.86228 0.13682 0.17764 0.0
H471 H 0.79651 0.19601 0.17401 0.0
H472 H 0.87475 0.25268 0.19465 0.0
H473 H 0.83772 0.21939 0.20134 0.0
H474 H 0.87264 0.16811 0.1353 0.0
H475 H 0.90895 0.20139 0.12789 0.0
C476 C 0.82181 0.12123 0.18454 0.0
C477 C 0.79364 0.12704 0.18632 0.0
C478 C 0.8407 0.14201 0.17879 0.0
C479 C 0.83197 0.16924 0.17502 0.0
C480 C 0.8038 0.17521 0.17693 0.0
C481 C 0.78476 0.15421 0.18223 0.0
C482 C 0.87434 0.23458 0.1812 0.0
C483 C 0.89531 0.22964 0.16106 0.0
C484 C 0.85309 0.21551 0.18507 0.0
C485 C 0.85252 0.19101 0.16908 0.0
C486 C 0.87283 0.18658 0.14829 0.0
C487 C 0.89379 0.20568 0.1442 0.0
H488 H 0.15777 0.26361 0.84879 0.0
H489 H 0.10517 0.20068 0.88331 0.0
H490 H 0.19766 0.23344 0.85528 0.0
H491 H 0.14443 0.17066 0.88923 0.0
H492 H 0.22036 0.13243 0.92301 0.0
H493 H 0.1855 0.16785 0.91882 0.0
H494 H 0.21651 0.1886 0.83543 0.0
H495 H 0.25171 0.15284 0.8397 0.0
C496 C 0.15476 0.24346 0.85789 0.0
C497 C 0.12829 0.23449 0.86541 0.0
C498 C 0.17751 0.22612 0.86137 0.0
C499 C 0.17424 0.19969 0.87287 0.0
C500 C 0.14778 0.191 0.88065 0.0
C501 C 0.12518 0.20812 0.87696 0.0
C502 C 0.21982 0.14452 0.90377 0.0
C503 C 0.23848 0.13942 0.88145 0.0
C504 C 0.19985 0.16488 0.90139 0.0
C505 C 0.19791 0.18073 0.87659 0.0
C506 C 0.21751 0.17676 0.85484 0.0
C507 C 0.23764 0.15629 0.85726 0.0
H508 H 0.25198 0.87682 0.19336 0.0
H509 H 0.20648 0.90853 0.12198 0.0
H510 H 0.21784 0.84037 0.19899 0.0
H511 H 0.17231 0.87286 0.12831 0.0
H512 H 0.10044 0.83301 0.17764 0.0
H513 H 0.13794 0.86508 0.16921 0.0
H514 H 0.19587 0.79809 0.17121 0.0
H515 H 0.15794 0.76571 0.17955 0.0
C516 C 0.23499 0.87596 0.17869 0.0
C517 C 0.23186 0.8961 0.15754 0.0
C518 C 0.21543 0.85505 0.18195 0.0
C519 C 0.19227 0.85403 0.16431 0.0
C520 C 0.18971 0.87344 0.14254 0.0
C521 C 0.2093 0.89404 0.13907 0.0
C522 C 0.12117 0.82511 0.17634 0.0
C523 C 0.12629 0.79689 0.1793 0.0
C524 C 0.14261 0.84343 0.17132 0.0
C525 C 0.16981 0.83406 0.16951 0.0
C526 C 0.17509 0.80584 0.17262 0.0
C527 C 0.15345 0.78735 0.17716 0.0
H528 H 0.2187 0.58031 0.29023 0.0
H529 H 0.14621 0.52927 0.29129 0.0
H530 H 0.19404 0.61494 0.26348 0.0
H531 H 0.1218 0.56385 0.26376 0.0
H532 H 0.09568 0.6264 0.19383 0.0
H533 H 0.12203 0.58903 0.21539 0.0
H534 H 0.15441 0.64598 0.27745 0.0
H535 H 0.12815 0.68305 0.25624 0.0
C536 C 0.19755 0.57636 0.28477 0.0
C537 C 0.18439 0.55207 0.29346 0.0
C538 C 0.18346 0.59622 0.26929 0.0
C539 C 0.15594 0.59221 0.26179 0.0
C540 C 0.14308 0.56741 0.26915 0.0
C541 C 0.15712 0.54758 0.28491 0.0
C542 C 0.10857 0.63091 0.21197 0.0
C543 C 0.10984 0.65767 0.22334 0.0
C544 C 0.1235 0.60952 0.22437 0.0
C545 C 0.14033 0.61464 0.24801 0.0
C546 C 0.14186 0.64147 0.25904 0.0
C547 C 0.12668 0.66268 0.24697 0.0
H548 H 0.52954 0.89321 0.74336 0.0
H549 H 0.56986 0.81858 0.76939 0.0
H550 H 0.55946 0.9198 0.77454 0.0
H551 H 0.59964 0.84504 0.80063 0.0
H552 H 0.66985 0.904 0.8227 0.0
H553 H 0.63736 0.87667 0.79553 0.0
H554 H 0.57138 0.92957 0.82383 0.0
H555 H 0.60406 0.95736 0.85065 0.0
C556 C 0.54449 0.88242 0.75604 0.0
C557 C 0.54745 0.85377 0.75364 0.0
C558 C 0.56166 0.89767 0.77395 0.0
C559 C 0.58214 0.88459 0.78994 0.0
C560 C 0.58449 0.85585 0.78818 0.0
C561 C 0.5674 0.84066 0.77026 0.0
C562 C 0.6484 0.90975 0.82331 0.0
C563 C 0.6396 0.93293 0.83884 0.0
C564 C 0.62971 0.89395 0.80783 0.0
C565 C 0.60171 0.90089 0.80747 0.0
C566 C 0.59283 0.92384 0.82336 0.0
C567 C 0.61155 0.93966 0.8389 0.0
H568 H 0.93293 0.427 0.17826 0.0
H569 H 0.89535 0.35707 0.21899 0.0
H570 H 0.90562 0.45783 0.20811 0.0
H571 H 0.86879 0.38777 0.24944 0.0
H572 H 0.80926 0.44845 0.2873 0.0
H573 H 0.83251 0.42002 0.25178 0.0
H574 H 0.90335 0.47314 0.25635 0.0
H575 H 0.87967 0.50188 0.29139 0.0
C576 C 0.91875 0.41819 0.19349 0.0
C577 C 0.91638 0.38955 0.19626 0.0
C578 C 0.90323 0.43589 0.21078 0.0
C579 C 0.88507 0.42538 0.23139 0.0
C580 C 0.88223 0.39669 0.23358 0.0
C581 C 0.8976 0.37902 0.21617 0.0
C582 C 0.82978 0.45405 0.28064 0.0
C583 C 0.8427 0.4773 0.29229 0.0
C584 C 0.84316 0.43772 0.26032 0.0
C585 C 0.86996 0.44406 0.2513 0.0
C586 C 0.88261 0.46777 0.26245 0.0
C587 C 0.86908 0.48426 0.28261 0.0
H588 H 0.5196 0.17183 0.77061 0.0
H589 H 0.44817 0.20761 0.73187 0.0
H590 H 0.4903 0.14728 0.80417 0.0
H591 H 0.41868 0.1823 0.76432 0.0
H592 H 0.37102 0.14902 0.83853 0.0
H593 H 0.40221 0.17747 0.81069 0.0
H594 H 0.46024 0.11031 0.80677 0.0
H595 H 0.42972 0.08264 0.83577 0.0
C596 C 0.49758 0.17427 0.76922 0.0
C597 C 0.48616 0.19162 0.7487 0.0
C598 C 0.48072 0.16013 0.78834 0.0
C599 C 0.45197 0.16263 0.78704 0.0
C600 C 0.44066 0.18021 0.76651 0.0
C601 C 0.45755 0.19467 0.74774 0.0
C602 C 0.39059 0.14052 0.83195 0.0
C603 C 0.39789 0.1136 0.83934 0.0
C604 C 0.40843 0.15673 0.81577 0.0
C605 C 0.4338 0.14623 0.80617 0.0
C606 C 0.44119 0.1194 0.81409 0.0
C607 C 0.42356 0.1034 0.83064 0.0
H608 H 0.21492 0.45144 0.74387 0.0
H609 H 0.14403 0.50308 0.73204 0.0
H610 H 0.18943 0.42378 0.77794 0.0
H611 H 0.11817 0.4751 0.76571 0.0
H612 H 0.08457 0.43119 0.84358 0.0
H613 H 0.11271 0.46153 0.81439 0.0
H614 H 0.1535 0.39085 0.77753 0.0
H615 H 0.12606 0.36069 0.80727 0.0
C616 C 0.19382 0.45681 0.74849 0.0
C617 C 0.18143 0.47931 0.73509 0.0
C618 C 0.17915 0.44092 0.76799 0.0
C619 C 0.1516 0.44697 0.77442 0.0
C620 C 0.13943 0.46998 0.76157 0.0
C621 C 0.15422 0.48602 0.7422 0.0
C622 C 0.09973 0.42215 0.82942 0.0
C623 C 0.10305 0.3935 0.82777 0.0
C624 C 0.11574 0.43956 0.81252 0.0
C625 C 0.13538 0.4287 0.7935 0.0
C626 C 0.13893 0.40003 0.79223 0.0
C627 C 0.12304 0.38267 0.8092 0.0
H628 H 0.35819 0.88994 0.21229 0.0
H629 H 0.42674 0.94328 0.19394 0.0
H630 H 0.3869 0.86332 0.24424 0.0
H631 H 0.45523 0.91707 0.22643 0.0
H632 H 0.50475 0.85087 0.27253 0.0
H633 H 0.4778 0.87357 0.23575 0.0
H634 H 0.40646 0.87091 0.29057 0.0
H635 H 0.43318 0.8483 0.32696 0.0
C636 C 0.37943 0.89589 0.21491 0.0
C637 C 0.39009 0.91888 0.20071 0.0
C638 C 0.39585 0.88073 0.23339 0.0
C639 C 0.4233 0.88825 0.23821 0.0
C640 C 0.43426 0.91057 0.22309 0.0
C641 C 0.41785 0.92569 0.20454 0.0
C642 C 0.48335 0.85524 0.27672 0.0
C643 C 0.47113 0.84757 0.30265 0.0
C644 C 0.46789 0.86823 0.25564 0.0
C645 C 0.43987 0.87385 0.26008 0.0
C646 C 0.42778 0.8663 0.2861 0.0
C647 C 0.44317 0.85334 0.30706 0.0
H648 H 0.81807 0.57928 0.75206 0.0
H649 H 0.88945 0.52894 0.73633 0.0
H650 H 0.84424 0.60768 0.78495 0.0
H651 H 0.91598 0.55768 0.76886 0.0
H652 H 0.95141 0.60362 0.84517 0.0
H653 H 0.92302 0.57214 0.8174 0.0
H654 H 0.87948 0.64128 0.7822 0.0
H655 H 0.90717 0.67252 0.81043 0.0
C656 C 0.83942 0.57435 0.75558 0.0
C657 C 0.85175 0.55203 0.74138 0.0
C658 C 0.85447 0.59066 0.7744 0.0
C659 C 0.88236 0.58522 0.77937 0.0
C660 C 0.89449 0.56234 0.76582 0.0
C661 C 0.87932 0.54587 0.74711 0.0
C662 C 0.93561 0.61206 0.83168 0.0
C663 C 0.93158 0.64061 0.83006 0.0
C664 C 0.91944 0.59401 0.81561 0.0
C665 C 0.89892 0.60411 0.79751 0.0
C666 C 0.89474 0.63267 0.79623 0.0
C667 C 0.91078 0.65065 0.81234 0.0
H668 H 0.59965 0.06477 0.21545 0.0
H669 H 0.65328 0.13431 0.20356 0.0
H670 H 0.56747 0.09372 0.24161 0.0
H671 H 0.62048 0.16374 0.22841 0.0
H672 H 0.57372 0.20061 0.30384 0.0
H673 H 0.60442 0.17331 0.2741 0.0
H674 H 0.53486 0.12873 0.24066 0.0
H675 H 0.5044 0.15546 0.27155 0.0
C676 C 0.60431 0.0864 0.21796 0.0
C677 C 0.62908 0.09722 0.20758 0.0
C678 C 0.58574 0.10311 0.23287 0.0
C679 C 0.59129 0.13119 0.23739 0.0
C680 C 0.6157 0.14214 0.22603 0.0
C681 C 0.63446 0.12531 0.21154 0.0
C682 C 0.56502 0.18517 0.28989 0.0
C683 C 0.53668 0.18013 0.29004 0.0
C684 C 0.58261 0.16951 0.27269 0.0
C685 C 0.57227 0.14867 0.2548 0.0
C686 C 0.54374 0.14415 0.2545 0.0
C687 C 0.52621 0.15955 0.27208 0.0
H688 H 0.71478 0.08237 0.79242 0.0
H689 H 0.64396 0.03018 0.80235 0.0
H690 H 0.69021 0.10993 0.75779 0.0
H691 H 0.61899 0.05808 0.76818 0.0
H692 H 0.58762 0.10076 0.68931 0.0
H693 H 0.61504 0.07109 0.71959 0.0
H694 H 0.65426 0.1426 0.75605 0.0
H695 H 0.62756 0.17209 0.72512 0.0
C696 C 0.69388 0.07689 0.78729 0.0
C697 C 0.68127 0.05419 0.80026 0.0
C698 C 0.67972 0.09273 0.76747 0.0
C699 C 0.65248 0.08644 0.76026 0.0
C700 C 0.64005 0.06337 0.77285 0.0
C701 C 0.65433 0.04737 0.79252 0.0
C702 C 0.60228 0.11012 0.70361 0.0
C703 C 0.60536 0.13881 0.70479 0.0
C704 C 0.61788 0.0931 0.72116 0.0
C705 C 0.63683 0.10437 0.74045 0.0
C706 C 0.64021 0.13308 0.74121 0.0
C707 C 0.62476 0.15007 0.72354 0.0
H708 H 0.0995 0.46062 0.32391 0.0
H709 H 0.15767 0.39368 0.32061 0.0
H710 H 0.06626 0.43246 0.29824 0.0
H711 H 0.12449 0.36567 0.29485 0.0
H712 H 0.04839 0.31484 0.27345 0.0
H713 H 0.07949 0.34277 0.30175 0.0
H714 H 0.06152 0.41297 0.24938 0.0
H715 H 0.03076 0.38506 0.22068 0.0
C716 C 0.10516 0.43987 0.31787 0.0
C717 C 0.13127 0.42943 0.32429 0.0
C718 C 0.08616 0.42381 0.30301 0.0
C719 C 0.09276 0.39687 0.29446 0.0
C720 C 0.11868 0.38625 0.30138 0.0
C721 C 0.13774 0.40237 0.31602 0.0
C722 C 0.05114 0.33615 0.26772 0.0
C723 C 0.03702 0.34752 0.24453 0.0
C724 C 0.06897 0.35218 0.28405 0.0
C725 C 0.07301 0.38007 0.27778 0.0
C726 C 0.05858 0.39162 0.25498 0.0
C727 C 0.04089 0.37555 0.23851 0.0
H728 H 0.31573 0.98192 0.76478 0.0
H729 H 0.38967 1.00534 0.80912 0.0
H730 H 0.34231 0.95047 0.735 0.0
H731 H 0.41607 0.97431 0.77901 0.0
H732 H 0.45907 0.93387 0.70335 0.0
H733 H 0.4312 0.96767 0.72894 0.0
H734 H 0.36796 0.90681 0.74133 0.0
H735 H 0.39569 0.87302 0.7156 0.0
C736 C 0.33757 0.98042 0.76831 0.0
C737 C 0.35038 0.99626 0.7896 0.0
C738 C 0.35281 0.96238 0.75114 0.0
C739 C 0.3813 0.95989 0.75463 0.0
C740 C 0.39422 0.97604 0.77549 0.0
C741 C 0.37898 0.99392 0.7928 0.0
C742 C 0.43911 0.92774 0.71128 0.0
C743 C 0.42967 0.90068 0.70751 0.0
C744 C 0.42322 0.94708 0.7261 0.0
C745 C 0.39743 0.93989 0.73729 0.0
C746 C 0.38764 0.91307 0.73277 0.0
C747 C 0.40361 0.89366 0.71814 0.0
H748 H 0.8577 0.63167 0.32315 0.0
H749 H 0.92045 0.56943 0.32998 0.0
H750 H 0.88832 0.65937 0.29403 0.0
H751 H 0.95086 0.59682 0.30012 0.0
H752 H 1.00656 0.66432 0.2639 0.0
H753 H 0.9778 0.63831 0.29688 0.0
H754 H 0.90654 0.65802 0.24671 0.0
H755 H 0.93514 0.68408 0.21417 0.0
C756 C 0.87807 0.62391 0.31849 0.0
C757 C 0.88655 0.59825 0.32879 0.0
C758 C 0.89558 0.63972 0.30161 0.0
C759 C 0.92199 0.63022 0.2944 0.0
C760 C 0.93077 0.60491 0.30542 0.0
C761 C 0.91327 0.58913 0.32246 0.0
C762 C 0.98478 0.66296 0.25989 0.0
C763 C 0.97315 0.67644 0.23647 0.0
C764 C 0.96828 0.64805 0.27878 0.0
C765 C 0.93978 0.6462 0.27462 0.0
C766 C 0.92828 0.6595 0.25102 0.0
C767 C 0.94472 0.67445 0.23227 0.0
H768 H 0.63585 1.00086 0.24558 0.0
H769 H 0.70737 0.95019 0.25794 0.0
H770 H 0.60975 0.97165 0.27788 0.0
H771 H 0.68155 0.92123 0.29054 0.0
H772 H 0.61867 0.85663 0.31779 0.0
H773 H 0.64603 0.88766 0.28886 0.0
H774 H 0.60371 0.95716 0.32625 0.0
H775 H 0.57576 0.92599 0.35466 0.0
C776 C 0.64613 0.98375 0.25555 0.0
C777 C 0.67364 0.97774 0.24899 0.0
C778 C 0.63117 0.96698 0.27412 0.0
C779 C 0.64343 0.94388 0.28671 0.0
C780 C 0.67122 0.93844 0.28078 0.0
C781 C 0.68608 0.95509 0.26212 0.0
C782 C 0.61528 0.87853 0.31999 0.0
C783 C 0.59495 0.88878 0.33853 0.0
C784 C 0.63111 0.89639 0.30348 0.0
C785 C 0.62714 0.925 0.30515 0.0
C786 C 0.60709 0.93526 0.32407 0.0
C787 C 0.59117 0.91737 0.34052 0.0
H788 H 0.92852 0.45113 0.68421 0.0
H789 H 0.8612 0.4044 0.71929 0.0
H790 H 0.96089 0.42296 0.71076 0.0
H791 H 0.89328 0.37694 0.74631 0.0
H792 H 0.95628 0.31714 0.77572 0.0
H793 H 0.9278 0.34264 0.74263 0.0
H794 H 0.97562 0.41571 0.75899 0.0
H795 H 1.00448 0.38983 0.79163 0.0
C796 C 0.92062 0.4348 0.69748 0.0
C797 C 0.89225 0.43004 0.69961 0.0
C798 C 0.93917 0.41877 0.71286 0.0
C799 C 0.92976 0.39764 0.73072 0.0
C800 C 0.90138 0.39267 0.73242 0.0
C801 C 0.88291 0.40859 0.71702 0.0
C802 C 0.96077 0.33861 0.77209 0.0
C803 C 0.98243 0.35155 0.78647 0.0
C804 C 0.94441 0.35328 0.7532 0.0
C805 C 0.94911 0.38138 0.7484 0.0
C806 C 0.97152 0.39406 0.76193 0.0
C807 C 0.98807 0.37926 0.78069 0.0
H808 H 0.38914 0.15522 0.33069 0.0
H809 H 0.44993 0.09162 0.34177 0.0
H810 H 0.36175 0.12385 0.30177 0.0
H811 H 0.42242 0.06026 0.31307 0.0
H812 H 0.38382 0.0274 0.22997 0.0
H813 H 0.40965 0.0565 0.26236 0.0
H814 H 0.33451 0.08094 0.30439 0.0
H815 H 0.30855 0.0515 0.27226 0.0
C816 C 0.39654 0.13448 0.32721 0.0
C817 C 0.4218 0.12598 0.33845 0.0
C818 C 0.38077 0.11646 0.31074 0.0
C819 C 0.38999 0.08961 0.30499 0.0
C820 C 0.41493 0.08093 0.31679 0.0
C821 C 0.43061 0.09887 0.3334 0.0
C822 C 0.37272 0.03859 0.24631 0.0
C823 C 0.34396 0.037 0.24831 0.0
C824 C 0.3876 0.05534 0.26492 0.0
C825 C 0.37414 0.07106 0.28594 0.0
C826 C 0.34545 0.06936 0.28817 0.0
C827 C 0.33056 0.05248 0.26966 0.0
H828 H 0.10511 0.58458 0.68283 0.0
H829 H 0.17517 0.6241 0.72122 0.0
H830 H 0.07454 0.61223 0.7127 0.0
H831 H 0.14477 0.65105 0.7516 0.0
H832 H 0.08414 0.71299 0.78563 0.0
H833 H 0.11247 0.68757 0.75176 0.0
H834 H 0.05973 0.61688 0.76125 0.0
H835 H 0.03108 0.64268 0.79479 0.0
C836 C 0.114 0.59919 0.69761 0.0
C837 C 0.14261 0.60212 0.69958 0.0
C838 C 0.09646 0.61491 0.7149 0.0
C839 C 0.10711 0.6339 0.73466 0.0
C840 C 0.13574 0.637 0.73634 0.0
C841 C 0.15324 0.6214 0.71899 0.0
C842 C 0.07861 0.69202 0.7805 0.0
C843 C 0.05547 0.6798 0.79308 0.0
C844 C 0.0949 0.67739 0.7611 0.0
C845 C 0.08862 0.65002 0.7539 0.0
C846 C 0.06506 0.638 0.76599 0.0
C847 C 0.04862 0.65276 0.78528 0.0
H848 H 0.17444 0.54694 0.58229 0.0
H849 H 0.25987 0.52612 0.57038 0.0
H850 H 0.16473 0.53069 0.53404 0.0
H851 H 0.25032 0.51052 0.52223 0.0
H852 H 0.2215 0.45982 0.44733 0.0
H853 H 0.22798 0.47381 0.49681 0.0
H854 H 0.17275 0.54208 0.48467 0.0
H855 H 0.16576 0.52776 0.43552 0.0
C856 C 0.19118 0.53912 0.56934 0.0
C857 C 0.21792 0.53782 0.58026 0.0
C858 C 0.18563 0.52984 0.54165 0.0
C859 C 0.20671 0.51907 0.52426 0.0
C860 C 0.23347 0.51813 0.53515 0.0
C861 C 0.23899 0.52734 0.56276 0.0
C862 C 0.21052 0.47765 0.4553 0.0
C863 C 0.19321 0.49271 0.43737 0.0
C864 C 0.2144 0.48581 0.48362 0.0
C865 C 0.20109 0.50926 0.49471 0.0
C866 C 0.18315 0.52381 0.47699 0.0
C867 C 0.17925 0.51564 0.4487 0.0
H868 H 0.51219 0.83476 0.44859 0.0
H869 H 0.59216 0.81296 0.48053 0.0
H870 H 0.49514 0.83962 0.49728 0.0
H871 H 0.57499 0.81773 0.52925 0.0
H872 H 0.5424 0.85829 0.61095 0.0
H873 H 0.55864 0.85436 0.56204 0.0
H874 H 0.48507 0.81024 0.53945 0.0
H875 H 0.46861 0.81425 0.58864 0.0
C876 C 0.52619 0.83108 0.46598 0.0
C877 C 0.5536 0.82352 0.46061 0.0
C878 C 0.51632 0.83367 0.49389 0.0
C879 C 0.53367 0.82901 0.51714 0.0
C880 C 0.56115 0.82171 0.5118 0.0
C881 C 0.57098 0.81889 0.48387 0.0
C882 C 0.52956 0.84782 0.5956 0.0
C883 C 0.50417 0.83655 0.60378 0.0
C884 C 0.53901 0.84542 0.56756 0.0
C885 C 0.52324 0.83187 0.54687 0.0
C886 C 0.49762 0.82097 0.55487 0.0
C887 C 0.48824 0.82317 0.58306 0.0
H888 H 0.84183 0.53004 0.4434 0.0
H889 H 0.75939 0.55817 0.46052 0.0
H890 H 0.84423 0.51096 0.49139 0.0
H891 H 0.76207 0.54024 0.50853 0.0
H892 H 0.75993 0.47917 0.57893 0.0
H893 H 0.76106 0.49723 0.53092 0.0
H894 H 0.84612 0.51971 0.54169 0.0
H895 H 0.84516 0.50047 0.58972 0.0
C896 C 0.82442 0.53257 0.45758 0.0
C897 C 0.80032 0.54538 0.44808 0.0
C898 C 0.82579 0.52167 0.48512 0.0
C899 C 0.80316 0.52358 0.50379 0.0
C900 C 0.77961 0.53758 0.49456 0.0
C901 C 0.77813 0.54812 0.46704 0.0
C902 C 0.77896 0.48776 0.57102 0.0
C903 C 0.80239 0.48854 0.58821 0.0
C904 C 0.77956 0.49839 0.5435 0.0
C905 C 0.80352 0.51053 0.53249 0.0
C906 C 0.82732 0.51047 0.54937 0.0
C907 C 0.82678 0.49947 0.57692 0.0
H908 H 0.44573 0.15712 0.47614 0.0
H909 H 0.5189 0.18958 0.43661 0.0
H910 H 0.46964 0.15442 0.5215 0.0
H911 H 0.54245 0.18793 0.482 0.0
H912 H 0.58525 0.16792 0.56365 0.0
H913 H 0.56214 0.16104 0.51824 0.0
H914 H 0.48517 0.1847 0.55734 0.0
H915 H 0.50804 0.19049 0.60276 0.0
C916 C 0.46695 0.16358 0.4771 0.0
C917 C 0.48033 0.17369 0.45277 0.0
C918 C 0.48064 0.16221 0.50317 0.0
C919 C 0.50798 0.17119 0.50562 0.0
C920 C 0.52157 0.18047 0.48099 0.0
C921 C 0.50797 0.18158 0.4549 0.0
C922 C 0.56333 0.17132 0.56259 0.0
C923 C 0.54855 0.17988 0.58683 0.0
C924 C 0.55008 0.16755 0.53649 0.0
C925 C 0.52175 0.1725 0.53392 0.0
C926 C 0.50689 0.18028 0.55844 0.0
C927 C 0.52009 0.18379 0.58455 0.0
H928 H 0.76589 0.05194 0.08704 0.0
H929 H 0.68134 0.02748 0.09685 0.0
H930 H 0.76591 0.03503 0.03834 0.0
H931 H 0.68161 1.00916 0.04827 0.0
H932 H 0.68566 1.00057 0.95034 0.0
H933 H 0.68287 0.0184 0.999 0.0
H934 H 0.76701 0.99405 1.01279 0.0
H935 H 0.77003 0.97763 0.96396 0.0
C936 C 0.74728 0.04281 0.07877 0.0
C937 C 0.72366 0.04096 0.09585 0.0
C938 C 0.74735 0.03282 0.05084 0.0
C939 C 0.72392 0.02017 0.0393 0.0
C940 C 0.70001 0.0189 0.05623 0.0
C941 C 0.69984 0.02935 0.08414 0.0
C942 C 0.70346 0.99889 0.96391 0.0
C943 C 0.72814 0.98789 0.95324 0.0
C944 C 0.70186 1.00905 0.99188 0.0
C945 C 0.72483 1.00812 1.00992 0.0
C946 C 0.74911 0.99599 0.99942 0.0
C947 C 0.75081 0.98627 0.97143 0.0
H948 H 0.01767 0.35539 0.93282 0.0
H949 H 0.08093 0.30729 0.97297 0.0
H950 H 0.99444 0.36076 0.97859 0.0
H951 H 0.05743 0.3123 0.01864 0.0
H952 H 0.01883 0.34201 0.10127 0.0
H953 H 0.04398 0.34443 0.05628 0.0
H954 H 0.96863 0.33108 1.01037 0.0
H955 H 0.94345 0.32909 0.0552 0.0
C956 C 0.02676 0.34612 0.95143 0.0
C957 C 0.05111 0.33075 0.94914 0.0
C958 C 1.01333 0.34908 0.97766 0.0
C959 C 0.02393 0.3368 1.00229 0.0
C960 C 0.04881 0.32226 1.00018 0.0
C961 C 0.06223 0.31926 0.97393 0.0
C962 C 1.00757 0.33993 0.08156 0.0
C963 C 0.97911 0.33522 0.08188 0.0
C964 C 0.02204 0.34113 0.05578 0.0
C965 C 1.00838 0.33779 0.02969 0.0
C966 C 0.97979 0.33403 0.03002 0.0
C967 C 0.96534 0.33274 0.05578 0.0
H968 H 0.33264 0.088 0.98113 0.0
H969 H 0.35863 0.01632 0.93347 0.0
H970 H 0.33557 0.06215 0.0251 0.0
H971 H 0.36245 0.99061 0.97767 0.0
H972 H 0.32668 0.94548 0.05573 0.0
H973 H 0.332 0.97097 1.01172 0.0
H974 H 0.36411 0.04014 0.05902 0.0
H975 H 0.3579 1.01487 0.10325 0.0
C976 C 0.33948 0.06684 0.98006 0.0
C977 C 0.34517 0.05418 0.95372 0.0
C978 C 0.34133 0.05202 1.00538 0.0
C979 C 0.3491 0.02418 1.00503 0.0
C980 C 0.35591 1.01185 0.97874 0.0
C981 C 0.35389 0.02665 0.95339 0.0
C982 C 0.33516 0.96602 0.05675 0.0
C983 C 0.34162 0.97821 0.08306 0.0
C984 C 0.33839 0.98062 0.03142 0.0
C985 C 0.34834 1.00775 0.03173 0.0
C986 C 0.3559 0.0195 0.05799 0.0
C987 C 0.35251 1.00494 0.08335 0.0
H988 H 0.9742 0.76901 0.95792 0.0
H989 H 1.0015 0.6859 0.94227 0.0
H990 H 0.99097 0.76656 1.0064 0.0
H991 H 0.01954 0.68373 0.99067 0.0
H992 H 0.02851 0.68288 0.08877 0.0
H993 H 1.01015 0.6821 0.04042 0.0
H994 H 0.03276 0.76737 0.03048 0.0
H995 H 0.04984 0.76834 0.0789 0.0
C996 C 0.98384 0.75017 0.96487 0.0
C997 C 0.98664 0.72772 0.9462 0.0
C998 C 0.99374 0.74883 0.99266 0.0
C999 C 1.00719 0.72513 1.00246 0.0
C1000 C 1.00921 0.70228 0.98402 0.0
C1001 C 0.99892 0.70352 0.95622 0.0
C1002 C 0.02969 0.70136 0.0761 0.0
C1003 C 0.04041 0.72574 0.08773 0.0
C1004 C 0.01921 0.70092 0.04834 0.0
C1005 C 0.0195 0.7248 0.03154 0.0
C1006 C 0.03133 0.74879 0.04295 0.0
C1007 C 0.04141 0.74931 0.0707 0.0
loop_
_geom_bond_atom_site_label_1
_geom_bond_atom_site_label_2
_geom_bond_distance
_geom_bond_site_symmetry_2
_ccdc_geom_bond_type
Cu0 N1 1.999 . S
Cu0 O6 1.974 . S
Cu0 N11 1.985 . S
Cu0 O20 1.959 . S
N1 Cu0 1.999 . S
N1 C3 1.263 . S
N1 C5 1.389 . S
N2 C3 1.358 . S
N2 C4 1.400 . S
C3 N1 1.263 . S
C3 N2 1.358 . S
C3 H9 0.930 . S
C4 N2 1.400 . S
C4 C5 1.351 . S
C4 H21 0.930 . S
C5 N1 1.389 . S
C5 C4 1.351 . S
C5 H10 0.930 . S
O6 Cu0 1.974 . S
O6 C16 1.282 . S
C7 O8 1.261 . S
C7 O20 1.251 . S
O8 C7 1.261 . S
H9 C3 0.930 . S
H10 C5 0.930 . S
N11 Cu0 1.985 . S
N11 C13 1.335 . S
N11 C14 1.390 . S
N12 C13 1.345 . S
N12 C15 1.336 . S
C13 N11 1.335 . S
C13 N12 1.345 . S
C13 H18 0.930 . S
C14 N11 1.390 . S
C14 C15 1.346 . S
C14 H19 0.930 . S
C15 N12 1.336 . S
C15 C14 1.346 . S
C15 H22 0.929 . S
C16 O6 1.282 . S
C16 O17 1.216 . S
O17 C16 1.216 . S
H18 C13 0.930 . S
H19 C14 0.930 . S
O20 Cu0 1.959 . S
O20 C7 1.251 . S
H21 C4 0.930 . S
H22 C15 0.929 . S
Cu23 N24 1.999 . S
Cu23 O29 1.974 . S
Cu23 N34 1.985 . S
Cu23 O43 1.959 . S
N24 Cu23 1.999 . S
N24 C26 1.263 . S
N24 C28 1.389 . S
N25 C26 1.358 . S
N25 C27 1.400 . S
C26 N24 1.263 . S
C26 N25 1.358 . S
C26 H32 0.930 . S
C27 N25 1.400 . S
C27 C28 1.351 . S
C27 H44 0.930 . S
C28 N24 1.389 . S
C28 C27 1.351 . S
C28 H33 0.930 . S
O29 Cu23 1.974 . S
O29 C39 1.282 . S
C30 O31 1.261 . S
C30 O43 1.251 . S
O31 C30 1.261 . S
H32 C26 0.930 . S
H33 C28 0.930 . S
N34 Cu23 1.985 . S
N34 C36 1.335 . S
N34 C37 1.390 . S
N35 C36 1.345 . S
N35 C38 1.336 . S
C36 N34 1.335 . S
C36 N35 1.345 . S
C36 H41 0.930 . S
C37 N34 1.390 . S
C37 C38 1.346 . S
C37 H42 0.930 . S
C38 N35 1.336 . S
C38 C37 1.346 . S
C38 H45 0.929 . S
C39 O29 1.282 . S
C39 O40 1.216 . S
O40 C39 1.216 . S
H41 C36 0.930 . S
H42 C37 0.930 . S
O43 Cu23 1.959 . S
O43 C30 1.251 . S
H44 C27 0.930 . S
H45 C38 0.929 . S
Cu46 N47 1.999 . S
Cu46 O52 1.974 . S
Cu46 N57 1.985 . S
Cu46 O66 1.959 . S
N47 Cu46 1.999 . S
N47 C49 1.263 . S
N47 C51 1.389 . S
N48 C49 1.358 . S
N48 C50 1.400 . S
C49 N47 1.263 . S
C49 N48 1.358 . S
C49 H55 0.930 . S
C50 N48 1.400 . S
C50 C51 1.351 . S
C50 H67 0.930 . S
C51 N47 1.389 . S
C51 C50 1.351 . S
C51 H56 0.930 . S
O52 Cu46 1.974 . S
O52 C62 1.282 . S
C53 O54 1.261 . S
C53 O66 1.251 . S
O54 C53 1.261 . S
H55 C49 0.930 . S
H56 C51 0.930 . S
N57 Cu46 1.985 . S
N57 C59 1.335 . S
N57 C60 1.390 . S
N58 C59 1.345 . S
N58 C61 1.336 . S
C59 N57 1.335 . S
C59 N58 1.345 . S
C59 H64 0.930 . S
C60 N57 1.390 . S
C60 C61 1.346 . S
C60 H65 0.930 . S
C61 N58 1.336 . S
C61 C60 1.346 . S
C61 H68 0.929 . S
C62 O52 1.282 . S
C62 O63 1.216 . S
O63 C62 1.216 . S
H64 C59 0.930 . S
H65 C60 0.930 . S
O66 Cu46 1.959 . S
O66 C53 1.251 . S
H67 C50 0.930 . S
H68 C61 0.929 . S
Cu69 N70 1.999 . S
Cu69 O75 1.974 . S
Cu69 N80 1.985 . S
Cu69 O89 1.959 . S
N70 Cu69 1.999 . S
N70 C72 1.263 . S
N70 C74 1.389 . S
N71 C72 1.358 . S
N71 C73 1.400 . S
C72 N70 1.263 . S
C72 N71 1.358 . S
C72 H78 0.930 . S
C73 N71 1.400 . S
C73 C74 1.351 . S
C73 H90 0.930 . S
C74 N70 1.389 . S
C74 C73 1.351 . S
C74 H79 0.930 . S
O75 Cu69 1.974 . S
O75 C85 1.282 . S
C76 O77 1.261 . S
C76 O89 1.251 . S
O77 C76 1.261 . S
H78 C72 0.930 . S
H79 C74 0.930 . S
N80 Cu69 1.985 . S
N80 C82 1.335 . S
N80 C83 1.390 . S
N81 C82 1.345 . S
N81 C84 1.336 . S
C82 N80 1.335 . S
C82 N81 1.345 . S
C82 H87 0.930 . S
C83 N80 1.390 . S
C83 C84 1.346 . S
C83 H88 0.930 . S
C84 N81 1.336 . S
C84 C83 1.346 . S
C84 H91 0.929 . S
C85 O75 1.282 . S
C85 O86 1.216 . S
O86 C85 1.216 . S
H87 C82 0.930 . S
H88 C83 0.930 . S
O89 Cu69 1.959 . S
O89 C76 1.251 . S
H90 C73 0.930 . S
H91 C84 0.929 . S
Cu92 N93 1.999 . S
Cu92 O98 1.974 . S
Cu92 N103 1.985 . S
Cu92 O112 1.959 . S
N93 Cu92 1.999 . S
N93 C95 1.263 . S
N93 C97 1.389 . S
N94 C95 1.358 . S
N94 C96 1.400 . S
C95 N93 1.263 . S
C95 N94 1.358 . S
C95 H101 0.930 . S
C96 N94 1.400 . S
C96 C97 1.351 . S
C96 H113 0.930 . S
C97 N93 1.389 . S
C97 C96 1.351 . S
C97 H102 0.930 . S
O98 Cu92 1.974 . S
O98 C108 1.282 . S
C99 O100 1.261 . S
C99 O112 1.251 . S
O100 C99 1.261 . S
H101 C95 0.930 . S
H102 C97 0.930 . S
N103 Cu92 1.985 . S
N103 C105 1.335 . S
N103 C106 1.390 . S
N104 C105 1.345 . S
N104 C107 1.336 . S
C105 N103 1.335 . S
C105 N104 1.345 . S
C105 H110 0.930 . S
C106 N103 1.390 . S
C106 C107 1.346 . S
C106 H111 0.930 . S
C107 N104 1.336 . S
C107 C106 1.346 . S
C107 H114 0.929 . S
C108 O98 1.282 . S
C108 O109 1.216 . S
O109 C108 1.216 . S
H110 C105 0.930 . S
H111 C106 0.930 . S
O112 Cu92 1.959 . S
O112 C99 1.251 . S
H113 C96 0.930 . S
H114 C107 0.929 . S
Cu115 N116 1.999 . S
Cu115 O121 1.974 . S
Cu115 N126 1.985 . S
Cu115 O135 1.959 . S
N116 Cu115 1.999 . S
N116 C118 1.263 . S
N116 C120 1.389 . S
N117 C118 1.358 . S
N117 C119 1.400 . S
C118 N116 1.263 . S
C118 N117 1.358 . S
C118 H124 0.930 . S
C119 N117 1.400 . S
C119 C120 1.351 . S
C119 H136 0.930 . S
C120 N116 1.389 . S
C120 C119 1.351 . S
C120 H125 0.930 . S
O121 Cu115 1.974 . S
O121 C131 1.282 . S
C122 O123 1.261 . S
C122 O135 1.251 . S
O123 C122 1.261 . S
H124 C118 0.930 . S
H125 C120 0.930 . S
N126 Cu115 1.985 . S
N126 C128 1.335 . S
N126 C129 1.390 . S
N127 C128 1.345 . S
N127 C130 1.336 . S
C128 N126 1.335 . S
C128 N127 1.345 . S
C128 H133 0.930 . S
C129 N126 1.390 . S
C129 C130 1.346 . S
C129 H134 0.930 . S
C130 N127 1.336 . S
C130 C129 1.346 . S
C130 H137 0.929 . S
C131 O121 1.282 . S
C131 O132 1.216 . S
O132 C131 1.216 . S
H133 C128 0.930 . S
H134 C129 0.930 . S
O135 Cu115 1.959 . S
O135 C122 1.251 . S
H136 C119 0.930 . S
H137 C130 0.929 . S
Cu138 N139 1.999 . S
Cu138 O144 1.974 . S
Cu138 N149 1.985 . S
Cu138 O158 1.959 . S
N139 Cu138 1.999 . S
N139 C141 1.263 . S
N139 C143 1.389 . S
N140 C141 1.358 . S
N140 C142 1.400 . S
C141 N139 1.263 . S
C141 N140 1.358 . S
C141 H147 0.930 . S
C142 N140 1.400 . S
C142 C143 1.351 . S
C142 H159 0.930 . S
C143 N139 1.389 . S
C143 C142 1.351 . S
C143 H148 0.930 . S
O144 Cu138 1.974 . S
O144 C154 1.282 . S
C145 O146 1.261 . S
C145 O158 1.251 . S
O146 C145 1.261 . S
H147 C141 0.930 . S
H148 C143 0.930 . S
N149 Cu138 1.985 . S
N149 C151 1.335 . S
N149 C152 1.390 . S
N150 C151 1.345 . S
N150 C153 1.336 . S
C151 N149 1.335 . S
C151 N150 1.345 . S
C151 H156 0.930 . S
C152 N149 1.390 . S
C152 C153 1.346 . S
C152 H157 0.930 . S
C153 N150 1.336 . S
C153 C152 1.346 . S
C153 H160 0.929 . S
C154 O144 1.282 . S
C154 O155 1.216 . S
O155 C154 1.216 . S
H156 C151 0.930 . S
H157 C152 0.930 . S
O158 Cu138 1.959 . S
O158 C145 1.251 . S
H159 C142 0.930 . S
H160 C153 0.929 . S
Cu161 N162 1.999 . S
Cu161 O167 1.974 . S
Cu161 N172 1.985 . S
Cu161 O181 1.959 . S
N162 Cu161 1.999 . S
N162 C164 1.263 . S
N162 C166 1.389 . S
N163 C164 1.358 . S
N163 C165 1.400 . S
C164 N162 1.263 . S
C164 N163 1.358 . S
C164 H170 0.930 . S
C165 N163 1.400 . S
C165 C166 1.351 . S
C165 H182 0.930 . S
C166 N162 1.389 . S
C166 C165 1.351 . S
C166 H171 0.930 . S
O167 Cu161 1.974 . S
O167 C177 1.282 . S
C168 O169 1.261 . S
C168 O181 1.251 . S
O169 C168 1.261 . S
H170 C164 0.930 . S
H171 C166 0.930 . S
N172 Cu161 1.985 . S
N172 C174 1.335 . S
N172 C175 1.390 . S
N173 C174 1.345 . S
N173 C176 1.336 . S
C174 N172 1.335 . S
C174 N173 1.345 . S
C174 H179 0.930 . S
C175 N172 1.390 . S
C175 C176 1.346 . S
C175 H180 0.930 . S
C176 N173 1.336 . S
C176 C175 1.346 . S
C176 H183 0.929 . S
C177 O167 1.282 . S
C177 O178 1.216 . S
O178 C177 1.216 . S
H179 C174 0.930 . S
H180 C175 0.930 . S
O181 Cu161 1.959 . S
O181 C168 1.251 . S
H182 C165 0.930 . S
H183 C176 0.929 . S
Cu184 N185 1.999 1_565 S
Cu184 O190 1.974 . S
Cu184 N195 1.985 . S
Cu184 O204 1.959 . S
N185 Cu184 1.999 1_545 S
N185 C187 1.263 . S
N185 C189 1.389 . S
N186 C187 1.358 . S
N186 C188 1.400 . S
C187 N185 1.263 . S
C187 N186 1.358 . S
C187 H193 0.930 1_545 S
C188 N186 1.400 . S
C188 C189 1.351 . S
C188 H205 0.930 . S
C189 N185 1.389 . S
C189 C188 1.351 . S
C189 H194 0.930 . S
O190 Cu184 1.974 . S
O190 C200 1.282 . S
C191 O192 1.261 . S
C191 O204 1.251 . S
O192 C191 1.261 . S
H193 C187 0.930 1_565 S
H194 C189 0.930 . S
N195 Cu184 1.985 . S
N195 C197 1.335 . S
N195 C198 1.390 . S
N196 C197 1.345 . S
N196 C199 1.336 . S
C197 N195 1.335 . S
C197 N196 1.345 . S
C197 H202 0.930 . S
C198 N195 1.390 . S
C198 C199 1.346 . S
C198 H203 0.930 . S
C199 N196 1.336 . S
C199 C198 1.346 . S
C199 H206 0.929 . S
C200 O190 1.282 . S
C200 O201 1.216 . S
O201 C200 1.216 . S
H202 C197 0.930 . S
H203 C198 0.930 . S
O204 Cu184 1.959 . S
O204 C191 1.251 . S
H205 C188 0.930 . S
H206 C199 0.929 . S
Cu207 N208 1.999 1_655 S
Cu207 O213 1.974 . S
Cu207 N218 1.985 . S
Cu207 O227 1.959 . S
N208 Cu207 1.999 1_455 S
N208 C210 1.263 . S
N208 C212 1.389 . S
N209 C210 1.358 . S
N209 C211 1.400 . S
C210 N208 1.263 . S
C210 N209 1.358 . S
C210 H216 0.930 1_455 S
C211 N209 1.400 . S
C211 C212 1.351 . S
C211 H228 0.930 . S
C212 N208 1.389 . S
C212 C211 1.351 . S
C212 H217 0.930 . S
O213 Cu207 1.974 . S
O213 C223 1.282 . S
C214 O215 1.261 . S
C214 O227 1.251 . S
O215 C214 1.261 . S
H216 C210 0.930 1_655 S
H217 C212 0.930 . S
N218 Cu207 1.985 . S
N218 C220 1.335 . S
N218 C221 1.390 . S
N219 C220 1.345 . S
N219 C222 1.336 . S
C220 N218 1.335 . S
C220 N219 1.345 . S
C220 H225 0.930 . S
C221 N218 1.390 . S
C221 C222 1.346 . S
C221 H226 0.930 . S
C222 N219 1.336 . S
C222 C221 1.346 . S
C222 H229 0.929 . S
C223 O213 1.282 . S
C223 O224 1.216 . S
O224 C223 1.216 . S
H225 C220 0.930 . S
H226 C221 0.930 . S
O227 Cu207 1.959 . S
O227 C214 1.251 . S
H228 C211 0.930 . S
H229 C222 0.929 . S
Cu230 N231 1.999 1_545 S
Cu230 O236 1.974 . S
Cu230 N241 1.985 . S
Cu230 O250 1.959 . S
N231 Cu230 1.999 1_565 S
N231 C233 1.263 . S
N231 C235 1.389 . S
N232 C233 1.358 . S
N232 C234 1.400 . S
C233 N231 1.263 . S
C233 N232 1.358 . S
C233 H239 0.930 1_565 S
C234 N232 1.400 . S
C234 C235 1.351 . S
C234 H251 0.930 . S
C235 N231 1.389 . S
C235 C234 1.351 . S
C235 H240 0.930 . S
O236 Cu230 1.974 . S
O236 C246 1.282 . S
C237 O238 1.261 . S
C237 O250 1.251 . S
O238 C237 1.261 . S
H239 C233 0.930 1_545 S
H240 C235 0.930 . S
N241 Cu230 1.985 . S
N241 C243 1.335 . S
N241 C244 1.390 . S
N242 C243 1.345 . S
N242 C245 1.336 . S
C243 N241 1.335 . S
C243 N242 1.345 . S
C243 H248 0.930 . S
C244 N241 1.390 . S
C244 C245 1.346 . S
C244 H249 0.930 . S
C245 N242 1.336 . S
C245 C244 1.346 . S
C245 H252 0.929 . S
C246 O236 1.282 . S
C246 O247 1.216 . S
O247 C246 1.216 . S
H248 C243 0.930 . S
H249 C244 0.930 . S
O250 Cu230 1.959 . S
O250 C237 1.251 . S
H251 C234 0.930 . S
H252 C245 0.929 . S
Cu253 N254 1.999 1_455 S
Cu253 O259 1.974 . S
Cu253 N264 1.985 . S
Cu253 O273 1.959 . S
N254 Cu253 1.999 1_655 S
N254 C256 1.263 . S
N254 C258 1.389 . S
N255 C256 1.358 . S
N255 C257 1.400 . S
C256 N254 1.263 . S
C256 N255 1.358 . S
C256 H262 0.930 1_655 S
C257 N255 1.400 . S
C257 C258 1.351 . S
C257 H274 0.930 . S
C258 N254 1.389 . S
C258 C257 1.351 . S
C258 H263 0.930 . S
O259 Cu253 1.974 . S
O259 C269 1.282 . S
C260 O261 1.261 . S
C260 O273 1.251 . S
O261 C260 1.261 . S
H262 C256 0.930 1_455 S
H263 C258 0.930 . S
N264 Cu253 1.985 . S
N264 C266 1.335 . S
N264 C267 1.390 . S
N265 C266 1.345 . S
N265 C268 1.336 . S
C266 N264 1.335 . S
C266 N265 1.345 . S
C266 H271 0.930 . S
C267 N264 1.390 . S
C267 C268 1.346 . S
C267 H272 0.930 . S
C268 N265 1.336 . S
C268 C267 1.346 . S
C268 H275 0.929 . S
C269 O259 1.282 . S
C269 O270 1.216 . S
O270 C269 1.216 . S
H271 C266 0.930 . S
H272 C267 0.930 . S
O273 Cu253 1.959 . S
O273 C260 1.251 . S
H274 C257 0.930 . S
H275 C268 0.929 . S
Cu276 N277 1.999 1_545 S
Cu276 O282 1.974 . S
Cu276 N287 1.985 . S
Cu276 O296 1.959 . S
N277 Cu276 1.999 1_565 S
N277 C279 1.263 . S
N277 C281 1.389 . S
N278 C279 1.358 . S
N278 C280 1.400 . S
C279 N277 1.263 . S
C279 N278 1.358 . S
C279 H285 0.930 1_565 S
C280 N278 1.400 . S
C280 C281 1.351 . S
C280 H297 0.930 . S
C281 N277 1.389 . S
C281 C280 1.351 . S
C281 H286 0.930 . S
O282 Cu276 1.974 . S
O282 C292 1.282 . S
C283 O284 1.261 . S
C283 O296 1.251 . S
O284 C283 1.261 . S
H285 C279 0.930 1_545 S
H286 C281 0.930 . S
N287 Cu276 1.985 . S
N287 C289 1.335 . S
N287 C290 1.390 . S
N288 C289 1.345 . S
N288 C291 1.336 . S
C289 N287 1.335 . S
C289 N288 1.345 . S
C289 H294 0.930 . S
C290 N287 1.390 . S
C290 C291 1.346 . S
C290 H295 0.930 . S
C291 N288 1.336 . S
C291 C290 1.346 . S
C291 H298 0.929 . S
C292 O282 1.282 . S
C292 O293 1.216 . S
O293 C292 1.216 . S
H294 C289 0.930 . S
H295 C290 0.930 . S
O296 Cu276 1.959 . S
O296 C283 1.251 . S
H297 C280 0.930 . S
H298 C291 0.929 . S
Cu299 N300 1.999 1_455 S
Cu299 O305 1.974 . S
Cu299 N310 1.985 . S
Cu299 O319 1.959 . S
N300 Cu299 1.999 1_655 S
N300 C302 1.263 . S
N300 C304 1.389 . S
N301 C302 1.358 . S
N301 C303 1.400 . S
C302 N300 1.263 . S
C302 N301 1.358 . S
C302 H308 0.930 1_655 S
C303 N301 1.400 . S
C303 C304 1.351 . S
C303 H320 0.930 . S
C304 N300 1.389 . S
C304 C303 1.351 . S
C304 H309 0.930 . S
O305 Cu299 1.974 . S
O305 C315 1.282 . S
C306 O307 1.261 . S
C306 O319 1.251 . S
O307 C306 1.261 . S
H308 C302 0.930 1_455 S
H309 C304 0.930 . S
N310 Cu299 1.985 . S
N310 C312 1.335 . S
N310 C313 1.390 . S
N311 C312 1.345 . S
N311 C314 1.336 . S
C312 N310 1.335 . S
C312 N311 1.345 . S
C312 H317 0.930 . S
C313 N310 1.390 . S
C313 C314 1.346 . S
C313 H318 0.930 . S
C314 N311 1.336 . S
C314 C313 1.346 . S
C314 H321 0.929 . S
C315 O305 1.282 . S
C315 O316 1.216 . S
O316 C315 1.216 . S
H317 C312 0.930 . S
H318 C313 0.930 . S
O319 Cu299 1.959 . S
O319 C306 1.251 . S
H320 C303 0.930 . S
H321 C314 0.929 . S
Cu322 N323 1.999 1_565 S
Cu322 O328 1.974 . S
Cu322 N333 1.985 . S
Cu322 O342 1.959 . S
N323 Cu322 1.999 1_545 S
N323 C325 1.263 . S
N323 C327 1.389 . S
N324 C325 1.358 . S
N324 C326 1.400 . S
C325 N323 1.263 . S
C325 N324 1.358 . S
C325 H331 0.930 1_545 S
C326 N324 1.400 . S
C326 C327 1.351 . S
C326 H343 0.930 . S
C327 N323 1.389 . S
C327 C326 1.351 . S
C327 H332 0.930 . S
O328 Cu322 1.974 . S
O328 C338 1.282 . S
C329 O330 1.261 . S
C329 O342 1.251 . S
O330 C329 1.261 . S
H331 C325 0.930 1_565 S
H332 C327 0.930 . S
N333 Cu322 1.985 . S
N333 C335 1.335 . S
N333 C336 1.390 . S
N334 C335 1.345 . S
N334 C337 1.336 . S
C335 N333 1.335 . S
C335 N334 1.345 . S
C335 H340 0.930 . S
C336 N333 1.390 . S
C336 C337 1.346 . S
C336 H341 0.930 . S
C337 N334 1.336 . S
C337 C336 1.346 . S
C337 H344 0.929 . S
C338 O328 1.282 . S
C338 O339 1.216 . S
O339 C338 1.216 . S
H340 C335 0.930 . S
H341 C336 0.930 . S
O342 Cu322 1.959 . S
O342 C329 1.251 . S
H343 C326 0.930 . S
H344 C337 0.929 . S
Cu345 N346 1.999 1_655 S
Cu345 O351 1.974 . S
Cu345 N356 1.985 . S
Cu345 O365 1.959 . S
N346 Cu345 1.999 1_455 S
N346 C348 1.263 . S
N346 C350 1.389 . S
N347 C348 1.358 . S
N347 C349 1.400 . S
C348 N346 1.263 . S
C348 N347 1.358 . S
C348 H354 0.930 1_455 S
C349 N347 1.400 . S
C349 C350 1.351 . S
C349 H366 0.930 . S
C350 N346 1.389 . S
C350 C349 1.351 . S
C350 H355 0.930 . S
O351 Cu345 1.974 . S
O351 C361 1.282 . S
C352 O353 1.261 . S
C352 O365 1.251 . S
O353 C352 1.261 . S
H354 C348 0.930 1_655 S
H355 C350 0.930 . S
N356 Cu345 1.985 . S
N356 C358 1.335 . S
N356 C359 1.390 . S
N357 C358 1.345 . S
N357 C360 1.336 . S
C358 N356 1.335 . S
C358 N357 1.345 . S
C358 H363 0.930 . S
C359 N356 1.390 . S
C359 C360 1.346 . S
C359 H364 0.930 . S
C360 N357 1.336 . S
C360 C359 1.346 . S
C360 H367 0.929 . S
C361 O351 1.282 . S
C361 O362 1.216 . S
O362 C361 1.216 . S
H363 C358 0.930 . S
H364 C359 0.930 . S
O365 Cu345 1.959 . S
O365 C352 1.251 . S
H366 C349 0.930 . S
H367 C360 0.929 . S
H368 C376 0.950 . S
H369 C381 0.950 . S
H370 C378 0.950 . S
H371 C380 0.950 . S
H372 C382 0.950 . S
H373 C384 0.950 . S
H374 C386 0.950 . S
H375 C387 0.950 . S
C376 H368 0.950 . S
C376 C377 1.386 . S
C376 C378 1.391 . S
C377 C376 1.386 . S
C377 C381 1.393 . S
C378 H370 0.950 . S
C378 C376 1.391 . S
C378 C379 1.400 . S
C379 C378 1.400 . S
C379 C380 1.398 . S
C379 C385 1.491 . S
C380 H371 0.950 . S
C380 C379 1.398 . S
C380 C381 1.391 . S
C381 H369 0.950 . S
C381 C377 1.393 . S
C381 C380 1.391 . S
C382 H372 0.950 . S
C382 C383 1.386 . S
C382 C384 1.391 . S
C383 C382 1.386 . S
C383 C387 1.393 . S
C384 H373 0.950 . S
C384 C382 1.391 . S
C384 C385 1.400 . S
C385 C379 1.491 . S
C385 C384 1.400 . S
C385 C386 1.398 . S
C386 H374 0.950 . S
C386 C385 1.398 . S
C386 C387 1.391 . S
C387 H375 0.950 . S
C387 C383 1.393 . S
C387 C386 1.391 . S
H388 C396 0.950 . S
H389 C401 0.950 . S
H390 C398 0.950 . S
H391 C400 0.950 . S
H392 C402 0.950 . S
H393 C404 0.950 . S
H394 C406 0.950 . S
H395 C407 0.950 . S
C396 H388 0.950 . S
C396 C397 1.386 . S
C396 C398 1.391 . S
C397 C396 1.386 . S
C397 C401 1.393 . S
C398 H390 0.950 . S
C398 C396 1.391 . S
C398 C399 1.400 . S
C399 C398 1.400 . S
C399 C400 1.398 . S
C399 C405 1.491 . S
C400 H391 0.950 . S
C400 C399 1.398 . S
C400 C401 1.391 . S
C401 H389 0.950 . S
C401 C397 1.393 . S
C401 C400 1.391 . S
C402 H392 0.950 . S
C402 C403 1.386 . S
C402 C404 1.391 . S
C403 C402 1.386 . S
C403 C407 1.393 . S
C404 H393 0.950 . S
C404 C402 1.391 . S
C404 C405 1.400 . S
C405 C399 1.491 . S
C405 C404 1.400 . S
C405 C406 1.398 . S
C406 H394 0.950 . S
C406 C405 1.398 . S
C406 C407 1.391 . S
C407 H395 0.950 . S
C407 C403 1.393 . S
C407 C406 1.391 . S
H408 C416 0.950 . S
H409 C421 0.950 . S
H410 C418 0.950 . S
H411 C420 0.950 . S
H412 C422 0.950 . S
H413 C424 0.950 . S
H414 C426 0.950 . S
H415 C427 0.950 . S
C416 H408 0.950 . S
C416 C417 1.386 . S
C416 C418 1.391 . S
C417 C416 1.386 . S
C417 C421 1.393 . S
C418 H410 0.950 . S
C418 C416 1.391 . S
C418 C419 1.400 . S
C419 C418 1.400 . S
C419 C420 1.398 . S
C419 C425 1.491 . S
C420 H411 0.950 . S
C420 C419 1.398 . S
C420 C421 1.391 . S
C421 H409 0.950 . S
C421 C417 1.393 . S
C421 C420 1.391 . S
C422 H412 0.950 . S
C422 C423 1.386 . S
C422 C424 1.391 . S
C423 C422 1.386 . S
C423 C427 1.393 . S
C424 H413 0.950 . S
C424 C422 1.391 . S
C424 C425 1.400 . S
C425 C419 1.491 . S
C425 C424 1.400 . S
C425 C426 1.398 . S
C426 H414 0.950 . S
C426 C425 1.398 . S
C426 C427 1.391 . S
C427 H415 0.950 . S
C427 C423 1.393 . S
C427 C426 1.391 . S
H428 C436 0.950 . S
H429 C441 0.950 . S
H430 C438 0.950 . S
H431 C440 0.950 . S
H432 C442 0.950 . S
H433 C444 0.950 . S
H434 C446 0.950 . S
H435 C447 0.950 . S
C436 H428 0.950 . S
C436 C437 1.386 . S
C436 C438 1.391 . S
C437 C436 1.386 . S
C437 C441 1.393 . S
C438 H430 0.950 . S
C438 C436 1.391 . S
C438 C439 1.400 . S
C439 C438 1.400 . S
C439 C440 1.398 . S
C439 C445 1.491 . S
C440 H431 0.950 . S
C440 C439 1.398 . S
C440 C441 1.391 . S
C441 H429 0.950 . S
C441 C437 1.393 . S
C441 C440 1.391 . S
C442 H432 0.950 . S
C442 C443 1.386 . S
C442 C444 1.391 . S
C443 C442 1.386 . S
C443 C447 1.393 . S
C444 H433 0.950 . S
C444 C442 1.391 . S
C444 C445 1.400 . S
C445 C439 1.491 . S
C445 C444 1.400 . S
C445 C446 1.398 . S
C446 H434 0.950 . S
C446 C445 1.398 . S
C446 C447 1.391 . S
C447 H435 0.950 . S
C447 C443 1.393 . S
C447 C446 1.391 . S
H448 C456 0.950 . S
H449 C461 0.950 . S
H450 C458 0.950 . S
H451 C460 0.950 . S
H452 C462 0.950 . S
H453 C464 0.950 . S
H454 C466 0.950 . S
H455 C467 0.950 . S
C456 H448 0.950 . S
C456 C457 1.386 . S
C456 C458 1.391 . S
C457 C456 1.386 . S
C457 C461 1.393 . S
C458 H450 0.950 . S
C458 C456 1.391 . S
C458 C459 1.400 . S
C459 C458 1.400 . S
C459 C460 1.398 . S
C459 C465 1.491 . S
C460 H451 0.950 . S
C460 C459 1.398 . S
C460 C461 1.391 . S
C461 H449 0.950 . S
C461 C457 1.393 . S
C461 C460 1.391 . S
C462 H452 0.950 . S
C462 C463 1.386 . S
C462 C464 1.391 . S
C463 C462 1.386 . S
C463 C467 1.393 . S
C464 H453 0.950 . S
C464 C462 1.391 . S
C464 C465 1.400 . S
C465 C459 1.491 . S
C465 C464 1.400 . S
C465 C466 1.398 . S
C466 H454 0.950 . S
C466 C465 1.398 . S
C466 C467 1.391 . S
C467 H455 0.950 . S
C467 C463 1.393 . S
C467 C466 1.391 . S
H468 C476 0.950 . S
H469 C481 0.950 . S
H470 C478 0.950 . S
H471 C480 0.950 . S
H472 C482 0.950 . S
H473 C484 0.950 . S
H474 C486 0.950 . S
H475 C487 0.950 . S
C476 H468 0.950 . S
C476 C477 1.386 . S
C476 C478 1.391 . S
C477 C476 1.386 . S
C477 C481 1.393 . S
C478 H470 0.950 . S
C478 C476 1.391 . S
C478 C479 1.400 . S
C479 C478 1.400 . S
C479 C480 1.398 . S
C479 C485 1.491 . S
C480 H471 0.950 . S
C480 C479 1.398 . S
C480 C481 1.391 . S
C481 H469 0.950 . S
C481 C477 1.393 . S
C481 C480 1.391 . S
C482 H472 0.950 . S
C482 C483 1.386 . S
C482 C484 1.391 . S
C483 C482 1.386 . S
C483 C487 1.393 . S
C484 H473 0.950 . S
C484 C482 1.391 . S
C484 C485 1.400 . S
C485 C479 1.491 . S
C485 C484 1.400 . S
C485 C486 1.398 . S
C486 H474 0.950 . S
C486 C485 1.398 . S
C486 C487 1.391 . S
C487 H475 0.950 . S
C487 C483 1.393 . S
C487 C486 1.391 . S
H488 C496 0.950 . S
H489 C501 0.950 . S
H490 C498 0.950 . S
H491 C500 0.950 . S
H492 C502 0.950 . S
H493 C504 0.950 . S
H494 C506 0.950 . S
H495 C507 0.950 . S
C496 H488 0.950 . S
C496 C497 1.386 . S
C496 C498 1.391 . S
C497 C496 1.386 . S
C497 C501 1.393 . S
C498 H490 0.950 . S
C498 C496 1.391 . S
C498 C499 1.400 . S
C499 C498 1.400 . S
C499 C500 1.398 . S
C499 C505 1.491 . S
C500 H491 0.950 . S
C500 C499 1.398 . S
C500 C501 1.391 . S
C501 H489 0.950 . S
C501 C497 1.393 . S
C501 C500 1.391 . S
C502 H492 0.950 . S
C502 C503 1.386 . S
C502 C504 1.391 . S
C503 C502 1.386 . S
C503 C507 1.393 . S
C504 H493 0.950 . S
C504 C502 1.391 . S
C504 C505 1.400 . S
C505 C499 1.491 . S
C505 C504 1.400 . S
C505 C506 1.398 . S
C506 H494 0.950 . S
C506 C505 1.398 . S
C506 C507 1.391 . S
C507 H495 0.950 . S
C507 C503 1.393 . S
C507 C506 1.391 . S
H508 C516 0.950 . S
H509 C521 0.950 . S
H510 C518 0.950 . S
H511 C520 0.950 . S
H512 C522 0.950 . S
H513 C524 0.950 . S
H514 C526 0.950 . S
H515 C527 0.950 . S
C516 H508 0.950 . S
C516 C517 1.386 . S
C516 C518 1.391 . S
C517 C516 1.386 . S
C517 C521 1.393 . S
C518 H510 0.950 . S
C518 C516 1.391 . S
C518 C519 1.400 . S
C519 C518 1.400 . S
C519 C520 1.398 . S
C519 C525 1.491 . S
C520 H511 0.950 . S
C520 C519 1.398 . S
C520 C521 1.391 . S
C521 H509 0.950 . S
C521 C517 1.393 . S
C521 C520 1.391 . S
C522 H512 0.950 . S
C522 C523 1.386 . S
C522 C524 1.391 . S
C523 C522 1.386 . S
C523 C527 1.393 . S
C524 H513 0.950 . S
C524 C522 1.391 . S
C524 C525 1.400 . S
C525 C519 1.491 . S
C525 C524 1.400 . S
C525 C526 1.398 . S
C526 H514 0.950 . S
C526 C525 1.398 . S
C526 C527 1.391 . S
C527 H515 0.950 . S
C527 C523 1.393 . S
C527 C526 1.391 . S
H528 C536 0.950 . S
H529 C541 0.950 . S
H530 C538 0.950 . S
H531 C540 0.950 . S
H532 C542 0.950 . S
H533 C544 0.950 . S
H534 C546 0.950 . S
H535 C547 0.950 . S
C536 H528 0.950 . S
C536 C537 1.386 . S
C536 C538 1.391 . S
C537 C536 1.386 . S
C537 C541 1.393 . S
C538 H530 0.950 . S
C538 C536 1.391 . S
C538 C539 1.400 . S
C539 C538 1.400 . S
C539 C540 1.398 . S
C539 C545 1.491 . S
C540 H531 0.950 . S
C540 C539 1.398 . S
C540 C541 1.391 . S
C541 H529 0.950 . S
C541 C537 1.393 . S
C541 C540 1.391 . S
C542 H532 0.950 . S
C542 C543 1.386 . S
C542 C544 1.391 . S
C543 C542 1.386 . S
C543 C547 1.393 . S
C544 H533 0.950 . S
C544 C542 1.391 . S
C544 C545 1.400 . S
C545 C539 1.491 . S
C545 C544 1.400 . S
C545 C546 1.398 . S
C546 H534 0.950 . S
C546 C545 1.398 . S
C546 C547 1.391 . S
C547 H535 0.950 . S
C547 C543 1.393 . S
C547 C546 1.391 . S
H548 C556 0.950 . S
H549 C561 0.950 . S
H550 C558 0.950 . S
H551 C560 0.950 . S
H552 C562 0.950 . S
H553 C564 0.950 . S
H554 C566 0.950 . S
H555 C567 0.950 . S
C556 H548 0.950 . S
C556 C557 1.386 . S
C556 C558 1.391 . S
C557 C556 1.386 . S
C557 C561 1.393 . S
C558 H550 0.950 . S
C558 C556 1.391 . S
C558 C559 1.400 . S
C559 C558 1.400 . S
C559 C560 1.398 . S
C559 C565 1.491 . S
C560 H551 0.950 . S
C560 C559 1.398 . S
C560 C561 1.391 . S
C561 H549 0.950 . S
C561 C557 1.393 . S
C561 C560 1.391 . S
C562 H552 0.950 . S
C562 C563 1.386 . S
C562 C564 1.391 . S
C563 C562 1.386 . S
C563 C567 1.393 . S
C564 H553 0.950 . S
C564 C562 1.391 . S
C564 C565 1.400 . S
C565 C559 1.491 . S
C565 C564 1.400 . S
C565 C566 1.398 . S
C566 H554 0.950 . S
C566 C565 1.398 . S
C566 C567 1.391 . S
C567 H555 0.950 . S
C567 C563 1.393 . S
C567 C566 1.391 . S
H568 C576 0.950 . S
H569 C581 0.950 . S
H570 C578 0.950 . S
H571 C580 0.950 . S
H572 C582 0.950 . S
H573 C584 0.950 . S
H574 C586 0.950 . S
H575 C587 0.950 . S
C576 H568 0.950 . S
C576 C577 1.386 . S
C576 C578 1.391 . S
C577 C576 1.386 . S
C577 C581 1.393 . S
C578 H570 0.950 . S
C578 C576 1.391 . S
C578 C579 1.400 . S
C579 C578 1.400 . S
C579 C580 1.398 . S
C579 C585 1.491 . S
C580 H571 0.950 . S
C580 C579 1.398 . S
C580 C581 1.391 . S
C581 H569 0.950 . S
C581 C577 1.393 . S
C581 C580 1.391 . S
C582 H572 0.950 . S
C582 C583 1.386 . S
C582 C584 1.391 . S
C583 C582 1.386 . S
C583 C587 1.393 . S
C584 H573 0.950 . S
C584 C582 1.391 . S
C584 C585 1.400 . S
C585 C579 1.491 . S
C585 C584 1.400 . S
C585 C586 1.398 . S
C586 H574 0.950 . S
C586 C585 1.398 . S
C586 C587 1.391 . S
C587 H575 0.950 . S
C587 C583 1.393 . S
C587 C586 1.391 . S
H588 C596 0.950 . S
H589 C601 0.950 . S
H590 C598 0.950 . S
H591 C600 0.950 . S
H592 C602 0.950 . S
H593 C604 0.950 . S
H594 C606 0.950 . S
H595 C607 0.950 . S
C596 H588 0.950 . S
C596 C597 1.386 . S
C596 C598 1.391 . S
C597 C596 1.386 . S
C597 C601 1.393 . S
C598 H590 0.950 . S
C598 C596 1.391 . S
C598 C599 1.400 . S
C599 C598 1.400 . S
C599 C600 1.398 . S
C599 C605 1.491 . S
C600 H591 0.950 . S
C600 C599 1.398 . S
C600 C601 1.391 . S
C601 H589 0.950 . S
C601 C597 1.393 . S
C601 C600 1.391 . S
C602 H592 0.950 . S
C602 C603 1.386 . S
C602 C604 1.391 . S
C603 C602 1.386 . S
C603 C607 1.393 . S
C604 H593 0.950 . S
C604 C602 1.391 . S
C604 C605 1.400 . S
C605 C599 1.491 . S
C605 C604 1.400 . S
C605 C606 1.398 . S
C606 H594 0.950 . S
C606 C605 1.398 . S
C606 C607 1.391 . S
C607 H595 0.950 . S
C607 C603 1.393 . S
C607 C606 1.391 . S
H608 C616 0.950 . S
H609 C621 0.950 . S
H610 C618 0.950 . S
H611 C620 0.950 . S
H612 C622 0.950 . S
H613 C624 0.950 . S
H614 C626 0.950 . S
H615 C627 0.950 . S
C616 H608 0.950 . S
C616 C617 1.386 . S
C616 C618 1.391 . S
C617 C616 1.386 . S
C617 C621 1.393 . S
C618 H610 0.950 . S
C618 C616 1.391 . S
C618 C619 1.400 . S
C619 C618 1.400 . S
C619 C620 1.398 . S
C619 C625 1.491 . S
C620 H611 0.950 . S
C620 C619 1.398 . S
C620 C621 1.391 . S
C621 H609 0.950 . S
C621 C617 1.393 . S
C621 C620 1.391 . S
C622 H612 0.950 . S
C622 C623 1.386 . S
C622 C624 1.391 . S
C623 C622 1.386 . S
C623 C627 1.393 . S
C624 H613 0.950 . S
C624 C622 1.391 . S
C624 C625 1.400 . S
C625 C619 1.491 . S
C625 C624 1.400 . S
C625 C626 1.398 . S
C626 H614 0.950 . S
C626 C625 1.398 . S
C626 C627 1.391 . S
C627 H615 0.950 . S
C627 C623 1.393 . S
C627 C626 1.391 . S
H628 C636 0.950 . S
H629 C641 0.950 . S
H630 C638 0.950 . S
H631 C640 0.950 . S
H632 C642 0.950 . S
H633 C644 0.950 . S
H634 C646 0.950 . S
H635 C647 0.950 . S
C636 H628 0.950 . S
C636 C637 1.386 . S
C636 C638 1.391 . S
C637 C636 1.386 . S
C637 C641 1.393 . S
C638 H630 0.950 . S
C638 C636 1.391 . S
C638 C639 1.400 . S
C639 C638 1.400 . S
C639 C640 1.398 . S
C639 C645 1.491 . S
C640 H631 0.950 . S
C640 C639 1.398 . S
C640 C641 1.391 . S
C641 H629 0.950 . S
C641 C637 1.393 . S
C641 C640 1.391 . S
C642 H632 0.950 . S
C642 C643 1.386 . S
C642 C644 1.391 . S
C643 C642 1.386 . S
C643 C647 1.393 . S
C644 H633 0.950 . S
C644 C642 1.391 . S
C644 C645 1.400 . S
C645 C639 1.491 . S
C645 C644 1.400 . S
C645 C646 1.398 . S
C646 H634 0.950 . S
C646 C645 1.398 . S
C646 C647 1.391 . S
C647 H635 0.950 . S
C647 C643 1.393 . S
C647 C646 1.391 . S
H648 C656 0.950 . S
H649 C661 0.950 . S
H650 C658 0.950 . S
H651 C660 0.950 . S
H652 C662 0.950 . S
H653 C664 0.950 . S
H654 C666 0.950 . S
H655 C667 0.950 . S
C656 H648 0.950 . S
C656 C657 1.386 . S
C656 C658 1.391 . S
C657 C656 1.386 . S
C657 C661 1.393 . S
C658 H650 0.950 . S
C658 C656 1.391 . S
C658 C659 1.400 . S
C659 C658 1.400 . S
C659 C660 1.398 . S
C659 C665 1.491 . S
C660 H651 0.950 . S
C660 C659 1.398 . S
C660 C661 1.391 . S
C661 H649 0.950 . S
C661 C657 1.393 . S
C661 C660 1.391 . S
C662 H652 0.950 . S
C662 C663 1.386 . S
C662 C664 1.391 . S
C663 C662 1.386 . S
C663 C667 1.393 . S
C664 H653 0.950 . S
C664 C662 1.391 . S
C664 C665 1.400 . S
C665 C659 1.491 . S
C665 C664 1.400 . S
C665 C666 1.398 . S
C666 H654 0.950 . S
C666 C665 1.398 . S
C666 C667 1.391 . S
C667 H655 0.950 . S
C667 C663 1.393 . S
C667 C666 1.391 . S
H668 C676 0.950 . S
H669 C681 0.950 . S
H670 C678 0.950 . S
H671 C680 0.950 . S
H672 C682 0.950 . S
H673 C684 0.950 . S
H674 C686 0.950 . S
H675 C687 0.950 . S
C676 H668 0.950 . S
C676 C677 1.386 . S
C676 C678 1.391 . S
C677 C676 1.386 . S
C677 C681 1.393 . S
C678 H670 0.950 . S
C678 C676 1.391 . S
C678 C679 1.400 . S
C679 C678 1.400 . S
C679 C680 1.398 . S
C679 C685 1.491 . S
C680 H671 0.950 . S
C680 C679 1.398 . S
C680 C681 1.391 . S
C681 H669 0.950 . S
C681 C677 1.393 . S
C681 C680 1.391 . S
C682 H672 0.950 . S
C682 C683 1.386 . S
C682 C684 1.391 . S
C683 C682 1.386 . S
C683 C687 1.393 . S
C684 H673 0.950 . S
C684 C682 1.391 . S
C684 C685 1.400 . S
C685 C679 1.491 . S
C685 C684 1.400 . S
C685 C686 1.398 . S
C686 H674 0.950 . S
C686 C685 1.398 . S
C686 C687 1.391 . S
C687 H675 0.950 . S
C687 C683 1.393 . S
C687 C686 1.391 . S
H688 C696 0.950 . S
H689 C701 0.950 . S
H690 C698 0.950 . S
H691 C700 0.950 . S
H692 C702 0.950 . S
H693 C704 0.950 . S
H694 C706 0.950 . S
H695 C707 0.950 . S
C696 H688 0.950 . S
C696 C697 1.386 . S
C696 C698 1.391 . S
C697 C696 1.386 . S
C697 C701 1.393 . S
C698 H690 0.950 . S
C698 C696 1.391 . S
C698 C699 1.400 . S
C699 C698 1.400 . S
C699 C700 1.398 . S
C699 C705 1.491 . S
C700 H691 0.950 . S
C700 C699 1.398 . S
C700 C701 1.391 . S
C701 H689 0.950 . S
C701 C697 1.393 . S
C701 C700 1.391 . S
C702 H692 0.950 . S
C702 C703 1.386 . S
C702 C704 1.391 . S
C703 C702 1.386 . S
C703 C707 1.393 . S
C704 H693 0.950 . S
C704 C702 1.391 . S
C704 C705 1.400 . S
C705 C699 1.491 . S
C705 C704 1.400 . S
C705 C706 1.398 . S
C706 H694 0.950 . S
C706 C705 1.398 . S
C706 C707 1.391 . S
C707 H695 0.950 . S
C707 C703 1.393 . S
C707 C706 1.391 . S
H708 C716 0.950 . S
H709 C721 0.950 . S
H710 C718 0.950 . S
H711 C720 0.950 . S
H712 C722 0.950 . S
H713 C724 0.950 . S
H714 C726 0.950 . S
H715 C727 0.950 . S
C716 H708 0.950 . S
C716 C717 1.386 . S
C716 C718 1.391 . S
C717 C716 1.386 . S
C717 C721 1.393 . S
C718 H710 0.950 . S
C718 C716 1.391 . S
C718 C719 1.400 . S
C719 C718 1.400 . S
C719 C720 1.398 . S
C719 C725 1.491 . S
C720 H711 0.950 . S
C720 C719 1.398 . S
C720 C721 1.391 . S
C721 H709 0.950 . S
C721 C717 1.393 . S
C721 C720 1.391 . S
C722 H712 0.950 . S
C722 C723 1.386 . S
C722 C724 1.391 . S
C723 C722 1.386 . S
C723 C727 1.393 . S
C724 H713 0.950 . S
C724 C722 1.391 . S
C724 C725 1.400 . S
C725 C719 1.491 . S
C725 C724 1.400 . S
C725 C726 1.398 . S
C726 H714 0.950 . S
C726 C725 1.398 . S
C726 C727 1.391 . S
C727 H715 0.950 . S
C727 C723 1.393 . S
C727 C726 1.391 . S
H728 C736 0.950 . S
H729 C741 0.950 . S
H730 C738 0.950 . S
H731 C740 0.950 . S
H732 C742 0.950 . S
H733 C744 0.950 . S
H734 C746 0.950 . S
H735 C747 0.950 . S
C736 H728 0.950 . S
C736 C737 1.386 . S
C736 C738 1.391 . S
C737 C736 1.386 . S
C737 C741 1.393 . S
C738 H730 0.950 . S
C738 C736 1.391 . S
C738 C739 1.400 . S
C739 C738 1.400 . S
C739 C740 1.398 . S
C739 C745 1.491 . S
C740 H731 0.950 . S
C740 C739 1.398 . S
C740 C741 1.391 . S
C741 H729 0.950 . S
C741 C737 1.393 . S
C741 C740 1.391 . S
C742 H732 0.950 . S
C742 C743 1.386 . S
C742 C744 1.391 . S
C743 C742 1.386 . S
C743 C747 1.393 . S
C744 H733 0.950 . S
C744 C742 1.391 . S
C744 C745 1.400 . S
C745 C739 1.491 . S
C745 C744 1.400 . S
C745 C746 1.398 . S
C746 H734 0.950 . S
C746 C745 1.398 . S
C746 C747 1.391 . S
C747 H735 0.950 . S
C747 C743 1.393 . S
C747 C746 1.391 . S
H748 C756 0.950 . S
H749 C761 0.950 . S
H750 C758 0.950 . S
H751 C760 0.950 . S
H752 C762 0.950 . S
H753 C764 0.950 . S
H754 C766 0.950 . S
H755 C767 0.950 . S
C756 H748 0.950 . S
C756 C757 1.386 . S
C756 C758 1.391 . S
C757 C756 1.386 . S
C757 C761 1.393 . S
C758 H750 0.950 . S
C758 C756 1.391 . S
C758 C759 1.400 . S
C759 C758 1.400 . S
C759 C760 1.398 . S
C759 C765 1.491 . S
C760 H751 0.950 . S
C760 C759 1.398 . S
C760 C761 1.391 . S
C761 H749 0.950 . S
C761 C757 1.393 . S
C761 C760 1.391 . S
C762 H752 0.950 . S
C762 C763 1.386 . S
C762 C764 1.391 . S
C763 C762 1.386 . S
C763 C767 1.393 . S
C764 H753 0.950 . S
C764 C762 1.391 . S
C764 C765 1.400 . S
C765 C759 1.491 . S
C765 C764 1.400 . S
C765 C766 1.398 . S
C766 H754 0.950 . S
C766 C765 1.398 . S
C766 C767 1.391 . S
C767 H755 0.950 . S
C767 C763 1.393 . S
C767 C766 1.391 . S
H768 C776 0.950 . S
H769 C781 0.950 . S
H770 C778 0.950 . S
H771 C780 0.950 . S
H772 C782 0.950 . S
H773 C784 0.950 . S
H774 C786 0.950 . S
H775 C787 0.950 . S
C776 H768 0.950 . S
C776 C777 1.386 . S
C776 C778 1.391 . S
C777 C776 1.386 . S
C777 C781 1.393 . S
C778 H770 0.950 . S
C778 C776 1.391 . S
C778 C779 1.400 . S
C779 C778 1.400 . S
C779 C780 1.398 . S
C779 C785 1.491 . S
C780 H771 0.950 . S
C780 C779 1.398 . S
C780 C781 1.391 . S
C781 H769 0.950 . S
C781 C777 1.393 . S
C781 C780 1.391 . S
C782 H772 0.950 . S
C782 C783 1.386 . S
C782 C784 1.391 . S
C783 C782 1.386 . S
C783 C787 1.393 . S
C784 H773 0.950 . S
C784 C782 1.391 . S
C784 C785 1.400 . S
C785 C779 1.491 . S
C785 C784 1.400 . S
C785 C786 1.398 . S
C786 H774 0.950 . S
C786 C785 1.398 . S
C786 C787 1.391 . S
C787 H775 0.950 . S
C787 C783 1.393 . S
C787 C786 1.391 . S
H788 C796 0.950 . S
H789 C801 0.950 . S
H790 C798 0.950 . S
H791 C800 0.950 . S
H792 C802 0.950 . S
H793 C804 0.950 . S
H794 C806 0.950 . S
H795 C807 0.950 . S
C796 H788 0.950 . S
C796 C797 1.386 . S
C796 C798 1.391 . S
C797 C796 1.386 . S
C797 C801 1.393 . S
C798 H790 0.950 . S
C798 C796 1.391 . S
C798 C799 1.400 . S
C799 C798 1.400 . S
C799 C800 1.398 . S
C799 C805 1.491 . S
C800 H791 0.950 . S
C800 C799 1.398 . S
C800 C801 1.391 . S
C801 H789 0.950 . S
C801 C797 1.393 . S
C801 C800 1.391 . S
C802 H792 0.950 . S
C802 C803 1.386 . S
C802 C804 1.391 . S
C803 C802 1.386 . S
C803 C807 1.393 . S
C804 H793 0.950 . S
C804 C802 1.391 . S
C804 C805 1.400 . S
C805 C799 1.491 . S
C805 C804 1.400 . S
C805 C806 1.398 . S
C806 H794 0.950 . S
C806 C805 1.398 . S
C806 C807 1.391 . S
C807 H795 0.950 . S
C807 C803 1.393 . S
C807 C806 1.391 . S
H808 C816 0.950 . S
H809 C821 0.950 . S
H810 C818 0.950 . S
H811 C820 0.950 . S
H812 C822 0.950 . S
H813 C824 0.950 . S
H814 C826 0.950 . S
H815 C827 0.950 . S
C816 H808 0.950 . S
C816 C817 1.386 . S
C816 C818 1.391 . S
C817 C816 1.386 . S
C817 C821 1.393 . S
C818 H810 0.950 . S
C818 C816 1.391 . S
C818 C819 1.400 . S
C819 C818 1.400 . S
C819 C820 1.398 . S
C819 C825 1.491 . S
C820 H811 0.950 . S
C820 C819 1.398 . S
C820 C821 1.391 . S
C821 H809 0.950 . S
C821 C817 1.393 . S
C821 C820 1.391 . S
C822 H812 0.950 . S
C822 C823 1.386 . S
C822 C824 1.391 . S
C823 C822 1.386 . S
C823 C827 1.393 . S
C824 H813 0.950 . S
C824 C822 1.391 . S
C824 C825 1.400 . S
C825 C819 1.491 . S
C825 C824 1.400 . S
C825 C826 1.398 . S
C826 H814 0.950 . S
C826 C825 1.398 . S
C826 C827 1.391 . S
C827 H815 0.950 . S
C827 C823 1.393 . S
C827 C826 1.391 . S
H828 C836 0.950 . S
H829 C841 0.950 . S
H830 C838 0.950 . S
H831 C840 0.950 . S
H832 C842 0.950 . S
H833 C844 0.950 . S
H834 C846 0.950 . S
H835 C847 0.950 . S
C836 H828 0.950 . S
C836 C837 1.386 . S
C836 C838 1.391 . S
C837 C836 1.386 . S
C837 C841 1.393 . S
C838 H830 0.950 . S
C838 C836 1.391 . S
C838 C839 1.400 . S
C839 C838 1.400 . S
C839 C840 1.398 . S
C839 C845 1.491 . S
C840 H831 0.950 . S
C840 C839 1.398 . S
C840 C841 1.391 . S
C841 H829 0.950 . S
C841 C837 1.393 . S
C841 C840 1.391 . S
C842 H832 0.950 . S
C842 C843 1.386 . S
C842 C844 1.391 . S
C843 C842 1.386 . S
C843 C847 1.393 . S
C844 H833 0.950 . S
C844 C842 1.391 . S
C844 C845 1.400 . S
C845 C839 1.491 . S
C845 C844 1.400 . S
C845 C846 1.398 . S
C846 H834 0.950 . S
C846 C845 1.398 . S
C846 C847 1.391 . S
C847 H835 0.950 . S
C847 C843 1.393 . S
C847 C846 1.391 . S
H848 C856 0.950 . S
H849 C861 0.950 . S
H850 C858 0.950 . S
H851 C860 0.950 . S
H852 C862 0.950 . S
H853 C864 0.950 . S
H854 C866 0.950 . S
H855 C867 0.950 . S
C856 H848 0.950 . S
C856 C857 1.386 . S
C856 C858 1.391 . S
C857 C856 1.386 . S
C857 C861 1.393 . S
C858 H850 0.950 . S
C858 C856 1.391 . S
C858 C859 1.400 . S
C859 C858 1.400 . S
C859 C860 1.398 . S
C859 C865 1.491 . S
C860 H851 0.950 . S
C860 C859 1.398 . S
C860 C861 1.391 . S
C861 H849 0.950 . S
C861 C857 1.393 . S
C861 C860 1.391 . S
C862 H852 0.950 . S
C862 C863 1.386 . S
C862 C864 1.391 . S
C863 C862 1.386 . S
C863 C867 1.393 . S
C864 H853 0.950 . S
C864 C862 1.391 . S
C864 C865 1.400 . S
C865 C859 1.491 . S
C865 C864 1.400 . S
C865 C866 1.398 . S
C866 H854 0.950 . S
C866 C865 1.398 . S
C866 C867 1.391 . S
C867 H855 0.950 . S
C867 C863 1.393 . S
C867 C866 1.391 . S
H868 C876 0.950 . S
H869 C881 0.950 . S
H870 C878 0.950 . S
H871 C880 0.950 . S
H872 C882 0.950 . S
H873 C884 0.950 . S
H874 C886 0.950 . S
H875 C887 0.950 . S
C876 H868 0.950 . S
C876 C877 1.386 . S
C876 C878 1.391 . S
C877 C876 1.386 . S
C877 C881 1.393 . S
C878 H870 0.950 . S
C878 C876 1.391 . S
C878 C879 1.400 . S
C879 C878 1.400 . S
C879 C880 1.398 . S
C879 C885 1.491 . S
C880 H871 0.950 . S
C880 C879 1.398 . S
C880 C881 1.391 . S
C881 H869 0.950 . S
C881 C877 1.393 . S
C881 C880 1.391 . S
C882 H872 0.950 . S
C882 C883 1.386 . S
C882 C884 1.391 . S
C883 C882 1.386 . S
C883 C887 1.393 . S
C884 H873 0.950 . S
C884 C882 1.391 . S
C884 C885 1.400 . S
C885 C879 1.491 . S
C885 C884 1.400 . S
C885 C886 1.398 . S
C886 H874 0.950 . S
C886 C885 1.398 . S
C886 C887 1.391 . S
C887 H875 0.950 . S
C887 C883 1.393 . S
C887 C886 1.391 . S
H888 C896 0.950 . S
H889 C901 0.950 . S
H890 C898 0.950 . S
H891 C900 0.950 . S
H892 C902 0.950 . S
H893 C904 0.950 . S
H894 C906 0.950 . S
H895 C907 0.950 . S
C896 H888 0.950 . S
C896 C897 1.386 . S
C896 C898 1.391 . S
C897 C896 1.386 . S
C897 C901 1.393 . S
C898 H890 0.950 . S
C898 C896 1.391 . S
C898 C899 1.400 . S
C899 C898 1.400 . S
C899 C900 1.398 . S
C899 C905 1.491 . S
C900 H891 0.950 . S
C900 C899 1.398 . S
C900 C901 1.391 . S
C901 H889 0.950 . S
C901 C897 1.393 . S
C901 C900 1.391 . S
C902 H892 0.950 . S
C902 C903 1.386 . S
C902 C904 1.391 . S
C903 C902 1.386 . S
C903 C907 1.393 . S
C904 H893 0.950 . S
C904 C902 1.391 . S
C904 C905 1.400 . S
C905 C899 1.491 . S
C905 C904 1.400 . S
C905 C906 1.398 . S
C906 H894 0.950 . S
C906 C905 1.398 . S
C906 C907 1.391 . S
C907 H895 0.950 . S
C907 C903 1.393 . S
C907 C906 1.391 . S
H908 C916 0.950 . S
H909 C921 0.950 . S
H910 C918 0.950 . S
H911 C920 0.950 . S
H912 C922 0.950 . S
H913 C924 0.950 . S
H914 C926 0.950 . S
H915 C927 0.950 . S
C916 H908 0.950 . S
C916 C917 1.386 . S
C916 C918 1.391 . S
C917 C916 1.386 . S
C917 C921 1.393 . S
C918 H910 0.950 . S
C918 C916 1.391 . S
C918 C919 1.400 . S
C919 C918 1.400 . S
C919 C920 1.398 . S
C919 C925 1.491 . S
C920 H911 0.950 . S
C920 C919 1.398 . S
C920 C921 1.391 . S
C921 H909 0.950 . S
C921 C917 1.393 . S
C921 C920 1.391 . S
C922 H912 0.950 . S
C922 C923 1.386 . S
C922 C924 1.391 . S
C923 C922 1.386 . S
C923 C927 1.393 . S
C924 H913 0.950 . S
C924 C922 1.391 . S
C924 C925 1.400 . S
C925 C919 1.491 . S
C925 C924 1.400 . S
C925 C926 1.398 . S
C926 H914 0.950 . S
C926 C925 1.398 . S
C926 C927 1.391 . S
C927 H915 0.950 . S
C927 C923 1.393 . S
C927 C926 1.391 . S
H928 C936 0.950 . S
H929 C941 0.950 . S
H930 C938 0.950 . S
H931 C940 0.950 . S
H932 C942 0.950 . S
H933 C944 0.950 . S
H934 C946 0.950 . S
H935 C947 0.950 . S
C936 H928 0.950 . S
C936 C937 1.386 . S
C936 C938 1.391 . S
C937 C936 1.386 . S
C937 C941 1.393 1_545 S
C938 H930 0.950 . S
C938 C936 1.391 . S
C938 C939 1.413 . S
C939 C938 1.413 . S
C939 C940 1.389 1_545 S
C939 C945 1.487 1_544 S
C940 H931 0.950 . S
C940 C939 1.389 1_565 S
C940 C941 1.391 . S
C941 H929 0.950 . S
C941 C937 1.393 1_565 S
C941 C940 1.391 . S
C942 H932 0.950 . S
C942 C943 1.386 . S
C942 C944 1.391 . S
C943 C942 1.386 . S
C943 C947 1.393 1_565 S
C944 H933 0.950 . S
C944 C942 1.391 . S
C944 C945 1.413 . S
C945 C939 1.487 1_566 S
C945 C944 1.413 . S
C945 C946 1.389 1_565 S
C946 H934 0.950 . S
C946 C945 1.389 1_545 S
C946 C947 1.391 . S
C947 H935 0.950 . S
C947 C943 1.393 1_545 S
C947 C946 1.391 . S
H948 C956 0.950 . S
H949 C961 0.950 . S
H950 C958 0.950 . S
H951 C960 0.950 . S
H952 C962 0.950 . S
H953 C964 0.950 . S
H954 C966 0.950 . S
H955 C967 0.950 . S
C956 H948 0.950 . S
C956 C957 1.386 1_655 S
C956 C958 1.391 . S
C957 C956 1.386 1_455 S
C957 C961 1.393 . S
C958 H950 0.950 . S
C958 C956 1.391 . S
C958 C959 1.400 1_655 S
C959 C958 1.400 1_455 S
C959 C960 1.398 . S
C959 C965 1.491 1_456 S
C960 H951 0.950 . S
C960 C959 1.398 . S
C960 C961 1.391 . S
C961 H949 0.950 . S
C961 C957 1.393 . S
C961 C960 1.391 . S
C962 H952 0.950 . S
C962 C963 1.386 1_455 S
C962 C964 1.391 . S
C963 C962 1.386 1_655 S
C963 C967 1.393 . S
C964 H953 0.950 . S
C964 C962 1.391 . S
C964 C965 1.400 1_455 S
C965 C959 1.491 1_654 S
C965 C964 1.400 1_655 S
C965 C966 1.398 . S
C966 H954 0.950 . S
C966 C965 1.398 . S
C966 C967 1.391 . S
C967 H955 0.950 . S
C967 C963 1.393 . S
C967 C966 1.391 . S
H968 C976 0.950 . S
H969 C981 0.950 . S
H970 C978 0.950 . S
H971 C980 0.950 . S
H972 C982 0.950 . S
H973 C984 0.950 . S
H974 C986 0.950 . S
H975 C987 0.950 . S
C976 H968 0.950 . S
C976 C977 1.386 . S
C976 C978 1.391 . S
C977 C976 1.386 . S
C977 C981 1.393 1_545 S
C978 H970 0.950 . S
C978 C976 1.391 . S
C978 C979 1.400 . S
C979 C978 1.400 . S
C979 C980 1.398 1_545 S
C979 C985 1.491 1_546 S
C980 H971 0.950 . S
C980 C979 1.398 1_565 S
C980 C981 1.391 . S
C981 H969 0.950 . S
C981 C977 1.393 1_565 S
C981 C980 1.391 . S
C982 H972 0.950 . S
C982 C983 1.386 . S
C982 C984 1.391 . S
C983 C982 1.386 . S
C983 C987 1.393 1_565 S
C984 H973 0.950 . S
C984 C982 1.391 . S
C984 C985 1.400 . S
C985 C979 1.491 1_564 S
C985 C984 1.400 . S
C985 C986 1.398 1_565 S
C986 H974 0.950 . S
C986 C985 1.398 1_545 S
C986 C987 1.391 . S
C987 H975 0.950 . S
C987 C983 1.393 1_545 S
C987 C986 1.391 . S
H988 C996 0.950 . S
H989 C1001 0.947 1_455 S
H990 C998 0.950 . S
H991 C1000 0.955 . S
H992 C1002 0.950 . S
H993 C1004 0.950 . S
H994 C1006 0.955 . S
H995 C1007 0.947 1_655 S
C996 H988 0.950 . S
C996 C997 1.386 . S
C996 C998 1.391 . S
C997 C996 1.386 . S
C997 C1001 1.393 . S
C998 H990 0.950 . S
C998 C996 1.391 . S
C998 C999 1.400 . S
C999 C998 1.400 . S
C999 C1000 1.396 1_655 S
C999 C1005 1.491 1_656 S
C1000 H991 0.955 . S
C1000 C999 1.396 1_455 S
C1000 C1001 1.389 1_455 S
C1001 H989 0.947 1_655 S
C1001 C997 1.393 . S
C1001 C1000 1.389 1_655 S
C1002 H992 0.950 . S
C1002 C1003 1.386 . S
C1002 C1004 1.391 . S
C1003 C1002 1.386 . S
C1003 C1007 1.393 . S
C1004 H993 0.950 . S
C1004 C1002 1.391 . S
C1004 C1005 1.400 . S
C1005 C999 1.491 1_454 S
C1005 C1004 1.400 . S
C1005 C1006 1.396 1_455 S
C1006 H994 0.955 . S
C1006 C1005 1.396 1_655 S
C1006 C1007 1.389 1_655 S
C1007 H995 0.947 1_455 S
C1007 C1003 1.393 . S
C1007 C1006 1.389 1_455 S
C377 N12 1.705 . S
C383 N173 1.708 . S
C397 N35 1.695 . S
C403 N104 1.719 . S
C417 N127 1.718 . S
C423 N58 1.696 . S
C437 N81 1.695 . S
C443 N150 1.719 . S
C457 N196 1.714 . S
C463 N357 1.700 . S
C477 N288 1.713 . S
C483 N219 1.700 . S
C497 N311 1.718 . S
C503 N242 1.695 . S
C517 N334 1.694 . S
C523 N265 1.719 . S
C537 N2 1.781 . S
C543 C269 1.776 . S
C557 N25 1.771 . S
C563 C200 1.781 . S
C577 C223 1.758 . S
C583 N48 1.773 . S
C597 N71 1.763 . S
C603 C246 1.777 . S
C617 N94 1.762 . S
C623 C315 1.773 . S
C637 C338 1.759 . S
C643 N117 1.780 . S
C657 N140 1.779 . S
C663 C361 1.777 . S
C677 C292 1.778 . S
C683 N163 1.763 . S
C697 N186 1.773 . S
C703 C85 1.780 . S
C717 C16 1.776 . S
C723 N209 1.762 . S
C737 N232 1.772 . S
C743 C39 1.781 . S
C757 C62 1.760 . S
C763 N255 1.783 . S
C777 N278 1.782 . S
C783 C131 1.774 . S
C797 C154 1.781 . S
C803 N301 1.770 . S
C817 C177 1.772 . S
C823 N324 1.762 . S
C837 C108 1.765 . S
C843 N347 1.765 . S
C857 C99 1.948 . S
C863 C7 1.956 . S
C877 C122 1.966 . S
C883 C30 1.948 . S
C897 C53 1.948 . S
C903 C145 1.956 . S
C917 C168 1.955 . S
C923 C76 1.965 . S
C937 C283 1.962 . S
C943 C191 1.959 . S
C957 C306 1.965 . S
C963 C214 1.947 . S
C977 C237 1.966 . S
C983 C329 1.948 . S
C997 C352 1.949 . S
C1003 C260 1.955 . S
