# Generated by pormake.
# Topology smc, (6)-cn, num edge types: 1
# Building blocks:
#     Node 0, Type 0, BuildingBlock: NUHQIS_clean_sbu_0, # of connection points: 6
#     Node 1, Type 0, BuildingBlock: NUHQIS_clean_sbu_0, # of connection points: 6
#     Node 2, Type 0, BuildingBlock: NUHQIS_clean_sbu_0, # of connection points: 6
#     Node 3, Type 0, BuildingBlock: NUHQIS_clean_sbu_0, # of connection points: 6
#     Node 4, Type 0, BuildingBlock: NUHQIS_clean_sbu_0, # of connection points: 6
#     Node 5, Type 0, BuildingBlock: NUHQIS_clean_sbu_0, # of connection points: 6
#     Node 6, Type 0, BuildingBlock: NUHQIS_clean_sbu_0, # of connection points: 6
#     Node 7, Type 0, BuildingBlock: NUHQIS_clean_sbu_0, # of connection points: 6
#     Node 8, Type 0, BuildingBlock: NUHQIS_clean_sbu_0, # of connection points: 6
#     Edge 9, Type (0, 0), BuildingBlock: UVAHIK_clean_linker_0, # of connection points: 2
#     Edge 10, Type (0, 0), BuildingBlock: UVAHIK_clean_linker_0, # of connection points: 2
#     Edge 11, Type (0, 0), BuildingBlock: UVAHIK_clean_linker_0, # of connection points: 2
#     Edge 12, Type (0, 0), BuildingBlock: UVAHIK_clean_linker_0, # of connection points: 2
#     Edge 13, Type (0, 0), BuildingBlock: UVAHIK_clean_linker_0, # of connection points: 2
#     Edge 14, Type (0, 0), BuildingBlock: UVAHIK_clean_linker_0, # of connection points: 2
#     Edge 15, Type (0, 0), BuildingBlock: UVAHIK_clean_linker_0, # of connection points: 2
#     Edge 16, Type (0, 0), BuildingBlock: UVAHIK_clean_linker_0, # of connection points: 2
#     Edge 17, Type (0, 0), BuildingBlock: UVAHIK_clean_linker_0, # of connection points: 2
#     Edge 18, Type (0, 0), BuildingBlock: UVAHIK_clean_linker_0, # of connection points: 2
#     Edge 19, Type (0, 0), BuildingBlock: UVAHIK_clean_linker_0, # of connection points: 2
#     Edge 20, Type (0, 0), BuildingBlock: UVAHIK_clean_linker_0, # of connection points: 2
#     Edge 21, Type (0, 0), BuildingBlock: UVAHIK_clean_linker_0, # of connection points: 2
#     Edge 22, Type (0, 0), BuildingBlock: UVAHIK_clean_linker_0, # of connection points: 2
#     Edge 23, Type (0, 0), BuildingBlock: UVAHIK_clean_linker_0, # of connection points: 2
#     Edge 24, Type (0, 0), BuildingBlock: UVAHIK_clean_linker_0, # of connection points: 2
#     Edge 25, Type (0, 0), BuildingBlock: UVAHIK_clean_linker_0, # of connection points: 2
#     Edge 26, Type (0, 0), BuildingBlock: UVAHIK_clean_linker_0, # of connection points: 2
#     Edge 27, Type (0, 0), BuildingBlock: UVAHIK_clean_linker_0, # of connection points: 2
#     Edge 28, Type (0, 0), BuildingBlock: UVAHIK_clean_linker_0, # of connection points: 2
#     Edge 29, Type (0, 0), BuildingBlock: UVAHIK_clean_linker_0, # of connection points: 2
#     Edge 30, Type (0, 0), BuildingBlock: UVAHIK_clean_linker_0, # of connection points: 2
#     Edge 31, Type (0, 0), BuildingBlock: UVAHIK_clean_linker_0, # of connection points: 2
#     Edge 32, Type (0, 0), BuildingBlock: UVAHIK_clean_linker_0, # of connection points: 2
#     Edge 33, Type (0, 0), BuildingBlock: UVAHIK_clean_linker_0, # of connection points: 2
#     Edge 34, Type (0, 0), BuildingBlock: UVAHIK_clean_linker_0, # of connection points: 2
#     Edge 35, Type (0, 0), BuildingBlock: UVAHIK_clean_linker_0, # of connection points: 2
# Relax obj value: 0.268
# Max RMSD: 0.348
# Mean RMSD: 0.306
data_MOF--net-smc--node1-NUHQIS_clean_sbu_0--edge1-UVAHIK_clean_linker_0
_symmetry_space_group_name_H-M    P1
_symmetry_Int_Tables_number       1
_symmetry_cell_setting            triclinic
loop_
_symmetry_equiv_pos_as_xyz
'x, y, z'
_cell_length_a     51.870143
_cell_length_b     41.05291
_cell_length_c     52.339194
_cell_angle_alpha  91.662697
_cell_angle_beta   90.556979
_cell_angle_gamma 119.55988
loop_
_atom_site_label
_atom_site_type_symbol
_atom_site_fract_x
_atom_site_fract_y
_atom_site_fract_z
_atom_type_partial_charge
Tb0 Tb 0.04818 0.46598 0.02763 0.0
Eu1 Eu 0.07294 0.41257 1.00708 0.0
C2 C 0.08416 0.4435 0.0648 0.0
C3 C 0.11182 0.50203 1.00627 0.0
C4 C 1.00108 0.50682 0.04796 0.0
C5 C 0.97294 0.53404 0.066 0.0
C6 C 0.99963 0.53396 0.06367 0.0
C7 C 0.97548 0.47913 0.03495 0.0
C8 C 0.94872 0.47927 0.03718 0.0
C9 C 0.94729 0.50695 0.05259 0.0
C10 C 1.02958 0.50825 0.04519 0.0
O11 O 1.02141 0.4391 0.99222 0.0
O12 O 0.05407 0.42527 0.9721 0.0
O13 O 1.02339 0.37464 1.00881 0.0
O14 O 1.01632 0.41017 0.03947 0.0
C15 C 1.03032 0.429 0.97137 0.0
O16 O 0.09626 0.39821 0.97847 0.0
O17 O 0.08101 0.36565 1.01238 0.0
O18 O 0.07522 0.41328 0.05014 0.0
O19 O 0.08178 0.47181 0.05634 0.0
O20 O 0.08638 0.50142 1.00536 0.0
O21 O 0.11273 0.4715 1.01147 0.0
C22 C 1.00667 0.37878 0.02583 0.0
O23 O 1.0337 0.48518 0.05891 0.0
O24 O 1.03838 0.50905 0.02188 0.0
C25 C 0.13065 0.38816 1.00049 0.0
C26 C 0.19021 0.44279 1.00981 0.0
C27 C 0.18058 0.42513 0.9854 0.0
C28 C 0.15102 0.39781 0.98083 0.0
C29 C 0.14119 0.40191 0.02559 0.0
C30 C 0.17077 0.42898 0.0302 0.0
C31 C 0.0995 0.37569 0.99361 0.0
H32 H 0.97261 0.55604 0.07769 0.0
H33 H 1.01927 0.55546 0.07383 0.0
H34 H 0.97632 0.45778 0.02288 0.0
H35 H 0.92923 0.45795 0.02678 0.0
H36 H 0.19497 0.43497 0.96922 0.0
H37 H 0.14341 0.38772 0.96134 0.0
H38 H 0.12608 0.39492 0.04126 0.0
H39 H 0.17778 0.44121 0.04936 0.0
Tb40 Tb 0.55791 0.60262 0.99283 0.0
Eu41 Eu 0.61762 0.63507 0.0245 0.0
C42 C 0.61916 0.62755 0.96284 0.0
C43 C 0.5802 0.54379 1.00808 0.0
C44 C 0.48717 0.59479 0.9765 0.0
C45 C 0.4796 0.64886 0.97703 0.0
C46 C 0.49615 0.63181 0.96981 0.0
C47 C 0.46063 0.57457 0.98935 0.0
C48 C 0.44413 0.59153 0.99655 0.0
C49 C 0.45382 0.62913 0.99105 0.0
C50 C 0.50702 0.57889 0.97351 0.0
O51 O 0.55388 0.62013 0.03293 0.0
O52 O 0.58115 0.59782 0.04929 0.0
O53 O 0.60477 0.68319 0.02553 0.0
O54 O 0.57087 0.66222 0.99241 0.0
C55 C 0.56231 0.60918 0.05321 0.0
O56 O 0.64035 0.64062 0.06107 0.0
O57 O 0.66511 0.67337 0.0295 0.0
O58 O 0.6338 0.63831 0.98475 0.0
O59 O 0.58987 0.61229 0.96168 0.0
O60 O 0.55882 0.54993 0.99979 0.0
O61 O 0.60599 0.57285 0.01618 0.0
C62 C 0.58699 0.68869 1.0097 0.0
O63 O 0.53127 0.59864 0.96112 0.0
O64 O 0.51207 0.56596 0.99433 0.0
C65 C 0.6873 0.6476 0.05459 0.0
C66 C 0.72784 0.62107 0.05668 0.0
C67 C 0.73296 0.65299 0.07149 0.0
C68 C 0.71277 0.66624 0.0704 0.0
C69 C 0.68191 0.61543 0.04021 0.0
C70 C 0.70192 0.6022 0.0413 0.0
C71 C 0.66656 0.66183 0.0521 0.0
H72 H 0.48735 0.67769 0.97227 0.0
H73 H 0.51643 0.64802 0.95969 0.0
H74 H 0.45318 0.546 0.99463 0.0
H75 H 0.42377 0.57519 1.00659 0.0
H76 H 0.75288 0.66819 0.08339 0.0
H77 H 0.71721 0.6912 0.08155 0.0
H78 H 0.66237 0.60078 0.02785 0.0
H79 H 0.69712 0.5772 0.03001 0.0
Tb80 Tb 0.54298 0.09044 0.03394 0.0
Eu81 Eu 0.47576 0.04557 0.01684 0.0
C82 C 0.49158 0.06543 0.0735 0.0
C83 C 0.51661 1.00432 0.02179 0.0
C84 C 0.62732 0.1478 0.04183 0.0
C85 C 0.67522 0.20264 0.0524 0.0
C86 C 0.64474 0.18109 0.05635 0.0
C87 C 0.64078 0.13737 0.02248 0.0
C88 C 0.67123 0.15871 0.01866 0.0
C89 C 0.68904 0.1911 0.03402 0.0
C90 C 0.59668 0.12163 0.04954 0.0
O91 O 0.54141 0.10517 0.99347 0.0
O92 O 0.50016 0.05062 0.98112 0.0
O93 O 0.48852 0.10917 1.01186 0.0
O94 O 0.53422 0.13772 0.03255 0.0
C95 C 0.52299 0.08232 0.9752 0.0
O96 O 0.43768 1.01933 0.98955 0.0
O97 O 0.43117 1.00964 0.03 0.0
O98 O 0.4781 0.07214 0.05514 0.0
O99 O 0.51517 0.06268 0.06765 0.0
O100 O 0.53868 0.03791 0.01764 0.0
O101 O 0.49047 1.00142 0.02673 0.0
C102 C 0.51252 0.14045 0.02118 0.0
O103 O 0.57901 0.13481 0.05485 0.0
O104 O 0.58278 0.08954 0.03704 0.0
C105 C 0.39935 0.95899 1.00191 0.0
C106 C 0.35746 0.88105 0.99667 0.0
C107 C 0.35289 0.90777 0.98403 0.0
C108 C 0.3735 0.94619 0.98672 0.0
C109 C 0.40467 0.93242 1.01373 0.0
C110 C 0.38399 0.894 1.0112 0.0
C111 C 0.41912 0.99987 1.00709 0.0
H112 H 0.68807 0.22781 0.06425 0.0
H113 H 0.63502 0.18968 0.07149 0.0
H114 H 0.62812 0.11174 1.01101 0.0
H115 H 0.68098 0.14858 1.00453 0.0
H116 H 0.33318 0.89909 0.97219 0.0
H117 H 0.36888 0.96603 0.97736 0.0
H118 H 0.42443 0.94142 0.0256 0.0
H119 H 0.38837 0.87462 0.02142 0.0
Tb120 Tb 0.68052 0.80987 0.3601 0.0
Eu121 Eu 0.73361 0.78139 0.34673 0.0
C122 C 0.72216 0.8029 0.40326 0.0
C123 C 0.74685 0.86606 0.34834 0.0
C124 C 0.61701 0.8376 0.36342 0.0
C125 C 0.57006 0.83139 0.37908 0.0
C126 C 0.59429 0.82473 0.38143 0.0
C127 C 0.61421 0.85711 0.34273 0.0
C128 C 0.58995 0.86378 0.34035 0.0
C129 C 0.56741 0.85153 0.35866 0.0
C130 C 0.64528 0.836 0.36872 0.0
O131 O 0.67763 0.79672 0.3183 0.0
O132 O 0.70286 0.76322 0.31203 0.0
O133 O 0.68844 0.72877 0.35671 0.0
O134 O 0.65423 0.75042 0.35368 0.0
C135 C 0.68463 0.77491 0.30403 0.0
O136 O 0.76824 0.78292 0.3216 0.0
O137 O 0.76482 0.76198 0.35931 0.0
O138 O 0.74213 0.80881 0.38609 0.0
O139 O 0.69517 0.79656 0.39672 0.0
O140 O 0.72498 0.85768 0.36393 0.0
O141 O 0.74887 0.84019 0.33463 0.0
C142 C 0.66066 0.72347 0.35609 0.0
O143 O 0.64445 0.80787 0.38052 0.0
O144 O 0.66659 0.84924 0.35232 0.0
C145 C 0.81435 0.78794 0.33954 0.0
C146 C 0.87804 0.81158 0.33867 0.0
C147 C 0.86274 0.81629 0.3177 0.0
C148 C 0.8319 0.80475 0.31811 0.0
C149 C 0.82951 0.78345 0.36062 0.0
C150 C 0.8604 0.79505 0.36025 0.0
C151 C 0.78029 0.77127 0.33847 0.0
H152 H 0.5539 0.82176 0.39398 0.0
H153 H 0.59574 0.81047 0.39801 0.0
H154 H 0.63124 0.86818 0.32857 0.0
H155 H 0.58904 0.87883 0.32404 0.0
H156 H 0.87432 0.82804 0.30034 0.0
H157 H 0.8216 0.80827 0.30111 0.0
H158 H 0.81733 0.77028 0.37748 0.0
H159 H 0.87037 0.79091 0.37719 0.0
Tb160 Tb 0.24421 0.87685 0.32565 0.0
Eu161 Eu 0.27185 0.96376 0.33805 0.0
C162 C 0.24871 0.90922 0.38168 0.0
C163 C 0.1993 0.91084 0.32829 0.0
C164 C 0.2376 0.79244 0.29733 0.0
C165 C 0.27571 0.77486 0.29306 0.0
C166 C 0.26075 0.7884 0.308 0.0
C167 C 0.23035 0.78363 0.27114 0.0
C168 C 0.24549 0.77019 0.25609 0.0
C169 C 0.26801 0.76495 0.26699 0.0
C170 C 0.22316 0.8093 0.31276 0.0
O171 O 0.26764 0.90237 0.28999 0.0
O172 O 0.28667 0.96551 0.29783 0.0
O173 O 0.3099 0.94939 0.34557 0.0
O174 O 0.29035 0.89191 0.32492 0.0
C175 C 0.28382 0.93749 0.28316 0.0
O176 O 0.28204 1.02097 0.33153 0.0
O177 O 0.29682 1.0081 0.36687 0.0
O178 O 0.24329 0.93285 0.37021 0.0
O179 O 0.25488 0.88709 0.36745 0.0
O180 O 0.20385 0.882 0.32943 0.0
O181 O 0.22247 0.94524 0.3281 0.0
C182 C 0.31286 0.92074 0.33648 0.0
O183 O 0.23484 0.82301 0.33549 0.0
O184 O 0.21673 0.8318 0.30058 0.0
C185 C 0.27897 0.05036 0.36935 0.0
C186 C 0.25016 0.08462 0.39395 0.0
C187 C 0.28061 0.10548 0.389 0.0
C188 C 0.29492 0.08842 0.37667 0.0
C189 C 0.24895 1.02909 0.3753 0.0
C190 C 0.23461 0.04611 0.38745 0.0
C191 C 0.293 1.03277 0.35469 0.0
H192 H 0.2923 0.77033 0.30247 0.0
H193 H 0.26725 0.79537 0.32801 0.0
H194 H 0.21293 0.78707 0.26229 0.0
H195 H 0.23897 0.76285 0.23611 0.0
H196 H 0.293 0.13532 0.39355 0.0
H197 H 0.31813 0.1051 0.37223 0.0
H198 H 0.2364 0.99951 0.36992 0.0
H199 H 0.2112 1.02941 0.39119 0.0
Tb200 Tb 0.19409 0.43747 0.38175 0.0
Eu201 Eu 0.12273 0.3877 0.36031 0.0
C202 C 0.13808 0.40303 0.421 0.0
C203 C 0.16086 0.35066 0.37733 0.0
C204 C 0.2805 0.48704 0.38841 0.0
C205 C 0.3285 0.49276 0.40077 0.0
C206 C 0.29791 0.47826 0.40458 0.0
C207 C 0.29476 0.51051 0.36798 0.0
C208 C 0.32538 0.52499 0.36412 0.0
C209 C 0.34305 0.51685 0.38064 0.0
C210 C 0.24903 0.47568 0.39526 0.0
O211 O 0.19279 0.44504 0.33977 0.0
O212 O 0.15248 0.38831 0.32948 0.0
O213 O 0.14163 0.44853 0.35167 0.0
O214 O 0.17101 0.46877 0.38715 0.0
C215 C 0.17525 0.41929 0.32235 0.0
O216 O 0.09127 0.34603 0.33277 0.0
O217 O 0.07693 0.37636 0.3582 0.0
O218 O 0.11858 0.39409 0.40218 0.0
O219 O 0.16719 0.41749 0.41731 0.0
O220 O 0.18411 0.38133 0.36995 0.0
O221 O 0.13487 0.34856 0.37954 0.0
C222 C 0.16025 0.47642 0.36691 0.0
O223 O 0.23132 0.44141 0.40195 0.0
O224 O 0.23466 0.48835 0.38202 0.0
C225 C 0.04165 0.31435 0.34442 0.0
C226 C 0.99204 0.24274 0.34863 0.0
C227 C 0.99754 0.26134 0.32552 0.0
C228 C 1.02213 0.29688 0.32347 0.0
C229 C 1.03595 0.29639 0.36778 0.0
C230 C 1.01113 0.26084 0.36992 0.0
C231 C 0.06902 0.34961 0.34066 0.0
H232 H 0.3409 0.48599 0.41429 0.0
H233 H 0.28801 0.46098 0.42082 0.0
H234 H 0.2824 0.5184 0.3552 0.0
H235 H 0.3352 0.5428 0.34813 0.0
H236 H 0.98299 0.24818 0.30892 0.0
H237 H 1.02635 0.31034 0.30528 0.0
H238 H 0.05106 0.30939 0.38407 0.0
H239 H 1.00746 0.24695 0.38789 0.0
Tb240 Tb 0.37488 0.12515 0.68639 0.0
Eu241 Eu 0.39608 0.06384 0.68244 0.0
C242 C 0.40289 0.10712 0.73406 0.0
C243 C 0.44015 0.1517 0.67449 0.0
C244 C 0.33143 0.17601 0.69546 0.0
C245 C 0.30846 0.21032 0.71337 0.0
C246 C 0.33369 0.20736 0.70886 0.0
C247 C 0.30349 0.14746 0.6865 0.0
C248 C 0.27813 0.15053 0.69086 0.0
C249 C 0.28037 0.18195 0.70449 0.0
C250 C 0.35858 0.17377 0.69181 0.0
O251 O 0.3546 0.09262 0.64982 0.0
O252 O 0.3874 0.07159 0.6418 0.0
O253 O 0.34572 1.03183 0.6786 0.0
O254 O 0.33904 0.07493 0.70184 0.0
C255 C 0.36595 0.0774 0.63401 0.0
O256 O 0.4272 0.04566 0.66999 0.0
O257 O 0.39081 1.01022 0.69386 0.0
O258 O 0.39071 0.07341 0.72373 0.0
O259 O 0.4045 0.13446 0.72027 0.0
O260 O 0.41639 0.15239 0.66677 0.0
O261 O 0.43756 0.12213 0.68603 0.0
C262 C 0.32855 0.04107 0.69164 0.0
O263 O 0.36651 0.16034 0.71061 0.0
O264 O 0.36186 0.16102 0.66973 0.0
C265 C 0.43828 1.01926 0.70454 0.0
C266 C 0.48739 0.046 0.73863 0.0
C267 C 0.48912 1.03477 0.71331 0.0
C268 C 0.46474 1.02154 0.6964 0.0
C269 C 0.43558 1.0266 0.73053 0.0
C270 C 0.45993 0.03984 0.74743 0.0
C271 C 0.41667 1.01774 0.68538 0.0
H272 H 0.311 0.23512 0.72357 0.0
H273 H 0.35507 0.22963 0.71593 0.0
H274 H 0.3013 0.12284 0.67629 0.0
H275 H 0.25675 0.12813 0.68394 0.0
H276 H 0.51002 0.03944 0.70583 0.0
H277 H 0.46737 1.01624 0.67646 0.0
H278 H 0.41538 1.02491 0.73742 0.0
H279 H 0.45785 0.04772 0.7669 0.0
Tb280 Tb 0.87858 0.26163 0.66869 0.0
Eu281 Eu 0.93937 0.2938 0.69926 0.0
C282 C 0.93877 0.28878 0.63724 0.0
C283 C 0.90137 0.20269 0.68201 0.0
C284 C 0.80337 0.24481 0.66071 0.0
C285 C 0.75136 0.22412 0.66646 0.0
C286 C 0.77357 0.22054 0.65399 0.0
C287 C 0.81089 0.27416 0.6789 0.0
C288 C 0.78871 0.27762 0.6915 0.0
C289 C 0.75872 0.25184 0.686 0.0
C290 C 0.82608 0.23594 0.65218 0.0
O291 O 0.87612 0.27826 0.70942 0.0
O292 O 0.90346 0.25496 0.72386 0.0
O293 O 0.92601 0.34165 0.70138 0.0
O294 O 0.893 0.32144 0.66758 0.0
C295 C 0.88512 0.2667 0.72904 0.0
O296 O 0.96346 0.30254 0.7357 0.0
O297 O 0.98753 0.32748 0.70178 0.0
O298 O 0.95374 0.30161 0.65888 0.0
O299 O 0.9093 0.27019 0.6366 0.0
O300 O 0.88019 0.20917 0.67381 0.0
O301 O 0.9272 0.23143 0.69043 0.0
C302 C 0.90858 0.34747 0.68525 0.0
O303 O 0.84898 0.26267 0.64136 0.0
O304 O 0.83396 0.21995 0.66933 0.0
C305 C 1.00944 0.30486 0.73014 0.0
C306 C 0.05086 0.27942 0.73377 0.0
C307 C 0.05732 0.31445 0.74478 0.0
C308 C 1.03678 0.32707 0.74292 0.0
C309 C 1.00247 0.26942 0.71987 0.0
C310 C 1.02296 0.25679 0.72167 0.0
C311 C 0.9894 0.31989 0.72545 0.0
H312 H 0.72844 0.20355 0.66203 0.0
H313 H 0.76743 0.19751 0.64021 0.0
H314 H 0.83386 0.29306 0.68442 0.0
H315 H 0.79499 0.29937 0.70633 0.0
H316 H 0.07843 0.33234 0.75454 0.0
H317 H 0.04254 0.35456 0.75089 0.0
H318 H 0.98156 0.25202 0.70972 0.0
H319 H 1.01735 0.22993 0.71269 0.0
Tb320 Tb 0.86076 0.75007 0.69946 0.0
Eu321 Eu 0.79168 0.70024 0.68603 0.0
C322 C 0.81289 0.71288 0.74339 0.0
C323 C 0.83229 0.65888 0.69285 0.0
C324 C 0.94685 0.80876 0.69963 0.0
C325 C 0.99353 0.86506 0.71148 0.0
C326 C 0.96289 0.84217 0.71446 0.0
C327 C 0.96197 0.79955 0.68116 0.0
C328 C 0.99249 0.82213 0.67834 0.0
C329 C 1.00894 0.85478 0.69387 0.0
C330 C 0.91635 0.78005 0.70633 0.0
O331 O 0.85236 0.76109 0.65913 0.0
O332 O 0.81354 0.70394 0.64936 0.0
O333 O 0.80387 0.76531 0.68734 0.0
O334 O 0.854 0.79776 0.6972 0.0
C335 C 0.83315 0.73667 0.64191 0.0
O336 O 0.75402 0.66872 0.65933 0.0
O337 O 0.746 0.67565 0.69893 0.0
O338 O 0.7968 0.68717 0.72611 0.0
O339 O 0.83749 0.74303 0.73663 0.0
O340 O 0.85358 0.69223 0.70093 0.0
O341 O 0.80643 0.65497 0.68508 0.0
C342 C 0.82932 0.7981 0.692 0.0
O343 O 0.89983 0.78911 0.72019 0.0
O344 O 0.9008 0.75391 0.68899 0.0
C345 C 0.71316 0.61738 0.67776 0.0
C346 C 0.67253 0.53901 0.67797 0.0
C347 C 0.70262 0.55355 0.68514 0.0
C348 C 0.72267 0.59223 0.68502 0.0
C349 C 0.68324 0.60318 0.67078 0.0
C350 C 0.66316 0.56452 0.67089 0.0
C351 C 0.73432 0.65821 0.67706 0.0
H352 H 1.00525 0.89029 0.7235 0.0
H353 H 0.95205 0.84985 0.72911 0.0
H354 H 0.95055 0.77364 0.66975 0.0
H355 H 1.00334 0.81266 0.66489 0.0
H356 H 0.71088 0.53499 0.69041 0.0
H357 H 0.74568 0.60249 0.69044 0.0
H358 H 0.67535 0.62201 0.66517 0.0
H359 H 0.64018 0.5547 0.66563 0.0
C360 C 0.42769 0.66527 0.98182 0.0
C361 C 0.43594 0.64643 0.99923 0.0
C362 C 0.40371 0.67085 0.98693 0.0
C363 C 0.33969 0.63703 0.03219 0.0
H364 H 0.29703 0.58574 0.96938 0.0
C365 C 0.21962 0.50905 0.02735 0.0
C366 C 0.21843 0.47879 1.01286 0.0
C367 C 0.24462 0.54471 0.027 0.0
C368 C 0.30853 0.60035 0.98705 0.0
H369 H 0.43003 0.62584 0.03755 0.0
H370 H 0.38766 0.63334 0.04593 0.0
H371 H 0.34851 0.63282 0.96783 0.0
H372 H 0.2433 0.46185 0.98807 0.0
H373 H 0.28676 0.52387 0.98743 0.0
H374 H 0.29987 0.60069 0.05146 0.0
C375 C 0.39906 0.644 0.02831 0.0
C376 C 0.33815 0.628 0.98621 0.0
C377 C 0.4232 0.63899 0.02336 0.0
C378 C 0.24324 0.48464 0.99897 0.0
C379 C 0.26801 0.52023 0.99846 0.0
C380 C 0.31002 0.60886 0.03304 0.0
C381 C 0.38724 0.65664 1.00913 0.0
C382 C 0.3549 0.64396 1.00904 0.0
C383 C 0.26865 0.55077 1.01193 0.0
C384 C 0.29515 0.58824 1.01063 0.0
H385 H 0.43771 0.67225 0.96327 0.0
H386 H 0.39609 0.68236 0.97221 0.0
H387 H 0.35153 0.65009 0.05005 0.0
H388 H 0.20076 0.50567 0.03806 0.0
H389 H 0.24475 0.56773 0.03777 0.0
C390 C 0.55185 0.97677 0.01914 0.0
C391 C 0.52257 0.97075 0.02132 0.0
C392 C 0.5585 0.94697 0.01884 0.0
C393 C 0.52407 0.83995 1.00992 0.0
H394 H 0.60074 0.85878 0.03548 0.0
C395 C 0.56291 0.72681 0.99408 0.0
C396 C 0.58204 0.72307 1.01187 0.0
C397 C 0.55581 0.75613 0.9961 0.0
C398 C 0.57907 0.85243 0.02829 0.0
H399 H 0.47733 0.92611 0.02481 0.0
H400 H 0.48865 0.87445 0.02409 0.0
H401 H 0.58802 0.90871 0.03748 0.0
H402 H 0.60875 0.74999 0.04614 0.0
H403 H 0.59704 0.80131 0.04945 0.0
H404 H 0.51505 0.78362 1.00085 0.0
C405 C 0.50684 0.90272 0.02252 0.0
C406 C 0.57171 0.88175 0.02919 0.0
C407 C 0.50019 0.93278 0.02307 0.0
C408 C 0.59416 0.75121 0.03173 0.0
C409 C 0.58727 0.78106 0.03362 0.0
C410 C 0.53154 0.81075 1.00878 0.0
C411 C 0.53629 0.9089 0.0205 0.0
C412 C 0.54399 0.87655 0.01997 0.0
C413 C 0.56759 0.78421 0.01595 0.0
C414 C 0.55933 0.81602 0.01784 0.0
H415 H 0.57012 1.00504 0.01769 0.0
H416 H 0.58141 0.95408 0.01685 0.0
H417 H 0.50256 0.83372 1.00237 0.0
H418 H 0.55305 0.7067 0.97823 0.0
H419 H 0.54114 0.75684 0.98157 0.0
C420 C 0.30384 0.82949 0.99497 0.0
C421 C 0.33417 0.84025 0.99553 0.0
C422 C 0.28193 0.79162 0.99425 0.0
C423 C 0.26769 0.69613 1.00851 0.0
H424 H 0.19717 0.66581 0.96623 0.0
C425 C 0.16774 0.5418 1.00234 0.0
C426 C 0.1394 0.53849 1.00248 0.0
C427 C 0.19329 0.57699 0.99964 0.0
C428 C 0.21656 0.67373 0.97835 0.0
H429 H 0.36482 0.81859 0.99571 0.0
H430 H 0.32652 0.75251 0.99476 0.0
H431 H 0.23795 0.72982 0.96538 0.0
H432 H 0.11604 0.57004 0.99991 0.0
H433 H 0.15986 0.63035 0.99564 0.0
H434 H 0.24587 0.63988 0.02175 0.0
C435 C 0.31979 0.77364 0.995 0.0
C436 C 0.24004 0.7106 0.97785 0.0
C437 C 0.3418 0.81167 0.99557 0.0
C438 C 0.13733 0.57114 0.99971 0.0
C439 C 0.16264 0.60599 0.99709 0.0
C440 C 0.24404 0.65907 1.00908 0.0
C441 C 0.28951 0.76307 0.99419 0.0
C442 C 0.2657 0.72266 0.99333 0.0
C443 C 0.19105 0.60962 0.99697 0.0
C444 C 0.21781 0.6476 0.99444 0.0
H445 H 0.29686 0.85037 0.9956 0.0
H446 H 0.25891 0.78472 0.9942 0.0
H447 H 0.28707 0.70435 0.02072 0.0
H448 H 0.17017 0.51726 1.00429 0.0
H449 H 0.21475 0.5786 0.99935 0.0
C450 C 0.49707 0.19006 1.00707 0.0
C451 C 0.51726 0.18091 0.01899 0.0
C452 C 0.50319 0.22818 1.00546 0.0
C453 C 0.567 0.33186 1.01458 0.0
H454 H 0.50401 0.35607 1.00993 0.0
C455 C 0.59425 0.49223 0.01881 0.0
C456 C 0.5739 0.50253 1.00874 0.0
C457 C 0.58741 0.45387 0.01978 0.0
C458 C 0.52232 0.35055 1.01091 0.0
H459 H 0.56029 0.20773 0.03859 0.0
H460 H 0.57041 0.27171 0.03608 0.0
H461 H 0.49213 0.29083 1.01145 0.0
H462 H 0.52973 0.4776 0.99161 0.0
H463 H 0.51826 0.41261 0.99281 0.0
H464 H 0.59722 0.39133 1.01388 0.0
C465 C 0.54983 0.24993 0.02744 0.0
C466 C 0.51529 0.31216 1.01183 0.0
C467 C 0.54372 0.21221 0.0291 0.0
C468 C 0.54642 0.47204 0.99963 0.0
C469 C 0.53961 0.43384 1.00054 0.0
C470 C 0.57404 0.37018 1.0136 0.0
C471 C 0.52995 0.2595 1.0155 0.0
C472 C 0.53737 0.30139 1.01383 0.0
C473 C 0.55976 0.4232 1.01072 0.0
C474 C 0.55199 0.38106 1.01179 0.0
H475 H 0.47645 0.16773 0.99882 0.0
H476 H 0.48687 0.23298 0.99586 0.0
H477 H 0.58531 0.32632 1.01554 0.0
H478 H 0.61563 0.51394 0.02626 0.0
H479 H 0.60401 0.44847 0.02815 0.0
C480 C 0.7355 0.21375 1.0085 0.0
C481 C 0.72201 0.21087 0.03216 0.0
C482 C 0.76628 0.22927 1.00718 0.0
C483 C 0.83263 0.25146 0.04795 0.0
H484 H 0.87591 0.31193 0.99136 0.0
C485 C 0.95951 0.34897 0.04958 0.0
C486 C 0.97491 0.35063 0.02728 0.0
C487 C 0.92863 0.32757 0.04977 0.0
C488 C 0.86405 0.29464 1.0071 0.0
H489 H 0.73078 0.22289 0.07299 0.0
H490 H 0.78424 0.25142 0.07055 0.0
H491 H 0.82227 0.28556 0.99244 0.0
H492 H 0.97011 0.33049 0.98783 0.0
H493 H 0.9159 0.29315 0.9881 0.0
H494 H 0.87468 0.26172 0.06296 0.0
C495 C 0.77101 0.24077 0.05302 0.0
C496 C 0.83327 0.27949 1.00775 0.0
C497 C 0.74025 0.22498 0.05436 0.0
C498 C 0.95887 0.3293 1.00541 0.0
C499 C 0.92785 0.30831 1.00547 0.0
C500 C 0.86341 0.26692 0.04742 0.0
C501 C 0.78443 0.24261 0.02947 0.0
C502 C 0.81715 0.25796 0.02831 0.0
C503 C 0.9124 0.30781 0.02753 0.0
C504 C 0.87949 0.2889 0.02709 0.0
H505 H 0.72228 0.20367 0.99094 0.0
H506 H 0.77571 0.22996 0.98871 0.0
H507 H 0.82097 0.23431 0.06379 0.0
H508 H 0.97129 0.36531 0.06668 0.0
H509 H 0.91736 0.32799 0.06699 0.0
C510 C 0.90401 0.50653 0.03088 0.0
C511 C 0.91981 0.50937 0.05355 0.0
C512 C 0.88056 0.51404 0.03127 0.0
C513 C 0.82903 0.52637 0.0734 0.0
H514 H 0.83341 0.59535 0.02227 0.0
C515 C 0.76291 0.60551 0.0795 0.0
C516 C 0.7496 0.6077 0.0566 0.0
C517 C 0.78266 0.5916 0.07923 0.0
C518 C 0.83164 0.57573 0.03648 0.0
H519 H 0.92232 0.51979 0.09459 0.0
H520 H 0.88154 0.53338 0.09525 0.0
H521 H 0.86793 0.57136 0.02128 0.0
H522 H 0.74708 0.59805 1.01544 0.0
H523 H 0.78102 0.57321 1.01503 0.0
H524 H 0.79281 0.53106 0.0887 0.0
C525 C 0.88722 0.52528 0.0772 0.0
C526 C 0.85135 0.5619 0.03586 0.0
C527 C 0.91071 0.51785 0.0768 0.0
C528 C 0.7567 0.59623 0.03344 0.0
C529 C 0.77638 0.58237 0.03317 0.0
C530 C 0.80923 0.54017 0.07399 0.0
C531 C 0.87246 0.52444 0.05435 0.0
C532 C 0.85031 0.53718 0.05434 0.0
C533 C 0.78951 0.57981 0.05605 0.0
C534 C 0.81041 0.56507 0.05556 0.0
H535 H 0.91065 0.50025 1.01266 0.0
H536 H 0.86927 0.5127 1.01342 0.0
H537 H 0.82762 0.50714 0.08777 0.0
H538 H 0.75769 0.61395 0.09764 0.0
H539 H 0.79273 0.59034 0.09713 0.0
C540 C 0.93168 0.85095 0.32153 0.0
C541 C 0.91158 0.82316 0.33786 0.0
C542 C 0.96227 0.86118 0.32056 0.0
C543 C 1.01852 0.83034 0.34169 0.0
H544 H 0.07671 0.92758 0.31855 0.0
C545 C 0.14282 0.86578 0.32678 0.0
C546 C 0.16686 0.90303 0.32841 0.0
C547 C 0.11272 0.8572 0.3278 0.0
C548 C 0.06114 0.90026 0.3253 0.0
H549 H 0.91048 0.78472 0.36602 0.0
H550 H 0.96265 0.80282 0.36488 0.0
H551 H 1.02484 0.91139 0.32104 0.0
H552 H 0.17618 0.96047 0.33254 0.0
H553 H 0.12425 0.94584 0.33454 0.0
H554 H 0.05476 0.81947 0.34662 0.0
C555 C 0.95483 0.8167 0.35228 0.0
C556 C 1.03066 0.89055 0.32645 0.0
C557 C 0.92426 0.80646 0.35324 0.0
C558 C 0.15891 0.93138 0.33099 0.0
C559 C 0.1286 0.92276 0.33208 0.0
C560 C 0.04893 0.84002 0.34056 0.0
C561 C 0.9749 0.84436 0.33586 0.0
C562 C 1.00827 0.85521 0.33466 0.0
C563 C 0.10448 0.88528 0.33067 0.0
C564 C 0.07132 0.87524 0.33223 0.0
H565 H 0.92399 0.86547 0.30939 0.0
H566 H 0.9759 0.88224 0.30731 0.0
H567 H 1.00296 0.80266 0.34788 0.0
H568 H 0.14718 0.84264 0.32468 0.0
H569 H 0.09583 0.828 0.32599 0.0
C570 C 0.19067 0.31835 0.37678 0.0
C571 C 0.16482 0.31874 0.38397 0.0
C572 C 0.19616 0.29031 0.38478 0.0
C573 C 0.16099 0.19495 0.40796 0.0
H574 H 0.24308 0.22423 0.42318 0.0
C575 C 0.20822 0.09756 0.39003 0.0
C576 C 0.23409 0.10382 0.40315 0.0
C577 C 0.19551 0.11984 0.39563 0.0
C578 C 0.21989 0.21537 0.41968 0.0
H579 H 0.12412 0.28963 0.4048 0.0
H580 H 0.13389 0.24029 0.41899 0.0
H581 H 0.22928 0.27201 0.41769 0.0
H582 H 0.26554 0.13593 0.43386 0.0
H583 H 0.24285 0.17441 0.44426 0.0
H584 H 0.15166 0.13817 0.4099 0.0
C585 C 0.14978 0.26174 0.40702 0.0
C586 C 0.21208 0.24288 0.41609 0.0
C587 C 0.14416 0.28988 0.39885 0.0
C588 C 0.24582 0.13097 0.42324 0.0
C589 C 0.23285 0.15299 0.42911 0.0
C590 C 0.16877 0.16731 0.41184 0.0
C591 C 0.1761 0.26207 0.40038 0.0
C592 C 0.18285 0.23296 0.40899 0.0
C593 C 0.20824 0.14869 0.41466 0.0
C594 C 0.19856 0.17721 0.4166 0.0
H595 H 0.20689 0.33996 0.3651 0.0
H596 H 0.21621 0.29073 0.37866 0.0
H597 H 0.13824 0.18643 0.40269 0.0
H598 H 0.19888 0.07704 0.37427 0.0
H599 H 0.17691 0.11599 0.38379 0.0
C600 C 0.94755 0.1933 0.37033 0.0
C601 C 0.9672 0.2039 0.34998 0.0
C602 C 0.92368 0.15675 0.37097 0.0
C603 C 0.89789 0.06065 0.34639 0.0
H604 H 0.81915 0.0454 0.35864 0.0
C605 C 0.79379 0.91602 0.33009 0.0
C606 C 0.77116 0.90532 0.34787 0.0
C607 C 0.8175 0.9527 0.33056 0.0
C608 C 0.84103 0.04911 0.35553 0.0
H609 H 0.97794 0.18453 0.31482 0.0
H610 H 0.93637 0.12077 0.31599 0.0
H611 H 0.86151 0.10883 0.36029 0.0
H612 H 0.75561 0.92488 0.38002 0.0
H613 H 0.79719 0.98851 0.38116 0.0
H614 H 0.87766 1.00108 0.3419 0.0
C615 C 0.93931 0.14065 0.33137 0.0
C616 C 0.86526 0.08544 0.35647 0.0
C617 C 0.96291 0.17719 0.33058 0.0
C618 C 0.77258 0.93222 0.36593 0.0
C619 C 0.79638 0.9688 0.36652 0.0
C620 C 0.87373 1.02432 0.34565 0.0
C621 C 0.91936 0.13012 0.35147 0.0
C622 C 0.89387 0.09155 0.35171 0.0
C623 C 0.81924 0.97944 0.34895 0.0
C624 C 0.84496 1.01811 0.35002 0.0
H625 H 0.95036 0.21344 0.38547 0.0
H626 H 0.90871 0.14924 0.38677 0.0
H627 H 0.91979 0.06456 0.34297 0.0
H628 H 0.7933 0.89604 0.31583 0.0
H629 H 0.83445 0.96012 0.31644 0.0
C630 C 0.30701 0.74675 0.26022 0.0
C631 C 0.27904 0.74213 0.25344 0.0
C632 C 0.31071 0.71532 0.26123 0.0
C633 C 0.26182 0.61125 0.26423 0.0
H634 H 0.26701 0.6385 0.33646 0.0
C635 C 0.17095 0.5187 0.33052 0.0
C636 C 0.17875 0.51272 0.35501 0.0
C637 C 0.19219 0.54615 0.31552 0.0
C638 C 0.26586 0.63006 0.3165 0.0
H639 H 0.23691 0.7041 0.23429 0.0
H640 H 0.24347 0.65033 0.23565 0.0
H641 H 0.29698 0.68557 0.30685 0.0
H642 H 0.21366 0.53465 0.38439 0.0
H643 H 0.25099 0.58155 0.35786 0.0
H644 H 0.22919 0.55603 0.2741 0.0
C645 C 0.26219 0.67726 0.24148 0.0
C646 C 0.28341 0.65707 0.29937 0.0
C647 C 0.25831 0.70846 0.24076 0.0
C648 C 0.2072 0.5377 0.36528 0.0
C649 C 0.22864 0.56463 0.35006 0.0
C650 C 0.24437 0.58413 0.28144 0.0
C651 C 0.28637 0.6796 0.25548 0.0
C652 C 0.27987 0.64867 0.27282 0.0
C653 C 0.22168 0.56787 0.32459 0.0
C654 C 0.24477 0.59398 0.30747 0.0
H655 H 0.32419 0.77311 0.26868 0.0
H656 H 0.33034 0.71819 0.27087 0.0
H657 H 0.25895 0.60379 0.24396 0.0
H658 H 0.14904 0.50047 0.32221 0.0
H659 H 0.18578 0.54919 0.29636 0.0
C660 C 0.39359 0.57019 0.36786 0.0
C661 C 0.37637 0.53399 0.37737 0.0
C662 C 0.42454 0.58639 0.36527 0.0
C663 C 0.49089 0.57863 0.38712 0.0
H664 H 0.5289 0.64374 0.3311 0.0
C665 C 0.62021 0.67609 0.38225 0.0
C666 C 0.63336 0.68618 0.35823 0.0
C667 C 0.58926 0.65284 0.38435 0.0
C668 C 0.51884 0.62532 0.34676 0.0
H669 H 0.37953 0.48667 0.39113 0.0
H670 H 0.43298 0.51477 0.38679 0.0
H671 H 0.47535 0.61388 0.33485 0.0
H672 H 0.62364 0.67851 0.31755 0.0
H673 H 0.57032 0.63677 0.32098 0.0
H674 H 0.53449 0.58998 0.39891 0.0
C675 C 0.42257 0.53101 0.38163 0.0
C676 C 0.48784 0.60847 0.34915 0.0
C677 C 0.39159 0.51474 0.38415 0.0
C678 C 0.61467 0.67027 0.33637 0.0
C679 C 0.58376 0.64708 0.33841 0.0
C680 C 0.52197 0.59566 0.3848 0.0
C681 C 0.43975 0.56721 0.37214 0.0
C682 C 0.47315 0.58485 0.36942 0.0
C683 C 0.57023 0.63917 0.36244 0.0
C684 C 0.53664 0.61942 0.36457 0.0
H685 H 0.3833 0.58661 0.36284 0.0
H686 H 0.43664 0.61449 0.35832 0.0
H687 H 0.48085 0.56106 0.40319 0.0
H688 H 0.63351 0.68909 0.39952 0.0
H689 H 0.58011 0.64796 0.40326 0.0
C690 C 0.36634 0.94366 0.35432 0.0
C691 C 0.3413 0.91847 0.33912 0.0
C692 C 0.39146 0.93844 0.35705 0.0
C693 C 0.41407 0.86348 0.34751 0.0
H694 H 0.49449 0.94591 0.35512 0.0
C695 C 0.51355 0.83595 0.36651 0.0
C696 C 0.54182 0.8602 0.35681 0.0
C697 C 0.49003 0.84408 0.36509 0.0
C698 C 0.47227 0.92232 0.35282 0.0
H699 H 0.32454 0.8684 0.31429 0.0
H700 H 0.36716 0.85994 0.31874 0.0
H701 H 0.4532 0.95858 0.35132 0.0
H702 H 0.56643 0.91309 0.33815 0.0
H703 H 0.52573 0.92663 0.33519 0.0
H704 H 0.43283 0.82718 0.34845 0.0
C705 C 0.36758 0.88333 0.32921 0.0
C706 C 0.44829 0.9297 0.35094 0.0
C707 C 0.34281 0.88851 0.32648 0.0
C708 C 0.54526 0.89307 0.34563 0.0
C709 C 0.52171 0.90124 0.34424 0.0
C710 C 0.43793 0.85612 0.34946 0.0
C711 C 0.39243 0.90775 0.34478 0.0
C712 C 0.41857 0.90043 0.34801 0.0
C713 C 0.49343 0.87691 0.35389 0.0
C714 C 0.46769 0.88528 0.35207 0.0
H715 H 0.36639 0.96704 0.36447 0.0
H716 H 0.40985 0.95809 0.3693 0.0
H717 H 0.39185 0.83975 0.34575 0.0
H718 H 0.50927 0.81013 0.37505 0.0
H719 H 0.46911 0.8245 0.37317 0.0
C720 C 0.70784 0.24282 0.69215 0.0
C721 C 0.73528 0.25031 0.7027 0.0
C722 C 0.68375 0.23332 0.70785 0.0
C723 C 0.63536 0.2174 0.74515 0.0
H724 H 0.62515 0.13346 0.78458 0.0
C725 C 0.51956 0.1044 0.76491 0.0
C726 C 0.51507 0.07034 0.7537 0.0
C727 C 0.54809 0.13278 0.77203 0.0
C728 C 0.62777 0.15721 0.77407 0.0
H729 H 0.75969 0.2566 0.73811 0.0
H730 H 0.71755 0.24013 0.76554 0.0
H731 H 0.67403 0.17752 0.76946 0.0
H732 H 0.53612 0.03735 0.74458 0.0
H733 H 0.58588 0.08687 0.75646 0.0
H734 H 0.58868 0.19519 0.74767 0.0
C735 C 0.71466 0.24142 0.74514 0.0
C736 C 0.65584 0.18269 0.76556 0.0
C737 C 0.73882 0.25111 0.72943 0.0
C738 C 0.53903 0.06355 0.75274 0.0
C739 C 0.56755 0.09191 0.75983 0.0
C740 C 0.6073 0.19192 0.75364 0.0
C741 C 0.68659 0.23094 0.73441 0.0
C742 C 0.65955 0.21173 0.74972 0.0
C743 C 0.57259 0.1276 0.76802 0.0
C744 C 0.60292 0.16029 0.76687 0.0
H745 H 0.7046 0.24236 0.67164 0.0
H746 H 0.66239 0.2251 0.6989 0.0
H747 H 0.63768 0.2399 0.73337 0.0
H748 H 0.50154 0.11056 0.76596 0.0
H749 H 0.55123 0.15975 0.77872 0.0
C750 C 0.91257 0.40798 0.70805 0.0
C751 C 0.90347 0.38176 0.68704 0.0
C752 C 0.90502 0.4373 0.70941 0.0
C753 C 0.85422 0.47039 0.67688 0.0
H754 H 0.89994 0.56042 0.719 0.0
C755 C 0.81782 0.5882 0.68564 0.0
C756 C 0.83888 0.62579 0.69279 0.0
C757 C 0.82508 0.55868 0.68554 0.0
C758 C 0.88673 0.53587 0.70675 0.0
H759 H 0.87901 0.36806 0.65084 0.0
H760 H 0.86696 0.41797 0.6528 0.0
H761 H 0.91395 0.51193 0.7175 0.0
H762 H 0.88486 0.65997 0.70529 0.0
H763 H 0.89733 0.61024 0.7047 0.0
H764 H 0.82742 0.49459 0.66566 0.0
C765 C 0.87938 0.41603 0.66882 0.0
C766 C 0.89476 0.50713 0.70617 0.0
C767 C 0.88678 0.38694 0.66753 0.0
C768 C 0.8675 0.63194 0.69977 0.0
C769 C 0.87476 0.60265 0.69959 0.0
C770 C 0.84624 0.49913 0.67742 0.0
C771 C 0.8879 0.44211 0.68987 0.0
C772 C 0.87891 0.47341 0.69109 0.0
C773 C 0.85388 0.5649 0.69251 0.0
C774 C 0.86226 0.53303 0.69228 0.0
H775 H 0.92507 0.40549 0.72381 0.0
H776 H 0.91224 0.45576 0.72629 0.0
H777 H 0.84045 0.44538 0.66522 0.0
H778 H 0.79549 0.58139 0.6801 0.0
H779 H 0.80766 0.53067 0.68016 0.0
C780 C 0.62877 0.48043 0.65833 0.0
C781 C 0.6511 0.49755 0.67758 0.0
C782 C 0.60873 0.44178 0.65786 0.0
C783 C 0.57706 0.35829 0.69868 0.0
H784 H 0.55006 0.30394 0.63333 0.0
C785 C 0.49231 0.19751 0.69083 0.0
C786 C 0.46911 0.18694 0.67266 0.0
C787 C 0.51727 0.23377 0.6912 0.0
C788 C 0.5572 0.31863 0.65178 0.0
H789 H 0.66933 0.48665 0.71165 0.0
H790 H 0.63479 0.41929 0.71057 0.0
H791 H 0.58746 0.37006 0.63472 0.0
H792 H 0.45466 0.20575 0.64002 0.0
H793 H 0.49775 0.26802 0.64046 0.0
H794 H 0.54645 0.30673 0.71567 0.0
C795 C 0.63261 0.4359 0.6959 0.0
C796 C 0.57867 0.35676 0.65258 0.0
C797 C 0.65272 0.47463 0.69635 0.0
C798 C 0.47211 0.21282 0.65426 0.0
C799 C 0.497 0.24867 0.65445 0.0
C800 C 0.55556 0.32004 0.69787 0.0
C801 C 0.61031 0.41881 0.6766 0.0
C802 C 0.58862 0.37742 0.676 0.0
C803 C 0.51974 0.26007 0.6732 0.0
C804 C 0.54492 0.29978 0.67437 0.0
H805 H 0.6269 0.49683 0.64334 0.0
H806 H 0.59171 0.42998 0.64287 0.0
H807 H 0.58387 0.37313 0.71709 0.0
H808 H 0.49057 0.17844 0.70545 0.0
H809 H 0.53443 0.24138 0.70579 0.0
C810 C 0.81192 0.84728 0.68096 0.0
C811 C 0.83284 0.8381 0.6913 0.0
C812 C 0.81812 0.88554 0.67978 0.0
C813 C 0.87457 0.98728 0.70494 0.0
H814 H 0.83757 1.01803 0.6538 0.0
C815 C 0.91414 0.15 0.69272 0.0
C816 C 0.89449 0.16123 0.68237 0.0
C817 C 0.90644 0.11134 0.69363 0.0
C818 C 0.84821 1.01052 0.66856 0.0
H819 H 0.87721 0.86507 0.70857 0.0
H820 H 0.88758 0.9288 0.70627 0.0
H821 H 0.82393 0.95211 0.65595 0.0
H822 H 0.85057 0.1377 0.66485 0.0
H823 H 0.83745 0.07214 0.6665 0.0
H824 H 0.89878 0.04543 0.71763 0.0
C825 C 0.866 0.90708 0.69933 0.0
C826 C 0.84016 0.9718 0.66979 0.0
C827 C 0.85991 0.86942 0.70045 0.0
C828 C 0.86685 0.13141 0.67291 0.0
C829 C 0.85921 0.09295 0.67375 0.0
C830 C 0.88262 1.02588 0.70369 0.0
C831 C 0.84548 0.91677 0.689 0.0
C832 C 0.8532 0.9588 0.68795 0.0
C833 C 0.87863 0.0814 0.68421 0.0
C834 C 0.86983 0.03901 0.68542 0.0
H835 H 0.79085 0.82499 0.67343 0.0
H836 H 0.80113 0.89046 0.6717 0.0
H837 H 0.88513 0.97991 0.71984 0.0
H838 H 0.93562 0.17119 0.70035 0.0
H839 H 0.92276 0.10512 0.70165 0.0
C840 C 0.05965 0.89186 0.71534 0.0
C841 C 0.04212 0.87601 0.69289 0.0
C842 C 0.09059 0.90856 0.71487 0.0
C843 C 0.1545 0.94427 0.67051 0.0
H844 H 0.19523 0.93426 0.7297 0.0
C845 C 0.28018 0.99052 0.67227 0.0
C846 C 0.29623 1.01515 0.69295 0.0
C847 C 0.24905 0.97078 0.672 0.0
C848 C 0.18415 0.93727 0.71303 0.0
H849 H 0.0441 0.86712 0.65202 0.0
H850 H 0.09757 0.89442 0.65142 0.0
H851 H 0.1415 0.90679 0.72946 0.0
H852 H 0.2924 0.03726 0.72995 0.0
H853 H 0.23832 1.00197 0.72985 0.0
H854 H 0.1974 0.97417 0.65401 0.0
C855 C 0.08753 0.89457 0.66942 0.0
C856 C 0.1533 0.92182 0.71294 0.0
C857 C 0.05663 0.87833 0.66984 0.0
C858 C 0.28063 1.01834 0.7138 0.0
C859 C 0.24966 0.99811 0.71376 0.0
C860 C 0.18532 0.95922 0.67047 0.0
C861 C 0.10501 0.90954 0.69199 0.0
C862 C 0.13798 0.92545 0.6918 0.0
C863 C 0.23348 0.97474 0.69264 0.0
C864 C 0.20052 0.95623 0.69185 0.0
H865 H 0.0495 0.8904 0.73356 0.0
H866 H 0.10315 0.9205 0.73259 0.0
H867 H 0.14377 0.94828 0.65401 0.0
H868 H 0.29161 0.98792 0.65579 0.0
H869 H 0.23714 0.95283 0.65551 0.0
C870 C 0.23265 0.17827 0.68981 0.0
C871 C 0.25379 0.18576 0.70939 0.0
C872 C 0.20916 0.18526 0.69394 0.0
C873 C 0.18941 0.24346 0.73537 0.0
H874 H 0.11051 0.18052 0.70582 0.0
C875 C 0.10339 0.29326 0.72891 0.0
C876 C 0.07363 0.26736 0.73358 0.0
C877 C 0.12459 0.28174 0.72731 0.0
C878 C 0.13235 0.1982 0.71442 0.0
H879 H 0.26587 0.20428 0.74909 0.0
H880 H 0.22484 0.2161 0.75637 0.0
H881 H 0.14809 0.16158 0.70083 0.0
H882 H 0.04301 0.20908 0.74086 0.0
H883 H 0.08006 0.18897 0.73804 0.0
H884 H 0.1737 0.27992 0.74915 0.0
C885 C 0.22678 0.20577 0.73762 0.0
C886 C 0.15398 0.18755 0.71131 0.0
C887 C 0.25027 0.19893 0.73346 0.0
C888 C 0.06566 0.22968 0.73691 0.0
C889 C 0.08688 0.21813 0.73526 0.0
C890 C 0.16784 0.25411 0.73845 0.0
C891 C 0.20626 0.19974 0.71777 0.0
C892 C 0.18282 0.21015 0.72166 0.0
C893 C 0.11657 0.244 0.73031 0.0
C894 C 0.13911 0.23176 0.72787 0.0
H895 H 0.23491 0.16838 0.671 0.0
H896 H 0.19391 0.1806 0.67816 0.0
H897 H 0.21147 0.2618 0.74334 0.0
H898 H 0.11023 0.32233 0.72575 0.0
H899 H 0.14715 0.30229 0.72306 0.0
C900 C 0.16122 0.39646 0.27662 0.0
C901 C 0.17647 0.42678 0.29439 0.0
C902 C 0.15622 0.40223 0.2512 0.0
C903 C 0.14646 0.46822 0.21143 0.0
H904 H 0.15007 0.40719 0.15523 0.0
C905 C 0.11094 0.47839 0.1063 0.0
C906 C 0.09741 0.44523 0.09081 0.0
C907 C 0.12351 0.47933 0.13054 0.0
C908 C 0.14842 0.42418 0.17063 0.0
H909 H 0.20009 0.48721 0.29849 0.0
H910 H 0.19047 0.49743 0.25404 0.0
H911 H 0.16763 0.40346 0.19771 0.0
H912 H 0.08632 0.38688 0.08927 0.0
H913 H 0.10708 0.38814 0.13119 0.0
H914 H 0.12628 0.48801 0.18456 0.0
C915 C 0.18235 0.46908 0.26003 0.0
C916 C 0.15878 0.42218 0.19512 0.0
C917 C 0.18798 0.46327 0.28548 0.0
C918 C 0.09667 0.41309 0.1004 0.0
C919 C 0.10895 0.41393 0.12459 0.0
C920 C 0.13575 0.46993 0.18692 0.0
C921 C 0.16591 0.43853 0.24263 0.0
C922 C 0.1576 0.44374 0.21601 0.0
C923 C 0.12281 0.44708 0.14013 0.0
C924 C 0.13607 0.44744 0.16612 0.0
H925 H 0.15199 0.3679 0.28263 0.0
H926 H 0.14342 0.37795 0.23855 0.0
H927 H 0.14491 0.48502 0.22703 0.0
H928 H 0.11209 0.50378 0.09961 0.0
H929 H 0.13416 0.50559 0.14158 0.0
C930 C 0.68187 0.74517 0.26037 0.0
C931 C 0.67048 0.76135 0.2778 0.0
C932 C 0.66781 0.72995 0.23648 0.0
C933 C 0.60998 0.72491 0.18962 0.0
H934 H 0.61436 0.63886 0.16294 0.0
C935 C 0.57126 0.66186 0.08475 0.0
C936 C 0.56273 0.62393 0.07976 0.0
C937 C 0.58105 0.67853 0.10949 0.0
C938 C 0.61234 0.66248 0.17006 0.0
H939 H 0.63508 0.77429 0.28311 0.0
H940 H 0.61018 0.74709 0.24171 0.0
H941 H 0.63751 0.66739 0.20395 0.0
H942 H 0.55595 0.57339 0.09734 0.0
H943 H 0.57085 0.60128 0.14034 0.0
H944 H 0.58391 0.71902 0.15582 0.0
C945 C 0.63043 0.74674 0.24633 0.0
C946 C 0.62631 0.67952 0.19365 0.0
C947 C 0.64473 0.76236 0.27025 0.0
C948 C 0.56213 0.60258 0.1005 0.0
C949 C 0.57137 0.61895 0.12519 0.0
C950 C 0.59577 0.70763 0.16596 0.0
C951 C 0.64151 0.72979 0.22909 0.0
C952 C 0.62568 0.71127 0.20388 0.0
C953 C 0.58232 0.65763 0.13 0.0
C954 C 0.5967 0.67604 0.15569 0.0
H955 H 0.70176 0.74405 0.2652 0.0
H956 H 0.67777 0.7183 0.22377 0.0
H957 H 0.60901 0.74939 0.19649 0.0
H958 H 0.57259 0.6794 0.06919 0.0
H959 H 0.58927 0.70833 0.11208 0.0
C960 C 0.47258 1.02342 0.11183 0.0
C961 C 0.47609 0.05468 0.09856 0.0
C962 C 0.4529 1.00961 0.13241 0.0
C963 C 0.41205 1.03643 0.17985 0.0
H964 H 0.35682 0.92999 0.18215 0.0
C965 C 0.31329 0.98202 0.24875 0.0
C966 C 0.30235 0.94675 0.25961 0.0
C967 C 0.33408 0.99347 0.22918 0.0
C968 C 0.37223 0.95979 0.1822 0.0
H969 H 0.46196 0.0962 0.0972 0.0
H970 H 0.42896 0.07333 0.13317 0.0
H971 H 0.39507 0.95342 0.14991 0.0
H972 H 0.30505 0.89576 0.25773 0.0
H973 H 0.34166 0.91582 0.22409 0.0
H974 H 0.39004 0.04319 0.21222 0.0
C975 C 0.44114 0.05916 0.12782 0.0
C976 C 0.39433 0.97329 0.16353 0.0
C977 C 0.46023 0.07241 0.1071 0.0
C978 C 0.31248 0.92289 0.24968 0.0
C979 C 0.33369 0.93458 0.23026 0.0
C980 C 0.39028 1.02299 0.19863 0.0
C981 C 0.43661 1.02709 0.14061 0.0
C982 C 0.41439 1.01195 0.16179 0.0
C983 C 0.34538 0.97047 0.21988 0.0
C984 C 0.36951 0.98442 0.20003 0.0
H985 H 0.48389 1.00852 0.10552 0.0
H986 H 0.45025 0.985 0.14177 0.0
H987 H 0.42726 0.0663 0.17958 0.0
H988 H 0.3061 1.00128 0.2557 0.0
H989 H 0.34138 1.02075 0.22149 0.0
C990 C 0.53098 0.13078 0.94256 0.0
C991 C 0.5233 0.09382 0.9483 0.0
C992 C 0.5238 0.13893 0.91832 0.0
C993 C 0.4962 0.09626 0.8517 0.0
H994 H 0.46413 0.16383 0.84975 0.0
C995 C 0.41223 0.08185 0.77396 0.0
C996 C 0.41811 0.11331 0.75973 0.0
C997 C 0.42882 0.08525 0.79609 0.0
C998 C 0.47339 0.14525 0.8499 0.0
H999 H 0.5032 0.03695 0.93254 0.0
H1000 H 0.49091 0.05076 0.891 0.0
H1001 H 0.48773 0.15926 0.88931 0.0
H1002 H 0.4456 0.17363 0.75879 0.0
H1003 H 0.47416 0.17977 0.79846 0.0
H1004 H 0.48038 0.08076 0.8128 0.0
C1005 C 0.50274 0.07387 0.90474 0.0
C1006 C 0.48706 0.14266 0.8726 0.0
C1007 C 0.50979 0.06581 0.92878 0.0
C1008 C 0.44029 0.1488 0.76924 0.0
C1009 C 0.45676 0.15229 0.79188 0.0
C1010 C 0.48221 0.09846 0.82927 0.0
C1011 C 0.5089 0.11036 0.89917 0.0
C1012 C 0.49802 0.11733 0.8741 0.0
C1013 C 0.45165 0.12031 0.8052 0.0
C1014 C 0.47001 0.12232 0.82818 0.0
H1015 H 0.54087 0.15295 0.95725 0.0
H1016 H 0.5293 0.16748 0.91485 0.0
H1017 H 0.50504 0.07725 0.85156 0.0
H1018 H 0.39511 0.05405 0.76765 0.0
H1019 H 0.4239 0.06013 0.80605 0.0
C1020 C 0.98121 0.40414 0.94696 0.0
C1021 C 1.012 0.41763 0.94699 0.0
C1022 C 0.9638 0.38968 0.92423 0.0
C1023 C 0.96812 0.38937 0.85295 0.0
H1024 H 0.89527 0.29406 0.85416 0.0
C1025 C 0.88979 0.26224 0.77627 0.0
C1026 C 0.88756 0.28221 0.75573 0.0
C1027 C 0.90052 0.2797 0.80052 0.0
C1028 C 0.91548 0.32079 0.85345 0.0
H1029 H 0.0485 0.42712 0.92272 0.0
H1030 H 1.01852 0.40299 0.88332 0.0
H1031 H 0.92323 0.32357 0.89409 0.0
H1032 H 0.89404 0.33628 0.74514 0.0
H1033 H 0.91308 0.36699 0.78742 0.0
H1034 H 0.96064 0.38636 0.81229 0.0
C1035 C 1.00768 0.40339 0.90081 0.0
C1036 C 0.93146 0.33789 0.87644 0.0
C1037 C 1.02493 0.41718 0.92352 0.0
C1038 C 0.89498 0.31981 0.76052 0.0
C1039 C 0.90632 0.33757 0.78474 0.0
C1040 C 0.95191 0.37257 0.83003 0.0
C1041 C 0.97677 0.38893 0.90078 0.0
C1042 C 0.95833 0.37216 0.87653 0.0
C1043 C 0.90998 0.31801 0.80494 0.0
C1044 C 0.92556 0.3377 0.82982 0.0
H1045 H 0.97037 0.4036 0.96466 0.0
H1046 H 0.94013 0.379 0.92502 0.0
H1047 H 0.98854 0.41586 0.85217 0.0
H1048 H 0.88479 0.23348 0.77318 0.0
H1049 H 0.90312 0.26367 0.81539 0.0
C1050 C 0.79752 0.73682 0.78275 0.0
C1051 C 0.7998 0.70796 0.76954 0.0
C1052 C 0.77873 0.72903 0.80392 0.0
C1053 C 0.7371 0.65594 0.85238 0.0
H1054 H 0.68772 0.70212 0.85822 0.0
C1055 C 0.66612 0.63767 0.94195 0.0
C1056 C 0.63753 0.63359 0.93929 0.0
C1057 C 0.68515 0.64638 0.9212 0.0
C1058 C 0.70115 0.6887 0.85686 0.0
H1059 H 0.78428 0.64837 0.76899 0.0
H1060 H 0.75281 0.63516 0.80583 0.0
H1061 H 0.72351 0.71949 0.82384 0.0
H1062 H 0.60697 0.63566 0.91181 0.0
H1063 H 0.64037 0.65116 0.87538 0.0
H1064 H 0.71487 0.62506 0.88518 0.0
C1065 C 0.76537 0.66389 0.80008 0.0
C1066 C 0.72208 0.69907 0.83722 0.0
C1067 C 0.78366 0.67154 0.77885 0.0
C1068 C 0.6286 0.63822 0.91475 0.0
C1069 C 0.64798 0.64753 0.89386 0.0
C1070 C 0.7165 0.64591 0.8721 0.0
C1071 C 0.76194 0.69223 0.81277 0.0
C1072 C 0.74041 0.68276 0.83453 0.0
C1073 C 0.6767 0.65183 0.89674 0.0
C1074 C 0.69805 0.66202 0.87479 0.0
H1075 H 0.80892 0.76502 0.77586 0.0
H1076 H 0.77705 0.75183 0.81315 0.0
H1077 H 0.75071 0.64273 0.85132 0.0
H1078 H 0.67411 0.63443 0.96038 0.0
H1079 H 0.70697 0.64976 0.9246 0.0
C1080 C 0.71398 0.77053 0.44534 0.0
C1081 C 0.73103 0.80165 0.43042 0.0
C1082 C 0.72564 0.76565 0.46851 0.0
C1083 C 0.78196 0.81316 0.52093 0.0
H1084 H 0.78168 0.71906 0.52515 0.0
C1085 C 0.83957 0.78436 0.60834 0.0
C1086 C 0.82782 0.74704 0.61572 0.0
C1087 C 0.82966 0.79277 0.58538 0.0
C1088 C 0.78156 0.74531 0.52494 0.0
H1089 H 0.77338 0.85259 0.4288 0.0
H1090 H 0.79294 0.84514 0.46971 0.0
H1091 H 0.75821 0.72988 0.48856 0.0
H1092 H 0.79669 0.68946 0.60383 0.0
H1093 H 0.77896 0.70367 0.5656 0.0
H1094 H 0.80423 0.82826 0.55771 0.0
C1095 C 0.77073 0.82424 0.46341 0.0
C1096 C 0.76809 0.75153 0.50359 0.0
C1097 C 0.75944 0.82857 0.43995 0.0
C1098 C 0.80662 0.71863 0.59903 0.0
C1099 C 0.79645 0.72693 0.57657 0.0
C1100 C 0.79482 0.80659 0.54271 0.0
C1101 C 0.75438 0.79221 0.47773 0.0
C1102 C 0.76801 0.78549 0.5012 0.0
C1103 C 0.80741 0.76416 0.5692 0.0
C1104 C 0.79483 0.77238 0.5453 0.0
H1105 H 0.69232 0.74886 0.43837 0.0
H1106 H 0.71236 0.74065 0.47902 0.0
H1107 H 0.78242 0.83974 0.51977 0.0
H1108 H 0.85564 0.80716 0.62068 0.0
H1109 H 0.83933 0.82186 0.58058 0.0
C1110 C 0.24038 0.93102 0.42435 0.0
C1111 C 0.25482 0.91565 0.40988 0.0
C1112 C 0.25007 0.94561 0.44934 0.0
C1113 C 0.30072 0.95228 0.50377 0.0
H1114 H 0.29665 0.04168 0.5227 0.0
C1115 C 0.36641 0.04733 0.59156 0.0
C1116 C 0.35266 0.06188 0.60781 0.0
C1117 C 0.35325 1.02905 0.5681 0.0
C1118 C 0.29768 1.01651 0.51792 0.0
H1119 H 0.29056 0.90284 0.41089 0.0
H1120 H 0.30779 0.9285 0.45446 0.0
H1121 H 0.27616 1.00953 0.48144 0.0
H1122 H 0.31415 0.06902 0.61126 0.0
H1123 H 0.29121 0.03741 0.56989 0.0
H1124 H 0.32288 0.95992 0.54009 0.0
C1125 C 0.28848 0.92874 0.44667 0.0
C1126 C 0.28579 0.99782 0.49414 0.0
C1127 C 0.27851 0.91372 0.42161 0.0
C1128 C 0.32556 0.05848 0.59931 0.0
C1129 C 0.31237 0.04024 0.57556 0.0
C1130 C 0.31278 0.97113 0.52745 0.0
C1131 C 0.27491 0.9459 0.46073 0.0
C1132 C 0.28714 0.96537 0.48655 0.0
C1133 C 0.32583 1.02466 0.55979 0.0
C1134 C 0.31164 1.0037 0.53488 0.0
H1135 H 0.22211 0.93311 0.41593 0.0
H1136 H 0.23833 0.95741 0.45951 0.0
H1137 H 0.30186 0.92717 0.4991 0.0
H1138 H 0.38737 0.04946 0.59712 0.0
H1139 H 0.36472 1.01831 0.5564 0.0
C1140 C 0.98774 0.3078 0.61678 0.0
C1141 C 0.95736 0.29668 0.61364 0.0
C1142 C 1.00701 0.31909 0.5962 0.0
C1143 C 1.01102 0.31745 0.5247 0.0
H1144 H 0.09176 0.39689 0.53894 0.0
C1145 C 0.10268 0.35415 0.44963 0.0
C1146 C 0.12443 0.39185 0.4467 0.0
C1147 C 0.08326 0.34324 0.47021 0.0
C1148 C 0.06934 0.37485 0.53439 0.0
H1149 H 0.92377 0.28802 0.58522 0.0
H1150 H 0.95757 0.30774 0.54892 0.0
H1151 H 0.05552 0.37712 0.57258 0.0
H1152 H 0.14246 0.44774 0.46359 0.0
H1153 H 0.10895 0.42888 0.49989 0.0
H1154 H 1.02477 0.31564 0.48636 0.0
C1155 C 0.96637 0.30761 0.56773 0.0
C1156 C 0.0484 0.36306 0.55393 0.0
C1157 C 0.94683 0.29618 0.5886 0.0
C1158 C 0.12673 0.41831 0.46562 0.0
C1159 C 0.10716 0.40737 0.48636 0.0
C1160 C 1.03202 0.32916 0.50514 0.0
C1161 C 0.99703 0.31996 0.57128 0.0
C1162 C 1.01886 0.33383 0.54962 0.0
C1163 C 0.08447 0.36969 0.48867 0.0
C1164 C 0.06173 0.35788 0.50962 0.0
H1165 H 0.99702 0.30818 0.63549 0.0
H1166 H 1.02998 0.32709 0.59997 0.0
H1167 H 0.98874 0.29488 0.52035 0.0
H1168 H 0.0998 0.33306 0.43519 0.0
H1169 H 0.06683 0.31391 0.47129 0.0
loop_
_geom_bond_atom_site_label_1
_geom_bond_atom_site_label_2
_geom_bond_distance
_geom_bond_site_symmetry_2
_ccdc_geom_bond_type
Tb0 C10 2.825 . S
Tb0 O11 2.347 1_554 S
Tb0 O14 2.366 . S
Tb0 O19 2.418 . S
Tb0 O20 2.384 1_655 S
Tb0 O23 2.479 . S
Tb0 O24 2.471 1_554 S
Eu1 O12 2.418 1_554 S
Eu1 O13 2.384 1_455 S
Eu1 O16 2.479 1_554 S
Eu1 O17 2.471 . S
Eu1 O18 2.347 . S
Eu1 O21 2.366 1_554 S
Eu1 C31 2.825 . S
C2 O18 1.259 . S
C2 O19 1.265 1_455 S
C3 O20 1.255 . S
C3 O21 1.265 1_554 S
C4 C6 1.380 . S
C4 C7 1.374 1_554 S
C4 C10 1.507 . S
C5 C6 1.384 . S
C5 C9 1.387 . S
C5 H32 0.930 . S
C6 C4 1.380 . S
C6 C5 1.384 . S
C6 H33 0.931 . S
C7 C4 1.374 1_556 S
C7 C8 1.390 . S
C7 H34 0.930 . S
C8 C7 1.390 . S
C8 C9 1.391 1_556 S
C8 H35 0.930 . S
C9 C5 1.387 . S
C9 C8 1.391 1_554 S
C10 Tb0 2.825 . S
C10 C4 1.507 . S
C10 O23 1.238 . S
C10 O24 1.247 1_554 S
O11 Tb0 2.347 1_556 S
O11 C15 1.259 . S
O12 Eu1 2.418 1_556 S
O12 C15 1.265 1_455 S
O13 Eu1 2.384 1_655 S
O13 C22 1.255 . S
O14 Tb0 2.366 . S
O14 C22 1.265 . S
C15 O11 1.259 . S
C15 O12 1.265 1_655 S
O16 Eu1 2.479 1_556 S
O16 C31 1.238 1_556 S
O17 Eu1 2.471 . S
O17 C31 1.247 . S
O18 Eu1 2.347 . S
O18 C2 1.259 . S
O19 Tb0 2.418 . S
O19 C2 1.265 1_655 S
O20 Tb0 2.384 1_455 S
O20 C3 1.255 . S
O21 Eu1 2.366 1_556 S
O21 C3 1.265 1_556 S
C22 O13 1.255 . S
C22 O14 1.265 . S
O23 Tb0 2.479 . S
O23 C10 1.238 . S
O24 Tb0 2.471 1_556 S
O24 C10 1.247 1_556 S
C25 C28 1.380 1_554 S
C25 C29 1.374 . S
C25 C31 1.507 . S
C26 C27 1.387 1_554 S
C26 C30 1.391 . S
C27 C26 1.387 1_556 S
C27 C28 1.384 . S
C27 H36 0.930 . S
C28 C25 1.380 1_556 S
C28 C27 1.384 . S
C28 H37 0.931 . S
C29 C25 1.374 . S
C29 C30 1.390 . S
C29 H38 0.930 . S
C30 C26 1.391 . S
C30 C29 1.390 . S
C30 H39 0.930 . S
C31 Eu1 2.825 . S
C31 O16 1.238 1_554 S
C31 O17 1.247 . S
C31 C25 1.507 . S
H32 C5 0.930 . S
H33 C6 0.931 . S
H34 C7 0.930 . S
H35 C8 0.930 . S
H36 C27 0.930 . S
H37 C28 0.931 . S
H38 C29 0.930 . S
H39 C30 0.930 . S
Tb40 C50 2.825 . S
Tb40 O51 2.347 1_556 S
Tb40 O54 2.366 . S
Tb40 O59 2.418 . S
Tb40 O60 2.384 . S
Tb40 O63 2.479 . S
Tb40 O64 2.471 1_556 S
Eu41 O52 2.418 . S
Eu41 O53 2.384 . S
Eu41 O56 2.479 . S
Eu41 O57 2.471 1_554 S
Eu41 O58 2.347 1_554 S
Eu41 O61 2.366 . S
Eu41 C71 2.825 . S
C42 O58 1.259 . S
C42 O59 1.265 . S
C43 O60 1.255 1_554 S
C43 O61 1.265 . S
C44 C46 1.380 . S
C44 C47 1.374 1_556 S
C44 C50 1.507 . S
C45 C46 1.384 . S
C45 C49 1.387 . S
C45 H72 0.930 . S
C46 C44 1.380 . S
C46 C45 1.384 . S
C46 H73 0.931 . S
C47 C44 1.374 1_554 S
C47 C48 1.390 . S
C47 H74 0.930 . S
C48 C47 1.390 . S
C48 C49 1.391 1_554 S
C48 H75 0.930 . S
C49 C45 1.387 . S
C49 C48 1.391 1_556 S
C50 Tb40 2.825 . S
C50 C44 1.507 . S
C50 O63 1.238 . S
C50 O64 1.247 1_556 S
O51 Tb40 2.347 1_554 S
O51 C55 1.259 . S
O52 Eu41 2.418 . S
O52 C55 1.265 . S
O53 Eu41 2.384 . S
O53 C62 1.255 1_554 S
O54 Tb40 2.366 . S
O54 C62 1.265 . S
C55 O51 1.259 . S
C55 O52 1.265 . S
O56 Eu41 2.479 . S
O56 C71 1.238 . S
O57 Eu41 2.471 1_556 S
O57 C71 1.247 1_556 S
O58 Eu41 2.347 1_556 S
O58 C42 1.259 . S
O59 Tb40 2.418 . S
O59 C42 1.265 . S
O60 Tb40 2.384 . S
O60 C43 1.255 1_556 S
O61 Eu41 2.366 . S
O61 C43 1.265 . S
C62 O53 1.255 1_556 S
C62 O54 1.265 . S
O63 Tb40 2.479 . S
O63 C50 1.238 . S
O64 Tb40 2.471 1_554 S
O64 C50 1.247 1_554 S
C65 C68 1.380 . S
C65 C69 1.374 1_554 S
C65 C71 1.507 . S
C66 C67 1.387 . S
C66 C70 1.391 1_554 S
C67 C66 1.387 . S
C67 C68 1.384 . S
C67 H76 0.930 . S
C68 C65 1.380 . S
C68 C67 1.384 . S
C68 H77 0.931 . S
C69 C65 1.374 1_556 S
C69 C70 1.390 . S
C69 H78 0.930 . S
C70 C66 1.391 1_556 S
C70 C69 1.390 . S
C70 H79 0.930 . S
C71 Eu41 2.825 . S
C71 O56 1.238 . S
C71 O57 1.247 1_554 S
C71 C65 1.507 . S
H72 C45 0.930 . S
H73 C46 0.931 . S
H74 C47 0.930 . S
H75 C48 0.930 . S
H76 C67 0.930 . S
H77 C68 0.931 . S
H78 C69 0.930 . S
H79 C70 0.930 . S
Tb80 C90 2.825 . S
Tb80 O91 2.347 1_554 S
Tb80 O94 2.366 . S
Tb80 O99 2.418 . S
Tb80 O100 2.384 1_545 S
Tb80 O103 2.479 . S
Tb80 O104 2.471 1_554 S
Eu81 O92 2.403 1_554 S
Eu81 O93 2.385 1_565 S
Eu81 O96 2.473 1_554 S
Eu81 O97 2.479 . S
Eu81 O98 2.359 . S
Eu81 O101 2.365 1_554 S
Eu81 C111 2.823 . S
C82 O98 1.259 . S
C82 O99 1.265 1_565 S
C83 O100 1.255 . S
C83 O101 1.265 1_554 S
C84 C86 1.380 . S
C84 C87 1.374 1_554 S
C84 C90 1.507 . S
C85 C86 1.384 . S
C85 C89 1.387 . S
C85 H112 0.930 . S
C86 C84 1.380 . S
C86 C85 1.384 . S
C86 H113 0.931 . S
C87 C84 1.374 1_556 S
C87 C88 1.390 . S
C87 H114 0.930 . S
C88 C87 1.390 . S
C88 C89 1.391 1_556 S
C88 H115 0.930 . S
C89 C85 1.387 . S
C89 C88 1.391 1_554 S
C90 Tb80 2.825 . S
C90 C84 1.507 . S
C90 O103 1.238 . S
C90 O104 1.247 1_554 S
O91 Tb80 2.347 1_556 S
O91 C95 1.259 . S
O92 Eu81 2.403 1_556 S
O92 C95 1.265 1_565 S
O93 Eu81 2.385 1_545 S
O93 C102 1.255 . S
O94 Tb80 2.366 . S
O94 C102 1.265 . S
C95 O91 1.259 . S
C95 O92 1.265 1_545 S
O96 Eu81 2.473 1_556 S
O96 C111 1.197 1_556 S
O97 Eu81 2.479 . S
O97 C111 1.285 . S
O98 Eu81 2.359 . S
O98 C82 1.259 . S
O99 Tb80 2.418 . S
O99 C82 1.265 1_545 S
O100 Tb80 2.384 1_565 S
O100 C83 1.255 . S
O101 Eu81 2.365 1_556 S
O101 C83 1.265 1_556 S
C102 O93 1.255 . S
C102 O94 1.265 . S
O103 Tb80 2.479 . S
O103 C90 1.238 . S
O104 Tb80 2.471 1_556 S
O104 C90 1.247 1_556 S
C105 C108 1.346 1_554 S
C105 C109 1.412 . S
C105 C111 1.507 . S
C106 C107 1.387 1_554 S
C106 C110 1.391 . S
C107 C106 1.387 1_556 S
C107 C108 1.384 . S
C107 H116 0.930 . S
C108 C105 1.346 1_556 S
C108 C107 1.384 . S
C108 H117 0.931 . S
C109 C105 1.412 . S
C109 C110 1.390 . S
C109 H118 0.930 . S
C110 C106 1.391 . S
C110 C109 1.390 . S
C110 H119 0.930 . S
C111 Eu81 2.823 . S
C111 O96 1.197 1_554 S
C111 O97 1.285 . S
C111 C105 1.507 . S
H112 C85 0.930 . S
H113 C86 0.931 . S
H114 C87 0.930 . S
H115 C88 0.930 . S
H116 C107 0.930 . S
H117 C108 0.931 . S
H118 C109 0.930 . S
H119 C110 0.930 . S
Tb120 C130 2.825 . S
Tb120 O131 2.347 . S
Tb120 O134 2.366 . S
Tb120 O139 2.418 . S
Tb120 O140 2.384 . S
Tb120 O143 2.479 . S
Tb120 O144 2.471 . S
Eu121 O132 2.418 . S
Eu121 O133 2.384 . S
Eu121 O136 2.479 . S
Eu121 O137 2.471 . S
Eu121 O138 2.347 . S
Eu121 O141 2.366 . S
Eu121 C151 2.825 . S
C122 O138 1.259 . S
C122 O139 1.265 . S
C123 O140 1.255 . S
C123 O141 1.265 . S
C124 C126 1.380 . S
C124 C127 1.374 . S
C124 C130 1.507 . S
C125 C126 1.384 . S
C125 C129 1.387 . S
C125 H152 0.930 . S
C126 C124 1.380 . S
C126 C125 1.384 . S
C126 H153 0.931 . S
C127 C124 1.374 . S
C127 C128 1.390 . S
C127 H154 0.930 . S
C128 C127 1.390 . S
C128 C129 1.391 . S
C128 H155 0.930 . S
C129 C125 1.387 . S
C129 C128 1.391 . S
C130 Tb120 2.825 . S
C130 C124 1.507 . S
C130 O143 1.238 . S
C130 O144 1.247 . S
O131 Tb120 2.347 . S
O131 C135 1.259 . S
O132 Eu121 2.418 . S
O132 C135 1.265 . S
O133 Eu121 2.384 . S
O133 C142 1.255 . S
O134 Tb120 2.366 . S
O134 C142 1.265 . S
C135 O131 1.259 . S
C135 O132 1.265 . S
O136 Eu121 2.479 . S
O136 C151 1.238 . S
O137 Eu121 2.471 . S
O137 C151 1.247 . S
O138 Eu121 2.347 . S
O138 C122 1.259 . S
O139 Tb120 2.418 . S
O139 C122 1.265 . S
O140 Tb120 2.384 . S
O140 C123 1.255 . S
O141 Eu121 2.366 . S
O141 C123 1.265 . S
C142 O133 1.255 . S
C142 O134 1.265 . S
O143 Tb120 2.479 . S
O143 C130 1.238 . S
O144 Tb120 2.471 . S
O144 C130 1.247 . S
C145 C148 1.380 . S
C145 C149 1.374 . S
C145 C151 1.507 . S
C146 C147 1.387 . S
C146 C150 1.391 . S
C147 C146 1.387 . S
C147 C148 1.384 . S
C147 H156 0.930 . S
C148 C145 1.380 . S
C148 C147 1.384 . S
C148 H157 0.931 . S
C149 C145 1.374 . S
C149 C150 1.390 . S
C149 H158 0.930 . S
C150 C146 1.391 . S
C150 C149 1.390 . S
C150 H159 0.930 . S
C151 Eu121 2.825 . S
C151 O136 1.238 . S
C151 O137 1.247 . S
C151 C145 1.507 . S
H152 C125 0.930 . S
H153 C126 0.931 . S
H154 C127 0.930 . S
H155 C128 0.930 . S
H156 C147 0.930 . S
H157 C148 0.931 . S
H158 C149 0.930 . S
H159 C150 0.930 . S
Tb160 C170 2.825 . S
Tb160 O171 2.347 . S
Tb160 O174 2.366 . S
Tb160 O179 2.418 . S
Tb160 O180 2.384 . S
Tb160 O183 2.479 . S
Tb160 O184 2.471 . S
Eu161 O172 2.418 . S
Eu161 O173 2.384 . S
Eu161 O176 2.479 . S
Eu161 O177 2.471 . S
Eu161 O178 2.347 . S
Eu161 O181 2.366 . S
Eu161 C191 2.836 . S
C162 O178 1.259 . S
C162 O179 1.265 . S
C163 O180 1.255 . S
C163 O181 1.265 . S
C164 C166 1.380 . S
C164 C167 1.374 . S
C164 C170 1.507 . S
C165 C166 1.384 . S
C165 C169 1.387 . S
C165 H192 0.930 . S
C166 C164 1.380 . S
C166 C165 1.384 . S
C166 H193 0.931 . S
C167 C164 1.374 . S
C167 C168 1.390 . S
C167 H194 0.930 . S
C168 C167 1.390 . S
C168 C169 1.391 . S
C168 H195 0.930 . S
C169 C165 1.387 . S
C169 C168 1.391 . S
C170 Tb160 2.825 . S
C170 C164 1.507 . S
C170 O183 1.238 . S
C170 O184 1.247 . S
O171 Tb160 2.347 . S
O171 C175 1.259 . S
O172 Eu161 2.418 . S
O172 C175 1.265 . S
O173 Eu161 2.384 . S
O173 C182 1.255 . S
O174 Tb160 2.366 . S
O174 C182 1.265 . S
C175 O171 1.259 . S
C175 O172 1.265 . S
O176 Eu161 2.479 . S
O176 C191 1.242 . S
O177 Eu161 2.471 . S
O177 C191 1.253 . S
O178 Eu161 2.347 . S
O178 C162 1.259 . S
O179 Tb160 2.418 . S
O179 C162 1.265 . S
O180 Tb160 2.384 . S
O180 C163 1.255 . S
O181 Eu161 2.366 . S
O181 C163 1.265 . S
C182 O173 1.255 . S
C182 O174 1.265 . S
O183 Tb160 2.479 . S
O183 C170 1.238 . S
O184 Tb160 2.471 . S
O184 C170 1.247 . S
C185 C188 1.380 . S
C185 C189 1.374 . S
C185 C191 1.496 1_545 S
C186 C187 1.387 . S
C186 C190 1.391 . S
C187 C186 1.387 . S
C187 C188 1.384 . S
C187 H196 0.930 . S
C188 C185 1.380 . S
C188 C187 1.384 . S
C188 H197 0.931 . S
C189 C185 1.374 . S
C189 C190 1.390 . S
C189 H198 0.930 . S
C190 C186 1.391 . S
C190 C189 1.390 . S
C190 H199 0.930 . S
C191 Eu161 2.836 . S
C191 O176 1.242 . S
C191 O177 1.253 . S
C191 C185 1.496 1_565 S
H192 C165 0.930 . S
H193 C166 0.931 . S
H194 C167 0.930 . S
H195 C168 0.930 . S
H196 C187 0.930 . S
H197 C188 0.931 . S
H198 C189 0.930 . S
H199 C190 0.930 . S
Tb200 C210 2.825 . S
Tb200 O211 2.347 . S
Tb200 O214 2.366 . S
Tb200 O219 2.418 . S
Tb200 O220 2.384 . S
Tb200 O223 2.479 . S
Tb200 O224 2.471 . S
Eu201 O212 2.418 . S
Eu201 O213 2.384 . S
Eu201 O216 2.479 . S
Eu201 O217 2.471 . S
Eu201 O218 2.347 . S
Eu201 O221 2.366 . S
Eu201 C231 2.825 . S
C202 O218 1.259 . S
C202 O219 1.265 . S
C203 O220 1.255 . S
C203 O221 1.265 . S
C204 C206 1.380 . S
C204 C207 1.374 . S
C204 C210 1.507 . S
C205 C206 1.384 . S
C205 C209 1.387 . S
C205 H232 0.930 . S
C206 C204 1.380 . S
C206 C205 1.384 . S
C206 H233 0.931 . S
C207 C204 1.374 . S
C207 C208 1.390 . S
C207 H234 0.930 . S
C208 C207 1.390 . S
C208 C209 1.391 . S
C208 H235 0.930 . S
C209 C205 1.387 . S
C209 C208 1.391 . S
C210 Tb200 2.825 . S
C210 C204 1.507 . S
C210 O223 1.238 . S
C210 O224 1.247 . S
O211 Tb200 2.347 . S
O211 C215 1.259 . S
O212 Eu201 2.418 . S
O212 C215 1.265 . S
O213 Eu201 2.384 . S
O213 C222 1.255 . S
O214 Tb200 2.366 . S
O214 C222 1.265 . S
C215 O211 1.259 . S
C215 O212 1.265 . S
O216 Eu201 2.479 . S
O216 C231 1.238 . S
O217 Eu201 2.471 . S
O217 C231 1.247 . S
O218 Eu201 2.347 . S
O218 C202 1.259 . S
O219 Tb200 2.418 . S
O219 C202 1.265 . S
O220 Tb200 2.384 . S
O220 C203 1.255 . S
O221 Eu201 2.366 . S
O221 C203 1.265 . S
C222 O213 1.255 . S
C222 O214 1.265 . S
O223 Tb200 2.479 . S
O223 C210 1.238 . S
O224 Tb200 2.471 . S
O224 C210 1.247 . S
C225 C228 1.380 1_455 S
C225 C229 1.374 . S
C225 C231 1.507 . S
C226 C227 1.387 . S
C226 C230 1.391 . S
C227 C226 1.387 . S
C227 C228 1.384 . S
C227 H236 0.930 . S
C228 C225 1.380 1_655 S
C228 C227 1.384 . S
C228 H237 0.931 . S
C229 C225 1.374 . S
C229 C230 1.390 1_455 S
C229 H238 0.930 . S
C230 C226 1.391 . S
C230 C229 1.390 1_655 S
C230 H239 0.930 . S
C231 Eu201 2.825 . S
C231 O216 1.238 . S
C231 O217 1.247 . S
C231 C225 1.507 . S
H232 C205 0.930 . S
H233 C206 0.931 . S
H234 C207 0.930 . S
H235 C208 0.930 . S
H236 C227 0.930 . S
H237 C228 0.931 . S
H238 C229 0.930 . S
H239 C230 0.930 . S
Tb240 C250 2.825 . S
Tb240 O251 2.347 . S
Tb240 O254 2.366 . S
Tb240 O259 2.418 . S
Tb240 O260 2.384 . S
Tb240 O263 2.479 . S
Tb240 O264 2.471 . S
Eu241 O252 2.418 . S
Eu241 O253 2.384 . S
Eu241 O256 2.479 . S
Eu241 O257 2.471 . S
Eu241 O258 2.347 . S
Eu241 O261 2.366 . S
Eu241 C271 2.825 . S
C242 O258 1.259 . S
C242 O259 1.265 . S
C243 O260 1.255 . S
C243 O261 1.265 . S
C244 C246 1.380 . S
C244 C247 1.374 . S
C244 C250 1.507 . S
C245 C246 1.384 . S
C245 C249 1.387 . S
C245 H272 0.930 . S
C246 C244 1.380 . S
C246 C245 1.384 . S
C246 H273 0.931 . S
C247 C244 1.374 . S
C247 C248 1.390 . S
C247 H274 0.930 . S
C248 C247 1.390 . S
C248 C249 1.391 . S
C248 H275 0.930 . S
C249 C245 1.387 . S
C249 C248 1.391 . S
C250 Tb240 2.825 . S
C250 C244 1.507 . S
C250 O263 1.238 . S
C250 O264 1.247 . S
O251 Tb240 2.347 . S
O251 C255 1.259 . S
O252 Eu241 2.418 . S
O252 C255 1.265 . S
O253 Eu241 2.384 . S
O253 C262 1.255 . S
O254 Tb240 2.366 . S
O254 C262 1.265 . S
C255 O251 1.259 . S
C255 O252 1.265 . S
O256 Eu241 2.479 . S
O256 C271 1.238 . S
O257 Eu241 2.471 . S
O257 C271 1.247 . S
O258 Eu241 2.347 . S
O258 C242 1.259 . S
O259 Tb240 2.418 . S
O259 C242 1.265 . S
O260 Tb240 2.384 . S
O260 C243 1.255 . S
O261 Eu241 2.366 . S
O261 C243 1.265 . S
C262 O253 1.255 . S
C262 O254 1.265 . S
O263 Tb240 2.479 . S
O263 C250 1.238 . S
O264 Tb240 2.471 . S
O264 C250 1.247 . S
C265 C268 1.380 . S
C265 C269 1.374 . S
C265 C271 1.507 . S
C266 C267 1.387 . S
C266 C270 1.391 . S
C267 C266 1.387 . S
C267 C268 1.384 . S
C267 H276 0.930 . S
C268 C265 1.380 . S
C268 C267 1.384 . S
C268 H277 0.931 . S
C269 C265 1.374 . S
C269 C270 1.390 . S
C269 H278 0.930 . S
C270 C266 1.391 . S
C270 C269 1.390 . S
C270 H279 0.930 . S
C271 Eu241 2.825 . S
C271 O256 1.238 . S
C271 O257 1.247 . S
C271 C265 1.507 . S
H272 C245 0.930 . S
H273 C246 0.931 . S
H274 C247 0.930 . S
H275 C248 0.930 . S
H276 C267 0.930 . S
H277 C268 0.931 . S
H278 C269 0.930 . S
H279 C270 0.930 . S
Tb280 C290 2.825 . S
Tb280 O291 2.347 . S
Tb280 O294 2.366 . S
Tb280 O299 2.418 . S
Tb280 O300 2.384 . S
Tb280 O303 2.479 . S
Tb280 O304 2.471 . S
Eu281 O292 2.418 . S
Eu281 O293 2.384 . S
Eu281 O296 2.479 . S
Eu281 O297 2.471 . S
Eu281 O298 2.347 . S
Eu281 O301 2.366 . S
Eu281 C311 2.825 . S
C282 O298 1.259 . S
C282 O299 1.265 . S
C283 O300 1.255 . S
C283 O301 1.265 . S
C284 C286 1.380 . S
C284 C287 1.374 . S
C284 C290 1.507 . S
C285 C286 1.384 . S
C285 C289 1.387 . S
C285 H312 0.930 . S
C286 C284 1.380 . S
C286 C285 1.384 . S
C286 H313 0.931 . S
C287 C284 1.374 . S
C287 C288 1.390 . S
C287 H314 0.930 . S
C288 C287 1.390 . S
C288 C289 1.391 . S
C288 H315 0.930 . S
C289 C285 1.387 . S
C289 C288 1.391 . S
C290 Tb280 2.825 . S
C290 C284 1.507 . S
C290 O303 1.238 . S
C290 O304 1.247 . S
O291 Tb280 2.347 . S
O291 C295 1.259 . S
O292 Eu281 2.418 . S
O292 C295 1.265 . S
O293 Eu281 2.384 . S
O293 C302 1.255 . S
O294 Tb280 2.366 . S
O294 C302 1.265 . S
C295 O291 1.259 . S
C295 O292 1.265 . S
O296 Eu281 2.479 . S
O296 C311 1.238 . S
O297 Eu281 2.471 . S
O297 C311 1.247 . S
O298 Eu281 2.347 . S
O298 C282 1.259 . S
O299 Tb280 2.418 . S
O299 C282 1.265 . S
O300 Tb280 2.384 . S
O300 C283 1.255 . S
O301 Eu281 2.366 . S
O301 C283 1.265 . S
C302 O293 1.255 . S
C302 O294 1.265 . S
O303 Tb280 2.479 . S
O303 C290 1.238 . S
O304 Tb280 2.471 . S
O304 C290 1.247 . S
C305 C308 1.380 . S
C305 C309 1.374 . S
C305 C311 1.507 1_455 S
C306 C307 1.387 . S
C306 C310 1.391 . S
C307 C306 1.387 . S
C307 C308 1.384 . S
C307 H316 0.930 . S
C308 C305 1.380 . S
C308 C307 1.384 . S
C308 H317 0.931 . S
C309 C305 1.374 . S
C309 C310 1.390 . S
C309 H318 0.930 1_455 S
C310 C306 1.391 . S
C310 C309 1.390 . S
C310 H319 0.930 . S
C311 Eu281 2.825 . S
C311 O296 1.238 . S
C311 O297 1.247 . S
C311 C305 1.507 1_655 S
H312 C285 0.930 . S
H313 C286 0.931 . S
H314 C287 0.930 . S
H315 C288 0.930 . S
H316 C307 0.930 . S
H317 C308 0.931 . S
H318 C309 0.930 1_655 S
H319 C310 0.930 . S
Tb320 C330 2.825 . S
Tb320 O331 2.347 . S
Tb320 O334 2.366 . S
Tb320 O339 2.418 . S
Tb320 O340 2.384 . S
Tb320 O343 2.479 . S
Tb320 O344 2.471 . S
Eu321 O332 2.418 . S
Eu321 O333 2.384 . S
Eu321 O336 2.479 . S
Eu321 O337 2.471 . S
Eu321 O338 2.347 . S
Eu321 O341 2.366 . S
Eu321 C351 2.825 . S
C322 O338 1.259 . S
C322 O339 1.265 . S
C323 O340 1.255 . S
C323 O341 1.265 . S
C324 C326 1.380 . S
C324 C327 1.374 . S
C324 C330 1.507 . S
C325 C326 1.384 . S
C325 C329 1.387 . S
C325 H352 0.930 . S
C326 C324 1.380 . S
C326 C325 1.384 . S
C326 H353 0.931 . S
C327 C324 1.374 . S
C327 C328 1.390 . S
C327 H354 0.930 . S
C328 C327 1.390 . S
C328 C329 1.391 . S
C328 H355 0.930 . S
C329 C325 1.387 . S
C329 C328 1.391 . S
C330 Tb320 2.825 . S
C330 C324 1.507 . S
C330 O343 1.238 . S
C330 O344 1.247 . S
O331 Tb320 2.347 . S
O331 C335 1.259 . S
O332 Eu321 2.418 . S
O332 C335 1.265 . S
O333 Eu321 2.384 . S
O333 C342 1.255 . S
O334 Tb320 2.366 . S
O334 C342 1.265 . S
C335 O331 1.259 . S
C335 O332 1.265 . S
O336 Eu321 2.479 . S
O336 C351 1.238 . S
O337 Eu321 2.471 . S
O337 C351 1.247 . S
O338 Eu321 2.347 . S
O338 C322 1.259 . S
O339 Tb320 2.418 . S
O339 C322 1.265 . S
O340 Tb320 2.384 . S
O340 C323 1.255 . S
O341 Eu321 2.366 . S
O341 C323 1.265 . S
C342 O333 1.255 . S
C342 O334 1.265 . S
O343 Tb320 2.479 . S
O343 C330 1.238 . S
O344 Tb320 2.471 . S
O344 C330 1.247 . S
C345 C348 1.380 . S
C345 C349 1.374 . S
C345 C351 1.507 . S
C346 C347 1.387 . S
C346 C350 1.391 . S
C347 C346 1.387 . S
C347 C348 1.384 . S
C347 H356 0.930 . S
C348 C345 1.380 . S
C348 C347 1.384 . S
C348 H357 0.931 . S
C349 C345 1.374 . S
C349 C350 1.390 . S
C349 H358 0.930 . S
C350 C346 1.391 . S
C350 C349 1.390 . S
C350 H359 0.930 . S
C351 Eu321 2.825 . S
C351 O336 1.238 . S
C351 O337 1.247 . S
C351 C345 1.507 . S
H352 C325 0.930 . S
H353 C326 0.931 . S
H354 C327 0.930 . S
H355 C328 0.930 . S
H356 C347 0.930 . S
H357 C348 0.931 . S
H358 C349 0.930 . S
H359 C350 0.930 . S
C360 C361 1.349 . S
C360 C362 1.327 . S
C360 H385 0.950 . S
C361 C360 1.349 . S
C361 C377 1.349 1_556 S
C362 C360 1.327 . S
C362 C381 1.429 . S
C362 H386 0.950 . S
C363 C380 1.574 . S
C363 C382 1.370 1_554 S
C363 H387 0.949 . S
H364 C368 0.949 . S
C365 C366 1.349 . S
C365 C367 1.327 . S
C365 H388 0.950 . S
C366 C365 1.349 . S
C366 C378 1.349 1_554 S
C367 C365 1.327 . S
C367 C383 1.429 . S
C367 H389 0.950 . S
C368 H364 0.949 . S
C368 C376 1.574 . S
C368 C384 1.368 1_556 S
H369 C377 0.950 . S
H370 C375 0.950 . S
H371 C376 0.949 . S
H372 C378 0.950 . S
H373 C379 0.950 . S
H374 C380 0.949 . S
C375 H370 0.950 . S
C375 C377 1.327 . S
C375 C381 1.429 1_554 S
C376 C368 1.574 . S
C376 H371 0.949 . S
C376 C382 1.367 . S
C377 C361 1.349 1_554 S
C377 H369 0.950 . S
C377 C375 1.327 . S
C378 C366 1.349 1_556 S
C378 H372 0.950 . S
C378 C379 1.327 . S
C379 H373 0.950 . S
C379 C378 1.327 . S
C379 C383 1.429 1_556 S
C380 C363 1.574 . S
C380 H374 0.949 . S
C380 C384 1.368 . S
C381 C362 1.429 . S
C381 C375 1.429 1_556 S
C381 C382 1.523 . S
C382 C363 1.370 1_556 S
C382 C376 1.367 . S
C382 C381 1.523 . S
C383 C367 1.429 . S
C383 C379 1.429 1_554 S
C383 C384 1.523 . S
C384 C368 1.368 1_554 S
C384 C380 1.368 . S
C384 C383 1.523 . S
H385 C360 0.950 . S
H386 C362 0.950 . S
H387 C363 0.949 . S
H388 C365 0.950 . S
H389 C367 0.950 . S
C390 C391 1.349 . S
C390 C392 1.327 . S
C390 H415 0.950 . S
C391 C390 1.349 . S
C391 C407 1.349 1_556 S
C392 C390 1.327 . S
C392 C411 1.463 . S
C392 H416 0.950 . S
C393 C410 1.574 . S
C393 C412 1.368 1_554 S
C393 H417 0.949 . S
H394 C398 0.949 . S
C395 C396 1.349 1_554 S
C395 C397 1.327 . S
C395 H418 0.950 . S
C396 C395 1.349 1_556 S
C396 C408 1.349 . S
C397 C395 1.327 . S
C397 C413 1.429 1_554 S
C397 H419 0.950 . S
C398 H394 0.949 . S
C398 C406 1.574 . S
C398 C414 1.368 . S
H399 C407 0.950 . S
H400 C405 0.950 . S
H401 C406 0.949 . S
H402 C408 0.950 . S
H403 C409 0.950 . S
H404 C410 0.949 . S
C405 H400 0.950 . S
C405 C407 1.327 . S
C405 C411 1.395 1_554 S
C406 C398 1.574 . S
C406 H401 0.949 . S
C406 C412 1.368 . S
C407 C391 1.349 1_554 S
C407 H399 0.950 . S
C407 C405 1.327 . S
C408 C396 1.349 . S
C408 H402 0.950 . S
C408 C409 1.327 . S
C409 H403 0.950 . S
C409 C408 1.327 . S
C409 C413 1.429 . S
C410 C393 1.574 . S
C410 H404 0.949 . S
C410 C414 1.368 1_554 S
C411 C392 1.463 . S
C411 C405 1.395 1_556 S
C411 C412 1.524 . S
C412 C393 1.368 1_556 S
C412 C406 1.368 . S
C412 C411 1.524 . S
C413 C397 1.429 1_556 S
C413 C409 1.429 . S
C413 C414 1.523 . S
C414 C398 1.368 . S
C414 C410 1.368 1_556 S
C414 C413 1.523 . S
H415 C390 0.950 . S
H416 C392 0.950 . S
H417 C393 0.949 . S
H418 C395 0.950 . S
H419 C397 0.950 . S
C420 C421 1.349 1_556 S
C420 C422 1.327 . S
C420 H445 0.950 . S
C421 C420 1.349 1_554 S
C421 C437 1.349 . S
C422 C420 1.327 . S
C422 C441 1.429 1_556 S
C422 H446 0.950 . S
C423 C440 1.574 . S
C423 C442 1.368 . S
C423 H447 0.949 . S
H424 C428 0.949 . S
C425 C426 1.349 . S
C425 C427 1.327 . S
C425 H448 0.950 . S
C426 C425 1.349 . S
C426 C438 1.349 1_554 S
C427 C425 1.327 . S
C427 C443 1.429 . S
C427 H449 0.950 . S
C428 H424 0.949 . S
C428 C436 1.574 . S
C428 C444 1.368 1_556 S
H429 C437 0.950 . S
H430 C435 0.950 . S
H431 C436 0.949 . S
H432 C438 0.950 . S
H433 C439 0.950 . S
H434 C440 0.949 . S
C435 H430 0.950 . S
C435 C437 1.327 . S
C435 C441 1.429 . S
C436 C428 1.574 . S
C436 H431 0.949 . S
C436 C442 1.368 1_556 S
C437 C421 1.349 . S
C437 H429 0.950 . S
C437 C435 1.327 . S
C438 C426 1.349 1_556 S
C438 H432 0.950 . S
C438 C439 1.327 . S
C439 H433 0.950 . S
C439 C438 1.327 . S
C439 C443 1.429 1_556 S
C440 C423 1.574 . S
C440 H434 0.949 . S
C440 C444 1.368 . S
C441 C422 1.429 1_554 S
C441 C435 1.429 . S
C441 C442 1.523 . S
C442 C423 1.368 . S
C442 C436 1.368 1_554 S
C442 C441 1.523 . S
C443 C427 1.429 . S
C443 C439 1.429 1_554 S
C443 C444 1.523 . S
C444 C428 1.368 1_554 S
C444 C440 1.368 . S
C444 C443 1.523 . S
H445 C420 0.950 . S
H446 C422 0.950 . S
H447 C423 0.949 . S
H448 C425 0.950 . S
H449 C427 0.950 . S
C450 C451 1.349 1_556 S
C450 C452 1.327 . S
C450 H475 0.950 . S
C451 C450 1.349 1_554 S
C451 C467 1.349 . S
C452 C450 1.327 . S
C452 C471 1.429 1_556 S
C452 H476 0.950 . S
C453 C470 1.574 . S
C453 C472 1.368 . S
C453 H477 0.949 . S
H454 C458 0.949 . S
C455 C456 1.349 . S
C455 C457 1.327 . S
C455 H478 0.950 . S
C456 C455 1.349 . S
C456 C468 1.349 1_554 S
C457 C455 1.327 . S
C457 C473 1.429 . S
C457 H479 0.950 . S
C458 H454 0.949 . S
C458 C466 1.574 . S
C458 C474 1.368 1_556 S
H459 C467 0.950 . S
H460 C465 0.950 . S
H461 C466 0.949 . S
H462 C468 0.950 . S
H463 C469 0.950 . S
H464 C470 0.949 . S
C465 H460 0.950 . S
C465 C467 1.327 . S
C465 C471 1.429 . S
C466 C458 1.574 . S
C466 H461 0.949 . S
C466 C472 1.368 1_556 S
C467 C451 1.349 . S
C467 H459 0.950 . S
C467 C465 1.327 . S
C468 C456 1.349 1_556 S
C468 H462 0.950 . S
C468 C469 1.327 . S
C469 H463 0.950 . S
C469 C468 1.327 . S
C469 C473 1.429 1_556 S
C470 C453 1.574 . S
C470 H464 0.949 . S
C470 C474 1.368 . S
C471 C452 1.429 1_554 S
C471 C465 1.429 . S
C471 C472 1.523 . S
C472 C453 1.368 . S
C472 C466 1.368 1_554 S
C472 C471 1.523 . S
C473 C457 1.429 . S
C473 C469 1.429 1_554 S
C473 C474 1.523 . S
C474 C458 1.368 1_554 S
C474 C470 1.368 . S
C474 C473 1.523 . S
H475 C450 0.950 . S
H476 C452 0.950 . S
H477 C453 0.949 . S
H478 C455 0.950 . S
H479 C457 0.950 . S
C480 C481 1.349 1_556 S
C480 C482 1.327 . S
C480 H505 0.950 . S
C481 C480 1.349 1_554 S
C481 C497 1.349 . S
C482 C480 1.327 . S
C482 C501 1.429 1_556 S
C482 H506 0.950 . S
C483 C500 1.574 . S
C483 C502 1.368 . S
C483 H507 0.949 . S
H484 C488 0.949 . S
C485 C486 1.349 . S
C485 C487 1.327 . S
C485 H508 0.950 . S
C486 C485 1.349 . S
C486 C498 1.349 1_554 S
C487 C485 1.327 . S
C487 C503 1.429 . S
C487 H509 0.950 . S
C488 H484 0.949 . S
C488 C496 1.574 . S
C488 C504 1.368 1_556 S
H489 C497 0.950 . S
H490 C495 0.950 . S
H491 C496 0.949 . S
H492 C498 0.950 . S
H493 C499 0.950 . S
H494 C500 0.949 . S
C495 H490 0.950 . S
C495 C497 1.327 . S
C495 C501 1.429 . S
C496 C488 1.574 . S
C496 H491 0.949 . S
C496 C502 1.368 1_556 S
C497 C481 1.349 . S
C497 H489 0.950 . S
C497 C495 1.327 . S
C498 C486 1.349 1_556 S
C498 H492 0.950 . S
C498 C499 1.327 . S
C499 H493 0.950 . S
C499 C498 1.327 . S
C499 C503 1.429 1_556 S
C500 C483 1.574 . S
C500 H494 0.949 . S
C500 C504 1.368 . S
C501 C482 1.429 1_554 S
C501 C495 1.429 . S
C501 C502 1.523 . S
C502 C483 1.368 . S
C502 C496 1.368 1_554 S
C502 C501 1.523 . S
C503 C487 1.429 . S
C503 C499 1.429 1_554 S
C503 C504 1.523 . S
C504 C488 1.368 1_554 S
C504 C500 1.368 . S
C504 C503 1.523 . S
H505 C480 0.950 . S
H506 C482 0.950 . S
H507 C483 0.949 . S
H508 C485 0.950 . S
H509 C487 0.950 . S
C510 C511 1.349 . S
C510 C512 1.327 1_554 S
C510 H535 0.950 1_554 S
C511 C510 1.349 . S
C511 C527 1.349 . S
C512 C510 1.327 1_556 S
C512 C531 1.430 1_556 S
C512 H536 0.948 . S
C513 C530 1.574 . S
C513 C532 1.368 . S
C513 H537 0.949 . S
H514 C518 0.949 . S
C515 C516 1.349 . S
C515 C517 1.327 . S
C515 H538 0.950 . S
C516 C515 1.349 . S
C516 C528 1.349 1_554 S
C517 C515 1.327 . S
C517 C533 1.429 . S
C517 H539 0.950 . S
C518 H514 0.949 . S
C518 C526 1.574 . S
C518 C534 1.368 1_556 S
H519 C527 0.950 . S
H520 C525 0.950 . S
H521 C526 0.949 . S
H522 C528 0.950 . S
H523 C529 0.950 . S
H524 C530 0.949 . S
C525 H520 0.950 . S
C525 C527 1.327 . S
C525 C531 1.429 . S
C526 C518 1.574 . S
C526 H521 0.949 . S
C526 C532 1.368 1_556 S
C527 C511 1.349 . S
C527 H519 0.950 . S
C527 C525 1.327 . S
C528 C516 1.349 1_556 S
C528 H522 0.950 . S
C528 C529 1.327 . S
C529 H523 0.950 . S
C529 C528 1.327 . S
C529 C533 1.429 1_556 S
C530 C513 1.574 . S
C530 H524 0.949 . S
C530 C534 1.368 . S
C531 C512 1.430 1_554 S
C531 C525 1.429 . S
C531 C532 1.523 . S
C532 C513 1.368 . S
C532 C526 1.368 1_554 S
C532 C531 1.523 . S
C533 C517 1.429 . S
C533 C529 1.429 1_554 S
C533 C534 1.523 . S
C534 C518 1.368 1_554 S
C534 C530 1.368 . S
C534 C533 1.523 . S
H535 C510 0.950 1_556 S
H536 C512 0.948 . S
H537 C513 0.949 . S
H538 C515 0.950 . S
H539 C517 0.950 . S
C540 C541 1.349 . S
C540 C542 1.327 . S
C540 H565 0.950 . S
C541 C540 1.349 . S
C541 C557 1.349 . S
C542 C540 1.327 . S
C542 C561 1.429 . S
C542 H566 0.950 . S
C543 C560 1.574 1_655 S
C543 C562 1.368 . S
C543 H567 0.949 . S
H544 C548 0.949 . S
C545 C546 1.349 . S
C545 C547 1.327 . S
C545 H568 0.950 . S
C546 C545 1.349 . S
C546 C558 1.349 . S
C547 C545 1.327 . S
C547 C563 1.429 . S
C547 H569 0.950 . S
C548 H544 0.949 . S
C548 C556 1.574 1_455 S
C548 C564 1.368 . S
H549 C557 0.950 . S
H550 C555 0.950 . S
H551 C556 0.949 . S
H552 C558 0.950 . S
H553 C559 0.950 . S
H554 C560 0.949 . S
C555 H550 0.950 . S
C555 C557 1.327 . S
C555 C561 1.429 . S
C556 C548 1.574 1_655 S
C556 H551 0.949 . S
C556 C562 1.368 . S
C557 C541 1.349 . S
C557 H549 0.950 . S
C557 C555 1.327 . S
C558 C546 1.349 . S
C558 H552 0.950 . S
C558 C559 1.327 . S
C559 H553 0.950 . S
C559 C558 1.327 . S
C559 C563 1.429 . S
C560 C543 1.574 1_455 S
C560 H554 0.949 . S
C560 C564 1.368 . S
C561 C542 1.429 . S
C561 C555 1.429 . S
C561 C562 1.523 . S
C562 C543 1.368 . S
C562 C556 1.368 . S
C562 C561 1.523 . S
C563 C547 1.429 . S
C563 C559 1.429 . S
C563 C564 1.523 . S
C564 C548 1.368 . S
C564 C560 1.368 . S
C564 C563 1.523 . S
H565 C540 0.950 . S
H566 C542 0.950 . S
H567 C543 0.949 . S
H568 C545 0.950 . S
H569 C547 0.950 . S
C570 C571 1.349 . S
C570 C572 1.327 . S
C570 H595 0.950 . S
C571 C570 1.349 . S
C571 C587 1.349 . S
C572 C570 1.327 . S
C572 C591 1.429 . S
C572 H596 0.950 . S
C573 C590 1.574 . S
C573 C592 1.368 . S
C573 H597 0.949 . S
H574 C578 0.949 . S
C575 C576 1.349 . S
C575 C577 1.327 . S
C575 H598 0.950 . S
C576 C575 1.349 . S
C576 C588 1.349 . S
C577 C575 1.327 . S
C577 C593 1.429 . S
C577 H599 0.950 . S
C578 H574 0.949 . S
C578 C586 1.574 . S
C578 C594 1.368 . S
H579 C587 0.950 . S
H580 C585 0.950 . S
H581 C586 0.949 . S
H582 C588 0.950 . S
H583 C589 0.950 . S
H584 C590 0.949 . S
C585 H580 0.950 . S
C585 C587 1.327 . S
C585 C591 1.429 . S
C586 C578 1.574 . S
C586 H581 0.949 . S
C586 C592 1.368 . S
C587 C571 1.349 . S
C587 H579 0.950 . S
C587 C585 1.327 . S
C588 C576 1.349 . S
C588 H582 0.950 . S
C588 C589 1.327 . S
C589 H583 0.950 . S
C589 C588 1.327 . S
C589 C593 1.429 . S
C590 C573 1.574 . S
C590 H584 0.949 . S
C590 C594 1.368 . S
C591 C572 1.429 . S
C591 C585 1.429 . S
C591 C592 1.523 . S
C592 C573 1.368 . S
C592 C586 1.368 . S
C592 C591 1.523 . S
C593 C577 1.429 . S
C593 C589 1.429 . S
C593 C594 1.523 . S
C594 C578 1.368 . S
C594 C590 1.368 . S
C594 C593 1.523 . S
H595 C570 0.950 . S
H596 C572 0.950 . S
H597 C573 0.949 . S
H598 C575 0.950 . S
H599 C577 0.950 . S
C600 C601 1.349 . S
C600 C602 1.327 . S
C600 H625 0.950 . S
C601 C600 1.349 . S
C601 C617 1.349 . S
C602 C600 1.327 . S
C602 C621 1.429 . S
C602 H626 0.950 . S
C603 C620 1.568 1_545 S
C603 C622 1.375 . S
C603 H627 0.948 . S
H604 C608 0.949 . S
C605 C606 1.349 . S
C605 C607 1.327 . S
C605 H628 0.950 . S
C606 C605 1.349 . S
C606 C618 1.349 . S
C607 C605 1.327 . S
C607 C623 1.429 . S
C607 H629 0.950 . S
C608 H604 0.949 . S
C608 C616 1.574 1_565 S
C608 C624 1.368 . S
H609 C617 0.950 . S
H610 C615 0.950 . S
H611 C616 0.949 . S
H612 C618 0.950 . S
H613 C619 0.950 . S
H614 C620 0.949 . S
C615 H610 0.950 . S
C615 C617 1.327 . S
C615 C621 1.429 . S
C616 C608 1.574 1_545 S
C616 H611 0.949 . S
C616 C622 1.368 . S
C617 C601 1.349 . S
C617 H609 0.950 . S
C617 C615 1.327 . S
C618 C606 1.349 . S
C618 H612 0.950 . S
C618 C619 1.327 . S
C619 H613 0.950 . S
C619 C618 1.327 . S
C619 C623 1.429 . S
C620 C603 1.568 1_565 S
C620 H614 0.949 . S
C620 C624 1.368 . S
C621 C602 1.429 . S
C621 C615 1.429 . S
C621 C622 1.523 . S
C622 C603 1.375 . S
C622 C616 1.368 . S
C622 C621 1.523 . S
C623 C607 1.429 . S
C623 C619 1.429 . S
C623 C624 1.523 . S
C624 C608 1.368 . S
C624 C620 1.368 . S
C624 C623 1.523 . S
H625 C600 0.950 . S
H626 C602 0.950 . S
H627 C603 0.948 . S
H628 C605 0.950 . S
H629 C607 0.950 . S
C630 C631 1.349 . S
C630 C632 1.327 . S
C630 H655 0.950 . S
C631 C630 1.349 . S
C631 C647 1.349 . S
C632 C630 1.327 . S
C632 C651 1.429 . S
C632 H656 0.950 . S
C633 C650 1.574 . S
C633 C652 1.368 . S
C633 H657 0.949 . S
H634 C638 0.949 . S
C635 C636 1.349 . S
C635 C637 1.327 . S
C635 H658 0.950 . S
C636 C635 1.349 . S
C636 C648 1.349 . S
C637 C635 1.327 . S
C637 C653 1.429 . S
C637 H659 0.950 . S
C638 H634 0.949 . S
C638 C646 1.574 . S
C638 C654 1.368 . S
H639 C647 0.950 . S
H640 C645 0.950 . S
H641 C646 0.949 . S
H642 C648 0.950 . S
H643 C649 0.950 . S
H644 C650 0.949 . S
C645 H640 0.950 . S
C645 C647 1.327 . S
C645 C651 1.429 . S
C646 C638 1.574 . S
C646 H641 0.949 . S
C646 C652 1.368 . S
C647 C631 1.349 . S
C647 H639 0.950 . S
C647 C645 1.327 . S
C648 C636 1.349 . S
C648 H642 0.950 . S
C648 C649 1.327 . S
C649 H643 0.950 . S
C649 C648 1.327 . S
C649 C653 1.429 . S
C650 C633 1.574 . S
C650 H644 0.949 . S
C650 C654 1.368 . S
C651 C632 1.429 . S
C651 C645 1.429 . S
C651 C652 1.523 . S
C652 C633 1.368 . S
C652 C646 1.368 . S
C652 C651 1.523 . S
C653 C637 1.429 . S
C653 C649 1.429 . S
C653 C654 1.523 . S
C654 C638 1.368 . S
C654 C650 1.368 . S
C654 C653 1.523 . S
H655 C630 0.950 . S
H656 C632 0.950 . S
H657 C633 0.949 . S
H658 C635 0.950 . S
H659 C637 0.950 . S
C660 C661 1.349 . S
C660 C662 1.327 . S
C660 H685 0.950 . S
C661 C660 1.349 . S
C661 C677 1.349 . S
C662 C660 1.327 . S
C662 C681 1.429 . S
C662 H686 0.950 . S
C663 C680 1.574 . S
C663 C682 1.368 . S
C663 H687 0.949 . S
H664 C668 0.949 . S
C665 C666 1.349 . S
C665 C667 1.327 . S
C665 H688 0.950 . S
C666 C665 1.349 . S
C666 C678 1.349 . S
C667 C665 1.327 . S
C667 C683 1.429 . S
C667 H689 0.950 . S
C668 H664 0.949 . S
C668 C676 1.574 . S
C668 C684 1.368 . S
H669 C677 0.950 . S
H670 C675 0.950 . S
H671 C676 0.949 . S
H672 C678 0.950 . S
H673 C679 0.950 . S
H674 C680 0.949 . S
C675 H670 0.950 . S
C675 C677 1.327 . S
C675 C681 1.429 . S
C676 C668 1.574 . S
C676 H671 0.949 . S
C676 C682 1.368 . S
C677 C661 1.349 . S
C677 H669 0.950 . S
C677 C675 1.327 . S
C678 C666 1.349 . S
C678 H672 0.950 . S
C678 C679 1.327 . S
C679 H673 0.950 . S
C679 C678 1.327 . S
C679 C683 1.429 . S
C680 C663 1.574 . S
C680 H674 0.949 . S
C680 C684 1.368 . S
C681 C662 1.429 . S
C681 C675 1.429 . S
C681 C682 1.523 . S
C682 C663 1.368 . S
C682 C676 1.368 . S
C682 C681 1.523 . S
C683 C667 1.429 . S
C683 C679 1.429 . S
C683 C684 1.523 . S
C684 C668 1.368 . S
C684 C680 1.368 . S
C684 C683 1.523 . S
H685 C660 0.950 . S
H686 C662 0.950 . S
H687 C663 0.949 . S
H688 C665 0.950 . S
H689 C667 0.950 . S
C690 C691 1.349 . S
C690 C692 1.327 . S
C690 H715 0.950 . S
C691 C690 1.349 . S
C691 C707 1.349 . S
C692 C690 1.327 . S
C692 C711 1.429 . S
C692 H716 0.950 . S
C693 C710 1.574 . S
C693 C712 1.368 . S
C693 H717 0.949 . S
H694 C698 0.949 . S
C695 C696 1.349 . S
C695 C697 1.327 . S
C695 H718 0.950 . S
C696 C695 1.349 . S
C696 C708 1.349 . S
C697 C695 1.327 . S
C697 C713 1.429 . S
C697 H719 0.950 . S
C698 H694 0.949 . S
C698 C706 1.574 . S
C698 C714 1.368 . S
H699 C707 0.950 . S
H700 C705 0.950 . S
H701 C706 0.949 . S
H702 C708 0.950 . S
H703 C709 0.950 . S
H704 C710 0.949 . S
C705 H700 0.950 . S
C705 C707 1.327 . S
C705 C711 1.429 . S
C706 C698 1.574 . S
C706 H701 0.949 . S
C706 C712 1.368 . S
C707 C691 1.349 . S
C707 H699 0.950 . S
C707 C705 1.327 . S
C708 C696 1.349 . S
C708 H702 0.950 . S
C708 C709 1.327 . S
C709 H703 0.950 . S
C709 C708 1.327 . S
C709 C713 1.429 . S
C710 C693 1.574 . S
C710 H704 0.949 . S
C710 C714 1.368 . S
C711 C692 1.429 . S
C711 C705 1.429 . S
C711 C712 1.523 . S
C712 C693 1.368 . S
C712 C706 1.368 . S
C712 C711 1.523 . S
C713 C697 1.429 . S
C713 C709 1.429 . S
C713 C714 1.523 . S
C714 C698 1.368 . S
C714 C710 1.368 . S
C714 C713 1.523 . S
H715 C690 0.950 . S
H716 C692 0.950 . S
H717 C693 0.949 . S
H718 C695 0.950 . S
H719 C697 0.950 . S
C720 C721 1.349 . S
C720 C722 1.327 . S
C720 H745 0.950 . S
C721 C720 1.349 . S
C721 C737 1.349 . S
C722 C720 1.327 . S
C722 C741 1.429 . S
C722 H746 0.950 . S
C723 C740 1.574 . S
C723 C742 1.368 . S
C723 H747 0.949 . S
H724 C728 0.949 . S
C725 C726 1.349 . S
C725 C727 1.327 . S
C725 H748 0.950 . S
C726 C725 1.349 . S
C726 C738 1.349 . S
C727 C725 1.327 . S
C727 C743 1.429 . S
C727 H749 0.950 . S
C728 H724 0.949 . S
C728 C736 1.574 . S
C728 C744 1.368 . S
H729 C737 0.950 . S
H730 C735 0.950 . S
H731 C736 0.949 . S
H732 C738 0.950 . S
H733 C739 0.950 . S
H734 C740 0.949 . S
C735 H730 0.950 . S
C735 C737 1.327 . S
C735 C741 1.429 . S
C736 C728 1.574 . S
C736 H731 0.949 . S
C736 C742 1.368 . S
C737 C721 1.349 . S
C737 H729 0.950 . S
C737 C735 1.327 . S
C738 C726 1.349 . S
C738 H732 0.950 . S
C738 C739 1.327 . S
C739 H733 0.950 . S
C739 C738 1.327 . S
C739 C743 1.429 . S
C740 C723 1.574 . S
C740 H734 0.949 . S
C740 C744 1.368 . S
C741 C722 1.429 . S
C741 C735 1.429 . S
C741 C742 1.523 . S
C742 C723 1.368 . S
C742 C736 1.368 . S
C742 C741 1.523 . S
C743 C727 1.429 . S
C743 C739 1.429 . S
C743 C744 1.523 . S
C744 C728 1.368 . S
C744 C740 1.368 . S
C744 C743 1.523 . S
H745 C720 0.950 . S
H746 C722 0.950 . S
H747 C723 0.949 . S
H748 C725 0.950 . S
H749 C727 0.950 . S
C750 C751 1.349 . S
C750 C752 1.327 . S
C750 H775 0.950 . S
C751 C750 1.349 . S
C751 C767 1.349 . S
C752 C750 1.327 . S
C752 C771 1.429 . S
C752 H776 0.950 . S
C753 C770 1.574 . S
C753 C772 1.368 . S
C753 H777 0.949 . S
H754 C758 0.949 . S
C755 C756 1.349 . S
C755 C757 1.327 . S
C755 H778 0.950 . S
C756 C755 1.349 . S
C756 C768 1.349 . S
C757 C755 1.327 . S
C757 C773 1.429 . S
C757 H779 0.950 . S
C758 H754 0.949 . S
C758 C766 1.574 . S
C758 C774 1.368 . S
H759 C767 0.950 . S
H760 C765 0.950 . S
H761 C766 0.949 . S
H762 C768 0.950 . S
H763 C769 0.950 . S
H764 C770 0.949 . S
C765 H760 0.950 . S
C765 C767 1.327 . S
C765 C771 1.429 . S
C766 C758 1.574 . S
C766 H761 0.949 . S
C766 C772 1.368 . S
C767 C751 1.349 . S
C767 H759 0.950 . S
C767 C765 1.327 . S
C768 C756 1.349 . S
C768 H762 0.950 . S
C768 C769 1.327 . S
C769 H763 0.950 . S
C769 C768 1.327 . S
C769 C773 1.429 . S
C770 C753 1.574 . S
C770 H764 0.949 . S
C770 C774 1.368 . S
C771 C752 1.429 . S
C771 C765 1.429 . S
C771 C772 1.523 . S
C772 C753 1.368 . S
C772 C766 1.368 . S
C772 C771 1.523 . S
C773 C757 1.429 . S
C773 C769 1.429 . S
C773 C774 1.523 . S
C774 C758 1.368 . S
C774 C770 1.368 . S
C774 C773 1.523 . S
H775 C750 0.950 . S
H776 C752 0.950 . S
H777 C753 0.949 . S
H778 C755 0.950 . S
H779 C757 0.950 . S
C780 C781 1.349 . S
C780 C782 1.327 . S
C780 H805 0.950 . S
C781 C780 1.349 . S
C781 C797 1.349 . S
C782 C780 1.327 . S
C782 C801 1.429 . S
C782 H806 0.950 . S
C783 C800 1.574 . S
C783 C802 1.368 . S
C783 H807 0.949 . S
H784 C788 0.949 . S
C785 C786 1.349 . S
C785 C787 1.327 . S
C785 H808 0.950 . S
C786 C785 1.349 . S
C786 C798 1.349 . S
C787 C785 1.327 . S
C787 C803 1.429 . S
C787 H809 0.950 . S
C788 H784 0.949 . S
C788 C796 1.574 . S
C788 C804 1.368 . S
H789 C797 0.950 . S
H790 C795 0.950 . S
H791 C796 0.949 . S
H792 C798 0.950 . S
H793 C799 0.950 . S
H794 C800 0.949 . S
C795 H790 0.950 . S
C795 C797 1.327 . S
C795 C801 1.429 . S
C796 C788 1.574 . S
C796 H791 0.949 . S
C796 C802 1.368 . S
C797 C781 1.349 . S
C797 H789 0.950 . S
C797 C795 1.327 . S
C798 C786 1.349 . S
C798 H792 0.950 . S
C798 C799 1.327 . S
C799 H793 0.950 . S
C799 C798 1.327 . S
C799 C803 1.429 . S
C800 C783 1.574 . S
C800 H794 0.949 . S
C800 C804 1.368 . S
C801 C782 1.429 . S
C801 C795 1.429 . S
C801 C802 1.523 . S
C802 C783 1.368 . S
C802 C796 1.368 . S
C802 C801 1.523 . S
C803 C787 1.429 . S
C803 C799 1.429 . S
C803 C804 1.523 . S
C804 C788 1.368 . S
C804 C800 1.368 . S
C804 C803 1.523 . S
H805 C780 0.950 . S
H806 C782 0.950 . S
H807 C783 0.949 . S
H808 C785 0.950 . S
H809 C787 0.950 . S
C810 C811 1.349 . S
C810 C812 1.327 . S
C810 H835 0.950 . S
C811 C810 1.349 . S
C811 C827 1.349 . S
C812 C810 1.327 . S
C812 C831 1.429 . S
C812 H836 0.950 . S
C813 C830 1.574 . S
C813 C832 1.368 . S
C813 H837 0.949 . S
H814 C818 0.949 . S
C815 C816 1.349 . S
C815 C817 1.327 . S
C815 H838 0.950 . S
C816 C815 1.349 . S
C816 C828 1.349 . S
C817 C815 1.327 . S
C817 C833 1.429 . S
C817 H839 0.950 . S
C818 H814 0.949 . S
C818 C826 1.574 . S
C818 C834 1.368 . S
H819 C827 0.950 . S
H820 C825 0.950 . S
H821 C826 0.949 . S
H822 C828 0.950 . S
H823 C829 0.950 . S
H824 C830 0.949 1_545 S
C825 H820 0.950 . S
C825 C827 1.327 . S
C825 C831 1.429 . S
C826 C818 1.574 . S
C826 H821 0.949 . S
C826 C832 1.368 . S
C827 C811 1.349 . S
C827 H819 0.950 . S
C827 C825 1.327 . S
C828 C816 1.349 . S
C828 H822 0.950 . S
C828 C829 1.327 . S
C829 H823 0.950 . S
C829 C828 1.327 . S
C829 C833 1.429 . S
C830 C813 1.574 . S
C830 H824 0.949 1_565 S
C830 C834 1.368 . S
C831 C812 1.429 . S
C831 C825 1.429 . S
C831 C832 1.523 . S
C832 C813 1.368 . S
C832 C826 1.368 . S
C832 C831 1.523 . S
C833 C817 1.429 . S
C833 C829 1.429 . S
C833 C834 1.523 1_545 S
C834 C818 1.368 . S
C834 C830 1.368 . S
C834 C833 1.523 1_565 S
H835 C810 0.950 . S
H836 C812 0.950 . S
H837 C813 0.949 . S
H838 C815 0.950 . S
H839 C817 0.950 . S
C840 C841 1.349 . S
C840 C842 1.327 . S
C840 H865 0.950 . S
C841 C840 1.349 . S
C841 C857 1.349 . S
C842 C840 1.327 . S
C842 C861 1.429 . S
C842 H866 0.950 . S
C843 C860 1.574 . S
C843 C862 1.368 . S
C843 H867 0.949 . S
H844 C848 0.949 . S
C845 C846 1.349 . S
C845 C847 1.327 . S
C845 H868 0.950 . S
C846 C845 1.349 . S
C846 C858 1.349 . S
C847 C845 1.327 . S
C847 C863 1.429 1_545 S
C847 H869 0.950 . S
C848 H844 0.949 . S
C848 C856 1.574 . S
C848 C864 1.368 . S
H849 C857 0.950 . S
H850 C855 0.950 . S
H851 C856 0.949 . S
H852 C858 0.950 1_565 S
H853 C859 0.950 . S
H854 C860 0.949 1_545 S
C855 H850 0.950 . S
C855 C857 1.327 . S
C855 C861 1.429 . S
C856 C848 1.574 . S
C856 H851 0.949 . S
C856 C862 1.368 . S
C857 C841 1.349 . S
C857 H849 0.950 . S
C857 C855 1.327 . S
C858 C846 1.349 . S
C858 H852 0.950 1_545 S
C858 C859 1.327 1_545 S
C859 H853 0.950 . S
C859 C858 1.327 1_565 S
C859 C863 1.429 . S
C860 C843 1.574 . S
C860 H854 0.949 1_565 S
C860 C864 1.368 . S
C861 C842 1.429 . S
C861 C855 1.429 . S
C861 C862 1.523 . S
C862 C843 1.368 . S
C862 C856 1.368 . S
C862 C861 1.523 . S
C863 C847 1.429 1_565 S
C863 C859 1.429 . S
C863 C864 1.523 . S
C864 C848 1.368 . S
C864 C860 1.368 . S
C864 C863 1.523 . S
H865 C840 0.950 . S
H866 C842 0.950 . S
H867 C843 0.949 . S
H868 C845 0.950 . S
H869 C847 0.950 . S
C870 C871 1.349 . S
C870 C872 1.327 . S
C870 H895 0.950 . S
C871 C870 1.349 . S
C871 C887 1.349 . S
C872 C870 1.327 . S
C872 C891 1.429 . S
C872 H896 0.950 . S
C873 C890 1.574 . S
C873 C892 1.368 . S
C873 H897 0.949 . S
H874 C878 0.949 . S
C875 C876 1.349 . S
C875 C877 1.327 . S
C875 H898 0.950 . S
C876 C875 1.349 . S
C876 C888 1.349 . S
C877 C875 1.327 . S
C877 C893 1.429 . S
C877 H899 0.950 . S
C878 H874 0.949 . S
C878 C886 1.574 . S
C878 C894 1.368 . S
H879 C887 0.950 . S
H880 C885 0.950 . S
H881 C886 0.949 . S
H882 C888 0.950 . S
H883 C889 0.950 . S
H884 C890 0.949 . S
C885 H880 0.950 . S
C885 C887 1.327 . S
C885 C891 1.429 . S
C886 C878 1.574 . S
C886 H881 0.949 . S
C886 C892 1.368 . S
C887 C871 1.349 . S
C887 H879 0.950 . S
C887 C885 1.327 . S
C888 C876 1.349 . S
C888 H882 0.950 . S
C888 C889 1.327 . S
C889 H883 0.950 . S
C889 C888 1.327 . S
C889 C893 1.429 . S
C890 C873 1.574 . S
C890 H884 0.949 . S
C890 C894 1.368 . S
C891 C872 1.429 . S
C891 C885 1.429 . S
C891 C892 1.523 . S
C892 C873 1.368 . S
C892 C886 1.368 . S
C892 C891 1.523 . S
C893 C877 1.429 . S
C893 C889 1.429 . S
C893 C894 1.523 . S
C894 C878 1.368 . S
C894 C890 1.368 . S
C894 C893 1.523 . S
H895 C870 0.950 . S
H896 C872 0.950 . S
H897 C873 0.949 . S
H898 C875 0.950 . S
H899 C877 0.950 . S
C900 C901 1.349 . S
C900 C902 1.327 . S
C900 H925 0.950 . S
C901 C900 1.349 . S
C901 C917 1.349 . S
C902 C900 1.327 . S
C902 C921 1.429 . S
C902 H926 0.950 . S
C903 C920 1.574 . S
C903 C922 1.368 . S
C903 H927 0.949 . S
H904 C908 0.949 . S
C905 C906 1.349 . S
C905 C907 1.327 . S
C905 H928 0.950 . S
C906 C905 1.349 . S
C906 C918 1.349 . S
C907 C905 1.327 . S
C907 C923 1.429 . S
C907 H929 0.950 . S
C908 H904 0.949 . S
C908 C916 1.574 . S
C908 C924 1.368 . S
H909 C917 0.950 . S
H910 C915 0.950 . S
H911 C916 0.949 . S
H912 C918 0.950 . S
H913 C919 0.950 . S
H914 C920 0.949 . S
C915 H910 0.950 . S
C915 C917 1.327 . S
C915 C921 1.429 . S
C916 C908 1.574 . S
C916 H911 0.949 . S
C916 C922 1.368 . S
C917 C901 1.349 . S
C917 H909 0.950 . S
C917 C915 1.327 . S
C918 C906 1.349 . S
C918 H912 0.950 . S
C918 C919 1.327 . S
C919 H913 0.950 . S
C919 C918 1.327 . S
C919 C923 1.429 . S
C920 C903 1.574 . S
C920 H914 0.949 . S
C920 C924 1.368 . S
C921 C902 1.429 . S
C921 C915 1.429 . S
C921 C922 1.523 . S
C922 C903 1.368 . S
C922 C916 1.368 . S
C922 C921 1.523 . S
C923 C907 1.429 . S
C923 C919 1.429 . S
C923 C924 1.523 . S
C924 C908 1.368 . S
C924 C920 1.368 . S
C924 C923 1.523 . S
H925 C900 0.950 . S
H926 C902 0.950 . S
H927 C903 0.949 . S
H928 C905 0.950 . S
H929 C907 0.950 . S
C930 C931 1.349 . S
C930 C932 1.327 . S
C930 H955 0.950 . S
C931 C930 1.349 . S
C931 C947 1.349 . S
C932 C930 1.327 . S
C932 C951 1.429 . S
C932 H956 0.950 . S
C933 C950 1.574 . S
C933 C952 1.368 . S
C933 H957 0.949 . S
H934 C938 0.949 . S
C935 C936 1.349 . S
C935 C937 1.327 . S
C935 H958 0.950 . S
C936 C935 1.349 . S
C936 C948 1.349 . S
C937 C935 1.327 . S
C937 C953 1.429 . S
C937 H959 0.950 . S
C938 H934 0.949 . S
C938 C946 1.574 . S
C938 C954 1.368 . S
H939 C947 0.950 . S
H940 C945 0.950 . S
H941 C946 0.949 . S
H942 C948 0.950 . S
H943 C949 0.950 . S
H944 C950 0.949 . S
C945 H940 0.950 . S
C945 C947 1.327 . S
C945 C951 1.429 . S
C946 C938 1.574 . S
C946 H941 0.949 . S
C946 C952 1.368 . S
C947 C931 1.349 . S
C947 H939 0.950 . S
C947 C945 1.327 . S
C948 C936 1.349 . S
C948 H942 0.950 . S
C948 C949 1.327 . S
C949 H943 0.950 . S
C949 C948 1.327 . S
C949 C953 1.429 . S
C950 C933 1.574 . S
C950 H944 0.949 . S
C950 C954 1.368 . S
C951 C932 1.429 . S
C951 C945 1.429 . S
C951 C952 1.523 . S
C952 C933 1.368 . S
C952 C946 1.368 . S
C952 C951 1.523 . S
C953 C937 1.429 . S
C953 C949 1.429 . S
C953 C954 1.523 . S
C954 C938 1.368 . S
C954 C950 1.368 . S
C954 C953 1.523 . S
H955 C930 0.950 . S
H956 C932 0.950 . S
H957 C933 0.949 . S
H958 C935 0.950 . S
H959 C937 0.950 . S
C960 C961 1.349 . S
C960 C962 1.327 . S
C960 H985 0.950 . S
C961 C960 1.349 . S
C961 C977 1.349 . S
C962 C960 1.327 . S
C962 C981 1.429 . S
C962 H986 0.950 . S
C963 C980 1.574 . S
C963 C982 1.368 . S
C963 H987 0.949 . S
H964 C968 0.949 . S
C965 C966 1.349 . S
C965 C967 1.327 . S
C965 H988 0.950 . S
C966 C965 1.349 . S
C966 C978 1.349 . S
C967 C965 1.327 . S
C967 C983 1.429 . S
C967 H989 0.950 . S
C968 H964 0.949 . S
C968 C976 1.574 . S
C968 C984 1.368 . S
H969 C977 0.950 1_545 S
H970 C975 0.950 . S
H971 C976 0.949 . S
H972 C978 0.950 . S
H973 C979 0.950 . S
H974 C980 0.949 . S
C975 H970 0.950 . S
C975 C977 1.327 . S
C975 C981 1.429 . S
C976 C968 1.574 . S
C976 H971 0.949 . S
C976 C982 1.368 . S
C977 C961 1.349 . S
C977 H969 0.950 1_565 S
C977 C975 1.327 . S
C978 C966 1.349 . S
C978 H972 0.950 . S
C978 C979 1.327 . S
C979 H973 0.950 . S
C979 C978 1.327 . S
C979 C983 1.429 . S
C980 C963 1.574 . S
C980 H974 0.949 . S
C980 C984 1.368 . S
C981 C962 1.429 . S
C981 C975 1.429 . S
C981 C982 1.523 . S
C982 C963 1.368 . S
C982 C976 1.368 . S
C982 C981 1.523 . S
C983 C967 1.429 . S
C983 C979 1.429 . S
C983 C984 1.523 . S
C984 C968 1.368 . S
C984 C980 1.368 . S
C984 C983 1.523 . S
H985 C960 0.950 . S
H986 C962 0.950 . S
H987 C963 0.949 . S
H988 C965 0.950 . S
H989 C967 0.950 . S
C990 C991 1.349 . S
C990 C992 1.327 . S
C990 H1015 0.950 . S
C991 C990 1.349 . S
C991 C1007 1.349 . S
C992 C990 1.327 . S
C992 C1011 1.429 . S
C992 H1016 0.950 . S
C993 C1010 1.574 . S
C993 C1012 1.368 . S
C993 H1017 0.949 . S
H994 C998 0.949 . S
C995 C996 1.349 . S
C995 C997 1.327 . S
C995 H1018 0.950 . S
C996 C995 1.349 . S
C996 C1008 1.349 . S
C997 C995 1.327 . S
C997 C1013 1.429 . S
C997 H1019 0.950 . S
C998 H994 0.949 . S
C998 C1006 1.574 . S
C998 C1014 1.368 . S
H999 C1007 0.950 1_565 S
H1000 C1005 0.950 . S
H1001 C1006 0.949 . S
H1002 C1008 0.950 . S
H1003 C1009 0.950 . S
H1004 C1010 0.949 . S
C1005 H1000 0.950 . S
C1005 C1007 1.327 . S
C1005 C1011 1.429 . S
C1006 C998 1.574 . S
C1006 H1001 0.949 . S
C1006 C1012 1.368 . S
C1007 C991 1.349 . S
C1007 H999 0.950 1_545 S
C1007 C1005 1.327 . S
C1008 C996 1.349 . S
C1008 H1002 0.950 . S
C1008 C1009 1.327 . S
C1009 H1003 0.950 . S
C1009 C1008 1.327 . S
C1009 C1013 1.429 . S
C1010 C993 1.574 . S
C1010 H1004 0.949 . S
C1010 C1014 1.368 . S
C1011 C992 1.429 . S
C1011 C1005 1.429 . S
C1011 C1012 1.523 . S
C1012 C993 1.368 . S
C1012 C1006 1.368 . S
C1012 C1011 1.523 . S
C1013 C997 1.429 . S
C1013 C1009 1.429 . S
C1013 C1014 1.523 . S
C1014 C998 1.368 . S
C1014 C1010 1.368 . S
C1014 C1013 1.523 . S
H1015 C990 0.950 . S
H1016 C992 0.950 . S
H1017 C993 0.949 . S
H1018 C995 0.950 . S
H1019 C997 0.950 . S
C1020 C1021 1.349 . S
C1020 C1022 1.327 . S
C1020 H1045 0.950 . S
C1021 C1020 1.349 . S
C1021 C1037 1.349 . S
C1022 C1020 1.327 . S
C1022 C1041 1.429 . S
C1022 H1046 0.950 . S
C1023 C1040 1.574 . S
C1023 C1042 1.368 . S
C1023 H1047 0.949 . S
H1024 C1028 0.949 . S
C1025 C1026 1.349 . S
C1025 C1027 1.327 . S
C1025 H1048 0.950 . S
C1026 C1025 1.349 . S
C1026 C1038 1.349 . S
C1027 C1025 1.327 . S
C1027 C1043 1.429 . S
C1027 H1049 0.950 . S
C1028 H1024 0.949 . S
C1028 C1036 1.574 . S
C1028 C1044 1.368 . S
H1029 C1037 0.950 1_455 S
H1030 C1035 0.950 1_455 S
H1031 C1036 0.949 . S
H1032 C1038 0.950 . S
H1033 C1039 0.950 . S
H1034 C1040 0.949 . S
C1035 H1030 0.950 1_655 S
C1035 C1037 1.327 . S
C1035 C1041 1.429 . S
C1036 C1028 1.574 . S
C1036 H1031 0.949 . S
C1036 C1042 1.368 . S
C1037 C1021 1.349 . S
C1037 H1029 0.950 1_655 S
C1037 C1035 1.327 . S
C1038 C1026 1.349 . S
C1038 H1032 0.950 . S
C1038 C1039 1.327 . S
C1039 H1033 0.950 . S
C1039 C1038 1.327 . S
C1039 C1043 1.429 . S
C1040 C1023 1.574 . S
C1040 H1034 0.949 . S
C1040 C1044 1.368 . S
C1041 C1022 1.429 . S
C1041 C1035 1.429 . S
C1041 C1042 1.523 . S
C1042 C1023 1.368 . S
C1042 C1036 1.368 . S
C1042 C1041 1.523 . S
C1043 C1027 1.429 . S
C1043 C1039 1.429 . S
C1043 C1044 1.523 . S
C1044 C1028 1.368 . S
C1044 C1040 1.368 . S
C1044 C1043 1.523 . S
H1045 C1020 0.950 . S
H1046 C1022 0.950 . S
H1047 C1023 0.949 . S
H1048 C1025 0.950 . S
H1049 C1027 0.950 . S
C1050 C1051 1.349 . S
C1050 C1052 1.327 . S
C1050 H1075 0.950 . S
C1051 C1050 1.349 . S
C1051 C1067 1.349 . S
C1052 C1050 1.327 . S
C1052 C1071 1.429 . S
C1052 H1076 0.950 . S
C1053 C1070 1.574 . S
C1053 C1072 1.368 . S
C1053 H1077 0.949 . S
H1054 C1058 0.949 . S
C1055 C1056 1.349 . S
C1055 C1057 1.327 . S
C1055 H1078 0.950 . S
C1056 C1055 1.349 . S
C1056 C1068 1.349 . S
C1057 C1055 1.327 . S
C1057 C1073 1.429 . S
C1057 H1079 0.950 . S
C1058 H1054 0.949 . S
C1058 C1066 1.574 . S
C1058 C1074 1.368 . S
H1059 C1067 0.950 . S
H1060 C1065 0.950 . S
H1061 C1066 0.949 . S
H1062 C1068 0.950 . S
H1063 C1069 0.950 . S
H1064 C1070 0.949 . S
C1065 H1060 0.950 . S
C1065 C1067 1.327 . S
C1065 C1071 1.429 . S
C1066 C1058 1.574 . S
C1066 H1061 0.949 . S
C1066 C1072 1.368 . S
C1067 C1051 1.349 . S
C1067 H1059 0.950 . S
C1067 C1065 1.327 . S
C1068 C1056 1.349 . S
C1068 H1062 0.950 . S
C1068 C1069 1.327 . S
C1069 H1063 0.950 . S
C1069 C1068 1.327 . S
C1069 C1073 1.429 . S
C1070 C1053 1.574 . S
C1070 H1064 0.949 . S
C1070 C1074 1.368 . S
C1071 C1052 1.429 . S
C1071 C1065 1.429 . S
C1071 C1072 1.523 . S
C1072 C1053 1.368 . S
C1072 C1066 1.368 . S
C1072 C1071 1.523 . S
C1073 C1057 1.429 . S
C1073 C1069 1.429 . S
C1073 C1074 1.523 . S
C1074 C1058 1.368 . S
C1074 C1070 1.368 . S
C1074 C1073 1.523 . S
H1075 C1050 0.950 . S
H1076 C1052 0.950 . S
H1077 C1053 0.949 . S
H1078 C1055 0.950 . S
H1079 C1057 0.950 . S
C1080 C1081 1.349 . S
C1080 C1082 1.327 . S
C1080 H1105 0.950 . S
C1081 C1080 1.349 . S
C1081 C1097 1.349 . S
C1082 C1080 1.327 . S
C1082 C1101 1.429 . S
C1082 H1106 0.950 . S
C1083 C1100 1.574 . S
C1083 C1102 1.368 . S
C1083 H1107 0.949 . S
H1084 C1088 0.949 . S
C1085 C1086 1.349 . S
C1085 C1087 1.327 . S
C1085 H1108 0.950 . S
C1086 C1085 1.349 . S
C1086 C1098 1.349 . S
C1087 C1085 1.327 . S
C1087 C1103 1.429 . S
C1087 H1109 0.950 . S
C1088 H1084 0.949 . S
C1088 C1096 1.574 . S
C1088 C1104 1.368 . S
H1089 C1097 0.950 . S
H1090 C1095 0.950 . S
H1091 C1096 0.949 . S
H1092 C1098 0.950 . S
H1093 C1099 0.950 . S
H1094 C1100 0.949 . S
C1095 H1090 0.950 . S
C1095 C1097 1.327 . S
C1095 C1101 1.429 . S
C1096 C1088 1.574 . S
C1096 H1091 0.949 . S
C1096 C1102 1.368 . S
C1097 C1081 1.349 . S
C1097 H1089 0.950 . S
C1097 C1095 1.327 . S
C1098 C1086 1.349 . S
C1098 H1092 0.950 . S
C1098 C1099 1.327 . S
C1099 H1093 0.950 . S
C1099 C1098 1.327 . S
C1099 C1103 1.429 . S
C1100 C1083 1.574 . S
C1100 H1094 0.949 . S
C1100 C1104 1.368 . S
C1101 C1082 1.429 . S
C1101 C1095 1.429 . S
C1101 C1102 1.523 . S
C1102 C1083 1.368 . S
C1102 C1096 1.368 . S
C1102 C1101 1.523 . S
C1103 C1087 1.429 . S
C1103 C1099 1.429 . S
C1103 C1104 1.523 . S
C1104 C1088 1.368 . S
C1104 C1100 1.368 . S
C1104 C1103 1.523 . S
H1105 C1080 0.950 . S
H1106 C1082 0.950 . S
H1107 C1083 0.949 . S
H1108 C1085 0.950 . S
H1109 C1087 0.950 . S
C1110 C1111 1.349 . S
C1110 C1112 1.327 . S
C1110 H1135 0.950 . S
C1111 C1110 1.349 . S
C1111 C1127 1.349 . S
C1112 C1110 1.327 . S
C1112 C1131 1.429 . S
C1112 H1136 0.950 . S
C1113 C1130 1.574 . S
C1113 C1132 1.368 . S
C1113 H1137 0.949 . S
H1114 C1118 0.949 . S
C1115 C1116 1.349 . S
C1115 C1117 1.327 . S
C1115 H1138 0.950 . S
C1116 C1115 1.349 . S
C1116 C1128 1.349 . S
C1117 C1115 1.327 . S
C1117 C1133 1.429 . S
C1117 H1139 0.950 . S
C1118 H1114 0.949 . S
C1118 C1126 1.574 . S
C1118 C1134 1.368 . S
H1119 C1127 0.950 . S
H1120 C1125 0.950 . S
H1121 C1126 0.949 . S
H1122 C1128 0.950 . S
H1123 C1129 0.950 . S
H1124 C1130 0.949 . S
C1125 H1120 0.950 . S
C1125 C1127 1.327 . S
C1125 C1131 1.429 . S
C1126 C1118 1.574 . S
C1126 H1121 0.949 . S
C1126 C1132 1.368 1_545 S
C1127 C1111 1.349 . S
C1127 H1119 0.950 . S
C1127 C1125 1.327 . S
C1128 C1116 1.349 . S
C1128 H1122 0.950 . S
C1128 C1129 1.327 . S
C1129 H1123 0.950 . S
C1129 C1128 1.327 . S
C1129 C1133 1.429 . S
C1130 C1113 1.574 . S
C1130 H1124 0.949 . S
C1130 C1134 1.368 1_565 S
C1131 C1112 1.429 . S
C1131 C1125 1.429 . S
C1131 C1132 1.523 . S
C1132 C1113 1.368 . S
C1132 C1126 1.368 1_565 S
C1132 C1131 1.523 . S
C1133 C1117 1.429 . S
C1133 C1129 1.429 . S
C1133 C1134 1.523 . S
C1134 C1118 1.368 . S
C1134 C1130 1.368 1_545 S
C1134 C1133 1.523 . S
H1135 C1110 0.950 . S
H1136 C1112 0.950 . S
H1137 C1113 0.949 . S
H1138 C1115 0.950 . S
H1139 C1117 0.950 . S
C1140 C1141 1.349 . S
C1140 C1142 1.327 . S
C1140 H1165 0.950 . S
C1141 C1140 1.349 . S
C1141 C1157 1.349 . S
C1142 C1140 1.327 . S
C1142 C1161 1.429 . S
C1142 H1166 0.950 . S
C1143 C1160 1.568 1_655 S
C1143 C1162 1.368 . S
C1143 H1167 0.949 . S
H1144 C1148 0.949 . S
C1145 C1146 1.349 . S
C1145 C1147 1.327 . S
C1145 H1168 0.950 . S
C1146 C1145 1.349 . S
C1146 C1158 1.349 . S
C1147 C1145 1.327 . S
C1147 C1163 1.429 . S
C1147 H1169 0.950 . S
C1148 H1144 0.949 . S
C1148 C1156 1.574 . S
C1148 C1164 1.368 . S
H1149 C1157 0.950 . S
H1150 C1155 0.950 . S
H1151 C1156 0.949 . S
H1152 C1158 0.950 . S
H1153 C1159 0.950 . S
H1154 C1160 0.948 1_655 S
C1155 H1150 0.950 . S
C1155 C1157 1.327 . S
C1155 C1161 1.429 . S
C1156 C1148 1.574 . S
C1156 H1151 0.949 . S
C1156 C1162 1.368 1_455 S
C1157 C1141 1.349 . S
C1157 H1149 0.950 . S
C1157 C1155 1.327 . S
C1158 C1146 1.349 . S
C1158 H1152 0.950 . S
C1158 C1159 1.327 . S
C1159 H1153 0.950 . S
C1159 C1158 1.327 . S
C1159 C1163 1.429 . S
C1160 C1143 1.568 1_455 S
C1160 H1154 0.948 1_455 S
C1160 C1164 1.375 . S
C1161 C1142 1.429 . S
C1161 C1155 1.429 . S
C1161 C1162 1.523 . S
C1162 C1143 1.368 . S
C1162 C1156 1.368 1_655 S
C1162 C1161 1.523 . S
C1163 C1147 1.429 . S
C1163 C1159 1.429 . S
C1163 C1164 1.523 . S
C1164 C1148 1.368 . S
C1164 C1160 1.375 . S
C1164 C1163 1.523 . S
H1165 C1140 0.950 . S
H1166 C1142 0.950 . S
H1167 C1143 0.949 . S
H1168 C1145 0.950 . S
H1169 C1147 0.950 . S
C361 C49 0.530 . S
C366 C26 0.372 . S
C391 C83 3.249 1_556 S
C396 C62 3.297 . S
C421 C106 1.024 . S
C426 C3 1.017 . S
C451 C102 3.064 . S
C456 C43 3.039 . S
C481 C89 2.002 . S
C486 C22 2.093 . S
C511 C9 0.573 . S
C516 C66 0.328 . S
C541 C146 2.844 . S
C546 C163 2.805 . S
C571 C203 0.653 . S
C576 C186 0.629 . S
C601 C226 0.887 . S
C606 C123 0.883 . S
C631 C169 0.489 . S
C636 C222 0.331 . S
C661 C209 2.070 . S
C666 C142 2.159 . S
C691 C182 2.427 . S
C696 C129 2.396 . S
C721 C289 0.522 . S
C726 C266 0.321 . S
C751 C302 3.323 . S
C756 C323 3.277 . S
C781 C346 1.025 . S
C786 C243 1.018 . S
C811 C342 2.985 . S
C816 C283 2.962 . S
C841 C329 2.008 1_455 S
C846 C262 2.099 . S
C871 C249 0.546 . S
C876 C306 0.304 . S
C901 C215 2.286 . S
C906 C2 2.559 . S
C931 C135 1.991 . S
C936 C55 1.963 . S
C961 C82 2.981 . S
C966 C175 2.730 . S
C991 C95 2.299 . S
C996 C242 2.565 . S
C1021 C15 1.884 . S
C1026 C295 1.859 . S
C1051 C322 2.965 . S
C1056 C42 2.969 . S
C1081 C122 2.624 . S
C1086 C335 2.348 . S
C1111 C162 2.072 . S
C1116 C255 1.893 . S
C1141 C282 2.863 . S
C1146 C202 2.858 . S
