# Generated by pormake.
# Topology cbo, (4)-cn, num edge types: 1
# Building blocks:
#     Node 0, Type 0, BuildingBlock: ESEHIV_clean_sbu_0, # of connection points: 4
#     Node 1, Type 0, BuildingBlock: ESEHIV_clean_sbu_0, # of connection points: 4
#     Node 2, Type 0, BuildingBlock: ESEHIV_clean_sbu_0, # of connection points: 4
#     Node 3, Type 0, BuildingBlock: ESEHIV_clean_sbu_0, # of connection points: 4
#     Node 4, Type 0, BuildingBlock: ESEHIV_clean_sbu_0, # of connection points: 4
#     Node 5, Type 0, BuildingBlock: ESEHIV_clean_sbu_0, # of connection points: 4
#     Node 6, Type 0, BuildingBlock: ESEHIV_clean_sbu_0, # of connection points: 4
#     Node 7, Type 0, BuildingBlock: ESEHIV_clean_sbu_0, # of connection points: 4
#     Node 8, Type 0, BuildingBlock: ESEHIV_clean_sbu_0, # of connection points: 4
#     Node 9, Type 0, BuildingBlock: ESEHIV_clean_sbu_0, # of connection points: 4
#     Node 10, Type 0, BuildingBlock: ESEHIV_clean_sbu_0, # of connection points: 4
#     Node 11, Type 0, BuildingBlock: ESEHIV_clean_sbu_0, # of connection points: 4
#     Node 12, Type 0, BuildingBlock: ESEHIV_clean_sbu_0, # of connection points: 4
#     Node 13, Type 0, BuildingBlock: ESEHIV_clean_sbu_0, # of connection points: 4
#     Node 14, Type 0, BuildingBlock: ESEHIV_clean_sbu_0, # of connection points: 4
#     Node 15, Type 0, BuildingBlock: ESEHIV_clean_sbu_0, # of connection points: 4
#     Node 16, Type 0, BuildingBlock: ESEHIV_clean_sbu_0, # of connection points: 4
#     Node 17, Type 0, BuildingBlock: ESEHIV_clean_sbu_0, # of connection points: 4
#     Node 18, Type 0, BuildingBlock: ESEHIV_clean_sbu_0, # of connection points: 4
#     Node 19, Type 0, BuildingBlock: ESEHIV_clean_sbu_0, # of connection points: 4
#     Node 20, Type 0, BuildingBlock: ESEHIV_clean_sbu_0, # of connection points: 4
#     Node 21, Type 0, BuildingBlock: ESEHIV_clean_sbu_0, # of connection points: 4
#     Node 22, Type 0, BuildingBlock: ESEHIV_clean_sbu_0, # of connection points: 4
#     Node 23, Type 0, BuildingBlock: ESEHIV_clean_sbu_0, # of connection points: 4
#     Edge 24, Type (0, 0), BuildingBlock: XIVTED_clean_linker_0, # of connection points: 2
#     Edge 25, Type (0, 0), BuildingBlock: XIVTED_clean_linker_0, # of connection points: 2
#     Edge 26, Type (0, 0), BuildingBlock: XIVTED_clean_linker_0, # of connection points: 2
#     Edge 27, Type (0, 0), BuildingBlock: XIVTED_clean_linker_0, # of connection points: 2
#     Edge 28, Type (0, 0), BuildingBlock: XIVTED_clean_linker_0, # of connection points: 2
#     Edge 29, Type (0, 0), BuildingBlock: XIVTED_clean_linker_0, # of connection points: 2
#     Edge 30, Type (0, 0), BuildingBlock: XIVTED_clean_linker_0, # of connection points: 2
#     Edge 31, Type (0, 0), BuildingBlock: XIVTED_clean_linker_0, # of connection points: 2
#     Edge 32, Type (0, 0), BuildingBlock: XIVTED_clean_linker_0, # of connection points: 2
#     Edge 33, Type (0, 0), BuildingBlock: XIVTED_clean_linker_0, # of connection points: 2
#     Edge 34, Type (0, 0), BuildingBlock: XIVTED_clean_linker_0, # of connection points: 2
#     Edge 35, Type (0, 0), BuildingBlock: XIVTED_clean_linker_0, # of connection points: 2
#     Edge 36, Type (0, 0), BuildingBlock: XIVTED_clean_linker_0, # of connection points: 2
#     Edge 37, Type (0, 0), BuildingBlock: XIVTED_clean_linker_0, # of connection points: 2
#     Edge 38, Type (0, 0), BuildingBlock: XIVTED_clean_linker_0, # of connection points: 2
#     Edge 39, Type (0, 0), BuildingBlock: XIVTED_clean_linker_0, # of connection points: 2
#     Edge 40, Type (0, 0), BuildingBlock: XIVTED_clean_linker_0, # of connection points: 2
#     Edge 41, Type (0, 0), BuildingBlock: XIVTED_clean_linker_0, # of connection points: 2
#     Edge 42, Type (0, 0), BuildingBlock: XIVTED_clean_linker_0, # of connection points: 2
#     Edge 43, Type (0, 0), BuildingBlock: XIVTED_clean_linker_0, # of connection points: 2
#     Edge 44, Type (0, 0), BuildingBlock: XIVTED_clean_linker_0, # of connection points: 2
#     Edge 45, Type (0, 0), BuildingBlock: XIVTED_clean_linker_0, # of connection points: 2
#     Edge 46, Type (0, 0), BuildingBlock: XIVTED_clean_linker_0, # of connection points: 2
#     Edge 47, Type (0, 0), BuildingBlock: XIVTED_clean_linker_0, # of connection points: 2
#     Edge 48, Type (0, 0), BuildingBlock: XIVTED_clean_linker_0, # of connection points: 2
#     Edge 49, Type (0, 0), BuildingBlock: XIVTED_clean_linker_0, # of connection points: 2
#     Edge 50, Type (0, 0), BuildingBlock: XIVTED_clean_linker_0, # of connection points: 2
#     Edge 51, Type (0, 0), BuildingBlock: XIVTED_clean_linker_0, # of connection points: 2
#     Edge 52, Type (0, 0), BuildingBlock: XIVTED_clean_linker_0, # of connection points: 2
#     Edge 53, Type (0, 0), BuildingBlock: XIVTED_clean_linker_0, # of connection points: 2
#     Edge 54, Type (0, 0), BuildingBlock: XIVTED_clean_linker_0, # of connection points: 2
#     Edge 55, Type (0, 0), BuildingBlock: XIVTED_clean_linker_0, # of connection points: 2
#     Edge 56, Type (0, 0), BuildingBlock: XIVTED_clean_linker_0, # of connection points: 2
#     Edge 57, Type (0, 0), BuildingBlock: XIVTED_clean_linker_0, # of connection points: 2
#     Edge 58, Type (0, 0), BuildingBlock: XIVTED_clean_linker_0, # of connection points: 2
#     Edge 59, Type (0, 0), BuildingBlock: XIVTED_clean_linker_0, # of connection points: 2
#     Edge 60, Type (0, 0), BuildingBlock: XIVTED_clean_linker_0, # of connection points: 2
#     Edge 61, Type (0, 0), BuildingBlock: XIVTED_clean_linker_0, # of connection points: 2
#     Edge 62, Type (0, 0), BuildingBlock: XIVTED_clean_linker_0, # of connection points: 2
#     Edge 63, Type (0, 0), BuildingBlock: XIVTED_clean_linker_0, # of connection points: 2
#     Edge 64, Type (0, 0), BuildingBlock: XIVTED_clean_linker_0, # of connection points: 2
#     Edge 65, Type (0, 0), BuildingBlock: XIVTED_clean_linker_0, # of connection points: 2
#     Edge 66, Type (0, 0), BuildingBlock: XIVTED_clean_linker_0, # of connection points: 2
#     Edge 67, Type (0, 0), BuildingBlock: XIVTED_clean_linker_0, # of connection points: 2
#     Edge 68, Type (0, 0), BuildingBlock: XIVTED_clean_linker_0, # of connection points: 2
#     Edge 69, Type (0, 0), BuildingBlock: XIVTED_clean_linker_0, # of connection points: 2
#     Edge 70, Type (0, 0), BuildingBlock: XIVTED_clean_linker_0, # of connection points: 2
#     Edge 71, Type (0, 0), BuildingBlock: XIVTED_clean_linker_0, # of connection points: 2
# Relax obj value: 0.118
# Max RMSD: 0.287
# Mean RMSD: 0.269
data_MOF--net-cbo--node1-ESEHIV_clean_sbu_0--edge1-XIVTED_clean_linker_0
_symmetry_space_group_name_H-M    P1
_symmetry_Int_Tables_number       1
_symmetry_cell_setting            triclinic
loop_
_symmetry_equiv_pos_as_xyz
'x, y, z'
_cell_length_a     55.135876
_cell_length_b     60.083772
_cell_length_c     56.622984
_cell_angle_alpha  90.102113
_cell_angle_beta   89.982999
_cell_angle_gamma 90.025795
loop_
_atom_site_label
_atom_site_type_symbol
_atom_site_fract_x
_atom_site_fract_y
_atom_site_fract_z
_atom_type_partial_charge
Cu0 Cu 0.11968 0.17244 0.31943 0.0
N1 N 0.1359 0.18111 0.3468 0.0
N2 N 0.14607 0.18765 0.3844 0.0
C3 C 0.12934 0.1788 0.36962 0.0
C4 C 0.16374 0.19567 0.37024 0.0
C5 C 0.15741 0.19161 0.34715 0.0
O6 O 0.09248 0.15326 0.32669 0.0
C7 C 0.15649 0.14301 0.30135 0.0
O8 O 0.15337 0.13123 0.32064 0.0
H9 H 0.11255 0.17109 0.3752 0.0
H10 H 0.16777 0.19596 0.33159 0.0
N11 N 0.10686 0.19754 0.30487 0.0
N12 N 0.09879 0.22282 0.27702 0.0
C13 C 0.11297 0.20551 0.2835 0.0
C14 C 0.08824 0.21014 0.31232 0.0
C15 C 0.08324 0.2258 0.29522 0.0
C16 C 0.08167 0.14217 0.3107 0.0
O17 O 0.09113 0.14132 0.28942 0.0
H18 H 0.12741 0.19852 0.27292 0.0
H19 H 0.07859 0.20771 0.32875 0.0
O20 O 0.14315 0.1599 0.29762 0.0
H21 H 0.18029 0.20362 0.37611 0.0
H22 H 0.06879 0.23795 0.29594 0.0
Cu23 Cu 0.40176 0.84222 0.82101 0.0
N24 N 0.38811 0.84582 0.85118 0.0
N25 N 0.37781 0.84316 0.88937 0.0
C26 C 0.39256 0.83554 0.87198 0.0
C27 C 0.36379 0.85877 0.87908 0.0
C28 C 0.37015 0.86034 0.85571 0.0
O29 O 0.43262 0.85785 0.81743 0.0
C30 C 0.37201 0.87199 0.79265 0.0
O31 O 0.38427 0.88876 0.80159 0.0
H32 H 0.40608 0.8227 0.87429 0.0
H33 H 0.36214 0.87136 0.84284 0.0
N34 N 0.40707 0.81241 0.8133 0.0
N35 N 0.41032 0.78243 0.78997 0.0
C36 C 0.40348 0.80396 0.79156 0.0
C37 C 0.41656 0.7957 0.82608 0.0
C38 C 0.41848 0.77712 0.81176 0.0
C39 C 0.44535 0.86486 0.83469 0.0
O40 O 0.43681 0.86321 0.85626 0.0
H41 H 0.39609 0.8136 0.77715 0.0
H42 H 0.42227 0.79706 0.84429 0.0
O43 O 0.37756 0.85217 0.79838 0.0
H44 H 0.35006 0.86864 0.88787 0.0
H45 H 0.42596 0.76119 0.81685 0.0
Cu46 Cu 0.61872 0.3507 0.70542 0.0
N47 N 0.6353 0.34049 0.67883 0.0
N48 N 0.64608 0.33226 0.64173 0.0
C49 C 0.62913 0.34178 0.65581 0.0
C50 C 0.66348 0.32488 0.65658 0.0
C51 C 0.65677 0.32996 0.67935 0.0
O52 O 0.5907 0.36818 0.69643 0.0
C53 C 0.65684 0.38051 0.71808 0.0
O54 O 0.65671 0.38605 0.69564 0.0
H55 H 0.61249 0.3493 0.64961 0.0
H56 H 0.66687 0.32635 0.69526 0.0
N57 N 0.60733 0.3263 0.72236 0.0
N58 N 0.60275 0.3011 0.751 0.0
C59 C 0.61619 0.31825 0.74278 0.0
C60 C 0.58769 0.31389 0.71741 0.0
C61 C 0.5848 0.29831 0.73504 0.0
C62 C 0.57844 0.37868 0.71188 0.0
O63 O 0.58647 0.37948 0.73371 0.0
H64 H 0.63181 0.32523 0.75168 0.0
H65 H 0.57614 0.3162 0.70217 0.0
O66 O 0.64125 0.36662 0.72565 0.0
H67 H 0.68013 0.31669 0.65141 0.0
H68 H 0.57066 0.28584 0.73593 0.0
Cu69 Cu 0.89851 0.66658 0.20101 0.0
N70 N 0.8872 0.66168 0.17021 0.0
N71 N 0.87914 0.66341 0.13149 0.0
C72 C 0.88863 0.67414 0.15042 0.0
C73 C 0.87129 0.64366 0.13983 0.0
C74 C 0.87628 0.64266 0.16357 0.0
O75 O 0.92946 0.65155 0.20543 0.0
C76 C 0.86936 0.63683 0.23016 0.0
O77 O 0.88396 0.62047 0.22423 0.0
H78 H 0.89701 0.6904 0.14973 0.0
H79 H 0.87245 0.62887 0.17524 0.0
N80 N 0.90289 0.69657 0.2085 0.0
N81 N 0.90498 0.72653 0.23203 0.0
C82 C 0.8985 0.70491 0.23014 0.0
C83 C 0.91268 0.7134 0.1961 0.0
C84 C 0.91391 0.73195 0.21055 0.0
C85 C 0.9458 0.65444 0.18981 0.0
O86 O 0.94073 0.66668 0.17126 0.0
H87 H 0.89156 0.6949 0.24449 0.0
H88 H 0.91912 0.71217 0.17812 0.0
O89 O 0.87335 0.65636 0.22244 0.0
H90 H 0.86242 0.63082 0.12956 0.0
H91 H 0.92105 0.74805 0.20561 0.0
Cu92 Cu 0.32941 0.1016 0.16042 0.0
N93 N 0.3256 0.0749 0.1439 0.0
N94 N 0.32642 0.03904 0.13317 0.0
C95 C 0.33266 0.05417 0.14987 0.0
C96 C 0.31497 0.05081 0.11622 0.0
C97 C 0.31449 0.07282 0.12288 0.0
O98 O 0.36275 0.10421 0.172 0.0
C99 C 0.30294 0.11998 0.19877 0.0
O100 O 0.31774 0.13689 0.19596 0.0
H101 H 0.34225 0.05034 0.16603 0.0
H102 H 0.30637 0.08639 0.11317 0.0
N103 N 0.32369 0.12474 0.13902 0.0
N104 N 0.31027 0.15638 0.12298 0.0
C105 C 0.30736 0.14136 0.14049 0.0
C106 C 0.33708 0.12918 0.11972 0.0
C107 C 0.32892 0.14872 0.10983 0.0
C108 C 0.37292 0.12325 0.17306 0.0
O109 O 0.36021 0.14108 0.16799 0.0
H110 H 0.29426 0.14291 0.15461 0.0
H111 H 0.35222 0.11922 0.11373 0.0
O112 O 0.30552 0.1028 0.18581 0.0
H113 H 0.30695 0.04398 0.10034 0.0
H114 H 0.3363 0.15677 0.09433 0.0
Cu115 Cu 0.19033 0.91151 0.66097 0.0
N116 N 0.19206 0.93766 0.64319 0.0
N117 N 0.19148 0.97335 0.63207 0.0
C118 C 0.19014 0.95899 0.65042 0.0
C119 C 0.19449 0.96054 0.61271 0.0
C120 C 0.19488 0.93862 0.61961 0.0
O121 O 0.15769 0.9089 0.67429 0.0
C122 C 0.21956 0.89467 0.698 0.0
O123 O 0.20443 0.87783 0.6968 0.0
H124 H 0.18748 0.96384 0.66865 0.0
H125 H 0.19713 0.92437 0.60815 0.0
N126 N 0.19508 0.88768 0.64022 0.0
N127 N 0.20973 0.85694 0.62309 0.0
C128 C 0.21294 0.87238 0.64022 0.0
C129 C 0.18019 0.88185 0.62246 0.0
C130 C 0.18915 0.86297 0.61185 0.0
C131 C 0.14788 0.88991 0.67742 0.0
O132 O 0.16072 0.87188 0.67343 0.0
H133 H 0.2276 0.8723 0.65289 0.0
H134 H 0.16379 0.89067 0.61776 0.0
O135 O 0.21607 0.91144 0.68471 0.0
H136 H 0.19668 0.96658 0.59484 0.0
H137 H 0.18108 0.85442 0.59697 0.0
Cu138 Cu 0.82699 0.41139 0.86431 0.0
N139 N 0.81924 0.43723 0.88108 0.0
N140 N 0.81621 0.47297 0.89184 0.0
C141 C 0.82481 0.45845 0.87558 0.0
C142 C 0.80479 0.46032 0.90809 0.0
C143 C 0.80664 0.43835 0.90138 0.0
O144 O 0.86008 0.4131 0.8528 0.0
C145 C 0.79737 0.41982 0.82329 0.0
O146 O 0.809 0.4388 0.82127 0.0
H147 H 0.83513 0.46307 0.86008 0.0
H148 H 0.79918 0.42415 0.91058 0.0
N149 N 0.82519 0.38687 0.88436 0.0
N150 N 0.81648 0.35264 0.89738 0.0
C151 C 0.81479 0.36718 0.87925 0.0
C152 C 0.83393 0.38483 0.90641 0.0
C153 C 0.82855 0.36376 0.91452 0.0
C154 C 0.86746 0.40237 0.83481 0.0
O155 O 0.8518 0.39088 0.82224 0.0
H156 H 0.80639 0.36363 0.8624 0.0
H157 H 0.84339 0.39781 0.91593 0.0
O158 O 0.80311 0.40639 0.83969 0.0
H159 H 0.79531 0.46651 0.9235 0.0
H160 H 0.83286 0.35735 0.93186 0.0
Cu161 Cu 0.69302 0.59692 0.3684 0.0
N162 N 0.6967 0.57133 0.38671 0.0
N163 N 0.6971 0.53591 0.39882 0.0
C164 C 0.69228 0.54997 0.38077 0.0
C165 C 0.70488 0.54901 0.41668 0.0
C166 C 0.70462 0.57076 0.40916 0.0
O167 O 0.65991 0.59808 0.35606 0.0
C168 C 0.72023 0.61336 0.32954 0.0
O169 O 0.70458 0.62978 0.33047 0.0
H170 H 0.68552 0.54494 0.36363 0.0
H171 H 0.71005 0.58519 0.41931 0.0
N172 N 0.69761 0.62144 0.3882 0.0
N173 N 0.71175 0.6532 0.40352 0.0
C174 C 0.71483 0.63728 0.38688 0.0
C175 C 0.68325 0.62738 0.40633 0.0
C176 C 0.6919 0.64694 0.41582 0.0
C177 C 0.64963 0.61666 0.35185 0.0
O178 O 0.66201 0.63515 0.35463 0.0
H179 H 0.72926 0.63713 0.37394 0.0
H180 H 0.66729 0.61832 0.4119 0.0
O181 O 0.71787 0.59711 0.34376 0.0
H182 H 0.71086 0.54329 0.43382 0.0
H183 H 0.68371 0.65615 0.4302 0.0
Cu184 Cu 0.15896 0.33369 0.10289 0.0
N185 N 0.15754 0.36137 0.11813 0.0
N186 N 0.15915 0.39757 0.1271 0.0
C187 C 0.16385 0.38189 0.11055 0.0
C188 C 0.15006 0.38651 0.14579 0.0
C189 C 0.1493 0.36427 0.1403 0.0
O190 O 0.14508 0.33318 0.07133 0.0
C191 C 0.12183 0.31325 0.13134 0.0
O192 O 0.10804 0.33033 0.12594 0.0
H193 H 0.17127 0.38529 0.09322 0.0
H194 H 0.14326 0.35108 0.15183 0.0
N195 N 0.19088 0.32393 0.10058 0.0
N196 N 0.22178 0.2998 0.10155 0.0
C197 C 0.19849 0.30378 0.10768 0.0
C198 C 0.20994 0.33331 0.08967 0.0
C199 C 0.22909 0.31848 0.09029 0.0
C200 C 0.13306 0.34842 0.06103 0.0
O201 O 0.12823 0.36705 0.07223 0.0
H202 H 0.18681 0.29214 0.11674 0.0
H203 H 0.20966 0.34941 0.08115 0.0
O204 O 0.143 0.31177 0.12258 0.0
H205 H 0.1447 0.39397 0.1624 0.0
H206 H 0.24666 0.32103 0.08222 0.0
Cu207 Cu 0.66959 0.18015 0.91951 0.0
N208 N 0.66117 0.15149 0.90942 0.0
N209 N 0.66018 0.11482 0.90252 0.0
C210 C 0.67276 0.13188 0.91227 0.0
C211 C 0.64014 0.12414 0.89312 0.0
C212 C 0.64084 0.14663 0.89736 0.0
O213 O 0.6583 0.18618 0.95142 0.0
C214 C 0.63531 0.20795 0.89385 0.0
O215 O 0.61785 0.20011 0.90726 0.0
H216 H 0.68986 0.13014 0.92146 0.0
H217 H 0.6274 0.15867 0.89194 0.0
N218 N 0.70296 0.1849 0.91907 0.0
N219 N 0.7368 0.20511 0.91522 0.0
C220 C 0.71304 0.20333 0.90991 0.0
C221 C 0.72096 0.17443 0.93063 0.0
C222 C 0.74193 0.18691 0.92828 0.0
C223 C 0.64098 0.17605 0.96167 0.0
O224 O 0.62865 0.16086 0.95007 0.0
H225 H 0.70263 0.21607 0.90101 0.0
H226 H 0.7187 0.15954 0.9411 0.0
O227 O 0.65701 0.2015 0.89701 0.0
H228 H 0.62615 0.1154 0.88342 0.0
H229 H 0.7593 0.18328 0.93628 0.0
Cu230 Cu 0.85888 0.83633 0.41332 0.0
N231 N 0.84943 0.86124 0.39609 0.0
N232 N 0.84535 0.89574 0.38208 0.0
C233 C 0.85416 0.883 0.39978 0.0
C234 C 0.83462 0.88147 0.36691 0.0
C235 C 0.83712 0.86026 0.37563 0.0
O236 O 0.87651 0.84457 0.4417 0.0
C237 C 0.88955 0.82321 0.37536 0.0
O238 O 0.8947 0.84451 0.37384 0.0
H239 H 0.86443 0.88926 0.41467 0.0
H240 H 0.83082 0.84504 0.36744 0.0
N241 N 0.83103 0.82146 0.42289 0.0
N242 N 0.80282 0.79503 0.42662 0.0
C243 C 0.82347 0.80129 0.41563 0.0
C244 C 0.81468 0.82829 0.43895 0.0
C245 C 0.79724 0.81201 0.44132 0.0
C246 C 0.88756 0.83002 0.45396 0.0
O247 O 0.88931 0.8096 0.4458 0.0
H248 H 0.83324 0.79125 0.40291 0.0
H249 H 0.81552 0.84396 0.44835 0.0
O250 O 0.87624 0.81637 0.39222 0.0
H251 H 0.82561 0.88605 0.35065 0.0
H252 H 0.7816 0.81272 0.45284 0.0
Cu253 Cu 0.36366 0.67797 0.60429 0.0
N254 N 0.34813 0.65324 0.6172 0.0
N255 N 0.33972 0.61889 0.62992 0.0
C256 C 0.3558 0.63196 0.61837 0.0
C257 C 0.32125 0.63251 0.63598 0.0
C258 C 0.3265 0.65361 0.62812 0.0
O259 O 0.38338 0.66904 0.57748 0.0
C260 C 0.38808 0.68523 0.64803 0.0
O261 O 0.38609 0.66358 0.65055 0.0
H262 H 0.37307 0.62639 0.61148 0.0
H263 H 0.3154 0.66831 0.63034 0.0
N264 N 0.33966 0.69666 0.59258 0.0
N265 N 0.31247 0.72401 0.58953 0.0
C266 C 0.33009 0.71483 0.60293 0.0
C267 C 0.32783 0.69425 0.57198 0.0
C268 C 0.31102 0.71108 0.57004 0.0
C269 C 0.39364 0.68351 0.56446 0.0
O270 O 0.39343 0.70446 0.57115 0.0
H271 H 0.33562 0.72087 0.62012 0.0
H272 H 0.33118 0.68109 0.55933 0.0
O273 O 0.38103 0.69422 0.62887 0.0
H274 H 0.30499 0.6276 0.64532 0.0
H275 H 0.29884 0.71369 0.55532 0.0
Cu276 Cu 0.92511 0.84343 0.69594 0.0
N277 N 0.90976 0.84099 0.66661 0.0
N278 N 0.90129 0.84132 0.62804 0.0
C279 C 0.91901 0.84193 0.64455 0.0
C280 C 0.8803 0.83976 0.64014 0.0
C281 C 0.88559 0.83944 0.66386 0.0
O282 O 0.95896 0.85199 0.69254 0.0
C283 C 0.8954 0.88065 0.70699 0.0
O284 O 0.89945 0.88642 0.68497 0.0
H285 H 0.93814 0.84372 0.6407 0.0
H286 H 0.87268 0.83867 0.67823 0.0
N287 N 0.92416 0.81581 0.71084 0.0
N288 N 0.91897 0.78982 0.73865 0.0
C289 C 0.91788 0.81175 0.73342 0.0
C290 C 0.9294 0.79586 0.70138 0.0
C291 C 0.92623 0.77979 0.71847 0.0
C292 C 0.96764 0.87141 0.69566 0.0
O293 O 0.95304 0.88791 0.70108 0.0
H294 H 0.91281 0.82472 0.74575 0.0
H295 H 0.93497 0.7932 0.68327 0.0
O296 O 0.9062 0.86371 0.71539 0.0
H297 H 0.86239 0.83893 0.63235 0.0
H298 H 0.92865 0.76207 0.71601 0.0
Cu299 Cu 0.59055 0.17701 0.19974 0.0
N300 N 0.60291 0.19077 0.17277 0.0
N301 N 0.61295 0.19746 0.13514 0.0
C302 C 0.60159 0.18351 0.15028 0.0
C303 C 0.62155 0.21418 0.14877 0.0
C304 C 0.61533 0.21 0.17191 0.0
O305 O 0.56101 0.16145 0.19131 0.0
C306 C 0.62992 0.14656 0.20132 0.0
O307 O 0.62731 0.14591 0.17828 0.0
H308 H 0.59294 0.16803 0.14528 0.0
H309 H 0.6196 0.22021 0.18711 0.0
N310 N 0.58258 0.19888 0.22175 0.0
N311 N 0.58415 0.22148 0.25312 0.0
C312 C 0.59539 0.2051 0.2409 0.0
C313 C 0.56257 0.21164 0.22179 0.0
C314 C 0.56348 0.22563 0.24109 0.0
C315 C 0.54956 0.14849 0.20512 0.0
O316 O 0.55894 0.14358 0.22578 0.0
H317 H 0.61274 0.19792 0.24555 0.0
H318 H 0.54829 0.21074 0.20873 0.0
O319 O 0.61517 0.158 0.21363 0.0
H320 H 0.63151 0.22853 0.14254 0.0
H321 H 0.5498 0.23768 0.24601 0.0
Cu322 Cu 0.42836 0.66288 0.32282 0.0
N323 N 0.41373 0.66381 0.35263 0.0
N324 N 0.40659 0.66366 0.39148 0.0
C325 C 0.42371 0.66475 0.37439 0.0
C326 C 0.3852 0.66221 0.38005 0.0
C327 C 0.38965 0.66244 0.35617 0.0
O328 O 0.46207 0.65359 0.32445 0.0
C329 C 0.39852 0.62616 0.30892 0.0
O330 O 0.40309 0.61814 0.33002 0.0
H331 H 0.44304 0.66564 0.37764 0.0
H332 H 0.37627 0.66134 0.34225 0.0
N333 N 0.42757 0.69113 0.3093 0.0
N334 N 0.42359 0.71783 0.28208 0.0
C335 C 0.42236 0.69577 0.28661 0.0
C336 C 0.43226 0.71083 0.3196 0.0
C337 C 0.42983 0.72735 0.30285 0.0
C338 C 0.46984 0.63567 0.33369 0.0
O339 O 0.45438 0.62159 0.34304 0.0
H340 H 0.41808 0.68312 0.27364 0.0
H341 H 0.43706 0.71301 0.33798 0.0
O342 O 0.40888 0.64404 0.30236 0.0
H343 H 0.36758 0.66118 0.38841 0.0
H344 H 0.43215 0.74501 0.30589 0.0
Cu345 Cu 0.08472 0.34378 0.82195 0.0
N346 N 0.09406 0.33092 0.85051 0.0
N347 N 0.10134 0.32507 0.88888 0.0
C348 C 0.09128 0.33879 0.87267 0.0
C349 C 0.11069 0.30798 0.87629 0.0
C350 C 0.10619 0.31164 0.85273 0.0
O351 O 0.05469 0.3603 0.82585 0.0
C352 C 0.12623 0.37237 0.82248 0.0
O353 O 0.12332 0.37276 0.8455 0.0
H354 H 0.08223 0.35431 0.87672 0.0
H355 H 0.11174 0.30119 0.83813 0.0
N356 N 0.07987 0.32101 0.80001 0.0
N357 N 0.08751 0.29682 0.77092 0.0
C358 C 0.09674 0.31269 0.78527 0.0
C359 C 0.05925 0.31002 0.79496 0.0
C360 C 0.06388 0.29512 0.77693 0.0
C361 C 0.04242 0.36632 0.80793 0.0
O362 O 0.05115 0.36251 0.78671 0.0
H363 H 0.11531 0.31851 0.78481 0.0
H364 H 0.04204 0.3128 0.80364 0.0
O365 O 0.11095 0.362 0.80971 0.0
H366 H 0.12075 0.29409 0.88347 0.0
H367 H 0.05094 0.28379 0.76903 0.0
Cu368 Cu 0.68811 0.92091 0.83199 0.0
N369 N 0.65933 0.91256 0.81692 0.0
N370 N 0.62054 0.90354 0.8099 0.0
C371 C 0.63733 0.90868 0.82652 0.0
C372 C 0.63263 0.90431 0.78914 0.0
C373 C 0.65642 0.90984 0.79354 0.0
O374 O 0.68183 0.94576 0.85308 0.0
C375 C 0.69417 0.88571 0.86593 0.0
O376 O 0.67429 0.89311 0.87604 0.0
H377 H 0.63385 0.90955 0.8453 0.0
H378 H 0.67062 0.91197 0.78054 0.0
N379 N 0.71041 0.93019 0.80926 0.0
N380 N 0.74395 0.93159 0.78709 0.0
C381 C 0.7315 0.92019 0.80371 0.0
C382 C 0.70937 0.94856 0.79578 0.0
C383 C 0.73001 0.94945 0.78204 0.0
C384 C 0.69896 0.95816 0.86046 0.0
O385 O 0.72147 0.95284 0.85534 0.0
H386 H 0.73745 0.90478 0.81168 0.0
H387 H 0.69476 0.96056 0.79616 0.0
O388 O 0.70243 0.89554 0.84777 0.0
H389 H 0.62484 0.90152 0.77186 0.0
H390 H 0.73454 0.9625 0.76966 0.0
Cu391 Cu 0.83629 0.09672 0.32456 0.0
N392 N 0.86464 0.11202 0.31692 0.0
N393 N 0.90341 0.12247 0.31499 0.0
C394 C 0.88792 0.10557 0.31946 0.0
C395 C 0.88941 0.14006 0.30933 0.0
C396 C 0.86552 0.13353 0.31043 0.0
O397 O 0.84381 0.0672 0.33625 0.0
C398 C 0.82846 0.12644 0.36251 0.0
O399 O 0.85192 0.12412 0.36576 0.0
H400 H 0.89334 0.08926 0.32559 0.0
H401 H 0.84978 0.14395 0.30764 0.0
N402 N 0.81755 0.09341 0.29744 0.0
N403 N 0.7865 0.0957 0.27216 0.0
C404 C 0.79545 0.1021 0.29336 0.0
C405 C 0.82287 0.0811 0.2783 0.0
C406 C 0.80379 0.08249 0.26265 0.0
C407 C 0.83919 0.05992 0.35685 0.0
O408 O 0.82929 0.07322 0.37256 0.0
H409 H 0.78624 0.11295 0.3057 0.0
H410 H 0.83935 0.07157 0.27605 0.0
O411 O 0.818 0.11489 0.34664 0.0
H412 H 0.89601 0.15656 0.30513 0.0
H413 H 0.8026 0.07402 0.24581 0.0
Cu414 Cu 0.1871 0.59345 0.18825 0.0
N415 N 0.15901 0.60417 0.2028 0.0
N416 N 0.12026 0.61317 0.20962 0.0
C417 C 0.13633 0.60472 0.19393 0.0
C418 C 0.13341 0.61806 0.22906 0.0
C419 C 0.15727 0.61251 0.22478 0.0
O420 O 0.17886 0.568 0.16879 0.0
C421 C 0.19198 0.63126 0.15796 0.0
O422 O 0.1684 0.62972 0.15511 0.0
H423 H 0.13172 0.59881 0.17644 0.0
H424 H 0.17234 0.61442 0.23685 0.0
N425 N 0.2088 0.58428 0.21149 0.0
N426 N 0.24256 0.58194 0.23326 0.0
C427 C 0.23179 0.59134 0.21428 0.0
C428 C 0.20476 0.56987 0.22916 0.0
C429 C 0.22552 0.56839 0.24264 0.0
C430 C 0.19495 0.55601 0.15888 0.0
O431 O 0.21785 0.56189 0.1605 0.0
H432 H 0.24033 0.60315 0.20252 0.0
H433 H 0.18778 0.56132 0.23221 0.0
O434 O 0.20292 0.61696 0.17059 0.0
H435 H 0.12641 0.62548 0.2451 0.0
H436 H 0.22757 0.55849 0.25845 0.0
Cu437 Cu 0.33144 0.41805 0.69515 0.0
N438 N 0.36146 0.4038 0.69702 0.0
N439 N 0.401 0.39587 0.69657 0.0
C440 C 0.38416 0.41221 0.69749 0.0
C441 C 0.38845 0.37662 0.69576 0.0
C442 C 0.36413 0.38157 0.69616 0.0
O443 O 0.33399 0.44902 0.68584 0.0
C444 C 0.31885 0.39253 0.65453 0.0
O445 O 0.34088 0.39721 0.64721 0.0
H446 H 0.38826 0.42983 0.69766 0.0
H447 H 0.34931 0.36979 0.69527 0.0
N448 N 0.31593 0.41677 0.72431 0.0
N449 N 0.28602 0.41253 0.75061 0.0
C450 C 0.29201 0.41363 0.7275 0.0
C451 C 0.32559 0.41779 0.74608 0.0
C452 C 0.30716 0.41521 0.76237 0.0
C453 C 0.34633 0.45637 0.66853 0.0
O454 O 0.35884 0.44244 0.65543 0.0
H455 H 0.27932 0.41216 0.71301 0.0
H456 H 0.3447 0.41989 0.74979 0.0
O457 O 0.31119 0.40106 0.67369 0.0
H458 H 0.39635 0.36015 0.69485 0.0
H459 H 0.30934 0.41475 0.78135 0.0
Cu460 Cu 0.82959 0.70108 0.91854 0.0
N461 N 0.82052 0.67485 0.90317 0.0
N462 N 0.81667 0.63903 0.89302 0.0
C463 C 0.82525 0.6536 0.90926 0.0
C464 C 0.80613 0.65169 0.87623 0.0
C465 C 0.80853 0.67371 0.88255 0.0
O466 O 0.84485 0.69418 0.94861 0.0
C467 C 0.86596 0.70899 0.88402 0.0
O468 O 0.86992 0.68749 0.88577 0.0
H469 H 0.83524 0.649 0.92495 0.0
H470 H 0.80218 0.68798 0.87271 0.0
N471 N 0.80184 0.71806 0.9239 0.0
N472 N 0.77486 0.74575 0.92135 0.0
C473 C 0.79654 0.73781 0.914 0.0
C474 C 0.78299 0.71324 0.93805 0.0
C475 C 0.76631 0.73029 0.93654 0.0
C476 C 0.84767 0.70891 0.96457 0.0
O477 O 0.84142 0.72957 0.96007 0.0
H478 H 0.80853 0.7462 0.90178 0.0
H479 H 0.78145 0.6983 0.94857 0.0
O480 O 0.85042 0.71807 0.89757 0.0
H481 H 0.79712 0.64549 0.86056 0.0
H482 H 0.74906 0.73097 0.94562 0.0
Cu483 Cu 0.33632 0.81093 0.10588 0.0
N484 N 0.33257 0.83744 0.12271 0.0
N485 N 0.33212 0.87328 0.13344 0.0
C486 C 0.33693 0.85856 0.11591 0.0
C487 C 0.32441 0.86083 0.15181 0.0
C488 C 0.32471 0.83881 0.14513 0.0
O489 O 0.34534 0.8169 0.07327 0.0
C490 C 0.37549 0.79943 0.13597 0.0
O491 O 0.38071 0.82074 0.13484 0.0
H492 H 0.34369 0.86295 0.0986 0.0
H493 H 0.3195 0.8247 0.15582 0.0
N494 N 0.3063 0.79672 0.10539 0.0
N495 N 0.27754 0.77071 0.10925 0.0
C496 C 0.3015 0.77536 0.11084 0.0
C497 C 0.28478 0.80596 0.10017 0.0
C498 C 0.26701 0.78999 0.10252 0.0
C499 C 0.365 0.81175 0.06281 0.0
O500 O 0.38242 0.80189 0.07466 0.0
H501 H 0.31538 0.76355 0.11581 0.0
H502 H 0.2822 0.82321 0.09532 0.0
O503 O 0.35841 0.79174 0.12322 0.0
H504 H 0.3185 0.86715 0.16876 0.0
H505 H 0.24777 0.79261 0.10001 0.0
Cu506 Cu 0.19361 0.20116 0.60043 0.0
N507 N 0.20493 0.17345 0.61081 0.0
N508 N 0.20748 0.13761 0.62116 0.0
C509 C 0.19381 0.15345 0.61064 0.0
C510 C 0.22792 0.14808 0.62813 0.0
C511 C 0.22627 0.17009 0.62176 0.0
O512 O 0.18061 0.1999 0.56858 0.0
C513 C 0.17892 0.21604 0.64433 0.0
O514 O 0.20132 0.2101 0.64908 0.0
H515 H 0.17586 0.15065 0.60356 0.0
H516 H 0.23961 0.18288 0.62522 0.0
N517 N 0.22 0.2205 0.59843 0.0
N518 N 0.24315 0.25098 0.60077 0.0
C519 C 0.2215 0.24167 0.60614 0.0
C520 C 0.24125 0.21628 0.58769 0.0
C521 C 0.2556 0.23498 0.58918 0.0
C522 C 0.16331 0.18831 0.56022 0.0
O523 O 0.15096 0.17499 0.57411 0.0
H524 H 0.20683 0.25014 0.61511 0.0
H525 H 0.24593 0.20066 0.57932 0.0
O526 O 0.17093 0.21324 0.62343 0.0
H527 H 0.24309 0.14035 0.63704 0.0
H528 H 0.27391 0.23651 0.58248 0.0
Cu529 Cu 0.69178 0.30757 0.42564 0.0
N530 N 0.69912 0.33434 0.41052 0.0
N531 N 0.70121 0.37006 0.39962 0.0
C532 C 0.69336 0.35551 0.41619 0.0
C533 C 0.71244 0.35749 0.38313 0.0
C534 C 0.7111 0.33557 0.3899 0.0
O535 O 0.68077 0.31145 0.45796 0.0
C536 C 0.65297 0.30001 0.39374 0.0
O537 O 0.64961 0.32159 0.39554 0.0
H538 H 0.68322 0.36008 0.43181 0.0
H539 H 0.71818 0.32138 0.38035 0.0
N540 N 0.72024 0.29105 0.42761 0.0
N541 N 0.74735 0.26362 0.42356 0.0
C542 C 0.72532 0.27147 0.41712 0.0
C543 C 0.73957 0.29584 0.44112 0.0
C544 C 0.75632 0.27901 0.43867 0.0
C545 C 0.66288 0.32255 0.46588 0.0
O546 O 0.64876 0.33343 0.45122 0.0
H547 H 0.71302 0.26323 0.40505 0.0
H548 H 0.74114 0.3104 0.45229 0.0
O549 O 0.66923 0.29075 0.40626 0.0
H550 H 0.72121 0.36367 0.36735 0.0
H551 H 0.7735 0.27802 0.44781 0.0
H552 H 0.14159 0.27271 0.14128 0.0
H553 H 0.07912 0.26355 0.2676 0.0
H554 H 0.08667 0.31869 0.16521 0.0
H555 H 0.12026 0.2102 0.23568 0.0
H556 H 0.08156 0.28408 0.23055 0.0
H557 H 0.1338 0.24955 0.1758 0.0
C558 C 0.12767 0.27781 0.15367 0.0
C559 C 0.11482 0.29772 0.1504 0.0
C560 C 0.08993 0.26782 0.23166 0.0
C561 C 0.10607 0.2714 0.19023 0.0
C562 C 0.08852 0.256 0.25286 0.0
C563 C 0.09964 0.23505 0.25504 0.0
C564 C 0.10272 0.25875 0.21249 0.0
C565 C 0.11179 0.2264 0.23521 0.0
C566 C 0.12324 0.26457 0.17341 0.0
C567 C 0.09696 0.30345 0.16701 0.0
N568 N 0.11311 0.23833 0.21489 0.0
N569 N 0.09331 0.29049 0.18638 0.0
H570 H 0.40975 0.7957 0.74399 0.0
H571 H 0.40003 0.67171 0.69276 0.0
H572 H 0.40951 0.73707 0.78795 0.0
H573 H 0.39214 0.73077 0.65014 0.0
H574 H 0.40763 0.69521 0.72725 0.0
H575 H 0.40689 0.77205 0.70916 0.0
C576 C 0.40898 0.77787 0.74642 0.0
C577 C 0.4096 0.76846 0.76913 0.0
C578 C 0.4044 0.70303 0.71033 0.0
C579 C 0.40668 0.74111 0.72897 0.0
C580 C 0.40014 0.68962 0.69056 0.0
C581 C 0.39532 0.69925 0.66847 0.0
C582 C 0.40388 0.7263 0.70804 0.0
C583 C 0.39571 0.72257 0.66679 0.0
C584 C 0.4075 0.76433 0.72641 0.0
C585 C 0.40918 0.74513 0.7709 0.0
N586 N 0.39978 0.73527 0.68631 0.0
N587 N 0.40764 0.73229 0.75112 0.0
H588 H 0.56908 0.27882 0.77702 0.0
H589 H 0.66784 0.23103 0.86706 0.0
H590 H 0.64538 0.29457 0.77399 0.0
H591 H 0.59095 0.21984 0.87535 0.0
H592 H 0.65957 0.25455 0.83307 0.0
H593 H 0.57637 0.2571 0.81281 0.0
C594 C 0.58738 0.27767 0.7838 0.0
C595 C 0.60666 0.28853 0.77237 0.0
C596 C 0.64445 0.24706 0.84233 0.0
C597 C 0.61509 0.26381 0.81351 0.0
C598 C 0.64915 0.23358 0.86179 0.0
C599 C 0.63005 0.22334 0.87408 0.0
C600 C 0.62044 0.25031 0.83486 0.0
C601 C 0.60623 0.2274 0.86643 0.0
C602 C 0.59149 0.26538 0.80435 0.0
C603 C 0.62992 0.28672 0.78226 0.0
N604 N 0.60211 0.24047 0.84721 0.0
N605 N 0.63347 0.27454 0.80216 0.0
H606 H 0.87674 0.71985 0.27086 0.0
H607 H 0.91698 0.83193 0.33592 0.0
H608 H 0.92987 0.76489 0.24159 0.0
H609 H 0.87504 0.77997 0.36913 0.0
H610 H 0.92204 0.80808 0.30115 0.0
H611 H 0.87551 0.7423 0.30655 0.0
C612 C 0.88832 0.73434 0.27189 0.0
C613 C 0.90359 0.74026 0.25302 0.0
C614 C 0.91192 0.80184 0.31614 0.0
C615 C 0.90192 0.76645 0.29413 0.0
C616 C 0.90908 0.81542 0.33605 0.0
C617 C 0.89549 0.808 0.3555 0.0
C618 C 0.90092 0.78075 0.31558 0.0
C619 C 0.88566 0.78645 0.35459 0.0
C620 C 0.88753 0.74725 0.29237 0.0
C621 C 0.91767 0.75967 0.25546 0.0
N622 N 0.88839 0.7737 0.33492 0.0
N623 N 0.91647 0.77206 0.2756 0.0
H624 H 0.27417 0.08673 0.21706 0.0
H625 H 0.17572 0.17068 0.26811 0.0
H626 H 0.28333 0.15807 0.21665 0.0
H627 H 0.18458 0.10519 0.29813 0.0
H628 H 0.21143 0.16433 0.24358 0.0
H629 H 0.23799 0.09134 0.24206 0.0
C630 C 0.26864 0.10332 0.22228 0.0
C631 C 0.28183 0.12205 0.21482 0.0
C632 C 0.20554 0.15133 0.25549 0.0
C633 C 0.24037 0.12739 0.24287 0.0
C634 C 0.18504 0.15486 0.26941 0.0
C635 C 0.17715 0.13845 0.28528 0.0
C636 C 0.21813 0.1311 0.25709 0.0
C637 C 0.19009 0.11832 0.28621 0.0
C638 C 0.24806 0.10591 0.23654 0.0
C639 C 0.27384 0.14315 0.22209 0.0
N640 N 0.20993 0.11515 0.27222 0.0
N641 N 0.25354 0.14525 0.2355 0.0
H642 H 0.34071 0.84089 0.77501 0.0
H643 H 0.25457 0.92649 0.7068 0.0
H644 H 0.35352 0.91179 0.77623 0.0
H645 H 0.2354 0.85845 0.72254 0.0
H646 H 0.29222 0.92169 0.72947 0.0
H647 H 0.30384 0.84714 0.75241 0.0
C648 C 0.33586 0.85782 0.77045 0.0
C649 C 0.3503 0.87585 0.77766 0.0
C650 C 0.27967 0.90789 0.72801 0.0
C651 C 0.30774 0.88314 0.75164 0.0
C652 C 0.25818 0.91061 0.71509 0.0
C653 C 0.24175 0.89285 0.71274 0.0
C654 C 0.28486 0.8872 0.73839 0.0
C655 C 0.24743 0.87264 0.72386 0.0
C656 C 0.31467 0.86138 0.75759 0.0
C657 C 0.34295 0.89738 0.7711 0.0
N658 N 0.26849 0.87036 0.73603 0.0
N659 N 0.32217 0.90044 0.75845 0.0
H660 H 0.76582 0.38491 0.82699 0.0
H661 H 0.69184 0.41203 0.7092 0.0
H662 H 0.78163 0.44223 0.78374 0.0
H663 H 0.66709 0.36643 0.7629 0.0
H664 H 0.72602 0.42233 0.7347 0.0
H665 H 0.73117 0.37649 0.80183 0.0
C666 C 0.76208 0.39572 0.81214 0.0
C667 C 0.77672 0.41434 0.80751 0.0
C668 C 0.71299 0.41018 0.74092 0.0
C669 C 0.73684 0.40472 0.77851 0.0
C670 C 0.69347 0.40429 0.72639 0.0
C671 C 0.67655 0.38831 0.73389 0.0
C672 C 0.71576 0.39983 0.76298 0.0
C673 C 0.67962 0.37884 0.75635 0.0
C674 C 0.74217 0.39094 0.79783 0.0
C675 C 0.77084 0.42772 0.788 0.0
N676 N 0.6989 0.38463 0.76998 0.0
N677 N 0.75139 0.42261 0.77416 0.0
H678 H 0.83402 0.66658 0.24211 0.0
H679 H 0.75716 0.58301 0.32272 0.0
H680 H 0.85471 0.5979 0.25182 0.0
H681 H 0.73244 0.64788 0.30063 0.0
H682 H 0.79362 0.5879 0.29832 0.0
H683 H 0.79771 0.65999 0.26541 0.0
C684 C 0.83098 0.65007 0.24917 0.0
C685 C 0.84753 0.63276 0.24492 0.0
C686 C 0.78011 0.60098 0.29876 0.0
C687 C 0.80562 0.62507 0.27182 0.0
C688 C 0.75929 0.5982 0.31266 0.0
C689 C 0.74167 0.61508 0.31378 0.0
C690 C 0.78341 0.62084 0.28607 0.0
C691 C 0.74546 0.6344 0.30038 0.0
C692 C 0.81012 0.6463 0.26247 0.0
C693 C 0.84247 0.61173 0.25461 0.0
N694 N 0.76589 0.63677 0.28724 0.0
N695 N 0.82197 0.60848 0.26766 0.0
H696 H 0.2638 0.16528 0.13549 0.0
H697 H 0.27068 0.2933 0.09744 0.0
H698 H 0.32725 0.19473 0.10376 0.0
H699 H 0.20377 0.25889 0.11329 0.0
H700 H 0.29256 0.25831 0.10256 0.0
H701 H 0.24236 0.20061 0.13074 0.0
C702 C 0.27324 0.17919 0.12758 0.0
C703 C 0.29732 0.17701 0.11994 0.0
C704 C 0.27307 0.25851 0.10492 0.0
C705 C 0.27292 0.21754 0.11442 0.0
C706 C 0.26049 0.27852 0.10192 0.0
C707 C 0.23518 0.27933 0.10492 0.0
C708 C 0.26033 0.23914 0.11112 0.0
C709 C 0.22321 0.25946 0.11108 0.0
C710 C 0.26097 0.19933 0.12476 0.0
C711 C 0.3086 0.19557 0.10959 0.0
N712 N 0.23587 0.24029 0.11399 0.0
N713 N 0.29634 0.21507 0.10721 0.0
H714 H 0.78129 0.33447 0.86957 0.0
H715 H 0.77479 0.22035 0.94152 0.0
H716 H 0.82934 0.31925 0.92758 0.0
H717 H 0.7331 0.234 0.87874 0.0
H718 H 0.79653 0.25551 0.9359 0.0
H719 H 0.76467 0.29712 0.87206 0.0
C720 C 0.78858 0.3233 0.88272 0.0
C721 C 0.80683 0.33026 0.89841 0.0
C722 C 0.78274 0.25071 0.92326 0.0
C723 C 0.7874 0.28717 0.90159 0.0
C724 C 0.77044 0.23054 0.92637 0.0
C725 C 0.75186 0.2243 0.91073 0.0
C726 C 0.7764 0.26473 0.9044 0.0
C727 C 0.7469 0.23833 0.89152 0.0
C728 C 0.77894 0.30188 0.8842 0.0
C729 C 0.81509 0.31488 0.91531 0.0
N730 N 0.75893 0.2579 0.88901 0.0
N731 N 0.80525 0.29413 0.91651 0.0
H732 H 0.77352 0.77452 0.45846 0.0
H733 H 0.74001 0.6743 0.37103 0.0
H734 H 0.80225 0.76826 0.38786 0.0
H735 H 0.71571 0.67821 0.44342 0.0
H736 H 0.76279 0.70869 0.37674 0.0
H737 H 0.75158 0.73961 0.45297 0.0
C738 C 0.77513 0.76589 0.44175 0.0
C739 C 0.78976 0.77441 0.42359 0.0
C740 C 0.75251 0.70199 0.39139 0.0
C741 C 0.76482 0.73422 0.41724 0.0
C742 C 0.73958 0.68223 0.38819 0.0
C743 C 0.72583 0.67324 0.40677 0.0
C744 C 0.75169 0.71294 0.41331 0.0
C745 C 0.72573 0.6846 0.42848 0.0
C746 C 0.76271 0.74585 0.43867 0.0
C747 C 0.79143 0.76224 0.40245 0.0
N748 N 0.73841 0.70384 0.43113 0.0
N749 N 0.77907 0.74281 0.39984 0.0
H750 H 0.1964 0.8191 0.60001 0.0
H751 H 0.32476 0.75924 0.61728 0.0
H752 H 0.25698 0.85019 0.63542 0.0
H753 H 0.26685 0.73287 0.57428 0.0
H754 H 0.2997 0.79184 0.62601 0.0
H755 H 0.22156 0.78674 0.59197 0.0
C756 C 0.21503 0.81927 0.60598 0.0
C757 C 0.22452 0.8376 0.61834 0.0
C758 C 0.2925 0.77892 0.61464 0.0
C759 C 0.25349 0.80019 0.60944 0.0
C760 C 0.30675 0.76024 0.60977 0.0
C761 C 0.29793 0.74329 0.59497 0.0
C762 C 0.2692 0.78061 0.60478 0.0
C763 C 0.27454 0.74563 0.58549 0.0
C764 C 0.22939 0.80065 0.60147 0.0
C765 C 0.24874 0.83646 0.62604 0.0
N766 N 0.26101 0.7639 0.59059 0.0
N767 N 0.26237 0.81808 0.62145 0.0
H768 H 0.899 0.69477 0.85108 0.0
H769 H 0.89029 0.80601 0.77394 0.0
H770 H 0.85777 0.75259 0.87205 0.0
H771 H 0.93407 0.74933 0.75446 0.0
H772 H 0.87978 0.78744 0.81081 0.0
H773 H 0.91371 0.71518 0.81664 0.0
C774 C 0.8932 0.71182 0.84859 0.0
C775 C 0.87701 0.72191 0.86448 0.0
C776 C 0.89177 0.77909 0.79851 0.0
C777 C 0.89366 0.74537 0.82487 0.0
C778 C 0.89789 0.78976 0.77743 0.0
C779 C 0.91307 0.77925 0.76086 0.0
C780 C 0.90081 0.75769 0.80317 0.0
C781 C 0.92203 0.75799 0.76641 0.0
C782 C 0.90159 0.72347 0.82886 0.0
C783 C 0.87019 0.74409 0.86029 0.0
N784 N 0.91571 0.74791 0.78701 0.0
N785 N 0.87841 0.755 0.84084 0.0
H786 H 0.57228 0.26289 0.26876 0.0
H787 H 0.65882 0.25598 0.38209 0.0
H788 H 0.61509 0.20512 0.28628 0.0
H789 H 0.61843 0.31469 0.36264 0.0
H790 H 0.64068 0.23614 0.34879 0.0
H791 H 0.58684 0.28118 0.30454 0.0
C792 C 0.5846 0.25395 0.28018 0.0
C793 C 0.59248 0.23239 0.27437 0.0
C794 C 0.63566 0.25332 0.35189 0.0
C795 C 0.60945 0.25341 0.31544 0.0
C796 C 0.64595 0.26466 0.37098 0.0
C797 C 0.64024 0.28711 0.37515 0.0
C798 C 0.61952 0.26448 0.3368 0.0
C799 C 0.62345 0.29744 0.36009 0.0
C800 C 0.59302 0.26448 0.3006 0.0
C801 C 0.60877 0.22183 0.28979 0.0
N802 N 0.6138 0.28609 0.34154 0.0
N803 N 0.61672 0.23244 0.30957 0.0
H804 H 0.44043 0.75819 0.26769 0.0
H805 H 0.36564 0.75574 0.14644 0.0
H806 H 0.39612 0.70277 0.2454 0.0
H807 H 0.40938 0.81144 0.16905 0.0
H808 H 0.37934 0.73485 0.18094 0.0
H809 H 0.43137 0.77696 0.23052 0.0
C810 C 0.42875 0.74995 0.25505 0.0
C811 C 0.41895 0.72885 0.25986 0.0
C812 C 0.38612 0.75157 0.17826 0.0
C813 C 0.40867 0.75024 0.21697 0.0
C814 C 0.37838 0.7635 0.15847 0.0
C815 C 0.38624 0.78547 0.15486 0.0
C816 C 0.4018 0.76167 0.19465 0.0
C817 C 0.40274 0.7946 0.17112 0.0
C818 C 0.42371 0.76064 0.23371 0.0
C819 C 0.40429 0.71889 0.24249 0.0
N820 N 0.4098 0.78274 0.19036 0.0
N821 N 0.39951 0.72971 0.22192 0.0
H822 H 0.13119 0.2297 0.64217 0.0
H823 H 0.13525 0.28619 0.77033 0.0
H824 H 0.19306 0.2275 0.68882 0.0
H825 H 0.06906 0.27922 0.73041 0.0
H826 H 0.15691 0.26601 0.73948 0.0
H827 H 0.10812 0.24889 0.67323 0.0
C828 C 0.13989 0.23317 0.65892 0.0
C829 C 0.16411 0.22698 0.66286 0.0
C830 C 0.13763 0.26882 0.73743 0.0
C831 C 0.13793 0.249 0.69833 0.0
C832 C 0.12528 0.28049 0.75501 0.0
C833 C 0.10031 0.28449 0.75294 0.0
C834 C 0.12502 0.26116 0.71745 0.0
C835 C 0.08826 0.27635 0.73282 0.0
C836 C 0.12672 0.2441 0.67663 0.0
C837 C 0.17446 0.23191 0.68492 0.0
N838 N 0.10075 0.26516 0.71579 0.0
N839 N 0.16137 0.24267 0.70172 0.0
H840 H 0.77899 0.90511 0.80606 0.0
H841 H 0.86569 0.91474 0.69303 0.0
H842 H 0.76246 0.94509 0.74487 0.0
H843 H 0.8796 0.87082 0.75175 0.0
H844 H 0.82996 0.92894 0.71363 0.0
H845 H 0.81755 0.89478 0.78799 0.0
C846 C 0.78336 0.91169 0.7888 0.0
C847 C 0.76721 0.9259 0.77695 0.0
C848 C 0.84093 0.91632 0.7221 0.0
C849 C 0.8117 0.91432 0.75623 0.0
C850 C 0.86143 0.90825 0.71038 0.0
C851 C 0.87563 0.89144 0.72058 0.0
C852 C 0.83452 0.90752 0.74421 0.0
C853 C 0.86916 0.88372 0.74314 0.0
C854 C 0.80552 0.90588 0.77855 0.0
C855 C 0.77428 0.93424 0.75481 0.0
N856 N 0.849 0.8917 0.7541 0.0
N857 N 0.7959 0.92825 0.74515 0.0
H858 H 0.64176 0.14561 0.24838 0.0
H859 H 0.77371 0.09446 0.22572 0.0
H860 H 0.66753 0.12459 0.17987 0.0
H861 H 0.74597 0.1103 0.29507 0.0
H862 H 0.73461 0.10459 0.20881 0.0
H863 H 0.6793 0.13179 0.266 0.0
C864 C 0.6552 0.13791 0.23705 0.0
C865 C 0.65149 0.13635 0.21257 0.0
C866 C 0.73706 0.10579 0.22775 0.0
C867 C 0.69467 0.12067 0.23264 0.0
C868 C 0.75942 0.09991 0.23747 0.0
C869 C 0.76334 0.10153 0.26193 0.0
C870 C 0.71837 0.11345 0.24252 0.0
C871 C 0.74406 0.10906 0.27612 0.0
C872 C 0.67668 0.13007 0.24714 0.0
C873 C 0.66958 0.12621 0.19881 0.0
N874 N 0.72248 0.11478 0.26621 0.0
N875 N 0.69042 0.11889 0.20901 0.0
H876 H 0.38021 0.64203 0.26723 0.0
H877 H 0.26865 0.55677 0.26431 0.0
H878 H 0.37059 0.58934 0.31815 0.0
H879 H 0.2722 0.61702 0.2229 0.0
H880 H 0.30849 0.56542 0.28066 0.0
H881 H 0.34366 0.62953 0.24683 0.0
C882 C 0.37061 0.62764 0.27398 0.0
C883 C 0.37842 0.61683 0.2946 0.0
C884 C 0.30055 0.57667 0.2679 0.0
C885 C 0.33634 0.60254 0.27133 0.0
C886 C 0.27766 0.57182 0.25861 0.0
C887 C 0.2667 0.58624 0.24224 0.0
C888 C 0.31273 0.59603 0.26074 0.0
C889 C 0.27976 0.60525 0.23527 0.0
C890 C 0.34964 0.62059 0.26236 0.0
C891 C 0.36519 0.59827 0.30242 0.0
N892 N 0.30197 0.6096 0.24461 0.0
N893 N 0.34472 0.5918 0.29088 0.0
H894 H 0.24714 0.39358 0.7287 0.0
H895 H 0.16391 0.39405 0.84438 0.0
H896 H 0.27018 0.4218 0.79521 0.0
H897 H 0.13988 0.37108 0.77598 0.0
H898 H 0.20241 0.40555 0.82666 0.0
H899 H 0.20744 0.38632 0.74566 0.0
C900 C 0.24389 0.39848 0.74681 0.0
C901 C 0.26224 0.40839 0.76047 0.0
C902 C 0.18863 0.39814 0.81551 0.0
C903 C 0.21653 0.39972 0.78023 0.0
C904 C 0.16661 0.39161 0.8256 0.0
C905 C 0.14862 0.38148 0.81168 0.0
C906 C 0.19277 0.39444 0.79133 0.0
C907 C 0.15319 0.37876 0.78744 0.0
C908 C 0.22113 0.39419 0.75655 0.0
C909 C 0.25681 0.41389 0.78404 0.0
N910 N 0.17483 0.38506 0.7781 0.0
N911 N 0.2345 0.40944 0.79317 0.0
H912 H 0.73921 0.76856 0.94446 0.0
H913 H 0.73402 0.86508 0.84731 0.0
H914 H 0.78361 0.76999 0.88164 0.0
H915 H 0.68282 0.86022 0.90479 0.0
H916 H 0.75382 0.83136 0.86125 0.0
H917 H 0.71956 0.80291 0.93161 0.0
C918 C 0.74481 0.77596 0.92794 0.0
C919 C 0.76319 0.7662 0.91416 0.0
C920 C 0.73827 0.83764 0.87086 0.0
C921 C 0.74086 0.80581 0.89948 0.0
C922 C 0.72694 0.85697 0.86293 0.0
C923 C 0.70663 0.86553 0.87485 0.0
C924 C 0.72936 0.82669 0.89096 0.0
C925 C 0.69837 0.85421 0.895 0.0
C926 C 0.73362 0.79568 0.92067 0.0
C927 C 0.76984 0.77691 0.89308 0.0
N928 N 0.70976 0.83537 0.90242 0.0
N929 N 0.7587 0.79607 0.88643 0.0
H930 H 0.24014 0.64112 0.16366 0.0
H931 H 0.23284 0.75707 0.09457 0.0
H932 H 0.17478 0.66559 0.13071 0.0
H933 H 0.29468 0.7363 0.1358 0.0
H934 H 0.2124 0.72238 0.10474 0.0
H935 H 0.26155 0.67434 0.15029 0.0
C936 C 0.2303 0.65339 0.15346 0.0
C937 C 0.20554 0.65056 0.1484 0.0
C938 C 0.23048 0.72541 0.11151 0.0
C939 C 0.23004 0.68879 0.13309 0.0
C940 C 0.24216 0.74532 0.10581 0.0
C941 C 0.26557 0.74985 0.11441 0.0
C942 C 0.24225 0.70977 0.12589 0.0
C943 C 0.2768 0.73361 0.12853 0.0
C944 C 0.24255 0.67242 0.14589 0.0
C945 C 0.19382 0.66707 0.1351 0.0
N946 N 0.26502 0.71438 0.13385 0.0
N947 N 0.20615 0.6855 0.12798 0.0
H948 H 0.33041 0.36892 0.6146 0.0
H949 H 0.2268 0.27815 0.63589 0.0
H950 H 0.27537 0.37476 0.66852 0.0
H951 H 0.27859 0.27474 0.57879 0.0
H952 H 0.24252 0.31482 0.64635 0.0
H953 H 0.3098 0.3359 0.59932 0.0
C954 C 0.31383 0.36344 0.62306 0.0
C955 C 0.30475 0.37454 0.64302 0.0
C956 C 0.25035 0.3061 0.63143 0.0
C957 C 0.28119 0.33655 0.62576 0.0
C958 C 0.2413 0.28514 0.62537 0.0
C959 C 0.25147 0.27314 0.60651 0.0
C960 C 0.2698 0.31517 0.61861 0.0
C961 C 0.27046 0.28309 0.59374 0.0
C962 C 0.30209 0.34453 0.61435 0.0
C963 C 0.28313 0.36669 0.65318 0.0
N964 N 0.27907 0.30342 0.60011 0.0
N965 N 0.27225 0.34806 0.64459 0.0
H966 H 0.79526 0.25284 0.42633 0.0
H967 H 0.77999 0.13653 0.35961 0.0
H968 H 0.7258 0.227 0.40403 0.0
H969 H 0.84664 0.15806 0.39252 0.0
H970 H 0.75954 0.1692 0.37603 0.0
H971 H 0.81418 0.21814 0.41408 0.0
C972 C 0.78387 0.23989 0.41904 0.0
C973 C 0.75877 0.24306 0.41628 0.0
C974 C 0.77858 0.16666 0.37983 0.0
C975 C 0.78059 0.20311 0.40183 0.0
C976 C 0.79027 0.14798 0.3705 0.0
C977 C 0.81512 0.14458 0.37459 0.0
C978 C 0.79186 0.18217 0.39319 0.0
C979 C 0.82749 0.16 0.38884 0.0
C980 C 0.79477 0.22002 0.41195 0.0
C981 C 0.7452 0.2256 0.40627 0.0
N982 N 0.81579 0.17819 0.39744 0.0
N983 N 0.75628 0.20644 0.39935 0.0
H984 H 0.18156 0.21782 0.5283 0.0
H985 H 0.12288 0.15943 0.41465 0.0
H986 H 0.13344 0.16134 0.53344 0.0
H987 H 0.16821 0.21794 0.41264 0.0
H988 H 0.12462 0.16032 0.45796 0.0
H989 H 0.17518 0.21853 0.48586 0.0
C990 C 0.16955 0.20557 0.52052 0.0
C991 C 0.15813 0.18941 0.53453 0.0
C992 C 0.13409 0.17299 0.44799 0.0
C993 C 0.15077 0.19006 0.48554 0.0
C994 C 0.13302 0.17255 0.42326 0.0
C995 C 0.14564 0.18849 0.4099 0.0
C996 C 0.14784 0.18953 0.45941 0.0
C997 C 0.15862 0.20503 0.42208 0.0
C998 C 0.16588 0.20599 0.49619 0.0
C999 C 0.14264 0.17408 0.52334 0.0
N1000 N 0.15944 0.20504 0.44603 0.0
N1001 N 0.13953 0.17468 0.49946 0.0
H1002 H 0.33065 0.82808 0.03276 0.0
H1003 H 0.41447 0.82709 0.91695 0.0
H1004 H 0.40482 0.80513 0.03401 0.0
H1005 H 0.33846 0.84399 0.91791 0.0
H1006 H 0.41213 0.81863 0.95941 0.0
H1007 H 0.33412 0.83435 0.99052 0.0
C1008 C 0.34775 0.8244 0.02418 0.0
C1009 C 0.36747 0.81605 0.03708 0.0
C1010 C 0.39598 0.82413 0.95024 0.0
C1011 C 0.3716 0.82322 0.98826 0.0
C1012 C 0.39728 0.82884 0.926 0.0
C1013 C 0.3767 0.83651 0.91386 0.0
C1014 C 0.37392 0.82708 0.96236 0.0
C1015 C 0.35493 0.83861 0.92655 0.0
C1016 C 0.3497 0.82794 0.99994 0.0
C1017 C 0.38912 0.81157 0.02481 0.0
N1018 N 0.35416 0.83402 0.94999 0.0
N1019 N 0.39063 0.81524 1.00108 0.0
H1020 H 0.68513 0.29768 0.49977 0.0
H1021 H 0.62228 0.35838 0.6098 0.0
H1022 H 0.63105 0.34896 0.49111 0.0
H1023 H 0.66983 0.30158 0.61518 0.0
H1024 H 0.62449 0.35554 0.56662 0.0
H1025 H 0.67936 0.29943 0.54226 0.0
C1026 C 0.67197 0.30933 0.50679 0.0
C1027 C 0.6586 0.32325 0.49175 0.0
C1028 C 0.63436 0.34368 0.57732 0.0
C1029 C 0.65192 0.32539 0.54081 0.0
C1030 C 0.63303 0.34523 0.60199 0.0
C1031 C 0.64609 0.33034 0.61628 0.0
C1032 C 0.64886 0.32714 0.56687 0.0
C1033 C 0.65986 0.31374 0.60504 0.0
C1034 C 0.66864 0.31028 0.53115 0.0
C1035 C 0.64174 0.33791 0.50201 0.0
N1036 N 0.66094 0.31268 0.58112 0.0
N1037 N 0.63896 0.33869 0.52593 0.0
H1038 H 0.87661 0.7061 0.11545 0.0
H1039 H 0.85994 0.6674 0.9807 0.0
H1040 H 0.87868 0.63777 0.09202 0.0
H1041 H 0.85379 0.73579 1.00339 0.0
H1042 H 0.87028 0.65681 0.02106 0.0
H1043 H 0.87177 0.7179 0.07424 0.0
C1044 C 0.87626 0.6936 0.10166 0.0
C1045 C 0.87777 0.67088 0.10729 0.0
C1046 C 0.8668 0.67416 0.01722 0.0
C1047 C 0.87212 0.68423 0.06012 0.0
C1048 C 0.86093 0.68023 0.99412 0.0
C1049 C 0.85584 0.70251 0.9886 0.0
C1050 C 0.86758 0.69045 0.03507 0.0
C1051 C 0.85747 0.7184 1.0068 0.0
C1052 C 0.87337 0.70032 0.07815 0.0
C1053 C 0.87706 0.65541 0.08865 0.0
N1054 N 0.86307 0.71205 0.02922 0.0
N1055 N 0.87422 0.66235 0.06601 0.0
H1056 H 0.40159 0.15856 0.16242 0.0
H1057 H 0.52052 0.11778 0.2276 0.0
H1058 H 0.40425 0.09331 0.19409 0.0
H1059 H 0.5212 0.16384 0.16917 0.0
H1060 H 0.47759 0.1098 0.2193 0.0
H1061 H 0.44493 0.16266 0.16915 0.0
C1062 C 0.41127 0.14509 0.17091 0.0
C1063 C 0.39923 0.12556 0.17774 0.0
C1064 C 0.4873 0.12146 0.20821 0.0
C1065 C 0.44909 0.13024 0.18556 0.0
C1066 C 0.51175 0.12605 0.21293 0.0
C1067 C 0.52448 0.14159 0.19913 0.0
C1068 C 0.47548 0.13282 0.18989 0.0
C1069 C 0.51219 0.15177 0.18032 0.0
C1070 C 0.43609 0.1474 0.17459 0.0
C1071 C 0.41286 0.10862 0.18852 0.0
N1072 N 0.48836 0.14742 0.17645 0.0
N1073 N 0.43711 0.11141 0.1923 0.0
H1074 H 0.99286 0.91091 0.69823 0.0
H1075 H 0.1223 0.85168 0.68471 0.0
H1076 H 1.00313 0.84018 0.68923 0.0
H1077 H 0.11353 0.92304 0.68239 0.0
H1078 H 0.07878 0.84764 0.69019 0.0
H1079 H 0.03692 0.9161 0.69562 0.0
C1080 C 1.00434 0.89648 0.69571 0.0
C1081 C 0.99421 0.87507 0.69389 0.0
C1082 C 0.08631 0.86422 0.68857 0.0
C1083 C 0.04464 0.8809 0.69107 0.0
C1084 C 0.11126 0.86656 0.68551 0.0
C1085 C 0.12167 0.88775 0.68295 0.0
C1086 C 0.07144 0.88317 0.68912 0.0
C1087 C 0.1063 0.90638 0.68424 0.0
C1088 C 0.02949 0.89946 0.69423 0.0
C1089 C 1.01002 0.857 0.69065 0.0
N1090 N 0.08193 0.90366 0.68715 0.0
N1091 N 0.03436 0.86033 0.68939 0.0
H1092 H 1.00786 0.37208 0.77381 0.0
H1093 H 0.90543 0.41503 0.86305 0.0
H1094 H 0.02003 0.38052 0.8486 0.0
H1095 H 0.88953 0.38584 0.79508 0.0
H1096 H 0.9487 0.40901 0.85583 0.0
H1097 H 0.96573 0.38364 0.77932 0.0
C1098 C 1.00177 0.37658 0.79137 0.0
C1099 C 0.01751 0.37519 0.81081 0.0
C1100 C 0.93573 0.40407 0.84245 0.0
C1101 C 0.96924 0.38849 0.81718 0.0
C1102 C 0.91103 0.40759 0.84649 0.0
C1103 C 0.89378 0.4008 0.82969 0.0
C1104 C 0.94331 0.39392 0.82135 0.0
C1105 C 0.90215 0.3912 0.80859 0.0
C1106 C 0.97767 0.38309 0.79449 0.0
C1107 C 1.00852 0.38122 0.83313 0.0
N1108 N 0.92631 0.38802 0.80503 0.0
N1109 N 0.98497 0.38757 0.83572 0.0
H1110 H 0.49348 0.59857 0.35047 0.0
H1111 H 0.62509 0.6523 0.33431 0.0
H1112 H 0.50666 0.66266 0.31859 0.0
H1113 H 0.61452 0.58422 0.3562 0.0
H1114 H 0.58159 0.65584 0.32805 0.0
H1115 H 0.5374 0.59249 0.35259 0.0
C1116 C 0.50556 0.61133 0.34385 0.0
C1117 C 0.49631 0.63122 0.33444 0.0
C1118 C 0.58871 0.64005 0.33406 0.0
C1119 C 0.54658 0.62437 0.33685 0.0
C1120 C 0.61362 0.63801 0.33766 0.0
C1121 C 0.62349 0.61795 0.34589 0.0
C1122 C 0.57336 0.62198 0.33896 0.0
C1123 C 0.60769 0.59998 0.3498 0.0
C1124 C 0.53064 0.60782 0.34502 0.0
C1125 C 0.51288 0.64711 0.32606 0.0
N1126 N 0.58335 0.60248 0.34651 0.0
N1127 N 0.53713 0.64338 0.32758 0.0
H1128 H 0.19714 0.41963 0.10744 0.0
H1129 H 0.14985 0.53709 0.15652 0.0
H1130 H 0.12957 0.42937 0.14424 0.0
H1131 H 0.22459 0.52513 0.13759 0.0
H1132 H 0.13979 0.49938 0.14388 0.0
H1133 H 0.20508 0.45991 0.11039 0.0
C1134 C 0.18384 0.43033 0.11576 0.0
C1135 C 0.16282 0.42125 0.12585 0.0
C1136 C 0.15837 0.50506 0.14229 0.0
C1137 C 0.17163 0.46701 0.12927 0.0
C1138 C 0.16413 0.52664 0.14946 0.0
C1139 C 0.18818 0.53423 0.14843 0.0
C1140 C 0.17674 0.49088 0.13396 0.0
C1141 C 0.20584 0.51992 0.13892 0.0
C1142 C 0.18841 0.45321 0.11758 0.0
C1143 C 0.14616 0.43572 0.13657 0.0
N1144 N 0.19982 0.49885 0.13223 0.0
N1145 N 0.15096 0.45782 0.13808 0.0
H1146 H 0.65454 0.97487 0.87309 0.0
H1147 H 0.70551 0.09681 0.90184 0.0
H1148 H 0.73081 0.99112 0.87337 0.0
H1149 H 0.62958 0.07959 0.90041 0.0
H1150 H 0.71564 0.05745 0.89577 0.0
H1151 H 0.64552 0.01231 0.88739 0.0
C1152 C 0.66943 0.98623 0.87638 0.0
C1153 C 0.69346 0.97986 0.8718 0.0
C1154 C 0.69676 0.06229 0.89696 0.0
C1155 C 0.68323 0.02296 0.88802 0.0
C1156 C 0.69099 0.08474 0.90055 0.0
C1157 C 0.66666 0.09157 0.90131 0.0
C1158 C 0.67806 0.04657 0.89419 0.0
C1159 C 0.64857 0.07519 0.89941 0.0
C1160 C 0.66426 0.00766 0.88452 0.0
C1161 C 0.712 0.99531 0.87653 0.0
N1162 N 0.65463 0.05355 0.89579 0.0
N1163 N 0.70648 0.0162 0.88416 0.0
H1164 H 0.83208 0.03798 0.39894 0.0
H1165 H 0.85064 0.91809 0.34109 0.0
H1166 H 0.85529 0.02735 0.32696 0.0
H1167 H 0.84482 0.92748 0.41636 0.0
H1168 H 0.8516 0.95835 0.33587 0.0
H1169 H 0.8361 0.99791 0.40617 0.0
C1170 C 0.83818 0.02729 0.38471 0.0
C1171 C 0.8432 0.03607 0.36225 0.0
C1172 C 0.85025 0.95169 0.35358 0.0
C1173 C 0.84766 0.99025 0.37039 0.0
C1174 C 0.84955 0.92869 0.35654 0.0
C1175 C 0.84745 0.91947 0.37917 0.0
C1176 C 0.84854 0.96571 0.37338 0.0
C1177 C 0.84654 0.93397 0.39863 0.0
C1178 C 0.8405 1.00443 0.38887 0.0
C1179 C 0.8511 0.02139 0.34452 0.0
N1180 N 0.84683 0.95642 0.39528 0.0
N1181 N 0.85289 0.99925 0.34892 0.0
H1182 H 0.32256 0.48944 0.69235 0.0
H1183 H 0.36601 0.58749 0.60636 0.0
H1184 H 0.36967 0.47843 0.63253 0.0
H1185 H 0.31853 0.59669 0.66618 0.0
H1186 H 0.36869 0.5478 0.61588 0.0
H1187 H 0.3218 0.52899 0.68314 0.0
C1188 C 0.33279 0.49532 0.67726 0.0
C1189 C 0.34617 0.48052 0.66317 0.0
C1190 C 0.35769 0.55854 0.6269 0.0
C1191 C 0.34535 0.52603 0.65247 0.0
C1192 C 0.35625 0.58124 0.62154 0.0
C1193 C 0.3419 0.59551 0.63539 0.0
C1194 C 0.34476 0.55007 0.64629 0.0
C1195 C 0.32947 0.58636 0.65473 0.0
C1196 C 0.33234 0.51798 0.672 0.0
C1197 C 0.35908 0.48921 0.64387 0.0
N1198 N 0.33118 0.56429 0.65956 0.0
N1199 N 0.35833 0.5114 0.63906 0.0
H1200 H 0.87525 0.86634 0.48072 0.0
H1201 H 0.93501 0.82115 0.6004 0.0
H1202 H 0.91565 0.80489 0.48376 0.0
H1203 H 0.87265 0.86425 0.59813 0.0
H1204 H 0.93571 0.82069 0.55685 0.0
H1205 H 0.88217 0.87158 0.52302 0.0
C1206 C 0.88592 0.85412 0.49017 0.0
C1207 C 0.89469 0.83502 0.47868 0.0
C1208 C 0.92204 0.8304 0.56595 0.0
C1209 C 0.90264 0.84097 0.52717 0.0
C1210 C 0.92174 0.83076 0.5907 0.0
C1211 C 0.90362 0.84259 0.60275 0.0
C1212 C 0.90438 0.84233 0.5533 0.0
C1213 C 0.8867 0.85469 0.58945 0.0
C1214 C 0.88974 0.85708 0.51436 0.0
C1215 C 0.90837 0.81976 0.49193 0.0
N1216 N 0.88749 0.85425 0.56547 0.0
N1217 N 0.91184 0.823 0.5155 0.0
H1218 H 0.66428 0.20503 0.99143 0.0
H1219 H 0.58547 0.17235 0.10516 0.0
H1220 H 0.60597 0.15707 0.98971 0.0
H1221 H 0.64732 0.21642 0.10707 0.0
H1222 H 0.59143 0.16767 0.06269 0.0
H1223 H 0.65676 0.21084 0.03346 0.0
C1224 C 0.6498 0.19578 0.99984 0.0
C1225 C 0.63577 0.18048 0.98696 0.0
C1226 C 0.60366 0.17839 0.07243 0.0
C1227 C 0.62711 0.18703 0.03528 0.0
C1228 C 0.60035 0.18099 0.09676 0.0
C1229 C 0.61592 0.1948 0.10991 0.0
C1230 C 0.62267 0.18967 0.06105 0.0
C1231 C 0.63464 0.20583 0.09779 0.0
C1232 C 0.64555 0.19908 0.0239 0.0
C1233 C 0.61727 0.169 0.9989 0.0
N1234 N 0.63749 0.203 0.07413 0.0
N1235 N 0.61352 0.17247 0.02238 0.0
H1236 H 0.43793 0.68892 0.41705 0.0
H1237 H 0.38565 0.64454 0.54045 0.0
H1238 H 0.38229 0.63893 0.42337 0.0
H1239 H 0.41908 0.70911 0.53286 0.0
H1240 H 0.39301 0.63739 0.49855 0.0
H1241 H 0.43946 0.69172 0.46046 0.0
C1242 C 0.42636 0.67831 0.42761 0.0
C1243 C 0.4098 0.66383 0.41672 0.0
C1244 C 0.39899 0.65302 0.50613 0.0
C1245 C 0.41152 0.66678 0.46606 0.0
C1246 C 0.39492 0.65708 0.5301 0.0
C1247 C 0.40153 0.67757 0.54018 0.0
C1248 C 0.40994 0.66946 0.49211 0.0
C1249 C 0.41348 0.69316 0.5258 0.0
C1250 C 0.42712 0.67999 0.45229 0.0
C1251 C 0.39505 0.65051 0.43113 0.0
N1252 N 0.41717 0.68885 0.50246 0.0
N1253 N 0.39623 0.65232 0.45502 0.0
H1254 H 0.11401 0.37932 0.03037 0.0
H1255 H 0.10762 0.29324 0.92232 0.0
H1256 H 0.13523 0.31029 0.03471 0.0
H1257 H 0.09889 0.36413 0.9135 0.0
H1258 H 0.11332 0.29893 0.96451 0.0
H1259 H 0.10395 0.37377 0.98856 0.0
C1260 C 0.11641 0.36298 0.02261 0.0
C1261 C 0.12559 0.34527 0.03608 0.0
C1262 C 0.11011 0.31327 0.95338 0.0
C1263 C 0.11408 0.33882 0.98832 0.0
C1264 C 0.10695 0.31004 0.92919 0.0
C1265 C 0.10304 0.32824 0.91414 0.0
C1266 C 0.10931 0.33488 0.96281 0.0
C1267 C 0.10175 0.34957 0.92434 0.0
C1268 C 0.11073 0.35985 0.99873 0.0
C1269 C 0.12834 0.32448 0.02505 0.0
N1270 N 0.105 0.35231 0.94801 0.0
N1271 N 0.12265 0.32186 1.00187 0.0
H1272 H 0.59004 0.88252 0.77918 0.0
H1273 H 0.47643 0.88357 0.86693 0.0
H1274 H 0.59225 0.91281 0.84838 0.0
H1275 H 0.47198 0.86391 0.7937 0.0
H1276 H 0.51893 0.89381 0.86093 0.0
H1277 H 0.54713 0.87482 0.78472 0.0
C1278 C 0.58159 0.88774 0.7955 0.0
C1279 C 0.59506 0.8985 0.81327 0.0
C1280 C 0.50862 0.88738 0.84614 0.0
C1281 C 0.54552 0.88931 0.81986 0.0
C1282 C 0.48432 0.88153 0.84954 0.0
C1283 C 0.47056 0.8728 0.8308 0.0
C1284 C 0.51938 0.88432 0.82388 0.0
C1285 C 0.48181 0.87058 0.80867 0.0
C1286 C 0.55697 0.88322 0.79868 0.0
C1287 C 0.58288 0.90432 0.83423 0.0
N1288 N 0.50557 0.87615 0.80588 0.0
N1289 N 0.55886 0.89963 0.83694 0.0
H1290 H 0.93053 0.15424 0.33572 0.0
H1291 H 0.05485 0.11337 0.28351 0.0
H1292 H 0.93517 0.09111 0.29988 0.0
H1293 H 0.05091 0.15366 0.34659 0.0
H1294 H 0.01132 0.10554 0.28721 0.0
H1295 H 0.97486 0.15566 0.33775 0.0
C1296 C 0.94099 0.14065 0.32835 0.0
C1297 C 0.92935 0.12259 0.31753 0.0
C1298 C 0.02013 0.11578 0.30042 0.0
C1299 C 0.97996 0.12415 0.31951 0.0
C1300 C 0.04494 0.12029 0.29832 0.0
C1301 C 0.05653 0.1343 0.31468 0.0
C1302 C 1.00678 0.12579 0.31869 0.0
C1303 C 0.04278 0.14279 0.33354 0.0
C1304 C 0.96622 0.14137 0.32964 0.0
C1305 C 0.94361 0.10525 0.30842 0.0
N1306 N 0.01857 0.13871 0.33479 0.0
N1307 N 0.96827 0.10661 0.30926 0.0
H1308 H 0.09671 0.62062 0.16824 0.0
H1309 H 0.96639 0.63562 0.22936 0.0
H1310 H 0.08504 0.61419 0.24325 0.0
H1311 H 0.982 0.65302 0.15701 0.0
H1312 H 1.00864 0.62355 0.23408 0.0
H1313 H 0.05353 0.62829 0.16309 0.0
C1314 C 0.08505 0.62062 0.18361 0.0
C1315 C 0.09461 0.61685 0.20623 0.0
C1316 C 1.00274 0.62992 0.21716 0.0
C1317 C 0.04503 0.6258 0.2005 0.0
C1318 C 0.97862 0.63673 0.21443 0.0
C1319 C 0.97066 0.64547 0.1928 0.0
C1320 C 0.01895 0.63171 0.19807 0.0
C1321 C 0.98733 0.64654 0.17406 0.0
C1322 C 0.06039 0.62514 0.18069 0.0
C1323 C 0.07857 0.61733 0.22554 0.0
N1324 N 1.01062 0.63981 0.17714 0.0
N1325 N 0.05461 0.62174 0.22224 0.0
H1326 H 0.42915 0.42436 0.72174 0.0
H1327 H 0.55212 0.37115 0.67164 0.0
H1328 H 0.43192 0.37197 0.66978 0.0
H1329 H 0.54793 0.40372 0.73954 0.0
H1330 H 0.50921 0.37928 0.66528 0.0
H1331 H 0.47384 0.42447 0.72312 0.0
C1332 C 0.43922 0.41317 0.71039 0.0
C1333 C 0.42698 0.39797 0.69582 0.0
C1334 C 0.51777 0.38486 0.68145 0.0
C1335 C 0.4777 0.39808 0.69711 0.0
C1336 C 0.54231 0.38033 0.68506 0.0
C1337 C 0.55361 0.38652 0.7063 0.0
C1338 C 0.50441 0.39583 0.69909 0.0
C1339 C 0.53991 0.39843 0.72301 0.0
C1340 C 0.46461 0.41314 0.71125 0.0
C1341 C 0.44074 0.38369 0.6815 0.0
N1342 N 0.51597 0.40257 0.71913 0.0
N1343 N 0.46533 0.38407 0.68253 0.0
H1344 H 0.82022 0.61197 0.93134 0.0
H1345 H 0.82126 0.50012 0.85375 0.0
H1346 H 0.81716 0.61113 0.85521 0.0
H1347 H 0.81559 0.50078 0.92974 0.0
H1348 H 0.82309 0.54079 0.85403 0.0
H1349 H 0.82182 0.57126 0.93121 0.0
C1350 C 0.82006 0.60326 0.9146 0.0
C1351 C 0.81841 0.61504 0.89327 0.0
C1352 C 0.82148 0.53203 0.87066 0.0
C1353 C 0.82009 0.56837 0.89297 0.0
C1354 C 0.8206 0.50878 0.87051 0.0
C1355 C 0.81816 0.49695 0.89174 0.0
C1356 C 0.82006 0.54362 0.89221 0.0
C1357 C 0.8171 0.50916 0.91292 0.0
C1358 C 0.82083 0.57999 0.91453 0.0
C1359 C 0.81802 0.60279 0.8721 0.0
N1360 N 0.81804 0.53178 0.91261 0.0
N1361 N 0.81884 0.58018 0.87249 0.0
H1362 H 0.33077 0.90018 0.09478 0.0
H1363 H 0.33289 0.01235 0.17152 0.0
H1364 H 0.33791 0.90146 0.17068 0.0
H1365 H 0.32855 0.01107 0.09543 0.0
H1366 H 0.33681 0.97183 0.17148 0.0
H1367 H 0.33195 0.94083 0.0945 0.0
C1368 C 0.3328 0.90894 0.11137 0.0
C1369 C 0.33404 0.89727 0.1328 0.0
C1370 C 0.33509 0.98044 0.15478 0.0
C1371 C 0.33514 0.94396 0.13264 0.0
C1372 C 0.33298 1.00363 0.15479 0.0
C1373 C 0.33016 0.01524 0.13346 0.0
C1374 C 0.33438 0.9687 0.13328 0.0
C1375 C 0.33018 1.00289 0.11234 0.0
C1376 C 0.33334 0.93221 0.11122 0.0
C1377 C 0.33641 0.90966 0.15376 0.0
N1378 N 0.33214 0.98035 0.1128 0.0
N1379 N 0.33678 0.93227 0.15316 0.0
H1380 H 0.20637 1.00078 0.66744 0.0
H1381 H 0.17932 0.11155 0.59307 0.0
H1382 H 0.17453 1.00074 0.59788 0.0
H1383 H 0.22283 0.11045 0.65635 0.0
H1384 H 0.17237 0.0715 0.59732 0.0
H1385 H 0.20751 0.04156 0.66644 0.0
C1386 C 0.19938 0.00935 0.65208 0.0
C1387 C 0.19058 0.99733 0.63262 0.0
C1388 C 0.18336 0.08006 0.61033 0.0
C1389 C 0.19191 0.04393 0.63128 0.0
C1390 C 0.1872 0.10294 0.60798 0.0
C1391 C 0.20188 0.11434 0.62424 0.0
C1392 C 0.19412 0.06849 0.62918 0.0
C1393 C 0.21178 0.10227 0.64315 0.0
C1394 C 0.20017 0.03261 0.65145 0.0
C1395 C 0.18189 0.00931 0.61309 0.0
N1396 N 0.20778 0.08002 0.64507 0.0
N1397 N 0.18284 0.03191 0.61289 0.0
H1398 H 0.70045 0.39693 0.3611 0.0
H1399 H 0.69104 0.50906 0.43699 0.0
H1400 H 0.69512 0.39797 0.43713 0.0
H1401 H 0.69887 0.50768 0.36117 0.0
H1402 H 0.69028 0.46847 0.43728 0.0
H1403 H 0.69767 0.43739 0.36071 0.0
C1404 C 0.69879 0.40564 0.37775 0.0
C1405 C 0.69829 0.39394 0.39922 0.0
C1406 C 0.69209 0.47704 0.42056 0.0
C1407 C 0.69482 0.4405 0.39886 0.0
C1408 C 0.69266 0.50027 0.42038 0.0
C1409 C 0.69524 0.51192 0.39903 0.0
C1410 C 0.69414 0.46525 0.39923 0.0
C1411 C 0.6967 0.49951 0.37803 0.0
C1412 C 0.69705 0.4288 0.3775 0.0
C1413 C 0.69549 0.40622 0.42017 0.0
N1414 N 0.69626 0.47688 0.37869 0.0
N1415 N 0.694 0.42882 0.41947 0.0
loop_
_geom_bond_atom_site_label_1
_geom_bond_atom_site_label_2
_geom_bond_distance
_geom_bond_site_symmetry_2
_ccdc_geom_bond_type
Cu0 N1 1.999 . S
Cu0 O6 1.974 . S
Cu0 N11 1.985 . S
Cu0 O20 1.959 . S
N1 Cu0 1.999 . S
N1 C3 1.263 . S
N1 C5 1.389 . S
N2 C3 1.358 . S
N2 C4 1.400 . S
C3 N1 1.263 . S
C3 N2 1.358 . S
C3 H9 0.930 . S
C4 N2 1.400 . S
C4 C5 1.351 . S
C4 H21 0.930 . S
C5 N1 1.389 . S
C5 C4 1.351 . S
C5 H10 0.930 . S
O6 Cu0 1.974 . S
O6 C16 1.282 . S
C7 O8 1.261 . S
C7 O20 1.251 . S
O8 C7 1.261 . S
H9 C3 0.930 . S
H10 C5 0.930 . S
N11 Cu0 1.985 . S
N11 C13 1.335 . S
N11 C14 1.390 . S
N12 C13 1.345 . S
N12 C15 1.336 . S
C13 N11 1.335 . S
C13 N12 1.345 . S
C13 H18 0.930 . S
C14 N11 1.390 . S
C14 C15 1.346 . S
C14 H19 0.930 . S
C15 N12 1.336 . S
C15 C14 1.346 . S
C15 H22 0.929 . S
C16 O6 1.282 . S
C16 O17 1.216 . S
O17 C16 1.216 . S
H18 C13 0.930 . S
H19 C14 0.930 . S
O20 Cu0 1.959 . S
O20 C7 1.251 . S
H21 C4 0.930 . S
H22 C15 0.929 . S
Cu23 N24 1.999 . S
Cu23 O29 1.974 . S
Cu23 N34 1.985 . S
Cu23 O43 1.959 . S
N24 Cu23 1.999 . S
N24 C26 1.263 . S
N24 C28 1.389 . S
N25 C26 1.358 . S
N25 C27 1.400 . S
C26 N24 1.263 . S
C26 N25 1.358 . S
C26 H32 0.930 . S
C27 N25 1.400 . S
C27 C28 1.351 . S
C27 H44 0.930 . S
C28 N24 1.389 . S
C28 C27 1.351 . S
C28 H33 0.930 . S
O29 Cu23 1.974 . S
O29 C39 1.282 . S
C30 O31 1.261 . S
C30 O43 1.251 . S
O31 C30 1.261 . S
H32 C26 0.930 . S
H33 C28 0.930 . S
N34 Cu23 1.985 . S
N34 C36 1.335 . S
N34 C37 1.390 . S
N35 C36 1.345 . S
N35 C38 1.336 . S
C36 N34 1.335 . S
C36 N35 1.345 . S
C36 H41 0.930 . S
C37 N34 1.390 . S
C37 C38 1.346 . S
C37 H42 0.930 . S
C38 N35 1.336 . S
C38 C37 1.346 . S
C38 H45 0.929 . S
C39 O29 1.282 . S
C39 O40 1.216 . S
O40 C39 1.216 . S
H41 C36 0.930 . S
H42 C37 0.930 . S
O43 Cu23 1.959 . S
O43 C30 1.251 . S
H44 C27 0.930 . S
H45 C38 0.929 . S
Cu46 N47 1.999 . S
Cu46 O52 1.974 . S
Cu46 N57 1.985 . S
Cu46 O66 1.959 . S
N47 Cu46 1.999 . S
N47 C49 1.263 . S
N47 C51 1.389 . S
N48 C49 1.358 . S
N48 C50 1.400 . S
C49 N47 1.263 . S
C49 N48 1.358 . S
C49 H55 0.930 . S
C50 N48 1.400 . S
C50 C51 1.351 . S
C50 H67 0.930 . S
C51 N47 1.389 . S
C51 C50 1.351 . S
C51 H56 0.930 . S
O52 Cu46 1.974 . S
O52 C62 1.282 . S
C53 O54 1.261 . S
C53 O66 1.251 . S
O54 C53 1.261 . S
H55 C49 0.930 . S
H56 C51 0.930 . S
N57 Cu46 1.985 . S
N57 C59 1.335 . S
N57 C60 1.390 . S
N58 C59 1.345 . S
N58 C61 1.336 . S
C59 N57 1.335 . S
C59 N58 1.345 . S
C59 H64 0.930 . S
C60 N57 1.390 . S
C60 C61 1.346 . S
C60 H65 0.930 . S
C61 N58 1.336 . S
C61 C60 1.346 . S
C61 H68 0.929 . S
C62 O52 1.282 . S
C62 O63 1.216 . S
O63 C62 1.216 . S
H64 C59 0.930 . S
H65 C60 0.930 . S
O66 Cu46 1.959 . S
O66 C53 1.251 . S
H67 C50 0.930 . S
H68 C61 0.929 . S
Cu69 N70 1.999 . S
Cu69 O75 1.974 . S
Cu69 N80 1.985 . S
Cu69 O89 1.959 . S
N70 Cu69 1.999 . S
N70 C72 1.263 . S
N70 C74 1.389 . S
N71 C72 1.358 . S
N71 C73 1.400 . S
C72 N70 1.263 . S
C72 N71 1.358 . S
C72 H78 0.930 . S
C73 N71 1.400 . S
C73 C74 1.351 . S
C73 H90 0.930 . S
C74 N70 1.389 . S
C74 C73 1.351 . S
C74 H79 0.930 . S
O75 Cu69 1.974 . S
O75 C85 1.282 . S
C76 O77 1.261 . S
C76 O89 1.251 . S
O77 C76 1.261 . S
H78 C72 0.930 . S
H79 C74 0.930 . S
N80 Cu69 1.985 . S
N80 C82 1.335 . S
N80 C83 1.390 . S
N81 C82 1.345 . S
N81 C84 1.336 . S
C82 N80 1.335 . S
C82 N81 1.345 . S
C82 H87 0.930 . S
C83 N80 1.390 . S
C83 C84 1.346 . S
C83 H88 0.930 . S
C84 N81 1.336 . S
C84 C83 1.346 . S
C84 H91 0.929 . S
C85 O75 1.282 . S
C85 O86 1.216 . S
O86 C85 1.216 . S
H87 C82 0.930 . S
H88 C83 0.930 . S
O89 Cu69 1.959 . S
O89 C76 1.251 . S
H90 C73 0.930 . S
H91 C84 0.929 . S
Cu92 N93 1.999 . S
Cu92 O98 1.974 . S
Cu92 N103 1.985 . S
Cu92 O112 1.959 . S
N93 Cu92 1.999 . S
N93 C95 1.263 . S
N93 C97 1.389 . S
N94 C95 1.358 . S
N94 C96 1.400 . S
C95 N93 1.263 . S
C95 N94 1.358 . S
C95 H101 0.930 . S
C96 N94 1.400 . S
C96 C97 1.351 . S
C96 H113 0.930 . S
C97 N93 1.389 . S
C97 C96 1.351 . S
C97 H102 0.930 . S
O98 Cu92 1.974 . S
O98 C108 1.282 . S
C99 O100 1.261 . S
C99 O112 1.251 . S
O100 C99 1.261 . S
H101 C95 0.930 . S
H102 C97 0.930 . S
N103 Cu92 1.985 . S
N103 C105 1.335 . S
N103 C106 1.390 . S
N104 C105 1.345 . S
N104 C107 1.336 . S
C105 N103 1.335 . S
C105 N104 1.345 . S
C105 H110 0.930 . S
C106 N103 1.390 . S
C106 C107 1.346 . S
C106 H111 0.930 . S
C107 N104 1.336 . S
C107 C106 1.346 . S
C107 H114 0.929 . S
C108 O98 1.282 . S
C108 O109 1.216 . S
O109 C108 1.216 . S
H110 C105 0.930 . S
H111 C106 0.930 . S
O112 Cu92 1.959 . S
O112 C99 1.251 . S
H113 C96 0.930 . S
H114 C107 0.929 . S
Cu115 N116 1.999 . S
Cu115 O121 1.974 . S
Cu115 N126 1.985 . S
Cu115 O135 1.959 . S
N116 Cu115 1.999 . S
N116 C118 1.263 . S
N116 C120 1.389 . S
N117 C118 1.358 . S
N117 C119 1.400 . S
C118 N116 1.263 . S
C118 N117 1.358 . S
C118 H124 0.930 . S
C119 N117 1.400 . S
C119 C120 1.351 . S
C119 H136 0.930 . S
C120 N116 1.389 . S
C120 C119 1.351 . S
C120 H125 0.930 . S
O121 Cu115 1.974 . S
O121 C131 1.282 . S
C122 O123 1.261 . S
C122 O135 1.251 . S
O123 C122 1.261 . S
H124 C118 0.930 . S
H125 C120 0.930 . S
N126 Cu115 1.985 . S
N126 C128 1.335 . S
N126 C129 1.390 . S
N127 C128 1.345 . S
N127 C130 1.336 . S
C128 N126 1.335 . S
C128 N127 1.345 . S
C128 H133 0.930 . S
C129 N126 1.390 . S
C129 C130 1.346 . S
C129 H134 0.930 . S
C130 N127 1.336 . S
C130 C129 1.346 . S
C130 H137 0.929 . S
C131 O121 1.282 . S
C131 O132 1.216 . S
O132 C131 1.216 . S
H133 C128 0.930 . S
H134 C129 0.930 . S
O135 Cu115 1.959 . S
O135 C122 1.251 . S
H136 C119 0.930 . S
H137 C130 0.929 . S
Cu138 N139 1.999 . S
Cu138 O144 1.974 . S
Cu138 N149 1.985 . S
Cu138 O158 1.959 . S
N139 Cu138 1.999 . S
N139 C141 1.263 . S
N139 C143 1.389 . S
N140 C141 1.358 . S
N140 C142 1.400 . S
C141 N139 1.263 . S
C141 N140 1.358 . S
C141 H147 0.930 . S
C142 N140 1.400 . S
C142 C143 1.351 . S
C142 H159 0.930 . S
C143 N139 1.389 . S
C143 C142 1.351 . S
C143 H148 0.930 . S
O144 Cu138 1.974 . S
O144 C154 1.282 . S
C145 O146 1.261 . S
C145 O158 1.251 . S
O146 C145 1.261 . S
H147 C141 0.930 . S
H148 C143 0.930 . S
N149 Cu138 1.985 . S
N149 C151 1.335 . S
N149 C152 1.390 . S
N150 C151 1.345 . S
N150 C153 1.336 . S
C151 N149 1.335 . S
C151 N150 1.345 . S
C151 H156 0.930 . S
C152 N149 1.390 . S
C152 C153 1.346 . S
C152 H157 0.930 . S
C153 N150 1.336 . S
C153 C152 1.346 . S
C153 H160 0.929 . S
C154 O144 1.282 . S
C154 O155 1.216 . S
O155 C154 1.216 . S
H156 C151 0.930 . S
H157 C152 0.930 . S
O158 Cu138 1.959 . S
O158 C145 1.251 . S
H159 C142 0.930 . S
H160 C153 0.929 . S
Cu161 N162 1.999 . S
Cu161 O167 1.974 . S
Cu161 N172 1.985 . S
Cu161 O181 1.959 . S
N162 Cu161 1.999 . S
N162 C164 1.263 . S
N162 C166 1.389 . S
N163 C164 1.358 . S
N163 C165 1.400 . S
C164 N162 1.263 . S
C164 N163 1.358 . S
C164 H170 0.930 . S
C165 N163 1.400 . S
C165 C166 1.351 . S
C165 H182 0.930 . S
C166 N162 1.389 . S
C166 C165 1.351 . S
C166 H171 0.930 . S
O167 Cu161 1.974 . S
O167 C177 1.282 . S
C168 O169 1.261 . S
C168 O181 1.251 . S
O169 C168 1.261 . S
H170 C164 0.930 . S
H171 C166 0.930 . S
N172 Cu161 1.985 . S
N172 C174 1.335 . S
N172 C175 1.390 . S
N173 C174 1.345 . S
N173 C176 1.336 . S
C174 N172 1.335 . S
C174 N173 1.345 . S
C174 H179 0.930 . S
C175 N172 1.390 . S
C175 C176 1.346 . S
C175 H180 0.930 . S
C176 N173 1.336 . S
C176 C175 1.346 . S
C176 H183 0.929 . S
C177 O167 1.282 . S
C177 O178 1.216 . S
O178 C177 1.216 . S
H179 C174 0.930 . S
H180 C175 0.930 . S
O181 Cu161 1.959 . S
O181 C168 1.251 . S
H182 C165 0.930 . S
H183 C176 0.929 . S
Cu184 N185 1.999 . S
Cu184 O190 1.974 . S
Cu184 N195 1.985 . S
Cu184 O204 1.959 . S
N185 Cu184 1.999 . S
N185 C187 1.263 . S
N185 C189 1.389 . S
N186 C187 1.358 . S
N186 C188 1.400 . S
C187 N185 1.263 . S
C187 N186 1.358 . S
C187 H193 0.930 . S
C188 N186 1.400 . S
C188 C189 1.351 . S
C188 H205 0.930 . S
C189 N185 1.389 . S
C189 C188 1.351 . S
C189 H194 0.930 . S
O190 Cu184 1.974 . S
O190 C200 1.282 . S
C191 O192 1.261 . S
C191 O204 1.251 . S
O192 C191 1.261 . S
H193 C187 0.930 . S
H194 C189 0.930 . S
N195 Cu184 1.985 . S
N195 C197 1.335 . S
N195 C198 1.390 . S
N196 C197 1.345 . S
N196 C199 1.336 . S
C197 N195 1.335 . S
C197 N196 1.345 . S
C197 H202 0.930 . S
C198 N195 1.390 . S
C198 C199 1.346 . S
C198 H203 0.930 . S
C199 N196 1.336 . S
C199 C198 1.346 . S
C199 H206 0.929 . S
C200 O190 1.282 . S
C200 O201 1.216 . S
O201 C200 1.216 . S
H202 C197 0.930 . S
H203 C198 0.930 . S
O204 Cu184 1.959 . S
O204 C191 1.251 . S
H205 C188 0.930 . S
H206 C199 0.929 . S
Cu207 N208 1.999 . S
Cu207 O213 1.974 . S
Cu207 N218 1.985 . S
Cu207 O227 1.959 . S
N208 Cu207 1.999 . S
N208 C210 1.263 . S
N208 C212 1.389 . S
N209 C210 1.358 . S
N209 C211 1.400 . S
C210 N208 1.263 . S
C210 N209 1.358 . S
C210 H216 0.930 . S
C211 N209 1.400 . S
C211 C212 1.351 . S
C211 H228 0.930 . S
C212 N208 1.389 . S
C212 C211 1.351 . S
C212 H217 0.930 . S
O213 Cu207 1.974 . S
O213 C223 1.282 . S
C214 O215 1.261 . S
C214 O227 1.251 . S
O215 C214 1.261 . S
H216 C210 0.930 . S
H217 C212 0.930 . S
N218 Cu207 1.985 . S
N218 C220 1.335 . S
N218 C221 1.390 . S
N219 C220 1.345 . S
N219 C222 1.336 . S
C220 N218 1.335 . S
C220 N219 1.345 . S
C220 H225 0.930 . S
C221 N218 1.390 . S
C221 C222 1.346 . S
C221 H226 0.930 . S
C222 N219 1.336 . S
C222 C221 1.346 . S
C222 H229 0.929 . S
C223 O213 1.282 . S
C223 O224 1.216 . S
O224 C223 1.216 . S
H225 C220 0.930 . S
H226 C221 0.930 . S
O227 Cu207 1.959 . S
O227 C214 1.251 . S
H228 C211 0.930 . S
H229 C222 0.929 . S
Cu230 N231 1.999 . S
Cu230 O236 1.974 . S
Cu230 N241 1.985 . S
Cu230 O250 1.959 . S
N231 Cu230 1.999 . S
N231 C233 1.263 . S
N231 C235 1.389 . S
N232 C233 1.358 . S
N232 C234 1.400 . S
C233 N231 1.263 . S
C233 N232 1.358 . S
C233 H239 0.930 . S
C234 N232 1.400 . S
C234 C235 1.351 . S
C234 H251 0.930 . S
C235 N231 1.389 . S
C235 C234 1.351 . S
C235 H240 0.930 . S
O236 Cu230 1.974 . S
O236 C246 1.282 . S
C237 O238 1.261 . S
C237 O250 1.251 . S
O238 C237 1.261 . S
H239 C233 0.930 . S
H240 C235 0.930 . S
N241 Cu230 1.985 . S
N241 C243 1.335 . S
N241 C244 1.390 . S
N242 C243 1.345 . S
N242 C245 1.336 . S
C243 N241 1.335 . S
C243 N242 1.345 . S
C243 H248 0.930 . S
C244 N241 1.390 . S
C244 C245 1.346 . S
C244 H249 0.930 . S
C245 N242 1.336 . S
C245 C244 1.346 . S
C245 H252 0.929 . S
C246 O236 1.282 . S
C246 O247 1.216 . S
O247 C246 1.216 . S
H248 C243 0.930 . S
H249 C244 0.930 . S
O250 Cu230 1.959 . S
O250 C237 1.251 . S
H251 C234 0.930 . S
H252 C245 0.929 . S
Cu253 N254 1.999 . S
Cu253 O259 1.974 . S
Cu253 N264 1.985 . S
Cu253 O273 1.959 . S
N254 Cu253 1.999 . S
N254 C256 1.263 . S
N254 C258 1.389 . S
N255 C256 1.358 . S
N255 C257 1.400 . S
C256 N254 1.263 . S
C256 N255 1.358 . S
C256 H262 0.930 . S
C257 N255 1.400 . S
C257 C258 1.351 . S
C257 H274 0.930 . S
C258 N254 1.389 . S
C258 C257 1.351 . S
C258 H263 0.930 . S
O259 Cu253 1.974 . S
O259 C269 1.282 . S
C260 O261 1.261 . S
C260 O273 1.251 . S
O261 C260 1.261 . S
H262 C256 0.930 . S
H263 C258 0.930 . S
N264 Cu253 1.985 . S
N264 C266 1.335 . S
N264 C267 1.390 . S
N265 C266 1.345 . S
N265 C268 1.336 . S
C266 N264 1.335 . S
C266 N265 1.345 . S
C266 H271 0.930 . S
C267 N264 1.390 . S
C267 C268 1.346 . S
C267 H272 0.930 . S
C268 N265 1.336 . S
C268 C267 1.346 . S
C268 H275 0.929 . S
C269 O259 1.282 . S
C269 O270 1.216 . S
O270 C269 1.216 . S
H271 C266 0.930 . S
H272 C267 0.930 . S
O273 Cu253 1.959 . S
O273 C260 1.251 . S
H274 C257 0.930 . S
H275 C268 0.929 . S
Cu276 N277 1.999 . S
Cu276 O282 1.974 . S
Cu276 N287 1.985 . S
Cu276 O296 1.959 . S
N277 Cu276 1.999 . S
N277 C279 1.263 . S
N277 C281 1.389 . S
N278 C279 1.358 . S
N278 C280 1.400 . S
C279 N277 1.263 . S
C279 N278 1.358 . S
C279 H285 0.930 . S
C280 N278 1.400 . S
C280 C281 1.351 . S
C280 H297 0.930 . S
C281 N277 1.389 . S
C281 C280 1.351 . S
C281 H286 0.930 . S
O282 Cu276 1.974 . S
O282 C292 1.282 . S
C283 O284 1.261 . S
C283 O296 1.251 . S
O284 C283 1.261 . S
H285 C279 0.930 . S
H286 C281 0.930 . S
N287 Cu276 1.985 . S
N287 C289 1.335 . S
N287 C290 1.390 . S
N288 C289 1.345 . S
N288 C291 1.336 . S
C289 N287 1.335 . S
C289 N288 1.345 . S
C289 H294 0.930 . S
C290 N287 1.390 . S
C290 C291 1.346 . S
C290 H295 0.930 . S
C291 N288 1.336 . S
C291 C290 1.346 . S
C291 H298 0.929 . S
C292 O282 1.282 . S
C292 O293 1.216 . S
O293 C292 1.216 . S
H294 C289 0.930 . S
H295 C290 0.930 . S
O296 Cu276 1.959 . S
O296 C283 1.251 . S
H297 C280 0.930 . S
H298 C291 0.929 . S
Cu299 N300 1.999 . S
Cu299 O305 1.974 . S
Cu299 N310 1.985 . S
Cu299 O319 1.959 . S
N300 Cu299 1.999 . S
N300 C302 1.263 . S
N300 C304 1.389 . S
N301 C302 1.358 . S
N301 C303 1.400 . S
C302 N300 1.263 . S
C302 N301 1.358 . S
C302 H308 0.930 . S
C303 N301 1.400 . S
C303 C304 1.351 . S
C303 H320 0.930 . S
C304 N300 1.389 . S
C304 C303 1.351 . S
C304 H309 0.930 . S
O305 Cu299 1.974 . S
O305 C315 1.282 . S
C306 O307 1.261 . S
C306 O319 1.251 . S
O307 C306 1.261 . S
H308 C302 0.930 . S
H309 C304 0.930 . S
N310 Cu299 1.985 . S
N310 C312 1.335 . S
N310 C313 1.390 . S
N311 C312 1.345 . S
N311 C314 1.336 . S
C312 N310 1.335 . S
C312 N311 1.345 . S
C312 H317 0.930 . S
C313 N310 1.390 . S
C313 C314 1.346 . S
C313 H318 0.930 . S
C314 N311 1.336 . S
C314 C313 1.346 . S
C314 H321 0.929 . S
C315 O305 1.282 . S
C315 O316 1.216 . S
O316 C315 1.216 . S
H317 C312 0.930 . S
H318 C313 0.930 . S
O319 Cu299 1.959 . S
O319 C306 1.251 . S
H320 C303 0.930 . S
H321 C314 0.929 . S
Cu322 N323 1.999 . S
Cu322 O328 1.974 . S
Cu322 N333 1.985 . S
Cu322 O342 1.959 . S
N323 Cu322 1.999 . S
N323 C325 1.263 . S
N323 C327 1.389 . S
N324 C325 1.358 . S
N324 C326 1.400 . S
C325 N323 1.263 . S
C325 N324 1.358 . S
C325 H331 0.930 . S
C326 N324 1.400 . S
C326 C327 1.351 . S
C326 H343 0.930 . S
C327 N323 1.389 . S
C327 C326 1.351 . S
C327 H332 0.930 . S
O328 Cu322 1.974 . S
O328 C338 1.282 . S
C329 O330 1.261 . S
C329 O342 1.251 . S
O330 C329 1.261 . S
H331 C325 0.930 . S
H332 C327 0.930 . S
N333 Cu322 1.985 . S
N333 C335 1.335 . S
N333 C336 1.390 . S
N334 C335 1.345 . S
N334 C337 1.336 . S
C335 N333 1.335 . S
C335 N334 1.345 . S
C335 H340 0.930 . S
C336 N333 1.390 . S
C336 C337 1.346 . S
C336 H341 0.930 . S
C337 N334 1.336 . S
C337 C336 1.346 . S
C337 H344 0.929 . S
C338 O328 1.282 . S
C338 O339 1.216 . S
O339 C338 1.216 . S
H340 C335 0.930 . S
H341 C336 0.930 . S
O342 Cu322 1.959 . S
O342 C329 1.251 . S
H343 C326 0.930 . S
H344 C337 0.929 . S
Cu345 N346 1.999 . S
Cu345 O351 1.974 . S
Cu345 N356 1.985 . S
Cu345 O365 1.959 . S
N346 Cu345 1.999 . S
N346 C348 1.263 . S
N346 C350 1.389 . S
N347 C348 1.358 . S
N347 C349 1.400 . S
C348 N346 1.263 . S
C348 N347 1.358 . S
C348 H354 0.930 . S
C349 N347 1.400 . S
C349 C350 1.351 . S
C349 H366 0.930 . S
C350 N346 1.389 . S
C350 C349 1.351 . S
C350 H355 0.930 . S
O351 Cu345 1.974 . S
O351 C361 1.282 . S
C352 O353 1.261 . S
C352 O365 1.251 . S
O353 C352 1.261 . S
H354 C348 0.930 . S
H355 C350 0.930 . S
N356 Cu345 1.985 . S
N356 C358 1.335 . S
N356 C359 1.390 . S
N357 C358 1.345 . S
N357 C360 1.336 . S
C358 N356 1.335 . S
C358 N357 1.345 . S
C358 H363 0.930 . S
C359 N356 1.390 . S
C359 C360 1.346 . S
C359 H364 0.930 . S
C360 N357 1.336 . S
C360 C359 1.346 . S
C360 H367 0.929 . S
C361 O351 1.282 . S
C361 O362 1.216 . S
O362 C361 1.216 . S
H363 C358 0.930 . S
H364 C359 0.930 . S
O365 Cu345 1.959 . S
O365 C352 1.251 . S
H366 C349 0.930 . S
H367 C360 0.929 . S
Cu368 N369 1.999 . S
Cu368 O374 1.974 . S
Cu368 N379 1.985 . S
Cu368 O388 1.959 . S
N369 Cu368 1.999 . S
N369 C371 1.263 . S
N369 C373 1.389 . S
N370 C371 1.358 . S
N370 C372 1.400 . S
C371 N369 1.263 . S
C371 N370 1.358 . S
C371 H377 0.930 . S
C372 N370 1.400 . S
C372 C373 1.351 . S
C372 H389 0.930 . S
C373 N369 1.389 . S
C373 C372 1.351 . S
C373 H378 0.930 . S
O374 Cu368 1.974 . S
O374 C384 1.282 . S
C375 O376 1.261 . S
C375 O388 1.251 . S
O376 C375 1.261 . S
H377 C371 0.930 . S
H378 C373 0.930 . S
N379 Cu368 1.985 . S
N379 C381 1.335 . S
N379 C382 1.390 . S
N380 C381 1.345 . S
N380 C383 1.336 . S
C381 N379 1.335 . S
C381 N380 1.345 . S
C381 H386 0.930 . S
C382 N379 1.390 . S
C382 C383 1.346 . S
C382 H387 0.930 . S
C383 N380 1.336 . S
C383 C382 1.346 . S
C383 H390 0.929 . S
C384 O374 1.282 . S
C384 O385 1.216 . S
O385 C384 1.216 . S
H386 C381 0.930 . S
H387 C382 0.930 . S
O388 Cu368 1.959 . S
O388 C375 1.251 . S
H389 C372 0.930 . S
H390 C383 0.929 . S
Cu391 N392 1.999 . S
Cu391 O397 1.974 . S
Cu391 N402 1.985 . S
Cu391 O411 1.959 . S
N392 Cu391 1.999 . S
N392 C394 1.263 . S
N392 C396 1.389 . S
N393 C394 1.358 . S
N393 C395 1.400 . S
C394 N392 1.263 . S
C394 N393 1.358 . S
C394 H400 0.930 . S
C395 N393 1.400 . S
C395 C396 1.351 . S
C395 H412 0.930 . S
C396 N392 1.389 . S
C396 C395 1.351 . S
C396 H401 0.930 . S
O397 Cu391 1.974 . S
O397 C407 1.282 . S
C398 O399 1.261 . S
C398 O411 1.251 . S
O399 C398 1.261 . S
H400 C394 0.930 . S
H401 C396 0.930 . S
N402 Cu391 1.985 . S
N402 C404 1.335 . S
N402 C405 1.390 . S
N403 C404 1.345 . S
N403 C406 1.336 . S
C404 N402 1.335 . S
C404 N403 1.345 . S
C404 H409 0.930 . S
C405 N402 1.390 . S
C405 C406 1.346 . S
C405 H410 0.930 . S
C406 N403 1.336 . S
C406 C405 1.346 . S
C406 H413 0.929 . S
C407 O397 1.282 . S
C407 O408 1.216 . S
O408 C407 1.216 . S
H409 C404 0.930 . S
H410 C405 0.930 . S
O411 Cu391 1.959 . S
O411 C398 1.251 . S
H412 C395 0.930 . S
H413 C406 0.929 . S
Cu414 N415 1.999 . S
Cu414 O420 1.974 . S
Cu414 N425 1.985 . S
Cu414 O434 1.959 . S
N415 Cu414 1.999 . S
N415 C417 1.263 . S
N415 C419 1.389 . S
N416 C417 1.358 . S
N416 C418 1.400 . S
C417 N415 1.263 . S
C417 N416 1.358 . S
C417 H423 0.930 . S
C418 N416 1.400 . S
C418 C419 1.351 . S
C418 H435 0.930 . S
C419 N415 1.389 . S
C419 C418 1.351 . S
C419 H424 0.930 . S
O420 Cu414 1.974 . S
O420 C430 1.282 . S
C421 O422 1.261 . S
C421 O434 1.251 . S
O422 C421 1.261 . S
H423 C417 0.930 . S
H424 C419 0.930 . S
N425 Cu414 1.985 . S
N425 C427 1.335 . S
N425 C428 1.390 . S
N426 C427 1.345 . S
N426 C429 1.336 . S
C427 N425 1.335 . S
C427 N426 1.345 . S
C427 H432 0.930 . S
C428 N425 1.390 . S
C428 C429 1.346 . S
C428 H433 0.930 . S
C429 N426 1.336 . S
C429 C428 1.346 . S
C429 H436 0.929 . S
C430 O420 1.282 . S
C430 O431 1.216 . S
O431 C430 1.216 . S
H432 C427 0.930 . S
H433 C428 0.930 . S
O434 Cu414 1.959 . S
O434 C421 1.251 . S
H435 C418 0.930 . S
H436 C429 0.929 . S
Cu437 N438 1.999 . S
Cu437 O443 1.974 . S
Cu437 N448 1.985 . S
Cu437 O457 1.959 . S
N438 Cu437 1.999 . S
N438 C440 1.263 . S
N438 C442 1.389 . S
N439 C440 1.358 . S
N439 C441 1.400 . S
C440 N438 1.263 . S
C440 N439 1.358 . S
C440 H446 0.930 . S
C441 N439 1.400 . S
C441 C442 1.351 . S
C441 H458 0.930 . S
C442 N438 1.389 . S
C442 C441 1.351 . S
C442 H447 0.930 . S
O443 Cu437 1.974 . S
O443 C453 1.282 . S
C444 O445 1.261 . S
C444 O457 1.251 . S
O445 C444 1.261 . S
H446 C440 0.930 . S
H447 C442 0.930 . S
N448 Cu437 1.985 . S
N448 C450 1.335 . S
N448 C451 1.390 . S
N449 C450 1.345 . S
N449 C452 1.336 . S
C450 N448 1.335 . S
C450 N449 1.345 . S
C450 H455 0.930 . S
C451 N448 1.390 . S
C451 C452 1.346 . S
C451 H456 0.930 . S
C452 N449 1.336 . S
C452 C451 1.346 . S
C452 H459 0.929 . S
C453 O443 1.282 . S
C453 O454 1.216 . S
O454 C453 1.216 . S
H455 C450 0.930 . S
H456 C451 0.930 . S
O457 Cu437 1.959 . S
O457 C444 1.251 . S
H458 C441 0.930 . S
H459 C452 0.929 . S
Cu460 N461 1.999 . S
Cu460 O466 1.974 . S
Cu460 N471 1.985 . S
Cu460 O480 1.959 . S
N461 Cu460 1.999 . S
N461 C463 1.263 . S
N461 C465 1.389 . S
N462 C463 1.358 . S
N462 C464 1.400 . S
C463 N461 1.263 . S
C463 N462 1.358 . S
C463 H469 0.930 . S
C464 N462 1.400 . S
C464 C465 1.351 . S
C464 H481 0.930 . S
C465 N461 1.389 . S
C465 C464 1.351 . S
C465 H470 0.930 . S
O466 Cu460 1.974 . S
O466 C476 1.282 . S
C467 O468 1.261 . S
C467 O480 1.251 . S
O468 C467 1.261 . S
H469 C463 0.930 . S
H470 C465 0.930 . S
N471 Cu460 1.985 . S
N471 C473 1.335 . S
N471 C474 1.390 . S
N472 C473 1.345 . S
N472 C475 1.336 . S
C473 N471 1.335 . S
C473 N472 1.345 . S
C473 H478 0.930 . S
C474 N471 1.390 . S
C474 C475 1.346 . S
C474 H479 0.930 . S
C475 N472 1.336 . S
C475 C474 1.346 . S
C475 H482 0.929 . S
C476 O466 1.282 . S
C476 O477 1.216 . S
O477 C476 1.216 . S
H478 C473 0.930 . S
H479 C474 0.930 . S
O480 Cu460 1.959 . S
O480 C467 1.251 . S
H481 C464 0.930 . S
H482 C475 0.929 . S
Cu483 N484 1.999 . S
Cu483 O489 1.974 . S
Cu483 N494 1.985 . S
Cu483 O503 1.959 . S
N484 Cu483 1.999 . S
N484 C486 1.263 . S
N484 C488 1.389 . S
N485 C486 1.358 . S
N485 C487 1.400 . S
C486 N484 1.263 . S
C486 N485 1.358 . S
C486 H492 0.930 . S
C487 N485 1.400 . S
C487 C488 1.351 . S
C487 H504 0.930 . S
C488 N484 1.389 . S
C488 C487 1.351 . S
C488 H493 0.930 . S
O489 Cu483 1.974 . S
O489 C499 1.282 . S
C490 O491 1.261 . S
C490 O503 1.251 . S
O491 C490 1.261 . S
H492 C486 0.930 . S
H493 C488 0.930 . S
N494 Cu483 1.985 . S
N494 C496 1.335 . S
N494 C497 1.390 . S
N495 C496 1.345 . S
N495 C498 1.336 . S
C496 N494 1.335 . S
C496 N495 1.345 . S
C496 H501 0.930 . S
C497 N494 1.390 . S
C497 C498 1.346 . S
C497 H502 0.930 . S
C498 N495 1.336 . S
C498 C497 1.346 . S
C498 H505 0.929 . S
C499 O489 1.282 . S
C499 O500 1.216 . S
O500 C499 1.216 . S
H501 C496 0.930 . S
H502 C497 0.930 . S
O503 Cu483 1.959 . S
O503 C490 1.251 . S
H504 C487 0.930 . S
H505 C498 0.929 . S
Cu506 N507 1.999 . S
Cu506 O512 1.974 . S
Cu506 N517 1.985 . S
Cu506 O526 1.959 . S
N507 Cu506 1.999 . S
N507 C509 1.263 . S
N507 C511 1.389 . S
N508 C509 1.358 . S
N508 C510 1.400 . S
C509 N507 1.263 . S
C509 N508 1.358 . S
C509 H515 0.930 . S
C510 N508 1.400 . S
C510 C511 1.351 . S
C510 H527 0.930 . S
C511 N507 1.389 . S
C511 C510 1.351 . S
C511 H516 0.930 . S
O512 Cu506 1.974 . S
O512 C522 1.282 . S
C513 O514 1.261 . S
C513 O526 1.251 . S
O514 C513 1.261 . S
H515 C509 0.930 . S
H516 C511 0.930 . S
N517 Cu506 1.985 . S
N517 C519 1.335 . S
N517 C520 1.390 . S
N518 C519 1.345 . S
N518 C521 1.336 . S
C519 N517 1.335 . S
C519 N518 1.345 . S
C519 H524 0.930 . S
C520 N517 1.390 . S
C520 C521 1.346 . S
C520 H525 0.930 . S
C521 N518 1.336 . S
C521 C520 1.346 . S
C521 H528 0.929 . S
C522 O512 1.282 . S
C522 O523 1.216 . S
O523 C522 1.216 . S
H524 C519 0.930 . S
H525 C520 0.930 . S
O526 Cu506 1.959 . S
O526 C513 1.251 . S
H527 C510 0.930 . S
H528 C521 0.929 . S
Cu529 N530 1.999 . S
Cu529 O535 1.974 . S
Cu529 N540 1.985 . S
Cu529 O549 1.959 . S
N530 Cu529 1.999 . S
N530 C532 1.263 . S
N530 C534 1.389 . S
N531 C532 1.358 . S
N531 C533 1.400 . S
C532 N530 1.263 . S
C532 N531 1.358 . S
C532 H538 0.930 . S
C533 N531 1.400 . S
C533 C534 1.351 . S
C533 H550 0.930 . S
C534 N530 1.389 . S
C534 C533 1.351 . S
C534 H539 0.930 . S
O535 Cu529 1.974 . S
O535 C545 1.282 . S
C536 O537 1.261 . S
C536 O549 1.251 . S
O537 C536 1.261 . S
H538 C532 0.930 . S
H539 C534 0.930 . S
N540 Cu529 1.985 . S
N540 C542 1.335 . S
N540 C543 1.390 . S
N541 C542 1.345 . S
N541 C544 1.336 . S
C542 N540 1.335 . S
C542 N541 1.345 . S
C542 H547 0.930 . S
C543 N540 1.390 . S
C543 C544 1.346 . S
C543 H548 0.930 . S
C544 N541 1.336 . S
C544 C543 1.346 . S
C544 H551 0.929 . S
C545 O535 1.282 . S
C545 O546 1.216 . S
O546 C545 1.216 . S
H547 C542 0.930 . S
H548 C543 0.930 . S
O549 Cu529 1.959 . S
O549 C536 1.251 . S
H550 C533 0.930 . S
H551 C544 0.929 . S
H552 C558 0.930 . S
H553 C562 0.930 . S
H554 C567 0.929 . S
H555 C565 0.929 . S
H556 C560 0.929 . S
H557 C566 0.929 . S
C558 H552 0.930 . S
C558 C559 1.367 . S
C558 C566 1.378 . S
C559 C558 1.367 . S
C559 C567 1.433 . S
C560 H556 0.929 . S
C560 C562 1.378 . S
C560 C564 1.350 . S
C561 C564 1.463 . S
C561 C566 1.350 . S
C561 N569 1.427 . S
C562 H553 0.930 . S
C562 C560 1.378 . S
C562 C563 1.367 . S
C563 C562 1.367 . S
C563 C565 1.433 . S
C564 C560 1.350 . S
C564 C561 1.463 . S
C564 N568 1.427 . S
C565 H555 0.929 . S
C565 C563 1.433 . S
C565 N568 1.384 . S
C566 H557 0.929 . S
C566 C558 1.378 . S
C566 C561 1.350 . S
C567 H554 0.929 . S
C567 C559 1.433 . S
C567 N569 1.384 . S
N568 C564 1.427 . S
N568 C565 1.384 . S
N569 C561 1.427 . S
N569 C567 1.384 . S
H570 C576 0.930 . S
H571 C580 0.930 . S
H572 C585 0.929 . S
H573 C583 0.929 . S
H574 C578 0.929 . S
H575 C584 0.929 . S
C576 H570 0.930 . S
C576 C577 1.367 . S
C576 C584 1.378 . S
C577 C576 1.367 . S
C577 C585 1.433 . S
C578 H574 0.929 . S
C578 C580 1.378 . S
C578 C582 1.350 . S
C579 C582 1.463 . S
C579 C584 1.350 . S
C579 N587 1.427 . S
C580 H571 0.930 . S
C580 C578 1.378 . S
C580 C581 1.367 . S
C581 C580 1.367 . S
C581 C583 1.433 . S
C582 C578 1.350 . S
C582 C579 1.463 . S
C582 N586 1.427 . S
C583 H573 0.929 . S
C583 C581 1.433 . S
C583 N586 1.384 . S
C584 H575 0.929 . S
C584 C576 1.378 . S
C584 C579 1.350 . S
C585 H572 0.929 . S
C585 C577 1.433 . S
C585 N587 1.384 . S
N586 C582 1.427 . S
N586 C583 1.384 . S
N587 C579 1.427 . S
N587 C585 1.384 . S
H588 C594 0.930 . S
H589 C598 0.930 . S
H590 C603 0.929 . S
H591 C601 0.929 . S
H592 C596 0.929 . S
H593 C602 0.929 . S
C594 H588 0.930 . S
C594 C595 1.367 . S
C594 C602 1.378 . S
C595 C594 1.367 . S
C595 C603 1.433 . S
C596 H592 0.929 . S
C596 C598 1.378 . S
C596 C600 1.350 . S
C597 C600 1.463 . S
C597 C602 1.350 . S
C597 N605 1.427 . S
C598 H589 0.930 . S
C598 C596 1.378 . S
C598 C599 1.367 . S
C599 C598 1.367 . S
C599 C601 1.433 . S
C600 C596 1.350 . S
C600 C597 1.463 . S
C600 N604 1.427 . S
C601 H591 0.929 . S
C601 C599 1.433 . S
C601 N604 1.384 . S
C602 H593 0.929 . S
C602 C594 1.378 . S
C602 C597 1.350 . S
C603 H590 0.929 . S
C603 C595 1.433 . S
C603 N605 1.384 . S
N604 C600 1.427 . S
N604 C601 1.384 . S
N605 C597 1.427 . S
N605 C603 1.384 . S
H606 C612 0.930 . S
H607 C616 0.930 . S
H608 C621 0.929 . S
H609 C619 0.929 . S
H610 C614 0.929 . S
H611 C620 0.929 . S
C612 H606 0.930 . S
C612 C613 1.367 . S
C612 C620 1.378 . S
C613 C612 1.367 . S
C613 C621 1.433 . S
C614 H610 0.929 . S
C614 C616 1.378 . S
C614 C618 1.350 . S
C615 C618 1.463 . S
C615 C620 1.350 . S
C615 N623 1.427 . S
C616 H607 0.930 . S
C616 C614 1.378 . S
C616 C617 1.367 . S
C617 C616 1.367 . S
C617 C619 1.433 . S
C618 C614 1.350 . S
C618 C615 1.463 . S
C618 N622 1.427 . S
C619 H609 0.929 . S
C619 C617 1.433 . S
C619 N622 1.384 . S
C620 H611 0.929 . S
C620 C612 1.378 . S
C620 C615 1.350 . S
C621 H608 0.929 . S
C621 C613 1.433 . S
C621 N623 1.384 . S
N622 C618 1.427 . S
N622 C619 1.384 . S
N623 C615 1.427 . S
N623 C621 1.384 . S
H624 C630 0.930 . S
H625 C634 0.930 . S
H626 C639 0.929 . S
H627 C637 0.929 . S
H628 C632 0.929 . S
H629 C638 0.929 . S
C630 H624 0.930 . S
C630 C631 1.367 . S
C630 C638 1.378 . S
C631 C630 1.367 . S
C631 C639 1.433 . S
C632 H628 0.929 . S
C632 C634 1.378 . S
C632 C636 1.350 . S
C633 C636 1.463 . S
C633 C638 1.350 . S
C633 N641 1.427 . S
C634 H625 0.930 . S
C634 C632 1.378 . S
C634 C635 1.367 . S
C635 C634 1.367 . S
C635 C637 1.433 . S
C636 C632 1.350 . S
C636 C633 1.463 . S
C636 N640 1.427 . S
C637 H627 0.929 . S
C637 C635 1.433 . S
C637 N640 1.384 . S
C638 H629 0.929 . S
C638 C630 1.378 . S
C638 C633 1.350 . S
C639 H626 0.929 . S
C639 C631 1.433 . S
C639 N641 1.384 . S
N640 C636 1.427 . S
N640 C637 1.384 . S
N641 C633 1.427 . S
N641 C639 1.384 . S
H642 C648 0.930 . S
H643 C652 0.930 . S
H644 C657 0.929 . S
H645 C655 0.929 . S
H646 C650 0.929 . S
H647 C656 0.929 . S
C648 H642 0.930 . S
C648 C649 1.367 . S
C648 C656 1.378 . S
C649 C648 1.367 . S
C649 C657 1.433 . S
C650 H646 0.929 . S
C650 C652 1.378 . S
C650 C654 1.350 . S
C651 C654 1.463 . S
C651 C656 1.350 . S
C651 N659 1.427 . S
C652 H643 0.930 . S
C652 C650 1.378 . S
C652 C653 1.367 . S
C653 C652 1.367 . S
C653 C655 1.433 . S
C654 C650 1.350 . S
C654 C651 1.463 . S
C654 N658 1.427 . S
C655 H645 0.929 . S
C655 C653 1.433 . S
C655 N658 1.384 . S
C656 H647 0.929 . S
C656 C648 1.378 . S
C656 C651 1.350 . S
C657 H644 0.929 . S
C657 C649 1.433 . S
C657 N659 1.384 . S
N658 C654 1.427 . S
N658 C655 1.384 . S
N659 C651 1.427 . S
N659 C657 1.384 . S
H660 C666 0.930 . S
H661 C670 0.930 . S
H662 C675 0.929 . S
H663 C673 0.929 . S
H664 C668 0.929 . S
H665 C674 0.929 . S
C666 H660 0.930 . S
C666 C667 1.367 . S
C666 C674 1.378 . S
C667 C666 1.367 . S
C667 C675 1.433 . S
C668 H664 0.929 . S
C668 C670 1.378 . S
C668 C672 1.350 . S
C669 C672 1.463 . S
C669 C674 1.350 . S
C669 N677 1.427 . S
C670 H661 0.930 . S
C670 C668 1.378 . S
C670 C671 1.367 . S
C671 C670 1.367 . S
C671 C673 1.433 . S
C672 C668 1.350 . S
C672 C669 1.463 . S
C672 N676 1.427 . S
C673 H663 0.929 . S
C673 C671 1.433 . S
C673 N676 1.384 . S
C674 H665 0.929 . S
C674 C666 1.378 . S
C674 C669 1.350 . S
C675 H662 0.929 . S
C675 C667 1.433 . S
C675 N677 1.384 . S
N676 C672 1.427 . S
N676 C673 1.384 . S
N677 C669 1.427 . S
N677 C675 1.384 . S
H678 C684 0.930 . S
H679 C688 0.930 . S
H680 C693 0.929 . S
H681 C691 0.929 . S
H682 C686 0.929 . S
H683 C692 0.929 . S
C684 H678 0.930 . S
C684 C685 1.367 . S
C684 C692 1.378 . S
C685 C684 1.367 . S
C685 C693 1.433 . S
C686 H682 0.929 . S
C686 C688 1.378 . S
C686 C690 1.350 . S
C687 C690 1.463 . S
C687 C692 1.350 . S
C687 N695 1.427 . S
C688 H679 0.930 . S
C688 C686 1.378 . S
C688 C689 1.367 . S
C689 C688 1.367 . S
C689 C691 1.433 . S
C690 C686 1.350 . S
C690 C687 1.463 . S
C690 N694 1.427 . S
C691 H681 0.929 . S
C691 C689 1.433 . S
C691 N694 1.384 . S
C692 H683 0.929 . S
C692 C684 1.378 . S
C692 C687 1.350 . S
C693 H680 0.929 . S
C693 C685 1.433 . S
C693 N695 1.384 . S
N694 C690 1.427 . S
N694 C691 1.384 . S
N695 C687 1.427 . S
N695 C693 1.384 . S
H696 C702 0.930 . S
H697 C706 0.930 . S
H698 C711 0.929 . S
H699 C709 0.929 . S
H700 C704 0.929 . S
H701 C710 0.929 . S
C702 H696 0.930 . S
C702 C703 1.367 . S
C702 C710 1.378 . S
C703 C702 1.367 . S
C703 C711 1.433 . S
C704 H700 0.929 . S
C704 C706 1.378 . S
C704 C708 1.350 . S
C705 C708 1.463 . S
C705 C710 1.350 . S
C705 N713 1.427 . S
C706 H697 0.930 . S
C706 C704 1.378 . S
C706 C707 1.367 . S
C707 C706 1.367 . S
C707 C709 1.433 . S
C708 C704 1.350 . S
C708 C705 1.463 . S
C708 N712 1.427 . S
C709 H699 0.929 . S
C709 C707 1.433 . S
C709 N712 1.384 . S
C710 H701 0.929 . S
C710 C702 1.378 . S
C710 C705 1.350 . S
C711 H698 0.929 . S
C711 C703 1.433 . S
C711 N713 1.384 . S
N712 C708 1.427 . S
N712 C709 1.384 . S
N713 C705 1.427 . S
N713 C711 1.384 . S
H714 C720 0.930 . S
H715 C724 0.930 . S
H716 C729 0.929 . S
H717 C727 0.929 . S
H718 C722 0.929 . S
H719 C728 0.929 . S
C720 H714 0.930 . S
C720 C721 1.367 . S
C720 C728 1.378 . S
C721 C720 1.367 . S
C721 C729 1.433 . S
C722 H718 0.929 . S
C722 C724 1.378 . S
C722 C726 1.350 . S
C723 C726 1.463 . S
C723 C728 1.350 . S
C723 N731 1.427 . S
C724 H715 0.930 . S
C724 C722 1.378 . S
C724 C725 1.367 . S
C725 C724 1.367 . S
C725 C727 1.433 . S
C726 C722 1.350 . S
C726 C723 1.463 . S
C726 N730 1.427 . S
C727 H717 0.929 . S
C727 C725 1.433 . S
C727 N730 1.384 . S
C728 H719 0.929 . S
C728 C720 1.378 . S
C728 C723 1.350 . S
C729 H716 0.929 . S
C729 C721 1.433 . S
C729 N731 1.384 . S
N730 C726 1.427 . S
N730 C727 1.384 . S
N731 C723 1.427 . S
N731 C729 1.384 . S
H732 C738 0.930 . S
H733 C742 0.930 . S
H734 C747 0.929 . S
H735 C745 0.929 . S
H736 C740 0.929 . S
H737 C746 0.929 . S
C738 H732 0.930 . S
C738 C739 1.367 . S
C738 C746 1.378 . S
C739 C738 1.367 . S
C739 C747 1.433 . S
C740 H736 0.929 . S
C740 C742 1.378 . S
C740 C744 1.350 . S
C741 C744 1.463 . S
C741 C746 1.350 . S
C741 N749 1.427 . S
C742 H733 0.930 . S
C742 C740 1.378 . S
C742 C743 1.367 . S
C743 C742 1.367 . S
C743 C745 1.433 . S
C744 C740 1.350 . S
C744 C741 1.463 . S
C744 N748 1.427 . S
C745 H735 0.929 . S
C745 C743 1.433 . S
C745 N748 1.384 . S
C746 H737 0.929 . S
C746 C738 1.378 . S
C746 C741 1.350 . S
C747 H734 0.929 . S
C747 C739 1.433 . S
C747 N749 1.384 . S
N748 C744 1.427 . S
N748 C745 1.384 . S
N749 C741 1.427 . S
N749 C747 1.384 . S
H750 C756 0.930 . S
H751 C760 0.930 . S
H752 C765 0.929 . S
H753 C763 0.929 . S
H754 C758 0.929 . S
H755 C764 0.929 . S
C756 H750 0.930 . S
C756 C757 1.367 . S
C756 C764 1.378 . S
C757 C756 1.367 . S
C757 C765 1.433 . S
C758 H754 0.929 . S
C758 C760 1.378 . S
C758 C762 1.350 . S
C759 C762 1.463 . S
C759 C764 1.350 . S
C759 N767 1.427 . S
C760 H751 0.930 . S
C760 C758 1.378 . S
C760 C761 1.367 . S
C761 C760 1.367 . S
C761 C763 1.433 . S
C762 C758 1.350 . S
C762 C759 1.463 . S
C762 N766 1.427 . S
C763 H753 0.929 . S
C763 C761 1.433 . S
C763 N766 1.384 . S
C764 H755 0.929 . S
C764 C756 1.378 . S
C764 C759 1.350 . S
C765 H752 0.929 . S
C765 C757 1.433 . S
C765 N767 1.384 . S
N766 C762 1.427 . S
N766 C763 1.384 . S
N767 C759 1.427 . S
N767 C765 1.384 . S
H768 C774 0.930 . S
H769 C778 0.930 . S
H770 C783 0.929 . S
H771 C781 0.929 . S
H772 C776 0.929 . S
H773 C782 0.929 . S
C774 H768 0.930 . S
C774 C775 1.367 . S
C774 C782 1.378 . S
C775 C774 1.367 . S
C775 C783 1.433 . S
C776 H772 0.929 . S
C776 C778 1.378 . S
C776 C780 1.350 . S
C777 C780 1.463 . S
C777 C782 1.350 . S
C777 N785 1.427 . S
C778 H769 0.930 . S
C778 C776 1.378 . S
C778 C779 1.367 . S
C779 C778 1.367 . S
C779 C781 1.433 . S
C780 C776 1.350 . S
C780 C777 1.463 . S
C780 N784 1.427 . S
C781 H771 0.929 . S
C781 C779 1.433 . S
C781 N784 1.384 . S
C782 H773 0.929 . S
C782 C774 1.378 . S
C782 C777 1.350 . S
C783 H770 0.929 . S
C783 C775 1.433 . S
C783 N785 1.384 . S
N784 C780 1.427 . S
N784 C781 1.384 . S
N785 C777 1.427 . S
N785 C783 1.384 . S
H786 C792 0.930 . S
H787 C796 0.930 . S
H788 C801 0.929 . S
H789 C799 0.929 . S
H790 C794 0.929 . S
H791 C800 0.929 . S
C792 H786 0.930 . S
C792 C793 1.367 . S
C792 C800 1.378 . S
C793 C792 1.367 . S
C793 C801 1.433 . S
C794 H790 0.929 . S
C794 C796 1.378 . S
C794 C798 1.350 . S
C795 C798 1.463 . S
C795 C800 1.350 . S
C795 N803 1.427 . S
C796 H787 0.930 . S
C796 C794 1.378 . S
C796 C797 1.367 . S
C797 C796 1.367 . S
C797 C799 1.433 . S
C798 C794 1.350 . S
C798 C795 1.463 . S
C798 N802 1.427 . S
C799 H789 0.929 . S
C799 C797 1.433 . S
C799 N802 1.384 . S
C800 H791 0.929 . S
C800 C792 1.378 . S
C800 C795 1.350 . S
C801 H788 0.929 . S
C801 C793 1.433 . S
C801 N803 1.384 . S
N802 C798 1.427 . S
N802 C799 1.384 . S
N803 C795 1.427 . S
N803 C801 1.384 . S
H804 C810 0.930 . S
H805 C814 0.930 . S
H806 C819 0.929 . S
H807 C817 0.929 . S
H808 C812 0.929 . S
H809 C818 0.929 . S
C810 H804 0.930 . S
C810 C811 1.367 . S
C810 C818 1.378 . S
C811 C810 1.367 . S
C811 C819 1.433 . S
C812 H808 0.929 . S
C812 C814 1.378 . S
C812 C816 1.350 . S
C813 C816 1.463 . S
C813 C818 1.350 . S
C813 N821 1.427 . S
C814 H805 0.930 . S
C814 C812 1.378 . S
C814 C815 1.367 . S
C815 C814 1.367 . S
C815 C817 1.433 . S
C816 C812 1.350 . S
C816 C813 1.463 . S
C816 N820 1.427 . S
C817 H807 0.929 . S
C817 C815 1.433 . S
C817 N820 1.384 . S
C818 H809 0.929 . S
C818 C810 1.378 . S
C818 C813 1.350 . S
C819 H806 0.929 . S
C819 C811 1.433 . S
C819 N821 1.384 . S
N820 C816 1.427 . S
N820 C817 1.384 . S
N821 C813 1.427 . S
N821 C819 1.384 . S
H822 C828 0.930 . S
H823 C832 0.930 . S
H824 C837 0.929 . S
H825 C835 0.929 . S
H826 C830 0.929 . S
H827 C836 0.929 . S
C828 H822 0.930 . S
C828 C829 1.367 . S
C828 C836 1.378 . S
C829 C828 1.367 . S
C829 C837 1.433 . S
C830 H826 0.929 . S
C830 C832 1.378 . S
C830 C834 1.350 . S
C831 C834 1.463 . S
C831 C836 1.350 . S
C831 N839 1.427 . S
C832 H823 0.930 . S
C832 C830 1.378 . S
C832 C833 1.367 . S
C833 C832 1.367 . S
C833 C835 1.433 . S
C834 C830 1.350 . S
C834 C831 1.463 . S
C834 N838 1.427 . S
C835 H825 0.929 . S
C835 C833 1.433 . S
C835 N838 1.384 . S
C836 H827 0.929 . S
C836 C828 1.378 . S
C836 C831 1.350 . S
C837 H824 0.929 . S
C837 C829 1.433 . S
C837 N839 1.384 . S
N838 C834 1.427 . S
N838 C835 1.384 . S
N839 C831 1.427 . S
N839 C837 1.384 . S
H840 C846 0.930 . S
H841 C850 0.930 . S
H842 C855 0.929 . S
H843 C853 0.929 . S
H844 C848 0.929 . S
H845 C854 0.929 . S
C846 H840 0.930 . S
C846 C847 1.367 . S
C846 C854 1.378 . S
C847 C846 1.367 . S
C847 C855 1.433 . S
C848 H844 0.929 . S
C848 C850 1.378 . S
C848 C852 1.350 . S
C849 C852 1.463 . S
C849 C854 1.350 . S
C849 N857 1.427 . S
C850 H841 0.930 . S
C850 C848 1.378 . S
C850 C851 1.367 . S
C851 C850 1.367 . S
C851 C853 1.433 . S
C852 C848 1.350 . S
C852 C849 1.463 . S
C852 N856 1.427 . S
C853 H843 0.929 . S
C853 C851 1.433 . S
C853 N856 1.384 . S
C854 H845 0.929 . S
C854 C846 1.378 . S
C854 C849 1.350 . S
C855 H842 0.929 . S
C855 C847 1.433 . S
C855 N857 1.384 . S
N856 C852 1.427 . S
N856 C853 1.384 . S
N857 C849 1.427 . S
N857 C855 1.384 . S
H858 C864 0.930 . S
H859 C868 0.930 . S
H860 C873 0.929 . S
H861 C871 0.929 . S
H862 C866 0.929 . S
H863 C872 0.929 . S
C864 H858 0.930 . S
C864 C865 1.367 . S
C864 C872 1.378 . S
C865 C864 1.367 . S
C865 C873 1.433 . S
C866 H862 0.929 . S
C866 C868 1.378 . S
C866 C870 1.350 . S
C867 C870 1.463 . S
C867 C872 1.350 . S
C867 N875 1.427 . S
C868 H859 0.930 . S
C868 C866 1.378 . S
C868 C869 1.367 . S
C869 C868 1.367 . S
C869 C871 1.433 . S
C870 C866 1.350 . S
C870 C867 1.463 . S
C870 N874 1.427 . S
C871 H861 0.929 . S
C871 C869 1.433 . S
C871 N874 1.384 . S
C872 H863 0.929 . S
C872 C864 1.378 . S
C872 C867 1.350 . S
C873 H860 0.929 . S
C873 C865 1.433 . S
C873 N875 1.384 . S
N874 C870 1.427 . S
N874 C871 1.384 . S
N875 C867 1.427 . S
N875 C873 1.384 . S
H876 C882 0.930 . S
H877 C886 0.930 . S
H878 C891 0.929 . S
H879 C889 0.929 . S
H880 C884 0.929 . S
H881 C890 0.929 . S
C882 H876 0.930 . S
C882 C883 1.367 . S
C882 C890 1.378 . S
C883 C882 1.367 . S
C883 C891 1.433 . S
C884 H880 0.929 . S
C884 C886 1.378 . S
C884 C888 1.350 . S
C885 C888 1.463 . S
C885 C890 1.350 . S
C885 N893 1.427 . S
C886 H877 0.930 . S
C886 C884 1.378 . S
C886 C887 1.367 . S
C887 C886 1.367 . S
C887 C889 1.433 . S
C888 C884 1.350 . S
C888 C885 1.463 . S
C888 N892 1.427 . S
C889 H879 0.929 . S
C889 C887 1.433 . S
C889 N892 1.384 . S
C890 H881 0.929 . S
C890 C882 1.378 . S
C890 C885 1.350 . S
C891 H878 0.929 . S
C891 C883 1.433 . S
C891 N893 1.384 . S
N892 C888 1.427 . S
N892 C889 1.384 . S
N893 C885 1.427 . S
N893 C891 1.384 . S
H894 C900 0.930 . S
H895 C904 0.930 . S
H896 C909 0.929 . S
H897 C907 0.929 . S
H898 C902 0.929 . S
H899 C908 0.929 . S
C900 H894 0.930 . S
C900 C901 1.367 . S
C900 C908 1.378 . S
C901 C900 1.367 . S
C901 C909 1.433 . S
C902 H898 0.929 . S
C902 C904 1.378 . S
C902 C906 1.350 . S
C903 C906 1.463 . S
C903 C908 1.350 . S
C903 N911 1.427 . S
C904 H895 0.930 . S
C904 C902 1.378 . S
C904 C905 1.367 . S
C905 C904 1.367 . S
C905 C907 1.433 . S
C906 C902 1.350 . S
C906 C903 1.463 . S
C906 N910 1.427 . S
C907 H897 0.929 . S
C907 C905 1.433 . S
C907 N910 1.384 . S
C908 H899 0.929 . S
C908 C900 1.378 . S
C908 C903 1.350 . S
C909 H896 0.929 . S
C909 C901 1.433 . S
C909 N911 1.384 . S
N910 C906 1.427 . S
N910 C907 1.384 . S
N911 C903 1.427 . S
N911 C909 1.384 . S
H912 C918 0.930 . S
H913 C922 0.930 . S
H914 C927 0.929 . S
H915 C925 0.929 . S
H916 C920 0.929 . S
H917 C926 0.929 . S
C918 H912 0.930 . S
C918 C919 1.367 . S
C918 C926 1.378 . S
C919 C918 1.367 . S
C919 C927 1.433 . S
C920 H916 0.929 . S
C920 C922 1.378 . S
C920 C924 1.350 . S
C921 C924 1.463 . S
C921 C926 1.350 . S
C921 N929 1.427 . S
C922 H913 0.930 . S
C922 C920 1.378 . S
C922 C923 1.367 . S
C923 C922 1.367 . S
C923 C925 1.433 . S
C924 C920 1.350 . S
C924 C921 1.463 . S
C924 N928 1.427 . S
C925 H915 0.929 . S
C925 C923 1.433 . S
C925 N928 1.384 . S
C926 H917 0.929 . S
C926 C918 1.378 . S
C926 C921 1.350 . S
C927 H914 0.929 . S
C927 C919 1.433 . S
C927 N929 1.384 . S
N928 C924 1.427 . S
N928 C925 1.384 . S
N929 C921 1.427 . S
N929 C927 1.384 . S
H930 C936 0.930 . S
H931 C940 0.930 . S
H932 C945 0.929 . S
H933 C943 0.929 . S
H934 C938 0.929 . S
H935 C944 0.929 . S
C936 H930 0.930 . S
C936 C937 1.367 . S
C936 C944 1.378 . S
C937 C936 1.367 . S
C937 C945 1.433 . S
C938 H934 0.929 . S
C938 C940 1.378 . S
C938 C942 1.350 . S
C939 C942 1.463 . S
C939 C944 1.350 . S
C939 N947 1.427 . S
C940 H931 0.930 . S
C940 C938 1.378 . S
C940 C941 1.367 . S
C941 C940 1.367 . S
C941 C943 1.433 . S
C942 C938 1.350 . S
C942 C939 1.463 . S
C942 N946 1.427 . S
C943 H933 0.929 . S
C943 C941 1.433 . S
C943 N946 1.384 . S
C944 H935 0.929 . S
C944 C936 1.378 . S
C944 C939 1.350 . S
C945 H932 0.929 . S
C945 C937 1.433 . S
C945 N947 1.384 . S
N946 C942 1.427 . S
N946 C943 1.384 . S
N947 C939 1.427 . S
N947 C945 1.384 . S
H948 C954 0.930 . S
H949 C958 0.930 . S
H950 C963 0.929 . S
H951 C961 0.929 . S
H952 C956 0.929 . S
H953 C962 0.929 . S
C954 H948 0.930 . S
C954 C955 1.367 . S
C954 C962 1.378 . S
C955 C954 1.367 . S
C955 C963 1.433 . S
C956 H952 0.929 . S
C956 C958 1.378 . S
C956 C960 1.350 . S
C957 C960 1.463 . S
C957 C962 1.350 . S
C957 N965 1.427 . S
C958 H949 0.930 . S
C958 C956 1.378 . S
C958 C959 1.367 . S
C959 C958 1.367 . S
C959 C961 1.433 . S
C960 C956 1.350 . S
C960 C957 1.463 . S
C960 N964 1.427 . S
C961 H951 0.929 . S
C961 C959 1.433 . S
C961 N964 1.384 . S
C962 H953 0.929 . S
C962 C954 1.378 . S
C962 C957 1.350 . S
C963 H950 0.929 . S
C963 C955 1.433 . S
C963 N965 1.384 . S
N964 C960 1.427 . S
N964 C961 1.384 . S
N965 C957 1.427 . S
N965 C963 1.384 . S
H966 C972 0.930 . S
H967 C976 0.930 . S
H968 C981 0.929 . S
H969 C979 0.929 . S
H970 C974 0.929 . S
H971 C980 0.929 . S
C972 H966 0.930 . S
C972 C973 1.367 . S
C972 C980 1.378 . S
C973 C972 1.367 . S
C973 C981 1.433 . S
C974 H970 0.929 . S
C974 C976 1.378 . S
C974 C978 1.350 . S
C975 C978 1.463 . S
C975 C980 1.350 . S
C975 N983 1.427 . S
C976 H967 0.930 . S
C976 C974 1.378 . S
C976 C977 1.367 . S
C977 C976 1.367 . S
C977 C979 1.433 . S
C978 C974 1.350 . S
C978 C975 1.463 . S
C978 N982 1.427 . S
C979 H969 0.929 . S
C979 C977 1.433 . S
C979 N982 1.384 . S
C980 H971 0.929 . S
C980 C972 1.378 . S
C980 C975 1.350 . S
C981 H968 0.929 . S
C981 C973 1.433 . S
C981 N983 1.384 . S
N982 C978 1.427 . S
N982 C979 1.384 . S
N983 C975 1.427 . S
N983 C981 1.384 . S
H984 C990 0.930 . S
H985 C994 0.930 . S
H986 C999 0.929 . S
H987 C997 0.929 . S
H988 C992 0.929 . S
H989 C998 0.929 . S
C990 H984 0.930 . S
C990 C991 1.367 . S
C990 C998 1.378 . S
C991 C990 1.367 . S
C991 C999 1.433 . S
C992 H988 0.929 . S
C992 C994 1.378 . S
C992 C996 1.350 . S
C993 C996 1.463 . S
C993 C998 1.350 . S
C993 N1001 1.427 . S
C994 H985 0.930 . S
C994 C992 1.378 . S
C994 C995 1.367 . S
C995 C994 1.367 . S
C995 C997 1.433 . S
C996 C992 1.350 . S
C996 C993 1.463 . S
C996 N1000 1.427 . S
C997 H987 0.929 . S
C997 C995 1.433 . S
C997 N1000 1.384 . S
C998 H989 0.929 . S
C998 C990 1.378 . S
C998 C993 1.350 . S
C999 H986 0.929 . S
C999 C991 1.433 . S
C999 N1001 1.384 . S
N1000 C996 1.427 . S
N1000 C997 1.384 . S
N1001 C993 1.427 . S
N1001 C999 1.384 . S
H1002 C1008 0.930 . S
H1003 C1012 0.930 . S
H1004 C1017 0.929 . S
H1005 C1015 0.929 . S
H1006 C1010 0.929 . S
H1007 C1016 0.929 . S
C1008 H1002 0.930 . S
C1008 C1009 1.367 . S
C1008 C1016 1.378 1_554 S
C1009 C1008 1.367 . S
C1009 C1017 1.433 . S
C1010 H1006 0.929 . S
C1010 C1012 1.378 . S
C1010 C1014 1.350 . S
C1011 C1014 1.463 . S
C1011 C1016 1.350 . S
C1011 N1019 1.448 . S
C1012 H1003 0.930 . S
C1012 C1010 1.378 . S
C1012 C1013 1.367 . S
C1013 C1012 1.367 . S
C1013 C1015 1.433 . S
C1014 C1010 1.350 . S
C1014 C1011 1.463 . S
C1014 N1018 1.427 . S
C1015 H1005 0.929 . S
C1015 C1013 1.433 . S
C1015 N1018 1.384 . S
C1016 H1007 0.929 . S
C1016 C1008 1.378 1_556 S
C1016 C1011 1.350 . S
C1017 H1004 0.929 . S
C1017 C1009 1.433 . S
C1017 N1019 1.356 1_554 S
N1018 C1014 1.427 . S
N1018 C1015 1.384 . S
N1019 C1011 1.448 . S
N1019 C1017 1.356 1_556 S
H1020 C1026 0.930 . S
H1021 C1030 0.930 . S
H1022 C1035 0.929 . S
H1023 C1033 0.929 . S
H1024 C1028 0.929 . S
H1025 C1034 0.929 . S
C1026 H1020 0.930 . S
C1026 C1027 1.367 . S
C1026 C1034 1.378 . S
C1027 C1026 1.367 . S
C1027 C1035 1.433 . S
C1028 H1024 0.929 . S
C1028 C1030 1.378 . S
C1028 C1032 1.350 . S
C1029 C1032 1.463 . S
C1029 C1034 1.350 . S
C1029 N1037 1.427 . S
C1030 H1021 0.930 . S
C1030 C1028 1.378 . S
C1030 C1031 1.367 . S
C1031 C1030 1.367 . S
C1031 C1033 1.433 . S
C1032 C1028 1.350 . S
C1032 C1029 1.463 . S
C1032 N1036 1.427 . S
C1033 H1023 0.929 . S
C1033 C1031 1.433 . S
C1033 N1036 1.384 . S
C1034 H1025 0.929 . S
C1034 C1026 1.378 . S
C1034 C1029 1.350 . S
C1035 H1022 0.929 . S
C1035 C1027 1.433 . S
C1035 N1037 1.384 . S
N1036 C1032 1.427 . S
N1036 C1033 1.384 . S
N1037 C1029 1.427 . S
N1037 C1035 1.384 . S
H1038 C1044 0.930 . S
H1039 C1048 0.930 . S
H1040 C1053 0.929 . S
H1041 C1051 0.929 . S
H1042 C1046 0.929 . S
H1043 C1052 0.929 . S
C1044 H1038 0.930 . S
C1044 C1045 1.367 . S
C1044 C1052 1.378 . S
C1045 C1044 1.367 . S
C1045 C1053 1.433 . S
C1046 H1042 0.929 . S
C1046 C1048 1.378 1_554 S
C1046 C1050 1.350 . S
C1047 C1050 1.463 . S
C1047 C1052 1.350 . S
C1047 N1055 1.427 . S
C1048 H1039 0.930 . S
C1048 C1046 1.378 1_556 S
C1048 C1049 1.367 . S
C1049 C1048 1.367 . S
C1049 C1051 1.433 . S
C1050 C1046 1.350 . S
C1050 C1047 1.463 . S
C1050 N1054 1.427 . S
C1051 H1041 0.929 . S
C1051 C1049 1.433 . S
C1051 N1054 1.384 1_556 S
C1052 H1043 0.929 . S
C1052 C1044 1.378 . S
C1052 C1047 1.350 . S
C1053 H1040 0.929 . S
C1053 C1045 1.433 . S
C1053 N1055 1.384 . S
N1054 C1050 1.427 . S
N1054 C1051 1.384 1_554 S
N1055 C1047 1.427 . S
N1055 C1053 1.384 . S
H1056 C1062 0.930 . S
H1057 C1066 0.930 . S
H1058 C1071 0.929 . S
H1059 C1069 0.929 . S
H1060 C1064 0.929 . S
H1061 C1070 0.929 . S
C1062 H1056 0.930 . S
C1062 C1063 1.367 . S
C1062 C1070 1.378 . S
C1063 C1062 1.367 . S
C1063 C1071 1.433 . S
C1064 H1060 0.929 . S
C1064 C1066 1.378 . S
C1064 C1068 1.350 . S
C1065 C1068 1.463 . S
C1065 C1070 1.350 . S
C1065 N1073 1.427 . S
C1066 H1057 0.930 . S
C1066 C1064 1.378 . S
C1066 C1067 1.367 . S
C1067 C1066 1.367 . S
C1067 C1069 1.433 . S
C1068 C1064 1.350 . S
C1068 C1065 1.463 . S
C1068 N1072 1.427 . S
C1069 H1059 0.929 . S
C1069 C1067 1.433 . S
C1069 N1072 1.384 . S
C1070 H1061 0.929 . S
C1070 C1062 1.378 . S
C1070 C1065 1.350 . S
C1071 H1058 0.929 . S
C1071 C1063 1.433 . S
C1071 N1073 1.384 . S
N1072 C1068 1.427 . S
N1072 C1069 1.384 . S
N1073 C1065 1.427 . S
N1073 C1071 1.384 . S
H1074 C1080 0.930 . S
H1075 C1084 0.930 . S
H1076 C1089 0.922 1_655 S
H1077 C1087 0.929 . S
H1078 C1082 0.929 . S
H1079 C1088 0.929 . S
C1080 H1074 0.930 . S
C1080 C1081 1.367 . S
C1080 C1088 1.378 1_655 S
C1081 C1080 1.367 . S
C1081 C1089 1.416 1_655 S
C1082 H1078 0.929 . S
C1082 C1084 1.378 . S
C1082 C1086 1.350 . S
C1083 C1086 1.463 . S
C1083 C1088 1.350 . S
C1083 N1091 1.427 . S
C1084 H1075 0.930 . S
C1084 C1082 1.378 . S
C1084 C1085 1.367 . S
C1085 C1084 1.367 . S
C1085 C1087 1.433 . S
C1086 C1082 1.350 . S
C1086 C1083 1.463 . S
C1086 N1090 1.427 . S
C1087 H1077 0.929 . S
C1087 C1085 1.433 . S
C1087 N1090 1.384 . S
C1088 H1079 0.929 . S
C1088 C1080 1.378 1_455 S
C1088 C1083 1.350 . S
C1089 H1076 0.922 1_455 S
C1089 C1081 1.416 1_455 S
C1089 N1091 1.409 . S
N1090 C1086 1.427 . S
N1090 C1087 1.384 . S
N1091 C1083 1.427 . S
N1091 C1089 1.409 . S
H1092 C1098 0.930 . S
H1093 C1102 0.930 . S
H1094 C1107 0.929 . S
H1095 C1105 0.929 . S
H1096 C1100 0.929 . S
H1097 C1106 0.929 . S
C1098 H1092 0.930 . S
C1098 C1099 1.367 . S
C1098 C1106 1.378 1_455 S
C1099 C1098 1.367 . S
C1099 C1107 1.433 . S
C1100 H1096 0.929 . S
C1100 C1102 1.378 . S
C1100 C1104 1.350 . S
C1101 C1104 1.463 . S
C1101 C1106 1.350 . S
C1101 N1109 1.427 . S
C1102 H1093 0.930 . S
C1102 C1100 1.378 . S
C1102 C1103 1.367 . S
C1103 C1102 1.367 . S
C1103 C1105 1.433 . S
C1104 C1100 1.350 . S
C1104 C1101 1.463 . S
C1104 N1108 1.427 . S
C1105 H1095 0.929 . S
C1105 C1103 1.433 . S
C1105 N1108 1.384 . S
C1106 H1097 0.929 . S
C1106 C1098 1.378 1_655 S
C1106 C1101 1.350 . S
C1107 H1094 0.929 . S
C1107 C1099 1.433 . S
C1107 N1109 1.384 1_455 S
N1108 C1104 1.427 . S
N1108 C1105 1.384 . S
N1109 C1101 1.427 . S
N1109 C1107 1.384 1_655 S
H1110 C1116 0.930 . S
H1111 C1120 0.930 . S
H1112 C1125 0.929 . S
H1113 C1123 0.929 . S
H1114 C1118 0.929 . S
H1115 C1124 0.929 . S
C1116 H1110 0.930 . S
C1116 C1117 1.367 . S
C1116 C1124 1.378 . S
C1117 C1116 1.367 . S
C1117 C1125 1.433 . S
C1118 H1114 0.929 . S
C1118 C1120 1.378 . S
C1118 C1122 1.350 . S
C1119 C1122 1.463 . S
C1119 C1124 1.350 . S
C1119 N1127 1.427 . S
C1120 H1111 0.930 . S
C1120 C1118 1.378 . S
C1120 C1121 1.367 . S
C1121 C1120 1.367 . S
C1121 C1123 1.433 . S
C1122 C1118 1.350 . S
C1122 C1119 1.463 . S
C1122 N1126 1.427 . S
C1123 H1113 0.929 . S
C1123 C1121 1.433 . S
C1123 N1126 1.384 . S
C1124 H1115 0.929 . S
C1124 C1116 1.378 . S
C1124 C1119 1.350 . S
C1125 H1112 0.929 . S
C1125 C1117 1.433 . S
C1125 N1127 1.384 . S
N1126 C1122 1.427 . S
N1126 C1123 1.384 . S
N1127 C1119 1.427 . S
N1127 C1125 1.384 . S
H1128 C1134 0.930 . S
H1129 C1138 0.930 . S
H1130 C1143 0.929 . S
H1131 C1141 0.929 . S
H1132 C1136 0.929 . S
H1133 C1142 0.929 . S
C1134 H1128 0.930 . S
C1134 C1135 1.367 . S
C1134 C1142 1.378 . S
C1135 C1134 1.367 . S
C1135 C1143 1.433 . S
C1136 H1132 0.929 . S
C1136 C1138 1.378 . S
C1136 C1140 1.350 . S
C1137 C1140 1.463 . S
C1137 C1142 1.350 . S
C1137 N1145 1.427 . S
C1138 H1129 0.930 . S
C1138 C1136 1.378 . S
C1138 C1139 1.367 . S
C1139 C1138 1.367 . S
C1139 C1141 1.433 . S
C1140 C1136 1.350 . S
C1140 C1137 1.463 . S
C1140 N1144 1.427 . S
C1141 H1131 0.929 . S
C1141 C1139 1.433 . S
C1141 N1144 1.384 . S
C1142 H1133 0.929 . S
C1142 C1134 1.378 . S
C1142 C1137 1.350 . S
C1143 H1130 0.929 . S
C1143 C1135 1.433 . S
C1143 N1145 1.384 . S
N1144 C1140 1.427 . S
N1144 C1141 1.384 . S
N1145 C1137 1.427 . S
N1145 C1143 1.384 . S
H1146 C1152 0.930 . S
H1147 C1156 0.930 . S
H1148 C1161 0.929 . S
H1149 C1159 0.929 . S
H1150 C1154 0.929 . S
H1151 C1160 0.929 . S
C1152 H1146 0.930 . S
C1152 C1153 1.367 . S
C1152 C1160 1.378 1_565 S
C1153 C1152 1.367 . S
C1153 C1161 1.433 . S
C1154 H1150 0.929 . S
C1154 C1156 1.378 . S
C1154 C1158 1.350 . S
C1155 C1158 1.463 . S
C1155 C1160 1.350 . S
C1155 N1163 1.427 . S
C1156 H1147 0.930 . S
C1156 C1154 1.378 . S
C1156 C1157 1.367 . S
C1157 C1156 1.367 . S
C1157 C1159 1.433 . S
C1158 C1154 1.350 . S
C1158 C1155 1.463 . S
C1158 N1162 1.427 . S
C1159 H1149 0.929 . S
C1159 C1157 1.433 . S
C1159 N1162 1.384 . S
C1160 H1151 0.929 . S
C1160 C1152 1.378 1_545 S
C1160 C1155 1.350 . S
C1161 H1148 0.929 . S
C1161 C1153 1.433 . S
C1161 N1163 1.384 1_565 S
N1162 C1158 1.427 . S
N1162 C1159 1.384 . S
N1163 C1155 1.427 . S
N1163 C1161 1.384 1_545 S
H1164 C1170 0.930 . S
H1165 C1174 0.930 . S
H1166 C1179 0.929 . S
H1167 C1177 0.929 . S
H1168 C1172 0.929 . S
H1169 C1178 0.929 . S
C1170 H1164 0.930 . S
C1170 C1171 1.367 . S
C1170 C1178 1.378 1_545 S
C1171 C1170 1.367 . S
C1171 C1179 1.433 . S
C1172 H1168 0.929 . S
C1172 C1174 1.378 . S
C1172 C1176 1.350 . S
C1173 C1176 1.463 . S
C1173 C1178 1.350 . S
C1173 N1181 1.427 . S
C1174 H1165 0.930 . S
C1174 C1172 1.378 . S
C1174 C1175 1.367 . S
C1175 C1174 1.367 . S
C1175 C1177 1.433 . S
C1176 C1172 1.350 . S
C1176 C1173 1.463 . S
C1176 N1180 1.427 . S
C1177 H1167 0.929 . S
C1177 C1175 1.433 . S
C1177 N1180 1.384 . S
C1178 H1169 0.929 . S
C1178 C1170 1.378 1_565 S
C1178 C1173 1.350 . S
C1179 H1166 0.929 . S
C1179 C1171 1.433 . S
C1179 N1181 1.384 1_545 S
N1180 C1176 1.427 . S
N1180 C1177 1.384 . S
N1181 C1173 1.427 . S
N1181 C1179 1.384 1_565 S
H1182 C1188 0.930 . S
H1183 C1192 0.930 . S
H1184 C1197 0.929 . S
H1185 C1195 0.929 . S
H1186 C1190 0.929 . S
H1187 C1196 0.929 . S
C1188 H1182 0.930 . S
C1188 C1189 1.367 . S
C1188 C1196 1.378 . S
C1189 C1188 1.367 . S
C1189 C1197 1.433 . S
C1190 H1186 0.929 . S
C1190 C1192 1.378 . S
C1190 C1194 1.350 . S
C1191 C1194 1.463 . S
C1191 C1196 1.350 . S
C1191 N1199 1.427 . S
C1192 H1183 0.930 . S
C1192 C1190 1.378 . S
C1192 C1193 1.367 . S
C1193 C1192 1.367 . S
C1193 C1195 1.433 . S
C1194 C1190 1.350 . S
C1194 C1191 1.463 . S
C1194 N1198 1.427 . S
C1195 H1185 0.929 . S
C1195 C1193 1.433 . S
C1195 N1198 1.384 . S
C1196 H1187 0.929 . S
C1196 C1188 1.378 . S
C1196 C1191 1.350 . S
C1197 H1184 0.929 . S
C1197 C1189 1.433 . S
C1197 N1199 1.384 . S
N1198 C1194 1.427 . S
N1198 C1195 1.384 . S
N1199 C1191 1.427 . S
N1199 C1197 1.384 . S
H1200 C1206 0.930 . S
H1201 C1210 0.930 . S
H1202 C1215 0.929 . S
H1203 C1213 0.929 . S
H1204 C1208 0.929 . S
H1205 C1214 0.929 . S
C1206 H1200 0.930 . S
C1206 C1207 1.367 . S
C1206 C1214 1.378 . S
C1207 C1206 1.367 . S
C1207 C1215 1.433 . S
C1208 H1204 0.929 . S
C1208 C1210 1.378 . S
C1208 C1212 1.350 . S
C1209 C1212 1.463 . S
C1209 C1214 1.350 . S
C1209 N1217 1.427 . S
C1210 H1201 0.930 . S
C1210 C1208 1.378 . S
C1210 C1211 1.367 . S
C1211 C1210 1.367 . S
C1211 C1213 1.433 . S
C1212 C1208 1.350 . S
C1212 C1209 1.463 . S
C1212 N1216 1.427 . S
C1213 H1203 0.929 . S
C1213 C1211 1.433 . S
C1213 N1216 1.384 . S
C1214 H1205 0.929 . S
C1214 C1206 1.378 . S
C1214 C1209 1.350 . S
C1215 H1202 0.929 . S
C1215 C1207 1.433 . S
C1215 N1217 1.384 . S
N1216 C1212 1.427 . S
N1216 C1213 1.384 . S
N1217 C1209 1.427 . S
N1217 C1215 1.384 . S
H1218 C1224 0.930 . S
H1219 C1228 0.930 . S
H1220 C1233 0.929 . S
H1221 C1231 0.929 . S
H1222 C1226 0.929 . S
H1223 C1232 0.929 . S
C1224 H1218 0.930 . S
C1224 C1225 1.367 . S
C1224 C1232 1.378 1_556 S
C1225 C1224 1.367 . S
C1225 C1233 1.433 . S
C1226 H1222 0.929 . S
C1226 C1228 1.378 . S
C1226 C1230 1.350 . S
C1227 C1230 1.463 . S
C1227 C1232 1.350 . S
C1227 N1235 1.427 . S
C1228 H1219 0.930 . S
C1228 C1226 1.378 . S
C1228 C1229 1.367 . S
C1229 C1228 1.367 . S
C1229 C1231 1.433 . S
C1230 C1226 1.350 . S
C1230 C1227 1.463 . S
C1230 N1234 1.427 . S
C1231 H1221 0.929 . S
C1231 C1229 1.433 . S
C1231 N1234 1.384 . S
C1232 H1223 0.929 . S
C1232 C1224 1.378 1_554 S
C1232 C1227 1.350 . S
C1233 H1220 0.929 . S
C1233 C1225 1.433 . S
C1233 N1235 1.384 1_556 S
N1234 C1230 1.427 . S
N1234 C1231 1.384 . S
N1235 C1227 1.427 . S
N1235 C1233 1.384 1_554 S
H1236 C1242 0.930 . S
H1237 C1246 0.930 . S
H1238 C1251 0.929 . S
H1239 C1249 0.929 . S
H1240 C1244 0.929 . S
H1241 C1250 0.929 . S
C1242 H1236 0.930 . S
C1242 C1243 1.367 . S
C1242 C1250 1.378 . S
C1243 C1242 1.367 . S
C1243 C1251 1.433 . S
C1244 H1240 0.929 . S
C1244 C1246 1.378 . S
C1244 C1248 1.350 . S
C1245 C1248 1.463 . S
C1245 C1250 1.350 . S
C1245 N1253 1.427 . S
C1246 H1237 0.930 . S
C1246 C1244 1.378 . S
C1246 C1247 1.367 . S
C1247 C1246 1.367 . S
C1247 C1249 1.433 . S
C1248 C1244 1.350 . S
C1248 C1245 1.463 . S
C1248 N1252 1.427 . S
C1249 H1239 0.929 . S
C1249 C1247 1.433 . S
C1249 N1252 1.384 . S
C1250 H1241 0.929 . S
C1250 C1242 1.378 . S
C1250 C1245 1.350 . S
C1251 H1238 0.929 . S
C1251 C1243 1.433 . S
C1251 N1253 1.384 . S
N1252 C1248 1.427 . S
N1252 C1249 1.384 . S
N1253 C1245 1.427 . S
N1253 C1251 1.384 . S
H1254 C1260 0.930 . S
H1255 C1264 0.930 . S
H1256 C1269 0.929 . S
H1257 C1267 0.929 . S
H1258 C1262 0.929 . S
H1259 C1268 0.927 1_556 S
C1260 H1254 0.930 . S
C1260 C1261 1.367 . S
C1260 C1268 1.383 . S
C1261 C1260 1.367 . S
C1261 C1269 1.433 . S
C1262 H1258 0.929 . S
C1262 C1264 1.378 . S
C1262 C1266 1.350 . S
C1263 C1266 1.463 . S
C1263 C1268 1.346 1_556 S
C1263 N1271 1.427 . S
C1264 H1255 0.930 . S
C1264 C1262 1.378 . S
C1264 C1265 1.367 . S
C1265 C1264 1.367 . S
C1265 C1267 1.433 . S
C1266 C1262 1.350 . S
C1266 C1263 1.463 . S
C1266 N1270 1.427 . S
C1267 H1257 0.929 . S
C1267 C1265 1.433 . S
C1267 N1270 1.384 . S
C1268 H1259 0.927 1_554 S
C1268 C1260 1.383 . S
C1268 C1263 1.346 1_554 S
C1269 H1256 0.929 . S
C1269 C1261 1.433 . S
C1269 N1271 1.384 1_554 S
N1270 C1266 1.427 . S
N1270 C1267 1.384 . S
N1271 C1263 1.427 . S
N1271 C1269 1.384 1_556 S
H1272 C1278 0.930 . S
H1273 C1282 0.930 . S
H1274 C1287 0.929 . S
H1275 C1285 0.929 . S
H1276 C1280 0.929 . S
H1277 C1286 0.929 . S
C1278 H1272 0.930 . S
C1278 C1279 1.367 . S
C1278 C1286 1.378 . S
C1279 C1278 1.367 . S
C1279 C1287 1.433 . S
C1280 H1276 0.929 . S
C1280 C1282 1.378 . S
C1280 C1284 1.350 . S
C1281 C1284 1.463 . S
C1281 C1286 1.350 . S
C1281 N1289 1.427 . S
C1282 H1273 0.930 . S
C1282 C1280 1.378 . S
C1282 C1283 1.367 . S
C1283 C1282 1.367 . S
C1283 C1285 1.433 . S
C1284 C1280 1.350 . S
C1284 C1281 1.463 . S
C1284 N1288 1.427 . S
C1285 H1275 0.929 . S
C1285 C1283 1.433 . S
C1285 N1288 1.384 . S
C1286 H1277 0.929 . S
C1286 C1278 1.378 . S
C1286 C1281 1.350 . S
C1287 H1274 0.929 . S
C1287 C1279 1.433 . S
C1287 N1289 1.384 . S
N1288 C1284 1.427 . S
N1288 C1285 1.384 . S
N1289 C1281 1.427 . S
N1289 C1287 1.384 . S
H1290 C1296 0.930 . S
H1291 C1300 0.930 . S
H1292 C1305 0.929 . S
H1293 C1303 0.929 . S
H1294 C1298 0.929 1_655 S
H1295 C1304 0.929 . S
C1296 H1290 0.930 . S
C1296 C1297 1.367 . S
C1296 C1304 1.378 . S
C1297 C1296 1.367 . S
C1297 C1305 1.433 . S
C1298 H1294 0.929 1_455 S
C1298 C1300 1.378 . S
C1298 C1302 1.350 1_455 S
C1299 C1302 1.463 . S
C1299 C1304 1.350 . S
C1299 N1307 1.427 . S
C1300 H1291 0.930 . S
C1300 C1298 1.378 . S
C1300 C1301 1.367 . S
C1301 C1300 1.367 . S
C1301 C1303 1.433 . S
C1302 C1298 1.350 1_655 S
C1302 C1299 1.463 . S
C1302 N1306 1.427 1_655 S
C1303 H1293 0.929 . S
C1303 C1301 1.433 . S
C1303 N1306 1.384 . S
C1304 H1295 0.929 . S
C1304 C1296 1.378 . S
C1304 C1299 1.350 . S
C1305 H1292 0.929 . S
C1305 C1297 1.433 . S
C1305 N1307 1.384 . S
N1306 C1302 1.427 1_455 S
N1306 C1303 1.384 . S
N1307 C1299 1.427 . S
N1307 C1305 1.384 . S
H1308 C1314 0.930 . S
H1309 C1318 0.930 . S
H1310 C1323 0.929 . S
H1311 C1321 0.929 . S
H1312 C1316 0.929 . S
H1313 C1322 0.929 . S
C1314 H1308 0.930 . S
C1314 C1315 1.367 . S
C1314 C1322 1.378 . S
C1315 C1314 1.367 . S
C1315 C1323 1.433 . S
C1316 H1312 0.929 . S
C1316 C1318 1.378 1_455 S
C1316 C1320 1.350 . S
C1317 C1320 1.463 . S
C1317 C1322 1.350 . S
C1317 N1325 1.427 . S
C1318 H1309 0.930 . S
C1318 C1316 1.378 1_655 S
C1318 C1319 1.367 . S
C1319 C1318 1.367 . S
C1319 C1321 1.433 . S
C1320 C1316 1.350 . S
C1320 C1317 1.463 . S
C1320 N1324 1.427 1_455 S
C1321 H1311 0.929 . S
C1321 C1319 1.433 . S
C1321 N1324 1.384 . S
C1322 H1313 0.929 . S
C1322 C1314 1.378 . S
C1322 C1317 1.350 . S
C1323 H1310 0.929 . S
C1323 C1315 1.433 . S
C1323 N1325 1.384 . S
N1324 C1320 1.427 1_655 S
N1324 C1321 1.384 . S
N1325 C1317 1.427 . S
N1325 C1323 1.384 . S
H1326 C1332 0.930 . S
H1327 C1336 0.930 . S
H1328 C1341 0.929 . S
H1329 C1339 0.929 . S
H1330 C1334 0.929 . S
H1331 C1340 0.929 . S
C1332 H1326 0.930 . S
C1332 C1333 1.367 . S
C1332 C1340 1.378 . S
C1333 C1332 1.367 . S
C1333 C1341 1.433 . S
C1334 H1330 0.929 . S
C1334 C1336 1.378 . S
C1334 C1338 1.350 . S
C1335 C1338 1.463 . S
C1335 C1340 1.350 . S
C1335 N1343 1.427 . S
C1336 H1327 0.930 . S
C1336 C1334 1.378 . S
C1336 C1337 1.367 . S
C1337 C1336 1.367 . S
C1337 C1339 1.433 . S
C1338 C1334 1.350 . S
C1338 C1335 1.463 . S
C1338 N1342 1.427 . S
C1339 H1329 0.929 . S
C1339 C1337 1.433 . S
C1339 N1342 1.384 . S
C1340 H1331 0.929 . S
C1340 C1332 1.378 . S
C1340 C1335 1.350 . S
C1341 H1328 0.929 . S
C1341 C1333 1.433 . S
C1341 N1343 1.384 . S
N1342 C1338 1.427 . S
N1342 C1339 1.384 . S
N1343 C1335 1.427 . S
N1343 C1341 1.384 . S
H1344 C1350 0.930 . S
H1345 C1354 0.930 . S
H1346 C1359 0.929 . S
H1347 C1357 0.929 . S
H1348 C1352 0.929 . S
H1349 C1358 0.929 . S
C1350 H1344 0.930 . S
C1350 C1351 1.367 . S
C1350 C1358 1.378 . S
C1351 C1350 1.367 . S
C1351 C1359 1.433 . S
C1352 H1348 0.929 . S
C1352 C1354 1.378 . S
C1352 C1356 1.350 . S
C1353 C1356 1.463 . S
C1353 C1358 1.350 . S
C1353 N1361 1.427 . S
C1354 H1345 0.930 . S
C1354 C1352 1.378 . S
C1354 C1355 1.367 . S
C1355 C1354 1.367 . S
C1355 C1357 1.433 . S
C1356 C1352 1.350 . S
C1356 C1353 1.463 . S
C1356 N1360 1.427 . S
C1357 H1347 0.929 . S
C1357 C1355 1.433 . S
C1357 N1360 1.384 . S
C1358 H1349 0.929 . S
C1358 C1350 1.378 . S
C1358 C1353 1.350 . S
C1359 H1346 0.929 . S
C1359 C1351 1.433 . S
C1359 N1361 1.384 . S
N1360 C1356 1.427 . S
N1360 C1357 1.384 . S
N1361 C1353 1.427 . S
N1361 C1359 1.384 . S
H1362 C1368 0.930 . S
H1363 C1372 0.930 . S
H1364 C1377 0.929 . S
H1365 C1375 0.929 . S
H1366 C1370 0.929 . S
H1367 C1376 0.929 . S
C1368 H1362 0.930 . S
C1368 C1369 1.367 . S
C1368 C1376 1.378 . S
C1369 C1368 1.367 . S
C1369 C1377 1.433 . S
C1370 H1366 0.929 . S
C1370 C1372 1.378 . S
C1370 C1374 1.350 . S
C1371 C1374 1.463 . S
C1371 C1376 1.350 . S
C1371 N1379 1.427 . S
C1372 H1363 0.930 . S
C1372 C1370 1.378 . S
C1372 C1373 1.367 1_565 S
C1373 C1372 1.367 1_545 S
C1373 C1375 1.433 . S
C1374 C1370 1.350 . S
C1374 C1371 1.463 . S
C1374 N1378 1.427 . S
C1375 H1365 0.929 . S
C1375 C1373 1.433 . S
C1375 N1378 1.384 1_545 S
C1376 H1367 0.929 . S
C1376 C1368 1.378 . S
C1376 C1371 1.350 . S
C1377 H1364 0.929 . S
C1377 C1369 1.433 . S
C1377 N1379 1.384 . S
N1378 C1374 1.427 . S
N1378 C1375 1.384 1_565 S
N1379 C1371 1.427 . S
N1379 C1377 1.384 . S
H1380 C1386 0.930 . S
H1381 C1390 0.930 . S
H1382 C1395 0.929 . S
H1383 C1393 0.929 . S
H1384 C1388 0.929 . S
H1385 C1394 0.929 . S
C1386 H1380 0.930 . S
C1386 C1387 1.367 1_545 S
C1386 C1394 1.378 . S
C1387 C1386 1.367 1_565 S
C1387 C1395 1.433 . S
C1388 H1384 0.929 . S
C1388 C1390 1.378 . S
C1388 C1392 1.350 . S
C1389 C1392 1.463 . S
C1389 C1394 1.350 . S
C1389 N1397 1.427 . S
C1390 H1381 0.930 . S
C1390 C1388 1.378 . S
C1390 C1391 1.367 . S
C1391 C1390 1.367 . S
C1391 C1393 1.433 . S
C1392 C1388 1.350 . S
C1392 C1389 1.463 . S
C1392 N1396 1.427 . S
C1393 H1383 0.929 . S
C1393 C1391 1.433 . S
C1393 N1396 1.384 . S
C1394 H1385 0.929 . S
C1394 C1386 1.378 . S
C1394 C1389 1.350 . S
C1395 H1382 0.929 . S
C1395 C1387 1.433 . S
C1395 N1397 1.384 1_565 S
N1396 C1392 1.427 . S
N1396 C1393 1.384 . S
N1397 C1389 1.427 . S
N1397 C1395 1.384 1_545 S
H1398 C1404 0.930 . S
H1399 C1408 0.930 . S
H1400 C1413 0.929 . S
H1401 C1411 0.929 . S
H1402 C1406 0.929 . S
H1403 C1412 0.929 . S
C1404 H1398 0.930 . S
C1404 C1405 1.367 . S
C1404 C1412 1.378 . S
C1405 C1404 1.367 . S
C1405 C1413 1.433 . S
C1406 H1402 0.929 . S
C1406 C1408 1.378 . S
C1406 C1410 1.350 . S
C1407 C1410 1.463 . S
C1407 C1412 1.350 . S
C1407 N1415 1.427 . S
C1408 H1399 0.930 . S
C1408 C1406 1.378 . S
C1408 C1409 1.367 . S
C1409 C1408 1.367 . S
C1409 C1411 1.433 . S
C1410 C1406 1.350 . S
C1410 C1407 1.463 . S
C1410 N1414 1.427 . S
C1411 H1401 0.929 . S
C1411 C1409 1.433 . S
C1411 N1414 1.384 . S
C1412 H1403 0.929 . S
C1412 C1404 1.378 . S
C1412 C1407 1.350 . S
C1413 H1400 0.929 . S
C1413 C1405 1.433 . S
C1413 N1415 1.384 . S
N1414 C1410 1.427 . S
N1414 C1411 1.384 . S
N1415 C1407 1.427 . S
N1415 C1413 1.384 . S
C559 C191 1.792 . S
C563 N12 1.779 . S
C577 N35 1.792 . S
C581 C260 1.804 . S
C595 N58 1.789 . S
C599 C214 1.804 . S
C613 N81 1.786 . S
C617 C237 1.794 . S
C631 C99 1.816 . S
C635 C7 1.835 . S
C649 C30 1.836 . S
C653 C122 1.817 . S
C667 C145 1.815 . S
C671 C53 1.833 . S
C685 C76 1.836 . S
C689 C168 1.817 . S
C703 N104 1.625 . S
C707 N196 1.579 . S
C721 N150 1.630 . S
C725 N219 1.585 . S
C739 N242 1.581 . S
C743 N173 1.628 . S
C757 N127 1.629 . S
C761 N265 1.593 . S
C775 C467 1.738 . S
C779 N288 1.745 . S
C793 N311 1.743 . S
C797 C536 1.740 . S
C811 N334 1.743 . S
C815 C490 1.741 . S
C829 C513 1.738 . S
C833 N357 1.743 . S
C847 N380 1.697 . S
C851 C283 1.691 . S
C865 C306 1.690 . S
C869 N403 1.688 . S
C883 C329 1.695 . S
C887 N426 1.693 . S
C901 N449 1.695 . S
C905 C352 1.689 . S
C919 N472 1.666 . S
C923 C375 1.668 . S
C937 C421 1.666 . S
C941 N495 1.661 . S
C955 C444 1.661 . S
C959 N518 1.664 . S
C973 N541 1.654 . S
C977 C398 1.657 . S
C991 C522 1.931 . S
C995 N2 1.754 . S
C1009 C499 1.931 . S
C1013 N25 1.754 . S
C1027 C545 1.930 . S
C1031 N48 1.754 . S
C1045 N71 1.743 . S
C1049 C476 1.935 . S
C1063 C108 1.727 . S
C1067 C315 1.794 . S
C1081 C292 1.796 . S
C1085 C131 1.719 . S
C1099 C361 1.795 . S
C1103 C154 1.730 . S
C1117 C338 1.796 . S
C1121 C177 1.720 . S
C1135 N186 1.707 . S
C1139 C430 1.895 . S
C1153 C384 1.896 . S
C1157 N209 1.708 . S
C1171 C407 1.886 . S
C1175 N232 1.714 . S
C1189 C453 1.896 . S
C1193 N255 1.711 . S
C1207 C246 1.917 . S
C1211 N278 1.722 . S
C1225 C223 1.917 . S
C1229 N301 1.737 . S
C1243 N324 1.722 . S
C1247 C269 1.917 . S
C1261 C200 1.914 . S
C1265 N347 1.721 . S
C1279 N370 1.724 . S
C1283 C39 1.900 . S
C1297 N393 1.732 . S
C1301 C16 1.899 . S
C1315 N416 1.741 . S
C1319 C85 1.902 . S
C1333 N439 1.723 . S
C1337 C62 1.907 . S
C1351 N462 1.754 . S
C1355 N140 1.846 . S
C1369 N485 1.758 . S
C1373 N94 1.840 . S
C1387 N117 1.846 . S
C1391 N508 1.754 . S
C1405 N531 1.745 . S
C1409 N163 1.835 . S
