# Generated by pormake.
# Topology qtz-e, (6)-cn, num edge types: 1
# Building blocks:
#     Node 0, Type 0, BuildingBlock: INOVEN_clean_sbu_0, # of connection points: 6
#     Node 1, Type 0, BuildingBlock: INOVEN_clean_sbu_0, # of connection points: 6
#     Node 2, Type 0, BuildingBlock: INOVEN_clean_sbu_0, # of connection points: 6
#     Node 3, Type 0, BuildingBlock: INOVEN_clean_sbu_0, # of connection points: 6
#     Node 4, Type 0, BuildingBlock: INOVEN_clean_sbu_0, # of connection points: 6
#     Node 5, Type 0, BuildingBlock: INOVEN_clean_sbu_0, # of connection points: 6
#     Edge 6, Type (0, 0), BuildingBlock: XUDNAN_clean_linker_2, # of connection points: 2
#     Edge 7, Type (0, 0), BuildingBlock: XUDNAN_clean_linker_2, # of connection points: 2
#     Edge 8, Type (0, 0), BuildingBlock: XUDNAN_clean_linker_2, # of connection points: 2
#     Edge 9, Type (0, 0), BuildingBlock: XUDNAN_clean_linker_2, # of connection points: 2
#     Edge 10, Type (0, 0), BuildingBlock: XUDNAN_clean_linker_2, # of connection points: 2
#     Edge 11, Type (0, 0), BuildingBlock: XUDNAN_clean_linker_2, # of connection points: 2
#     Edge 12, Type (0, 0), BuildingBlock: XUDNAN_clean_linker_2, # of connection points: 2
#     Edge 13, Type (0, 0), BuildingBlock: XUDNAN_clean_linker_2, # of connection points: 2
#     Edge 14, Type (0, 0), BuildingBlock: XUDNAN_clean_linker_2, # of connection points: 2
#     Edge 15, Type (0, 0), BuildingBlock: XUDNAN_clean_linker_2, # of connection points: 2
#     Edge 16, Type (0, 0), BuildingBlock: XUDNAN_clean_linker_2, # of connection points: 2
#     Edge 17, Type (0, 0), BuildingBlock: XUDNAN_clean_linker_2, # of connection points: 2
#     Edge 18, Type (0, 0), BuildingBlock: XUDNAN_clean_linker_2, # of connection points: 2
#     Edge 19, Type (0, 0), BuildingBlock: XUDNAN_clean_linker_2, # of connection points: 2
#     Edge 20, Type (0, 0), BuildingBlock: XUDNAN_clean_linker_2, # of connection points: 2
#     Edge 21, Type (0, 0), BuildingBlock: XUDNAN_clean_linker_2, # of connection points: 2
#     Edge 22, Type (0, 0), BuildingBlock: XUDNAN_clean_linker_2, # of connection points: 2
#     Edge 23, Type (0, 0), BuildingBlock: XUDNAN_clean_linker_2, # of connection points: 2
# Relax obj value: 0.088
# Max RMSD: 0.173
# Mean RMSD: 0.173
data_MOF--net-qtz-e--node1-INOVEN_clean_sbu_0--edge1-XUDNAN_clean_linker_2
_symmetry_space_group_name_H-M    P1
_symmetry_Int_Tables_number       1
_symmetry_cell_setting            triclinic
loop_
_symmetry_equiv_pos_as_xyz
'x, y, z'
_cell_length_a     26.09533
_cell_length_b     26.109467
_cell_length_c     51.970163
_cell_angle_alpha  90.594841
_cell_angle_beta   89.680511
_cell_angle_gamma 119.61647
loop_
_atom_site_label
_atom_site_type_symbol
_atom_site_fract_x
_atom_site_fract_y
_atom_site_fract_z
_atom_type_partial_charge
Gd0 Gd 0.19848 0.4744 0.05936 0.0
Gd1 Gd 0.19601 0.36098 0.04656 0.0
C2 C 0.13791 0.36218 0.09886 0.0
C3 C 0.17334 0.55207 0.07681 0.0
C4 C 0.17578 0.56994 0.10379 0.0
C5 C 0.16866 0.61791 0.11102 0.0
C6 C 0.18974 0.54046 0.12249 0.0
C7 C 0.19379 0.60912 0.15526 0.0
C8 C 0.19832 0.5596 0.14796 0.0
C9 C 0.17744 0.63736 0.13673 0.0
C10 C 0.29554 0.47363 0.07449 0.0
C11 C 0.26243 0.47331 1.00869 0.0
C12 C 0.21736 0.28165 0.02702 0.0
C13 C 0.22487 0.26509 1.00024 0.0
C14 C 0.17637 0.22124 0.98656 0.0
C15 C 0.28029 0.29275 0.988 0.0
C16 C 0.23825 0.23317 0.94907 0.0
C17 C 0.28687 0.27706 0.96277 0.0
C18 C 0.18288 0.20575 0.96136 0.0
C19 C 0.10374 0.37228 0.02919 0.0
O20 O 0.13705 0.40805 0.08873 0.0
O21 O 0.16797 0.33939 0.08786 0.0
O22 O 0.22457 0.56584 0.06682 0.0
O23 O 0.13303 0.4978 0.07153 0.0
O24 O 0.2947 0.51981 0.06653 0.0
O25 O 0.24428 0.42968 0.0763 0.0
O26 O 0.26221 0.42733 1.01909 0.0
O27 O 0.22929 0.49421 1.01829 0.0
O28 O 0.16455 0.27099 0.03362 0.0
O29 O 0.25865 0.33229 0.03603 0.0
O30 O 0.09774 0.32408 0.0388 0.0
O31 O 0.15698 0.41008 0.02883 0.0
H32 H 0.15806 0.64119 0.09676 0.0
H33 H 0.19587 0.5036 0.11724 0.0
H34 H 0.20981 0.53633 0.16188 0.0
H35 H 0.17378 0.67573 0.14189 0.0
H36 H 0.13304 0.19886 0.99531 0.0
H37 H 0.3188 0.32649 0.99792 0.0
H38 H 0.33038 0.29871 0.9542 0.0
H39 H 0.14412 0.17251 0.95142 0.0
Gd40 Gd 0.71365 0.20085 0.4007 0.0
Gd41 Gd 0.81617 0.19182 0.37682 0.0
C42 C 0.77741 0.14057 0.43347 0.0
C43 C 0.61418 0.17789 0.42092 0.0
C44 C 0.59377 0.17463 0.44753 0.0
C45 C 0.56215 0.20324 0.45431 0.0
C46 C 0.61172 0.14964 0.4668 0.0
C47 C 0.5727 0.18791 0.49955 0.0
C48 C 0.60155 0.1565 0.49263 0.0
C49 C 0.55142 0.20963 0.48017 0.0
C50 C 0.81726 0.29608 0.40968 0.0
C51 C 0.75869 0.26102 0.34696 0.0
C52 C 0.90905 0.20625 0.35172 0.0
C53 C 0.93344 0.22306 0.32527 0.0
C54 C 0.95611 0.19084 0.3124 0.0
C55 C 0.93289 0.26976 0.31233 0.0
C56 C 0.9731 0.24887 0.27356 0.0
C57 C 0.9522 0.28227 0.28677 0.0
C58 C 0.97608 0.2038 0.28684 0.0
C59 C 0.70605 0.10306 0.36681 0.0
O60 O 0.73093 0.14767 0.43025 0.0
O61 O 0.82076 0.15985 0.41637 0.0
O62 O 0.65373 0.23066 0.41358 0.0
O63 O 0.62642 0.13705 0.41343 0.0
O64 O 0.76787 0.29627 0.40858 0.0
O65 O 0.80964 0.24423 0.40932 0.0
O66 O 0.80622 0.25612 0.35092 0.0
O67 O 0.7113 0.23294 0.36143 0.0
O68 O 0.86091 0.15542 0.35394 0.0
O69 O 0.90816 0.24704 0.36626 0.0
O70 O 0.74925 0.0936 0.37175 0.0
O71 O 0.72343 0.1568 0.36703 0.0
H72 H 0.5481 0.22292 0.43968 0.0
H73 H 0.6354 0.12667 0.46193 0.0
H74 H 0.61738 0.13848 0.50725 0.0
H75 H 0.52913 0.23412 0.48504 0.0
H76 H 0.95734 0.1548 0.32198 0.0
H77 H 0.91678 0.29611 0.32184 0.0
H78 H 0.95026 0.31782 0.27714 0.0
H79 H -0.00827 0.1772 0.27717 0.0
Gd80 Gd 0.4988 0.72095 0.72899 0.0
Gd81 Gd 0.62113 0.80759 0.70587 0.0
C82 C 0.62076 0.76193 0.76183 0.0
C83 C 0.41175 0.63364 0.75186 0.0
C84 C 0.4029 0.61082 0.77819 0.0
C85 C 0.34601 0.58091 0.78863 0.0
C86 C 0.45137 0.62258 0.79373 0.0
C87 C 0.38647 0.5764 0.83012 0.0
C88 C 0.44328 0.60544 0.8194 0.0
C89 C 0.33778 0.56376 0.81442 0.0
C90 C 0.52905 0.83365 0.73436 0.0
C91 C 0.49957 0.76507 0.67236 0.0
C92 C 0.7082 0.8938 0.68206 0.0
C93 C 0.71996 0.91984 0.65602 0.0
C94 C 0.77655 0.94286 0.64546 0.0
C95 C 0.6757 0.92163 0.64142 0.0
C96 C 0.74425 0.96709 0.60554 0.0
C97 C 0.68782 0.94535 0.61657 0.0
C98 C 0.78864 0.9663 0.62062 0.0
C99 C 0.58109 0.69158 0.69876 0.0
O100 O 0.56527 0.72207 0.75715 0.0
O101 O 0.65159 0.80645 0.74618 0.0
O102 O 0.41641 0.68562 0.74988 0.0
O103 O 0.45043 0.62794 0.73778 0.0
O104 O 0.47519 0.79139 0.73226 0.0
O105 O 0.56502 0.81453 0.73605 0.0
O106 O 0.55626 0.80338 0.67584 0.0
O107 O 0.46839 0.72295 0.68903 0.0
O108 O 0.70224 0.84117 0.6838 0.0
O109 O 0.67041 0.90036 0.69641 0.0
O110 O 0.63629 0.72863 0.70326 0.0
O111 O 0.55202 0.71761 0.69746 0.0
H112 H 0.30808 0.57174 0.77696 0.0
H113 H 0.49564 0.64536 0.78617 0.0
H114 H 0.48176 0.61641 0.83101 0.0
H115 H 0.29339 0.54082 0.82208 0.0
H116 H 0.81156 0.9425 0.65643 0.0
H117 H 0.63162 0.90437 0.64911 0.0
H118 H 0.65248 0.9455 0.60589 0.0
H119 H 0.83313 0.98415 0.61336 0.0
Gd120 Gd 0.75985 0.49969 0.06708 0.0
Gd121 Gd 0.79498 0.6131 0.03775 0.0
C122 C 0.8531 0.62741 0.09316 0.0
C123 C 0.76302 0.41805 0.09298 0.0
C124 C 0.7649 0.41305 0.12088 0.0
C125 C 0.75557 0.45142 0.1368 0.0
C126 C 0.77502 0.37015 0.13181 0.0
C127 C 0.76415 0.40257 0.1746 0.0
C128 C 0.77476 0.36497 0.15855 0.0
C129 C 0.75486 0.44602 0.16345 0.0
C130 C 0.68772 0.54228 0.07569 0.0
C131 C 0.69457 0.48585 1.01439 0.0
C132 C 0.7977 0.69715 1.01035 0.0
C133 C 0.78058 0.70493 0.98407 0.0
C134 C 0.82169 0.75068 0.96846 0.0
C135 C 0.72389 0.66722 0.97422 0.0
C136 C 0.75126 0.71832 0.93314 0.0
C137 C 0.70945 0.67398 0.94903 0.0
C138 C 0.80717 0.75738 0.94321 0.0
C139 C 0.85711 0.55671 0.0276 0.0
O140 O 0.83123 0.56964 0.09235 0.0
O141 O 0.84055 0.65502 0.07513 0.0
O142 O 0.71397 0.41365 0.08433 0.0
O143 O 0.81027 0.46182 0.08283 0.0
O144 O 0.67197 0.48701 0.07699 0.0
O145 O 0.74294 0.57441 0.07328 0.0
O146 O 0.71521 0.54354 1.01569 0.0
O147 O 0.71426 0.4597 0.02993 0.0
O148 O 0.84206 0.68727 1.01199 0.0
O149 O 0.75517 0.66526 0.02645 0.0
O150 O 0.88195 0.61372 0.02894 0.0
O151 O 0.80315 0.53494 0.03083 0.0
H152 H 0.74807 0.48514 0.12857 0.0
H153 H 0.78235 0.34033 0.11971 0.0
H154 H 0.78134 0.33058 0.16665 0.0
H155 H 0.7471 0.47586 0.17532 0.0
H156 H 0.86551 0.78065 0.97565 0.0
H157 H 0.69091 0.63201 0.9858 0.0
H158 H 0.66575 0.64389 0.94176 0.0
H159 H 0.8402 0.79175 0.93129 0.0
Gd160 Gd 0.25935 0.77732 0.3926 0.0
Gd161 Gd 0.16819 0.80603 0.37146 0.0
C162 C 0.20032 0.83744 0.43024 0.0
C163 C 0.34634 0.77472 0.41486 0.0
C164 C 0.36721 0.78257 0.44153 0.0
C165 C 0.38984 0.74765 0.45096 0.0
C166 C 0.35912 0.82029 0.45838 0.0
C167 C 0.39054 0.78382 0.49427 0.0
C168 C 0.3704 0.82064 0.48459 0.0
C169 C 0.40184 0.74854 0.4772 0.0
C170 C 0.14944 0.68647 0.39123 0.0
C171 C 0.22901 0.75025 0.3336 0.0
C172 C 0.0802 0.79764 0.34534 0.0
C173 C 0.06384 0.78772 0.31761 0.0
C174 C 0.09992 0.82766 0.2987 0.0
C175 C 0.01186 0.73709 0.30976 0.0
C176 C 0.03149 0.76729 0.2648 0.0
C177 C -0.00402 0.72684 0.28369 0.0
C178 C 0.0838 0.8177 0.27269 0.0
C179 C 0.28105 0.89376 0.37025 0.0
O180 O 0.2445 0.82686 0.42581 0.0
O181 O 0.15926 0.82572 0.41271 0.0
O182 O 0.29541 0.72765 0.41069 0.0
O183 O 0.35118 0.82135 0.40346 0.0
O184 O 0.19578 0.68282 0.38534 0.0
O185 O 0.16304 0.73818 0.39826 0.0
O186 O 0.18313 0.75718 0.33865 0.0
O187 O 0.27101 0.76394 0.3508 0.0
O188 O 0.12584 0.84817 0.35188 0.0
O189 O 0.07837 0.75315 0.35755 0.0
O190 O 0.23732 0.90367 0.37336 0.0
O191 O 0.26243 0.8406 0.36532 0.0
H192 H 0.3962 0.71817 0.4382 0.0
H193 H 0.34256 0.84825 0.4514 0.0
H194 H 0.36249 0.84888 0.49741 0.0
H195 H 0.41738 0.71976 0.4843 0.0
H196 H 0.14071 0.86677 0.30393 0.0
H197 H 0.98325 0.70545 0.32386 0.0
H198 H 0.9551 0.68789 0.27841 0.0
H199 H 0.11276 0.84934 0.25868 0.0
Gd200 Gd 0.4605 0.26141 0.73312 0.0
Gd201 Gd 0.34501 0.16069 0.71067 0.0
C202 C 0.34334 0.19047 0.76988 0.0
C203 C 0.53701 0.34922 0.75988 0.0
C204 C 0.54169 0.35399 0.78797 0.0
C205 C 0.50922 0.30325 0.80273 0.0
C206 C 0.57705 0.40811 0.80026 0.0
C207 C 0.54764 0.36026 0.84211 0.0
C208 C 0.58039 0.41121 0.82715 0.0
C209 C 0.5117 0.30637 0.82945 0.0
C210 C 0.45675 0.15822 0.73018 0.0
C211 C 0.46214 0.23532 0.67414 0.0
C212 C 0.27088 0.06728 0.68519 0.0
C213 C 0.26001 0.04544 0.65813 0.0
C214 C 0.3052 0.04795 0.64235 0.0
C215 C 0.2028 0.02026 0.64804 0.0
C216 C 0.23608 0.00191 0.60656 0.0
C217 C 0.19095 -0.00121 0.62268 0.0
C218 C 0.29323 0.02598 0.61701 0.0
C219 C 0.35686 0.26946 0.71068 0.0
O220 O 0.39394 0.23868 0.76523 0.0
O221 O 0.31754 0.14809 0.75236 0.0
O222 O 0.54783 0.30947 0.74977 0.0
O223 O 0.4896 0.3469 0.7504 0.0
O224 O 0.5042 0.20822 0.72712 0.0
O225 O 0.41326 0.16428 0.73679 0.0
O226 O 0.41141 0.18637 0.67812 0.0
O227 O 0.48686 0.27742 0.69177 0.0
O228 O 0.26095 0.11055 0.69091 0.0
O229 O 0.31798 0.07258 0.69653 0.0
O230 O 0.3059 0.22202 0.71283 0.0
O231 O 0.39573 0.25615 0.70586 0.0
H232 H 0.482 0.26087 0.79358 0.0
H233 H 0.60238 0.44768 0.78909 0.0
H234 H 0.60955 0.45333 0.83611 0.0
H235 H 0.48495 0.26641 0.84012 0.0
H236 H 0.34985 0.06696 0.64955 0.0
H237 H 0.16699 0.01701 0.65986 0.0
H238 H 0.14597 0.97906 0.61588 0.0
H239 H 0.3292 0.0289 0.6055 0.0
H240 H 0.15527 0.72727 0.29238 0.0
H241 H 0.31475 0.72721 0.31605 0.0
H242 H 0.32373 0.6936 0.27257 0.0
H243 H 0.09715 0.59782 0.25331 0.0
H244 H 0.06839 0.62522 0.22889 0.0
H245 H 0.07474 0.65116 0.26156 0.0
H246 H 0.13865 0.75911 0.24677 0.0
H247 H 0.13046 0.73331 0.21399 0.0
H248 H 0.20302 0.77916 0.22731 0.0
H249 H 0.3154 0.6597 0.22723 0.0
H250 H 0.2895 0.6253 0.1824 0.0
H251 H 0.13471 0.64619 0.18795 0.0
C252 C 0.19217 0.72026 0.28848 0.0
C253 C 0.2344 0.72985 0.30765 0.0
C254 C 0.28196 0.72021 0.30169 0.0
C255 C 0.28747 0.7012 0.27705 0.0
C256 C 0.24517 0.69226 0.25864 0.0
C257 C 0.19844 0.70146 0.26398 0.0
C258 C 0.15868 0.68781 0.24076 0.0
C259 C 0.09604 0.63749 0.24649 0.0
C260 C 0.15769 0.74316 0.23165 0.0
C261 C 0.19018 0.66893 0.22157 0.0
C262 C 0.24007 0.67217 0.23232 0.0
C263 C 0.27641 0.65681 0.21859 0.0
C264 C 0.26115 0.63708 0.1932 0.0
C265 C 0.20987 0.63265 0.18181 0.0
C266 C 0.17431 0.64945 0.19614 0.0
H267 H 0.41064 0.20387 0.62701 0.0
H268 H 0.57937 0.27918 0.66588 0.0
H269 H 0.62726 0.27732 0.62485 0.0
H270 H 0.42567 0.1075 0.58623 0.0
H271 H 0.39298 0.11959 0.55812 0.0
H272 H 0.37179 0.13147 0.58962 0.0
H273 H 0.39988 0.23794 0.57892 0.0
H274 H 0.41938 0.22702 0.54682 0.0
H275 H 0.47223 0.2873 0.56637 0.0
H276 H 0.65378 0.25666 0.58088 0.0
H277 H 0.66018 0.2309 0.53551 0.0
H278 H 0.47505 0.17506 0.52493 0.0
C279 C 0.45785 0.22091 0.62669 0.0
C280 C 0.49167 0.24174 0.64936 0.0
C281 C 0.55317 0.26371 0.64849 0.0
C282 C 0.58054 0.26251 0.62538 0.0
C283 C 0.54576 0.24059 0.60337 0.0
C284 C 0.48603 0.22161 0.60369 0.0
C285 C 0.45877 0.20057 0.57736 0.0
C286 C 0.40942 0.13589 0.57788 0.0
C287 C 0.43626 0.24061 0.56674 0.0
C288 C 0.5118 0.2078 0.56249 0.0
C289 C 0.56159 0.23108 0.5778 0.0
C290 C 0.61533 0.23925 0.5686 0.0
C291 C 0.6184 0.22403 0.54294 0.0
C292 C 0.5681 0.20123 0.52685 0.0
C293 C 0.51425 0.19306 0.5368 0.0
H294 H 0.24366 0.53335 0.97006 0.0
H295 H 0.35583 0.46238 0.99287 0.0
H296 H 0.40347 0.4861 0.95035 0.0
H297 H 0.21674 0.47574 0.90799 0.0
H298 H 0.21809 0.53807 0.89271 0.0
H299 H 0.19775 0.52332 0.92608 0.0
H300 H 0.27987 0.62833 0.93873 0.0
H301 H 0.29992 0.64385 0.90531 0.0
H302 H 0.35471 0.6532 0.9287 0.0
H303 H 0.43143 0.50705 0.90435 0.0
H304 H 0.44219 0.52986 0.85802 0.0
H305 H 0.31281 0.58799 0.86467 0.0
C306 C 0.27941 0.52447 0.96631 0.0
C307 C 0.29624 0.49633 0.98474 0.0
C308 C 0.34227 0.48402 0.97899 0.0
C309 C 0.36968 0.49734 0.9549 0.0
C310 C 0.35066 0.52308 0.93678 0.0
C311 C 0.3071 0.53718 0.94221 0.0
C312 C 0.29241 0.56116 0.91867 0.0
C313 C 0.2274 0.52223 0.91091 0.0
C314 C 0.30766 0.62546 0.92312 0.0
C315 C 0.33336 0.5568 0.89911 0.0
C316 C 0.36686 0.53514 0.91003 0.0
C317 C 0.4062 0.52501 0.89563 0.0
C318 C 0.41203 0.53812 0.86935 0.0
C319 C 0.37857 0.56096 0.85777 0.0
C320 C 0.33868 0.5702 0.87293 0.0
H321 H 0.834 0.30049 0.30599 0.0
H322 H 0.67705 0.29522 0.33729 0.0
H323 H 0.66848 0.34333 0.29818 0.0
H324 H 0.89265 0.442 0.27028 0.0
H325 H 0.9169 0.41278 0.24432 0.0
H326 H 0.91484 0.3882 0.2768 0.0
H327 H 0.84613 0.27859 0.26102 0.0
H328 H 0.85074 0.30599 0.22888 0.0
H329 H 0.77991 0.2611 0.24373 0.0
H330 H 0.67068 0.3812 0.25378 0.0
H331 H 0.68191 0.40314 0.20731 0.0
H332 H 0.8374 0.38321 0.20535 0.0
C333 C 0.79885 0.31097 0.30499 0.0
C334 C 0.75652 0.29449 0.32472 0.0
C335 C 0.7101 0.30752 0.32236 0.0
C336 C 0.70507 0.33519 0.30031 0.0
C337 C 0.74696 0.34973 0.28092 0.0
C338 C 0.79304 0.33821 0.28312 0.0
C339 C 0.82825 0.35185 0.25851 0.0
C340 C 0.89194 0.40165 0.26272 0.0
C341 C 0.82618 0.29609 0.24736 0.0
C342 C 0.79417 0.37164 0.24189 0.0
C343 C 0.74783 0.37087 0.25523 0.0
C344 C 0.70746 0.38305 0.24327 0.0
C345 C 0.71425 0.39553 0.21691 0.0
C346 C 0.76065 0.39503 0.20282 0.0
C347 C 0.80155 0.38391 0.21565 0.0
H348 H 0.55109 0.78937 0.62511 0.0
H349 H 0.38692 0.74204 0.66458 0.0
H350 H 0.34152 0.74407 0.62311 0.0
H351 H 0.54802 0.8853 0.57865 0.0
H352 H 0.57348 0.85933 0.55188 0.0
H353 H 0.59545 0.85432 0.58404 0.0
H354 H 0.55509 0.74337 0.58023 0.0
H355 H 0.53528 0.7461 0.54733 0.0
H356 H 0.48038 0.69627 0.56955 0.0
H357 H 0.31505 0.7527 0.57761 0.0
H358 H 0.30672 0.76021 0.5306 0.0
H359 H 0.48663 0.79668 0.52068 0.0
C360 C 0.50573 0.77996 0.62499 0.0
C361 C 0.47241 0.76626 0.64789 0.0
C362 C 0.4129 0.75276 0.6471 0.0
C363 C 0.38695 0.75397 0.62373 0.0
C364 C 0.42096 0.76753 0.60141 0.0
C365 C 0.47877 0.7794 0.60178 0.0
C366 C 0.50448 0.789 0.57492 0.0
C367 C 0.5585 0.85075 0.57223 0.0
C368 C 0.51968 0.74081 0.56758 0.0
C369 C 0.45279 0.78274 0.55946 0.0
C370 C 0.40504 0.77033 0.5751 0.0
C371 C 0.35215 0.76251 0.56519 0.0
C372 C 0.34797 0.76734 0.53858 0.0
C373 C 0.39628 0.77977 0.52227 0.0
C374 C 0.44917 0.78722 0.53284 0.0
H375 H 0.65327 0.52596 0.97555 0.0
H376 H 0.64736 0.36788 1.00465 0.0
H377 H 0.59346 0.31339 0.96586 0.0
H378 H 0.5079 0.45214 0.94099 0.0
H379 H 0.53742 0.50297 0.91462 0.0
H380 H 0.56561 0.52687 0.94671 0.0
H381 H 0.67295 0.55876 0.93086 0.0
H382 H 0.64316 0.53763 0.89889 0.0
H383 H 0.68525 0.50697 0.91269 0.0
H384 H 0.55999 0.2825 0.92099 0.0
H385 H 0.54405 0.27556 0.87432 0.0
H386 H 0.56433 0.4511 0.87478 0.0
C387 C 0.63907 0.47946 0.97416 0.0
C388 C 0.65467 0.4513 0.99313 0.0
C389 C 0.63597 0.39052 0.99038 0.0
C390 C 0.60504 0.35904 0.96845 0.0
C391 C 0.59238 0.38872 0.94963 0.0
C392 C 0.60809 0.44737 0.95241 0.0
C393 C 0.59559 0.47071 0.92811 0.0
C394 C 0.54883 0.48924 0.9329 0.0
C395 C 0.6526 0.52155 0.91699 0.0
C396 C 0.57239 0.41676 0.91095 0.0
C397 C 0.57064 0.36983 0.92376 0.0
C398 C 0.55912 0.31817 0.91095 0.0
C399 C 0.55001 0.31469 0.88432 0.0
C400 C 0.55226 0.36258 0.87067 0.0
C401 C 0.56221 0.41361 0.88446 0.0
H402 H 0.38035 0.49451 0.04036 0.0
H403 H 0.33642 0.46336 0.12123 0.0
H404 H 0.44125 0.49622 0.13131 0.0
H405 H 0.48796 0.44363 0.0399 0.0
H406 H 0.53327 0.49759 1.01639 0.0
H407 H 0.45497 0.46965 1.0168 0.0
H408 H 0.47505 0.57713 1.02026 0.0
H409 H 0.55345 0.60508 0.02126 0.0
H410 H 0.51791 0.62315 0.04681 0.0
H411 H 0.55099 0.53509 0.1321 0.0
H412 H 0.65217 0.55477 0.12294 0.0
H413 H 0.62323 0.56171 0.04152 0.0
C414 C 0.39269 0.49287 0.06007 0.0
C415 C 0.35096 0.47538 0.08005 0.0
C416 C 0.36809 0.47512 0.10573 0.0
C417 C 0.42748 0.49475 0.11158 0.0
C418 C 0.4683 0.51427 0.09145 0.0
C419 C 0.45127 0.51177 0.06613 0.0
C420 C 0.50287 0.53276 0.04786 0.0
C421 C 0.49428 0.48295 0.02916 0.0
C422 C 0.51288 0.58781 0.03319 0.0
C423 C 0.55197 0.5474 0.06684 0.0
C424 C 0.53137 0.53751 0.09193 0.0
C425 C 0.5678 0.54374 0.11262 0.0
C426 C 0.62549 0.55606 0.10733 0.0
C427 C 0.64556 0.56175 0.08165 0.0
C428 C 0.60952 0.56033 0.06134 0.0
H429 H 0.1069 0.58025 0.36832 0.0
H430 H 0.06937 0.67329 0.42852 0.0
H431 H -0.01396 0.57855 0.4434 0.0
H432 H 0.95404 0.47508 0.35383 0.0
H433 H 0.96989 0.41652 0.34695 0.0
H434 H 0.02538 0.49188 0.34157 0.0
H435 H 0.09682 0.47653 0.37087 0.0
H436 H 0.04058 0.40171 0.37703 0.0
H437 H 0.07548 0.45223 0.4035 0.0
H438 H 0.90922 0.47434 0.45197 0.0
H439 H 0.8321 0.3697 0.44904 0.0
H440 H 0.91989 0.34549 0.38299 0.0
C441 C 0.08057 0.58059 0.38445 0.0
C442 C 0.0941 0.63343 0.39743 0.0
C443 C 0.05899 0.63292 0.41831 0.0
C444 C 0.01229 0.57942 0.42704 0.0
C445 C 0.00155 0.52759 0.41443 0.0
C446 C 0.03371 0.52793 0.39318 0.0
C447 C 0.01142 0.46665 0.38221 0.0
C448 C -0.01118 0.46228 0.35451 0.0
C449 C 0.05893 0.44823 0.3835 0.0
C450 C 0.96161 0.43152 0.4007 0.0
C451 C 0.95722 0.46745 0.41934 0.0
C452 C 0.91253 0.44569 0.43766 0.0
C453 C 0.86939 0.38626 0.43602 0.0
C454 C 0.8716 0.34968 0.4163 0.0
C455 C 0.91908 0.37197 0.39895 0.0
H456 H 0.43495 0.07037 0.76368 0.0
H457 H 0.48546 0.12856 0.68521 0.0
H458 H 0.5206 0.05713 0.6793 0.0
H459 H 0.55699 0.05598 0.77833 0.0
H460 H 0.51876 -0.0095 0.79749 0.0
H461 H 0.49035 0.04067 0.79515 0.0
H462 H 0.38977 0.957 0.7785 0.0
H463 H 0.4169 0.90609 0.7821 0.0
H464 H 0.38821 0.91227 0.75152 0.0
H465 H 0.55781 0.98666 0.68302 0.0
H466 H 0.5748 0.90438 0.69309 0.0
H467 H 0.50353 0.89355 0.76949 0.0
C468 C 0.45074 0.06575 0.74495 0.0
C469 C 0.45643 0.10339 0.72465 0.0
C470 C 0.4797 0.09865 0.70069 0.0
C471 C 0.50055 0.05902 0.69731 0.0
C472 C 0.49795 0.02497 0.71819 0.0
C473 C 0.47217 0.02656 0.74131 0.0
C474 C 0.47603 0.98589 0.76074 0.0
C475 C 0.51272 0.02035 0.78432 0.0
C476 C 0.41405 0.93742 0.76866 0.0
C477 C 0.50791 0.96134 0.74489 0.0
C478 C 0.521 0.98525 0.72056 0.0
C479 C 0.54842 0.96793 0.7021 0.0
C480 C 0.55929 0.92209 0.70817 0.0
C481 C 0.54292 0.89469 0.73241 0.0
C482 C 0.51875 0.91579 0.75123 0.0
H483 H 0.55257 0.60949 0.73591 0.0
H484 H 0.54136 0.63221 0.65413 0.0
H485 H 0.47155 0.52544 0.64914 0.0
H486 H 0.54052 0.46333 0.73408 0.0
H487 H 0.49751 0.44438 0.76344 0.0
H488 H 0.55007 0.51969 0.75697 0.0
H489 H 0.46258 0.53866 0.76495 0.0
H490 H 0.40974 0.46151 0.76737 0.0
H491 H 0.39945 0.50568 0.74378 0.0
H492 H 0.40161 0.41767 0.65328 0.0
H493 H 0.34706 0.31249 0.66525 0.0
H494 H 0.39826 0.3602 0.74479 0.0
C495 C 0.53701 0.59128 0.71688 0.0
C496 C 0.55359 0.62793 0.69519 0.0
C497 C 0.5303 0.60386 0.67073 0.0
C498 C 0.49001 0.54368 0.66783 0.0
C499 C 0.47267 0.5088 0.68974 0.0
C500 C 0.49575 0.53148 0.71377 0.0
C501 C 0.46898 0.48458 0.73423 0.0
C502 C 0.51713 0.47742 0.74791 0.0
C503 C 0.43298 0.4985 0.75371 0.0
C504 C 0.42896 0.43146 0.71777 0.0
C505 C 0.43077 0.44679 0.69226 0.0
C506 C 0.39919 0.40512 0.67322 0.0
C507 C 0.3675 0.3457 0.6802 0.0
C508 C 0.3676 0.32897 0.70594 0.0
C509 C 0.39674 0.37242 0.72508 0.0
H510 H 0.11679 0.47935 1.01722 0.0
H511 H 0.98477 0.29843 0.03319 0.0
H512 H 0.90682 0.32605 0.03047 0.0
H513 H 0.05752 0.54527 0.0561 0.0
H514 H 0.0731 0.60631 0.03545 0.0
H515 H 0.11904 0.57306 0.03402 0.0
H516 H 0.10054 0.55208 0.98561 0.0
H517 H 0.05627 0.58756 0.98603 0.0
H518 H 0.02603 0.51351 0.97361 0.0
H519 H 0.8451 0.37357 0.02835 0.0
H520 H 0.80192 0.43806 0.02983 0.0
H521 H 0.9748 0.59116 1.01882 0.0
C522 C 0.07136 0.44529 1.01973 0.0
C523 C 0.05645 0.38661 0.02533 0.0
C524 C -0.00321 0.34345 0.02876 0.0
C525 C 0.95243 0.35877 0.02721 0.0
C526 C 0.96881 0.41737 0.02231 0.0
C527 C 0.02681 0.46007 1.01868 0.0
C528 C 0.03292 0.52066 1.0157 0.0
C529 C 0.07298 0.56379 0.0366 0.0
C530 C 0.05525 0.54486 0.98862 0.0
C531 C 0.96945 0.5057 1.0193 0.0
C532 C 0.93326 0.44561 0.02236 0.0
C533 C 0.87296 0.4206 0.02601 0.0
C534 C 0.84896 0.4579 0.02691 0.0
C535 C 0.88519 0.51986 0.02485 0.0
C536 C 0.94623 0.54407 0.02067 0.0
H537 H 0.36923 0.92835 0.40495 0.0
H538 H 0.33115 0.95155 0.32632 0.0
H539 H 0.43769 0.00069 0.31595 0.0
H540 H 0.50756 0.06516 0.41104 0.0
H541 H 0.54196 0.03285 0.43014 0.0
H542 H 0.46352 0.00339 0.43141 0.0
H543 H 0.45134 0.90345 0.42084 0.0
H544 H 0.52841 0.92982 0.41595 0.0
H545 H 0.4769 0.88999 0.39047 0.0
H546 H 0.5463 0.04146 0.3136 0.0
H547 H 0.65345 0.08604 0.32095 0.0
H548 H 0.62125 0.03091 0.40047 0.0
C549 C 0.38383 0.94516 0.38575 0.0
C550 C 0.34288 0.93762 0.36646 0.0
C551 C 0.36258 0.95891 0.34143 0.0
C552 C 0.42268 0.98576 0.33532 0.0
C553 C 0.46187 -0.01001 0.35445 0.0
C554 C 0.44351 0.97107 0.37927 0.0
C555 C 0.49476 0.98077 0.39619 0.0
C556 C 0.50258 0.0232 0.41849 0.0
C557 C 0.48729 0.92243 0.40639 0.0
C558 C 0.54484 0.00801 0.37693 0.0
C559 C 0.52465 0.01236 0.35294 0.0
C560 C 0.56263 0.03781 0.3322 0.0
C561 C 0.62318 0.06209 0.3364 0.0
C562 C 0.64486 0.05987 0.36096 0.0
C563 C 0.60525 0.03094 0.38128 0.0
H564 H 0.37126 0.27784 0.80608 0.0
H565 H 0.25575 0.09059 0.79284 0.0
H566 H 0.216 0.08134 0.83698 0.0
H567 H 0.40676 0.27165 0.87087 0.0
H568 H 0.40412 0.3361 0.8817 0.0
H569 H 0.42261 0.33067 0.84881 0.0
H570 H 0.33898 0.34583 0.83195 0.0
H571 H 0.32071 0.35419 0.86462 0.0
H572 H 0.26498 0.30008 0.84368 0.0
H573 H 0.19222 0.09201 0.88344 0.0
H574 H 0.18243 0.12193 0.9275 0.0
H575 H 0.31014 0.30344 0.90972 0.0
C576 C 0.33744 0.23479 0.81236 0.0
C577 C 0.31677 0.18474 0.7959 0.0
C578 C 0.27219 0.12951 0.80496 0.0
C579 C 0.24949 0.12385 0.83006 0.0
C580 C 0.27126 0.17396 0.8458 0.0
C581 C 0.31381 0.22853 0.83719 0.0
C582 C 0.32904 0.27567 0.85778 0.0
C583 C 0.39452 0.30517 0.86524 0.0
C584 C 0.31241 0.32164 0.84898 0.0
C585 C 0.28967 0.23881 0.87961 0.0
C586 C 0.25653 0.18033 0.87227 0.0
C587 C 0.21753 0.1378 0.88926 0.0
C588 C 0.21202 0.15542 0.91428 0.0
C589 C 0.24509 0.21526 0.9223 0.0
C590 C 0.28449 0.25728 0.90451 0.0
H591 H 0.07443 0.26732 0.24758 0.0
H592 H 0.90243 0.25016 0.23604 0.0
H593 H 0.92463 0.27296 0.19008 0.0
H594 H 0.15378 0.38704 0.20451 0.0
H595 H 0.20136 0.36081 0.19209 0.0
H596 H 0.17163 0.34145 0.22412 0.0
H597 H 0.12726 0.2308 0.21265 0.0
H598 H 0.15685 0.24989 0.18055 0.0
H599 H 0.07911 0.20072 0.18521 0.0
H600 H 0.96726 0.30465 0.14655 0.0
H601 H 0.02641 0.33899 0.10681 0.0
H602 H 0.16978 0.32974 0.14411 0.0
C603 C 0.04139 0.26784 0.23524 0.0
C604 C -0.01298 0.25855 0.24553 0.0
C605 C 0.94494 0.25941 0.22878 0.0
C606 C 0.95696 0.27155 0.20257 0.0
C607 C 0.01123 0.2819 0.1931 0.0
C608 C 0.0527 0.27963 0.20876 0.0
C609 C 0.10795 0.29358 0.19342 0.0
C610 C 0.16186 0.34901 0.20418 0.0
C611 C 0.11839 0.24058 0.19293 0.0
C612 C 0.09115 0.3047 0.16689 0.0
C613 C 0.03509 0.29777 0.16731 0.0
C614 C 0.01079 0.30924 0.14584 0.0
C615 C 0.04471 0.32877 0.12336 0.0
C616 C 0.10206 0.33591 0.12226 0.0
C617 C 0.12538 0.32305 0.14425 0.0
H618 H 0.69671 0.0251 0.57832 0.0
H619 H 0.81938 0.95859 0.57041 0.0
H620 H 0.84233 -0.00316 0.52633 0.0
H621 H 0.63971 0.98588 0.51337 0.0
H622 H 0.63104 0.04961 0.50935 0.0
H623 H 0.62499 0.01916 0.54091 0.0
H624 H 0.70618 0.11991 0.558 0.0
H625 H 0.7131 0.1517 0.52672 0.0
H626 H 0.7769 0.15632 0.54218 0.0
H627 H 0.85388 0.04442 0.48285 0.0
H628 H 0.84875 0.09303 0.44308 0.0
H629 H 0.71567 0.12417 0.47858 0.0
C630 C 0.72799 0.01789 0.56737 0.0
C631 C 0.75676 -0.01068 0.57838 0.0
C632 C 0.79777 0.98166 0.56303 0.0
C633 C 0.81082 0.00281 0.53774 0.0
C634 C 0.78208 0.03106 0.52768 0.0
C635 C 0.7411 0.03813 0.54193 0.0
C636 C 0.71547 0.06897 0.52633 0.0
C637 C 0.64886 0.02851 0.52226 0.0
C638 C 0.72872 0.1277 0.53907 0.0
C639 C 0.74914 0.07889 0.50128 0.0
C640 C 0.78738 0.05674 0.50242 0.0
C641 C 0.82379 0.06161 0.48171 0.0
C642 C 0.82073 0.08949 0.4592 0.0
C643 C 0.78131 0.11193 0.45746 0.0
C644 C 0.74539 0.10656 0.47895 0.0
H645 H 0.67022 0.83304 0.80467 0.0
H646 H 0.63046 0.66565 0.77013 0.0
H647 H 0.66615 0.64005 0.80916 0.0
H648 H 0.80223 0.85911 0.84154 0.0
H649 H 0.78317 0.88849 0.86921 0.0
H650 H 0.76088 0.89701 0.8375 0.0
H651 H 0.65224 0.84746 0.85269 0.0
H652 H 0.67411 0.8385 0.88438 0.0
H653 H 0.61907 0.77535 0.8669 0.0
H654 H 0.70165 0.63015 0.85207 0.0
H655 H 0.73121 0.63477 0.89748 0.0
H656 H 0.74293 0.80527 0.90643 0.0
C657 C 0.67075 0.79185 0.80519 0.0
C658 C 0.64903 0.75175 0.78423 0.0
C659 C 0.64792 0.69719 0.78586 0.0
C660 C 0.66806 0.68231 0.80794 0.0
C661 C 0.68852 0.7222 0.82846 0.0
C662 C 0.68986 0.77577 0.82744 0.0
C663 C 0.70951 0.80813 0.85313 0.0
C664 C 0.7674 0.86666 0.85016 0.0
C665 C 0.66083 0.81792 0.86497 0.0
C666 C 0.71867 0.76427 0.86868 0.0
C667 C 0.70672 0.71529 0.85389 0.0
C668 C 0.71087 0.66816 0.86386 0.0
C669 C 0.72699 0.67074 0.88971 0.0
C670 C 0.73796 0.71952 0.90548 0.0
C671 C 0.73467 0.76741 0.89473 0.0
H672 H 0.98085 0.66362 0.23625 0.0
H673 H 0.0395 0.85035 0.2307 0.0
H674 H 0.00598 0.83596 0.1856 0.0
H675 H 0.01993 0.64491 0.17069 0.0
H676 H 0.95602 0.5732 0.16615 0.0
H677 H -0.01321 0.5971 0.19782 0.0
H678 H 0.88679 0.57956 0.21552 0.0
H679 H 0.85506 0.55354 0.1842 0.0
H680 H 0.84925 0.61266 0.19958 0.0
H681 H 0.96065 0.8006 0.14171 0.0
H682 H 0.9076 0.74681 0.10244 0.0
H683 H 0.87759 0.58289 0.13636 0.0
C684 C -0.01331 0.70151 0.22555 0.0
C685 C 0.01308 0.75825 0.23715 0.0
C686 C 0.02034 0.80664 0.22227 0.0
C687 C 0.00114 0.79887 0.19661 0.0
C688 C 0.97489 0.74242 0.18588 0.0
C689 C 0.96786 0.69457 0.19983 0.0
C690 C 0.93684 0.63832 0.18389 0.0
C691 C 0.97735 0.61187 0.17936 0.0
C692 C 0.87851 0.59341 0.19656 0.0
C693 C 0.92618 0.66185 0.15907 0.0
C694 C 0.94892 0.72208 0.16054 0.0
C695 C 0.94304 0.75346 0.14028 0.0
C696 C 0.91274 0.72247 0.11801 0.0
C697 C 0.88845 0.66058 0.1161 0.0
C698 C 0.89592 0.63023 0.13697 0.0
H699 H 0.2875 0.95032 0.57645 0.0
H700 H 0.15662 0.00706 0.57343 0.0
H701 H 0.13288 0.97038 0.52888 0.0
H702 H 0.33956 -0.00572 0.51133 0.0
H703 H 0.35202 0.93353 0.50482 0.0
H704 H 0.35873 0.96145 0.5372 0.0
H705 H 0.28372 0.85892 0.55331 0.0
H706 H 0.27309 0.82777 0.52138 0.0
H707 H 0.2109 0.82048 0.53943 0.0
H708 H 0.12111 0.92512 0.48463 0.0
H709 H 0.12586 0.87935 0.4436 0.0
H710 H 0.26742 0.85613 0.47419 0.0
C711 C 0.25426 0.95579 0.56647 0.0
C712 C 0.22344 0.98107 0.57902 0.0
C713 C 0.17994 0.9865 0.56487 0.0
C714 C 0.16639 0.96622 0.53933 0.0
C715 C 0.19711 0.94111 0.52777 0.0
C716 C 0.24056 0.93637 0.54078 0.0
C717 C 0.26765 0.9085 0.52367 0.0
C718 C 0.33338 0.95198 0.51899 0.0
C719 C 0.25831 0.85051 0.53517 0.0
C720 C 0.23194 0.89735 0.49919 0.0
C721 C 0.19149 0.91655 0.50199 0.0
C722 C 0.15286 0.9102 0.4822 0.0
C723 C 0.1558 0.88386 0.45892 0.0
C724 C 0.19718 0.86408 0.4554 0.0
C725 C 0.23562 0.87105 0.47599 0.0
loop_
_geom_bond_atom_site_label_1
_geom_bond_atom_site_label_2
_geom_bond_distance
_geom_bond_site_symmetry_2
_ccdc_geom_bond_type
Gd0 C3 2.818 . S
Gd0 O20 2.377 . S
Gd0 O22 2.448 . S
Gd0 O23 2.506 . S
Gd0 O24 2.435 . S
Gd0 O25 2.717 . S
Gd0 O27 2.395 . S
Gd0 O31 2.327 . S
Gd1 C12 2.818 1_554 S
Gd1 O21 2.395 . S
Gd1 O25 2.327 . S
Gd1 O26 2.377 1_554 S
Gd1 O28 2.448 1_554 S
Gd1 O29 2.506 1_554 S
Gd1 O30 2.435 . S
Gd1 O31 2.717 . S
C2 O20 1.240 . S
C2 O21 1.240 . S
C3 Gd0 2.818 . S
C3 C4 1.510 . S
C3 O22 1.249 . S
C3 O23 1.252 . S
C4 C3 1.510 . S
C4 C5 1.404 . S
C4 C6 1.352 . S
C5 C4 1.404 . S
C5 C9 1.389 . S
C5 H32 0.930 . S
C6 C4 1.352 . S
C6 C8 1.374 . S
C6 H33 0.931 . S
C7 C8 1.359 . S
C7 C9 1.364 . S
C8 C6 1.374 . S
C8 C7 1.359 . S
C8 H34 0.931 . S
C9 C5 1.389 . S
C9 C7 1.364 . S
C9 H35 0.931 . S
C10 O24 1.256 . S
C10 O25 1.257 . S
C11 O26 1.240 . S
C11 O27 1.240 1_556 S
C12 Gd1 2.818 1_556 S
C12 C13 1.510 . S
C12 O28 1.249 . S
C12 O29 1.252 . S
C13 C12 1.510 . S
C13 C14 1.404 . S
C13 C15 1.352 . S
C14 C13 1.404 . S
C14 C18 1.389 . S
C14 H36 0.930 . S
C15 C13 1.352 . S
C15 C17 1.374 . S
C15 H37 0.931 . S
C16 C17 1.359 . S
C16 C18 1.364 . S
C17 C15 1.374 . S
C17 C16 1.359 . S
C17 H38 0.931 . S
C18 C14 1.389 . S
C18 C16 1.364 . S
C18 H39 0.931 . S
C19 O30 1.256 . S
C19 O31 1.257 . S
O20 Gd0 2.377 . S
O20 C2 1.240 . S
O21 Gd1 2.395 . S
O21 C2 1.240 . S
O22 Gd0 2.448 . S
O22 C3 1.249 . S
O23 Gd0 2.506 . S
O23 C3 1.252 . S
O24 Gd0 2.435 . S
O24 C10 1.256 . S
O25 Gd0 2.717 . S
O25 Gd1 2.327 . S
O25 C10 1.257 . S
O26 Gd1 2.377 1_556 S
O26 C11 1.240 . S
O27 Gd0 2.395 . S
O27 C11 1.240 1_554 S
O28 Gd1 2.448 1_556 S
O28 C12 1.249 . S
O29 Gd1 2.506 1_556 S
O29 C12 1.252 . S
O30 Gd1 2.435 . S
O30 C19 1.256 . S
O31 Gd0 2.327 . S
O31 Gd1 2.717 . S
O31 C19 1.257 . S
H32 C5 0.930 . S
H33 C6 0.931 . S
H34 C8 0.931 . S
H35 C9 0.931 . S
H36 C14 0.930 . S
H37 C15 0.931 . S
H38 C17 0.931 . S
H39 C18 0.931 . S
Gd40 C43 2.818 . S
Gd40 O60 2.377 . S
Gd40 O62 2.448 . S
Gd40 O63 2.506 . S
Gd40 O64 2.435 . S
Gd40 O65 2.717 . S
Gd40 O67 2.395 . S
Gd40 O71 2.327 . S
Gd41 C52 2.818 . S
Gd41 O61 2.395 . S
Gd41 O65 2.327 . S
Gd41 O66 2.377 . S
Gd41 O68 2.448 . S
Gd41 O69 2.506 . S
Gd41 O70 2.435 . S
Gd41 O71 2.717 . S
C42 O60 1.240 . S
C42 O61 1.240 . S
C43 Gd40 2.818 . S
C43 C44 1.510 . S
C43 O62 1.249 . S
C43 O63 1.252 . S
C44 C43 1.510 . S
C44 C45 1.404 . S
C44 C46 1.352 . S
C45 C44 1.404 . S
C45 C49 1.389 . S
C45 H72 0.930 . S
C46 C44 1.352 . S
C46 C48 1.374 . S
C46 H73 0.931 . S
C47 C48 1.359 . S
C47 C49 1.364 . S
C48 C46 1.374 . S
C48 C47 1.359 . S
C48 H74 0.931 . S
C49 C45 1.389 . S
C49 C47 1.364 . S
C49 H75 0.931 . S
C50 O64 1.256 . S
C50 O65 1.257 . S
C51 O66 1.240 . S
C51 O67 1.240 . S
C52 Gd41 2.818 . S
C52 C53 1.510 . S
C52 O68 1.249 . S
C52 O69 1.252 . S
C53 C52 1.510 . S
C53 C54 1.404 . S
C53 C55 1.352 . S
C54 C53 1.404 . S
C54 C58 1.389 . S
C54 H76 0.930 . S
C55 C53 1.352 . S
C55 C57 1.374 . S
C55 H77 0.931 . S
C56 C57 1.359 . S
C56 C58 1.364 . S
C57 C55 1.374 . S
C57 C56 1.359 . S
C57 H78 0.931 1_655 S
C58 C54 1.389 . S
C58 C56 1.364 . S
C58 H79 0.931 . S
C59 O70 1.256 . S
C59 O71 1.257 . S
O60 Gd40 2.377 . S
O60 C42 1.240 . S
O61 Gd41 2.395 . S
O61 C42 1.240 . S
O62 Gd40 2.448 . S
O62 C43 1.249 . S
O63 Gd40 2.506 . S
O63 C43 1.252 . S
O64 Gd40 2.435 . S
O64 C50 1.256 . S
O65 Gd40 2.717 . S
O65 Gd41 2.327 . S
O65 C50 1.257 . S
O66 Gd41 2.377 . S
O66 C51 1.240 . S
O67 Gd40 2.395 . S
O67 C51 1.240 . S
O68 Gd41 2.448 . S
O68 C52 1.249 . S
O69 Gd41 2.506 . S
O69 C52 1.252 . S
O70 Gd41 2.435 . S
O70 C59 1.256 . S
O71 Gd40 2.327 . S
O71 Gd41 2.717 . S
O71 C59 1.257 . S
H72 C45 0.930 . S
H73 C46 0.931 . S
H74 C48 0.931 . S
H75 C49 0.931 . S
H76 C54 0.930 . S
H77 C55 0.931 . S
H78 C57 0.931 1_455 S
H79 C58 0.931 . S
Gd80 C83 2.818 . S
Gd80 O100 2.377 . S
Gd80 O102 2.448 . S
Gd80 O103 2.506 . S
Gd80 O104 2.435 . S
Gd80 O105 2.717 . S
Gd80 O107 2.395 . S
Gd80 O111 2.327 . S
Gd81 C92 2.818 . S
Gd81 O101 2.395 . S
Gd81 O105 2.327 . S
Gd81 O106 2.377 . S
Gd81 O108 2.448 . S
Gd81 O109 2.506 . S
Gd81 O110 2.435 . S
Gd81 O111 2.717 . S
C82 O100 1.240 . S
C82 O101 1.240 . S
C83 Gd80 2.818 . S
C83 C84 1.510 . S
C83 O102 1.249 . S
C83 O103 1.252 . S
C84 C83 1.510 . S
C84 C85 1.404 . S
C84 C86 1.352 . S
C85 C84 1.404 . S
C85 C89 1.389 . S
C85 H112 0.930 . S
C86 C84 1.352 . S
C86 C88 1.374 . S
C86 H113 0.931 . S
C87 C88 1.359 . S
C87 C89 1.364 . S
C88 C86 1.374 . S
C88 C87 1.359 . S
C88 H114 0.931 . S
C89 C85 1.389 . S
C89 C87 1.364 . S
C89 H115 0.931 . S
C90 O104 1.256 . S
C90 O105 1.257 . S
C91 O106 1.240 . S
C91 O107 1.240 . S
C92 Gd81 2.818 . S
C92 C93 1.510 . S
C92 O108 1.249 . S
C92 O109 1.252 . S
C93 C92 1.510 . S
C93 C94 1.404 . S
C93 C95 1.352 . S
C94 C93 1.404 . S
C94 C98 1.389 . S
C94 H116 0.930 . S
C95 C93 1.352 . S
C95 C97 1.374 . S
C95 H117 0.931 . S
C96 C97 1.359 . S
C96 C98 1.364 . S
C97 C95 1.374 . S
C97 C96 1.359 . S
C97 H118 0.931 1_565 S
C98 C94 1.389 . S
C98 C96 1.364 . S
C98 H119 0.931 . S
C99 O110 1.256 . S
C99 O111 1.257 . S
O100 Gd80 2.377 . S
O100 C82 1.240 . S
O101 Gd81 2.395 . S
O101 C82 1.240 . S
O102 Gd80 2.448 . S
O102 C83 1.249 . S
O103 Gd80 2.506 . S
O103 C83 1.252 . S
O104 Gd80 2.435 . S
O104 C90 1.256 . S
O105 Gd80 2.717 . S
O105 Gd81 2.327 . S
O105 C90 1.257 . S
O106 Gd81 2.377 . S
O106 C91 1.240 . S
O107 Gd80 2.395 . S
O107 C91 1.240 . S
O108 Gd81 2.448 . S
O108 C92 1.249 . S
O109 Gd81 2.506 . S
O109 C92 1.252 . S
O110 Gd81 2.435 . S
O110 C99 1.256 . S
O111 Gd80 2.327 . S
O111 Gd81 2.717 . S
O111 C99 1.257 . S
H112 C85 0.930 . S
H113 C86 0.931 . S
H114 C88 0.931 . S
H115 C89 0.931 . S
H116 C94 0.930 . S
H117 C95 0.931 . S
H118 C97 0.931 1_545 S
H119 C98 0.931 . S
Gd120 C123 2.818 . S
Gd120 O140 2.377 . S
Gd120 O142 2.448 . S
Gd120 O143 2.506 . S
Gd120 O144 2.435 . S
Gd120 O145 2.717 . S
Gd120 O147 2.395 . S
Gd120 O151 2.327 . S
Gd121 C132 2.818 1_554 S
Gd121 O141 2.395 . S
Gd121 O145 2.327 . S
Gd121 O146 2.377 1_554 S
Gd121 O148 2.448 1_554 S
Gd121 O149 2.506 1_554 S
Gd121 O150 2.435 . S
Gd121 O151 2.717 . S
C122 O140 1.240 . S
C122 O141 1.240 . S
C123 Gd120 2.818 . S
C123 C124 1.510 . S
C123 O142 1.249 . S
C123 O143 1.252 . S
C124 C123 1.510 . S
C124 C125 1.404 . S
C124 C126 1.352 . S
C125 C124 1.404 . S
C125 C129 1.389 . S
C125 H152 0.930 . S
C126 C124 1.352 . S
C126 C128 1.374 . S
C126 H153 0.931 . S
C127 C128 1.359 . S
C127 C129 1.364 . S
C128 C126 1.374 . S
C128 C127 1.359 . S
C128 H154 0.931 . S
C129 C125 1.389 . S
C129 C127 1.364 . S
C129 H155 0.931 . S
C130 O144 1.256 . S
C130 O145 1.257 . S
C131 O146 1.240 . S
C131 O147 1.240 1_556 S
C132 Gd121 2.818 1_556 S
C132 C133 1.510 . S
C132 O148 1.249 . S
C132 O149 1.252 . S
C133 C132 1.510 . S
C133 C134 1.404 . S
C133 C135 1.352 . S
C134 C133 1.404 . S
C134 C138 1.389 . S
C134 H156 0.930 . S
C135 C133 1.352 . S
C135 C137 1.374 . S
C135 H157 0.931 . S
C136 C137 1.359 . S
C136 C138 1.364 . S
C137 C135 1.374 . S
C137 C136 1.359 . S
C137 H158 0.931 . S
C138 C134 1.389 . S
C138 C136 1.364 . S
C138 H159 0.931 . S
C139 O150 1.256 . S
C139 O151 1.257 . S
O140 Gd120 2.377 . S
O140 C122 1.240 . S
O141 Gd121 2.395 . S
O141 C122 1.240 . S
O142 Gd120 2.448 . S
O142 C123 1.249 . S
O143 Gd120 2.506 . S
O143 C123 1.252 . S
O144 Gd120 2.435 . S
O144 C130 1.256 . S
O145 Gd120 2.717 . S
O145 Gd121 2.327 . S
O145 C130 1.257 . S
O146 Gd121 2.377 1_556 S
O146 C131 1.240 . S
O147 Gd120 2.395 . S
O147 C131 1.240 1_554 S
O148 Gd121 2.448 1_556 S
O148 C132 1.249 . S
O149 Gd121 2.506 1_556 S
O149 C132 1.252 . S
O150 Gd121 2.435 . S
O150 C139 1.256 . S
O151 Gd120 2.327 . S
O151 Gd121 2.717 . S
O151 C139 1.257 . S
H152 C125 0.930 . S
H153 C126 0.931 . S
H154 C128 0.931 . S
H155 C129 0.931 . S
H156 C134 0.930 . S
H157 C135 0.931 . S
H158 C137 0.931 . S
H159 C138 0.931 . S
Gd160 C163 2.818 . S
Gd160 O180 2.377 . S
Gd160 O182 2.448 . S
Gd160 O183 2.506 . S
Gd160 O184 2.435 . S
Gd160 O185 2.717 . S
Gd160 O187 2.395 . S
Gd160 O191 2.327 . S
Gd161 C172 2.818 . S
Gd161 O181 2.395 . S
Gd161 O185 2.327 . S
Gd161 O186 2.377 . S
Gd161 O188 2.448 . S
Gd161 O189 2.506 . S
Gd161 O190 2.435 . S
Gd161 O191 2.717 . S
C162 O180 1.240 . S
C162 O181 1.240 . S
C163 Gd160 2.818 . S
C163 C164 1.510 . S
C163 O182 1.249 . S
C163 O183 1.252 . S
C164 C163 1.510 . S
C164 C165 1.404 . S
C164 C166 1.352 . S
C165 C164 1.404 . S
C165 C169 1.389 . S
C165 H192 0.930 . S
C166 C164 1.352 . S
C166 C168 1.374 . S
C166 H193 0.931 . S
C167 C168 1.359 . S
C167 C169 1.364 . S
C168 C166 1.374 . S
C168 C167 1.359 . S
C168 H194 0.931 . S
C169 C165 1.389 . S
C169 C167 1.364 . S
C169 H195 0.931 . S
C170 O184 1.256 . S
C170 O185 1.257 . S
C171 O186 1.240 . S
C171 O187 1.240 . S
C172 Gd161 2.818 . S
C172 C173 1.510 . S
C172 O188 1.249 . S
C172 O189 1.252 . S
C173 C172 1.510 . S
C173 C174 1.404 . S
C173 C175 1.352 . S
C174 C173 1.404 . S
C174 C178 1.389 . S
C174 H196 0.930 . S
C175 C173 1.352 . S
C175 C177 1.374 . S
C175 H197 0.931 . S
C176 C177 1.359 . S
C176 C178 1.364 . S
C177 C175 1.374 . S
C177 C176 1.359 . S
C177 H198 0.931 1_455 S
C178 C174 1.389 . S
C178 C176 1.364 . S
C178 H199 0.931 . S
C179 O190 1.256 . S
C179 O191 1.257 . S
O180 Gd160 2.377 . S
O180 C162 1.240 . S
O181 Gd161 2.395 . S
O181 C162 1.240 . S
O182 Gd160 2.448 . S
O182 C163 1.249 . S
O183 Gd160 2.506 . S
O183 C163 1.252 . S
O184 Gd160 2.435 . S
O184 C170 1.256 . S
O185 Gd160 2.717 . S
O185 Gd161 2.327 . S
O185 C170 1.257 . S
O186 Gd161 2.377 . S
O186 C171 1.240 . S
O187 Gd160 2.395 . S
O187 C171 1.240 . S
O188 Gd161 2.448 . S
O188 C172 1.249 . S
O189 Gd161 2.506 . S
O189 C172 1.252 . S
O190 Gd161 2.435 . S
O190 C179 1.256 . S
O191 Gd160 2.327 . S
O191 Gd161 2.717 . S
O191 C179 1.257 . S
H192 C165 0.930 . S
H193 C166 0.931 . S
H194 C168 0.931 . S
H195 C169 0.931 . S
H196 C174 0.930 . S
H197 C175 0.931 . S
H198 C177 0.931 1_655 S
H199 C178 0.931 . S
Gd200 C203 2.818 . S
Gd200 O220 2.377 . S
Gd200 O222 2.448 . S
Gd200 O223 2.506 . S
Gd200 O224 2.435 . S
Gd200 O225 2.717 . S
Gd200 O227 2.395 . S
Gd200 O231 2.327 . S
Gd201 C212 2.818 . S
Gd201 O221 2.395 . S
Gd201 O225 2.327 . S
Gd201 O226 2.377 . S
Gd201 O228 2.448 . S
Gd201 O229 2.506 . S
Gd201 O230 2.435 . S
Gd201 O231 2.717 . S
C202 O220 1.240 . S
C202 O221 1.240 . S
C203 Gd200 2.818 . S
C203 C204 1.510 . S
C203 O222 1.249 . S
C203 O223 1.252 . S
C204 C203 1.510 . S
C204 C205 1.404 . S
C204 C206 1.352 . S
C205 C204 1.404 . S
C205 C209 1.389 . S
C205 H232 0.930 . S
C206 C204 1.352 . S
C206 C208 1.374 . S
C206 H233 0.931 . S
C207 C208 1.359 . S
C207 C209 1.364 . S
C208 C206 1.374 . S
C208 C207 1.359 . S
C208 H234 0.931 . S
C209 C205 1.389 . S
C209 C207 1.364 . S
C209 H235 0.931 . S
C210 O224 1.256 . S
C210 O225 1.257 . S
C211 O226 1.240 . S
C211 O227 1.240 . S
C212 Gd201 2.818 . S
C212 C213 1.510 . S
C212 O228 1.249 . S
C212 O229 1.252 . S
C213 C212 1.510 . S
C213 C214 1.404 . S
C213 C215 1.352 . S
C214 C213 1.404 . S
C214 C218 1.389 . S
C214 H236 0.930 . S
C215 C213 1.352 . S
C215 C217 1.374 . S
C215 H237 0.931 . S
C216 C217 1.359 . S
C216 C218 1.364 . S
C217 C215 1.374 . S
C217 C216 1.359 . S
C217 H238 0.931 1_545 S
C218 C214 1.389 . S
C218 C216 1.364 . S
C218 H239 0.931 . S
C219 O230 1.256 . S
C219 O231 1.257 . S
O220 Gd200 2.377 . S
O220 C202 1.240 . S
O221 Gd201 2.395 . S
O221 C202 1.240 . S
O222 Gd200 2.448 . S
O222 C203 1.249 . S
O223 Gd200 2.506 . S
O223 C203 1.252 . S
O224 Gd200 2.435 . S
O224 C210 1.256 . S
O225 Gd200 2.717 . S
O225 Gd201 2.327 . S
O225 C210 1.257 . S
O226 Gd201 2.377 . S
O226 C211 1.240 . S
O227 Gd200 2.395 . S
O227 C211 1.240 . S
O228 Gd201 2.448 . S
O228 C212 1.249 . S
O229 Gd201 2.506 . S
O229 C212 1.252 . S
O230 Gd201 2.435 . S
O230 C219 1.256 . S
O231 Gd200 2.327 . S
O231 Gd201 2.717 . S
O231 C219 1.257 . S
H232 C205 0.930 . S
H233 C206 0.931 . S
H234 C208 0.931 . S
H235 C209 0.931 . S
H236 C214 0.930 . S
H237 C215 0.931 . S
H238 C217 0.931 1_565 S
H239 C218 0.931 . S
H240 C252 0.930 . S
H241 C254 0.930 . S
H242 C255 0.930 . S
H243 C259 0.959 . S
H244 C259 0.959 . S
H245 C259 0.961 . S
H246 C260 0.960 . S
H247 C260 0.961 . S
H248 C260 0.959 . S
H249 C263 0.929 . S
H250 C264 0.931 . S
H251 C266 0.930 . S
C252 H240 0.930 . S
C252 C253 1.399 . S
C252 C257 1.399 . S
C253 C252 1.399 . S
C253 C254 1.376 . S
C254 H241 0.930 . S
C254 C253 1.376 . S
C254 C255 1.388 . S
C255 H242 0.930 . S
C255 C254 1.388 . S
C255 C256 1.390 . S
C256 C255 1.390 . S
C256 C257 1.394 . S
C256 C262 1.465 . S
C257 C252 1.399 . S
C257 C256 1.394 . S
C257 C258 1.516 . S
C258 C257 1.516 . S
C258 C259 1.502 . S
C258 C260 1.561 . S
C258 C261 1.526 . S
C259 H243 0.959 . S
C259 H244 0.959 . S
C259 H245 0.961 . S
C259 C258 1.502 . S
C260 H246 0.960 . S
C260 H247 0.961 . S
C260 H248 0.959 . S
C260 C258 1.561 . S
C261 C258 1.526 . S
C261 C262 1.396 . S
C261 C266 1.390 . S
C262 C256 1.465 . S
C262 C261 1.396 . S
C262 C263 1.399 . S
C263 H249 0.929 . S
C263 C262 1.399 . S
C263 C264 1.385 . S
C264 H250 0.931 . S
C264 C263 1.385 . S
C264 C265 1.389 . S
C265 C264 1.389 . S
C265 C266 1.387 . S
C266 H251 0.930 . S
C266 C261 1.390 . S
C266 C265 1.387 . S
H267 C279 0.930 . S
H268 C281 0.930 . S
H269 C282 0.930 . S
H270 C286 0.959 . S
H271 C286 0.959 . S
H272 C286 0.961 . S
H273 C287 0.960 . S
H274 C287 0.961 . S
H275 C287 0.959 . S
H276 C290 0.929 . S
H277 C291 0.931 . S
H278 C293 0.930 . S
C279 H267 0.930 . S
C279 C280 1.399 . S
C279 C284 1.399 . S
C280 C279 1.399 . S
C280 C281 1.376 . S
C281 H268 0.930 . S
C281 C280 1.376 . S
C281 C282 1.388 . S
C282 H269 0.930 . S
C282 C281 1.388 . S
C282 C283 1.390 . S
C283 C282 1.390 . S
C283 C284 1.394 . S
C283 C289 1.465 . S
C284 C279 1.399 . S
C284 C283 1.394 . S
C284 C285 1.516 . S
C285 C284 1.516 . S
C285 C286 1.502 . S
C285 C287 1.561 . S
C285 C288 1.526 . S
C286 H270 0.959 . S
C286 H271 0.959 . S
C286 H272 0.961 . S
C286 C285 1.502 . S
C287 H273 0.960 . S
C287 H274 0.961 . S
C287 H275 0.959 . S
C287 C285 1.561 . S
C288 C285 1.526 . S
C288 C289 1.396 . S
C288 C293 1.390 . S
C289 C283 1.465 . S
C289 C288 1.396 . S
C289 C290 1.399 . S
C290 H276 0.929 . S
C290 C289 1.399 . S
C290 C291 1.385 . S
C291 H277 0.931 . S
C291 C290 1.385 . S
C291 C292 1.389 . S
C292 C291 1.389 . S
C292 C293 1.387 . S
C293 H278 0.930 . S
C293 C288 1.390 . S
C293 C292 1.387 . S
H294 C306 0.930 . S
H295 C308 0.930 . S
H296 C309 0.930 . S
H297 C313 0.959 . S
H298 C313 0.959 . S
H299 C313 0.961 . S
H300 C314 0.960 . S
H301 C314 0.961 . S
H302 C314 0.959 . S
H303 C317 0.929 . S
H304 C318 0.931 . S
H305 C320 0.930 . S
C306 H294 0.930 . S
C306 C307 1.399 . S
C306 C311 1.399 . S
C307 C306 1.399 . S
C307 C308 1.376 . S
C308 H295 0.930 . S
C308 C307 1.376 . S
C308 C309 1.388 . S
C309 H296 0.930 . S
C309 C308 1.388 . S
C309 C310 1.390 . S
C310 C309 1.390 . S
C310 C311 1.394 . S
C310 C316 1.465 . S
C311 C306 1.399 . S
C311 C310 1.394 . S
C311 C312 1.516 . S
C312 C311 1.516 . S
C312 C313 1.502 . S
C312 C314 1.561 . S
C312 C315 1.526 . S
C313 H297 0.959 . S
C313 H298 0.959 . S
C313 H299 0.961 . S
C313 C312 1.502 . S
C314 H300 0.960 . S
C314 H301 0.961 . S
C314 H302 0.959 . S
C314 C312 1.561 . S
C315 C312 1.526 . S
C315 C316 1.396 . S
C315 C320 1.390 . S
C316 C310 1.465 . S
C316 C315 1.396 . S
C316 C317 1.399 . S
C317 H303 0.929 . S
C317 C316 1.399 . S
C317 C318 1.385 . S
C318 H304 0.931 . S
C318 C317 1.385 . S
C318 C319 1.389 . S
C319 C318 1.389 . S
C319 C320 1.387 . S
C320 H305 0.930 . S
C320 C315 1.390 . S
C320 C319 1.387 . S
H321 C333 0.930 . S
H322 C335 0.930 . S
H323 C336 0.930 . S
H324 C340 0.959 . S
H325 C340 0.959 . S
H326 C340 0.961 . S
H327 C341 0.960 . S
H328 C341 0.961 . S
H329 C341 0.959 . S
H330 C344 0.929 . S
H331 C345 0.931 . S
H332 C347 0.930 . S
C333 H321 0.930 . S
C333 C334 1.399 . S
C333 C338 1.399 . S
C334 C333 1.399 . S
C334 C335 1.376 . S
C335 H322 0.930 . S
C335 C334 1.376 . S
C335 C336 1.388 . S
C336 H323 0.930 . S
C336 C335 1.388 . S
C336 C337 1.390 . S
C337 C336 1.390 . S
C337 C338 1.394 . S
C337 C343 1.465 . S
C338 C333 1.399 . S
C338 C337 1.394 . S
C338 C339 1.516 . S
C339 C338 1.516 . S
C339 C340 1.502 . S
C339 C341 1.561 . S
C339 C342 1.526 . S
C340 H324 0.959 . S
C340 H325 0.959 . S
C340 H326 0.961 . S
C340 C339 1.502 . S
C341 H327 0.960 . S
C341 H328 0.961 . S
C341 H329 0.959 . S
C341 C339 1.561 . S
C342 C339 1.526 . S
C342 C343 1.396 . S
C342 C347 1.390 . S
C343 C337 1.465 . S
C343 C342 1.396 . S
C343 C344 1.399 . S
C344 H330 0.929 . S
C344 C343 1.399 . S
C344 C345 1.385 . S
C345 H331 0.931 . S
C345 C344 1.385 . S
C345 C346 1.389 . S
C346 C345 1.389 . S
C346 C347 1.387 . S
C347 H332 0.930 . S
C347 C342 1.390 . S
C347 C346 1.387 . S
H348 C360 0.930 . S
H349 C362 0.930 . S
H350 C363 0.930 . S
H351 C367 0.959 . S
H352 C367 0.959 . S
H353 C367 0.961 . S
H354 C368 0.960 . S
H355 C368 0.961 . S
H356 C368 0.959 . S
H357 C371 0.929 . S
H358 C372 0.931 . S
H359 C374 0.930 . S
C360 H348 0.930 . S
C360 C361 1.399 . S
C360 C365 1.399 . S
C361 C360 1.399 . S
C361 C362 1.376 . S
C362 H349 0.930 . S
C362 C361 1.376 . S
C362 C363 1.388 . S
C363 H350 0.930 . S
C363 C362 1.388 . S
C363 C364 1.390 . S
C364 C363 1.390 . S
C364 C365 1.394 . S
C364 C370 1.465 . S
C365 C360 1.399 . S
C365 C364 1.394 . S
C365 C366 1.516 . S
C366 C365 1.516 . S
C366 C367 1.502 . S
C366 C368 1.561 . S
C366 C369 1.526 . S
C367 H351 0.959 . S
C367 H352 0.959 . S
C367 H353 0.961 . S
C367 C366 1.502 . S
C368 H354 0.960 . S
C368 H355 0.961 . S
C368 H356 0.959 . S
C368 C366 1.561 . S
C369 C366 1.526 . S
C369 C370 1.396 . S
C369 C374 1.390 . S
C370 C364 1.465 . S
C370 C369 1.396 . S
C370 C371 1.399 . S
C371 H357 0.929 . S
C371 C370 1.399 . S
C371 C372 1.385 . S
C372 H358 0.931 . S
C372 C371 1.385 . S
C372 C373 1.389 . S
C373 C372 1.389 . S
C373 C374 1.387 . S
C374 H359 0.930 . S
C374 C369 1.390 . S
C374 C373 1.387 . S
H375 C387 0.930 . S
H376 C389 0.930 . S
H377 C390 0.930 . S
H378 C394 0.959 . S
H379 C394 0.959 . S
H380 C394 0.961 . S
H381 C395 0.960 . S
H382 C395 0.961 . S
H383 C395 0.959 . S
H384 C398 0.929 . S
H385 C399 0.931 . S
H386 C401 0.930 . S
C387 H375 0.930 . S
C387 C388 1.399 . S
C387 C392 1.399 . S
C388 C387 1.399 . S
C388 C389 1.376 . S
C389 H376 0.930 . S
C389 C388 1.376 . S
C389 C390 1.388 . S
C390 H377 0.930 . S
C390 C389 1.388 . S
C390 C391 1.390 . S
C391 C390 1.390 . S
C391 C392 1.394 . S
C391 C397 1.465 . S
C392 C387 1.399 . S
C392 C391 1.394 . S
C392 C393 1.516 . S
C393 C392 1.516 . S
C393 C394 1.502 . S
C393 C395 1.561 . S
C393 C396 1.526 . S
C394 H378 0.959 . S
C394 H379 0.959 . S
C394 H380 0.961 . S
C394 C393 1.502 . S
C395 H381 0.960 . S
C395 H382 0.961 . S
C395 H383 0.959 . S
C395 C393 1.561 . S
C396 C393 1.526 . S
C396 C397 1.396 . S
C396 C401 1.390 . S
C397 C391 1.465 . S
C397 C396 1.396 . S
C397 C398 1.399 . S
C398 H384 0.929 . S
C398 C397 1.399 . S
C398 C399 1.385 . S
C399 H385 0.931 . S
C399 C398 1.385 . S
C399 C400 1.389 . S
C400 C399 1.389 . S
C400 C401 1.387 . S
C401 H386 0.930 . S
C401 C396 1.390 . S
C401 C400 1.387 . S
H402 C414 0.930 . S
H403 C416 0.930 . S
H404 C417 0.930 . S
H405 C421 0.959 . S
H406 C421 0.959 1_556 S
H407 C421 0.961 1_556 S
H408 C422 0.960 . S
H409 C422 0.961 . S
H410 C422 0.959 . S
H411 C425 0.929 . S
H412 C426 0.931 . S
H413 C428 0.930 . S
C414 H402 0.930 . S
C414 C415 1.399 . S
C414 C419 1.399 . S
C415 C414 1.399 . S
C415 C416 1.376 . S
C416 H403 0.930 . S
C416 C415 1.376 . S
C416 C417 1.388 . S
C417 H404 0.930 . S
C417 C416 1.388 . S
C417 C418 1.390 . S
C418 C417 1.390 . S
C418 C419 1.394 . S
C418 C424 1.465 . S
C419 C414 1.399 . S
C419 C418 1.394 . S
C419 C420 1.516 . S
C420 C419 1.516 . S
C420 C421 1.502 . S
C420 C422 1.561 1_554 S
C420 C423 1.526 . S
C421 H405 0.959 . S
C421 H406 0.959 1_554 S
C421 H407 0.961 1_554 S
C421 C420 1.502 . S
C422 H408 0.960 . S
C422 H409 0.961 . S
C422 H410 0.959 . S
C422 C420 1.561 1_556 S
C423 C420 1.526 . S
C423 C424 1.396 . S
C423 C428 1.390 . S
C424 C418 1.465 . S
C424 C423 1.396 . S
C424 C425 1.399 . S
C425 H411 0.929 . S
C425 C424 1.399 . S
C425 C426 1.385 . S
C426 H412 0.931 . S
C426 C425 1.385 . S
C426 C427 1.389 . S
C427 C426 1.389 . S
C427 C428 1.387 . S
C428 H413 0.930 . S
C428 C423 1.390 . S
C428 C427 1.387 . S
H429 C441 0.930 . S
H430 C443 0.930 . S
H431 C444 0.930 . S
H432 C448 0.959 . S
H433 C448 0.959 . S
H434 C448 0.961 . S
H435 C449 0.960 . S
H436 C449 0.961 . S
H437 C449 0.959 . S
H438 C452 0.929 1_455 S
H439 C453 0.931 . S
H440 C455 0.930 . S
C441 H429 0.930 . S
C441 C442 1.399 . S
C441 C446 1.399 . S
C442 C441 1.399 . S
C442 C443 1.376 . S
C443 H430 0.930 . S
C443 C442 1.376 . S
C443 C444 1.388 . S
C444 H431 0.930 . S
C444 C443 1.388 . S
C444 C445 1.390 . S
C445 C444 1.390 . S
C445 C446 1.394 . S
C445 C451 1.466 1_455 S
C446 C441 1.399 . S
C446 C445 1.394 . S
C446 C447 1.516 1_455 S
C447 C446 1.516 1_655 S
C447 C448 1.502 . S
C447 C449 1.561 1_655 S
C447 C450 1.526 . S
C448 H432 0.959 . S
C448 H433 0.959 . S
C448 H434 0.961 . S
C448 C447 1.502 . S
C449 H435 0.960 . S
C449 H436 0.961 . S
C449 H437 0.959 . S
C449 C447 1.561 1_455 S
C450 C447 1.526 . S
C450 C451 1.401 . S
C450 C455 1.390 . S
C451 C445 1.466 1_655 S
C451 C450 1.401 . S
C451 C452 1.395 . S
C452 H438 0.929 1_655 S
C452 C451 1.395 . S
C452 C453 1.385 . S
C453 H439 0.931 . S
C453 C452 1.385 . S
C453 C454 1.389 . S
C454 C453 1.389 . S
C454 C455 1.387 . S
C455 H440 0.930 . S
C455 C450 1.390 . S
C455 C454 1.387 . S
H456 C468 0.930 . S
H457 C470 0.930 . S
H458 C471 0.930 . S
H459 C475 0.959 1_545 S
H460 C475 0.959 . S
H461 C475 0.961 . S
H462 C476 0.960 . S
H463 C476 0.961 . S
H464 C476 0.959 . S
H465 C479 0.929 1_545 S
H466 C480 0.931 . S
H467 C482 0.930 . S
C468 H456 0.930 . S
C468 C469 1.399 . S
C468 C473 1.399 . S
C469 C468 1.399 . S
C469 C470 1.376 . S
C470 H457 0.930 . S
C470 C469 1.376 . S
C470 C471 1.388 . S
C471 H458 0.930 . S
C471 C470 1.388 . S
C471 C472 1.390 . S
C472 C471 1.390 . S
C472 C473 1.394 . S
C472 C478 1.465 1_545 S
C473 C468 1.399 . S
C473 C472 1.394 . S
C473 C474 1.516 1_545 S
C474 C473 1.516 1_565 S
C474 C475 1.502 . S
C474 C476 1.561 . S
C474 C477 1.526 . S
C475 H459 0.959 1_565 S
C475 H460 0.959 . S
C475 H461 0.961 . S
C475 C474 1.502 . S
C476 H462 0.960 . S
C476 H463 0.961 . S
C476 H464 0.959 . S
C476 C474 1.561 . S
C477 C474 1.526 . S
C477 C478 1.396 . S
C477 C482 1.390 . S
C478 C472 1.465 1_565 S
C478 C477 1.396 . S
C478 C479 1.399 . S
C479 H465 0.929 1_565 S
C479 C478 1.399 . S
C479 C480 1.385 . S
C480 H466 0.931 . S
C480 C479 1.385 . S
C480 C481 1.389 . S
C481 C480 1.389 . S
C481 C482 1.387 . S
C482 H467 0.930 . S
C482 C477 1.390 . S
C482 C481 1.387 . S
H483 C495 0.930 . S
H484 C497 0.930 . S
H485 C498 0.930 . S
H486 C502 0.959 . S
H487 C502 0.959 . S
H488 C502 0.961 . S
H489 C503 0.960 . S
H490 C503 0.961 . S
H491 C503 0.959 . S
H492 C506 0.929 . S
H493 C507 0.931 . S
H494 C509 0.930 . S
C495 H483 0.930 . S
C495 C496 1.399 . S
C495 C500 1.399 . S
C496 C495 1.399 . S
C496 C497 1.376 . S
C497 H484 0.930 . S
C497 C496 1.376 . S
C497 C498 1.388 . S
C498 H485 0.930 . S
C498 C497 1.388 . S
C498 C499 1.390 . S
C499 C498 1.390 . S
C499 C500 1.394 . S
C499 C505 1.465 . S
C500 C495 1.399 . S
C500 C499 1.394 . S
C500 C501 1.516 . S
C501 C500 1.516 . S
C501 C502 1.502 . S
C501 C503 1.561 . S
C501 C504 1.526 . S
C502 H486 0.959 . S
C502 H487 0.959 . S
C502 H488 0.961 . S
C502 C501 1.502 . S
C503 H489 0.960 . S
C503 H490 0.961 . S
C503 H491 0.959 . S
C503 C501 1.561 . S
C504 C501 1.526 . S
C504 C505 1.396 . S
C504 C509 1.390 . S
C505 C499 1.465 . S
C505 C504 1.396 . S
C505 C506 1.399 . S
C506 H492 0.929 . S
C506 C505 1.399 . S
C506 C507 1.385 . S
C507 H493 0.931 . S
C507 C506 1.385 . S
C507 C508 1.389 . S
C508 C507 1.389 . S
C508 C509 1.387 . S
C509 H494 0.930 . S
C509 C504 1.390 . S
C509 C508 1.387 . S
H510 C522 0.930 . S
H511 C524 0.930 . S
H512 C525 0.930 . S
H513 C529 0.959 . S
H514 C529 0.953 1_556 S
H515 C529 0.961 . S
H516 C530 0.960 . S
H517 C530 0.961 . S
H518 C530 0.959 1_655 S
H519 C533 0.929 . S
H520 C534 0.931 . S
H521 C536 0.930 . S
C522 H510 0.930 . S
C522 C523 1.399 . S
C522 C527 1.399 . S
C523 C522 1.399 . S
C523 C524 1.376 . S
C524 H511 0.930 . S
C524 C523 1.376 . S
C524 C525 1.388 1_455 S
C525 H512 0.930 . S
C525 C524 1.388 1_655 S
C525 C526 1.390 . S
C526 C525 1.390 . S
C526 C527 1.394 1_655 S
C526 C532 1.465 . S
C527 C522 1.399 . S
C527 C526 1.394 1_455 S
C527 C528 1.516 . S
C528 C527 1.516 . S
C528 C529 1.502 . S
C528 C530 1.561 1_554 S
C528 C531 1.526 1_455 S
C529 H513 0.959 . S
C529 H514 0.953 1_554 S
C529 H515 0.961 . S
C529 C528 1.502 . S
C530 H516 0.960 . S
C530 H517 0.961 . S
C530 H518 0.959 1_455 S
C530 C528 1.561 1_556 S
C531 C528 1.526 1_655 S
C531 C532 1.396 . S
C531 C536 1.390 . S
C532 C526 1.465 . S
C532 C531 1.396 . S
C532 C533 1.399 . S
C533 H519 0.929 . S
C533 C532 1.399 . S
C533 C534 1.385 . S
C534 H520 0.931 . S
C534 C533 1.385 . S
C534 C535 1.389 . S
C535 C534 1.389 . S
C535 C536 1.387 . S
C536 H521 0.930 . S
C536 C531 1.390 . S
C536 C535 1.387 . S
H537 C549 0.930 . S
H538 C551 0.930 . S
H539 C552 0.930 . S
H540 C556 0.959 . S
H541 C556 0.959 . S
H542 C556 0.961 1_565 S
H543 C557 0.960 . S
H544 C557 0.961 . S
H545 C557 0.959 . S
H546 C560 0.929 . S
H547 C561 0.931 . S
H548 C563 0.930 . S
C549 H537 0.930 . S
C549 C550 1.399 . S
C549 C554 1.399 . S
C550 C549 1.399 . S
C550 C551 1.376 . S
C551 H538 0.930 . S
C551 C550 1.376 . S
C551 C552 1.388 . S
C552 H539 0.930 . S
C552 C551 1.388 . S
C552 C553 1.390 . S
C553 C552 1.390 . S
C553 C554 1.394 . S
C553 C559 1.465 1_565 S
C554 C549 1.399 . S
C554 C553 1.394 . S
C554 C555 1.516 . S
C555 C554 1.516 . S
C555 C556 1.502 1_565 S
C555 C557 1.561 . S
C555 C558 1.526 1_565 S
C556 H540 0.959 . S
C556 H541 0.959 . S
C556 H542 0.961 1_545 S
C556 C555 1.502 1_545 S
C557 H543 0.960 . S
C557 H544 0.961 . S
C557 H545 0.959 . S
C557 C555 1.561 . S
C558 C555 1.526 1_545 S
C558 C559 1.396 . S
C558 C563 1.390 . S
C559 C553 1.465 1_545 S
C559 C558 1.396 . S
C559 C560 1.399 . S
C560 H546 0.929 . S
C560 C559 1.399 . S
C560 C561 1.385 . S
C561 H547 0.931 . S
C561 C560 1.385 . S
C561 C562 1.389 . S
C562 C561 1.389 . S
C562 C563 1.387 . S
C563 H548 0.930 . S
C563 C558 1.390 . S
C563 C562 1.387 . S
H564 C576 0.930 . S
H565 C578 0.930 . S
H566 C579 0.930 . S
H567 C583 0.959 . S
H568 C583 0.959 . S
H569 C583 0.961 . S
H570 C584 0.960 . S
H571 C584 0.961 . S
H572 C584 0.959 . S
H573 C587 0.929 . S
H574 C588 0.931 . S
H575 C590 0.930 . S
C576 H564 0.930 . S
C576 C577 1.399 . S
C576 C581 1.399 . S
C577 C576 1.399 . S
C577 C578 1.376 . S
C578 H565 0.930 . S
C578 C577 1.376 . S
C578 C579 1.388 . S
C579 H566 0.930 . S
C579 C578 1.388 . S
C579 C580 1.390 . S
C580 C579 1.390 . S
C580 C581 1.394 . S
C580 C586 1.465 . S
C581 C576 1.399 . S
C581 C580 1.394 . S
C581 C582 1.516 . S
C582 C581 1.516 . S
C582 C583 1.502 . S
C582 C584 1.561 . S
C582 C585 1.526 . S
C583 H567 0.959 . S
C583 H568 0.959 . S
C583 H569 0.961 . S
C583 C582 1.502 . S
C584 H570 0.960 . S
C584 H571 0.961 . S
C584 H572 0.959 . S
C584 C582 1.561 . S
C585 C582 1.526 . S
C585 C586 1.396 . S
C585 C590 1.390 . S
C586 C580 1.465 . S
C586 C585 1.396 . S
C586 C587 1.399 . S
C587 H573 0.929 . S
C587 C586 1.399 . S
C587 C588 1.385 . S
C588 H574 0.931 . S
C588 C587 1.385 . S
C588 C589 1.389 . S
C589 C588 1.389 . S
C589 C590 1.387 . S
C590 H575 0.930 . S
C590 C585 1.390 . S
C590 C589 1.387 . S
H591 C603 0.930 1_655 S
H592 C605 0.930 1_655 S
H593 C606 0.930 . S
H594 C610 0.959 . S
H595 C610 0.959 . S
H596 C610 0.961 . S
H597 C611 0.960 . S
H598 C611 0.961 . S
H599 C611 0.959 . S
H600 C614 0.929 . S
H601 C615 0.931 . S
H602 C617 0.930 . S
C603 H591 0.930 1_455 S
C603 C604 1.399 1_455 S
C603 C608 1.399 . S
C604 C603 1.399 1_655 S
C604 C605 1.376 1_655 S
C605 H592 0.930 1_455 S
C605 C604 1.376 1_455 S
C605 C606 1.388 . S
C606 H593 0.930 . S
C606 C605 1.388 . S
C606 C607 1.390 . S
C607 C606 1.390 . S
C607 C608 1.394 . S
C607 C613 1.465 . S
C608 C603 1.399 . S
C608 C607 1.394 . S
C608 C609 1.516 . S
C609 C608 1.516 . S
C609 C610 1.502 . S
C609 C611 1.561 1_455 S
C609 C612 1.526 . S
C610 H594 0.959 . S
C610 H595 0.959 . S
C610 H596 0.961 . S
C610 C609 1.502 . S
C611 H597 0.960 . S
C611 H598 0.961 . S
C611 H599 0.959 . S
C611 C609 1.561 1_655 S
C612 C609 1.526 . S
C612 C613 1.396 . S
C612 C617 1.390 . S
C613 C607 1.465 . S
C613 C612 1.396 . S
C613 C614 1.399 . S
C614 H600 0.929 . S
C614 C613 1.399 . S
C614 C615 1.385 . S
C615 H601 0.931 . S
C615 C614 1.385 . S
C615 C616 1.389 . S
C616 C615 1.389 . S
C616 C617 1.387 . S
C617 H602 0.930 . S
C617 C612 1.390 . S
C617 C616 1.387 . S
H618 C630 0.930 . S
H619 C632 0.930 . S
H620 C633 0.930 . S
H621 C637 0.959 . S
H622 C637 0.959 . S
H623 C637 0.961 . S
H624 C638 0.960 . S
H625 C638 0.961 . S
H626 C638 0.959 . S
H627 C641 0.929 1_565 S
H628 C642 0.931 . S
H629 C644 0.930 . S
C630 H618 0.930 . S
C630 C631 1.399 1_545 S
C630 C635 1.399 . S
C631 C630 1.399 1_565 S
C631 C632 1.376 . S
C632 H619 0.930 . S
C632 C631 1.376 . S
C632 C633 1.388 . S
C633 H620 0.930 . S
C633 C632 1.388 . S
C633 C634 1.390 1_565 S
C634 C633 1.390 1_545 S
C634 C635 1.394 . S
C634 C640 1.465 . S
C635 C630 1.399 . S
C635 C634 1.394 . S
C635 C636 1.516 . S
C636 C635 1.516 . S
C636 C637 1.502 . S
C636 C638 1.561 . S
C636 C639 1.526 . S
C637 H621 0.959 . S
C637 H622 0.959 . S
C637 H623 0.961 . S
C637 C636 1.502 . S
C638 H624 0.960 . S
C638 H625 0.961 . S
C638 H626 0.959 . S
C638 C636 1.561 . S
C639 C636 1.526 . S
C639 C640 1.396 . S
C639 C644 1.390 . S
C640 C634 1.465 . S
C640 C639 1.396 . S
C640 C641 1.399 . S
C641 H627 0.929 1_545 S
C641 C640 1.399 . S
C641 C642 1.385 . S
C642 H628 0.931 . S
C642 C641 1.385 . S
C642 C643 1.389 . S
C643 C642 1.389 . S
C643 C644 1.387 . S
C644 H629 0.930 . S
C644 C639 1.390 . S
C644 C643 1.387 . S
H645 C657 0.930 . S
H646 C659 0.930 . S
H647 C660 0.930 . S
H648 C664 0.959 . S
H649 C664 0.959 . S
H650 C664 0.961 . S
H651 C665 0.960 . S
H652 C665 0.961 . S
H653 C665 0.959 . S
H654 C668 0.929 . S
H655 C669 0.931 . S
H656 C671 0.930 . S
C657 H645 0.930 . S
C657 C658 1.399 . S
C657 C662 1.399 . S
C658 C657 1.399 . S
C658 C659 1.376 . S
C659 H646 0.930 . S
C659 C658 1.376 . S
C659 C660 1.388 . S
C660 H647 0.930 . S
C660 C659 1.388 . S
C660 C661 1.390 . S
C661 C660 1.390 . S
C661 C662 1.394 . S
C661 C667 1.465 . S
C662 C657 1.399 . S
C662 C661 1.394 . S
C662 C663 1.516 . S
C663 C662 1.516 . S
C663 C664 1.502 . S
C663 C665 1.561 . S
C663 C666 1.526 . S
C664 H648 0.959 . S
C664 H649 0.959 . S
C664 H650 0.961 . S
C664 C663 1.502 . S
C665 H651 0.960 . S
C665 H652 0.961 . S
C665 H653 0.959 . S
C665 C663 1.561 . S
C666 C663 1.526 . S
C666 C667 1.396 . S
C666 C671 1.390 . S
C667 C661 1.465 . S
C667 C666 1.396 . S
C667 C668 1.399 . S
C668 H654 0.929 . S
C668 C667 1.399 . S
C668 C669 1.385 . S
C669 H655 0.931 . S
C669 C668 1.385 . S
C669 C670 1.389 . S
C670 C669 1.389 . S
C670 C671 1.387 . S
C671 H656 0.930 . S
C671 C666 1.390 . S
C671 C670 1.387 . S
H672 C684 0.930 . S
H673 C686 0.932 1_455 S
H674 C687 0.930 . S
H675 C691 0.959 . S
H676 C691 0.959 . S
H677 C691 0.961 . S
H678 C692 0.960 . S
H679 C692 0.961 . S
H680 C692 0.959 . S
H681 C695 0.929 . S
H682 C696 0.931 . S
H683 C698 0.930 . S
C684 H672 0.930 . S
C684 C685 1.399 1_655 S
C684 C689 1.399 . S
C685 C684 1.399 1_455 S
C685 C686 1.371 1_455 S
C686 H673 0.932 1_655 S
C686 C685 1.371 1_655 S
C686 C687 1.392 . S
C687 H674 0.930 . S
C687 C686 1.392 . S
C687 C688 1.390 . S
C688 C687 1.390 . S
C688 C689 1.394 . S
C688 C694 1.465 . S
C689 C684 1.399 . S
C689 C688 1.394 . S
C689 C690 1.516 . S
C690 C689 1.516 . S
C690 C691 1.502 . S
C690 C692 1.561 . S
C690 C693 1.526 . S
C691 H675 0.959 . S
C691 H676 0.959 . S
C691 H677 0.961 . S
C691 C690 1.502 . S
C692 H678 0.960 . S
C692 H679 0.961 . S
C692 H680 0.959 . S
C692 C690 1.561 . S
C693 C690 1.526 . S
C693 C694 1.396 . S
C693 C698 1.390 . S
C694 C688 1.465 . S
C694 C693 1.396 . S
C694 C695 1.399 . S
C695 H681 0.929 . S
C695 C694 1.399 . S
C695 C696 1.385 . S
C696 H682 0.931 . S
C696 C695 1.385 . S
C696 C697 1.389 . S
C697 C696 1.389 . S
C697 C698 1.387 . S
C698 H683 0.930 . S
C698 C693 1.390 . S
C698 C697 1.387 . S
H699 C711 0.930 . S
H700 C713 0.930 . S
H701 C714 0.930 . S
H702 C718 0.959 . S
H703 C718 0.959 . S
H704 C718 0.961 . S
H705 C719 0.960 . S
H706 C719 0.961 . S
H707 C719 0.959 1_565 S
H708 C722 0.929 . S
H709 C723 0.931 . S
H710 C725 0.930 . S
C711 H699 0.930 . S
C711 C712 1.399 . S
C711 C716 1.399 1_545 S
C712 C711 1.399 . S
C712 C713 1.376 1_545 S
C713 H700 0.930 . S
C713 C712 1.376 1_565 S
C713 C714 1.388 . S
C714 H701 0.930 . S
C714 C713 1.388 . S
C714 C715 1.390 . S
C715 C714 1.390 . S
C715 C716 1.394 . S
C715 C721 1.465 . S
C716 C711 1.399 1_565 S
C716 C715 1.394 . S
C716 C717 1.516 1_565 S
C717 C716 1.516 1_545 S
C717 C718 1.502 . S
C717 C719 1.561 . S
C717 C720 1.526 1_545 S
C718 H702 0.959 . S
C718 H703 0.959 . S
C718 H704 0.961 . S
C718 C717 1.502 . S
C719 H705 0.960 . S
C719 H706 0.961 . S
C719 H707 0.959 1_545 S
C719 C717 1.561 . S
C720 C717 1.526 1_565 S
C720 C721 1.396 . S
C720 C725 1.390 . S
C721 C715 1.465 . S
C721 C720 1.396 . S
C721 C722 1.399 . S
C722 H708 0.929 . S
C722 C721 1.399 . S
C722 C723 1.385 . S
C723 H709 0.931 . S
C723 C722 1.385 . S
C723 C724 1.389 . S
C724 C723 1.389 . S
C724 C725 1.387 . S
C725 H710 0.930 . S
C725 C720 1.390 . S
C725 C724 1.387 . S
C253 C171 1.187 . S
C265 C7 1.183 . S
C280 C211 1.195 . S
C292 C47 1.183 . S
C307 C11 1.191 . S
C319 C87 1.184 . S
C334 C51 1.173 . S
C346 C127 1.187 . S
C361 C91 1.195 . S
C373 C167 1.183 . S
C388 C131 1.170 . S
C400 C207 1.187 . S
C415 C10 0.902 . S
C427 C130 1.023 . S
C442 C170 0.906 . S
C454 C50 1.014 . S
C469 C210 0.996 . S
C481 C90 1.027 . S
C496 C99 1.083 . S
C508 C219 1.104 . S
C523 C19 1.120 . S
C535 C139 1.097 . S
C550 C179 1.088 . S
C562 C59 1.087 . S
C577 C202 1.304 . S
C589 C16 1.311 . S
C604 C56 1.243 . S
C616 C2 1.308 . S
C631 C96 1.297 . S
C643 C42 1.309 . S
C658 C82 1.306 . S
C670 C136 1.242 . S
C685 C176 1.309 . S
C697 C122 1.303 . S
C712 C216 1.261 . S
C724 C162 1.301 . S
