# Generated by pormake.
# Topology ure, (4)-cn, num edge types: 1
# Building blocks:
#     Node 0, Type 0, BuildingBlock: KUFVIS_clean_sbu_0, # of connection points: 4
#     Node 1, Type 0, BuildingBlock: KUFVIS_clean_sbu_0, # of connection points: 4
#     Node 2, Type 0, BuildingBlock: KUFVIS_clean_sbu_0, # of connection points: 4
#     Node 3, Type 0, BuildingBlock: KUFVIS_clean_sbu_0, # of connection points: 4
#     Node 4, Type 0, BuildingBlock: KUFVIS_clean_sbu_0, # of connection points: 4
#     Node 5, Type 0, BuildingBlock: KUFVIS_clean_sbu_0, # of connection points: 4
#     Node 6, Type 0, BuildingBlock: KUFVIS_clean_sbu_0, # of connection points: 4
#     Node 7, Type 0, BuildingBlock: KUFVIS_clean_sbu_0, # of connection points: 4
#     Node 8, Type 0, BuildingBlock: KUFVIS_clean_sbu_0, # of connection points: 4
#     Node 9, Type 0, BuildingBlock: KUFVIS_clean_sbu_0, # of connection points: 4
#     Node 10, Type 0, BuildingBlock: KUFVIS_clean_sbu_0, # of connection points: 4
#     Node 11, Type 0, BuildingBlock: KUFVIS_clean_sbu_0, # of connection points: 4
#     Node 12, Type 0, BuildingBlock: KUFVIS_clean_sbu_0, # of connection points: 4
#     Node 13, Type 0, BuildingBlock: KUFVIS_clean_sbu_0, # of connection points: 4
#     Node 14, Type 0, BuildingBlock: KUFVIS_clean_sbu_0, # of connection points: 4
#     Node 15, Type 0, BuildingBlock: KUFVIS_clean_sbu_0, # of connection points: 4
#     Edge 16, Type (0, 0), BuildingBlock: CIFDUS_clean_linker_0, # of connection points: 2
#     Edge 17, Type (0, 0), BuildingBlock: CIFDUS_clean_linker_0, # of connection points: 2
#     Edge 18, Type (0, 0), BuildingBlock: CIFDUS_clean_linker_0, # of connection points: 2
#     Edge 19, Type (0, 0), BuildingBlock: CIFDUS_clean_linker_0, # of connection points: 2
#     Edge 20, Type (0, 0), BuildingBlock: CIFDUS_clean_linker_0, # of connection points: 2
#     Edge 21, Type (0, 0), BuildingBlock: CIFDUS_clean_linker_0, # of connection points: 2
#     Edge 22, Type (0, 0), BuildingBlock: CIFDUS_clean_linker_0, # of connection points: 2
#     Edge 23, Type (0, 0), BuildingBlock: CIFDUS_clean_linker_0, # of connection points: 2
#     Edge 24, Type (0, 0), BuildingBlock: CIFDUS_clean_linker_0, # of connection points: 2
#     Edge 25, Type (0, 0), BuildingBlock: CIFDUS_clean_linker_0, # of connection points: 2
#     Edge 26, Type (0, 0), BuildingBlock: CIFDUS_clean_linker_0, # of connection points: 2
#     Edge 27, Type (0, 0), BuildingBlock: CIFDUS_clean_linker_0, # of connection points: 2
#     Edge 28, Type (0, 0), BuildingBlock: CIFDUS_clean_linker_0, # of connection points: 2
#     Edge 29, Type (0, 0), BuildingBlock: CIFDUS_clean_linker_0, # of connection points: 2
#     Edge 30, Type (0, 0), BuildingBlock: CIFDUS_clean_linker_0, # of connection points: 2
#     Edge 31, Type (0, 0), BuildingBlock: CIFDUS_clean_linker_0, # of connection points: 2
#     Edge 32, Type (0, 0), BuildingBlock: CIFDUS_clean_linker_0, # of connection points: 2
#     Edge 33, Type (0, 0), BuildingBlock: CIFDUS_clean_linker_0, # of connection points: 2
#     Edge 34, Type (0, 0), BuildingBlock: CIFDUS_clean_linker_0, # of connection points: 2
#     Edge 35, Type (0, 0), BuildingBlock: CIFDUS_clean_linker_0, # of connection points: 2
#     Edge 36, Type (0, 0), BuildingBlock: CIFDUS_clean_linker_0, # of connection points: 2
#     Edge 37, Type (0, 0), BuildingBlock: CIFDUS_clean_linker_0, # of connection points: 2
#     Edge 38, Type (0, 0), BuildingBlock: CIFDUS_clean_linker_0, # of connection points: 2
#     Edge 39, Type (0, 0), BuildingBlock: CIFDUS_clean_linker_0, # of connection points: 2
#     Edge 40, Type (0, 0), BuildingBlock: CIFDUS_clean_linker_0, # of connection points: 2
#     Edge 41, Type (0, 0), BuildingBlock: CIFDUS_clean_linker_0, # of connection points: 2
#     Edge 42, Type (0, 0), BuildingBlock: CIFDUS_clean_linker_0, # of connection points: 2
#     Edge 43, Type (0, 0), BuildingBlock: CIFDUS_clean_linker_0, # of connection points: 2
#     Edge 44, Type (0, 0), BuildingBlock: CIFDUS_clean_linker_0, # of connection points: 2
#     Edge 45, Type (0, 0), BuildingBlock: CIFDUS_clean_linker_0, # of connection points: 2
#     Edge 46, Type (0, 0), BuildingBlock: CIFDUS_clean_linker_0, # of connection points: 2
#     Edge 47, Type (0, 0), BuildingBlock: CIFDUS_clean_linker_0, # of connection points: 2
# Relax obj value: 0.167
# Max RMSD: 0.109
# Mean RMSD: 0.107
data_MOF--net-ure--node1-KUFVIS_clean_sbu_0--edge1-CIFDUS_clean_linker_0
_symmetry_space_group_name_H-M    P1
_symmetry_Int_Tables_number       1
_symmetry_cell_setting            triclinic
loop_
_symmetry_equiv_pos_as_xyz
'x, y, z'
_cell_length_a     23.851795
_cell_length_b     28.567906
_cell_length_c     28.717072
_cell_angle_alpha  90.12544
_cell_angle_beta   89.673212
_cell_angle_gamma 90.235245
loop_
_atom_site_label
_atom_site_type_symbol
_atom_site_fract_x
_atom_site_fract_y
_atom_site_fract_z
_atom_type_partial_charge
Mn0 Mn 0.23755 0.29169 0.28153 0.0
Mn1 Mn 0.2851 0.33318 0.17946 0.0
C2 C 0.32925 0.27286 0.25719 0.0
C3 C 0.22677 0.301 0.36193 0.0
C4 C 0.19958 0.25378 0.18587 0.0
O5 O 0.18479 0.34752 0.2692 0.0
O6 O 0.2261 0.37484 0.2043 0.0
C7 C 0.34177 0.41314 0.22532 0.0
N8 N 0.34235 0.37789 0.19328 0.0
C9 C 0.43934 0.39233 0.17497 0.0
C10 C 0.44045 0.42803 0.2085 0.0
C11 C 0.39168 0.4379 0.23435 0.0
C12 C 0.39001 0.36615 0.17071 0.0
H13 H 0.30429 0.42072 0.2452 0.0
C14 C 0.18941 0.37781 0.23666 0.0
O15 O 0.19334 0.27407 0.33827 0.0
O16 O 0.26542 0.32307 0.33887 0.0
N17 N 0.3427 0.29845 0.14878 0.0
C18 C 0.33591 0.26012 0.12108 0.0
C19 C 0.3763 0.24977 0.08703 0.0
C20 C 0.42388 0.27835 0.08231 0.0
C21 C 0.43209 0.31573 0.11327 0.0
C22 C 0.38889 0.32574 0.14478 0.0
H23 H 0.2987 0.23883 0.12332 0.0
O24 O 0.30247 0.24623 0.28641 0.0
O25 O 0.29958 0.30721 0.24125 0.0
O26 O 0.19949 0.25158 0.23044 0.0
O27 O 0.22765 0.28477 0.16331 0.0
C28 C 0.47993 0.34494 0.11282 0.0
C29 C 0.48496 0.38144 0.14566 0.0
H30 H 0.47819 0.44827 0.21447 0.0
H31 H 0.39253 0.46492 0.26057 0.0
H32 H 0.37003 0.22055 0.06369 0.0
H33 H 0.45326 0.27126 0.05443 0.0
H34 H 0.51327 0.33976 0.08773 0.0
H35 H 0.52326 0.40177 0.14688 0.0
Mn36 Mn 0.02028 0.03948 0.53195 0.0
Mn37 Mn 0.97532 0.94191 0.58289 0.0
C38 C 0.92782 0.01437 0.51781 0.0
C39 C 0.03263 0.12009 0.53854 0.0
C40 C 0.06217 0.94272 0.50495 0.0
O41 O 0.07494 0.02936 0.58687 0.0
O42 O 0.02645 0.97418 0.62581 0.0
C43 C 0.90766 0.98649 0.65712 0.0
N44 N 0.9123 0.95504 0.62158 0.0
C45 C 0.81674 0.93028 0.63109 0.0
C46 C 0.81053 0.96287 0.66729 0.0
C47 C 0.85581 0.99161 0.67988 0.0
C48 C 0.86802 0.92932 0.60746 0.0
H49 H 0.94285 1.00815 0.66714 0.0
C50 C 0.06562 1.00456 0.6233 0.0
O51 O 0.06343 0.09561 0.51014 0.0
O52 O 0.99504 0.09808 0.56269 0.0
N53 N 0.92483 0.90643 0.54553 0.0
C54 C 0.93754 0.87845 0.5085 0.0
C55 C 0.8992 0.84427 0.49418 0.0
C56 C 0.84857 0.83855 0.5185 0.0
C57 C 0.83535 0.86879 0.55554 0.0
C58 C 0.87546 0.90206 0.56836 0.0
H59 H 0.97763 0.88046 0.49122 0.0
O60 O 0.95275 0.0427 0.48904 0.0
O61 O 0.95945 1.00065 0.55164 0.0
O62 O 0.0553 0.98548 0.49312 0.0
O63 O 0.03988 0.92529 0.54175 0.0
C64 C 0.78547 0.86578 0.5819 0.0
C65 C 0.77485 0.89807 0.61806 0.0
H66 H 0.77158 0.96608 0.68596 0.0
H67 H 0.85084 0.01675 0.70771 0.0
H68 H 0.90982 0.82122 0.46563 0.0
H69 H 0.82139 0.80988 0.509 0.0
H70 H 0.75539 0.83844 0.57524 0.0
H71 H 0.73528 0.8966 0.63664 0.0
Mn72 Mn 0.26024 0.73716 0.78206 0.0
Mn73 Mn 0.204 0.69075 0.68587 0.0
C74 C 0.1687 0.759 0.76084 0.0
C75 C 0.2741 0.73113 0.86275 0.0
C76 C 0.29434 0.76706 0.68296 0.0
O77 O 0.31029 0.67908 0.76984 0.0
O78 O 0.25955 0.64781 0.71222 0.0
C79 C 0.14219 0.61622 0.7362 0.0
N80 N 0.14375 0.6504 0.7032 0.0
C81 C 0.04828 0.63566 0.68162 0.0
C82 C 0.04568 0.5997 0.71469 0.0
C83 C 0.09253 0.59033 0.74265 0.0
C84 C 0.09784 0.66164 0.67854 0.0
H85 H 0.17863 0.60882 0.7571 0.0
C86 C 0.2996 0.64593 0.74118 0.0
O87 O 0.30723 0.75635 0.83677 0.0
O88 O 0.23439 0.70875 0.84166 0.0
N89 N 0.14903 0.72659 0.65397 0.0
C90 C 0.15891 0.76267 0.62404 0.0
C91 C 0.11995 0.77245 0.58914 0.0
C92 C 0.07101 0.74546 0.58546 0.0
C93 C 0.05998 0.71025 0.61814 0.0
C94 C 0.10152 0.70077 0.6509 0.0
H95 H 0.19785 0.78196 0.62465 0.0
O96 O 0.19883 0.78507 0.78805 0.0
O97 O 0.19403 0.72175 0.74588 0.0
O98 O 0.29636 0.77459 0.72698 0.0
O99 O 0.26496 0.73389 0.66532 0.0
C100 C 0.01109 0.68232 0.61795 0.0
C101 C 0.004 0.64667 0.65138 0.0
H102 H 0.0076 0.57976 0.71925 0.0
H103 H 0.09059 0.56293 0.76857 0.0
H104 H 0.12865 0.79954 0.56401 0.0
H105 H 0.04308 0.75166 0.5567 0.0
H106 H 0.97868 0.68778 0.5924 0.0
H107 H 0.96516 0.62694 0.65245 0.0
Mn108 Mn 0.50398 0.99283 0.02257 0.0
Mn109 Mn 0.5421 0.09701 0.06187 0.0
C110 C 0.59197 0.02061 0.99712 0.0
C111 C 0.49937 0.91224 0.03469 0.0
C112 C 0.44794 0.0816 0.99349 0.0
O113 O 0.4539 1.0047 0.0805 0.0
O114 O 0.50459 0.06234 0.11255 0.0
C115 C 0.62867 0.07124 0.13053 0.0
N116 N 0.61067 0.0988 0.09501 0.0
C117 C 0.6954 0.14421 0.09575 0.0
C118 C 0.71583 0.11571 0.13115 0.0
C119 C 0.68315 0.07805 0.14777 0.0
C120 C 0.64364 0.1326 0.07667 0.0
H121 H 0.60272 0.04314 0.14376 0.0
C122 C 0.46703 0.03049 0.11532 0.0
O123 O 0.46369 0.93311 1.00786 0.0
O124 O 0.53689 0.93799 0.05483 0.0
N125 N 0.57933 0.135 0.01646 0.0
C126 C 0.56007 0.1518 0.97516 0.0
C127 C 0.5887 0.18854 0.95299 0.0
C128 C 0.63621 0.20816 0.97396 0.0
C129 C 0.65581 0.18995 0.01596 0.0
C130 C 0.62605 0.15287 0.036 0.0
H131 H 0.52283 0.13806 0.95935 0.0
O132 O 0.56368 0.98947 0.97405 0.0
O133 O 0.56574 0.03648 0.03409 0.0
O134 O 0.4607 0.03992 0.98212 0.0
O135 O 0.47004 0.10206 0.02832 0.0
C136 C 0.70417 0.20669 0.03845 0.0
C137 C 0.72509 0.18273 0.07754 0.0
H138 H 0.75766 0.12145 0.14396 0.0
H139 H 0.69941 0.05511 0.17436 0.0
H140 H 0.57365 0.20221 0.92026 0.0
H141 H 0.65803 0.23647 0.95711 0.0
H142 H 0.72695 0.2365 0.02461 0.0
H143 H 0.76426 0.19383 0.093 0.0
Mn144 Mn 0.23952 0.73353 0.21857 0.0
Mn145 Mn 0.29254 0.69528 0.31908 0.0
C146 C 0.32717 0.76148 0.24403 0.0
C147 C 0.23321 0.72125 0.13829 0.0
C148 C 0.1974 0.76624 0.31503 0.0
O149 O 0.19137 0.67418 0.23239 0.0
O150 O 0.24239 0.64791 0.29193 0.0
C151 C 0.3657 0.63239 0.2642 0.0
N152 N 0.35808 0.66123 0.3015 0.0
C153 C 0.45555 0.65715 0.32154 0.0
C154 C 0.46417 0.62567 0.28471 0.0
C155 C 0.41936 0.61414 0.25515 0.0
C156 C 0.40206 0.67619 0.32681 0.0
H157 H 0.33097 0.62376 0.2417 0.0
C158 C 0.20294 0.6429 0.26264 0.0
O159 O 0.19587 0.74596 0.16036 0.0
O160 O 0.27258 0.70271 0.16272 0.0
N161 N 0.34239 0.7346 0.35338 0.0
C162 C 0.32839 0.76969 0.38345 0.0
C163 C 0.36635 0.78356 0.41798 0.0
C164 C 0.41832 0.76115 0.42138 0.0
C165 C 0.43296 0.72643 0.3891 0.0
C166 C 0.3925 0.71288 0.3567 0.0
H167 H 0.28795 0.78605 0.38212 0.0
O168 O 0.30029 0.78392 0.21209 0.0
O169 O 0.30099 0.72546 0.25981 0.0
O170 O 0.19803 0.77088 0.27041 0.0
O171 O 0.22666 0.73519 0.33642 0.0
C172 C 0.48568 0.70429 0.38791 0.0
C173 C 0.49774 0.67096 0.35292 0.0
H174 H 0.50497 0.61066 0.2785 0.0
H175 H 0.4261 0.59085 0.22598 0.0
H176 H 0.35495 0.81057 0.44273 0.0
H177 H 0.44598 0.77041 0.44945 0.0
H178 H 0.51766 0.71348 0.4128 0.0
H179 H 0.53931 0.65606 0.35068 0.0
Mn180 Mn 0.50154 0.04896 0.48132 0.0
Mn181 Mn 0.54234 0.94244 0.45041 0.0
C182 C 0.59063 0.02213 0.50507 0.0
C183 C 0.497 0.12867 0.46495 0.0
C184 C 0.44617 0.96003 0.51743 0.0
O185 O 0.45317 0.03301 0.42289 0.0
O186 O 0.50423 0.97195 0.39726 0.0
C187 C 0.62765 0.96081 0.37681 0.0
N188 N 0.61281 0.94141 0.41842 0.0
C189 C 0.70049 0.9008 0.42327 0.0
C190 C 0.71747 0.92167 0.38172 0.0
C191 C 0.68124 0.95217 0.35832 0.0
C192 C 0.64862 0.91369 0.44185 0.0
H193 H 0.59989 0.98436 0.35917 0.0
C194 C 0.46862 1.00468 0.39039 0.0
O195 O 0.46126 0.10892 0.493 0.0
O196 O 0.53468 0.10228 0.44582 0.0
N197 N 0.58072 0.91165 0.50003 0.0
C198 C 0.55999 0.89632 0.54166 0.0
C199 C 0.58984 0.86332 0.56741 0.0
C200 C 0.64018 0.84544 0.54964 0.0
C201 C 0.66158 0.86263 0.50758 0.0
C202 C 0.63093 0.8968 0.48423 0.0
H203 H 0.52044 0.90794 0.555 0.0
O204 O 0.5657 0.05525 0.52814 0.0
O205 O 0.5605 1.00488 0.47203 0.0
O206 O 0.45749 1.00324 0.52448 0.0
O207 O 0.46944 0.93718 0.48436 0.0
C208 C 0.71054 0.84524 0.48662 0.0
C209 C 0.73165 0.86582 0.44563 0.0
H210 H 0.75806 0.91358 0.36769 0.0
H211 H 0.69418 0.96825 0.32589 0.0
H212 H 0.57291 0.85069 0.60005 0.0
H213 H 0.66208 0.81846 0.56837 0.0
H214 H 0.73119 0.81528 0.50131 0.0
H215 H 0.7704 0.85304 0.43051 0.0
Mn216 Mn 0.25599 0.28662 0.7165 0.0
Mn217 Mn 0.20859 0.31308 0.82208 0.0
C218 C 0.16977 0.25493 0.74238 0.0
C219 C 0.26323 0.3037 0.63724 0.0
C220 C 0.3098 0.25265 0.80534 0.0
O221 O 0.29965 0.34732 0.73521 0.0
O222 O 0.24355 0.36974 0.79452 0.0
C223 C 0.11255 0.37335 0.79581 0.0
N224 N 0.1353 0.33918 0.82231 0.0
C225 C 0.05156 0.33239 0.8687 0.0
C226 C 0.02664 0.36709 0.84191 0.0
C227 C 0.05645 0.38574 0.80401 0.0
C228 C 0.10443 0.31682 0.85492 0.0
H229 H 0.13635 0.38919 0.76776 0.0
C230 C 0.28365 0.37764 0.76566 0.0
O231 O 0.30107 0.27925 0.65835 0.0
O232 O 0.22203 0.31949 0.66232 0.0
N233 N 0.17421 0.26105 0.85322 0.0
C234 C 0.19604 0.21894 0.86567 0.0
C235 C 0.17044 0.19302 0.90145 0.0
C236 C 0.12312 0.21106 0.92446 0.0
C237 C 0.09997 0.25324 0.90947 0.0
C238 C 0.12624 0.27648 0.87269 0.0
H239 H 0.23256 0.20512 0.84873 0.0
O240 O 0.19711 0.23496 0.70857 0.0
O241 O 0.19478 0.29087 0.75964 0.0
O242 O 0.3013 0.24583 0.76204 0.0
O243 O 0.28372 0.28429 0.82805 0.0
C244 C 0.05231 0.27373 0.92992 0.0
C245 C 0.02633 0.31212 0.90816 0.0
H246 H 0.98401 0.37816 0.84879 0.0
H247 H 0.0353 0.40819 0.78063 0.0
H248 H 0.18794 0.15979 0.91181 0.0
H249 H 0.10374 0.19183 0.95261 0.0
H250 H 0.03505 0.25951 0.96173 0.0
H251 H 0.98766 0.32615 0.92218 0.0
Mn252 Mn 0.01667 0.97088 0.98329 0.0
Mn253 Mn 0.96608 0.0689 0.93722 0.0
C254 C 0.92832 0.99822 1.00674 0.0
C255 C 0.02614 0.88975 0.97626 0.0
C256 C 0.06041 0.06839 1.00823 0.0
O257 O 0.06542 0.98105 0.92412 0.0
O258 O 0.01572 0.03861 0.89117 0.0
C259 C 0.89403 0.02012 0.86882 0.0
N260 N 0.90078 0.05333 0.90242 0.0
C261 C 0.80512 0.07793 0.89574 0.0
C262 C 0.79751 0.04527 0.85982 0.0
C263 C 0.8417 0.01545 0.84703 0.0
C264 C 0.85729 0.07933 0.91754 0.0
H265 H 0.92854 0.99789 0.85865 0.0
C266 C 0.05478 1.00827 0.88989 0.0
O267 O 0.06155 0.91441 1.00044 0.0
O268 O 0.98606 0.91218 0.95607 0.0
N269 N 0.91675 0.10311 0.97708 0.0
C270 C 0.93054 0.13082 0.01399 0.0
C271 C 0.89214 0.16415 0.03016 0.0
C272 C 0.8403 0.16885 1.00797 0.0
C273 C 0.82596 0.13876 0.9713 0.0
C274 C 0.86631 0.10682 0.95621 0.0
H275 H 0.97148 0.12926 0.02958 0.0
O276 O 0.95491 0.96859 0.03263 0.0
O277 O 0.95492 1.01051 0.96952 0.0
O278 O 0.05718 0.02477 0.01822 0.0
O279 O 0.03258 0.08718 0.97514 0.0
C280 C 0.77438 0.14051 0.94769 0.0
C281 C 0.76324 0.1091 0.9109 0.0
H282 H 0.75788 0.04243 0.8422 0.0
H283 H 0.83561 0.98973 0.81986 0.0
H284 H 0.90336 0.18747 0.0584 0.0
H285 H 0.81302 0.19687 0.01841 0.0
H286 H 0.74299 0.16574 0.95742 0.0
H287 H 0.72273 0.10975 0.89415 0.0
Mn288 Mn 0.74534 0.24405 0.73241 0.0
Mn289 Mn 0.78664 0.1971 0.83282 0.0
C290 C 0.83336 0.26588 0.7615 0.0
C291 C 0.73869 0.24026 0.65206 0.0
C292 C 0.69985 0.27512 0.82819 0.0
O293 O 0.69574 0.18537 0.7374 0.0
O294 O 0.73139 0.15494 0.80243 0.0
C295 C 0.848 0.12051 0.78583 0.0
N296 N 0.84519 0.15391 0.81969 0.0
C297 C 0.93868 0.13728 0.84499 0.0
C298 C 0.94247 0.10222 0.81085 0.0
C299 C 0.89743 0.09448 0.78053 0.0
C300 C 0.88969 0.1638 0.84671 0.0
H301 H 0.81321 0.11446 0.76265 0.0
C302 C 0.69943 0.15238 0.76702 0.0
O303 O 0.70282 0.26407 0.67659 0.0
O304 O 0.77822 0.21879 0.6741 0.0
N305 N 0.84087 0.2308 0.86814 0.0
C306 C 0.83219 0.2688 0.89589 0.0
C307 C 0.86961 0.27841 0.93209 0.0
C308 C 0.91587 0.24927 0.93912 0.0
C309 C 0.92623 0.21228 0.90816 0.0
C310 C 0.88616 0.20322 0.87405 0.0
H311 H 0.79574 0.29047 0.89183 0.0
O312 O 0.80557 0.29291 0.7337 0.0
O313 O 0.80675 0.22771 0.77346 0.0
O314 O 0.70177 0.2791 0.78393 0.0
O315 O 0.72726 0.24352 0.84981 0.0
C316 C 0.97335 0.1828 0.91072 0.0
C317 C 0.98128 0.14721 0.87731 0.0
H318 H 0.97968 0.08114 0.80735 0.0
H319 H 0.90074 0.06807 0.75372 0.0
H320 H 0.86193 0.30735 0.95536 0.0
H321 H 0.94262 0.25568 0.96868 0.0
H322 H 0.00379 0.18701 0.93803 0.0
H323 H 0.01952 0.12706 0.87772 0.0
Mn324 Mn 0.99484 0.53218 0.98427 0.0
Mn325 Mn 0.03432 0.42541 0.9524 0.0
C326 C 0.08306 0.50574 0.00967 0.0
C327 C 0.98938 0.61259 0.97027 0.0
C328 C 0.93364 0.44473 0.0133 0.0
O329 O 0.95046 0.51719 0.92349 0.0
O330 O 0.00424 0.45789 0.89687 0.0
C331 C 0.12826 0.43741 0.88531 0.0
N332 N 0.10725 0.41907 0.92545 0.0
C333 C 0.1872 0.36895 0.93356 0.0
C334 C 0.21134 0.38954 0.89429 0.0
C335 C 0.18239 0.42501 0.87066 0.0
C336 C 0.13632 0.38681 0.94965 0.0
H337 H 0.10501 0.46309 0.8661 0.0
C338 C 0.96884 0.49103 0.8902 0.0
O339 O 0.9519 0.59088 0.99507 0.0
O340 O 0.02958 0.58759 0.95268 0.0
N341 N 0.065 0.39186 1.00443 0.0
C342 C 0.04191 0.38148 0.04673 0.0
C343 C 0.06685 0.34769 0.07526 0.0
C344 C 0.11489 0.32412 0.05978 0.0
C345 C 0.13886 0.33615 0.01683 0.0
C346 C 0.11331 0.37153 0.99082 0.0
H347 H 0.00496 0.39856 0.059 0.0
O348 O 0.05608 0.53749 0.03322 0.0
O349 O 0.05419 0.48792 0.97586 0.0
O350 O 0.94846 0.48599 0.02483 0.0
O351 O 0.95748 0.42323 0.97979 0.0
C352 C 0.187 0.31428 0.9986 0.0
C353 C 0.21119 0.3308 0.95685 0.0
H354 H 0.25159 0.37744 0.88203 0.0
H355 H 0.20024 0.44127 0.84003 0.0
H356 H 0.04845 0.33927 0.10877 0.0
H357 H 0.13345 0.29746 0.08143 0.0
H358 H 0.20659 0.28568 0.01701 0.0
H359 H 0.24867 0.3143 0.94318 0.0
Mn360 Mn 0.74717 0.7736 0.23312 0.0
Mn361 Mn 0.70341 0.81958 0.33281 0.0
C362 C 0.66141 0.74407 0.26222 0.0
C363 C 0.75432 0.7797 0.15246 0.0
C364 C 0.80304 0.75557 0.32437 0.0
O365 O 0.79127 0.83576 0.2402 0.0
O366 O 0.73669 0.8701 0.29382 0.0
C367 C 0.60611 0.87254 0.29823 0.0
N368 N 0.63185 0.84802 0.33232 0.0
C369 C 0.55167 0.85354 0.38295 0.0
C370 C 0.52517 0.88115 0.34951 0.0
C371 C 0.55082 0.88736 0.30577 0.0
C372 C 0.6043 0.83555 0.37161 0.0
H373 H 0.62681 0.8784 0.26514 0.0
C374 C 0.77599 0.87177 0.26346 0.0
O375 O 0.79225 0.7582 0.1765 0.0
O376 O 0.71239 0.79757 0.1751 0.0
N377 N 0.67065 0.77665 0.37632 0.0
C378 C 0.69242 0.73735 0.39589 0.0
C379 C 0.66837 0.71932 0.43687 0.0
C380 C 0.62232 0.74197 0.45737 0.0
C381 C 0.5994 0.78129 0.4358 0.0
C382 C 0.62562 0.798 0.3955 0.0
H383 H 0.72815 0.7201 0.38096 0.0
O384 O 0.69286 0.72038 0.2337 0.0
O385 O 0.68367 0.78403 0.27526 0.0
O386 O 0.79286 0.74066 0.28359 0.0
O387 O 0.77841 0.7913 0.3412 0.0
C388 C 0.5508 0.80401 0.45205 0.0
C389 C 0.52582 0.83922 0.42478 0.0
H390 H 0.48256 0.89299 0.35496 0.0
H391 H 0.52698 0.90184 0.27776 0.0
H392 H 0.68574 0.68841 0.45295 0.0
H393 H 0.60413 0.72843 0.48907 0.0
H394 H 0.53072 0.79289 0.48412 0.0
H395 H 0.48586 0.85373 0.43537 0.0
Mn396 Mn 0.00519 0.47835 0.52096 0.0
Mn397 Mn 0.03986 0.58366 0.56232 0.0
C398 C 0.09344 0.50999 0.50152 0.0
C399 C 1.00133 0.39694 0.52573 0.0
C400 C 0.9485 0.56825 0.49196 0.0
O401 O 0.95483 0.487 0.57977 0.0
O402 O 0.99939 0.549 0.61131 0.0
C403 C 0.12289 0.55582 0.63337 0.0
N404 N 0.10836 0.58244 0.59614 0.0
C405 C 0.19802 0.62075 0.5956 0.0
C406 C 0.21514 0.59169 0.63182 0.0
C407 C 0.17768 0.55873 0.65072 0.0
C408 C 0.14516 0.61263 0.57668 0.0
H409 H 0.09378 0.53115 0.64816 0.0
C410 C 0.96521 0.51452 0.61425 0.0
O411 O 0.96575 0.42055 0.50136 0.0
O412 O 0.03809 0.42072 0.54931 0.0
N413 N 0.08001 0.6207 0.5176 0.0
C414 C 0.06095 0.6408 0.47769 0.0
C415 C 0.09168 0.67708 0.45671 0.0
C416 C 0.14138 0.69284 0.4773 0.0
C417 C 0.16112 0.67075 0.51739 0.0
C418 C 0.12904 0.63447 0.53641 0.0
H419 H 0.02212 0.63024 0.46224 0.0
O420 O 0.07005 0.47905 0.47462 0.0
O421 O 0.062 0.52324 0.5359 0.0
O422 O 0.96163 0.52619 0.48252 0.0
O423 O 0.96934 0.5901 0.5266 0.0
C424 C 0.21062 0.68423 0.54006 0.0
C425 C 0.23092 0.65755 0.57758 0.0
H426 H 0.25713 0.59399 0.6447 0.0
H427 H 0.19072 0.53624 0.6789 0.0
H428 H 0.07637 0.69362 0.4254 0.0
H429 H 0.16426 0.72164 0.46191 0.0
H430 H 0.23293 0.71504 0.52857 0.0
H431 H 0.27085 0.6664 0.59311 0.0
Mn432 Mn 0.51144 0.55354 0.02898 0.0
Mn433 Mn 0.46175 0.45985 0.08429 0.0
C434 C 0.41921 0.52841 0.01477 0.0
C435 C 0.52255 0.63464 0.02682 0.0
C436 C 0.55185 0.45422 0.00914 0.0
O437 O 0.56379 0.54655 0.08651 0.0
O438 O 0.51354 0.49268 0.12625 0.0
C439 C 0.39376 0.51165 0.15368 0.0
N440 N 0.39795 0.47777 0.12037 0.0
C441 C 0.29985 0.45961 0.12656 0.0
C442 C 0.2946 0.49325 0.16198 0.0
C443 C 0.34157 0.51994 0.17507 0.0
C444 C 0.35243 0.45391 0.1057 0.0
H445 H 0.43004 0.53195 0.16371 0.0
C446 C 0.55354 0.52239 0.12341 0.0
O447 O 0.55498 0.60735 1.00255 0.0
O448 O 0.48576 0.61489 0.05368 0.0
N449 N 0.41065 0.42434 0.04749 0.0
C450 C 0.42282 0.39379 0.01235 0.0
C451 C 0.38179 0.36209 0.99735 0.0
C452 C 0.32878 0.36227 0.01854 0.0
C453 C 0.3164 0.39514 0.05325 0.0
C454 C 0.35959 0.42463 0.06799 0.0
H455 H 0.46424 0.39184 0.99735 0.0
O456 O 0.44522 0.55409 0.98431 0.0
O457 O 0.44965 0.51702 0.04998 0.0
O458 O 0.54702 0.49656 0.99529 0.0
O459 O 0.52681 0.43872 0.0456 0.0
C460 C 0.26352 0.39894 0.0748 0.0
C461 C 0.25488 0.4323 0.11023 0.0
H462 H 0.25476 0.4993 0.17897 0.0
H463 H 0.33762 0.54625 0.20197 0.0
H464 H 0.39157 0.3365 0.97069 0.0
H465 H 0.29891 0.33576 0.00921 0.0
H466 H 0.22898 0.37709 0.06398 0.0
H467 H 0.21352 0.43673 0.12441 0.0
Mn468 Mn 0.74257 0.78702 0.79545 0.0
Mn469 Mn 0.79698 0.83635 0.69981 0.0
C470 C 0.83153 0.76335 0.76965 0.0
C471 C 0.72925 0.78928 0.87602 0.0
C472 C 0.70352 0.76351 0.69689 0.0
O473 O 0.69527 0.84715 0.78713 0.0
O474 O 0.7448 0.881 0.72966 0.0
C475 C 0.86503 0.9063 0.75089 0.0
N476 N 0.86039 0.87321 0.7169 0.0
C477 C 0.95646 0.88367 0.69378 0.0
C478 C 0.96205 0.91895 0.72751 0.0
C479 C 0.91658 0.92949 0.75699 0.0
C480 C 0.90506 0.86024 0.69106 0.0
H481 H 0.82956 0.91488 0.77282 0.0
C482 C 0.70585 0.88186 0.76026 0.0
O483 O 0.69465 0.76688 0.84911 0.0
O484 O 0.77059 0.81105 0.85606 0.0
N485 N 0.84867 0.79884 0.66544 0.0
C486 C 0.83657 0.76274 0.63601 0.0
C487 C 0.87562 0.74984 0.60176 0.0
C488 C 0.9265 0.77429 0.59802 0.0
C489 C 0.93934 0.8098 0.62997 0.0
C490 C 0.89818 0.82189 0.66255 0.0
H491 H 0.79628 0.7455 0.63687 0.0
O492 O 0.80187 0.73682 0.797 0.0
O493 O 0.80738 0.80221 0.75796 0.0
O494 O 0.70383 0.7537 0.74027 0.0
O495 O 0.73254 0.7969 0.6792 0.0
C496 C 0.99004 0.83534 0.62939 0.0
C497 C 0.9995 0.87088 0.66258 0.0
H498 H 1.00106 0.93787 0.73134 0.0
H499 H 0.92098 0.95622 0.78339 0.0
H500 H 0.86563 0.72237 0.5771 0.0
H501 H 0.95443 0.76619 0.56957 0.0
H502 H 0.02199 0.82821 0.60362 0.0
H503 H 0.03954 0.88874 0.66307 0.0
Mn504 Mn 0.75631 0.2356 0.29747 0.0
Mn505 Mn 0.70561 0.19202 0.19834 0.0
C506 C 0.66488 0.25486 0.27399 0.0
C507 C 0.76905 0.22984 0.37708 0.0
C508 C 0.79407 0.2691 0.20036 0.0
O509 O 0.80602 0.17706 0.28627 0.0
O510 O 0.76059 0.14823 0.2245 0.0
C511 C 0.64504 0.11347 0.24346 0.0
N512 N 0.64549 0.15072 0.21382 0.0
C513 C 0.54883 0.13885 0.19447 0.0
C514 C 0.54714 0.10076 0.2249 0.0
C515 C 0.59526 0.08788 0.24964 0.0
C516 C 0.59877 0.16424 0.19144 0.0
H517 H 0.6822 0.10373 0.26239 0.0
C518 C 0.79688 0.14438 0.25656 0.0
O519 O 0.80271 0.25489 0.35155 0.0
O520 O 0.72895 0.20744 0.35633 0.0
N521 N 0.65043 0.22952 0.16863 0.0
C522 C 0.65894 0.26828 0.14191 0.0
C523 C 0.61793 0.28166 0.10998 0.0
C524 C 0.56839 0.25543 0.10641 0.0
C525 C 0.55859 0.21786 0.13654 0.0
C526 C 0.60204 0.20493 0.16613 0.0
H527 H 0.69788 0.28742 0.14298 0.0
O528 O 0.69193 0.28238 0.30211 0.0
O529 O 0.69382 0.21973 0.25923 0.0
O530 O 0.79418 0.27337 0.24468 0.0
O531 O 0.7662 0.23687 0.17966 0.0
C532 C 0.50874 0.1912 0.1368 0.0
C533 C 0.50295 0.15294 0.16736 0.0
H534 H 0.50866 0.08212 0.23022 0.0
H535 H 0.5939 0.05851 0.27337 0.0
H536 H 0.6254 0.31097 0.08694 0.0
H537 H 0.5392 0.26357 0.07934 0.0
H538 H 0.47456 0.19972 0.11394 0.0
H539 H 0.46372 0.13374 0.16863 0.0
Mn540 Mn 0.52164 0.48696 0.48043 0.0
Mn541 Mn 0.48052 0.58969 0.43714 0.0
C542 C 0.43065 0.51379 0.49633 0.0
C543 C 0.5293 0.40579 0.47618 0.0
C544 C 0.56631 0.58183 0.51468 0.0
O545 O 0.5747 0.49724 0.42394 0.0
O546 O 0.53408 0.56103 0.39285 0.0
C547 C 0.4163 0.5517 0.35745 0.0
N548 N 0.41946 0.58004 0.39556 0.0
C549 C 0.32346 0.60373 0.38717 0.0
C550 C 0.31853 0.57365 0.34877 0.0
C551 C 0.36497 0.54734 0.33406 0.0
C552 C 0.37437 0.60408 0.41096 0.0
H553 H 0.45209 0.5316 0.34599 0.0
C554 C 0.56874 0.52702 0.39083 0.0
O555 O 0.56248 0.43067 0.50202 0.0
O556 O 0.4933 0.42813 0.45096 0.0
N557 N 0.42782 0.62117 0.47608 0.0
C558 C 0.43715 0.64331 0.51734 0.0
C559 C 0.39837 0.67607 0.53377 0.0
C560 C 0.34976 0.68481 0.50813 0.0
C561 C 0.33856 0.65854 0.46795 0.0
C562 C 0.37991 0.62776 0.45237 0.0
H563 H 0.47446 0.63702 0.53704 0.0
O564 O 0.45476 0.48483 0.52457 0.0
O565 O 0.46256 0.52809 0.46257 0.0
O566 O 0.56086 0.53771 0.51994 0.0
O567 O 0.5422 0.60391 0.48173 0.0
C568 C 0.28907 0.66262 0.44183 0.0
C569 C 0.28041 0.63363 0.40274 0.0
H570 H 0.27971 0.5707 0.32993 0.0
H571 H 0.36125 0.52469 0.30416 0.0
H572 H 0.40673 0.69531 0.56548 0.0
H573 H 0.3221 0.71219 0.51948 0.0
H574 H 0.25729 0.68759 0.4515 0.0
H575 H 0.24118 0.63578 0.38434 0.0
H576 H 0.20971 0.23048 0.093 0.0
H577 H 0.11794 0.19338 0.2176 0.0
H578 H 0.06927 0.1313 0.17501 0.0
H579 H 0.05148 0.08749 0.10149 0.0
H580 H 0.14818 0.12114 0.97921 0.0
H581 H 0.197 0.18367 0.02168 0.0
C582 C 0.1795 0.20873 0.1112 0.0
C583 C 0.16802 0.21703 0.15889 0.0
C584 C 0.15268 0.17198 0.08675 0.0
C585 C 0.12799 0.18822 0.18113 0.0
C586 C 0.10013 0.15243 0.15675 0.0
C587 C 0.08406 0.10796 0.08454 0.0
C588 C 0.096 0.10009 0.03699 0.0
C589 C 0.11223 0.14376 0.10956 0.0
C590 C 0.13786 0.12716 0.01546 0.0
C591 C 0.1657 0.16285 0.03982 0.0
H592 H 0.06209 0.9351 0.40908 0.0
H593 H 0.13421 0.87548 0.53251 0.0
H594 H 0.17905 0.8143 0.48571 0.0
H595 H 0.19683 0.77694 0.41009 0.0
H596 H 0.12634 0.83618 0.2856 0.0
H597 H 0.08139 0.89742 0.33216 0.0
C598 C 0.08837 0.90915 0.42556 0.0
C599 C 0.0949 0.91004 0.47445 0.0
C600 C 0.1136 0.87339 0.39824 0.0
C601 C 0.12824 0.87546 0.49516 0.0
C602 C 0.15379 0.84039 0.46837 0.0
C603 C 0.17132 0.80285 0.39293 0.0
C604 C 0.16522 0.80122 0.34401 0.0
C605 C 0.14629 0.83863 0.41994 0.0
C606 C 0.13201 0.8359 0.32298 0.0
C607 C 0.10641 0.87132 0.34968 0.0
H608 H 0.41166 0.86857 0.51123 0.0
H609 H 0.40425 0.98792 0.60331 0.0
H610 H 0.35984 0.93927 0.66348 0.0
H611 H 0.32471 0.86124 0.69124 0.0
H612 H 0.33169 0.74384 0.59698 0.0
H613 H 0.37524 0.79277 0.53738 0.0
C614 C 0.39983 0.88442 0.54418 0.0
C615 C 0.41138 0.93244 0.55208 0.0
C616 C 0.37491 0.85603 0.57897 0.0
C617 C 0.39564 0.9515 0.59554 0.0
C618 C 0.3706 0.92341 0.63032 0.0
C619 C 0.33639 0.84626 0.65788 0.0
C620 C 0.32544 0.79823 0.64917 0.0
C621 C 0.36059 0.87534 0.62278 0.0
C622 C 0.33991 0.78019 0.60506 0.0
C623 C 0.36461 0.80835 0.57071 0.0
H624 H 0.44202 0.08315 0.89765 0.0
H625 H 0.3756 0.1484 0.02158 0.0
H626 H 0.33249 0.20949 0.97473 0.0
H627 H 0.31667 0.24616 0.89966 0.0
H628 H 0.37689 0.18016 0.77373 0.0
H629 H 0.42091 0.11858 0.82025 0.0
C630 C 0.41682 0.11004 0.91418 0.0
C631 C 0.41186 0.11106 0.96323 0.0
C632 C 0.39254 0.14575 0.88679 0.0
C633 C 0.38008 0.14683 0.98406 0.0
C634 C 0.35581 0.182 0.95729 0.0
C635 C 0.33984 0.21869 0.88203 0.0
C636 C 0.34362 0.21839 0.8329 0.0
C637 C 0.36275 0.18237 0.90878 0.0
C638 C 0.37348 0.1818 0.81131 0.0
C639 C 0.39819 0.14621 0.83796 0.0
H640 H 0.70423 0.29395 0.92221 0.0
H641 H 0.62389 0.33959 0.79623 0.0
H642 H 0.57484 0.40067 0.83984 0.0
H643 H 0.55304 0.44104 0.9145 0.0
H644 H 0.62528 0.38929 0.04144 0.0
H645 H 0.67775 0.33025 0.99732 0.0
C646 C 0.67465 0.31608 0.90438 0.0
C647 C 0.66712 0.31078 0.85584 0.0
C648 C 0.64522 0.35058 0.93005 0.0
C649 C 0.63051 0.34201 0.83344 0.0
C650 C 0.60234 0.3772 0.85845 0.0
C651 C 0.58078 0.41716 0.93237 0.0
C652 C 0.58602 0.4203 0.98124 0.0
C653 C 0.60933 0.38195 0.90681 0.0
C654 C 0.62092 0.38807 1.00392 0.0
C655 C 0.65085 0.35418 0.97865 0.0
H656 H 0.92808 0.44001 0.10891 0.0
H657 H 0.85325 0.38385 0.98461 0.0
H658 H 0.8052 0.32343 0.03057 0.0
H659 H 0.78992 0.28291 0.1053 0.0
H660 H 0.86495 0.339 0.23011 0.0
H661 H 0.90849 0.40169 0.18477 0.0
C662 C 0.90011 0.4153 0.09206 0.0
C663 C 0.89445 0.41647 0.04313 0.0
C664 C 0.87397 0.37953 0.11872 0.0
C665 C 0.85874 0.3835 0.02201 0.0
C666 C 0.83159 0.34872 0.04829 0.0
C667 C 0.81575 0.30873 0.12282 0.0
C668 C 0.82393 0.30557 0.17149 0.0
C669 C 0.8401 0.34552 0.09654 0.0
C670 C 0.85775 0.33991 0.19293 0.0
C671 C 0.88253 0.37618 0.16696 0.0
H672 H 0.92136 0.66092 0.49569 0.0
H673 H 0.90118 0.53762 0.41008 0.0
H674 H 0.85879 0.58504 0.34898 0.0
H675 H 0.82896 0.66219 0.31898 0.0
H676 H 0.85094 0.78477 0.40515 0.0
H677 H 0.8923 0.7369 0.46618 0.0
C678 C 0.90719 0.64409 0.46394 0.0
C679 C 0.91466 0.59549 0.45782 0.0
C680 C 0.88439 0.67174 0.42833 0.0
C681 C 0.89598 0.57479 0.41612 0.0
C682 C 0.87219 0.60202 0.38084 0.0
C683 C 0.84407 0.67864 0.35061 0.0
C684 C 0.8376 0.72732 0.35695 0.0
C685 C 0.867 0.6507 0.38621 0.0
C686 C 0.85609 0.74763 0.39888 0.0
C687 C 0.87927 0.72024 0.43406 0.0
H688 H 0.55813 0.67527 0.53541 0.0
H689 H 0.64577 0.55037 0.57622 0.0
H690 H 0.69393 0.59441 0.63751 0.0
H691 H 0.71183 0.66935 0.67972 0.0
H692 H 0.62015 0.79229 0.64103 0.0
H693 H 0.57231 0.74835 0.57919 0.0
C694 C 0.58794 0.65753 0.55738 0.0
C695 C 0.59834 0.60935 0.5505 0.0
C696 C 0.61444 0.68289 0.59341 0.0
C697 C 0.63682 0.5873 0.58023 0.0
C698 C 0.66432 0.61251 0.61553 0.0
C699 C 0.68071 0.68617 0.65813 0.0
C700 C 0.66965 0.73428 0.66446 0.0
C701 C 0.65331 0.66034 0.62268 0.0
C702 C 0.62969 0.75565 0.63608 0.0
C703 C 0.60243 0.73044 0.60087 0.0
H704 H 0.31197 0.31691 0.42166 0.0
H705 H 0.13351 0.29277 0.41682 0.0
H706 H 0.12848 0.29665 0.50183 0.0
H707 H 0.17543 0.30267 0.57795 0.0
H708 H 0.35529 0.31729 0.58259 0.0
H709 H 0.35927 0.32179 0.49746 0.0
C710 C 0.2719 0.3129 0.43931 0.0
C711 C 0.22311 0.30479 0.41315 0.0
C712 C 0.26964 0.31343 0.48822 0.0
C713 C 0.17161 0.29891 0.43631 0.0
C714 C 0.16869 0.30121 0.48491 0.0
C715 C 0.21533 0.30747 0.56022 0.0
C716 C 0.26499 0.31012 0.58628 0.0
C717 C 0.21747 0.3079 0.51127 0.0
C718 C 0.31659 0.31531 0.56308 0.0
C719 C 0.31885 0.3178 0.51449 0.0
H720 H 0.07606 0.0758 0.82578 0.0
H721 H 0.09819 0.92823 0.85035 0.0
H722 H 0.12027 0.91698 0.7675 0.0
H723 H 0.10883 0.9447 0.68693 0.0
H724 H 0.07607 0.09067 0.66226 0.0
H725 H 0.0797 0.10579 0.74577 0.0
C726 C 0.08599 0.04102 0.81313 0.0
C727 C 0.08365 1.00269 0.84409 0.0
C728 C 0.09507 0.03408 0.76514 0.0
C729 C 0.09911 0.95832 0.82746 0.0
C730 C 0.11087 0.95164 0.77997 0.0
C731 C 0.1051 0.98026 0.69979 0.0
C732 C 0.09209 0.01649 0.66836 0.0
C733 C 0.10563 0.98865 0.74819 0.0
C734 C 0.08713 0.06233 0.68544 0.0
C735 C 0.08861 0.07098 0.73342 0.0
H736 H 0.20704 0.68365 0.92336 0.0
H737 H 0.35017 0.77654 0.91825 0.0
H738 H 0.35101 0.78038 1.0034 0.0
H739 H 0.3076 0.76062 0.07937 0.0
H740 H 0.16284 0.67013 0.08395 0.0
H741 H 0.16748 0.66035 0.9991 0.0
C742 C 0.23876 0.70449 0.94078 0.0
C743 C 0.27825 0.73011 0.91433 0.0
C744 C 0.23843 0.70707 0.98968 0.0
C745 C 0.31912 0.75671 0.93766 0.0
C746 C 0.31949 0.75904 0.98637 0.0
C747 C 0.2767 0.73932 0.06146 0.0
C748 C 0.23412 0.71694 0.08725 0.0
C749 C 0.27864 0.73514 0.01267 0.0
C750 C 0.19495 0.68856 0.06435 0.0
C751 C 0.19767 0.68301 0.01598 0.0
H752 H 0.5253 0.97644 0.31544 0.0
H753 H 0.37611 0.05203 0.35189 0.0
H754 H 0.35551 0.06175 0.26807 0.0
H755 H 0.3869 0.05296 0.18346 0.0
H756 H 0.53484 0.97131 0.15434 0.0
H757 H 0.55125 0.96227 0.23613 0.0
C758 C 0.48671 0.99298 0.30582 0.0
C759 C 0.45155 0.01161 0.34058 0.0
C760 C 0.47483 0.99686 0.25849 0.0
C761 C 0.40382 0.03648 0.32624 0.0
C762 C 0.39185 0.04166 0.27822 0.0
C763 C 0.41998 0.03007 0.19532 0.0
C764 C 0.45898 0.01165 0.16267 0.0
C765 C 0.42726 0.02188 0.24379 0.0
C766 C 0.50336 0.98426 0.1785 0.0
C767 C 0.51248 0.97857 0.22564 0.0
H768 H 0.40703 0.20197 0.26581 0.0
H769 H 0.39105 0.35044 0.27138 0.0
H770 H 0.49263 0.36091 0.26886 0.0
H771 H 0.58791 0.32591 0.26367 0.0
H772 H 0.60118 0.18015 0.29719 0.0
H773 H 0.49989 0.16972 0.2888 0.0
C774 C 0.42593 0.23655 0.26513 0.0
C775 C 0.39168 0.27618 0.25997 0.0
C776 C 0.48453 0.24192 0.27098 0.0
C777 C 0.41676 0.3203 0.26572 0.0
C778 C 0.47494 0.32599 0.26668 0.0
C779 C 0.56863 0.29178 0.26835 0.0
C780 C 0.60255 0.25238 0.27502 0.0
C781 C 0.50963 0.28684 0.26781 0.0
C782 C 0.57639 0.2096 0.28616 0.0
C783 C 0.51833 0.20382 0.28228 0.0
H784 H 0.04858 0.33522 0.58674 0.0
H785 H 0.95747 0.34292 0.45753 0.0
H786 H 0.96341 0.25839 0.44834 0.0
H787 H 0.99291 0.18174 0.47715 0.0
H788 H 0.07826 0.17179 0.60835 0.0
H789 H 0.07638 0.25741 0.61686 0.0
C790 C 0.02975 0.31824 0.55681 0.0
C791 C 1.00262 0.3453 0.52289 0.0
C792 C 0.03242 0.2692 0.55206 0.0
C793 C 0.97828 0.32289 0.4843 0.0
C794 C 0.98183 0.27452 0.47885 0.0
C795 C 0.01179 0.1986 0.50715 0.0
C796 C 0.03686 0.17123 0.54153 0.0
C797 C 0.00882 0.24736 0.51238 0.0
C798 C 0.05974 0.19276 0.58111 0.0
C799 C 0.05824 0.24151 0.58609 0.0
H800 H 0.91708 0.82597 0.77934 0.0
H801 H 0.88412 0.67967 0.75824 0.0
H802 H 0.98471 0.66417 0.7595 0.0
H803 H 0.08332 0.69357 0.76392 0.0
H804 H 0.11497 0.84083 0.76648 0.0
H805 H 0.01499 0.85538 0.77724 0.0
C806 C 0.93181 0.79137 0.77066 0.0
C807 C 0.8928 0.75481 0.76439 0.0
C808 C 0.98993 0.78318 0.76733 0.0
C809 C 0.91306 0.70891 0.76039 0.0
C810 C 0.97083 0.70003 0.76062 0.0
C811 C 0.06819 0.72885 0.76112 0.0
C812 C 0.1068 0.76632 0.75924 0.0
C813 C 0.00981 0.73704 0.7624 0.0
C814 C 0.08608 0.81181 0.76468 0.0
C815 C 0.02872 0.82008 0.77033 0.0
H816 H 0.51204 0.7003 0.09405 0.0
H817 H 0.53113 0.68296 0.94584 0.0
H818 H 0.51913 0.76732 0.93456 0.0
H819 H 0.50442 0.84637 0.96729 0.0
H820 H 0.49734 0.86469 0.11612 0.0
H821 H 0.50332 0.77978 0.12719 0.0
C822 C 0.51419 0.71527 0.05946 0.0
C823 C 0.52269 0.68584 0.02087 0.0
C824 C 0.5089 0.76384 0.05348 0.0
C825 C 0.5254 0.70524 0.97606 0.0
C826 C 0.51793 0.75332 0.96959 0.0
C827 C 0.50351 0.83149 1.00201 0.0
C828 C 0.49935 0.86117 0.04086 0.0
C829 C 0.5096 0.78296 1.00805 0.0
C830 C 0.49989 0.84209 0.08582 0.0
C831 C 0.50354 0.7937 0.09211 0.0
H832 H 0.5735 0.77509 0.31678 0.0
H833 H 0.60651 0.69437 0.19416 0.0
H834 H 0.50663 0.69233 0.17709 0.0
H835 H 0.40921 0.71883 0.19434 0.0
H836 H 0.38126 0.81456 0.30797 0.0
H837 H 0.478 0.80469 0.33186 0.0
C838 C 0.55987 0.75995 0.28516 0.0
C839 C 0.59909 0.73763 0.25643 0.0
C840 C 0.50284 0.76264 0.27303 0.0
C841 C 0.57831 0.71272 0.21749 0.0
C842 C 0.52097 0.71221 0.2069 0.0
C843 C 0.42536 0.73968 0.22292 0.0
C844 C 0.38816 0.76675 0.2501 0.0
C845 C 0.483 0.7384 0.23364 0.0
C846 C 0.40915 0.79354 0.28675 0.0
C847 C 0.46518 0.78925 0.29963 0.0
H848 H 0.52083 0.1924 0.53025 0.0
H849 H 0.47927 0.17794 0.38526 0.0
H850 H 0.48477 0.26336 0.37536 0.0
H851 H 0.50168 0.34228 0.40884 0.0
H852 H 0.55337 0.35427 0.55212 0.0
H853 H 0.5439 0.26983 0.56201 0.0
C854 C 0.51258 0.20821 0.49666 0.0
C855 C 0.49857 0.17964 0.45874 0.0
C856 C 0.51805 0.25675 0.49098 0.0
C857 C 0.48946 0.19979 0.41494 0.0
C858 C 0.49279 0.24842 0.40931 0.0
C859 C 0.5112 0.32619 0.44203 0.0
C860 C 0.52811 0.35431 0.47974 0.0
C861 C 0.50718 0.27729 0.44714 0.0
C862 C 0.54073 0.33322 0.52252 0.0
C863 C 0.53494 0.28501 0.52831 0.0
H864 H 0.08849 0.31808 0.72543 0.0
H865 H 0.11352 0.17613 0.76853 0.0
H866 H 0.01151 0.16499 0.77407 0.0
H867 H 0.9147 0.19745 0.76631 0.0
H868 H 0.89354 0.34511 0.74612 0.0
H869 H 0.99332 0.35264 0.72929 0.0
C870 C 0.07167 0.28553 0.73886 0.0
C871 C 0.10841 0.24831 0.74831 0.0
C872 C 0.01347 0.28092 0.74644 0.0
C873 C 0.08584 0.20509 0.76138 0.0
C874 C 0.02756 0.19915 0.76544 0.0
C875 C 0.93215 0.23199 0.76402 0.0
C876 C 0.89602 0.27096 0.76185 0.0
C877 C 0.99089 0.23713 0.7592 0.0
C878 C 0.91987 0.31461 0.75028 0.0
C879 C 0.9773 0.3191 0.74085 0.0
H880 H 0.94071 0.82902 0.9621 0.0
H881 H 0.11963 0.83515 0.98209 0.0
H882 H 0.12475 0.74978 0.97627 0.0
H883 H 0.07731 0.67278 0.96987 0.0
H884 H 0.8974 0.66706 0.95931 0.0
H885 H 0.89354 0.75252 0.95605 0.0
C886 C 0.98085 0.8116 0.96509 0.0
C887 C 0.02975 0.83823 0.97257 0.0
C888 C 0.98315 0.76249 0.96347 0.0
C889 C 0.0814 0.8153 0.97672 0.0
C890 C 0.08433 0.76649 0.97334 0.0
C891 C 0.03747 0.69045 0.96665 0.0
C892 C 0.98777 0.66391 0.96477 0.0
C893 C 0.03541 0.73967 0.96735 0.0
C894 C 0.93615 0.68692 0.96097 0.0
C895 C 0.93393 0.73575 0.95933 0.0
H896 H 0.17158 0.43491 0.31176 0.0
H897 H 0.13638 0.42239 0.16567 0.0
H898 H 0.13145 0.50787 0.15856 0.0
H899 H 0.16069 0.58565 0.19204 0.0
H900 H 0.17524 0.59662 0.34123 0.0
H901 H 0.16356 0.51259 0.34917 0.0
C902 C 0.16011 0.45064 0.27883 0.0
C903 C 0.15826 0.42278 0.23853 0.0
C904 C 0.15525 0.49975 0.27539 0.0
C905 C 0.14179 0.44375 0.19651 0.0
C906 C 0.13861 0.4926 0.1925 0.0
C907 C 0.15881 0.57003 0.22639 0.0
C908 C 0.17236 0.59724 0.26579 0.0
C909 C 0.14934 0.52119 0.23123 0.0
C910 C 0.168 0.57624 0.31006 0.0
C911 C 0.16109 0.528 0.31482 0.0
H912 H 0.66377 0.08581 0.82809 0.0
H913 H 0.68421 0.11203 0.68129 0.0
H914 H 0.6751 0.02816 0.66514 0.0
H915 H 0.6787 0.9466 0.6945 0.0
H916 H 0.67059 0.92177 0.84239 0.0
H917 H 0.65316 1.00564 0.85521 0.0
C918 C 0.66463 0.07333 0.79242 0.0
C919 C 0.67544 0.1053 0.75614 0.0
C920 C 0.66155 0.02483 0.78348 0.0
C921 C 0.67576 0.08847 0.71002 0.0
C922 C 0.67119 0.0403 0.70078 0.0
C923 C 0.67295 0.95945 0.72974 0.0
C924 C 0.67799 0.92804 0.76748 0.0
C925 C 0.66696 1.008 0.73754 0.0
C926 C 0.66745 0.94485 0.81264 0.0
C927 C 0.65831 0.99275 0.82026 0.0
H928 H 0.33952 0.50365 0.9502 0.0
H929 H 0.35902 0.5673 0.08465 0.0
H930 H 0.25755 0.56297 0.09859 0.0
H931 H 0.16346 0.53098 0.07537 0.0
H932 H 0.14185 0.50968 0.93001 0.0
H933 H 0.24292 0.50254 0.91741 0.0
C934 C 0.32159 0.51562 0.98289 0.0
C935 C 0.35707 0.53035 0.0189 0.0
C936 C 0.26282 0.51634 0.98936 0.0
C937 C 0.33276 0.55076 0.05878 0.0
C938 C 0.27471 0.54896 0.06647 0.0
C939 C 0.18104 0.52356 0.04127 0.0
C940 C 0.14541 0.5099 1.00465 0.0
C941 C 0.23941 0.52914 0.03299 0.0
C942 C 0.16882 0.50796 0.95976 0.0
C943 C 0.22668 0.50728 0.95241 0.0
H944 H 0.80975 0.0765 0.19068 0.0
H945 H 0.83243 0.10198 0.3374 0.0
H946 H 0.83867 0.01742 0.35081 0.0
H947 H 0.82354 0.93646 0.3221 0.0
H948 H 0.78271 0.91309 0.17809 0.0
H949 H 0.79949 0.99616 0.16164 0.0
C950 C 0.81657 0.06383 0.2256 0.0
C951 C 0.81951 0.09603 0.26305 0.0
C952 C 0.81623 0.01521 0.23339 0.0
C953 C 0.83031 0.07848 0.30781 0.0
C954 C 0.83301 0.02994 0.31555 0.0
C955 C 0.81682 0.9497 0.28745 0.0
C956 C 0.7993 0.91885 0.25184 0.0
C957 C 0.82331 0.99805 0.27894 0.0
C958 C 0.79577 0.93598 0.20618 0.0
C959 C 0.80486 0.98361 0.19691 0.0
H960 H 0.84585 0.97409 0.94714 0.0
H961 H 0.87398 0.03681 0.08133 0.0
H962 H 0.77341 0.04987 0.0902 0.0
H963 H 0.67729 0.04437 0.05849 0.0
H964 H 0.64923 0.98176 0.9259 0.0
H965 H 0.74933 0.96869 0.91636 0.0
C966 C 0.82989 0.99204 0.9777 0.0
C967 C 0.86743 1.00641 0.01267 0.0
C968 C 0.77201 1.00099 0.98186 0.0
C969 C 0.84607 0.02677 0.05338 0.0
C970 C 0.78842 0.03483 0.05814 0.0
C971 C 0.69282 0.03149 0.02646 0.0
C972 C 0.65488 0.01924 0.99106 0.0
C973 C 0.751 0.02313 0.02216 0.0
C974 C 0.67707 0.996 0.9518 0.0
C975 C 0.73451 0.98722 0.94699 0.0
H976 H 0.31509 0.58819 0.81586 0.0
H977 H 0.34811 0.59959 0.6689 0.0
H978 H 0.34955 0.51428 0.66143 0.0
H979 H 0.32211 0.43669 0.69524 0.0
H980 H 0.30769 0.42601 0.84435 0.0
H981 H 0.31948 0.50997 0.85267 0.0
C982 C 0.32559 0.57215 0.78269 0.0
C983 C 0.32899 0.60014 0.74263 0.0
C984 C 0.32796 0.52285 0.77882 0.0
C985 C 0.34318 0.57856 0.70003 0.0
C986 C 0.34377 0.52968 0.69564 0.0
C987 C 0.32334 0.45248 0.72959 0.0
C988 C 0.31003 0.42518 0.76898 0.0
C989 C 0.33294 0.50132 0.73446 0.0
C990 C 0.3137 0.4464 0.8132 0.0
C991 C 0.32122 0.49462 0.81814 0.0
H992 H 0.17594 0.51425 0.43374 0.0
H993 H 0.15094 0.49026 0.57917 0.0
H994 H 0.25149 0.49843 0.59395 0.0
H995 H 0.34803 0.51457 0.56406 0.0
H996 H 0.37352 0.49537 0.41772 0.0
H997 H 0.27273 0.50046 0.40348 0.0
C998 C 0.19257 0.51206 0.46869 0.0
C999 C 0.15554 0.50995 0.50684 0.0
C1000 C 0.25115 0.50992 0.47593 0.0
C1001 C 0.17816 0.5008 0.55094 0.0
C1002 C 0.23585 0.5034 0.55896 0.0
C1003 C 0.33148 0.51281 0.52901 0.0
C1004 C 0.36856 0.51234 0.4908 0.0
C1005 C 0.27295 0.50971 0.52171 0.0
C1006 C 0.34611 0.50382 0.44642 0.0
C1007 C 0.28834 0.50507 0.43855 0.0
H1008 H 0.81113 0.80433 0.93924 0.0
H1009 H 0.63515 0.7713 0.92765 0.0
H1010 H 0.62726 0.76739 0.01273 0.0
H1011 H 0.67029 0.77225 0.09013 0.0
H1012 H 0.84813 0.79681 0.10116 0.0
H1013 H 0.85525 0.80597 0.01658 0.0
C1014 C 0.77095 0.79651 0.95535 0.0
C1015 C 0.72371 0.78833 0.9273 0.0
C1016 C 0.76702 0.79288 1.00403 0.0
C1017 C 0.67205 0.77774 0.94855 0.0
C1018 C 0.66743 0.77559 0.99707 0.0
C1019 C 0.71054 0.77953 0.07382 0.0
C1020 C 0.75864 0.78401 0.10149 0.0
C1021 C 0.71463 0.78286 0.02511 0.0
C1022 C 0.8107 0.79294 0.08027 0.0
C1023 C 0.81473 0.7982 0.03199 0.0
H1024 H 0.60008 0.59087 0.32502 0.0
H1025 H 0.58883 0.4423 0.34988 0.0
H1026 H 0.59506 0.42744 0.26618 0.0
H1027 H 0.58402 0.45745 0.18658 0.0
H1028 H 0.58823 0.60608 0.16139 0.0
H1029 H 0.60745 0.61999 0.24425 0.0
C1030 C 0.60096 0.55516 0.31221 0.0
C1031 C 0.59334 0.51778 0.34387 0.0
C1032 C 0.6029 0.54696 0.26376 0.0
C1033 C 0.59499 0.47172 0.32663 0.0
C1034 C 0.59782 0.46324 0.27857 0.0
C1035 C 0.59058 0.49291 0.19896 0.0
C1036 C 0.58394 0.53072 0.16784 0.0
C1037 C 0.5988 0.5007 0.24686 0.0
C1038 C 0.59338 0.57637 0.18432 0.0
C1039 C 0.60351 0.58433 0.23186 0.0
H1040 H 0.6839 0.22718 0.43853 0.0
H1041 H 0.86422 0.23227 0.42888 0.0
H1042 H 0.87085 0.23357 0.51412 0.0
H1043 H 0.82468 0.23539 0.591 0.0
H1044 H 0.64417 0.23869 0.59976 0.0
H1045 H 0.63804 0.23171 0.5149 0.0
C1046 C 0.7246 0.22823 0.45523 0.0
C1047 C 0.77358 0.22925 0.42798 0.0
C1048 C 0.72785 0.23079 0.50382 0.0
C1049 C 0.82612 0.23152 0.44957 0.0
C1050 C 0.82985 0.23226 0.4981 0.0
C1051 C 0.78407 0.23459 0.57418 0.0
C1052 C 0.73492 0.23737 0.60117 0.0
C1053 C 0.78093 0.23229 0.52551 0.0
C1054 C 0.68246 0.23687 0.57936 0.0
C1055 C 0.67893 0.23282 0.53104 0.0
H1056 H 0.88246 0.53101 0.68263 0.0
H1057 H 0.04037 0.46306 0.65475 0.0
H1058 H 0.0631 0.46609 0.7362 0.0
H1059 H 0.03621 0.48069 0.81652 0.0
H1060 H 0.87025 0.52732 0.85132 0.0
H1061 H 0.84975 0.53654 0.76745 0.0
C1062 C 0.91962 0.51332 0.69492 0.0
C1063 C 0.95982 0.49665 0.66234 0.0
C1064 C 0.92956 0.50899 0.74359 0.0
C1065 C 0.00859 0.4755 0.67889 0.0
C1066 C 0.02152 0.47686 0.72581 0.0
C1067 C 0.99459 0.49085 0.80614 0.0
C1068 C 0.95426 0.50094 0.84044 0.0
C1069 C 0.98199 0.49225 0.75858 0.0
C1070 C 0.90202 0.51822 0.82583 0.0
C1071 C 0.89013 0.52296 0.77778 0.0
H1072 H 0.84782 1.00692 0.44937 0.0
H1073 H 0.86793 0.03888 0.59381 0.0
H1074 H 0.76651 0.03603 0.60658 0.0
H1075 H 0.6701 0.0235 0.57521 0.0
H1076 H 0.65254 0.0314 0.42718 0.0
H1077 H 0.75315 0.01975 0.41592 0.0
C1078 C 0.82987 0.01197 0.48379 0.0
C1079 C 0.86549 0.01557 0.5225 0.0
C1080 C 0.77115 0.01656 0.48949 0.0
C1081 C 0.84145 0.02798 0.56553 0.0
C1082 C 0.78329 0.02828 0.57229 0.0
C1083 C 0.68835 0.02174 0.5406 0.0
C1084 C 0.65308 0.02097 0.50154 0.0
C1085 C 0.74738 0.02131 0.53459 0.0
C1086 C 0.67807 0.02426 0.45721 0.0
C1087 C 0.7359 0.0194 0.45091 0.0
loop_
_geom_bond_atom_site_label_1
_geom_bond_atom_site_label_2
_geom_bond_distance
_geom_bond_site_symmetry_2
_ccdc_geom_bond_type
Mn0 O5 2.095 . S
Mn0 O15 2.162 . S
Mn0 O16 2.297 . S
Mn0 O24 2.385 . S
Mn0 O25 2.209 . S
Mn0 O26 2.094 . S
Mn1 O6 2.121 . S
Mn1 N8 2.257 . S
Mn1 N17 2.282 . S
Mn1 O25 2.215 . S
Mn1 O27 2.117 . S
C2 O24 1.234 . S
C2 O25 1.283 . S
C3 O15 1.281 . S
C3 O16 1.236 . S
C4 O26 1.240 . S
C4 O27 1.264 . S
O5 Mn0 2.095 . S
O5 C14 1.250 . S
O6 Mn1 2.121 . S
O6 C14 1.258 . S
C7 N8 1.326 . S
C7 C11 1.460 . S
C7 H13 0.929 . S
N8 Mn1 2.257 . S
N8 C7 1.326 . S
N8 C12 1.362 . S
C9 C10 1.258 . S
C9 C12 1.431 . S
C9 C29 1.449 . S
C10 C9 1.258 . S
C10 C11 1.477 . S
C10 H30 0.931 . S
C11 C7 1.460 . S
C11 C10 1.477 . S
C11 H31 0.930 . S
C12 N8 1.362 . S
C12 C9 1.431 . S
C12 C22 1.476 . S
H13 C7 0.929 . S
C14 O5 1.250 . S
C14 O6 1.258 . S
O15 Mn0 2.162 . S
O15 C3 1.281 . S
O16 Mn0 2.297 . S
O16 C3 1.236 . S
N17 Mn1 2.282 . S
N17 C18 1.328 . S
N17 C22 1.318 . S
C18 N17 1.328 . S
C18 C19 1.457 . S
C18 H23 0.929 . S
C19 C18 1.457 . S
C19 C20 1.291 . S
C19 H32 0.931 . S
C20 C19 1.291 . S
C20 C21 1.373 . S
C20 H33 0.929 . S
C21 C20 1.373 . S
C21 C22 1.396 . S
C21 C28 1.403 . S
C22 C12 1.476 . S
C22 N17 1.318 . S
C22 C21 1.396 . S
H23 C18 0.929 . S
O24 Mn0 2.385 . S
O24 C2 1.234 . S
O25 Mn0 2.209 . S
O25 Mn1 2.215 . S
O25 C2 1.283 . S
O26 Mn0 2.094 . S
O26 C4 1.240 . S
O27 Mn1 2.117 . S
O27 C4 1.264 . S
C28 C21 1.403 . S
C28 C29 1.399 . S
C28 H34 0.929 . S
C29 C9 1.449 . S
C29 C28 1.399 . S
C29 H35 0.930 . S
H30 C10 0.931 . S
H31 C11 0.930 . S
H32 C19 0.931 . S
H33 C20 0.929 . S
H34 C28 0.929 . S
H35 C29 0.930 . S
Mn36 O41 2.095 . S
Mn36 O51 2.162 . S
Mn36 O52 2.297 1_455 S
Mn36 O60 2.385 1_455 S
Mn36 O61 2.209 1_455 S
Mn36 O62 2.094 1_545 S
Mn37 O42 2.121 . S
Mn37 N44 2.257 . S
Mn37 N53 2.282 . S
Mn37 O61 2.215 1_565 S
Mn37 O63 2.117 1_655 S
C38 O60 1.234 . S
C38 O61 1.283 . S
C39 O51 1.281 . S
C39 O52 1.236 1_455 S
C40 O62 1.240 . S
C40 O63 1.264 . S
O41 Mn36 2.095 . S
O41 C50 1.250 1_545 S
O42 Mn37 2.121 . S
O42 C50 1.258 1_655 S
C43 N44 1.326 . S
C43 C47 1.460 . S
C43 H49 0.929 . S
N44 Mn37 2.257 . S
N44 C43 1.326 . S
N44 C48 1.362 . S
C45 C46 1.258 . S
C45 C48 1.431 . S
C45 C65 1.449 . S
C46 C45 1.258 . S
C46 C47 1.477 . S
C46 H66 0.931 . S
C47 C43 1.460 . S
C47 C46 1.477 . S
C47 H67 0.930 . S
C48 N44 1.362 . S
C48 C45 1.431 . S
C48 C58 1.476 . S
H49 C43 0.929 . S
C50 O41 1.250 1_565 S
C50 O42 1.258 1_455 S
O51 Mn36 2.162 . S
O51 C39 1.281 . S
O52 Mn36 2.297 1_655 S
O52 C39 1.236 1_655 S
N53 Mn37 2.282 . S
N53 C54 1.328 . S
N53 C58 1.318 . S
C54 N53 1.328 . S
C54 C55 1.457 . S
C54 H59 0.929 . S
C55 C54 1.457 . S
C55 C56 1.291 . S
C55 H68 0.931 . S
C56 C55 1.291 . S
C56 C57 1.373 . S
C56 H69 0.929 . S
C57 C56 1.373 . S
C57 C58 1.396 . S
C57 C64 1.403 . S
C58 C48 1.476 . S
C58 N53 1.318 . S
C58 C57 1.396 . S
H59 C54 0.929 . S
O60 Mn36 2.385 1_655 S
O60 C38 1.234 . S
O61 Mn36 2.209 1_655 S
O61 Mn37 2.215 1_545 S
O61 C38 1.283 . S
O62 Mn36 2.094 1_565 S
O62 C40 1.240 . S
O63 Mn37 2.117 1_455 S
O63 C40 1.264 . S
C64 C57 1.403 . S
C64 C65 1.399 . S
C64 H70 0.929 . S
C65 C45 1.449 . S
C65 C64 1.399 . S
C65 H71 0.930 . S
H66 C46 0.931 . S
H67 C47 0.930 . S
H68 C55 0.931 . S
H69 C56 0.929 . S
H70 C64 0.929 . S
H71 C65 0.930 . S
Mn72 O77 2.095 . S
Mn72 O87 2.162 . S
Mn72 O88 2.297 . S
Mn72 O96 2.385 . S
Mn72 O97 2.209 . S
Mn72 O98 2.094 . S
Mn73 O78 2.121 . S
Mn73 N80 2.257 . S
Mn73 N89 2.282 . S
Mn73 O97 2.215 . S
Mn73 O99 2.117 . S
C74 O96 1.234 . S
C74 O97 1.283 . S
C75 O87 1.281 . S
C75 O88 1.236 . S
C76 O98 1.240 . S
C76 O99 1.264 . S
O77 Mn72 2.095 . S
O77 C86 1.250 . S
O78 Mn73 2.121 . S
O78 C86 1.258 . S
C79 N80 1.326 . S
C79 C83 1.460 . S
C79 H85 0.929 . S
N80 Mn73 2.257 . S
N80 C79 1.326 . S
N80 C84 1.362 . S
C81 C82 1.258 . S
C81 C84 1.431 . S
C81 C101 1.449 1_455 S
C82 C81 1.258 . S
C82 C83 1.477 . S
C82 H102 0.931 1_455 S
C83 C79 1.460 . S
C83 C82 1.477 . S
C83 H103 0.930 . S
C84 N80 1.362 . S
C84 C81 1.431 . S
C84 C94 1.476 . S
H85 C79 0.929 . S
C86 O77 1.250 . S
C86 O78 1.258 . S
O87 Mn72 2.162 . S
O87 C75 1.281 . S
O88 Mn72 2.297 . S
O88 C75 1.236 . S
N89 Mn73 2.282 . S
N89 C90 1.328 . S
N89 C94 1.318 . S
C90 N89 1.328 . S
C90 C91 1.457 . S
C90 H95 0.929 . S
C91 C90 1.457 . S
C91 C92 1.291 . S
C91 H104 0.931 . S
C92 C91 1.291 . S
C92 C93 1.373 . S
C92 H105 0.929 . S
C93 C92 1.373 . S
C93 C94 1.396 . S
C93 C100 1.403 . S
C94 C84 1.476 . S
C94 N89 1.318 . S
C94 C93 1.396 . S
H95 C90 0.929 . S
O96 Mn72 2.385 . S
O96 C74 1.234 . S
O97 Mn72 2.209 . S
O97 Mn73 2.215 . S
O97 C74 1.283 . S
O98 Mn72 2.094 . S
O98 C76 1.240 . S
O99 Mn73 2.117 . S
O99 C76 1.264 . S
C100 C93 1.403 . S
C100 C101 1.399 1_455 S
C100 H106 0.929 1_455 S
C101 C81 1.449 1_655 S
C101 C100 1.399 1_655 S
C101 H107 0.930 . S
H102 C82 0.931 1_655 S
H103 C83 0.930 . S
H104 C91 0.931 . S
H105 C92 0.929 . S
H106 C100 0.929 1_655 S
H107 C101 0.930 . S
Mn108 O113 2.095 . S
Mn108 O123 2.162 . S
Mn108 O124 2.297 . S
Mn108 O132 2.385 1_554 S
Mn108 O133 2.209 . S
Mn108 O134 2.094 1_564 S
Mn109 O114 2.121 . S
Mn109 N116 2.257 . S
Mn109 N125 2.282 . S
Mn109 O133 2.215 1_545 S
Mn109 O135 2.117 . S
C110 O132 1.234 1_554 S
C110 O133 1.283 . S
C111 O123 1.281 . S
C111 O124 1.236 . S
C112 O134 1.240 . S
C112 O135 1.264 1_556 S
O113 Mn108 2.095 . S
O113 C122 1.250 1_565 S
O114 Mn109 2.121 . S
O114 C122 1.258 . S
C115 N116 1.326 . S
C115 C119 1.460 . S
C115 H121 0.929 . S
N116 Mn109 2.257 . S
N116 C115 1.326 . S
N116 C120 1.362 . S
C117 C118 1.258 . S
C117 C120 1.431 . S
C117 C137 1.449 . S
C118 C117 1.258 . S
C118 C119 1.477 . S
C118 H138 0.931 . S
C119 C115 1.460 . S
C119 C118 1.477 . S
C119 H139 0.930 . S
C120 N116 1.362 . S
C120 C117 1.431 . S
C120 C130 1.476 . S
H121 C115 0.929 . S
C122 O113 1.250 1_545 S
C122 O114 1.258 . S
O123 Mn108 2.162 . S
O123 C111 1.281 . S
O124 Mn108 2.297 . S
O124 C111 1.236 . S
N125 Mn109 2.282 . S
N125 C126 1.328 1_554 S
N125 C130 1.318 . S
C126 N125 1.328 1_556 S
C126 C127 1.457 . S
C126 H131 0.929 . S
C127 C126 1.457 . S
C127 C128 1.291 . S
C127 H140 0.931 . S
C128 C127 1.291 . S
C128 C129 1.373 . S
C128 H141 0.929 . S
C129 C128 1.373 . S
C129 C130 1.396 1_556 S
C129 C136 1.403 1_556 S
C130 C120 1.476 . S
C130 N125 1.318 . S
C130 C129 1.396 1_554 S
H131 C126 0.929 . S
O132 Mn108 2.385 1_556 S
O132 C110 1.234 1_556 S
O133 Mn108 2.209 . S
O133 Mn109 2.215 1_565 S
O133 C110 1.283 . S
O134 Mn108 2.094 1_546 S
O134 C112 1.240 . S
O135 Mn109 2.117 . S
O135 C112 1.264 1_554 S
C136 C129 1.403 1_554 S
C136 C137 1.399 . S
C136 H142 0.929 1_554 S
C137 C117 1.449 . S
C137 C136 1.399 . S
C137 H143 0.930 . S
H138 C118 0.931 . S
H139 C119 0.930 . S
H140 C127 0.931 . S
H141 C128 0.929 . S
H142 C136 0.929 1_556 S
H143 C137 0.930 . S
Mn144 O149 2.095 . S
Mn144 O159 2.162 . S
Mn144 O160 2.297 . S
Mn144 O168 2.385 . S
Mn144 O169 2.209 . S
Mn144 O170 2.094 . S
Mn145 O150 2.121 . S
Mn145 N152 2.257 . S
Mn145 N161 2.282 . S
Mn145 O169 2.215 . S
Mn145 O171 2.117 . S
C146 O168 1.234 . S
C146 O169 1.283 . S
C147 O159 1.281 . S
C147 O160 1.236 . S
C148 O170 1.240 . S
C148 O171 1.264 . S
O149 Mn144 2.095 . S
O149 C158 1.250 . S
O150 Mn145 2.121 . S
O150 C158 1.258 . S
C151 N152 1.326 . S
C151 C155 1.460 . S
C151 H157 0.929 . S
N152 Mn145 2.257 . S
N152 C151 1.326 . S
N152 C156 1.362 . S
C153 C154 1.258 . S
C153 C156 1.431 . S
C153 C173 1.449 . S
C154 C153 1.258 . S
C154 C155 1.477 . S
C154 H174 0.931 . S
C155 C151 1.460 . S
C155 C154 1.477 . S
C155 H175 0.930 . S
C156 N152 1.362 . S
C156 C153 1.431 . S
C156 C166 1.476 . S
H157 C151 0.929 . S
C158 O149 1.250 . S
C158 O150 1.258 . S
O159 Mn144 2.162 . S
O159 C147 1.281 . S
O160 Mn144 2.297 . S
O160 C147 1.236 . S
N161 Mn145 2.282 . S
N161 C162 1.328 . S
N161 C166 1.318 . S
C162 N161 1.328 . S
C162 C163 1.457 . S
C162 H167 0.929 . S
C163 C162 1.457 . S
C163 C164 1.291 . S
C163 H176 0.931 . S
C164 C163 1.291 . S
C164 C165 1.373 . S
C164 H177 0.929 . S
C165 C164 1.373 . S
C165 C166 1.396 . S
C165 C172 1.403 . S
C166 C156 1.476 . S
C166 N161 1.318 . S
C166 C165 1.396 . S
H167 C162 0.929 . S
O168 Mn144 2.385 . S
O168 C146 1.234 . S
O169 Mn144 2.209 . S
O169 Mn145 2.215 . S
O169 C146 1.283 . S
O170 Mn144 2.094 . S
O170 C148 1.240 . S
O171 Mn145 2.117 . S
O171 C148 1.264 . S
C172 C165 1.403 . S
C172 C173 1.399 . S
C172 H178 0.929 . S
C173 C153 1.449 . S
C173 C172 1.399 . S
C173 H179 0.930 . S
H174 C154 0.931 . S
H175 C155 0.930 . S
H176 C163 0.931 . S
H177 C164 0.929 . S
H178 C172 0.929 . S
H179 C173 0.930 . S
Mn180 O185 2.095 . S
Mn180 O195 2.162 . S
Mn180 O196 2.297 . S
Mn180 O204 2.385 . S
Mn180 O205 2.209 . S
Mn180 O206 2.094 1_545 S
Mn181 O186 2.121 . S
Mn181 N188 2.257 . S
Mn181 N197 2.282 . S
Mn181 O205 2.215 1_565 S
Mn181 O207 2.117 . S
C182 O204 1.234 . S
C182 O205 1.283 . S
C183 O195 1.281 . S
C183 O196 1.236 . S
C184 O206 1.240 . S
C184 O207 1.264 . S
O185 Mn180 2.095 . S
O185 C194 1.250 1_545 S
O186 Mn181 2.121 . S
O186 C194 1.258 . S
C187 N188 1.326 . S
C187 C191 1.460 . S
C187 H193 0.929 . S
N188 Mn181 2.257 . S
N188 C187 1.326 . S
N188 C192 1.362 . S
C189 C190 1.258 . S
C189 C192 1.431 . S
C189 C209 1.449 . S
C190 C189 1.258 . S
C190 C191 1.477 . S
C190 H210 0.931 . S
C191 C187 1.460 . S
C191 C190 1.477 . S
C191 H211 0.930 . S
C192 N188 1.362 . S
C192 C189 1.431 . S
C192 C202 1.476 . S
H193 C187 0.929 . S
C194 O185 1.250 1_565 S
C194 O186 1.258 . S
O195 Mn180 2.162 . S
O195 C183 1.281 . S
O196 Mn180 2.297 . S
O196 C183 1.236 . S
N197 Mn181 2.282 . S
N197 C198 1.328 . S
N197 C202 1.318 . S
C198 N197 1.328 . S
C198 C199 1.457 . S
C198 H203 0.929 . S
C199 C198 1.457 . S
C199 C200 1.291 . S
C199 H212 0.931 . S
C200 C199 1.291 . S
C200 C201 1.373 . S
C200 H213 0.929 . S
C201 C200 1.373 . S
C201 C202 1.396 . S
C201 C208 1.403 . S
C202 C192 1.476 . S
C202 N197 1.318 . S
C202 C201 1.396 . S
H203 C198 0.929 . S
O204 Mn180 2.385 . S
O204 C182 1.234 . S
O205 Mn180 2.209 . S
O205 Mn181 2.215 1_545 S
O205 C182 1.283 . S
O206 Mn180 2.094 1_565 S
O206 C184 1.240 . S
O207 Mn181 2.117 . S
O207 C184 1.264 . S
C208 C201 1.403 . S
C208 C209 1.399 . S
C208 H214 0.929 . S
C209 C189 1.449 . S
C209 C208 1.399 . S
C209 H215 0.930 . S
H210 C190 0.931 . S
H211 C191 0.930 . S
H212 C199 0.931 . S
H213 C200 0.929 . S
H214 C208 0.929 . S
H215 C209 0.930 . S
Mn216 O221 2.095 . S
Mn216 O231 2.162 . S
Mn216 O232 2.297 . S
Mn216 O240 2.385 . S
Mn216 O241 2.209 . S
Mn216 O242 2.094 . S
Mn217 O222 2.121 . S
Mn217 N224 2.257 . S
Mn217 N233 2.282 . S
Mn217 O241 2.215 . S
Mn217 O243 2.117 . S
C218 O240 1.234 . S
C218 O241 1.283 . S
C219 O231 1.281 . S
C219 O232 1.236 . S
C220 O242 1.240 . S
C220 O243 1.264 . S
O221 Mn216 2.095 . S
O221 C230 1.250 . S
O222 Mn217 2.121 . S
O222 C230 1.258 . S
C223 N224 1.326 . S
C223 C227 1.460 . S
C223 H229 0.929 . S
N224 Mn217 2.257 . S
N224 C223 1.326 . S
N224 C228 1.362 . S
C225 C226 1.258 . S
C225 C228 1.431 . S
C225 C245 1.449 1_455 S
C226 C225 1.258 . S
C226 C227 1.477 . S
C226 H246 0.931 1_455 S
C227 C223 1.460 . S
C227 C226 1.477 . S
C227 H247 0.930 . S
C228 N224 1.362 . S
C228 C225 1.431 . S
C228 C238 1.476 . S
H229 C223 0.929 . S
C230 O221 1.250 . S
C230 O222 1.258 . S
O231 Mn216 2.162 . S
O231 C219 1.281 . S
O232 Mn216 2.297 . S
O232 C219 1.236 . S
N233 Mn217 2.282 . S
N233 C234 1.328 . S
N233 C238 1.318 . S
C234 N233 1.328 . S
C234 C235 1.457 . S
C234 H239 0.929 . S
C235 C234 1.457 . S
C235 C236 1.291 . S
C235 H248 0.931 . S
C236 C235 1.291 . S
C236 C237 1.373 . S
C236 H249 0.929 . S
C237 C236 1.373 . S
C237 C238 1.396 . S
C237 C244 1.403 . S
C238 C228 1.476 . S
C238 N233 1.318 . S
C238 C237 1.396 . S
H239 C234 0.929 . S
O240 Mn216 2.385 . S
O240 C218 1.234 . S
O241 Mn216 2.209 . S
O241 Mn217 2.215 . S
O241 C218 1.283 . S
O242 Mn216 2.094 . S
O242 C220 1.240 . S
O243 Mn217 2.117 . S
O243 C220 1.264 . S
C244 C237 1.403 . S
C244 C245 1.399 1_455 S
C244 H250 0.929 1_455 S
C245 C225 1.449 1_655 S
C245 C244 1.399 1_655 S
C245 H251 0.930 . S
H246 C226 0.931 1_655 S
H247 C227 0.930 . S
H248 C235 0.931 . S
H249 C236 0.929 . S
H250 C244 0.929 1_655 S
H251 C245 0.930 . S
Mn252 O257 2.095 . S
Mn252 O267 2.162 . S
Mn252 O268 2.297 1_455 S
Mn252 O276 2.385 1_456 S
Mn252 O277 2.209 1_455 S
Mn252 O278 2.094 1_566 S
Mn253 O258 2.121 . S
Mn253 N260 2.257 . S
Mn253 N269 2.282 . S
Mn253 O277 2.215 1_545 S
Mn253 O279 2.117 1_655 S
C254 O276 1.234 1_556 S
C254 O277 1.283 . S
C255 O267 1.281 . S
C255 O268 1.236 1_455 S
C256 O278 1.240 . S
C256 O279 1.264 1_554 S
O257 Mn252 2.095 . S
O257 C266 1.250 1_565 S
O258 Mn253 2.121 . S
O258 C266 1.258 1_655 S
C259 N260 1.326 . S
C259 C263 1.460 . S
C259 H265 0.929 . S
N260 Mn253 2.257 . S
N260 C259 1.326 . S
N260 C264 1.362 . S
C261 C262 1.258 . S
C261 C264 1.431 . S
C261 C281 1.449 . S
C262 C261 1.258 . S
C262 C263 1.477 . S
C262 H282 0.931 . S
C263 C259 1.460 . S
C263 C262 1.477 . S
C263 H283 0.930 . S
C264 N260 1.362 . S
C264 C261 1.431 . S
C264 C274 1.476 . S
H265 C259 0.929 . S
C266 O257 1.250 1_545 S
C266 O258 1.258 1_455 S
O267 Mn252 2.162 . S
O267 C255 1.281 . S
O268 Mn252 2.297 1_655 S
O268 C255 1.236 1_655 S
N269 Mn253 2.282 . S
N269 C270 1.328 1_556 S
N269 C274 1.318 . S
C270 N269 1.328 1_554 S
C270 C271 1.457 . S
C270 H275 0.929 . S
C271 C270 1.457 . S
C271 C272 1.291 . S
C271 H284 0.931 . S
C272 C271 1.291 . S
C272 C273 1.373 . S
C272 H285 0.929 . S
C273 C272 1.373 . S
C273 C274 1.396 1_554 S
C273 C280 1.403 1_554 S
C274 C264 1.476 . S
C274 N269 1.318 . S
C274 C273 1.396 1_556 S
H275 C270 0.929 . S
O276 Mn252 2.385 1_654 S
O276 C254 1.234 1_554 S
O277 Mn252 2.209 1_655 S
O277 Mn253 2.215 1_565 S
O277 C254 1.283 . S
O278 Mn252 2.094 1_544 S
O278 C256 1.240 . S
O279 Mn253 2.117 1_455 S
O279 C256 1.264 1_556 S
C280 C273 1.403 1_556 S
C280 C281 1.399 . S
C280 H286 0.929 1_556 S
C281 C261 1.449 . S
C281 C280 1.399 . S
C281 H287 0.930 . S
H282 C262 0.931 . S
H283 C263 0.930 . S
H284 C271 0.931 . S
H285 C272 0.929 . S
H286 C280 0.929 1_554 S
H287 C281 0.930 . S
Mn288 O293 2.095 . S
Mn288 O303 2.162 . S
Mn288 O304 2.297 . S
Mn288 O312 2.385 . S
Mn288 O313 2.209 . S
Mn288 O314 2.094 . S
Mn289 O294 2.121 . S
Mn289 N296 2.257 . S
Mn289 N305 2.282 . S
Mn289 O313 2.215 . S
Mn289 O315 2.117 . S
C290 O312 1.234 . S
C290 O313 1.283 . S
C291 O303 1.281 . S
C291 O304 1.236 . S
C292 O314 1.240 . S
C292 O315 1.264 . S
O293 Mn288 2.095 . S
O293 C302 1.250 . S
O294 Mn289 2.121 . S
O294 C302 1.258 . S
C295 N296 1.326 . S
C295 C299 1.460 . S
C295 H301 0.929 . S
N296 Mn289 2.257 . S
N296 C295 1.326 . S
N296 C300 1.362 . S
C297 C298 1.258 . S
C297 C300 1.431 . S
C297 C317 1.449 1_655 S
C298 C297 1.258 . S
C298 C299 1.477 . S
C298 H318 0.931 1_655 S
C299 C295 1.460 . S
C299 C298 1.477 . S
C299 H319 0.930 . S
C300 N296 1.362 . S
C300 C297 1.431 . S
C300 C310 1.476 . S
H301 C295 0.929 . S
C302 O293 1.250 . S
C302 O294 1.258 . S
O303 Mn288 2.162 . S
O303 C291 1.281 . S
O304 Mn288 2.297 . S
O304 C291 1.236 . S
N305 Mn289 2.282 . S
N305 C306 1.328 . S
N305 C310 1.318 . S
C306 N305 1.328 . S
C306 C307 1.457 . S
C306 H311 0.929 . S
C307 C306 1.457 . S
C307 C308 1.291 . S
C307 H320 0.931 . S
C308 C307 1.291 . S
C308 C309 1.373 . S
C308 H321 0.929 . S
C309 C308 1.373 . S
C309 C310 1.396 . S
C309 C316 1.403 . S
C310 C300 1.476 . S
C310 N305 1.318 . S
C310 C309 1.396 . S
H311 C306 0.929 . S
O312 Mn288 2.385 . S
O312 C290 1.234 . S
O313 Mn288 2.209 . S
O313 Mn289 2.215 . S
O313 C290 1.283 . S
O314 Mn288 2.094 . S
O314 C292 1.240 . S
O315 Mn289 2.117 . S
O315 C292 1.264 . S
C316 C309 1.403 . S
C316 C317 1.399 1_655 S
C316 H322 0.929 1_655 S
C317 C297 1.449 1_455 S
C317 C316 1.399 1_455 S
C317 H323 0.930 . S
H318 C298 0.931 1_455 S
H319 C299 0.930 . S
H320 C307 0.931 . S
H321 C308 0.929 . S
H322 C316 0.929 1_455 S
H323 C317 0.930 . S
Mn324 O329 2.095 . S
Mn324 O339 2.162 . S
Mn324 O340 2.297 1_655 S
Mn324 O348 2.385 1_656 S
Mn324 O349 2.209 1_655 S
Mn324 O350 2.094 1_556 S
Mn325 O330 2.121 . S
Mn325 N332 2.257 . S
Mn325 N341 2.282 . S
Mn325 O349 2.215 . S
Mn325 O351 2.117 1_455 S
C326 O348 1.234 1_556 S
C326 O349 1.283 . S
C327 O339 1.281 . S
C327 O340 1.236 1_655 S
C328 O350 1.240 . S
C328 O351 1.264 1_554 S
O329 Mn324 2.095 . S
O329 C338 1.250 . S
O330 Mn325 2.121 . S
O330 C338 1.258 1_455 S
C331 N332 1.326 . S
C331 C335 1.460 . S
C331 H337 0.929 . S
N332 Mn325 2.257 . S
N332 C331 1.326 . S
N332 C336 1.362 . S
C333 C334 1.258 . S
C333 C336 1.431 . S
C333 C353 1.449 . S
C334 C333 1.258 . S
C334 C335 1.477 . S
C334 H354 0.931 . S
C335 C331 1.460 . S
C335 C334 1.477 . S
C335 H355 0.930 . S
C336 N332 1.362 . S
C336 C333 1.431 . S
C336 C346 1.476 . S
H337 C331 0.929 . S
C338 O329 1.250 . S
C338 O330 1.258 1_655 S
O339 Mn324 2.162 . S
O339 C327 1.281 . S
O340 Mn324 2.297 1_455 S
O340 C327 1.236 1_455 S
N341 Mn325 2.282 . S
N341 C342 1.328 1_556 S
N341 C346 1.318 . S
C342 N341 1.328 1_554 S
C342 C343 1.457 . S
C342 H347 0.929 . S
C343 C342 1.457 . S
C343 C344 1.291 . S
C343 H356 0.931 . S
C344 C343 1.291 . S
C344 C345 1.373 . S
C344 H357 0.929 . S
C345 C344 1.373 . S
C345 C346 1.396 1_554 S
C345 C352 1.403 1_554 S
C346 C336 1.476 . S
C346 N341 1.318 . S
C346 C345 1.396 1_556 S
H347 C342 0.929 . S
O348 Mn324 2.385 1_454 S
O348 C326 1.234 1_554 S
O349 Mn324 2.209 1_455 S
O349 Mn325 2.215 . S
O349 C326 1.283 . S
O350 Mn324 2.094 1_554 S
O350 C328 1.240 . S
O351 Mn325 2.117 1_655 S
O351 C328 1.264 1_556 S
C352 C345 1.403 1_556 S
C352 C353 1.399 . S
C352 H358 0.929 1_556 S
C353 C333 1.449 . S
C353 C352 1.399 . S
C353 H359 0.930 . S
H354 C334 0.931 . S
H355 C335 0.930 . S
H356 C343 0.931 . S
H357 C344 0.929 . S
H358 C352 0.929 1_554 S
H359 C353 0.930 . S
Mn360 O365 2.095 . S
Mn360 O375 2.162 . S
Mn360 O376 2.297 . S
Mn360 O384 2.385 . S
Mn360 O385 2.209 . S
Mn360 O386 2.094 . S
Mn361 O366 2.121 . S
Mn361 N368 2.257 . S
Mn361 N377 2.282 . S
Mn361 O385 2.215 . S
Mn361 O387 2.117 . S
C362 O384 1.234 . S
C362 O385 1.283 . S
C363 O375 1.281 . S
C363 O376 1.236 . S
C364 O386 1.240 . S
C364 O387 1.264 . S
O365 Mn360 2.095 . S
O365 C374 1.250 . S
O366 Mn361 2.121 . S
O366 C374 1.258 . S
C367 N368 1.326 . S
C367 C371 1.460 . S
C367 H373 0.929 . S
N368 Mn361 2.257 . S
N368 C367 1.326 . S
N368 C372 1.362 . S
C369 C370 1.258 . S
C369 C372 1.431 . S
C369 C389 1.449 . S
C370 C369 1.258 . S
C370 C371 1.477 . S
C370 H390 0.931 . S
C371 C367 1.460 . S
C371 C370 1.477 . S
C371 H391 0.930 . S
C372 N368 1.362 . S
C372 C369 1.431 . S
C372 C382 1.476 . S
H373 C367 0.929 . S
C374 O365 1.250 . S
C374 O366 1.258 . S
O375 Mn360 2.162 . S
O375 C363 1.281 . S
O376 Mn360 2.297 . S
O376 C363 1.236 . S
N377 Mn361 2.282 . S
N377 C378 1.328 . S
N377 C382 1.318 . S
C378 N377 1.328 . S
C378 C379 1.457 . S
C378 H383 0.929 . S
C379 C378 1.457 . S
C379 C380 1.291 . S
C379 H392 0.931 . S
C380 C379 1.291 . S
C380 C381 1.373 . S
C380 H393 0.929 . S
C381 C380 1.373 . S
C381 C382 1.396 . S
C381 C388 1.403 . S
C382 C372 1.476 . S
C382 N377 1.318 . S
C382 C381 1.396 . S
H383 C378 0.929 . S
O384 Mn360 2.385 . S
O384 C362 1.234 . S
O385 Mn360 2.209 . S
O385 Mn361 2.215 . S
O385 C362 1.283 . S
O386 Mn360 2.094 . S
O386 C364 1.240 . S
O387 Mn361 2.117 . S
O387 C364 1.264 . S
C388 C381 1.403 . S
C388 C389 1.399 . S
C388 H394 0.929 . S
C389 C369 1.449 . S
C389 C388 1.399 . S
C389 H395 0.930 . S
H390 C370 0.931 . S
H391 C371 0.930 . S
H392 C379 0.931 . S
H393 C380 0.929 . S
H394 C388 0.929 . S
H395 C389 0.930 . S
Mn396 O401 2.095 . S
Mn396 O411 2.162 . S
Mn396 O412 2.297 1_655 S
Mn396 O420 2.385 1_655 S
Mn396 O421 2.209 1_655 S
Mn396 O422 2.094 . S
Mn397 O402 2.121 . S
Mn397 N404 2.257 . S
Mn397 N413 2.282 . S
Mn397 O421 2.215 . S
Mn397 O423 2.117 1_455 S
C398 O420 1.234 . S
C398 O421 1.283 . S
C399 O411 1.281 . S
C399 O412 1.236 1_655 S
C400 O422 1.240 . S
C400 O423 1.264 . S
O401 Mn396 2.095 . S
O401 C410 1.250 . S
O402 Mn397 2.121 . S
O402 C410 1.258 1_455 S
C403 N404 1.326 . S
C403 C407 1.460 . S
C403 H409 0.929 . S
N404 Mn397 2.257 . S
N404 C403 1.326 . S
N404 C408 1.362 . S
C405 C406 1.258 . S
C405 C408 1.431 . S
C405 C425 1.449 . S
C406 C405 1.258 . S
C406 C407 1.477 . S
C406 H426 0.931 . S
C407 C403 1.460 . S
C407 C406 1.477 . S
C407 H427 0.930 . S
C408 N404 1.362 . S
C408 C405 1.431 . S
C408 C418 1.476 . S
H409 C403 0.929 . S
C410 O401 1.250 . S
C410 O402 1.258 1_655 S
O411 Mn396 2.162 . S
O411 C399 1.281 . S
O412 Mn396 2.297 1_455 S
O412 C399 1.236 1_455 S
N413 Mn397 2.282 . S
N413 C414 1.328 . S
N413 C418 1.318 . S
C414 N413 1.328 . S
C414 C415 1.457 . S
C414 H419 0.929 . S
C415 C414 1.457 . S
C415 C416 1.291 . S
C415 H428 0.931 . S
C416 C415 1.291 . S
C416 C417 1.373 . S
C416 H429 0.929 . S
C417 C416 1.373 . S
C417 C418 1.396 . S
C417 C424 1.403 . S
C418 C408 1.476 . S
C418 N413 1.318 . S
C418 C417 1.396 . S
H419 C414 0.929 . S
O420 Mn396 2.385 1_455 S
O420 C398 1.234 . S
O421 Mn396 2.209 1_455 S
O421 Mn397 2.215 . S
O421 C398 1.283 . S
O422 Mn396 2.094 . S
O422 C400 1.240 . S
O423 Mn397 2.117 1_655 S
O423 C400 1.264 . S
C424 C417 1.403 . S
C424 C425 1.399 . S
C424 H430 0.929 . S
C425 C405 1.449 . S
C425 C424 1.399 . S
C425 H431 0.930 . S
H426 C406 0.931 . S
H427 C407 0.930 . S
H428 C415 0.931 . S
H429 C416 0.929 . S
H430 C424 0.929 . S
H431 C425 0.930 . S
Mn432 O437 2.095 . S
Mn432 O447 2.162 . S
Mn432 O448 2.297 . S
Mn432 O456 2.385 1_554 S
Mn432 O457 2.209 . S
Mn432 O458 2.094 1_554 S
Mn433 O438 2.121 . S
Mn433 N440 2.257 . S
Mn433 N449 2.282 . S
Mn433 O457 2.215 . S
Mn433 O459 2.117 . S
C434 O456 1.234 1_554 S
C434 O457 1.283 . S
C435 O447 1.281 . S
C435 O448 1.236 . S
C436 O458 1.240 . S
C436 O459 1.264 1_556 S
O437 Mn432 2.095 . S
O437 C446 1.250 . S
O438 Mn433 2.121 . S
O438 C446 1.258 . S
C439 N440 1.326 . S
C439 C443 1.460 . S
C439 H445 0.929 . S
N440 Mn433 2.257 . S
N440 C439 1.326 . S
N440 C444 1.362 . S
C441 C442 1.258 . S
C441 C444 1.431 . S
C441 C461 1.449 . S
C442 C441 1.258 . S
C442 C443 1.477 . S
C442 H462 0.931 . S
C443 C439 1.460 . S
C443 C442 1.477 . S
C443 H463 0.930 . S
C444 N440 1.362 . S
C444 C441 1.431 . S
C444 C454 1.476 . S
H445 C439 0.929 . S
C446 O437 1.250 . S
C446 O438 1.258 . S
O447 Mn432 2.162 . S
O447 C435 1.281 . S
O448 Mn432 2.297 . S
O448 C435 1.236 . S
N449 Mn433 2.282 . S
N449 C450 1.328 1_554 S
N449 C454 1.318 . S
C450 N449 1.328 1_556 S
C450 C451 1.457 . S
C450 H455 0.929 . S
C451 C450 1.457 . S
C451 C452 1.291 . S
C451 H464 0.931 . S
C452 C451 1.291 . S
C452 C453 1.373 . S
C452 H465 0.929 . S
C453 C452 1.373 . S
C453 C454 1.396 1_556 S
C453 C460 1.403 1_556 S
C454 C444 1.476 . S
C454 N449 1.318 . S
C454 C453 1.396 1_554 S
H455 C450 0.929 . S
O456 Mn432 2.385 1_556 S
O456 C434 1.234 1_556 S
O457 Mn432 2.209 . S
O457 Mn433 2.215 . S
O457 C434 1.283 . S
O458 Mn432 2.094 1_556 S
O458 C436 1.240 . S
O459 Mn433 2.117 . S
O459 C436 1.264 1_554 S
C460 C453 1.403 1_554 S
C460 C461 1.399 . S
C460 H466 0.929 1_554 S
C461 C441 1.449 . S
C461 C460 1.399 . S
C461 H467 0.930 . S
H462 C442 0.931 . S
H463 C443 0.930 . S
H464 C451 0.931 . S
H465 C452 0.929 . S
H466 C460 0.929 1_556 S
H467 C461 0.930 . S
Mn468 O473 2.095 . S
Mn468 O483 2.162 . S
Mn468 O484 2.297 . S
Mn468 O492 2.385 . S
Mn468 O493 2.209 . S
Mn468 O494 2.094 . S
Mn469 O474 2.121 . S
Mn469 N476 2.257 . S
Mn469 N485 2.282 . S
Mn469 O493 2.215 . S
Mn469 O495 2.117 . S
C470 O492 1.234 . S
C470 O493 1.283 . S
C471 O483 1.281 . S
C471 O484 1.236 . S
C472 O494 1.240 . S
C472 O495 1.264 . S
O473 Mn468 2.095 . S
O473 C482 1.250 . S
O474 Mn469 2.121 . S
O474 C482 1.258 . S
C475 N476 1.326 . S
C475 C479 1.460 . S
C475 H481 0.929 . S
N476 Mn469 2.257 . S
N476 C475 1.326 . S
N476 C480 1.362 . S
C477 C478 1.258 . S
C477 C480 1.431 . S
C477 C497 1.449 1_655 S
C478 C477 1.258 . S
C478 C479 1.477 . S
C478 H498 0.931 1_655 S
C479 C475 1.460 . S
C479 C478 1.477 . S
C479 H499 0.930 . S
C480 N476 1.362 . S
C480 C477 1.431 . S
C480 C490 1.476 . S
H481 C475 0.929 . S
C482 O473 1.250 . S
C482 O474 1.258 . S
O483 Mn468 2.162 . S
O483 C471 1.281 . S
O484 Mn468 2.297 . S
O484 C471 1.236 . S
N485 Mn469 2.282 . S
N485 C486 1.328 . S
N485 C490 1.318 . S
C486 N485 1.328 . S
C486 C487 1.457 . S
C486 H491 0.929 . S
C487 C486 1.457 . S
C487 C488 1.291 . S
C487 H500 0.931 . S
C488 C487 1.291 . S
C488 C489 1.373 . S
C488 H501 0.929 . S
C489 C488 1.373 . S
C489 C490 1.396 . S
C489 C496 1.403 . S
C490 C480 1.476 . S
C490 N485 1.318 . S
C490 C489 1.396 . S
H491 C486 0.929 . S
O492 Mn468 2.385 . S
O492 C470 1.234 . S
O493 Mn468 2.209 . S
O493 Mn469 2.215 . S
O493 C470 1.283 . S
O494 Mn468 2.094 . S
O494 C472 1.240 . S
O495 Mn469 2.117 . S
O495 C472 1.264 . S
C496 C489 1.403 . S
C496 C497 1.399 1_655 S
C496 H502 0.929 1_655 S
C497 C477 1.449 1_455 S
C497 C496 1.399 1_455 S
C497 H503 0.930 . S
H498 C478 0.931 1_455 S
H499 C479 0.930 . S
H500 C487 0.931 . S
H501 C488 0.929 . S
H502 C496 0.929 1_455 S
H503 C497 0.930 . S
Mn504 O509 2.095 . S
Mn504 O519 2.162 . S
Mn504 O520 2.297 . S
Mn504 O528 2.385 . S
Mn504 O529 2.209 . S
Mn504 O530 2.094 . S
Mn505 O510 2.121 . S
Mn505 N512 2.257 . S
Mn505 N521 2.282 . S
Mn505 O529 2.215 . S
Mn505 O531 2.117 . S
C506 O528 1.234 . S
C506 O529 1.283 . S
C507 O519 1.281 . S
C507 O520 1.236 . S
C508 O530 1.240 . S
C508 O531 1.264 . S
O509 Mn504 2.095 . S
O509 C518 1.250 . S
O510 Mn505 2.121 . S
O510 C518 1.258 . S
C511 N512 1.326 . S
C511 C515 1.460 . S
C511 H517 0.929 . S
N512 Mn505 2.257 . S
N512 C511 1.326 . S
N512 C516 1.362 . S
C513 C514 1.258 . S
C513 C516 1.431 . S
C513 C533 1.449 . S
C514 C513 1.258 . S
C514 C515 1.477 . S
C514 H534 0.931 . S
C515 C511 1.460 . S
C515 C514 1.477 . S
C515 H535 0.930 . S
C516 N512 1.362 . S
C516 C513 1.431 . S
C516 C526 1.476 . S
H517 C511 0.929 . S
C518 O509 1.250 . S
C518 O510 1.258 . S
O519 Mn504 2.162 . S
O519 C507 1.281 . S
O520 Mn504 2.297 . S
O520 C507 1.236 . S
N521 Mn505 2.282 . S
N521 C522 1.328 . S
N521 C526 1.318 . S
C522 N521 1.328 . S
C522 C523 1.457 . S
C522 H527 0.929 . S
C523 C522 1.457 . S
C523 C524 1.291 . S
C523 H536 0.931 . S
C524 C523 1.291 . S
C524 C525 1.373 . S
C524 H537 0.929 . S
C525 C524 1.373 . S
C525 C526 1.396 . S
C525 C532 1.403 . S
C526 C516 1.476 . S
C526 N521 1.318 . S
C526 C525 1.396 . S
H527 C522 0.929 . S
O528 Mn504 2.385 . S
O528 C506 1.234 . S
O529 Mn504 2.209 . S
O529 Mn505 2.215 . S
O529 C506 1.283 . S
O530 Mn504 2.094 . S
O530 C508 1.240 . S
O531 Mn505 2.117 . S
O531 C508 1.264 . S
C532 C525 1.403 . S
C532 C533 1.399 . S
C532 H538 0.929 . S
C533 C513 1.449 . S
C533 C532 1.399 . S
C533 H539 0.930 . S
H534 C514 0.931 . S
H535 C515 0.930 . S
H536 C523 0.931 . S
H537 C524 0.929 . S
H538 C532 0.929 . S
H539 C533 0.930 . S
Mn540 O545 2.095 . S
Mn540 O555 2.162 . S
Mn540 O556 2.297 . S
Mn540 O564 2.385 . S
Mn540 O565 2.209 . S
Mn540 O566 2.094 . S
Mn541 O546 2.121 . S
Mn541 N548 2.257 . S
Mn541 N557 2.282 . S
Mn541 O565 2.215 . S
Mn541 O567 2.117 . S
C542 O564 1.234 . S
C542 O565 1.283 . S
C543 O555 1.281 . S
C543 O556 1.236 . S
C544 O566 1.240 . S
C544 O567 1.264 . S
O545 Mn540 2.095 . S
O545 C554 1.250 . S
O546 Mn541 2.121 . S
O546 C554 1.258 . S
C547 N548 1.326 . S
C547 C551 1.460 . S
C547 H553 0.929 . S
N548 Mn541 2.257 . S
N548 C547 1.326 . S
N548 C552 1.362 . S
C549 C550 1.258 . S
C549 C552 1.431 . S
C549 C569 1.449 . S
C550 C549 1.258 . S
C550 C551 1.477 . S
C550 H570 0.931 . S
C551 C547 1.460 . S
C551 C550 1.477 . S
C551 H571 0.930 . S
C552 N548 1.362 . S
C552 C549 1.431 . S
C552 C562 1.476 . S
H553 C547 0.929 . S
C554 O545 1.250 . S
C554 O546 1.258 . S
O555 Mn540 2.162 . S
O555 C543 1.281 . S
O556 Mn540 2.297 . S
O556 C543 1.236 . S
N557 Mn541 2.282 . S
N557 C558 1.328 . S
N557 C562 1.318 . S
C558 N557 1.328 . S
C558 C559 1.457 . S
C558 H563 0.929 . S
C559 C558 1.457 . S
C559 C560 1.291 . S
C559 H572 0.931 . S
C560 C559 1.291 . S
C560 C561 1.373 . S
C560 H573 0.929 . S
C561 C560 1.373 . S
C561 C562 1.396 . S
C561 C568 1.403 . S
C562 C552 1.476 . S
C562 N557 1.318 . S
C562 C561 1.396 . S
H563 C558 0.929 . S
O564 Mn540 2.385 . S
O564 C542 1.234 . S
O565 Mn540 2.209 . S
O565 Mn541 2.215 . S
O565 C542 1.283 . S
O566 Mn540 2.094 . S
O566 C544 1.240 . S
O567 Mn541 2.117 . S
O567 C544 1.264 . S
C568 C561 1.403 . S
C568 C569 1.399 . S
C568 H574 0.929 . S
C569 C549 1.449 . S
C569 C568 1.399 . S
C569 H575 0.930 . S
H570 C550 0.931 . S
H571 C551 0.930 . S
H572 C559 0.931 . S
H573 C560 0.929 . S
H574 C568 0.929 . S
H575 C569 0.930 . S
H576 C582 0.930 . S
H577 C585 0.930 . S
H578 C586 0.930 . S
H579 C587 0.930 . S
H580 C590 0.914 1_655 S
H581 C591 0.930 . S
C582 H576 0.930 . S
C582 C583 1.355 . S
C582 C584 1.415 . S
C583 C582 1.355 . S
C583 C585 1.419 . S
C584 C582 1.415 . S
C584 C589 1.425 . S
C584 C591 1.409 . S
C585 H577 0.930 . S
C585 C583 1.419 . S
C585 C586 1.362 . S
C586 H578 0.930 . S
C586 C585 1.362 . S
C586 C589 1.409 . S
C587 H579 0.930 . S
C587 C588 1.355 . S
C587 C589 1.415 . S
C588 C587 1.355 . S
C588 C590 1.419 . S
C589 C584 1.425 . S
C589 C586 1.409 . S
C589 C587 1.415 . S
C590 H580 0.914 1_455 S
C590 C588 1.419 . S
C590 C591 1.362 . S
C591 H581 0.930 . S
C591 C584 1.409 . S
C591 C590 1.362 . S
H592 C598 0.930 . S
H593 C601 0.930 . S
H594 C602 0.930 . S
H595 C603 0.930 . S
H596 C606 0.930 . S
H597 C607 0.930 . S
C598 H592 0.930 . S
C598 C599 1.355 . S
C598 C600 1.415 . S
C599 C598 1.355 . S
C599 C601 1.419 . S
C600 C598 1.415 . S
C600 C605 1.425 . S
C600 C607 1.409 . S
C601 H593 0.930 . S
C601 C599 1.419 . S
C601 C602 1.362 . S
C602 H594 0.930 . S
C602 C601 1.362 . S
C602 C605 1.409 . S
C603 H595 0.930 . S
C603 C604 1.355 . S
C603 C605 1.415 . S
C604 C603 1.355 . S
C604 C606 1.419 . S
C605 C600 1.425 . S
C605 C602 1.409 . S
C605 C603 1.415 . S
C606 H596 0.930 . S
C606 C604 1.419 . S
C606 C607 1.362 . S
C607 H597 0.930 . S
C607 C600 1.409 . S
C607 C606 1.362 . S
H608 C614 0.930 . S
H609 C617 0.930 . S
H610 C618 0.930 . S
H611 C619 0.930 . S
H612 C622 0.930 . S
H613 C623 0.930 . S
C614 H608 0.930 . S
C614 C615 1.355 . S
C614 C616 1.415 . S
C615 C614 1.355 . S
C615 C617 1.419 . S
C616 C614 1.415 . S
C616 C621 1.425 . S
C616 C623 1.409 . S
C617 H609 0.930 . S
C617 C615 1.419 . S
C617 C618 1.362 . S
C618 H610 0.930 . S
C618 C617 1.362 . S
C618 C621 1.409 . S
C619 H611 0.930 . S
C619 C620 1.355 . S
C619 C621 1.415 . S
C620 C619 1.355 . S
C620 C622 1.419 . S
C621 C616 1.425 . S
C621 C618 1.409 . S
C621 C619 1.415 . S
C622 H612 0.930 . S
C622 C620 1.419 . S
C622 C623 1.362 . S
C623 H613 0.930 . S
C623 C616 1.409 . S
C623 C622 1.362 . S
H624 C630 0.930 . S
H625 C633 0.930 . S
H626 C634 0.930 . S
H627 C635 0.930 . S
H628 C638 0.930 . S
H629 C639 0.930 . S
C630 H624 0.930 . S
C630 C631 1.355 . S
C630 C632 1.415 . S
C631 C630 1.355 . S
C631 C633 1.419 . S
C632 C630 1.415 . S
C632 C637 1.425 . S
C632 C639 1.409 . S
C633 H625 0.930 . S
C633 C631 1.419 . S
C633 C634 1.362 . S
C634 H626 0.930 . S
C634 C633 1.362 . S
C634 C637 1.409 . S
C635 H627 0.930 . S
C635 C636 1.355 . S
C635 C637 1.415 . S
C636 C635 1.355 . S
C636 C638 1.419 . S
C637 C632 1.425 . S
C637 C634 1.409 . S
C637 C635 1.415 . S
C638 H628 0.930 . S
C638 C636 1.419 . S
C638 C639 1.362 . S
C639 H629 0.930 . S
C639 C632 1.409 . S
C639 C638 1.362 . S
H640 C646 0.930 . S
H641 C649 0.930 . S
H642 C650 0.930 . S
H643 C651 0.930 . S
H644 C654 0.930 . S
H645 C655 0.930 . S
C646 H640 0.930 . S
C646 C647 1.355 . S
C646 C648 1.415 . S
C647 C646 1.355 . S
C647 C649 1.419 . S
C648 C646 1.415 . S
C648 C653 1.425 . S
C648 C655 1.409 . S
C649 H641 0.930 . S
C649 C647 1.419 . S
C649 C650 1.362 . S
C650 H642 0.930 . S
C650 C649 1.362 . S
C650 C653 1.409 . S
C651 H643 0.930 . S
C651 C652 1.355 . S
C651 C653 1.415 . S
C652 C651 1.355 . S
C652 C654 1.419 . S
C653 C648 1.425 . S
C653 C650 1.409 . S
C653 C651 1.415 . S
C654 H644 0.930 . S
C654 C652 1.419 . S
C654 C655 1.362 . S
C655 H645 0.930 . S
C655 C648 1.409 . S
C655 C654 1.362 . S
H656 C662 0.930 . S
H657 C665 0.930 1_455 S
H658 C666 0.930 . S
H659 C667 0.930 . S
H660 C670 0.930 . S
H661 C671 0.930 . S
C662 H656 0.930 . S
C662 C663 1.355 . S
C662 C664 1.415 . S
C663 C662 1.355 . S
C663 C665 1.419 . S
C664 C662 1.415 . S
C664 C669 1.425 . S
C664 C671 1.409 . S
C665 H657 0.930 1_655 S
C665 C663 1.419 . S
C665 C666 1.362 . S
C666 H658 0.930 . S
C666 C665 1.362 . S
C666 C669 1.409 . S
C667 H659 0.930 . S
C667 C668 1.355 . S
C667 C669 1.415 . S
C668 C667 1.355 . S
C668 C670 1.419 . S
C669 C664 1.425 . S
C669 C666 1.409 . S
C669 C667 1.415 . S
C670 H660 0.930 . S
C670 C668 1.419 . S
C670 C671 1.362 . S
C671 H661 0.930 . S
C671 C664 1.409 . S
C671 C670 1.362 . S
H672 C678 0.930 . S
H673 C681 0.930 . S
H674 C682 0.930 . S
H675 C683 0.930 . S
H676 C686 0.930 . S
H677 C687 0.930 . S
C678 H672 0.930 . S
C678 C679 1.355 . S
C678 C680 1.415 . S
C679 C678 1.355 . S
C679 C681 1.419 . S
C680 C678 1.415 . S
C680 C685 1.425 . S
C680 C687 1.409 . S
C681 H673 0.930 . S
C681 C679 1.419 . S
C681 C682 1.362 . S
C682 H674 0.930 . S
C682 C681 1.362 . S
C682 C685 1.409 . S
C683 H675 0.930 . S
C683 C684 1.355 . S
C683 C685 1.415 . S
C684 C683 1.355 . S
C684 C686 1.419 . S
C685 C680 1.425 . S
C685 C682 1.409 . S
C685 C683 1.415 . S
C686 H676 0.930 . S
C686 C684 1.419 . S
C686 C687 1.362 . S
C687 H677 0.930 . S
C687 C680 1.409 . S
C687 C686 1.362 . S
H688 C694 0.930 . S
H689 C697 0.930 . S
H690 C698 0.930 . S
H691 C699 0.930 . S
H692 C702 0.930 . S
H693 C703 0.930 . S
C694 H688 0.930 . S
C694 C695 1.355 . S
C694 C696 1.415 . S
C695 C694 1.355 . S
C695 C697 1.419 . S
C696 C694 1.415 . S
C696 C701 1.425 . S
C696 C703 1.409 . S
C697 H689 0.930 . S
C697 C695 1.419 . S
C697 C698 1.362 . S
C698 H690 0.930 . S
C698 C697 1.362 . S
C698 C701 1.409 . S
C699 H691 0.930 . S
C699 C700 1.355 . S
C699 C701 1.415 . S
C700 C699 1.355 . S
C700 C702 1.419 . S
C701 C696 1.425 . S
C701 C698 1.409 . S
C701 C699 1.415 . S
C702 H692 0.930 . S
C702 C700 1.419 . S
C702 C703 1.362 . S
C703 H693 0.930 . S
C703 C696 1.409 . S
C703 C702 1.362 . S
H704 C710 0.930 . S
H705 C713 0.930 . S
H706 C714 0.930 . S
H707 C715 0.930 . S
H708 C718 0.930 . S
H709 C719 0.930 . S
C710 H704 0.930 . S
C710 C711 1.355 . S
C710 C712 1.415 . S
C711 C710 1.355 . S
C711 C713 1.419 . S
C712 C710 1.415 . S
C712 C717 1.425 . S
C712 C719 1.409 . S
C713 H705 0.930 . S
C713 C711 1.419 . S
C713 C714 1.362 . S
C714 H706 0.930 . S
C714 C713 1.362 . S
C714 C717 1.409 . S
C715 H707 0.930 . S
C715 C716 1.355 . S
C715 C717 1.415 . S
C716 C715 1.355 . S
C716 C718 1.419 . S
C717 C712 1.425 . S
C717 C714 1.409 . S
C717 C715 1.415 . S
C718 H708 0.930 . S
C718 C716 1.419 . S
C718 C719 1.362 . S
C719 H709 0.930 . S
C719 C712 1.409 . S
C719 C718 1.362 . S
H720 C726 0.930 . S
H721 C729 0.930 . S
H722 C730 0.930 . S
H723 C731 0.930 1_655 S
H724 C734 0.930 . S
H725 C735 0.930 . S
C726 H720 0.930 . S
C726 C727 1.355 . S
C726 C728 1.415 . S
C727 C726 1.355 . S
C727 C729 1.419 1_445 S
C728 C726 1.415 . S
C728 C733 1.425 1_545 S
C728 C735 1.409 . S
C729 H721 0.930 . S
C729 C727 1.419 1_665 S
C729 C730 1.362 . S
C730 H722 0.930 . S
C730 C729 1.362 . S
C730 C733 1.409 1_655 S
C731 H723 0.930 1_455 S
C731 C732 1.355 . S
C731 C733 1.415 . S
C732 C731 1.355 . S
C732 C734 1.419 1_565 S
C733 C728 1.425 1_565 S
C733 C730 1.409 1_455 S
C733 C731 1.415 . S
C734 H724 0.930 . S
C734 C732 1.419 1_545 S
C734 C735 1.362 . S
C735 H725 0.930 . S
C735 C728 1.409 . S
C735 C734 1.362 . S
H736 C742 0.930 . S
H737 C745 0.930 . S
H738 C746 0.930 . S
H739 C747 0.930 . S
H740 C750 0.930 . S
H741 C751 0.930 . S
C742 H736 0.930 . S
C742 C743 1.355 . S
C742 C744 1.415 . S
C743 C742 1.355 . S
C743 C745 1.419 . S
C744 C742 1.415 . S
C744 C749 1.425 1_556 S
C744 C751 1.409 1_556 S
C745 H737 0.930 . S
C745 C743 1.419 . S
C745 C746 1.362 . S
C746 H738 0.930 . S
C746 C745 1.362 . S
C746 C749 1.409 1_556 S
C747 H739 0.930 . S
C747 C748 1.355 . S
C747 C749 1.415 . S
C748 C747 1.355 . S
C748 C750 1.419 . S
C749 C744 1.425 1_554 S
C749 C746 1.409 1_554 S
C749 C747 1.415 . S
C750 H740 0.930 . S
C750 C748 1.419 . S
C750 C751 1.362 . S
C751 H741 0.930 . S
C751 C744 1.409 1_554 S
C751 C750 1.362 . S
H752 C758 0.930 . S
H753 C761 0.930 . S
H754 C762 0.930 . S
H755 C763 0.930 . S
H756 C766 0.930 . S
H757 C767 0.930 . S
C758 H752 0.930 . S
C758 C759 1.355 . S
C758 C760 1.415 . S
C759 C758 1.355 . S
C759 C761 1.419 1_565 S
C760 C758 1.415 . S
C760 C765 1.425 1_565 S
C760 C767 1.409 . S
C761 H753 0.930 . S
C761 C759 1.419 1_545 S
C761 C762 1.362 . S
C762 H754 0.930 . S
C762 C761 1.362 . S
C762 C765 1.409 . S
C763 H755 0.930 . S
C763 C764 1.355 . S
C763 C765 1.415 . S
C764 C763 1.355 . S
C764 C766 1.419 1_545 S
C765 C760 1.425 1_545 S
C765 C762 1.409 . S
C765 C763 1.415 . S
C766 H756 0.930 . S
C766 C764 1.419 1_565 S
C766 C767 1.362 . S
C767 H757 0.930 . S
C767 C760 1.409 . S
C767 C766 1.362 . S
H768 C774 0.930 . S
H769 C777 0.930 . S
H770 C778 0.930 . S
H771 C779 0.930 . S
H772 C782 0.930 . S
H773 C783 0.930 . S
C774 H768 0.930 . S
C774 C775 1.355 . S
C774 C776 1.415 . S
C775 C774 1.355 . S
C775 C777 1.419 . S
C776 C774 1.415 . S
C776 C781 1.425 . S
C776 C783 1.409 . S
C777 H769 0.930 . S
C777 C775 1.419 . S
C777 C778 1.362 . S
C778 H770 0.930 . S
C778 C777 1.362 . S
C778 C781 1.409 . S
C779 H771 0.930 . S
C779 C780 1.355 . S
C779 C781 1.415 . S
C780 C779 1.355 . S
C780 C782 1.419 . S
C781 C776 1.425 . S
C781 C778 1.409 . S
C781 C779 1.415 . S
C782 H772 0.930 . S
C782 C780 1.419 . S
C782 C783 1.362 . S
C783 H773 0.930 . S
C783 C776 1.409 . S
C783 C782 1.362 . S
H784 C790 0.930 . S
H785 C793 0.930 . S
H786 C794 0.930 . S
H787 C795 0.930 . S
H788 C798 0.930 . S
H789 C799 0.930 . S
C790 H784 0.930 . S
C790 C791 1.355 1_455 S
C790 C792 1.415 . S
C791 C790 1.355 1_655 S
C791 C793 1.419 . S
C792 C790 1.415 . S
C792 C797 1.425 1_455 S
C792 C799 1.409 . S
C793 H785 0.930 . S
C793 C791 1.419 . S
C793 C794 1.362 . S
C794 H786 0.930 . S
C794 C793 1.362 . S
C794 C797 1.409 . S
C795 H787 0.930 . S
C795 C796 1.355 1_655 S
C795 C797 1.415 . S
C796 C795 1.355 1_455 S
C796 C798 1.419 . S
C797 C792 1.425 1_655 S
C797 C794 1.409 . S
C797 C795 1.415 . S
C798 H788 0.930 . S
C798 C796 1.419 . S
C798 C799 1.362 . S
C799 H789 0.930 . S
C799 C792 1.409 . S
C799 C798 1.362 . S
H800 C806 0.930 . S
H801 C809 0.930 . S
H802 C810 0.930 . S
H803 C811 0.930 . S
H804 C814 0.930 . S
H805 C815 0.930 . S
C806 H800 0.930 . S
C806 C807 1.355 . S
C806 C808 1.415 . S
C807 C806 1.355 . S
C807 C809 1.419 . S
C808 C806 1.415 . S
C808 C813 1.425 1_655 S
C808 C815 1.409 1_655 S
C809 H801 0.930 . S
C809 C807 1.419 . S
C809 C810 1.362 . S
C810 H802 0.930 . S
C810 C809 1.362 . S
C810 C813 1.409 1_655 S
C811 H803 0.930 . S
C811 C812 1.355 . S
C811 C813 1.415 . S
C812 C811 1.355 . S
C812 C814 1.419 . S
C813 C808 1.425 1_455 S
C813 C810 1.409 1_455 S
C813 C811 1.415 . S
C814 H804 0.930 . S
C814 C812 1.419 . S
C814 C815 1.362 . S
C815 H805 0.930 . S
C815 C808 1.409 1_455 S
C815 C814 1.362 . S
H816 C822 0.930 . S
H817 C825 0.930 . S
H818 C826 0.930 . S
H819 C827 0.930 . S
H820 C830 0.930 . S
H821 C831 0.930 . S
C822 H816 0.930 . S
C822 C823 1.355 . S
C822 C824 1.415 . S
C823 C822 1.355 . S
C823 C825 1.419 . S
C824 C822 1.415 . S
C824 C829 1.425 . S
C824 C831 1.409 . S
C825 H817 0.930 . S
C825 C823 1.419 . S
C825 C826 1.362 . S
C826 H818 0.930 . S
C826 C825 1.362 . S
C826 C829 1.409 . S
C827 H819 0.930 . S
C827 C828 1.355 . S
C827 C829 1.415 . S
C828 C827 1.355 . S
C828 C830 1.419 . S
C829 C824 1.425 . S
C829 C826 1.409 . S
C829 C827 1.415 . S
C830 H820 0.930 . S
C830 C828 1.419 . S
C830 C831 1.362 . S
C831 H821 0.930 . S
C831 C824 1.409 . S
C831 C830 1.362 . S
H832 C838 0.930 . S
H833 C841 0.930 . S
H834 C842 0.930 . S
H835 C843 0.930 . S
H836 C846 0.930 . S
H837 C847 0.930 . S
C838 H832 0.930 . S
C838 C839 1.355 . S
C838 C840 1.415 . S
C839 C838 1.355 . S
C839 C841 1.419 . S
C840 C838 1.415 . S
C840 C845 1.425 . S
C840 C847 1.409 . S
C841 H833 0.930 . S
C841 C839 1.419 . S
C841 C842 1.362 . S
C842 H834 0.930 . S
C842 C841 1.362 . S
C842 C845 1.409 . S
C843 H835 0.930 . S
C843 C844 1.355 . S
C843 C845 1.415 . S
C844 C843 1.355 . S
C844 C846 1.419 . S
C845 C840 1.425 . S
C845 C842 1.409 . S
C845 C843 1.415 . S
C846 H836 0.930 . S
C846 C844 1.419 . S
C846 C847 1.362 . S
C847 H837 0.930 . S
C847 C840 1.409 . S
C847 C846 1.362 . S
H848 C854 0.930 . S
H849 C857 0.930 . S
H850 C858 0.930 . S
H851 C859 0.930 . S
H852 C862 0.930 . S
H853 C863 0.930 . S
C854 H848 0.930 . S
C854 C855 1.355 . S
C854 C856 1.415 . S
C855 C854 1.355 . S
C855 C857 1.419 . S
C856 C854 1.415 . S
C856 C861 1.425 . S
C856 C863 1.409 . S
C857 H849 0.930 . S
C857 C855 1.419 . S
C857 C858 1.362 . S
C858 H850 0.930 . S
C858 C857 1.362 . S
C858 C861 1.409 . S
C859 H851 0.930 . S
C859 C860 1.355 . S
C859 C861 1.415 . S
C860 C859 1.355 . S
C860 C862 1.419 . S
C861 C856 1.425 . S
C861 C858 1.409 . S
C861 C859 1.415 . S
C862 H852 0.930 . S
C862 C860 1.419 . S
C862 C863 1.362 . S
C863 H853 0.930 . S
C863 C856 1.409 . S
C863 C862 1.362 . S
H864 C870 0.930 . S
H865 C873 0.930 . S
H866 C874 0.930 . S
H867 C875 0.930 . S
H868 C878 0.930 . S
H869 C879 0.930 . S
C870 H864 0.930 . S
C870 C871 1.355 . S
C870 C872 1.415 . S
C871 C870 1.355 . S
C871 C873 1.419 . S
C872 C870 1.415 . S
C872 C877 1.425 1_455 S
C872 C879 1.409 1_455 S
C873 H865 0.930 . S
C873 C871 1.419 . S
C873 C874 1.362 . S
C874 H866 0.930 . S
C874 C873 1.362 . S
C874 C877 1.409 1_455 S
C875 H867 0.930 . S
C875 C876 1.355 . S
C875 C877 1.415 . S
C876 C875 1.355 . S
C876 C878 1.419 . S
C877 C872 1.425 1_655 S
C877 C874 1.409 1_655 S
C877 C875 1.415 . S
C878 H868 0.930 . S
C878 C876 1.419 . S
C878 C879 1.362 . S
C879 H869 0.930 . S
C879 C872 1.409 1_655 S
C879 C878 1.362 . S
H880 C886 0.930 . S
H881 C889 0.930 . S
H882 C890 0.930 . S
H883 C891 0.930 . S
H884 C894 0.930 . S
H885 C895 0.930 . S
C886 H880 0.930 . S
C886 C887 1.355 1_655 S
C886 C888 1.415 . S
C887 C886 1.355 1_455 S
C887 C889 1.419 . S
C888 C886 1.415 . S
C888 C893 1.425 1_655 S
C888 C895 1.409 . S
C889 H881 0.930 . S
C889 C887 1.419 . S
C889 C890 1.362 . S
C890 H882 0.930 . S
C890 C889 1.362 . S
C890 C893 1.409 . S
C891 H883 0.930 . S
C891 C892 1.355 1_455 S
C891 C893 1.415 . S
C892 C891 1.355 1_655 S
C892 C894 1.419 . S
C893 C888 1.425 1_455 S
C893 C890 1.409 . S
C893 C891 1.415 . S
C894 H884 0.930 . S
C894 C892 1.419 . S
C894 C895 1.362 . S
C895 H885 0.930 . S
C895 C888 1.409 . S
C895 C894 1.362 . S
H896 C902 0.930 . S
H897 C905 0.930 . S
H898 C906 0.930 . S
H899 C907 0.930 . S
H900 C910 0.930 . S
H901 C911 0.930 . S
C902 H896 0.930 . S
C902 C903 1.355 . S
C902 C904 1.415 . S
C903 C902 1.355 . S
C903 C905 1.419 . S
C904 C902 1.415 . S
C904 C909 1.425 . S
C904 C911 1.409 . S
C905 H897 0.930 . S
C905 C903 1.419 . S
C905 C906 1.362 . S
C906 H898 0.930 . S
C906 C905 1.362 . S
C906 C909 1.409 . S
C907 H899 0.930 . S
C907 C908 1.355 . S
C907 C909 1.415 . S
C908 C907 1.355 . S
C908 C910 1.419 . S
C909 C904 1.425 . S
C909 C906 1.409 . S
C909 C907 1.415 . S
C910 H900 0.930 . S
C910 C908 1.419 . S
C910 C911 1.362 . S
C911 H901 0.930 . S
C911 C904 1.409 . S
C911 C910 1.362 . S
H912 C918 0.930 . S
H913 C921 0.930 . S
H914 C922 0.930 . S
H915 C923 0.930 . S
H916 C926 0.930 . S
H917 C927 0.930 . S
C918 H912 0.930 . S
C918 C919 1.355 . S
C918 C920 1.415 . S
C919 C918 1.355 . S
C919 C921 1.419 . S
C920 C918 1.415 . S
C920 C925 1.425 1_545 S
C920 C927 1.409 1_545 S
C921 H913 0.930 . S
C921 C919 1.419 . S
C921 C922 1.362 . S
C922 H914 0.930 . S
C922 C921 1.362 . S
C922 C925 1.409 1_545 S
C923 H915 0.930 . S
C923 C924 1.355 . S
C923 C925 1.415 . S
C924 C923 1.355 . S
C924 C926 1.419 . S
C925 C920 1.425 1_565 S
C925 C922 1.409 1_565 S
C925 C923 1.415 . S
C926 H916 0.930 . S
C926 C924 1.419 . S
C926 C927 1.362 . S
C927 H917 0.930 . S
C927 C920 1.409 1_565 S
C927 C926 1.362 . S
H928 C934 0.930 . S
H929 C937 0.930 . S
H930 C938 0.930 . S
H931 C939 0.930 . S
H932 C942 0.930 . S
H933 C943 0.930 . S
C934 H928 0.930 . S
C934 C935 1.355 1_556 S
C934 C936 1.415 . S
C935 C934 1.355 1_554 S
C935 C937 1.419 . S
C936 C934 1.415 . S
C936 C941 1.425 1_556 S
C936 C943 1.409 . S
C937 H929 0.930 . S
C937 C935 1.419 . S
C937 C938 1.362 . S
C938 H930 0.930 . S
C938 C937 1.362 . S
C938 C941 1.409 . S
C939 H931 0.930 . S
C939 C940 1.355 1_554 S
C939 C941 1.415 . S
C940 C939 1.355 1_556 S
C940 C942 1.419 . S
C941 C936 1.425 1_554 S
C941 C938 1.409 . S
C941 C939 1.415 . S
C942 H932 0.930 . S
C942 C940 1.419 . S
C942 C943 1.362 . S
C943 H933 0.930 . S
C943 C936 1.409 . S
C943 C942 1.362 . S
H944 C950 0.930 . S
H945 C953 0.930 . S
H946 C954 0.930 . S
H947 C955 0.930 . S
H948 C958 0.930 . S
H949 C959 0.930 . S
C950 H944 0.930 . S
C950 C951 1.355 . S
C950 C952 1.415 . S
C951 C950 1.355 . S
C951 C953 1.419 . S
C952 C950 1.415 . S
C952 C957 1.425 1_545 S
C952 C959 1.409 1_545 S
C953 H945 0.930 . S
C953 C951 1.419 . S
C953 C954 1.362 . S
C954 H946 0.930 . S
C954 C953 1.362 . S
C954 C957 1.409 1_545 S
C955 H947 0.930 . S
C955 C956 1.355 . S
C955 C957 1.415 . S
C956 C955 1.355 . S
C956 C958 1.419 . S
C957 C952 1.425 1_565 S
C957 C954 1.409 1_565 S
C957 C955 1.415 . S
C958 H948 0.930 . S
C958 C956 1.419 . S
C958 C959 1.362 . S
C959 H949 0.930 . S
C959 C952 1.409 1_565 S
C959 C958 1.362 . S
H960 C966 0.930 . S
H961 C969 0.930 . S
H962 C970 0.930 . S
H963 C971 0.930 . S
H964 C974 0.930 . S
H965 C975 0.930 . S
C966 H960 0.930 . S
C966 C967 1.355 1_554 S
C966 C968 1.415 . S
C967 C966 1.355 1_556 S
C967 C969 1.419 1_565 S
C968 C966 1.415 . S
C968 C973 1.425 1_564 S
C968 C975 1.409 . S
C969 H961 0.930 . S
C969 C967 1.419 1_545 S
C969 C970 1.362 . S
C970 H962 0.930 . S
C970 C969 1.362 . S
C970 C973 1.409 . S
C971 H963 0.930 . S
C971 C972 1.355 1_546 S
C971 C973 1.415 . S
C972 C971 1.355 1_564 S
C972 C974 1.419 . S
C973 C968 1.425 1_546 S
C973 C970 1.409 . S
C973 C971 1.415 . S
C974 H964 0.930 . S
C974 C972 1.419 . S
C974 C975 1.362 . S
C975 H965 0.930 . S
C975 C968 1.409 . S
C975 C974 1.362 . S
H976 C982 0.930 . S
H977 C985 0.930 . S
H978 C986 0.930 . S
H979 C987 0.930 . S
H980 C990 0.930 . S
H981 C991 0.930 . S
C982 H976 0.930 . S
C982 C983 1.355 . S
C982 C984 1.415 . S
C983 C982 1.355 . S
C983 C985 1.419 . S
C984 C982 1.415 . S
C984 C989 1.425 . S
C984 C991 1.409 . S
C985 H977 0.930 . S
C985 C983 1.419 . S
C985 C986 1.362 . S
C986 H978 0.930 . S
C986 C985 1.362 . S
C986 C989 1.409 . S
C987 H979 0.930 . S
C987 C988 1.355 . S
C987 C989 1.415 . S
C988 C987 1.355 . S
C988 C990 1.419 . S
C989 C984 1.425 . S
C989 C986 1.409 . S
C989 C987 1.415 . S
C990 H980 0.930 . S
C990 C988 1.419 . S
C990 C991 1.362 . S
C991 H981 0.930 . S
C991 C984 1.409 . S
C991 C990 1.362 . S
H992 C998 0.930 . S
H993 C1001 0.930 . S
H994 C1002 0.930 . S
H995 C1003 0.930 . S
H996 C1006 0.930 . S
H997 C1007 0.930 . S
C998 H992 0.930 . S
C998 C999 1.355 . S
C998 C1000 1.415 . S
C999 C998 1.355 . S
C999 C1001 1.419 . S
C1000 C998 1.415 . S
C1000 C1005 1.425 . S
C1000 C1007 1.409 . S
C1001 H993 0.930 . S
C1001 C999 1.419 . S
C1001 C1002 1.362 . S
C1002 H994 0.930 . S
C1002 C1001 1.362 . S
C1002 C1005 1.409 . S
C1003 H995 0.930 . S
C1003 C1004 1.355 . S
C1003 C1005 1.415 . S
C1004 C1003 1.355 . S
C1004 C1006 1.419 . S
C1005 C1000 1.425 . S
C1005 C1002 1.409 . S
C1005 C1003 1.415 . S
C1006 H996 0.930 . S
C1006 C1004 1.419 . S
C1006 C1007 1.362 . S
C1007 H997 0.930 . S
C1007 C1000 1.409 . S
C1007 C1006 1.362 . S
H1008 C1014 0.930 . S
H1009 C1017 0.930 . S
H1010 C1018 0.930 . S
H1011 C1019 0.930 . S
H1012 C1022 0.930 . S
H1013 C1023 0.930 . S
C1014 H1008 0.930 . S
C1014 C1015 1.355 . S
C1014 C1016 1.415 . S
C1015 C1014 1.355 . S
C1015 C1017 1.419 . S
C1016 C1014 1.415 . S
C1016 C1021 1.425 1_556 S
C1016 C1023 1.409 1_556 S
C1017 H1009 0.930 . S
C1017 C1015 1.419 . S
C1017 C1018 1.362 . S
C1018 H1010 0.930 . S
C1018 C1017 1.362 . S
C1018 C1021 1.409 1_556 S
C1019 H1011 0.930 . S
C1019 C1020 1.355 . S
C1019 C1021 1.415 . S
C1020 C1019 1.355 . S
C1020 C1022 1.419 . S
C1021 C1016 1.425 1_554 S
C1021 C1018 1.409 1_554 S
C1021 C1019 1.415 . S
C1022 H1012 0.930 . S
C1022 C1020 1.419 . S
C1022 C1023 1.362 . S
C1023 H1013 0.930 . S
C1023 C1016 1.409 1_554 S
C1023 C1022 1.362 . S
H1024 C1030 0.930 . S
H1025 C1033 0.930 . S
H1026 C1034 0.930 . S
H1027 C1035 0.930 . S
H1028 C1038 0.930 . S
H1029 C1039 0.930 . S
C1030 H1024 0.930 . S
C1030 C1031 1.355 . S
C1030 C1032 1.415 . S
C1031 C1030 1.355 . S
C1031 C1033 1.419 . S
C1032 C1030 1.415 . S
C1032 C1037 1.425 . S
C1032 C1039 1.409 . S
C1033 H1025 0.930 . S
C1033 C1031 1.419 . S
C1033 C1034 1.362 . S
C1034 H1026 0.930 . S
C1034 C1033 1.362 . S
C1034 C1037 1.409 . S
C1035 H1027 0.930 . S
C1035 C1036 1.355 . S
C1035 C1037 1.415 . S
C1036 C1035 1.355 . S
C1036 C1038 1.419 . S
C1037 C1032 1.425 . S
C1037 C1034 1.409 . S
C1037 C1035 1.415 . S
C1038 H1028 0.930 . S
C1038 C1036 1.419 . S
C1038 C1039 1.362 . S
C1039 H1029 0.930 . S
C1039 C1032 1.409 . S
C1039 C1038 1.362 . S
H1040 C1046 0.930 . S
H1041 C1049 0.930 . S
H1042 C1050 0.930 . S
H1043 C1051 0.930 . S
H1044 C1054 0.930 . S
H1045 C1055 0.930 . S
C1046 H1040 0.930 . S
C1046 C1047 1.355 . S
C1046 C1048 1.415 . S
C1047 C1046 1.355 . S
C1047 C1049 1.419 . S
C1048 C1046 1.415 . S
C1048 C1053 1.425 . S
C1048 C1055 1.409 . S
C1049 H1041 0.930 . S
C1049 C1047 1.419 . S
C1049 C1050 1.362 . S
C1050 H1042 0.930 . S
C1050 C1049 1.362 . S
C1050 C1053 1.409 . S
C1051 H1043 0.930 . S
C1051 C1052 1.355 . S
C1051 C1053 1.415 . S
C1052 C1051 1.355 . S
C1052 C1054 1.419 . S
C1053 C1048 1.425 . S
C1053 C1050 1.409 . S
C1053 C1051 1.415 . S
C1054 H1044 0.930 . S
C1054 C1052 1.419 . S
C1054 C1055 1.362 . S
C1055 H1045 0.930 . S
C1055 C1048 1.409 . S
C1055 C1054 1.362 . S
H1056 C1062 0.930 . S
H1057 C1065 0.930 . S
H1058 C1066 0.930 . S
H1059 C1067 0.930 . S
H1060 C1070 0.930 . S
H1061 C1071 0.930 . S
C1062 H1056 0.930 . S
C1062 C1063 1.355 . S
C1062 C1064 1.415 . S
C1063 C1062 1.355 . S
C1063 C1065 1.419 1_655 S
C1064 C1062 1.415 . S
C1064 C1069 1.425 . S
C1064 C1071 1.409 . S
C1065 H1057 0.930 . S
C1065 C1063 1.419 1_455 S
C1065 C1066 1.362 . S
C1066 H1058 0.930 . S
C1066 C1065 1.362 . S
C1066 C1069 1.409 1_455 S
C1067 H1059 0.930 . S
C1067 C1068 1.355 1_455 S
C1067 C1069 1.415 1_455 S
C1068 C1067 1.355 1_655 S
C1068 C1070 1.419 . S
C1069 C1064 1.425 . S
C1069 C1066 1.409 1_655 S
C1069 C1067 1.415 1_655 S
C1070 H1060 0.930 . S
C1070 C1068 1.419 . S
C1070 C1071 1.362 . S
C1071 H1061 0.930 . S
C1071 C1064 1.409 . S
C1071 C1070 1.362 . S
H1072 C1078 0.930 . S
H1073 C1081 0.930 . S
H1074 C1082 0.930 . S
H1075 C1083 0.930 . S
H1076 C1086 0.930 . S
H1077 C1087 0.930 . S
C1078 H1072 0.930 . S
C1078 C1079 1.355 . S
C1078 C1080 1.415 . S
C1079 C1078 1.355 . S
C1079 C1081 1.419 . S
C1080 C1078 1.415 . S
C1080 C1085 1.425 . S
C1080 C1087 1.409 . S
C1081 H1073 0.930 . S
C1081 C1079 1.419 . S
C1081 C1082 1.362 . S
C1082 H1074 0.930 . S
C1082 C1081 1.362 . S
C1082 C1085 1.409 . S
C1083 H1075 0.930 . S
C1083 C1084 1.355 . S
C1083 C1085 1.415 . S
C1084 C1083 1.355 . S
C1084 C1086 1.419 . S
C1085 C1080 1.425 . S
C1085 C1082 1.409 . S
C1085 C1083 1.415 . S
C1086 H1076 0.930 . S
C1086 C1084 1.419 . S
C1086 C1087 1.362 . S
C1087 H1077 0.930 . S
C1087 C1080 1.409 . S
C1087 C1086 1.362 . S
C583 C4 1.776 . S
C588 C256 1.778 . S
C599 C40 1.806 . S
C604 C148 1.806 . S
C615 C184 1.790 . S
C620 C76 1.790 . S
C631 C112 1.762 . S
C636 C220 1.762 . S
C647 C292 1.800 . S
C652 C436 1.800 . S
C663 C328 1.777 . S
C668 C508 1.777 . S
C679 C400 1.783 . S
C684 C364 1.783 . S
C695 C544 1.796 . S
C700 C472 1.797 . S
C711 C3 1.304 . S
C716 C219 1.305 . S
C727 C266 1.099 . S
C732 C50 1.158 . S
C743 C75 1.275 . S
C748 C147 1.274 . S
C759 C194 1.149 . S
C764 C122 1.102 . S
C775 C2 1.423 . S
C780 C506 1.422 . S
C791 C399 1.299 . S
C796 C39 1.296 . S
C807 C470 1.405 . S
C812 C74 1.387 . S
C823 C435 1.267 . S
C828 C111 1.268 . S
C839 C362 1.417 . S
C844 C146 1.437 . S
C855 C183 1.291 . S
C860 C543 1.294 . S
C871 C218 1.408 . S
C876 C290 1.391 . S
C887 C255 1.304 . S
C892 C327 1.301 . S
C903 C14 1.131 . S
C908 C158 1.079 . S
C919 C302 1.148 . S
C924 C482 1.139 . S
C935 C434 1.372 . S
C940 C326 1.382 . S
C951 C518 1.090 . S
C956 C374 1.151 . S
C967 C254 1.387 . S
C972 C110 1.369 . S
C983 C86 1.150 . S
C988 C230 1.089 . S
C999 C398 1.379 . S
C1004 C542 1.374 . S
C1015 C471 1.300 . S
C1020 C363 1.303 . S
C1031 C554 1.108 . S
C1036 C446 1.148 . S
C1047 C507 1.298 . S
C1052 C291 1.294 . S
C1063 C410 1.087 . S
C1068 C338 1.149 . S
C1079 C38 1.374 . S
C1084 C182 1.380 . S
