# Generated by pormake.
# Topology smw, (6)-cn, num edge types: 1
# Building blocks:
#     Node 0, Type 0, BuildingBlock: IZENUY_clean_sbu_0, # of connection points: 6
#     Node 1, Type 0, BuildingBlock: IZENUY_clean_sbu_0, # of connection points: 6
#     Node 2, Type 0, BuildingBlock: IZENUY_clean_sbu_0, # of connection points: 6
#     Node 3, Type 0, BuildingBlock: IZENUY_clean_sbu_0, # of connection points: 6
#     Node 4, Type 0, BuildingBlock: IZENUY_clean_sbu_0, # of connection points: 6
#     Node 5, Type 0, BuildingBlock: IZENUY_clean_sbu_0, # of connection points: 6
#     Node 6, Type 0, BuildingBlock: IZENUY_clean_sbu_0, # of connection points: 6
#     Node 7, Type 0, BuildingBlock: IZENUY_clean_sbu_0, # of connection points: 6
#     Node 8, Type 0, BuildingBlock: IZENUY_clean_sbu_0, # of connection points: 6
#     Node 9, Type 0, BuildingBlock: IZENUY_clean_sbu_0, # of connection points: 6
#     Node 10, Type 0, BuildingBlock: IZENUY_clean_sbu_0, # of connection points: 6
#     Node 11, Type 0, BuildingBlock: IZENUY_clean_sbu_0, # of connection points: 6
#     Edge 12, Type (0, 0), BuildingBlock: AJUNOK_clean_linker_0, # of connection points: 2
#     Edge 13, Type (0, 0), BuildingBlock: AJUNOK_clean_linker_0, # of connection points: 2
#     Edge 14, Type (0, 0), BuildingBlock: AJUNOK_clean_linker_0, # of connection points: 2
#     Edge 15, Type (0, 0), BuildingBlock: AJUNOK_clean_linker_0, # of connection points: 2
#     Edge 16, Type (0, 0), BuildingBlock: AJUNOK_clean_linker_0, # of connection points: 2
#     Edge 17, Type (0, 0), BuildingBlock: AJUNOK_clean_linker_0, # of connection points: 2
#     Edge 18, Type (0, 0), BuildingBlock: AJUNOK_clean_linker_0, # of connection points: 2
#     Edge 19, Type (0, 0), BuildingBlock: AJUNOK_clean_linker_0, # of connection points: 2
#     Edge 20, Type (0, 0), BuildingBlock: AJUNOK_clean_linker_0, # of connection points: 2
#     Edge 21, Type (0, 0), BuildingBlock: AJUNOK_clean_linker_0, # of connection points: 2
#     Edge 22, Type (0, 0), BuildingBlock: AJUNOK_clean_linker_0, # of connection points: 2
#     Edge 23, Type (0, 0), BuildingBlock: AJUNOK_clean_linker_0, # of connection points: 2
#     Edge 24, Type (0, 0), BuildingBlock: AJUNOK_clean_linker_0, # of connection points: 2
#     Edge 25, Type (0, 0), BuildingBlock: AJUNOK_clean_linker_0, # of connection points: 2
#     Edge 26, Type (0, 0), BuildingBlock: AJUNOK_clean_linker_0, # of connection points: 2
#     Edge 27, Type (0, 0), BuildingBlock: AJUNOK_clean_linker_0, # of connection points: 2
#     Edge 28, Type (0, 0), BuildingBlock: AJUNOK_clean_linker_0, # of connection points: 2
#     Edge 29, Type (0, 0), BuildingBlock: AJUNOK_clean_linker_0, # of connection points: 2
#     Edge 30, Type (0, 0), BuildingBlock: AJUNOK_clean_linker_0, # of connection points: 2
#     Edge 31, Type (0, 0), BuildingBlock: AJUNOK_clean_linker_0, # of connection points: 2
#     Edge 32, Type (0, 0), BuildingBlock: AJUNOK_clean_linker_0, # of connection points: 2
#     Edge 33, Type (0, 0), BuildingBlock: AJUNOK_clean_linker_0, # of connection points: 2
#     Edge 34, Type (0, 0), BuildingBlock: AJUNOK_clean_linker_0, # of connection points: 2
#     Edge 35, Type (0, 0), BuildingBlock: AJUNOK_clean_linker_0, # of connection points: 2
#     Edge 36, Type (0, 0), BuildingBlock: AJUNOK_clean_linker_0, # of connection points: 2
#     Edge 37, Type (0, 0), BuildingBlock: AJUNOK_clean_linker_0, # of connection points: 2
#     Edge 38, Type (0, 0), BuildingBlock: AJUNOK_clean_linker_0, # of connection points: 2
#     Edge 39, Type (0, 0), BuildingBlock: AJUNOK_clean_linker_0, # of connection points: 2
#     Edge 40, Type (0, 0), BuildingBlock: AJUNOK_clean_linker_0, # of connection points: 2
#     Edge 41, Type (0, 0), BuildingBlock: AJUNOK_clean_linker_0, # of connection points: 2
#     Edge 42, Type (0, 0), BuildingBlock: AJUNOK_clean_linker_0, # of connection points: 2
#     Edge 43, Type (0, 0), BuildingBlock: AJUNOK_clean_linker_0, # of connection points: 2
#     Edge 44, Type (0, 0), BuildingBlock: AJUNOK_clean_linker_0, # of connection points: 2
#     Edge 45, Type (0, 0), BuildingBlock: AJUNOK_clean_linker_0, # of connection points: 2
#     Edge 46, Type (0, 0), BuildingBlock: AJUNOK_clean_linker_0, # of connection points: 2
#     Edge 47, Type (0, 0), BuildingBlock: AJUNOK_clean_linker_0, # of connection points: 2
# Relax obj value: 0.143
# Max RMSD: 0.113
# Mean RMSD: 0.113
data_MOF--net-smw--node1-IZENUY_clean_sbu_0--edge1-AJUNOK_clean_linker_0
_symmetry_space_group_name_H-M    P1
_symmetry_Int_Tables_number       1
_symmetry_cell_setting            triclinic
loop_
_symmetry_equiv_pos_as_xyz
'x, y, z'
_cell_length_a     41.891906
_cell_length_b     41.964797
_cell_length_c     15.041258
_cell_angle_alpha  90.073372
_cell_angle_beta   90.082835
_cell_angle_gamma 119.98498
loop_
_atom_site_label
_atom_site_type_symbol
_atom_site_fract_x
_atom_site_fract_y
_atom_site_fract_z
_atom_type_partial_charge
Fe0 Fe 0.52021 0.179 0.00789 0.0
Fe1 Fe 0.4855 0.0955 0.0085 0.0
O2 O 0.48021 0.13477 0.0065 0.0
Fe3 Fe 0.43509 0.12899 1.00366 0.0
O4 O 0.44782 0.16951 0.93339 0.0
O5 O 0.50705 0.19238 0.90589 0.0
O6 O 0.54777 0.16526 0.93894 0.0
C7 C 0.53801 0.13786 0.88754 0.0
C8 C 0.47043 0.18745 0.12115 0.0
O9 O 0.50882 0.10768 0.90212 0.0
C10 C 0.42996 0.07536 0.12747 0.0
O11 O 0.53679 0.16959 0.11157 0.0
O12 O 0.5293 0.11683 0.06758 0.0
O13 O 0.4431 0.15597 0.10508 0.0
O14 O 0.49962 0.20021 0.07554 0.0
C15 C 0.42421 0.072 0.89581 0.0
O16 O 0.46251 0.08196 0.11468 0.0
O17 O 0.41462 0.08739 0.07489 0.0
C18 C 0.54301 0.14335 0.12132 0.0
O19 O 0.44285 0.06533 0.95038 0.0
O20 O 0.42328 0.10155 0.90124 0.0
C21 C 0.47666 0.19074 0.89 0.0
Fe22 Fe 0.35526 0.50812 0.01014 0.0
Fe23 Fe 0.40898 0.47947 0.99795 0.0
O24 O 0.363 0.47027 1.00434 0.0
Fe25 Fe 0.32529 0.42413 1.00396 0.0
O26 O 0.29497 0.43525 0.93655 0.0
O27 O 0.32986 0.49445 0.90702 0.0
O28 O 0.39603 0.5402 0.94596 0.0
C29 C 0.41386 0.5335 0.88873 0.0
C30 C 0.29884 0.45577 0.12158 0.0
O31 O 0.41665 0.50502 0.89493 0.0
C32 C 0.38005 0.42152 0.11367 0.0
O33 O 0.38045 0.5239 0.11465 0.0
O34 O 0.4283 0.52138 0.06505 0.0
O35 O 0.30676 0.43073 0.10864 0.0
O36 O 0.31294 0.4842 0.07385 0.0
C37 C 0.37179 0.41779 0.88411 0.0
O38 O 0.40415 0.45457 0.09917 0.0
O39 O 0.34978 0.40578 0.07078 0.0
C40 C 0.41376 0.53222 0.12235 0.0
O41 O 0.39897 0.43935 0.93123 0.0
O42 O 0.33999 0.41295 0.89916 0.0
C43 C 0.30154 0.46365 0.89177 0.0
Fe44 Fe 0.91649 0.31716 0.00859 0.0
Fe45 Fe 0.86303 0.34844 0.00815 0.0
O46 O 0.90821 0.35492 0.01007 0.0
Fe47 Fe 0.94579 0.40029 0.01428 0.0
O48 O 0.96148 0.39455 0.90729 0.0
O49 O 0.95851 0.34158 0.93791 0.0
O50 O 0.8901 0.29837 0.90637 0.0
C51 C 0.85773 0.2921 0.89196 0.0
C52 C 0.9712 0.36367 0.12279 0.0
O53 O 0.8439 0.30745 0.93789 0.0
C54 C 0.90043 0.40586 0.1345 0.0
O55 O 0.876 0.28719 0.07795 0.0
O56 O 0.85056 0.32107 0.10799 0.0
O57 O 0.97725 0.38893 0.06928 0.0
O58 O 0.94347 0.33209 0.11232 0.0
C59 C 0.89691 0.40923 0.90376 0.0
O60 O 0.87405 0.38823 0.08037 0.0
O61 O 0.93125 0.40785 0.12227 0.0
C62 C 0.85411 0.29345 0.12336 0.0
O63 O 0.87213 0.37579 0.90683 0.0
O64 O 0.92294 0.42171 0.9588 0.0
C65 C 0.97109 0.37094 0.89176 0.0
Fe66 Fe 0.57467 0.94277 0.99789 0.0
Fe67 Fe 0.62469 0.90855 0.0095 0.0
O68 O 0.57993 0.90359 0.00591 0.0
Fe69 Fe 0.53985 0.85945 0.00848 0.0
O70 O 0.51165 0.87169 0.93857 0.0
O71 O 0.55102 0.92719 0.89178 0.0
O72 O 0.61701 0.971 0.93717 0.0
C73 C 0.63664 0.9629 0.88985 0.0
C74 C 0.5179 0.89738 0.11609 0.0
O75 O 0.63804 0.93396 0.90411 0.0
C76 C 0.58779 0.85205 0.12892 0.0
O77 O 0.59822 0.96066 0.10223 0.0
O78 O 0.64494 0.95141 0.07586 0.0
O79 O 0.52354 0.8705 0.11034 0.0
O80 O 0.53125 0.92257 0.0586 0.0
C81 C 0.58427 0.84777 0.89395 0.0
O82 O 0.6153 0.88348 0.11448 0.0
O83 O 0.56019 0.8386 0.07769 0.0
C84 C 0.63041 0.96695 0.11907 0.0
O85 O 0.61179 0.8666 0.94415 0.0
O86 O 0.55367 0.84607 0.9074 0.0
C87 C 0.52144 0.89699 0.88163 0.0
Fe88 Fe 0.64921 0.55777 0.0107 0.0
Fe89 Fe 0.73214 0.6137 0.00836 0.0
O90 O 0.69522 0.56728 0.00789 0.0
Fe91 Fe 0.70329 0.52965 1.00462 0.0
O92 O 0.67772 0.51253 0.89955 0.0
O93 O 0.63008 0.51443 0.95103 0.0
O94 O 0.65491 0.58014 0.90521 0.0
C95 C 0.67926 0.61284 0.88792 0.0
C96 C 0.64475 0.50617 0.12644 0.0
O97 O 0.70734 0.63056 0.93777 0.0
C98 C 0.75609 0.57603 0.12445 0.0
O99 O 0.65849 0.59934 0.06955 0.0
O100 O 0.71595 0.62458 0.11205 0.0
O101 O 0.66276 0.4987 0.07104 0.0
O102 O 0.64175 0.5345 0.11688 0.0
C103 C 0.75969 0.58203 0.89305 0.0
O104 O 0.76258 0.6039 0.07798 0.0
O105 O 0.72909 0.54441 0.1077 0.0
C106 C 0.68374 0.61931 0.123 0.0
O107 O 0.75185 0.60715 0.90575 0.0
O108 O 0.74539 0.55337 0.94011 0.0
C109 C 0.64456 0.50488 0.89132 0.0
Fe110 Fe 0.10978 0.63849 0.99526 0.0
Fe111 Fe 0.14159 0.72234 0.00613 0.0
O112 O 0.14813 0.68361 1.00013 0.0
Fe113 Fe 0.19299 0.68941 0.99913 0.0
O114 O 0.18089 0.64907 0.92996 0.0
O115 O 0.12405 0.63019 0.8878 0.0
O116 O 0.0791 0.6509 0.9373 0.0
C117 C 0.08543 0.67849 0.89115 0.0
C118 C 0.15854 0.62978 0.10879 0.0
O119 O 0.1143 0.70916 0.90335 0.0
C120 C 0.20064 0.74433 0.12041 0.0
O121 O 0.09402 0.64435 0.10181 0.0
O122 O 0.09976 0.6988 0.07648 0.0
O123 O 0.18428 0.66278 0.10144 0.0
O124 O 0.1322 0.6167 0.05374 0.0
C125 C 0.20204 0.74477 0.88632 0.0
O126 O 0.16842 0.73906 0.10928 0.0
O127 O 0.21389 0.73095 0.0667 0.0
C128 C 0.08717 0.66948 0.12213 0.0
O129 O 0.18226 0.75206 0.93708 0.0
O130 O 0.20426 0.71609 0.89777 0.0
C131 C 0.15471 0.6318 0.87579 0.0
Fe132 Fe 0.91869 0.61537 0.50259 0.0
Fe133 Fe 0.86551 0.53162 0.5144 0.0
O134 O 0.91085 0.56972 0.51059 0.0
Fe135 Fe 0.94829 0.56151 0.51591 0.0
O136 O 0.98013 0.60459 0.57199 0.0
O137 O 0.94643 0.62954 0.60484 0.0
O138 O 0.87873 0.60638 0.57257 0.0
C139 C 0.85914 0.58012 0.62527 0.0
C140 C 0.97298 0.61447 0.38855 0.0
O141 O 0.85603 0.54874 0.61562 0.0
C142 C 0.89769 0.50413 0.40478 0.0
O143 O 0.89122 0.60504 0.40049 0.0
O144 O 0.84508 0.5528 0.44711 0.0
O145 O 0.96438 0.58202 0.40876 0.0
O146 O 0.96012 0.63179 0.43122 0.0
C147 C 0.90317 0.51209 0.63822 0.0
O148 O 0.87264 0.5124 0.4124 0.0
O149 O 0.92427 0.51687 0.45925 0.0
C150 C 0.85797 0.57961 0.39416 0.0
O151 O 0.87692 0.50285 0.58403 0.0
O152 O 0.93403 0.5404 0.6245 0.0
C153 C 0.9745 0.62636 0.61815 0.0
Fe154 Fe 0.32372 0.90639 0.50315 0.0
Fe155 Fe 0.35965 0.85729 0.50288 0.0
O156 O 0.36341 0.90121 0.50579 0.0
Fe157 Fe 0.40763 0.94078 0.51109 0.0
O158 O 0.39721 0.95279 0.61841 0.0
O159 O 0.34423 0.94748 0.57628 0.0
O160 O 0.30486 0.87861 0.60318 0.0
C161 C 0.30068 0.84695 0.61631 0.0
C162 C 0.37016 0.96449 0.39867 0.0
O163 O 0.31745 0.83496 0.5691 0.0
C164 C 0.4194 0.90056 0.3864 0.0
O165 O 0.29613 0.8661 0.43115 0.0
O166 O 0.33382 0.84547 0.39995 0.0
O167 O 0.39479 0.97099 0.4553 0.0
O168 O 0.33967 0.93472 0.40199 0.0
C169 C 0.41815 0.89129 0.61618 0.0
O170 O 0.40125 0.87227 0.43454 0.0
O171 O 0.41982 0.93027 0.40389 0.0
C172 C 0.30437 0.84586 0.38537 0.0
O173 O 0.38546 0.8653 0.60673 0.0
O174 O 0.43026 0.91934 0.56793 0.0
C175 C 0.37105 0.95912 0.63054 0.0
Fe176 Fe 0.52262 0.34582 0.50735 0.0
Fe177 Fe 0.49119 0.39698 0.49615 0.0
O178 O 0.4838 0.35189 0.50321 0.0
Fe179 Fe 0.43782 0.31411 0.50572 0.0
O180 O 0.44845 0.28622 0.58284 0.0
O181 O 0.50782 0.32117 0.61089 0.0
O182 O 0.55072 0.38761 0.57494 0.0
C183 C 0.54162 0.40691 0.62246 0.0
C184 C 0.47199 0.28686 0.39642 0.0
O185 O 0.51265 0.40811 0.60495 0.0
C186 C 0.43782 0.36231 0.37146 0.0
O187 O 0.54084 0.37024 0.40235 0.0
O188 O 0.53597 0.4174 0.44315 0.0
O189 O 0.44541 0.29255 0.40893 0.0
O190 O 0.50112 0.30312 0.4427 0.0
C191 C 0.42956 0.3641 0.60638 0.0
O192 O 0.47052 0.38726 0.38744 0.0
O193 O 0.42016 0.33607 0.42651 0.0
C194 C 0.54917 0.4033 0.39205 0.0
O195 O 0.44782 0.38663 0.54652 0.0
O196 O 0.42609 0.33241 0.60451 0.0
C197 C 0.47684 0.29389 0.62923 0.0
Fe198 Fe 0.13842 0.42323 0.51028 0.0
Fe199 Fe 0.19364 0.50706 0.49888 0.0
O200 O 0.14808 0.46964 0.50445 0.0
Fe201 Fe 0.11149 0.47897 0.50455 0.0
O202 O 0.09851 0.46013 0.61483 0.0
O203 O 0.09803 0.40832 0.58528 0.0
O204 O 0.16644 0.43242 0.61079 0.0
C205 C 0.19903 0.45878 0.62134 0.0
C206 C 0.08268 0.41596 0.40064 0.0
O207 O 0.2132 0.48532 0.56735 0.0
C208 C 0.15467 0.52707 0.37701 0.0
O209 O 0.17742 0.43088 0.43821 0.0
O210 O 0.20238 0.48913 0.39817 0.0
O211 O 0.07806 0.43531 0.45687 0.0
O212 O 0.1096 0.41045 0.40878 0.0
C213 C 0.16277 0.53572 0.60979 0.0
O214 O 0.18209 0.5355 0.42744 0.0
O215 O 0.12372 0.49893 0.39351 0.0
C216 C 0.19823 0.45739 0.38739 0.0
O217 O 0.18783 0.52757 0.60108 0.0
O218 O 0.137 0.52416 0.55428 0.0
C219 C 0.08945 0.42748 0.63527 0.0
Fe220 Fe 0.69972 0.17847 0.51228 0.0
Fe221 Fe 0.65264 0.09461 0.50474 0.0
O222 O 0.69669 0.13481 0.50861 0.0
Fe223 Fe 0.73723 0.13109 0.50715 0.0
O224 O 0.75407 0.15631 0.61171 0.0
O225 O 0.74156 0.20012 0.57992 0.0
O226 O 0.67318 0.16738 0.6153 0.0
C227 C 0.64073 0.1405 0.62207 0.0
C228 C 0.75546 0.19221 0.39436 0.0
O229 O 0.62923 0.11379 0.56868 0.0
C230 C 0.69393 0.07682 0.38888 0.0
O231 O 0.65847 0.16491 0.44432 0.0
O232 O 0.64141 0.10872 0.4005 0.0
O233 O 0.76469 0.17317 0.44175 0.0
O234 O 0.72608 0.19269 0.40994 0.0
C235 C 0.68801 0.07294 0.6211 0.0
O236 O 0.66704 0.06714 0.44045 0.0
O237 O 0.72397 0.10617 0.40166 0.0
C238 C 0.64125 0.13855 0.3904 0.0
O239 O 0.66126 0.07825 0.60812 0.0
O240 O 0.71663 0.08804 0.5727 0.0
C241 C 0.75798 0.18772 0.62691 0.0
Fe242 Fe 0.61991 0.72349 0.50985 0.0
Fe243 Fe 0.53569 0.69354 0.5059 0.0
O244 O 0.57367 0.68616 0.51016 0.0
Fe245 Fe 0.56513 0.64059 0.51502 0.0
O246 O 0.58681 0.64913 0.62254 0.0
O247 O 0.6373 0.70005 0.58389 0.0
O248 O 0.6121 0.74371 0.60978 0.0
C249 C 0.58646 0.75117 0.61861 0.0
C250 C 0.62651 0.67389 0.40263 0.0
O251 O 0.55818 0.7362 0.56955 0.0
C252 C 0.5145 0.63241 0.39083 0.0
O253 O 0.61012 0.75315 0.43692 0.0
O254 O 0.55141 0.71823 0.40225 0.0
O255 O 0.6077 0.65029 0.46037 0.0
O256 O 0.63127 0.7061 0.40866 0.0
C257 C 0.50836 0.63627 0.6223 0.0
O258 O 0.50636 0.65202 0.43949 0.0
O259 O 0.54286 0.63008 0.40721 0.0
C260 C 0.58228 0.74673 0.38988 0.0
O261 O 0.51717 0.66944 0.61102 0.0
O262 O 0.52085 0.62128 0.57143 0.0
C263 C 0.62031 0.67249 0.63528 0.0
C264 C 0.50222 0.23967 0.2282 0.0
C265 C 0.46895 0.21118 0.19297 0.0
C266 C 0.50262 0.2636 0.29366 0.0
C267 C 0.46977 0.26053 0.32672 0.0
H268 H 0.52845 0.2436 0.20524 0.0
H269 H 0.52914 0.28505 0.31777 0.0
S270 S 0.37503 0.19054 0.25756 0.0
N271 N 0.40204 0.181 0.19687 0.0
N272 N 0.40278 0.22636 0.31963 0.0
C273 C 0.43617 0.23217 0.29235 0.0
C274 C 0.43576 0.20737 0.22594 0.0
C275 C 0.23279 0.4771 0.24506 0.0
C276 C 0.22061 0.4527 0.31728 0.0
C277 C 0.25702 0.47676 0.18196 0.0
C278 C 0.27066 0.45213 0.18771 0.0
H279 H 0.22395 0.49721 0.23762 0.0
H280 H 0.26551 0.49666 0.1286 0.0
S281 S 0.2462 0.3813 0.36228 0.0
N282 N 0.22285 0.40201 0.38969 0.0
N283 N 0.26886 0.40152 0.27044 0.0
C284 C 0.2578 0.42659 0.25795 0.0
C285 C 0.23272 0.42684 0.32273 0.0
C286 C 0.79937 0.26918 0.22416 0.0
C287 C 0.8297 0.26677 0.19196 0.0
C288 C 0.77554 0.2448 0.28836 0.0
C289 C 0.78099 0.21696 0.32441 0.0
H290 H 0.79367 0.29005 0.19931 0.0
H291 H 0.75281 0.24819 0.31047 0.0
S292 S 0.85599 0.19825 0.26274 0.0
N293 N 0.86362 0.23381 0.20073 0.0
N294 N 0.81895 0.18803 0.322 0.0
C295 C 0.81113 0.21402 0.29282 0.0
C296 C 0.83536 0.23882 0.22658 0.0
C297 C 0.61801 0.80114 0.28788 0.0
C298 C 0.58434 0.77507 0.32681 0.0
C299 C 0.61967 0.82733 0.22649 0.0
C300 C 0.58771 0.82835 0.20229 0.0
H301 H 0.64307 0.80073 0.30324 0.0
H302 H 0.6458 0.84595 0.19551 0.0
S303 S 0.494 0.77037 0.29564 0.0
N304 N 0.51916 0.75504 0.34359 0.0
N305 N 0.52238 0.80381 0.22923 0.0
C306 C 0.55437 0.80372 0.24419 0.0
C307 C 0.55264 0.7772 0.30607 0.0
C308 C 0.82021 0.60315 0.18801 0.0
C309 C 0.78186 0.57962 0.19654 0.0
C310 C 0.84491 0.60389 0.2529 0.0
C311 C 0.83204 0.5813 0.32877 0.0
H312 H 0.83128 0.62013 0.12937 0.0
H313 H 0.87423 0.62148 0.24232 0.0
S314 S 0.7335 0.51895 0.3877 0.0
N315 N 0.73205 0.536 0.29004 0.0
N316 N 0.77766 0.53763 0.41231 0.0
C317 C 0.79347 0.5591 0.3397 0.0
C318 C 0.76862 0.55818 0.27355 0.0
C319 C 0.24655 0.82199 0.29169 0.0
C320 C 0.27759 0.81959 0.31876 0.0
C321 C 0.22095 0.79705 0.22958 0.0
C322 C 0.22543 0.76878 0.19212 0.0
H323 H 0.24215 0.84354 0.31792 0.0
H324 H 0.19804 0.8005 0.2093 0.0
S325 S 0.29986 0.74813 0.24647 0.0
N326 N 0.30969 0.78482 0.30649 0.0
N327 N 0.26196 0.73835 0.19152 0.0
C328 C 0.25572 0.76546 0.22067 0.0
C329 C 0.28168 0.79074 0.28329 0.0
C330 C 0.61015 0.7861 0.7629 0.0
C331 C 0.589 0.77876 0.68481 0.0
C332 C 0.60934 0.80925 0.82972 0.0
C333 C 0.58715 0.82559 0.82093 0.0
H334 H 0.62647 0.77299 0.77378 0.0
H335 H 0.62522 0.81339 0.88985 0.0
S336 S 0.53128 0.81999 0.6239 0.0
N337 N 0.54863 0.79343 0.59872 0.0
N338 N 0.54683 0.83607 0.72443 0.0
C339 C 0.56733 0.81986 0.7416 0.0
C340 C 0.56835 0.7967 0.67354 0.0
C341 C 0.80271 0.56229 0.83428 0.0
C342 C 0.78768 0.58569 0.82662 0.0
C343 C 0.82652 0.56172 0.77025 0.0
C344 C 0.83678 0.58467 0.69541 0.0
H345 H 0.79562 0.54357 0.88988 0.0
H346 H 0.8366 0.54265 0.7791 0.0
S347 S 0.80679 0.65232 0.64443 0.0
N348 N 0.78596 0.63346 0.73908 0.0
N349 N 0.83119 0.6326 0.61821 0.0
C350 C 0.82325 0.60932 0.68797 0.0
C351 C 0.79863 0.60979 0.7536 0.0
C352 C 0.26717 0.78531 0.69002 0.0
C353 C 0.27438 0.82188 0.68491 0.0
C354 C 0.24345 0.76081 0.75412 0.0
C355 C 0.2256 0.77149 0.81667 0.0
H356 H 0.28007 0.77527 0.64418 0.0
H357 H 0.23926 0.73316 0.75458 0.0
S358 S 0.23455 0.86403 0.8326 0.0
N359 N 0.2613 0.86751 0.74828 0.0
N360 N 0.21658 0.82137 0.86898 0.0
C361 C 0.23207 0.80784 0.812 0.0
C362 C 0.25644 0.83298 0.74633 0.0
C363 C 0.44551 0.23227 0.70713 0.0
C364 C 0.47529 0.26862 0.70114 0.0
C365 C 0.44572 0.2072 0.7691 0.0
C366 C 0.47593 0.21741 0.82642 0.0
H367 H 0.42226 0.22278 0.66224 0.0
H368 H 0.42254 0.17937 0.77055 0.0
S369 S 0.55839 0.31034 0.84668 0.0
N370 N 0.53408 0.3143 0.76549 0.0
N371 N 0.53464 0.26711 0.87931 0.0
C372 C 0.50516 0.25391 0.82344 0.0
C373 C 0.50478 0.27951 0.76163 0.0
C374 C 0.2206 0.42679 0.72795 0.0
C375 C 0.22269 0.45923 0.69553 0.0
C376 C 0.24591 0.42819 0.79202 0.0
C377 C 0.27409 0.46206 0.82594 0.0
H378 H 0.20007 0.4003 0.70171 0.0
H379 H 0.24381 0.40261 0.81375 0.0
S380 S 0.28797 0.55454 0.77057 0.0
N381 N 0.25293 0.52581 0.70805 0.0
N382 N 0.30003 0.5286 0.82719 0.0
C383 C 0.27528 0.49451 0.79632 0.0
C384 C 0.24971 0.49304 0.7316 0.0
C385 C 0.80306 0.2666 0.79141 0.0
C386 C 0.83388 0.26505 0.82311 0.0
C387 C 0.77871 0.24107 0.72968 0.0
C388 C 0.78369 0.21245 0.69673 0.0
H389 H 0.79762 0.28794 0.81413 0.0
H390 H 0.75562 0.24391 0.70765 0.0
S391 S 0.85971 0.19547 0.7586 0.0
N392 N 0.86798 0.23216 0.8172 0.0
N393 N 0.82187 0.18387 0.70078 0.0
C394 C 0.81419 0.21018 0.7281 0.0
C395 C 0.83941 0.2366 0.79094 0.0
C396 C 0.40925 0.02921 0.3497 0.0
C397 C 0.37874 0.99395 0.33249 0.0
C398 C 0.4242 0.0561 0.28393 0.0
C399 C 0.40874 0.04942 0.19876 0.0
H400 H 0.42315 0.03569 0.41354 0.0
H401 H 0.44901 0.08188 0.29885 0.0
S402 S 0.32638 0.96402 0.12081 0.0
N403 N 0.33181 0.95512 0.22503 0.0
N404 N 0.35954 1.00664 0.10134 0.0
C405 C 0.37657 1.01562 0.18183 0.0
C406 C 0.36155 0.98768 0.24887 0.0
C407 C 0.38334 0.36393 0.30512 0.0
C408 C 0.41914 0.36911 0.29625 0.0
C409 C 0.36942 0.37906 0.24275 0.0
C410 C 0.39106 0.39989 0.17048 0.0
H411 H 0.36705 0.35034 0.36339 0.0
H412 H 0.34265 0.37638 0.25409 0.0
S413 S 0.48364 0.41565 0.10949 0.0
N414 N 0.47358 0.39212 0.20311 0.0
N415 N 0.44777 0.42065 0.08744 0.0
C416 C 0.42558 0.40268 0.1576 0.0
C417 C 0.43951 0.38721 0.22007 0.0
C418 C 0.04149 0.366 0.28997 0.0
C419 C 0.05547 0.40144 0.32688 0.0
C420 C 1.01259 0.3523 0.2264 0.0
C421 C 0.99742 0.37395 0.19791 0.0
H422 H 0.05239 0.34868 0.31134 0.0
H423 H 1.00281 0.32526 0.19793 0.0
S424 S 1.02465 0.46855 0.27368 0.0
N425 N 0.05163 0.45751 0.32902 0.0
N426 N 0.99864 0.43226 0.21185 0.0
C427 C 1.01137 0.40922 0.23478 0.0
C428 C 0.04012 0.42288 0.29837 0.0
C429 C 0.66871 0.99144 0.2566 0.0
C430 C 0.65318 0.99744 0.18012 0.0
C431 C 0.68534 1.01892 0.32202 0.0
C432 C 0.68793 0.05343 0.31104 0.0
H433 H 0.66585 0.96467 0.26855 0.0
H434 H 0.6943 1.01248 0.38363 0.0
S435 S 0.65474 0.08372 0.11854 0.0
N436 N 0.64354 0.04096 0.09428 0.0
N437 N 0.67575 0.09282 0.21603 0.0
C438 C 0.67469 0.06044 0.23223 0.0
C439 C 0.65708 0.03235 0.16686 0.0
C440 C 0.69144 0.67154 0.2244 0.0
C441 C 0.6727 0.63404 0.19987 0.0
C442 C 0.67645 0.68522 0.28862 0.0
C443 C 0.64255 0.66165 0.33069 0.0
H444 H 0.71705 0.69052 0.19191 0.0
H445 H 0.69152 0.71416 0.30582 0.0
S446 S 0.58307 0.56115 0.28925 0.0
N447 N 0.61872 0.57402 0.22313 0.0
N448 N 0.59106 0.59891 0.34172 0.0
C449 C 0.6241 0.62413 0.30661 0.0
C450 C 0.63906 0.61056 0.242 0.0
C451 C 0.03247 0.6253 0.32861 0.0
C452 C 1.00395 0.63375 0.32593 0.0
C453 C 0.06036 0.639 0.26512 0.0
C454 C 0.06103 0.66175 0.19589 0.0
H455 H 0.03279 0.60711 0.37923 0.0
H456 H 0.08099 0.63065 0.26871 0.0
S457 S 0.994 0.69395 0.16173 0.0
N458 N 0.97901 0.66794 0.2516 0.0
N459 N 0.03177 0.69381 0.13064 0.0
C460 C 0.03383 0.67213 0.19472 0.0
C461 C 1.00519 0.65809 0.26019 0.0
C462 C 0.6887 0.05463 0.77724 0.0
C463 C 0.6833 0.04505 0.687 0.0
C464 C 0.67677 0.02747 0.84298 0.0
C465 C 0.6589 0.98979 0.82073 0.0
H466 H 0.70026 0.08313 0.79721 0.0
H467 H 0.67933 0.0359 0.91201 0.0
S468 S 0.63997 0.95081 0.59312 0.0
N469 N 0.66081 0.99579 0.5778 0.0
N470 N 0.63812 0.94454 0.7019 0.0
C471 C 0.65539 0.98 0.73053 0.0
C472 C 0.66754 1.00775 0.6634 0.0
C473 C 0.67705 0.66727 0.82578 0.0
C474 C 0.67119 0.63135 0.81526 0.0
C475 C 0.66222 0.68179 0.76453 0.0
C476 C 0.64119 0.66066 0.69175 0.0
H477 H 0.69118 0.68328 0.88419 0.0
H478 H 0.66547 0.70871 0.77673 0.0
S479 S 0.62379 0.568 0.6266 0.0
N480 N 0.64734 0.57728 0.72038 0.0
N481 N 0.61937 0.60426 0.60641 0.0
C482 C 0.63761 0.62593 0.67738 0.0
C483 C 0.65267 0.61134 0.73892 0.0
C484 C 0.03987 0.6664 0.66654 0.0
C485 C 1.00204 0.64781 0.68792 0.0
C486 C 0.06718 0.67957 0.73317 0.0
C487 C 0.05754 0.67362 0.8235 0.0
H488 H 0.04836 0.66919 0.59763 0.0
H489 H 0.09583 0.69197 0.71373 0.0
S490 S 0.96265 0.62844 0.91483 0.0
N491 N 0.9566 0.62643 0.80592 0.0
N492 N 1.00769 0.64981 0.93107 0.0
C493 C 1.0199 0.65659 0.84576 0.0
C494 C 0.99218 0.64405 0.77799 0.0
C495 C 0.37927 0.97855 0.78781 0.0
C496 C 0.37609 0.98628 0.69888 0.0
C497 C 0.39174 1.00618 0.85238 0.0
C498 C 0.40234 0.04282 0.83007 0.0
H499 H 0.37366 0.95133 0.80688 0.0
H500 H 0.39509 0.99913 0.91972 0.0
S501 S 0.39703 0.07643 0.60602 0.0
N502 N 0.382 0.0321 0.59149 0.0
N503 N 0.40656 0.08464 0.71314 0.0
C504 C 0.39717 0.05041 0.74204 0.0
C505 C 0.38392 0.02197 0.67618 0.0
C506 C 0.36857 0.36441 0.79755 0.0
C507 C 0.38022 0.40216 0.80522 0.0
C508 C 0.38401 0.35157 0.7327 0.0
C509 C 0.41155 0.37617 0.67387 0.0
H510 H 0.34878 0.34503 0.84432 0.0
H511 H 0.37487 0.32246 0.72978 0.0
S512 S 0.45126 0.4779 0.66917 0.0
N513 N 0.42034 0.46347 0.74913 0.0
N514 N 0.44938 0.44045 0.6294 0.0
C515 C 0.42261 0.41391 0.68088 0.0
C516 C 0.40694 0.42658 0.7459 0.0
C517 C 1.00473 0.35999 0.76693 0.0
C518 C 1.00374 0.3828 0.83421 0.0
C519 C 0.03393 0.37371 0.70515 0.0
C520 C 0.06297 0.41051 0.70949 0.0
H521 H 0.98199 0.33214 0.75927 0.0
H522 H 0.03269 0.35607 0.65102 0.0
S523 S 0.07636 0.47891 0.88351 0.0
N524 N 0.03664 0.4422 0.90851 0.0
N525 N 0.09117 0.46763 0.79382 0.0
C526 C 0.06347 0.43245 0.78072 0.0
C527 C 0.03394 0.41869 0.8427 0.0
C528 C 0.57275 0.11261 0.20059 0.0
C529 C 0.56857 0.14378 0.19071 0.0
C530 C 0.59645 0.1114 0.26434 0.0
C531 C 0.6172 0.1413 0.32146 0.0
H532 H 0.55741 0.08856 0.1589 0.0
H533 H 0.59826 0.08659 0.26895 0.0
S534 S 0.61681 0.22983 0.32297 0.0
N535 N 0.58745 0.20547 0.24347 0.0
N536 N 0.63224 0.20348 0.36342 0.0
C537 C 0.61353 0.17286 0.31223 0.0
C538 C 0.58917 0.174 0.24709 0.0
C539 C 0.47422 0.56419 0.20097 0.0
C540 C 0.43804 0.55799 0.19224 0.0
C541 C 0.49863 0.58861 0.2642 0.0
C542 C 0.4881 0.608 0.32206 0.0
H543 H 0.48403 0.55 0.15864 0.0
H544 H 0.52605 0.59221 0.26751 0.0
S545 S 0.39652 0.60209 0.32689 0.0
N546 N 0.39287 0.57353 0.24674 0.0
N547 N 0.43881 0.61955 0.36638 0.0
C548 C 0.45203 0.60233 0.3141 0.0
C549 C 0.427 0.57725 0.24931 0.0
C550 C 0.91848 0.4618 0.34566 0.0
C551 C 0.89537 0.47714 0.33719 0.0
C552 C 0.91921 0.43817 0.28096 0.0
C553 C 0.89697 0.42885 0.20468 0.0
H554 H 0.93655 0.46825 0.40265 0.0
H555 H 0.93741 0.42714 0.29092 0.0
S556 S 0.83129 0.46116 0.14992 0.0
N557 N 0.84923 0.48078 0.24645 0.0
N558 N 0.85068 0.43643 0.12435 0.0
C559 C 0.87307 0.44326 0.19589 0.0
C560 C 0.87229 0.46739 0.26212 0.0
C561 C 0.45015 0.86995 0.30883 0.0
C562 C 0.44382 0.89989 0.31562 0.0
C563 C 0.4741 0.86924 0.2446 0.0
C564 C 0.4926 0.89836 0.18419 0.0
H565 H 0.43682 0.84693 0.35412 0.0
H566 H 0.47812 0.84567 0.24252 0.0
S567 S 0.48502 0.98308 0.17269 0.0
N568 N 0.45761 0.95913 0.25507 0.0
N569 N 0.50259 0.95817 0.13535 0.0
C570 C 0.48631 0.92844 0.19002 0.0
C571 C 0.46196 0.9291 0.25531 0.0
C572 C 0.61793 0.49109 0.27784 0.0
C573 C 0.6228 0.47891 0.19499 0.0
C574 C 0.59538 0.46607 0.34226 0.0
C575 C 0.57666 0.4278 0.32636 0.0
H576 H 0.63153 0.52021 0.29296 0.0
H577 H 0.59206 0.477 0.4047 0.0
S578 S 0.58105 0.38175 0.12029 0.0
N579 N 0.60811 0.4261 0.10053 0.0
N580 N 0.56532 0.37891 0.22234 0.0
C581 C 0.58228 0.41511 0.24486 0.0
C582 C 0.60545 0.44072 0.17895 0.0
C583 C 0.13165 0.54196 0.23817 0.0
C584 C 0.15755 0.55365 0.30755 0.0
C585 C 0.13266 0.56673 0.17429 0.0
C586 C 0.15965 0.60446 0.17667 0.0
H587 H 0.11037 0.51336 0.23286 0.0
H588 H 0.11179 0.556 0.12269 0.0
S589 S 0.23395 0.64942 0.34517 0.0
N590 N 0.21127 0.60576 0.37502 0.0
N591 N 0.21305 0.65217 0.25483 0.0
C592 C 0.18604 0.61652 0.24519 0.0
C593 C 0.18505 0.59121 0.31042 0.0
C594 C 0.45709 0.87093 0.82286 0.0
C595 C 0.49545 0.893 0.8101 0.0
C596 C 0.43189 0.86906 0.75837 0.0
C597 C 0.44428 0.88908 0.67891 0.0
H598 H 0.44639 0.85602 0.88448 0.0
H599 H 0.40267 0.85303 0.77233 0.0
S600 S 0.542 0.94582 0.60744 0.0
N601 N 0.54449 0.93178 0.7083 0.0
N602 N 0.4976 0.92806 0.58658 0.0
C603 C 0.48265 0.90946 0.66335 0.0
C604 C 0.50812 0.91151 0.72909 0.0
C605 C 0.62574 0.45517 0.775 0.0
C606 C 0.62012 0.48163 0.8183 0.0
C607 C 0.60009 0.43092 0.71228 0.0
C608 C 0.56802 0.43237 0.69028 0.0
H609 H 0.6495 0.45253 0.79131 0.0
H610 H 0.60535 0.41067 0.68139 0.0
S611 S 0.5423 0.49898 0.78038 0.0
N612 N 0.58124 0.50936 0.83103 0.0
N613 N 0.53342 0.46407 0.71449 0.0
C614 C 0.56271 0.45941 0.73184 0.0
C615 C 0.58868 0.48397 0.79526 0.0
C616 C 0.12877 0.55747 0.70275 0.0
C617 C 0.16268 0.56003 0.68068 0.0
C618 C 0.12662 0.5811 0.76451 0.0
C619 C 0.1583 0.60833 0.80753 0.0
H620 H 0.10333 0.53687 0.67192 0.0
H621 H 0.09974 0.57763 0.7791 0.0
S622 S 0.25407 0.62691 0.77303 0.0
N623 N 0.22872 0.59196 0.70614 0.0
N624 N 0.22505 0.63679 0.82336 0.0
C625 C 0.19255 0.61117 0.78668 0.0
C626 C 0.19465 0.58686 0.72331 0.0
C627 C 0.62647 0.16555 0.75932 0.0
C628 C 0.61414 0.14096 0.68694 0.0
C629 C 0.60163 0.16496 0.82293 0.0
C630 C 0.56352 0.13968 0.81678 0.0
H631 H 0.65559 0.18492 0.76793 0.0
H632 H 0.61253 0.18389 0.87853 0.0
S633 S 0.51632 0.07222 0.6351 0.0
N634 N 0.56047 0.09249 0.60944 0.0
N635 N 0.51434 0.09147 0.72905 0.0
C636 C 0.55068 0.11579 0.74336 0.0
C637 C 0.57581 0.11641 0.67851 0.0
C638 C 0.45658 0.57546 0.66762 0.0
C639 C 0.48072 0.6127 0.6888 0.0
C640 C 0.434 0.5504 0.73219 0.0
C641 C 0.4352 0.56137 0.82066 0.0
H642 H 0.45563 0.5654 0.6007 0.0
H643 H 0.41553 0.5222 0.71278 0.0
S644 S 0.49156 0.65608 0.90974 0.0
N645 N 0.50266 0.65987 0.80333 0.0
N646 N 0.46048 0.61237 0.92566 0.0
C647 C 0.45771 0.59885 0.84213 0.0
C648 C 0.48051 0.62461 0.77591 0.0
C649 C 0.87577 0.44824 0.69877 0.0
C650 C 0.89937 0.48644 0.70968 0.0
C651 C 0.87394 0.42319 0.76311 0.0
C652 C 0.89545 0.43558 0.84073 0.0
H653 H 0.85954 0.43751 0.63865 0.0
H654 H 0.85653 0.39401 0.75058 0.0
S655 S 0.95748 0.53343 0.90611 0.0
N656 N 0.94187 0.53563 0.80691 0.0
N657 N 0.93813 0.48917 0.92894 0.0
C658 C 0.91762 0.47398 0.85433 0.0
C659 C 0.9197 0.49925 0.78849 0.0
loop_
_geom_bond_atom_site_label_1
_geom_bond_atom_site_label_2
_geom_bond_distance
_geom_bond_site_symmetry_2
_ccdc_geom_bond_type
Fe0 O2 1.918 . S
Fe0 O5 1.997 1_554 S
Fe0 O6 2.002 1_554 S
Fe0 O11 1.976 . S
Fe0 O14 1.996 . S
Fe1 O2 1.918 . S
Fe1 O9 1.997 1_554 S
Fe1 O12 1.996 . S
Fe1 O16 1.976 . S
Fe1 O19 2.002 1_554 S
O2 Fe0 1.918 . S
O2 Fe1 1.918 . S
O2 Fe3 1.918 . S
Fe3 O2 1.918 . S
Fe3 O4 2.002 1_554 S
Fe3 O13 1.976 . S
Fe3 O17 1.996 . S
Fe3 O20 1.997 1_554 S
O4 Fe3 2.002 1_556 S
O4 C21 1.295 . S
O5 Fe0 1.997 1_556 S
O5 C21 1.235 . S
O6 Fe0 2.002 1_556 S
O6 C7 1.295 . S
C7 O6 1.295 . S
C7 O9 1.235 . S
C8 O13 1.287 . S
C8 O14 1.255 . S
O9 Fe1 1.997 1_556 S
O9 C7 1.235 . S
C10 O16 1.287 . S
C10 O17 1.255 . S
O11 Fe0 1.976 . S
O11 C18 1.287 . S
O12 Fe1 1.996 . S
O12 C18 1.255 . S
O13 Fe3 1.976 . S
O13 C8 1.287 . S
O14 Fe0 1.996 . S
O14 C8 1.255 . S
C15 O19 1.295 . S
C15 O20 1.235 . S
O16 Fe1 1.976 . S
O16 C10 1.287 . S
O17 Fe3 1.996 . S
O17 C10 1.255 . S
C18 O11 1.287 . S
C18 O12 1.255 . S
O19 Fe1 2.002 1_556 S
O19 C15 1.295 . S
O20 Fe3 1.997 1_556 S
O20 C15 1.235 . S
C21 O4 1.295 . S
C21 O5 1.235 . S
Fe22 O24 1.918 . S
Fe22 O27 1.997 1_554 S
Fe22 O28 2.002 1_554 S
Fe22 O33 1.976 . S
Fe22 O36 1.996 . S
Fe23 O24 1.918 . S
Fe23 O31 1.997 1_554 S
Fe23 O34 1.996 . S
Fe23 O38 1.976 . S
Fe23 O41 2.002 1_554 S
O24 Fe22 1.918 . S
O24 Fe23 1.918 . S
O24 Fe25 1.918 . S
Fe25 O24 1.918 . S
Fe25 O26 2.002 1_554 S
Fe25 O35 1.976 . S
Fe25 O39 1.996 . S
Fe25 O42 1.997 1_554 S
O26 Fe25 2.002 1_556 S
O26 C43 1.295 . S
O27 Fe22 1.997 1_556 S
O27 C43 1.235 . S
O28 Fe22 2.002 1_556 S
O28 C29 1.295 . S
C29 O28 1.295 . S
C29 O31 1.235 . S
C30 O35 1.287 . S
C30 O36 1.255 . S
O31 Fe23 1.997 1_556 S
O31 C29 1.235 . S
C32 O38 1.287 . S
C32 O39 1.255 . S
O33 Fe22 1.976 . S
O33 C40 1.287 . S
O34 Fe23 1.996 . S
O34 C40 1.255 . S
O35 Fe25 1.976 . S
O35 C30 1.287 . S
O36 Fe22 1.996 . S
O36 C30 1.255 . S
C37 O41 1.295 . S
C37 O42 1.235 . S
O38 Fe23 1.976 . S
O38 C32 1.287 . S
O39 Fe25 1.996 . S
O39 C32 1.255 . S
C40 O33 1.287 . S
C40 O34 1.255 . S
O41 Fe23 2.002 1_556 S
O41 C37 1.295 . S
O42 Fe25 1.997 1_556 S
O42 C37 1.235 . S
C43 O26 1.295 . S
C43 O27 1.235 . S
Fe44 O46 1.918 . S
Fe44 O49 1.997 1_554 S
Fe44 O50 2.002 1_554 S
Fe44 O55 1.976 . S
Fe44 O58 1.996 . S
Fe45 O46 1.918 . S
Fe45 O53 1.997 1_554 S
Fe45 O56 1.996 . S
Fe45 O60 1.976 . S
Fe45 O63 2.002 1_554 S
O46 Fe44 1.918 . S
O46 Fe45 1.918 . S
O46 Fe47 1.918 . S
Fe47 O46 1.918 . S
Fe47 O48 2.002 1_554 S
Fe47 O57 1.976 . S
Fe47 O61 1.996 . S
Fe47 O64 1.997 1_554 S
O48 Fe47 2.002 1_556 S
O48 C65 1.295 . S
O49 Fe44 1.997 1_556 S
O49 C65 1.235 . S
O50 Fe44 2.002 1_556 S
O50 C51 1.295 . S
C51 O50 1.295 . S
C51 O53 1.235 . S
C52 O57 1.287 . S
C52 O58 1.255 . S
O53 Fe45 1.997 1_556 S
O53 C51 1.235 . S
C54 O60 1.287 . S
C54 O61 1.255 . S
O55 Fe44 1.976 . S
O55 C62 1.287 . S
O56 Fe45 1.996 . S
O56 C62 1.255 . S
O57 Fe47 1.976 . S
O57 C52 1.287 . S
O58 Fe44 1.996 . S
O58 C52 1.255 . S
C59 O63 1.295 . S
C59 O64 1.235 . S
O60 Fe45 1.976 . S
O60 C54 1.287 . S
O61 Fe47 1.996 . S
O61 C54 1.255 . S
C62 O55 1.287 . S
C62 O56 1.255 . S
O63 Fe45 2.002 1_556 S
O63 C59 1.295 . S
O64 Fe47 1.997 1_556 S
O64 C59 1.235 . S
C65 O48 1.295 . S
C65 O49 1.235 . S
Fe66 O68 1.918 . S
Fe66 O71 1.997 1_554 S
Fe66 O72 2.002 1_554 S
Fe66 O77 1.976 . S
Fe66 O80 1.996 . S
Fe67 O68 1.918 . S
Fe67 O75 1.997 1_554 S
Fe67 O78 1.996 . S
Fe67 O82 1.976 . S
Fe67 O85 2.002 1_554 S
O68 Fe66 1.918 . S
O68 Fe67 1.918 . S
O68 Fe69 1.918 . S
Fe69 O68 1.918 . S
Fe69 O70 2.002 1_554 S
Fe69 O79 1.976 . S
Fe69 O83 1.996 . S
Fe69 O86 1.997 1_554 S
O70 Fe69 2.002 1_556 S
O70 C87 1.295 . S
O71 Fe66 1.997 1_556 S
O71 C87 1.235 . S
O72 Fe66 2.002 1_556 S
O72 C73 1.295 . S
C73 O72 1.295 . S
C73 O75 1.235 . S
C74 O79 1.287 . S
C74 O80 1.255 . S
O75 Fe67 1.997 1_556 S
O75 C73 1.235 . S
C76 O82 1.287 . S
C76 O83 1.255 . S
O77 Fe66 1.976 . S
O77 C84 1.287 . S
O78 Fe67 1.996 . S
O78 C84 1.255 . S
O79 Fe69 1.976 . S
O79 C74 1.287 . S
O80 Fe66 1.996 . S
O80 C74 1.255 . S
C81 O85 1.295 . S
C81 O86 1.235 . S
O82 Fe67 1.976 . S
O82 C76 1.287 . S
O83 Fe69 1.996 . S
O83 C76 1.255 . S
C84 O77 1.287 . S
C84 O78 1.255 . S
O85 Fe67 2.002 1_556 S
O85 C81 1.295 . S
O86 Fe69 1.997 1_556 S
O86 C81 1.235 . S
C87 O70 1.295 . S
C87 O71 1.235 . S
Fe88 O90 1.918 . S
Fe88 O93 1.997 1_554 S
Fe88 O94 2.002 1_554 S
Fe88 O99 1.976 . S
Fe88 O102 1.996 . S
Fe89 O90 1.918 . S
Fe89 O97 1.997 1_554 S
Fe89 O100 1.996 . S
Fe89 O104 1.976 . S
Fe89 O107 2.002 1_554 S
O90 Fe88 1.918 . S
O90 Fe89 1.918 . S
O90 Fe91 1.918 . S
Fe91 O90 1.918 . S
Fe91 O92 2.002 1_554 S
Fe91 O101 1.976 . S
Fe91 O105 1.996 . S
Fe91 O108 1.997 1_554 S
O92 Fe91 2.002 1_556 S
O92 C109 1.295 . S
O93 Fe88 1.997 1_556 S
O93 C109 1.235 . S
O94 Fe88 2.002 1_556 S
O94 C95 1.295 . S
C95 O94 1.295 . S
C95 O97 1.235 . S
C96 O101 1.287 . S
C96 O102 1.255 . S
O97 Fe89 1.997 1_556 S
O97 C95 1.235 . S
C98 O104 1.287 . S
C98 O105 1.255 . S
O99 Fe88 1.976 . S
O99 C106 1.287 . S
O100 Fe89 1.996 . S
O100 C106 1.255 . S
O101 Fe91 1.976 . S
O101 C96 1.287 . S
O102 Fe88 1.996 . S
O102 C96 1.255 . S
C103 O107 1.295 . S
C103 O108 1.235 . S
O104 Fe89 1.976 . S
O104 C98 1.287 . S
O105 Fe91 1.996 . S
O105 C98 1.255 . S
C106 O99 1.287 . S
C106 O100 1.255 . S
O107 Fe89 2.002 1_556 S
O107 C103 1.295 . S
O108 Fe91 1.997 1_556 S
O108 C103 1.235 . S
C109 O92 1.295 . S
C109 O93 1.235 . S
Fe110 O112 1.918 . S
Fe110 O115 1.997 1_554 S
Fe110 O116 2.002 1_554 S
Fe110 O121 1.976 . S
Fe110 O124 1.996 . S
Fe111 O112 1.918 . S
Fe111 O119 1.997 1_554 S
Fe111 O122 1.996 . S
Fe111 O126 1.976 . S
Fe111 O129 2.002 1_554 S
O112 Fe110 1.918 . S
O112 Fe111 1.918 . S
O112 Fe113 1.918 . S
Fe113 O112 1.918 . S
Fe113 O114 2.002 1_554 S
Fe113 O123 1.976 . S
Fe113 O127 1.996 . S
Fe113 O130 1.997 1_554 S
O114 Fe113 2.002 1_556 S
O114 C131 1.295 . S
O115 Fe110 1.997 1_556 S
O115 C131 1.235 . S
O116 Fe110 2.002 1_556 S
O116 C117 1.295 . S
C117 O116 1.295 . S
C117 O119 1.235 . S
C118 O123 1.287 . S
C118 O124 1.255 . S
O119 Fe111 1.997 1_556 S
O119 C117 1.235 . S
C120 O126 1.287 . S
C120 O127 1.255 . S
O121 Fe110 1.976 . S
O121 C128 1.287 . S
O122 Fe111 1.996 . S
O122 C128 1.255 . S
O123 Fe113 1.976 . S
O123 C118 1.287 . S
O124 Fe110 1.996 . S
O124 C118 1.255 . S
C125 O129 1.295 . S
C125 O130 1.235 . S
O126 Fe111 1.976 . S
O126 C120 1.287 . S
O127 Fe113 1.996 . S
O127 C120 1.255 . S
C128 O121 1.287 . S
C128 O122 1.255 . S
O129 Fe111 2.002 1_556 S
O129 C125 1.295 . S
O130 Fe113 1.997 1_556 S
O130 C125 1.235 . S
C131 O114 1.295 . S
C131 O115 1.235 . S
Fe132 O134 1.918 . S
Fe132 O137 1.997 . S
Fe132 O138 2.002 . S
Fe132 O143 1.976 . S
Fe132 O146 1.996 . S
Fe133 O134 1.918 . S
Fe133 O141 1.997 . S
Fe133 O144 1.996 . S
Fe133 O148 1.976 . S
Fe133 O151 2.002 . S
O134 Fe132 1.918 . S
O134 Fe133 1.918 . S
O134 Fe135 1.918 . S
Fe135 O134 1.918 . S
Fe135 O136 2.002 . S
Fe135 O145 1.976 . S
Fe135 O149 1.996 . S
Fe135 O152 1.997 . S
O136 Fe135 2.002 . S
O136 C153 1.295 . S
O137 Fe132 1.997 . S
O137 C153 1.235 . S
O138 Fe132 2.002 . S
O138 C139 1.295 . S
C139 O138 1.295 . S
C139 O141 1.235 . S
C140 O145 1.287 . S
C140 O146 1.255 . S
O141 Fe133 1.997 . S
O141 C139 1.235 . S
C142 O148 1.287 . S
C142 O149 1.255 . S
O143 Fe132 1.976 . S
O143 C150 1.287 . S
O144 Fe133 1.996 . S
O144 C150 1.255 . S
O145 Fe135 1.976 . S
O145 C140 1.287 . S
O146 Fe132 1.996 . S
O146 C140 1.255 . S
C147 O151 1.295 . S
C147 O152 1.235 . S
O148 Fe133 1.976 . S
O148 C142 1.287 . S
O149 Fe135 1.996 . S
O149 C142 1.255 . S
C150 O143 1.287 . S
C150 O144 1.255 . S
O151 Fe133 2.002 . S
O151 C147 1.295 . S
O152 Fe135 1.997 . S
O152 C147 1.235 . S
C153 O136 1.295 . S
C153 O137 1.235 . S
Fe154 O156 1.918 . S
Fe154 O159 1.997 . S
Fe154 O160 2.002 . S
Fe154 O165 1.976 . S
Fe154 O168 1.996 . S
Fe155 O156 1.918 . S
Fe155 O163 1.997 . S
Fe155 O166 1.996 . S
Fe155 O170 1.976 . S
Fe155 O173 2.002 . S
O156 Fe154 1.918 . S
O156 Fe155 1.918 . S
O156 Fe157 1.918 . S
Fe157 O156 1.918 . S
Fe157 O158 2.002 . S
Fe157 O167 1.976 . S
Fe157 O171 1.996 . S
Fe157 O174 1.997 . S
O158 Fe157 2.002 . S
O158 C175 1.295 . S
O159 Fe154 1.997 . S
O159 C175 1.235 . S
O160 Fe154 2.002 . S
O160 C161 1.295 . S
C161 O160 1.295 . S
C161 O163 1.235 . S
C162 O167 1.287 . S
C162 O168 1.255 . S
O163 Fe155 1.997 . S
O163 C161 1.235 . S
C164 O170 1.287 . S
C164 O171 1.255 . S
O165 Fe154 1.976 . S
O165 C172 1.287 . S
O166 Fe155 1.996 . S
O166 C172 1.255 . S
O167 Fe157 1.976 . S
O167 C162 1.287 . S
O168 Fe154 1.996 . S
O168 C162 1.255 . S
C169 O173 1.295 . S
C169 O174 1.235 . S
O170 Fe155 1.976 . S
O170 C164 1.287 . S
O171 Fe157 1.996 . S
O171 C164 1.255 . S
C172 O165 1.287 . S
C172 O166 1.255 . S
O173 Fe155 2.002 . S
O173 C169 1.295 . S
O174 Fe157 1.997 . S
O174 C169 1.235 . S
C175 O158 1.295 . S
C175 O159 1.235 . S
Fe176 O178 1.918 . S
Fe176 O181 1.997 . S
Fe176 O182 2.002 . S
Fe176 O187 1.976 . S
Fe176 O190 1.996 . S
Fe177 O178 1.918 . S
Fe177 O185 1.997 . S
Fe177 O188 1.996 . S
Fe177 O192 1.976 . S
Fe177 O195 2.002 . S
O178 Fe176 1.918 . S
O178 Fe177 1.918 . S
O178 Fe179 1.918 . S
Fe179 O178 1.918 . S
Fe179 O180 2.002 . S
Fe179 O189 1.976 . S
Fe179 O193 1.996 . S
Fe179 O196 1.997 . S
O180 Fe179 2.002 . S
O180 C197 1.295 . S
O181 Fe176 1.997 . S
O181 C197 1.235 . S
O182 Fe176 2.002 . S
O182 C183 1.295 . S
C183 O182 1.295 . S
C183 O185 1.235 . S
C184 O189 1.287 . S
C184 O190 1.255 . S
O185 Fe177 1.997 . S
O185 C183 1.235 . S
C186 O192 1.287 . S
C186 O193 1.255 . S
O187 Fe176 1.976 . S
O187 C194 1.287 . S
O188 Fe177 1.996 . S
O188 C194 1.255 . S
O189 Fe179 1.976 . S
O189 C184 1.287 . S
O190 Fe176 1.996 . S
O190 C184 1.255 . S
C191 O195 1.295 . S
C191 O196 1.235 . S
O192 Fe177 1.976 . S
O192 C186 1.287 . S
O193 Fe179 1.996 . S
O193 C186 1.255 . S
C194 O187 1.287 . S
C194 O188 1.255 . S
O195 Fe177 2.002 . S
O195 C191 1.295 . S
O196 Fe179 1.997 . S
O196 C191 1.235 . S
C197 O180 1.295 . S
C197 O181 1.235 . S
Fe198 O200 1.918 . S
Fe198 O203 1.997 . S
Fe198 O204 2.002 . S
Fe198 O209 1.976 . S
Fe198 O212 1.996 . S
Fe199 O200 1.918 . S
Fe199 O207 1.997 . S
Fe199 O210 1.996 . S
Fe199 O214 1.976 . S
Fe199 O217 2.002 . S
O200 Fe198 1.918 . S
O200 Fe199 1.918 . S
O200 Fe201 1.918 . S
Fe201 O200 1.918 . S
Fe201 O202 2.002 . S
Fe201 O211 1.976 . S
Fe201 O215 1.996 . S
Fe201 O218 1.997 . S
O202 Fe201 2.002 . S
O202 C219 1.295 . S
O203 Fe198 1.997 . S
O203 C219 1.235 . S
O204 Fe198 2.002 . S
O204 C205 1.295 . S
C205 O204 1.295 . S
C205 O207 1.235 . S
C206 O211 1.287 . S
C206 O212 1.255 . S
O207 Fe199 1.997 . S
O207 C205 1.235 . S
C208 O214 1.287 . S
C208 O215 1.255 . S
O209 Fe198 1.976 . S
O209 C216 1.287 . S
O210 Fe199 1.996 . S
O210 C216 1.255 . S
O211 Fe201 1.976 . S
O211 C206 1.287 . S
O212 Fe198 1.996 . S
O212 C206 1.255 . S
C213 O217 1.295 . S
C213 O218 1.235 . S
O214 Fe199 1.976 . S
O214 C208 1.287 . S
O215 Fe201 1.996 . S
O215 C208 1.255 . S
C216 O209 1.287 . S
C216 O210 1.255 . S
O217 Fe199 2.002 . S
O217 C213 1.295 . S
O218 Fe201 1.997 . S
O218 C213 1.235 . S
C219 O202 1.295 . S
C219 O203 1.235 . S
Fe220 O222 1.918 . S
Fe220 O225 1.997 . S
Fe220 O226 2.002 . S
Fe220 O231 1.976 . S
Fe220 O234 1.996 . S
Fe221 O222 1.918 . S
Fe221 O229 1.997 . S
Fe221 O232 1.996 . S
Fe221 O236 1.976 . S
Fe221 O239 2.002 . S
O222 Fe220 1.918 . S
O222 Fe221 1.918 . S
O222 Fe223 1.918 . S
Fe223 O222 1.918 . S
Fe223 O224 2.002 . S
Fe223 O233 1.976 . S
Fe223 O237 1.996 . S
Fe223 O240 1.997 . S
O224 Fe223 2.002 . S
O224 C241 1.295 . S
O225 Fe220 1.997 . S
O225 C241 1.235 . S
O226 Fe220 2.002 . S
O226 C227 1.295 . S
C227 O226 1.295 . S
C227 O229 1.235 . S
C228 O233 1.287 . S
C228 O234 1.255 . S
O229 Fe221 1.997 . S
O229 C227 1.235 . S
C230 O236 1.287 . S
C230 O237 1.255 . S
O231 Fe220 1.976 . S
O231 C238 1.287 . S
O232 Fe221 1.996 . S
O232 C238 1.255 . S
O233 Fe223 1.976 . S
O233 C228 1.287 . S
O234 Fe220 1.996 . S
O234 C228 1.255 . S
C235 O239 1.295 . S
C235 O240 1.235 . S
O236 Fe221 1.976 . S
O236 C230 1.287 . S
O237 Fe223 1.996 . S
O237 C230 1.255 . S
C238 O231 1.287 . S
C238 O232 1.255 . S
O239 Fe221 2.002 . S
O239 C235 1.295 . S
O240 Fe223 1.997 . S
O240 C235 1.235 . S
C241 O224 1.295 . S
C241 O225 1.235 . S
Fe242 O244 1.918 . S
Fe242 O247 1.997 . S
Fe242 O248 2.002 . S
Fe242 O253 1.976 . S
Fe242 O256 1.996 . S
Fe243 O244 1.918 . S
Fe243 O251 1.997 . S
Fe243 O254 1.996 . S
Fe243 O258 1.976 . S
Fe243 O261 2.002 . S
O244 Fe242 1.918 . S
O244 Fe243 1.918 . S
O244 Fe245 1.918 . S
Fe245 O244 1.918 . S
Fe245 O246 2.002 . S
Fe245 O255 1.976 . S
Fe245 O259 1.996 . S
Fe245 O262 1.997 . S
O246 Fe245 2.002 . S
O246 C263 1.295 . S
O247 Fe242 1.997 . S
O247 C263 1.235 . S
O248 Fe242 2.002 . S
O248 C249 1.295 . S
C249 O248 1.295 . S
C249 O251 1.235 . S
C250 O255 1.287 . S
C250 O256 1.255 . S
O251 Fe243 1.997 . S
O251 C249 1.235 . S
C252 O258 1.287 . S
C252 O259 1.255 . S
O253 Fe242 1.976 . S
O253 C260 1.287 . S
O254 Fe243 1.996 . S
O254 C260 1.255 . S
O255 Fe245 1.976 . S
O255 C250 1.287 . S
O256 Fe242 1.996 . S
O256 C250 1.255 . S
C257 O261 1.295 . S
C257 O262 1.235 . S
O258 Fe243 1.976 . S
O258 C252 1.287 . S
O259 Fe245 1.996 . S
O259 C252 1.255 . S
C260 O253 1.287 . S
C260 O254 1.255 . S
O261 Fe243 2.002 . S
O261 C257 1.295 . S
O262 Fe245 1.997 . S
O262 C257 1.235 . S
C263 O246 1.295 . S
C263 O247 1.235 . S
C264 C265 1.369 . S
C264 C266 1.419 . S
C264 H268 0.930 . S
C265 C264 1.369 . S
C265 C274 1.429 . S
C266 C264 1.419 . S
C266 C267 1.363 . S
C266 H269 0.929 . S
C267 C266 1.363 . S
C267 C273 1.428 . S
H268 C264 0.930 . S
H269 C266 0.929 . S
S270 N271 1.613 . S
S270 N272 1.610 . S
N271 S270 1.613 . S
N271 C274 1.350 . S
N272 S270 1.610 . S
N272 C273 1.351 . S
C273 C267 1.428 . S
C273 N272 1.351 . S
C273 C274 1.434 . S
C274 C265 1.429 . S
C274 N271 1.350 . S
C274 C273 1.434 . S
C275 C276 1.369 . S
C275 C277 1.419 . S
C275 H279 0.930 . S
C276 C275 1.369 . S
C276 C285 1.429 . S
C277 C275 1.419 . S
C277 C278 1.363 . S
C277 H280 0.929 . S
C278 C277 1.363 . S
C278 C284 1.428 . S
H279 C275 0.930 . S
H280 C277 0.929 . S
S281 N282 1.613 . S
S281 N283 1.610 . S
N282 S281 1.613 . S
N282 C285 1.350 . S
N283 S281 1.610 . S
N283 C284 1.351 . S
C284 C278 1.428 . S
C284 N283 1.351 . S
C284 C285 1.434 . S
C285 C276 1.429 . S
C285 N282 1.350 . S
C285 C284 1.434 . S
C286 C287 1.369 . S
C286 C288 1.419 . S
C286 H290 0.930 . S
C287 C286 1.369 . S
C287 C296 1.429 . S
C288 C286 1.419 . S
C288 C289 1.363 . S
C288 H291 0.929 . S
C289 C288 1.363 . S
C289 C295 1.428 . S
H290 C286 0.930 . S
H291 C288 0.929 . S
S292 N293 1.613 . S
S292 N294 1.610 . S
N293 S292 1.613 . S
N293 C296 1.350 . S
N294 S292 1.610 . S
N294 C295 1.351 . S
C295 C289 1.428 . S
C295 N294 1.351 . S
C295 C296 1.434 . S
C296 C287 1.429 . S
C296 N293 1.350 . S
C296 C295 1.434 . S
C297 C298 1.369 . S
C297 C299 1.419 . S
C297 H301 0.930 . S
C298 C297 1.369 . S
C298 C307 1.429 . S
C299 C297 1.419 . S
C299 C300 1.363 . S
C299 H302 0.929 . S
C300 C299 1.363 . S
C300 C306 1.428 . S
H301 C297 0.930 . S
H302 C299 0.929 . S
S303 N304 1.613 . S
S303 N305 1.610 . S
N304 S303 1.613 . S
N304 C307 1.350 . S
N305 S303 1.610 . S
N305 C306 1.351 . S
C306 C300 1.428 . S
C306 N305 1.351 . S
C306 C307 1.434 . S
C307 C298 1.429 . S
C307 N304 1.350 . S
C307 C306 1.434 . S
C308 C309 1.369 . S
C308 C310 1.419 . S
C308 H312 0.930 . S
C309 C308 1.369 . S
C309 C318 1.429 . S
C310 C308 1.419 . S
C310 C311 1.363 . S
C310 H313 0.929 . S
C311 C310 1.363 . S
C311 C317 1.428 . S
H312 C308 0.930 . S
H313 C310 0.929 . S
S314 N315 1.613 . S
S314 N316 1.610 . S
N315 S314 1.613 . S
N315 C318 1.350 . S
N316 S314 1.610 . S
N316 C317 1.351 . S
C317 C311 1.428 . S
C317 N316 1.351 . S
C317 C318 1.434 . S
C318 C309 1.429 . S
C318 N315 1.350 . S
C318 C317 1.434 . S
C319 C320 1.369 . S
C319 C321 1.419 . S
C319 H323 0.930 . S
C320 C319 1.369 . S
C320 C329 1.429 . S
C321 C319 1.419 . S
C321 C322 1.363 . S
C321 H324 0.929 . S
C322 C321 1.363 . S
C322 C328 1.428 . S
H323 C319 0.930 . S
H324 C321 0.929 . S
S325 N326 1.613 . S
S325 N327 1.610 . S
N326 S325 1.613 . S
N326 C329 1.350 . S
N327 S325 1.610 . S
N327 C328 1.351 . S
C328 C322 1.428 . S
C328 N327 1.351 . S
C328 C329 1.434 . S
C329 C320 1.429 . S
C329 N326 1.350 . S
C329 C328 1.434 . S
C330 C331 1.369 . S
C330 C332 1.419 . S
C330 H334 0.930 . S
C331 C330 1.369 . S
C331 C340 1.429 . S
C332 C330 1.419 . S
C332 C333 1.363 . S
C332 H335 0.929 . S
C333 C332 1.363 . S
C333 C339 1.428 . S
H334 C330 0.930 . S
H335 C332 0.929 . S
S336 N337 1.613 . S
S336 N338 1.610 . S
N337 S336 1.613 . S
N337 C340 1.350 . S
N338 S336 1.610 . S
N338 C339 1.351 . S
C339 C333 1.428 . S
C339 N338 1.351 . S
C339 C340 1.434 . S
C340 C331 1.429 . S
C340 N337 1.350 . S
C340 C339 1.434 . S
C341 C342 1.369 . S
C341 C343 1.419 . S
C341 H345 0.930 . S
C342 C341 1.369 . S
C342 C351 1.429 . S
C343 C341 1.419 . S
C343 C344 1.363 . S
C343 H346 0.929 . S
C344 C343 1.363 . S
C344 C350 1.428 . S
H345 C341 0.930 . S
H346 C343 0.929 . S
S347 N348 1.613 . S
S347 N349 1.610 . S
N348 S347 1.613 . S
N348 C351 1.350 . S
N349 S347 1.610 . S
N349 C350 1.351 . S
C350 C344 1.428 . S
C350 N349 1.351 . S
C350 C351 1.434 . S
C351 C342 1.429 . S
C351 N348 1.350 . S
C351 C350 1.434 . S
C352 C353 1.369 . S
C352 C354 1.419 . S
C352 H356 0.930 . S
C353 C352 1.369 . S
C353 C362 1.429 . S
C354 C352 1.419 . S
C354 C355 1.363 . S
C354 H357 0.929 . S
C355 C354 1.363 . S
C355 C361 1.428 . S
H356 C352 0.930 . S
H357 C354 0.929 . S
S358 N359 1.613 . S
S358 N360 1.610 . S
N359 S358 1.613 . S
N359 C362 1.350 . S
N360 S358 1.610 . S
N360 C361 1.351 . S
C361 C355 1.428 . S
C361 N360 1.351 . S
C361 C362 1.434 . S
C362 C353 1.429 . S
C362 N359 1.350 . S
C362 C361 1.434 . S
C363 C364 1.369 . S
C363 C365 1.419 . S
C363 H367 0.930 . S
C364 C363 1.369 . S
C364 C373 1.429 . S
C365 C363 1.419 . S
C365 C366 1.363 . S
C365 H368 0.929 . S
C366 C365 1.363 . S
C366 C372 1.428 . S
H367 C363 0.930 . S
H368 C365 0.929 . S
S369 N370 1.613 . S
S369 N371 1.610 . S
N370 S369 1.613 . S
N370 C373 1.350 . S
N371 S369 1.610 . S
N371 C372 1.351 . S
C372 C366 1.428 . S
C372 N371 1.351 . S
C372 C373 1.434 . S
C373 C364 1.429 . S
C373 N370 1.350 . S
C373 C372 1.434 . S
C374 C375 1.369 . S
C374 C376 1.419 . S
C374 H378 0.930 . S
C375 C374 1.369 . S
C375 C384 1.429 . S
C376 C374 1.419 . S
C376 C377 1.363 . S
C376 H379 0.929 . S
C377 C376 1.363 . S
C377 C383 1.428 . S
H378 C374 0.930 . S
H379 C376 0.929 . S
S380 N381 1.613 . S
S380 N382 1.610 . S
N381 S380 1.613 . S
N381 C384 1.350 . S
N382 S380 1.610 . S
N382 C383 1.351 . S
C383 C377 1.428 . S
C383 N382 1.351 . S
C383 C384 1.434 . S
C384 C375 1.429 . S
C384 N381 1.350 . S
C384 C383 1.434 . S
C385 C386 1.369 . S
C385 C387 1.419 . S
C385 H389 0.930 . S
C386 C385 1.369 . S
C386 C395 1.429 . S
C387 C385 1.419 . S
C387 C388 1.363 . S
C387 H390 0.929 . S
C388 C387 1.363 . S
C388 C394 1.428 . S
H389 C385 0.930 . S
H390 C387 0.929 . S
S391 N392 1.613 . S
S391 N393 1.610 . S
N392 S391 1.613 . S
N392 C395 1.350 . S
N393 S391 1.610 . S
N393 C394 1.351 . S
C394 C388 1.428 . S
C394 N393 1.351 . S
C394 C395 1.434 . S
C395 C386 1.429 . S
C395 N392 1.350 . S
C395 C394 1.434 . S
C396 C397 1.369 . S
C396 C398 1.419 1_565 S
C396 H400 0.930 . S
C397 C396 1.369 . S
C397 C406 1.429 . S
C398 C396 1.419 1_545 S
C398 C399 1.363 . S
C398 H401 0.929 . S
C399 C398 1.363 . S
C399 C405 1.428 . S
H400 C396 0.930 . S
H401 C398 0.929 . S
S402 N403 1.613 1_545 S
S402 N404 1.610 . S
N403 S402 1.613 1_565 S
N403 C406 1.350 . S
N404 S402 1.610 . S
N404 C405 1.351 . S
C405 C399 1.428 . S
C405 N404 1.351 . S
C405 C406 1.434 1_545 S
C406 C397 1.429 . S
C406 N403 1.350 . S
C406 C405 1.434 1_565 S
C407 C408 1.369 . S
C407 C409 1.419 . S
C407 H411 0.930 . S
C408 C407 1.369 . S
C408 C417 1.429 . S
C409 C407 1.419 . S
C409 C410 1.363 . S
C409 H412 0.929 . S
C410 C409 1.363 . S
C410 C416 1.428 . S
H411 C407 0.930 . S
H412 C409 0.929 . S
S413 N414 1.613 . S
S413 N415 1.610 . S
N414 S413 1.613 . S
N414 C417 1.350 . S
N415 S413 1.610 . S
N415 C416 1.351 . S
C416 C410 1.428 . S
C416 N415 1.351 . S
C416 C417 1.434 . S
C417 C408 1.429 . S
C417 N414 1.350 . S
C417 C416 1.434 . S
C418 C419 1.369 . S
C418 C420 1.419 1_455 S
C418 H422 0.930 . S
C419 C418 1.369 . S
C419 C428 1.429 . S
C420 C418 1.419 1_655 S
C420 C421 1.363 . S
C420 H423 0.929 . S
C421 C420 1.363 . S
C421 C427 1.428 . S
H422 C418 0.930 . S
H423 C420 0.929 . S
S424 N425 1.613 . S
S424 N426 1.610 1_455 S
N425 S424 1.613 . S
N425 C428 1.350 . S
N426 S424 1.610 1_655 S
N426 C427 1.351 . S
C427 C421 1.428 . S
C427 N426 1.351 . S
C427 C428 1.434 1_655 S
C428 C419 1.429 . S
C428 N425 1.350 . S
C428 C427 1.434 1_455 S
C429 C430 1.369 . S
C429 C431 1.419 . S
C429 H433 0.930 . S
C430 C429 1.369 . S
C430 C439 1.429 1_565 S
C431 C429 1.419 . S
C431 C432 1.363 1_565 S
C431 H434 0.929 . S
C432 C431 1.363 1_545 S
C432 C438 1.428 . S
H433 C429 0.930 . S
H434 C431 0.929 . S
S435 N436 1.613 . S
S435 N437 1.610 . S
N436 S435 1.613 . S
N436 C439 1.350 . S
N437 S435 1.610 . S
N437 C438 1.351 . S
C438 C432 1.428 . S
C438 N437 1.351 . S
C438 C439 1.434 . S
C439 C430 1.429 1_545 S
C439 N436 1.350 . S
C439 C438 1.434 . S
C440 C441 1.369 . S
C440 C442 1.419 . S
C440 H444 0.930 . S
C441 C440 1.369 . S
C441 C450 1.429 . S
C442 C440 1.419 . S
C442 C443 1.363 . S
C442 H445 0.929 . S
C443 C442 1.363 . S
C443 C449 1.428 . S
H444 C440 0.930 . S
H445 C442 0.929 . S
S446 N447 1.613 . S
S446 N448 1.610 . S
N447 S446 1.613 . S
N447 C450 1.350 . S
N448 S446 1.610 . S
N448 C449 1.351 . S
C449 C443 1.428 . S
C449 N448 1.351 . S
C449 C450 1.434 . S
C450 C441 1.429 . S
C450 N447 1.350 . S
C450 C449 1.434 . S
C451 C452 1.369 1_455 S
C451 C453 1.419 . S
C451 H455 0.930 . S
C452 C451 1.369 1_655 S
C452 C461 1.429 . S
C453 C451 1.419 . S
C453 C454 1.363 . S
C453 H456 0.929 . S
C454 C453 1.363 . S
C454 C460 1.428 1_455 S
H455 C451 0.930 . S
H456 C453 0.929 . S
S457 N458 1.613 . S
S457 N459 1.610 . S
N458 S457 1.613 . S
N458 C461 1.350 . S
N459 S457 1.610 . S
N459 C460 1.351 . S
C460 C454 1.428 1_655 S
C460 N459 1.351 . S
C460 C461 1.434 . S
C461 C452 1.429 . S
C461 N458 1.350 . S
C461 C460 1.434 . S
C462 C463 1.369 . S
C462 C464 1.419 1_545 S
C462 H466 0.930 . S
C463 C462 1.369 . S
C463 C472 1.429 . S
C464 C462 1.419 1_565 S
C464 C465 1.363 . S
C464 H467 0.929 . S
C465 C464 1.363 . S
C465 C471 1.428 . S
H466 C462 0.930 . S
H467 C464 0.929 . S
S468 N469 1.585 1_565 S
S468 N470 1.610 . S
N469 S468 1.585 1_545 S
N469 C472 1.362 . S
N470 S468 1.610 . S
N470 C471 1.351 . S
C471 C465 1.428 . S
C471 N470 1.351 . S
C471 C472 1.434 1_565 S
C472 C463 1.429 . S
C472 N469 1.362 . S
C472 C471 1.434 1_545 S
C473 C474 1.369 . S
C473 C475 1.419 . S
C473 H477 0.930 . S
C474 C473 1.369 . S
C474 C483 1.429 . S
C475 C473 1.419 . S
C475 C476 1.363 . S
C475 H478 0.929 . S
C476 C475 1.363 . S
C476 C482 1.428 . S
H477 C473 0.930 . S
H478 C475 0.929 . S
S479 N480 1.613 . S
S479 N481 1.610 . S
N480 S479 1.613 . S
N480 C483 1.350 . S
N481 S479 1.610 . S
N481 C482 1.351 . S
C482 C476 1.428 . S
C482 N481 1.351 . S
C482 C483 1.434 . S
C483 C474 1.429 . S
C483 N480 1.350 . S
C483 C482 1.434 . S
C484 C485 1.369 . S
C484 C486 1.419 1_655 S
C484 H488 0.930 . S
C485 C484 1.369 . S
C485 C494 1.429 . S
C486 C484 1.419 1_455 S
C486 C487 1.363 . S
C486 H489 0.929 . S
C487 C486 1.363 . S
C487 C493 1.428 . S
H488 C484 0.930 . S
H489 C486 0.929 . S
S490 N491 1.613 . S
S490 N492 1.610 1_655 S
N491 S490 1.613 . S
N491 C494 1.350 . S
N492 S490 1.610 1_455 S
N492 C493 1.351 . S
C493 C487 1.428 . S
C493 N492 1.351 . S
C493 C494 1.434 1_455 S
C494 C485 1.429 . S
C494 N491 1.350 . S
C494 C493 1.434 1_655 S
C495 C496 1.369 . S
C495 C497 1.419 . S
C495 H499 0.930 . S
C496 C495 1.369 . S
C496 C505 1.429 1_565 S
C497 C495 1.419 . S
C497 C498 1.363 1_565 S
C497 H500 0.929 . S
C498 C497 1.363 1_545 S
C498 C504 1.428 . S
H499 C495 0.930 . S
H500 C497 0.929 . S
S501 N502 1.613 . S
S501 N503 1.610 . S
N502 S501 1.613 . S
N502 C505 1.350 . S
N503 S501 1.610 . S
N503 C504 1.351 . S
C504 C498 1.428 . S
C504 N503 1.351 . S
C504 C505 1.434 . S
C505 C496 1.429 1_545 S
C505 N502 1.350 . S
C505 C504 1.434 . S
C506 C507 1.369 . S
C506 C508 1.419 . S
C506 H510 0.930 . S
C507 C506 1.369 . S
C507 C516 1.429 . S
C508 C506 1.419 . S
C508 C509 1.363 . S
C508 H511 0.929 . S
C509 C508 1.363 . S
C509 C515 1.428 . S
H510 C506 0.930 . S
H511 C508 0.929 . S
S512 N513 1.613 . S
S512 N514 1.610 . S
N513 S512 1.613 . S
N513 C516 1.350 . S
N514 S512 1.610 . S
N514 C515 1.351 . S
C515 C509 1.428 . S
C515 N514 1.351 . S
C515 C516 1.434 . S
C516 C507 1.429 . S
C516 N513 1.350 . S
C516 C515 1.434 . S
C517 C518 1.369 . S
C517 C519 1.417 . S
C517 H521 0.930 . S
C518 C517 1.369 . S
C518 C527 1.416 1_655 S
C519 C517 1.417 . S
C519 C520 1.364 1_655 S
C519 H522 0.930 . S
C520 C519 1.364 1_455 S
C520 C526 1.428 . S
H521 C517 0.930 . S
H522 C519 0.930 . S
S523 N524 1.613 . S
S523 N525 1.610 . S
N524 S523 1.613 . S
N524 C527 1.342 . S
N525 S523 1.610 . S
N525 C526 1.351 . S
C526 C520 1.428 . S
C526 N525 1.351 . S
C526 C527 1.457 . S
C527 C518 1.416 1_455 S
C527 N524 1.342 . S
C527 C526 1.457 . S
C528 C529 1.369 . S
C528 C530 1.419 . S
C528 H532 0.930 . S
C529 C528 1.369 . S
C529 C538 1.429 . S
C530 C528 1.419 . S
C530 C531 1.363 . S
C530 H533 0.929 . S
C531 C530 1.363 . S
C531 C537 1.428 . S
H532 C528 0.930 . S
H533 C530 0.929 . S
S534 N535 1.613 . S
S534 N536 1.610 . S
N535 S534 1.613 . S
N535 C538 1.350 . S
N536 S534 1.610 . S
N536 C537 1.351 . S
C537 C531 1.428 . S
C537 N536 1.351 . S
C537 C538 1.434 . S
C538 C529 1.429 . S
C538 N535 1.350 . S
C538 C537 1.434 . S
C539 C540 1.369 . S
C539 C541 1.419 . S
C539 H543 0.930 . S
C540 C539 1.369 . S
C540 C549 1.429 . S
C541 C539 1.419 . S
C541 C542 1.363 . S
C541 H544 0.929 . S
C542 C541 1.363 . S
C542 C548 1.428 . S
H543 C539 0.930 . S
H544 C541 0.929 . S
S545 N546 1.613 . S
S545 N547 1.610 . S
N546 S545 1.613 . S
N546 C549 1.350 . S
N547 S545 1.610 . S
N547 C548 1.351 . S
C548 C542 1.428 . S
C548 N547 1.351 . S
C548 C549 1.434 . S
C549 C540 1.429 . S
C549 N546 1.350 . S
C549 C548 1.434 . S
C550 C551 1.369 . S
C550 C552 1.419 . S
C550 H554 0.930 . S
C551 C550 1.369 . S
C551 C560 1.429 . S
C552 C550 1.419 . S
C552 C553 1.363 . S
C552 H555 0.929 . S
C553 C552 1.363 . S
C553 C559 1.428 . S
H554 C550 0.930 . S
H555 C552 0.929 . S
S556 N557 1.613 . S
S556 N558 1.610 . S
N557 S556 1.613 . S
N557 C560 1.350 . S
N558 S556 1.610 . S
N558 C559 1.351 . S
C559 C553 1.428 . S
C559 N558 1.351 . S
C559 C560 1.434 . S
C560 C551 1.429 . S
C560 N557 1.350 . S
C560 C559 1.434 . S
C561 C562 1.369 . S
C561 C563 1.419 . S
C561 H565 0.930 . S
C562 C561 1.369 . S
C562 C571 1.429 . S
C563 C561 1.419 . S
C563 C564 1.363 . S
C563 H566 0.929 . S
C564 C563 1.363 . S
C564 C570 1.428 . S
H565 C561 0.930 . S
H566 C563 0.929 . S
S567 N568 1.613 . S
S567 N569 1.610 . S
N568 S567 1.613 . S
N568 C571 1.350 . S
N569 S567 1.610 . S
N569 C570 1.351 . S
C570 C564 1.428 . S
C570 N569 1.351 . S
C570 C571 1.434 . S
C571 C562 1.429 . S
C571 N568 1.350 . S
C571 C570 1.434 . S
C572 C573 1.369 . S
C572 C574 1.419 . S
C572 H576 0.930 . S
C573 C572 1.369 . S
C573 C582 1.429 . S
C574 C572 1.419 . S
C574 C575 1.363 . S
C574 H577 0.929 . S
C575 C574 1.363 . S
C575 C581 1.428 . S
H576 C572 0.930 . S
H577 C574 0.929 . S
S578 N579 1.613 . S
S578 N580 1.610 . S
N579 S578 1.613 . S
N579 C582 1.350 . S
N580 S578 1.610 . S
N580 C581 1.351 . S
C581 C575 1.428 . S
C581 N580 1.351 . S
C581 C582 1.434 . S
C582 C573 1.429 . S
C582 N579 1.350 . S
C582 C581 1.434 . S
C583 C584 1.369 . S
C583 C585 1.419 . S
C583 H587 0.930 . S
C584 C583 1.369 . S
C584 C593 1.429 . S
C585 C583 1.419 . S
C585 C586 1.363 . S
C585 H588 0.929 . S
C586 C585 1.363 . S
C586 C592 1.428 . S
H587 C583 0.930 . S
H588 C585 0.929 . S
S589 N590 1.613 . S
S589 N591 1.610 . S
N590 S589 1.613 . S
N590 C593 1.350 . S
N591 S589 1.610 . S
N591 C592 1.351 . S
C592 C586 1.428 . S
C592 N591 1.351 . S
C592 C593 1.434 . S
C593 C584 1.429 . S
C593 N590 1.350 . S
C593 C592 1.434 . S
C594 C595 1.369 . S
C594 C596 1.419 . S
C594 H598 0.930 . S
C595 C594 1.369 . S
C595 C604 1.429 . S
C596 C594 1.419 . S
C596 C597 1.363 . S
C596 H599 0.929 . S
C597 C596 1.363 . S
C597 C603 1.428 . S
H598 C594 0.930 . S
H599 C596 0.929 . S
S600 N601 1.613 . S
S600 N602 1.610 . S
N601 S600 1.613 . S
N601 C604 1.350 . S
N602 S600 1.610 . S
N602 C603 1.351 . S
C603 C597 1.428 . S
C603 N602 1.351 . S
C603 C604 1.434 . S
C604 C595 1.429 . S
C604 N601 1.350 . S
C604 C603 1.434 . S
C605 C606 1.369 . S
C605 C607 1.419 . S
C605 H609 0.930 . S
C606 C605 1.369 . S
C606 C615 1.429 . S
C607 C605 1.419 . S
C607 C608 1.363 . S
C607 H610 0.929 . S
C608 C607 1.363 . S
C608 C614 1.428 . S
H609 C605 0.930 . S
H610 C607 0.929 . S
S611 N612 1.613 . S
S611 N613 1.610 . S
N612 S611 1.613 . S
N612 C615 1.350 . S
N613 S611 1.610 . S
N613 C614 1.351 . S
C614 C608 1.428 . S
C614 N613 1.351 . S
C614 C615 1.434 . S
C615 C606 1.429 . S
C615 N612 1.350 . S
C615 C614 1.434 . S
C616 C617 1.369 . S
C616 C618 1.419 . S
C616 H620 0.930 . S
C617 C616 1.369 . S
C617 C626 1.429 . S
C618 C616 1.419 . S
C618 C619 1.363 . S
C618 H621 0.929 . S
C619 C618 1.363 . S
C619 C625 1.428 . S
H620 C616 0.930 . S
H621 C618 0.929 . S
S622 N623 1.613 . S
S622 N624 1.610 . S
N623 S622 1.613 . S
N623 C626 1.350 . S
N624 S622 1.610 . S
N624 C625 1.351 . S
C625 C619 1.428 . S
C625 N624 1.351 . S
C625 C626 1.434 . S
C626 C617 1.429 . S
C626 N623 1.350 . S
C626 C625 1.434 . S
C627 C628 1.369 . S
C627 C629 1.419 . S
C627 H631 0.930 . S
C628 C627 1.369 . S
C628 C637 1.429 . S
C629 C627 1.419 . S
C629 C630 1.363 . S
C629 H632 0.929 . S
C630 C629 1.363 . S
C630 C636 1.428 . S
H631 C627 0.930 . S
H632 C629 0.929 . S
S633 N634 1.613 . S
S633 N635 1.610 . S
N634 S633 1.613 . S
N634 C637 1.350 . S
N635 S633 1.610 . S
N635 C636 1.351 . S
C636 C630 1.428 . S
C636 N635 1.351 . S
C636 C637 1.434 . S
C637 C628 1.429 . S
C637 N634 1.350 . S
C637 C636 1.434 . S
C638 C639 1.369 . S
C638 C640 1.419 . S
C638 H642 0.930 . S
C639 C638 1.369 . S
C639 C648 1.429 . S
C640 C638 1.419 . S
C640 C641 1.363 . S
C640 H643 0.929 . S
C641 C640 1.363 . S
C641 C647 1.428 . S
H642 C638 0.930 . S
H643 C640 0.929 . S
S644 N645 1.613 . S
S644 N646 1.610 . S
N645 S644 1.613 . S
N645 C648 1.350 . S
N646 S644 1.610 . S
N646 C647 1.351 . S
C647 C641 1.428 . S
C647 N646 1.351 . S
C647 C648 1.434 . S
C648 C639 1.429 . S
C648 N645 1.350 . S
C648 C647 1.434 . S
C649 C650 1.369 . S
C649 C651 1.419 . S
C649 H653 0.930 . S
C650 C649 1.369 . S
C650 C659 1.429 . S
C651 C649 1.419 . S
C651 C652 1.363 . S
C651 H654 0.929 . S
C652 C651 1.363 . S
C652 C658 1.428 . S
H653 C649 0.930 . S
H654 C651 0.929 . S
S655 N656 1.613 . S
S655 N657 1.610 . S
N656 S655 1.613 . S
N656 C659 1.350 . S
N657 S655 1.610 . S
N657 C658 1.351 . S
C658 C652 1.428 . S
C658 N657 1.351 . S
C658 C659 1.434 . S
C659 C650 1.429 . S
C659 N656 1.350 . S
C659 C658 1.434 . S
C265 C8 1.255 . S
C267 C184 1.255 . S
C276 C216 1.256 . S
C278 C30 1.256 . S
C287 C62 1.256 . S
C289 C228 1.256 . S
C298 C260 1.254 . S
C300 C76 1.254 . S
C309 C98 1.254 . S
C311 C150 1.255 . S
C320 C172 1.254 . S
C322 C120 1.254 . S
C331 C249 1.345 . S
C333 C81 1.347 . S
C342 C103 1.348 . S
C344 C139 1.345 . S
C353 C161 1.346 . S
C355 C125 1.348 . S
C364 C197 1.348 . S
C366 C21 1.345 . S
C375 C205 1.347 . S
C377 C43 1.346 . S
C386 C51 1.346 . S
C388 C241 1.348 . S
C397 C162 1.344 . S
C399 C10 1.343 . S
C408 C186 1.339 . S
C410 C32 1.340 . S
C419 C206 1.339 . S
C421 C52 1.340 . S
C430 C84 1.341 . S
C432 C230 1.341 . S
C441 C106 1.339 . S
C443 C250 1.340 . S
C452 C140 1.342 . S
C454 C128 1.342 . S
C463 C235 1.411 . S
C465 C73 1.414 . S
C474 C95 1.413 . S
C476 C263 1.409 . S
C485 C153 1.414 . S
C487 C117 1.413 . S
C496 C175 1.409 . S
C498 C15 1.412 . S
C507 C37 1.410 . S
C509 C191 1.410 . S
C518 C65 1.409 . S
C520 C219 1.411 . S
C529 C18 1.514 . S
C531 C238 1.514 . S
C540 C40 1.512 . S
C542 C252 1.513 . S
C551 C142 1.514 . S
C553 C54 1.513 . S
C562 C164 1.513 . S
C564 C74 1.512 . S
C573 C96 1.512 . S
C575 C194 1.513 . S
C584 C208 1.512 . S
C586 C118 1.513 . S
C595 C87 1.610 . S
C597 C169 1.606 . S
C606 C109 1.606 . S
C608 C183 1.609 . S
C617 C213 1.610 . S
C619 C131 1.607 . S
C628 C227 1.606 . S
C630 C7 1.610 . S
C639 C257 1.610 . S
C641 C29 1.606 . S
C650 C147 1.609 . S
C652 C59 1.607 . S
