# Generated by pormake.
# Topology ukd, (4)-cn, num edge types: 1
# Building blocks:
#     Node 0, Type 0, BuildingBlock: KUFVIS_clean_sbu_0, # of connection points: 4
#     Node 1, Type 0, BuildingBlock: KUFVIS_clean_sbu_0, # of connection points: 4
#     Node 2, Type 0, BuildingBlock: KUFVIS_clean_sbu_0, # of connection points: 4
#     Node 3, Type 0, BuildingBlock: KUFVIS_clean_sbu_0, # of connection points: 4
#     Node 4, Type 0, BuildingBlock: KUFVIS_clean_sbu_0, # of connection points: 4
#     Node 5, Type 0, BuildingBlock: KUFVIS_clean_sbu_0, # of connection points: 4
#     Node 6, Type 0, BuildingBlock: KUFVIS_clean_sbu_0, # of connection points: 4
#     Node 7, Type 0, BuildingBlock: KUFVIS_clean_sbu_0, # of connection points: 4
#     Node 8, Type 0, BuildingBlock: KUFVIS_clean_sbu_0, # of connection points: 4
#     Node 9, Type 0, BuildingBlock: KUFVIS_clean_sbu_0, # of connection points: 4
#     Node 10, Type 0, BuildingBlock: KUFVIS_clean_sbu_0, # of connection points: 4
#     Node 11, Type 0, BuildingBlock: KUFVIS_clean_sbu_0, # of connection points: 4
#     Node 12, Type 0, BuildingBlock: KUFVIS_clean_sbu_0, # of connection points: 4
#     Node 13, Type 0, BuildingBlock: KUFVIS_clean_sbu_0, # of connection points: 4
#     Node 14, Type 0, BuildingBlock: KUFVIS_clean_sbu_0, # of connection points: 4
#     Node 15, Type 0, BuildingBlock: KUFVIS_clean_sbu_0, # of connection points: 4
#     Node 16, Type 0, BuildingBlock: KUFVIS_clean_sbu_0, # of connection points: 4
#     Node 17, Type 0, BuildingBlock: KUFVIS_clean_sbu_0, # of connection points: 4
#     Node 18, Type 0, BuildingBlock: KUFVIS_clean_sbu_0, # of connection points: 4
#     Node 19, Type 0, BuildingBlock: KUFVIS_clean_sbu_0, # of connection points: 4
#     Node 20, Type 0, BuildingBlock: KUFVIS_clean_sbu_0, # of connection points: 4
#     Node 21, Type 0, BuildingBlock: KUFVIS_clean_sbu_0, # of connection points: 4
#     Node 22, Type 0, BuildingBlock: KUFVIS_clean_sbu_0, # of connection points: 4
#     Node 23, Type 0, BuildingBlock: KUFVIS_clean_sbu_0, # of connection points: 4
#     Node 24, Type 0, BuildingBlock: KUFVIS_clean_sbu_0, # of connection points: 4
#     Node 25, Type 0, BuildingBlock: KUFVIS_clean_sbu_0, # of connection points: 4
#     Node 26, Type 0, BuildingBlock: KUFVIS_clean_sbu_0, # of connection points: 4
#     Node 27, Type 0, BuildingBlock: KUFVIS_clean_sbu_0, # of connection points: 4
#     Node 28, Type 0, BuildingBlock: KUFVIS_clean_sbu_0, # of connection points: 4
#     Node 29, Type 0, BuildingBlock: KUFVIS_clean_sbu_0, # of connection points: 4
#     Node 30, Type 0, BuildingBlock: KUFVIS_clean_sbu_0, # of connection points: 4
#     Node 31, Type 0, BuildingBlock: KUFVIS_clean_sbu_0, # of connection points: 4
#     Edge 32, Type (0, 0), BuildingBlock: KIFKEQ_clean_linker_1, # of connection points: 2
#     Edge 33, Type (0, 0), BuildingBlock: KIFKEQ_clean_linker_1, # of connection points: 2
#     Edge 34, Type (0, 0), BuildingBlock: KIFKEQ_clean_linker_1, # of connection points: 2
#     Edge 35, Type (0, 0), BuildingBlock: KIFKEQ_clean_linker_1, # of connection points: 2
#     Edge 36, Type (0, 0), BuildingBlock: KIFKEQ_clean_linker_1, # of connection points: 2
#     Edge 37, Type (0, 0), BuildingBlock: KIFKEQ_clean_linker_1, # of connection points: 2
#     Edge 38, Type (0, 0), BuildingBlock: KIFKEQ_clean_linker_1, # of connection points: 2
#     Edge 39, Type (0, 0), BuildingBlock: KIFKEQ_clean_linker_1, # of connection points: 2
#     Edge 40, Type (0, 0), BuildingBlock: KIFKEQ_clean_linker_1, # of connection points: 2
#     Edge 41, Type (0, 0), BuildingBlock: KIFKEQ_clean_linker_1, # of connection points: 2
#     Edge 42, Type (0, 0), BuildingBlock: KIFKEQ_clean_linker_1, # of connection points: 2
#     Edge 43, Type (0, 0), BuildingBlock: KIFKEQ_clean_linker_1, # of connection points: 2
#     Edge 44, Type (0, 0), BuildingBlock: KIFKEQ_clean_linker_1, # of connection points: 2
#     Edge 45, Type (0, 0), BuildingBlock: KIFKEQ_clean_linker_1, # of connection points: 2
#     Edge 46, Type (0, 0), BuildingBlock: KIFKEQ_clean_linker_1, # of connection points: 2
#     Edge 47, Type (0, 0), BuildingBlock: KIFKEQ_clean_linker_1, # of connection points: 2
#     Edge 48, Type (0, 0), BuildingBlock: KIFKEQ_clean_linker_1, # of connection points: 2
#     Edge 49, Type (0, 0), BuildingBlock: KIFKEQ_clean_linker_1, # of connection points: 2
#     Edge 50, Type (0, 0), BuildingBlock: KIFKEQ_clean_linker_1, # of connection points: 2
#     Edge 51, Type (0, 0), BuildingBlock: KIFKEQ_clean_linker_1, # of connection points: 2
#     Edge 52, Type (0, 0), BuildingBlock: KIFKEQ_clean_linker_1, # of connection points: 2
#     Edge 53, Type (0, 0), BuildingBlock: KIFKEQ_clean_linker_1, # of connection points: 2
#     Edge 54, Type (0, 0), BuildingBlock: KIFKEQ_clean_linker_1, # of connection points: 2
#     Edge 55, Type (0, 0), BuildingBlock: KIFKEQ_clean_linker_1, # of connection points: 2
#     Edge 56, Type (0, 0), BuildingBlock: KIFKEQ_clean_linker_1, # of connection points: 2
#     Edge 57, Type (0, 0), BuildingBlock: KIFKEQ_clean_linker_1, # of connection points: 2
#     Edge 58, Type (0, 0), BuildingBlock: KIFKEQ_clean_linker_1, # of connection points: 2
#     Edge 59, Type (0, 0), BuildingBlock: KIFKEQ_clean_linker_1, # of connection points: 2
#     Edge 60, Type (0, 0), BuildingBlock: KIFKEQ_clean_linker_1, # of connection points: 2
#     Edge 61, Type (0, 0), BuildingBlock: KIFKEQ_clean_linker_1, # of connection points: 2
#     Edge 62, Type (0, 0), BuildingBlock: KIFKEQ_clean_linker_1, # of connection points: 2
#     Edge 63, Type (0, 0), BuildingBlock: KIFKEQ_clean_linker_1, # of connection points: 2
#     Edge 64, Type (0, 0), BuildingBlock: KIFKEQ_clean_linker_1, # of connection points: 2
#     Edge 65, Type (0, 0), BuildingBlock: KIFKEQ_clean_linker_1, # of connection points: 2
#     Edge 66, Type (0, 0), BuildingBlock: KIFKEQ_clean_linker_1, # of connection points: 2
#     Edge 67, Type (0, 0), BuildingBlock: KIFKEQ_clean_linker_1, # of connection points: 2
#     Edge 68, Type (0, 0), BuildingBlock: KIFKEQ_clean_linker_1, # of connection points: 2
#     Edge 69, Type (0, 0), BuildingBlock: KIFKEQ_clean_linker_1, # of connection points: 2
#     Edge 70, Type (0, 0), BuildingBlock: KIFKEQ_clean_linker_1, # of connection points: 2
#     Edge 71, Type (0, 0), BuildingBlock: KIFKEQ_clean_linker_1, # of connection points: 2
#     Edge 72, Type (0, 0), BuildingBlock: KIFKEQ_clean_linker_1, # of connection points: 2
#     Edge 73, Type (0, 0), BuildingBlock: KIFKEQ_clean_linker_1, # of connection points: 2
#     Edge 74, Type (0, 0), BuildingBlock: KIFKEQ_clean_linker_1, # of connection points: 2
#     Edge 75, Type (0, 0), BuildingBlock: KIFKEQ_clean_linker_1, # of connection points: 2
#     Edge 76, Type (0, 0), BuildingBlock: KIFKEQ_clean_linker_1, # of connection points: 2
#     Edge 77, Type (0, 0), BuildingBlock: KIFKEQ_clean_linker_1, # of connection points: 2
#     Edge 78, Type (0, 0), BuildingBlock: KIFKEQ_clean_linker_1, # of connection points: 2
#     Edge 79, Type (0, 0), BuildingBlock: KIFKEQ_clean_linker_1, # of connection points: 2
#     Edge 80, Type (0, 0), BuildingBlock: KIFKEQ_clean_linker_1, # of connection points: 2
#     Edge 81, Type (0, 0), BuildingBlock: KIFKEQ_clean_linker_1, # of connection points: 2
#     Edge 82, Type (0, 0), BuildingBlock: KIFKEQ_clean_linker_1, # of connection points: 2
#     Edge 83, Type (0, 0), BuildingBlock: KIFKEQ_clean_linker_1, # of connection points: 2
#     Edge 84, Type (0, 0), BuildingBlock: KIFKEQ_clean_linker_1, # of connection points: 2
#     Edge 85, Type (0, 0), BuildingBlock: KIFKEQ_clean_linker_1, # of connection points: 2
#     Edge 86, Type (0, 0), BuildingBlock: KIFKEQ_clean_linker_1, # of connection points: 2
#     Edge 87, Type (0, 0), BuildingBlock: KIFKEQ_clean_linker_1, # of connection points: 2
#     Edge 88, Type (0, 0), BuildingBlock: KIFKEQ_clean_linker_1, # of connection points: 2
#     Edge 89, Type (0, 0), BuildingBlock: KIFKEQ_clean_linker_1, # of connection points: 2
#     Edge 90, Type (0, 0), BuildingBlock: KIFKEQ_clean_linker_1, # of connection points: 2
#     Edge 91, Type (0, 0), BuildingBlock: KIFKEQ_clean_linker_1, # of connection points: 2
#     Edge 92, Type (0, 0), BuildingBlock: KIFKEQ_clean_linker_1, # of connection points: 2
#     Edge 93, Type (0, 0), BuildingBlock: KIFKEQ_clean_linker_1, # of connection points: 2
#     Edge 94, Type (0, 0), BuildingBlock: KIFKEQ_clean_linker_1, # of connection points: 2
#     Edge 95, Type (0, 0), BuildingBlock: KIFKEQ_clean_linker_1, # of connection points: 2
# Relax obj value: 0.060
# Max RMSD: 0.102
# Mean RMSD: 0.100
data_MOF--net-ukd--node1-KUFVIS_clean_sbu_0--edge1-KIFKEQ_clean_linker_1
_symmetry_space_group_name_H-M    P1
_symmetry_Int_Tables_number       1
_symmetry_cell_setting            triclinic
loop_
_symmetry_equiv_pos_as_xyz
'x, y, z'
_cell_length_a     45.314436
_cell_length_b     45.320913
_cell_length_c     73.676102
_cell_angle_alpha  90.010465
_cell_angle_beta   90.010408
_cell_angle_gamma 89.981303
loop_
_atom_site_label
_atom_site_type_symbol
_atom_site_fract_x
_atom_site_fract_y
_atom_site_fract_z
_atom_type_partial_charge
Mn0 Mn 0.21548 0.18101 0.34747 0.0
Mn1 Mn 0.15 0.18986 0.32613 0.0
C2 C 0.17353 0.15904 0.35928 0.0
C3 C 0.2595 0.15483 0.35143 0.0
C4 C 0.17857 0.23723 0.34941 0.0
O5 O 0.22728 0.19704 0.32252 0.0
O6 O 0.18275 0.19728 0.30886 0.0
C7 C 0.1534 0.13931 0.3008 0.0
N8 N 0.13889 0.15421 0.31413 0.0
C9 C 0.09859 0.11967 0.31346 0.0
C10 C 0.11302 0.10403 0.29963 0.0
C11 C 0.14059 0.11384 0.29332 0.0
C12 C 0.11245 0.14487 0.32038 0.0
H13 H 0.17458 0.14685 0.29592 0.0
C14 C 0.21076 0.20113 0.30866 0.0
O15 O 0.25717 0.18222 0.35642 0.0
O16 O 0.2369 0.14337 0.34324 0.0
N17 N 0.11599 0.18357 0.34102 0.0
C18 C 0.10564 0.20041 0.35497 0.0
C19 C 0.07849 0.19328 0.36304 0.0
C20 C 0.06209 0.1692 0.35655 0.0
C21 C 0.07302 0.1524 0.34205 0.0
C22 C 0.10014 0.16065 0.33448 0.0
H23 H 0.11803 0.2191 0.35992 0.0
O24 O 0.19658 0.16325 0.36937 0.0
O25 O 0.17583 0.16728 0.34241 0.0
O26 O 0.20061 0.22208 0.35486 0.0
O27 O 0.15918 0.22751 0.33833 0.0
C28 C 0.05838 0.12745 0.33505 0.0
C29 C 0.07121 0.11103 0.32081 0.0
H30 H 0.10324 0.08434 0.29385 0.0
H31 H 0.15192 0.10182 0.28271 0.0
H32 H 0.0702 0.20634 0.37424 0.0
H33 H 0.04122 0.16369 0.36286 0.0
H34 H 0.03747 0.12042 0.34071 0.0
H35 H 0.05995 0.09164 0.31572 0.0
Mn36 Mn 0.07201 0.96963 0.59877 0.0
Mn37 Mn 0.06519 0.9046 0.57663 0.0
C38 C 0.09615 0.92826 0.60975 0.0
C39 C 0.09566 0.01484 0.6032 0.0
C40 C 0.01745 0.93039 0.60084 0.0
O41 O 0.05457 0.98161 0.57418 0.0
O42 O 0.05613 0.93765 0.55989 0.0
C43 C 0.1149 0.91078 0.55088 0.0
N44 N 0.1009 0.89524 0.56413 0.0
C45 C 0.1367 0.85612 0.56242 0.0
C46 C 0.15145 0.87163 0.54867 0.0
C47 C 0.14055 0.89913 0.54293 0.0
C48 C 0.11129 0.86888 0.56985 0.0
H49 H 0.10653 0.93189 0.54642 0.0
C50 C 0.05101 0.96544 0.56011 0.0
O51 O 0.0687 0.01053 0.60853 0.0
O52 O 0.10831 0.99345 0.59443 0.0
N53 N 0.07311 0.87028 0.59095 0.0
C54 C 0.05697 0.85874 0.60484 0.0
C55 C 0.06515 0.83144 0.61234 0.0
C56 C 0.08954 0.81611 0.60531 0.0
C57 C 0.10561 0.82825 0.59087 0.0
C58 C 0.09633 0.85545 0.58389 0.0
H59 H 0.03802 0.87027 0.61018 0.0
O60 O 0.09136 0.95081 0.62016 0.0
O61 O 0.08734 0.93076 0.59299 0.0
O62 O 0.03201 0.95267 0.60647 0.0
O63 O 0.02748 0.91188 0.5893 0.0
C64 C 0.1308 0.81471 0.58336 0.0
C65 C 0.14641 0.8287 0.56919 0.0
H66 H 0.17125 0.86273 0.54251 0.0
H67 H 0.15187 0.91128 0.53237 0.0
H68 H 0.05265 0.82221 0.62349 0.0
H69 H 0.09586 0.79512 0.61118 0.0
H70 H 0.13862 0.79377 0.58856 0.0
H71 H 0.16597 0.81828 0.5637 0.0
Mn72 Mn 0.28579 0.82049 0.84894 0.0
Mn73 Mn 0.35148 0.81158 0.82789 0.0
C74 C 0.32749 0.84297 0.86067 0.0
C75 C 0.24171 0.84663 0.85254 0.0
C76 C 0.323 0.76456 0.8515 0.0
O77 O 0.27426 0.80394 0.82406 0.0
O78 O 0.3189 0.80372 0.81056 0.0
C79 C 0.3481 0.86158 0.80215 0.0
N80 N 0.36255 0.84703 0.81565 0.0
C81 C 0.40273 0.8817 0.81485 0.0
C82 C 0.38837 0.89699 0.80084 0.0
C83 C 0.36089 0.88693 0.79451 0.0
C84 C 0.38889 0.85661 0.82193 0.0
H85 H 0.327 0.85386 0.79725 0.0
C86 C 0.29091 0.79981 0.81028 0.0
O87 O 0.24405 0.81936 0.85778 0.0
O88 O 0.26432 0.85794 0.84431 0.0
N89 N 0.38532 0.81834 0.84286 0.0
C90 C 0.39559 0.80186 0.85699 0.0
C91 C 0.42265 0.80926 0.86509 0.0
C92 C 0.43903 0.83326 0.85846 0.0
C93 C 0.42815 0.8497 0.8438 0.0
C94 C 0.40113 0.84119 0.83619 0.0
H95 H 0.38324 0.78324 0.86204 0.0
O96 O 0.30442 0.83883 0.87075 0.0
O97 O 0.32537 0.83434 0.84387 0.0
O98 O 0.3008 0.77967 0.85674 0.0
O99 O 0.34236 0.77414 0.84035 0.0
C100 C 0.44277 0.87456 0.83665 0.0
C101 C 0.43001 0.89061 0.82223 0.0
H102 H 0.39813 0.91657 0.79494 0.0
H103 H 0.34962 0.89868 0.78376 0.0
H104 H 0.43089 0.79648 0.87642 0.0
H105 H 0.45983 0.83896 0.86478 0.0
H106 H 0.4636 0.88178 0.84233 0.0
H107 H 0.44125 0.90992 0.81702 0.0
Mn108 Mn 0.4321 0.03462 0.09834 0.0
Mn109 Mn 0.43967 0.09932 0.07598 0.0
C110 C 0.40957 0.07676 0.10947 0.0
C111 C 0.40646 0.99046 0.10291 0.0
C112 C 0.48738 0.07312 0.10007 0.0
O113 O 0.44851 0.02188 0.07364 0.0
O114 O 0.44861 0.06594 0.0595 0.0
C115 C 0.38958 0.09218 0.05059 0.0
N116 N 0.40359 0.10807 0.06369 0.0
C117 C 0.3664 0.14594 0.06267 0.0
C118 C 0.35164 0.13006 0.04908 0.0
C119 C 0.36324 0.10301 0.04306 0.0
C120 C 0.39244 0.13393 0.06974 0.0
H121 H 0.39843 0.07138 0.04594 0.0
C122 C 0.45279 0.03801 0.05965 0.0
O123 O 0.43378 0.99332 0.10797 0.0
O124 O 0.39482 0.01257 0.09434 0.0
N125 N 0.43185 0.13401 0.09 0.0
C126 C 0.449 0.14678 0.10302 0.0
C127 C 0.44061 0.1741 0.1104 0.0
C128 C 0.41498 0.18824 0.10412 0.0
C129 C 0.39813 0.17506 0.09037 0.0
C130 C 0.40765 0.14789 0.08348 0.0
H131 H 0.46889 0.13617 0.10777 0.0
O132 O 0.41392 0.05421 0.11993 0.0
O133 O 0.41781 0.07378 0.09267 0.0
O134 O 0.47282 0.05065 0.10548 0.0
O135 O 0.47737 0.09205 0.08874 0.0
C136 C 0.37224 0.18781 0.08326 0.0
C137 C 0.35625 0.17315 0.06952 0.0
H138 H 0.33136 0.13838 0.04321 0.0
H139 H 0.35192 0.09058 0.03263 0.0
H140 H 0.45386 0.18423 0.12091 0.0
H141 H 0.40847 0.20922 0.10993 0.0
H142 H 0.36431 0.20879 0.08834 0.0
H143 H 0.33621 0.18302 0.06429 0.0
Mn144 Mn 0.2158 0.82262 0.15875 0.0
Mn145 Mn 0.14937 0.81588 0.17917 0.0
C146 C 0.17513 0.84699 0.14718 0.0
C147 C 0.26087 0.84693 0.15476 0.0
C148 C 0.17314 0.7703 0.15323 0.0
O149 O 0.2273 0.80544 0.18334 0.0
O150 O 0.18146 0.7989 0.19427 0.0
C151 C 0.16285 0.85802 0.20875 0.0
N152 N 0.14519 0.84933 0.19478 0.0
C153 C 0.11227 0.89022 0.19973 0.0
C154 C 0.13002 0.89951 0.21423 0.0
C155 C 0.15548 0.88339 0.21872 0.0
C156 C 0.1209 0.86494 0.19018 0.0
H157 H 0.18243 0.84571 0.21227 0.0
C158 C 0.20948 0.79596 0.1954 0.0
O159 O 0.25732 0.81977 0.14953 0.0
O160 O 0.23893 0.85906 0.16322 0.0
N161 N 0.11543 0.83094 0.16674 0.0
C162 C 0.09988 0.81824 0.15297 0.0
C163 C 0.07335 0.83117 0.14714 0.0
C164 C 0.06277 0.85671 0.15575 0.0
C165 C 0.07864 0.86886 0.17027 0.0
C166 C 0.10484 0.85488 0.17556 0.0
H167 H 0.10782 0.79857 0.14636 0.0
O168 O 0.19784 0.84167 0.13704 0.0
O169 O 0.17688 0.83847 0.16403 0.0
O170 O 0.19851 0.78229 0.15113 0.0
O171 O 0.15246 0.78158 0.16283 0.0
C172 C 0.06939 0.89421 0.17978 0.0
C173 C 0.08632 0.90501 0.19441 0.0
H174 H 0.12433 0.91899 0.22201 0.0
H175 H 0.16935 0.89046 0.22986 0.0
H176 H 0.06113 0.82151 0.13601 0.0
H177 H 0.0424 0.86673 0.15114 0.0
H178 H 0.04929 0.90556 0.17595 0.0
H179 H 0.07906 0.92459 0.20156 0.0
Mn180 Mn 0.4305 0.96582 0.40705 0.0
Mn181 Mn 0.43715 0.90058 0.42892 0.0
C182 C 0.40771 0.92418 0.3955 0.0
C183 C 0.40507 0.01016 0.40266 0.0
C184 C 0.48534 0.92657 0.40512 0.0
O185 O 0.4467 0.97794 0.43192 0.0
O186 O 0.4466 0.93352 0.44563 0.0
C187 C 0.38714 0.90822 0.45431 0.0
N188 N 0.40091 0.89228 0.44113 0.0
C189 C 0.36299 0.85515 0.44183 0.0
C190 C 0.34848 0.87107 0.4555 0.0
C191 C 0.36057 0.89778 0.46172 0.0
C192 C 0.38929 0.86677 0.43488 0.0
H193 H 0.39636 0.92876 0.45911 0.0
C194 C 0.45087 0.96143 0.44577 0.0
O195 O 0.43245 0.0073 0.39769 0.0
O196 O 0.39333 0.98799 0.41108 0.0
N197 N 0.42878 0.86625 0.41469 0.0
C198 C 0.44577 0.85334 0.40165 0.0
C199 C 0.43691 0.8263 0.39409 0.0
C200 C 0.41097 0.81257 0.40022 0.0
C201 C 0.39429 0.82587 0.414 0.0
C202 C 0.40429 0.85275 0.42108 0.0
H203 H 0.46588 0.86363 0.39701 0.0
O204 O 0.41243 0.94688 0.38523 0.0
O205 O 0.41577 0.92672 0.41237 0.0
O206 O 0.47118 0.94949 0.39996 0.0
O207 O 0.47496 0.90746 0.4162 0.0
C208 C 0.36813 0.81352 0.42099 0.0
C209 C 0.35236 0.82826 0.43479 0.0
H210 H 0.32802 0.86306 0.46128 0.0
H211 H 0.34945 0.91025 0.47222 0.0
H212 H 0.45003 0.81607 0.38355 0.0
H213 H 0.40409 0.79182 0.39427 0.0
H214 H 0.35984 0.79277 0.41577 0.0
H215 H 0.33211 0.81869 0.43992 0.0
Mn216 Mn 0.28647 0.18416 0.65601 0.0
Mn217 Mn 0.35109 0.18927 0.67873 0.0
C218 C 0.32801 0.16057 0.64487 0.0
C219 C 0.24136 0.1607 0.65093 0.0
C220 C 0.32631 0.23843 0.6552 0.0
O221 O 0.27406 0.20044 0.68083 0.0
O222 O 0.3178 0.19801 0.69532 0.0
C223 C 0.34307 0.13819 0.70326 0.0
N224 N 0.35922 0.15253 0.69041 0.0
C225 C 0.39662 0.11484 0.69094 0.0
C226 C 0.38047 0.09974 0.70425 0.0
C227 C 0.35353 0.11142 0.71039 0.0
C228 C 0.38497 0.1413 0.68425 0.0
H229 H 0.32236 0.14713 0.708 0.0
C230 C 0.29004 0.20328 0.69504 0.0
O231 O 0.24569 0.18787 0.64602 0.0
O232 O 0.26264 0.14771 0.65959 0.0
N233 N 0.38566 0.1815 0.6646 0.0
C234 C 0.39869 0.19897 0.65186 0.0
C235 C 0.42594 0.19053 0.6444 0.0
C236 C 0.43975 0.16451 0.65033 0.0
C237 C 0.4263 0.1473 0.66379 0.0
C238 C 0.3992 0.15688 0.67078 0.0
H239 H 0.38836 0.21917 0.64738 0.0
O240 O 0.30569 0.16579 0.63436 0.0
O241 O 0.32509 0.16851 0.66174 0.0
O242 O 0.30389 0.22438 0.64927 0.0
O243 O 0.34462 0.22775 0.66668 0.0
C244 C 0.4387 0.121 0.67055 0.0
C245 C 0.42376 0.10465 0.68401 0.0
H246 H 0.38851 0.07913 0.70982 0.0
H247 H 0.34089 0.09984 0.72061 0.0
H248 H 0.43628 0.20406 0.6341 0.0
H249 H 0.46067 0.15797 0.64446 0.0
H250 H 0.45962 0.11303 0.6654 0.0
H251 H 0.43336 0.08429 0.68895 0.0
Mn252 Mn 0.07105 0.0367 0.9076 0.0
Mn253 Mn 0.06371 0.10179 0.92954 0.0
C254 C 0.0929 0.07873 0.89588 0.0
C255 C 0.09694 0.99268 0.90309 0.0
C256 C 0.01542 0.07472 0.90627 0.0
O257 O 0.05551 0.0244 0.93257 0.0
O258 O 0.05557 0.06873 0.94641 0.0
C259 C 0.11469 0.09558 0.95435 0.0
N260 N 0.10012 0.11107 0.94129 0.0
C261 C 0.13708 0.14916 0.94147 0.0
C262 C 0.15241 0.13371 0.955 0.0
C263 C 0.14121 0.10676 0.96142 0.0
C264 C 0.11088 0.13683 0.93486 0.0
H265 H 0.10614 0.07485 0.9593 0.0
C266 C 0.05156 0.04077 0.9465 0.0
O267 O 0.06944 0.99519 0.89831 0.0
O268 O 0.10863 0.01506 0.91135 0.0
N269 N 0.07079 0.13618 0.91512 0.0
C270 C 0.05312 0.1485 0.9022 0.0
C271 C 0.06107 0.17568 0.89445 0.0
C272 C 0.08681 0.19014 0.90027 0.0
C273 C 0.10422 0.17741 0.91392 0.0
C274 C 0.09511 0.15036 0.92119 0.0
H275 H 0.03316 0.13765 0.8978 0.0
O276 O 0.0884 0.05594 0.88564 0.0
O277 O 0.0852 0.07603 0.9128 0.0
O278 O 0.03001 0.05227 0.90082 0.0
O279 O 0.02564 0.09395 0.91733 0.0
C280 C 0.13026 0.19047 0.92058 0.0
C281 C 0.14682 0.17625 0.93424 0.0
H282 H 0.17284 0.14229 0.96053 0.0
H283 H 0.15297 0.09465 0.97182 0.0
H284 H 0.0474 0.18546 0.88402 0.0
H285 H 0.09298 0.21099 0.89418 0.0
H286 H 0.13788 0.21137 0.91519 0.0
H287 H 0.16697 0.18637 0.93911 0.0
Mn288 Mn 0.79885 0.81183 0.65684 0.0
Mn289 Mn 0.80208 0.87256 0.68314 0.0
C290 C 0.82908 0.85037 0.64851 0.0
C291 C 0.81574 0.76435 0.6505 0.0
C292 C 0.75137 0.85955 0.65734 0.0
O293 O 0.78054 0.79845 0.68066 0.0
O294 O 0.78817 0.83854 0.6981 0.0
C295 C 0.8499 0.85465 0.70822 0.0
N296 N 0.839 0.87386 0.69568 0.0
C297 C 0.88273 0.90385 0.69738 0.0
C298 C 0.89431 0.88451 0.71043 0.0
C299 C 0.87782 0.8598 0.71585 0.0
C300 C 0.85462 0.89778 0.69041 0.0
H301 H 0.83743 0.83548 0.71233 0.0
C302 C 0.78003 0.81164 0.69596 0.0
O303 O 0.78979 0.77301 0.64518 0.0
O304 O 0.8313 0.78297 0.6598 0.0
N305 N 0.81592 0.90667 0.67036 0.0
C306 C 0.8025 0.92205 0.65677 0.0
C307 C 0.81663 0.94681 0.64933 0.0
C308 C 0.84435 0.95555 0.65594 0.0
C309 C 0.85765 0.93951 0.67 0.0
C310 C 0.84238 0.91519 0.67703 0.0
H311 H 0.78129 0.91536 0.65153 0.0
O312 O 0.82081 0.83093 0.63663 0.0
O313 O 0.8198 0.84626 0.66504 0.0
O314 O 0.76219 0.83615 0.65037 0.0
O315 O 0.76356 0.87376 0.67033 0.0
C316 C 0.88576 0.94628 0.67702 0.0
C317 C 0.89829 0.92848 0.69071 0.0
H318 H 0.91596 0.88825 0.71622 0.0
H319 H 0.88669 0.84468 0.72583 0.0
H320 H 0.80626 0.95903 0.63844 0.0
H321 H 0.85533 0.97447 0.65001 0.0
H322 H 0.89813 0.96489 0.67181 0.0
H323 H 0.9201 0.93367 0.69581 0.0
Mn324 Mn 0.93773 0.0484 0.40924 0.0
Mn325 Mn 0.87811 0.05409 0.4363 0.0
C326 C 0.89952 0.07951 0.40127 0.0
C327 C 0.98536 0.06417 0.40204 0.0
C328 C 0.88843 0.00238 0.41069 0.0
O329 O 0.95174 0.03054 0.43304 0.0
O330 O 0.91214 0.03886 0.45079 0.0
C331 C 0.89918 0.10132 0.46087 0.0
N332 N 0.879 0.09118 0.44867 0.0
C333 C 0.85142 0.1365 0.45034 0.0
C334 C 0.87179 0.14732 0.46303 0.0
C335 C 0.89578 0.12965 0.4683 0.0
C336 C 0.85578 0.10797 0.44353 0.0
H337 H 0.91782 0.08797 0.46485 0.0
C338 C 0.93886 0.03027 0.44845 0.0
O339 O 0.97597 0.03828 0.39707 0.0
O340 O 0.96735 0.08031 0.4114 0.0
N341 N 0.84406 0.06929 0.42403 0.0
C342 C 0.82726 0.05624 0.41095 0.0
C343 C 0.80284 0.07139 0.40382 0.0
C344 C 0.7959 0.09974 0.41022 0.0
C345 C 0.81335 0.11263 0.42379 0.0
C346 C 0.83722 0.09633 0.43054 0.0
H347 H 0.83257 0.03454 0.40587 0.0
O348 O 0.91809 0.07036 0.3891 0.0
O349 O 0.90424 0.07043 0.41775 0.0
O350 O 0.91238 0.01196 0.40369 0.0
O351 O 0.87483 0.01569 0.42353 0.0
C352 C 0.80833 0.14123 0.43061 0.0
C353 C 0.82735 0.15315 0.44388 0.0
H354 H 0.86939 0.16926 0.46867 0.0
H355 H 0.91169 0.13792 0.478 0.0
H356 H 0.78951 0.06131 0.39333 0.0
H357 H 0.77725 0.1115 0.40453 0.0
H358 H 0.79012 0.15439 0.42559 0.0
H359 H 0.82347 0.17531 0.44886 0.0
Mn360 Mn 0.7059 0.18981 0.15894 0.0
Mn361 Mn 0.69991 0.12913 0.18508 0.0
C362 C 0.67489 0.15216 0.15012 0.0
C363 C 0.69029 0.23773 0.15256 0.0
C364 C 0.75177 0.14038 0.15975 0.0
O365 O 0.72385 0.20264 0.18291 0.0
O366 O 0.71511 0.16257 0.20014 0.0
C367 C 0.65254 0.14919 0.20987 0.0
N368 N 0.66282 0.12944 0.19744 0.0
C369 C 0.61791 0.10123 0.19904 0.0
C370 C 0.60696 0.12112 0.21197 0.0
C371 C 0.62435 0.14522 0.21739 0.0
C372 C 0.6463 0.10612 0.19217 0.0
H373 H 0.66571 0.16789 0.21397 0.0
C374 C 0.72404 0.18924 0.19813 0.0
O375 O 0.71619 0.22853 0.14747 0.0
O376 O 0.67409 0.21936 0.16161 0.0
N377 N 0.68485 0.09552 0.17233 0.0
C378 C 0.69786 0.07941 0.15891 0.0
C379 C 0.68287 0.0551 0.15151 0.0
C380 C 0.65474 0.04755 0.15801 0.0
C381 C 0.6419 0.06428 0.17193 0.0
C382 C 0.65801 0.0881 0.17892 0.0
H383 H 0.71939 0.08518 0.15376 0.0
O384 O 0.68416 0.17139 0.13839 0.0
O385 O 0.68363 0.15596 0.16679 0.0
O386 O 0.74228 0.16457 0.15301 0.0
O387 O 0.73835 0.12637 0.17237 0.0
C388 C 0.61347 0.05868 0.17886 0.0
C389 C 0.60148 0.07714 0.1924 0.0
H390 H 0.58512 0.1183 0.21769 0.0
H391 H 0.61598 0.16078 0.22728 0.0
H392 H 0.6929 0.04233 0.14074 0.0
H393 H 0.64311 0.02899 0.15212 0.0
H394 H 0.60045 0.0405 0.17367 0.0
H395 H 0.57944 0.07284 0.19744 0.0
Mn396 Mn 0.56296 0.95619 0.90804 0.0
Mn397 Mn 0.62367 0.95023 0.93415 0.0
C398 C 0.60104 0.92594 0.8989 0.0
C399 C 0.51522 0.94015 0.90152 0.0
C400 C 0.61165 0.00278 0.90948 0.0
O401 O 0.54983 0.97307 0.93222 0.0
O402 O 0.58999 0.96439 0.9494 0.0
C403 C 0.60442 0.90178 0.95837 0.0
N404 N 0.62397 0.91274 0.94605 0.0
C405 C 0.65286 0.8682 0.94706 0.0
C406 C 0.63317 0.85655 0.95986 0.0
C407 C 0.60884 0.87341 0.96552 0.0
C408 C 0.64753 0.89675 0.94056 0.0
H409 H 0.58554 0.91453 0.96265 0.0
C410 C 0.56314 0.97288 0.94747 0.0
O411 O 0.52407 0.9663 0.8967 0.0
O412 O 0.53387 0.92388 0.91031 0.0
N413 N 0.65749 0.93609 0.9212 0.0
C414 C 0.6733 0.94973 0.90789 0.0
C415 C 0.69777 0.93532 0.90026 0.0
C416 C 0.70578 0.9071 0.9064 0.0
C417 C 0.68932 0.89359 0.9202 0.0
C418 C 0.66533 0.90915 0.92743 0.0
H419 H 0.66717 0.97133 0.903 0.0
O420 O 0.58174 0.93536 0.88725 0.0
O421 O 0.59709 0.93416 0.91566 0.0
O422 O 0.58764 0.99313 0.90259 0.0
O423 O 0.62584 0.98914 0.92194 0.0
C424 C 0.69536 0.86502 0.92675 0.0
C425 C 0.67716 0.85234 0.94017 0.0
H426 H 0.63634 0.83456 0.96529 0.0
H427 H 0.59343 0.86449 0.97531 0.0
H428 H 0.71032 0.94586 0.88958 0.0
H429 H 0.72446 0.89592 0.90033 0.0
H430 H 0.7137 0.85242 0.92136 0.0
H431 H 0.68178 0.83019 0.94492 0.0
Mn432 Mn 0.79597 0.19031 0.84827 0.0
Mn433 Mn 0.80195 0.12932 0.82239 0.0
C434 C 0.82664 0.15252 0.85736 0.0
C435 C 0.81191 0.23817 0.85457 0.0
C436 C 0.74968 0.14128 0.8473 0.0
O437 O 0.77859 0.20307 0.82412 0.0
O438 O 0.78728 0.1627 0.80712 0.0
C439 C 0.84985 0.14867 0.7978 0.0
N440 N 0.83924 0.12916 0.81025 0.0
C441 C 0.88395 0.10056 0.80904 0.0
C442 C 0.89525 0.1202 0.79609 0.0
C443 C 0.87813 0.14437 0.79046 0.0
C444 C 0.85548 0.10576 0.81572 0.0
H445 H 0.8369 0.16743 0.79353 0.0
C446 C 0.77859 0.1895 0.80895 0.0
O447 O 0.78586 0.22927 0.85955 0.0
O448 O 0.82809 0.21955 0.8457 0.0
N449 N 0.81656 0.09575 0.83539 0.0
C450 C 0.80326 0.07997 0.84884 0.0
C451 C 0.81797 0.05568 0.85646 0.0
C452 C 0.84613 0.04779 0.85015 0.0
C453 C 0.85928 0.0642 0.8362 0.0
C454 C 0.84345 0.08802 0.829 0.0
H455 H 0.78171 0.08602 0.85385 0.0
O456 O 0.81727 0.17186 0.869 0.0
O457 O 0.81811 0.15624 0.84065 0.0
O458 O 0.75925 0.16545 0.85403 0.0
O459 O 0.76327 0.12701 0.83486 0.0
C460 C 0.88778 0.05828 0.82948 0.0
C461 C 0.9001 0.07643 0.8159 0.0
H462 H 0.91716 0.11713 0.79053 0.0
H463 H 0.88677 0.15974 0.78056 0.0
H464 H 0.8077 0.04316 0.86726 0.0
H465 H 0.85754 0.02924 0.85621 0.0
H466 H 0.90059 0.04008 0.83484 0.0
H467 H 0.92219 0.07191 0.81102 0.0
Mn468 Mn 0.56129 0.04463 0.59711 0.0
Mn469 Mn 0.62168 0.0497 0.57063 0.0
C470 C 0.59846 0.07684 0.60505 0.0
C471 C 0.51291 0.05878 0.60316 0.0
C472 C 0.61076 0.99915 0.5969 0.0
O473 O 0.54889 0.02461 0.57358 0.0
O474 O 0.58796 0.03486 0.55579 0.0
C475 C 0.60233 0.09691 0.54553 0.0
N476 N 0.62193 0.08657 0.55803 0.0
C477 C 0.65086 0.13097 0.55608 0.0
C478 C 0.63112 0.14199 0.54309 0.0
C479 C 0.60674 0.12489 0.53781 0.0
C480 C 0.64551 0.10281 0.56317 0.0
H481 H 0.58341 0.08397 0.54153 0.0
C482 C 0.56164 0.02517 0.55813 0.0
O483 O 0.52335 0.03393 0.60916 0.0
O484 O 0.53035 0.07509 0.59348 0.0
N485 N 0.65552 0.06448 0.58329 0.0
C486 C 0.67149 0.05145 0.59677 0.0
C487 C 0.69608 0.06616 0.60402 0.0
C488 C 0.70408 0.09404 0.59731 0.0
C489 C 0.68749 0.1069 0.58333 0.0
C490 C 0.66337 0.09107 0.5765 0.0
H491 H 0.66542 0.03011 0.60207 0.0
O492 O 0.57917 0.06841 0.61697 0.0
O493 O 0.5948 0.06686 0.58863 0.0
O494 O 0.58746 0.00963 0.60416 0.0
O495 O 0.624 0.01122 0.5835 0.0
C496 C 0.69354 0.13509 0.5762 0.0
C497 C 0.67525 0.14712 0.56258 0.0
H498 H 0.63429 0.16367 0.53722 0.0
H499 H 0.5913 0.13332 0.52787 0.0
H500 H 0.70875 0.05611 0.61483 0.0
H501 H 0.72286 0.10546 0.60308 0.0
H502 H 0.71197 0.1479 0.58127 0.0
H503 H 0.67989 0.16898 0.55738 0.0
Mn504 Mn 0.70724 0.81203 0.34757 0.0
Mn505 Mn 0.6996 0.87225 0.3212 0.0
C506 C 0.67411 0.84825 0.35582 0.0
C507 C 0.69423 0.76342 0.3538 0.0
C508 C 0.75108 0.86318 0.34721 0.0
O509 O 0.72684 0.79998 0.32389 0.0
O510 O 0.71605 0.83919 0.30634 0.0
C511 C 0.65343 0.85075 0.29601 0.0
N512 N 0.66282 0.87081 0.30851 0.0
C513 C 0.6172 0.8978 0.30638 0.0
C514 C 0.60716 0.87757 0.29337 0.0
C515 C 0.62535 0.85392 0.28818 0.0
C516 C 0.64552 0.8937 0.31356 0.0
H517 H 0.66723 0.8324 0.29207 0.0
C518 C 0.72623 0.813 0.30854 0.0
O519 O 0.71905 0.7743 0.35956 0.0
O520 O 0.67735 0.78053 0.34427 0.0
N521 N 0.68323 0.90544 0.33377 0.0
C522 C 0.69543 0.92197 0.34729 0.0
C523 C 0.67957 0.9459 0.35448 0.0
C524 C 0.65143 0.95266 0.34767 0.0
C525 C 0.63943 0.93551 0.33365 0.0
C526 C 0.65637 0.9121 0.3269 0.0
H527 H 0.71697 0.91683 0.35267 0.0
O528 O 0.68366 0.82938 0.36768 0.0
O529 O 0.6837 0.84483 0.33929 0.0
O530 O 0.742 0.83899 0.3541 0.0
O531 O 0.73775 0.87633 0.3342 0.0
C532 C 0.61105 0.94032 0.32642 0.0
C533 C 0.59995 0.92149 0.31279 0.0
H534 H 0.58541 0.87979 0.28742 0.0
H535 H 0.61769 0.83811 0.27824 0.0
H536 H 0.68896 0.959 0.36532 0.0
H537 H 0.63913 0.97093 0.35339 0.0
H538 H 0.59741 0.95819 0.33142 0.0
H539 H 0.57795 0.92518 0.30751 0.0
Mn540 Mn 0.94157 0.95838 0.0979 0.0
Mn541 Mn 0.88167 0.95024 0.07125 0.0
C542 C 0.90527 0.92534 0.10615 0.0
C543 C 0.99022 0.94599 0.10442 0.0
C544 C 0.89046 0.00222 0.09689 0.0
O545 O 0.95382 0.97759 0.07416 0.0
O546 O 0.91497 0.96618 0.05644 0.0
C547 C 0.90341 0.90334 0.04666 0.0
N548 N 0.88317 0.91314 0.05893 0.0
C549 C 0.85601 0.86761 0.05706 0.0
C550 C 0.87644 0.85714 0.0443 0.0
C551 C 0.90025 0.87507 0.0391 0.0
C552 C 0.86012 0.89609 0.064 0.0
H553 H 0.92189 0.91694 0.04271 0.0
C554 C 0.94109 0.97648 0.05873 0.0
O555 O 0.97897 0.97076 0.10998 0.0
O556 O 0.9734 0.92867 0.09499 0.0
N557 N 0.84823 0.93433 0.08379 0.0
C558 C 0.83148 0.94698 0.09704 0.0
C559 C 0.80731 0.93146 0.10419 0.0
C560 C 0.80054 0.90319 0.0976 0.0
C561 C 0.81791 0.89073 0.08384 0.0
C562 C 0.84155 0.90736 0.07711 0.0
H563 H 0.83662 0.96864 0.10224 0.0
O564 O 0.92399 0.93502 0.11806 0.0
O565 O 0.90891 0.93469 0.08959 0.0
O566 O 0.91444 0.99312 0.10405 0.0
O567 O 0.87752 0.98874 0.08386 0.0
C568 C 0.81308 0.86221 0.07684 0.0
C569 C 0.83212 0.85065 0.06346 0.0
H570 H 0.87423 0.83525 0.03855 0.0
H571 H 0.91622 0.86707 0.02934 0.0
H572 H 0.79404 0.94121 0.11482 0.0
H573 H 0.78208 0.89115 0.1033 0.0
H574 H 0.79505 0.8488 0.08184 0.0
H575 H 0.82843 0.82854 0.05837 0.0
Mn576 Mn 0.71775 0.68287 0.84727 0.0
Mn577 Mn 0.65295 0.69062 0.82505 0.0
C578 C 0.67548 0.66115 0.85875 0.0
C579 C 0.7616 0.65679 0.85197 0.0
C580 C 0.6799 0.73863 0.84859 0.0
O581 O 0.73043 0.69845 0.82237 0.0
O582 O 0.68626 0.69872 0.80833 0.0
C583 C 0.65925 0.63977 0.80015 0.0
N584 N 0.64367 0.65431 0.81318 0.0
C585 C 0.60555 0.61737 0.81284 0.0
C586 C 0.6211 0.60208 0.79933 0.0
C587 C 0.64811 0.61329 0.793 0.0
C588 C 0.61784 0.64355 0.81951 0.0
H589 H 0.68004 0.64831 0.79528 0.0
C590 C 0.71425 0.70254 0.80837 0.0
O591 O 0.75914 0.68429 0.85676 0.0
O592 O 0.73929 0.64523 0.84357 0.0
N593 N 0.61837 0.68356 0.83932 0.0
C594 C 0.60598 0.70115 0.85224 0.0
C595 C 0.57875 0.69318 0.85991 0.0
C596 C 0.56433 0.66747 0.85402 0.0
C597 C 0.57713 0.65013 0.84037 0.0
C598 C 0.60422 0.65928 0.83316 0.0
H599 H 0.61683 0.72108 0.85671 0.0
O600 O 0.69817 0.66552 0.8691 0.0
O601 O 0.67841 0.66891 0.84186 0.0
O602 O 0.70226 0.72393 0.85406 0.0
O603 O 0.66076 0.72858 0.8374 0.0
C604 C 0.56412 0.6241 0.83366 0.0
C605 C 0.57842 0.60761 0.82 0.0
H606 H 0.61255 0.58168 0.79376 0.0
H607 H 0.6603 0.60156 0.78263 0.0
H608 H 0.56892 0.7068 0.87035 0.0
H609 H 0.54344 0.66127 0.86006 0.0
H610 H 0.54321 0.61645 0.839 0.0
H611 H 0.56834 0.58746 0.81508 0.0
Mn612 Mn 0.57162 0.4669 0.09861 0.0
Mn613 Mn 0.56277 0.4011 0.07766 0.0
C614 C 0.59376 0.42517 0.11056 0.0
C615 C 0.59798 0.51083 0.10246 0.0
C616 C 0.51553 0.42984 0.10098 0.0
O617 O 0.5555 0.47837 0.0736 0.0
O618 O 0.5551 0.4336 0.06025 0.0
C619 C 0.61301 0.40424 0.05208 0.0
N620 N 0.59833 0.3899 0.06557 0.0
C621 C 0.63298 0.34968 0.06496 0.0
C622 C 0.6484 0.36393 0.05098 0.0
C623 C 0.63842 0.39138 0.04456 0.0
C624 C 0.60782 0.36359 0.07192 0.0
H625 H 0.60536 0.42532 0.04711 0.0
C626 C 0.55135 0.46161 0.05985 0.0
O627 O 0.57057 0.50868 0.10745 0.0
O628 O 0.60927 0.48818 0.09424 0.0
N629 N 0.56935 0.36733 0.09271 0.0
C630 C 0.55274 0.35716 0.1068 0.0
C631 C 0.56006 0.33016 0.115 0.0
C632 C 0.58412 0.31373 0.10849 0.0
C633 C 0.6007 0.32448 0.09385 0.0
C634 C 0.59225 0.35145 0.08616 0.0
H635 H 0.53407 0.36957 0.11176 0.0
O636 O 0.5895 0.44829 0.12057 0.0
O637 O 0.58542 0.42723 0.0937 0.0
O638 O 0.53059 0.45209 0.10619 0.0
O639 O 0.52523 0.41033 0.08997 0.0
C640 C 0.62561 0.30979 0.08682 0.0
C641 C 0.6418 0.32243 0.07243 0.0
H642 H 0.66804 0.3541 0.04517 0.0
H643 H 0.65028 0.40256 0.03383 0.0
H644 H 0.54718 0.32202 0.12631 0.0
H645 H 0.58978 0.29298 0.1149 0.0
H646 H 0.63278 0.28899 0.09258 0.0
H647 H 0.66116 0.31114 0.06732 0.0
Mn648 Mn 0.78534 0.3232 0.34779 0.0
Mn649 Mn 0.85167 0.31629 0.32711 0.0
C650 C 0.82616 0.34726 0.35958 0.0
C651 C 0.74047 0.34805 0.35138 0.0
C652 C 0.82594 0.26943 0.35189 0.0
O653 O 0.77415 0.306 0.32312 0.0
O654 O 0.81933 0.30407 0.31051 0.0
C655 C 0.84343 0.36308 0.29955 0.0
N656 N 0.85953 0.35106 0.3133 0.0
C657 C 0.897 0.38834 0.3103 0.0
C658 C 0.88091 0.40104 0.29603 0.0
C659 C 0.85395 0.38841 0.29068 0.0
C660 C 0.88534 0.36318 0.31866 0.0
H661 H 0.82273 0.35339 0.29539 0.0
C662 C 0.79137 0.30012 0.30988 0.0
O663 O 0.74363 0.32089 0.3567 0.0
O664 O 0.7627 0.35989 0.34305 0.0
N665 N 0.8856 0.32706 0.34109 0.0
C666 C 0.89792 0.31271 0.35548 0.0
C667 C 0.92491 0.32265 0.36257 0.0
C668 C 0.93917 0.34696 0.35465 0.0
C669 C 0.92626 0.36116 0.33973 0.0
C670 C 0.89942 0.35015 0.33318 0.0
H671 H 0.88715 0.29393 0.36157 0.0
O672 O 0.80318 0.34222 0.36955 0.0
O673 O 0.82456 0.33862 0.34273 0.0
O674 O 0.80182 0.28279 0.35563 0.0
O675 O 0.84568 0.28003 0.34137 0.0
C676 C 0.93868 0.38616 0.33132 0.0
C677 C 0.92398 0.39983 0.31667 0.0
H678 H 0.88896 0.42056 0.28915 0.0
H679 H 0.84136 0.39814 0.27973 0.0
H680 H 0.9347 0.31162 0.37412 0.0
H681 H 0.9599 0.35468 0.36023 0.0
H682 H 0.95931 0.3953 0.33617 0.0
H683 H 0.93356 0.41925 0.31045 0.0
Mn684 Mn 0.93582 0.53299 0.60052 0.0
Mn685 Mn 0.94441 0.59635 0.57699 0.0
C686 C 0.91331 0.5756 0.61083 0.0
C687 C 0.90971 0.4892 0.60522 0.0
C688 C 0.99182 0.56989 0.60134 0.0
O689 O 0.95301 0.51949 0.57627 0.0
O690 O 0.95111 0.56223 0.56054 0.0
C691 C 0.8933 0.59161 0.55217 0.0
N692 N 0.9086 0.60693 0.56498 0.0
C693 C 0.87426 0.64737 0.56356 0.0
C694 C 0.85823 0.63213 0.55024 0.0
C695 C 0.86775 0.60408 0.54457 0.0
C696 C 0.89955 0.63384 0.57062 0.0
H697 H 0.90056 0.57005 0.5478 0.0
C698 C 0.95603 0.53446 0.56169 0.0
O699 O 0.93687 0.49199 0.61063 0.0
O700 O 0.89852 0.51115 0.59629 0.0
N701 N 0.93866 0.63143 0.59103 0.0
C702 C 0.95575 0.64254 0.60463 0.0
C703 C 0.94883 0.67017 0.61215 0.0
C704 C 0.92467 0.68625 0.60545 0.0
C705 C 0.90762 0.67454 0.5913 0.0
C706 C 0.91567 0.64697 0.58428 0.0
H707 H 0.97447 0.63039 0.60976 0.0
O708 O 0.91717 0.55335 0.62162 0.0
O709 O 0.92199 0.572 0.59414 0.0
O710 O 0.97645 0.54885 0.60792 0.0
O711 O 0.98229 0.58769 0.58921 0.0
C712 C 0.88259 0.68886 0.58413 0.0
C713 C 0.86587 0.67524 0.57031 0.0
H714 H 0.83847 0.64163 0.54438 0.0
H715 H 0.85541 0.59212 0.53437 0.0
H716 H 0.96208 0.67906 0.62308 0.0
H717 H 0.91928 0.70747 0.61136 0.0
H718 H 0.87573 0.71012 0.58936 0.0
H719 H 0.84641 0.68626 0.56511 0.0
Mn720 Mn 0.71825 0.3184 0.65735 0.0
Mn721 Mn 0.65237 0.30966 0.67818 0.0
C722 C 0.67682 0.34148 0.64568 0.0
C723 C 0.76258 0.34419 0.6541 0.0
C724 C 0.68064 0.26282 0.65432 0.0
O725 O 0.72947 0.30127 0.68212 0.0
O726 O 0.68477 0.30117 0.69554 0.0
C727 C 0.65597 0.35913 0.70431 0.0
N728 N 0.64151 0.34498 0.69064 0.0
C729 C 0.60167 0.38006 0.69156 0.0
C730 C 0.61604 0.39493 0.70572 0.0
C731 C 0.64335 0.38447 0.71208 0.0
C732 C 0.61532 0.35495 0.68435 0.0
H733 H 0.67694 0.3511 0.70922 0.0
C734 C 0.71272 0.29699 0.69584 0.0
O735 O 0.76005 0.31705 0.64863 0.0
O736 O 0.73999 0.35555 0.66233 0.0
N737 N 0.61871 0.31703 0.66316 0.0
C738 C 0.60842 0.30093 0.64887 0.0
C739 C 0.58154 0.30879 0.6407 0.0
C740 C 0.56534 0.33284 0.64745 0.0
C741 C 0.57622 0.34888 0.66228 0.0
C742 C 0.60306 0.33992 0.66993 0.0
H743 H 0.62065 0.28227 0.64372 0.0
O744 O 0.69992 0.33732 0.63563 0.0
O745 O 0.67876 0.3325 0.66242 0.0
O746 O 0.70297 0.27784 0.64922 0.0
O747 O 0.66127 0.27238 0.66547 0.0
C748 C 0.56178 0.37375 0.66955 0.0
C749 C 0.57455 0.3894 0.68414 0.0
H750 H 0.60642 0.41451 0.71173 0.0
H751 H 0.65463 0.39589 0.72295 0.0
H752 H 0.57329 0.29631 0.62925 0.0
H753 H 0.54467 0.3389 0.64107 0.0
H754 H 0.54109 0.38132 0.66384 0.0
H755 H 0.56346 0.40873 0.68944 0.0
Mn756 Mn 0.93236 0.46737 0.90704 0.0
Mn757 Mn 0.94132 0.40176 0.92818 0.0
C758 C 0.90971 0.42567 0.89544 0.0
C759 C 0.90639 0.51152 0.90337 0.0
C760 C 0.9882 0.43 0.90437 0.0
O761 O 0.94912 0.47898 0.93184 0.0
O762 O 0.94951 0.43439 0.94541 0.0
C763 C 0.89162 0.40546 0.95412 0.0
N764 N 0.90596 0.39089 0.94058 0.0
C765 C 0.87112 0.35087 0.94161 0.0
C766 C 0.85605 0.36536 0.95564 0.0
C767 C 0.8663 0.39282 0.96188 0.0
C768 C 0.8962 0.36456 0.9344 0.0
H769 H 0.89948 0.42655 0.95895 0.0
C770 C 0.95345 0.46238 0.94563 0.0
O771 O 0.93364 0.50903 0.8981 0.0
O772 O 0.89501 0.48902 0.91168 0.0
N773 N 0.93427 0.36786 0.91331 0.0
C774 C 0.95056 0.35744 0.89914 0.0
C775 C 0.94296 0.33038 0.89111 0.0
C776 C 0.91895 0.31415 0.89787 0.0
C777 C 0.90271 0.32517 0.91258 0.0
C778 C 0.91143 0.35218 0.92009 0.0
H779 H 0.96919 0.36969 0.89399 0.0
O780 O 0.91385 0.44868 0.88531 0.0
O781 O 0.91845 0.42784 0.91222 0.0
O782 O 0.97309 0.45223 0.89918 0.0
O783 O 0.97866 0.41066 0.91554 0.0
C784 C 0.87787 0.3107 0.91985 0.0
C785 C 0.86202 0.3236 0.93431 0.0
H786 H 0.83648 0.35572 0.96165 0.0
H787 H 0.85471 0.40419 0.97266 0.0
H788 H 0.95558 0.32203 0.87975 0.0
H789 H 0.91308 0.29335 0.89159 0.0
H790 H 0.87049 0.28987 0.91424 0.0
H791 H 0.84271 0.31247 0.93962 0.0
Mn792 Mn 0.78762 0.68194 0.15765 0.0
Mn793 Mn 0.85317 0.69091 0.17891 0.0
C794 C 0.82947 0.65945 0.14606 0.0
C795 C 0.74358 0.65578 0.15374 0.0
C796 C 0.82496 0.73784 0.15513 0.0
O797 O 0.77583 0.69858 0.18248 0.0
O798 O 0.82042 0.69911 0.19605 0.0
C799 C 0.84929 0.64117 0.2048 0.0
N800 N 0.86396 0.65553 0.19132 0.0
C801 C 0.90399 0.62068 0.19243 0.0
C802 C 0.88939 0.60558 0.20641 0.0
C803 C 0.86188 0.61582 0.21258 0.0
C804 C 0.89034 0.64578 0.18521 0.0
H805 H 0.82816 0.64902 0.20957 0.0
C806 C 0.79242 0.70302 0.19627 0.0
O807 O 0.74598 0.68309 0.14859 0.0
O808 O 0.76606 0.64447 0.16213 0.0
N809 N 0.88718 0.68389 0.16414 0.0
C810 C 0.89772 0.70022 0.15003 0.0
C811 C 0.92484 0.69263 0.14207 0.0
C812 C 0.94103 0.6686 0.14886 0.0
C813 C 0.92991 0.65233 0.16352 0.0
C814 C 0.90283 0.66104 0.17096 0.0
H815 H 0.8855 0.71887 0.14486 0.0
O816 O 0.80648 0.66361 0.13591 0.0
O817 O 0.82721 0.66808 0.16285 0.0
O818 O 0.80271 0.72278 0.14991 0.0
O819 O 0.84432 0.72825 0.16627 0.0
C820 C 0.94433 0.62747 0.17082 0.0
C821 C 0.93133 0.61159 0.18522 0.0
H822 H 0.899 0.586 0.21243 0.0
H823 H 0.85043 0.60422 0.22331 0.0
H824 H 0.93327 0.70528 0.13075 0.0
H825 H 0.96187 0.66273 0.14263 0.0
H826 H 0.96521 0.6201 0.16526 0.0
H827 H 0.94242 0.59227 0.19054 0.0
Mn828 Mn 0.56978 0.53713 0.4071 0.0
Mn829 Mn 0.56278 0.6019 0.42943 0.0
C830 C 0.59217 0.57915 0.39576 0.0
C831 C 0.59535 0.49295 0.40244 0.0
C832 C 0.51444 0.57554 0.40588 0.0
O833 O 0.55389 0.5246 0.43195 0.0
O834 O 0.55455 0.56863 0.44615 0.0
C835 C 0.61369 0.59535 0.45426 0.0
N836 N 0.59919 0.61099 0.44124 0.0
C837 C 0.63618 0.64905 0.44162 0.0
C838 C 0.65145 0.63345 0.45512 0.0
C839 C 0.6402 0.60643 0.46141 0.0
C840 C 0.60999 0.63682 0.43493 0.0
H841 H 0.6051 0.57458 0.45912 0.0
C842 C 0.55023 0.54072 0.44602 0.0
O843 O 0.56794 0.49576 0.39756 0.0
O844 O 0.60713 0.51511 0.41088 0.0
N845 N 0.56998 0.6364 0.41513 0.0
C846 C 0.55246 0.64879 0.40216 0.0
C847 C 0.56053 0.67599 0.39448 0.0
C848 C 0.58623 0.69038 0.40041 0.0
C849 C 0.6035 0.67755 0.41409 0.0
C850 C 0.59429 0.65049 0.42129 0.0
H851 H 0.53253 0.63799 0.39766 0.0
O852 O 0.58757 0.55658 0.38534 0.0
O853 O 0.58421 0.57624 0.41261 0.0
O854 O 0.52894 0.55317 0.40022 0.0
O855 O 0.5247 0.59436 0.41718 0.0
C856 C 0.62954 0.69053 0.42083 0.0
C857 C 0.64599 0.67618 0.43449 0.0
H858 H 0.67187 0.64194 0.4607 0.0
H859 H 0.65191 0.59421 0.47178 0.0
H860 H 0.54697 0.68583 0.38401 0.0
H861 H 0.59249 0.71125 0.39437 0.0
H862 H 0.63723 0.71143 0.41551 0.0
H863 H 0.66614 0.68622 0.43942 0.0
Mn864 Mn 0.29606 0.31105 0.15762 0.0
Mn865 Mn 0.30302 0.37092 0.18441 0.0
C866 C 0.32871 0.34785 0.14961 0.0
C867 C 0.30948 0.26262 0.1511 0.0
C868 C 0.25161 0.36168 0.1584 0.0
O869 O 0.27659 0.29841 0.18122 0.0
O870 O 0.2871 0.3374 0.19903 0.0
C871 C 0.34966 0.34947 0.20929 0.0
N872 N 0.3399 0.3697 0.197 0.0
C873 C 0.38514 0.39726 0.19925 0.0
C874 C 0.39557 0.37684 0.21203 0.0
C875 C 0.37776 0.35283 0.21705 0.0
C876 C 0.35683 0.39293 0.1921 0.0
H877 H 0.33616 0.33084 0.21309 0.0
C878 C 0.27713 0.31117 0.19666 0.0
O879 O 0.28459 0.27342 0.1454 0.0
O880 O 0.32626 0.27973 0.16069 0.0
N881 N 0.31883 0.40461 0.17209 0.0
C882 C 0.30623 0.42137 0.15882 0.0
C883 C 0.32164 0.44575 0.15186 0.0
C884 C 0.34975 0.45273 0.15865 0.0
C885 C 0.36213 0.43535 0.17243 0.0
C886 C 0.34562 0.41149 0.17897 0.0
H887 H 0.28471 0.41609 0.15347 0.0
O888 O 0.31948 0.32903 0.13762 0.0
O889 O 0.31918 0.34402 0.16611 0.0
O890 O 0.26101 0.33777 0.15129 0.0
O891 O 0.26476 0.37472 0.17151 0.0
C892 C 0.39049 0.44039 0.17963 0.0
C893 C 0.40199 0.42135 0.19303 0.0
H894 H 0.41733 0.37922 0.21795 0.0
H895 H 0.38573 0.33688 0.22683 0.0
H896 H 0.31194 0.45903 0.14121 0.0
H897 H 0.3617 0.47135 0.1531 0.0
H898 H 0.40381 0.45859 0.17478 0.0
H899 H 0.42397 0.42522 0.19829 0.0
Mn900 Mn 0.44267 0.54601 0.9081 0.0
Mn901 Mn 0.38237 0.55122 0.93468 0.0
C902 C 0.40558 0.57845 0.90032 0.0
C903 C 0.49101 0.56001 0.90186 0.0
C904 C 0.39284 0.50091 0.90816 0.0
O905 O 0.45516 0.52578 0.93156 0.0
O906 O 0.41603 0.53586 0.94936 0.0
C907 C 0.40232 0.59791 0.95998 0.0
N908 N 0.38253 0.58791 0.94749 0.0
C909 C 0.35398 0.63254 0.94976 0.0
C910 C 0.37392 0.6432 0.96276 0.0
C911 C 0.3982 0.62582 0.96787 0.0
C912 C 0.35904 0.60443 0.9425 0.0
H913 H 0.42116 0.58474 0.96385 0.0
C914 C 0.44234 0.52612 0.947 0.0
O915 O 0.48043 0.53521 0.89589 0.0
O916 O 0.47377 0.57632 0.9117 0.0
N917 N 0.34856 0.56648 0.92221 0.0
C918 C 0.33234 0.55376 0.90873 0.0
C919 C 0.30778 0.56876 0.90166 0.0
C920 C 0.30008 0.59662 0.90854 0.0
C921 C 0.31691 0.60915 0.92252 0.0
C922 C 0.34098 0.59303 0.92917 0.0
H923 H 0.33818 0.53243 0.9033 0.0
O924 O 0.42477 0.56998 0.88834 0.0
O925 O 0.40928 0.56838 0.91671 0.0
O926 O 0.41629 0.51121 0.90101 0.0
O927 O 0.37964 0.51298 0.9216 0.0
C928 C 0.31115 0.6373 0.92983 0.0
C929 C 0.32967 0.64899 0.94344 0.0
H930 H 0.37097 0.66483 0.96876 0.0
H931 H 0.41379 0.63397 0.9778 0.0
H932 H 0.29493 0.55896 0.89085 0.0
H933 H 0.28133 0.60827 0.9029 0.0
H934 H 0.29277 0.65032 0.9249 0.0
H935 H 0.32524 0.67081 0.94878 0.0
Mn936 Mn 0.20923 0.6924 0.65756 0.0
Mn937 Mn 0.20367 0.6318 0.68385 0.0
C938 C 0.17893 0.65411 0.6487 0.0
C939 C 0.19305 0.74008 0.65082 0.0
C940 C 0.25601 0.64381 0.65902 0.0
O941 O 0.22629 0.70579 0.6817 0.0
O942 O 0.21781 0.66562 0.6989 0.0
C943 C 0.1553 0.65112 0.70812 0.0
N944 N 0.16628 0.63147 0.69586 0.0
C945 C 0.12196 0.6023 0.6972 0.0
C946 C 0.11029 0.62209 0.70994 0.0
C947 C 0.12703 0.64662 0.71541 0.0
C948 C 0.1504 0.60775 0.69055 0.0
H949 H 0.16797 0.67014 0.71227 0.0
C950 C 0.22624 0.69247 0.69695 0.0
O951 O 0.21919 0.73118 0.64601 0.0
O952 O 0.17687 0.72155 0.65976 0.0
N953 N 0.18959 0.5978 0.67106 0.0
C954 C 0.20326 0.58184 0.65782 0.0
C955 C 0.18898 0.55713 0.6504 0.0
C956 C 0.16088 0.54902 0.6567 0.0
C957 C 0.14736 0.56562 0.67044 0.0
C958 C 0.16278 0.58986 0.67746 0.0
H959 H 0.22477 0.58804 0.65283 0.0
O960 O 0.18816 0.67328 0.63692 0.0
O961 O 0.18738 0.65827 0.66538 0.0
O962 O 0.24622 0.66773 0.65208 0.0
O963 O 0.24249 0.62967 0.67154 0.0
C964 C 0.11891 0.55946 0.67715 0.0
C965 C 0.10622 0.57779 0.69052 0.0
H966 H 0.08838 0.61885 0.71548 0.0
H967 H 0.1181 0.66209 0.72516 0.0
H968 H 0.19953 0.54447 0.63978 0.0
H969 H 0.1498 0.53014 0.6508 0.0
H970 H 0.10641 0.54094 0.67193 0.0
H971 H 0.08416 0.57307 0.69538 0.0
Mn972 Mn 0.06204 0.45617 0.40883 0.0
Mn973 Mn 0.12359 0.44771 0.43392 0.0
C974 C 0.09881 0.42473 0.39894 0.0
C975 C 0.01354 0.44176 0.40297 0.0
C976 C 0.11168 0.50142 0.41012 0.0
O977 O 0.05078 0.47359 0.43334 0.0
O978 O 0.09065 0.46106 0.44998 0.0
C979 C 0.10467 0.39749 0.45684 0.0
N980 N 0.12421 0.40948 0.44489 0.0
C981 C 0.15333 0.36506 0.44469 0.0
C982 C 0.13385 0.35248 0.45728 0.0
C983 C 0.10936 0.36874 0.46333 0.0
C984 C 0.14775 0.39396 0.43888 0.0
H985 H 0.08551 0.40966 0.46124 0.0
C986 C 0.06443 0.47146 0.44844 0.0
O987 O 0.02305 0.46766 0.39814 0.0
O988 O 0.03193 0.42487 0.41153 0.0
N989 N 0.15677 0.43423 0.42009 0.0
C990 C 0.17201 0.44856 0.4068 0.0
C991 C 0.1963 0.43468 0.39861 0.0
C992 C 0.20473 0.40627 0.40417 0.0
C993 C 0.18885 0.39203 0.41795 0.0
C994 C 0.16503 0.40709 0.42577 0.0
H995 H 0.16561 0.47033 0.40237 0.0
O996 O 0.07922 0.43468 0.38765 0.0
O997 O 0.09584 0.43303 0.41572 0.0
O998 O 0.08766 0.49217 0.40307 0.0
O999 O 0.12556 0.48742 0.42257 0.0
C1000 C 0.19528 0.36319 0.4239 0.0
C1001 C 0.17753 0.34971 0.43725 0.0
H1002 H 0.1372 0.33018 0.46216 0.0
H1003 H 0.09399 0.35904 0.47285 0.0
H1004 H 0.2084 0.44579 0.38795 0.0
H1005 H 0.22327 0.3955 0.39767 0.0
H1006 H 0.2135 0.35098 0.41805 0.0
H1007 H 0.18236 0.32733 0.44146 0.0
Mn1008 Mn 0.29351 0.69115 0.34739 0.0
Mn1009 Mn 0.30148 0.6296 0.32212 0.0
C1010 C 0.32616 0.65509 0.35651 0.0
C1011 C 0.30643 0.73988 0.35322 0.0
C1012 C 0.24954 0.63997 0.34746 0.0
O1013 O 0.27501 0.70248 0.32326 0.0
O1014 O 0.2848 0.6618 0.30672 0.0
C1015 C 0.34773 0.6504 0.29678 0.0
N1016 N 0.33834 0.63075 0.30952 0.0
C1017 C 0.38412 0.60393 0.30794 0.0
C1018 C 0.39417 0.62374 0.29469 0.0
C1019 C 0.3759 0.64709 0.28912 0.0
C1020 C 0.35572 0.60816 0.31496 0.0
H1021 H 0.33386 0.66851 0.29254 0.0
C1022 C 0.27518 0.68831 0.3083 0.0
O1023 O 0.28137 0.72924 0.35873 0.0
O1024 O 0.32366 0.72244 0.34416 0.0
N1025 N 0.31793 0.59703 0.33523 0.0
C1026 C 0.30567 0.58092 0.34891 0.0
C1027 C 0.32154 0.55731 0.35646 0.0
C1028 C 0.34978 0.55043 0.34984 0.0
C1029 C 0.36183 0.56712 0.33564 0.0
C1030 C 0.34486 0.59022 0.32852 0.0
H1031 H 0.28404 0.58618 0.35414 0.0
O1032 O 0.31629 0.67435 0.36803 0.0
O1033 O 0.31709 0.65791 0.33983 0.0
O1034 O 0.25832 0.66466 0.35383 0.0
O1035 O 0.26332 0.62591 0.33503 0.0
C1036 C 0.39028 0.56217 0.32856 0.0
C1037 C 0.40142 0.58057 0.31473 0.0
H1038 H 0.41599 0.62142 0.28886 0.0
H1039 H 0.38358 0.66258 0.27898 0.0
H1040 H 0.31211 0.54456 0.36744 0.0
H1041 H 0.3621 0.53241 0.35584 0.0
H1042 H 0.40396 0.54455 0.33385 0.0
H1043 H 0.42349 0.5768 0.30957 0.0
Mn1044 Mn 0.06471 0.547 0.09673 0.0
Mn1045 Mn 0.12434 0.55274 0.06971 0.0
C1046 C 0.10269 0.5785 0.10454 0.0
C1047 C 0.01705 0.56279 0.10382 0.0
C1048 C 0.11417 0.50117 0.09545 0.0
O1049 O 0.05087 0.52877 0.073 0.0
O1050 O 0.09045 0.5372 0.05525 0.0
C1051 C 0.10312 0.59963 0.04495 0.0
N1052 N 0.12328 0.58972 0.05724 0.0
C1053 C 0.1505 0.63523 0.05555 0.0
C1054 C 0.13016 0.64582 0.04278 0.0
C1055 C 0.10636 0.62794 0.03747 0.0
C1056 C 0.14632 0.60671 0.06241 0.0
H1057 H 0.08462 0.58611 0.04095 0.0
C1058 C 0.06379 0.52843 0.05761 0.0
O1059 O 0.02646 0.53699 0.10894 0.0
O1060 O 0.03503 0.5788 0.09436 0.0
N1061 N 0.15821 0.56823 0.08202 0.0
C1062 C 0.17498 0.5554 0.09519 0.0
C1063 C 0.19923 0.57078 0.10236 0.0
C1064 C 0.20599 0.59914 0.09592 0.0
C1065 C 0.18855 0.61181 0.08228 0.0
C1066 C 0.16487 0.5953 0.07548 0.0
H1067 H 0.1698 0.5337 0.10031 0.0
O1068 O 0.08423 0.56937 0.11678 0.0
O1069 O 0.09804 0.56909 0.08814 0.0
O1070 O 0.0902 0.51074 0.10244 0.0
O1071 O 0.12775 0.51446 0.08259 0.0
C1072 C 0.19339 0.64041 0.0754 0.0
C1073 C 0.17439 0.65211 0.06205 0.0
H1074 H 0.13242 0.66774 0.03709 0.0
H1075 H 0.09046 0.63602 0.0277 0.0
H1076 H 0.21255 0.56087 0.11292 0.0
H1077 H 0.2245 0.61107 0.10165 0.0
H1078 H 0.21145 0.65374 0.08045 0.0
H1079 H 0.17812 0.67426 0.05703 0.0
Mn1080 Mn 0.20705 0.31204 0.8469 0.0
Mn1081 Mn 0.20151 0.37254 0.82055 0.0
C1082 C 0.17469 0.349 0.85495 0.0
C1083 C 0.19322 0.26362 0.853 0.0
C1084 C 0.25219 0.36181 0.84677 0.0
O1085 O 0.22694 0.29979 0.82329 0.0
O1086 O 0.21662 0.33902 0.80565 0.0
C1087 C 0.15445 0.35295 0.7954 0.0
N1088 N 0.16464 0.37257 0.80793 0.0
C1089 C 0.11998 0.40116 0.80603 0.0
C1090 C 0.10913 0.38139 0.793 0.0
C1091 C 0.12644 0.35717 0.78768 0.0
C1092 C 0.1482 0.396 0.81312 0.0
H1093 H 0.16756 0.33416 0.79137 0.0
C1094 C 0.22635 0.31268 0.80789 0.0
O1095 O 0.21808 0.27418 0.85891 0.0
O1096 O 0.17673 0.28094 0.84334 0.0
N1097 N 0.18645 0.40621 0.83326 0.0
C1098 C 0.19934 0.42222 0.84677 0.0
C1099 C 0.18443 0.44666 0.85405 0.0
C1100 C 0.15648 0.45447 0.84735 0.0
C1101 C 0.14376 0.43785 0.83334 0.0
C1102 C 0.15979 0.41389 0.82648 0.0
H1103 H 0.22074 0.41629 0.85206 0.0
O1104 O 0.18333 0.32973 0.86684 0.0
O1105 O 0.18457 0.34546 0.8385 0.0
O1106 O 0.24194 0.33833 0.85391 0.0
O1107 O 0.23996 0.37512 0.83343 0.0
C1108 C 0.11551 0.44371 0.82621 0.0
C1109 C 0.10363 0.42539 0.81257 0.0
H1110 H 0.08742 0.38442 0.78713 0.0
H1111 H 0.11813 0.34171 0.77772 0.0
H1112 H 0.19438 0.45936 0.86489 0.0
H1113 H 0.14491 0.47314 0.85316 0.0
H1114 H 0.10255 0.46201 0.83131 0.0
H1115 H 0.08173 0.42989 0.80737 0.0
Mn1116 Mn 0.44304 0.45842 0.59841 0.0
Mn1117 Mn 0.38204 0.45288 0.57252 0.0
C1118 C 0.40501 0.42807 0.60751 0.0
C1119 C 0.49073 0.44196 0.60475 0.0
C1120 C 0.39449 0.50522 0.5973 0.0
O1121 O 0.45598 0.4755 0.57423 0.0
O1122 O 0.41559 0.46703 0.5572 0.0
C1123 C 0.40076 0.40459 0.54801 0.0
N1124 N 0.38144 0.41551 0.56048 0.0
C1125 C 0.35235 0.37112 0.55944 0.0
C1126 C 0.37181 0.35951 0.54648 0.0
C1127 C 0.39612 0.37632 0.54075 0.0
C1128 C 0.35788 0.39958 0.56603 0.0
H1129 H 0.41963 0.41731 0.54367 0.0
C1130 C 0.44247 0.47545 0.55903 0.0
O1131 O 0.48211 0.46813 0.6097 0.0
O1132 O 0.47194 0.42599 0.59588 0.0
N1133 N 0.34838 0.43875 0.58562 0.0
C1134 C 0.33287 0.45228 0.59911 0.0
C1135 C 0.3085 0.43787 0.60685 0.0
C1136 C 0.30028 0.40976 0.60062 0.0
C1137 C 0.31644 0.39635 0.58664 0.0
C1138 C 0.34035 0.4119 0.57932 0.0
H1139 H 0.33918 0.47378 0.60406 0.0
O1140 O 0.42435 0.43738 0.61916 0.0
O1141 O 0.40882 0.43656 0.5908 0.0
O1142 O 0.41852 0.49543 0.60411 0.0
O1143 O 0.38016 0.49169 0.58486 0.0
C1144 C 0.31019 0.36788 0.58001 0.0
C1145 C 0.32812 0.35528 0.56641 0.0
H1146 H 0.36848 0.3376 0.54098 0.0
H1147 H 0.41134 0.36744 0.53084 0.0
H1148 H 0.29619 0.44833 0.61767 0.0
H1149 H 0.28167 0.39858 0.60676 0.0
H1150 H 0.29191 0.35529 0.58546 0.0
H1151 H 0.32334 0.3332 0.5616 0.0
H1152 H 0.13499 0.42227 0.36964 0.0
H1153 H 0.10285 0.37109 0.4148 0.0
H1154 H 0.16097 0.3787 0.35797 0.0
H1155 H 0.12925 0.32776 0.40348 0.0
H1156 H 0.19482 0.25897 0.38269 0.0
H1157 H 0.18133 0.30698 0.39573 0.0
H1158 H 0.13865 0.33095 0.34546 0.0
H1159 H 0.15171 0.28321 0.33256 0.0
C1160 C 0.13419 0.40185 0.37727 0.0
C1161 C 0.11784 0.4001 0.39339 0.0
C1162 C 0.14896 0.37701 0.37063 0.0
C1163 C 0.14733 0.34997 0.37993 0.0
C1164 C 0.1314 0.34846 0.39625 0.0
C1165 C 0.11641 0.37322 0.40276 0.0
C1166 C 0.18304 0.27476 0.37436 0.0
C1167 C 0.17413 0.26732 0.35666 0.0
C1168 C 0.17524 0.3021 0.38183 0.0
C1169 C 0.15898 0.32261 0.37158 0.0
C1170 C 0.15144 0.31569 0.3536 0.0
C1171 C 0.15873 0.28827 0.34627 0.0
H1172 H 0.9724 0.9011 0.58447 0.0
H1173 H 0.99511 0.9472 0.63387 0.0
H1174 H 0.92449 0.88841 0.59723 0.0
H1175 H 0.94692 0.93405 0.64678 0.0
H1176 H 0.8325 0.88694 0.61953 0.0
H1177 H 0.87658 0.91266 0.6085 0.0
H1178 H 0.92515 0.88234 0.65535 0.0
H1179 H 0.8813 0.85607 0.66603 0.0
C1180 C 0.96704 0.90875 0.59801 0.0
C1181 C 0.98757 0.92502 0.6082 0.0
C1182 C 0.9395 0.90169 0.60525 0.0
C1183 C 0.93201 0.91035 0.62295 0.0
C1184 C 0.95223 0.92715 0.63308 0.0
C1185 C 0.97968 0.93471 0.62568 0.0
C1186 C 0.85244 0.8865 0.62764 0.0
C1187 C 0.85341 0.87038 0.64387 0.0
C1188 C 0.87759 0.90109 0.62135 0.0
C1189 C 0.90419 0.89956 0.63113 0.0
C1190 C 0.90481 0.88431 0.64772 0.0
C1191 C 0.87973 0.86944 0.65388 0.0
H1192 H 0.40006 0.63128 0.91728 0.0
H1193 H 0.36794 0.58058 0.87189 0.0
H1194 H 0.37277 0.67447 0.90642 0.0
H1195 H 0.34098 0.62382 0.86079 0.0
H1196 H 0.35001 0.71837 0.83502 0.0
H1197 H 0.36336 0.67103 0.84826 0.0
H1198 H 0.32096 0.69587 0.89847 0.0
H1199 H 0.30718 0.74357 0.88505 0.0
C1200 C 0.38626 0.62918 0.90534 0.0
C1201 C 0.38526 0.60253 0.89568 0.0
C1202 C 0.37075 0.65384 0.89909 0.0
C1203 C 0.35471 0.65243 0.88279 0.0
C1204 C 0.35315 0.62548 0.8734 0.0
C1205 C 0.36847 0.6008 0.87973 0.0
C1206 C 0.34311 0.7136 0.84879 0.0
C1207 C 0.32766 0.7347 0.85903 0.0
C1208 C 0.35057 0.6864 0.85633 0.0
C1209 C 0.34315 0.67979 0.87438 0.0
C1210 C 0.32695 0.70049 0.88452 0.0
C1211 C 0.31897 0.72764 0.87683 0.0
H1212 H 0.53271 0.1027 0.08416 0.0
H1213 H 0.50912 0.05592 0.13314 0.0
H1214 H 0.58026 0.11553 0.09743 0.0
H1215 H 0.55688 0.06924 0.14656 0.0
H1216 H 0.672 0.11599 0.12093 0.0
H1217 H 0.62806 0.09082 0.10921 0.0
H1218 H 0.57809 0.12145 0.15541 0.0
H1219 H 0.62181 0.14725 0.16677 0.0
C1220 C 0.53781 0.09491 0.0977 0.0
C1221 C 0.51715 0.07839 0.10763 0.0
C1222 C 0.56512 0.10207 0.10524 0.0
C1223 C 0.57222 0.09328 0.12299 0.0
C1224 C 0.55188 0.07624 0.13284 0.0
C1225 C 0.52467 0.06856 0.12514 0.0
C1226 C 0.65176 0.11665 0.12875 0.0
C1227 C 0.65038 0.13265 0.14501 0.0
C1228 C 0.62669 0.10237 0.12206 0.0
C1229 C 0.59978 0.10408 0.13148 0.0
C1230 C 0.59868 0.11934 0.14806 0.0
C1231 C 0.62368 0.13392 0.15462 0.0
H1232 H 0.1193 0.74815 0.14424 0.0
H1233 H 0.21247 0.72814 0.14141 0.0
H1234 H 0.10798 0.70146 0.12968 0.0
H1235 H 0.20071 0.68041 0.12717 0.0
H1236 H 0.14337 0.5861 0.13137 0.0
H1237 H 0.16581 0.63306 0.14085 0.0
H1238 H 0.12182 0.67743 0.09666 0.0
H1239 H 0.09976 0.63066 0.08714 0.0
C1240 C 0.13742 0.7339 0.14045 0.0
C1241 C 0.16682 0.742 0.14394 0.0
C1242 C 0.13088 0.70717 0.13205 0.0
C1243 C 0.1535 0.68758 0.12725 0.0
C1244 C 0.18296 0.69535 0.13073 0.0
C1245 C 0.18961 0.72259 0.13881 0.0
C1246 C 0.13934 0.6058 0.12342 0.0
C1247 C 0.12047 0.60486 0.10834 0.0
C1248 C 0.15221 0.63251 0.12876 0.0
C1249 C 0.14555 0.65867 0.1194 0.0
C1250 C 0.1274 0.65747 0.10399 0.0
C1251 C 0.11493 0.63078 0.09852 0.0
H1252 H 0.50744 0.94392 0.37215 0.0
H1253 H 0.5302 0.89614 0.42092 0.0
H1254 H 0.55523 0.93034 0.3588 0.0
H1255 H 0.57779 0.88313 0.40774 0.0
H1256 H 0.62111 0.85228 0.33884 0.0
H1257 H 0.57682 0.87754 0.34993 0.0
H1258 H 0.6257 0.90899 0.39635 0.0
H1259 H 0.67017 0.88444 0.3849 0.0
C1260 C 0.52281 0.93099 0.38011 0.0
C1261 C 0.51507 0.92102 0.39756 0.0
C1262 C 0.55002 0.92315 0.37245 0.0
C1263 C 0.57015 0.90583 0.38229 0.0
C1264 C 0.5628 0.89679 0.39995 0.0
C1265 C 0.53548 0.90408 0.40744 0.0
C1266 C 0.6226 0.86567 0.35098 0.0
C1267 C 0.64915 0.86737 0.36072 0.0
C1268 C 0.59729 0.87994 0.35738 0.0
C1269 C 0.59794 0.89527 0.37395 0.0
C1270 C 0.62468 0.89738 0.38351 0.0
C1271 C 0.65005 0.88345 0.37697 0.0
H1272 H 0.30925 0.26184 0.62256 0.0
H1273 H 0.35685 0.28263 0.67175 0.0
H1274 H 0.32274 0.31009 0.60999 0.0
H1275 H 0.36983 0.33077 0.6593 0.0
H1276 H 0.40049 0.37539 0.59046 0.0
H1277 H 0.37516 0.33119 0.60139 0.0
H1278 H 0.34487 0.37942 0.64837 0.0
H1279 H 0.36948 0.42397 0.63701 0.0
C1280 C 0.32216 0.27686 0.63079 0.0
C1281 C 0.33213 0.26841 0.64811 0.0
C1282 C 0.32991 0.30437 0.62358 0.0
C1283 C 0.34719 0.3241 0.63373 0.0
C1284 C 0.3562 0.31608 0.65128 0.0
C1285 C 0.34896 0.28844 0.65834 0.0
C1286 C 0.38731 0.37681 0.60269 0.0
C1287 C 0.38592 0.40322 0.61258 0.0
C1288 C 0.37302 0.35152 0.60901 0.0
C1289 C 0.35798 0.35199 0.62567 0.0
C1290 C 0.35625 0.37856 0.63545 0.0
C1291 C 0.3702 0.40397 0.62897 0.0
H1292 H 0.99292 0.05701 0.87351 0.0
H1293 H 0.97026 0.10397 0.92261 0.0
H1294 H 0.94474 0.06995 0.86052 0.0
H1295 H 0.92227 0.11641 0.90976 0.0
H1296 H 0.8796 0.14783 0.84063 0.0
H1297 H 0.9235 0.12218 0.85181 0.0
H1298 H 0.87419 0.09165 0.89829 0.0
H1299 H 0.83 0.11666 0.88672 0.0
C1300 C 0.97748 0.06959 0.88163 0.0
C1301 C 0.98538 0.07962 0.89903 0.0
C1302 C 0.95003 0.07705 0.87418 0.0
C1303 C 0.92985 0.09406 0.88418 0.0
C1304 C 0.9373 0.10298 0.90184 0.0
C1305 C 0.96485 0.09605 0.90914 0.0
C1306 C 0.8779 0.13455 0.85281 0.0
C1307 C 0.85131 0.13324 0.86252 0.0
C1308 C 0.903 0.12005 0.85926 0.0
C1309 C 0.90214 0.10484 0.87586 0.0
C1310 C 0.87536 0.10315 0.88542 0.0
C1311 C 0.85016 0.11734 0.87882 0.0
H1312 H 0.92448 0.60712 0.64113 0.0
H1313 H 0.86415 0.60045 0.59614 0.0
H1314 H 0.89813 0.65042 0.65225 0.0
H1315 H 0.83839 0.64478 0.60655 0.0
H1316 H 0.78674 0.7164 0.63627 0.0
H1317 H 0.80806 0.66866 0.62797 0.0
H1318 H 0.89416 0.69999 0.64444 0.0
H1319 H 0.8727 0.74667 0.65341 0.0
C1320 C 0.90568 0.61527 0.63355 0.0
C1321 C 0.89714 0.60163 0.61733 0.0
C1322 C 0.89063 0.64013 0.63982 0.0
C1323 C 0.86656 0.65174 0.63005 0.0
C1324 C 0.85683 0.63665 0.61444 0.0
C1325 C 0.87187 0.61162 0.60825 0.0
C1326 C 0.81017 0.71286 0.63822 0.0
C1327 C 0.82799 0.73518 0.64561 0.0
C1328 C 0.82246 0.68559 0.63336 0.0
C1329 C 0.85287 0.68025 0.63563 0.0
C1330 C 0.87056 0.70283 0.64292 0.0
C1331 C 0.85826 0.72979 0.64796 0.0
H1332 H 0.14763 0.10994 0.34523 0.0
H1333 H 0.1445 0.16973 0.39063 0.0
H1334 H 0.10385 0.08444 0.35662 0.0
H1335 H 0.10175 0.14361 0.4027 0.0
H1336 H 0.00488 0.12046 0.40529 0.0
H1337 H 0.0518 0.14079 0.39594 0.0
H1338 H 0.08003 0.05435 0.37808 0.0
H1339 H 0.03201 0.03417 0.38684 0.0
C1340 C 0.1374 0.11757 0.35767 0.0
C1341 C 0.14816 0.14269 0.36657 0.0
C1342 C 0.11267 0.10266 0.36441 0.0
C1343 C 0.09862 0.11238 0.38038 0.0
C1344 C 0.11117 0.13615 0.39001 0.0
C1345 C 0.13574 0.15106 0.38319 0.0
C1346 C 0.02111 0.10569 0.39946 0.0
C1347 C 0.01473 0.07567 0.39684 0.0
C1348 C 0.04825 0.11733 0.39421 0.0
C1349 C 0.07005 0.09925 0.38639 0.0
C1350 C 0.06374 0.06906 0.38388 0.0
C1351 C 0.03629 0.05742 0.38899 0.0
H1352 H 0.64279 0.39954 0.09628 0.0
H1353 H 0.58397 0.39654 0.14215 0.0
H1354 H 0.66889 0.35611 0.10767 0.0
H1355 H 0.61073 0.35418 0.15424 0.0
H1356 H 0.63414 0.25727 0.15652 0.0
H1357 H 0.61356 0.30422 0.14749 0.0
H1358 H 0.69957 0.33268 0.12902 0.0
H1359 H 0.72002 0.28461 0.13747 0.0
C1360 C 0.63552 0.38942 0.10882 0.0
C1361 C 0.61048 0.40007 0.11786 0.0
C1362 C 0.65077 0.36491 0.11556 0.0
C1363 C 0.64149 0.35101 0.13168 0.0
C1364 C 0.61784 0.3635 0.14144 0.0
C1365 C 0.60256 0.38784 0.13461 0.0
C1366 C 0.64878 0.27356 0.15064 0.0
C1367 C 0.67874 0.26722 0.14773 0.0
C1368 C 0.63699 0.30072 0.14557 0.0
C1369 C 0.65487 0.32256 0.13765 0.0
C1370 C 0.68502 0.31634 0.13491 0.0
C1371 C 0.69681 0.28887 0.13984 0.0
H1372 H 0.49592 0.88395 0.90559 0.0
H1373 H 0.46806 0.9697 0.88659 0.0
H1374 H 0.44885 0.86328 0.89689 0.0
H1375 H 0.41992 0.94913 0.87842 0.0
H1376 H 0.3528 0.8919 0.8461 0.0
H1377 H 0.39631 0.9182 0.85721 0.0
H1378 H 0.39894 0.86053 0.90399 0.0
H1379 H 0.35647 0.83359 0.89221 0.0
C1380 C 0.47951 0.89854 0.89977 0.0
C1381 C 0.48573 0.9285 0.89679 0.0
C1382 C 0.45228 0.88669 0.89489 0.0
C1383 C 0.43028 0.9045 0.88707 0.0
C1384 C 0.43639 0.93464 0.88424 0.0
C1385 C 0.4639 0.9465 0.889 0.0
C1386 C 0.36308 0.88479 0.85864 0.0
C1387 C 0.3526 0.85983 0.86783 0.0
C1388 C 0.38763 0.90016 0.86522 0.0
C1389 C 0.40176 0.89106 0.8813 0.0
C1390 C 0.38943 0.8675 0.89121 0.0
C1391 C 0.36504 0.85212 0.88456 0.0
H1392 H 0.86084 0.40035 0.91012 0.0
H1393 H 0.91889 0.39666 0.8639 0.0
H1394 H 0.83441 0.35689 0.89905 0.0
H1395 H 0.89182 0.35426 0.85214 0.0
H1396 H 0.86812 0.25741 0.85038 0.0
H1397 H 0.88898 0.30435 0.85916 0.0
H1398 H 0.80329 0.33339 0.87788 0.0
H1399 H 0.78254 0.28535 0.86965 0.0
C1400 C 0.86787 0.39006 0.89757 0.0
C1401 C 0.89279 0.40054 0.88833 0.0
C1402 C 0.85243 0.36554 0.89101 0.0
C1403 C 0.86141 0.35144 0.87489 0.0
C1404 C 0.88494 0.36374 0.86495 0.0
C1405 C 0.9004 0.3881 0.87159 0.0
C1406 C 0.8536 0.27382 0.85627 0.0
C1407 C 0.82364 0.26765 0.85929 0.0
C1408 C 0.86556 0.30097 0.86119 0.0
C1409 C 0.84785 0.32297 0.86911 0.0
C1410 C 0.81771 0.31692 0.87198 0.0
C1411 C 0.80574 0.28947 0.86718 0.0
H1412 H 0.34661 0.10679 0.65625 0.0
H1413 H 0.36432 0.17526 0.61726 0.0
H1414 H 0.38761 0.07784 0.64434 0.0
H1415 H 0.407 0.14823 0.60631 0.0
H1416 H 0.47585 0.09132 0.58227 0.0
H1417 H 0.42832 0.11192 0.59072 0.0
H1418 H 0.43674 0.07214 0.64396 0.0
H1419 H 0.48301 0.04972 0.63469 0.0
C1420 C 0.35975 0.11574 0.64527 0.0
C1421 C 0.35316 0.14351 0.63799 0.0
C1422 C 0.38342 0.09929 0.63845 0.0
C1423 C 0.40135 0.11057 0.62441 0.0
C1424 C 0.39375 0.13816 0.61683 0.0
C1425 C 0.36952 0.15406 0.62327 0.0
C1426 C 0.46717 0.08675 0.59568 0.0
C1427 C 0.48304 0.06909 0.60786 0.0
C1428 C 0.44002 0.09888 0.60069 0.0
C1429 C 0.42854 0.09457 0.61828 0.0
C1430 C 0.44429 0.07601 0.63025 0.0
C1431 C 0.47103 0.06315 0.625 0.0
H1432 H 0.66328 0.72538 0.33277 0.0
H1433 H 0.7027 0.73442 0.38572 0.0
H1434 H 0.6426 0.67801 0.34145 0.0
H1435 H 0.68014 0.68828 0.39519 0.0
H1436 H 0.64547 0.59809 0.40768 0.0
H1437 H 0.67469 0.63897 0.39588 0.0
H1438 H 0.60545 0.65763 0.35691 0.0
H1439 H 0.57811 0.61512 0.36782 0.0
C1440 C 0.6674 0.71711 0.34634 0.0
C1441 C 0.68444 0.73346 0.35861 0.0
C1442 C 0.65521 0.69007 0.35147 0.0
C1443 C 0.65881 0.67923 0.36927 0.0
C1444 C 0.67684 0.69539 0.38133 0.0
C1445 C 0.68979 0.72202 0.37597 0.0
C1446 C 0.63682 0.61106 0.39653 0.0
C1447 C 0.60928 0.6043 0.38896 0.0
C1448 C 0.65343 0.63462 0.38977 0.0
C1449 C 0.64257 0.65226 0.37547 0.0
C1450 C 0.61519 0.64457 0.36763 0.0
C1451 C 0.59912 0.62044 0.37404 0.0
H1452 H 0.14211 0.83466 0.11766 0.0
H1453 H 0.15484 0.89963 0.15958 0.0
H1454 H 0.09999 0.86194 0.10619 0.0
H1455 H 0.11435 0.92892 0.14728 0.0
H1456 H 0.01802 0.95333 0.13678 0.0
H1457 H 0.06492 0.93226 0.1461 0.0
H1458 H 0.07818 0.89907 0.09153 0.0
H1459 H 0.02993 0.91797 0.08298 0.0
C1460 C 0.13599 0.8552 0.12419 0.0
C1461 C 0.15063 0.86454 0.13989 0.0
C1462 C 0.11207 0.87125 0.11747 0.0
C1463 C 0.1031 0.89782 0.12583 0.0
C1464 C 0.1196 0.90818 0.14078 0.0
C1465 C 0.14294 0.89153 0.14784 0.0
C1466 C 0.03122 0.94168 0.12682 0.0
C1467 C 0.0204 0.93696 0.10925 0.0
C1468 C 0.05833 0.92967 0.13209 0.0
C1469 C 0.07564 0.91335 0.11972 0.0
C1470 C 0.06531 0.9104 0.10175 0.0
C1471 C 0.03776 0.92155 0.0967 0.0
H1472 H 0.65053 0.78406 0.83257 0.0
H1473 H 0.6975 0.76054 0.88152 0.0
H1474 H 0.63786 0.83171 0.8458 0.0
H1475 H 0.68433 0.80836 0.89489 0.0
H1476 H 0.63711 0.92344 0.86962 0.0
H1477 H 0.66237 0.87965 0.8577 0.0
H1478 H 0.63202 0.82918 0.90375 0.0
H1479 H 0.6061 0.87269 0.91527 0.0
C1480 C 0.65842 0.78921 0.84608 0.0
C1481 C 0.67492 0.76853 0.85603 0.0
C1482 C 0.65135 0.81657 0.8536 0.0
C1483 C 0.66019 0.82367 0.87134 0.0
C1484 C 0.67728 0.80334 0.88118 0.0
C1485 C 0.68487 0.7761 0.8735 0.0
C1486 C 0.63653 0.90311 0.87735 0.0
C1487 C 0.62058 0.90153 0.89363 0.0
C1488 C 0.65086 0.87814 0.87056 0.0
C1489 C 0.64928 0.85115 0.87989 0.0
C1490 C 0.63405 0.84985 0.89647 0.0
C1491 C 0.61941 0.87473 0.90312 0.0
H1492 H 0.49444 0.44524 0.13458 0.0
H1493 H 0.46929 0.40334 0.08425 0.0
H1494 H 0.44669 0.43131 0.14788 0.0
H1495 H 0.42187 0.38986 0.09737 0.0
H1496 H 0.33114 0.38562 0.12123 0.0
H1497 H 0.3746 0.41224 0.11012 0.0
H1498 H 0.42533 0.37919 0.15538 0.0
H1499 H 0.38195 0.35219 0.16621 0.0
C1500 C 0.4785 0.43365 0.12627 0.0
C1501 C 0.48559 0.42525 0.10842 0.0
C1502 C 0.45133 0.42557 0.13389 0.0
C1503 C 0.43063 0.40957 0.12363 0.0
C1504 C 0.43725 0.40247 0.10553 0.0
C1505 C 0.46449 0.41002 0.09806 0.0
C1506 C 0.35145 0.3847 0.12898 0.0
C1507 C 0.35313 0.3677 0.14484 0.0
C1508 C 0.37624 0.39983 0.12264 0.0
C1509 C 0.40325 0.3979 0.13195 0.0
C1510 C 0.40466 0.38152 0.14813 0.0
C1511 C 0.37989 0.36618 0.15436 0.0
H1512 H 0.85918 0.08506 0.37414 0.0
H1513 H 0.90046 0.13229 0.41816 0.0
H1514 H 0.83545 0.13103 0.36397 0.0
H1515 H 0.87697 0.17807 0.40796 0.0
H1516 H 0.87877 0.24087 0.35309 0.0
H1517 H 0.89038 0.19408 0.36747 0.0
H1518 H 0.79987 0.18462 0.38445 0.0
H1519 H 0.78783 0.23236 0.37026 0.0
C1520 C 0.86235 0.10509 0.38192 0.0
C1521 C 0.88093 0.10519 0.39716 0.0
C1522 C 0.84872 0.1312 0.3762 0.0
C1523 C 0.85416 0.15775 0.3854 0.0
C1524 C 0.87209 0.15766 0.40091 0.0
C1525 C 0.88542 0.13156 0.40673 0.0
C1526 C 0.86116 0.22907 0.35987 0.0
C1527 C 0.8323 0.24053 0.36052 0.0
C1528 C 0.86793 0.20228 0.36811 0.0
C1529 C 0.846 0.18607 0.377 0.0
C1530 C 0.81705 0.19699 0.37762 0.0
C1531 C 0.81027 0.22422 0.36954 0.0
H1532 H 0.12581 0.64958 0.66521 0.0
H1533 H 0.17643 0.61673 0.61999 0.0
H1534 H 0.0826 0.62232 0.65454 0.0
H1535 H 0.13302 0.58978 0.609 0.0
H1536 H 0.03758 0.5962 0.58385 0.0
H1537 H 0.08519 0.61042 0.5964 0.0
H1538 H 0.06175 0.57056 0.64762 0.0
H1539 H 0.01381 0.55602 0.63497 0.0
C1540 C 0.12787 0.63567 0.65332 0.0
C1541 C 0.15456 0.63435 0.64372 0.0
C1542 C 0.10317 0.62018 0.64717 0.0
C1543 C 0.10452 0.6038 0.631 0.0
C1544 C 0.13142 0.60219 0.62153 0.0
C1545 C 0.15619 0.61749 0.62779 0.0
C1546 C 0.0427 0.59006 0.59771 0.0
C1547 C 0.02188 0.57515 0.60846 0.0
C1548 C 0.07007 0.59801 0.60485 0.0
C1549 C 0.07714 0.59159 0.62298 0.0
C1550 C 0.05677 0.57583 0.63361 0.0
C1551 C 0.02945 0.56742 0.62635 0.0
H1552 H 0.63598 0.07892 0.63354 0.0
H1553 H 0.60406 0.12968 0.58813 0.0
H1554 H 0.66282 0.12217 0.64474 0.0
H1555 H 0.63124 0.17287 0.59908 0.0
H1556 H 0.69665 0.24198 0.62075 0.0
H1557 H 0.683 0.19432 0.60721 0.0
H1558 H 0.64015 0.16934 0.65724 0.0
H1559 H 0.65337 0.21663 0.67059 0.0
C1560 C 0.63548 0.09915 0.62571 0.0
C1561 C 0.61877 0.1009 0.60974 0.0
C1562 C 0.65072 0.12384 0.6321 0.0
C1563 C 0.64918 0.15081 0.62274 0.0
C1564 C 0.63324 0.15223 0.60639 0.0
C1565 C 0.6178 0.12756 0.60009 0.0
C1566 C 0.68478 0.22603 0.6289 0.0
C1567 C 0.67593 0.23303 0.64669 0.0
C1568 C 0.67688 0.1989 0.62115 0.0
C1569 C 0.66061 0.17817 0.63121 0.0
C1570 C 0.653 0.18474 0.64923 0.0
C1571 C 0.66038 0.21191 0.65683 0.0
H1572 H 0.12178 0.35439 0.83808 0.0
H1573 H 0.17239 0.38624 0.88358 0.0
H1574 H 0.07843 0.38123 0.84911 0.0
H1575 H 0.12896 0.41271 0.89488 0.0
H1576 H 0.0344 0.40258 0.9206 0.0
H1577 H 0.08179 0.38962 0.90726 0.0
H1578 H 0.05686 0.43296 0.85738 0.0
H1579 H 0.00912 0.44636 0.8709 0.0
C1580 C 0.12382 0.36805 0.85008 0.0
C1581 C 0.15049 0.36911 0.85972 0.0
C1582 C 0.09906 0.38329 0.85643 0.0
C1583 C 0.1004 0.39909 0.87282 0.0
C1584 C 0.12737 0.40071 0.8822 0.0
C1585 C 0.15215 0.38568 0.87575 0.0
C1586 C 0.03914 0.40974 0.90688 0.0
C1587 C 0.01802 0.42537 0.89676 0.0
C1588 C 0.06637 0.40251 0.89929 0.0
C1589 C 0.07298 0.41034 0.88131 0.0
C1590 C 0.05223 0.42667 0.87128 0.0
C1591 C 0.02506 0.43442 0.87903 0.0
H1592 H 0.86771 0.92249 0.13462 0.0
H1593 H 0.90171 0.87193 0.0897 0.0
H1594 H 0.8417 0.87873 0.14584 0.0
H1595 H 0.8753 0.82826 0.10062 0.0
H1596 H 0.80953 0.75875 0.12148 0.0
H1597 H 0.8232 0.80654 0.10815 0.0
H1598 H 0.86474 0.8316 0.15858 0.0
H1599 H 0.85154 0.78414 0.17174 0.0
C1600 C 0.86889 0.90216 0.12692 0.0
C1601 C 0.88585 0.90064 0.11104 0.0
C1602 C 0.85411 0.8772 0.13331 0.0
C1603 C 0.85635 0.85019 0.12402 0.0
C1604 C 0.87273 0.84892 0.10785 0.0
C1605 C 0.88773 0.87386 0.10156 0.0
C1606 C 0.82112 0.77473 0.12977 0.0
C1607 C 0.82961 0.76772 0.14761 0.0
C1608 C 0.82904 0.80193 0.12212 0.0
C1609 C 0.84496 0.82272 0.13236 0.0
C1610 C 0.85219 0.81614 0.15044 0.0
C1611 C 0.84481 0.78888 0.15793 0.0
H1612 H 0.46945 0.6049 0.4223 0.0
H1613 H 0.49209 0.55896 0.37284 0.0
H1614 H 0.42184 0.6184 0.40936 0.0
H1615 H 0.44427 0.57293 0.35976 0.0
H1616 H 0.37939 0.65073 0.33996 0.0
H1617 H 0.42331 0.62517 0.35127 0.0
H1618 H 0.37377 0.59471 0.39768 0.0
H1619 H 0.32968 0.61974 0.38604 0.0
C1620 C 0.46411 0.59742 0.40873 0.0
C1621 C 0.48454 0.58096 0.39856 0.0
C1622 C 0.43677 0.60499 0.40137 0.0
C1623 C 0.42942 0.59666 0.38358 0.0
C1624 C 0.44949 0.57961 0.37351 0.0
C1625 C 0.47672 0.57154 0.38102 0.0
C1626 C 0.3777 0.63759 0.35219 0.0
C1627 C 0.35106 0.63623 0.36184 0.0
C1628 C 0.40279 0.62311 0.35871 0.0
C1629 C 0.40184 0.60785 0.3753 0.0
C1630 C 0.37503 0.60625 0.38483 0.0
C1631 C 0.34989 0.62046 0.37819 0.0
H1632 H 0.35654 0.09646 0.09746 0.0
H1633 H 0.42395 0.11254 0.13742 0.0
H1634 H 0.32787 0.13781 0.10918 0.0
H1635 H 0.39724 0.1555 0.14824 0.0
H1636 H 0.34047 0.22454 0.17211 0.0
H1637 H 0.36059 0.17687 0.16355 0.0
H1638 H 0.32296 0.1871 0.10983 0.0
H1639 H 0.30092 0.23355 0.1192 0.0
C1640 C 0.36533 0.10932 0.10862 0.0
C1641 C 0.39274 0.10216 0.11623 0.0
C1642 C 0.34904 0.13316 0.11533 0.0
C1643 C 0.36012 0.1507 0.12963 0.0
C1644 C 0.38733 0.14257 0.13752 0.0
C1645 C 0.40305 0.11816 0.13116 0.0
C1646 C 0.33624 0.21622 0.15857 0.0
C1647 C 0.31929 0.23264 0.14628 0.0
C1648 C 0.34811 0.189 0.1535 0.0
C1649 C 0.34429 0.178 0.13574 0.0
C1650 C 0.32642 0.1943 0.12366 0.0
C1651 C 0.31378 0.22112 0.12896 0.0
H1652 H 0.52884 0.59213 0.9225 0.0
H1653 H 0.5197 0.5516 0.86987 0.0
H1654 H 0.57607 0.61285 0.91353 0.0
H1655 H 0.56559 0.5742 0.86011 0.0
H1656 H 0.65587 0.60791 0.84719 0.0
H1657 H 0.61481 0.5793 0.85928 0.0
H1658 H 0.59705 0.64936 0.89785 0.0
H1659 H 0.6398 0.67606 0.88667 0.0
C1660 C 0.53702 0.58781 0.90894 0.0
C1661 C 0.52072 0.57037 0.89685 0.0
C1662 C 0.56399 0.60001 0.90364 0.0
C1663 C 0.57481 0.596 0.88585 0.0
C1664 C 0.55858 0.57776 0.87396 0.0
C1665 C 0.53205 0.5648 0.87949 0.0
C1666 C 0.64305 0.61689 0.85831 0.0
C1667 C 0.65014 0.64446 0.86569 0.0
C1668 C 0.61937 0.60062 0.86524 0.0
C1669 C 0.6019 0.61191 0.8795 0.0
C1670 C 0.60994 0.63932 0.88715 0.0
C1671 C 0.63421 0.65502 0.88059 0.0
H1672 H 0.22269 0.78733 0.63606 0.0
H1673 H 0.13658 0.75909 0.65417 0.0
H1674 H 0.2021 0.83538 0.62768 0.0
H1675 H 0.11588 0.80605 0.64522 0.0
H1676 H 0.08607 0.89846 0.64085 0.0
H1677 H 0.11276 0.85578 0.65253 0.0
H1678 H 0.1717 0.85952 0.60639 0.0
H1679 H 0.1456 0.90328 0.59538 0.0
C1680 C 0.1994 0.79138 0.63823 0.0
C1681 C 0.18132 0.76949 0.64587 0.0
C1682 C 0.18753 0.81885 0.63334 0.0
C1683 C 0.15729 0.82485 0.63587 0.0
C1684 C 0.13937 0.80274 0.64348 0.0
C1685 C 0.15124 0.77557 0.6485 0.0
C1686 C 0.10482 0.89009 0.6333 0.0
C1687 C 0.11294 0.90295 0.61677 0.0
C1688 C 0.12005 0.86556 0.6399 0.0
C1689 C 0.1439 0.85346 0.63013 0.0
C1690 C 0.15341 0.86798 0.61427 0.0
C1691 C 0.13817 0.89269 0.60774 0.0
H1692 H 0.99275 0.38609 0.40703 0.0
H1693 H 0.96722 0.47247 0.38788 0.0
H1694 H 0.94557 0.36641 0.39774 0.0
H1695 H 0.91887 0.45292 0.37916 0.0
H1696 H 0.85343 0.33794 0.39162 0.0
H1697 H 0.89537 0.36463 0.40423 0.0
H1698 H 0.89543 0.42242 0.35749 0.0
H1699 H 0.85233 0.39635 0.34551 0.0
C1700 C 0.97679 0.40105 0.4011 0.0
C1701 C 0.98374 0.43087 0.39822 0.0
C1702 C 0.94948 0.38978 0.39589 0.0
C1703 C 0.92808 0.40807 0.38785 0.0
C1704 C 0.93486 0.43809 0.38517 0.0
C1705 C 0.96248 0.44937 0.39025 0.0
C1706 C 0.86245 0.35645 0.38415 0.0
C1707 C 0.85093 0.36419 0.36717 0.0
C1708 C 0.88654 0.37169 0.39129 0.0
C1709 C 0.89955 0.39514 0.38162 0.0
C1710 C 0.88624 0.40441 0.36531 0.0
C1711 C 0.86194 0.38917 0.35823 0.0
H1712 H 0.33772 0.77766 0.33219 0.0
H1713 H 0.29717 0.76935 0.38485 0.0
H1714 H 0.35793 0.82531 0.34075 0.0
H1715 H 0.31929 0.81569 0.39423 0.0
H1716 H 0.3542 0.90535 0.40712 0.0
H1717 H 0.32495 0.86476 0.395 0.0
H1718 H 0.39452 0.84632 0.35621 0.0
H1719 H 0.42181 0.88865 0.36739 0.0
C1720 C 0.33327 0.78615 0.34567 0.0
C1721 C 0.31605 0.76994 0.3579 0.0
C1722 C 0.34519 0.81335 0.35074 0.0
C1723 C 0.34116 0.82447 0.36845 0.0
C1724 C 0.32294 0.80841 0.38044 0.0
C1725 C 0.31024 0.78164 0.37513 0.0
C1726 C 0.36291 0.8925 0.39593 0.0
C1727 C 0.39053 0.89923 0.3885 0.0
C1728 C 0.34627 0.86908 0.38899 0.0
C1729 C 0.35725 0.85152 0.37467 0.0
C1730 C 0.38468 0.85929 0.36694 0.0
C1731 C 0.40074 0.8833 0.37351 0.0
H1732 H 0.99768 0.61905 0.10022 0.0
H1733 H 0.97039 0.53322 0.11934 0.0
H1734 H 0.9509 0.63973 0.1095 0.0
H1735 H 0.92245 0.55378 0.12804 0.0
H1736 H 0.8552 0.61058 0.16054 0.0
H1737 H 0.89882 0.58454 0.14932 0.0
H1738 H 0.90095 0.64248 0.10267 0.0
H1739 H 0.85841 0.66916 0.11457 0.0
C1740 C 0.98144 0.60444 0.10618 0.0
C1741 C 0.98773 0.57446 0.10899 0.0
C1742 C 0.95437 0.6163 0.11139 0.0
C1743 C 0.93255 0.59845 0.11937 0.0
C1744 C 0.93877 0.5683 0.12209 0.0
C1745 C 0.96616 0.55644 0.11702 0.0
C1746 C 0.86542 0.61782 0.14802 0.0
C1747 C 0.85475 0.64278 0.1389 0.0
C1748 C 0.89004 0.6026 0.14138 0.0
C1749 C 0.90405 0.61184 0.12529 0.0
C1750 C 0.89156 0.63541 0.11546 0.0
C1751 C 0.86711 0.65064 0.12218 0.0
H1752 H 0.16102 0.22599 0.83229 0.0
H1753 H 0.20222 0.23446 0.88476 0.0
H1754 H 0.14068 0.1785 0.84105 0.0
H1755 H 0.18001 0.18831 0.89434 0.0
H1756 H 0.1463 0.09821 0.90725 0.0
H1757 H 0.17486 0.13922 0.89508 0.0
H1758 H 0.10453 0.157 0.85668 0.0
H1759 H 0.07792 0.11425 0.8679 0.0
C1760 C 0.16556 0.2176 0.84577 0.0
C1761 C 0.18306 0.2338 0.85787 0.0
C1762 C 0.15358 0.19048 0.85096 0.0
C1763 C 0.15787 0.17939 0.86866 0.0
C1764 C 0.17621 0.19552 0.88055 0.0
C1765 C 0.18894 0.2222 0.87513 0.0
C1766 C 0.13727 0.11101 0.89613 0.0
C1767 C 0.10964 0.10394 0.88882 0.0
C1768 C 0.15349 0.13468 0.88916 0.0
C1769 C 0.1421 0.15218 0.87495 0.0
C1770 C 0.11466 0.14411 0.86734 0.0
C1771 C 0.099 0.11984 0.87394 0.0
H1772 H 0.50939 0.38561 0.60036 0.0
H1773 H 0.53814 0.47063 0.62009 0.0
H1774 H 0.55603 0.36411 0.60917 0.0
H1775 H 0.58589 0.4492 0.62837 0.0
H1776 H 0.65188 0.3904 0.66057 0.0
H1777 H 0.60882 0.41749 0.64949 0.0
H1778 H 0.60598 0.3608 0.60226 0.0
H1779 H 0.64798 0.33307 0.614 0.0
C1780 C 0.52592 0.39987 0.60636 0.0
C1781 C 0.52006 0.42986 0.6095 0.0
C1782 C 0.5529 0.38753 0.6113 0.0
C1783 C 0.57503 0.40489 0.61936 0.0
C1784 C 0.5693 0.43507 0.62236 0.0
C1785 C 0.54202 0.44742 0.61753 0.0
C1786 C 0.64164 0.38367 0.64794 0.0
C1787 C 0.65193 0.35877 0.6386 0.0
C1788 C 0.61735 0.39949 0.64139 0.0
C1789 C 0.6033 0.39091 0.62517 0.0
C1790 C 0.61543 0.36738 0.61513 0.0
C1791 C 0.63956 0.35155 0.62176 0.0
H1792 H 0.25392 0.25529 0.19771 0.0
H1793 H 0.27939 0.32784 0.23246 0.0
H1794 H 0.24091 0.22625 0.22432 0.0
H1795 H 0.26589 0.29884 0.25905 0.0
H1796 H 0.26377 0.22975 0.30398 0.0
H1797 H 0.28106 0.25511 0.27664 0.0
H1798 H 0.2034 0.22583 0.24781 0.0
H1799 H 0.18646 0.20023 0.27482 0.0
C1800 C 0.25655 0.26519 0.21099 0.0
C1801 C 0.26756 0.29407 0.21286 0.0
C1802 C 0.24906 0.24849 0.22627 0.0
C1803 C 0.25245 0.26015 0.24384 0.0
C1804 C 0.26343 0.289 0.24573 0.0
C1805 C 0.27085 0.30577 0.23044 0.0
C1806 C 0.25069 0.22828 0.29171 0.0
C1807 C 0.22366 0.21306 0.29165 0.0
C1808 C 0.26043 0.24308 0.2761 0.0
C1809 C 0.24347 0.24273 0.26008 0.0
C1810 C 0.21712 0.22642 0.25985 0.0
C1811 C 0.20734 0.21184 0.27541 0.0
H1812 H 0.01984 0.01722 0.55611 0.0
H1813 H 0.05313 0.94249 0.52595 0.0
H1814 H 0.99392 0.03439 0.52891 0.0
H1815 H 0.027 0.95925 0.49911 0.0
H1816 H 0.99583 0.0098 0.44955 0.0
H1817 H 0.02517 0.99743 0.47616 0.0
H1818 H 0.95114 0.01815 0.5108 0.0
H1819 H 0.92182 0.03104 0.48422 0.0
C1820 C 0.02199 0.0047 0.54366 0.0
C1821 C 0.03846 0.97841 0.54327 0.0
C1822 C 0.00688 0.01435 0.52813 0.0
C1823 C 0.00817 0.99806 0.51186 0.0
C1824 C 0.02566 0.97248 0.51133 0.0
C1825 C 0.04055 0.96278 0.52681 0.0
C1826 C 0.98569 0.01165 0.46281 0.0
C1827 C 0.9563 0.02125 0.46465 0.0
C1828 C 0.00256 0.00453 0.47809 0.0
C1829 C 0.99056 0.00686 0.49564 0.0
C1830 C 0.96123 0.01651 0.49751 0.0
C1831 C 0.9443 0.02357 0.48222 0.0
H1832 H 0.22365 0.67474 0.73255 0.0
H1833 H 0.2479 0.74891 0.69878 0.0
H1834 H 0.23655 0.70308 0.75953 0.0
H1835 H 0.26035 0.77725 0.7258 0.0
H1836 H 0.31525 0.80155 0.77648 0.0
H1837 H 0.29832 0.77676 0.74919 0.0
H1838 H 0.22086 0.74627 0.77772 0.0
H1839 H 0.23812 0.77089 0.80535 0.0
C1840 C 0.23176 0.69704 0.73083 0.0
C1841 C 0.23494 0.70938 0.71341 0.0
C1842 C 0.23884 0.71341 0.74635 0.0
C1843 C 0.24939 0.74247 0.74484 0.0
C1844 C 0.25253 0.75483 0.72744 0.0
C1845 C 0.24535 0.73854 0.71193 0.0
C1846 C 0.29443 0.78984 0.77696 0.0
C1847 C 0.27813 0.78808 0.79318 0.0
C1848 C 0.28464 0.77573 0.76123 0.0
C1849 C 0.25833 0.75936 0.76128 0.0
C1850 C 0.24144 0.7584 0.77731 0.0
C1851 C 0.25116 0.77275 0.79309 0.0
H1852 H 0.4508 0.06085 0.02552 0.0
H1853 H 0.48338 0.98586 0.0557 0.0
H1854 H 0.47668 0.0438 0.99869 0.0
H1855 H 0.50909 0.96837 0.02847 0.0
H1856 H 0.58083 0.97127 0.98317 0.0
H1857 H 0.55199 0.98408 0.01003 0.0
H1858 H 0.47749 0.00545 0.97591 0.0
H1859 H 0.50629 0.99326 0.94911 0.0
C1860 C 0.46316 0.04043 0.02637 0.0
C1861 C 0.4651 0.0248 0.04283 0.0
C1862 C 0.47792 0.03057 0.01091 0.0
C1863 C 0.49512 0.0048 0.01142 0.0
C1864 C 0.49632 0.98853 0.0277 0.0
C1865 C 0.48132 0.99835 0.04323 0.0
C1866 C 0.55835 0.97885 0.98137 0.0
C1867 C 0.54606 0.98147 0.96389 0.0
C1868 C 0.5417 0.98586 0.9968 0.0
C1869 C 0.5124 0.99575 0.99514 0.0
C1870 C 0.5001 0.99822 0.97769 0.0
C1871 C 0.51667 0.99118 0.96229 0.0
H1872 H 0.27355 0.74785 0.30232 0.0
H1873 H 0.25585 0.66413 0.27641 0.0
H1874 H 0.25993 0.77355 0.27433 0.0
H1875 H 0.24179 0.69 0.24858 0.0
H1876 H 0.18161 0.75273 0.21411 0.0
H1877 H 0.19861 0.72648 0.24099 0.0
H1878 H 0.27979 0.77621 0.24013 0.0
H1879 H 0.26294 0.80239 0.21276 0.0
C1880 C 0.26652 0.73494 0.29072 0.0
C1881 C 0.26554 0.70392 0.29164 0.0
C1882 C 0.25906 0.74966 0.27466 0.0
C1883 C 0.24995 0.73373 0.25932 0.0
C1884 C 0.24872 0.70278 0.26025 0.0
C1885 C 0.25673 0.68801 0.27618 0.0
C1886 C 0.20315 0.75808 0.21959 0.0
C1887 C 0.22092 0.77973 0.21136 0.0
C1888 C 0.21291 0.7429 0.23492 0.0
C1889 C 0.24046 0.74934 0.24262 0.0
C1890 C 0.25837 0.77095 0.23446 0.0
C1891 C 0.24883 0.78579 0.21879 0.0
H1892 H 0.44926 0.93734 0.4796 0.0
H1893 H 0.48078 0.0138 0.45043 0.0
H1894 H 0.47501 0.95374 0.50665 0.0
H1895 H 0.50633 0.0306 0.47786 0.0
H1896 H 0.57859 0.02725 0.52238 0.0
H1897 H 0.54949 0.01459 0.49568 0.0
H1898 H 0.47607 0.9911 0.53013 0.0
H1899 H 0.50522 0.00324 0.55687 0.0
C1900 C 0.46136 0.95793 0.47902 0.0
C1901 C 0.46309 0.97415 0.46276 0.0
C1902 C 0.47603 0.96742 0.49462 0.0
C1903 C 0.49293 0.99338 0.49443 0.0
C1904 C 0.49382 0.01026 0.47838 0.0
C1905 C 0.47893 1.00082 0.46272 0.0
C1906 C 0.55631 0.01921 0.52432 0.0
C1907 C 0.54442 0.01606 0.54187 0.0
C1908 C 0.53949 0.01229 0.50896 0.0
C1909 C 0.51039 0.00196 0.51074 0.0
C1910 C 0.49851 0.99875 0.52826 0.0
C1911 C 0.51527 0.00573 0.54362 0.0
H1912 H 0.22587 0.33065 0.7723 0.0
H1913 H 0.24646 0.25561 0.80627 0.0
H1914 H 0.23831 0.30185 0.74545 0.0
H1915 H 0.25832 0.22676 0.77938 0.0
H1916 H 0.31251 0.19924 0.72923 0.0
H1917 H 0.29606 0.22466 0.75637 0.0
H1918 H 0.22165 0.26008 0.72688 0.0
H1919 H 0.23859 0.23492 0.69935 0.0
C1920 C 0.2331 0.30805 0.77409 0.0
C1921 C 0.23538 0.29561 0.79155 0.0
C1922 C 0.23989 0.29142 0.75864 0.0
C1923 C 0.24918 0.26193 0.76022 0.0
C1924 C 0.25151 0.2495 0.77765 0.0
C1925 C 0.2447 0.2661 0.79311 0.0
C1926 C 0.29243 0.21217 0.7285 0.0
C1927 C 0.27699 0.21518 0.71203 0.0
C1928 C 0.2829 0.22665 0.74416 0.0
C1929 C 0.25765 0.24462 0.74381 0.0
C1930 C 0.24146 0.24674 0.72753 0.0
C1931 C 0.25096 0.23207 0.71181 0.0
H1932 H 0.05346 0.06457 0.98041 0.0
H1933 H 0.02193 0.98827 0.95107 0.0
H1934 H 0.02767 0.04805 0.00741 0.0
H1935 H 0.9964 0.9713 0.97845 0.0
H1936 H 0.92411 0.97428 0.02296 0.0
H1937 H 0.95323 0.98703 0.99627 0.0
H1938 H 0.0265 0.0108 0.03079 0.0
H1939 H 0.99735 0.99865 0.05748 0.0
C1940 C 0.04138 0.04397 0.97979 0.0
C1941 C 0.03963 0.02785 0.9635 0.0
C1942 C 0.02668 0.03442 0.99535 0.0
C1943 C 0.00976 0.00846 0.99509 0.0
C1944 C 0.0089 0.99164 0.97902 0.0
C1945 C 0.0238 1.00117 0.96339 0.0
C1946 C 0.94636 0.98242 0.0249 0.0
C1947 C 0.95821 0.98566 0.04245 0.0
C1948 C 0.96318 0.98939 0.00955 0.0
C1949 C 0.99226 0.99983 0.01136 0.0
C1950 C 0.00408 0.0031 0.0289 0.0
C1951 C 0.98731 0.99611 0.04423 0.0
H1952 H 0.75944 0.75477 0.6974 0.0
H1953 H 0.7812 0.82915 0.73164 0.0
H1954 H 0.74696 0.72591 0.7242 0.0
H1955 H 0.76825 0.8003 0.7584 0.0
H1956 H 0.76669 0.73238 0.8041 0.0
H1957 H 0.78428 0.75744 0.7767 0.0
H1958 H 0.70853 0.72515 0.74718 0.0
H1959 H 0.6913 0.69994 0.77424 0.0
C1960 C 0.76142 0.76508 0.71061 0.0
C1961 C 0.77116 0.79444 0.71228 0.0
C1962 C 0.75423 0.74849 0.72599 0.0
C1963 C 0.75667 0.76075 0.74347 0.0
C1964 C 0.76652 0.79003 0.74517 0.0
C1965 C 0.77362 0.80669 0.72978 0.0
C1966 C 0.75413 0.7302 0.79166 0.0
C1967 C 0.72752 0.71427 0.79141 0.0
C1968 C 0.76403 0.74481 0.77602 0.0
C1969 C 0.74768 0.74351 0.75977 0.0
C1970 C 0.7218 0.72648 0.75938 0.0
C1971 C 0.71183 0.71212 0.77497 0.0
H1972 H 0.74915 0.2442 0.19942 0.0
H1973 H 0.72028 0.17265 0.23393 0.0
H1974 H 0.76308 0.27258 0.22613 0.0
H1975 H 0.73461 0.20108 0.26065 0.0
H1976 H 0.73788 0.27243 0.30505 0.0
H1977 H 0.72067 0.24628 0.27794 0.0
H1978 H 0.80072 0.27058 0.24989 0.0
H1979 H 0.81769 0.29683 0.27667 0.0
C1980 C 0.74589 0.2344 0.21268 0.0
C1981 C 0.73372 0.20598 0.21445 0.0
C1982 C 0.75395 0.25071 0.22801 0.0
C1983 C 0.74992 0.23913 0.24553 0.0
C1984 C 0.73767 0.21078 0.24735 0.0
C1985 C 0.72975 0.19436 0.232 0.0
C1986 C 0.7516 0.27251 0.29301 0.0
C1987 C 0.77921 0.28667 0.29309 0.0
C1988 C 0.74187 0.25729 0.27755 0.0
C1989 C 0.7594 0.25622 0.26178 0.0
C1990 C 0.78655 0.27115 0.26173 0.0
C1991 C 0.79635 0.2861 0.27716 0.0
H1992 H 0.78129 0.1716 0.77336 0.0
H1993 H 0.75594 0.2455 0.80707 0.0
H1994 H 0.76783 0.19969 0.74635 0.0
H1995 H 0.74297 0.27357 0.78007 0.0
H1996 H 0.68799 0.29764 0.72955 0.0
H1997 H 0.70499 0.27253 0.75671 0.0
H1998 H 0.78293 0.24323 0.72818 0.0
H1999 H 0.76562 0.26818 0.70068 0.0
C2000 C 0.77281 0.19378 0.77506 0.0
C2001 C 0.76951 0.20613 0.79247 0.0
C2002 C 0.76541 0.21 0.75953 0.0
C2003 C 0.7544 0.23891 0.76104 0.0
C2004 C 0.75112 0.25126 0.77843 0.0
C2005 C 0.75862 0.23512 0.79393 0.0
C2006 C 0.70892 0.2861 0.72904 0.0
C2007 C 0.72537 0.28482 0.71286 0.0
C2008 C 0.71873 0.2718 0.74469 0.0
C2009 C 0.74523 0.25571 0.74461 0.0
C2010 C 0.76221 0.25513 0.72861 0.0
C2011 C 0.75246 0.26968 0.71291 0.0
H2012 H 0.74986 0.75731 0.30722 0.0
H2013 H 0.72377 0.83002 0.27277 0.0
H2014 H 0.76286 0.72856 0.28051 0.0
H2015 H 0.73731 0.80129 0.24605 0.0
H2016 H 0.73954 0.73203 0.20094 0.0
H2017 H 0.72242 0.75763 0.22827 0.0
H2018 H 0.80015 0.7283 0.25701 0.0
H2019 H 0.8169 0.70249 0.23005 0.0
C2020 C 0.7471 0.76732 0.29398 0.0
C2021 C 0.73591 0.79616 0.29224 0.0
C2022 C 0.75459 0.75078 0.27863 0.0
C2023 C 0.75106 0.76255 0.26111 0.0
C2024 C 0.73991 0.79137 0.25933 0.0
C2025 C 0.73247 0.80798 0.2747 0.0
C2026 C 0.75267 0.73063 0.2132 0.0
C2027 C 0.77965 0.71529 0.21324 0.0
C2028 C 0.74303 0.74557 0.22879 0.0
C2029 C 0.76003 0.74523 0.2448 0.0
C2030 C 0.78637 0.72889 0.245 0.0
C2031 C 0.79605 0.71417 0.22946 0.0
H2032 H 0.52262 0.51447 0.0547 0.0
H2033 H 0.55287 0.43684 0.02615 0.0
H2034 H 0.49766 0.53129 0.02709 0.0
H2035 H 0.5277 0.45333 0.99888 0.0
H2036 H 0.49843 0.50319 0.9483 0.0
H2037 H 0.52733 0.49059 0.9751 0.0
H2038 H 0.45421 0.51545 0.00944 0.0
H2039 H 0.42538 0.52846 0.98272 0.0
C2040 C 0.52433 0.50123 0.0425 0.0
C2041 C 0.53962 0.47423 0.0427 0.0
C2042 C 0.50977 0.51069 0.02674 0.0
C2043 C 0.51045 0.49351 0.01081 0.0
C2044 C 0.52685 0.46722 0.01083 0.0
C2045 C 0.54118 0.45769 0.02655 0.0
C2046 C 0.4884 0.50587 0.96154 0.0
C2047 C 0.45942 0.51671 0.96326 0.0
C2048 C 0.50501 0.49863 0.97692 0.0
C2049 C 0.49315 0.50214 0.99444 0.0
C2050 C 0.4642 0.51292 0.99617 0.0
C2051 C 0.44753 0.52005 0.9808 0.0
H2052 H 0.0692 0.4467 0.48205 0.0
H2053 H 0.02334 0.51502 0.45263 0.0
H2054 H 0.04052 0.45769 0.50896 0.0
H2055 H 0.99647 0.52826 0.47999 0.0
H2056 H 0.93525 0.53592 0.52708 0.0
H2057 H 0.95999 0.51837 0.4998 0.0
H2058 H 0.03278 0.48731 0.53284 0.0
H2059 H 0.00637 0.50246 0.55997 0.0
C2060 C 0.05328 0.46448 0.48144 0.0
C2061 C 0.04846 0.47992 0.46519 0.0
C2062 C 0.03687 0.47104 0.497 0.0
C2063 C 0.01585 0.49399 0.49695 0.0
C2064 C 0.01165 0.50987 0.48067 0.0
C2065 C 0.02738 0.50259 0.46495 0.0
C2066 C 0.9562 0.52458 0.52839 0.0
C2067 C 0.96878 0.52014 0.54555 0.0
C2068 C 0.97076 0.51495 0.51273 0.0
C2069 C 0.9989 0.5017 0.51381 0.0
C2070 C 0.01104 0.49679 0.5312 0.0
C2071 C 0.99595 0.50553 0.54687 0.0
H2072 H 0.00754 0.50605 0.05656 0.0
H2073 H 0.08053 0.53031 0.02183 0.0
H2074 H 0.97845 0.49309 0.02992 0.0
H2075 H 0.05146 0.51692 0.99525 0.0
H2076 H 0.98235 0.51524 0.95026 0.0
H2077 H 0.00771 0.53255 0.97761 0.0
H2078 H 0.97816 0.4551 0.0065 0.0
H2079 H 0.95262 0.43809 0.97947 0.0
C2080 C 0.0175 0.50847 0.04328 0.0
C2081 C 0.04653 0.51908 0.04142 0.0
C2082 C 1.00078 0.501 0.02799 0.0
C2083 C 0.01257 0.50407 0.01044 0.0
C2084 C 0.04155 0.51471 0.00855 0.0
C2085 C 0.05834 0.52206 0.02384 0.0
C2086 C 0.98085 0.5022 0.96255 0.0
C2087 C 0.96557 0.47521 0.96262 0.0
C2088 C 0.99563 0.51196 0.97816 0.0
C2089 C 0.99517 0.49508 0.9942 0.0
C2090 C 0.97883 0.46876 0.99444 0.0
C2091 C 0.96428 0.45893 0.97887 0.0
H2092 H 0.51981 0.48859 0.45026 0.0
H2093 H 0.55327 0.56348 0.48016 0.0
H2094 H 0.4949 0.47105 0.47773 0.0
H2095 H 0.52817 0.54636 0.50726 0.0
H2096 H 0.49938 0.49565 0.55707 0.0
H2097 H 0.5277 0.50791 0.53007 0.0
H2098 H 0.45248 0.48697 0.49646 0.0
H2099 H 0.42414 0.47413 0.52347 0.0
C2100 C 0.52223 0.50105 0.46272 0.0
C2101 C 0.53844 0.5275 0.46297 0.0
C2102 C 0.5077 0.49119 0.4784 0.0
C2103 C 0.50935 0.50742 0.49467 0.0
C2104 C 0.52659 0.53317 0.49504 0.0
C2105 C 0.54089 0.54308 0.47942 0.0
C2106 C 0.48876 0.49369 0.54395 0.0
C2107 C 0.45931 0.48409 0.54253 0.0
C2108 C 0.50505 0.50076 0.52845 0.0
C2109 C 0.4924 0.49841 0.51108 0.0
C2110 C 0.46304 0.48865 0.50961 0.0
C2111 C 0.44667 0.48161 0.52514 0.0
H2112 H 0.31081 0.17171 0.36854 0.0
H2113 H 0.26531 0.09553 0.34706 0.0
H2114 H 0.34882 0.13915 0.38142 0.0
H2115 H 0.3028 0.06341 0.36008 0.0
H2116 H 0.3462 0.01734 0.40809 0.0
H2117 H 0.31393 0.05433 0.39476 0.0
H2118 H 0.38908 0.0976 0.37066 0.0
H2119 H 0.42182 0.06001 0.38385 0.0
C2120 C 0.30916 0.14815 0.36631 0.0
C2121 C 0.28493 0.13621 0.35687 0.0
C2122 C 0.33089 0.12958 0.37368 0.0
C2123 C 0.32845 0.0988 0.37195 0.0
C2124 C 0.30497 0.08705 0.36182 0.0
C2125 C 0.28359 0.10551 0.35428 0.0
C2126 C 0.35606 0.0349 0.40018 0.0
C2127 C 0.38662 0.03556 0.39694 0.0
C2128 C 0.33748 0.056 0.39246 0.0
C2129 C 0.34899 0.07853 0.38148 0.0
C2130 C 0.37969 0.08037 0.37905 0.0
C2131 C 0.39838 0.0589 0.38661 0.0
H2132 H 0.08499 0.05056 0.63222 0.0
H2133 H 0.14493 0.03804 0.58731 0.0
H2134 H 0.11713 0.08936 0.64433 0.0
H2135 H 0.17645 0.0776 0.59915 0.0
H2136 H 0.20672 0.17113 0.62134 0.0
H2137 H 0.16809 0.13898 0.60895 0.0
H2138 H 0.17798 0.08046 0.65469 0.0
H2139 H 0.21734 0.11193 0.66679 0.0
C2140 C 0.1046 0.05661 0.62469 0.0
C2141 C 0.11248 0.04128 0.60881 0.0
C2142 C 0.12299 0.07869 0.63167 0.0
C2143 C 0.14912 0.08636 0.62263 0.0
C2144 C 0.15626 0.07213 0.60628 0.0
C2145 C 0.13828 0.04953 0.59954 0.0
C2146 C 0.20027 0.15169 0.62892 0.0
C2147 C 0.21499 0.14401 0.64504 0.0
C2148 C 0.17832 0.13329 0.62177 0.0
C2149 C 0.17018 0.10738 0.63091 0.0
C2150 C 0.18383 0.10045 0.64748 0.0
C2151 C 0.2063 0.11841 0.65437 0.0
H2152 H 0.19079 0.83035 0.8703 0.0
H2153 H 0.23556 0.90566 0.84717 0.0
H2154 H 0.15306 0.86338 0.88301 0.0
H2155 H 0.19834 0.93826 0.86 0.0
H2156 H 0.15611 0.98637 0.90765 0.0
H2157 H 0.18817 0.94903 0.89447 0.0
H2158 H 0.11245 0.90412 0.8722 0.0
H2159 H 0.07993 0.94202 0.88526 0.0
C2160 C 0.19233 0.85381 0.86767 0.0
C2161 C 0.2163 0.86539 0.85782 0.0
C2162 C 0.17076 0.87265 0.87494 0.0
C2163 C 0.1731 0.90335 0.87269 0.0
C2164 C 0.19627 0.9147 0.86215 0.0
C2165 C 0.21749 0.89596 0.85471 0.0
C2166 C 0.14611 0.96839 0.90017 0.0
C2167 C 0.11543 0.96731 0.8974 0.0
C2168 C 0.16455 0.9471 0.89253 0.0
C2169 C 0.1528 0.92397 0.88212 0.0
C2170 C 0.12203 0.9218 0.88015 0.0
C2171 C 0.10348 0.94345 0.88763 0.0
H2172 H 0.31046 0.82924 0.136 0.0
H2173 H 0.2693 0.90555 0.16047 0.0
H2174 H 0.34865 0.86132 0.12284 0.0
H2175 H 0.30686 0.93716 0.14713 0.0
H2176 H 0.34736 0.98385 0.09816 0.0
H2177 H 0.31531 0.94669 0.11154 0.0
H2178 H 0.391 0.9023 0.13424 0.0
H2179 H 0.42351 0.94007 0.12103 0.0
C2180 C 0.30983 0.85268 0.13883 0.0
C2181 C 0.28672 0.86485 0.14919 0.0
C2182 C 0.33164 0.87098 0.13129 0.0
C2183 C 0.33036 0.90169 0.13379 0.0
C2184 C 0.3081 0.91358 0.14483 0.0
C2185 C 0.28668 0.89539 0.15253 0.0
C2186 C 0.35737 0.966 0.10576 0.0
C2187 C 0.38802 0.96508 0.10863 0.0
C2188 C 0.33894 0.9448 0.11349 0.0
C2189 C 0.35069 0.9219 0.12408 0.0
C2190 C 0.38145 0.91981 0.12613 0.0
C2191 C 0.39999 0.94139 0.11857 0.0
H2192 H 0.70202 0.88262 0.67321 0.0
H2193 H 0.7439 0.86902 0.62141 0.0
H2194 H 0.66306 0.91107 0.65861 0.0
H2195 H 0.70708 0.89972 0.60685 0.0
H2196 H 0.63433 0.95007 0.58095 0.0
H2197 H 0.66294 0.91116 0.59549 0.0
H2198 H 0.65204 0.9553 0.64726 0.0
H2199 H 0.62122 0.99209 0.63278 0.0
C2200 C 0.70271 0.88569 0.65864 0.0
C2201 C 0.72572 0.87344 0.6484 0.0
C2202 C 0.68062 0.90245 0.6502 0.0
C2203 C 0.68172 0.90849 0.6314 0.0
C2204 C 0.70462 0.8954 0.6212 0.0
C2205 C 0.72602 0.87778 0.62956 0.0
C2206 C 0.63762 0.95085 0.59551 0.0
C2207 C 0.62542 0.97386 0.60578 0.0
C2208 C 0.65442 0.92876 0.60391 0.0
C2209 C 0.66054 0.92983 0.62271 0.0
C2210 C 0.64763 0.95283 0.63292 0.0
C2211 C 0.62997 0.97423 0.6246 0.0
H2212 H 0.90017 0.97655 0.37776 0.0
H2213 H 0.84279 0.9696 0.42441 0.0
H2214 H 0.87109 0.93891 0.36217 0.0
H2215 H 0.81382 0.9321 0.40879 0.0
H2216 H 0.77695 0.85175 0.38017 0.0
H2217 H 0.81428 0.88117 0.39581 0.0
H2218 H 0.81997 0.9391 0.34944 0.0
H2219 H 0.78279 0.90979 0.33377 0.0
C2220 C 0.88175 0.96663 0.38485 0.0
C2221 C 0.8738 0.97628 0.40235 0.0
C2222 C 0.86495 0.9452 0.37584 0.0
C2223 C 0.84002 0.93264 0.38418 0.0
C2224 C 0.83301 0.94114 0.40202 0.0
C2225 C 0.84959 0.96277 0.41095 0.0
C2226 C 0.78653 0.87043 0.37316 0.0
C2227 C 0.77669 0.87842 0.35571 0.0
C2228 C 0.80779 0.88741 0.38219 0.0
C2229 C 0.82 0.91256 0.37392 0.0
C2230 C 0.81123 0.91971 0.35615 0.0
C2231 C 0.78976 0.90295 0.34719 0.0
H2232 H 0.77679 0.1517 0.12654 0.0
H2233 H 0.78532 0.09556 0.17366 0.0
H2234 H 0.81439 0.12253 0.11092 0.0
H2235 H 0.82274 0.06653 0.15803 0.0
H2236 H 0.90256 0.02945 0.12933 0.0
H2237 H 0.87336 0.06724 0.14466 0.0
H2238 H 0.81426 0.0709 0.09876 0.0
H2239 H 0.84336 0.03322 0.08337 0.0
C2240 C 0.78708 0.13356 0.13373 0.0
C2241 C 0.77789 0.12593 0.15136 0.0
C2242 C 0.80847 0.11671 0.1247 0.0
C2243 C 0.82143 0.09211 0.13318 0.0
C2244 C 0.81339 0.08548 0.15115 0.0
C2245 C 0.7918 0.10208 0.16009 0.0
C2246 C 0.88366 0.03865 0.12233 0.0
C2247 C 0.87527 0.02809 0.10512 0.0
C2248 C 0.86683 0.0602 0.13119 0.0
C2249 C 0.84141 0.07196 0.12298 0.0
C2250 C 0.83386 0.06249 0.1054 0.0
C2251 C 0.8505 0.04074 0.09662 0.0
H2252 H 0.65686 0.03579 0.92346 0.0
H2253 H 0.59904 0.02958 0.87696 0.0
H2254 H 0.68536 0.0739 0.90813 0.0
H2255 H 0.62763 0.06792 0.86166 0.0
H2256 H 0.71638 0.0963 0.83336 0.0
H2257 H 0.67843 0.06775 0.84878 0.0
H2258 H 0.68531 0.12489 0.89547 0.0
H2259 H 0.7235 0.15356 0.88007 0.0
C2260 C 0.64984 0.04294 0.91011 0.0
C2261 C 0.62571 0.0294 0.90143 0.0
C2262 C 0.66613 0.06495 0.90135 0.0
C2263 C 0.65889 0.07384 0.88362 0.0
C2264 C 0.63394 0.06134 0.87526 0.0
C2265 C 0.61743 0.03951 0.88409 0.0
C2266 C 0.70947 0.10318 0.84679 0.0
C2267 C 0.7232 0.12718 0.85549 0.0
C2268 C 0.68755 0.08686 0.8556 0.0
C2269 C 0.67894 0.09392 0.87341 0.0
C2270 C 0.69165 0.11873 0.88181 0.0
C2271 C 0.7134 0.13529 0.87292 0.0
H2272 H 0.81213 0.67357 0.87002 0.0
H2273 H 0.76758 0.59756 0.84757 0.0
H2274 H 0.84965 0.64089 0.88333 0.0
H2275 H 0.80455 0.56534 0.861 0.0
H2276 H 0.84729 0.51782 0.90847 0.0
H2277 H 0.81495 0.55512 0.89547 0.0
H2278 H 0.89027 0.60016 0.87281 0.0
H2279 H 0.92302 0.56236 0.88569 0.0
C2280 C 0.81057 0.65002 0.8677 0.0
C2281 C 0.78677 0.63816 0.85782 0.0
C2282 C 0.83201 0.63138 0.87532 0.0
C2283 C 0.82967 0.60062 0.87341 0.0
C2284 C 0.8066 0.58896 0.8629 0.0
C2285 C 0.78553 0.60749 0.85512 0.0
C2286 C 0.85714 0.53586 0.90097 0.0
C2287 C 0.88775 0.53697 0.89801 0.0
C2288 C 0.83854 0.55713 0.89343 0.0
C2289 C 0.8501 0.58025 0.88294 0.0
C2290 C 0.88084 0.5825 0.88084 0.0
C2291 C 0.89952 0.56089 0.88821 0.0
H2292 H 0.69268 0.67227 0.13603 0.0
H2293 H 0.73779 0.59652 0.15838 0.0
H2294 H 0.6551 0.63948 0.12297 0.0
H2295 H 0.7007 0.56412 0.1452 0.0
H2296 H 0.6573 0.51623 0.09798 0.0
H2297 H 0.68985 0.55314 0.11118 0.0
H2298 H 0.61463 0.59935 0.13312 0.0
H2299 H 0.58167 0.56193 0.12003 0.0
C2300 C 0.69434 0.64875 0.1384 0.0
C2301 C 0.71833 0.63701 0.14817 0.0
C2302 C 0.67285 0.63003 0.13092 0.0
C2303 C 0.67528 0.59927 0.13285 0.0
C2304 C 0.69854 0.58773 0.14327 0.0
C2305 C 0.71968 0.60635 0.15092 0.0
C2306 C 0.64753 0.53443 0.10538 0.0
C2307 C 0.61685 0.536 0.10803 0.0
C2308 C 0.66624 0.55547 0.11305 0.0
C2309 C 0.65478 0.57884 0.12339 0.0
C2310 C 0.62402 0.58149 0.12523 0.0
C2311 C 0.6052 0.56011 0.11773 0.0
H2312 H 0.73254 0.40665 0.34531 0.0
H2313 H 0.69048 0.33101 0.36991 0.0
H2314 H 0.69505 0.43875 0.35831 0.0
H2315 H 0.65239 0.36355 0.38275 0.0
H2316 H 0.57809 0.4424 0.38455 0.0
H2317 H 0.61046 0.40443 0.37139 0.0
H2318 H 0.68639 0.44902 0.3936 0.0
H2319 H 0.6545 0.48638 0.40692 0.0
C2320 C 0.71498 0.39674 0.3532 0.0
C2321 C 0.71467 0.36625 0.35669 0.0
C2322 C 0.69359 0.4152 0.36072 0.0
C2323 C 0.67111 0.40363 0.37171 0.0
C2324 C 0.66956 0.37296 0.37433 0.0
C2325 C 0.69132 0.3544 0.36697 0.0
C2326 C 0.60165 0.44374 0.38689 0.0
C2327 C 0.61372 0.46752 0.3967 0.0
C2328 C 0.6201 0.42204 0.37936 0.0
C2329 C 0.65088 0.42411 0.38129 0.0
C2330 C 0.66275 0.44715 0.39172 0.0
C2331 C 0.64441 0.46846 0.39943 0.0
H2332 H 0.92588 0.43888 0.6237 0.0
H2333 H 0.85074 0.48297 0.59981 0.0
H2334 H 0.89278 0.40119 0.6364 0.0
H2335 H 0.81808 0.44587 0.61267 0.0
H2336 H 0.76896 0.40314 0.65964 0.0
H2337 H 0.80681 0.43551 0.64731 0.0
H2338 H 0.85225 0.36038 0.62469 0.0
H2339 H 0.81387 0.32759 0.63686 0.0
C2340 C 0.90245 0.44031 0.62095 0.0
C2341 C 0.89093 0.46402 0.61083 0.0
C2342 C 0.88357 0.41878 0.62821 0.0
C2343 C 0.8529 0.42094 0.62571 0.0
C2344 C 0.84162 0.44394 0.615 0.0
C2345 C 0.86039 0.46509 0.60756 0.0
C2346 C 0.78719 0.39333 0.65229 0.0
C2347 C 0.78826 0.36277 0.64913 0.0
C2348 C 0.80878 0.41194 0.64515 0.0
C2349 C 0.83219 0.40044 0.63486 0.0
C2350 C 0.83437 0.36975 0.63256 0.0
C2351 C 0.81243 0.35104 0.63953 0.0
H2352 H 0.10229 0.47512 0.12829 0.0
H2353 H 0.15984 0.46848 0.08169 0.0
H2354 H 0.13124 0.43723 0.14376 0.0
H2355 H 0.18869 0.43078 0.0972 0.0
H2356 H 0.22568 0.35037 0.12544 0.0
H2357 H 0.18819 0.3798 0.10994 0.0
H2358 H 0.18224 0.43718 0.15656 0.0
H2359 H 0.21955 0.40786 0.1721 0.0
C2360 C 0.12073 0.46523 0.12118 0.0
C2361 C 0.12878 0.47503 0.10374 0.0
C2362 C 0.13745 0.44365 0.13013 0.0
C2363 C 0.16238 0.43112 0.12176 0.0
C2364 C 0.16948 0.43979 0.10398 0.0
C2365 C 0.15299 0.46155 0.09511 0.0
C2366 C 0.216 0.36892 0.13254 0.0
C2367 C 0.22582 0.37679 0.15001 0.0
C2368 C 0.19464 0.3859 0.12359 0.0
C2369 C 0.18235 0.41093 0.13197 0.0
C2370 C 0.19106 0.4179 0.14978 0.0
C2371 C 0.21261 0.40114 0.15865 0.0
H2372 H 0.3822 0.49479 0.87226 0.0
H2373 H 0.36883 0.45174 0.92372 0.0
H2374 H 0.35099 0.45864 0.85748 0.0
H2375 H 0.33984 0.41345 0.90886 0.0
H2376 H 0.25906 0.37181 0.88269 0.0
H2377 H 0.2956 0.40262 0.89741 0.0
H2378 H 0.33974 0.4147 0.84576 0.0
H2379 H 0.30106 0.3861 0.831 0.0
C2380 C 0.37331 0.47684 0.88028 0.0
C2381 C 0.37792 0.47598 0.89909 0.0
C2382 C 0.35542 0.45581 0.87179 0.0
C2383 C 0.34233 0.43272 0.88181 0.0
C2384 C 0.34848 0.43116 0.90059 0.0
C2385 C 0.36552 0.45287 0.90917 0.0
C2386 C 0.27686 0.38083 0.87459 0.0
C2387 C 0.27731 0.37659 0.85574 0.0
C2388 C 0.29811 0.39848 0.88304 0.0
C2389 C 0.32104 0.4117 0.87294 0.0
C2390 C 0.32218 0.40594 0.8541 0.0
C2391 C 0.30023 0.38914 0.84557 0.0
H2392 H 0.34983 0.53877 0.58318 0.0
H2393 H 0.40682 0.53161 0.63001 0.0
H2394 H 0.32137 0.57694 0.59846 0.0
H2395 H 0.37827 0.57007 0.64527 0.0
H2396 H 0.28923 0.59886 0.67313 0.0
H2397 H 0.32743 0.57035 0.6579 0.0
H2398 H 0.32126 0.62765 0.61125 0.0
H2399 H 0.28279 0.65624 0.62645 0.0
C2400 C 0.35669 0.54573 0.5966 0.0
C2401 C 0.38056 0.5319 0.60538 0.0
C2402 C 0.34042 0.56779 0.60534 0.0
C2403 C 0.34741 0.57645 0.62315 0.0
C2404 C 0.37214 0.56368 0.63162 0.0
C2405 C 0.38864 0.54178 0.6228 0.0
C2406 C 0.29635 0.60579 0.65976 0.0
C2407 C 0.2827 0.62978 0.651 0.0
C2408 C 0.31842 0.58949 0.65106 0.0
C2409 C 0.32729 0.59658 0.6333 0.0
C2410 C 0.31471 0.62143 0.62486 0.0
C2411 C 0.29279 0.63795 0.63364 0.0
H2412 H 0.09911 0.52886 0.37784 0.0
H2413 H 0.15769 0.53346 0.42406 0.0
H2414 H 0.12813 0.56684 0.36257 0.0
H2415 H 0.18658 0.57136 0.40875 0.0
H2416 H 0.22407 0.65185 0.38047 0.0
H2417 H 0.18632 0.62294 0.39614 0.0
H2418 H 0.17928 0.56549 0.3496 0.0
H2419 H 0.21688 0.59421 0.33394 0.0
C2420 C 0.11777 0.53836 0.38493 0.0
C2421 C 0.12613 0.5279 0.40217 0.0
C2422 C 0.13451 0.56 0.3761 0.0
C2423 C 0.15977 0.57196 0.38439 0.0
C2424 C 0.16712 0.56276 0.40204 0.0
C2425 C 0.1506 0.54091 0.41079 0.0
C2426 C 0.21406 0.63341 0.37343 0.0
C2427 C 0.22365 0.6253 0.35595 0.0
C2428 C 0.19258 0.61674 0.38247 0.0
C2429 C 0.1799 0.59186 0.37415 0.0
C2430 C 0.1884 0.58468 0.35634 0.0
C2431 C 0.2101 0.60108 0.34739 0.0
loop_
_geom_bond_atom_site_label_1
_geom_bond_atom_site_label_2
_geom_bond_distance
_geom_bond_site_symmetry_2
_ccdc_geom_bond_type
Mn0 O5 2.095 . S
Mn0 O15 2.162 . S
Mn0 O16 2.297 . S
Mn0 O24 2.385 . S
Mn0 O25 2.209 . S
Mn0 O26 2.094 . S
Mn1 O6 2.121 . S
Mn1 N8 2.257 . S
Mn1 N17 2.282 . S
Mn1 O25 2.215 . S
Mn1 O27 2.117 . S
C2 O24 1.234 . S
C2 O25 1.283 . S
C3 O15 1.281 . S
C3 O16 1.236 . S
C4 O26 1.240 . S
C4 O27 1.264 . S
O5 Mn0 2.095 . S
O5 C14 1.250 . S
O6 Mn1 2.121 . S
O6 C14 1.258 . S
C7 N8 1.326 . S
C7 C11 1.460 . S
C7 H13 0.929 . S
N8 Mn1 2.257 . S
N8 C7 1.326 . S
N8 C12 1.362 . S
C9 C10 1.258 . S
C9 C12 1.431 . S
C9 C29 1.449 . S
C10 C9 1.258 . S
C10 C11 1.477 . S
C10 H30 0.931 . S
C11 C7 1.460 . S
C11 C10 1.477 . S
C11 H31 0.930 . S
C12 N8 1.362 . S
C12 C9 1.431 . S
C12 C22 1.476 . S
H13 C7 0.929 . S
C14 O5 1.250 . S
C14 O6 1.258 . S
O15 Mn0 2.162 . S
O15 C3 1.281 . S
O16 Mn0 2.297 . S
O16 C3 1.236 . S
N17 Mn1 2.282 . S
N17 C18 1.328 . S
N17 C22 1.318 . S
C18 N17 1.328 . S
C18 C19 1.457 . S
C18 H23 0.929 . S
C19 C18 1.457 . S
C19 C20 1.291 . S
C19 H32 0.931 . S
C20 C19 1.291 . S
C20 C21 1.373 . S
C20 H33 0.929 . S
C21 C20 1.373 . S
C21 C22 1.396 . S
C21 C28 1.403 . S
C22 C12 1.476 . S
C22 N17 1.318 . S
C22 C21 1.396 . S
H23 C18 0.929 . S
O24 Mn0 2.385 . S
O24 C2 1.234 . S
O25 Mn0 2.209 . S
O25 Mn1 2.215 . S
O25 C2 1.283 . S
O26 Mn0 2.094 . S
O26 C4 1.240 . S
O27 Mn1 2.117 . S
O27 C4 1.264 . S
C28 C21 1.403 . S
C28 C29 1.399 . S
C28 H34 0.929 . S
C29 C9 1.449 . S
C29 C28 1.399 . S
C29 H35 0.930 . S
H30 C10 0.931 . S
H31 C11 0.930 . S
H32 C19 0.931 . S
H33 C20 0.929 . S
H34 C28 0.929 . S
H35 C29 0.930 . S
Mn36 O41 2.095 . S
Mn36 O51 2.162 1_565 S
Mn36 O52 2.297 . S
Mn36 O60 2.385 . S
Mn36 O61 2.209 . S
Mn36 O62 2.094 . S
Mn37 O42 2.121 . S
Mn37 N44 2.257 . S
Mn37 N53 2.282 . S
Mn37 O61 2.215 . S
Mn37 O63 2.095 1_455 S
C38 O60 1.234 . S
C38 O61 1.283 . S
C39 O51 1.281 . S
C39 O52 1.236 1_545 S
C40 O62 1.240 1_655 S
C40 O63 1.274 . S
O41 Mn36 2.095 . S
O41 C50 1.250 . S
O42 Mn37 2.121 . S
O42 C50 1.258 . S
C43 N44 1.326 . S
C43 C47 1.460 . S
C43 H49 0.929 . S
N44 Mn37 2.257 . S
N44 C43 1.326 . S
N44 C48 1.362 . S
C45 C46 1.258 . S
C45 C48 1.431 . S
C45 C65 1.449 . S
C46 C45 1.258 . S
C46 C47 1.477 . S
C46 H66 0.931 . S
C47 C43 1.460 . S
C47 C46 1.477 . S
C47 H67 0.930 . S
C48 N44 1.362 . S
C48 C45 1.431 . S
C48 C58 1.476 . S
H49 C43 0.929 . S
C50 O41 1.250 . S
C50 O42 1.258 . S
O51 Mn36 2.162 1_545 S
O51 C39 1.281 . S
O52 Mn36 2.297 . S
O52 C39 1.236 1_565 S
N53 Mn37 2.282 . S
N53 C54 1.328 . S
N53 C58 1.318 . S
C54 N53 1.328 . S
C54 C55 1.457 . S
C54 H59 0.929 . S
C55 C54 1.457 . S
C55 C56 1.291 . S
C55 H68 0.931 . S
C56 C55 1.291 . S
C56 C57 1.373 . S
C56 H69 0.929 . S
C57 C56 1.373 . S
C57 C58 1.396 . S
C57 C64 1.403 . S
C58 C48 1.476 . S
C58 N53 1.318 . S
C58 C57 1.396 . S
H59 C54 0.929 . S
O60 Mn36 2.385 . S
O60 C38 1.234 . S
O61 Mn36 2.209 . S
O61 Mn37 2.215 . S
O61 C38 1.283 . S
O62 Mn36 2.094 . S
O62 C40 1.240 1_455 S
O63 Mn37 2.095 1_655 S
O63 C40 1.274 . S
C64 C57 1.403 . S
C64 C65 1.399 . S
C64 H70 0.929 . S
C65 C45 1.449 . S
C65 C64 1.399 . S
C65 H71 0.930 . S
H66 C46 0.931 . S
H67 C47 0.930 . S
H68 C55 0.931 . S
H69 C56 0.929 . S
H70 C64 0.929 . S
H71 C65 0.930 . S
Mn72 O77 2.095 . S
Mn72 O87 2.162 . S
Mn72 O88 2.297 . S
Mn72 O96 2.385 . S
Mn72 O97 2.209 . S
Mn72 O98 2.094 . S
Mn73 O78 2.121 . S
Mn73 N80 2.257 . S
Mn73 N89 2.282 . S
Mn73 O97 2.215 . S
Mn73 O99 2.117 . S
C74 O96 1.234 . S
C74 O97 1.283 . S
C75 O87 1.281 . S
C75 O88 1.236 . S
C76 O98 1.240 . S
C76 O99 1.264 . S
O77 Mn72 2.095 . S
O77 C86 1.250 . S
O78 Mn73 2.121 . S
O78 C86 1.258 . S
C79 N80 1.326 . S
C79 C83 1.460 . S
C79 H85 0.929 . S
N80 Mn73 2.257 . S
N80 C79 1.326 . S
N80 C84 1.362 . S
C81 C82 1.258 . S
C81 C84 1.431 . S
C81 C101 1.449 . S
C82 C81 1.258 . S
C82 C83 1.477 . S
C82 H102 0.931 . S
C83 C79 1.460 . S
C83 C82 1.477 . S
C83 H103 0.930 . S
C84 N80 1.362 . S
C84 C81 1.431 . S
C84 C94 1.476 . S
H85 C79 0.929 . S
C86 O77 1.250 . S
C86 O78 1.258 . S
O87 Mn72 2.162 . S
O87 C75 1.281 . S
O88 Mn72 2.297 . S
O88 C75 1.236 . S
N89 Mn73 2.282 . S
N89 C90 1.328 . S
N89 C94 1.318 . S
C90 N89 1.328 . S
C90 C91 1.457 . S
C90 H95 0.929 . S
C91 C90 1.457 . S
C91 C92 1.291 . S
C91 H104 0.931 . S
C92 C91 1.291 . S
C92 C93 1.373 . S
C92 H105 0.929 . S
C93 C92 1.373 . S
C93 C94 1.396 . S
C93 C100 1.403 . S
C94 C84 1.476 . S
C94 N89 1.318 . S
C94 C93 1.396 . S
H95 C90 0.929 . S
O96 Mn72 2.385 . S
O96 C74 1.234 . S
O97 Mn72 2.209 . S
O97 Mn73 2.215 . S
O97 C74 1.283 . S
O98 Mn72 2.094 . S
O98 C76 1.240 . S
O99 Mn73 2.117 . S
O99 C76 1.264 . S
C100 C93 1.403 . S
C100 C101 1.399 . S
C100 H106 0.929 . S
C101 C81 1.449 . S
C101 C100 1.399 . S
C101 H107 0.930 . S
H102 C82 0.931 . S
H103 C83 0.930 . S
H104 C91 0.931 . S
H105 C92 0.929 . S
H106 C100 0.929 . S
H107 C101 0.930 . S
Mn108 O113 2.095 . S
Mn108 O123 2.162 1_545 S
Mn108 O124 2.297 . S
Mn108 O132 2.385 . S
Mn108 O133 2.209 . S
Mn108 O134 2.094 . S
Mn109 O114 2.121 . S
Mn109 N116 2.257 . S
Mn109 N125 2.282 . S
Mn109 O133 2.215 . S
Mn109 O135 2.117 . S
C110 O132 1.234 . S
C110 O133 1.283 . S
C111 O123 1.281 . S
C111 O124 1.236 1_565 S
C112 O134 1.240 . S
C112 O135 1.264 . S
O113 Mn108 2.095 . S
O113 C122 1.250 . S
O114 Mn109 2.121 . S
O114 C122 1.258 . S
C115 N116 1.326 . S
C115 C119 1.460 . S
C115 H121 0.929 . S
N116 Mn109 2.257 . S
N116 C115 1.326 . S
N116 C120 1.362 . S
C117 C118 1.258 . S
C117 C120 1.431 . S
C117 C137 1.449 . S
C118 C117 1.258 . S
C118 C119 1.477 . S
C118 H138 0.931 . S
C119 C115 1.460 . S
C119 C118 1.477 . S
C119 H139 0.930 . S
C120 N116 1.362 . S
C120 C117 1.431 . S
C120 C130 1.476 . S
H121 C115 0.929 . S
C122 O113 1.250 . S
C122 O114 1.258 . S
O123 Mn108 2.162 1_565 S
O123 C111 1.281 . S
O124 Mn108 2.297 . S
O124 C111 1.236 1_545 S
N125 Mn109 2.282 . S
N125 C126 1.328 . S
N125 C130 1.318 . S
C126 N125 1.328 . S
C126 C127 1.457 . S
C126 H131 0.929 . S
C127 C126 1.457 . S
C127 C128 1.291 . S
C127 H140 0.931 . S
C128 C127 1.291 . S
C128 C129 1.373 . S
C128 H141 0.929 . S
C129 C128 1.373 . S
C129 C130 1.396 . S
C129 C136 1.403 . S
C130 C120 1.476 . S
C130 N125 1.318 . S
C130 C129 1.396 . S
H131 C126 0.929 . S
O132 Mn108 2.385 . S
O132 C110 1.234 . S
O133 Mn108 2.209 . S
O133 Mn109 2.215 . S
O133 C110 1.283 . S
O134 Mn108 2.094 . S
O134 C112 1.240 . S
O135 Mn109 2.117 . S
O135 C112 1.264 . S
C136 C129 1.403 . S
C136 C137 1.399 . S
C136 H142 0.929 . S
C137 C117 1.449 . S
C137 C136 1.399 . S
C137 H143 0.930 . S
H138 C118 0.931 . S
H139 C119 0.930 . S
H140 C127 0.931 . S
H141 C128 0.929 . S
H142 C136 0.929 . S
H143 C137 0.930 . S
Mn144 O149 2.095 . S
Mn144 O159 2.162 . S
Mn144 O160 2.297 . S
Mn144 O168 2.385 . S
Mn144 O169 2.209 . S
Mn144 O170 2.094 . S
Mn145 O150 2.121 . S
Mn145 N152 2.257 . S
Mn145 N161 2.282 . S
Mn145 O169 2.215 . S
Mn145 O171 2.117 . S
C146 O168 1.234 . S
C146 O169 1.283 . S
C147 O159 1.281 . S
C147 O160 1.236 . S
C148 O170 1.240 . S
C148 O171 1.264 . S
O149 Mn144 2.095 . S
O149 C158 1.250 . S
O150 Mn145 2.121 . S
O150 C158 1.258 . S
C151 N152 1.326 . S
C151 C155 1.460 . S
C151 H157 0.929 . S
N152 Mn145 2.257 . S
N152 C151 1.326 . S
N152 C156 1.362 . S
C153 C154 1.258 . S
C153 C156 1.431 . S
C153 C173 1.449 . S
C154 C153 1.258 . S
C154 C155 1.477 . S
C154 H174 0.931 . S
C155 C151 1.460 . S
C155 C154 1.477 . S
C155 H175 0.930 . S
C156 N152 1.362 . S
C156 C153 1.431 . S
C156 C166 1.476 . S
H157 C151 0.929 . S
C158 O149 1.250 . S
C158 O150 1.258 . S
O159 Mn144 2.162 . S
O159 C147 1.281 . S
O160 Mn144 2.297 . S
O160 C147 1.236 . S
N161 Mn145 2.282 . S
N161 C162 1.328 . S
N161 C166 1.318 . S
C162 N161 1.328 . S
C162 C163 1.457 . S
C162 H167 0.929 . S
C163 C162 1.457 . S
C163 C164 1.291 . S
C163 H176 0.931 . S
C164 C163 1.291 . S
C164 C165 1.373 . S
C164 H177 0.929 . S
C165 C164 1.373 . S
C165 C166 1.396 . S
C165 C172 1.403 . S
C166 C156 1.476 . S
C166 N161 1.318 . S
C166 C165 1.396 . S
H167 C162 0.929 . S
O168 Mn144 2.385 . S
O168 C146 1.234 . S
O169 Mn144 2.209 . S
O169 Mn145 2.215 . S
O169 C146 1.283 . S
O170 Mn144 2.094 . S
O170 C148 1.240 . S
O171 Mn145 2.117 . S
O171 C148 1.264 . S
C172 C165 1.403 . S
C172 C173 1.399 . S
C172 H178 0.929 . S
C173 C153 1.449 . S
C173 C172 1.399 . S
C173 H179 0.930 . S
H174 C154 0.931 . S
H175 C155 0.930 . S
H176 C163 0.931 . S
H177 C164 0.929 . S
H178 C172 0.929 . S
H179 C173 0.930 . S
Mn180 O185 2.095 . S
Mn180 O195 2.162 1_565 S
Mn180 O196 2.297 . S
Mn180 O204 2.385 . S
Mn180 O205 2.209 . S
Mn180 O206 2.094 . S
Mn181 O186 2.121 . S
Mn181 N188 2.257 . S
Mn181 N197 2.282 . S
Mn181 O205 2.215 . S
Mn181 O207 2.117 . S
C182 O204 1.234 . S
C182 O205 1.283 . S
C183 O195 1.281 . S
C183 O196 1.236 1_545 S
C184 O206 1.240 . S
C184 O207 1.264 . S
O185 Mn180 2.095 . S
O185 C194 1.250 . S
O186 Mn181 2.121 . S
O186 C194 1.258 . S
C187 N188 1.326 . S
C187 C191 1.460 . S
C187 H193 0.929 . S
N188 Mn181 2.257 . S
N188 C187 1.326 . S
N188 C192 1.362 . S
C189 C190 1.258 . S
C189 C192 1.431 . S
C189 C209 1.449 . S
C190 C189 1.258 . S
C190 C191 1.477 . S
C190 H210 0.931 . S
C191 C187 1.460 . S
C191 C190 1.477 . S
C191 H211 0.930 . S
C192 N188 1.362 . S
C192 C189 1.431 . S
C192 C202 1.476 . S
H193 C187 0.929 . S
C194 O185 1.250 . S
C194 O186 1.258 . S
O195 Mn180 2.162 1_545 S
O195 C183 1.281 . S
O196 Mn180 2.297 . S
O196 C183 1.236 1_565 S
N197 Mn181 2.282 . S
N197 C198 1.328 . S
N197 C202 1.318 . S
C198 N197 1.328 . S
C198 C199 1.457 . S
C198 H203 0.929 . S
C199 C198 1.457 . S
C199 C200 1.291 . S
C199 H212 0.931 . S
C200 C199 1.291 . S
C200 C201 1.373 . S
C200 H213 0.929 . S
C201 C200 1.373 . S
C201 C202 1.396 . S
C201 C208 1.403 . S
C202 C192 1.476 . S
C202 N197 1.318 . S
C202 C201 1.396 . S
H203 C198 0.929 . S
O204 Mn180 2.385 . S
O204 C182 1.234 . S
O205 Mn180 2.209 . S
O205 Mn181 2.215 . S
O205 C182 1.283 . S
O206 Mn180 2.094 . S
O206 C184 1.240 . S
O207 Mn181 2.117 . S
O207 C184 1.264 . S
C208 C201 1.403 . S
C208 C209 1.399 . S
C208 H214 0.929 . S
C209 C189 1.449 . S
C209 C208 1.399 . S
C209 H215 0.930 . S
H210 C190 0.931 . S
H211 C191 0.930 . S
H212 C199 0.931 . S
H213 C200 0.929 . S
H214 C208 0.929 . S
H215 C209 0.930 . S
Mn216 O221 2.095 . S
Mn216 O231 2.162 . S
Mn216 O232 2.297 . S
Mn216 O240 2.385 . S
Mn216 O241 2.209 . S
Mn216 O242 2.094 . S
Mn217 O222 2.121 . S
Mn217 N224 2.257 . S
Mn217 N233 2.282 . S
Mn217 O241 2.215 . S
Mn217 O243 2.117 . S
C218 O240 1.234 . S
C218 O241 1.283 . S
C219 O231 1.281 . S
C219 O232 1.236 . S
C220 O242 1.240 . S
C220 O243 1.264 . S
O221 Mn216 2.095 . S
O221 C230 1.250 . S
O222 Mn217 2.121 . S
O222 C230 1.258 . S
C223 N224 1.326 . S
C223 C227 1.460 . S
C223 H229 0.929 . S
N224 Mn217 2.257 . S
N224 C223 1.326 . S
N224 C228 1.362 . S
C225 C226 1.258 . S
C225 C228 1.431 . S
C225 C245 1.449 . S
C226 C225 1.258 . S
C226 C227 1.477 . S
C226 H246 0.931 . S
C227 C223 1.460 . S
C227 C226 1.477 . S
C227 H247 0.930 . S
C228 N224 1.362 . S
C228 C225 1.431 . S
C228 C238 1.476 . S
H229 C223 0.929 . S
C230 O221 1.250 . S
C230 O222 1.258 . S
O231 Mn216 2.162 . S
O231 C219 1.281 . S
O232 Mn216 2.297 . S
O232 C219 1.236 . S
N233 Mn217 2.282 . S
N233 C234 1.328 . S
N233 C238 1.318 . S
C234 N233 1.328 . S
C234 C235 1.457 . S
C234 H239 0.929 . S
C235 C234 1.457 . S
C235 C236 1.291 . S
C235 H248 0.931 . S
C236 C235 1.291 . S
C236 C237 1.373 . S
C236 H249 0.929 . S
C237 C236 1.373 . S
C237 C238 1.396 . S
C237 C244 1.403 . S
C238 C228 1.476 . S
C238 N233 1.318 . S
C238 C237 1.396 . S
H239 C234 0.929 . S
O240 Mn216 2.385 . S
O240 C218 1.234 . S
O241 Mn216 2.209 . S
O241 Mn217 2.215 . S
O241 C218 1.283 . S
O242 Mn216 2.094 . S
O242 C220 1.240 . S
O243 Mn217 2.117 . S
O243 C220 1.264 . S
C244 C237 1.403 . S
C244 C245 1.399 . S
C244 H250 0.929 . S
C245 C225 1.449 . S
C245 C244 1.399 . S
C245 H251 0.930 . S
H246 C226 0.931 . S
H247 C227 0.930 . S
H248 C235 0.931 . S
H249 C236 0.929 . S
H250 C244 0.929 . S
H251 C245 0.930 . S
Mn252 O257 2.095 . S
Mn252 O267 2.162 1_545 S
Mn252 O268 2.297 . S
Mn252 O276 2.385 . S
Mn252 O277 2.209 . S
Mn252 O278 2.094 . S
Mn253 O258 2.121 . S
Mn253 N260 2.257 . S
Mn253 N269 2.282 . S
Mn253 O277 2.215 . S
Mn253 O279 2.095 1_455 S
C254 O276 1.234 . S
C254 O277 1.283 . S
C255 O267 1.281 . S
C255 O268 1.236 1_565 S
C256 O278 1.240 1_655 S
C256 O279 1.274 . S
O257 Mn252 2.095 . S
O257 C266 1.250 . S
O258 Mn253 2.121 . S
O258 C266 1.258 . S
C259 N260 1.326 . S
C259 C263 1.460 . S
C259 H265 0.929 . S
N260 Mn253 2.257 . S
N260 C259 1.326 . S
N260 C264 1.362 . S
C261 C262 1.258 . S
C261 C264 1.431 . S
C261 C281 1.449 . S
C262 C261 1.258 . S
C262 C263 1.477 . S
C262 H282 0.931 . S
C263 C259 1.460 . S
C263 C262 1.477 . S
C263 H283 0.930 . S
C264 N260 1.362 . S
C264 C261 1.431 . S
C264 C274 1.476 . S
H265 C259 0.929 . S
C266 O257 1.250 . S
C266 O258 1.258 . S
O267 Mn252 2.162 1_565 S
O267 C255 1.281 . S
O268 Mn252 2.297 . S
O268 C255 1.236 1_545 S
N269 Mn253 2.282 . S
N269 C270 1.328 . S
N269 C274 1.318 . S
C270 N269 1.328 . S
C270 C271 1.457 . S
C270 H275 0.929 . S
C271 C270 1.457 . S
C271 C272 1.291 . S
C271 H284 0.931 . S
C272 C271 1.291 . S
C272 C273 1.373 . S
C272 H285 0.929 . S
C273 C272 1.373 . S
C273 C274 1.396 . S
C273 C280 1.403 . S
C274 C264 1.476 . S
C274 N269 1.318 . S
C274 C273 1.396 . S
H275 C270 0.929 . S
O276 Mn252 2.385 . S
O276 C254 1.234 . S
O277 Mn252 2.209 . S
O277 Mn253 2.215 . S
O277 C254 1.283 . S
O278 Mn252 2.094 . S
O278 C256 1.240 1_455 S
O279 Mn253 2.095 1_655 S
O279 C256 1.274 . S
C280 C273 1.403 . S
C280 C281 1.399 . S
C280 H286 0.929 . S
C281 C261 1.449 . S
C281 C280 1.399 . S
C281 H287 0.930 . S
H282 C262 0.931 . S
H283 C263 0.930 . S
H284 C271 0.931 . S
H285 C272 0.929 . S
H286 C280 0.929 . S
H287 C281 0.930 . S
Mn288 O293 2.095 . S
Mn288 O303 2.162 . S
Mn288 O304 2.297 . S
Mn288 O312 2.385 . S
Mn288 O313 2.209 . S
Mn288 O314 2.094 . S
Mn289 O294 2.121 . S
Mn289 N296 2.257 . S
Mn289 N305 2.282 . S
Mn289 O313 2.215 . S
Mn289 O315 2.117 . S
C290 O312 1.234 . S
C290 O313 1.283 . S
C291 O303 1.281 . S
C291 O304 1.236 . S
C292 O314 1.240 . S
C292 O315 1.264 . S
O293 Mn288 2.095 . S
O293 C302 1.250 . S
O294 Mn289 2.121 . S
O294 C302 1.258 . S
C295 N296 1.326 . S
C295 C299 1.460 . S
C295 H301 0.929 . S
N296 Mn289 2.257 . S
N296 C295 1.326 . S
N296 C300 1.362 . S
C297 C298 1.258 . S
C297 C300 1.431 . S
C297 C317 1.449 . S
C298 C297 1.258 . S
C298 C299 1.477 . S
C298 H318 0.931 . S
C299 C295 1.460 . S
C299 C298 1.477 . S
C299 H319 0.930 . S
C300 N296 1.362 . S
C300 C297 1.431 . S
C300 C310 1.476 . S
H301 C295 0.929 . S
C302 O293 1.250 . S
C302 O294 1.258 . S
O303 Mn288 2.162 . S
O303 C291 1.281 . S
O304 Mn288 2.297 . S
O304 C291 1.236 . S
N305 Mn289 2.282 . S
N305 C306 1.328 . S
N305 C310 1.318 . S
C306 N305 1.328 . S
C306 C307 1.457 . S
C306 H311 0.929 . S
C307 C306 1.457 . S
C307 C308 1.291 . S
C307 H320 0.931 . S
C308 C307 1.291 . S
C308 C309 1.373 . S
C308 H321 0.929 . S
C309 C308 1.373 . S
C309 C310 1.396 . S
C309 C316 1.403 . S
C310 C300 1.476 . S
C310 N305 1.318 . S
C310 C309 1.396 . S
H311 C306 0.929 . S
O312 Mn288 2.385 . S
O312 C290 1.234 . S
O313 Mn288 2.209 . S
O313 Mn289 2.215 . S
O313 C290 1.283 . S
O314 Mn288 2.094 . S
O314 C292 1.240 . S
O315 Mn289 2.117 . S
O315 C292 1.264 . S
C316 C309 1.403 . S
C316 C317 1.399 . S
C316 H322 0.929 . S
C317 C297 1.449 . S
C317 C316 1.399 . S
C317 H323 0.930 . S
H318 C298 0.931 . S
H319 C299 0.930 . S
H320 C307 0.931 . S
H321 C308 0.929 . S
H322 C316 0.929 . S
H323 C317 0.930 . S
Mn324 O329 2.095 . S
Mn324 O339 2.137 1_655 S
Mn324 O340 2.297 . S
Mn324 O348 2.385 . S
Mn324 O349 2.209 . S
Mn324 O350 2.094 1_545 S
Mn325 O330 2.121 . S
Mn325 N332 2.257 . S
Mn325 N341 2.282 . S
Mn325 O349 2.215 . S
Mn325 O351 2.117 1_545 S
C326 O348 1.234 . S
C326 O349 1.283 . S
C327 O339 1.291 . S
C327 O340 1.236 1_455 S
C328 O350 1.240 . S
C328 O351 1.264 . S
O329 Mn324 2.095 . S
O329 C338 1.250 . S
O330 Mn325 2.121 . S
O330 C338 1.258 . S
C331 N332 1.326 . S
C331 C335 1.460 . S
C331 H337 0.929 . S
N332 Mn325 2.257 . S
N332 C331 1.326 . S
N332 C336 1.362 . S
C333 C334 1.258 . S
C333 C336 1.431 . S
C333 C353 1.449 . S
C334 C333 1.258 . S
C334 C335 1.477 . S
C334 H354 0.931 . S
C335 C331 1.460 . S
C335 C334 1.477 . S
C335 H355 0.930 . S
C336 N332 1.362 . S
C336 C333 1.431 . S
C336 C346 1.476 . S
H337 C331 0.929 . S
C338 O329 1.250 . S
C338 O330 1.258 . S
O339 Mn324 2.137 1_455 S
O339 C327 1.291 . S
O340 Mn324 2.297 . S
O340 C327 1.236 1_655 S
N341 Mn325 2.282 . S
N341 C342 1.328 . S
N341 C346 1.318 . S
C342 N341 1.328 . S
C342 C343 1.457 . S
C342 H347 0.929 . S
C343 C342 1.457 . S
C343 C344 1.291 . S
C343 H356 0.931 . S
C344 C343 1.291 . S
C344 C345 1.373 . S
C344 H357 0.929 . S
C345 C344 1.373 . S
C345 C346 1.396 . S
C345 C352 1.403 . S
C346 C336 1.476 . S
C346 N341 1.318 . S
C346 C345 1.396 . S
H347 C342 0.929 . S
O348 Mn324 2.385 . S
O348 C326 1.234 . S
O349 Mn324 2.209 . S
O349 Mn325 2.215 . S
O349 C326 1.283 . S
O350 Mn324 2.094 1_565 S
O350 C328 1.240 . S
O351 Mn325 2.117 1_565 S
O351 C328 1.264 . S
C352 C345 1.403 . S
C352 C353 1.399 . S
C352 H358 0.929 . S
C353 C333 1.449 . S
C353 C352 1.399 . S
C353 H359 0.930 . S
H354 C334 0.931 . S
H355 C335 0.930 . S
H356 C343 0.931 . S
H357 C344 0.929 . S
H358 C352 0.929 . S
H359 C353 0.930 . S
Mn360 O365 2.095 . S
Mn360 O375 2.162 . S
Mn360 O376 2.297 . S
Mn360 O384 2.385 . S
Mn360 O385 2.209 . S
Mn360 O386 2.094 . S
Mn361 O366 2.121 . S
Mn361 N368 2.257 . S
Mn361 N377 2.282 . S
Mn361 O385 2.215 . S
Mn361 O387 2.117 . S
C362 O384 1.234 . S
C362 O385 1.283 . S
C363 O375 1.281 . S
C363 O376 1.236 . S
C364 O386 1.240 . S
C364 O387 1.264 . S
O365 Mn360 2.095 . S
O365 C374 1.250 . S
O366 Mn361 2.121 . S
O366 C374 1.258 . S
C367 N368 1.326 . S
C367 C371 1.460 . S
C367 H373 0.929 . S
N368 Mn361 2.257 . S
N368 C367 1.326 . S
N368 C372 1.362 . S
C369 C370 1.258 . S
C369 C372 1.431 . S
C369 C389 1.449 . S
C370 C369 1.258 . S
C370 C371 1.477 . S
C370 H390 0.931 . S
C371 C367 1.460 . S
C371 C370 1.477 . S
C371 H391 0.930 . S
C372 N368 1.362 . S
C372 C369 1.431 . S
C372 C382 1.476 . S
H373 C367 0.929 . S
C374 O365 1.250 . S
C374 O366 1.258 . S
O375 Mn360 2.162 . S
O375 C363 1.281 . S
O376 Mn360 2.297 . S
O376 C363 1.236 . S
N377 Mn361 2.282 . S
N377 C378 1.328 . S
N377 C382 1.318 . S
C378 N377 1.328 . S
C378 C379 1.457 . S
C378 H383 0.929 . S
C379 C378 1.457 . S
C379 C380 1.291 . S
C379 H392 0.931 . S
C380 C379 1.291 . S
C380 C381 1.373 . S
C380 H393 0.929 . S
C381 C380 1.373 . S
C381 C382 1.396 . S
C381 C388 1.403 . S
C382 C372 1.476 . S
C382 N377 1.318 . S
C382 C381 1.396 . S
H383 C378 0.929 . S
O384 Mn360 2.385 . S
O384 C362 1.234 . S
O385 Mn360 2.209 . S
O385 Mn361 2.215 . S
O385 C362 1.283 . S
O386 Mn360 2.094 . S
O386 C364 1.240 . S
O387 Mn361 2.117 . S
O387 C364 1.264 . S
C388 C381 1.403 . S
C388 C389 1.399 . S
C388 H394 0.929 . S
C389 C369 1.449 . S
C389 C388 1.399 . S
C389 H395 0.930 . S
H390 C370 0.931 . S
H391 C371 0.930 . S
H392 C379 0.931 . S
H393 C380 0.929 . S
H394 C388 0.929 . S
H395 C389 0.930 . S
Mn396 O401 2.095 . S
Mn396 O411 2.162 . S
Mn396 O412 2.297 . S
Mn396 O420 2.385 . S
Mn396 O421 2.209 . S
Mn396 O422 2.094 1_565 S
Mn397 O402 2.121 . S
Mn397 N404 2.257 . S
Mn397 N413 2.282 . S
Mn397 O421 2.215 . S
Mn397 O423 2.117 1_565 S
C398 O420 1.234 . S
C398 O421 1.283 . S
C399 O411 1.281 . S
C399 O412 1.236 . S
C400 O422 1.240 . S
C400 O423 1.264 . S
O401 Mn396 2.095 . S
O401 C410 1.250 . S
O402 Mn397 2.121 . S
O402 C410 1.258 . S
C403 N404 1.326 . S
C403 C407 1.460 . S
C403 H409 0.929 . S
N404 Mn397 2.257 . S
N404 C403 1.326 . S
N404 C408 1.362 . S
C405 C406 1.258 . S
C405 C408 1.431 . S
C405 C425 1.449 . S
C406 C405 1.258 . S
C406 C407 1.477 . S
C406 H426 0.931 . S
C407 C403 1.460 . S
C407 C406 1.477 . S
C407 H427 0.930 . S
C408 N404 1.362 . S
C408 C405 1.431 . S
C408 C418 1.476 . S
H409 C403 0.929 . S
C410 O401 1.250 . S
C410 O402 1.258 . S
O411 Mn396 2.162 . S
O411 C399 1.281 . S
O412 Mn396 2.297 . S
O412 C399 1.236 . S
N413 Mn397 2.282 . S
N413 C414 1.328 . S
N413 C418 1.318 . S
C414 N413 1.328 . S
C414 C415 1.457 . S
C414 H419 0.929 . S
C415 C414 1.457 . S
C415 C416 1.291 . S
C415 H428 0.931 . S
C416 C415 1.291 . S
C416 C417 1.373 . S
C416 H429 0.929 . S
C417 C416 1.373 . S
C417 C418 1.396 . S
C417 C424 1.403 . S
C418 C408 1.476 . S
C418 N413 1.318 . S
C418 C417 1.396 . S
H419 C414 0.929 . S
O420 Mn396 2.385 . S
O420 C398 1.234 . S
O421 Mn396 2.209 . S
O421 Mn397 2.215 . S
O421 C398 1.283 . S
O422 Mn396 2.094 1_545 S
O422 C400 1.240 . S
O423 Mn397 2.117 1_545 S
O423 C400 1.264 . S
C424 C417 1.403 . S
C424 C425 1.399 . S
C424 H430 0.929 . S
C425 C405 1.449 . S
C425 C424 1.399 . S
C425 H431 0.930 . S
H426 C406 0.931 . S
H427 C407 0.930 . S
H428 C415 0.931 . S
H429 C416 0.929 . S
H430 C424 0.929 . S
H431 C425 0.930 . S
Mn432 O437 2.095 . S
Mn432 O447 2.162 . S
Mn432 O448 2.297 . S
Mn432 O456 2.385 . S
Mn432 O457 2.209 . S
Mn432 O458 2.094 . S
Mn433 O438 2.121 . S
Mn433 N440 2.257 . S
Mn433 N449 2.282 . S
Mn433 O457 2.215 . S
Mn433 O459 2.117 . S
C434 O456 1.234 . S
C434 O457 1.283 . S
C435 O447 1.281 . S
C435 O448 1.236 . S
C436 O458 1.240 . S
C436 O459 1.264 . S
O437 Mn432 2.095 . S
O437 C446 1.250 . S
O438 Mn433 2.121 . S
O438 C446 1.258 . S
C439 N440 1.326 . S
C439 C443 1.460 . S
C439 H445 0.929 . S
N440 Mn433 2.257 . S
N440 C439 1.326 . S
N440 C444 1.362 . S
C441 C442 1.258 . S
C441 C444 1.431 . S
C441 C461 1.449 . S
C442 C441 1.258 . S
C442 C443 1.477 . S
C442 H462 0.931 . S
C443 C439 1.460 . S
C443 C442 1.477 . S
C443 H463 0.930 . S
C444 N440 1.362 . S
C444 C441 1.431 . S
C444 C454 1.476 . S
H445 C439 0.929 . S
C446 O437 1.250 . S
C446 O438 1.258 . S
O447 Mn432 2.162 . S
O447 C435 1.281 . S
O448 Mn432 2.297 . S
O448 C435 1.236 . S
N449 Mn433 2.282 . S
N449 C450 1.328 . S
N449 C454 1.318 . S
C450 N449 1.328 . S
C450 C451 1.457 . S
C450 H455 0.929 . S
C451 C450 1.457 . S
C451 C452 1.291 . S
C451 H464 0.931 . S
C452 C451 1.291 . S
C452 C453 1.373 . S
C452 H465 0.929 . S
C453 C452 1.373 . S
C453 C454 1.396 . S
C453 C460 1.403 . S
C454 C444 1.476 . S
C454 N449 1.318 . S
C454 C453 1.396 . S
H455 C450 0.929 . S
O456 Mn432 2.385 . S
O456 C434 1.234 . S
O457 Mn432 2.209 . S
O457 Mn433 2.215 . S
O457 C434 1.283 . S
O458 Mn432 2.094 . S
O458 C436 1.240 . S
O459 Mn433 2.117 . S
O459 C436 1.264 . S
C460 C453 1.403 . S
C460 C461 1.399 . S
C460 H466 0.929 . S
C461 C441 1.449 . S
C461 C460 1.399 . S
C461 H467 0.930 . S
H462 C442 0.931 . S
H463 C443 0.930 . S
H464 C451 0.931 . S
H465 C452 0.929 . S
H466 C460 0.929 . S
H467 C461 0.930 . S
Mn468 O473 2.095 . S
Mn468 O483 2.162 . S
Mn468 O484 2.297 . S
Mn468 O492 2.385 . S
Mn468 O493 2.209 . S
Mn468 O494 2.094 1_545 S
Mn469 O474 2.121 . S
Mn469 N476 2.257 . S
Mn469 N485 2.282 . S
Mn469 O493 2.215 . S
Mn469 O495 2.117 1_545 S
C470 O492 1.234 . S
C470 O493 1.283 . S
C471 O483 1.281 . S
C471 O484 1.236 . S
C472 O494 1.240 . S
C472 O495 1.264 . S
O473 Mn468 2.095 . S
O473 C482 1.250 . S
O474 Mn469 2.121 . S
O474 C482 1.258 . S
C475 N476 1.326 . S
C475 C479 1.460 . S
C475 H481 0.929 . S
N476 Mn469 2.257 . S
N476 C475 1.326 . S
N476 C480 1.362 . S
C477 C478 1.258 . S
C477 C480 1.431 . S
C477 C497 1.449 . S
C478 C477 1.258 . S
C478 C479 1.477 . S
C478 H498 0.931 . S
C479 C475 1.460 . S
C479 C478 1.477 . S
C479 H499 0.930 . S
C480 N476 1.362 . S
C480 C477 1.431 . S
C480 C490 1.476 . S
H481 C475 0.929 . S
C482 O473 1.250 . S
C482 O474 1.258 . S
O483 Mn468 2.162 . S
O483 C471 1.281 . S
O484 Mn468 2.297 . S
O484 C471 1.236 . S
N485 Mn469 2.282 . S
N485 C486 1.328 . S
N485 C490 1.318 . S
C486 N485 1.328 . S
C486 C487 1.457 . S
C486 H491 0.929 . S
C487 C486 1.457 . S
C487 C488 1.291 . S
C487 H500 0.931 . S
C488 C487 1.291 . S
C488 C489 1.373 . S
C488 H501 0.929 . S
C489 C488 1.373 . S
C489 C490 1.396 . S
C489 C496 1.403 . S
C490 C480 1.476 . S
C490 N485 1.318 . S
C490 C489 1.396 . S
H491 C486 0.929 . S
O492 Mn468 2.385 . S
O492 C470 1.234 . S
O493 Mn468 2.209 . S
O493 Mn469 2.215 . S
O493 C470 1.283 . S
O494 Mn468 2.094 1_565 S
O494 C472 1.240 . S
O495 Mn469 2.117 1_565 S
O495 C472 1.264 . S
C496 C489 1.403 . S
C496 C497 1.399 . S
C496 H502 0.929 . S
C497 C477 1.449 . S
C497 C496 1.399 . S
C497 H503 0.930 . S
H498 C478 0.931 . S
H499 C479 0.930 . S
H500 C487 0.931 . S
H501 C488 0.929 . S
H502 C496 0.929 . S
H503 C497 0.930 . S
Mn504 O509 2.095 . S
Mn504 O519 2.162 . S
Mn504 O520 2.297 . S
Mn504 O528 2.385 . S
Mn504 O529 2.209 . S
Mn504 O530 2.094 . S
Mn505 O510 2.121 . S
Mn505 N512 2.257 . S
Mn505 N521 2.282 . S
Mn505 O529 2.215 . S
Mn505 O531 2.117 . S
C506 O528 1.234 . S
C506 O529 1.283 . S
C507 O519 1.281 . S
C507 O520 1.236 . S
C508 O530 1.240 . S
C508 O531 1.264 . S
O509 Mn504 2.095 . S
O509 C518 1.250 . S
O510 Mn505 2.121 . S
O510 C518 1.258 . S
C511 N512 1.326 . S
C511 C515 1.460 . S
C511 H517 0.929 . S
N512 Mn505 2.257 . S
N512 C511 1.326 . S
N512 C516 1.362 . S
C513 C514 1.258 . S
C513 C516 1.431 . S
C513 C533 1.449 . S
C514 C513 1.258 . S
C514 C515 1.477 . S
C514 H534 0.931 . S
C515 C511 1.460 . S
C515 C514 1.477 . S
C515 H535 0.930 . S
C516 N512 1.362 . S
C516 C513 1.431 . S
C516 C526 1.476 . S
H517 C511 0.929 . S
C518 O509 1.250 . S
C518 O510 1.258 . S
O519 Mn504 2.162 . S
O519 C507 1.281 . S
O520 Mn504 2.297 . S
O520 C507 1.236 . S
N521 Mn505 2.282 . S
N521 C522 1.328 . S
N521 C526 1.318 . S
C522 N521 1.328 . S
C522 C523 1.457 . S
C522 H527 0.929 . S
C523 C522 1.457 . S
C523 C524 1.291 . S
C523 H536 0.931 . S
C524 C523 1.291 . S
C524 C525 1.373 . S
C524 H537 0.929 . S
C525 C524 1.373 . S
C525 C526 1.396 . S
C525 C532 1.403 . S
C526 C516 1.476 . S
C526 N521 1.318 . S
C526 C525 1.396 . S
H527 C522 0.929 . S
O528 Mn504 2.385 . S
O528 C506 1.234 . S
O529 Mn504 2.209 . S
O529 Mn505 2.215 . S
O529 C506 1.283 . S
O530 Mn504 2.094 . S
O530 C508 1.240 . S
O531 Mn505 2.117 . S
O531 C508 1.264 . S
C532 C525 1.403 . S
C532 C533 1.399 . S
C532 H538 0.929 . S
C533 C513 1.449 . S
C533 C532 1.399 . S
C533 H539 0.930 . S
H534 C514 0.931 . S
H535 C515 0.930 . S
H536 C523 0.931 . S
H537 C524 0.929 . S
H538 C532 0.929 . S
H539 C533 0.930 . S
Mn540 O545 2.095 . S
Mn540 O555 2.137 1_655 S
Mn540 O556 2.297 . S
Mn540 O564 2.385 . S
Mn540 O565 2.209 . S
Mn540 O566 2.094 1_565 S
Mn541 O546 2.121 . S
Mn541 N548 2.257 . S
Mn541 N557 2.282 . S
Mn541 O565 2.215 . S
Mn541 O567 2.117 1_565 S
C542 O564 1.234 . S
C542 O565 1.283 . S
C543 O555 1.291 . S
C543 O556 1.236 1_455 S
C544 O566 1.240 . S
C544 O567 1.264 . S
O545 Mn540 2.095 . S
O545 C554 1.250 . S
O546 Mn541 2.121 . S
O546 C554 1.258 . S
C547 N548 1.326 . S
C547 C551 1.460 . S
C547 H553 0.929 . S
N548 Mn541 2.257 . S
N548 C547 1.326 . S
N548 C552 1.362 . S
C549 C550 1.258 . S
C549 C552 1.431 . S
C549 C569 1.449 . S
C550 C549 1.258 . S
C550 C551 1.477 . S
C550 H570 0.931 . S
C551 C547 1.460 . S
C551 C550 1.477 . S
C551 H571 0.930 . S
C552 N548 1.362 . S
C552 C549 1.431 . S
C552 C562 1.476 . S
H553 C547 0.929 . S
C554 O545 1.250 . S
C554 O546 1.258 . S
O555 Mn540 2.137 1_455 S
O555 C543 1.291 . S
O556 Mn540 2.297 . S
O556 C543 1.236 1_655 S
N557 Mn541 2.282 . S
N557 C558 1.328 . S
N557 C562 1.318 . S
C558 N557 1.328 . S
C558 C559 1.457 . S
C558 H563 0.929 . S
C559 C558 1.457 . S
C559 C560 1.291 . S
C559 H572 0.931 . S
C560 C559 1.291 . S
C560 C561 1.373 . S
C560 H573 0.929 . S
C561 C560 1.373 . S
C561 C562 1.396 . S
C561 C568 1.403 . S
C562 C552 1.476 . S
C562 N557 1.318 . S
C562 C561 1.396 . S
H563 C558 0.929 . S
O564 Mn540 2.385 . S
O564 C542 1.234 . S
O565 Mn540 2.209 . S
O565 Mn541 2.215 . S
O565 C542 1.283 . S
O566 Mn540 2.094 1_545 S
O566 C544 1.240 . S
O567 Mn541 2.117 1_545 S
O567 C544 1.264 . S
C568 C561 1.403 . S
C568 C569 1.399 . S
C568 H574 0.929 . S
C569 C549 1.449 . S
C569 C568 1.399 . S
C569 H575 0.930 . S
H570 C550 0.931 . S
H571 C551 0.930 . S
H572 C559 0.931 . S
H573 C560 0.929 . S
H574 C568 0.929 . S
H575 C569 0.930 . S
Mn576 O581 2.095 . S
Mn576 O591 2.162 . S
Mn576 O592 2.297 . S
Mn576 O600 2.385 . S
Mn576 O601 2.209 . S
Mn576 O602 2.094 . S
Mn577 O582 2.121 . S
Mn577 N584 2.257 . S
Mn577 N593 2.282 . S
Mn577 O601 2.215 . S
Mn577 O603 2.117 . S
C578 O600 1.234 . S
C578 O601 1.283 . S
C579 O591 1.281 . S
C579 O592 1.236 . S
C580 O602 1.240 . S
C580 O603 1.264 . S
O581 Mn576 2.095 . S
O581 C590 1.250 . S
O582 Mn577 2.121 . S
O582 C590 1.258 . S
C583 N584 1.326 . S
C583 C587 1.460 . S
C583 H589 0.929 . S
N584 Mn577 2.257 . S
N584 C583 1.326 . S
N584 C588 1.362 . S
C585 C586 1.258 . S
C585 C588 1.431 . S
C585 C605 1.449 . S
C586 C585 1.258 . S
C586 C587 1.477 . S
C586 H606 0.931 . S
C587 C583 1.460 . S
C587 C586 1.477 . S
C587 H607 0.930 . S
C588 N584 1.362 . S
C588 C585 1.431 . S
C588 C598 1.476 . S
H589 C583 0.929 . S
C590 O581 1.250 . S
C590 O582 1.258 . S
O591 Mn576 2.162 . S
O591 C579 1.281 . S
O592 Mn576 2.297 . S
O592 C579 1.236 . S
N593 Mn577 2.282 . S
N593 C594 1.328 . S
N593 C598 1.318 . S
C594 N593 1.328 . S
C594 C595 1.457 . S
C594 H599 0.929 . S
C595 C594 1.457 . S
C595 C596 1.291 . S
C595 H608 0.931 . S
C596 C595 1.291 . S
C596 C597 1.373 . S
C596 H609 0.929 . S
C597 C596 1.373 . S
C597 C598 1.396 . S
C597 C604 1.403 . S
C598 C588 1.476 . S
C598 N593 1.318 . S
C598 C597 1.396 . S
H599 C594 0.929 . S
O600 Mn576 2.385 . S
O600 C578 1.234 . S
O601 Mn576 2.209 . S
O601 Mn577 2.215 . S
O601 C578 1.283 . S
O602 Mn576 2.094 . S
O602 C580 1.240 . S
O603 Mn577 2.117 . S
O603 C580 1.264 . S
C604 C597 1.403 . S
C604 C605 1.399 . S
C604 H610 0.929 . S
C605 C585 1.449 . S
C605 C604 1.399 . S
C605 H611 0.930 . S
H606 C586 0.931 . S
H607 C587 0.930 . S
H608 C595 0.931 . S
H609 C596 0.929 . S
H610 C604 0.929 . S
H611 C605 0.930 . S
Mn612 O617 2.095 . S
Mn612 O627 2.162 . S
Mn612 O628 2.297 . S
Mn612 O636 2.385 . S
Mn612 O637 2.209 . S
Mn612 O638 2.094 . S
Mn613 O618 2.121 . S
Mn613 N620 2.257 . S
Mn613 N629 2.282 . S
Mn613 O637 2.215 . S
Mn613 O639 2.117 . S
C614 O636 1.234 . S
C614 O637 1.283 . S
C615 O627 1.281 . S
C615 O628 1.236 . S
C616 O638 1.240 . S
C616 O639 1.264 . S
O617 Mn612 2.095 . S
O617 C626 1.250 . S
O618 Mn613 2.121 . S
O618 C626 1.258 . S
C619 N620 1.326 . S
C619 C623 1.460 . S
C619 H625 0.929 . S
N620 Mn613 2.257 . S
N620 C619 1.326 . S
N620 C624 1.362 . S
C621 C622 1.258 . S
C621 C624 1.431 . S
C621 C641 1.449 . S
C622 C621 1.258 . S
C622 C623 1.477 . S
C622 H642 0.931 . S
C623 C619 1.460 . S
C623 C622 1.477 . S
C623 H643 0.930 . S
C624 N620 1.362 . S
C624 C621 1.431 . S
C624 C634 1.476 . S
H625 C619 0.929 . S
C626 O617 1.250 . S
C626 O618 1.258 . S
O627 Mn612 2.162 . S
O627 C615 1.281 . S
O628 Mn612 2.297 . S
O628 C615 1.236 . S
N629 Mn613 2.282 . S
N629 C630 1.328 . S
N629 C634 1.318 . S
C630 N629 1.328 . S
C630 C631 1.457 . S
C630 H635 0.929 . S
C631 C630 1.457 . S
C631 C632 1.291 . S
C631 H644 0.931 . S
C632 C631 1.291 . S
C632 C633 1.373 . S
C632 H645 0.929 . S
C633 C632 1.373 . S
C633 C634 1.396 . S
C633 C640 1.403 . S
C634 C624 1.476 . S
C634 N629 1.318 . S
C634 C633 1.396 . S
H635 C630 0.929 . S
O636 Mn612 2.385 . S
O636 C614 1.234 . S
O637 Mn612 2.209 . S
O637 Mn613 2.215 . S
O637 C614 1.283 . S
O638 Mn612 2.094 . S
O638 C616 1.240 . S
O639 Mn613 2.117 . S
O639 C616 1.264 . S
C640 C633 1.403 . S
C640 C641 1.399 . S
C640 H646 0.929 . S
C641 C621 1.449 . S
C641 C640 1.399 . S
C641 H647 0.930 . S
H642 C622 0.931 . S
H643 C623 0.930 . S
H644 C631 0.931 . S
H645 C632 0.929 . S
H646 C640 0.929 . S
H647 C641 0.930 . S
Mn648 O653 2.095 . S
Mn648 O663 2.162 . S
Mn648 O664 2.297 . S
Mn648 O672 2.385 . S
Mn648 O673 2.209 . S
Mn648 O674 2.094 . S
Mn649 O654 2.121 . S
Mn649 N656 2.257 . S
Mn649 N665 2.282 . S
Mn649 O673 2.215 . S
Mn649 O675 2.117 . S
C650 O672 1.234 . S
C650 O673 1.283 . S
C651 O663 1.281 . S
C651 O664 1.236 . S
C652 O674 1.240 . S
C652 O675 1.264 . S
O653 Mn648 2.095 . S
O653 C662 1.250 . S
O654 Mn649 2.121 . S
O654 C662 1.258 . S
C655 N656 1.326 . S
C655 C659 1.460 . S
C655 H661 0.929 . S
N656 Mn649 2.257 . S
N656 C655 1.326 . S
N656 C660 1.362 . S
C657 C658 1.258 . S
C657 C660 1.431 . S
C657 C677 1.449 . S
C658 C657 1.258 . S
C658 C659 1.477 . S
C658 H678 0.931 . S
C659 C655 1.460 . S
C659 C658 1.477 . S
C659 H679 0.930 . S
C660 N656 1.362 . S
C660 C657 1.431 . S
C660 C670 1.476 . S
H661 C655 0.929 . S
C662 O653 1.250 . S
C662 O654 1.258 . S
O663 Mn648 2.162 . S
O663 C651 1.281 . S
O664 Mn648 2.297 . S
O664 C651 1.236 . S
N665 Mn649 2.282 . S
N665 C666 1.328 . S
N665 C670 1.318 . S
C666 N665 1.328 . S
C666 C667 1.457 . S
C666 H671 0.929 . S
C667 C666 1.457 . S
C667 C668 1.291 . S
C667 H680 0.931 . S
C668 C667 1.291 . S
C668 C669 1.373 . S
C668 H681 0.929 . S
C669 C668 1.373 . S
C669 C670 1.396 . S
C669 C676 1.403 . S
C670 C660 1.476 . S
C670 N665 1.318 . S
C670 C669 1.396 . S
H671 C666 0.929 . S
O672 Mn648 2.385 . S
O672 C650 1.234 . S
O673 Mn648 2.209 . S
O673 Mn649 2.215 . S
O673 C650 1.283 . S
O674 Mn648 2.094 . S
O674 C652 1.240 . S
O675 Mn649 2.117 . S
O675 C652 1.264 . S
C676 C669 1.403 . S
C676 C677 1.399 . S
C676 H682 0.929 . S
C677 C657 1.449 . S
C677 C676 1.399 . S
C677 H683 0.930 . S
H678 C658 0.931 . S
H679 C659 0.930 . S
H680 C667 0.931 . S
H681 C668 0.929 . S
H682 C676 0.929 . S
H683 C677 0.930 . S
Mn684 O689 2.095 . S
Mn684 O699 2.162 . S
Mn684 O700 2.297 . S
Mn684 O708 2.385 . S
Mn684 O709 2.209 . S
Mn684 O710 2.094 . S
Mn685 O690 2.121 . S
Mn685 N692 2.257 . S
Mn685 N701 2.282 . S
Mn685 O709 2.215 . S
Mn685 O711 2.091 1_655 S
C686 O708 1.234 . S
C686 O709 1.283 . S
C687 O699 1.281 . S
C687 O700 1.236 . S
C688 O710 1.240 1_455 S
C688 O711 1.276 . S
O689 Mn684 2.095 . S
O689 C698 1.250 . S
O690 Mn685 2.121 . S
O690 C698 1.258 . S
C691 N692 1.326 . S
C691 C695 1.460 . S
C691 H697 0.929 . S
N692 Mn685 2.257 . S
N692 C691 1.326 . S
N692 C696 1.362 . S
C693 C694 1.258 . S
C693 C696 1.431 . S
C693 C713 1.449 . S
C694 C693 1.258 . S
C694 C695 1.477 . S
C694 H714 0.931 . S
C695 C691 1.460 . S
C695 C694 1.477 . S
C695 H715 0.930 . S
C696 N692 1.362 . S
C696 C693 1.431 . S
C696 C706 1.476 . S
H697 C691 0.929 . S
C698 O689 1.250 . S
C698 O690 1.258 . S
O699 Mn684 2.162 . S
O699 C687 1.281 . S
O700 Mn684 2.297 . S
O700 C687 1.236 . S
N701 Mn685 2.282 . S
N701 C702 1.328 . S
N701 C706 1.318 . S
C702 N701 1.328 . S
C702 C703 1.457 . S
C702 H707 0.929 . S
C703 C702 1.457 . S
C703 C704 1.291 . S
C703 H716 0.931 . S
C704 C703 1.291 . S
C704 C705 1.373 . S
C704 H717 0.929 . S
C705 C704 1.373 . S
C705 C706 1.396 . S
C705 C712 1.403 . S
C706 C696 1.476 . S
C706 N701 1.318 . S
C706 C705 1.396 . S
H707 C702 0.929 . S
O708 Mn684 2.385 . S
O708 C686 1.234 . S
O709 Mn684 2.209 . S
O709 Mn685 2.215 . S
O709 C686 1.283 . S
O710 Mn684 2.094 . S
O710 C688 1.240 1_655 S
O711 Mn685 2.091 1_455 S
O711 C688 1.276 . S
C712 C705 1.403 . S
C712 C713 1.399 . S
C712 H718 0.929 . S
C713 C693 1.449 . S
C713 C712 1.399 . S
C713 H719 0.930 . S
H714 C694 0.931 . S
H715 C695 0.930 . S
H716 C703 0.931 . S
H717 C704 0.929 . S
H718 C712 0.929 . S
H719 C713 0.930 . S
Mn720 O725 2.095 . S
Mn720 O735 2.162 . S
Mn720 O736 2.297 . S
Mn720 O744 2.385 . S
Mn720 O745 2.209 . S
Mn720 O746 2.094 . S
Mn721 O726 2.121 . S
Mn721 N728 2.257 . S
Mn721 N737 2.282 . S
Mn721 O745 2.215 . S
Mn721 O747 2.117 . S
C722 O744 1.234 . S
C722 O745 1.283 . S
C723 O735 1.281 . S
C723 O736 1.236 . S
C724 O746 1.240 . S
C724 O747 1.264 . S
O725 Mn720 2.095 . S
O725 C734 1.250 . S
O726 Mn721 2.121 . S
O726 C734 1.258 . S
C727 N728 1.326 . S
C727 C731 1.460 . S
C727 H733 0.929 . S
N728 Mn721 2.257 . S
N728 C727 1.326 . S
N728 C732 1.362 . S
C729 C730 1.258 . S
C729 C732 1.431 . S
C729 C749 1.449 . S
C730 C729 1.258 . S
C730 C731 1.477 . S
C730 H750 0.931 . S
C731 C727 1.460 . S
C731 C730 1.477 . S
C731 H751 0.930 . S
C732 N728 1.362 . S
C732 C729 1.431 . S
C732 C742 1.476 . S
H733 C727 0.929 . S
C734 O725 1.250 . S
C734 O726 1.258 . S
O735 Mn720 2.162 . S
O735 C723 1.281 . S
O736 Mn720 2.297 . S
O736 C723 1.236 . S
N737 Mn721 2.282 . S
N737 C738 1.328 . S
N737 C742 1.318 . S
C738 N737 1.328 . S
C738 C739 1.457 . S
C738 H743 0.929 . S
C739 C738 1.457 . S
C739 C740 1.291 . S
C739 H752 0.931 . S
C740 C739 1.291 . S
C740 C741 1.373 . S
C740 H753 0.929 . S
C741 C740 1.373 . S
C741 C742 1.396 . S
C741 C748 1.403 . S
C742 C732 1.476 . S
C742 N737 1.318 . S
C742 C741 1.396 . S
H743 C738 0.929 . S
O744 Mn720 2.385 . S
O744 C722 1.234 . S
O745 Mn720 2.209 . S
O745 Mn721 2.215 . S
O745 C722 1.283 . S
O746 Mn720 2.094 . S
O746 C724 1.240 . S
O747 Mn721 2.117 . S
O747 C724 1.264 . S
C748 C741 1.403 . S
C748 C749 1.399 . S
C748 H754 0.929 . S
C749 C729 1.449 . S
C749 C748 1.399 . S
C749 H755 0.930 . S
H750 C730 0.931 . S
H751 C731 0.930 . S
H752 C739 0.931 . S
H753 C740 0.929 . S
H754 C748 0.929 . S
H755 C749 0.930 . S
Mn756 O761 2.095 . S
Mn756 O771 2.162 . S
Mn756 O772 2.297 . S
Mn756 O780 2.385 . S
Mn756 O781 2.209 . S
Mn756 O782 2.094 . S
Mn757 O762 2.121 . S
Mn757 N764 2.257 . S
Mn757 N773 2.282 . S
Mn757 O781 2.215 . S
Mn757 O783 2.091 1_655 S
C758 O780 1.234 . S
C758 O781 1.283 . S
C759 O771 1.281 . S
C759 O772 1.236 . S
C760 O782 1.240 1_455 S
C760 O783 1.276 . S
O761 Mn756 2.095 . S
O761 C770 1.250 . S
O762 Mn757 2.121 . S
O762 C770 1.258 . S
C763 N764 1.326 . S
C763 C767 1.460 . S
C763 H769 0.929 . S
N764 Mn757 2.257 . S
N764 C763 1.326 . S
N764 C768 1.362 . S
C765 C766 1.258 . S
C765 C768 1.431 . S
C765 C785 1.449 . S
C766 C765 1.258 . S
C766 C767 1.477 . S
C766 H786 0.931 . S
C767 C763 1.460 . S
C767 C766 1.477 . S
C767 H787 0.930 . S
C768 N764 1.362 . S
C768 C765 1.431 . S
C768 C778 1.476 . S
H769 C763 0.929 . S
C770 O761 1.250 . S
C770 O762 1.258 . S
O771 Mn756 2.162 . S
O771 C759 1.281 . S
O772 Mn756 2.297 . S
O772 C759 1.236 . S
N773 Mn757 2.282 . S
N773 C774 1.328 . S
N773 C778 1.318 . S
C774 N773 1.328 . S
C774 C775 1.457 . S
C774 H779 0.929 . S
C775 C774 1.457 . S
C775 C776 1.291 . S
C775 H788 0.931 . S
C776 C775 1.291 . S
C776 C777 1.373 . S
C776 H789 0.929 . S
C777 C776 1.373 . S
C777 C778 1.396 . S
C777 C784 1.403 . S
C778 C768 1.476 . S
C778 N773 1.318 . S
C778 C777 1.396 . S
H779 C774 0.929 . S
O780 Mn756 2.385 . S
O780 C758 1.234 . S
O781 Mn756 2.209 . S
O781 Mn757 2.215 . S
O781 C758 1.283 . S
O782 Mn756 2.094 . S
O782 C760 1.240 1_655 S
O783 Mn757 2.091 1_455 S
O783 C760 1.276 . S
C784 C777 1.403 . S
C784 C785 1.399 . S
C784 H790 0.929 . S
C785 C765 1.449 . S
C785 C784 1.399 . S
C785 H791 0.930 . S
H786 C766 0.931 . S
H787 C767 0.930 . S
H788 C775 0.931 . S
H789 C776 0.929 . S
H790 C784 0.929 . S
H791 C785 0.930 . S
Mn792 O797 2.095 . S
Mn792 O807 2.162 . S
Mn792 O808 2.297 . S
Mn792 O816 2.385 . S
Mn792 O817 2.209 . S
Mn792 O818 2.094 . S
Mn793 O798 2.121 . S
Mn793 N800 2.257 . S
Mn793 N809 2.282 . S
Mn793 O817 2.215 . S
Mn793 O819 2.117 . S
C794 O816 1.234 . S
C794 O817 1.283 . S
C795 O807 1.281 . S
C795 O808 1.236 . S
C796 O818 1.240 . S
C796 O819 1.264 . S
O797 Mn792 2.095 . S
O797 C806 1.250 . S
O798 Mn793 2.121 . S
O798 C806 1.258 . S
C799 N800 1.326 . S
C799 C803 1.460 . S
C799 H805 0.929 . S
N800 Mn793 2.257 . S
N800 C799 1.326 . S
N800 C804 1.362 . S
C801 C802 1.258 . S
C801 C804 1.431 . S
C801 C821 1.449 . S
C802 C801 1.258 . S
C802 C803 1.477 . S
C802 H822 0.931 . S
C803 C799 1.460 . S
C803 C802 1.477 . S
C803 H823 0.930 . S
C804 N800 1.362 . S
C804 C801 1.431 . S
C804 C814 1.476 . S
H805 C799 0.929 . S
C806 O797 1.250 . S
C806 O798 1.258 . S
O807 Mn792 2.162 . S
O807 C795 1.281 . S
O808 Mn792 2.297 . S
O808 C795 1.236 . S
N809 Mn793 2.282 . S
N809 C810 1.328 . S
N809 C814 1.318 . S
C810 N809 1.328 . S
C810 C811 1.457 . S
C810 H815 0.929 . S
C811 C810 1.457 . S
C811 C812 1.291 . S
C811 H824 0.931 . S
C812 C811 1.291 . S
C812 C813 1.373 . S
C812 H825 0.929 . S
C813 C812 1.373 . S
C813 C814 1.396 . S
C813 C820 1.403 . S
C814 C804 1.476 . S
C814 N809 1.318 . S
C814 C813 1.396 . S
H815 C810 0.929 . S
O816 Mn792 2.385 . S
O816 C794 1.234 . S
O817 Mn792 2.209 . S
O817 Mn793 2.215 . S
O817 C794 1.283 . S
O818 Mn792 2.094 . S
O818 C796 1.240 . S
O819 Mn793 2.117 . S
O819 C796 1.264 . S
C820 C813 1.403 . S
C820 C821 1.399 . S
C820 H826 0.929 . S
C821 C801 1.449 . S
C821 C820 1.399 . S
C821 H827 0.930 . S
H822 C802 0.931 . S
H823 C803 0.930 . S
H824 C811 0.931 . S
H825 C812 0.929 . S
H826 C820 0.929 . S
H827 C821 0.930 . S
Mn828 O833 2.095 . S
Mn828 O843 2.162 . S
Mn828 O844 2.297 . S
Mn828 O852 2.385 . S
Mn828 O853 2.209 . S
Mn828 O854 2.094 . S
Mn829 O834 2.121 . S
Mn829 N836 2.257 . S
Mn829 N845 2.282 . S
Mn829 O853 2.215 . S
Mn829 O855 2.117 . S
C830 O852 1.234 . S
C830 O853 1.283 . S
C831 O843 1.281 . S
C831 O844 1.236 . S
C832 O854 1.240 . S
C832 O855 1.264 . S
O833 Mn828 2.095 . S
O833 C842 1.250 . S
O834 Mn829 2.121 . S
O834 C842 1.258 . S
C835 N836 1.326 . S
C835 C839 1.460 . S
C835 H841 0.929 . S
N836 Mn829 2.257 . S
N836 C835 1.326 . S
N836 C840 1.362 . S
C837 C838 1.258 . S
C837 C840 1.431 . S
C837 C857 1.449 . S
C838 C837 1.258 . S
C838 C839 1.477 . S
C838 H858 0.931 . S
C839 C835 1.460 . S
C839 C838 1.477 . S
C839 H859 0.930 . S
C840 N836 1.362 . S
C840 C837 1.431 . S
C840 C850 1.476 . S
H841 C835 0.929 . S
C842 O833 1.250 . S
C842 O834 1.258 . S
O843 Mn828 2.162 . S
O843 C831 1.281 . S
O844 Mn828 2.297 . S
O844 C831 1.236 . S
N845 Mn829 2.282 . S
N845 C846 1.328 . S
N845 C850 1.318 . S
C846 N845 1.328 . S
C846 C847 1.457 . S
C846 H851 0.929 . S
C847 C846 1.457 . S
C847 C848 1.291 . S
C847 H860 0.931 . S
C848 C847 1.291 . S
C848 C849 1.373 . S
C848 H861 0.929 . S
C849 C848 1.373 . S
C849 C850 1.396 . S
C849 C856 1.403 . S
C850 C840 1.476 . S
C850 N845 1.318 . S
C850 C849 1.396 . S
H851 C846 0.929 . S
O852 Mn828 2.385 . S
O852 C830 1.234 . S
O853 Mn828 2.209 . S
O853 Mn829 2.215 . S
O853 C830 1.283 . S
O854 Mn828 2.094 . S
O854 C832 1.240 . S
O855 Mn829 2.117 . S
O855 C832 1.264 . S
C856 C849 1.403 . S
C856 C857 1.399 . S
C856 H862 0.929 . S
C857 C837 1.449 . S
C857 C856 1.399 . S
C857 H863 0.930 . S
H858 C838 0.931 . S
H859 C839 0.930 . S
H860 C847 0.931 . S
H861 C848 0.929 . S
H862 C856 0.929 . S
H863 C857 0.930 . S
Mn864 O869 2.095 . S
Mn864 O879 2.162 . S
Mn864 O880 2.297 . S
Mn864 O888 2.385 . S
Mn864 O889 2.209 . S
Mn864 O890 2.094 . S
Mn865 O870 2.121 . S
Mn865 N872 2.257 . S
Mn865 N881 2.282 . S
Mn865 O889 2.215 . S
Mn865 O891 2.117 . S
C866 O888 1.234 . S
C866 O889 1.283 . S
C867 O879 1.281 . S
C867 O880 1.236 . S
C868 O890 1.240 . S
C868 O891 1.264 . S
O869 Mn864 2.095 . S
O869 C878 1.250 . S
O870 Mn865 2.121 . S
O870 C878 1.258 . S
C871 N872 1.326 . S
C871 C875 1.460 . S
C871 H877 0.929 . S
N872 Mn865 2.257 . S
N872 C871 1.326 . S
N872 C876 1.362 . S
C873 C874 1.258 . S
C873 C876 1.431 . S
C873 C893 1.449 . S
C874 C873 1.258 . S
C874 C875 1.477 . S
C874 H894 0.931 . S
C875 C871 1.460 . S
C875 C874 1.477 . S
C875 H895 0.930 . S
C876 N872 1.362 . S
C876 C873 1.431 . S
C876 C886 1.476 . S
H877 C871 0.929 . S
C878 O869 1.250 . S
C878 O870 1.258 . S
O879 Mn864 2.162 . S
O879 C867 1.281 . S
O880 Mn864 2.297 . S
O880 C867 1.236 . S
N881 Mn865 2.282 . S
N881 C882 1.328 . S
N881 C886 1.318 . S
C882 N881 1.328 . S
C882 C883 1.457 . S
C882 H887 0.929 . S
C883 C882 1.457 . S
C883 C884 1.291 . S
C883 H896 0.931 . S
C884 C883 1.291 . S
C884 C885 1.373 . S
C884 H897 0.929 . S
C885 C884 1.373 . S
C885 C886 1.396 . S
C885 C892 1.403 . S
C886 C876 1.476 . S
C886 N881 1.318 . S
C886 C885 1.396 . S
H887 C882 0.929 . S
O888 Mn864 2.385 . S
O888 C866 1.234 . S
O889 Mn864 2.209 . S
O889 Mn865 2.215 . S
O889 C866 1.283 . S
O890 Mn864 2.094 . S
O890 C868 1.240 . S
O891 Mn865 2.117 . S
O891 C868 1.264 . S
C892 C885 1.403 . S
C892 C893 1.399 . S
C892 H898 0.929 . S
C893 C873 1.449 . S
C893 C892 1.399 . S
C893 H899 0.930 . S
H894 C874 0.931 . S
H895 C875 0.930 . S
H896 C883 0.931 . S
H897 C884 0.929 . S
H898 C892 0.929 . S
H899 C893 0.930 . S
Mn900 O905 2.095 . S
Mn900 O915 2.162 . S
Mn900 O916 2.297 . S
Mn900 O924 2.385 . S
Mn900 O925 2.209 . S
Mn900 O926 2.094 . S
Mn901 O906 2.121 . S
Mn901 N908 2.257 . S
Mn901 N917 2.282 . S
Mn901 O925 2.215 . S
Mn901 O927 2.117 . S
C902 O924 1.234 . S
C902 O925 1.283 . S
C903 O915 1.281 . S
C903 O916 1.236 . S
C904 O926 1.240 . S
C904 O927 1.264 . S
O905 Mn900 2.095 . S
O905 C914 1.250 . S
O906 Mn901 2.121 . S
O906 C914 1.258 . S
C907 N908 1.326 . S
C907 C911 1.460 . S
C907 H913 0.929 . S
N908 Mn901 2.257 . S
N908 C907 1.326 . S
N908 C912 1.362 . S
C909 C910 1.258 . S
C909 C912 1.431 . S
C909 C929 1.449 . S
C910 C909 1.258 . S
C910 C911 1.477 . S
C910 H930 0.931 . S
C911 C907 1.460 . S
C911 C910 1.477 . S
C911 H931 0.930 . S
C912 N908 1.362 . S
C912 C909 1.431 . S
C912 C922 1.476 . S
H913 C907 0.929 . S
C914 O905 1.250 . S
C914 O906 1.258 . S
O915 Mn900 2.162 . S
O915 C903 1.281 . S
O916 Mn900 2.297 . S
O916 C903 1.236 . S
N917 Mn901 2.282 . S
N917 C918 1.328 . S
N917 C922 1.318 . S
C918 N917 1.328 . S
C918 C919 1.457 . S
C918 H923 0.929 . S
C919 C918 1.457 . S
C919 C920 1.291 . S
C919 H932 0.931 . S
C920 C919 1.291 . S
C920 C921 1.373 . S
C920 H933 0.929 . S
C921 C920 1.373 . S
C921 C922 1.396 . S
C921 C928 1.403 . S
C922 C912 1.476 . S
C922 N917 1.318 . S
C922 C921 1.396 . S
H923 C918 0.929 . S
O924 Mn900 2.385 . S
O924 C902 1.234 . S
O925 Mn900 2.209 . S
O925 Mn901 2.215 . S
O925 C902 1.283 . S
O926 Mn900 2.094 . S
O926 C904 1.240 . S
O927 Mn901 2.117 . S
O927 C904 1.264 . S
C928 C921 1.403 . S
C928 C929 1.399 . S
C928 H934 0.929 . S
C929 C909 1.449 . S
C929 C928 1.399 . S
C929 H935 0.930 . S
H930 C910 0.931 . S
H931 C911 0.930 . S
H932 C919 0.931 . S
H933 C920 0.929 . S
H934 C928 0.929 . S
H935 C929 0.930 . S
Mn936 O941 2.095 . S
Mn936 O951 2.162 . S
Mn936 O952 2.297 . S
Mn936 O960 2.385 . S
Mn936 O961 2.209 . S
Mn936 O962 2.094 . S
Mn937 O942 2.121 . S
Mn937 N944 2.257 . S
Mn937 N953 2.282 . S
Mn937 O961 2.215 . S
Mn937 O963 2.117 . S
C938 O960 1.234 . S
C938 O961 1.283 . S
C939 O951 1.281 . S
C939 O952 1.236 . S
C940 O962 1.240 . S
C940 O963 1.264 . S
O941 Mn936 2.095 . S
O941 C950 1.250 . S
O942 Mn937 2.121 . S
O942 C950 1.258 . S
C943 N944 1.326 . S
C943 C947 1.460 . S
C943 H949 0.929 . S
N944 Mn937 2.257 . S
N944 C943 1.326 . S
N944 C948 1.362 . S
C945 C946 1.258 . S
C945 C948 1.431 . S
C945 C965 1.449 . S
C946 C945 1.258 . S
C946 C947 1.477 . S
C946 H966 0.931 . S
C947 C943 1.460 . S
C947 C946 1.477 . S
C947 H967 0.930 . S
C948 N944 1.362 . S
C948 C945 1.431 . S
C948 C958 1.476 . S
H949 C943 0.929 . S
C950 O941 1.250 . S
C950 O942 1.258 . S
O951 Mn936 2.162 . S
O951 C939 1.281 . S
O952 Mn936 2.297 . S
O952 C939 1.236 . S
N953 Mn937 2.282 . S
N953 C954 1.328 . S
N953 C958 1.318 . S
C954 N953 1.328 . S
C954 C955 1.457 . S
C954 H959 0.929 . S
C955 C954 1.457 . S
C955 C956 1.291 . S
C955 H968 0.931 . S
C956 C955 1.291 . S
C956 C957 1.373 . S
C956 H969 0.929 . S
C957 C956 1.373 . S
C957 C958 1.396 . S
C957 C964 1.403 . S
C958 C948 1.476 . S
C958 N953 1.318 . S
C958 C957 1.396 . S
H959 C954 0.929 . S
O960 Mn936 2.385 . S
O960 C938 1.234 . S
O961 Mn936 2.209 . S
O961 Mn937 2.215 . S
O961 C938 1.283 . S
O962 Mn936 2.094 . S
O962 C940 1.240 . S
O963 Mn937 2.117 . S
O963 C940 1.264 . S
C964 C957 1.403 . S
C964 C965 1.399 . S
C964 H970 0.929 . S
C965 C945 1.449 . S
C965 C964 1.399 . S
C965 H971 0.930 . S
H966 C946 0.931 . S
H967 C947 0.930 . S
H968 C955 0.931 . S
H969 C956 0.929 . S
H970 C964 0.929 . S
H971 C965 0.930 . S
Mn972 O977 2.095 . S
Mn972 O987 2.142 1_455 S
Mn972 O988 2.297 . S
Mn972 O996 2.385 . S
Mn972 O997 2.209 . S
Mn972 O998 2.094 . S
Mn973 O978 2.121 . S
Mn973 N980 2.257 . S
Mn973 N989 2.282 . S
Mn973 O997 2.215 . S
Mn973 O999 2.117 . S
C974 O996 1.234 . S
C974 O997 1.283 . S
C975 O987 1.289 . S
C975 O988 1.236 1_655 S
C976 O998 1.240 . S
C976 O999 1.264 . S
O977 Mn972 2.095 . S
O977 C986 1.250 . S
O978 Mn973 2.121 . S
O978 C986 1.258 . S
C979 N980 1.326 . S
C979 C983 1.460 . S
C979 H985 0.929 . S
N980 Mn973 2.257 . S
N980 C979 1.326 . S
N980 C984 1.362 . S
C981 C982 1.258 . S
C981 C984 1.431 . S
C981 C1001 1.449 . S
C982 C981 1.258 . S
C982 C983 1.477 . S
C982 H1002 0.931 . S
C983 C979 1.460 . S
C983 C982 1.477 . S
C983 H1003 0.930 . S
C984 N980 1.362 . S
C984 C981 1.431 . S
C984 C994 1.476 . S
H985 C979 0.929 . S
C986 O977 1.250 . S
C986 O978 1.258 . S
O987 Mn972 2.142 1_655 S
O987 C975 1.289 . S
O988 Mn972 2.297 . S
O988 C975 1.236 1_455 S
N989 Mn973 2.282 . S
N989 C990 1.328 . S
N989 C994 1.318 . S
C990 N989 1.328 . S
C990 C991 1.457 . S
C990 H995 0.929 . S
C991 C990 1.457 . S
C991 C992 1.291 . S
C991 H1004 0.931 . S
C992 C991 1.291 . S
C992 C993 1.373 . S
C992 H1005 0.929 . S
C993 C992 1.373 . S
C993 C994 1.396 . S
C993 C1000 1.403 . S
C994 C984 1.476 . S
C994 N989 1.318 . S
C994 C993 1.396 . S
H995 C990 0.929 . S
O996 Mn972 2.385 . S
O996 C974 1.234 . S
O997 Mn972 2.209 . S
O997 Mn973 2.215 . S
O997 C974 1.283 . S
O998 Mn972 2.094 . S
O998 C976 1.240 . S
O999 Mn973 2.117 . S
O999 C976 1.264 . S
C1000 C993 1.403 . S
C1000 C1001 1.399 . S
C1000 H1006 0.929 . S
C1001 C981 1.449 . S
C1001 C1000 1.399 . S
C1001 H1007 0.930 . S
H1002 C982 0.931 . S
H1003 C983 0.930 . S
H1004 C991 0.931 . S
H1005 C992 0.929 . S
H1006 C1000 0.929 . S
H1007 C1001 0.930 . S
Mn1008 O1013 2.095 . S
Mn1008 O1023 2.162 . S
Mn1008 O1024 2.297 . S
Mn1008 O1032 2.385 . S
Mn1008 O1033 2.209 . S
Mn1008 O1034 2.094 . S
Mn1009 O1014 2.121 . S
Mn1009 N1016 2.257 . S
Mn1009 N1025 2.282 . S
Mn1009 O1033 2.215 . S
Mn1009 O1035 2.117 . S
C1010 O1032 1.234 . S
C1010 O1033 1.283 . S
C1011 O1023 1.281 . S
C1011 O1024 1.236 . S
C1012 O1034 1.240 . S
C1012 O1035 1.264 . S
O1013 Mn1008 2.095 . S
O1013 C1022 1.250 . S
O1014 Mn1009 2.121 . S
O1014 C1022 1.258 . S
C1015 N1016 1.326 . S
C1015 C1019 1.460 . S
C1015 H1021 0.929 . S
N1016 Mn1009 2.257 . S
N1016 C1015 1.326 . S
N1016 C1020 1.362 . S
C1017 C1018 1.258 . S
C1017 C1020 1.431 . S
C1017 C1037 1.449 . S
C1018 C1017 1.258 . S
C1018 C1019 1.477 . S
C1018 H1038 0.931 . S
C1019 C1015 1.460 . S
C1019 C1018 1.477 . S
C1019 H1039 0.930 . S
C1020 N1016 1.362 . S
C1020 C1017 1.431 . S
C1020 C1030 1.476 . S
H1021 C1015 0.929 . S
C1022 O1013 1.250 . S
C1022 O1014 1.258 . S
O1023 Mn1008 2.162 . S
O1023 C1011 1.281 . S
O1024 Mn1008 2.297 . S
O1024 C1011 1.236 . S
N1025 Mn1009 2.282 . S
N1025 C1026 1.328 . S
N1025 C1030 1.318 . S
C1026 N1025 1.328 . S
C1026 C1027 1.457 . S
C1026 H1031 0.929 . S
C1027 C1026 1.457 . S
C1027 C1028 1.291 . S
C1027 H1040 0.931 . S
C1028 C1027 1.291 . S
C1028 C1029 1.373 . S
C1028 H1041 0.929 . S
C1029 C1028 1.373 . S
C1029 C1030 1.396 . S
C1029 C1036 1.403 . S
C1030 C1020 1.476 . S
C1030 N1025 1.318 . S
C1030 C1029 1.396 . S
H1031 C1026 0.929 . S
O1032 Mn1008 2.385 . S
O1032 C1010 1.234 . S
O1033 Mn1008 2.209 . S
O1033 Mn1009 2.215 . S
O1033 C1010 1.283 . S
O1034 Mn1008 2.094 . S
O1034 C1012 1.240 . S
O1035 Mn1009 2.117 . S
O1035 C1012 1.264 . S
C1036 C1029 1.403 . S
C1036 C1037 1.399 . S
C1036 H1042 0.929 . S
C1037 C1017 1.449 . S
C1037 C1036 1.399 . S
C1037 H1043 0.930 . S
H1038 C1018 0.931 . S
H1039 C1019 0.930 . S
H1040 C1027 0.931 . S
H1041 C1028 0.929 . S
H1042 C1036 0.929 . S
H1043 C1037 0.930 . S
Mn1044 O1049 2.095 . S
Mn1044 O1059 2.142 1_455 S
Mn1044 O1060 2.297 . S
Mn1044 O1068 2.385 . S
Mn1044 O1069 2.209 . S
Mn1044 O1070 2.094 . S
Mn1045 O1050 2.121 . S
Mn1045 N1052 2.257 . S
Mn1045 N1061 2.282 . S
Mn1045 O1069 2.215 . S
Mn1045 O1071 2.117 . S
C1046 O1068 1.234 . S
C1046 O1069 1.283 . S
C1047 O1059 1.289 . S
C1047 O1060 1.236 1_655 S
C1048 O1070 1.240 . S
C1048 O1071 1.264 . S
O1049 Mn1044 2.095 . S
O1049 C1058 1.250 . S
O1050 Mn1045 2.121 . S
O1050 C1058 1.258 . S
C1051 N1052 1.326 . S
C1051 C1055 1.460 . S
C1051 H1057 0.929 . S
N1052 Mn1045 2.257 . S
N1052 C1051 1.326 . S
N1052 C1056 1.362 . S
C1053 C1054 1.258 . S
C1053 C1056 1.431 . S
C1053 C1073 1.449 . S
C1054 C1053 1.258 . S
C1054 C1055 1.477 . S
C1054 H1074 0.931 . S
C1055 C1051 1.460 . S
C1055 C1054 1.477 . S
C1055 H1075 0.930 . S
C1056 N1052 1.362 . S
C1056 C1053 1.431 . S
C1056 C1066 1.476 . S
H1057 C1051 0.929 . S
C1058 O1049 1.250 . S
C1058 O1050 1.258 . S
O1059 Mn1044 2.142 1_655 S
O1059 C1047 1.289 . S
O1060 Mn1044 2.297 . S
O1060 C1047 1.236 1_455 S
N1061 Mn1045 2.282 . S
N1061 C1062 1.328 . S
N1061 C1066 1.318 . S
C1062 N1061 1.328 . S
C1062 C1063 1.457 . S
C1062 H1067 0.929 . S
C1063 C1062 1.457 . S
C1063 C1064 1.291 . S
C1063 H1076 0.931 . S
C1064 C1063 1.291 . S
C1064 C1065 1.373 . S
C1064 H1077 0.929 . S
C1065 C1064 1.373 . S
C1065 C1066 1.396 . S
C1065 C1072 1.403 . S
C1066 C1056 1.476 . S
C1066 N1061 1.318 . S
C1066 C1065 1.396 . S
H1067 C1062 0.929 . S
O1068 Mn1044 2.385 . S
O1068 C1046 1.234 . S
O1069 Mn1044 2.209 . S
O1069 Mn1045 2.215 . S
O1069 C1046 1.283 . S
O1070 Mn1044 2.094 . S
O1070 C1048 1.240 . S
O1071 Mn1045 2.117 . S
O1071 C1048 1.264 . S
C1072 C1065 1.403 . S
C1072 C1073 1.399 . S
C1072 H1078 0.929 . S
C1073 C1053 1.449 . S
C1073 C1072 1.399 . S
C1073 H1079 0.930 . S
H1074 C1054 0.931 . S
H1075 C1055 0.930 . S
H1076 C1063 0.931 . S
H1077 C1064 0.929 . S
H1078 C1072 0.929 . S
H1079 C1073 0.930 . S
Mn1080 O1085 2.095 . S
Mn1080 O1095 2.162 . S
Mn1080 O1096 2.297 . S
Mn1080 O1104 2.385 . S
Mn1080 O1105 2.209 . S
Mn1080 O1106 2.094 . S
Mn1081 O1086 2.121 . S
Mn1081 N1088 2.257 . S
Mn1081 N1097 2.282 . S
Mn1081 O1105 2.215 . S
Mn1081 O1107 2.117 . S
C1082 O1104 1.234 . S
C1082 O1105 1.283 . S
C1083 O1095 1.281 . S
C1083 O1096 1.236 . S
C1084 O1106 1.240 . S
C1084 O1107 1.264 . S
O1085 Mn1080 2.095 . S
O1085 C1094 1.250 . S
O1086 Mn1081 2.121 . S
O1086 C1094 1.258 . S
C1087 N1088 1.326 . S
C1087 C1091 1.460 . S
C1087 H1093 0.929 . S
N1088 Mn1081 2.257 . S
N1088 C1087 1.326 . S
N1088 C1092 1.362 . S
C1089 C1090 1.258 . S
C1089 C1092 1.431 . S
C1089 C1109 1.449 . S
C1090 C1089 1.258 . S
C1090 C1091 1.477 . S
C1090 H1110 0.931 . S
C1091 C1087 1.460 . S
C1091 C1090 1.477 . S
C1091 H1111 0.930 . S
C1092 N1088 1.362 . S
C1092 C1089 1.431 . S
C1092 C1102 1.476 . S
H1093 C1087 0.929 . S
C1094 O1085 1.250 . S
C1094 O1086 1.258 . S
O1095 Mn1080 2.162 . S
O1095 C1083 1.281 . S
O1096 Mn1080 2.297 . S
O1096 C1083 1.236 . S
N1097 Mn1081 2.282 . S
N1097 C1098 1.328 . S
N1097 C1102 1.318 . S
C1098 N1097 1.328 . S
C1098 C1099 1.457 . S
C1098 H1103 0.929 . S
C1099 C1098 1.457 . S
C1099 C1100 1.291 . S
C1099 H1112 0.931 . S
C1100 C1099 1.291 . S
C1100 C1101 1.373 . S
C1100 H1113 0.929 . S
C1101 C1100 1.373 . S
C1101 C1102 1.396 . S
C1101 C1108 1.403 . S
C1102 C1092 1.476 . S
C1102 N1097 1.318 . S
C1102 C1101 1.396 . S
H1103 C1098 0.929 . S
O1104 Mn1080 2.385 . S
O1104 C1082 1.234 . S
O1105 Mn1080 2.209 . S
O1105 Mn1081 2.215 . S
O1105 C1082 1.283 . S
O1106 Mn1080 2.094 . S
O1106 C1084 1.240 . S
O1107 Mn1081 2.117 . S
O1107 C1084 1.264 . S
C1108 C1101 1.403 . S
C1108 C1109 1.399 . S
C1108 H1114 0.929 . S
C1109 C1089 1.449 . S
C1109 C1108 1.399 . S
C1109 H1115 0.930 . S
H1110 C1090 0.931 . S
H1111 C1091 0.930 . S
H1112 C1099 0.931 . S
H1113 C1100 0.929 . S
H1114 C1108 0.929 . S
H1115 C1109 0.930 . S
Mn1116 O1121 2.095 . S
Mn1116 O1131 2.162 . S
Mn1116 O1132 2.297 . S
Mn1116 O1140 2.385 . S
Mn1116 O1141 2.209 . S
Mn1116 O1142 2.094 . S
Mn1117 O1122 2.121 . S
Mn1117 N1124 2.257 . S
Mn1117 N1133 2.282 . S
Mn1117 O1141 2.215 . S
Mn1117 O1143 2.117 . S
C1118 O1140 1.234 . S
C1118 O1141 1.283 . S
C1119 O1131 1.281 . S
C1119 O1132 1.236 . S
C1120 O1142 1.240 . S
C1120 O1143 1.264 . S
O1121 Mn1116 2.095 . S
O1121 C1130 1.250 . S
O1122 Mn1117 2.121 . S
O1122 C1130 1.258 . S
C1123 N1124 1.326 . S
C1123 C1127 1.460 . S
C1123 H1129 0.929 . S
N1124 Mn1117 2.257 . S
N1124 C1123 1.326 . S
N1124 C1128 1.362 . S
C1125 C1126 1.258 . S
C1125 C1128 1.431 . S
C1125 C1145 1.449 . S
C1126 C1125 1.258 . S
C1126 C1127 1.477 . S
C1126 H1146 0.931 . S
C1127 C1123 1.460 . S
C1127 C1126 1.477 . S
C1127 H1147 0.930 . S
C1128 N1124 1.362 . S
C1128 C1125 1.431 . S
C1128 C1138 1.476 . S
H1129 C1123 0.929 . S
C1130 O1121 1.250 . S
C1130 O1122 1.258 . S
O1131 Mn1116 2.162 . S
O1131 C1119 1.281 . S
O1132 Mn1116 2.297 . S
O1132 C1119 1.236 . S
N1133 Mn1117 2.282 . S
N1133 C1134 1.328 . S
N1133 C1138 1.318 . S
C1134 N1133 1.328 . S
C1134 C1135 1.457 . S
C1134 H1139 0.929 . S
C1135 C1134 1.457 . S
C1135 C1136 1.291 . S
C1135 H1148 0.931 . S
C1136 C1135 1.291 . S
C1136 C1137 1.373 . S
C1136 H1149 0.929 . S
C1137 C1136 1.373 . S
C1137 C1138 1.396 . S
C1137 C1144 1.403 . S
C1138 C1128 1.476 . S
C1138 N1133 1.318 . S
C1138 C1137 1.396 . S
H1139 C1134 0.929 . S
O1140 Mn1116 2.385 . S
O1140 C1118 1.234 . S
O1141 Mn1116 2.209 . S
O1141 Mn1117 2.215 . S
O1141 C1118 1.283 . S
O1142 Mn1116 2.094 . S
O1142 C1120 1.240 . S
O1143 Mn1117 2.117 . S
O1143 C1120 1.264 . S
C1144 C1137 1.403 . S
C1144 C1145 1.399 . S
C1144 H1150 0.929 . S
C1145 C1125 1.449 . S
C1145 C1144 1.399 . S
C1145 H1151 0.930 . S
H1146 C1126 0.931 . S
H1147 C1127 0.930 . S
H1148 C1135 0.931 . S
H1149 C1136 0.929 . S
H1150 C1144 0.929 . S
H1151 C1145 0.930 . S
H1152 C1160 0.950 . S
H1153 C1165 0.950 . S
H1154 C1162 0.950 . S
H1155 C1164 0.950 . S
H1156 C1166 0.950 . S
H1157 C1168 0.950 . S
H1158 C1170 0.950 . S
H1159 C1171 0.950 . S
C1160 H1152 0.950 . S
C1160 C1161 1.386 . S
C1160 C1162 1.391 . S
C1161 C1160 1.386 . S
C1161 C1165 1.393 . S
C1162 H1154 0.950 . S
C1162 C1160 1.391 . S
C1162 C1163 1.400 . S
C1163 C1162 1.400 . S
C1163 C1164 1.398 . S
C1163 C1169 1.491 . S
C1164 H1155 0.950 . S
C1164 C1163 1.398 . S
C1164 C1165 1.391 . S
C1165 H1153 0.950 . S
C1165 C1161 1.393 . S
C1165 C1164 1.391 . S
C1166 H1156 0.950 . S
C1166 C1167 1.386 . S
C1166 C1168 1.391 . S
C1167 C1166 1.386 . S
C1167 C1171 1.393 . S
C1168 H1157 0.950 . S
C1168 C1166 1.391 . S
C1168 C1169 1.400 . S
C1169 C1163 1.491 . S
C1169 C1168 1.400 . S
C1169 C1170 1.398 . S
C1170 H1158 0.950 . S
C1170 C1169 1.398 . S
C1170 C1171 1.391 . S
C1171 H1159 0.950 . S
C1171 C1167 1.393 . S
C1171 C1170 1.391 . S
H1172 C1180 0.950 . S
H1173 C1185 0.950 . S
H1174 C1182 0.950 . S
H1175 C1184 0.950 . S
H1176 C1186 0.950 . S
H1177 C1188 0.950 . S
H1178 C1190 0.950 . S
H1179 C1191 0.950 . S
C1180 H1172 0.950 . S
C1180 C1181 1.386 . S
C1180 C1182 1.391 . S
C1181 C1180 1.386 . S
C1181 C1185 1.393 . S
C1182 H1174 0.950 . S
C1182 C1180 1.391 . S
C1182 C1183 1.400 . S
C1183 C1182 1.400 . S
C1183 C1184 1.398 . S
C1183 C1189 1.491 . S
C1184 H1175 0.950 . S
C1184 C1183 1.398 . S
C1184 C1185 1.391 . S
C1185 H1173 0.950 . S
C1185 C1181 1.393 . S
C1185 C1184 1.391 . S
C1186 H1176 0.950 . S
C1186 C1187 1.386 . S
C1186 C1188 1.391 . S
C1187 C1186 1.386 . S
C1187 C1191 1.393 . S
C1188 H1177 0.950 . S
C1188 C1186 1.391 . S
C1188 C1189 1.400 . S
C1189 C1183 1.491 . S
C1189 C1188 1.400 . S
C1189 C1190 1.398 . S
C1190 H1178 0.950 . S
C1190 C1189 1.398 . S
C1190 C1191 1.391 . S
C1191 H1179 0.950 . S
C1191 C1187 1.393 . S
C1191 C1190 1.391 . S
H1192 C1200 0.950 . S
H1193 C1205 0.950 . S
H1194 C1202 0.950 . S
H1195 C1204 0.950 . S
H1196 C1206 0.950 . S
H1197 C1208 0.950 . S
H1198 C1210 0.950 . S
H1199 C1211 0.950 . S
C1200 H1192 0.950 . S
C1200 C1201 1.386 . S
C1200 C1202 1.391 . S
C1201 C1200 1.386 . S
C1201 C1205 1.393 . S
C1202 H1194 0.950 . S
C1202 C1200 1.391 . S
C1202 C1203 1.400 . S
C1203 C1202 1.400 . S
C1203 C1204 1.398 . S
C1203 C1209 1.491 . S
C1204 H1195 0.950 . S
C1204 C1203 1.398 . S
C1204 C1205 1.391 . S
C1205 H1193 0.950 . S
C1205 C1201 1.393 . S
C1205 C1204 1.391 . S
C1206 H1196 0.950 . S
C1206 C1207 1.386 . S
C1206 C1208 1.391 . S
C1207 C1206 1.386 . S
C1207 C1211 1.393 . S
C1208 H1197 0.950 . S
C1208 C1206 1.391 . S
C1208 C1209 1.400 . S
C1209 C1203 1.491 . S
C1209 C1208 1.400 . S
C1209 C1210 1.398 . S
C1210 H1198 0.950 . S
C1210 C1209 1.398 . S
C1210 C1211 1.391 . S
C1211 H1199 0.950 . S
C1211 C1207 1.393 . S
C1211 C1210 1.391 . S
H1212 C1220 0.950 . S
H1213 C1225 0.950 . S
H1214 C1222 0.950 . S
H1215 C1224 0.950 . S
H1216 C1226 0.950 . S
H1217 C1228 0.950 . S
H1218 C1230 0.950 . S
H1219 C1231 0.950 . S
C1220 H1212 0.950 . S
C1220 C1221 1.386 . S
C1220 C1222 1.391 . S
C1221 C1220 1.386 . S
C1221 C1225 1.393 . S
C1222 H1214 0.950 . S
C1222 C1220 1.391 . S
C1222 C1223 1.400 . S
C1223 C1222 1.400 . S
C1223 C1224 1.398 . S
C1223 C1229 1.491 . S
C1224 H1215 0.950 . S
C1224 C1223 1.398 . S
C1224 C1225 1.391 . S
C1225 H1213 0.950 . S
C1225 C1221 1.393 . S
C1225 C1224 1.391 . S
C1226 H1216 0.950 . S
C1226 C1227 1.386 . S
C1226 C1228 1.391 . S
C1227 C1226 1.386 . S
C1227 C1231 1.393 . S
C1228 H1217 0.950 . S
C1228 C1226 1.391 . S
C1228 C1229 1.400 . S
C1229 C1223 1.491 . S
C1229 C1228 1.400 . S
C1229 C1230 1.398 . S
C1230 H1218 0.950 . S
C1230 C1229 1.398 . S
C1230 C1231 1.391 . S
C1231 H1219 0.950 . S
C1231 C1227 1.393 . S
C1231 C1230 1.391 . S
H1232 C1240 0.950 . S
H1233 C1245 0.950 . S
H1234 C1242 0.950 . S
H1235 C1244 0.950 . S
H1236 C1246 0.950 . S
H1237 C1248 0.950 . S
H1238 C1250 0.950 . S
H1239 C1251 0.950 . S
C1240 H1232 0.950 . S
C1240 C1241 1.386 . S
C1240 C1242 1.391 . S
C1241 C1240 1.386 . S
C1241 C1245 1.393 . S
C1242 H1234 0.950 . S
C1242 C1240 1.391 . S
C1242 C1243 1.400 . S
C1243 C1242 1.400 . S
C1243 C1244 1.398 . S
C1243 C1249 1.491 . S
C1244 H1235 0.950 . S
C1244 C1243 1.398 . S
C1244 C1245 1.391 . S
C1245 H1233 0.950 . S
C1245 C1241 1.393 . S
C1245 C1244 1.391 . S
C1246 H1236 0.950 . S
C1246 C1247 1.386 . S
C1246 C1248 1.391 . S
C1247 C1246 1.386 . S
C1247 C1251 1.393 . S
C1248 H1237 0.950 . S
C1248 C1246 1.391 . S
C1248 C1249 1.400 . S
C1249 C1243 1.491 . S
C1249 C1248 1.400 . S
C1249 C1250 1.398 . S
C1250 H1238 0.950 . S
C1250 C1249 1.398 . S
C1250 C1251 1.391 . S
C1251 H1239 0.950 . S
C1251 C1247 1.393 . S
C1251 C1250 1.391 . S
H1252 C1260 0.950 . S
H1253 C1265 0.950 . S
H1254 C1262 0.950 . S
H1255 C1264 0.950 . S
H1256 C1266 0.950 . S
H1257 C1268 0.950 . S
H1258 C1270 0.950 . S
H1259 C1271 0.950 . S
C1260 H1252 0.950 . S
C1260 C1261 1.386 . S
C1260 C1262 1.391 . S
C1261 C1260 1.386 . S
C1261 C1265 1.393 . S
C1262 H1254 0.950 . S
C1262 C1260 1.391 . S
C1262 C1263 1.400 . S
C1263 C1262 1.400 . S
C1263 C1264 1.398 . S
C1263 C1269 1.491 . S
C1264 H1255 0.950 . S
C1264 C1263 1.398 . S
C1264 C1265 1.391 . S
C1265 H1253 0.950 . S
C1265 C1261 1.393 . S
C1265 C1264 1.391 . S
C1266 H1256 0.950 . S
C1266 C1267 1.386 . S
C1266 C1268 1.391 . S
C1267 C1266 1.386 . S
C1267 C1271 1.393 . S
C1268 H1257 0.950 . S
C1268 C1266 1.391 . S
C1268 C1269 1.400 . S
C1269 C1263 1.491 . S
C1269 C1268 1.400 . S
C1269 C1270 1.398 . S
C1270 H1258 0.950 . S
C1270 C1269 1.398 . S
C1270 C1271 1.391 . S
C1271 H1259 0.950 . S
C1271 C1267 1.393 . S
C1271 C1270 1.391 . S
H1272 C1280 0.950 . S
H1273 C1285 0.950 . S
H1274 C1282 0.950 . S
H1275 C1284 0.950 . S
H1276 C1286 0.950 . S
H1277 C1288 0.950 . S
H1278 C1290 0.950 . S
H1279 C1291 0.950 . S
C1280 H1272 0.950 . S
C1280 C1281 1.386 . S
C1280 C1282 1.391 . S
C1281 C1280 1.386 . S
C1281 C1285 1.393 . S
C1282 H1274 0.950 . S
C1282 C1280 1.391 . S
C1282 C1283 1.400 . S
C1283 C1282 1.400 . S
C1283 C1284 1.398 . S
C1283 C1289 1.491 . S
C1284 H1275 0.950 . S
C1284 C1283 1.398 . S
C1284 C1285 1.391 . S
C1285 H1273 0.950 . S
C1285 C1281 1.393 . S
C1285 C1284 1.391 . S
C1286 H1276 0.950 . S
C1286 C1287 1.386 . S
C1286 C1288 1.391 . S
C1287 C1286 1.386 . S
C1287 C1291 1.393 . S
C1288 H1277 0.950 . S
C1288 C1286 1.391 . S
C1288 C1289 1.400 . S
C1289 C1283 1.491 . S
C1289 C1288 1.400 . S
C1289 C1290 1.398 . S
C1290 H1278 0.950 . S
C1290 C1289 1.398 . S
C1290 C1291 1.391 . S
C1291 H1279 0.950 . S
C1291 C1287 1.393 . S
C1291 C1290 1.391 . S
H1292 C1300 0.950 . S
H1293 C1305 0.950 . S
H1294 C1302 0.950 . S
H1295 C1304 0.950 . S
H1296 C1306 0.950 . S
H1297 C1308 0.950 . S
H1298 C1310 0.950 . S
H1299 C1311 0.950 . S
C1300 H1292 0.950 . S
C1300 C1301 1.386 . S
C1300 C1302 1.391 . S
C1301 C1300 1.386 . S
C1301 C1305 1.393 . S
C1302 H1294 0.950 . S
C1302 C1300 1.391 . S
C1302 C1303 1.400 . S
C1303 C1302 1.400 . S
C1303 C1304 1.398 . S
C1303 C1309 1.491 . S
C1304 H1295 0.950 . S
C1304 C1303 1.398 . S
C1304 C1305 1.391 . S
C1305 H1293 0.950 . S
C1305 C1301 1.393 . S
C1305 C1304 1.391 . S
C1306 H1296 0.950 . S
C1306 C1307 1.386 . S
C1306 C1308 1.391 . S
C1307 C1306 1.386 . S
C1307 C1311 1.393 . S
C1308 H1297 0.950 . S
C1308 C1306 1.391 . S
C1308 C1309 1.400 . S
C1309 C1303 1.491 . S
C1309 C1308 1.400 . S
C1309 C1310 1.398 . S
C1310 H1298 0.950 . S
C1310 C1309 1.398 . S
C1310 C1311 1.391 . S
C1311 H1299 0.950 . S
C1311 C1307 1.393 . S
C1311 C1310 1.391 . S
H1312 C1320 0.950 . S
H1313 C1325 0.950 . S
H1314 C1322 0.950 . S
H1315 C1324 0.950 . S
H1316 C1326 0.950 . S
H1317 C1328 0.950 . S
H1318 C1330 0.950 . S
H1319 C1331 0.950 . S
C1320 H1312 0.950 . S
C1320 C1321 1.386 . S
C1320 C1322 1.391 . S
C1321 C1320 1.386 . S
C1321 C1325 1.393 . S
C1322 H1314 0.950 . S
C1322 C1320 1.391 . S
C1322 C1323 1.400 . S
C1323 C1322 1.400 . S
C1323 C1324 1.398 . S
C1323 C1329 1.491 . S
C1324 H1315 0.950 . S
C1324 C1323 1.398 . S
C1324 C1325 1.391 . S
C1325 H1313 0.950 . S
C1325 C1321 1.393 . S
C1325 C1324 1.391 . S
C1326 H1316 0.950 . S
C1326 C1327 1.386 . S
C1326 C1328 1.391 . S
C1327 C1326 1.386 . S
C1327 C1331 1.393 . S
C1328 H1317 0.950 . S
C1328 C1326 1.391 . S
C1328 C1329 1.400 . S
C1329 C1323 1.491 . S
C1329 C1328 1.400 . S
C1329 C1330 1.398 . S
C1330 H1318 0.950 . S
C1330 C1329 1.398 . S
C1330 C1331 1.391 . S
C1331 H1319 0.950 . S
C1331 C1327 1.393 . S
C1331 C1330 1.391 . S
H1332 C1340 0.950 . S
H1333 C1345 0.950 . S
H1334 C1342 0.950 . S
H1335 C1344 0.950 . S
H1336 C1346 0.950 . S
H1337 C1348 0.950 . S
H1338 C1350 0.950 . S
H1339 C1351 0.950 . S
C1340 H1332 0.950 . S
C1340 C1341 1.386 . S
C1340 C1342 1.391 . S
C1341 C1340 1.386 . S
C1341 C1345 1.393 . S
C1342 H1334 0.950 . S
C1342 C1340 1.391 . S
C1342 C1343 1.400 . S
C1343 C1342 1.400 . S
C1343 C1344 1.398 . S
C1343 C1349 1.491 . S
C1344 H1335 0.950 . S
C1344 C1343 1.398 . S
C1344 C1345 1.391 . S
C1345 H1333 0.950 . S
C1345 C1341 1.393 . S
C1345 C1344 1.391 . S
C1346 H1336 0.950 . S
C1346 C1347 1.386 . S
C1346 C1348 1.391 . S
C1347 C1346 1.386 . S
C1347 C1351 1.393 . S
C1348 H1337 0.950 . S
C1348 C1346 1.391 . S
C1348 C1349 1.400 . S
C1349 C1343 1.491 . S
C1349 C1348 1.400 . S
C1349 C1350 1.398 . S
C1350 H1338 0.950 . S
C1350 C1349 1.398 . S
C1350 C1351 1.391 . S
C1351 H1339 0.950 . S
C1351 C1347 1.393 . S
C1351 C1350 1.391 . S
H1352 C1360 0.950 . S
H1353 C1365 0.950 . S
H1354 C1362 0.950 . S
H1355 C1364 0.950 . S
H1356 C1366 0.950 . S
H1357 C1368 0.950 . S
H1358 C1370 0.950 . S
H1359 C1371 0.950 . S
C1360 H1352 0.950 . S
C1360 C1361 1.386 . S
C1360 C1362 1.391 . S
C1361 C1360 1.386 . S
C1361 C1365 1.393 . S
C1362 H1354 0.950 . S
C1362 C1360 1.391 . S
C1362 C1363 1.400 . S
C1363 C1362 1.400 . S
C1363 C1364 1.398 . S
C1363 C1369 1.491 . S
C1364 H1355 0.950 . S
C1364 C1363 1.398 . S
C1364 C1365 1.391 . S
C1365 H1353 0.950 . S
C1365 C1361 1.393 . S
C1365 C1364 1.391 . S
C1366 H1356 0.950 . S
C1366 C1367 1.386 . S
C1366 C1368 1.391 . S
C1367 C1366 1.386 . S
C1367 C1371 1.393 . S
C1368 H1357 0.950 . S
C1368 C1366 1.391 . S
C1368 C1369 1.400 . S
C1369 C1363 1.491 . S
C1369 C1368 1.400 . S
C1369 C1370 1.398 . S
C1370 H1358 0.950 . S
C1370 C1369 1.398 . S
C1370 C1371 1.391 . S
C1371 H1359 0.950 . S
C1371 C1367 1.393 . S
C1371 C1370 1.391 . S
H1372 C1380 0.950 . S
H1373 C1385 0.950 . S
H1374 C1382 0.950 . S
H1375 C1384 0.950 . S
H1376 C1386 0.950 . S
H1377 C1388 0.950 . S
H1378 C1390 0.950 . S
H1379 C1391 0.950 . S
C1380 H1372 0.950 . S
C1380 C1381 1.386 . S
C1380 C1382 1.391 . S
C1381 C1380 1.386 . S
C1381 C1385 1.393 . S
C1382 H1374 0.950 . S
C1382 C1380 1.391 . S
C1382 C1383 1.400 . S
C1383 C1382 1.400 . S
C1383 C1384 1.398 . S
C1383 C1389 1.491 . S
C1384 H1375 0.950 . S
C1384 C1383 1.398 . S
C1384 C1385 1.391 . S
C1385 H1373 0.950 . S
C1385 C1381 1.393 . S
C1385 C1384 1.391 . S
C1386 H1376 0.950 . S
C1386 C1387 1.386 . S
C1386 C1388 1.391 . S
C1387 C1386 1.386 . S
C1387 C1391 1.393 . S
C1388 H1377 0.950 . S
C1388 C1386 1.391 . S
C1388 C1389 1.400 . S
C1389 C1383 1.491 . S
C1389 C1388 1.400 . S
C1389 C1390 1.398 . S
C1390 H1378 0.950 . S
C1390 C1389 1.398 . S
C1390 C1391 1.391 . S
C1391 H1379 0.950 . S
C1391 C1387 1.393 . S
C1391 C1390 1.391 . S
H1392 C1400 0.950 . S
H1393 C1405 0.950 . S
H1394 C1402 0.950 . S
H1395 C1404 0.950 . S
H1396 C1406 0.950 . S
H1397 C1408 0.950 . S
H1398 C1410 0.950 . S
H1399 C1411 0.950 . S
C1400 H1392 0.950 . S
C1400 C1401 1.386 . S
C1400 C1402 1.391 . S
C1401 C1400 1.386 . S
C1401 C1405 1.393 . S
C1402 H1394 0.950 . S
C1402 C1400 1.391 . S
C1402 C1403 1.400 . S
C1403 C1402 1.400 . S
C1403 C1404 1.398 . S
C1403 C1409 1.491 . S
C1404 H1395 0.950 . S
C1404 C1403 1.398 . S
C1404 C1405 1.391 . S
C1405 H1393 0.950 . S
C1405 C1401 1.393 . S
C1405 C1404 1.391 . S
C1406 H1396 0.950 . S
C1406 C1407 1.386 . S
C1406 C1408 1.391 . S
C1407 C1406 1.386 . S
C1407 C1411 1.393 . S
C1408 H1397 0.950 . S
C1408 C1406 1.391 . S
C1408 C1409 1.400 . S
C1409 C1403 1.491 . S
C1409 C1408 1.400 . S
C1409 C1410 1.398 . S
C1410 H1398 0.950 . S
C1410 C1409 1.398 . S
C1410 C1411 1.391 . S
C1411 H1399 0.950 . S
C1411 C1407 1.393 . S
C1411 C1410 1.391 . S
H1412 C1420 0.950 . S
H1413 C1425 0.950 . S
H1414 C1422 0.950 . S
H1415 C1424 0.950 . S
H1416 C1426 0.950 . S
H1417 C1428 0.950 . S
H1418 C1430 0.950 . S
H1419 C1431 0.950 . S
C1420 H1412 0.950 . S
C1420 C1421 1.386 . S
C1420 C1422 1.391 . S
C1421 C1420 1.386 . S
C1421 C1425 1.393 . S
C1422 H1414 0.950 . S
C1422 C1420 1.391 . S
C1422 C1423 1.400 . S
C1423 C1422 1.400 . S
C1423 C1424 1.398 . S
C1423 C1429 1.491 . S
C1424 H1415 0.950 . S
C1424 C1423 1.398 . S
C1424 C1425 1.391 . S
C1425 H1413 0.950 . S
C1425 C1421 1.393 . S
C1425 C1424 1.391 . S
C1426 H1416 0.950 . S
C1426 C1427 1.386 . S
C1426 C1428 1.391 . S
C1427 C1426 1.386 . S
C1427 C1431 1.393 . S
C1428 H1417 0.950 . S
C1428 C1426 1.391 . S
C1428 C1429 1.400 . S
C1429 C1423 1.491 . S
C1429 C1428 1.400 . S
C1429 C1430 1.398 . S
C1430 H1418 0.950 . S
C1430 C1429 1.398 . S
C1430 C1431 1.391 . S
C1431 H1419 0.950 . S
C1431 C1427 1.393 . S
C1431 C1430 1.391 . S
H1432 C1440 0.950 . S
H1433 C1445 0.950 . S
H1434 C1442 0.950 . S
H1435 C1444 0.950 . S
H1436 C1446 0.950 . S
H1437 C1448 0.950 . S
H1438 C1450 0.950 . S
H1439 C1451 0.950 . S
C1440 H1432 0.950 . S
C1440 C1441 1.386 . S
C1440 C1442 1.391 . S
C1441 C1440 1.386 . S
C1441 C1445 1.393 . S
C1442 H1434 0.950 . S
C1442 C1440 1.391 . S
C1442 C1443 1.400 . S
C1443 C1442 1.400 . S
C1443 C1444 1.398 . S
C1443 C1449 1.491 . S
C1444 H1435 0.950 . S
C1444 C1443 1.398 . S
C1444 C1445 1.391 . S
C1445 H1433 0.950 . S
C1445 C1441 1.393 . S
C1445 C1444 1.391 . S
C1446 H1436 0.950 . S
C1446 C1447 1.386 . S
C1446 C1448 1.391 . S
C1447 C1446 1.386 . S
C1447 C1451 1.393 . S
C1448 H1437 0.950 . S
C1448 C1446 1.391 . S
C1448 C1449 1.400 . S
C1449 C1443 1.491 . S
C1449 C1448 1.400 . S
C1449 C1450 1.398 . S
C1450 H1438 0.950 . S
C1450 C1449 1.398 . S
C1450 C1451 1.391 . S
C1451 H1439 0.950 . S
C1451 C1447 1.393 . S
C1451 C1450 1.391 . S
H1452 C1460 0.950 . S
H1453 C1465 0.950 . S
H1454 C1462 0.950 . S
H1455 C1464 0.950 . S
H1456 C1466 0.950 . S
H1457 C1468 0.950 . S
H1458 C1470 0.950 . S
H1459 C1471 0.950 . S
C1460 H1452 0.950 . S
C1460 C1461 1.386 . S
C1460 C1462 1.391 . S
C1461 C1460 1.386 . S
C1461 C1465 1.393 . S
C1462 H1454 0.950 . S
C1462 C1460 1.391 . S
C1462 C1463 1.400 . S
C1463 C1462 1.400 . S
C1463 C1464 1.398 . S
C1463 C1469 1.491 . S
C1464 H1455 0.950 . S
C1464 C1463 1.398 . S
C1464 C1465 1.391 . S
C1465 H1453 0.950 . S
C1465 C1461 1.393 . S
C1465 C1464 1.391 . S
C1466 H1456 0.950 . S
C1466 C1467 1.386 . S
C1466 C1468 1.391 . S
C1467 C1466 1.386 . S
C1467 C1471 1.393 . S
C1468 H1457 0.950 . S
C1468 C1466 1.391 . S
C1468 C1469 1.400 . S
C1469 C1463 1.491 . S
C1469 C1468 1.400 . S
C1469 C1470 1.398 . S
C1470 H1458 0.950 . S
C1470 C1469 1.398 . S
C1470 C1471 1.391 . S
C1471 H1459 0.950 . S
C1471 C1467 1.393 . S
C1471 C1470 1.391 . S
H1472 C1480 0.950 . S
H1473 C1485 0.950 . S
H1474 C1482 0.950 . S
H1475 C1484 0.950 . S
H1476 C1486 0.950 . S
H1477 C1488 0.950 . S
H1478 C1490 0.950 . S
H1479 C1491 0.950 . S
C1480 H1472 0.950 . S
C1480 C1481 1.386 . S
C1480 C1482 1.391 . S
C1481 C1480 1.386 . S
C1481 C1485 1.393 . S
C1482 H1474 0.950 . S
C1482 C1480 1.391 . S
C1482 C1483 1.400 . S
C1483 C1482 1.400 . S
C1483 C1484 1.398 . S
C1483 C1489 1.491 . S
C1484 H1475 0.950 . S
C1484 C1483 1.398 . S
C1484 C1485 1.391 . S
C1485 H1473 0.950 . S
C1485 C1481 1.393 . S
C1485 C1484 1.391 . S
C1486 H1476 0.950 . S
C1486 C1487 1.386 . S
C1486 C1488 1.391 . S
C1487 C1486 1.386 . S
C1487 C1491 1.393 . S
C1488 H1477 0.950 . S
C1488 C1486 1.391 . S
C1488 C1489 1.400 . S
C1489 C1483 1.491 . S
C1489 C1488 1.400 . S
C1489 C1490 1.398 . S
C1490 H1478 0.950 . S
C1490 C1489 1.398 . S
C1490 C1491 1.391 . S
C1491 H1479 0.950 . S
C1491 C1487 1.393 . S
C1491 C1490 1.391 . S
H1492 C1500 0.950 . S
H1493 C1505 0.950 . S
H1494 C1502 0.950 . S
H1495 C1504 0.950 . S
H1496 C1506 0.950 . S
H1497 C1508 0.950 . S
H1498 C1510 0.950 . S
H1499 C1511 0.950 . S
C1500 H1492 0.950 . S
C1500 C1501 1.386 . S
C1500 C1502 1.391 . S
C1501 C1500 1.386 . S
C1501 C1505 1.393 . S
C1502 H1494 0.950 . S
C1502 C1500 1.391 . S
C1502 C1503 1.400 . S
C1503 C1502 1.400 . S
C1503 C1504 1.398 . S
C1503 C1509 1.491 . S
C1504 H1495 0.950 . S
C1504 C1503 1.398 . S
C1504 C1505 1.391 . S
C1505 H1493 0.950 . S
C1505 C1501 1.393 . S
C1505 C1504 1.391 . S
C1506 H1496 0.950 . S
C1506 C1507 1.386 . S
C1506 C1508 1.391 . S
C1507 C1506 1.386 . S
C1507 C1511 1.393 . S
C1508 H1497 0.950 . S
C1508 C1506 1.391 . S
C1508 C1509 1.400 . S
C1509 C1503 1.491 . S
C1509 C1508 1.400 . S
C1509 C1510 1.398 . S
C1510 H1498 0.950 . S
C1510 C1509 1.398 . S
C1510 C1511 1.391 . S
C1511 H1499 0.950 . S
C1511 C1507 1.393 . S
C1511 C1510 1.391 . S
H1512 C1520 0.950 . S
H1513 C1525 0.950 . S
H1514 C1522 0.950 . S
H1515 C1524 0.950 . S
H1516 C1526 0.950 . S
H1517 C1528 0.950 . S
H1518 C1530 0.950 . S
H1519 C1531 0.950 . S
C1520 H1512 0.950 . S
C1520 C1521 1.386 . S
C1520 C1522 1.391 . S
C1521 C1520 1.386 . S
C1521 C1525 1.393 . S
C1522 H1514 0.950 . S
C1522 C1520 1.391 . S
C1522 C1523 1.400 . S
C1523 C1522 1.400 . S
C1523 C1524 1.398 . S
C1523 C1529 1.491 . S
C1524 H1515 0.950 . S
C1524 C1523 1.398 . S
C1524 C1525 1.391 . S
C1525 H1513 0.950 . S
C1525 C1521 1.393 . S
C1525 C1524 1.391 . S
C1526 H1516 0.950 . S
C1526 C1527 1.386 . S
C1526 C1528 1.391 . S
C1527 C1526 1.386 . S
C1527 C1531 1.393 . S
C1528 H1517 0.950 . S
C1528 C1526 1.391 . S
C1528 C1529 1.400 . S
C1529 C1523 1.491 . S
C1529 C1528 1.400 . S
C1529 C1530 1.398 . S
C1530 H1518 0.950 . S
C1530 C1529 1.398 . S
C1530 C1531 1.391 . S
C1531 H1519 0.950 . S
C1531 C1527 1.393 . S
C1531 C1530 1.391 . S
H1532 C1540 0.950 . S
H1533 C1545 0.950 . S
H1534 C1542 0.950 . S
H1535 C1544 0.950 . S
H1536 C1546 0.950 . S
H1537 C1548 0.950 . S
H1538 C1550 0.950 . S
H1539 C1551 0.950 . S
C1540 H1532 0.950 . S
C1540 C1541 1.386 . S
C1540 C1542 1.391 . S
C1541 C1540 1.386 . S
C1541 C1545 1.393 . S
C1542 H1534 0.950 . S
C1542 C1540 1.391 . S
C1542 C1543 1.400 . S
C1543 C1542 1.400 . S
C1543 C1544 1.398 . S
C1543 C1549 1.491 . S
C1544 H1535 0.950 . S
C1544 C1543 1.398 . S
C1544 C1545 1.391 . S
C1545 H1533 0.950 . S
C1545 C1541 1.393 . S
C1545 C1544 1.391 . S
C1546 H1536 0.950 . S
C1546 C1547 1.386 . S
C1546 C1548 1.391 . S
C1547 C1546 1.386 . S
C1547 C1551 1.393 . S
C1548 H1537 0.950 . S
C1548 C1546 1.391 . S
C1548 C1549 1.400 . S
C1549 C1543 1.491 . S
C1549 C1548 1.400 . S
C1549 C1550 1.398 . S
C1550 H1538 0.950 . S
C1550 C1549 1.398 . S
C1550 C1551 1.391 . S
C1551 H1539 0.950 . S
C1551 C1547 1.393 . S
C1551 C1550 1.391 . S
H1552 C1560 0.950 . S
H1553 C1565 0.950 . S
H1554 C1562 0.950 . S
H1555 C1564 0.950 . S
H1556 C1566 0.950 . S
H1557 C1568 0.950 . S
H1558 C1570 0.950 . S
H1559 C1571 0.950 . S
C1560 H1552 0.950 . S
C1560 C1561 1.386 . S
C1560 C1562 1.391 . S
C1561 C1560 1.386 . S
C1561 C1565 1.393 . S
C1562 H1554 0.950 . S
C1562 C1560 1.391 . S
C1562 C1563 1.400 . S
C1563 C1562 1.400 . S
C1563 C1564 1.398 . S
C1563 C1569 1.491 . S
C1564 H1555 0.950 . S
C1564 C1563 1.398 . S
C1564 C1565 1.391 . S
C1565 H1553 0.950 . S
C1565 C1561 1.393 . S
C1565 C1564 1.391 . S
C1566 H1556 0.950 . S
C1566 C1567 1.386 . S
C1566 C1568 1.391 . S
C1567 C1566 1.386 . S
C1567 C1571 1.393 . S
C1568 H1557 0.950 . S
C1568 C1566 1.391 . S
C1568 C1569 1.400 . S
C1569 C1563 1.491 . S
C1569 C1568 1.400 . S
C1569 C1570 1.398 . S
C1570 H1558 0.950 . S
C1570 C1569 1.398 . S
C1570 C1571 1.391 . S
C1571 H1559 0.950 . S
C1571 C1567 1.393 . S
C1571 C1570 1.391 . S
H1572 C1580 0.950 . S
H1573 C1585 0.950 . S
H1574 C1582 0.950 . S
H1575 C1584 0.950 . S
H1576 C1586 0.950 . S
H1577 C1588 0.950 . S
H1578 C1590 0.950 . S
H1579 C1591 0.950 . S
C1580 H1572 0.950 . S
C1580 C1581 1.386 . S
C1580 C1582 1.391 . S
C1581 C1580 1.386 . S
C1581 C1585 1.393 . S
C1582 H1574 0.950 . S
C1582 C1580 1.391 . S
C1582 C1583 1.400 . S
C1583 C1582 1.400 . S
C1583 C1584 1.398 . S
C1583 C1589 1.491 . S
C1584 H1575 0.950 . S
C1584 C1583 1.398 . S
C1584 C1585 1.391 . S
C1585 H1573 0.950 . S
C1585 C1581 1.393 . S
C1585 C1584 1.391 . S
C1586 H1576 0.950 . S
C1586 C1587 1.386 . S
C1586 C1588 1.391 . S
C1587 C1586 1.386 . S
C1587 C1591 1.393 . S
C1588 H1577 0.950 . S
C1588 C1586 1.391 . S
C1588 C1589 1.400 . S
C1589 C1583 1.491 . S
C1589 C1588 1.400 . S
C1589 C1590 1.398 . S
C1590 H1578 0.950 . S
C1590 C1589 1.398 . S
C1590 C1591 1.391 . S
C1591 H1579 0.950 . S
C1591 C1587 1.393 . S
C1591 C1590 1.391 . S
H1592 C1600 0.950 . S
H1593 C1605 0.950 . S
H1594 C1602 0.950 . S
H1595 C1604 0.950 . S
H1596 C1606 0.950 . S
H1597 C1608 0.950 . S
H1598 C1610 0.950 . S
H1599 C1611 0.950 . S
C1600 H1592 0.950 . S
C1600 C1601 1.386 . S
C1600 C1602 1.391 . S
C1601 C1600 1.386 . S
C1601 C1605 1.393 . S
C1602 H1594 0.950 . S
C1602 C1600 1.391 . S
C1602 C1603 1.400 . S
C1603 C1602 1.400 . S
C1603 C1604 1.398 . S
C1603 C1609 1.491 . S
C1604 H1595 0.950 . S
C1604 C1603 1.398 . S
C1604 C1605 1.391 . S
C1605 H1593 0.950 . S
C1605 C1601 1.393 . S
C1605 C1604 1.391 . S
C1606 H1596 0.950 . S
C1606 C1607 1.386 . S
C1606 C1608 1.391 . S
C1607 C1606 1.386 . S
C1607 C1611 1.393 . S
C1608 H1597 0.950 . S
C1608 C1606 1.391 . S
C1608 C1609 1.400 . S
C1609 C1603 1.491 . S
C1609 C1608 1.400 . S
C1609 C1610 1.398 . S
C1610 H1598 0.950 . S
C1610 C1609 1.398 . S
C1610 C1611 1.391 . S
C1611 H1599 0.950 . S
C1611 C1607 1.393 . S
C1611 C1610 1.391 . S
H1612 C1620 0.950 . S
H1613 C1625 0.950 . S
H1614 C1622 0.950 . S
H1615 C1624 0.950 . S
H1616 C1626 0.950 . S
H1617 C1628 0.950 . S
H1618 C1630 0.950 . S
H1619 C1631 0.950 . S
C1620 H1612 0.950 . S
C1620 C1621 1.386 . S
C1620 C1622 1.391 . S
C1621 C1620 1.386 . S
C1621 C1625 1.393 . S
C1622 H1614 0.950 . S
C1622 C1620 1.391 . S
C1622 C1623 1.400 . S
C1623 C1622 1.400 . S
C1623 C1624 1.398 . S
C1623 C1629 1.491 . S
C1624 H1615 0.950 . S
C1624 C1623 1.398 . S
C1624 C1625 1.391 . S
C1625 H1613 0.950 . S
C1625 C1621 1.393 . S
C1625 C1624 1.391 . S
C1626 H1616 0.950 . S
C1626 C1627 1.386 . S
C1626 C1628 1.391 . S
C1627 C1626 1.386 . S
C1627 C1631 1.393 . S
C1628 H1617 0.950 . S
C1628 C1626 1.391 . S
C1628 C1629 1.400 . S
C1629 C1623 1.491 . S
C1629 C1628 1.400 . S
C1629 C1630 1.398 . S
C1630 H1618 0.950 . S
C1630 C1629 1.398 . S
C1630 C1631 1.391 . S
C1631 H1619 0.950 . S
C1631 C1627 1.393 . S
C1631 C1630 1.391 . S
H1632 C1640 0.950 . S
H1633 C1645 0.950 . S
H1634 C1642 0.950 . S
H1635 C1644 0.950 . S
H1636 C1646 0.950 . S
H1637 C1648 0.950 . S
H1638 C1650 0.950 . S
H1639 C1651 0.950 . S
C1640 H1632 0.950 . S
C1640 C1641 1.386 . S
C1640 C1642 1.391 . S
C1641 C1640 1.386 . S
C1641 C1645 1.393 . S
C1642 H1634 0.950 . S
C1642 C1640 1.391 . S
C1642 C1643 1.400 . S
C1643 C1642 1.400 . S
C1643 C1644 1.398 . S
C1643 C1649 1.491 . S
C1644 H1635 0.950 . S
C1644 C1643 1.398 . S
C1644 C1645 1.391 . S
C1645 H1633 0.950 . S
C1645 C1641 1.393 . S
C1645 C1644 1.391 . S
C1646 H1636 0.950 . S
C1646 C1647 1.386 . S
C1646 C1648 1.391 . S
C1647 C1646 1.386 . S
C1647 C1651 1.393 . S
C1648 H1637 0.950 . S
C1648 C1646 1.391 . S
C1648 C1649 1.400 . S
C1649 C1643 1.491 . S
C1649 C1648 1.400 . S
C1649 C1650 1.398 . S
C1650 H1638 0.950 . S
C1650 C1649 1.398 . S
C1650 C1651 1.391 . S
C1651 H1639 0.950 . S
C1651 C1647 1.393 . S
C1651 C1650 1.391 . S
H1652 C1660 0.950 . S
H1653 C1665 0.950 . S
H1654 C1662 0.950 . S
H1655 C1664 0.950 . S
H1656 C1666 0.950 . S
H1657 C1668 0.950 . S
H1658 C1670 0.950 . S
H1659 C1671 0.950 . S
C1660 H1652 0.950 . S
C1660 C1661 1.386 . S
C1660 C1662 1.391 . S
C1661 C1660 1.386 . S
C1661 C1665 1.393 . S
C1662 H1654 0.950 . S
C1662 C1660 1.391 . S
C1662 C1663 1.400 . S
C1663 C1662 1.400 . S
C1663 C1664 1.398 . S
C1663 C1669 1.491 . S
C1664 H1655 0.950 . S
C1664 C1663 1.398 . S
C1664 C1665 1.391 . S
C1665 H1653 0.950 . S
C1665 C1661 1.393 . S
C1665 C1664 1.391 . S
C1666 H1656 0.950 . S
C1666 C1667 1.386 . S
C1666 C1668 1.391 . S
C1667 C1666 1.386 . S
C1667 C1671 1.393 . S
C1668 H1657 0.950 . S
C1668 C1666 1.391 . S
C1668 C1669 1.400 . S
C1669 C1663 1.491 . S
C1669 C1668 1.400 . S
C1669 C1670 1.398 . S
C1670 H1658 0.950 . S
C1670 C1669 1.398 . S
C1670 C1671 1.391 . S
C1671 H1659 0.950 . S
C1671 C1667 1.393 . S
C1671 C1670 1.391 . S
H1672 C1680 0.950 . S
H1673 C1685 0.950 . S
H1674 C1682 0.950 . S
H1675 C1684 0.950 . S
H1676 C1686 0.950 . S
H1677 C1688 0.950 . S
H1678 C1690 0.950 . S
H1679 C1691 0.950 . S
C1680 H1672 0.950 . S
C1680 C1681 1.386 . S
C1680 C1682 1.391 . S
C1681 C1680 1.386 . S
C1681 C1685 1.393 . S
C1682 H1674 0.950 . S
C1682 C1680 1.391 . S
C1682 C1683 1.400 . S
C1683 C1682 1.400 . S
C1683 C1684 1.398 . S
C1683 C1689 1.491 . S
C1684 H1675 0.950 . S
C1684 C1683 1.398 . S
C1684 C1685 1.391 . S
C1685 H1673 0.950 . S
C1685 C1681 1.393 . S
C1685 C1684 1.391 . S
C1686 H1676 0.950 . S
C1686 C1687 1.386 . S
C1686 C1688 1.391 . S
C1687 C1686 1.386 . S
C1687 C1691 1.393 . S
C1688 H1677 0.950 . S
C1688 C1686 1.391 . S
C1688 C1689 1.400 . S
C1689 C1683 1.491 . S
C1689 C1688 1.400 . S
C1689 C1690 1.398 . S
C1690 H1678 0.950 . S
C1690 C1689 1.398 . S
C1690 C1691 1.391 . S
C1691 H1679 0.950 . S
C1691 C1687 1.393 . S
C1691 C1690 1.391 . S
H1692 C1700 0.950 . S
H1693 C1705 0.950 . S
H1694 C1702 0.950 . S
H1695 C1704 0.950 . S
H1696 C1706 0.950 . S
H1697 C1708 0.950 . S
H1698 C1710 0.950 . S
H1699 C1711 0.950 . S
C1700 H1692 0.950 . S
C1700 C1701 1.386 . S
C1700 C1702 1.391 . S
C1701 C1700 1.386 . S
C1701 C1705 1.393 . S
C1702 H1694 0.950 . S
C1702 C1700 1.391 . S
C1702 C1703 1.400 . S
C1703 C1702 1.400 . S
C1703 C1704 1.398 . S
C1703 C1709 1.491 . S
C1704 H1695 0.950 . S
C1704 C1703 1.398 . S
C1704 C1705 1.391 . S
C1705 H1693 0.950 . S
C1705 C1701 1.393 . S
C1705 C1704 1.391 . S
C1706 H1696 0.950 . S
C1706 C1707 1.386 . S
C1706 C1708 1.391 . S
C1707 C1706 1.386 . S
C1707 C1711 1.393 . S
C1708 H1697 0.950 . S
C1708 C1706 1.391 . S
C1708 C1709 1.400 . S
C1709 C1703 1.491 . S
C1709 C1708 1.400 . S
C1709 C1710 1.398 . S
C1710 H1698 0.950 . S
C1710 C1709 1.398 . S
C1710 C1711 1.391 . S
C1711 H1699 0.950 . S
C1711 C1707 1.393 . S
C1711 C1710 1.391 . S
H1712 C1720 0.950 . S
H1713 C1725 0.950 . S
H1714 C1722 0.950 . S
H1715 C1724 0.950 . S
H1716 C1726 0.950 . S
H1717 C1728 0.950 . S
H1718 C1730 0.950 . S
H1719 C1731 0.950 . S
C1720 H1712 0.950 . S
C1720 C1721 1.386 . S
C1720 C1722 1.391 . S
C1721 C1720 1.386 . S
C1721 C1725 1.393 . S
C1722 H1714 0.950 . S
C1722 C1720 1.391 . S
C1722 C1723 1.400 . S
C1723 C1722 1.400 . S
C1723 C1724 1.398 . S
C1723 C1729 1.491 . S
C1724 H1715 0.950 . S
C1724 C1723 1.398 . S
C1724 C1725 1.391 . S
C1725 H1713 0.950 . S
C1725 C1721 1.393 . S
C1725 C1724 1.391 . S
C1726 H1716 0.950 . S
C1726 C1727 1.386 . S
C1726 C1728 1.391 . S
C1727 C1726 1.386 . S
C1727 C1731 1.393 . S
C1728 H1717 0.950 . S
C1728 C1726 1.391 . S
C1728 C1729 1.400 . S
C1729 C1723 1.491 . S
C1729 C1728 1.400 . S
C1729 C1730 1.398 . S
C1730 H1718 0.950 . S
C1730 C1729 1.398 . S
C1730 C1731 1.391 . S
C1731 H1719 0.950 . S
C1731 C1727 1.393 . S
C1731 C1730 1.391 . S
H1732 C1740 0.950 . S
H1733 C1745 0.950 . S
H1734 C1742 0.950 . S
H1735 C1744 0.950 . S
H1736 C1746 0.950 . S
H1737 C1748 0.950 . S
H1738 C1750 0.950 . S
H1739 C1751 0.950 . S
C1740 H1732 0.950 . S
C1740 C1741 1.386 . S
C1740 C1742 1.391 . S
C1741 C1740 1.386 . S
C1741 C1745 1.393 . S
C1742 H1734 0.950 . S
C1742 C1740 1.391 . S
C1742 C1743 1.400 . S
C1743 C1742 1.400 . S
C1743 C1744 1.398 . S
C1743 C1749 1.491 . S
C1744 H1735 0.950 . S
C1744 C1743 1.398 . S
C1744 C1745 1.391 . S
C1745 H1733 0.950 . S
C1745 C1741 1.393 . S
C1745 C1744 1.391 . S
C1746 H1736 0.950 . S
C1746 C1747 1.386 . S
C1746 C1748 1.391 . S
C1747 C1746 1.386 . S
C1747 C1751 1.393 . S
C1748 H1737 0.950 . S
C1748 C1746 1.391 . S
C1748 C1749 1.400 . S
C1749 C1743 1.491 . S
C1749 C1748 1.400 . S
C1749 C1750 1.398 . S
C1750 H1738 0.950 . S
C1750 C1749 1.398 . S
C1750 C1751 1.391 . S
C1751 H1739 0.950 . S
C1751 C1747 1.393 . S
C1751 C1750 1.391 . S
H1752 C1760 0.950 . S
H1753 C1765 0.950 . S
H1754 C1762 0.950 . S
H1755 C1764 0.950 . S
H1756 C1766 0.950 . S
H1757 C1768 0.950 . S
H1758 C1770 0.950 . S
H1759 C1771 0.950 . S
C1760 H1752 0.950 . S
C1760 C1761 1.386 . S
C1760 C1762 1.391 . S
C1761 C1760 1.386 . S
C1761 C1765 1.393 . S
C1762 H1754 0.950 . S
C1762 C1760 1.391 . S
C1762 C1763 1.400 . S
C1763 C1762 1.400 . S
C1763 C1764 1.398 . S
C1763 C1769 1.491 . S
C1764 H1755 0.950 . S
C1764 C1763 1.398 . S
C1764 C1765 1.391 . S
C1765 H1753 0.950 . S
C1765 C1761 1.393 . S
C1765 C1764 1.391 . S
C1766 H1756 0.950 . S
C1766 C1767 1.386 . S
C1766 C1768 1.391 . S
C1767 C1766 1.386 . S
C1767 C1771 1.393 . S
C1768 H1757 0.950 . S
C1768 C1766 1.391 . S
C1768 C1769 1.400 . S
C1769 C1763 1.491 . S
C1769 C1768 1.400 . S
C1769 C1770 1.398 . S
C1770 H1758 0.950 . S
C1770 C1769 1.398 . S
C1770 C1771 1.391 . S
C1771 H1759 0.950 . S
C1771 C1767 1.393 . S
C1771 C1770 1.391 . S
H1772 C1780 0.950 . S
H1773 C1785 0.950 . S
H1774 C1782 0.950 . S
H1775 C1784 0.950 . S
H1776 C1786 0.950 . S
H1777 C1788 0.950 . S
H1778 C1790 0.950 . S
H1779 C1791 0.950 . S
C1780 H1772 0.950 . S
C1780 C1781 1.386 . S
C1780 C1782 1.391 . S
C1781 C1780 1.386 . S
C1781 C1785 1.393 . S
C1782 H1774 0.950 . S
C1782 C1780 1.391 . S
C1782 C1783 1.400 . S
C1783 C1782 1.400 . S
C1783 C1784 1.398 . S
C1783 C1789 1.491 . S
C1784 H1775 0.950 . S
C1784 C1783 1.398 . S
C1784 C1785 1.391 . S
C1785 H1773 0.950 . S
C1785 C1781 1.393 . S
C1785 C1784 1.391 . S
C1786 H1776 0.950 . S
C1786 C1787 1.386 . S
C1786 C1788 1.391 . S
C1787 C1786 1.386 . S
C1787 C1791 1.393 . S
C1788 H1777 0.950 . S
C1788 C1786 1.391 . S
C1788 C1789 1.400 . S
C1789 C1783 1.491 . S
C1789 C1788 1.400 . S
C1789 C1790 1.398 . S
C1790 H1778 0.950 . S
C1790 C1789 1.398 . S
C1790 C1791 1.391 . S
C1791 H1779 0.950 . S
C1791 C1787 1.393 . S
C1791 C1790 1.391 . S
H1792 C1800 0.950 . S
H1793 C1805 0.950 . S
H1794 C1802 0.950 . S
H1795 C1804 0.950 . S
H1796 C1806 0.950 . S
H1797 C1808 0.950 . S
H1798 C1810 0.950 . S
H1799 C1811 0.950 . S
C1800 H1792 0.950 . S
C1800 C1801 1.386 . S
C1800 C1802 1.391 . S
C1801 C1800 1.386 . S
C1801 C1805 1.393 . S
C1802 H1794 0.950 . S
C1802 C1800 1.391 . S
C1802 C1803 1.400 . S
C1803 C1802 1.400 . S
C1803 C1804 1.398 . S
C1803 C1809 1.491 . S
C1804 H1795 0.950 . S
C1804 C1803 1.398 . S
C1804 C1805 1.391 . S
C1805 H1793 0.950 . S
C1805 C1801 1.393 . S
C1805 C1804 1.391 . S
C1806 H1796 0.950 . S
C1806 C1807 1.386 . S
C1806 C1808 1.391 . S
C1807 C1806 1.386 . S
C1807 C1811 1.393 . S
C1808 H1797 0.950 . S
C1808 C1806 1.391 . S
C1808 C1809 1.400 . S
C1809 C1803 1.491 . S
C1809 C1808 1.400 . S
C1809 C1810 1.398 . S
C1810 H1798 0.950 . S
C1810 C1809 1.398 . S
C1810 C1811 1.391 . S
C1811 H1799 0.950 . S
C1811 C1807 1.393 . S
C1811 C1810 1.391 . S
H1812 C1820 0.950 . S
H1813 C1825 0.950 . S
H1814 C1822 0.950 . S
H1815 C1824 0.950 . S
H1816 C1826 0.950 . S
H1817 C1828 0.950 . S
H1818 C1830 0.950 . S
H1819 C1831 0.950 . S
C1820 H1812 0.950 . S
C1820 C1821 1.386 1_545 S
C1820 C1822 1.391 . S
C1821 C1820 1.386 1_565 S
C1821 C1825 1.393 . S
C1822 H1814 0.950 . S
C1822 C1820 1.391 . S
C1822 C1823 1.400 1_545 S
C1823 C1822 1.400 1_565 S
C1823 C1824 1.398 . S
C1823 C1829 1.489 1_465 S
C1824 H1815 0.950 . S
C1824 C1823 1.398 . S
C1824 C1825 1.391 . S
C1825 H1813 0.950 . S
C1825 C1821 1.393 . S
C1825 C1824 1.391 . S
C1826 H1816 0.950 . S
C1826 C1827 1.386 1_565 S
C1826 C1828 1.391 . S
C1827 C1826 1.386 1_545 S
C1827 C1831 1.393 . S
C1828 H1817 0.950 . S
C1828 C1826 1.391 . S
C1828 C1829 1.394 1_565 S
C1829 C1823 1.489 1_645 S
C1829 C1828 1.394 1_545 S
C1829 C1830 1.406 . S
C1830 H1818 0.950 . S
C1830 C1829 1.406 . S
C1830 C1831 1.391 . S
C1831 H1819 0.950 . S
C1831 C1827 1.393 . S
C1831 C1830 1.391 . S
H1832 C1840 0.950 . S
H1833 C1845 0.950 . S
H1834 C1842 0.950 . S
H1835 C1844 0.950 . S
H1836 C1846 0.950 . S
H1837 C1848 0.950 . S
H1838 C1850 0.950 . S
H1839 C1851 0.950 . S
C1840 H1832 0.950 . S
C1840 C1841 1.386 . S
C1840 C1842 1.391 . S
C1841 C1840 1.386 . S
C1841 C1845 1.393 . S
C1842 H1834 0.950 . S
C1842 C1840 1.391 . S
C1842 C1843 1.400 . S
C1843 C1842 1.400 . S
C1843 C1844 1.398 . S
C1843 C1849 1.491 . S
C1844 H1835 0.950 . S
C1844 C1843 1.398 . S
C1844 C1845 1.391 . S
C1845 H1833 0.950 . S
C1845 C1841 1.393 . S
C1845 C1844 1.391 . S
C1846 H1836 0.950 . S
C1846 C1847 1.386 . S
C1846 C1848 1.391 . S
C1847 C1846 1.386 . S
C1847 C1851 1.393 . S
C1848 H1837 0.950 . S
C1848 C1846 1.391 . S
C1848 C1849 1.400 . S
C1849 C1843 1.491 . S
C1849 C1848 1.400 . S
C1849 C1850 1.398 . S
C1850 H1838 0.950 . S
C1850 C1849 1.398 . S
C1850 C1851 1.391 . S
C1851 H1839 0.950 . S
C1851 C1847 1.393 . S
C1851 C1850 1.391 . S
H1852 C1860 0.950 . S
H1853 C1865 0.949 . S
H1854 C1862 0.950 . S
H1855 C1864 0.950 . S
H1856 C1866 0.950 . S
H1857 C1868 0.950 . S
H1858 C1870 0.950 . S
H1859 C1871 0.950 . S
C1860 H1852 0.950 . S
C1860 C1861 1.386 . S
C1860 C1862 1.391 . S
C1861 C1860 1.386 . S
C1861 C1865 1.394 1_545 S
C1862 H1854 0.950 . S
C1862 C1860 1.391 . S
C1862 C1863 1.400 . S
C1863 C1862 1.400 . S
C1863 C1864 1.398 1_545 S
C1863 C1869 1.491 1_544 S
C1864 H1855 0.950 . S
C1864 C1863 1.398 1_565 S
C1864 C1865 1.390 . S
C1865 H1853 0.949 . S
C1865 C1861 1.394 1_565 S
C1865 C1864 1.390 . S
C1866 H1856 0.950 . S
C1866 C1867 1.386 . S
C1866 C1868 1.391 . S
C1867 C1866 1.386 . S
C1867 C1871 1.393 1_565 S
C1868 H1857 0.950 . S
C1868 C1866 1.391 . S
C1868 C1869 1.400 . S
C1869 C1863 1.491 1_566 S
C1869 C1868 1.400 . S
C1869 C1870 1.398 1_565 S
C1870 H1858 0.950 . S
C1870 C1869 1.398 1_545 S
C1870 C1871 1.391 . S
C1871 H1859 0.950 . S
C1871 C1867 1.393 1_545 S
C1871 C1870 1.391 . S
H1872 C1880 0.950 . S
H1873 C1885 0.950 . S
H1874 C1882 0.950 . S
H1875 C1884 0.950 . S
H1876 C1886 0.950 . S
H1877 C1888 0.950 . S
H1878 C1890 0.950 . S
H1879 C1891 0.950 . S
C1880 H1872 0.950 . S
C1880 C1881 1.386 . S
C1880 C1882 1.391 . S
C1881 C1880 1.386 . S
C1881 C1885 1.393 . S
C1882 H1874 0.950 . S
C1882 C1880 1.391 . S
C1882 C1883 1.400 . S
C1883 C1882 1.400 . S
C1883 C1884 1.398 . S
C1883 C1889 1.491 . S
C1884 H1875 0.950 . S
C1884 C1883 1.398 . S
C1884 C1885 1.391 . S
C1885 H1873 0.950 . S
C1885 C1881 1.393 . S
C1885 C1884 1.391 . S
C1886 H1876 0.950 . S
C1886 C1887 1.386 . S
C1886 C1888 1.391 . S
C1887 C1886 1.386 . S
C1887 C1891 1.393 . S
C1888 H1877 0.950 . S
C1888 C1886 1.391 . S
C1888 C1889 1.400 . S
C1889 C1883 1.491 . S
C1889 C1888 1.400 . S
C1889 C1890 1.398 . S
C1890 H1878 0.950 . S
C1890 C1889 1.398 . S
C1890 C1891 1.391 . S
C1891 H1879 0.950 . S
C1891 C1887 1.393 . S
C1891 C1890 1.391 . S
H1892 C1900 0.950 . S
H1893 C1905 0.950 . S
H1894 C1902 0.950 . S
H1895 C1904 0.950 . S
H1896 C1906 0.950 . S
H1897 C1908 0.950 . S
H1898 C1910 0.950 . S
H1899 C1911 0.950 . S
C1900 H1892 0.950 . S
C1900 C1901 1.386 1_545 S
C1900 C1902 1.391 . S
C1901 C1900 1.386 1_565 S
C1901 C1905 1.393 . S
C1902 H1894 0.950 . S
C1902 C1900 1.391 . S
C1902 C1903 1.400 1_545 S
C1903 C1902 1.400 1_565 S
C1903 C1904 1.398 . S
C1903 C1909 1.487 1_565 S
C1904 H1895 0.950 . S
C1904 C1903 1.398 . S
C1904 C1905 1.391 . S
C1905 H1893 0.950 . S
C1905 C1901 1.393 . S
C1905 C1904 1.391 . S
C1906 H1896 0.950 . S
C1906 C1907 1.386 1_565 S
C1906 C1908 1.391 . S
C1907 C1906 1.386 1_545 S
C1907 C1911 1.393 . S
C1908 H1897 0.950 . S
C1908 C1906 1.391 . S
C1908 C1909 1.388 1_565 S
C1909 C1903 1.487 1_545 S
C1909 C1908 1.388 1_545 S
C1909 C1910 1.415 . S
C1910 H1898 0.950 . S
C1910 C1909 1.415 . S
C1910 C1911 1.391 . S
C1911 H1899 0.950 . S
C1911 C1907 1.393 . S
C1911 C1910 1.391 . S
H1912 C1920 0.950 . S
H1913 C1925 0.950 . S
H1914 C1922 0.950 . S
H1915 C1924 0.950 . S
H1916 C1926 0.950 . S
H1917 C1928 0.950 . S
H1918 C1930 0.950 . S
H1919 C1931 0.950 . S
C1920 H1912 0.950 . S
C1920 C1921 1.386 . S
C1920 C1922 1.391 . S
C1921 C1920 1.386 . S
C1921 C1925 1.393 . S
C1922 H1914 0.950 . S
C1922 C1920 1.391 . S
C1922 C1923 1.400 . S
C1923 C1922 1.400 . S
C1923 C1924 1.398 . S
C1923 C1929 1.491 . S
C1924 H1915 0.950 . S
C1924 C1923 1.398 . S
C1924 C1925 1.391 . S
C1925 H1913 0.950 . S
C1925 C1921 1.393 . S
C1925 C1924 1.391 . S
C1926 H1916 0.950 . S
C1926 C1927 1.386 . S
C1926 C1928 1.391 . S
C1927 C1926 1.386 . S
C1927 C1931 1.393 . S
C1928 H1917 0.950 . S
C1928 C1926 1.391 . S
C1928 C1929 1.400 . S
C1929 C1923 1.491 . S
C1929 C1928 1.400 . S
C1929 C1930 1.398 . S
C1930 H1918 0.950 . S
C1930 C1929 1.398 . S
C1930 C1931 1.391 . S
C1931 H1919 0.950 . S
C1931 C1927 1.393 . S
C1931 C1930 1.391 . S
H1932 C1940 0.950 . S
H1933 C1945 0.950 . S
H1934 C1942 0.950 1_655 S
H1935 C1944 0.950 . S
H1936 C1946 0.950 . S
H1937 C1948 0.950 1_455 S
H1938 C1950 0.950 . S
H1939 C1951 0.950 . S
C1940 H1932 0.950 . S
C1940 C1941 1.386 . S
C1940 C1942 1.391 . S
C1941 C1940 1.386 . S
C1941 C1945 1.393 1_545 S
C1942 H1934 0.950 1_455 S
C1942 C1940 1.391 . S
C1942 C1943 1.400 . S
C1943 C1942 1.400 . S
C1943 C1944 1.398 1_545 S
C1943 C1949 1.488 1_446 S
C1944 H1935 0.950 . S
C1944 C1943 1.398 1_565 S
C1944 C1945 1.391 . S
C1945 H1933 0.950 . S
C1945 C1941 1.393 1_565 S
C1945 C1944 1.391 . S
C1946 H1936 0.950 . S
C1946 C1947 1.386 . S
C1946 C1948 1.391 . S
C1947 C1946 1.386 . S
C1947 C1951 1.393 1_565 S
C1948 H1937 0.950 1_655 S
C1948 C1946 1.391 . S
C1948 C1949 1.416 . S
C1949 C1943 1.488 1_664 S
C1949 C1948 1.416 . S
C1949 C1950 1.385 1_565 S
C1950 H1938 0.950 . S
C1950 C1949 1.385 1_545 S
C1950 C1951 1.391 . S
C1951 H1939 0.950 . S
C1951 C1947 1.393 1_545 S
C1951 C1950 1.391 . S
H1952 C1960 0.950 . S
H1953 C1965 0.950 . S
H1954 C1962 0.950 . S
H1955 C1964 0.950 . S
H1956 C1966 0.950 . S
H1957 C1968 0.950 . S
H1958 C1970 0.950 . S
H1959 C1971 0.950 . S
C1960 H1952 0.950 . S
C1960 C1961 1.386 . S
C1960 C1962 1.391 . S
C1961 C1960 1.386 . S
C1961 C1965 1.393 . S
C1962 H1954 0.950 . S
C1962 C1960 1.391 . S
C1962 C1963 1.400 . S
C1963 C1962 1.400 . S
C1963 C1964 1.398 . S
C1963 C1969 1.491 . S
C1964 H1955 0.950 . S
C1964 C1963 1.398 . S
C1964 C1965 1.391 . S
C1965 H1953 0.950 . S
C1965 C1961 1.393 . S
C1965 C1964 1.391 . S
C1966 H1956 0.950 . S
C1966 C1967 1.386 . S
C1966 C1968 1.391 . S
C1967 C1966 1.386 . S
C1967 C1971 1.393 . S
C1968 H1957 0.950 . S
C1968 C1966 1.391 . S
C1968 C1969 1.400 . S
C1969 C1963 1.491 . S
C1969 C1968 1.400 . S
C1969 C1970 1.398 . S
C1970 H1958 0.950 . S
C1970 C1969 1.398 . S
C1970 C1971 1.391 . S
C1971 H1959 0.950 . S
C1971 C1967 1.393 . S
C1971 C1970 1.391 . S
H1972 C1980 0.950 . S
H1973 C1985 0.950 . S
H1974 C1982 0.950 . S
H1975 C1984 0.950 . S
H1976 C1986 0.950 . S
H1977 C1988 0.950 . S
H1978 C1990 0.950 . S
H1979 C1991 0.950 . S
C1980 H1972 0.950 . S
C1980 C1981 1.386 . S
C1980 C1982 1.391 . S
C1981 C1980 1.386 . S
C1981 C1985 1.393 . S
C1982 H1974 0.950 . S
C1982 C1980 1.391 . S
C1982 C1983 1.400 . S
C1983 C1982 1.400 . S
C1983 C1984 1.398 . S
C1983 C1989 1.491 . S
C1984 H1975 0.950 . S
C1984 C1983 1.398 . S
C1984 C1985 1.391 . S
C1985 H1973 0.950 . S
C1985 C1981 1.393 . S
C1985 C1984 1.391 . S
C1986 H1976 0.950 . S
C1986 C1987 1.386 . S
C1986 C1988 1.391 . S
C1987 C1986 1.386 . S
C1987 C1991 1.393 . S
C1988 H1977 0.950 . S
C1988 C1986 1.391 . S
C1988 C1989 1.400 . S
C1989 C1983 1.491 . S
C1989 C1988 1.400 . S
C1989 C1990 1.398 . S
C1990 H1978 0.950 . S
C1990 C1989 1.398 . S
C1990 C1991 1.391 . S
C1991 H1979 0.950 . S
C1991 C1987 1.393 . S
C1991 C1990 1.391 . S
H1992 C2000 0.950 . S
H1993 C2005 0.950 . S
H1994 C2002 0.950 . S
H1995 C2004 0.950 . S
H1996 C2006 0.950 . S
H1997 C2008 0.950 . S
H1998 C2010 0.950 . S
H1999 C2011 0.950 . S
C2000 H1992 0.950 . S
C2000 C2001 1.386 . S
C2000 C2002 1.391 . S
C2001 C2000 1.386 . S
C2001 C2005 1.393 . S
C2002 H1994 0.950 . S
C2002 C2000 1.391 . S
C2002 C2003 1.400 . S
C2003 C2002 1.400 . S
C2003 C2004 1.398 . S
C2003 C2009 1.491 . S
C2004 H1995 0.950 . S
C2004 C2003 1.398 . S
C2004 C2005 1.391 . S
C2005 H1993 0.950 . S
C2005 C2001 1.393 . S
C2005 C2004 1.391 . S
C2006 H1996 0.950 . S
C2006 C2007 1.386 . S
C2006 C2008 1.391 . S
C2007 C2006 1.386 . S
C2007 C2011 1.393 . S
C2008 H1997 0.950 . S
C2008 C2006 1.391 . S
C2008 C2009 1.400 . S
C2009 C2003 1.491 . S
C2009 C2008 1.400 . S
C2009 C2010 1.398 . S
C2010 H1998 0.950 . S
C2010 C2009 1.398 . S
C2010 C2011 1.391 . S
C2011 H1999 0.950 . S
C2011 C2007 1.393 . S
C2011 C2010 1.391 . S
H2012 C2020 0.950 . S
H2013 C2025 0.950 . S
H2014 C2022 0.950 . S
H2015 C2024 0.950 . S
H2016 C2026 0.950 . S
H2017 C2028 0.950 . S
H2018 C2030 0.950 . S
H2019 C2031 0.950 . S
C2020 H2012 0.950 . S
C2020 C2021 1.386 . S
C2020 C2022 1.391 . S
C2021 C2020 1.386 . S
C2021 C2025 1.393 . S
C2022 H2014 0.950 . S
C2022 C2020 1.391 . S
C2022 C2023 1.400 . S
C2023 C2022 1.400 . S
C2023 C2024 1.398 . S
C2023 C2029 1.491 . S
C2024 H2015 0.950 . S
C2024 C2023 1.398 . S
C2024 C2025 1.391 . S
C2025 H2013 0.950 . S
C2025 C2021 1.393 . S
C2025 C2024 1.391 . S
C2026 H2016 0.950 . S
C2026 C2027 1.386 . S
C2026 C2028 1.391 . S
C2027 C2026 1.386 . S
C2027 C2031 1.393 . S
C2028 H2017 0.950 . S
C2028 C2026 1.391 . S
C2028 C2029 1.400 . S
C2029 C2023 1.491 . S
C2029 C2028 1.400 . S
C2029 C2030 1.398 . S
C2030 H2018 0.950 . S
C2030 C2029 1.398 . S
C2030 C2031 1.391 . S
C2031 H2019 0.950 . S
C2031 C2027 1.393 . S
C2031 C2030 1.391 . S
H2032 C2040 0.950 . S
H2033 C2045 0.950 . S
H2034 C2042 0.950 . S
H2035 C2044 0.950 . S
H2036 C2046 0.950 . S
H2037 C2048 0.950 . S
H2038 C2050 0.950 . S
H2039 C2051 0.950 . S
C2040 H2032 0.950 . S
C2040 C2041 1.386 . S
C2040 C2042 1.391 . S
C2041 C2040 1.386 . S
C2041 C2045 1.393 . S
C2042 H2034 0.950 . S
C2042 C2040 1.391 . S
C2042 C2043 1.400 . S
C2043 C2042 1.400 . S
C2043 C2044 1.398 . S
C2043 C2049 1.491 1_554 S
C2044 H2035 0.950 . S
C2044 C2043 1.398 . S
C2044 C2045 1.391 . S
C2045 H2033 0.950 . S
C2045 C2041 1.393 . S
C2045 C2044 1.391 . S
C2046 H2036 0.950 . S
C2046 C2047 1.386 . S
C2046 C2048 1.391 . S
C2047 C2046 1.386 . S
C2047 C2051 1.393 . S
C2048 H2037 0.950 . S
C2048 C2046 1.391 . S
C2048 C2049 1.400 . S
C2049 C2043 1.491 1_556 S
C2049 C2048 1.400 . S
C2049 C2050 1.398 . S
C2050 H2038 0.950 . S
C2050 C2049 1.398 . S
C2050 C2051 1.391 . S
C2051 H2039 0.950 . S
C2051 C2047 1.393 . S
C2051 C2050 1.391 . S
H2052 C2060 0.950 . S
H2053 C2065 0.950 . S
H2054 C2062 0.950 . S
H2055 C2064 0.950 . S
H2056 C2066 0.950 . S
H2057 C2068 0.950 . S
H2058 C2070 0.963 . S
H2059 C2071 0.950 . S
C2060 H2052 0.950 . S
C2060 C2061 1.386 . S
C2060 C2062 1.391 . S
C2061 C2060 1.386 . S
C2061 C2065 1.393 . S
C2062 H2054 0.950 . S
C2062 C2060 1.391 . S
C2062 C2063 1.400 . S
C2063 C2062 1.400 . S
C2063 C2064 1.398 1_455 S
C2063 C2069 1.491 1_455 S
C2064 H2055 0.950 . S
C2064 C2063 1.398 1_655 S
C2064 C2065 1.391 1_655 S
C2065 H2053 0.950 . S
C2065 C2061 1.393 . S
C2065 C2064 1.391 1_455 S
C2066 H2056 0.950 . S
C2066 C2067 1.386 . S
C2066 C2068 1.391 . S
C2067 C2066 1.386 . S
C2067 C2071 1.393 . S
C2068 H2057 0.950 . S
C2068 C2066 1.391 . S
C2068 C2069 1.400 . S
C2069 C2063 1.491 1_655 S
C2069 C2068 1.400 . S
C2069 C2070 1.393 1_655 S
C2070 H2058 0.963 . S
C2070 C2069 1.393 1_455 S
C2070 C2071 1.383 1_455 S
C2071 H2059 0.950 . S
C2071 C2067 1.393 . S
C2071 C2070 1.383 1_655 S
H2072 C2080 0.950 1_655 S
H2073 C2085 0.950 . S
H2074 C2082 0.950 . S
H2075 C2084 0.950 . S
H2076 C2086 0.950 1_455 S
H2077 C2088 0.950 . S
H2078 C2090 0.950 . S
H2079 C2091 0.950 . S
C2080 H2072 0.950 1_455 S
C2080 C2081 1.386 . S
C2080 C2082 1.391 1_455 S
C2081 C2080 1.386 . S
C2081 C2085 1.393 . S
C2082 H2074 0.950 . S
C2082 C2080 1.391 1_655 S
C2082 C2083 1.400 1_655 S
C2083 C2082 1.400 1_455 S
C2083 C2084 1.398 . S
C2083 C2089 1.491 1_454 S
C2084 H2075 0.950 . S
C2084 C2083 1.398 . S
C2084 C2085 1.391 . S
C2085 H2073 0.950 . S
C2085 C2081 1.393 . S
C2085 C2084 1.391 . S
C2086 H2076 0.950 1_655 S
C2086 C2087 1.386 . S
C2086 C2088 1.391 1_655 S
C2087 C2086 1.386 . S
C2087 C2091 1.393 . S
C2088 H2077 0.950 . S
C2088 C2086 1.391 1_455 S
C2088 C2089 1.400 1_455 S
C2089 C2083 1.491 1_656 S
C2089 C2088 1.400 1_655 S
C2089 C2090 1.398 . S
C2090 H2078 0.950 . S
C2090 C2089 1.398 . S
C2090 C2091 1.391 . S
C2091 H2079 0.950 . S
C2091 C2087 1.393 . S
C2091 C2090 1.391 . S
H2092 C2100 0.950 . S
H2093 C2105 0.950 . S
H2094 C2102 0.950 . S
H2095 C2104 0.950 . S
H2096 C2106 0.950 . S
H2097 C2108 0.950 . S
H2098 C2110 0.950 . S
H2099 C2111 0.950 . S
C2100 H2092 0.950 . S
C2100 C2101 1.386 . S
C2100 C2102 1.391 . S
C2101 C2100 1.386 . S
C2101 C2105 1.393 . S
C2102 H2094 0.950 . S
C2102 C2100 1.391 . S
C2102 C2103 1.400 . S
C2103 C2102 1.400 . S
C2103 C2104 1.398 . S
C2103 C2109 1.491 . S
C2104 H2095 0.950 . S
C2104 C2103 1.398 . S
C2104 C2105 1.391 . S
C2105 H2093 0.950 . S
C2105 C2101 1.393 . S
C2105 C2104 1.391 . S
C2106 H2096 0.950 . S
C2106 C2107 1.386 . S
C2106 C2108 1.391 . S
C2107 C2106 1.386 . S
C2107 C2111 1.393 . S
C2108 H2097 0.950 . S
C2108 C2106 1.391 . S
C2108 C2109 1.400 . S
C2109 C2103 1.491 . S
C2109 C2108 1.400 . S
C2109 C2110 1.398 . S
C2110 H2098 0.950 . S
C2110 C2109 1.398 . S
C2110 C2111 1.391 . S
C2111 H2099 0.950 . S
C2111 C2107 1.393 . S
C2111 C2110 1.391 . S
H2112 C2120 0.950 . S
H2113 C2125 0.950 . S
H2114 C2122 0.950 . S
H2115 C2124 0.950 . S
H2116 C2126 0.950 . S
H2117 C2128 0.950 . S
H2118 C2130 0.950 . S
H2119 C2131 0.950 . S
C2120 H2112 0.950 . S
C2120 C2121 1.386 . S
C2120 C2122 1.391 . S
C2121 C2120 1.386 . S
C2121 C2125 1.393 . S
C2122 H2114 0.950 . S
C2122 C2120 1.391 . S
C2122 C2123 1.400 . S
C2123 C2122 1.400 . S
C2123 C2124 1.398 . S
C2123 C2129 1.491 . S
C2124 H2115 0.950 . S
C2124 C2123 1.398 . S
C2124 C2125 1.391 . S
C2125 H2113 0.950 . S
C2125 C2121 1.393 . S
C2125 C2124 1.391 . S
C2126 H2116 0.950 . S
C2126 C2127 1.386 . S
C2126 C2128 1.391 . S
C2127 C2126 1.386 . S
C2127 C2131 1.393 . S
C2128 H2117 0.950 . S
C2128 C2126 1.391 . S
C2128 C2129 1.400 . S
C2129 C2123 1.491 . S
C2129 C2128 1.400 . S
C2129 C2130 1.398 . S
C2130 H2118 0.950 . S
C2130 C2129 1.398 . S
C2130 C2131 1.391 . S
C2131 H2119 0.950 . S
C2131 C2127 1.393 . S
C2131 C2130 1.391 . S
H2132 C2140 0.950 . S
H2133 C2145 0.950 . S
H2134 C2142 0.950 . S
H2135 C2144 0.950 . S
H2136 C2146 0.950 . S
H2137 C2148 0.950 . S
H2138 C2150 0.950 . S
H2139 C2151 0.950 . S
C2140 H2132 0.950 . S
C2140 C2141 1.386 . S
C2140 C2142 1.391 . S
C2141 C2140 1.386 . S
C2141 C2145 1.393 . S
C2142 H2134 0.950 . S
C2142 C2140 1.391 . S
C2142 C2143 1.400 . S
C2143 C2142 1.400 . S
C2143 C2144 1.398 . S
C2143 C2149 1.491 . S
C2144 H2135 0.950 . S
C2144 C2143 1.398 . S
C2144 C2145 1.391 . S
C2145 H2133 0.950 . S
C2145 C2141 1.393 . S
C2145 C2144 1.391 . S
C2146 H2136 0.950 . S
C2146 C2147 1.386 . S
C2146 C2148 1.391 . S
C2147 C2146 1.386 . S
C2147 C2151 1.393 . S
C2148 H2137 0.950 . S
C2148 C2146 1.391 . S
C2148 C2149 1.400 . S
C2149 C2143 1.491 . S
C2149 C2148 1.400 . S
C2149 C2150 1.398 . S
C2150 H2138 0.950 . S
C2150 C2149 1.398 . S
C2150 C2151 1.391 . S
C2151 H2139 0.950 . S
C2151 C2147 1.393 . S
C2151 C2150 1.391 . S
H2152 C2160 0.950 . S
H2153 C2165 0.950 . S
H2154 C2162 0.950 . S
H2155 C2164 0.950 . S
H2156 C2166 0.950 . S
H2157 C2168 0.950 . S
H2158 C2170 0.950 . S
H2159 C2171 0.950 . S
C2160 H2152 0.950 . S
C2160 C2161 1.386 . S
C2160 C2162 1.391 . S
C2161 C2160 1.386 . S
C2161 C2165 1.393 . S
C2162 H2154 0.950 . S
C2162 C2160 1.391 . S
C2162 C2163 1.400 . S
C2163 C2162 1.400 . S
C2163 C2164 1.398 . S
C2163 C2169 1.491 . S
C2164 H2155 0.950 . S
C2164 C2163 1.398 . S
C2164 C2165 1.391 . S
C2165 H2153 0.950 . S
C2165 C2161 1.393 . S
C2165 C2164 1.391 . S
C2166 H2156 0.950 . S
C2166 C2167 1.386 . S
C2166 C2168 1.391 . S
C2167 C2166 1.386 . S
C2167 C2171 1.393 . S
C2168 H2157 0.950 . S
C2168 C2166 1.391 . S
C2168 C2169 1.400 . S
C2169 C2163 1.491 . S
C2169 C2168 1.400 . S
C2169 C2170 1.398 . S
C2170 H2158 0.950 . S
C2170 C2169 1.398 . S
C2170 C2171 1.391 . S
C2171 H2159 0.950 . S
C2171 C2167 1.393 . S
C2171 C2170 1.391 . S
H2172 C2180 0.950 . S
H2173 C2185 0.950 . S
H2174 C2182 0.950 . S
H2175 C2184 0.950 . S
H2176 C2186 0.950 . S
H2177 C2188 0.950 . S
H2178 C2190 0.950 . S
H2179 C2191 0.950 . S
C2180 H2172 0.950 . S
C2180 C2181 1.386 . S
C2180 C2182 1.391 . S
C2181 C2180 1.386 . S
C2181 C2185 1.393 . S
C2182 H2174 0.950 . S
C2182 C2180 1.391 . S
C2182 C2183 1.400 . S
C2183 C2182 1.400 . S
C2183 C2184 1.398 . S
C2183 C2189 1.491 . S
C2184 H2175 0.950 . S
C2184 C2183 1.398 . S
C2184 C2185 1.391 . S
C2185 H2173 0.950 . S
C2185 C2181 1.393 . S
C2185 C2184 1.391 . S
C2186 H2176 0.950 . S
C2186 C2187 1.386 . S
C2186 C2188 1.391 . S
C2187 C2186 1.386 . S
C2187 C2191 1.393 . S
C2188 H2177 0.950 . S
C2188 C2186 1.391 . S
C2188 C2189 1.400 . S
C2189 C2183 1.491 . S
C2189 C2188 1.400 . S
C2189 C2190 1.398 . S
C2190 H2178 0.950 . S
C2190 C2189 1.398 . S
C2190 C2191 1.391 . S
C2191 H2179 0.950 . S
C2191 C2187 1.393 . S
C2191 C2190 1.391 . S
H2192 C2200 0.950 . S
H2193 C2205 0.950 . S
H2194 C2202 0.950 . S
H2195 C2204 0.950 . S
H2196 C2206 0.950 . S
H2197 C2208 0.950 . S
H2198 C2210 0.950 . S
H2199 C2211 0.950 . S
C2200 H2192 0.950 . S
C2200 C2201 1.386 . S
C2200 C2202 1.391 . S
C2201 C2200 1.386 . S
C2201 C2205 1.393 . S
C2202 H2194 0.950 . S
C2202 C2200 1.391 . S
C2202 C2203 1.400 . S
C2203 C2202 1.400 . S
C2203 C2204 1.398 . S
C2203 C2209 1.491 . S
C2204 H2195 0.950 . S
C2204 C2203 1.398 . S
C2204 C2205 1.391 . S
C2205 H2193 0.950 . S
C2205 C2201 1.393 . S
C2205 C2204 1.391 . S
C2206 H2196 0.950 . S
C2206 C2207 1.386 . S
C2206 C2208 1.391 . S
C2207 C2206 1.386 . S
C2207 C2211 1.393 . S
C2208 H2197 0.950 . S
C2208 C2206 1.391 . S
C2208 C2209 1.400 . S
C2209 C2203 1.491 . S
C2209 C2208 1.400 . S
C2209 C2210 1.398 . S
C2210 H2198 0.950 . S
C2210 C2209 1.398 . S
C2210 C2211 1.391 . S
C2211 H2199 0.950 . S
C2211 C2207 1.393 . S
C2211 C2210 1.391 . S
H2212 C2220 0.950 . S
H2213 C2225 0.950 . S
H2214 C2222 0.950 . S
H2215 C2224 0.950 . S
H2216 C2226 0.950 . S
H2217 C2228 0.950 . S
H2218 C2230 0.950 . S
H2219 C2231 0.950 . S
C2220 H2212 0.950 . S
C2220 C2221 1.386 . S
C2220 C2222 1.391 . S
C2221 C2220 1.386 . S
C2221 C2225 1.393 . S
C2222 H2214 0.950 . S
C2222 C2220 1.391 . S
C2222 C2223 1.400 . S
C2223 C2222 1.400 . S
C2223 C2224 1.398 . S
C2223 C2229 1.491 . S
C2224 H2215 0.950 . S
C2224 C2223 1.398 . S
C2224 C2225 1.391 . S
C2225 H2213 0.950 . S
C2225 C2221 1.393 . S
C2225 C2224 1.391 . S
C2226 H2216 0.950 . S
C2226 C2227 1.386 . S
C2226 C2228 1.391 . S
C2227 C2226 1.386 . S
C2227 C2231 1.393 . S
C2228 H2217 0.950 . S
C2228 C2226 1.391 . S
C2228 C2229 1.400 . S
C2229 C2223 1.491 . S
C2229 C2228 1.400 . S
C2229 C2230 1.398 . S
C2230 H2218 0.950 . S
C2230 C2229 1.398 . S
C2230 C2231 1.391 . S
C2231 H2219 0.950 . S
C2231 C2227 1.393 . S
C2231 C2230 1.391 . S
H2232 C2240 0.950 . S
H2233 C2245 0.950 . S
H2234 C2242 0.950 . S
H2235 C2244 0.950 . S
H2236 C2246 0.950 . S
H2237 C2248 0.950 . S
H2238 C2250 0.950 . S
H2239 C2251 0.950 . S
C2240 H2232 0.950 . S
C2240 C2241 1.386 . S
C2240 C2242 1.391 . S
C2241 C2240 1.386 . S
C2241 C2245 1.393 . S
C2242 H2234 0.950 . S
C2242 C2240 1.391 . S
C2242 C2243 1.400 . S
C2243 C2242 1.400 . S
C2243 C2244 1.398 . S
C2243 C2249 1.491 . S
C2244 H2235 0.950 . S
C2244 C2243 1.398 . S
C2244 C2245 1.391 . S
C2245 H2233 0.950 . S
C2245 C2241 1.393 . S
C2245 C2244 1.391 . S
C2246 H2236 0.950 . S
C2246 C2247 1.386 . S
C2246 C2248 1.391 . S
C2247 C2246 1.386 . S
C2247 C2251 1.393 . S
C2248 H2237 0.950 . S
C2248 C2246 1.391 . S
C2248 C2249 1.400 . S
C2249 C2243 1.491 . S
C2249 C2248 1.400 . S
C2249 C2250 1.398 . S
C2250 H2238 0.950 . S
C2250 C2249 1.398 . S
C2250 C2251 1.391 . S
C2251 H2239 0.950 . S
C2251 C2247 1.393 . S
C2251 C2250 1.391 . S
H2252 C2260 0.950 . S
H2253 C2265 0.950 . S
H2254 C2262 0.950 . S
H2255 C2264 0.950 . S
H2256 C2266 0.950 . S
H2257 C2268 0.950 . S
H2258 C2270 0.950 . S
H2259 C2271 0.950 . S
C2260 H2252 0.950 . S
C2260 C2261 1.386 . S
C2260 C2262 1.391 . S
C2261 C2260 1.386 . S
C2261 C2265 1.393 . S
C2262 H2254 0.950 . S
C2262 C2260 1.391 . S
C2262 C2263 1.400 . S
C2263 C2262 1.400 . S
C2263 C2264 1.398 . S
C2263 C2269 1.491 . S
C2264 H2255 0.950 . S
C2264 C2263 1.398 . S
C2264 C2265 1.391 . S
C2265 H2253 0.950 . S
C2265 C2261 1.393 . S
C2265 C2264 1.391 . S
C2266 H2256 0.950 . S
C2266 C2267 1.386 . S
C2266 C2268 1.391 . S
C2267 C2266 1.386 . S
C2267 C2271 1.393 . S
C2268 H2257 0.950 . S
C2268 C2266 1.391 . S
C2268 C2269 1.400 . S
C2269 C2263 1.491 . S
C2269 C2268 1.400 . S
C2269 C2270 1.398 . S
C2270 H2258 0.950 . S
C2270 C2269 1.398 . S
C2270 C2271 1.391 . S
C2271 H2259 0.950 . S
C2271 C2267 1.393 . S
C2271 C2270 1.391 . S
H2272 C2280 0.950 . S
H2273 C2285 0.950 . S
H2274 C2282 0.950 . S
H2275 C2284 0.950 . S
H2276 C2286 0.950 . S
H2277 C2288 0.950 . S
H2278 C2290 0.950 . S
H2279 C2291 0.950 . S
C2280 H2272 0.950 . S
C2280 C2281 1.386 . S
C2280 C2282 1.391 . S
C2281 C2280 1.386 . S
C2281 C2285 1.393 . S
C2282 H2274 0.950 . S
C2282 C2280 1.391 . S
C2282 C2283 1.400 . S
C2283 C2282 1.400 . S
C2283 C2284 1.398 . S
C2283 C2289 1.491 . S
C2284 H2275 0.950 . S
C2284 C2283 1.398 . S
C2284 C2285 1.391 . S
C2285 H2273 0.950 . S
C2285 C2281 1.393 . S
C2285 C2284 1.391 . S
C2286 H2276 0.950 . S
C2286 C2287 1.386 . S
C2286 C2288 1.391 . S
C2287 C2286 1.386 . S
C2287 C2291 1.393 . S
C2288 H2277 0.950 . S
C2288 C2286 1.391 . S
C2288 C2289 1.400 . S
C2289 C2283 1.491 . S
C2289 C2288 1.400 . S
C2289 C2290 1.398 . S
C2290 H2278 0.950 . S
C2290 C2289 1.398 . S
C2290 C2291 1.391 . S
C2291 H2279 0.950 . S
C2291 C2287 1.393 . S
C2291 C2290 1.391 . S
H2292 C2300 0.950 . S
H2293 C2305 0.950 . S
H2294 C2302 0.950 . S
H2295 C2304 0.950 . S
H2296 C2306 0.950 . S
H2297 C2308 0.950 . S
H2298 C2310 0.950 . S
H2299 C2311 0.950 . S
C2300 H2292 0.950 . S
C2300 C2301 1.386 . S
C2300 C2302 1.391 . S
C2301 C2300 1.386 . S
C2301 C2305 1.393 . S
C2302 H2294 0.950 . S
C2302 C2300 1.391 . S
C2302 C2303 1.400 . S
C2303 C2302 1.400 . S
C2303 C2304 1.398 . S
C2303 C2309 1.491 . S
C2304 H2295 0.950 . S
C2304 C2303 1.398 . S
C2304 C2305 1.391 . S
C2305 H2293 0.950 . S
C2305 C2301 1.393 . S
C2305 C2304 1.391 . S
C2306 H2296 0.950 . S
C2306 C2307 1.386 . S
C2306 C2308 1.391 . S
C2307 C2306 1.386 . S
C2307 C2311 1.393 . S
C2308 H2297 0.950 . S
C2308 C2306 1.391 . S
C2308 C2309 1.400 . S
C2309 C2303 1.491 . S
C2309 C2308 1.400 . S
C2309 C2310 1.398 . S
C2310 H2298 0.950 . S
C2310 C2309 1.398 . S
C2310 C2311 1.391 . S
C2311 H2299 0.950 . S
C2311 C2307 1.393 . S
C2311 C2310 1.391 . S
H2312 C2320 0.950 . S
H2313 C2325 0.950 . S
H2314 C2322 0.950 . S
H2315 C2324 0.950 . S
H2316 C2326 0.950 . S
H2317 C2328 0.950 . S
H2318 C2330 0.950 . S
H2319 C2331 0.950 . S
C2320 H2312 0.950 . S
C2320 C2321 1.386 . S
C2320 C2322 1.391 . S
C2321 C2320 1.386 . S
C2321 C2325 1.393 . S
C2322 H2314 0.950 . S
C2322 C2320 1.391 . S
C2322 C2323 1.400 . S
C2323 C2322 1.400 . S
C2323 C2324 1.398 . S
C2323 C2329 1.491 . S
C2324 H2315 0.950 . S
C2324 C2323 1.398 . S
C2324 C2325 1.391 . S
C2325 H2313 0.950 . S
C2325 C2321 1.393 . S
C2325 C2324 1.391 . S
C2326 H2316 0.950 . S
C2326 C2327 1.386 . S
C2326 C2328 1.391 . S
C2327 C2326 1.386 . S
C2327 C2331 1.393 . S
C2328 H2317 0.950 . S
C2328 C2326 1.391 . S
C2328 C2329 1.400 . S
C2329 C2323 1.491 . S
C2329 C2328 1.400 . S
C2329 C2330 1.398 . S
C2330 H2318 0.950 . S
C2330 C2329 1.398 . S
C2330 C2331 1.391 . S
C2331 H2319 0.950 . S
C2331 C2327 1.393 . S
C2331 C2330 1.391 . S
H2332 C2340 0.950 . S
H2333 C2345 0.950 . S
H2334 C2342 0.950 . S
H2335 C2344 0.950 . S
H2336 C2346 0.950 . S
H2337 C2348 0.950 . S
H2338 C2350 0.950 . S
H2339 C2351 0.950 . S
C2340 H2332 0.950 . S
C2340 C2341 1.386 . S
C2340 C2342 1.391 . S
C2341 C2340 1.386 . S
C2341 C2345 1.393 . S
C2342 H2334 0.950 . S
C2342 C2340 1.391 . S
C2342 C2343 1.400 . S
C2343 C2342 1.400 . S
C2343 C2344 1.398 . S
C2343 C2349 1.491 . S
C2344 H2335 0.950 . S
C2344 C2343 1.398 . S
C2344 C2345 1.391 . S
C2345 H2333 0.950 . S
C2345 C2341 1.393 . S
C2345 C2344 1.391 . S
C2346 H2336 0.950 . S
C2346 C2347 1.386 . S
C2346 C2348 1.391 . S
C2347 C2346 1.386 . S
C2347 C2351 1.393 . S
C2348 H2337 0.950 . S
C2348 C2346 1.391 . S
C2348 C2349 1.400 . S
C2349 C2343 1.491 . S
C2349 C2348 1.400 . S
C2349 C2350 1.398 . S
C2350 H2338 0.950 . S
C2350 C2349 1.398 . S
C2350 C2351 1.391 . S
C2351 H2339 0.950 . S
C2351 C2347 1.393 . S
C2351 C2350 1.391 . S
H2352 C2360 0.950 . S
H2353 C2365 0.950 . S
H2354 C2362 0.950 . S
H2355 C2364 0.950 . S
H2356 C2366 0.950 . S
H2357 C2368 0.950 . S
H2358 C2370 0.950 . S
H2359 C2371 0.950 . S
C2360 H2352 0.950 . S
C2360 C2361 1.386 . S
C2360 C2362 1.391 . S
C2361 C2360 1.386 . S
C2361 C2365 1.393 . S
C2362 H2354 0.950 . S
C2362 C2360 1.391 . S
C2362 C2363 1.400 . S
C2363 C2362 1.400 . S
C2363 C2364 1.398 . S
C2363 C2369 1.491 . S
C2364 H2355 0.950 . S
C2364 C2363 1.398 . S
C2364 C2365 1.391 . S
C2365 H2353 0.950 . S
C2365 C2361 1.393 . S
C2365 C2364 1.391 . S
C2366 H2356 0.950 . S
C2366 C2367 1.386 . S
C2366 C2368 1.391 . S
C2367 C2366 1.386 . S
C2367 C2371 1.393 . S
C2368 H2357 0.950 . S
C2368 C2366 1.391 . S
C2368 C2369 1.400 . S
C2369 C2363 1.491 . S
C2369 C2368 1.400 . S
C2369 C2370 1.398 . S
C2370 H2358 0.950 . S
C2370 C2369 1.398 . S
C2370 C2371 1.391 . S
C2371 H2359 0.950 . S
C2371 C2367 1.393 . S
C2371 C2370 1.391 . S
H2372 C2380 0.950 . S
H2373 C2385 0.950 . S
H2374 C2382 0.950 . S
H2375 C2384 0.950 . S
H2376 C2386 0.950 . S
H2377 C2388 0.950 . S
H2378 C2390 0.950 . S
H2379 C2391 0.950 . S
C2380 H2372 0.950 . S
C2380 C2381 1.386 . S
C2380 C2382 1.391 . S
C2381 C2380 1.386 . S
C2381 C2385 1.393 . S
C2382 H2374 0.950 . S
C2382 C2380 1.391 . S
C2382 C2383 1.400 . S
C2383 C2382 1.400 . S
C2383 C2384 1.398 . S
C2383 C2389 1.491 . S
C2384 H2375 0.950 . S
C2384 C2383 1.398 . S
C2384 C2385 1.391 . S
C2385 H2373 0.950 . S
C2385 C2381 1.393 . S
C2385 C2384 1.391 . S
C2386 H2376 0.950 . S
C2386 C2387 1.386 . S
C2386 C2388 1.391 . S
C2387 C2386 1.386 . S
C2387 C2391 1.393 . S
C2388 H2377 0.950 . S
C2388 C2386 1.391 . S
C2388 C2389 1.400 . S
C2389 C2383 1.491 . S
C2389 C2388 1.400 . S
C2389 C2390 1.398 . S
C2390 H2378 0.950 . S
C2390 C2389 1.398 . S
C2390 C2391 1.391 . S
C2391 H2379 0.950 . S
C2391 C2387 1.393 . S
C2391 C2390 1.391 . S
H2392 C2400 0.950 . S
H2393 C2405 0.950 . S
H2394 C2402 0.950 . S
H2395 C2404 0.950 . S
H2396 C2406 0.950 . S
H2397 C2408 0.950 . S
H2398 C2410 0.950 . S
H2399 C2411 0.950 . S
C2400 H2392 0.950 . S
C2400 C2401 1.386 . S
C2400 C2402 1.391 . S
C2401 C2400 1.386 . S
C2401 C2405 1.393 . S
C2402 H2394 0.950 . S
C2402 C2400 1.391 . S
C2402 C2403 1.400 . S
C2403 C2402 1.400 . S
C2403 C2404 1.398 . S
C2403 C2409 1.491 . S
C2404 H2395 0.950 . S
C2404 C2403 1.398 . S
C2404 C2405 1.391 . S
C2405 H2393 0.950 . S
C2405 C2401 1.393 . S
C2405 C2404 1.391 . S
C2406 H2396 0.950 . S
C2406 C2407 1.386 . S
C2406 C2408 1.391 . S
C2407 C2406 1.386 . S
C2407 C2411 1.393 . S
C2408 H2397 0.950 . S
C2408 C2406 1.391 . S
C2408 C2409 1.400 . S
C2409 C2403 1.491 . S
C2409 C2408 1.400 . S
C2409 C2410 1.398 . S
C2410 H2398 0.950 . S
C2410 C2409 1.398 . S
C2410 C2411 1.391 . S
C2411 H2399 0.950 . S
C2411 C2407 1.393 . S
C2411 C2410 1.391 . S
H2412 C2420 0.950 . S
H2413 C2425 0.950 . S
H2414 C2422 0.950 . S
H2415 C2424 0.950 . S
H2416 C2426 0.950 . S
H2417 C2428 0.950 . S
H2418 C2430 0.950 . S
H2419 C2431 0.950 . S
C2420 H2412 0.950 . S
C2420 C2421 1.386 . S
C2420 C2422 1.391 . S
C2421 C2420 1.386 . S
C2421 C2425 1.393 . S
C2422 H2414 0.950 . S
C2422 C2420 1.391 . S
C2422 C2423 1.400 . S
C2423 C2422 1.400 . S
C2423 C2424 1.398 . S
C2423 C2429 1.491 . S
C2424 H2415 0.950 . S
C2424 C2423 1.398 . S
C2424 C2425 1.391 . S
C2425 H2413 0.950 . S
C2425 C2421 1.393 . S
C2425 C2424 1.391 . S
C2426 H2416 0.950 . S
C2426 C2427 1.386 . S
C2426 C2428 1.391 . S
C2427 C2426 1.386 . S
C2427 C2431 1.393 . S
C2428 H2417 0.950 . S
C2428 C2426 1.391 . S
C2428 C2429 1.400 . S
C2429 C2423 1.491 . S
C2429 C2428 1.400 . S
C2429 C2430 1.398 . S
C2430 H2418 0.950 . S
C2430 C2429 1.398 . S
C2430 C2431 1.391 . S
C2431 H2419 0.950 . S
C2431 C2427 1.393 . S
C2431 C2430 1.391 . S
C1161 C974 1.321 . S
C1167 C4 1.293 . S
C1181 C40 1.304 . S
C1187 C290 1.318 . S
C1201 C902 1.329 . S
C1207 C76 1.305 . S
C1221 C112 1.311 . S
C1227 C362 1.323 . S
C1241 C148 1.311 . S
C1247 C1046 1.321 . S
C1261 C184 1.285 . S
C1267 C506 1.327 . S
C1281 C220 1.291 . S
C1287 C1118 1.332 . S
C1301 C256 1.287 . S
C1307 C434 1.331 . S
C1321 C686 1.269 . S
C1327 C291 1.259 . S
C1341 C2 1.258 . S
C1347 C327 1.262 . S
C1361 C614 1.255 . S
C1367 C363 1.264 . S
C1381 C399 1.259 . S
C1387 C74 1.269 . S
C1401 C758 1.259 . S
C1407 C435 1.261 . S
C1421 C218 1.266 . S
C1427 C471 1.257 . S
C1441 C507 1.270 . S
C1447 C830 1.257 . S
C1461 C146 1.260 . S
C1467 C543 1.269 . S
C1481 C580 1.311 . S
C1487 C398 1.321 . S
C1501 C616 1.306 . S
C1507 C866 1.318 . S
C1521 C326 1.328 . S
C1527 C652 1.285 . S
C1541 C938 1.330 . S
C1547 C688 1.303 . S
C1561 C470 1.322 . S
C1567 C724 1.290 . S
C1581 C1082 1.330 . S
C1587 C760 1.302 . S
C1601 C542 1.321 . S
C1607 C796 1.291 . S
C1621 C832 1.288 . S
C1627 C1010 1.323 . S
C1641 C110 1.260 . S
C1647 C867 1.259 . S
C1661 C903 1.268 . S
C1667 C578 1.261 . S
C1681 C939 1.263 . S
C1687 C38 1.256 . S
C1701 C975 1.258 . S
C1707 C650 1.269 . S
C1721 C1011 1.269 . S
C1727 C182 1.260 . S
C1741 C1047 1.264 . S
C1747 C794 1.266 . S
C1761 C1083 1.270 . S
C1767 C254 1.258 . S
C1781 C1119 1.261 . S
C1787 C722 1.268 . S
C1801 C878 1.498 . S
C1807 C14 1.436 . S
C1821 C50 1.447 . S
C1827 C338 1.479 . S
C1841 C950 1.479 . S
C1847 C86 1.453 . S
C1861 C122 1.428 . S
C1867 C410 1.494 . S
C1881 C1022 1.493 . S
C1887 C158 1.428 . S
C1901 C194 1.437 . S
C1907 C482 1.482 . S
C1921 C1094 1.488 . S
C1927 C230 1.457 . S
C1941 C266 1.442 . S
C1947 C554 1.498 . S
C1961 C302 1.498 . S
C1967 C590 1.434 . S
C1981 C374 1.483 . S
C1987 C662 1.436 . S
C2001 C446 1.485 . S
C2007 C734 1.458 . S
C2021 C518 1.484 . S
C2027 C806 1.434 . S
C2041 C626 1.439 . S
C2047 C914 1.481 . S
C2061 C986 1.480 . S
C2067 C698 1.457 . S
C2081 C1058 1.479 . S
C2087 C770 1.442 . S
C2101 C842 1.444 . S
C2107 C1130 1.479 . S
C2121 C3 1.486 . S
C2127 C183 1.487 . S
C2141 C39 1.484 . S
C2147 C219 1.487 . S
C2161 C75 1.487 . S
C2167 C255 1.486 . S
C2181 C147 1.485 . S
C2187 C111 1.487 . S
C2201 C292 1.340 . S
C2207 C472 1.355 . S
C2221 C328 1.345 . S
C2227 C508 1.345 . S
C2241 C364 1.360 . S
C2247 C544 1.345 . S
C2261 C400 1.355 . S
C2267 C436 1.355 . S
C2281 C579 1.487 . S
C2287 C759 1.487 . S
C2301 C795 1.485 . S
C2307 C615 1.487 . S
C2321 C651 1.485 . S
C2327 C831 1.482 . S
C2341 C687 1.486 . S
C2347 C723 1.487 . S
C2361 C1048 1.348 . S
C2367 C868 1.343 . S
C2381 C904 1.357 . S
C2387 C1084 1.340 . S
C2401 C1120 1.340 . S
C2407 C940 1.354 . S
C2421 C976 1.359 . S
C2427 C1012 1.349 . S
