# Generated by pormake.
# Topology bor-e, (5)-cn, num edge types: 1
# Building blocks:
#     Node 0, Type 0, BuildingBlock: BEQFEK_clean_sbu_0, # of connection points: 5
#     Node 1, Type 0, BuildingBlock: BEQFEK_clean_sbu_0, # of connection points: 5
#     Node 2, Type 0, BuildingBlock: BEQFEK_clean_sbu_0, # of connection points: 5
#     Node 3, Type 0, BuildingBlock: BEQFEK_clean_sbu_0, # of connection points: 5
#     Node 4, Type 0, BuildingBlock: BEQFEK_clean_sbu_0, # of connection points: 5
#     Node 5, Type 0, BuildingBlock: BEQFEK_clean_sbu_0, # of connection points: 5
#     Node 6, Type 0, BuildingBlock: BEQFEK_clean_sbu_0, # of connection points: 5
#     Node 7, Type 0, BuildingBlock: BEQFEK_clean_sbu_0, # of connection points: 5
#     Node 8, Type 0, BuildingBlock: BEQFEK_clean_sbu_0, # of connection points: 5
#     Node 9, Type 0, BuildingBlock: BEQFEK_clean_sbu_0, # of connection points: 5
#     Node 10, Type 0, BuildingBlock: BEQFEK_clean_sbu_0, # of connection points: 5
#     Node 11, Type 0, BuildingBlock: BEQFEK_clean_sbu_0, # of connection points: 5
#     Edge 12, Type (0, 0), BuildingBlock: OJICUG_clean_linker_0, # of connection points: 2
#     Edge 13, Type (0, 0), BuildingBlock: OJICUG_clean_linker_0, # of connection points: 2
#     Edge 14, Type (0, 0), BuildingBlock: OJICUG_clean_linker_0, # of connection points: 2
#     Edge 15, Type (0, 0), BuildingBlock: OJICUG_clean_linker_0, # of connection points: 2
#     Edge 16, Type (0, 0), BuildingBlock: OJICUG_clean_linker_0, # of connection points: 2
#     Edge 17, Type (0, 0), BuildingBlock: OJICUG_clean_linker_0, # of connection points: 2
#     Edge 18, Type (0, 0), BuildingBlock: OJICUG_clean_linker_0, # of connection points: 2
#     Edge 19, Type (0, 0), BuildingBlock: OJICUG_clean_linker_0, # of connection points: 2
#     Edge 20, Type (0, 0), BuildingBlock: OJICUG_clean_linker_0, # of connection points: 2
#     Edge 21, Type (0, 0), BuildingBlock: OJICUG_clean_linker_0, # of connection points: 2
#     Edge 22, Type (0, 0), BuildingBlock: OJICUG_clean_linker_0, # of connection points: 2
#     Edge 23, Type (0, 0), BuildingBlock: OJICUG_clean_linker_0, # of connection points: 2
#     Edge 24, Type (0, 0), BuildingBlock: OJICUG_clean_linker_0, # of connection points: 2
#     Edge 25, Type (0, 0), BuildingBlock: OJICUG_clean_linker_0, # of connection points: 2
#     Edge 26, Type (0, 0), BuildingBlock: OJICUG_clean_linker_0, # of connection points: 2
#     Edge 27, Type (0, 0), BuildingBlock: OJICUG_clean_linker_0, # of connection points: 2
#     Edge 28, Type (0, 0), BuildingBlock: OJICUG_clean_linker_0, # of connection points: 2
#     Edge 29, Type (0, 0), BuildingBlock: OJICUG_clean_linker_0, # of connection points: 2
#     Edge 30, Type (0, 0), BuildingBlock: OJICUG_clean_linker_0, # of connection points: 2
#     Edge 31, Type (0, 0), BuildingBlock: OJICUG_clean_linker_0, # of connection points: 2
#     Edge 32, Type (0, 0), BuildingBlock: OJICUG_clean_linker_0, # of connection points: 2
#     Edge 33, Type (0, 0), BuildingBlock: OJICUG_clean_linker_0, # of connection points: 2
#     Edge 34, Type (0, 0), BuildingBlock: OJICUG_clean_linker_0, # of connection points: 2
#     Edge 35, Type (0, 0), BuildingBlock: OJICUG_clean_linker_0, # of connection points: 2
#     Edge 36, Type (0, 0), BuildingBlock: OJICUG_clean_linker_0, # of connection points: 2
#     Edge 37, Type (0, 0), BuildingBlock: OJICUG_clean_linker_0, # of connection points: 2
#     Edge 38, Type (0, 0), BuildingBlock: OJICUG_clean_linker_0, # of connection points: 2
#     Edge 39, Type (0, 0), BuildingBlock: OJICUG_clean_linker_0, # of connection points: 2
#     Edge 40, Type (0, 0), BuildingBlock: OJICUG_clean_linker_0, # of connection points: 2
#     Edge 41, Type (0, 0), BuildingBlock: OJICUG_clean_linker_0, # of connection points: 2
# Relax obj value: 0.574
# Max RMSD: 0.280
# Mean RMSD: 0.280
data_MOF--net-bor-e--node1-BEQFEK_clean_sbu_0--edge1-OJICUG_clean_linker_0
_symmetry_space_group_name_H-M    P1
_symmetry_Int_Tables_number       1
_symmetry_cell_setting            triclinic
loop_
_symmetry_equiv_pos_as_xyz
'x, y, z'
_cell_length_a     34.768974
_cell_length_b     35.015207
_cell_length_c     34.815652
_cell_angle_alpha  89.466773
_cell_angle_beta   90.15375
_cell_angle_gamma 89.571643
loop_
_atom_site_label
_atom_site_type_symbol
_atom_site_fract_x
_atom_site_fract_y
_atom_site_fract_z
_atom_type_partial_charge
Co0 Co 0.07011 0.0972 0.56996 0.0
Co1 Co 0.03726 0.14931 0.63265 0.0
C2 C 0.03636 0.1687 0.54631 0.0
O3 O 0.05968 0.14201 0.53799 0.0
O4 O 0.02472 0.17299 0.58074 0.0
C5 C 0.11651 0.06032 0.51218 0.0
O6 O 0.13121 0.09406 0.50486 0.0
C7 C 0.05577 0.21736 0.67411 0.0
C8 C 0.01559 0.21686 0.72305 0.0
C9 C 0.0472 0.2358 0.70809 0.0
N10 N 0.03123 0.18829 0.66978 0.0
N11 N 0.00674 0.18848 0.69872 0.0
C12 C 0.08731 0.22635 0.64631 0.0
H13 H 0.07856 0.21834 0.61681 0.0
H14 H 0.11339 0.20946 0.65386 0.0
H15 H 0.09456 0.25715 0.64714 0.0
C16 C 0.13497 0.08955 0.62473 0.0
N17 N 0.10255 0.10694 0.61196 0.0
N18 N 0.08788 0.12785 0.63948 0.0
C19 C 0.11001 0.12353 0.67123 0.0
C20 C 0.14087 0.09947 0.66282 0.0
C21 C 0.156 0.05917 0.60307 0.0
H22 H 0.13587 0.03581 0.59603 0.0
H23 H 0.16689 0.07142 0.57575 0.0
H24 H 0.1805 0.04707 0.61973 0.0
O25 O 0.02098 0.07589 0.58878 0.0
O26 O -9e-05 0.10731 0.63999 0.0
H27 H 0.06815 0.13585 0.71476 0.0
H28 H 0.11537 0.12424 0.73358 0.0
C29 C 0.09951 0.13876 0.70996 0.0
H30 H 0.10694 0.16937 0.71118 0.0
H31 H 0.98529 0.16818 0.70285 0.0
O32 O 0.09132 0.05669 0.53815 0.0
C33 C -0.00305 0.08022 0.61596 0.0
Co34 Co 0.1318 0.88106 0.42871 0.0
Co35 Co 0.07755 0.85019 0.36387 0.0
C36 C 0.06152 0.83608 0.44829 0.0
O37 O 0.09233 0.85244 0.45878 0.0
O38 O 0.0533 0.83311 0.41284 0.0
C39 C 0.18989 0.91881 0.48038 0.0
O40 O 0.22276 0.91543 0.49883 0.0
C41 C 0.06823 0.78362 0.31908 0.0
C42 C 0.0391 0.80345 0.2662 0.0
C43 C 0.05895 0.77257 0.28215 0.0
N44 N 0.05609 0.81967 0.32421 0.0
N45 N 0.03753 0.83112 0.29294 0.0
C46 C 0.09099 0.76141 0.3484 0.0
H47 H 0.08159 0.7692 0.37774 0.0
H48 H 0.1219 0.76845 0.34585 0.0
H49 H 0.08756 0.73024 0.3441 0.0
C50 C 0.1899 0.86028 0.37271 0.0
N51 N 0.15415 0.85507 0.38692 0.0
N52 N 0.13131 0.8449 0.35881 0.0
C53 C 0.1514 0.84495 0.32566 0.0
C54 C 0.18926 0.85403 0.33351 0.0
C55 C 0.22186 0.87937 0.39387 0.0
H56 H 0.21325 0.90916 0.40048 0.0
H57 H 0.22772 0.86374 0.42112 0.0
H58 H 0.24868 0.87992 0.37665 0.0
O59 O 0.10578 0.9281 0.40572 0.0
O60 O 0.06802 0.9055 0.35874 0.0
H61 H 0.10644 0.86539 0.28816 0.0
H62 H 0.15241 0.86073 0.26497 0.0
C63 C 0.13303 0.84783 0.28667 0.0
H64 H 0.12574 0.81894 0.27663 0.0
H65 H 0.02689 0.85877 0.28856 0.0
O66 O 0.17597 0.88967 0.46421 0.0
C67 C 0.08177 0.9333 0.37793 0.0
Co68 Co 0.86815 0.8827 0.57261 0.0
Co69 Co 0.92179 0.8594 0.64244 0.0
C70 C 0.94068 0.83784 0.5604 0.0
O71 O 0.90953 0.85238 0.54744 0.0
O72 O 0.94814 0.83818 0.59622 0.0
C73 C 0.80994 0.91374 0.51389 0.0
O74 O 0.77794 0.90606 0.49546 0.0
C75 C 0.93332 0.79916 0.69825 0.0
C76 C 0.96654 0.82567 0.74479 0.0
C77 C 0.94652 0.79288 0.7354 0.0
N78 N 0.94382 0.83429 0.68667 0.0
N79 N 0.96452 0.84975 0.71429 0.0
C80 C 0.90935 0.77295 0.6745 0.0
H81 H 0.91431 0.77855 0.64348 0.0
H82 H 0.87846 0.77811 0.68045 0.0
H83 H 0.91617 0.74267 0.68162 0.0
C84 C 0.80934 0.8655 0.62915 0.0
N85 N 0.84575 0.86019 0.61669 0.0
N86 N 0.86806 0.8531 0.64644 0.0
C87 C 0.84684 0.85538 0.6788 0.0
C88 C 0.80889 0.86262 0.66885 0.0
C89 C 0.77734 0.88154 0.60496 0.0
H90 H 0.77327 0.86341 0.57935 0.0
H91 H 0.74988 0.88269 0.62112 0.0
H92 H 0.78483 0.91086 0.59537 0.0
O93 O 0.89173 0.93193 0.59003 0.0
O94 O 0.9291 0.91544 0.64034 0.0
H95 H 0.89025 0.87915 0.71546 0.0
H96 H 0.84342 0.87689 0.73722 0.0
C97 C 0.86375 0.86192 0.7179 0.0
H98 H 0.87092 0.83411 0.73149 0.0
H99 H 0.97509 0.87756 0.71335 0.0
O100 O 0.8251 0.8878 0.53485 0.0
C101 C 0.91492 0.94064 0.61731 0.0
Co102 Co 0.91799 0.08813 0.3988 0.0
Co103 Co 0.95219 0.13663 0.33199 0.0
C104 C 0.94901 0.1625 0.41604 0.0
O105 O 0.9268 0.13564 0.4263 0.0
O106 O 0.96135 0.16485 0.3816 0.0
C107 C 0.87124 0.05443 0.45976 0.0
O108 O 0.85473 0.08804 0.46359 0.0
C109 C 0.94246 0.20345 0.28154 0.0
C110 C 0.98427 0.1921 0.23534 0.0
C111 C 0.95551 0.21729 0.24644 0.0
N112 N 0.96192 0.17115 0.29023 0.0
N113 N 0.98729 0.16484 0.26278 0.0
C114 C 0.91236 0.22074 0.30684 0.0
H115 H 0.88367 0.20954 0.29907 0.0
H116 H 0.91168 0.25228 0.30329 0.0
H117 H 0.91799 0.213 0.33731 0.0
C118 C 0.8553 0.07701 0.34233 0.0
N119 N 0.88752 0.0946 0.35424 0.0
N120 N 0.90185 0.11486 0.32576 0.0
C121 C 0.8793 0.11036 0.29443 0.0
C122 C 0.84889 0.0863 0.30391 0.0
C123 C 0.83444 0.04777 0.36583 0.0
H124 H 0.85527 0.02616 0.37688 0.0
H125 H 0.82097 0.0619 0.39087 0.0
H126 H 0.81198 0.033 0.34904 0.0
O127 O 0.9683 0.0662 0.38487 0.0
O128 O 0.99066 0.09407 0.33186 0.0
H129 H 0.91836 0.12078 0.24798 0.0
H130 H 0.86872 0.11657 0.23288 0.0
C131 C 0.88805 0.12709 0.25566 0.0
H132 H 0.88425 0.15841 0.25658 0.0
H133 H 0.0058 0.14125 0.26213 0.0
O134 O 0.89676 0.04963 0.43426 0.0
C135 C 0.99344 0.06903 0.35858 0.0
Co136 Co 0.56128 0.10858 0.1114 0.0
Co137 Co 0.63381 0.05857 0.13547 0.0
C138 C 0.55497 0.04566 0.16919 0.0
O139 O 0.54055 0.07427 0.15149 0.0
O140 O 0.59057 0.03764 0.16616 0.0
C141 C 0.50334 0.16711 0.07942 0.0
O142 O 0.48214 0.19704 0.088 0.0
C143 C 0.69371 0.04996 0.19292 0.0
C144 C 0.73753 0.01391 0.16508 0.0
C145 C 0.73086 0.03526 0.19797 0.0
N146 N 0.68001 0.03853 0.15873 0.0
N147 N 0.70601 0.0163 0.14253 0.0
C148 C 0.67244 0.07766 0.21774 0.0
H149 H 0.64596 0.08824 0.20329 0.0
H150 H 0.69109 0.10217 0.22497 0.0
H151 H 0.66359 0.06308 0.24468 0.0
C152 C 0.61925 0.16879 0.11423 0.0
N153 N 0.60785 0.13323 0.12389 0.0
N154 N 0.63831 0.11244 0.13258 0.0
C155 C 0.67009 0.13394 0.1279 0.0
C156 C 0.65899 0.17042 0.11637 0.0
C157 C 0.59343 0.19889 0.09723 0.0
H158 H 0.58187 0.18874 0.06944 0.0
H159 H 0.5691 0.20434 0.117 0.0
H160 H 0.60891 0.2261 0.09236 0.0
O161 O 0.57084 0.07449 0.06588 0.0
O162 O 0.6237 0.04068 0.08224 0.0
H163 H 0.70966 0.08969 0.11135 0.0
H164 H 0.72963 0.13698 0.10934 0.0
C165 C 0.7101 0.11786 0.12556 0.0
H166 H 0.7219 0.11424 0.15497 0.0
H167 H 0.70307 0.00444 0.1153 0.0
O168 O 0.52177 0.15013 0.10621 0.0
C169 C 0.59652 0.04905 0.05858 0.0
Co170 Co 0.11649 0.42713 0.86765 0.0
Co171 Co 0.1392 0.35505 0.91794 0.0
C172 C 0.16007 0.43561 0.94103 0.0
O173 O 0.14607 0.4499 0.91027 0.0
O174 O 0.15976 0.39967 0.94699 0.0
C175 C 0.0848 0.48779 0.81311 0.0
O176 O 0.09154 0.5087 0.78238 0.0
C177 C 0.19829 0.29703 0.92767 0.0
C178 C 0.17081 0.2524 0.96296 0.0
C179 C 0.20379 0.26038 0.94211 0.0
N180 N 0.16346 0.30981 0.93854 0.0
N181 N 0.14741 0.28327 0.96033 0.0
C182 C 0.22525 0.31933 0.9028 0.0
H183 H 0.22046 0.31202 0.87226 0.0
H184 H 0.25556 0.31221 0.91022 0.0
H185 H 0.21995 0.35043 0.90615 0.0
C186 C 0.13449 0.37488 0.80646 0.0
N187 N 0.14012 0.38503 0.84336 0.0
N188 N 0.14629 0.35407 0.86411 0.0
C189 C 0.14257 0.32322 0.84142 0.0
C190 C 0.13522 0.33542 0.80406 0.0
C191 C 0.11964 0.40132 0.7757 0.0
H192 H 0.08985 0.41033 0.78277 0.0
H193 H 0.13818 0.42689 0.77388 0.0
H194 H 0.11945 0.38722 0.74727 0.0
O195 O 0.06638 0.40817 0.88973 0.0
O196 O 0.08279 0.35634 0.9247 0.0
H197 H 0.11746 0.28579 0.88367 0.0
H198 H 0.11815 0.26637 0.83596 0.0
C199 C 0.13432 0.28391 0.85677 0.0
H200 H 0.16179 0.26892 0.86299 0.0
H201 H 0.11974 0.28539 0.9717 0.0
O202 O 0.11186 0.46731 0.82691 0.0
C203 C 0.05745 0.37972 0.91145 0.0
Co204 Co 0.44362 0.86117 0.10614 0.0
Co205 Co 0.3704 0.90378 0.1372 0.0
C206 C 0.44965 0.92542 0.16234 0.0
O207 O 0.46435 0.89871 0.14274 0.0
O208 O 0.41353 0.93067 0.16258 0.0
C209 C 0.50864 0.81379 0.0716 0.0
O210 O 0.53656 0.78926 0.07873 0.0
C211 C 0.31969 0.90515 0.20137 0.0
C212 C 0.26827 0.93708 0.18182 0.0
C213 C 0.28292 0.91554 0.21226 0.0
N214 N 0.32624 0.91876 0.16585 0.0
N215 N 0.29572 0.93859 0.15446 0.0
C216 C 0.3479 0.88112 0.22366 0.0
H217 H 0.34342 0.85057 0.21699 0.0
H218 H 0.34387 0.88504 0.255 0.0
H219 H 0.37776 0.88848 0.2155 0.0
C220 C 0.39214 0.7958 0.11446 0.0
N221 N 0.40218 0.83149 0.12474 0.0
N222 N 0.3715 0.84957 0.13733 0.0
C223 C 0.34093 0.82612 0.1349 0.0
C224 C 0.35306 0.79113 0.12091 0.0
C225 C 0.41731 0.76987 0.09153 0.0
H226 H 0.42255 0.78321 0.06304 0.0
H227 H 0.44538 0.76603 0.10629 0.0
H228 H 0.4038 0.74155 0.08748 0.0
O229 O 0.42322 0.88995 0.05974 0.0
O230 O 0.36986 0.91881 0.08198 0.0
H231 H 0.29756 0.86786 0.12029 0.0
H232 H 0.28015 0.81975 0.12084 0.0
C233 C 0.2999 0.83985 0.1352 0.0
H234 H 0.29014 0.8429 0.16524 0.0
H235 H 0.2929 0.9515 0.12745 0.0
O236 O 0.4893 0.82691 0.09945 0.0
C237 C 0.39309 0.91094 0.05458 0.0
Co238 Co 0.90213 0.59023 0.91946 0.0
Co239 Co 0.8463 0.65222 0.95197 0.0
C240 C 0.82753 0.56691 0.94872 0.0
O241 O 0.85708 0.55874 0.92898 0.0
O242 O 0.82153 0.60084 0.96041 0.0
C243 C 0.94038 0.53056 0.87572 0.0
O244 O 0.90642 0.5217 0.86195 0.0
C245 C 0.77493 0.69406 0.93594 0.0
C246 C 0.77248 0.73729 0.98154 0.0
C247 C 0.75304 0.72458 0.94925 0.0
N248 N 0.80591 0.6894 0.95885 0.0
N249 N 0.80411 0.71517 0.98628 0.0
C250 C 0.76595 0.66836 0.90302 0.0
H251 H 0.77782 0.68064 0.87614 0.0
H252 H 0.73438 0.66534 0.89949 0.0
H253 H 0.77947 0.63988 0.90758 0.0
C254 C 0.90775 0.64555 0.85549 0.0
N255 N 0.89113 0.63279 0.88802 0.0
N256 N 0.86839 0.65953 0.90182 0.0
C257 C 0.87037 0.69057 0.87856 0.0
C258 C 0.89515 0.6826 0.84833 0.0
C259 C 0.9369 0.6234 0.83314 0.0
H260 H 0.96339 0.61975 0.85068 0.0
H261 H 0.92547 0.59462 0.82697 0.0
H262 H 0.94413 0.63788 0.80565 0.0
O263 O 0.92346 0.60806 0.96849 0.0
O264 O 0.88883 0.65664 0.99115 0.0
H265 H 0.85392 0.73297 0.91982 0.0
H266 H 0.87129 0.75223 0.87481 0.0
C267 C 0.85422 0.72906 0.88827 0.0
H268 H 0.82434 0.73142 0.87728 0.0
H269 H 0.82467 0.71797 0.00795 0.0
O270 O 0.94371 0.55843 0.89847 0.0
C271 C 0.91766 0.63382 0.99335 0.0
Co272 Co 0.54075 0.89056 0.88241 0.0
Co273 Co 0.61503 0.92885 0.84901 0.0
C274 C 0.53812 0.94271 0.81365 0.0
O275 O 0.52344 0.91906 0.83694 0.0
O276 O 0.5737 0.9501 0.81524 0.0
C277 C 0.4718 0.84184 0.91364 0.0
O278 O 0.44065 0.82565 0.90015 0.0
C279 C 0.67075 0.92107 0.78949 0.0
C280 C 0.71875 0.95848 0.80574 0.0
C281 C 0.70743 0.93169 0.77891 0.0
N282 N 0.66103 0.93976 0.82155 0.0
N283 N 0.68955 0.96265 0.83093 0.0
C284 C 0.64519 0.89308 0.76975 0.0
H285 H 0.65171 0.86381 0.78044 0.0
H286 H 0.65013 0.89379 0.73826 0.0
H287 H 0.61456 0.89937 0.776 0.0
C288 C 0.59373 0.82349 0.88678 0.0
N289 N 0.58411 0.85858 0.87315 0.0
N290 N 0.61519 0.87521 0.85976 0.0
C291 C 0.64566 0.85164 0.86545 0.0
C292 C 0.63305 0.81773 0.88184 0.0
C293 C 0.56701 0.79834 0.90882 0.0
H294 H 0.56202 0.81084 0.93756 0.0
H295 H 0.539 0.79684 0.89365 0.0
H296 H 0.57917 0.76913 0.91247 0.0
O297 O 0.5552 0.92969 0.92232 0.0
O298 O 0.60986 0.9548 0.89927 0.0
H299 H 0.6886 0.89486 0.87327 0.0
H300 H 0.70509 0.8475 0.8847 0.0
C301 C 0.68674 0.86455 0.86474 0.0
H302 H 0.6985 0.86118 0.83544 0.0
H303 H 0.68966 0.98001 0.85513 0.0
O304 O 0.49272 0.86075 0.8906 0.0
C305 C 0.58374 0.95264 0.92509 0.0
Co306 Co 0.89315 0.41763 0.06492 0.0
Co307 Co 0.84651 0.3513 0.03148 0.0
C308 C 0.82027 0.43537 0.03053 0.0
O309 O 0.84603 0.44552 0.0541 0.0
O310 O 0.8189 0.40106 0.01854 0.0
C311 C 0.92489 0.48058 0.10793 0.0
O312 O 0.88971 0.48868 0.11902 0.0
C313 C 0.78148 0.30347 0.04846 0.0
C314 C 0.78514 0.25772 0.00543 0.0
C315 C 0.76492 0.26935 0.03763 0.0
N316 N 0.8106 0.31121 0.02444 0.0
N317 N 0.81242 0.28403 -0.00159 0.0
C318 C 0.76972 0.3289 0.0808 0.0
H319 H 0.77818 0.35881 0.07458 0.0
H320 H 0.78446 0.31964 0.1076 0.0
H321 H 0.7382 0.32734 0.08554 0.0
C322 C 0.90095 0.36504 0.13128 0.0
N323 N 0.88521 0.37548 0.09734 0.0
N324 N 0.86665 0.34647 0.08273 0.0
C325 C 0.87102 0.31606 0.10659 0.0
C326 C 0.89237 0.327 0.13842 0.0
C327 C 0.92586 0.39036 0.15498 0.0
H328 H 0.95341 0.39528 0.13976 0.0
H329 H 0.91136 0.41838 0.15865 0.0
H330 H 0.93187 0.37763 0.1837 0.0
O331 O 0.91708 0.40103 0.01626 0.0
O332 O 0.89036 0.34765 -0.00488 0.0
H333 H 0.86207 0.27239 0.06439 0.0
H334 H 0.88241 0.25533 0.10914 0.0
C335 C 0.86159 0.2758 0.09598 0.0
H336 H 0.83258 0.26862 0.10685 0.0
H337 H 0.83306 0.28275 0.97675 0.0
O338 O 0.93111 0.45206 0.08662 0.0
C339 C 0.91557 0.3738 0.99236 0.0
Co340 Co 0.40606 0.07478 0.89243 0.0
Co341 Co 0.33724 0.03771 0.84995 0.0
C342 C 0.41988 0.04222 0.81814 0.0
O343 O 0.43158 0.06523 0.84361 0.0
O344 O 0.38549 0.02963 0.81879 0.0
C345 C 0.46848 0.12029 0.9283 0.0
O346 O 0.47593 0.13812 0.89584 0.0
C347 C 0.28329 0.04689 0.78587 0.0
C348 C 0.23935 0.00347 0.79858 0.0
C349 C 0.24796 0.03306 0.77322 0.0
N350 N 0.29435 0.02676 0.81719 0.0
N351 N 0.26826 0.00044 0.82428 0.0
C352 C 0.30487 0.08079 0.77109 0.0
H353 H 0.32713 0.08966 0.79199 0.0
H354 H 0.28487 0.10498 0.76513 0.0
H355 H 0.31959 0.07308 0.74399 0.0
C356 C 0.34955 0.1375 0.90282 0.0
N357 N 0.36065 0.10398 0.88749 0.0
N358 N 0.3312 0.08827 0.87008 0.0
C359 C 0.30018 0.11134 0.87413 0.0
C360 C 0.31089 0.14337 0.89468 0.0
C361 C 0.37518 0.16248 0.92607 0.0
H362 H 0.40187 0.16829 0.90975 0.0
H363 H 0.36088 0.18994 0.93322 0.0
H364 H 0.38338 0.14728 0.95302 0.0
O365 O 0.39461 0.02528 0.91667 0.0
O366 O 0.34059 0.00051 0.8941 0.0
H367 H 0.23859 0.11611 0.88109 0.0
H368 H 0.25481 0.10941 0.83271 0.0
C369 C 0.25999 0.10095 0.86306 0.0
H370 H 0.25578 0.06975 0.86616 0.0
H371 H 0.26943 0.98142 0.84752 0.0
O372 O 0.44142 0.09631 0.93017 0.0
C373 C 0.36919 -0.00058 0.91716 0.0
Co374 Co 0.10556 0.56448 0.13008 0.0
Co375 Co 0.14207 0.62873 0.07827 0.0
C376 C 0.15464 0.54447 0.06279 0.0
O377 O 0.13583 0.53407 0.09233 0.0
O378 O 0.15897 0.57971 0.05504 0.0
C379 C 0.06285 0.51373 0.18597 0.0
O380 O 0.06423 0.49483 0.21872 0.0
C381 C 0.21344 0.66826 0.07208 0.0
C382 C 0.20132 0.71973 0.03716 0.0
C383 C 0.22966 0.70212 0.05945 0.0
N384 N 0.17713 0.66631 0.05894 0.0
N385 N 0.17018 0.69682 0.03732 0.0
C386 C 0.2315 0.63864 0.09782 0.0
H387 H 0.22476 0.64521 0.12817 0.0
H388 H 0.26323 0.63826 0.09433 0.0
H389 H 0.21967 0.61006 0.09147 0.0
C390 C 0.12414 0.61879 0.18929 0.0
N391 N 0.13166 0.60484 0.15403 0.0
N392 N 0.14465 0.63263 0.13221 0.0
C393 C 0.14467 0.66528 0.15255 0.0
C394 C 0.1317 0.65753 0.18937 0.0
C395 C 0.10168 0.59812 0.21954 0.0
H396 H 0.07228 0.59246 0.20863 0.0
H397 H 0.11613 0.57062 0.22662 0.0
H398 H 0.0994 0.61506 0.24625 0.0
O399 O 0.06049 0.58931 0.10219 0.0
O400 O 0.08636 0.63559 0.06556 0.0
H401 H 0.13064 0.70493 0.10711 0.0
H402 H 0.13531 0.72679 0.15366 0.0
C403 C 0.14689 0.7043 0.13456 0.0
H404 H 0.17736 0.71108 0.12856 0.0
H405 H 0.14367 0.70307 0.02453 0.0
O406 O 0.09335 0.52897 0.17336 0.0
C407 C 0.05704 0.61715 0.07802 0.0
C408 C 0.07354 0.31728 0.77302 0.0
C409 C 0.11367 0.31309 0.77556 0.0
H410 H 0.02103 0.29589 0.74937 0.0
C411 C 0.13219 0.28479 0.75417 0.0
H412 H 0.05868 0.33849 0.79005 0.0
C413 C 0.11074 0.26063 0.73077 0.0
C414 C 0.07041 0.26422 0.72879 0.0
H415 H 0.16302 0.28066 0.7565 0.0
H416 H 0.12564 0.23802 0.71584 0.0
C417 C 0.05206 0.29288 0.75 0.0
C418 C 0.21609 0.90965 0.29761 0.0
C419 C 0.21622 0.87018 0.30522 0.0
H420 H 0.23708 0.95502 0.26155 0.0
C421 C 0.2388 0.84588 0.28284 0.0
H422 H 0.19807 0.92868 0.31423 0.0
C423 C 0.26115 0.86084 0.25312 0.0
C424 C 0.26087 0.90031 0.2451 0.0
H425 H 0.23846 0.81529 0.28779 0.0
H426 H 0.27754 0.84128 0.2356 0.0
C427 C 0.23804 0.9246 0.26748 0.0
C428 C 0.96046 0.74552 0.78824 0.0
C429 C 0.93401 0.76293 0.76292 0.0
H430 H 0.96886 0.70563 0.83489 0.0
C431 C 0.89486 0.75347 0.76588 0.0
H432 H 0.99068 0.7527 0.78689 0.0
C433 C 0.8824 0.72724 0.79356 0.0
C434 C 0.90885 0.70952 0.81847 0.0
H435 H 0.87353 0.76715 0.74767 0.0
H436 H 0.85202 0.72087 0.79563 0.0
C437 C 0.94803 0.71866 0.81553 0.0
C438 C 0.75121 0.06003 0.26346 0.0
C439 C 0.76075 0.04528 0.22715 0.0
H440 H 0.77146 0.08558 0.31549 0.0
C441 C 0.80001 0.04124 0.21798 0.0
H442 H 0.72186 0.06154 0.27314 0.0
C443 C 0.8286 0.0535 0.2433 0.0
C444 C 0.81875 0.07085 0.27812 0.0
H445 H 0.80883 0.02933 0.19077 0.0
H446 H 0.8585 0.04984 0.23538 0.0
C447 C 0.77982 0.07319 0.28834 0.0
C448 C 0.07312 0.69268 0.21101 0.0
C449 C 0.1128 0.6855 0.21456 0.0
H450 H 0.02485 0.72621 0.22988 0.0
C451 C 0.13449 0.70628 0.2408 0.0
H452 H 0.05609 0.67708 0.19039 0.0
C453 C 0.11672 0.7339 0.26345 0.0
C454 C 0.07694 0.74128 0.26012 0.0
H455 H 0.16522 0.70149 0.24337 0.0
H456 H 0.13456 0.75031 0.28255 0.0
C457 C 0.05535 0.72063 0.23344 0.0
C458 C 0.75884 0.85728 0.7195 0.0
C459 C 0.78024 0.88016 0.69446 0.0
H460 H 0.71906 0.8558 0.76616 0.0
C461 C 0.77737 0.92011 0.69679 0.0
H462 H 0.76146 0.82645 0.71864 0.0
C463 C 0.75355 0.937 0.72423 0.0
C464 C 0.73184 0.91412 0.74919 0.0
H465 H 0.79441 0.93816 0.6781 0.0
H466 H 0.75211 0.96784 0.72601 0.0
C467 C 0.7346 0.87412 0.74653 0.0
C468 C 0.96362 0.27158 0.20013 0.0
C469 C 0.93918 0.24823 0.222 0.0
H470 H 0.96784 0.31533 0.15681 0.0
C471 C 0.89916 0.25214 0.21727 0.0
H472 H 0.99456 0.26878 0.20287 0.0
C473 C 0.88395 0.27842 0.19068 0.0
C474 C 0.90844 0.30155 0.16872 0.0
H475 H 0.87961 0.23372 0.23275 0.0
H476 H 0.85307 0.28021 0.18673 0.0
C477 C 0.94838 0.29825 0.17395 0.0
C478 C 0.20832 0.08544 0.68468 0.0
C479 C 0.16857 0.08165 0.69016 0.0
H480 H 0.26475 0.07191 0.70528 0.0
C481 C 0.15534 0.06002 0.72147 0.0
H482 H 0.21917 0.10124 0.66015 0.0
C483 C 0.18128 0.04404 0.74791 0.0
C484 C 0.22118 0.04893 0.74348 0.0
H485 H 0.12481 0.05567 0.72564 0.0
H486 H 0.16991 0.02832 0.77224 0.0
C487 C 0.2344 0.06905 0.71094 0.0
C488 C 0.32027 0.76176 0.06446 0.0
C489 C 0.32712 0.76236 0.10425 0.0
H490 H 0.28355 0.74223 0.01898 0.0
C491 C 0.30345 0.74108 0.12875 0.0
H492 H 0.33755 0.77895 0.04518 0.0
C493 C 0.27276 0.7203 0.11392 0.0
C494 C 0.26497 0.72051 0.07424 0.0
H495 H 0.30748 0.7422 0.15959 0.0
H496 H 0.25385 0.70598 0.1339 0.0
C497 C 0.28922 0.74119 0.04958 0.0
C498 C 0.24132 0.22657 0.8914 0.0
C499 C 0.23336 0.23215 0.93053 0.0
H500 H 0.27191 0.19363 0.84957 0.0
C501 C 0.25189 0.20882 0.95802 0.0
H502 H 0.22679 0.24339 0.86949 0.0
C503 C 0.27825 0.18068 0.94653 0.0
C504 C 0.28558 0.17487 0.90735 0.0
H505 H 0.2459 0.21231 0.98831 0.0
H506 H 0.29209 0.16277 0.96809 0.0
C507 C 0.26692 0.19797 0.87993 0.0
C508 C 0.69029 0.76009 0.95492 0.0
C509 C 0.71862 0.74326 0.9316 0.0
H510 H 0.64007 0.79617 0.9573 0.0
C511 C 0.71567 0.74783 0.89154 0.0
H512 H 0.69196 0.75734 0.98589 0.0
C513 C 0.68597 0.76985 0.8753 0.0
C514 C 0.65852 0.78774 0.89867 0.0
H515 H 0.73755 0.73648 0.87273 0.0
H516 H 0.68562 0.77464 0.8445 0.0
C517 C 0.66036 0.78195 0.93859 0.0
C518 C 0.71199 0.21802 0.11757 0.0
C519 C 0.68383 0.1985 0.09687 0.0
H520 H 0.75991 0.25585 0.11499 0.0
C521 C 0.68156 0.20333 0.05685 0.0
H522 H 0.7146 0.21401 0.14836 0.0
C523 C 0.70751 0.22703 0.03768 0.0
C524 C 0.73575 0.24667 0.0583 0.0
H525 H 0.66042 0.18787 0.04032 0.0
H526 H 0.70577 0.22972 0.0067 0.0
C527 C 0.73765 0.24211 0.09846 0.0
C528 C 0.13015 0.95665 0.48842 0.0
C529 C 0.16952 0.9555 0.48026 0.0
H530 H 0.08239 0.99134 0.50527 0.0
C531 C 0.19028 0.98964 0.47765 0.0
H532 H 0.11376 0.93054 0.49088 0.0
C533 C 0.17221 0.02454 0.48497 0.0
C534 C 0.13349 0.02543 0.49612 0.0
H535 H 0.22081 0.98916 0.47147 0.0
H536 H 0.18918 0.05036 0.48451 0.0
C537 C 0.11238 0.99135 0.49686 0.0
C538 C 0.01051 0.82801 0.54432 0.0
C539 C 0.97165 0.8274 0.53279 0.0
H540 H 0.06951 0.8312 0.52678 0.0
C541 C 0.96334 0.82311 0.49352 0.0
H542 H 0.0181 0.83134 0.57429 0.0
C543 C 0.99294 0.82247 0.46627 0.0
C544 C 0.03162 0.8268 0.47751 0.0
H545 H 0.9338 0.82239 0.48358 0.0
H546 H 0.98518 0.82135 0.43615 0.0
C547 C 0.04011 0.82805 0.51701 0.0
C548 C 0.81855 0.01852 0.49205 0.0
C549 C 0.85721 0.02075 0.48098 0.0
H550 H 0.77312 0.98207 0.51123 0.0
C551 C 0.88144 0.98878 0.48646 0.0
H552 H 0.79926 0.04268 0.488 0.0
C553 C 0.86673 0.95447 0.50076 0.0
C554 C 0.82741 0.95145 0.50872 0.0
H555 H 0.91149 0.98992 0.4784 0.0
H556 H 0.88547 0.92967 0.50291 0.0
C557 C 0.80363 0.98392 0.50529 0.0
C558 C 0.0092 0.1879 0.44433 0.0
C559 C 0.96919 0.18301 0.44708 0.0
H560 H 0.0628 0.18752 0.47484 0.0
C561 C 0.95172 0.18645 0.48327 0.0
H562 H 0.02358 0.1855 0.41688 0.0
C563 C 0.97428 0.18852 0.51654 0.0
C564 C 0.01458 0.18624 0.51403 0.0
H565 H 0.92092 0.18304 0.48624 0.0
H566 H 0.96011 0.18648 0.54416 0.0
C567 C 0.03179 0.18901 0.47763 0.0
C568 C 0.49003 0.10393 -0.00557 0.0
C569 C 0.48707 0.13109 0.96452 0.0
H570 H 0.49787 0.09432 0.05478 0.0
C571 C 0.49596 0.16931 0.9718 0.0
H572 H 0.48327 0.07422 0.9894 0.0
C573 C 0.50409 0.18075 0.00929 0.0
C574 C 0.50429 0.15395 0.03959 0.0
H575 H 0.4936 0.19076 0.94927 0.0
H576 H 0.50819 0.21082 0.01495 0.0
C577 C 0.49873 0.11527 0.03171 0.0
C578 C 0.16251 0.47626 0.04133 0.0
C579 C 0.16578 0.51561 0.03354 0.0
H580 H 0.15938 0.41984 0.01824 0.0
C581 C 0.17429 0.52731 -0.00429 0.0
H582 H 0.15618 0.46616 0.07011 0.0
C583 C 0.17563 0.50079 0.96586 0.0
C584 C 0.16923 0.4618 0.97316 0.0
H585 H 0.17718 0.55731 0.98853 0.0
H586 H 0.17945 0.51114 0.93671 0.0
C587 C 0.16455 0.44963 0.01152 0.0
C588 C 0.4854 0.79224 0.00865 0.0
C589 C 0.49804 0.82209 0.03181 0.0
H590 H 0.46654 0.77561 0.95282 0.0
C591 C 0.50347 0.85857 0.01584 0.0
H592 H 0.48173 0.76377 0.02051 0.0
C593 C 0.49633 0.865 0.97672 0.0
C594 C 0.4826 0.83527 0.95383 0.0
H595 H 0.51385 0.88174 0.03338 0.0
H596 H 0.50048 0.89327 0.96464 0.0
C597 C 0.47698 0.79896 0.9701 0.0
C598 C 0.80585 0.49931 0.94711 0.0
C599 C 0.80628 0.53465 0.96594 0.0
H600 H 0.80758 0.43857 0.95362 0.0
C601 C 0.79701 0.53574 0.00517 0.0
H602 H 0.81249 0.49771 0.91677 0.0
C603 C 0.79485 0.50176 0.02647 0.0
C604 C 0.80119 0.46644 0.00857 0.0
H605 H 0.79692 0.56256 0.02045 0.0
H606 H 0.79333 0.50337 0.0575 0.0
C607 C 0.80276 0.46534 0.96828 0.0
C608 C 0.99325 0.49997 0.10543 0.0
C609 C 0.95826 0.49893 0.12552 0.0
H610 H 0.05429 0.50675 0.10909 0.0
C611 C 0.95734 0.50929 0.16429 0.0
H612 H 0.9945 0.4922 0.0754 0.0
C613 C 0.9916 0.51684 0.18364 0.0
C614 C 0.02686 0.51513 0.16414 0.0
H615 H 0.93073 0.5084 0.18038 0.0
H616 H 0.99078 0.52199 0.21427 0.0
C617 C 0.02734 0.50845 0.12456 0.0
C618 C 0.97808 0.50031 0.82323 0.0
C619 C 0.97555 0.51195 0.86156 0.0
H620 H 0.01567 0.48362 0.77755 0.0
C621 C 0.00839 0.50988 0.88517 0.0
H622 H 0.95321 0.50188 0.80445 0.0
C623 C 0.04372 0.49824 0.87014 0.0
C624 C 0.0468 0.48976 0.83105 0.0
H625 H 0.007 0.51853 0.91494 0.0
H626 H 0.06905 0.49861 0.88834 0.0
C627 C 0.01368 0.4899 0.8079 0.0
C628 C 0.46228 -0.00723 0.18224 0.0
C629 C 0.47546 0.95493 0.17832 0.0
H630 H 0.47753 0.05188 0.18334 0.0
C631 C 0.51503 0.94738 0.18241 0.0
H632 H 0.43194 -0.00041 0.17962 0.0
C633 C 0.5412 0.97739 0.18524 0.0
C634 C 0.52834 0.01558 0.1832 0.0
H635 H 0.52607 0.91847 0.18018 0.0
H636 H 0.57163 0.97056 0.18471 0.0
C637 C 0.48849 0.02285 0.18445 0.0
C638 C 0.48775 0.03443 0.79611 0.0
C639 C 0.44962 0.02117 0.79617 0.0
H640 H 0.54723 0.01888 0.80005 0.0
C641 C 0.44297 0.98282 0.78668 0.0
H642 H 0.49384 0.06401 0.80245 0.0
C643 C 0.47366 0.95682 0.78575 0.0
C644 C 0.51127 0.96906 0.79353 0.0
H645 H 0.414 0.9717 0.78567 0.0
H646 H 0.46737 0.92661 0.78414 0.0
C647 C 0.51849 0.00847 0.79455 0.0
C648 C 0.96623 0.02823 0.65383 0.0
C649 C 0.96756 0.05063 0.62029 0.0
H650 H 0.94852 0.97518 0.67916 0.0
C651 C 0.94684 0.03924 0.58777 0.0
H652 H 0.98253 0.03626 0.67903 0.0
C653 C 0.9271 0.00471 0.58788 0.0
C654 C 0.92865 0.98042 0.62017 0.0
H655 H 0.94781 0.05602 0.56147 0.0
H656 H 0.91305 -0.00415 0.56173 0.0
C657 C 0.94716 -0.00685 0.65369 0.0
C658 C 0.04914 0.98066 0.33395 0.0
C659 C 0.06668 0.97213 0.36957 0.0
H660 H 0.0129 0.01951 0.30195 0.0
C661 C 0.06562 -0.00039 0.3986 0.0
H662 H 0.04976 0.96012 0.31087 0.0
C663 C 0.04429 0.03321 0.39358 0.0
C664 C 0.0245 0.0404 0.35904 0.0
H665 H 0.07875 -0.0061 0.42621 0.0
H666 H 0.04129 0.05251 0.41757 0.0
C667 C 0.02843 0.01476 0.32862 0.0
C668 C 0.55679 0.01574 0.00914 0.0
C669 C 0.59314 0.02633 0.0231 0.0
H670 H 0.52527 0.9832 0.96779 0.0
C671 C 0.62621 0.01265 0.00453 0.0
H672 H 0.53082 0.0254 0.0233 0.0
C673 C 0.62304 0.98912 0.97243 0.0
C674 C 0.58675 0.97779 0.95895 0.0
H675 H 0.65456 0.0202 0.01482 0.0
H676 H 0.64908 0.97914 0.95862 0.0
C677 C 0.55362 0.99127 0.97767 0.0
C678 C 0.00453 0.34094 0.94096 0.0
C679 C 0.01727 0.37562 0.92476 0.0
H680 H 0.96101 0.3128 0.97429 0.0
C681 C 0.99264 0.40755 0.92536 0.0
H682 H 0.02275 0.31572 0.94063 0.0
C683 C 0.95772 0.40592 0.94495 0.0
C684 C 0.94629 0.37206 0.96344 0.0
H685 H 0.00152 0.43454 0.91312 0.0
H686 H 0.9406 0.43177 0.94748 0.0
C687 C 0.96907 0.33909 0.95988 0.0
C688 C 0.4101 0.95643 0.95731 0.0
C689 C 0.3731 0.96983 0.94742 0.0
H690 H 0.44533 0.92736 -0.00113 0.0
C691 C 0.34194 0.9602 0.97099 0.0
H692 H 0.43469 0.9637 0.93969 0.0
C693 C 0.3482 0.93982 0.00534 0.0
C694 C 0.38561 0.92819 0.01623 0.0
H695 H 0.31327 0.97063 0.96426 0.0
H696 H 0.32395 0.93423 0.02399 0.0
C697 C 0.41624 0.93559 0.99118 0.0
C698 C 0.95158 0.60867 0.051 0.0
C699 C 0.94752 0.63756 0.02306 0.0
H700 H 0.98893 0.58025 0.09112 0.0
C701 C 0.97815 0.66267 0.01668 0.0
H702 H 0.92867 0.58835 0.0557 0.0
C703 C 0.0132 0.65736 0.03606 0.0
C704 C 0.01825 0.62677 0.06222 0.0
H705 H 0.97603 0.68448 -0.00553 0.0
H706 H 0.03691 0.676 0.02897 0.0
C707 C 0.98639 0.60366 0.07078 0.0
loop_
_geom_bond_atom_site_label_1
_geom_bond_atom_site_label_2
_geom_bond_distance
_geom_bond_site_symmetry_2
_ccdc_geom_bond_type
Co0 O3 1.970 . S
Co0 N17 1.989 . S
Co0 O25 1.967 . S
Co0 O32 1.920 . S
Co1 O4 1.966 . S
Co1 N10 2.022 . S
Co1 N18 1.993 . S
Co1 O26 1.941 . S
C2 O3 1.258 . S
C2 O4 1.263 . S
O3 Co0 1.970 . S
O3 C2 1.258 . S
O4 Co1 1.966 . S
O4 C2 1.263 . S
C5 O6 1.235 . S
C5 O32 1.289 . S
O6 C5 1.235 . S
C7 C9 1.400 . S
C7 N10 1.351 . S
C7 C12 1.501 . S
C8 C9 1.387 . S
C8 N11 1.341 . S
C9 C7 1.400 . S
C9 C8 1.387 . S
N10 Co1 2.022 . S
N10 C7 1.351 . S
N10 N11 1.365 . S
N11 C8 1.341 . S
N11 N10 1.365 . S
N11 H31 0.862 . S
C12 C7 1.501 . S
C12 H13 0.961 . S
C12 H14 0.961 . S
C12 H15 0.960 . S
H13 C12 0.961 . S
H14 C12 0.961 . S
H15 C12 0.960 . S
C16 N17 1.342 . S
C16 C20 1.401 . S
C16 C21 1.499 . S
N17 Co0 1.989 . S
N17 C16 1.342 . S
N17 N18 1.388 . S
N18 Co1 1.993 . S
N18 N17 1.388 . S
N18 C19 1.346 . S
C19 N18 1.346 . S
C19 C20 1.396 . S
C19 C29 1.510 . S
C20 C16 1.401 . S
C20 C19 1.396 . S
C21 C16 1.499 . S
C21 H22 0.959 . S
C21 H23 0.960 . S
C21 H24 0.961 . S
H22 C21 0.959 . S
H23 C21 0.960 . S
H24 C21 0.961 . S
O25 Co0 1.967 . S
O25 C33 1.258 . S
O26 Co1 1.941 . S
O26 C33 1.266 . S
H27 C29 0.959 . S
H28 C29 0.961 . S
C29 C19 1.510 . S
C29 H27 0.959 . S
C29 H28 0.961 . S
C29 H30 0.960 . S
H30 C29 0.960 . S
H31 N11 0.862 . S
O32 Co0 1.920 . S
O32 C5 1.289 . S
C33 O25 1.258 . S
C33 O26 1.266 . S
Co34 O37 1.970 . S
Co34 N51 1.989 . S
Co34 O59 1.967 . S
Co34 O66 1.920 . S
Co35 O38 1.966 . S
Co35 N44 2.022 . S
Co35 N52 1.993 . S
Co35 O60 1.941 . S
C36 O37 1.258 . S
C36 O38 1.263 . S
O37 Co34 1.970 . S
O37 C36 1.258 . S
O38 Co35 1.966 . S
O38 C36 1.263 . S
C39 O40 1.235 . S
C39 O66 1.289 . S
O40 C39 1.235 . S
C41 C43 1.400 . S
C41 N44 1.351 . S
C41 C46 1.501 . S
C42 C43 1.387 . S
C42 N45 1.341 . S
C43 C41 1.400 . S
C43 C42 1.387 . S
N44 Co35 2.022 . S
N44 C41 1.351 . S
N44 N45 1.365 . S
N45 C42 1.341 . S
N45 N44 1.365 . S
N45 H65 0.862 . S
C46 C41 1.501 . S
C46 H47 0.961 . S
C46 H48 0.961 . S
C46 H49 0.960 . S
H47 C46 0.961 . S
H48 C46 0.961 . S
H49 C46 0.960 . S
C50 N51 1.342 . S
C50 C54 1.401 . S
C50 C55 1.499 . S
N51 Co34 1.989 . S
N51 C50 1.342 . S
N51 N52 1.388 . S
N52 Co35 1.993 . S
N52 N51 1.388 . S
N52 C53 1.346 . S
C53 N52 1.346 . S
C53 C54 1.396 . S
C53 C63 1.510 . S
C54 C50 1.401 . S
C54 C53 1.396 . S
C55 C50 1.499 . S
C55 H56 0.959 . S
C55 H57 0.960 . S
C55 H58 0.961 . S
H56 C55 0.959 . S
H57 C55 0.960 . S
H58 C55 0.961 . S
O59 Co34 1.967 . S
O59 C67 1.258 . S
O60 Co35 1.941 . S
O60 C67 1.266 . S
H61 C63 0.959 . S
H62 C63 0.961 . S
C63 C53 1.510 . S
C63 H61 0.959 . S
C63 H62 0.961 . S
C63 H64 0.960 . S
H64 C63 0.960 . S
H65 N45 0.862 . S
O66 Co34 1.920 . S
O66 C39 1.289 . S
C67 O59 1.258 . S
C67 O60 1.266 . S
Co68 O71 1.970 . S
Co68 N85 1.989 . S
Co68 O93 1.967 . S
Co68 O100 1.920 . S
Co69 O72 1.966 . S
Co69 N78 2.022 . S
Co69 N86 1.993 . S
Co69 O94 1.941 . S
C70 O71 1.258 . S
C70 O72 1.263 . S
O71 Co68 1.970 . S
O71 C70 1.258 . S
O72 Co69 1.966 . S
O72 C70 1.263 . S
C73 O74 1.235 . S
C73 O100 1.289 . S
O74 C73 1.235 . S
C75 C77 1.400 . S
C75 N78 1.351 . S
C75 C80 1.501 . S
C76 C77 1.387 . S
C76 N79 1.341 . S
C77 C75 1.400 . S
C77 C76 1.387 . S
N78 Co69 2.022 . S
N78 C75 1.351 . S
N78 N79 1.365 . S
N79 C76 1.341 . S
N79 N78 1.365 . S
N79 H99 0.862 . S
C80 C75 1.501 . S
C80 H81 0.961 . S
C80 H82 0.961 . S
C80 H83 0.960 . S
H81 C80 0.961 . S
H82 C80 0.961 . S
H83 C80 0.960 . S
C84 N85 1.342 . S
C84 C88 1.401 . S
C84 C89 1.499 . S
N85 Co68 1.989 . S
N85 C84 1.342 . S
N85 N86 1.388 . S
N86 Co69 1.993 . S
N86 N85 1.388 . S
N86 C87 1.346 . S
C87 N86 1.346 . S
C87 C88 1.396 . S
C87 C97 1.510 . S
C88 C84 1.401 . S
C88 C87 1.396 . S
C89 C84 1.499 . S
C89 H90 0.959 . S
C89 H91 0.960 . S
C89 H92 0.961 . S
H90 C89 0.959 . S
H91 C89 0.960 . S
H92 C89 0.961 . S
O93 Co68 1.967 . S
O93 C101 1.258 . S
O94 Co69 1.941 . S
O94 C101 1.266 . S
H95 C97 0.959 . S
H96 C97 0.961 . S
C97 C87 1.510 . S
C97 H95 0.959 . S
C97 H96 0.961 . S
C97 H98 0.960 . S
H98 C97 0.960 . S
H99 N79 0.862 . S
O100 Co68 1.920 . S
O100 C73 1.289 . S
C101 O93 1.258 . S
C101 O94 1.266 . S
Co102 O105 1.970 . S
Co102 N119 1.989 . S
Co102 O127 1.967 . S
Co102 O134 1.920 . S
Co103 O106 1.966 . S
Co103 N112 2.022 . S
Co103 N120 1.993 . S
Co103 O128 1.941 . S
C104 O105 1.258 . S
C104 O106 1.263 . S
O105 Co102 1.970 . S
O105 C104 1.258 . S
O106 Co103 1.966 . S
O106 C104 1.263 . S
C107 O108 1.235 . S
C107 O134 1.289 . S
O108 C107 1.235 . S
C109 C111 1.400 . S
C109 N112 1.351 . S
C109 C114 1.501 . S
C110 C111 1.387 . S
C110 N113 1.341 . S
C111 C109 1.400 . S
C111 C110 1.387 . S
N112 Co103 2.022 . S
N112 C109 1.351 . S
N112 N113 1.365 . S
N113 C110 1.341 . S
N113 N112 1.365 . S
N113 H133 0.862 . S
C114 C109 1.501 . S
C114 H115 0.961 . S
C114 H116 0.961 . S
C114 H117 0.960 . S
H115 C114 0.961 . S
H116 C114 0.961 . S
H117 C114 0.960 . S
C118 N119 1.342 . S
C118 C122 1.401 . S
C118 C123 1.499 . S
N119 Co102 1.989 . S
N119 C118 1.342 . S
N119 N120 1.388 . S
N120 Co103 1.993 . S
N120 N119 1.388 . S
N120 C121 1.346 . S
C121 N120 1.346 . S
C121 C122 1.396 . S
C121 C131 1.510 . S
C122 C118 1.401 . S
C122 C121 1.396 . S
C123 C118 1.499 . S
C123 H124 0.959 . S
C123 H125 0.960 . S
C123 H126 0.961 . S
H124 C123 0.959 . S
H125 C123 0.960 . S
H126 C123 0.961 . S
O127 Co102 1.967 . S
O127 C135 1.258 . S
O128 Co103 1.941 . S
O128 C135 1.266 . S
H129 C131 0.959 . S
H130 C131 0.961 . S
C131 C121 1.510 . S
C131 H129 0.959 . S
C131 H130 0.961 . S
C131 H132 0.960 . S
H132 C131 0.960 . S
H133 N113 0.862 . S
O134 Co102 1.920 . S
O134 C107 1.289 . S
C135 O127 1.258 . S
C135 O128 1.266 . S
Co136 O139 1.970 . S
Co136 N153 1.989 . S
Co136 O161 1.967 . S
Co136 O168 1.920 . S
Co137 O140 1.966 . S
Co137 N146 2.022 . S
Co137 N154 1.993 . S
Co137 O162 1.941 . S
C138 O139 1.258 . S
C138 O140 1.263 . S
O139 Co136 1.970 . S
O139 C138 1.258 . S
O140 Co137 1.966 . S
O140 C138 1.263 . S
C141 O142 1.235 . S
C141 O168 1.289 . S
O142 C141 1.235 . S
C143 C145 1.400 . S
C143 N146 1.351 . S
C143 C148 1.501 . S
C144 C145 1.387 . S
C144 N147 1.341 . S
C145 C143 1.400 . S
C145 C144 1.387 . S
N146 Co137 2.022 . S
N146 C143 1.351 . S
N146 N147 1.365 . S
N147 C144 1.341 . S
N147 N146 1.365 . S
N147 H167 0.862 . S
C148 C143 1.501 . S
C148 H149 0.961 . S
C148 H150 0.961 . S
C148 H151 0.960 . S
H149 C148 0.961 . S
H150 C148 0.961 . S
H151 C148 0.960 . S
C152 N153 1.342 . S
C152 C156 1.401 . S
C152 C157 1.499 . S
N153 Co136 1.989 . S
N153 C152 1.342 . S
N153 N154 1.388 . S
N154 Co137 1.993 . S
N154 N153 1.388 . S
N154 C155 1.346 . S
C155 N154 1.346 . S
C155 C156 1.396 . S
C155 C165 1.510 . S
C156 C152 1.401 . S
C156 C155 1.396 . S
C157 C152 1.499 . S
C157 H158 0.959 . S
C157 H159 0.960 . S
C157 H160 0.961 . S
H158 C157 0.959 . S
H159 C157 0.960 . S
H160 C157 0.961 . S
O161 Co136 1.967 . S
O161 C169 1.258 . S
O162 Co137 1.941 . S
O162 C169 1.266 . S
H163 C165 0.959 . S
H164 C165 0.961 . S
C165 C155 1.510 . S
C165 H163 0.959 . S
C165 H164 0.961 . S
C165 H166 0.960 . S
H166 C165 0.960 . S
H167 N147 0.862 . S
O168 Co136 1.920 . S
O168 C141 1.289 . S
C169 O161 1.258 . S
C169 O162 1.266 . S
Co170 O173 1.970 . S
Co170 N187 1.989 . S
Co170 O195 1.967 . S
Co170 O202 1.920 . S
Co171 O174 1.966 . S
Co171 N180 2.022 . S
Co171 N188 1.993 . S
Co171 O196 1.941 . S
C172 O173 1.258 . S
C172 O174 1.263 . S
O173 Co170 1.970 . S
O173 C172 1.258 . S
O174 Co171 1.966 . S
O174 C172 1.263 . S
C175 O176 1.235 . S
C175 O202 1.289 . S
O176 C175 1.235 . S
C177 C179 1.400 . S
C177 N180 1.351 . S
C177 C182 1.501 . S
C178 C179 1.387 . S
C178 N181 1.341 . S
C179 C177 1.400 . S
C179 C178 1.387 . S
N180 Co171 2.022 . S
N180 C177 1.351 . S
N180 N181 1.365 . S
N181 C178 1.341 . S
N181 N180 1.365 . S
N181 H201 0.862 . S
C182 C177 1.501 . S
C182 H183 0.961 . S
C182 H184 0.961 . S
C182 H185 0.960 . S
H183 C182 0.961 . S
H184 C182 0.961 . S
H185 C182 0.960 . S
C186 N187 1.342 . S
C186 C190 1.401 . S
C186 C191 1.499 . S
N187 Co170 1.989 . S
N187 C186 1.342 . S
N187 N188 1.388 . S
N188 Co171 1.993 . S
N188 N187 1.388 . S
N188 C189 1.346 . S
C189 N188 1.346 . S
C189 C190 1.396 . S
C189 C199 1.510 . S
C190 C186 1.401 . S
C190 C189 1.396 . S
C191 C186 1.499 . S
C191 H192 0.959 . S
C191 H193 0.960 . S
C191 H194 0.961 . S
H192 C191 0.959 . S
H193 C191 0.960 . S
H194 C191 0.961 . S
O195 Co170 1.967 . S
O195 C203 1.258 . S
O196 Co171 1.941 . S
O196 C203 1.266 . S
H197 C199 0.959 . S
H198 C199 0.961 . S
C199 C189 1.510 . S
C199 H197 0.959 . S
C199 H198 0.961 . S
C199 H200 0.960 . S
H200 C199 0.960 . S
H201 N181 0.862 . S
O202 Co170 1.920 . S
O202 C175 1.289 . S
C203 O195 1.258 . S
C203 O196 1.266 . S
Co204 O207 1.970 . S
Co204 N221 1.989 . S
Co204 O229 1.967 . S
Co204 O236 1.920 . S
Co205 O208 1.966 . S
Co205 N214 2.022 . S
Co205 N222 1.993 . S
Co205 O230 1.941 . S
C206 O207 1.258 . S
C206 O208 1.263 . S
O207 Co204 1.970 . S
O207 C206 1.258 . S
O208 Co205 1.966 . S
O208 C206 1.263 . S
C209 O210 1.235 . S
C209 O236 1.289 . S
O210 C209 1.235 . S
C211 C213 1.400 . S
C211 N214 1.351 . S
C211 C216 1.501 . S
C212 C213 1.387 . S
C212 N215 1.341 . S
C213 C211 1.400 . S
C213 C212 1.387 . S
N214 Co205 2.022 . S
N214 C211 1.351 . S
N214 N215 1.365 . S
N215 C212 1.341 . S
N215 N214 1.365 . S
N215 H235 0.862 . S
C216 C211 1.501 . S
C216 H217 0.961 . S
C216 H218 0.961 . S
C216 H219 0.960 . S
H217 C216 0.961 . S
H218 C216 0.961 . S
H219 C216 0.960 . S
C220 N221 1.342 . S
C220 C224 1.401 . S
C220 C225 1.499 . S
N221 Co204 1.989 . S
N221 C220 1.342 . S
N221 N222 1.388 . S
N222 Co205 1.993 . S
N222 N221 1.388 . S
N222 C223 1.346 . S
C223 N222 1.346 . S
C223 C224 1.396 . S
C223 C233 1.510 . S
C224 C220 1.401 . S
C224 C223 1.396 . S
C225 C220 1.499 . S
C225 H226 0.959 . S
C225 H227 0.960 . S
C225 H228 0.961 . S
H226 C225 0.959 . S
H227 C225 0.960 . S
H228 C225 0.961 . S
O229 Co204 1.967 . S
O229 C237 1.258 . S
O230 Co205 1.941 . S
O230 C237 1.266 . S
H231 C233 0.959 . S
H232 C233 0.961 . S
C233 C223 1.510 . S
C233 H231 0.959 . S
C233 H232 0.961 . S
C233 H234 0.960 . S
H234 C233 0.960 . S
H235 N215 0.862 . S
O236 Co204 1.920 . S
O236 C209 1.289 . S
C237 O229 1.258 . S
C237 O230 1.266 . S
Co238 O241 1.970 . S
Co238 N255 1.989 . S
Co238 O263 1.967 . S
Co238 O270 1.920 . S
Co239 O242 1.966 . S
Co239 N248 2.022 . S
Co239 N256 1.993 . S
Co239 O264 1.941 . S
C240 O241 1.258 . S
C240 O242 1.263 . S
O241 Co238 1.970 . S
O241 C240 1.258 . S
O242 Co239 1.966 . S
O242 C240 1.263 . S
C243 O244 1.235 . S
C243 O270 1.289 . S
O244 C243 1.235 . S
C245 C247 1.400 . S
C245 N248 1.351 . S
C245 C250 1.501 . S
C246 C247 1.387 . S
C246 N249 1.341 . S
C247 C245 1.400 . S
C247 C246 1.387 . S
N248 Co239 2.022 . S
N248 C245 1.351 . S
N248 N249 1.365 . S
N249 C246 1.341 . S
N249 N248 1.365 . S
N249 H269 0.862 . S
C250 C245 1.501 . S
C250 H251 0.961 . S
C250 H252 0.961 . S
C250 H253 0.960 . S
H251 C250 0.961 . S
H252 C250 0.961 . S
H253 C250 0.960 . S
C254 N255 1.342 . S
C254 C258 1.401 . S
C254 C259 1.499 . S
N255 Co238 1.989 . S
N255 C254 1.342 . S
N255 N256 1.388 . S
N256 Co239 1.993 . S
N256 N255 1.388 . S
N256 C257 1.346 . S
C257 N256 1.346 . S
C257 C258 1.396 . S
C257 C267 1.510 . S
C258 C254 1.401 . S
C258 C257 1.396 . S
C259 C254 1.499 . S
C259 H260 0.959 . S
C259 H261 0.960 . S
C259 H262 0.961 . S
H260 C259 0.959 . S
H261 C259 0.960 . S
H262 C259 0.961 . S
O263 Co238 1.967 . S
O263 C271 1.258 . S
O264 Co239 1.941 . S
O264 C271 1.266 . S
H265 C267 0.959 . S
H266 C267 0.961 . S
C267 C257 1.510 . S
C267 H265 0.959 . S
C267 H266 0.961 . S
C267 H268 0.960 . S
H268 C267 0.960 . S
H269 N249 0.862 . S
O270 Co238 1.920 . S
O270 C243 1.289 . S
C271 O263 1.258 . S
C271 O264 1.266 . S
Co272 O275 1.970 . S
Co272 N289 1.989 . S
Co272 O297 1.967 . S
Co272 O304 1.920 . S
Co273 O276 1.966 . S
Co273 N282 2.022 . S
Co273 N290 1.993 . S
Co273 O298 1.941 . S
C274 O275 1.258 . S
C274 O276 1.263 . S
O275 Co272 1.970 . S
O275 C274 1.258 . S
O276 Co273 1.966 . S
O276 C274 1.263 . S
C277 O278 1.235 . S
C277 O304 1.289 . S
O278 C277 1.235 . S
C279 C281 1.400 . S
C279 N282 1.351 . S
C279 C284 1.501 . S
C280 C281 1.387 . S
C280 N283 1.341 . S
C281 C279 1.400 . S
C281 C280 1.387 . S
N282 Co273 2.022 . S
N282 C279 1.351 . S
N282 N283 1.365 . S
N283 C280 1.341 . S
N283 N282 1.365 . S
N283 H303 0.862 . S
C284 C279 1.501 . S
C284 H285 0.961 . S
C284 H286 0.961 . S
C284 H287 0.960 . S
H285 C284 0.961 . S
H286 C284 0.961 . S
H287 C284 0.960 . S
C288 N289 1.342 . S
C288 C292 1.401 . S
C288 C293 1.499 . S
N289 Co272 1.989 . S
N289 C288 1.342 . S
N289 N290 1.388 . S
N290 Co273 1.993 . S
N290 N289 1.388 . S
N290 C291 1.346 . S
C291 N290 1.346 . S
C291 C292 1.396 . S
C291 C301 1.510 . S
C292 C288 1.401 . S
C292 C291 1.396 . S
C293 C288 1.499 . S
C293 H294 0.959 . S
C293 H295 0.960 . S
C293 H296 0.961 . S
H294 C293 0.959 . S
H295 C293 0.960 . S
H296 C293 0.961 . S
O297 Co272 1.967 . S
O297 C305 1.258 . S
O298 Co273 1.941 . S
O298 C305 1.266 . S
H299 C301 0.959 . S
H300 C301 0.961 . S
C301 C291 1.510 . S
C301 H299 0.959 . S
C301 H300 0.961 . S
C301 H302 0.960 . S
H302 C301 0.960 . S
H303 N283 0.862 . S
O304 Co272 1.920 . S
O304 C277 1.289 . S
C305 O297 1.258 . S
C305 O298 1.266 . S
Co306 O309 1.970 . S
Co306 N323 1.989 . S
Co306 O331 1.967 . S
Co306 O338 1.920 . S
Co307 O310 1.966 . S
Co307 N316 2.022 . S
Co307 N324 1.993 . S
Co307 O332 1.941 . S
C308 O309 1.258 . S
C308 O310 1.263 . S
O309 Co306 1.970 . S
O309 C308 1.258 . S
O310 Co307 1.966 . S
O310 C308 1.263 . S
C311 O312 1.235 . S
C311 O338 1.289 . S
O312 C311 1.235 . S
C313 C315 1.400 . S
C313 N316 1.351 . S
C313 C318 1.501 . S
C314 C315 1.387 . S
C314 N317 1.341 . S
C315 C313 1.400 . S
C315 C314 1.387 . S
N316 Co307 2.022 . S
N316 C313 1.351 . S
N316 N317 1.365 . S
N317 C314 1.341 . S
N317 N316 1.365 . S
N317 H337 0.862 . S
C318 C313 1.501 . S
C318 H319 0.961 . S
C318 H320 0.961 . S
C318 H321 0.960 . S
H319 C318 0.961 . S
H320 C318 0.961 . S
H321 C318 0.960 . S
C322 N323 1.342 . S
C322 C326 1.401 . S
C322 C327 1.499 . S
N323 Co306 1.989 . S
N323 C322 1.342 . S
N323 N324 1.388 . S
N324 Co307 1.993 . S
N324 N323 1.388 . S
N324 C325 1.346 . S
C325 N324 1.346 . S
C325 C326 1.396 . S
C325 C335 1.510 . S
C326 C322 1.401 . S
C326 C325 1.396 . S
C327 C322 1.499 . S
C327 H328 0.959 . S
C327 H329 0.960 . S
C327 H330 0.961 . S
H328 C327 0.959 . S
H329 C327 0.960 . S
H330 C327 0.961 . S
O331 Co306 1.967 . S
O331 C339 1.258 . S
O332 Co307 1.941 . S
O332 C339 1.266 . S
H333 C335 0.959 . S
H334 C335 0.961 . S
C335 C325 1.510 . S
C335 H333 0.959 . S
C335 H334 0.961 . S
C335 H336 0.960 . S
H336 C335 0.960 . S
H337 N317 0.862 . S
O338 Co306 1.920 . S
O338 C311 1.289 . S
C339 O331 1.258 . S
C339 O332 1.266 . S
Co340 O343 1.970 . S
Co340 N357 1.989 . S
Co340 O365 1.967 . S
Co340 O372 1.920 . S
Co341 O344 1.966 . S
Co341 N350 2.022 . S
Co341 N358 1.993 . S
Co341 O366 1.941 . S
C342 O343 1.258 . S
C342 O344 1.263 . S
O343 Co340 1.970 . S
O343 C342 1.258 . S
O344 Co341 1.966 . S
O344 C342 1.263 . S
C345 O346 1.235 . S
C345 O372 1.289 . S
O346 C345 1.235 . S
C347 C349 1.400 . S
C347 N350 1.351 . S
C347 C352 1.501 . S
C348 C349 1.387 . S
C348 N351 1.341 . S
C349 C347 1.400 . S
C349 C348 1.387 . S
N350 Co341 2.022 . S
N350 C347 1.351 . S
N350 N351 1.365 . S
N351 C348 1.341 . S
N351 N350 1.365 . S
N351 H371 0.862 . S
C352 C347 1.501 . S
C352 H353 0.961 . S
C352 H354 0.961 . S
C352 H355 0.960 . S
H353 C352 0.961 . S
H354 C352 0.961 . S
H355 C352 0.960 . S
C356 N357 1.342 . S
C356 C360 1.401 . S
C356 C361 1.499 . S
N357 Co340 1.989 . S
N357 C356 1.342 . S
N357 N358 1.388 . S
N358 Co341 1.993 . S
N358 N357 1.388 . S
N358 C359 1.346 . S
C359 N358 1.346 . S
C359 C360 1.396 . S
C359 C369 1.510 . S
C360 C356 1.401 . S
C360 C359 1.396 . S
C361 C356 1.499 . S
C361 H362 0.959 . S
C361 H363 0.960 . S
C361 H364 0.961 . S
H362 C361 0.959 . S
H363 C361 0.960 . S
H364 C361 0.961 . S
O365 Co340 1.967 . S
O365 C373 1.258 . S
O366 Co341 1.941 . S
O366 C373 1.266 . S
H367 C369 0.959 . S
H368 C369 0.961 . S
C369 C359 1.510 . S
C369 H367 0.959 . S
C369 H368 0.961 . S
C369 H370 0.960 . S
H370 C369 0.960 . S
H371 N351 0.862 . S
O372 Co340 1.920 . S
O372 C345 1.289 . S
C373 O365 1.258 . S
C373 O366 1.266 . S
Co374 O377 1.970 . S
Co374 N391 1.989 . S
Co374 O399 1.967 . S
Co374 O406 1.920 . S
Co375 O378 1.966 . S
Co375 N384 2.022 . S
Co375 N392 1.993 . S
Co375 O400 1.941 . S
C376 O377 1.258 . S
C376 O378 1.263 . S
O377 Co374 1.970 . S
O377 C376 1.258 . S
O378 Co375 1.966 . S
O378 C376 1.263 . S
C379 O380 1.235 . S
C379 O406 1.289 . S
O380 C379 1.235 . S
C381 C383 1.400 . S
C381 N384 1.351 . S
C381 C386 1.501 . S
C382 C383 1.387 . S
C382 N385 1.341 . S
C383 C381 1.400 . S
C383 C382 1.387 . S
N384 Co375 2.022 . S
N384 C381 1.351 . S
N384 N385 1.365 . S
N385 C382 1.341 . S
N385 N384 1.365 . S
N385 H405 0.862 . S
C386 C381 1.501 . S
C386 H387 0.961 . S
C386 H388 0.961 . S
C386 H389 0.960 . S
H387 C386 0.961 . S
H388 C386 0.961 . S
H389 C386 0.960 . S
C390 N391 1.342 . S
C390 C394 1.401 . S
C390 C395 1.499 . S
N391 Co374 1.989 . S
N391 C390 1.342 . S
N391 N392 1.388 . S
N392 Co375 1.993 . S
N392 N391 1.388 . S
N392 C393 1.346 . S
C393 N392 1.346 . S
C393 C394 1.396 . S
C393 C403 1.510 . S
C394 C390 1.401 . S
C394 C393 1.396 . S
C395 C390 1.499 . S
C395 H396 0.959 . S
C395 H397 0.960 . S
C395 H398 0.961 . S
H396 C395 0.959 . S
H397 C395 0.960 . S
H398 C395 0.961 . S
O399 Co374 1.967 . S
O399 C407 1.258 . S
O400 Co375 1.941 . S
O400 C407 1.266 . S
H401 C403 0.959 . S
H402 C403 0.961 . S
C403 C393 1.510 . S
C403 H401 0.959 . S
C403 H402 0.961 . S
C403 H404 0.960 . S
H404 C403 0.960 . S
H405 N385 0.862 . S
O406 Co374 1.920 . S
O406 C379 1.289 . S
C407 O399 1.258 . S
C407 O400 1.266 . S
C408 C409 1.387 . S
C408 H412 0.950 . S
C408 C417 1.390 . S
C409 C408 1.387 . S
C409 C411 1.387 . S
H410 C417 0.950 . S
C411 C409 1.387 . S
C411 C413 1.390 . S
C411 H415 0.950 . S
H412 C408 0.950 . S
C413 C411 1.390 . S
C413 C414 1.387 . S
C413 H416 0.950 . S
C414 C413 1.387 . S
C414 C417 1.387 . S
H415 C411 0.950 . S
H416 C413 0.950 . S
C417 C408 1.390 . S
C417 H410 0.950 . S
C417 C414 1.387 . S
C418 C419 1.387 . S
C418 H422 0.950 . S
C418 C427 1.390 . S
C419 C418 1.387 . S
C419 C421 1.387 . S
H420 C427 0.950 . S
C421 C419 1.387 . S
C421 C423 1.390 . S
C421 H425 0.950 . S
H422 C418 0.950 . S
C423 C421 1.390 . S
C423 C424 1.387 . S
C423 H426 0.950 . S
C424 C423 1.387 . S
C424 C427 1.387 . S
H425 C421 0.950 . S
H426 C423 0.950 . S
C427 C418 1.390 . S
C427 H420 0.950 . S
C427 C424 1.387 . S
C428 C429 1.387 . S
C428 H432 0.950 . S
C428 C437 1.390 . S
C429 C428 1.387 . S
C429 C431 1.387 . S
H430 C437 0.950 . S
C431 C429 1.387 . S
C431 C433 1.390 . S
C431 H435 0.950 . S
H432 C428 0.950 . S
C433 C431 1.390 . S
C433 C434 1.387 . S
C433 H436 0.950 . S
C434 C433 1.387 . S
C434 C437 1.387 . S
H435 C431 0.950 . S
H436 C433 0.950 . S
C437 C428 1.390 . S
C437 H430 0.950 . S
C437 C434 1.387 . S
C438 C439 1.387 . S
C438 H442 0.950 . S
C438 C447 1.390 . S
C439 C438 1.387 . S
C439 C441 1.387 . S
H440 C447 0.950 . S
C441 C439 1.387 . S
C441 C443 1.390 . S
C441 H445 0.950 . S
H442 C438 0.950 . S
C443 C441 1.390 . S
C443 C444 1.387 . S
C443 H446 0.950 . S
C444 C443 1.387 . S
C444 C447 1.387 . S
H445 C441 0.950 . S
H446 C443 0.950 . S
C447 C438 1.390 . S
C447 H440 0.950 . S
C447 C444 1.387 . S
C448 C449 1.387 . S
C448 H452 0.950 . S
C448 C457 1.390 . S
C449 C448 1.387 . S
C449 C451 1.387 . S
H450 C457 0.950 . S
C451 C449 1.387 . S
C451 C453 1.390 . S
C451 H455 0.950 . S
H452 C448 0.950 . S
C453 C451 1.390 . S
C453 C454 1.387 . S
C453 H456 0.950 . S
C454 C453 1.387 . S
C454 C457 1.387 . S
H455 C451 0.950 . S
H456 C453 0.950 . S
C457 C448 1.390 . S
C457 H450 0.950 . S
C457 C454 1.387 . S
C458 C459 1.387 . S
C458 H462 0.950 . S
C458 C467 1.390 . S
C459 C458 1.387 . S
C459 C461 1.387 . S
H460 C467 0.950 . S
C461 C459 1.387 . S
C461 C463 1.390 . S
C461 H465 0.950 . S
H462 C458 0.950 . S
C463 C461 1.390 . S
C463 C464 1.387 . S
C463 H466 0.950 . S
C464 C463 1.387 . S
C464 C467 1.387 . S
H465 C461 0.950 . S
H466 C463 0.950 . S
C467 C458 1.390 . S
C467 H460 0.950 . S
C467 C464 1.387 . S
C468 C469 1.387 . S
C468 H472 0.950 . S
C468 C477 1.390 . S
C469 C468 1.387 . S
C469 C471 1.387 . S
H470 C477 0.950 . S
C471 C469 1.387 . S
C471 C473 1.390 . S
C471 H475 0.950 . S
H472 C468 0.950 . S
C473 C471 1.390 . S
C473 C474 1.387 . S
C473 H476 0.950 . S
C474 C473 1.387 . S
C474 C477 1.387 . S
H475 C471 0.950 . S
H476 C473 0.950 . S
C477 C468 1.390 . S
C477 H470 0.950 . S
C477 C474 1.387 . S
C478 C479 1.387 . S
C478 H482 0.950 . S
C478 C487 1.390 . S
C479 C478 1.387 . S
C479 C481 1.387 . S
H480 C487 0.950 . S
C481 C479 1.387 . S
C481 C483 1.390 . S
C481 H485 0.950 . S
H482 C478 0.950 . S
C483 C481 1.390 . S
C483 C484 1.387 . S
C483 H486 0.950 . S
C484 C483 1.387 . S
C484 C487 1.387 . S
H485 C481 0.950 . S
H486 C483 0.950 . S
C487 C478 1.390 . S
C487 H480 0.950 . S
C487 C484 1.387 . S
C488 C489 1.387 . S
C488 H492 0.950 . S
C488 C497 1.390 . S
C489 C488 1.387 . S
C489 C491 1.387 . S
H490 C497 0.950 . S
C491 C489 1.387 . S
C491 C493 1.390 . S
C491 H495 0.950 . S
H492 C488 0.950 . S
C493 C491 1.390 . S
C493 C494 1.387 . S
C493 H496 0.950 . S
C494 C493 1.387 . S
C494 C497 1.387 . S
H495 C491 0.950 . S
H496 C493 0.950 . S
C497 C488 1.390 . S
C497 H490 0.950 . S
C497 C494 1.387 . S
C498 C499 1.387 . S
C498 H502 0.950 . S
C498 C507 1.390 . S
C499 C498 1.387 . S
C499 C501 1.387 . S
H500 C507 0.950 . S
C501 C499 1.387 . S
C501 C503 1.390 . S
C501 H505 0.950 . S
H502 C498 0.950 . S
C503 C501 1.390 . S
C503 C504 1.387 . S
C503 H506 0.950 . S
C504 C503 1.387 . S
C504 C507 1.387 . S
H505 C501 0.950 . S
H506 C503 0.950 . S
C507 C498 1.390 . S
C507 H500 0.950 . S
C507 C504 1.387 . S
C508 C509 1.387 . S
C508 H512 0.950 . S
C508 C517 1.390 . S
C509 C508 1.387 . S
C509 C511 1.387 . S
H510 C517 0.950 . S
C511 C509 1.387 . S
C511 C513 1.390 . S
C511 H515 0.950 . S
H512 C508 0.950 . S
C513 C511 1.390 . S
C513 C514 1.387 . S
C513 H516 0.950 . S
C514 C513 1.387 . S
C514 C517 1.387 . S
H515 C511 0.950 . S
H516 C513 0.950 . S
C517 C508 1.390 . S
C517 H510 0.950 . S
C517 C514 1.387 . S
C518 C519 1.387 . S
C518 H522 0.950 . S
C518 C527 1.390 . S
C519 C518 1.387 . S
C519 C521 1.387 . S
H520 C527 0.950 . S
C521 C519 1.387 . S
C521 C523 1.390 . S
C521 H525 0.950 . S
H522 C518 0.950 . S
C523 C521 1.390 . S
C523 C524 1.387 . S
C523 H526 0.950 . S
C524 C523 1.387 . S
C524 C527 1.387 . S
H525 C521 0.950 . S
H526 C523 0.950 . S
C527 C518 1.390 . S
C527 H520 0.950 . S
C527 C524 1.387 . S
C528 C529 1.387 . S
C528 H532 0.950 . S
C528 C537 1.390 1_565 S
C529 C528 1.387 . S
C529 C531 1.387 . S
H530 C537 0.950 . S
C531 C529 1.387 . S
C531 C533 1.390 1_565 S
C531 H535 0.950 . S
H532 C528 0.950 . S
C533 C531 1.390 1_545 S
C533 C534 1.387 . S
C533 H536 0.950 . S
C534 C533 1.387 . S
C534 C537 1.387 . S
H535 C531 0.950 . S
H536 C533 0.950 . S
C537 C528 1.390 1_545 S
C537 H530 0.950 . S
C537 C534 1.387 . S
C538 C539 1.387 . S
C538 H542 0.950 . S
C538 C547 1.390 1_655 S
C539 C538 1.387 . S
C539 C541 1.387 . S
H540 C547 0.950 . S
C541 C539 1.387 . S
C541 C543 1.390 1_655 S
C541 H545 0.950 . S
H542 C538 0.950 . S
C543 C541 1.390 1_455 S
C543 C544 1.387 . S
C543 H546 0.950 . S
C544 C543 1.387 . S
C544 C547 1.387 . S
H545 C541 0.950 . S
H546 C543 0.950 . S
C547 C538 1.390 1_455 S
C547 H540 0.950 . S
C547 C544 1.387 . S
C548 C549 1.387 . S
C548 H552 0.950 . S
C548 C557 1.390 1_545 S
C549 C548 1.387 . S
C549 C551 1.387 . S
H550 C557 0.950 . S
C551 C549 1.387 . S
C551 C553 1.390 1_545 S
C551 H555 0.950 . S
H552 C548 0.950 . S
C553 C551 1.390 1_565 S
C553 C554 1.387 . S
C553 H556 0.950 . S
C554 C553 1.387 . S
C554 C557 1.387 . S
H555 C551 0.950 . S
H556 C553 0.950 . S
C557 C548 1.390 1_565 S
C557 H550 0.950 . S
C557 C554 1.387 . S
C558 C559 1.387 . S
C558 H562 0.950 . S
C558 C567 1.390 1_655 S
C559 C558 1.387 . S
C559 C561 1.387 . S
H560 C567 0.950 . S
C561 C559 1.387 . S
C561 C563 1.390 1_655 S
C561 H565 0.950 . S
H562 C558 0.950 . S
C563 C561 1.390 1_455 S
C563 C564 1.387 . S
C563 H566 0.950 . S
C564 C563 1.387 . S
C564 C567 1.387 . S
H565 C561 0.950 . S
H566 C563 0.950 . S
C567 C558 1.390 1_455 S
C567 H560 0.950 . S
C567 C564 1.387 . S
C568 C569 1.387 . S
C568 H572 0.950 . S
C568 C577 1.390 1_556 S
C569 C568 1.387 . S
C569 C571 1.387 . S
H570 C577 0.950 . S
C571 C569 1.387 . S
C571 C573 1.390 1_556 S
C571 H575 0.950 . S
H572 C568 0.950 . S
C573 C571 1.390 1_554 S
C573 C574 1.387 . S
C573 H576 0.950 . S
C574 C573 1.387 . S
C574 C577 1.387 . S
H575 C571 0.950 . S
H576 C573 0.950 . S
C577 C568 1.390 1_554 S
C577 H570 0.950 . S
C577 C574 1.387 . S
C578 C579 1.387 . S
C578 H582 0.950 . S
C578 C587 1.390 1_554 S
C579 C578 1.387 . S
C579 C581 1.387 . S
H580 C587 0.950 . S
C581 C579 1.387 . S
C581 C583 1.390 1_554 S
C581 H585 0.950 . S
H582 C578 0.950 . S
C583 C581 1.390 1_556 S
C583 C584 1.387 . S
C583 H586 0.950 . S
C584 C583 1.387 . S
C584 C587 1.387 . S
H585 C581 0.950 . S
H586 C583 0.950 . S
C587 C578 1.390 1_556 S
C587 H580 0.950 . S
C587 C584 1.387 . S
C588 C589 1.387 . S
C588 H592 0.950 . S
C588 C597 1.390 1_554 S
C589 C588 1.387 . S
C589 C591 1.387 . S
H590 C597 0.950 . S
C591 C589 1.387 . S
C591 C593 1.390 1_554 S
C591 H595 0.950 . S
H592 C588 0.950 . S
C593 C591 1.390 1_556 S
C593 C594 1.387 . S
C593 H596 0.950 . S
C594 C593 1.387 . S
C594 C597 1.387 . S
H595 C591 0.950 . S
H596 C593 0.950 . S
C597 C588 1.390 1_556 S
C597 H590 0.950 . S
C597 C594 1.387 . S
C598 C599 1.387 . S
C598 H602 0.950 . S
C598 C607 1.390 1_556 S
C599 C598 1.387 . S
C599 C601 1.387 . S
H600 C607 0.950 . S
C601 C599 1.387 . S
C601 C603 1.390 1_556 S
C601 H605 0.950 . S
H602 C598 0.950 . S
C603 C601 1.390 1_554 S
C603 C604 1.387 . S
C603 H606 0.950 . S
C604 C603 1.387 . S
C604 C607 1.387 . S
H605 C601 0.950 . S
H606 C603 0.950 . S
C607 C598 1.390 1_554 S
C607 H600 0.950 . S
C607 C604 1.387 . S
C608 C609 1.387 . S
C608 H612 0.950 . S
C608 C617 1.390 1_655 S
C609 C608 1.387 . S
C609 C611 1.387 . S
H610 C617 0.950 . S
C611 C609 1.387 . S
C611 C613 1.390 1_655 S
C611 H615 0.950 . S
H612 C608 0.950 . S
C613 C611 1.390 1_455 S
C613 C614 1.387 . S
C613 H616 0.950 . S
C614 C613 1.387 . S
C614 C617 1.387 . S
H615 C611 0.950 . S
H616 C613 0.950 . S
C617 C608 1.390 1_455 S
C617 H610 0.950 . S
C617 C614 1.387 . S
C618 C619 1.387 . S
C618 H622 0.950 . S
C618 C627 1.390 1_655 S
C619 C618 1.387 . S
C619 C621 1.387 . S
H620 C627 0.950 . S
C621 C619 1.387 . S
C621 C623 1.390 1_655 S
C621 H625 0.950 . S
H622 C618 0.950 . S
C623 C621 1.390 1_455 S
C623 C624 1.387 . S
C623 H626 0.950 . S
C624 C623 1.387 . S
C624 C627 1.387 . S
H625 C621 0.950 . S
H626 C623 0.950 . S
C627 C618 1.390 1_455 S
C627 H620 0.950 . S
C627 C624 1.387 . S
C628 C629 1.387 . S
C628 H632 0.950 . S
C628 C637 1.390 1_565 S
C629 C628 1.387 . S
C629 C631 1.387 . S
H630 C637 0.950 . S
C631 C629 1.387 . S
C631 C633 1.390 1_565 S
C631 H635 0.950 . S
H632 C628 0.950 . S
C633 C631 1.390 1_545 S
C633 C634 1.387 . S
C633 H636 0.950 . S
C634 C633 1.387 . S
C634 C637 1.387 . S
H635 C631 0.950 . S
H636 C633 0.950 . S
C637 C628 1.390 1_545 S
C637 H630 0.950 . S
C637 C634 1.387 . S
C638 C639 1.387 . S
C638 H642 0.950 . S
C638 C647 1.390 1_545 S
C639 C638 1.387 . S
C639 C641 1.387 . S
H640 C647 0.950 . S
C641 C639 1.387 . S
C641 C643 1.390 1_545 S
C641 H645 0.950 . S
H642 C638 0.950 . S
C643 C641 1.390 1_565 S
C643 C644 1.387 . S
C643 H646 0.950 . S
C644 C643 1.387 . S
C644 C647 1.387 . S
H645 C641 0.950 . S
H646 C643 0.950 . S
C647 C638 1.390 1_565 S
C647 H640 0.950 . S
C647 C644 1.387 . S
C648 C649 1.387 . S
C648 H652 0.950 . S
C648 C657 1.390 1_445 S
C649 C648 1.387 . S
C649 C651 1.387 . S
H650 C657 0.950 . S
C651 C649 1.387 . S
C651 C653 1.390 1_445 S
C651 H655 0.950 . S
H652 C648 0.950 . S
C653 C651 1.390 1_665 S
C653 C654 1.387 . S
C653 H656 0.950 . S
C654 C653 1.387 . S
C654 C657 1.387 . S
H655 C651 0.950 . S
H656 C653 0.950 . S
C657 C648 1.390 1_665 S
C657 H650 0.950 . S
C657 C654 1.387 . S
C658 C659 1.387 . S
C658 H662 0.950 . S
C658 C667 1.390 1_465 S
C659 C658 1.387 . S
C659 C661 1.387 . S
H660 C667 0.950 . S
C661 C659 1.387 . S
C661 C663 1.390 1_465 S
C661 H665 0.950 . S
H662 C658 0.950 . S
C663 C661 1.390 1_645 S
C663 C664 1.387 . S
C663 H666 0.950 . S
C664 C663 1.387 . S
C664 C667 1.387 . S
H665 C661 0.950 . S
H666 C663 0.950 . S
C667 C658 1.390 1_645 S
C667 H660 0.950 . S
C667 C664 1.387 . S
C668 C669 1.387 . S
C668 H672 0.950 . S
C668 C677 1.390 1_544 S
C669 C668 1.387 . S
C669 C671 1.387 . S
H670 C677 0.950 . S
C671 C669 1.387 . S
C671 C673 1.390 1_544 S
C671 H675 0.950 . S
H672 C668 0.950 . S
C673 C671 1.390 1_566 S
C673 C674 1.387 . S
C673 H676 0.950 . S
C674 C673 1.387 . S
C674 C677 1.387 . S
H675 C671 0.950 . S
H676 C673 0.950 . S
C677 C668 1.390 1_566 S
C677 H670 0.950 . S
C677 C674 1.387 . S
C678 C679 1.387 . S
C678 H682 0.950 . S
C678 C687 1.390 1_456 S
C679 C678 1.387 . S
C679 C681 1.387 . S
H680 C687 0.950 . S
C681 C679 1.387 . S
C681 C683 1.390 1_456 S
C681 H685 0.950 . S
H682 C678 0.950 . S
C683 C681 1.390 1_654 S
C683 C684 1.387 . S
C683 H686 0.950 . S
C684 C683 1.387 . S
C684 C687 1.387 . S
H685 C681 0.950 . S
H686 C683 0.950 . S
C687 C678 1.390 1_654 S
C687 H680 0.950 . S
C687 C684 1.387 . S
C688 C689 1.387 . S
C688 H692 0.950 . S
C688 C697 1.390 1_546 S
C689 C688 1.387 . S
C689 C691 1.387 . S
H690 C697 0.950 . S
C691 C689 1.387 . S
C691 C693 1.390 1_546 S
C691 H695 0.950 . S
H692 C688 0.950 . S
C693 C691 1.390 1_564 S
C693 C694 1.387 . S
C693 H696 0.950 . S
C694 C693 1.387 . S
C694 C697 1.387 . S
H695 C691 0.950 . S
H696 C693 0.950 . S
C697 C688 1.390 1_564 S
C697 H690 0.950 . S
C697 C694 1.387 . S
C698 C699 1.387 . S
C698 H702 0.950 . S
C698 C707 1.390 1_656 S
C699 C698 1.387 . S
C699 C701 1.387 . S
H700 C707 0.950 . S
C701 C699 1.387 . S
C701 C703 1.390 1_656 S
C701 H705 0.950 . S
H702 C698 0.950 . S
C703 C701 1.390 1_454 S
C703 C704 1.387 . S
C703 H706 0.950 . S
C704 C703 1.387 . S
C704 C707 1.387 . S
H705 C701 0.950 . S
H706 C703 0.950 . S
C707 C698 1.390 1_454 S
C707 H700 0.950 . S
C707 C704 1.387 . S
C409 C190 1.356 . S
C414 C9 1.273 . S
C419 C54 1.355 . S
C424 C213 1.274 . S
C429 C77 1.274 . S
C434 C258 1.356 . S
C439 C145 1.272 . S
C444 C122 1.354 . S
C449 C394 1.356 . S
C454 C43 1.274 . S
C459 C88 1.356 . S
C464 C281 1.270 . S
C469 C111 1.274 . S
C474 C326 1.354 . S
C479 C20 1.354 . S
C484 C349 1.273 . S
C489 C224 1.355 . S
C494 C383 1.274 . S
C499 C179 1.269 . S
C504 C360 1.356 . S
C509 C247 1.274 . S
C514 C292 1.355 . S
C519 C156 1.354 . S
C524 C315 1.269 . S
C529 C39 0.729 . S
C534 C5 0.729 . S
C539 C70 1.284 . S
C544 C36 1.284 . S
C549 C107 0.736 . S
C554 C73 0.736 . S
C559 C104 1.284 . S
C564 C2 1.284 . S
C569 C345 0.729 . S
C574 C141 0.729 . S
C579 C376 1.285 . S
C584 C172 1.285 . S
C589 C209 0.736 . S
C594 C277 0.736 . S
C599 C240 1.285 . S
C604 C308 1.285 . S
C609 C311 0.729 . S
C614 C379 0.729 . S
C619 C243 0.736 . S
C624 C175 0.736 . S
C629 C206 1.285 . S
C634 C138 1.285 . S
C639 C342 1.285 . S
C644 C274 1.285 . S
C649 C33 1.593 . S
C654 C101 1.593 . S
C659 C67 1.593 . S
C664 C135 1.593 . S
C669 C169 1.595 . S
C674 C305 1.595 . S
C679 C203 1.593 . S
C684 C339 1.593 . S
C689 C373 1.595 . S
C694 C237 1.595 . S
C699 C271 1.595 . S
C704 C407 1.595 . S
