# Generated by pormake.
# Topology msp, (4)-cn, num edge types: 1
# Building blocks:
#     Node 0, Type 0, BuildingBlock: ICAMEG_clean_sbu_1, # of connection points: 4
#     Node 1, Type 0, BuildingBlock: ICAMEG_clean_sbu_1, # of connection points: 4
#     Node 2, Type 0, BuildingBlock: ICAMEG_clean_sbu_1, # of connection points: 4
#     Node 3, Type 0, BuildingBlock: ICAMEG_clean_sbu_1, # of connection points: 4
#     Node 4, Type 0, BuildingBlock: ICAMEG_clean_sbu_1, # of connection points: 4
#     Node 5, Type 0, BuildingBlock: ICAMEG_clean_sbu_1, # of connection points: 4
#     Node 6, Type 0, BuildingBlock: ICAMEG_clean_sbu_1, # of connection points: 4
#     Node 7, Type 0, BuildingBlock: ICAMEG_clean_sbu_1, # of connection points: 4
#     Edge 8, Type (0, 0), BuildingBlock: TEMPAE_clean_linker_10, # of connection points: 2
#     Edge 9, Type (0, 0), BuildingBlock: TEMPAE_clean_linker_10, # of connection points: 2
#     Edge 10, Type (0, 0), BuildingBlock: TEMPAE_clean_linker_10, # of connection points: 2
#     Edge 11, Type (0, 0), BuildingBlock: TEMPAE_clean_linker_10, # of connection points: 2
#     Edge 12, Type (0, 0), BuildingBlock: TEMPAE_clean_linker_10, # of connection points: 2
#     Edge 13, Type (0, 0), BuildingBlock: TEMPAE_clean_linker_10, # of connection points: 2
#     Edge 14, Type (0, 0), BuildingBlock: TEMPAE_clean_linker_10, # of connection points: 2
#     Edge 15, Type (0, 0), BuildingBlock: TEMPAE_clean_linker_10, # of connection points: 2
#     Edge 16, Type (0, 0), BuildingBlock: TEMPAE_clean_linker_10, # of connection points: 2
#     Edge 17, Type (0, 0), BuildingBlock: TEMPAE_clean_linker_10, # of connection points: 2
#     Edge 18, Type (0, 0), BuildingBlock: TEMPAE_clean_linker_10, # of connection points: 2
#     Edge 19, Type (0, 0), BuildingBlock: TEMPAE_clean_linker_10, # of connection points: 2
#     Edge 20, Type (0, 0), BuildingBlock: TEMPAE_clean_linker_10, # of connection points: 2
#     Edge 21, Type (0, 0), BuildingBlock: TEMPAE_clean_linker_10, # of connection points: 2
#     Edge 22, Type (0, 0), BuildingBlock: TEMPAE_clean_linker_10, # of connection points: 2
#     Edge 23, Type (0, 0), BuildingBlock: TEMPAE_clean_linker_10, # of connection points: 2
# Relax obj value: 0.052
# Max RMSD: 0.148
# Mean RMSD: 0.148
data_MOF--net-msp--node1-ICAMEG_clean_sbu_1--edge1-TEMPAE_clean_linker_10
_symmetry_space_group_name_H-M    P1
_symmetry_Int_Tables_number       1
_symmetry_cell_setting            triclinic
loop_
_symmetry_equiv_pos_as_xyz
'x, y, z'
_cell_length_a     26.977536
_cell_length_b     19.095169
_cell_length_c     44.504198
_cell_angle_alpha  89.941977
_cell_angle_beta   104.04574
_cell_angle_gamma 90.030237
loop_
_atom_site_label
_atom_site_type_symbol
_atom_site_fract_x
_atom_site_fract_y
_atom_site_fract_z
_atom_type_partial_charge
Co0 Co 0.08061 0.33476 0.35486 0.0
Co1 Co 0.0293 0.17934 0.37325 0.0
O2 O 0.04676 0.24529 0.34411 0.0
C3 C 0.15221 0.2577 0.32679 0.0
O4 O 0.14827 0.20691 0.34595 0.0
C5 C 0.92949 0.21032 0.33046 0.0
O6 O 0.93836 0.27652 0.33771 0.0
O7 O 0.00034 0.25543 0.39478 0.0
O8 O 0.03702 0.35566 0.38423 0.0
H9 H 0.02017 0.08922 0.47798 0.0
H10 H 0.03881 0.29828 0.28879 0.0
O11 O 0.12626 0.31377 0.32625 0.0
H12 H 0.94786 0.51282 0.30605 0.0
H13 H 0.16109 0.55919 0.33081 0.0
H14 H 0.11826 0.41516 0.41306 0.0
H15 H 0.01353 0.46046 0.34857 0.0
H16 H 0.11698 0.44579 0.31832 0.0
O17 O 0.96157 0.16354 0.34301 0.0
H18 H 0.04368 0.17285 0.44156 0.0
H19 H 0.97489 0.04224 0.36568 0.0
H20 H 0.16205 0.52831 0.42654 0.0
H21 H 0.97363 0.34908 0.24556 0.0
H22 H 0.18376 0.60119 0.38525 0.0
H23 H 0.92766 0.45712 0.25408 0.0
O24 O 0.13176 0.29279 0.39004 0.0
H25 H 0.06363 0.0496 0.28219 0.0
H26 H 0.10163 0.06246 0.39611 0.0
H27 H 0.14258 0.97101 0.3713 0.0
H28 H 0.12337 0.96399 0.31392 0.0
H29 H 0.02244 0.13905 0.30786 0.0
H30 H 0.95028 0.95734 0.40129 0.0
H31 H 0.97308 0.9805 0.4579 0.0
O32 O 0.09642 0.19445 0.40342 0.0
C33 C 0.00937 0.32107 0.39862 0.0
C34 C 0.01004 0.07848 0.45337 0.0
C35 C 0.97076 0.00453 0.41032 0.0
N36 N 0.0107 0.11249 0.40152 0.0
C37 C 0.02332 0.12563 0.43262 0.0
C38 C 0.98463 0.05293 0.39026 0.0
C39 C 0.98359 0.01754 0.44209 0.0
C40 C 0.01921 0.34559 0.29259 0.0
N41 N 0.03017 0.37668 0.32108 0.0
C42 C 0.98223 0.37397 0.26807 0.0
C43 C 0.95639 0.43454 0.27288 0.0
C44 C 0.9677 0.4658 0.30204 0.0
C45 C 0.00484 0.43587 0.32603 0.0
C46 C 0.15174 0.52797 0.34899 0.0
C47 C 0.12726 0.44676 0.39492 0.0
C48 C 0.12685 0.46369 0.34207 0.0
N49 N 0.11469 0.4242 0.36489 0.0
C50 C 0.15221 0.5107 0.40271 0.0
C51 C 0.16443 0.55152 0.37954 0.0
C52 C 0.13213 0.23992 0.40766 0.0
C53 C 0.07158 0.05141 0.30717 0.0
C54 C 0.09281 0.05939 0.37112 0.0
C55 C 0.11617 0.00758 0.35721 0.0
C56 C 0.10543 0.00371 0.32501 0.0
N57 N 0.05923 0.10555 0.35346 0.0
C58 C 0.04843 0.10199 0.32187 0.0
Co59 Co 0.41761 0.43427 0.6469 0.0
Co60 Co 0.50502 0.31112 0.63634 0.0
O61 O 0.4752 0.37119 0.66304 0.0
C62 C 0.38335 0.35357 0.6944 0.0
O63 O 0.40325 0.29824 0.68438 0.0
C64 C 0.59333 0.38374 0.67673 0.0
O65 O 0.56649 0.44172 0.67196 0.0
O66 O 0.51399 0.39263 0.61009 0.0
O67 O 0.44309 0.45499 0.60926 0.0
H68 H 0.52628 0.21894 0.53448 0.0
H69 H 0.48018 0.45343 0.71104 0.0
O70 O 0.3884 0.41389 0.68327 0.0
H71 H 0.49885 0.67323 0.65654 0.0
H72 H 0.29175 0.62405 0.6551 0.0
H73 H 0.34664 0.4568 0.58535 0.0
H74 H 0.44292 0.57863 0.62976 0.0
H75 H 0.36447 0.54443 0.675 0.0
O76 O 0.57488 0.32697 0.66373 0.0
H77 H 0.4888 0.29353 0.56841 0.0
H78 H 0.58644 0.20175 0.64811 0.0
H79 H 0.2733 0.53432 0.56469 0.0
H80 H 0.53799 0.5459 0.73835 0.0
H81 H 0.24544 0.61883 0.59971 0.0
H82 H 0.54702 0.65693 0.71121 0.0
O83 O 0.37679 0.35609 0.62409 0.0
H84 H 0.51725 0.1835 0.73672 0.0
H85 H 0.46011 0.16831 0.62292 0.0
H86 H 0.44656 0.06779 0.65485 0.0
H87 H 0.4753 0.07497 0.71219 0.0
H88 H 0.52951 0.28309 0.70392 0.0
H89 H 0.62533 0.12661 0.61501 0.0
H90 H 0.59509 0.13472 0.55777 0.0
O91 O 0.43609 0.29345 0.60826 0.0
C92 C 0.48117 0.43928 0.59832 0.0
C93 C 0.53969 0.21477 0.5594 0.0
C94 C 0.59532 0.16302 0.6046 0.0
N95 N 0.53514 0.25166 0.61021 0.0
C96 C 0.51852 0.25676 0.57873 0.0
C97 C 0.57323 0.20582 0.62321 0.0
C98 C 0.57832 0.16758 0.57248 0.0
C99 C 0.48373 0.50188 0.69914 0.0
N100 N 0.4581 0.51075 0.66889 0.0
C101 C 0.51644 0.554 0.71473 0.0
C102 C 0.52183 0.61614 0.6994 0.0
C103 C 0.49489 0.62525 0.66871 0.0
C104 C 0.46324 0.57153 0.65367 0.0
C105 C 0.3035 0.58727 0.63969 0.0
C106 C 0.33493 0.49351 0.60071 0.0
C107 C 0.34473 0.54227 0.65077 0.0
N108 N 0.36029 0.49663 0.63125 0.0
C109 C 0.29325 0.5372 0.5889 0.0
C110 C 0.27758 0.58449 0.60856 0.0
C111 C 0.38968 0.30946 0.60697 0.0
C112 C 0.5047 0.17965 0.71176 0.0
C113 C 0.47255 0.17196 0.64785 0.0
C114 C 0.4649 0.11479 0.66581 0.0
C115 C 0.48108 0.11882 0.69798 0.0
N116 N 0.49577 0.23144 0.66154 0.0
C117 C 0.51178 0.23575 0.69306 0.0
Co118 Co 0.9075 0.57785 0.64093 0.0
Co119 Co 0.98741 0.70344 0.62365 0.0
O120 O 0.96039 0.64857 0.65274 0.0
C121 C 0.86336 0.67232 0.67939 0.0
O122 O 0.87292 0.72282 0.66157 0.0
C123 C 0.08292 0.64436 0.66379 0.0
O124 O 0.06766 0.58124 0.65409 0.0
O125 O 0.00056 0.61705 0.60148 0.0
O126 O 0.93545 0.54642 0.60536 0.0
H127 H 0.00717 0.77524 0.51851 0.0
H128 H 0.97232 0.58657 0.70495 0.0
O129 O 0.87726 0.60974 0.6757 0.0
H130 H 0.00128 0.35005 0.6682 0.0
H131 H 0.78938 0.39279 0.66427 0.0
H132 H 0.84002 0.52716 0.58185 0.0
H133 H 0.93976 0.4304 0.63506 0.0
H134 H 0.8592 0.47935 0.67719 0.0
O135 O 0.05641 0.69801 0.65309 0.0
H136 H 0.97216 0.70583 0.55535 0.0
H137 H 0.06422 0.8184 0.63088 0.0
H138 H 0.77045 0.44046 0.56784 0.0
H139 H 0.03595 0.50927 0.73814 0.0
H140 H 0.74464 0.37263 0.60925 0.0
H141 H 0.05011 0.38958 0.72015 0.0
O142 O 0.86268 0.64402 0.61214 0.0
H143 H 0.9856 0.85184 0.71666 0.0
H144 H 0.9384 0.84073 0.60256 0.0
H145 H 0.91845 0.94702 0.62878 0.0
H146 H 0.94228 0.95316 0.68625 0.0
H147 H 0.00419 0.74625 0.68949 0.0
H148 H 0.10062 0.88858 0.59486 0.0
H149 H 0.07187 0.86744 0.53823 0.0
O150 O 0.91852 0.71056 0.59459 0.0
C151 C 0.97205 0.56354 0.5932 0.0
C152 C 0.01991 0.78508 0.54313 0.0
C153 C 0.07241 0.84862 0.58599 0.0
N154 N 0.01588 0.75839 0.59521 0.0
C155 C 0.00013 0.74606 0.5641 0.0
C156 C 0.05179 0.80857 0.60628 0.0
C157 C 0.05624 0.83675 0.55421 0.0
C158 C 0.97825 0.53455 0.69692 0.0
N159 N 0.95212 0.51278 0.66822 0.0
C160 C 0.01417 0.49088 0.71589 0.0
C161 C 0.0224 0.42395 0.70564 0.0
C162 C 0.99506 0.40178 0.67649 0.0
C163 C 0.96015 0.44738 0.65788 0.0
C164 C 0.80047 0.42169 0.64601 0.0
C165 C 0.8295 0.49717 0.59993 0.0
C166 C 0.83994 0.47083 0.65318 0.0
N167 N 0.85413 0.5076 0.63024 0.0
C168 C 0.78988 0.4484 0.59189 0.0
C169 C 0.77536 0.41045 0.61513 0.0
C170 C 0.87324 0.68936 0.59353 0.0
C171 C 0.97531 0.84998 0.69161 0.0
C172 C 0.94887 0.84296 0.62757 0.0
C173 C 0.93752 0.90333 0.64229 0.0
C174 C 0.95091 0.90675 0.67453 0.0
N175 N 0.97313 0.78767 0.64447 0.0
C176 C 0.98606 0.7905 0.67609 0.0
Co177 Co 0.5604 0.6367 0.34724 0.0
Co178 Co 0.50179 0.7887 0.36323 0.0
O179 O 0.52014 0.72122 0.33482 0.0
C180 C 0.61961 0.72019 0.31304 0.0
O181 O 0.60798 0.77432 0.32807 0.0
C182 C 0.38886 0.78751 0.33967 0.0
O183 O 0.38495 0.77079 0.36764 0.0
O184 O 0.47881 0.71186 0.38708 0.0
O185 O 0.52003 0.61432 0.37812 0.0
H186 H 0.4931 0.885 0.46692 0.0
H187 H 0.51398 0.66078 0.28047 0.0
O188 O 0.60308 0.65936 0.31733 0.0
H189 H 0.44163 0.43734 0.30572 0.0
H190 H 0.65471 0.4203 0.32805 0.0
H191 H 0.60555 0.56693 0.40727 0.0
H192 H 0.50243 0.50359 0.34598 0.0
H193 H 0.60248 0.52652 0.31299 0.0
O194 O 0.43264 0.79498 0.33407 0.0
H195 H 0.51792 0.80037 0.43143 0.0
H196 H 0.44343 0.92304 0.35396 0.0
H197 H 0.65742 0.46094 0.42331 0.0
H198 H 0.45364 0.59583 0.23932 0.0
H199 H 0.68237 0.3868 0.38355 0.0
H200 H 0.41715 0.48316 0.25183 0.0
O201 O 0.61022 0.68745 0.37992 0.0
H202 H 0.51523 0.91608 0.26702 0.0
H203 H 0.57089 0.91198 0.38098 0.0
H204 H 0.60329 0.00453 0.352 0.0
H205 H 0.57549 0.00717 0.29456 0.0
H206 H 0.48484 0.82428 0.29668 0.0
H207 H 0.41768 0.00903 0.38862 0.0
H208 H 0.44257 0.99027 0.44555 0.0
O209 O 0.57068 0.78272 0.39232 0.0
C210 C 0.49125 0.64753 0.39217 0.0
C211 C 0.48199 0.89377 0.44216 0.0
C212 C 0.43966 0.96334 0.39821 0.0
N213 N 0.48203 0.85658 0.39065 0.0
C214 C 0.49593 0.84599 0.42194 0.0
C215 C 0.45428 0.91442 0.3787 0.0
C216 C 0.45364 0.9528 0.43015 0.0
C217 C 0.49831 0.6117 0.28603 0.0
N218 N 0.51188 0.58577 0.31551 0.0
C219 C 0.4641 0.57524 0.26267 0.0
C220 C 0.44358 0.51204 0.26972 0.0
C221 C 0.45727 0.48632 0.29993 0.0
C222 C 0.49157 0.5242 0.32268 0.0
C223 C 0.64396 0.45208 0.34558 0.0
C224 C 0.61589 0.53465 0.3898 0.0
C225 C 0.61447 0.51232 0.3372 0.0
N226 N 0.60058 0.5525 0.3592 0.0
C227 C 0.64543 0.47482 0.39904 0.0
C228 C 0.65947 0.4333 0.37673 0.0
C229 C 0.6089 0.74151 0.39642 0.0
C230 C 0.52772 0.91597 0.29198 0.0
C231 C 0.55873 0.91273 0.35598 0.0
C232 C 0.57711 0.96533 0.3397 0.0
C233 C 0.56146 0.96681 0.30747 0.0
N234 N 0.52565 0.86309 0.34056 0.0
C235 C 0.51022 0.8642 0.30897 0.0
Co236 Co 0.55843 0.82997 0.84757 0.0
Co237 Co 0.49944 0.68323 0.86904 0.0
O238 O 0.51637 0.74581 0.83806 0.0
C239 C 0.61207 0.74146 0.81101 0.0
O240 O 0.59767 0.6865 0.82444 0.0
C241 C 0.40177 0.73484 0.83079 0.0
O242 O 0.42283 0.79719 0.83331 0.0
O243 O 0.48546 0.76328 0.89452 0.0
O244 O 0.52175 0.8589 0.87946 0.0
H245 H 0.50694 0.59464 0.97648 0.0
H246 H 0.50645 0.79954 0.78228 0.0
O247 O 0.59805 0.80273 0.81667 0.0
H248 H 0.43902 0.02835 0.80492 0.0
H249 H 0.65271 0.03992 0.8211 0.0
H250 H 0.61007 0.90321 0.9055 0.0
H251 H 0.50323 0.96602 0.84496 0.0
H252 H 0.59806 0.93495 0.80951 0.0
O253 O 0.42628 0.68278 0.84497 0.0
H254 H 0.52887 0.67334 0.9377 0.0
H255 H 0.43183 0.5583 0.86501 0.0
H256 H 0.66452 0.00804 0.9181 0.0
H257 H 0.44258 0.86027 0.74147 0.0
H258 H 0.6862 0.0772 0.87573 0.0
H259 H 0.40842 0.97551 0.75271 0.0
O260 O 0.60929 0.77995 0.88001 0.0
H261 H 0.47999 0.54089 0.77203 0.0
H262 H 0.56369 0.55468 0.88339 0.0
H263 H 0.58144 0.45391 0.85296 0.0
H264 H 0.53923 0.44636 0.79684 0.0
H265 H 0.46582 0.64254 0.80279 0.0
H266 H 0.4085 0.47864 0.90303 0.0
H267 H 0.44629 0.49643 0.95922 0.0
O268 O 0.57192 0.68359 0.89361 0.0
C269 C 0.49732 0.82812 0.89688 0.0
C270 C 0.49031 0.58621 0.95206 0.0
C271 C 0.43502 0.52118 0.91084 0.0
N272 N 0.48188 0.62025 0.89911 0.0
C273 C 0.50269 0.63052 0.92998 0.0
C274 C 0.44828 0.56657 0.88942 0.0
C275 C 0.45625 0.53117 0.94237 0.0
C276 C 0.49205 0.84994 0.78723 0.0
N277 N 0.50875 0.87944 0.81586 0.0
C278 C 0.4558 0.88398 0.76408 0.0
C279 C 0.43656 0.94857 0.77043 0.0
C280 C 0.45368 0.97821 0.79973 0.0
C281 C 0.48994 0.94262 0.82232 0.0
C282 C 0.6434 0.01034 0.83976 0.0
C283 C 0.61897 0.93334 0.88691 0.0
C284 C 0.61252 0.95083 0.83334 0.0
N285 N 0.60045 0.9134 0.85678 0.0
C286 C 0.64998 0.99252 0.8942 0.0
C287 C 0.66218 0.03124 0.87041 0.0
C288 C 0.61001 0.72479 0.89627 0.0
C289 C 0.49914 0.54389 0.79634 0.0
C290 C 0.54591 0.5524 0.85888 0.0
C291 C 0.55587 0.49499 0.8418 0.0
C292 C 0.53216 0.49075 0.81033 0.0
N293 N 0.51359 0.60439 0.84494 0.0
C294 C 0.49075 0.60101 0.814 0.0
Co295 Co 0.90053 0.9077 0.1394 0.0
Co296 Co 0.98853 0.79348 0.12213 0.0
O297 O 0.95706 0.84185 0.15128 0.0
C298 C 0.85833 0.8037 0.17523 0.0
O299 O 0.869 0.75563 0.1567 0.0
C300 C 0.07414 0.86122 0.1667 0.0
O301 O 0.04703 0.91907 0.1629 0.0
O302 O 0.99649 0.88306 0.10065 0.0
O303 O 0.92931 0.94803 0.10572 0.0
H304 H 0.01371 0.73371 0.01689 0.0
H305 H 0.95667 0.89843 0.2053 0.0
O306 O 0.86979 0.86757 0.17227 0.0
H307 H 0.97792 0.1427 0.17465 0.0
H308 H 0.77135 0.0761 0.16259 0.0
H309 H 0.8327 0.95727 0.08016 0.0
H310 H 0.92848 0.05851 0.13695 0.0
H311 H 0.84472 0.99528 0.1756 0.0
O312 O 0.05705 0.80666 0.1512 0.0
H313 H 0.97419 0.79513 0.05391 0.0
H314 H 0.07246 0.68857 0.12906 0.0
H315 H 0.75936 0.03805 0.066 0.0
H316 H 0.00559 0.98077 0.24376 0.0
H317 H 0.72821 0.09815 0.10742 0.0
H318 H 0.01664 0.10414 0.22856 0.0
O319 O 0.86084 0.84066 0.10868 0.0
H320 H -0.00113 0.63793 0.21465 0.0
H321 H 0.94815 0.65187 0.10063 0.0
H322 H 0.93567 0.54139 0.12659 0.0
H323 H 0.96125 0.53387 0.18401 0.0
H324 H 0.01023 0.74758 0.18776 0.0
H325 H 0.11344 0.62655 0.09287 0.0
H326 H 0.08383 0.64866 0.03633 0.0
O327 O 0.92066 0.77881 0.09281 0.0
C328 C 0.96671 0.93567 0.09355 0.0
C329 C 0.02685 0.72348 0.04147 0.0
C330 C 0.08287 0.6634 0.08412 0.0
N331 N 0.02075 0.74507 0.09358 0.0
C332 C 0.00453 0.75797 0.06254 0.0
C333 C 0.05963 0.69884 0.1045 0.0
C334 C 0.06623 0.67582 0.05239 0.0
C335 C 0.96091 0.95205 0.19854 0.0
N336 N 0.93951 0.97376 0.16897 0.0
C337 C 0.98889 0.99847 0.22041 0.0
C338 C 0.99508 0.06754 0.21184 0.0
C339 C 0.97339 0.0892 0.18158 0.0
C340 C 0.94562 0.04126 0.1603 0.0
C341 C 0.78476 0.05067 0.14432 0.0
C342 C 0.81986 0.98403 0.09825 0.0
C343 C 0.82634 0.0049 0.15155 0.0
N344 N 0.84366 0.97272 0.12863 0.0
C345 C 0.7781 0.02937 0.09012 0.0
C346 C 0.76058 0.06297 0.11337 0.0
C347 C 0.87435 0.79644 0.09071 0.0
C348 C 0.98771 0.6405 0.18961 0.0
C349 C 0.9592 0.64912 0.12562 0.0
C350 C 0.95215 0.58635 0.14019 0.0
C351 C 0.96654 0.58215 0.17241 0.0
N352 N 0.98016 0.70606 0.14265 0.0
C353 C 0.99422 0.70238 0.17425 0.0
Co354 Co 0.42801 0.09882 0.14363 0.0
Co355 Co 0.51684 0.21579 0.12936 0.0
O356 O 0.48733 0.15984 0.1575 0.0
C357 C 0.39666 0.18736 0.19011 0.0
O358 O 0.41542 0.24123 0.17821 0.0
C359 C 0.60455 0.13701 0.16728 0.0
O360 O 0.5757 0.08084 0.16242 0.0
O361 O 0.52098 0.13234 0.10316 0.0
O362 O 0.45096 0.07109 0.10584 0.0
H363 H 0.53367 0.30182 0.02554 0.0
H364 H 0.49428 0.08532 0.20687 0.0
O365 O 0.40176 0.12568 0.18042 0.0
H366 H 0.50178 0.85548 0.15773 0.0
H367 H 0.29694 0.92393 0.15955 0.0
H368 H 0.35388 0.07217 0.08354 0.0
H369 H 0.44738 0.95004 0.12951 0.0
H370 H 0.3738 0.99782 0.17567 0.0
O371 O 0.58723 0.19548 0.15539 0.0
H372 H 0.49661 0.2313 0.06112 0.0
H373 H 0.60208 0.31914 0.1386 0.0
H374 H 0.2771 0.99862 0.06633 0.0
H375 H 0.55111 0.99362 0.23529 0.0
H376 H 0.2481 0.92385 0.1045 0.0
H377 H 0.55411 0.87699 0.21105 0.0
O378 O 0.38826 0.17647 0.11979 0.0
H379 H 0.5393 0.34675 0.2297 0.0
H380 H 0.47674 0.36115 0.11614 0.0
H381 H 0.4683 0.4637 0.14819 0.0
H382 H 0.49968 0.45686 0.20542 0.0
H383 H 0.54656 0.24522 0.1968 0.0
H384 H 0.64064 0.3901 0.10384 0.0
H385 H 0.60622 0.38195 0.04688 0.0
O386 O 0.44725 0.23726 0.10267 0.0
C387 C 0.488 0.08441 0.09353 0.0
C388 C 0.54891 0.30599 0.05032 0.0
C389 C 0.60899 0.35547 0.09427 0.0
N390 N 0.5469 0.27152 0.1019 0.0
C391 C 0.52799 0.26632 0.07059 0.0
C392 C 0.58708 0.31504 0.11383 0.0
C393 C 0.58965 0.35089 0.06231 0.0
C394 C 0.49549 0.03479 0.19614 0.0
N395 N 0.46741 0.02286 0.16667 0.0
C396 C 0.52765 0.98298 0.21237 0.0
C397 C 0.52971 0.91785 0.19862 0.0
C398 C 0.50033 0.90574 0.16871 0.0
C399 C 0.4695 0.95937 0.15288 0.0
C400 C 0.30934 0.95599 0.14267 0.0
C401 C 0.34192 0.0391 0.10018 0.0
C402 C 0.35284 0.99795 0.15165 0.0
N403 N 0.36876 0.03855 0.13045 0.0
C404 C 0.29824 0.99783 0.09034 0.0
C405 C 0.28194 0.95598 0.11178 0.0
C406 C 0.4009 0.22262 0.10231 0.0
C407 C 0.52561 0.35043 0.20479 0.0
C408 C 0.49044 0.35772 0.14102 0.0
C409 C 0.48565 0.41601 0.15905 0.0
C410 C 0.50331 0.41217 0.19115 0.0
N411 N 0.51233 0.29733 0.15457 0.0
C412 C 0.52983 0.29322 0.18603 0.0
Co413 Co 0.07088 0.20193 0.85961 0.0
Co414 Co 0.01932 0.3535 0.88157 0.0
O415 O 0.03501 0.29058 0.85079 0.0
C416 C 0.13668 0.28566 0.82964 0.0
O417 O 0.13116 0.33597 0.84862 0.0
C418 C 0.91867 0.31563 0.84163 0.0
O419 O 0.93153 0.2501 0.84815 0.0
O420 O 0.99618 0.27459 0.90432 0.0
O421 O 0.03029 0.17605 0.89004 0.0
H422 H 0.0212 0.43853 0.98876 0.0
H423 H 0.02391 0.24218 0.79459 0.0
O424 O 0.11356 0.22744 0.82993 0.0
H425 H 0.93932 0.0217 0.81155 0.0
H426 H 0.15301 0.98393 0.8305 0.0
H427 H 0.11406 0.11889 0.91637 0.0
H428 H 0.00671 0.07318 0.85333 0.0
H429 H 0.10618 0.09585 0.82041 0.0
O430 O 0.94866 0.36497 0.85392 0.0
H431 H 0.04241 0.35836 0.95035 0.0
H432 H 0.95987 0.4861 0.87694 0.0
H433 H 0.16067 0.0071 0.92748 0.0
H434 H 0.95688 0.19241 0.75211 0.0
H435 H 0.18043 0.93879 0.88436 0.0
H436 H 0.91405 0.08142 0.76049 0.0
O437 O 0.12323 0.24379 0.89413 0.0
H438 H 0.02955 0.49709 0.78871 0.0
H439 H 0.09081 0.47268 0.90188 0.0
H440 H 0.12271 0.57007 0.87529 0.0
H441 H 0.09192 0.58289 0.81823 0.0
H442 H 0.00011 0.39928 0.81595 0.0
H443 H 0.93742 0.56747 0.91459 0.0
H444 H 0.96829 0.54401 0.97095 0.0
O445 O 0.08947 0.34177 0.90904 0.0
C446 C 0.00506 0.20877 0.90647 0.0
C447 C 0.00753 0.44936 0.96427 0.0
C448 C 0.96046 0.52166 0.92264 0.0
N449 N 0.00237 0.41746 0.91143 0.0
C450 C 0.01947 0.40416 0.94239 0.0
C451 C 0.97313 0.47526 0.90143 0.0
C452 C 0.97782 0.5085 0.95426 0.0
C453 C 0.00571 0.19357 0.79831 0.0
N454 N 0.01939 0.16036 0.82631 0.0
C455 C 0.96767 0.16577 0.77422 0.0
C456 C 0.94361 0.10355 0.77895 0.0
C457 C 0.95775 0.07003 0.8076 0.0
C458 C 0.99587 0.09946 0.83118 0.0
C459 C 0.14452 0.01313 0.84947 0.0
C460 C 0.1222 0.08924 0.89745 0.0
C461 C 0.11808 0.07656 0.8439 0.0
N462 N 0.107 0.11351 0.86774 0.0
C463 C 0.14875 0.02608 0.9039 0.0
C464 C 0.15988 0.98783 0.8797 0.0
C465 C 0.12535 0.29677 0.91186 0.0
C466 C 0.04346 0.492 0.81348 0.0
C467 C 0.07755 0.47762 0.87702 0.0
C468 C 0.09564 0.53299 0.86211 0.0
C469 C 0.07835 0.54016 0.83011 0.0
N470 N 0.04331 0.43065 0.86051 0.0
C471 C 0.02652 0.43702 0.82911 0.0
C472 C 0.99644 0.43053 0.42701 0.0
C473 C 0.99356 0.35724 0.4244 0.0
C474 C 0.991 0.46461 0.45403 0.0
C475 C 0.98368 0.42446 0.47939 0.0
C476 C 0.97902 0.35076 0.47653 0.0
C477 C 0.98319 0.31822 0.44894 0.0
C478 C 0.99457 0.54348 0.45574 0.0
C479 C 0.97188 0.30589 0.50312 0.0
C480 C 0.0236 0.50749 0.55967 0.0
C481 C 0.97616 0.52537 0.56502 0.0
C482 C 0.02664 0.47336 0.53211 0.0
C483 C 0.98125 0.45941 0.509 0.0
C484 C 0.93341 0.47886 0.51418 0.0
C485 C 0.93145 0.51061 0.54227 0.0
C486 C 0.07833 0.45199 0.52777 0.0
C487 C 0.88428 0.4674 0.48982 0.0
H488 H 0.00432 0.46131 0.40822 0.0
H489 H 0.98094 0.26171 0.44732 0.0
H490 H 0.96117 0.56541 0.46296 0.0
H491 H 0.0293 0.55915 0.47344 0.0
H492 H 0.99628 0.56732 0.43323 0.0
H493 H 0.96868 0.24932 0.49714 0.0
H494 H 0.00475 0.31327 0.5234 0.0
H495 H 0.937 0.32213 0.5103 0.0
H496 H 0.05816 0.51938 0.57718 0.0
H497 H 0.8948 0.52618 0.546 0.0
H498 H 0.08606 0.47925 0.50737 0.0
H499 H 0.07874 0.3949 0.52316 0.0
H500 H 0.1097 0.46427 0.54836 0.0
H501 H 0.88629 0.49422 0.46801 0.0
H502 H 0.85036 0.4873 0.49718 0.0
H503 H 0.87876 0.41077 0.48455 0.0
C504 C 0.4888 0.54105 0.42484 0.0
C505 C 0.47915 0.61283 0.41941 0.0
C506 C 0.48755 0.51045 0.45337 0.0
C507 C 0.47751 0.55288 0.47729 0.0
C508 C 0.46573 0.62462 0.47156 0.0
C509 C 0.46583 0.65339 0.44256 0.0
C510 C 0.49858 0.43321 0.45824 0.0
C511 C 0.45506 0.67174 0.4965 0.0
C512 C 0.43574 0.47118 0.54482 0.0
C513 C 0.48169 0.46873 0.56776 0.0
C514 C 0.43404 0.49717 0.51517 0.0
C515 C 0.47936 0.52249 0.50836 0.0
C516 C 0.52608 0.52001 0.53144 0.0
C517 C 0.52683 0.492 0.56083 0.0
C518 C 0.38381 0.49656 0.49104 0.0
C519 C 0.575 0.54795 0.52521 0.0
H520 H 0.4989 0.50906 0.40711 0.0
H521 H 0.45804 0.70871 0.43869 0.0
H522 H 0.53484 0.4257 0.47606 0.0
H523 H 0.46788 0.40741 0.4669 0.0
H524 H 0.50189 0.40657 0.43663 0.0
H525 H 0.44674 0.72648 0.48836 0.0
H526 H 0.42205 0.65149 0.50465 0.0
H527 H 0.48855 0.67208 0.51674 0.0
H528 H 0.40107 0.45111 0.54988 0.0
H529 H 0.56236 0.48961 0.57855 0.0
H530 H 0.38656 0.46065 0.47193 0.0
H531 H 0.37494 0.54945 0.48083 0.0
H532 H 0.35153 0.47927 0.50071 0.0
H533 H 0.58387 0.51996 0.50533 0.0
H534 H 0.608 0.54235 0.54559 0.0
H535 H 0.57034 0.6042 0.51884 0.0
C536 C 0.44272 0.03376 0.04294 0.0
C537 C 0.48893 0.04705 0.06463 0.0
C538 C 0.44179 1.0007 0.01471 0.0
C539 C 0.48819 0.97855 0.00831 0.0
C540 C 0.53512 0.99149 0.03022 0.0
C541 C 0.53498 0.02676 0.05796 0.0
C542 C 0.3911 0.98991 0.99168 0.0
C543 C 0.58532 0.96727 0.02451 0.0
C544 C 0.48077 0.83169 0.94981 0.0
C545 C 0.4883 0.86774 0.92376 0.0
C546 C 0.48088 0.86707 0.97745 0.0
C547 C 0.48735 0.94065 0.97894 0.0
C548 C 0.49267 0.97784 0.95235 0.0
C549 C 0.49362 0.94091 0.92519 0.0
C550 C 0.47575 0.82533 0.00539 0.0
C551 C 0.4983 0.05653 0.95276 0.0
H552 H 0.40712 0.05086 0.04772 0.0
H553 H 0.57071 0.03726 0.0747 0.0
H554 H 0.39212 0.01367 0.96907 0.0
H555 H 0.38368 0.93313 0.98769 0.0
H556 H 0.35876 0.01322 -0.00037 0.0
H557 H 0.61833 0.98073 0.04397 0.0
H558 H 0.58457 0.90966 0.02114 0.0
H559 H 0.5913 0.9914 0.00299 0.0
H560 H 0.47697 0.77521 0.94913 0.0
H561 H 0.49947 0.96931 0.90523 0.0
H562 H 0.44218 0.84374 0.01344 0.0
H563 H 0.51 0.8335 0.02471 0.0
H564 H 0.47138 0.76832 0.00048 0.0
H565 H 0.46614 0.08123 0.96034 0.0
H566 H 0.49931 0.07795 0.9297 0.0
H567 H 0.53405 0.07183 0.96968 0.0
C568 C 0.92734 0.00499 0.04645 0.0
C569 C 0.97162 0.97999 0.06714 0.0
C570 C 0.92991 0.04144 0.01952 0.0
C571 C 0.97811 0.05518 0.0135 0.0
C572 C 0.02317 0.03148 0.03466 0.0
C573 C 0.01932 0.99299 0.06099 0.0
C574 C 0.88089 0.06372 0.99713 0.0
C575 C 0.07537 0.04675 0.02947 0.0
C576 C 0.98875 0.0962 0.93158 0.0
C577 C 0.99102 0.16963 0.93201 0.0
C578 C 0.98314 0.0583 0.95765 0.0
C579 C 0.98126 0.09458 0.9851 0.0
C580 C 0.98248 0.16868 0.98547 0.0
C581 C 0.98647 0.20525 0.95879 0.0
C582 C 0.98023 0.97938 0.95599 0.0
C583 C 0.98159 0.20934 0.01443 0.0
H584 H 0.8903 0.99372 0.05069 0.0
H585 H 0.05358 0.97343 0.07686 0.0
H586 H 0.88029 0.12139 0.99409 0.0
H587 H 0.8786 0.04007 0.97406 0.0
H588 H 0.84645 0.04795 0.00501 0.0
H589 H 0.10665 0.0273 0.04875 0.0
H590 H 0.07921 0.02193 0.00763 0.0
H591 H 0.08019 0.10403 0.02698 0.0
H592 H 0.9922 0.06823 0.911 0.0
H593 H 0.98854 0.26185 0.95951 0.0
H594 H 0.94596 0.96063 0.96325 0.0
H595 H 0.01415 0.95637 0.9722 0.0
H596 H 0.97857 0.95945 0.93232 0.0
H597 H 0.94655 0.19667 0.0222 0.0
H598 H 0.98295 0.26686 0.0109 0.0
H599 H 0.01476 0.19405 0.0334 0.0
C600 C 0.66518 0.09057 0.21482 0.0
C601 C 0.65568 0.13475 0.18887 0.0
C602 C 0.71122 0.09531 0.23777 0.0
C603 C 0.74915 0.14378 0.2341 0.0
C604 C 0.74102 0.18477 0.20679 0.0
C605 C 0.69402 0.1807 0.18479 0.0
C606 C 0.7182 0.05107 0.26663 0.0
C607 C 0.78127 0.23481 0.20129 0.0
C608 C 0.83791 0.22914 0.30386 0.0
C609 C 0.88288 0.19038 0.30688 0.0
C610 C 0.79366 0.21247 0.28104 0.0
C611 C 0.79488 0.15717 0.25999 0.0
C612 C 0.84026 0.11757 0.26302 0.0
C613 C 0.88356 0.1341 0.28675 0.0
C614 C 0.74569 0.25472 0.27925 0.0
C615 C 0.84406 0.06019 0.24037 0.0
H616 H 0.63555 0.05497 0.21801 0.0
H617 H 0.68699 0.21418 0.16449 0.0
H618 H 0.753 0.01833 0.26956 0.0
H619 H 0.72365 0.08541 0.28728 0.0
H620 H 0.68497 0.01622 0.26601 0.0
H621 H 0.77152 0.25642 0.17739 0.0
H622 H 0.78553 0.27904 0.21787 0.0
H623 H 0.81882 0.20804 0.20534 0.0
H624 H 0.83723 0.27232 0.31956 0.0
H625 H 0.91856 0.10456 0.28882 0.0
H626 H 0.71304 0.21929 0.27921 0.0
H627 H 0.73607 0.28495 0.2573 0.0
H628 H 0.74982 0.29197 0.29886 0.0
H629 H 0.80982 0.02596 0.23581 0.0
H630 H 0.87864 0.02728 0.24868 0.0
H631 H 0.84606 0.0843 0.218 0.0
C632 C 0.65047 0.41974 0.72718 0.0
C633 C 0.64311 0.38182 0.69954 0.0
C634 C 0.69583 0.41287 0.75047 0.0
C635 C 0.7349 0.36767 0.74574 0.0
C636 C 0.72815 0.33096 0.71739 0.0
C637 C 0.68201 0.33781 0.69478 0.0
C638 C 0.70114 0.45187 0.78059 0.0
C639 C 0.76902 0.28289 0.71125 0.0
C640 C 0.86885 0.38778 0.79765 0.0
C641 C 0.87097 0.33153 0.81822 0.0
C642 C 0.825 0.39977 0.77368 0.0
C643 C 0.78171 0.35605 0.77101 0.0
C644 C 0.78337 0.30021 0.79222 0.0
C645 C 0.82829 0.28795 0.81524 0.0
C646 C 0.82564 0.4574 0.75053 0.0
C647 C 0.73785 0.25289 0.79039 0.0
H648 H 0.6198 0.45237 0.73113 0.0
H649 H 0.67617 0.30834 0.67338 0.0
H650 H 0.70299 0.41386 0.7997 0.0
H651 H 0.73726 0.48225 0.78614 0.0
H652 H 0.66874 0.48823 0.7799 0.0
H653 H 0.76 0.264 0.68692 0.0
H654 H 0.80647 0.31007 0.71623 0.0
H655 H 0.77314 0.2368 0.72685 0.0
H656 H 0.90215 0.42084 0.79958 0.0
H657 H 0.82995 0.24441 0.83112 0.0
H658 H 0.79171 0.49162 0.74812 0.0
H659 H 0.82357 0.43414 0.72742 0.0
H660 H 0.86077 0.48987 0.75705 0.0
H661 H 0.70376 0.28453 0.79131 0.0
H662 H 0.74456 0.21385 0.80947 0.0
H663 H 0.72882 0.22447 0.768 0.0
C664 C 0.1728 0.61313 0.69102 0.0
C665 C 0.12906 0.65405 0.68913 0.0
C666 C 0.21741 0.62534 0.71442 0.0
C667 C 0.21723 0.67757 0.73701 0.0
C668 C 0.1725 0.71718 0.73572 0.0
C669 C 0.12931 0.70581 0.71146 0.0
C670 C 0.2651 0.58379 0.71462 0.0
C671 C 0.17032 0.77196 0.75984 0.0
C672 C 0.32017 0.6689 0.81223 0.0
C673 C 0.3532 0.72249 0.80781 0.0
C674 C 0.27524 0.65431 0.78955 0.0
C675 C 0.26429 0.69261 0.76144 0.0
C676 C 0.29794 0.74624 0.75679 0.0
C677 C 0.34155 0.76135 0.78029 0.0
C678 C 0.23918 0.59873 0.7958 0.0
C679 C 0.28839 0.78682 0.72678 0.0
H680 H 0.17265 0.5733 0.67365 0.0
H681 H 0.09537 0.73706 0.7102 0.0
H682 H 0.29721 0.61979 0.71415 0.0
H683 H 0.27653 0.55277 0.73628 0.0
H684 H 0.25978 0.54773 0.69456 0.0
H685 H 0.1315 0.79474 0.75667 0.0
H686 H 0.18206 0.7488 0.78337 0.0
H687 H 0.19745 0.81496 0.75869 0.0
H688 H 0.32927 0.63888 0.83356 0.0
H689 H 0.36753 0.80204 0.77667 0.0
H690 H 0.23208 0.55883 0.77716 0.0
H691 H 0.20176 0.62282 0.79581 0.0
H692 H 0.25408 0.57216 0.8184 0.0
H693 H 0.28505 0.75018 0.70704 0.0
H694 H 0.31938 0.82496 0.72644 0.0
H695 H 0.25176 0.81572 0.72304 0.0
C696 C 0.29414 0.78222 0.31767 0.0
C697 C 0.34271 0.80235 0.31473 0.0
C698 C 0.25045 0.79521 0.29377 0.0
C699 C 0.25549 0.82982 0.26648 0.0
C700 C 0.30427 0.85178 0.26371 0.0
C701 C 0.34729 0.83743 0.28777 0.0
C702 C 0.19902 0.77073 0.29745 0.0
C703 C 0.31112 0.8897 0.23516 0.0
C704 C 0.15311 0.79643 0.19291 0.0
C705 C 0.12238 0.85632 0.19105 0.0
C706 C 0.19678 0.78766 0.21715 0.0
C707 C 0.21011 0.83998 0.24018 0.0
C708 C 0.17993 0.90128 0.23816 0.0
C709 C 0.13638 0.90882 0.21355 0.0
C710 C 0.22816 0.72173 0.2184 0.0
C711 C 0.19299 0.95798 0.2624 0.0
H712 H 0.29034 0.75525 0.33844 0.0
H713 H 0.38461 0.85404 0.28546 0.0
H714 H 0.17207 0.81549 0.2946 0.0
H715 H 0.18266 0.73203 0.27914 0.0
H716 H 0.20141 0.74616 0.3204 0.0
H717 H 0.35137 0.90582 0.23717 0.0
H718 H 0.29893 0.85539 0.21458 0.0
H719 H 0.28659 0.93707 0.23091 0.0
H720 H 0.14271 0.75568 0.17558 0.0
H721 H 0.11267 0.95504 0.2124 0.0
H722 H 0.22887 0.69266 0.2401 0.0
H723 H 0.26824 0.73528 0.21863 0.0
H724 H 0.21295 0.6865 0.19844 0.0
H725 H 0.18861 0.93736 0.28491 0.0
H726 H 0.16823 0.00488 0.25623 0.0
H727 H 0.2335 0.97393 0.26581 0.0
C728 C 0.32345 0.15135 0.21165 0.0
C729 C 0.36322 0.19862 0.21153 0.0
C730 C 0.28884 0.16319 0.23007 0.0
C731 C 0.29484 0.22288 0.24946 0.0
C732 C 0.33549 0.27022 0.24985 0.0
C733 C 0.36883 0.25802 0.23052 0.0
C734 C 0.24506 0.1127 0.22812 0.0
C735 C 0.34412 0.33323 0.27092 0.0
C736 C 0.18049 0.28478 0.27844 0.0
C737 C 0.18886 0.25067 0.30712 0.0
C738 C 0.2147 0.27633 0.25937 0.0
C739 C 0.25907 0.23468 0.26975 0.0
C740 C 0.26825 0.2017 0.29909 0.0
C741 C 0.23264 0.20922 0.31718 0.0
C742 C 0.20276 0.31053 0.22784 0.0
C743 C 0.31541 0.15773 0.31123 0.0
H744 H 0.31835 0.10598 0.19659 0.0
H745 H 0.39957 0.29458 0.23047 0.0
H746 H 0.243 0.09575 0.2516 0.0
H747 H 0.20852 0.13945 0.21744 0.0
H748 H 0.24841 0.06552 0.21415 0.0
H749 H 0.37636 0.36611 0.26766 0.0
H750 H 0.30917 0.36599 0.26667 0.0
H751 H 0.35239 0.31576 0.29543 0.0
H752 H 0.1465 0.31653 0.27057 0.0
H753 H 0.23945 0.18327 0.33949 0.0
H754 H 0.19894 0.26981 0.20964 0.0
H755 H 0.23455 0.34552 0.2257 0.0
H756 H 0.1669 0.34161 0.2233 0.0
H757 H 0.31418 0.11059 0.29651 0.0
H758 H 0.31897 0.14041 0.3355 0.0
H759 H 0.35015 0.18779 0.31015 0.0
C760 C 0.35912 0.29458 0.73883 0.0
C761 C 0.3487 0.34461 0.71513 0.0
C762 C 0.32514 0.28394 0.75786 0.0
C763 C 0.27886 0.32238 0.75215 0.0
C764 C 0.26766 0.37174 0.72768 0.0
C765 C 0.30329 0.38341 0.70989 0.0
C766 C 0.33882 0.23182 0.78409 0.0
C767 C 0.21781 0.41166 0.72011 0.0
C768 C 0.16982 0.25159 0.78381 0.0
C769 C 0.1723 0.29533 0.80941 0.0
C770 C 0.20416 0.25991 0.76485 0.0
C771 C 0.24247 0.3122 0.7721 0.0
C772 C 0.24533 0.35614 0.79805 0.0
C773 C 0.2099 0.34763 0.81621 0.0
C774 C 0.19906 0.21335 0.73686 0.0
C775 C 0.28633 0.41145 0.80691 0.0
H776 H 0.39418 0.26447 0.74273 0.0
H777 H 0.2948 0.42121 0.69115 0.0
H778 H 0.33947 0.25824 0.80638 0.0
H779 H 0.30941 0.19007 0.78094 0.0
H780 H 0.37664 0.20703 0.78573 0.0
H781 H 0.21181 0.44051 0.69784 0.0
H782 H 0.18511 0.37549 0.71864 0.0
H783 H 0.21727 0.44966 0.73886 0.0
H784 H 0.14067 0.21133 0.77838 0.0
H785 H 0.21233 0.3812 0.83614 0.0
H786 H 0.23487 0.18341 0.73862 0.0
H787 H 0.19288 0.24584 0.71559 0.0
H788 H 0.16687 0.17572 0.73425 0.0
H789 H 0.32455 0.38631 0.81214 0.0
H790 H 0.28277 0.44219 0.82746 0.0
H791 H 0.28466 0.44792 0.78728 0.0
C792 C 0.68759 0.78246 0.79313 0.0
C793 C 0.64849 0.73318 0.79139 0.0
C794 C 0.72433 0.77394 0.77589 0.0
C795 C 0.72068 0.71609 0.7556 0.0
C796 C 0.68031 0.66726 0.75313 0.0
C797 C 0.64529 0.67551 0.77163 0.0
C798 C 0.76732 0.82639 0.77963 0.0
C799 C 0.67382 0.60685 0.73068 0.0
C800 C 0.7868 0.73011 0.68967 0.0
C801 C 0.82901 0.68597 0.69989 0.0
C802 C 0.75105 0.74 0.70748 0.0
C803 C 0.75878 0.70692 0.73672 0.0
C804 C 0.80241 0.66421 0.74765 0.0
C805 C 0.83651 0.65291 0.72874 0.0
C806 C 0.70441 0.78451 0.69467 0.0
C807 C 0.81311 0.63103 0.77937 0.0
H808 H 0.69028 0.82673 0.8087 0.0
H809 H 0.6148 0.63768 0.7702 0.0
H810 H 0.80468 0.79916 0.78667 0.0
H811 H 0.76592 0.85265 0.75721 0.0
H812 H 0.76559 0.86709 0.79717 0.0
H813 H 0.63881 0.57606 0.73035 0.0
H814 H 0.67155 0.62652 0.70692 0.0
H815 H 0.7075 0.57175 0.73694 0.0
H816 H 0.78071 0.75496 0.66715 0.0
H817 H 0.86936 0.61906 0.73664 0.0
H818 H 0.70298 0.82883 0.71052 0.0
H819 H 0.6693 0.75295 0.69301 0.0
H820 H 0.70385 0.80593 0.67137 0.0
H821 H 0.8152 0.67209 0.79726 0.0
H822 H 0.84948 0.60108 0.78489 0.0
H823 H 0.78139 0.5954 0.78096 0.0
C824 C 0.83554 0.81872 0.22574 0.0
C825 C 0.82676 0.786 0.19679 0.0
C826 C 0.80329 0.80609 0.24558 0.0
C827 C 0.76008 0.76219 0.23552 0.0
C828 C 0.75097 0.72948 0.20614 0.0
C829 C 0.78513 0.74065 0.18738 0.0
C830 C 0.81509 0.84033 0.27709 0.0
C831 C 0.70416 0.6848 0.19406 0.0
C832 C 0.6931 0.68091 0.2928 0.0
C833 C 0.65432 0.7297 0.29253 0.0
C834 C 0.72869 0.6918 0.27492 0.0
C835 C 0.72385 0.75139 0.25544 0.0
C836 C 0.68401 0.80019 0.25472 0.0
C837 C 0.65017 0.78927 0.27373 0.0
C838 C 0.77203 0.64041 0.27738 0.0
C839 C 0.67633 0.86299 0.23339 0.0
H840 H 0.86776 0.85403 0.23285 0.0
H841 H 0.77796 0.71646 0.16469 0.0
H842 H 0.78482 0.87875 0.2783 0.0
H843 H 0.81563 0.8004 0.29531 0.0
H844 H 0.85243 0.86804 0.28235 0.0
H845 H 0.70214 0.66443 0.17042 0.0
H846 H 0.70394 0.63974 0.20975 0.0
H847 H 0.66922 0.71597 0.19347 0.0
H848 H 0.69659 0.63541 0.30777 0.0
H849 H 0.61988 0.82674 0.27353 0.0
H850 H 0.80916 0.66843 0.28394 0.0
H851 H 0.7697 0.61534 0.25462 0.0
H852 H 0.77173 0.5987 0.29476 0.0
H853 H 0.71247 0.89258 0.23591 0.0
H854 H 0.64675 0.89928 0.23784 0.0
H855 H 0.66441 0.84492 0.209 0.0
C856 C 0.29942 0.30519 0.57527 0.0
C857 C 0.34964 0.27964 0.58136 0.0
C858 C 0.26388 0.28862 0.54759 0.0
C859 C 0.27886 0.24501 0.52564 0.0
C860 C 0.32812 0.21463 0.53269 0.0
C861 C 0.36294 0.23224 0.5605 0.0
C862 C 0.2115 0.32182 0.54093 0.0
C863 C 0.34532 0.16749 0.50995 0.0
C864 C 0.17303 0.18287 0.45834 0.0
C865 C 0.17411 0.2346 0.43604 0.0
C866 C 0.20806 0.18398 0.48735 0.0
C867 C 0.24505 0.23788 0.49411 0.0
C868 C 0.24807 0.28802 0.47117 0.0
C869 C 0.21263 0.28572 0.44242 0.0
C870 C 0.20396 0.12945 0.51122 0.0
C871 C 0.28725 0.34618 0.47749 0.0
H872 H 0.28851 0.3413 0.59131 0.0
H873 H 0.40143 0.21146 0.5651 0.0
H874 H 0.20817 0.3613 0.52223 0.0
H875 H 0.18141 0.28188 0.53269 0.0
H876 H 0.204 0.34823 0.56162 0.0
H877 H 0.38186 0.14054 0.5206 0.0
H878 H 0.31581 0.12744 0.50062 0.0
H879 H 0.35083 0.19913 0.49009 0.0
H880 H 0.14364 0.1429 0.45365 0.0
H881 H 0.21408 0.32572 0.42535 0.0
H882 H 0.19104 0.15463 0.53045 0.0
H883 H 0.24186 0.10564 0.5213 0.0
H884 H 0.17653 0.08718 0.50134 0.0
H885 H 0.2801 0.38075 0.49602 0.0
H886 H 0.28633 0.37865 0.45663 0.0
H887 H 0.32623 0.32418 0.48586 0.0
C888 C 0.78338 0.68293 0.56144 0.0
C889 C 0.83175 0.7145 0.56764 0.0
C890 C 0.74653 0.6982 0.53415 0.0
C891 C 0.75836 0.74644 0.51272 0.0
C892 C 0.80563 0.7822 0.51986 0.0
C893 C 0.84184 0.76574 0.54724 0.0
C894 C 0.6963 0.65919 0.52732 0.0
C895 C 0.81935 0.83442 0.49768 0.0
C896 C 0.69367 0.70616 0.42944 0.0
C897 C 0.65166 0.75178 0.42397 0.0
C898 C 0.72977 0.70591 0.45792 0.0
C899 C 0.7239 0.75275 0.48142 0.0
C900 C 0.68355 0.80198 0.47546 0.0
C901 C 0.64785 0.80102 0.44671 0.0
C902 C 0.77263 0.65287 0.46338 0.0
C903 C 0.67648 0.85302 0.49997 0.0
H904 H 0.77505 0.6437 0.57714 0.0
H905 H 0.87887 0.79111 0.55196 0.0
H906 H 0.66388 0.69607 0.51986 0.0
H907 H 0.69484 0.62188 0.50802 0.0
H908 H 0.6909 0.62927 0.54772 0.0
H909 H 0.85421 0.86483 0.50855 0.0
H910 H 0.82638 0.8063 0.4773 0.0
H911 H 0.78738 0.87145 0.48906 0.0
H912 H 0.69729 0.66832 0.41196 0.0
H913 H 0.61571 0.83676 0.44268 0.0
H914 H 0.76813 0.61516 0.48153 0.0
H915 H 0.81004 0.67928 0.47186 0.0
H916 H 0.77347 0.623 0.4421 0.0
H917 H 0.66468 0.82415 0.51874 0.0
H918 H 0.64695 0.8931 0.49052 0.0
H919 H 0.71299 0.87993 0.51054 0.0
C920 C 0.84774 0.7161 0.04529 0.0
C921 C 0.83485 0.76753 0.06464 0.0
C922 C 0.81278 0.69523 0.01805 0.0
C923 C 0.76405 0.72702 0.0099 0.0
C924 C 0.74971 0.77581 0.03021 0.0
C925 C 0.78524 0.79523 0.05743 0.0
C926 C 0.82913 0.64235 0.99716 0.0
C927 C 0.69794 0.81091 0.02225 0.0
C928 C 0.69669 0.76017 0.92649 0.0
C929 C 0.65513 0.71395 0.92238 0.0
C930 C 0.73413 0.76208 0.95439 0.0
C931 C 0.73021 0.71613 0.97866 0.0
C932 C 0.69101 0.66517 0.97377 0.0
C933 C 0.65382 0.66461 0.9456 0.0
C934 C 0.77567 0.81694 0.95865 0.0
C935 C 0.68621 0.61457 0.99899 0.0
H936 H 0.8858 0.69376 0.05077 0.0
H937 H 0.77476 0.8346 0.0723 0.0
H938 H 0.79861 0.60298 0.98891 0.0
H939 H 0.83597 0.66938 0.97646 0.0
H940 H 0.86478 0.61471 0.00898 0.0
H941 H 0.69123 0.84314 0.04166 0.0
H942 H 0.69493 0.8454 0.0018 0.0
H943 H 0.66714 0.7712 0.01603 0.0
H944 H 0.69856 0.79785 0.90855 0.0
H945 H 0.62223 0.62808 0.94255 0.0
H946 H 0.81373 0.79277 0.96779 0.0
H947 H 0.77001 0.85629 0.97586 0.0
H948 H 0.77582 0.84461 0.9367 0.0
H949 H 0.72392 0.59165 0.01027 0.0
H950 H 0.65901 0.57144 0.98998 0.0
H951 H 0.67228 0.64298 0.01707 0.0
C952 C 0.30912 0.23189 0.07375 0.0
C953 C 0.35986 0.25436 0.07779 0.0
C954 C 0.27154 0.25047 0.04727 0.0
C955 C 0.28487 0.29314 0.02442 0.0
C956 C 0.33491 0.32066 0.02949 0.0
C957 C 0.37191 0.30085 0.05612 0.0
C958 C 0.21852 0.22003 0.04273 0.0
C959 C 0.35037 0.36706 0.00582 0.0
C960 C 0.20878 0.25164 0.94331 0.0
C961 C 0.17037 0.3029 0.93853 0.0
C962 C 0.24755 0.24989 0.97066 0.0
C963 C 0.24829 0.30102 0.99377 0.0
C964 C 0.21158 0.3554 0.98839 0.0
C965 C 0.17291 0.35566 0.96082 0.0
C966 C 0.2861 0.19095 0.9755 0.0
C967 C 0.21157 0.41122 0.01238 0.0
H968 H 0.29915 0.19656 0.09044 0.0
H969 H 0.41082 0.31924 0.05914 0.0
H970 H 0.18919 0.26152 0.03582 0.0
H971 H 0.21191 0.18082 0.02378 0.0
H972 H 0.2129 0.19394 0.06399 0.0
H973 H 0.38777 0.39296 0.01532 0.0
H974 H 0.35344 0.33507 0.98555 0.0
H975 H 0.32105 0.4079 0.99737 0.0
H976 H 0.20755 0.21087 0.92621 0.0
H977 H 0.14366 0.39579 0.95732 0.0
H978 H 0.28115 0.15703 0.99483 0.0
H979 H 0.32552 0.21222 0.98202 0.0
H980 H 0.28213 0.15795 0.9545 0.0
H981 H 0.19987 0.3878 0.03242 0.0
H982 H 0.18492 0.45473 0.00306 0.0
H983 H 0.25054 0.43301 0.02114 0.0
loop_
_geom_bond_atom_site_label_1
_geom_bond_atom_site_label_2
_geom_bond_distance
_geom_bond_site_symmetry_2
_ccdc_geom_bond_type
Co0 O2 2.143 . S
Co0 O8 2.074 . S
Co0 O11 2.093 . S
Co0 O24 2.097 . S
Co0 N41 2.151 . S
Co0 N49 2.214 . S
Co1 O2 2.160 . S
Co1 O7 2.058 1_455 S
Co1 O17 2.057 1_455 S
Co1 O32 2.037 . S
Co1 N36 2.145 1_455 S
Co1 N57 2.257 . S
O2 Co0 2.143 . S
O2 Co1 2.160 . S
C3 O4 1.278 . S
C3 O11 1.224 . S
O4 C3 1.278 . S
C5 O6 1.245 . S
C5 O17 1.232 . S
O6 C5 1.245 . S
O7 Co1 2.058 1_655 S
O7 C33 1.269 1_655 S
O8 Co0 2.074 . S
O8 C33 1.257 . S
H9 C34 0.930 . S
H10 C40 0.930 . S
O11 Co0 2.093 . S
O11 C3 1.224 . S
H12 C44 0.929 . S
H13 C46 0.930 . S
H14 C47 0.930 . S
H15 C45 0.929 . S
H16 C48 0.928 . S
O17 Co1 2.057 1_655 S
O17 C5 1.232 . S
H18 C37 0.929 1_455 S
H19 C38 0.929 . S
H20 C50 0.931 . S
H21 C42 0.929 . S
H22 C51 0.930 . S
H23 C43 0.931 . S
O24 Co0 2.097 . S
O24 C52 1.214 . S
H25 C53 0.929 . S
H26 C54 0.929 . S
H27 C55 0.930 . S
H28 C56 0.929 . S
H29 C58 0.930 . S
H30 C35 0.930 . S
H31 C39 0.930 . S
O32 Co1 2.037 . S
O32 C52 1.234 . S
C33 O7 1.269 1_455 S
C33 O8 1.257 . S
C34 H9 0.930 . S
C34 C37 1.388 . S
C34 C39 1.418 . S
C35 H30 0.930 . S
C35 C38 1.404 . S
C35 C39 1.353 . S
N36 Co1 2.145 1_655 S
N36 C37 1.397 . S
N36 C38 1.334 . S
C37 H18 0.929 1_655 S
C37 C34 1.388 . S
C37 N36 1.397 . S
C38 H19 0.929 . S
C38 C35 1.404 . S
C38 N36 1.334 . S
C39 H31 0.930 . S
C39 C34 1.418 . S
C39 C35 1.353 . S
C40 H10 0.930 . S
C40 N41 1.330 . S
C40 C42 1.446 . S
N41 Co0 2.151 . S
N41 C40 1.330 . S
N41 C45 1.418 . S
C42 H21 0.929 . S
C42 C40 1.446 . S
C42 C43 1.332 . S
C43 H23 0.931 . S
C43 C42 1.332 . S
C43 C44 1.267 . S
C44 H12 0.929 . S
C44 C43 1.267 . S
C44 C45 1.251 . S
C45 H15 0.929 . S
C45 N41 1.418 . S
C45 C44 1.251 . S
C46 H13 0.930 . S
C46 C48 1.406 . S
C46 C51 1.261 . S
C47 H14 0.930 . S
C47 N49 1.325 . S
C47 C50 1.357 . S
C48 H16 0.928 . S
C48 C46 1.406 . S
C48 N49 1.261 . S
N49 Co0 2.214 . S
N49 C47 1.325 . S
N49 C48 1.261 . S
C50 H20 0.931 . S
C50 C47 1.357 . S
C50 C51 1.312 . S
C51 H22 0.930 . S
C51 C46 1.261 . S
C51 C50 1.312 . S
C52 O24 1.214 . S
C52 O32 1.234 . S
C53 H25 0.929 . S
C53 C56 1.391 1_545 S
C53 C58 1.391 . S
C54 H26 0.929 . S
C54 C55 1.390 1_545 S
C54 N57 1.391 . S
C55 H27 0.930 . S
C55 C54 1.390 1_565 S
C55 C56 1.392 . S
C56 H28 0.929 . S
C56 C53 1.391 1_565 S
C56 C55 1.392 . S
N57 Co1 2.257 . S
N57 C54 1.391 . S
N57 C58 1.388 . S
C58 H29 0.930 . S
C58 C53 1.391 . S
C58 N57 1.388 . S
Co59 O61 2.143 . S
Co59 O67 2.074 . S
Co59 O70 2.093 . S
Co59 O83 2.097 . S
Co59 N100 2.151 . S
Co59 N108 2.214 . S
Co60 O61 2.160 . S
Co60 O66 2.058 . S
Co60 O76 2.057 . S
Co60 O91 2.037 . S
Co60 N95 2.145 . S
Co60 N116 2.257 . S
O61 Co59 2.143 . S
O61 Co60 2.160 . S
C62 O63 1.278 . S
C62 O70 1.224 . S
O63 C62 1.278 . S
C64 O65 1.245 . S
C64 O76 1.232 . S
O65 C64 1.245 . S
O66 Co60 2.058 . S
O66 C92 1.269 . S
O67 Co59 2.074 . S
O67 C92 1.257 . S
H68 C93 0.930 . S
H69 C99 0.930 . S
O70 Co59 2.093 . S
O70 C62 1.224 . S
H71 C103 0.929 . S
H72 C105 0.930 . S
H73 C106 0.930 . S
H74 C104 0.929 . S
H75 C107 0.928 . S
O76 Co60 2.057 . S
O76 C64 1.232 . S
H77 C96 0.929 . S
H78 C97 0.929 . S
H79 C109 0.931 . S
H80 C101 0.929 . S
H81 C110 0.930 . S
H82 C102 0.931 . S
O83 Co59 2.097 . S
O83 C111 1.214 . S
H84 C112 0.929 . S
H85 C113 0.929 . S
H86 C114 0.930 . S
H87 C115 0.929 . S
H88 C117 0.930 . S
H89 C94 0.930 . S
H90 C98 0.930 . S
O91 Co60 2.037 . S
O91 C111 1.234 . S
C92 O66 1.269 . S
C92 O67 1.257 . S
C93 H68 0.930 . S
C93 C96 1.388 . S
C93 C98 1.418 . S
C94 H89 0.930 . S
C94 C97 1.404 . S
C94 C98 1.353 . S
N95 Co60 2.145 . S
N95 C96 1.397 . S
N95 C97 1.334 . S
C96 H77 0.929 . S
C96 C93 1.388 . S
C96 N95 1.397 . S
C97 H78 0.929 . S
C97 C94 1.404 . S
C97 N95 1.334 . S
C98 H90 0.930 . S
C98 C93 1.418 . S
C98 C94 1.353 . S
C99 H69 0.930 . S
C99 N100 1.330 . S
C99 C101 1.446 . S
N100 Co59 2.151 . S
N100 C99 1.330 . S
N100 C104 1.418 . S
C101 H80 0.929 . S
C101 C99 1.446 . S
C101 C102 1.332 . S
C102 H82 0.931 . S
C102 C101 1.332 . S
C102 C103 1.267 . S
C103 H71 0.929 . S
C103 C102 1.267 . S
C103 C104 1.251 . S
C104 H74 0.929 . S
C104 N100 1.418 . S
C104 C103 1.251 . S
C105 H72 0.930 . S
C105 C107 1.406 . S
C105 C110 1.261 . S
C106 H73 0.930 . S
C106 N108 1.325 . S
C106 C109 1.357 . S
C107 H75 0.928 . S
C107 C105 1.406 . S
C107 N108 1.261 . S
N108 Co59 2.214 . S
N108 C106 1.325 . S
N108 C107 1.261 . S
C109 H79 0.931 . S
C109 C106 1.357 . S
C109 C110 1.312 . S
C110 H81 0.930 . S
C110 C105 1.261 . S
C110 C109 1.312 . S
C111 O83 1.214 . S
C111 O91 1.234 . S
C112 H84 0.929 . S
C112 C115 1.391 1_545 S
C112 C117 1.391 . S
C113 H85 0.929 . S
C113 C114 1.390 1_545 S
C113 N116 1.391 . S
C114 H86 0.930 . S
C114 C113 1.390 1_565 S
C114 C115 1.392 . S
C115 H87 0.929 . S
C115 C112 1.391 1_565 S
C115 C114 1.392 . S
N116 Co60 2.257 . S
N116 C113 1.391 . S
N116 C117 1.388 . S
C117 H88 0.930 . S
C117 C112 1.391 . S
C117 N116 1.388 . S
Co118 O120 2.143 . S
Co118 O126 2.074 . S
Co118 O129 2.093 . S
Co118 O142 2.097 . S
Co118 N159 2.151 . S
Co118 N167 2.214 . S
Co119 O120 2.160 . S
Co119 O125 2.058 1_655 S
Co119 O135 2.057 1_655 S
Co119 O150 2.037 . S
Co119 N154 2.145 1_655 S
Co119 N175 2.257 . S
O120 Co118 2.143 . S
O120 Co119 2.160 . S
C121 O122 1.278 . S
C121 O129 1.224 . S
O122 C121 1.278 . S
C123 O124 1.245 . S
C123 O135 1.232 . S
O124 C123 1.245 . S
O125 Co119 2.058 1_455 S
O125 C151 1.269 1_455 S
O126 Co118 2.074 . S
O126 C151 1.257 . S
H127 C152 0.930 . S
H128 C158 0.930 . S
O129 Co118 2.093 . S
O129 C121 1.224 . S
H130 C162 0.929 . S
H131 C164 0.930 . S
H132 C165 0.930 . S
H133 C163 0.929 . S
H134 C166 0.928 . S
O135 Co119 2.057 1_455 S
O135 C123 1.232 . S
H136 C155 0.929 1_655 S
H137 C156 0.929 . S
H138 C168 0.931 . S
H139 C160 0.929 . S
H140 C169 0.930 . S
H141 C161 0.931 . S
O142 Co118 2.097 . S
O142 C170 1.214 . S
H143 C171 0.929 . S
H144 C172 0.929 . S
H145 C173 0.930 . S
H146 C174 0.929 . S
H147 C176 0.930 . S
H148 C153 0.930 . S
H149 C157 0.930 . S
O150 Co119 2.037 . S
O150 C170 1.234 . S
C151 O125 1.269 1_655 S
C151 O126 1.257 . S
C152 H127 0.930 . S
C152 C155 1.388 . S
C152 C157 1.418 . S
C153 H148 0.930 . S
C153 C156 1.404 . S
C153 C157 1.353 . S
N154 Co119 2.145 1_455 S
N154 C155 1.397 . S
N154 C156 1.334 . S
C155 H136 0.929 1_455 S
C155 C152 1.388 . S
C155 N154 1.397 . S
C156 H137 0.929 . S
C156 C153 1.404 . S
C156 N154 1.334 . S
C157 H149 0.930 . S
C157 C152 1.418 . S
C157 C153 1.353 . S
C158 H128 0.930 . S
C158 N159 1.330 . S
C158 C160 1.446 . S
N159 Co118 2.151 . S
N159 C158 1.330 . S
N159 C163 1.418 . S
C160 H139 0.929 . S
C160 C158 1.446 . S
C160 C161 1.332 . S
C161 H141 0.931 . S
C161 C160 1.332 . S
C161 C162 1.267 . S
C162 H130 0.929 . S
C162 C161 1.267 . S
C162 C163 1.251 . S
C163 H133 0.929 . S
C163 N159 1.418 . S
C163 C162 1.251 . S
C164 H131 0.930 . S
C164 C166 1.406 . S
C164 C169 1.261 . S
C165 H132 0.930 . S
C165 N167 1.325 . S
C165 C168 1.357 . S
C166 H134 0.928 . S
C166 C164 1.406 . S
C166 N167 1.261 . S
N167 Co118 2.214 . S
N167 C165 1.325 . S
N167 C166 1.261 . S
C168 H138 0.931 . S
C168 C165 1.357 . S
C168 C169 1.312 . S
C169 H140 0.930 . S
C169 C164 1.261 . S
C169 C168 1.312 . S
C170 O142 1.214 . S
C170 O150 1.234 . S
C171 H143 0.929 . S
C171 C174 1.391 1_565 S
C171 C176 1.391 . S
C172 H144 0.929 . S
C172 C173 1.390 1_565 S
C172 N175 1.391 . S
C173 H145 0.930 . S
C173 C172 1.390 1_545 S
C173 C174 1.392 . S
C174 H146 0.929 . S
C174 C171 1.391 1_545 S
C174 C173 1.392 . S
N175 Co119 2.257 . S
N175 C172 1.391 . S
N175 C176 1.388 . S
C176 H147 0.930 . S
C176 C171 1.391 . S
C176 N175 1.388 . S
Co177 O179 2.143 . S
Co177 O185 2.074 . S
Co177 O188 2.093 . S
Co177 O201 2.097 . S
Co177 N218 2.151 . S
Co177 N226 2.214 . S
Co178 O179 2.160 . S
Co178 O184 2.058 . S
Co178 O194 2.057 . S
Co178 O209 2.037 . S
Co178 N213 2.145 . S
Co178 N234 2.257 . S
O179 Co177 2.143 . S
O179 Co178 2.160 . S
C180 O181 1.278 . S
C180 O188 1.224 . S
O181 C180 1.278 . S
C182 O183 1.245 . S
C182 O194 1.232 . S
O183 C182 1.245 . S
O184 Co178 2.058 . S
O184 C210 1.269 . S
O185 Co177 2.074 . S
O185 C210 1.257 . S
H186 C211 0.930 . S
H187 C217 0.930 . S
O188 Co177 2.093 . S
O188 C180 1.224 . S
H189 C221 0.929 . S
H190 C223 0.930 . S
H191 C224 0.930 . S
H192 C222 0.929 . S
H193 C225 0.928 . S
O194 Co178 2.057 . S
O194 C182 1.232 . S
H195 C214 0.929 . S
H196 C215 0.929 . S
H197 C227 0.931 . S
H198 C219 0.929 . S
H199 C228 0.930 . S
H200 C220 0.931 . S
O201 Co177 2.097 . S
O201 C229 1.214 . S
H202 C230 0.929 . S
H203 C231 0.929 . S
H204 C232 0.930 . S
H205 C233 0.929 . S
H206 C235 0.930 . S
H207 C212 0.930 . S
H208 C216 0.930 . S
O209 Co178 2.037 . S
O209 C229 1.234 . S
C210 O184 1.269 . S
C210 O185 1.257 . S
C211 H186 0.930 . S
C211 C214 1.388 . S
C211 C216 1.418 . S
C212 H207 0.930 . S
C212 C215 1.404 . S
C212 C216 1.353 . S
N213 Co178 2.145 . S
N213 C214 1.397 . S
N213 C215 1.334 . S
C214 H195 0.929 . S
C214 C211 1.388 . S
C214 N213 1.397 . S
C215 H196 0.929 . S
C215 C212 1.404 . S
C215 N213 1.334 . S
C216 H208 0.930 . S
C216 C211 1.418 . S
C216 C212 1.353 . S
C217 H187 0.930 . S
C217 N218 1.330 . S
C217 C219 1.446 . S
N218 Co177 2.151 . S
N218 C217 1.330 . S
N218 C222 1.418 . S
C219 H198 0.929 . S
C219 C217 1.446 . S
C219 C220 1.332 . S
C220 H200 0.931 . S
C220 C219 1.332 . S
C220 C221 1.267 . S
C221 H189 0.929 . S
C221 C220 1.267 . S
C221 C222 1.251 . S
C222 H192 0.929 . S
C222 N218 1.418 . S
C222 C221 1.251 . S
C223 H190 0.930 . S
C223 C225 1.406 . S
C223 C228 1.261 . S
C224 H191 0.930 . S
C224 N226 1.325 . S
C224 C227 1.357 . S
C225 H193 0.928 . S
C225 C223 1.406 . S
C225 N226 1.261 . S
N226 Co177 2.214 . S
N226 C224 1.325 . S
N226 C225 1.261 . S
C227 H197 0.931 . S
C227 C224 1.357 . S
C227 C228 1.312 . S
C228 H199 0.930 . S
C228 C223 1.261 . S
C228 C227 1.312 . S
C229 O201 1.214 . S
C229 O209 1.234 . S
C230 H202 0.929 . S
C230 C233 1.391 1_565 S
C230 C235 1.391 . S
C231 H203 0.929 . S
C231 C232 1.390 1_565 S
C231 N234 1.391 . S
C232 H204 0.930 . S
C232 C231 1.390 1_545 S
C232 C233 1.392 . S
C233 H205 0.929 . S
C233 C230 1.391 1_545 S
C233 C232 1.392 . S
N234 Co178 2.257 . S
N234 C231 1.391 . S
N234 C235 1.388 . S
C235 H206 0.930 . S
C235 C230 1.391 . S
C235 N234 1.388 . S
Co236 O238 2.143 . S
Co236 O244 2.074 . S
Co236 O247 2.093 . S
Co236 O260 2.097 . S
Co236 N277 2.151 . S
Co236 N285 2.214 . S
Co237 O238 2.160 . S
Co237 O243 2.058 . S
Co237 O253 2.057 . S
Co237 O268 2.037 . S
Co237 N272 2.145 . S
Co237 N293 2.257 . S
O238 Co236 2.143 . S
O238 Co237 2.160 . S
C239 O240 1.278 . S
C239 O247 1.224 . S
O240 C239 1.278 . S
C241 O242 1.245 . S
C241 O253 1.232 . S
O242 C241 1.245 . S
O243 Co237 2.058 . S
O243 C269 1.269 . S
O244 Co236 2.074 . S
O244 C269 1.257 . S
H245 C270 0.930 . S
H246 C276 0.930 . S
O247 Co236 2.093 . S
O247 C239 1.224 . S
H248 C280 0.929 . S
H249 C282 0.930 1_545 S
H250 C283 0.930 . S
H251 C281 0.929 . S
H252 C284 0.928 . S
O253 Co237 2.057 . S
O253 C241 1.232 . S
H254 C273 0.929 . S
H255 C274 0.929 . S
H256 C286 0.931 . S
H257 C278 0.929 . S
H258 C287 0.930 1_545 S
H259 C279 0.931 . S
O260 Co236 2.097 . S
O260 C288 1.214 . S
H261 C289 0.929 . S
H262 C290 0.929 . S
H263 C291 0.930 . S
H264 C292 0.929 . S
H265 C294 0.930 . S
H266 C271 0.930 . S
H267 C275 0.930 . S
O268 Co237 2.037 . S
O268 C288 1.234 . S
C269 O243 1.269 . S
C269 O244 1.257 . S
C270 H245 0.930 . S
C270 C273 1.388 . S
C270 C275 1.418 . S
C271 H266 0.930 . S
C271 C274 1.404 . S
C271 C275 1.353 . S
N272 Co237 2.145 . S
N272 C273 1.397 . S
N272 C274 1.334 . S
C273 H254 0.929 . S
C273 C270 1.388 . S
C273 N272 1.397 . S
C274 H255 0.929 . S
C274 C271 1.404 . S
C274 N272 1.334 . S
C275 H267 0.930 . S
C275 C270 1.418 . S
C275 C271 1.353 . S
C276 H246 0.930 . S
C276 N277 1.330 . S
C276 C278 1.446 . S
N277 Co236 2.151 . S
N277 C276 1.330 . S
N277 C281 1.418 . S
C278 H257 0.929 . S
C278 C276 1.446 . S
C278 C279 1.332 1_565 S
C279 H259 0.931 . S
C279 C278 1.332 1_545 S
C279 C280 1.267 . S
C280 H248 0.929 . S
C280 C279 1.267 . S
C280 C281 1.251 1_545 S
C281 H251 0.929 . S
C281 N277 1.418 . S
C281 C280 1.251 1_565 S
C282 H249 0.930 1_565 S
C282 C284 1.406 . S
C282 C287 1.261 . S
C283 H250 0.930 . S
C283 N285 1.325 . S
C283 C286 1.357 . S
C284 H252 0.928 . S
C284 C282 1.406 . S
C284 N285 1.261 . S
N285 Co236 2.214 . S
N285 C283 1.325 . S
N285 C284 1.261 . S
C286 H256 0.931 . S
C286 C283 1.357 . S
C286 C287 1.312 . S
C287 H258 0.930 1_565 S
C287 C282 1.261 . S
C287 C286 1.312 . S
C288 O260 1.214 . S
C288 O268 1.234 . S
C289 H261 0.929 . S
C289 C292 1.391 . S
C289 C294 1.391 . S
C290 H262 0.929 . S
C290 C291 1.390 . S
C290 N293 1.391 . S
C291 H263 0.930 . S
C291 C290 1.390 . S
C291 C292 1.392 . S
C292 H264 0.929 . S
C292 C289 1.391 . S
C292 C291 1.392 . S
N293 Co237 2.257 . S
N293 C290 1.391 . S
N293 C294 1.388 . S
C294 H265 0.930 . S
C294 C289 1.391 . S
C294 N293 1.388 . S
Co295 O297 2.143 . S
Co295 O303 2.074 . S
Co295 O306 2.093 . S
Co295 O319 2.097 . S
Co295 N336 2.151 . S
Co295 N344 2.214 . S
Co296 O297 2.160 . S
Co296 O302 2.058 1_655 S
Co296 O312 2.057 1_655 S
Co296 O327 2.037 . S
Co296 N331 2.145 1_655 S
Co296 N352 2.257 . S
O297 Co295 2.143 . S
O297 Co296 2.160 . S
C298 O299 1.278 . S
C298 O306 1.224 . S
O299 C298 1.278 . S
C300 O301 1.245 . S
C300 O312 1.232 . S
O301 C300 1.245 . S
O302 Co296 2.058 1_455 S
O302 C328 1.269 1_455 S
O303 Co295 2.074 . S
O303 C328 1.257 . S
H304 C329 0.930 . S
H305 C335 0.930 . S
O306 Co295 2.093 . S
O306 C298 1.224 . S
H307 C339 0.929 . S
H308 C341 0.930 1_545 S
H309 C342 0.930 . S
H310 C340 0.929 . S
H311 C343 0.928 . S
O312 Co296 2.057 1_455 S
O312 C300 1.232 . S
H313 C332 0.929 1_655 S
H314 C333 0.929 . S
H315 C345 0.931 . S
H316 C337 0.929 . S
H317 C346 0.930 1_545 S
H318 C338 0.931 . S
O319 Co295 2.097 . S
O319 C347 1.214 . S
H320 C348 0.929 . S
H321 C349 0.929 . S
H322 C350 0.930 . S
H323 C351 0.929 . S
H324 C353 0.930 . S
H325 C330 0.930 . S
H326 C334 0.930 . S
O327 Co296 2.037 . S
O327 C347 1.234 . S
C328 O302 1.269 1_655 S
C328 O303 1.257 . S
C329 H304 0.930 . S
C329 C332 1.388 . S
C329 C334 1.418 . S
C330 H325 0.930 . S
C330 C333 1.404 . S
C330 C334 1.353 . S
N331 Co296 2.145 1_455 S
N331 C332 1.397 . S
N331 C333 1.334 . S
C332 H313 0.929 1_455 S
C332 C329 1.388 . S
C332 N331 1.397 . S
C333 H314 0.929 . S
C333 C330 1.404 . S
C333 N331 1.334 . S
C334 H326 0.930 . S
C334 C329 1.418 . S
C334 C330 1.353 . S
C335 H305 0.930 . S
C335 N336 1.330 . S
C335 C337 1.446 . S
N336 Co295 2.151 . S
N336 C335 1.330 . S
N336 C340 1.418 . S
C337 H316 0.929 . S
C337 C335 1.446 . S
C337 C338 1.332 1_565 S
C338 H318 0.931 . S
C338 C337 1.332 1_545 S
C338 C339 1.267 . S
C339 H307 0.929 . S
C339 C338 1.267 . S
C339 C340 1.251 1_545 S
C340 H310 0.929 . S
C340 N336 1.418 . S
C340 C339 1.251 1_565 S
C341 H308 0.930 1_565 S
C341 C343 1.406 . S
C341 C346 1.261 . S
C342 H309 0.930 . S
C342 N344 1.325 . S
C342 C345 1.357 . S
C343 H311 0.928 . S
C343 C341 1.406 . S
C343 N344 1.261 . S
N344 Co295 2.214 . S
N344 C342 1.325 . S
N344 C343 1.261 . S
C345 H315 0.931 . S
C345 C342 1.357 . S
C345 C346 1.312 . S
C346 H317 0.930 1_565 S
C346 C341 1.261 . S
C346 C345 1.312 . S
C347 O319 1.214 . S
C347 O327 1.234 . S
C348 H320 0.929 . S
C348 C351 1.391 . S
C348 C353 1.391 . S
C349 H321 0.929 . S
C349 C350 1.390 . S
C349 N352 1.391 . S
C350 H322 0.930 . S
C350 C349 1.390 . S
C350 C351 1.392 . S
C351 H323 0.929 . S
C351 C348 1.391 . S
C351 C350 1.392 . S
N352 Co296 2.257 . S
N352 C349 1.391 . S
N352 C353 1.388 . S
C353 H324 0.930 . S
C353 C348 1.391 . S
C353 N352 1.388 . S
Co354 O356 2.143 . S
Co354 O362 2.074 . S
Co354 O365 2.093 . S
Co354 O378 2.097 . S
Co354 N395 2.151 . S
Co354 N403 2.214 . S
Co355 O356 2.160 . S
Co355 O361 2.058 . S
Co355 O371 2.057 . S
Co355 O386 2.037 . S
Co355 N390 2.145 . S
Co355 N411 2.257 . S
O356 Co354 2.143 . S
O356 Co355 2.160 . S
C357 O358 1.278 . S
C357 O365 1.224 . S
O358 C357 1.278 . S
C359 O360 1.245 . S
C359 O371 1.232 . S
O360 C359 1.245 . S
O361 Co355 2.058 . S
O361 C387 1.269 . S
O362 Co354 2.074 . S
O362 C387 1.257 . S
H363 C388 0.930 . S
H364 C394 0.930 . S
O365 Co354 2.093 . S
O365 C357 1.224 . S
H366 C398 0.929 . S
H367 C400 0.930 1_565 S
H368 C401 0.930 . S
H369 C399 0.929 . S
H370 C402 0.928 . S
O371 Co355 2.057 . S
O371 C359 1.232 . S
H372 C391 0.929 . S
H373 C392 0.929 . S
H374 C404 0.931 . S
H375 C396 0.929 . S
H376 C405 0.930 1_565 S
H377 C397 0.931 . S
O378 Co354 2.097 . S
O378 C406 1.214 . S
H379 C407 0.929 . S
H380 C408 0.929 . S
H381 C409 0.930 . S
H382 C410 0.929 . S
H383 C412 0.930 . S
H384 C389 0.930 . S
H385 C393 0.930 . S
O386 Co355 2.037 . S
O386 C406 1.234 . S
C387 O361 1.269 . S
C387 O362 1.257 . S
C388 H363 0.930 . S
C388 C391 1.388 . S
C388 C393 1.418 . S
C389 H384 0.930 . S
C389 C392 1.404 . S
C389 C393 1.353 . S
N390 Co355 2.145 . S
N390 C391 1.397 . S
N390 C392 1.334 . S
C391 H372 0.929 . S
C391 C388 1.388 . S
C391 N390 1.397 . S
C392 H373 0.929 . S
C392 C389 1.404 . S
C392 N390 1.334 . S
C393 H385 0.930 . S
C393 C388 1.418 . S
C393 C389 1.353 . S
C394 H364 0.930 . S
C394 N395 1.330 . S
C394 C396 1.446 . S
N395 Co354 2.151 . S
N395 C394 1.330 . S
N395 C399 1.418 . S
C396 H375 0.929 . S
C396 C394 1.446 . S
C396 C397 1.332 1_545 S
C397 H377 0.931 . S
C397 C396 1.332 1_565 S
C397 C398 1.267 . S
C398 H366 0.929 . S
C398 C397 1.267 . S
C398 C399 1.251 1_565 S
C399 H369 0.929 . S
C399 N395 1.418 . S
C399 C398 1.251 1_545 S
C400 H367 0.930 1_545 S
C400 C402 1.406 . S
C400 C405 1.261 . S
C401 H368 0.930 . S
C401 N403 1.325 . S
C401 C404 1.357 . S
C402 H370 0.928 . S
C402 C400 1.406 . S
C402 N403 1.261 . S
N403 Co354 2.214 . S
N403 C401 1.325 . S
N403 C402 1.261 . S
C404 H374 0.931 . S
C404 C401 1.357 . S
C404 C405 1.312 . S
C405 H376 0.930 1_545 S
C405 C400 1.261 . S
C405 C404 1.312 . S
C406 O378 1.214 . S
C406 O386 1.234 . S
C407 H379 0.929 . S
C407 C410 1.391 . S
C407 C412 1.391 . S
C408 H380 0.929 . S
C408 C409 1.390 . S
C408 N411 1.391 . S
C409 H381 0.930 . S
C409 C408 1.390 . S
C409 C410 1.392 . S
C410 H382 0.929 . S
C410 C407 1.391 . S
C410 C409 1.392 . S
N411 Co355 2.257 . S
N411 C408 1.391 . S
N411 C412 1.388 . S
C412 H383 0.930 . S
C412 C407 1.391 . S
C412 N411 1.388 . S
Co413 O415 2.143 . S
Co413 O421 2.074 . S
Co413 O424 2.093 . S
Co413 O437 2.097 . S
Co413 N454 2.151 . S
Co413 N462 2.214 . S
Co414 O415 2.160 . S
Co414 O420 2.058 1_455 S
Co414 O430 2.057 1_455 S
Co414 O445 2.037 . S
Co414 N449 2.145 1_455 S
Co414 N470 2.257 . S
O415 Co413 2.143 . S
O415 Co414 2.160 . S
C416 O417 1.278 . S
C416 O424 1.224 . S
O417 C416 1.278 . S
C418 O419 1.245 . S
C418 O430 1.232 . S
O419 C418 1.245 . S
O420 Co414 2.058 1_655 S
O420 C446 1.269 1_655 S
O421 Co413 2.074 . S
O421 C446 1.257 . S
H422 C447 0.930 . S
H423 C453 0.930 . S
O424 Co413 2.093 . S
O424 C416 1.224 . S
H425 C457 0.929 . S
H426 C459 0.930 1_565 S
H427 C460 0.930 . S
H428 C458 0.929 . S
H429 C461 0.928 . S
O430 Co414 2.057 1_655 S
O430 C418 1.232 . S
H431 C450 0.929 1_455 S
H432 C451 0.929 . S
H433 C463 0.931 . S
H434 C455 0.929 . S
H435 C464 0.930 1_565 S
H436 C456 0.931 . S
O437 Co413 2.097 . S
O437 C465 1.214 . S
H438 C466 0.929 . S
H439 C467 0.929 . S
H440 C468 0.930 . S
H441 C469 0.929 . S
H442 C471 0.930 . S
H443 C448 0.930 . S
H444 C452 0.930 . S
O445 Co414 2.037 . S
O445 C465 1.234 . S
C446 O420 1.269 1_455 S
C446 O421 1.257 . S
C447 H422 0.930 . S
C447 C450 1.388 . S
C447 C452 1.418 . S
C448 H443 0.930 . S
C448 C451 1.404 . S
C448 C452 1.353 . S
N449 Co414 2.145 1_655 S
N449 C450 1.397 . S
N449 C451 1.334 . S
C450 H431 0.929 1_655 S
C450 C447 1.388 . S
C450 N449 1.397 . S
C451 H432 0.929 . S
C451 C448 1.404 . S
C451 N449 1.334 . S
C452 H444 0.930 . S
C452 C447 1.418 . S
C452 C448 1.353 . S
C453 H423 0.930 . S
C453 N454 1.330 . S
C453 C455 1.446 . S
N454 Co413 2.151 . S
N454 C453 1.330 . S
N454 C458 1.418 . S
C455 H434 0.929 . S
C455 C453 1.446 . S
C455 C456 1.332 1_545 S
C456 H436 0.931 . S
C456 C455 1.332 1_565 S
C456 C457 1.267 . S
C457 H425 0.929 . S
C457 C456 1.267 . S
C457 C458 1.251 1_565 S
C458 H428 0.929 . S
C458 N454 1.418 . S
C458 C457 1.251 1_545 S
C459 H426 0.930 1_545 S
C459 C461 1.406 . S
C459 C464 1.261 . S
C460 H427 0.930 . S
C460 N462 1.325 . S
C460 C463 1.357 . S
C461 H429 0.928 . S
C461 C459 1.406 . S
C461 N462 1.261 . S
N462 Co413 2.214 . S
N462 C460 1.325 . S
N462 C461 1.261 . S
C463 H433 0.931 . S
C463 C460 1.357 . S
C463 C464 1.312 . S
C464 H435 0.930 1_545 S
C464 C459 1.261 . S
C464 C463 1.312 . S
C465 O437 1.214 . S
C465 O445 1.234 . S
C466 H438 0.929 . S
C466 C469 1.391 . S
C466 C471 1.391 . S
C467 H439 0.929 . S
C467 C468 1.390 . S
C467 N470 1.391 . S
C468 H440 0.930 . S
C468 C467 1.390 . S
C468 C469 1.392 . S
C469 H441 0.929 . S
C469 C466 1.391 . S
C469 C468 1.392 . S
N470 Co414 2.257 . S
N470 C467 1.391 . S
N470 C471 1.388 . S
C471 H442 0.930 . S
C471 C466 1.391 . S
C471 N470 1.388 . S
C472 C473 1.391 . S
C472 C474 1.394 . S
C472 H488 0.931 . S
C473 C472 1.391 . S
C473 C477 1.376 1_455 S
C474 C472 1.394 . S
C474 C475 1.369 1_455 S
C474 C478 1.531 . S
C475 C474 1.369 1_655 S
C475 C476 1.410 . S
C475 C483 1.503 . S
C476 C475 1.410 . S
C476 C477 1.392 . S
C476 C479 1.511 . S
C477 C473 1.376 1_655 S
C477 C476 1.392 . S
C477 H489 0.929 . S
C478 C474 1.531 . S
C478 H490 0.960 . S
C478 H491 0.962 . S
C478 H492 0.960 . S
C479 C476 1.511 . S
C479 H493 0.961 . S
C479 H494 0.961 . S
C479 H495 0.961 . S
C480 C481 1.370 1_455 S
C480 C482 1.363 . S
C480 H496 0.931 . S
C481 C480 1.370 1_655 S
C481 C485 1.408 . S
C482 C480 1.363 . S
C482 C483 1.370 1_455 S
C482 C486 1.524 . S
C483 C475 1.503 . S
C483 C482 1.370 1_655 S
C483 C484 1.403 . S
C484 C483 1.403 . S
C484 C485 1.404 . S
C484 C487 1.539 . S
C485 C481 1.408 . S
C485 C484 1.404 . S
C485 H497 0.930 . S
C486 C482 1.524 . S
C486 H498 0.956 . S
C486 H499 0.961 . S
C486 H500 0.961 . S
C487 C484 1.539 . S
C487 H501 0.958 . S
C487 H502 0.961 . S
C487 H503 0.960 . S
H488 C472 0.931 . S
H489 C477 0.929 . S
H490 C478 0.960 . S
H491 C478 0.962 . S
H492 C478 0.960 . S
H493 C479 0.961 . S
H494 C479 0.961 . S
H495 C479 0.961 . S
H496 C480 0.931 . S
H497 C485 0.930 . S
H498 C486 0.956 . S
H499 C486 0.961 . S
H500 C486 0.961 . S
H501 C487 0.958 . S
H502 C487 0.961 . S
H503 C487 0.960 . S
C504 C505 1.391 . S
C504 C506 1.394 . S
C504 H520 0.931 . S
C505 C504 1.391 . S
C505 C509 1.376 . S
C506 C504 1.394 . S
C506 C507 1.369 . S
C506 C510 1.531 . S
C507 C506 1.369 . S
C507 C508 1.410 . S
C507 C515 1.503 . S
C508 C507 1.410 . S
C508 C509 1.392 . S
C508 C511 1.511 . S
C509 C505 1.376 . S
C509 C508 1.392 . S
C509 H521 0.929 . S
C510 C506 1.531 . S
C510 H522 0.960 . S
C510 H523 0.962 . S
C510 H524 0.960 . S
C511 C508 1.511 . S
C511 H525 0.961 . S
C511 H526 0.961 . S
C511 H527 0.961 . S
C512 C513 1.370 . S
C512 C514 1.363 . S
C512 H528 0.931 . S
C513 C512 1.370 . S
C513 C517 1.408 . S
C514 C512 1.363 . S
C514 C515 1.370 . S
C514 C518 1.524 . S
C515 C507 1.503 . S
C515 C514 1.370 . S
C515 C516 1.403 . S
C516 C515 1.403 . S
C516 C517 1.404 . S
C516 C519 1.539 . S
C517 C513 1.408 . S
C517 C516 1.404 . S
C517 H529 0.930 . S
C518 C514 1.524 . S
C518 H530 0.956 . S
C518 H531 0.961 . S
C518 H532 0.961 . S
C519 C516 1.539 . S
C519 H533 0.958 . S
C519 H534 0.961 . S
C519 H535 0.960 . S
H520 C504 0.931 . S
H521 C509 0.929 . S
H522 C510 0.960 . S
H523 C510 0.962 . S
H524 C510 0.960 . S
H525 C511 0.961 . S
H526 C511 0.961 . S
H527 C511 0.961 . S
H528 C512 0.931 . S
H529 C517 0.930 . S
H530 C518 0.956 . S
H531 C518 0.961 . S
H532 C518 0.961 . S
H533 C519 0.958 . S
H534 C519 0.961 . S
H535 C519 0.960 . S
C536 C537 1.391 . S
C536 C538 1.394 . S
C536 H552 0.931 . S
C537 C536 1.391 . S
C537 C541 1.376 . S
C538 C536 1.394 . S
C538 C539 1.369 . S
C538 C542 1.531 1_554 S
C539 C538 1.369 . S
C539 C540 1.410 . S
C539 C547 1.503 1_544 S
C540 C539 1.410 . S
C540 C541 1.392 . S
C540 C543 1.511 . S
C541 C537 1.376 . S
C541 C540 1.392 . S
C541 H553 0.929 . S
C542 C538 1.531 1_556 S
C542 H554 0.960 . S
C542 H555 0.962 . S
C542 H556 0.960 . S
C543 C540 1.511 . S
C543 H557 0.961 1_545 S
C543 H558 0.961 1_545 S
C543 H559 0.961 . S
C544 C545 1.370 . S
C544 C546 1.363 . S
C544 H560 0.931 . S
C545 C544 1.370 . S
C545 C549 1.408 . S
C546 C544 1.363 . S
C546 C547 1.370 . S
C546 C550 1.524 1_556 S
C547 C539 1.503 1_566 S
C547 C546 1.370 . S
C547 C548 1.403 1_565 S
C548 C547 1.403 1_545 S
C548 C549 1.404 1_545 S
C548 C551 1.539 . S
C549 C545 1.408 . S
C549 C548 1.404 1_565 S
C549 H561 0.930 . S
C550 C546 1.524 1_554 S
C550 H562 0.956 . S
C550 H563 0.961 . S
C550 H564 0.961 . S
C551 C548 1.539 . S
C551 H565 0.958 . S
C551 H566 0.961 . S
C551 H567 0.960 . S
H552 C536 0.931 . S
H553 C541 0.929 . S
H554 C542 0.960 . S
H555 C542 0.962 . S
H556 C542 0.960 . S
H557 C543 0.961 1_565 S
H558 C543 0.961 1_565 S
H559 C543 0.961 . S
H560 C544 0.931 . S
H561 C549 0.930 . S
H562 C550 0.956 . S
H563 C550 0.961 . S
H564 C550 0.961 . S
H565 C551 0.958 . S
H566 C551 0.961 . S
H567 C551 0.960 . S
C568 C569 1.391 . S
C568 C570 1.394 . S
C568 H584 0.931 . S
C569 C568 1.391 . S
C569 C573 1.376 1_655 S
C570 C568 1.394 . S
C570 C571 1.369 1_655 S
C570 C574 1.531 1_565 S
C571 C570 1.369 1_455 S
C571 C572 1.410 . S
C571 C579 1.503 1_564 S
C572 C571 1.410 . S
C572 C573 1.392 . S
C572 C575 1.511 . S
C573 C569 1.376 1_455 S
C573 C572 1.392 . S
C573 H585 0.929 . S
C574 C570 1.531 1_545 S
C574 H586 0.960 . S
C574 H587 0.962 1_554 S
C574 H588 0.960 . S
C575 C572 1.511 . S
C575 H589 0.961 . S
C575 H590 0.985 . S
C575 H591 0.961 . S
C576 C577 1.370 1_655 S
C576 C578 1.363 . S
C576 H592 0.931 . S
C577 C576 1.370 1_455 S
C577 C581 1.408 . S
C578 C576 1.363 . S
C578 C579 1.370 1_655 S
C578 C582 1.524 1_545 S
C579 C571 1.503 1_546 S
C579 C578 1.370 1_455 S
C579 C580 1.403 . S
C580 C579 1.403 . S
C580 C581 1.404 . S
C580 C583 1.539 1_556 S
C581 C577 1.408 . S
C581 C580 1.404 . S
C581 H593 0.930 . S
C582 C578 1.524 1_565 S
C582 H594 0.956 . S
C582 H595 0.961 . S
C582 H596 0.961 . S
C583 C580 1.539 1_554 S
C583 H597 0.958 . S
C583 H598 0.961 . S
C583 H599 0.960 . S
H584 C568 0.931 . S
H585 C573 0.929 . S
H586 C574 0.960 . S
H587 C574 0.962 1_556 S
H588 C574 0.960 . S
H589 C575 0.961 . S
H590 C575 0.985 . S
H591 C575 0.961 . S
H592 C576 0.931 . S
H593 C581 0.930 . S
H594 C582 0.956 . S
H595 C582 0.961 . S
H596 C582 0.961 . S
H597 C583 0.958 . S
H598 C583 0.961 . S
H599 C583 0.960 . S
C600 C601 1.391 . S
C600 C602 1.394 . S
C600 H616 0.931 . S
C601 C600 1.391 . S
C601 C605 1.376 . S
C602 C600 1.394 . S
C602 C603 1.369 . S
C602 C606 1.531 . S
C603 C602 1.369 . S
C603 C604 1.410 . S
C603 C611 1.503 . S
C604 C603 1.410 . S
C604 C605 1.392 . S
C604 C607 1.511 . S
C605 C601 1.376 . S
C605 C604 1.392 . S
C605 H617 0.929 . S
C606 C602 1.531 . S
C606 H618 0.960 . S
C606 H619 0.962 . S
C606 H620 0.960 . S
C607 C604 1.511 . S
C607 H621 0.961 . S
C607 H622 0.961 . S
C607 H623 0.961 . S
C608 C609 1.370 . S
C608 C610 1.363 . S
C608 H624 0.931 . S
C609 C608 1.370 . S
C609 C613 1.408 . S
C610 C608 1.363 . S
C610 C611 1.370 . S
C610 C614 1.524 . S
C611 C603 1.503 . S
C611 C610 1.370 . S
C611 C612 1.403 . S
C612 C611 1.403 . S
C612 C613 1.404 . S
C612 C615 1.539 . S
C613 C609 1.408 . S
C613 C612 1.404 . S
C613 H625 0.930 . S
C614 C610 1.524 . S
C614 H626 0.956 . S
C614 H627 0.961 . S
C614 H628 0.961 . S
C615 C612 1.539 . S
C615 H629 0.958 . S
C615 H630 0.961 . S
C615 H631 0.960 . S
H616 C600 0.931 . S
H617 C605 0.929 . S
H618 C606 0.960 . S
H619 C606 0.962 . S
H620 C606 0.960 . S
H621 C607 0.961 . S
H622 C607 0.961 . S
H623 C607 0.961 . S
H624 C608 0.931 . S
H625 C613 0.930 . S
H626 C614 0.956 . S
H627 C614 0.961 . S
H628 C614 0.961 . S
H629 C615 0.958 . S
H630 C615 0.961 . S
H631 C615 0.960 . S
C632 C633 1.391 . S
C632 C634 1.394 . S
C632 H648 0.931 . S
C633 C632 1.391 . S
C633 C637 1.376 . S
C634 C632 1.394 . S
C634 C635 1.369 . S
C634 C638 1.531 . S
C635 C634 1.369 . S
C635 C636 1.410 . S
C635 C643 1.503 . S
C636 C635 1.410 . S
C636 C637 1.392 . S
C636 C639 1.511 . S
C637 C633 1.376 . S
C637 C636 1.392 . S
C637 H649 0.929 . S
C638 C634 1.531 . S
C638 H650 0.960 . S
C638 H651 0.962 . S
C638 H652 0.960 . S
C639 C636 1.511 . S
C639 H653 0.961 . S
C639 H654 0.961 . S
C639 H655 0.961 . S
C640 C641 1.370 . S
C640 C642 1.363 . S
C640 H656 0.931 . S
C641 C640 1.370 . S
C641 C645 1.408 . S
C642 C640 1.363 . S
C642 C643 1.370 . S
C642 C646 1.524 . S
C643 C635 1.503 . S
C643 C642 1.370 . S
C643 C644 1.403 . S
C644 C643 1.403 . S
C644 C645 1.404 . S
C644 C647 1.539 . S
C645 C641 1.408 . S
C645 C644 1.404 . S
C645 H657 0.930 . S
C646 C642 1.524 . S
C646 H658 0.956 . S
C646 H659 0.961 . S
C646 H660 0.961 . S
C647 C644 1.539 . S
C647 H661 0.958 . S
C647 H662 0.961 . S
C647 H663 0.960 . S
H648 C632 0.931 . S
H649 C637 0.929 . S
H650 C638 0.960 . S
H651 C638 0.962 . S
H652 C638 0.960 . S
H653 C639 0.961 . S
H654 C639 0.961 . S
H655 C639 0.961 . S
H656 C640 0.931 . S
H657 C645 0.930 . S
H658 C646 0.956 . S
H659 C646 0.961 . S
H660 C646 0.961 . S
H661 C647 0.958 . S
H662 C647 0.961 . S
H663 C647 0.960 . S
C664 C665 1.391 . S
C664 C666 1.394 . S
C664 H680 0.931 . S
C665 C664 1.391 . S
C665 C669 1.376 . S
C666 C664 1.394 . S
C666 C667 1.369 . S
C666 C670 1.531 . S
C667 C666 1.369 . S
C667 C668 1.410 . S
C667 C675 1.503 . S
C668 C667 1.410 . S
C668 C669 1.392 . S
C668 C671 1.511 . S
C669 C665 1.376 . S
C669 C668 1.392 . S
C669 H681 0.929 . S
C670 C666 1.531 . S
C670 H682 0.960 . S
C670 H683 0.962 . S
C670 H684 0.960 . S
C671 C668 1.511 . S
C671 H685 0.961 . S
C671 H686 0.961 . S
C671 H687 0.961 . S
C672 C673 1.370 . S
C672 C674 1.363 . S
C672 H688 0.931 . S
C673 C672 1.370 . S
C673 C677 1.408 . S
C674 C672 1.363 . S
C674 C675 1.370 . S
C674 C678 1.524 . S
C675 C667 1.503 . S
C675 C674 1.370 . S
C675 C676 1.403 . S
C676 C675 1.403 . S
C676 C677 1.404 . S
C676 C679 1.539 . S
C677 C673 1.408 . S
C677 C676 1.404 . S
C677 H689 0.930 . S
C678 C674 1.524 . S
C678 H690 0.956 . S
C678 H691 0.961 . S
C678 H692 0.961 . S
C679 C676 1.539 . S
C679 H693 0.958 . S
C679 H694 0.961 . S
C679 H695 0.960 . S
H680 C664 0.931 . S
H681 C669 0.929 . S
H682 C670 0.960 . S
H683 C670 0.962 . S
H684 C670 0.960 . S
H685 C671 0.961 . S
H686 C671 0.961 . S
H687 C671 0.961 . S
H688 C672 0.931 . S
H689 C677 0.930 . S
H690 C678 0.956 . S
H691 C678 0.961 . S
H692 C678 0.961 . S
H693 C679 0.958 . S
H694 C679 0.961 . S
H695 C679 0.960 . S
C696 C697 1.391 . S
C696 C698 1.394 . S
C696 H712 0.931 . S
C697 C696 1.391 . S
C697 C701 1.376 . S
C698 C696 1.394 . S
C698 C699 1.369 . S
C698 C702 1.531 . S
C699 C698 1.369 . S
C699 C700 1.410 . S
C699 C707 1.503 . S
C700 C699 1.410 . S
C700 C701 1.392 . S
C700 C703 1.511 . S
C701 C697 1.376 . S
C701 C700 1.392 . S
C701 H713 0.929 . S
C702 C698 1.531 . S
C702 H714 0.960 . S
C702 H715 0.962 . S
C702 H716 0.960 . S
C703 C700 1.511 . S
C703 H717 0.961 . S
C703 H718 0.961 . S
C703 H719 0.961 . S
C704 C705 1.370 . S
C704 C706 1.363 . S
C704 H720 0.931 . S
C705 C704 1.370 . S
C705 C709 1.408 . S
C706 C704 1.363 . S
C706 C707 1.370 . S
C706 C710 1.524 . S
C707 C699 1.503 . S
C707 C706 1.370 . S
C707 C708 1.403 . S
C708 C707 1.403 . S
C708 C709 1.404 . S
C708 C711 1.539 . S
C709 C705 1.408 . S
C709 C708 1.404 . S
C709 H721 0.930 . S
C710 C706 1.524 . S
C710 H722 0.956 . S
C710 H723 0.961 . S
C710 H724 0.961 . S
C711 C708 1.539 . S
C711 H725 0.958 . S
C711 H726 0.961 . S
C711 H727 0.960 . S
H712 C696 0.931 . S
H713 C701 0.929 . S
H714 C702 0.960 . S
H715 C702 0.962 . S
H716 C702 0.960 . S
H717 C703 0.961 . S
H718 C703 0.961 . S
H719 C703 0.961 . S
H720 C704 0.931 . S
H721 C709 0.930 . S
H722 C710 0.956 . S
H723 C710 0.961 . S
H724 C710 0.961 . S
H725 C711 0.958 . S
H726 C711 0.961 . S
H727 C711 0.960 . S
C728 C729 1.391 . S
C728 C730 1.394 . S
C728 H744 0.931 . S
C729 C728 1.391 . S
C729 C733 1.376 . S
C730 C728 1.394 . S
C730 C731 1.369 . S
C730 C734 1.531 . S
C731 C730 1.369 . S
C731 C732 1.410 . S
C731 C739 1.503 . S
C732 C731 1.410 . S
C732 C733 1.392 . S
C732 C735 1.511 . S
C733 C729 1.376 . S
C733 C732 1.392 . S
C733 H745 0.929 . S
C734 C730 1.531 . S
C734 H746 0.960 . S
C734 H747 0.962 . S
C734 H748 0.960 . S
C735 C732 1.511 . S
C735 H749 0.961 . S
C735 H750 0.961 . S
C735 H751 0.961 . S
C736 C737 1.370 . S
C736 C738 1.363 . S
C736 H752 0.931 . S
C737 C736 1.370 . S
C737 C741 1.408 . S
C738 C736 1.363 . S
C738 C739 1.370 . S
C738 C742 1.524 . S
C739 C731 1.503 . S
C739 C738 1.370 . S
C739 C740 1.403 . S
C740 C739 1.403 . S
C740 C741 1.404 . S
C740 C743 1.539 . S
C741 C737 1.408 . S
C741 C740 1.404 . S
C741 H753 0.930 . S
C742 C738 1.524 . S
C742 H754 0.956 . S
C742 H755 0.961 . S
C742 H756 0.961 . S
C743 C740 1.539 . S
C743 H757 0.958 . S
C743 H758 0.961 . S
C743 H759 0.960 . S
H744 C728 0.931 . S
H745 C733 0.929 . S
H746 C734 0.960 . S
H747 C734 0.962 . S
H748 C734 0.960 . S
H749 C735 0.961 . S
H750 C735 0.961 . S
H751 C735 0.961 . S
H752 C736 0.931 . S
H753 C741 0.930 . S
H754 C742 0.956 . S
H755 C742 0.961 . S
H756 C742 0.961 . S
H757 C743 0.958 . S
H758 C743 0.961 . S
H759 C743 0.960 . S
C760 C761 1.391 . S
C760 C762 1.394 . S
C760 H776 0.931 . S
C761 C760 1.391 . S
C761 C765 1.376 . S
C762 C760 1.394 . S
C762 C763 1.369 . S
C762 C766 1.531 . S
C763 C762 1.369 . S
C763 C764 1.410 . S
C763 C771 1.503 . S
C764 C763 1.410 . S
C764 C765 1.392 . S
C764 C767 1.511 . S
C765 C761 1.376 . S
C765 C764 1.392 . S
C765 H777 0.929 . S
C766 C762 1.531 . S
C766 H778 0.960 . S
C766 H779 0.962 . S
C766 H780 0.960 . S
C767 C764 1.511 . S
C767 H781 0.961 . S
C767 H782 0.961 . S
C767 H783 0.961 . S
C768 C769 1.370 . S
C768 C770 1.363 . S
C768 H784 0.931 . S
C769 C768 1.370 . S
C769 C773 1.408 . S
C770 C768 1.363 . S
C770 C771 1.370 . S
C770 C774 1.524 . S
C771 C763 1.503 . S
C771 C770 1.370 . S
C771 C772 1.403 . S
C772 C771 1.403 . S
C772 C773 1.404 . S
C772 C775 1.539 . S
C773 C769 1.408 . S
C773 C772 1.404 . S
C773 H785 0.930 . S
C774 C770 1.524 . S
C774 H786 0.956 . S
C774 H787 0.961 . S
C774 H788 0.961 . S
C775 C772 1.539 . S
C775 H789 0.958 . S
C775 H790 0.961 . S
C775 H791 0.960 . S
H776 C760 0.931 . S
H777 C765 0.929 . S
H778 C766 0.960 . S
H779 C766 0.962 . S
H780 C766 0.960 . S
H781 C767 0.961 . S
H782 C767 0.961 . S
H783 C767 0.961 . S
H784 C768 0.931 . S
H785 C773 0.930 . S
H786 C774 0.956 . S
H787 C774 0.961 . S
H788 C774 0.961 . S
H789 C775 0.958 . S
H790 C775 0.961 . S
H791 C775 0.960 . S
C792 C793 1.391 . S
C792 C794 1.394 . S
C792 H808 0.931 . S
C793 C792 1.391 . S
C793 C797 1.376 . S
C794 C792 1.394 . S
C794 C795 1.369 . S
C794 C798 1.531 . S
C795 C794 1.369 . S
C795 C796 1.410 . S
C795 C803 1.503 . S
C796 C795 1.410 . S
C796 C797 1.392 . S
C796 C799 1.511 . S
C797 C793 1.376 . S
C797 C796 1.392 . S
C797 H809 0.929 . S
C798 C794 1.531 . S
C798 H810 0.960 . S
C798 H811 0.962 . S
C798 H812 0.960 . S
C799 C796 1.511 . S
C799 H813 0.961 . S
C799 H814 0.961 . S
C799 H815 0.961 . S
C800 C801 1.370 . S
C800 C802 1.363 . S
C800 H816 0.931 . S
C801 C800 1.370 . S
C801 C805 1.408 . S
C802 C800 1.363 . S
C802 C803 1.370 . S
C802 C806 1.524 . S
C803 C795 1.503 . S
C803 C802 1.370 . S
C803 C804 1.403 . S
C804 C803 1.403 . S
C804 C805 1.404 . S
C804 C807 1.539 . S
C805 C801 1.408 . S
C805 C804 1.404 . S
C805 H817 0.930 . S
C806 C802 1.524 . S
C806 H818 0.956 . S
C806 H819 0.961 . S
C806 H820 0.961 . S
C807 C804 1.539 . S
C807 H821 0.958 . S
C807 H822 0.961 . S
C807 H823 0.960 . S
H808 C792 0.931 . S
H809 C797 0.929 . S
H810 C798 0.960 . S
H811 C798 0.962 . S
H812 C798 0.960 . S
H813 C799 0.961 . S
H814 C799 0.961 . S
H815 C799 0.961 . S
H816 C800 0.931 . S
H817 C805 0.930 . S
H818 C806 0.956 . S
H819 C806 0.961 . S
H820 C806 0.961 . S
H821 C807 0.958 . S
H822 C807 0.961 . S
H823 C807 0.960 . S
C824 C825 1.391 . S
C824 C826 1.394 . S
C824 H840 0.931 . S
C825 C824 1.391 . S
C825 C829 1.376 . S
C826 C824 1.394 . S
C826 C827 1.369 . S
C826 C830 1.531 . S
C827 C826 1.369 . S
C827 C828 1.410 . S
C827 C835 1.503 . S
C828 C827 1.410 . S
C828 C829 1.392 . S
C828 C831 1.511 . S
C829 C825 1.376 . S
C829 C828 1.392 . S
C829 H841 0.929 . S
C830 C826 1.531 . S
C830 H842 0.960 . S
C830 H843 0.962 . S
C830 H844 0.960 . S
C831 C828 1.511 . S
C831 H845 0.961 . S
C831 H846 0.961 . S
C831 H847 0.961 . S
C832 C833 1.370 . S
C832 C834 1.363 . S
C832 H848 0.931 . S
C833 C832 1.370 . S
C833 C837 1.408 . S
C834 C832 1.363 . S
C834 C835 1.370 . S
C834 C838 1.524 . S
C835 C827 1.503 . S
C835 C834 1.370 . S
C835 C836 1.403 . S
C836 C835 1.403 . S
C836 C837 1.404 . S
C836 C839 1.539 . S
C837 C833 1.408 . S
C837 C836 1.404 . S
C837 H849 0.930 . S
C838 C834 1.524 . S
C838 H850 0.956 . S
C838 H851 0.961 . S
C838 H852 0.961 . S
C839 C836 1.539 . S
C839 H853 0.958 . S
C839 H854 0.961 . S
C839 H855 0.960 . S
H840 C824 0.931 . S
H841 C829 0.929 . S
H842 C830 0.960 . S
H843 C830 0.962 . S
H844 C830 0.960 . S
H845 C831 0.961 . S
H846 C831 0.961 . S
H847 C831 0.961 . S
H848 C832 0.931 . S
H849 C837 0.930 . S
H850 C838 0.956 . S
H851 C838 0.961 . S
H852 C838 0.961 . S
H853 C839 0.958 . S
H854 C839 0.961 . S
H855 C839 0.960 . S
C856 C857 1.391 . S
C856 C858 1.394 . S
C856 H872 0.931 . S
C857 C856 1.391 . S
C857 C861 1.376 . S
C858 C856 1.394 . S
C858 C859 1.369 . S
C858 C862 1.531 . S
C859 C858 1.369 . S
C859 C860 1.410 . S
C859 C867 1.503 . S
C860 C859 1.410 . S
C860 C861 1.392 . S
C860 C863 1.511 . S
C861 C857 1.376 . S
C861 C860 1.392 . S
C861 H873 0.929 . S
C862 C858 1.531 . S
C862 H874 0.960 . S
C862 H875 0.962 . S
C862 H876 0.960 . S
C863 C860 1.511 . S
C863 H877 0.961 . S
C863 H878 0.961 . S
C863 H879 0.961 . S
C864 C865 1.370 . S
C864 C866 1.363 . S
C864 H880 0.931 . S
C865 C864 1.370 . S
C865 C869 1.408 . S
C866 C864 1.363 . S
C866 C867 1.370 . S
C866 C870 1.524 . S
C867 C859 1.503 . S
C867 C866 1.370 . S
C867 C868 1.403 . S
C868 C867 1.403 . S
C868 C869 1.404 . S
C868 C871 1.539 . S
C869 C865 1.408 . S
C869 C868 1.404 . S
C869 H881 0.930 . S
C870 C866 1.524 . S
C870 H882 0.956 . S
C870 H883 0.961 . S
C870 H884 0.961 . S
C871 C868 1.539 . S
C871 H885 0.958 . S
C871 H886 0.961 . S
C871 H887 0.960 . S
H872 C856 0.931 . S
H873 C861 0.929 . S
H874 C862 0.960 . S
H875 C862 0.962 . S
H876 C862 0.960 . S
H877 C863 0.961 . S
H878 C863 0.961 . S
H879 C863 0.961 . S
H880 C864 0.931 . S
H881 C869 0.930 . S
H882 C870 0.956 . S
H883 C870 0.961 . S
H884 C870 0.961 . S
H885 C871 0.958 . S
H886 C871 0.961 . S
H887 C871 0.960 . S
C888 C889 1.391 . S
C888 C890 1.394 . S
C888 H904 0.931 . S
C889 C888 1.391 . S
C889 C893 1.376 . S
C890 C888 1.394 . S
C890 C891 1.369 . S
C890 C894 1.531 . S
C891 C890 1.369 . S
C891 C892 1.410 . S
C891 C899 1.503 . S
C892 C891 1.410 . S
C892 C893 1.392 . S
C892 C895 1.511 . S
C893 C889 1.376 . S
C893 C892 1.392 . S
C893 H905 0.929 . S
C894 C890 1.531 . S
C894 H906 0.960 . S
C894 H907 0.962 . S
C894 H908 0.960 . S
C895 C892 1.511 . S
C895 H909 0.961 . S
C895 H910 0.961 . S
C895 H911 0.961 . S
C896 C897 1.370 . S
C896 C898 1.363 . S
C896 H912 0.931 . S
C897 C896 1.370 . S
C897 C901 1.408 . S
C898 C896 1.363 . S
C898 C899 1.370 . S
C898 C902 1.524 . S
C899 C891 1.503 . S
C899 C898 1.370 . S
C899 C900 1.403 . S
C900 C899 1.403 . S
C900 C901 1.404 . S
C900 C903 1.539 . S
C901 C897 1.408 . S
C901 C900 1.404 . S
C901 H913 0.930 . S
C902 C898 1.524 . S
C902 H914 0.956 . S
C902 H915 0.961 . S
C902 H916 0.961 . S
C903 C900 1.539 . S
C903 H917 0.958 . S
C903 H918 0.961 . S
C903 H919 0.960 . S
H904 C888 0.931 . S
H905 C893 0.929 . S
H906 C894 0.960 . S
H907 C894 0.962 . S
H908 C894 0.960 . S
H909 C895 0.961 . S
H910 C895 0.961 . S
H911 C895 0.961 . S
H912 C896 0.931 . S
H913 C901 0.930 . S
H914 C902 0.956 . S
H915 C902 0.961 . S
H916 C902 0.961 . S
H917 C903 0.958 . S
H918 C903 0.961 . S
H919 C903 0.960 . S
C920 C921 1.391 . S
C920 C922 1.394 . S
C920 H936 0.931 . S
C921 C920 1.391 . S
C921 C925 1.376 . S
C922 C920 1.394 . S
C922 C923 1.369 . S
C922 C926 1.531 1_554 S
C923 C922 1.369 . S
C923 C924 1.410 . S
C923 C931 1.503 1_554 S
C924 C923 1.410 . S
C924 C925 1.392 . S
C924 C927 1.511 . S
C925 C921 1.376 . S
C925 C924 1.392 . S
C925 H937 0.929 . S
C926 C922 1.531 1_556 S
C926 H938 0.960 . S
C926 H939 0.962 . S
C926 H940 0.954 1_556 S
C927 C924 1.511 . S
C927 H941 0.961 . S
C927 H942 0.961 . S
C927 H943 0.961 . S
C928 C929 1.370 . S
C928 C930 1.363 . S
C928 H944 0.931 . S
C929 C928 1.370 . S
C929 C933 1.408 . S
C930 C928 1.363 . S
C930 C931 1.370 . S
C930 C934 1.524 . S
C931 C923 1.503 1_556 S
C931 C930 1.370 . S
C931 C932 1.403 . S
C932 C931 1.403 . S
C932 C933 1.404 . S
C932 C935 1.539 1_556 S
C933 C929 1.408 . S
C933 C932 1.404 . S
C933 H945 0.930 . S
C934 C930 1.524 . S
C934 H946 0.956 . S
C934 H947 0.961 . S
C934 H948 0.961 . S
C935 C932 1.539 1_554 S
C935 H949 0.958 . S
C935 H950 0.961 . S
C935 H951 0.960 . S
H936 C920 0.931 . S
H937 C925 0.929 . S
H938 C926 0.960 . S
H939 C926 0.962 . S
H940 C926 0.954 1_554 S
H941 C927 0.961 . S
H942 C927 0.961 . S
H943 C927 0.961 . S
H944 C928 0.931 . S
H945 C933 0.930 . S
H946 C934 0.956 . S
H947 C934 0.961 . S
H948 C934 0.961 . S
H949 C935 0.958 . S
H950 C935 0.961 . S
H951 C935 0.960 . S
C952 C953 1.391 . S
C952 C954 1.394 . S
C952 H968 0.931 . S
C953 C952 1.391 . S
C953 C957 1.376 . S
C954 C952 1.394 . S
C954 C955 1.369 . S
C954 C958 1.531 . S
C955 C954 1.369 . S
C955 C956 1.410 . S
C955 C963 1.503 1_554 S
C956 C955 1.410 . S
C956 C957 1.392 . S
C956 C959 1.511 1_554 S
C957 C953 1.376 . S
C957 C956 1.392 . S
C957 H969 0.929 . S
C958 C954 1.531 . S
C958 H970 0.960 . S
C958 H971 0.962 . S
C958 H972 0.960 . S
C959 C956 1.511 1_556 S
C959 H973 0.961 . S
C959 H974 0.961 . S
C959 H975 0.961 . S
C960 C961 1.370 . S
C960 C962 1.363 . S
C960 H976 0.931 . S
C961 C960 1.370 . S
C961 C965 1.408 . S
C962 C960 1.363 . S
C962 C963 1.370 . S
C962 C966 1.524 1_556 S
C963 C955 1.503 1_556 S
C963 C962 1.370 . S
C963 C964 1.403 . S
C964 C963 1.403 . S
C964 C965 1.404 . S
C964 C967 1.539 . S
C965 C961 1.408 . S
C965 C964 1.404 . S
C965 H977 0.930 . S
C966 C962 1.524 1_554 S
C966 H978 0.956 . S
C966 H979 0.961 . S
C966 H980 0.961 1_554 S
C967 C964 1.539 . S
C967 H981 0.958 . S
C967 H982 0.961 . S
C967 H983 0.960 . S
H968 C952 0.931 . S
H969 C957 0.929 . S
H970 C958 0.960 . S
H971 C958 0.962 . S
H972 C958 0.960 . S
H973 C959 0.961 . S
H974 C959 0.961 . S
H975 C959 0.961 . S
H976 C960 0.931 . S
H977 C965 0.930 . S
H978 C966 0.956 . S
H979 C966 0.961 . S
H980 C966 0.961 1_556 S
H981 C967 0.958 . S
H982 C967 0.961 . S
H983 C967 0.960 . S
C473 C33 1.536 . S
C481 C151 1.520 . S
C505 C210 1.520 . S
C513 C92 1.528 . S
C537 C387 1.515 . S
C545 C269 1.528 . S
C569 C328 1.536 . S
C577 C446 1.520 . S
C601 C359 1.682 . S
C609 C5 1.719 . S
C633 C64 1.729 . S
C641 C418 1.700 . S
C665 C123 1.710 . S
C673 C241 1.706 . S
C697 C182 1.727 . S
C705 C300 1.700 . S
C729 C357 1.552 . S
C737 C3 1.528 . S
C761 C62 1.541 . S
C769 C416 1.534 . S
C793 C239 1.529 . S
C801 C121 1.536 . S
C825 C298 1.530 . S
C833 C180 1.538 . S
C857 C111 0.718 . S
C865 C52 0.719 . S
C889 C170 0.775 . S
C897 C229 0.745 . S
C921 C347 0.748 . S
C929 C288 0.748 . S
C953 C406 0.775 . S
C961 C465 0.744 . S
