# Generated by pormake.
# Topology uoh, (4)-cn, num edge types: 1
# Building blocks:
#     Node 0, Type 0, BuildingBlock: NAHDIM_clean_sbu_0, # of connection points: 4
#     Node 1, Type 0, BuildingBlock: NAHDIM_clean_sbu_0, # of connection points: 4
#     Node 2, Type 0, BuildingBlock: NAHDIM_clean_sbu_0, # of connection points: 4
#     Node 3, Type 0, BuildingBlock: NAHDIM_clean_sbu_0, # of connection points: 4
#     Node 4, Type 0, BuildingBlock: NAHDIM_clean_sbu_0, # of connection points: 4
#     Node 5, Type 0, BuildingBlock: NAHDIM_clean_sbu_0, # of connection points: 4
#     Node 6, Type 0, BuildingBlock: NAHDIM_clean_sbu_0, # of connection points: 4
#     Node 7, Type 0, BuildingBlock: NAHDIM_clean_sbu_0, # of connection points: 4
#     Node 8, Type 0, BuildingBlock: NAHDIM_clean_sbu_0, # of connection points: 4
#     Node 9, Type 0, BuildingBlock: NAHDIM_clean_sbu_0, # of connection points: 4
#     Node 10, Type 0, BuildingBlock: NAHDIM_clean_sbu_0, # of connection points: 4
#     Node 11, Type 0, BuildingBlock: NAHDIM_clean_sbu_0, # of connection points: 4
#     Node 12, Type 0, BuildingBlock: NAHDIM_clean_sbu_0, # of connection points: 4
#     Node 13, Type 0, BuildingBlock: NAHDIM_clean_sbu_0, # of connection points: 4
#     Node 14, Type 0, BuildingBlock: NAHDIM_clean_sbu_0, # of connection points: 4
#     Node 15, Type 0, BuildingBlock: NAHDIM_clean_sbu_0, # of connection points: 4
#     Node 16, Type 0, BuildingBlock: NAHDIM_clean_sbu_0, # of connection points: 4
#     Node 17, Type 0, BuildingBlock: NAHDIM_clean_sbu_0, # of connection points: 4
#     Node 18, Type 0, BuildingBlock: NAHDIM_clean_sbu_0, # of connection points: 4
#     Node 19, Type 0, BuildingBlock: NAHDIM_clean_sbu_0, # of connection points: 4
#     Node 20, Type 0, BuildingBlock: NAHDIM_clean_sbu_0, # of connection points: 4
#     Node 21, Type 0, BuildingBlock: NAHDIM_clean_sbu_0, # of connection points: 4
#     Node 22, Type 0, BuildingBlock: NAHDIM_clean_sbu_0, # of connection points: 4
#     Node 23, Type 0, BuildingBlock: NAHDIM_clean_sbu_0, # of connection points: 4
#     Node 24, Type 0, BuildingBlock: NAHDIM_clean_sbu_0, # of connection points: 4
#     Node 25, Type 0, BuildingBlock: NAHDIM_clean_sbu_0, # of connection points: 4
#     Node 26, Type 0, BuildingBlock: NAHDIM_clean_sbu_0, # of connection points: 4
#     Node 27, Type 0, BuildingBlock: NAHDIM_clean_sbu_0, # of connection points: 4
#     Node 28, Type 0, BuildingBlock: NAHDIM_clean_sbu_0, # of connection points: 4
#     Node 29, Type 0, BuildingBlock: NAHDIM_clean_sbu_0, # of connection points: 4
#     Node 30, Type 0, BuildingBlock: NAHDIM_clean_sbu_0, # of connection points: 4
#     Node 31, Type 0, BuildingBlock: NAHDIM_clean_sbu_0, # of connection points: 4
#     Node 32, Type 0, BuildingBlock: NAHDIM_clean_sbu_0, # of connection points: 4
#     Node 33, Type 0, BuildingBlock: NAHDIM_clean_sbu_0, # of connection points: 4
#     Node 34, Type 0, BuildingBlock: NAHDIM_clean_sbu_0, # of connection points: 4
#     Node 35, Type 0, BuildingBlock: NAHDIM_clean_sbu_0, # of connection points: 4
#     Edge 36, Type (0, 0), BuildingBlock: OJICUG_clean_linker_0, # of connection points: 2
#     Edge 37, Type (0, 0), BuildingBlock: OJICUG_clean_linker_0, # of connection points: 2
#     Edge 38, Type (0, 0), BuildingBlock: OJICUG_clean_linker_0, # of connection points: 2
#     Edge 39, Type (0, 0), BuildingBlock: OJICUG_clean_linker_0, # of connection points: 2
#     Edge 40, Type (0, 0), BuildingBlock: OJICUG_clean_linker_0, # of connection points: 2
#     Edge 41, Type (0, 0), BuildingBlock: OJICUG_clean_linker_0, # of connection points: 2
#     Edge 42, Type (0, 0), BuildingBlock: OJICUG_clean_linker_0, # of connection points: 2
#     Edge 43, Type (0, 0), BuildingBlock: OJICUG_clean_linker_0, # of connection points: 2
#     Edge 44, Type (0, 0), BuildingBlock: OJICUG_clean_linker_0, # of connection points: 2
#     Edge 45, Type (0, 0), BuildingBlock: OJICUG_clean_linker_0, # of connection points: 2
#     Edge 46, Type (0, 0), BuildingBlock: OJICUG_clean_linker_0, # of connection points: 2
#     Edge 47, Type (0, 0), BuildingBlock: OJICUG_clean_linker_0, # of connection points: 2
#     Edge 48, Type (0, 0), BuildingBlock: OJICUG_clean_linker_0, # of connection points: 2
#     Edge 49, Type (0, 0), BuildingBlock: OJICUG_clean_linker_0, # of connection points: 2
#     Edge 50, Type (0, 0), BuildingBlock: OJICUG_clean_linker_0, # of connection points: 2
#     Edge 51, Type (0, 0), BuildingBlock: OJICUG_clean_linker_0, # of connection points: 2
#     Edge 52, Type (0, 0), BuildingBlock: OJICUG_clean_linker_0, # of connection points: 2
#     Edge 53, Type (0, 0), BuildingBlock: OJICUG_clean_linker_0, # of connection points: 2
#     Edge 54, Type (0, 0), BuildingBlock: OJICUG_clean_linker_0, # of connection points: 2
#     Edge 55, Type (0, 0), BuildingBlock: OJICUG_clean_linker_0, # of connection points: 2
#     Edge 56, Type (0, 0), BuildingBlock: OJICUG_clean_linker_0, # of connection points: 2
#     Edge 57, Type (0, 0), BuildingBlock: OJICUG_clean_linker_0, # of connection points: 2
#     Edge 58, Type (0, 0), BuildingBlock: OJICUG_clean_linker_0, # of connection points: 2
#     Edge 59, Type (0, 0), BuildingBlock: OJICUG_clean_linker_0, # of connection points: 2
#     Edge 60, Type (0, 0), BuildingBlock: OJICUG_clean_linker_0, # of connection points: 2
#     Edge 61, Type (0, 0), BuildingBlock: OJICUG_clean_linker_0, # of connection points: 2
#     Edge 62, Type (0, 0), BuildingBlock: OJICUG_clean_linker_0, # of connection points: 2
#     Edge 63, Type (0, 0), BuildingBlock: OJICUG_clean_linker_0, # of connection points: 2
#     Edge 64, Type (0, 0), BuildingBlock: OJICUG_clean_linker_0, # of connection points: 2
#     Edge 65, Type (0, 0), BuildingBlock: OJICUG_clean_linker_0, # of connection points: 2
#     Edge 66, Type (0, 0), BuildingBlock: OJICUG_clean_linker_0, # of connection points: 2
#     Edge 67, Type (0, 0), BuildingBlock: OJICUG_clean_linker_0, # of connection points: 2
#     Edge 68, Type (0, 0), BuildingBlock: OJICUG_clean_linker_0, # of connection points: 2
#     Edge 69, Type (0, 0), BuildingBlock: OJICUG_clean_linker_0, # of connection points: 2
#     Edge 70, Type (0, 0), BuildingBlock: OJICUG_clean_linker_0, # of connection points: 2
#     Edge 71, Type (0, 0), BuildingBlock: OJICUG_clean_linker_0, # of connection points: 2
#     Edge 72, Type (0, 0), BuildingBlock: OJICUG_clean_linker_0, # of connection points: 2
#     Edge 73, Type (0, 0), BuildingBlock: OJICUG_clean_linker_0, # of connection points: 2
#     Edge 74, Type (0, 0), BuildingBlock: OJICUG_clean_linker_0, # of connection points: 2
#     Edge 75, Type (0, 0), BuildingBlock: OJICUG_clean_linker_0, # of connection points: 2
#     Edge 76, Type (0, 0), BuildingBlock: OJICUG_clean_linker_0, # of connection points: 2
#     Edge 77, Type (0, 0), BuildingBlock: OJICUG_clean_linker_0, # of connection points: 2
#     Edge 78, Type (0, 0), BuildingBlock: OJICUG_clean_linker_0, # of connection points: 2
#     Edge 79, Type (0, 0), BuildingBlock: OJICUG_clean_linker_0, # of connection points: 2
#     Edge 80, Type (0, 0), BuildingBlock: OJICUG_clean_linker_0, # of connection points: 2
#     Edge 81, Type (0, 0), BuildingBlock: OJICUG_clean_linker_0, # of connection points: 2
#     Edge 82, Type (0, 0), BuildingBlock: OJICUG_clean_linker_0, # of connection points: 2
#     Edge 83, Type (0, 0), BuildingBlock: OJICUG_clean_linker_0, # of connection points: 2
#     Edge 84, Type (0, 0), BuildingBlock: OJICUG_clean_linker_0, # of connection points: 2
#     Edge 85, Type (0, 0), BuildingBlock: OJICUG_clean_linker_0, # of connection points: 2
#     Edge 86, Type (0, 0), BuildingBlock: OJICUG_clean_linker_0, # of connection points: 2
#     Edge 87, Type (0, 0), BuildingBlock: OJICUG_clean_linker_0, # of connection points: 2
#     Edge 88, Type (0, 0), BuildingBlock: OJICUG_clean_linker_0, # of connection points: 2
#     Edge 89, Type (0, 0), BuildingBlock: OJICUG_clean_linker_0, # of connection points: 2
#     Edge 90, Type (0, 0), BuildingBlock: OJICUG_clean_linker_0, # of connection points: 2
#     Edge 91, Type (0, 0), BuildingBlock: OJICUG_clean_linker_0, # of connection points: 2
#     Edge 92, Type (0, 0), BuildingBlock: OJICUG_clean_linker_0, # of connection points: 2
#     Edge 93, Type (0, 0), BuildingBlock: OJICUG_clean_linker_0, # of connection points: 2
#     Edge 94, Type (0, 0), BuildingBlock: OJICUG_clean_linker_0, # of connection points: 2
#     Edge 95, Type (0, 0), BuildingBlock: OJICUG_clean_linker_0, # of connection points: 2
#     Edge 96, Type (0, 0), BuildingBlock: OJICUG_clean_linker_0, # of connection points: 2
#     Edge 97, Type (0, 0), BuildingBlock: OJICUG_clean_linker_0, # of connection points: 2
#     Edge 98, Type (0, 0), BuildingBlock: OJICUG_clean_linker_0, # of connection points: 2
#     Edge 99, Type (0, 0), BuildingBlock: OJICUG_clean_linker_0, # of connection points: 2
#     Edge 100, Type (0, 0), BuildingBlock: OJICUG_clean_linker_0, # of connection points: 2
#     Edge 101, Type (0, 0), BuildingBlock: OJICUG_clean_linker_0, # of connection points: 2
#     Edge 102, Type (0, 0), BuildingBlock: OJICUG_clean_linker_0, # of connection points: 2
#     Edge 103, Type (0, 0), BuildingBlock: OJICUG_clean_linker_0, # of connection points: 2
#     Edge 104, Type (0, 0), BuildingBlock: OJICUG_clean_linker_0, # of connection points: 2
#     Edge 105, Type (0, 0), BuildingBlock: OJICUG_clean_linker_0, # of connection points: 2
#     Edge 106, Type (0, 0), BuildingBlock: OJICUG_clean_linker_0, # of connection points: 2
#     Edge 107, Type (0, 0), BuildingBlock: OJICUG_clean_linker_0, # of connection points: 2
# Relax obj value: 0.223
# Max RMSD: 0.252
# Mean RMSD: 0.252
data_MOF--net-uoh--node1-NAHDIM_clean_sbu_0--edge1-OJICUG_clean_linker_0
_symmetry_space_group_name_H-M    P1
_symmetry_Int_Tables_number       1
_symmetry_cell_setting            triclinic
loop_
_symmetry_equiv_pos_as_xyz
'x, y, z'
_cell_length_a     66.980942
_cell_length_b     66.897809
_cell_length_c     18.809266
_cell_angle_alpha  90.06062
_cell_angle_beta   90.012537
_cell_angle_gamma 120.02428
loop_
_atom_site_label
_atom_site_type_symbol
_atom_site_fract_x
_atom_site_fract_y
_atom_site_fract_z
_atom_type_partial_charge
C0 C 0.23285 0.19112 0.21313 0.0
O1 O 0.24277 0.18343 0.25697 0.0
O2 O 0.2182 0.14267 0.03235 0.0
Zn3 Zn 0.23059 0.15504 0.12941 0.0
O4 O 0.2134 0.13202 0.20635 0.0
C5 C 0.27158 0.15312 0.09766 0.0
O6 O 0.25795 0.13803 0.05016 0.0
O7 O 0.22718 0.18231 0.15141 0.0
C8 C 0.21695 0.1155 0.22027 0.0
O9 O 0.23018 0.1116 0.17773 0.0
C10 C 0.2237 0.15672 0.9808 0.0
O11 O 0.23611 0.17898 0.99357 0.0
O12 O 0.26385 0.16333 0.13629 0.0
C13 C 0.8364 0.04699 0.2306 0.0
O14 O 0.85865 0.05638 0.21887 0.0
O15 O 0.8581 0.09221 0.09152 0.0
Zn16 Zn 0.84901 0.0917 0.19344 0.0
O17 O 0.87503 0.10356 0.2644 0.0
C18 C 0.84068 0.12894 0.16407 0.0
O19 O 0.85557 0.13284 0.113 0.0
O20 O 0.8269 0.05911 0.22113 0.0
C21 C 0.88772 0.12494 0.27763 0.0
O22 O 0.88648 0.14001 0.23591 0.0
C23 C 0.87837 0.10056 0.06693 0.0
O24 O 0.89599 0.10925 0.11088 0.0
O25 O 0.8344 0.11152 0.20421 0.0
C26 C 0.94821 0.78196 0.17091 0.0
O27 O 0.93975 0.79469 0.14733 0.0
O28 O 0.90491 0.75641 0.02579 0.0
Zn29 Zn 0.90421 0.75029 0.13048 0.0
O30 O 0.89368 0.76803 0.19148 0.0
C31 C 0.86434 0.7055 0.11387 0.0
O32 O 0.86133 0.71546 0.05795 0.0
O33 O 0.93603 0.76015 0.1656 0.0
C34 C 0.87271 0.76113 0.20586 0.0
O35 O 0.8565 0.74385 0.16956 0.0
C36 C 0.90384 0.7731 -0.00231 0.0
O37 O 0.90223 0.78815 0.03866 0.0
O38 O 0.88243 0.71673 0.15131 0.0
C39 C 0.1814 0.23106 0.3242 0.0
O40 O 0.18183 0.2363 0.39173 0.0
O41 O 0.13055 0.21972 0.42045 0.0
Zn42 Zn 0.13738 0.23001 0.31905 0.0
O43 O 0.11184 0.21091 0.25056 0.0
C44 C 0.13653 0.27221 0.35065 0.0
O45 O 0.12297 0.26022 0.40342 0.0
O46 O 0.16456 0.22803 0.28564 0.0
C47 C 0.09598 0.21549 0.23703 0.0
O48 O 0.09409 0.23056 0.27702 0.0
C49 C 0.11157 0.20361 0.44442 0.0
O50 O 0.09432 0.19179 0.40052 0.0
O51 O 0.14475 0.26291 0.31006 0.0
C52 C 0.78572 0.95382 0.33745 0.0
O53 O 0.79719 0.94374 0.35885 0.0
O54 O 0.75764 0.90804 0.46846 0.0
Zn55 Zn 0.75211 0.90924 0.36409 0.0
O56 O 0.76901 0.89847 0.30051 0.0
C57 C 0.7068 0.87046 0.3785 0.0
O58 O 0.71658 0.86705 0.43416 0.0
O59 O 0.76383 0.94216 0.33649 0.0
C60 C 0.76181 0.87734 0.28712 0.0
O61 O 0.74496 0.86147 0.32548 0.0
C62 C 0.77349 0.90555 0.49662 0.0
O63 O 0.78819 0.90338 0.45577 0.0
O64 O 0.71835 0.88862 0.34157 0.0
C65 C 0.03365 0.82624 0.32753 0.0
O66 O 0.04091 0.84702 0.35334 0.0
O67 O 0.07763 0.84766 0.46702 0.0
Zn68 Zn 0.07858 0.84177 0.36281 0.0
O69 O 0.08656 0.86915 0.30052 0.0
C70 C 0.12095 0.84132 0.37695 0.0
O71 O 0.12404 0.8557 0.429 0.0
O72 O 0.04712 0.81802 0.32943 0.0
C73 C 0.10678 0.88547 0.28722 0.0
O74 O 0.12417 0.88712 0.32421 0.0
C75 C 0.07822 0.86543 0.49347 0.0
O76 O 0.07968 0.8817 0.45108 0.0
O77 O 0.10206 0.83209 0.34262 0.0
C78 C 0.77627 0.81992 0.82954 0.0
O79 O 0.7893 0.84079 0.85536 0.0
O80 O 0.75248 0.84042 0.96918 0.0
Zn81 Zn 0.74594 0.83427 0.86479 0.0
O82 O 0.76479 0.86185 0.80241 0.0
C83 C 0.70238 0.83216 0.87972 0.0
O84 O 0.71289 0.84534 0.93489 0.0
O85 O 0.75451 0.8111 0.83163 0.0
C86 C 0.75931 0.87697 0.78729 0.0
O87 O 0.74262 0.8773 0.82287 0.0
C88 C 0.7696 0.85829 0.9954 0.0
O89 O 0.78457 0.8743 0.95269 0.0
O90 O 0.71274 0.82404 0.84348 0.0
C91 C 0.15939 0.9565 0.83001 0.0
O92 O 0.1385 0.94854 0.85552 0.0
O93 O 0.13869 0.91399 0.96926 0.0
Zn94 Zn 0.14491 0.91195 0.86606 0.0
O95 O 0.11768 0.90239 0.80112 0.0
C96 C 0.14558 0.87029 0.89108 0.0
O97 O 0.13098 0.86841 0.94084 0.0
O98 O 0.16816 0.94349 0.83129 0.0
C99 C 0.1025 0.88167 0.78729 0.0
O100 O 0.10163 0.86493 0.826 0.0
C101 C 0.12036 0.91194 0.99595 0.0
O102 O 0.10319 0.90833 0.95396 0.0
O103 O 0.15517 0.88849 0.85325 0.0
C104 C 0.03989 0.24614 0.81216 0.0
O105 O 0.04442 0.25194 0.87946 0.0
O106 O 0.0726 0.22624 0.91855 0.0
Zn107 Zn 0.07762 0.2358 0.81607 0.0
O108 O 0.07967 0.21323 0.75074 0.0
C109 C 0.12391 0.27432 0.84545 0.0
O110 O 0.12352 0.26222 0.90094 0.0
O111 O 0.05162 0.2391 0.77852 0.0
C112 C 0.09875 0.21426 0.73761 0.0
O113 O 0.11683 0.22784 0.77659 0.0
C114 C 0.07295 0.20875 0.94314 0.0
O115 O 0.07606 0.1952 0.89953 0.0
O116 O 0.10646 0.26642 0.80466 0.0
C117 C 0.81961 0.77827 0.67051 0.0
O118 O 0.84058 0.79165 0.64618 0.0
O119 O 0.83905 0.75435 0.52564 0.0
Zn120 Zn 0.83379 0.74804 0.63031 0.0
O121 O 0.86183 0.76679 0.69131 0.0
C122 C 0.83116 0.7042 0.61384 0.0
O123 O 0.84401 0.71456 0.55808 0.0
O124 O 0.81081 0.75654 0.66564 0.0
C125 C 0.87664 0.76086 0.70595 0.0
O126 O 0.87644 0.74391 0.67004 0.0
C127 C 0.8564 0.77156 0.49783 0.0
O128 O 0.87265 0.78699 0.53907 0.0
O129 O 0.82349 0.71477 0.65104 0.0
C130 C 0.2027 0.04437 0.68588 0.0
O131 O 0.19004 0.05361 0.66896 0.0
O132 O 0.22524 0.08621 0.5358 0.0
Zn133 Zn 0.23448 0.08767 0.63797 0.0
O134 O 0.22016 0.10079 0.70327 0.0
C135 C 0.27907 0.12596 0.60724 0.0
O136 O 0.26747 0.12883 0.55579 0.0
O137 O 0.22426 0.05584 0.67431 0.0
C138 C 0.22519 0.12177 0.70498 0.0
O139 O 0.23874 0.13601 0.65578 0.0
C140 C 0.20947 0.08983 0.51313 0.0
O141 O 0.19736 0.0943 0.55869 0.0
O142 O 0.26874 0.10851 0.64778 0.0
C143 C 0.95275 0.21395 0.6828 0.0
O144 O 0.95016 0.20923 0.61446 0.0
O145 O 0.90995 0.16515 0.59297 0.0
Zn146 Zn 0.908 0.17256 0.69558 0.0
O147 O 0.90655 0.14882 0.76389 0.0
C148 C 0.86171 0.16352 0.67512 0.0
O149 O 0.8616 0.14963 0.62549 0.0
O150 O 0.93632 0.20162 0.72482 0.0
C151 C 0.88835 0.12992 0.77782 0.0
O152 O 0.86974 0.12377 0.73964 0.0
C153 C 0.91162 0.14816 0.57026 0.0
O154 O 0.91239 0.13371 0.6159 0.0
O155 O 0.87997 0.17557 0.71108 0.0
C156 C 0.87594 0.50052 0.50654 0.0
O157 O 0.86286 0.47951 0.48174 0.0
O158 O 0.89913 0.47923 0.3688 0.0
Zn159 Zn 0.90616 0.48588 0.47286 0.0
O160 O 0.88731 0.45862 0.53637 0.0
C161 C 0.9496 0.48775 0.45765 0.0
O162 O 0.93847 0.47332 0.40552 0.0
O163 O 0.89769 0.50925 0.50472 0.0
C164 C 0.89205 0.44301 0.55193 0.0
O165 O 0.90866 0.44216 0.51751 0.0
C166 C 0.88178 0.46136 0.34357 0.0
O167 O 0.86699 0.44553 0.38712 0.0
O168 O 0.93955 0.49643 0.4927 0.0
C169 C 0.49437 0.37153 0.48225 0.0
O170 O 0.51559 0.38009 0.45889 0.0
O171 O 0.51525 0.41574 0.34834 0.0
Zn172 Zn 0.50871 0.41645 0.45198 0.0
O173 O 0.53578 0.42541 0.517 0.0
C174 C 0.50789 0.45824 0.4332 0.0
O175 O 0.52258 0.46076 0.38291 0.0
O176 O 0.48543 0.38439 0.48254 0.0
C177 C 0.55165 0.44594 0.52965 0.0
O178 O 0.55321 0.46282 0.4901 0.0
C179 C 0.53332 0.41732 0.32114 0.0
O180 O 0.55016 0.41977 0.36277 0.0
O181 O 0.49824 0.43958 0.46881 0.0
C182 C 0.61203 0.0863 0.50745 0.0
O183 O 0.60732 0.08175 0.43955 0.0
O184 O 0.57335 0.099 0.41244 0.0
Zn185 Zn 0.5699 0.08897 0.51414 0.0
O186 O 0.56503 0.10921 0.58239 0.0
C187 C 0.52569 0.04787 0.48499 0.0
O188 O 0.52455 0.06 0.43187 0.0
O189 O 0.59845 0.08951 0.54661 0.0
C190 C 0.54505 0.10594 0.59609 0.0
O191 O 0.52759 0.09141 0.55661 0.0
C192 C 0.57209 0.11609 0.3887 0.0
O193 O 0.5684 0.12911 0.43293 0.0
O194 O 0.5434 0.05667 0.52485 0.0
C195 C 0.83257 0.54356 0.65814 0.0
O196 O 0.81151 0.53042 0.68213 0.0
O197 O 0.81326 0.56788 0.8012 0.0
Zn198 Zn 0.81871 0.57416 0.69658 0.0
O199 O 0.79072 0.55564 0.63518 0.0
C200 C 0.82172 0.61813 0.71304 0.0
O201 O 0.80884 0.60779 0.76879 0.0
O202 O 0.84154 0.56534 0.66219 0.0
C203 C 0.77594 0.56166 0.62107 0.0
O204 O 0.77617 0.57849 0.65771 0.0
C205 C 0.79571 0.55088 0.82906 0.0
O206 O 0.77929 0.53563 0.78788 0.0
O207 O 0.8293 0.60749 0.67579 0.0
C208 C 0.44905 0.28007 0.60321 0.0
O209 O 0.46154 0.27062 0.61988 0.0
O210 O 0.42598 0.23584 0.74129 0.0
Zn211 Zn 0.4172 0.23571 0.63917 0.0
O212 O 0.432 0.22423 0.5692 0.0
C213 C 0.37247 0.19743 0.66884 0.0
O214 O 0.38407 0.19434 0.71979 0.0
O215 O 0.42729 0.26811 0.6096 0.0
C216 C 0.42394 0.20295 0.5557 0.0
O217 O 0.40767 0.1875 0.59668 0.0
C218 C 0.43884 0.2286 0.76598 0.0
O219 O 0.44864 0.22079 0.72211 0.0
O220 O 0.38287 0.21495 0.62853 0.0
C221 C 0.70301 0.12658 0.61924 0.0
O222 O 0.72071 0.13493 0.57568 0.0
O223 O 0.73479 0.17596 0.79912 0.0
Zn224 Zn 0.73551 0.16379 0.70234 0.0
O225 O 0.73998 0.18629 0.62507 0.0
C226 C 0.77959 0.16838 0.73399 0.0
O227 O 0.78021 0.18315 0.78128 0.0
O228 O 0.70565 0.13545 0.68071 0.0
C229 C 0.75956 0.20363 0.61134 0.0
O230 O 0.77695 0.20861 0.65412 0.0
C231 C 0.72658 0.16196 0.85089 0.0
O232 O 0.71748 0.13974 0.83862 0.0
O233 O 0.76171 0.15732 0.69556 0.0
C234 C 0.40568 0.11654 0.14898 0.0
O235 O 0.40809 0.12155 0.21712 0.0
O236 O 0.40843 0.16376 0.23945 0.0
Zn237 Zn 0.39958 0.15632 0.13653 0.0
O238 O 0.42129 0.18078 0.06896 0.0
C239 C 0.36072 0.16292 0.1566 0.0
O240 O 0.37398 0.17704 0.20669 0.0
O241 O 0.40048 0.12808 0.10706 0.0
C242 C 0.42087 0.19913 0.05516 0.0
O243 O 0.40761 0.20427 0.09324 0.0
C244 C 0.42674 0.18099 0.26303 0.0
O245 O 0.44196 0.19579 0.21811 0.0
O246 O 0.36788 0.1517 0.12044 0.0
C247 C 0.81573 0.27654 0.14291 0.0
O248 O 0.79349 0.2671 0.15482 0.0
O249 O 0.79635 0.23426 0.29606 0.0
Zn250 Zn 0.80445 0.23326 0.19402 0.0
O251 O 0.77716 0.2195 0.12817 0.0
C252 C 0.81279 0.19612 0.22483 0.0
O253 O 0.79812 0.19245 0.27639 0.0
O254 O 0.82572 0.26524 0.15858 0.0
C255 C 0.76183 0.19827 0.12655 0.0
O256 O 0.76177 0.18441 0.17604 0.0
C257 C 0.77669 0.22981 0.31868 0.0
O258 O 0.75995 0.2247 0.27308 0.0
O259 O 0.81903 0.21345 0.18432 0.0
C260 C 0.70511 0.54284 0.15562 0.0
O261 O 0.71293 0.52963 0.17983 0.0
O262 O 0.74836 0.56737 0.30147 0.0
Zn263 Zn 0.74931 0.57366 0.19685 0.0
O264 O 0.75923 0.55543 0.13583 0.0
C265 C 0.78981 0.61813 0.21329 0.0
O266 O 0.79276 0.60809 0.26912 0.0
O267 O 0.71775 0.56459 0.16118 0.0
C268 C 0.78009 0.56193 0.12116 0.0
O269 O 0.79655 0.57908 0.15721 0.0
C270 C 0.74902 0.55041 0.32921 0.0
O271 O 0.75034 0.53527 0.28791 0.0
O272 O 0.77162 0.60708 0.17618 0.0
C273 C 0.45955 0.08245 0.02013 0.0
O274 O 0.45797 0.07655 0.95284 0.0
O275 O 0.51148 0.09885 0.91417 0.0
Zn276 Zn 0.50629 0.08918 0.01657 0.0
O277 O 0.53168 0.1104 0.08237 0.0
C278 C 0.51104 0.04893 0.98641 0.0
O279 O 0.52356 0.06103 0.93206 0.0
O280 O 0.47801 0.08819 0.05409 0.0
C281 C 0.54881 0.10776 0.0953 0.0
O282 O 0.55204 0.09344 0.05571 0.0
C283 C 0.53012 0.11528 0.88939 0.0
O284 O 0.5473 0.12776 0.93285 0.0
O285 O 0.50207 0.05746 0.02714 0.0
C286 C 0.86393 0.36557 0.00633 0.0
O287 O 0.85192 0.3746 0.98092 0.0
O288 O 0.88959 0.40931 0.86913 0.0
Zn289 Zn 0.89625 0.40993 0.97338 0.0
O290 O 0.87936 0.42085 0.03661 0.0
C291 C 0.94049 0.44942 0.95118 0.0
O292 O 0.92947 0.45142 0.89633 0.0
O293 O 0.88579 0.37776 0.00651 0.0
C294 C 0.88667 0.442 0.05004 0.0
O295 O 0.90329 0.45781 0.01089 0.0
C296 C 0.87448 0.41287 0.8406 0.0
O297 O 0.86091 0.41691 0.88116 0.0
O298 O 0.93012 0.43179 0.9911 0.0
C299 C 0.62127 0.50106 0.99092 0.0
O300 O 0.61372 0.48026 0.9649 0.0
O301 O 0.57821 0.48063 0.84831 0.0
Zn302 Zn 0.57688 0.48662 0.95222 0.0
O303 O 0.56795 0.4591 0.01496 0.0
C304 C 0.5351 0.48793 0.93486 0.0
O305 O 0.53218 0.47357 0.88286 0.0
O306 O 0.60829 0.50983 0.98739 0.0
C307 C 0.54745 0.44355 0.02917 0.0
O308 O 0.53034 0.44266 0.99254 0.0
C309 C 0.57695 0.46249 0.82245 0.0
O310 O 0.57466 0.44599 0.86535 0.0
O311 O 0.55377 0.4969 0.97035 0.0
C312 C 0.54283 0.83526 0.83131 0.0
O313 O 0.5294 0.81416 0.80764 0.0
O314 O 0.56676 0.81529 0.68956 0.0
Zn315 Zn 0.57299 0.82067 0.79415 0.0
O316 O 0.55425 0.79274 0.85534 0.0
C317 C 0.61681 0.8233 0.77842 0.0
O318 O 0.60656 0.81053 0.7223 0.0
O319 O 0.56453 0.84382 0.82796 0.0
C320 C 0.56007 0.77775 0.86851 0.0
O321 O 0.57649 0.77767 0.83058 0.0
C322 C 0.5498 0.79779 0.66124 0.0
O323 O 0.53453 0.78125 0.70193 0.0
O324 O 0.60621 0.83096 0.81548 0.0
C325 C 0.13965 0.70355 0.83861 0.0
O326 O 0.15984 0.71236 0.80736 0.0
O327 O 0.16178 0.75069 0.72111 0.0
Zn328 Zn 0.15353 0.74959 0.82381 0.0
O329 O 0.18184 0.76212 0.88536 0.0
C330 C 0.15657 0.79221 0.82103 0.0
O331 O 0.17572 0.79593 0.79008 0.0
O332 O 0.13141 0.71667 0.85122 0.0
C333 C 0.18116 0.75328 0.94563 0.0
O334 O 0.16224 0.73453 0.96508 0.0
C335 C 0.18158 0.75471 0.70143 0.0
O336 O 0.19715 0.75797 0.74955 0.0
O337 O 0.14196 0.77174 0.84008 0.0
C338 C 0.28215 0.44124 0.86486 0.0
O339 O 0.27282 0.45366 0.84592 0.0
O340 O 0.24046 0.41702 0.71464 0.0
Zn341 Zn 0.23906 0.40918 0.81847 0.0
O342 O 0.22718 0.42523 0.88201 0.0
C343 C 0.20132 0.36478 0.78747 0.0
O344 O 0.19964 0.37666 0.73457 0.0
O345 O 0.27087 0.41956 0.8547 0.0
C346 C 0.20624 0.41705 0.89974 0.0
O347 O 0.19027 0.39851 0.86734 0.0
C348 C 0.23738 0.43268 0.68788 0.0
O349 O 0.23392 0.4463 0.73017 0.0
O350 O 0.21793 0.37493 0.83118 0.0
C351 C 0.50153 0.88124 0.97796 0.0
O352 O 0.48016 0.86887 0.00038 0.0
O353 O 0.48266 0.90549 0.11993 0.0
Zn354 Zn 0.48952 0.91314 0.0162 0.0
O355 O 0.46203 0.89655 0.95115 0.0
C356 C 0.49513 0.95731 0.04424 0.0
O357 O 0.481 0.94537 0.09596 0.0
O358 O 0.51146 0.90308 0.98269 0.0
C359 C 0.44851 0.90392 0.93415 0.0
O360 O 0.45005 0.92183 0.96794 0.0
C361 C 0.46392 0.88975 0.14639 0.0
O362 O 0.44697 0.87602 0.10385 0.0
O363 O 0.50228 0.9473 0.00244 0.0
C364 C 0.1005 0.61283 0.96222 0.0
O365 O 0.11445 0.60487 0.97647 0.0
O366 O 0.07968 0.57062 0.11275 0.0
Zn367 Zn 0.07123 0.56866 0.00988 0.0
O368 O 0.08835 0.55818 0.9465 0.0
C369 C 0.02827 0.52718 0.03389 0.0
O370 O 0.0399 0.52529 0.08717 0.0
O371 O 0.07911 0.6001 0.97484 0.0
C372 C 0.0856 0.53798 0.9445 0.0
O373 O 0.07277 0.52288 0.993 0.0
C374 C 0.09768 0.57117 0.13658 0.0
O375 O 0.11239 0.57041 0.09203 0.0
O376 O 0.03772 0.54527 0.99564 0.0
C377 C 0.37264 0.4881 0.99072 0.0
O378 O 0.3822 0.51037 0.00314 0.0
O379 O 0.42482 0.52195 0.08815 0.0
Zn380 Zn 0.41849 0.50306 0.00037 0.0
O381 O 0.42494 0.52374 0.91718 0.0
C382 C 0.4603 0.50225 0.0203 0.0
O383 O 0.46471 0.51978 0.06185 0.0
O384 O 0.38531 0.47897 0.99165 0.0
C385 C 0.44347 0.54297 0.91172 0.0
O386 O 0.45852 0.55014 0.96393 0.0
C387 C 0.41659 0.51437 0.14936 0.0
O388 O 0.40182 0.49227 0.15781 0.0
O389 O 0.44053 0.49096 0.99128 0.0
C390 C 0.11444 0.49362 0.48838 0.0
O391 O 0.12783 0.51556 0.50406 0.0
O392 O 0.09436 0.52085 0.61604 0.0
Zn393 Zn 0.08404 0.50865 0.5175 0.0
O394 O 0.09956 0.53317 0.44331 0.0
C395 C 0.03983 0.50472 0.54189 0.0
O396 O 0.05142 0.52004 0.59152 0.0
O397 O 0.09276 0.48489 0.49382 0.0
C398 C 0.09384 0.54825 0.4304 0.0
O399 O 0.07924 0.54998 0.473 0.0
C400 C 0.09092 0.50685 0.66646 0.0
O401 O 0.08146 0.48472 0.65219 0.0
O402 O 0.04993 0.49628 0.50584 0.0
C403 C 0.50884 0.62178 0.47707 0.0
O404 O 0.48782 0.61232 0.50279 0.0
O405 O 0.48857 0.57665 0.6069 0.0
Zn406 Zn 0.49732 0.57706 0.50513 0.0
O407 O 0.46937 0.56362 0.44189 0.0
C408 C 0.49555 0.53498 0.51073 0.0
O409 O 0.47616 0.53071 0.5412 0.0
O410 O 0.51872 0.60979 0.4748 0.0
C411 C 0.47233 0.57033 0.3777 0.0
O412 O 0.49287 0.58652 0.35716 0.0
C413 C 0.46855 0.57234 0.62507 0.0
O414 O 0.45306 0.5683 0.57583 0.0
O415 O 0.50977 0.55556 0.49169 0.0
C416 C 0.36988 0.87906 0.46967 0.0
O417 O 0.37897 0.86639 0.48815 0.0
O418 O 0.41241 0.90357 0.61935 0.0
Zn419 Zn 0.41333 0.91105 0.51535 0.0
O420 O 0.42503 0.89497 0.45128 0.0
C421 C 0.45139 0.9556 0.54375 0.0
O422 O 0.45378 0.9439 0.59586 0.0
O423 O 0.38143 0.90073 0.47995 0.0
C424 C 0.44605 0.9028 0.43513 0.0
O425 O 0.46203 0.92077 0.46971 0.0
C426 C 0.41633 0.88847 0.64631 0.0
O427 O 0.42036 0.87521 0.60416 0.0
O428 O 0.43431 0.94527 0.50177 0.0
C429 C 0.15448 0.44384 0.35773 0.0
O430 O 0.17601 0.45548 0.33623 0.0
O431 O 0.17118 0.41727 0.21547 0.0
Zn432 Zn 0.16461 0.41044 0.3197 0.0
O433 O 0.19245 0.42646 0.38362 0.0
C434 C 0.1575 0.36562 0.29387 0.0
O435 O 0.17197 0.37717 0.24241 0.0
O436 O 0.14377 0.42196 0.35289 0.0
C437 C 0.20566 0.41865 0.3999 0.0
O438 O 0.20359 0.40057 0.36579 0.0
C439 C 0.1898 0.43271 0.18752 0.0
O440 O 0.20697 0.44682 0.22871 0.0
O441 O 0.15071 0.37616 0.33486 0.0
C442 C 0.54631 0.70933 0.33333 0.0
O443 O 0.53215 0.71645 0.31301 0.0
O444 O 0.56892 0.75327 0.18843 0.0
Zn445 Zn 0.57552 0.75428 0.29278 0.0
O446 O 0.55644 0.76286 0.35458 0.0
C447 C 0.61936 0.79615 0.27778 0.0
O448 O 0.60919 0.79912 0.22236 0.0
O449 O 0.56787 0.72282 0.32631 0.0
C450 C 0.56188 0.78351 0.36907 0.0
O451 O 0.57848 0.80043 0.33287 0.0
C452 C 0.55124 0.75263 0.16134 0.0
O453 O 0.53563 0.75283 0.20315 0.0
O454 O 0.60867 0.77762 0.31365 0.0
C455 C 0.28003 0.83427 0.33862 0.0
O456 O 0.2697 0.81186 0.32787 0.0
O457 O 0.22864 0.80204 0.23461 0.0
Zn458 Zn 0.23477 0.82133 0.32151 0.0
O459 O 0.22653 0.80074 0.4057 0.0
C460 C 0.19467 0.82495 0.29401 0.0
O461 O 0.19004 0.80762 0.25126 0.0
O462 O 0.26823 0.84429 0.3334 0.0
C463 C 0.20667 0.78318 0.41337 0.0
O464 O 0.19125 0.77758 0.36273 0.0
C465 C 0.23668 0.80987 0.17342 0.0
O466 O 0.25081 0.83212 0.16527 0.0
O467 O 0.21395 0.83499 0.32631 0.0
C468 C 0.20779 0.11562 0.82606 0.0
C469 C 0.2203 0.1308 0.77047 0.0
H470 H 0.19891 0.11194 0.93626 0.0
C471 C 0.23078 0.1547 0.78218 0.0
H472 H 0.19926 0.09709 0.81859 0.0
C473 C 0.23054 0.16323 0.84987 0.0
C474 C 0.21985 0.148 0.90695 0.0
H475 H 0.24039 0.16686 0.74032 0.0
H476 H 0.23991 0.18174 0.85822 0.0
C477 C 0.20761 0.12413 0.89364 0.0
C478 C 0.86526 0.10134 0.87218 0.0
C479 C 0.8868 0.11833 0.84622 0.0
H480 H 0.84575 0.08222 0.96254 0.0
C481 C 0.90624 0.12649 0.89072 0.0
H482 H 0.84998 0.09452 0.83917 0.0
C483 C 0.90382 0.11943 0.96165 0.0
C484 C 0.88191 0.10413 0.98934 0.0
H485 H 0.92315 0.1394 0.87208 0.0
H486 H 0.91889 0.12709 0.9957 0.0
C487 C 0.86284 0.09436 0.94308 0.0
C488 C 0.90489 0.75848 0.87622 0.0
C489 C 0.90144 0.7736 0.91969 0.0
H490 H 0.90035 0.74304 0.7736 0.0
C491 C 0.8936 0.78749 0.88859 0.0
H492 H 0.91129 0.7478 0.89838 0.0
C493 C 0.8873 0.78475 0.81685 0.0
C494 C 0.88885 0.76814 0.77491 0.0
H495 H 0.89099 0.79948 0.92049 0.0
H496 H 0.87992 0.79466 0.79548 0.0
C497 C 0.89876 0.75585 0.80446 0.0
C498 C 0.08582 0.19058 0.55106 0.0
C499 C 0.10811 0.20119 0.52214 0.0
H500 H 0.06529 0.18609 0.64324 0.0
C501 C 0.12721 0.21207 0.568 0.0
H502 H 0.07077 0.18186 0.51716 0.0
C503 C 0.12409 0.21433 0.6403 0.0
C504 C 0.10183 0.20596 0.66787 0.0
H505 H 0.14462 0.22005 0.54737 0.0
H506 H 0.1392 0.22418 0.67322 0.0
C507 C 0.08269 0.193 0.62336 0.0
C508 C 0.75868 0.9065 0.61776 0.0
C509 C 0.77342 0.90247 0.57443 0.0
H510 H 0.74309 0.90213 0.71994 0.0
C511 C 0.78646 0.89361 0.60539 0.0
H512 H 0.74867 0.91367 0.59573 0.0
C513 C 0.78326 0.887 0.67683 0.0
C514 C 0.76703 0.88921 0.71859 0.0
H515 H 0.79815 0.89055 0.57361 0.0
H516 H 0.79252 0.87891 0.6981 0.0
C517 C 0.75558 0.90002 0.6892 0.0
C518 C 0.08134 0.85412 0.68857 0.0
C519 C 0.09106 0.87648 0.71706 0.0
H520 H 0.06969 0.8331 0.59515 0.0
C521 C 0.0932 0.8945 0.67331 0.0
H522 H 0.07933 0.83982 0.72082 0.0
C523 C 0.08763 0.89063 0.6011 0.0
C524 C 0.07998 0.86871 0.57136 0.0
H525 H 0.10046 0.9119 0.69384 0.0
H526 H 0.09065 0.90511 0.56795 0.0
C527 C 0.07597 0.8503 0.61633 0.0
C528 C 0.78433 0.88842 0.17368 0.0
C529 C 0.76764 0.87117 0.21774 0.0
H530 H 0.79815 0.89786 0.0686 0.0
C531 C 0.75402 0.84878 0.19023 0.0
H532 H 0.79523 0.90581 0.19345 0.0
C533 C 0.75556 0.8443 0.11855 0.0
C534 C 0.77089 0.86205 0.07311 0.0
H535 H 0.74109 0.83505 0.22276 0.0
H536 H 0.74396 0.82716 0.09809 0.0
C537 C 0.78597 0.88389 0.10204 0.0
C538 C 0.13323 0.90946 0.18985 0.0
C539 C 0.11092 0.89771 0.21868 0.0
H540 H 0.15372 0.92327 0.09635 0.0
C541 C 0.09219 0.89438 0.1762 0.0
H542 H 0.14806 0.91248 0.22121 0.0
C543 C 0.09543 0.90057 0.10443 0.0
C544 C 0.11745 0.91011 0.07394 0.0
H545 H 0.07479 0.8856 0.19711 0.0
H546 H 0.08049 0.89645 0.072 0.0
C547 C 0.13645 0.91552 0.11807 0.0
C548 C 0.08225 0.19251 0.04961 0.0
C549 C 0.07379 0.2062 0.02092 0.0
H550 H 0.09568 0.18445 0.14157 0.0
C551 C 0.06868 0.2196 0.06699 0.0
H552 H 0.08615 0.18183 0.01559 0.0
C553 C 0.07393 0.22093 0.13928 0.0
C554 C 0.08462 0.20909 0.16668 0.0
H555 H 0.06179 0.23006 0.04659 0.0
H556 H 0.07113 0.23256 0.17243 0.0
C557 C 0.0877 0.19401 0.12186 0.0
C558 C 0.84505 0.75454 0.30425 0.0
C559 C 0.86718 0.76779 0.27495 0.0
H560 H 0.8243 0.74536 0.398 0.0
C561 C 0.88485 0.78484 0.31724 0.0
H562 H 0.83102 0.74136 0.27311 0.0
C563 C 0.88098 0.78713 0.38903 0.0
C564 C 0.85942 0.77235 0.41984 0.0
H565 H 0.90206 0.79547 0.29607 0.0
H566 H 0.89526 0.79953 0.42117 0.0
C567 C 0.84124 0.75673 0.37606 0.0
C568 C 0.21898 0.08565 0.3876 0.0
C569 C 0.20741 0.09236 0.43591 0.0
H570 H 0.23065 0.08725 0.28089 0.0
C571 C 0.19594 0.10362 0.41017 0.0
H572 H 0.22774 0.07666 0.4057 0.0
C573 C 0.19769 0.10978 0.33852 0.0
C574 C 0.21079 0.10464 0.2913 0.0
H575 H 0.18675 0.10888 0.44598 0.0
H576 H 0.18977 0.11963 0.32101 0.0
C577 C 0.22057 0.09163 0.31592 0.0
C578 C 0.9118 0.16023 0.4445 0.0
C579 C 0.90982 0.14337 0.49306 0.0
H580 H 0.90696 0.16779 0.33767 0.0
C581 C 0.90407 0.12139 0.46754 0.0
H582 H 0.91654 0.17745 0.46238 0.0
C583 C 0.89849 0.11581 0.39586 0.0
C584 C 0.89873 0.13217 0.34837 0.0
H585 H 0.90259 0.10809 0.50354 0.0
H586 H 0.89279 0.09832 0.37855 0.0
C587 C 0.90643 0.15472 0.37283 0.0
C588 C 0.89548 0.47064 0.14745 0.0
C589 C 0.88153 0.44825 0.12038 0.0
H590 H 0.90654 0.49232 0.2395 0.0
C591 C 0.86527 0.43105 0.16554 0.0
H592 H 0.9081 0.48433 0.11412 0.0
C593 C 0.86439 0.43564 0.23762 0.0
C594 C 0.87981 0.45748 0.26587 0.0
H595 H 0.85414 0.41365 0.14619 0.0
H596 H 0.85251 0.42172 0.27179 0.0
C597 C 0.8947 0.47518 0.21955 0.0
C598 C 0.52071 0.4207 0.12745 0.0
C599 C 0.54297 0.43152 0.09822 0.0
H600 H 0.50021 0.40767 0.22124 0.0
C601 C 0.56148 0.43415 0.14055 0.0
H602 H 0.50606 0.41825 0.09625 0.0
C603 C 0.55812 0.42808 0.21242 0.0
C604 C 0.53623 0.41938 0.24317 0.0
H605 H 0.57883 0.44224 0.11937 0.0
H606 H 0.57293 0.43157 0.24466 0.0
C607 C 0.51739 0.41477 0.19932 0.0
C608 C 0.56098 0.1309 0.28259 0.0
C609 C 0.57116 0.11873 0.31106 0.0
H610 H 0.54616 0.13726 0.19071 0.0
C611 C 0.57797 0.10672 0.2648 0.0
H612 H 0.55575 0.14049 0.31682 0.0
C613 C 0.57269 0.10504 0.1925 0.0
C614 C 0.56026 0.11513 0.16531 0.0
H615 H 0.58623 0.09751 0.28509 0.0
H616 H 0.57682 0.09438 0.15924 0.0
C617 C 0.5555 0.12905 0.21029 0.0
C618 C 0.81113 0.56551 0.95073 0.0
C619 C 0.79275 0.55017 0.90706 0.0
H620 H 0.8217 0.58082 0.05364 0.0
C621 C 0.77111 0.53578 0.93799 0.0
H622 H 0.82813 0.57657 0.9287 0.0
C623 C 0.76741 0.53822 0.00982 0.0
C624 C 0.78532 0.55503 0.05202 0.0
H625 H 0.75667 0.52361 0.90592 0.0
H626 H 0.75016 0.52792 0.03109 0.0
C627 C 0.80748 0.56784 0.02258 0.0
C628 C 0.44695 0.21091 0.8714 0.0
C629 C 0.43909 0.22522 0.84359 0.0
H630 H 0.44763 0.19164 0.96109 0.0
C631 C 0.42887 0.23407 0.88978 0.0
H632 H 0.45508 0.20399 0.8374 0.0
C633 C 0.42467 0.22708 0.96074 0.0
C634 C 0.43049 0.211 0.9868 0.0
H635 H 0.42295 0.24544 0.87023 0.0
H636 H 0.4155 0.23313 0.99368 0.0
C637 C 0.44265 0.20383 0.94238 0.0
C638 C 0.74187 0.19472 0.93733 0.0
C639 C 0.73105 0.17085 0.92456 0.0
H640 H 0.75968 0.22213 0.01196 0.0
C641 C 0.72696 0.15588 0.98208 0.0
H642 H 0.74498 0.2067 0.89435 0.0
C643 C 0.73544 0.16475 0.04973 0.0
C644 C 0.74811 0.18872 0.06096 0.0
H645 H 0.71844 0.13738 0.97413 0.0
H646 H 0.73329 0.15284 0.09197 0.0
C647 C 0.75027 0.20356 0.00488 0.0
C648 C 0.41407 0.17357 0.45988 0.0
C649 C 0.42834 0.19614 0.48513 0.0
H650 H 0.40239 0.15109 0.36965 0.0
C651 C 0.44444 0.21287 0.43846 0.0
H652 H 0.40157 0.16022 0.49441 0.0
C653 C 0.44495 0.2076 0.36675 0.0
C654 C 0.42926 0.18555 0.34038 0.0
H655 H 0.4558 0.2304 0.45639 0.0
H656 H 0.45671 0.22116 0.33135 0.0
C657 C 0.41444 0.16836 0.38818 0.0
C658 C 0.78635 0.22854 0.51585 0.0
C659 C 0.7637 0.21447 0.54038 0.0
H660 H 0.8082 0.2445 0.42619 0.0
C661 C 0.74523 0.20835 0.49313 0.0
H662 H 0.80096 0.23368 0.55092 0.0
C663 C 0.7494 0.21466 0.42153 0.0
C664 C 0.7721 0.22703 0.39588 0.0
H665 H 0.72756 0.19766 0.51057 0.0
H666 H 0.73485 0.20866 0.38567 0.0
C667 C 0.7905 0.23467 0.44423 0.0
C668 C 0.7541 0.56722 0.52284 0.0
C669 C 0.76376 0.55464 0.55202 0.0
H670 H 0.74186 0.57572 0.42918 0.0
C671 C 0.76511 0.53801 0.50965 0.0
H672 H 0.75267 0.58006 0.55404 0.0
C673 C 0.75888 0.5355 0.43789 0.0
C674 C 0.75131 0.54968 0.40719 0.0
H675 H 0.7723 0.52789 0.53074 0.0
H676 H 0.76134 0.52348 0.40567 0.0
C677 C 0.74804 0.56483 0.45104 0.0
C678 C 0.51836 0.10296 0.69347 0.0
C679 C 0.54086 0.11323 0.66611 0.0
H680 H 0.4973 0.09564 0.78601 0.0
C681 C 0.55949 0.12751 0.71072 0.0
H682 H 0.5036 0.09201 0.66046 0.0
C683 C 0.55586 0.12965 0.78281 0.0
C684 C 0.53355 0.11743 0.81156 0.0
H685 H 0.57704 0.13588 0.69103 0.0
H686 H 0.57069 0.13961 0.81671 0.0
C687 C 0.51475 0.10495 0.7656 0.0
C688 C 0.86723 0.43323 0.66033 0.0
C689 C 0.88325 0.43035 0.61959 0.0
H690 H 0.85172 0.42979 0.76243 0.0
C691 C 0.89338 0.41828 0.64917 0.0
H692 H 0.85893 0.44225 0.63884 0.0
C693 C 0.88931 0.41124 0.72009 0.0
C694 C 0.87494 0.41602 0.76271 0.0
H695 H 0.90563 0.41559 0.61913 0.0
H696 H 0.89841 0.40313 0.74246 0.0
C697 C 0.8631 0.4261 0.73126 0.0
C698 C 0.57392 0.47354 0.62712 0.0
C699 C 0.56337 0.45103 0.5994 0.0
H700 H 0.58649 0.49481 0.71983 0.0
C701 C 0.56073 0.4329 0.64357 0.0
H702 H 0.57634 0.48792 0.5945 0.0
C703 C 0.56659 0.43687 0.71555 0.0
C704 C 0.57505 0.459 0.74464 0.0
H705 H 0.55284 0.41538 0.62359 0.0
H706 H 0.56314 0.42234 0.74909 0.0
C707 C 0.57959 0.47747 0.69915 0.0
C708 C 0.56412 0.81376 0.54006 0.0
C709 C 0.54916 0.79504 0.58318 0.0
H710 H 0.57941 0.82493 0.43752 0.0
C711 C 0.53534 0.77333 0.55166 0.0
H712 H 0.57472 0.83082 0.5626 0.0
C713 C 0.53805 0.76994 0.47977 0.0
C714 C 0.55454 0.78824 0.43814 0.0
H715 H 0.52347 0.75863 0.58334 0.0
H716 H 0.52825 0.75266 0.45801 0.0
C717 C 0.5667 0.81042 0.46814 0.0
C718 C 0.1767 0.75947 0.50315 0.0
C719 C 0.20002 0.77204 0.48353 0.0
H720 H 0.15254 0.74412 0.58815 0.0
C721 C 0.21706 0.77623 0.53436 0.0
H722 H 0.1632 0.75594 0.46502 0.0
C723 C 0.21097 0.76936 0.60473 0.0
C724 C 0.18775 0.75841 0.62554 0.0
H725 H 0.23518 0.78569 0.52044 0.0
H726 H 0.22454 0.77372 0.64337 0.0
C727 C 0.17062 0.75282 0.57372 0.0
C728 C 0.21793 0.44308 0.50995 0.0
C729 C 0.21866 0.42608 0.46762 0.0
H730 H 0.22344 0.45865 0.61293 0.0
C731 C 0.22898 0.41395 0.49541 0.0
H732 H 0.21029 0.45291 0.48995 0.0
C733 C 0.23647 0.41722 0.56598 0.0
C734 C 0.23384 0.43273 0.61019 0.0
H735 H 0.23001 0.40089 0.46413 0.0
H736 H 0.24318 0.40666 0.58685 0.0
C737 C 0.22545 0.44637 0.58057 0.0
C738 C 0.47835 0.90488 0.26861 0.0
C739 C 0.46025 0.88952 0.22405 0.0
H740 H 0.48817 0.92083 0.37098 0.0
C741 C 0.43822 0.87577 0.25341 0.0
H742 H 0.49563 0.91551 0.24792 0.0
C743 C 0.43395 0.87878 0.32424 0.0
C744 C 0.45165 0.89562 0.36702 0.0
H745 H 0.42396 0.86359 0.22076 0.0
H746 H 0.41648 0.86887 0.3441 0.0
C747 C 0.4741 0.90788 0.33938 0.0
C748 C 0.0863 0.57367 0.26115 0.0
C749 C 0.10026 0.56973 0.21403 0.0
H750 H 0.07377 0.57053 0.36737 0.0
C751 C 0.11497 0.56231 0.24127 0.0
H752 H 0.07503 0.57974 0.24181 0.0
C753 C 0.11418 0.55694 0.31335 0.0
C754 C 0.09882 0.55909 0.35941 0.0
H755 H 0.12606 0.55931 0.20634 0.0
H756 H 0.12469 0.54989 0.33213 0.0
C757 C 0.08568 0.56853 0.33326 0.0
C758 C 0.42317 0.52089 0.28058 0.0
C759 C 0.42698 0.52976 0.21114 0.0
H760 H 0.43457 0.52705 0.38894 0.0
C761 C 0.44314 0.55319 0.19998 0.0
H762 H 0.41069 0.50295 0.29089 0.0
C763 C 0.4568 0.56688 0.25575 0.0
C764 C 0.45446 0.55748 0.32386 0.0
H765 H 0.44621 0.56068 0.14728 0.0
H766 H 0.47003 0.58451 0.24463 0.0
C767 C 0.43681 0.5347 0.33671 0.0
C768 C 0.08323 0.50673 0.8654 0.0
C769 C 0.09183 0.53033 0.87863 0.0
H770 H 0.07634 0.48072 0.78746 0.0
C771 C 0.10346 0.54629 0.82388 0.0
H772 H 0.07433 0.49401 0.90657 0.0
C773 C 0.10446 0.53868 0.75563 0.0
C774 C 0.09399 0.51497 0.74084 0.0
H775 H 0.11058 0.56464 0.83252 0.0
H776 H 0.11239 0.55136 0.71371 0.0
C777 C 0.08433 0.49911 0.79703 0.0
C778 C 0.47291 0.56889 0.82393 0.0
C779 C 0.44966 0.55453 0.84216 0.0
H780 H 0.49717 0.58581 0.74008 0.0
C781 C 0.43256 0.54888 0.79028 0.0
H782 H 0.48645 0.57357 0.86292 0.0
C783 C 0.43867 0.55603 0.72011 0.0
C784 C 0.462 0.56868 0.70063 0.0
H785 H 0.41447 0.53802 0.80319 0.0
H786 H 0.42516 0.55046 0.68055 0.0
C787 C 0.47904 0.57578 0.75354 0.0
C788 C 0.42462 0.90763 0.83843 0.0
C789 C 0.4356 0.89614 0.86634 0.0
H790 H 0.40973 0.91406 0.74703 0.0
C791 C 0.43693 0.87944 0.82419 0.0
H792 H 0.42312 0.92044 0.86956 0.0
C793 C 0.42929 0.8758 0.75367 0.0
C794 C 0.42016 0.88878 0.72395 0.0
H795 H 0.4451 0.87011 0.84426 0.0
H796 H 0.43173 0.86377 0.72146 0.0
C797 C 0.417 0.904 0.76796 0.0
C798 C 0.17476 0.41618 0.06695 0.0
C799 C 0.19304 0.43215 0.10985 0.0
H800 H 0.16449 0.39915 0.9662 0.0
C801 C 0.21485 0.4458 0.07897 0.0
H802 H 0.15764 0.4056 0.08879 0.0
C803 C 0.21875 0.44214 0.00838 0.0
C804 C 0.20092 0.42474 0.96738 0.0
H805 H 0.22923 0.45843 0.1103 0.0
H806 H 0.23609 0.45203 0.98741 0.0
C807 C 0.17866 0.41252 0.99643 0.0
C808 C 0.53712 0.76718 0.98108 0.0
C809 C 0.55362 0.76588 0.93802 0.0
H810 H 0.52329 0.76383 0.08585 0.0
C811 C 0.56669 0.75673 0.96692 0.0
H812 H 0.52665 0.77399 0.9602 0.0
C813 C 0.56495 0.75119 0.03901 0.0
C814 C 0.54991 0.75442 0.0834 0.0
H815 H 0.57946 0.75537 0.93521 0.0
H816 H 0.57621 0.74542 0.0606 0.0
C817 C 0.53523 0.76141 0.05314 0.0
C818 C 0.22946 0.80367 0.0425 0.0
C819 C 0.22662 0.79453 0.11134 0.0
H820 H 0.21733 0.79757 0.93504 0.0
C821 C 0.21163 0.77078 0.12178 0.0
H822 H 0.24105 0.82186 0.03269 0.0
C823 C 0.19806 0.75689 0.06605 0.0
C824 C 0.19925 0.76648 -0.00119 0.0
H825 H 0.20936 0.76312 0.17401 0.0
H826 H 0.18569 0.73895 0.07685 0.0
C827 C 0.21587 0.78973 0.98656 0.0
C828 C 0.21244 0.22094 0.33981 0.0
C829 C 0.19836 0.22535 0.29477 0.0
H830 H 0.23473 0.20675 0.34898 0.0
C831 C 0.19879 0.22185 0.22124 0.0
H832 H 0.2126 0.22365 0.39664 0.0
C833 C 0.21148 0.21228 0.19395 0.0
C834 C 0.22393 0.20592 0.23968 0.0
H835 H 0.18842 0.22546 0.18498 0.0
H836 H 0.21046 0.20869 0.13747 0.0
C837 C 0.22512 0.21127 0.31245 0.0
C838 C 0.78672 0.98953 0.29148 0.0
C839 C 0.79836 0.97778 0.3111 0.0
H840 H 0.78966 0.02078 0.25052 0.0
C841 C 0.82244 0.98895 0.30378 0.0
H842 H 0.76816 0.98133 0.29647 0.0
C843 C 0.83465 0.01132 0.27706 0.0
C844 C 0.82311 0.02313 0.2575 0.0
H845 H 0.83194 0.98037 0.31816 0.0
H846 H 0.85321 0.01938 0.27214 0.0
C847 C 0.79902 0.01207 0.26512 0.0
C848 C 0.97991 0.81597 0.23201 0.0
C849 C 0.97025 0.79291 0.20999 0.0
H850 H 0.00714 0.8443 0.28731 0.0
C851 C 0.98135 0.78051 0.22815 0.0
H852 H 0.97169 0.82596 0.21944 0.0
C853 C 0.00195 0.79117 0.26706 0.0
C854 C 0.01149 0.81424 0.28921 0.0
H855 H 0.97422 0.76267 0.21203 0.0
H856 H 0.01036 0.78138 0.2798 0.0
C857 C 0.00018 0.82645 0.27153 0.0
C858 C 0.78454 0.7754 0.72903 0.0
C859 C 0.80794 0.78851 0.71021 0.0
H860 H 0.75597 0.7751 0.78178 0.0
C861 C 0.82071 0.81163 0.7322 0.0
H862 H 0.77432 0.7575 0.71295 0.0
C863 C 0.81042 0.82148 0.77234 0.0
C864 C 0.787 0.80856 0.79068 0.0
H865 H 0.83882 0.82216 0.71915 0.0
H866 H 0.82084 0.8394 0.78807 0.0
C867 C 0.77408 0.78543 0.76855 0.0
C868 C 0.16928 0.01197 0.74692 0.0
C869 C 0.19205 0.02184 0.72236 0.0
H870 H 0.14137 0.98393 0.8008 0.0
C871 C 0.20439 0.01026 0.73462 0.0
H872 H 0.15933 0.0205 0.73881 0.0
C873 C 0.19397 0.98904 0.77023 0.0
C874 C 0.17115 0.97925 0.79473 0.0
H875 H 0.22201 0.01751 0.7164 0.0
H876 H 0.20373 0.98032 0.77846 0.0
C877 C 0.159 0.99101 0.78294 0.0
C878 C -0.00446 0.23445 0.67133 0.0
C879 C 0.97599 0.22849 0.71313 0.0
H880 H 0.03135 0.24488 0.67049 0.0
C881 C 0.97875 0.23287 0.78673 0.0
H882 H -0.00595 0.23151 0.61444 0.0
C883 C 0.00021 0.24066 0.81888 0.0
C884 C 0.01911 0.24397 0.77788 0.0
H885 H 0.96403 0.22872 0.82023 0.0
H886 H 0.00149 0.24228 0.87624 0.0
C887 C 0.01689 0.242 0.70352 0.0
C888 C 0.86771 0.54586 0.60205 0.0
C889 C 0.84424 0.53299 0.62024 0.0
H890 H 0.89636 0.54563 0.55163 0.0
C891 C 0.83142 0.50974 0.59953 0.0
H892 H 0.87798 0.56385 0.61719 0.0
C893 C 0.84174 0.49954 0.56128 0.0
C894 C 0.86522 0.51221 0.54358 0.0
H895 H 0.81326 0.49939 0.61215 0.0
H896 H 0.83128 0.48153 0.5465 0.0
C897 C 0.87819 0.53548 0.56443 0.0
C898 C 0.48359 0.31436 0.5537 0.0
C899 C 0.46025 0.30357 0.57307 0.0
H900 H 0.51244 0.34402 0.50925 0.0
C901 C 0.44791 0.3152 0.56176 0.0
H902 H 0.49356 0.30584 0.56132 0.0
C903 C 0.45886 0.33735 0.53196 0.0
C904 C 0.48221 0.34802 0.51236 0.0
H905 H 0.42987 0.30726 0.57615 0.0
H906 H 0.44907 0.34605 0.52415 0.0
C907 C 0.4944 0.33626 0.5234 0.0
C908 C 0.63829 0.09414 0.61042 0.0
C909 C 0.63456 0.0915 0.53666 0.0
H910 H 0.66295 0.10689 0.69471 0.0
C911 C 0.65321 0.09665 0.49145 0.0
H912 H 0.62417 0.0899 0.64675 0.0
C913 C 0.67554 0.10645 0.51906 0.0
C914 C 0.67948 0.11117 0.59222 0.0
H915 H 0.65081 0.0946 0.43441 0.0
H916 H 0.6898 0.1117 0.4825 0.0
C917 C 0.66053 0.10384 0.63796 0.0
C918 C 0.42826 0.09631 0.1605 0.0
C919 C 0.41468 0.10224 0.1186 0.0
H920 H 0.45316 0.08525 0.16175 0.0
C921 C 0.41292 0.09767 0.0451 0.0
H922 H 0.42983 0.09941 0.21731 0.0
C923 C 0.42625 0.08944 0.01322 0.0
C924 C 0.44166 0.08585 0.05432 0.0
H925 H 0.40235 0.10181 0.01151 0.0
H926 H 0.42568 0.08748 0.95595 0.0
C927 C 0.44173 0.0883 0.12858 0.0
C928 C 0.86416 0.33209 0.06584 0.0
C929 C 0.85191 0.34249 0.03947 0.0
H930 H 0.8623 0.30294 0.11948 0.0
C931 C 0.82784 0.33102 0.04739 0.0
H932 H 0.88273 0.34055 0.06061 0.0
C933 C 0.81624 0.30974 0.08152 0.0
C934 C 0.8284 0.29931 0.10811 0.0
H935 H 0.81787 0.33858 0.02791 0.0
H936 H 0.79768 0.30144 0.08674 0.0
C937 C 0.85248 0.31061 0.09966 0.0
C938 C 0.67312 0.54552 0.09488 0.0
C939 C 0.68338 0.53248 0.11492 0.0
H940 H 0.6452 0.54578 0.03964 0.0
C941 C 0.67327 0.50938 0.09286 0.0
H942 H 0.68062 0.56341 0.11099 0.0
C943 C 0.65343 0.49952 0.05129 0.0
C944 C 0.64301 0.51239 0.03155 0.0
H945 H 0.68084 0.4989 0.10688 0.0
H946 H 0.64611 0.48162 0.03548 0.0
C947 C 0.65295 0.53548 0.0539 0.0
C948 C 0.53614 0.882 0.92353 0.0
C949 C 0.51263 0.86982 0.94156 0.0
H950 H 0.5643 0.88057 0.87432 0.0
C951 C 0.49928 0.84649 0.92216 0.0
H952 H 0.54683 0.90003 0.93769 0.0
C953 C 0.50911 0.83554 0.88524 0.0
C954 C 0.53262 0.84757 0.86753 0.0
H955 H 0.48108 0.83664 0.93479 0.0
H956 H 0.49826 0.81751 0.87133 0.0
C957 C 0.54611 0.8709 0.88716 0.0
C958 C 0.09701 0.64722 0.9275 0.0
C959 C 0.10972 0.63571 0.92891 0.0
H960 H 0.09657 0.67798 0.89791 0.0
C961 C 0.13172 0.64626 0.89793 0.0
H962 H 0.07997 0.63943 0.95091 0.0
C963 C 0.14099 0.66797 0.86692 0.0
C964 C 0.12864 0.67982 0.86693 0.0
H965 H 0.14186 0.63774 0.89752 0.0
H966 H 0.15812 0.67563 0.84422 0.0
C967 C 0.10648 0.66922 0.89717 0.0
C968 C 0.31455 0.47546 0.92315 0.0
C969 C 0.3048 0.45246 0.90039 0.0
H970 H 0.3433 0.5045 0.9709 0.0
C971 C 0.31684 0.44057 0.91227 0.0
H972 H 0.30558 0.48501 0.91568 0.0
C973 C 0.33866 0.45184 0.94409 0.0
C974 C 0.34864 0.47509 0.96493 0.0
H975 H 0.30965 0.42277 0.89569 0.0
H976 H 0.3479 0.44253 0.95083 0.0
C977 C 0.33616 0.48661 0.95531 0.0
C978 C 0.11066 0.45668 0.44187 0.0
C979 C 0.12447 0.48029 0.45778 0.0
H980 H 0.10933 0.42648 0.39751 0.0
C981 C 0.14803 0.49159 0.44092 0.0
H982 H 0.09242 0.44753 0.45419 0.0
C983 C 0.15758 0.47969 0.40791 0.0
C984 C 0.14384 0.45614 0.39153 0.0
H985 H 0.15915 0.50978 0.45222 0.0
H986 H 0.17581 0.48901 0.39551 0.0
C987 C 0.12031 0.44466 0.40927 0.0
C988 C 0.54214 0.65608 0.41912 0.0
C989 C 0.51912 0.64457 0.44244 0.0
H990 H 0.56897 0.68582 0.36617 0.0
C991 C 0.50532 0.65451 0.42938 0.0
H992 H 0.55314 0.64877 0.42833 0.0
C993 C 0.51419 0.67534 0.39307 0.0
C994 C 0.53717 0.68692 0.36971 0.0
H995 H 0.48747 0.64604 0.44624 0.0
H996 H 0.503 0.68244 0.38389 0.0
C997 C 0.55116 0.67721 0.38343 0.0
C998 C 0.33673 0.84493 0.41333 0.0
C999 C 0.34725 0.8682 0.43389 0.0
H1000 H 0.30758 0.81619 0.36591 0.0
C1001 C 0.33609 0.88078 0.41894 0.0
H1002 H 0.34498 0.83481 0.42329 0.0
C1003 C 0.31448 0.87003 0.38578 0.0
C1004 C 0.30378 0.84657 0.36673 0.0
H1005 H 0.34388 0.8988 0.43376 0.0
H1006 H 0.30599 0.87995 0.37637 0.0
C1007 C 0.31531 0.83427 0.37994 0.0
C1008 C 0.30285 0.14417 0.07064 0.0
C1009 C 0.29482 0.15646 0.11072 0.0
H1010 H 0.32987 0.13648 0.05384 0.0
C1011 C 0.30878 0.17114 0.16542 0.0
H1012 H 0.29251 0.13271 0.02817 0.0
C1013 C 0.3302 0.17325 0.18029 0.0
C1014 C 0.33809 0.16073 0.14079 0.0
H1015 H 0.30308 0.18082 0.19739 0.0
H1016 H 0.34048 0.18461 0.22304 0.0
C1017 C 0.32425 0.14628 0.08553 0.0
C1018 C 0.8347 0.18218 0.152 0.0
C1019 C 0.82031 0.17918 0.21019 0.0
H1020 H 0.85221 0.16857 0.09141 0.0
C1021 C 0.8124 0.15935 0.25257 0.0
H1022 H 0.841 0.19721 0.11808 0.0
C1023 C 0.81875 0.14285 0.23706 0.0
C1024 C 0.83314 0.14585 0.17887 0.0
H1025 H 0.80122 0.15647 0.29763 0.0
H1026 H 0.81245 0.12781 0.27095 0.0
C1027 C 0.84104 0.16569 0.1365 0.0
C1028 C 0.80655 0.65043 0.12492 0.0
C1029 C 0.80867 0.64075 0.18878 0.0
H1030 H 0.82254 0.67827 0.05073 0.0
C1031 C 0.82945 0.65232 0.22707 0.0
H1032 H 0.79082 0.64189 0.09389 0.0
C1033 C 0.8477 0.67313 0.20207 0.0
C1034 C 0.84557 0.68281 0.13824 0.0
H1035 H 0.83169 0.64528 0.27628 0.0
H1036 H 0.86342 0.68169 0.23311 0.0
C1037 C 0.8248 0.67122 0.09992 0.0
C1038 C 0.15959 0.33045 0.26273 0.0
C1039 C 0.15114 0.34138 0.30741 0.0
H1040 H 0.16172 0.30023 0.24148 0.0
C1041 C 0.13755 0.32927 0.3663 0.0
H1042 H 0.17011 0.33927 0.2169 0.0
C1043 C 0.13274 0.30676 0.38055 0.0
C1044 C 0.14147 0.29598 0.33622 0.0
H1045 H 0.13084 0.33724 0.40184 0.0
H1046 H 0.12232 0.29788 0.42649 0.0
C1047 C 0.15483 0.30805 0.27698 0.0
C1048 C 0.65345 0.836 0.26505 0.0
C1049 C 0.64187 0.81512 0.30285 0.0
H1050 H 0.68293 0.86999 0.25955 0.0
C1051 C 0.65151 0.8129 0.36663 0.0
H1052 H 0.64643 0.83832 0.21591 0.0
C1053 C 0.67231 0.83109 0.3919 0.0
C1054 C 0.68399 0.85192 0.35392 0.0
H1055 H 0.64297 0.79711 0.39736 0.0
H1056 H 0.67931 0.8287 0.44097 0.0
C1057 C 0.67431 0.85421 0.29029 0.0
C1058 C 0.17959 0.84584 0.36734 0.0
C1059 C 0.17637 0.83033 0.31212 0.0
H1060 H 0.16457 0.86125 0.43166 0.0
C1061 C 0.15484 0.81868 0.27782 0.0
H1062 H 0.19592 0.85501 0.39512 0.0
C1063 C 0.13683 0.82218 0.29897 0.0
C1064 C 0.13992 0.83737 0.35502 0.0
H1065 H 0.15177 0.80658 0.23515 0.0
H1066 H 0.12044 0.81285 0.2716 0.0
C1067 C 0.16155 0.84928 0.38865 0.0
C1068 C 0.66938 0.83948 0.89252 0.0
C1069 C 0.68016 0.82932 0.85481 0.0
H1070 H 0.6411 0.84579 0.89766 0.0
C1071 C 0.67015 0.81755 0.7911 0.0
H1072 H 0.6767 0.84877 0.94161 0.0
C1073 C 0.64982 0.81598 0.76562 0.0
C1074 C 0.63903 0.82613 0.80333 0.0
H1075 H 0.67809 0.80966 0.7605 0.0
H1076 H 0.6425 0.80669 0.71653 0.0
C1077 C 0.64904 0.8379 0.86706 0.0
C1078 C 0.13618 0.80955 0.88594 0.0
C1079 C 0.15323 0.81194 0.83771 0.0
H1080 H 0.12067 0.82622 0.94155 0.0
C1081 C 0.16792 0.83373 0.80773 0.0
H1082 H 0.12472 0.79302 0.91027 0.0
C1083 C 0.16559 0.85274 0.82546 0.0
C1084 C 0.14867 0.85042 0.87412 0.0
H1085 H 0.18126 0.83614 0.7704 0.0
H1086 H 0.17709 0.86926 0.80111 0.0
C1087 C 0.13401 0.82863 0.90426 0.0
C1088 C 0.16396 0.33044 0.75262 0.0
C1089 C 0.18255 0.3409 0.80035 0.0
H1090 H 0.13097 0.30136 0.72945 0.0
C1091 C 0.18218 0.32886 0.86205 0.0
H1092 H 0.1637 0.33918 0.70448 0.0
C1093 C 0.16328 0.30704 0.87651 0.0
C1094 C 0.14441 0.29692 0.82959 0.0
H1095 H 0.19625 0.33648 0.89991 0.0
H1096 H 0.16329 0.29832 0.92497 0.0
C1097 C 0.14512 0.30874 0.76709 0.0
C1098 C 0.81656 0.67188 0.70203 0.0
C1099 C 0.8282 0.68187 0.63824 0.0
H1100 H 0.80565 0.64412 0.77615 0.0
C1101 C 0.83809 0.67094 0.59994 0.0
H1102 H 0.80886 0.67993 0.73307 0.0
C1103 C 0.83638 0.65048 0.6249 0.0
C1104 C 0.82473 0.64049 0.68869 0.0
H1105 H 0.84729 0.67824 0.55078 0.0
H1106 H 0.84407 0.64242 0.59386 0.0
C1107 C 0.81485 0.65142 0.72699 0.0
C1108 C 0.31505 0.14198 0.68058 0.0
C1109 C 0.30314 0.144 0.62206 0.0
H1110 H 0.34615 0.15736 0.74168 0.0
C1111 C 0.31409 0.16393 0.57965 0.0
H1112 H 0.30706 0.1269 0.71455 0.0
C1113 C 0.33648 0.18148 0.59543 0.0
C1114 C 0.34839 0.17945 0.65394 0.0
H1115 H 0.30536 0.16608 0.53435 0.0
H1116 H 0.34448 0.19656 0.56148 0.0
C1117 C 0.33743 0.15952 0.69636 0.0
C1118 C 0.82029 0.15103 0.65165 0.0
C1119 C 0.84058 0.16448 0.69083 0.0
H1120 H 0.78504 0.14156 0.63483 0.0
C1121 C 0.84042 0.17866 0.74574 0.0
H1122 H 0.81981 0.13986 0.60917 0.0
C1123 C 0.82047 0.17957 0.76064 0.0
C1124 C 0.80025 0.16634 0.72092 0.0
H1125 H 0.85574 0.18916 0.77717 0.0
H1126 H 0.821 0.19085 0.80285 0.0
C1127 C 0.80033 0.15195 0.66653 0.0
C1128 C 0.00573 0.5101 0.55901 0.0
C1129 C 0.01634 0.49959 0.52225 0.0
H1130 H 0.97647 0.51479 0.56718 0.0
C1131 C 0.00482 0.48519 0.46404 0.0
H1132 H 0.01416 0.52135 0.60395 0.0
C1133 C 0.98326 0.48154 0.4427 0.0
C1134 C 0.97273 0.49219 0.47913 0.0
H1135 H 0.01254 0.47691 0.43435 0.0
H1136 H 0.97487 0.47036 0.39759 0.0
C1137 C 0.98416 0.50644 0.53769 0.0
C1138 C 0.48494 0.49358 0.52164 0.0
C1139 C 0.49941 0.51564 0.49304 0.0
H1140 H 0.47621 0.45812 0.52515 0.0
C1141 C 0.51662 0.51865 0.44453 0.0
H1142 H 0.47149 0.49069 0.55914 0.0
C1143 C 0.51911 0.4999 0.42433 0.0
C1144 C 0.5046 0.47781 0.4528 0.0
H1145 H 0.52793 0.5354 0.42121 0.0
H1146 H 0.53253 0.50279 0.38671 0.0
C1147 C 0.48758 0.47488 0.50201 0.0
C1148 C 0.48681 0.01405 0.4559 0.0
C1149 C 0.5063 0.02449 0.50033 0.0
H1150 H 0.45402 0.98408 0.43489 0.0
C1151 C 0.5071 0.01241 0.56033 0.0
H1152 H 0.48564 0.02295 0.4094 0.0
C1153 C 0.489 0.99028 0.57508 0.0
C1154 C 0.46968 0.97966 0.53013 0.0
H1155 H 0.52179 0.01999 0.59595 0.0
H1156 H 0.49034 0.98141 0.62138 0.0
C1157 C 0.46867 0.99182 0.47063 0.0
C1158 C 0.49533 0.01365 0.06224 0.0
C1159 C 0.50773 0.0258 0.00169 0.0
H1160 H 0.48189 0.98273 0.12341 0.0
C1161 C 0.51686 0.01561 0.95649 0.0
H1162 H 0.48818 0.02104 0.09846 0.0
C1163 C 0.51327 0.99354 0.97097 0.0
C1164 C 0.5005 0.98127 0.03093 0.0
H1165 H 0.52658 0.02457 0.90956 0.0
H1166 H 0.52018 0.98596 0.93461 0.0
C1167 C 0.49177 0.99167 0.07669 0.0
C1168 C 0.97447 0.46806 0.03365 0.0
C1169 C 0.96333 0.46892 0.9714 0.0
H1170 H 0.0036 0.48587 0.10267 0.0
C1171 C 0.97357 0.48922 0.93051 0.0
H1172 H 0.96697 0.45273 0.06656 0.0
C1173 C -0.00557 0.50827 0.95151 0.0
C1174 C 0.00557 0.50744 0.01377 0.0
H1175 H 0.9654 0.49053 0.88242 0.0
H1176 H 0.00188 0.5236 0.91856 0.0
C1177 C -0.00461 0.48712 0.05458 0.0
C1178 C 0.51901 0.50706 0.01184 0.0
C1179 C 0.51599 0.49167 0.95649 0.0
H1180 H 0.50373 0.52227 0.07588 0.0
C1181 C 0.49425 0.47918 0.92387 0.0
H1182 H 0.5355 0.51685 0.03836 0.0
C1183 C 0.47594 0.48211 0.94587 0.0
C1184 C 0.47904 0.4977 0.00069 0.0
H1185 H 0.49129 0.46706 0.88141 0.0
H1186 H 0.45948 0.47242 0.91912 0.0
C1187 C 0.50075 0.51007 0.03359 0.0
loop_
_geom_bond_atom_site_label_1
_geom_bond_atom_site_label_2
_geom_bond_distance
_geom_bond_site_symmetry_2
_ccdc_geom_bond_type
C0 O1 1.160 . S
C0 O7 1.185 . S
O1 C0 1.160 . S
O2 Zn3 1.899 . S
O2 C10 1.284 . S
Zn3 O2 1.899 . S
Zn3 O4 2.032 . S
Zn3 O7 2.086 . S
Zn3 O12 1.977 . S
O4 Zn3 2.032 . S
O4 C8 1.278 . S
C5 O6 1.203 . S
C5 O12 1.267 . S
O6 C5 1.203 . S
O7 C0 1.185 . S
O7 Zn3 2.086 . S
C8 O4 1.278 . S
C8 O9 1.211 . S
O9 C8 1.211 . S
C10 O2 1.284 . S
C10 O11 1.273 . S
O11 C10 1.273 . S
O12 Zn3 1.977 . S
O12 C5 1.267 . S
C13 O14 1.160 . S
C13 O20 1.185 . S
O14 C13 1.160 . S
O15 Zn16 1.899 . S
O15 C23 1.284 . S
Zn16 O15 1.899 . S
Zn16 O17 2.032 . S
Zn16 O20 2.086 . S
Zn16 O25 1.977 . S
O17 Zn16 2.032 . S
O17 C21 1.278 . S
C18 O19 1.203 . S
C18 O25 1.267 . S
O19 C18 1.203 . S
O20 C13 1.185 . S
O20 Zn16 2.086 . S
C21 O17 1.278 . S
C21 O22 1.211 . S
O22 C21 1.211 . S
C23 O15 1.284 . S
C23 O24 1.273 . S
O24 C23 1.273 . S
O25 Zn16 1.977 . S
O25 C18 1.267 . S
C26 O27 1.160 . S
C26 O33 1.185 . S
O27 C26 1.160 . S
O28 Zn29 1.899 . S
O28 C36 1.284 . S
Zn29 O28 1.899 . S
Zn29 O30 2.032 . S
Zn29 O33 2.086 . S
Zn29 O38 1.977 . S
O30 Zn29 2.032 . S
O30 C34 1.278 . S
C31 O32 1.203 . S
C31 O38 1.267 . S
O32 C31 1.203 . S
O33 C26 1.185 . S
O33 Zn29 2.086 . S
C34 O30 1.278 . S
C34 O35 1.211 . S
O35 C34 1.211 . S
C36 O28 1.284 . S
C36 O37 1.273 . S
O37 C36 1.273 . S
O38 Zn29 1.977 . S
O38 C31 1.267 . S
C39 O40 1.160 . S
C39 O46 1.185 . S
O40 C39 1.160 . S
O41 Zn42 1.899 . S
O41 C49 1.284 . S
Zn42 O41 1.899 . S
Zn42 O43 2.032 . S
Zn42 O46 2.086 . S
Zn42 O51 1.977 . S
O43 Zn42 2.032 . S
O43 C47 1.278 . S
C44 O45 1.203 . S
C44 O51 1.267 . S
O45 C44 1.203 . S
O46 C39 1.185 . S
O46 Zn42 2.086 . S
C47 O43 1.278 . S
C47 O48 1.211 . S
O48 C47 1.211 . S
C49 O41 1.284 . S
C49 O50 1.273 . S
O50 C49 1.273 . S
O51 Zn42 1.977 . S
O51 C44 1.267 . S
C52 O53 1.160 . S
C52 O59 1.185 . S
O53 C52 1.160 . S
O54 Zn55 1.899 . S
O54 C62 1.284 . S
Zn55 O54 1.899 . S
Zn55 O56 2.032 . S
Zn55 O59 2.086 . S
Zn55 O64 1.977 . S
O56 Zn55 2.032 . S
O56 C60 1.278 . S
C57 O58 1.203 . S
C57 O64 1.267 . S
O58 C57 1.203 . S
O59 C52 1.185 . S
O59 Zn55 2.086 . S
C60 O56 1.278 . S
C60 O61 1.211 . S
O61 C60 1.211 . S
C62 O54 1.284 . S
C62 O63 1.273 . S
O63 C62 1.273 . S
O64 Zn55 1.977 . S
O64 C57 1.267 . S
C65 O66 1.160 . S
C65 O72 1.185 . S
O66 C65 1.160 . S
O67 Zn68 1.899 . S
O67 C75 1.284 . S
Zn68 O67 1.899 . S
Zn68 O69 2.032 . S
Zn68 O72 2.086 . S
Zn68 O77 1.977 . S
O69 Zn68 2.032 . S
O69 C73 1.278 . S
C70 O71 1.203 . S
C70 O77 1.267 . S
O71 C70 1.203 . S
O72 C65 1.185 . S
O72 Zn68 2.086 . S
C73 O69 1.278 . S
C73 O74 1.211 . S
O74 C73 1.211 . S
C75 O67 1.284 . S
C75 O76 1.273 . S
O76 C75 1.273 . S
O77 Zn68 1.977 . S
O77 C70 1.267 . S
C78 O79 1.160 . S
C78 O85 1.185 . S
O79 C78 1.160 . S
O80 Zn81 1.899 . S
O80 C88 1.284 . S
Zn81 O80 1.899 . S
Zn81 O82 2.032 . S
Zn81 O85 2.086 . S
Zn81 O90 1.977 . S
O82 Zn81 2.032 . S
O82 C86 1.278 . S
C83 O84 1.203 . S
C83 O90 1.267 . S
O84 C83 1.203 . S
O85 C78 1.185 . S
O85 Zn81 2.086 . S
C86 O82 1.278 . S
C86 O87 1.211 . S
O87 C86 1.211 . S
C88 O80 1.284 . S
C88 O89 1.273 . S
O89 C88 1.273 . S
O90 Zn81 1.977 . S
O90 C83 1.267 . S
C91 O92 1.160 . S
C91 O98 1.185 . S
O92 C91 1.160 . S
O93 Zn94 1.899 . S
O93 C101 1.284 . S
Zn94 O93 1.899 . S
Zn94 O95 2.032 . S
Zn94 O98 2.086 . S
Zn94 O103 1.977 . S
O95 Zn94 2.032 . S
O95 C99 1.278 . S
C96 O97 1.203 . S
C96 O103 1.267 . S
O97 C96 1.203 . S
O98 C91 1.185 . S
O98 Zn94 2.086 . S
C99 O95 1.278 . S
C99 O100 1.211 . S
O100 C99 1.211 . S
C101 O93 1.284 . S
C101 O102 1.273 . S
O102 C101 1.273 . S
O103 Zn94 1.977 . S
O103 C96 1.267 . S
C104 O105 1.160 . S
C104 O111 1.185 . S
O105 C104 1.160 . S
O106 Zn107 1.899 . S
O106 C114 1.284 . S
Zn107 O106 1.899 . S
Zn107 O108 2.032 . S
Zn107 O111 2.086 . S
Zn107 O116 1.977 . S
O108 Zn107 2.032 . S
O108 C112 1.278 . S
C109 O110 1.203 . S
C109 O116 1.267 . S
O110 C109 1.203 . S
O111 C104 1.185 . S
O111 Zn107 2.086 . S
C112 O108 1.278 . S
C112 O113 1.211 . S
O113 C112 1.211 . S
C114 O106 1.284 . S
C114 O115 1.273 . S
O115 C114 1.273 . S
O116 Zn107 1.977 . S
O116 C109 1.267 . S
C117 O118 1.160 . S
C117 O124 1.185 . S
O118 C117 1.160 . S
O119 Zn120 1.899 . S
O119 C127 1.284 . S
Zn120 O119 1.899 . S
Zn120 O121 2.032 . S
Zn120 O124 2.086 . S
Zn120 O129 1.977 . S
O121 Zn120 2.032 . S
O121 C125 1.278 . S
C122 O123 1.203 . S
C122 O129 1.267 . S
O123 C122 1.203 . S
O124 C117 1.185 . S
O124 Zn120 2.086 . S
C125 O121 1.278 . S
C125 O126 1.211 . S
O126 C125 1.211 . S
C127 O119 1.284 . S
C127 O128 1.273 . S
O128 C127 1.273 . S
O129 Zn120 1.977 . S
O129 C122 1.267 . S
C130 O131 1.160 . S
C130 O137 1.185 . S
O131 C130 1.160 . S
O132 Zn133 1.899 . S
O132 C140 1.284 . S
Zn133 O132 1.899 . S
Zn133 O134 2.032 . S
Zn133 O137 2.086 . S
Zn133 O142 1.977 . S
O134 Zn133 2.032 . S
O134 C138 1.278 . S
C135 O136 1.203 . S
C135 O142 1.267 . S
O136 C135 1.203 . S
O137 C130 1.185 . S
O137 Zn133 2.086 . S
C138 O134 1.278 . S
C138 O139 1.211 . S
O139 C138 1.211 . S
C140 O132 1.284 . S
C140 O141 1.273 . S
O141 C140 1.273 . S
O142 Zn133 1.977 . S
O142 C135 1.267 . S
C143 O144 1.160 . S
C143 O150 1.185 . S
O144 C143 1.160 . S
O145 Zn146 1.899 . S
O145 C153 1.284 . S
Zn146 O145 1.899 . S
Zn146 O147 2.032 . S
Zn146 O150 2.086 . S
Zn146 O155 1.977 . S
O147 Zn146 2.032 . S
O147 C151 1.278 . S
C148 O149 1.203 . S
C148 O155 1.267 . S
O149 C148 1.203 . S
O150 C143 1.185 . S
O150 Zn146 2.086 . S
C151 O147 1.278 . S
C151 O152 1.211 . S
O152 C151 1.211 . S
C153 O145 1.284 . S
C153 O154 1.273 . S
O154 C153 1.273 . S
O155 Zn146 1.977 . S
O155 C148 1.267 . S
C156 O157 1.160 . S
C156 O163 1.185 . S
O157 C156 1.160 . S
O158 Zn159 1.899 . S
O158 C166 1.284 . S
Zn159 O158 1.899 . S
Zn159 O160 2.032 . S
Zn159 O163 2.086 . S
Zn159 O168 1.977 . S
O160 Zn159 2.032 . S
O160 C164 1.278 . S
C161 O162 1.203 . S
C161 O168 1.267 . S
O162 C161 1.203 . S
O163 C156 1.185 . S
O163 Zn159 2.086 . S
C164 O160 1.278 . S
C164 O165 1.211 . S
O165 C164 1.211 . S
C166 O158 1.284 . S
C166 O167 1.273 . S
O167 C166 1.273 . S
O168 Zn159 1.977 . S
O168 C161 1.267 . S
C169 O170 1.160 . S
C169 O176 1.185 . S
O170 C169 1.160 . S
O171 Zn172 1.899 . S
O171 C179 1.284 . S
Zn172 O171 1.899 . S
Zn172 O173 2.032 . S
Zn172 O176 2.086 . S
Zn172 O181 1.977 . S
O173 Zn172 2.032 . S
O173 C177 1.278 . S
C174 O175 1.203 . S
C174 O181 1.267 . S
O175 C174 1.203 . S
O176 C169 1.185 . S
O176 Zn172 2.086 . S
C177 O173 1.278 . S
C177 O178 1.211 . S
O178 C177 1.211 . S
C179 O171 1.284 . S
C179 O180 1.273 . S
O180 C179 1.273 . S
O181 Zn172 1.977 . S
O181 C174 1.267 . S
C182 O183 1.160 . S
C182 O189 1.185 . S
O183 C182 1.160 . S
O184 Zn185 1.899 . S
O184 C192 1.284 . S
Zn185 O184 1.899 . S
Zn185 O186 2.032 . S
Zn185 O189 2.086 . S
Zn185 O194 1.977 . S
O186 Zn185 2.032 . S
O186 C190 1.278 . S
C187 O188 1.203 . S
C187 O194 1.267 . S
O188 C187 1.203 . S
O189 C182 1.185 . S
O189 Zn185 2.086 . S
C190 O186 1.278 . S
C190 O191 1.211 . S
O191 C190 1.211 . S
C192 O184 1.284 . S
C192 O193 1.273 . S
O193 C192 1.273 . S
O194 Zn185 1.977 . S
O194 C187 1.267 . S
C195 O196 1.160 . S
C195 O202 1.185 . S
O196 C195 1.160 . S
O197 Zn198 1.899 . S
O197 C205 1.284 . S
Zn198 O197 1.899 . S
Zn198 O199 2.032 . S
Zn198 O202 2.086 . S
Zn198 O207 1.977 . S
O199 Zn198 2.032 . S
O199 C203 1.278 . S
C200 O201 1.203 . S
C200 O207 1.267 . S
O201 C200 1.203 . S
O202 C195 1.185 . S
O202 Zn198 2.086 . S
C203 O199 1.278 . S
C203 O204 1.211 . S
O204 C203 1.211 . S
C205 O197 1.284 . S
C205 O206 1.273 . S
O206 C205 1.273 . S
O207 Zn198 1.977 . S
O207 C200 1.267 . S
C208 O209 1.160 . S
C208 O215 1.185 . S
O209 C208 1.160 . S
O210 Zn211 1.899 . S
O210 C218 1.284 . S
Zn211 O210 1.899 . S
Zn211 O212 2.032 . S
Zn211 O215 2.086 . S
Zn211 O220 1.977 . S
O212 Zn211 2.032 . S
O212 C216 1.278 . S
C213 O214 1.203 . S
C213 O220 1.267 . S
O214 C213 1.203 . S
O215 C208 1.185 . S
O215 Zn211 2.086 . S
C216 O212 1.278 . S
C216 O217 1.211 . S
O217 C216 1.211 . S
C218 O210 1.284 . S
C218 O219 1.273 . S
O219 C218 1.273 . S
O220 Zn211 1.977 . S
O220 C213 1.267 . S
C221 O222 1.160 . S
C221 O228 1.185 . S
O222 C221 1.160 . S
O223 Zn224 1.899 . S
O223 C231 1.284 . S
Zn224 O223 1.899 . S
Zn224 O225 2.032 . S
Zn224 O228 2.086 . S
Zn224 O233 1.977 . S
O225 Zn224 2.032 . S
O225 C229 1.278 . S
C226 O227 1.203 . S
C226 O233 1.267 . S
O227 C226 1.203 . S
O228 C221 1.185 . S
O228 Zn224 2.086 . S
C229 O225 1.278 . S
C229 O230 1.211 . S
O230 C229 1.211 . S
C231 O223 1.284 . S
C231 O232 1.273 . S
O232 C231 1.273 . S
O233 Zn224 1.977 . S
O233 C226 1.267 . S
C234 O235 1.160 . S
C234 O241 1.185 . S
O235 C234 1.160 . S
O236 Zn237 1.899 . S
O236 C244 1.284 . S
Zn237 O236 1.899 . S
Zn237 O238 2.032 . S
Zn237 O241 2.086 . S
Zn237 O246 1.977 . S
O238 Zn237 2.032 . S
O238 C242 1.278 . S
C239 O240 1.203 . S
C239 O246 1.267 . S
O240 C239 1.203 . S
O241 C234 1.185 . S
O241 Zn237 2.086 . S
C242 O238 1.278 . S
C242 O243 1.211 . S
O243 C242 1.211 . S
C244 O236 1.284 . S
C244 O245 1.273 . S
O245 C244 1.273 . S
O246 Zn237 1.977 . S
O246 C239 1.267 . S
C247 O248 1.160 . S
C247 O254 1.185 . S
O248 C247 1.160 . S
O249 Zn250 1.899 . S
O249 C257 1.284 . S
Zn250 O249 1.899 . S
Zn250 O251 2.032 . S
Zn250 O254 2.086 . S
Zn250 O259 1.977 . S
O251 Zn250 2.032 . S
O251 C255 1.278 . S
C252 O253 1.203 . S
C252 O259 1.267 . S
O253 C252 1.203 . S
O254 C247 1.185 . S
O254 Zn250 2.086 . S
C255 O251 1.278 . S
C255 O256 1.211 . S
O256 C255 1.211 . S
C257 O249 1.284 . S
C257 O258 1.273 . S
O258 C257 1.273 . S
O259 Zn250 1.977 . S
O259 C252 1.267 . S
C260 O261 1.160 . S
C260 O267 1.185 . S
O261 C260 1.160 . S
O262 Zn263 1.899 . S
O262 C270 1.284 . S
Zn263 O262 1.899 . S
Zn263 O264 2.032 . S
Zn263 O267 2.086 . S
Zn263 O272 1.977 . S
O264 Zn263 2.032 . S
O264 C268 1.278 . S
C265 O266 1.203 . S
C265 O272 1.267 . S
O266 C265 1.203 . S
O267 C260 1.185 . S
O267 Zn263 2.086 . S
C268 O264 1.278 . S
C268 O269 1.211 . S
O269 C268 1.211 . S
C270 O262 1.284 . S
C270 O271 1.273 . S
O271 C270 1.273 . S
O272 Zn263 1.977 . S
O272 C265 1.267 . S
C273 O274 1.160 . S
C273 O280 1.185 . S
O274 C273 1.160 . S
O275 Zn276 1.899 1_556 S
O275 C283 1.284 . S
Zn276 O275 1.899 1_554 S
Zn276 O277 2.032 . S
Zn276 O280 2.086 . S
Zn276 O285 1.977 . S
O277 Zn276 2.032 . S
O277 C281 1.278 . S
C278 O279 1.203 1_554 S
C278 O285 1.267 . S
O279 C278 1.203 1_556 S
O280 C273 1.185 . S
O280 Zn276 2.086 . S
C281 O277 1.278 . S
C281 O282 1.211 . S
O282 C281 1.211 . S
C283 O275 1.284 . S
C283 O284 1.273 . S
O284 C283 1.273 . S
O285 Zn276 1.977 . S
O285 C278 1.267 . S
C286 O287 1.160 . S
C286 O293 1.185 . S
O287 C286 1.160 . S
O288 Zn289 1.899 1_556 S
O288 C296 1.284 . S
Zn289 O288 1.899 1_554 S
Zn289 O290 2.032 . S
Zn289 O293 2.086 . S
Zn289 O298 1.977 . S
O290 Zn289 2.032 . S
O290 C294 1.278 . S
C291 O292 1.203 1_554 S
C291 O298 1.267 . S
O292 C291 1.203 1_556 S
O293 C286 1.185 . S
O293 Zn289 2.086 . S
C294 O290 1.278 . S
C294 O295 1.211 . S
O295 C294 1.211 . S
C296 O288 1.284 . S
C296 O297 1.273 . S
O297 C296 1.273 . S
O298 Zn289 1.977 . S
O298 C291 1.267 . S
C299 O300 1.160 . S
C299 O306 1.185 . S
O300 C299 1.160 . S
O301 Zn302 1.899 1_556 S
O301 C309 1.284 . S
Zn302 O301 1.899 1_554 S
Zn302 O303 2.032 . S
Zn302 O306 2.086 . S
Zn302 O311 1.977 . S
O303 Zn302 2.032 . S
O303 C307 1.278 . S
C304 O305 1.203 1_554 S
C304 O311 1.267 . S
O305 C304 1.203 1_556 S
O306 C299 1.185 . S
O306 Zn302 2.086 . S
C307 O303 1.278 . S
C307 O308 1.211 . S
O308 C307 1.211 . S
C309 O301 1.284 . S
C309 O310 1.273 . S
O310 C309 1.273 . S
O311 Zn302 1.977 . S
O311 C304 1.267 . S
C312 O313 1.160 . S
C312 O319 1.185 . S
O313 C312 1.160 . S
O314 Zn315 1.899 . S
O314 C322 1.284 . S
Zn315 O314 1.899 . S
Zn315 O316 2.032 . S
Zn315 O319 2.086 . S
Zn315 O324 1.977 . S
O316 Zn315 2.032 . S
O316 C320 1.278 . S
C317 O318 1.203 . S
C317 O324 1.267 . S
O318 C317 1.203 . S
O319 C312 1.185 . S
O319 Zn315 2.086 . S
C320 O316 1.278 . S
C320 O321 1.211 . S
O321 C320 1.211 . S
C322 O314 1.284 . S
C322 O323 1.273 . S
O323 C322 1.273 . S
O324 Zn315 1.977 . S
O324 C317 1.267 . S
C325 O326 1.160 . S
C325 O332 1.185 . S
O326 C325 1.160 . S
O327 Zn328 1.899 . S
O327 C335 1.284 . S
Zn328 O327 1.899 . S
Zn328 O329 2.032 . S
Zn328 O332 2.086 . S
Zn328 O337 1.977 . S
O329 Zn328 2.032 . S
O329 C333 1.278 . S
C330 O331 1.203 . S
C330 O337 1.267 . S
O331 C330 1.203 . S
O332 C325 1.185 . S
O332 Zn328 2.086 . S
C333 O329 1.278 . S
C333 O334 1.211 . S
O334 C333 1.211 . S
C335 O327 1.284 . S
C335 O336 1.273 . S
O336 C335 1.273 . S
O337 Zn328 1.977 . S
O337 C330 1.267 . S
C338 O339 1.160 . S
C338 O345 1.185 . S
O339 C338 1.160 . S
O340 Zn341 1.899 . S
O340 C348 1.284 . S
Zn341 O340 1.899 . S
Zn341 O342 2.032 . S
Zn341 O345 2.086 . S
Zn341 O350 1.977 . S
O342 Zn341 2.032 . S
O342 C346 1.278 . S
C343 O344 1.203 . S
C343 O350 1.267 . S
O344 C343 1.203 . S
O345 C338 1.185 . S
O345 Zn341 2.086 . S
C346 O342 1.278 . S
C346 O347 1.211 . S
O347 C346 1.211 . S
C348 O340 1.284 . S
C348 O349 1.273 . S
O349 C348 1.273 . S
O350 Zn341 1.977 . S
O350 C343 1.267 . S
C351 O352 1.160 . S
C351 O358 1.185 . S
O352 C351 1.160 . S
O353 Zn354 1.899 1_554 S
O353 C361 1.284 . S
Zn354 O353 1.899 1_556 S
Zn354 O355 2.032 . S
Zn354 O358 2.086 . S
Zn354 O363 1.977 . S
O355 Zn354 2.032 . S
O355 C359 1.278 . S
C356 O357 1.203 1_556 S
C356 O363 1.267 . S
O357 C356 1.203 1_554 S
O358 C351 1.185 . S
O358 Zn354 2.086 . S
C359 O355 1.278 . S
C359 O360 1.211 . S
O360 C359 1.211 . S
C361 O353 1.284 . S
C361 O362 1.273 . S
O362 C361 1.273 . S
O363 Zn354 1.977 . S
O363 C356 1.267 . S
C364 O365 1.160 . S
C364 O371 1.185 . S
O365 C364 1.160 . S
O366 Zn367 1.899 1_554 S
O366 C374 1.284 . S
Zn367 O366 1.899 1_556 S
Zn367 O368 2.032 . S
Zn367 O371 2.086 . S
Zn367 O376 1.977 . S
O368 Zn367 2.032 . S
O368 C372 1.278 . S
C369 O370 1.203 1_556 S
C369 O376 1.267 . S
O370 C369 1.203 1_554 S
O371 C364 1.185 . S
O371 Zn367 2.086 . S
C372 O368 1.278 . S
C372 O373 1.211 . S
O373 C372 1.211 . S
C374 O366 1.284 . S
C374 O375 1.273 . S
O375 C374 1.273 . S
O376 Zn367 1.977 . S
O376 C369 1.267 . S
C377 O378 1.160 . S
C377 O384 1.185 . S
O378 C377 1.160 . S
O379 Zn380 1.899 1_554 S
O379 C387 1.284 . S
Zn380 O379 1.899 1_556 S
Zn380 O381 2.032 . S
Zn380 O384 2.086 . S
Zn380 O389 1.977 . S
O381 Zn380 2.032 . S
O381 C385 1.278 . S
C382 O383 1.203 1_556 S
C382 O389 1.267 . S
O383 C382 1.203 1_554 S
O384 C377 1.185 . S
O384 Zn380 2.086 . S
C385 O381 1.278 . S
C385 O386 1.211 . S
O386 C385 1.211 . S
C387 O379 1.284 . S
C387 O388 1.273 . S
O388 C387 1.273 . S
O389 Zn380 1.977 . S
O389 C382 1.267 . S
C390 O391 1.160 . S
C390 O397 1.185 . S
O391 C390 1.160 . S
O392 Zn393 1.899 . S
O392 C400 1.284 . S
Zn393 O392 1.899 . S
Zn393 O394 2.032 . S
Zn393 O397 2.086 . S
Zn393 O402 1.977 . S
O394 Zn393 2.032 . S
O394 C398 1.278 . S
C395 O396 1.203 . S
C395 O402 1.267 . S
O396 C395 1.203 . S
O397 C390 1.185 . S
O397 Zn393 2.086 . S
C398 O394 1.278 . S
C398 O399 1.211 . S
O399 C398 1.211 . S
C400 O392 1.284 . S
C400 O401 1.273 . S
O401 C400 1.273 . S
O402 Zn393 1.977 . S
O402 C395 1.267 . S
C403 O404 1.160 . S
C403 O410 1.185 . S
O404 C403 1.160 . S
O405 Zn406 1.899 . S
O405 C413 1.284 . S
Zn406 O405 1.899 . S
Zn406 O407 2.032 . S
Zn406 O410 2.086 . S
Zn406 O415 1.977 . S
O407 Zn406 2.032 . S
O407 C411 1.278 . S
C408 O409 1.203 . S
C408 O415 1.267 . S
O409 C408 1.203 . S
O410 C403 1.185 . S
O410 Zn406 2.086 . S
C411 O407 1.278 . S
C411 O412 1.211 . S
O412 C411 1.211 . S
C413 O405 1.284 . S
C413 O414 1.273 . S
O414 C413 1.273 . S
O415 Zn406 1.977 . S
O415 C408 1.267 . S
C416 O417 1.160 . S
C416 O423 1.185 . S
O417 C416 1.160 . S
O418 Zn419 1.899 . S
O418 C426 1.284 . S
Zn419 O418 1.899 . S
Zn419 O420 2.032 . S
Zn419 O423 2.086 . S
Zn419 O428 1.977 . S
O420 Zn419 2.032 . S
O420 C424 1.278 . S
C421 O422 1.203 . S
C421 O428 1.267 . S
O422 C421 1.203 . S
O423 C416 1.185 . S
O423 Zn419 2.086 . S
C424 O420 1.278 . S
C424 O425 1.211 . S
O425 C424 1.211 . S
C426 O418 1.284 . S
C426 O427 1.273 . S
O427 C426 1.273 . S
O428 Zn419 1.977 . S
O428 C421 1.267 . S
C429 O430 1.160 . S
C429 O436 1.185 . S
O430 C429 1.160 . S
O431 Zn432 1.899 . S
O431 C439 1.284 . S
Zn432 O431 1.899 . S
Zn432 O433 2.032 . S
Zn432 O436 2.086 . S
Zn432 O441 1.977 . S
O433 Zn432 2.032 . S
O433 C437 1.278 . S
C434 O435 1.203 . S
C434 O441 1.267 . S
O435 C434 1.203 . S
O436 C429 1.185 . S
O436 Zn432 2.086 . S
C437 O433 1.278 . S
C437 O438 1.211 . S
O438 C437 1.211 . S
C439 O431 1.284 . S
C439 O440 1.273 . S
O440 C439 1.273 . S
O441 Zn432 1.977 . S
O441 C434 1.267 . S
C442 O443 1.160 . S
C442 O449 1.185 . S
O443 C442 1.160 . S
O444 Zn445 1.899 . S
O444 C452 1.284 . S
Zn445 O444 1.899 . S
Zn445 O446 2.032 . S
Zn445 O449 2.086 . S
Zn445 O454 1.977 . S
O446 Zn445 2.032 . S
O446 C450 1.278 . S
C447 O448 1.203 . S
C447 O454 1.267 . S
O448 C447 1.203 . S
O449 C442 1.185 . S
O449 Zn445 2.086 . S
C450 O446 1.278 . S
C450 O451 1.211 . S
O451 C450 1.211 . S
C452 O444 1.284 . S
C452 O453 1.273 . S
O453 C452 1.273 . S
O454 Zn445 1.977 . S
O454 C447 1.267 . S
C455 O456 1.160 . S
C455 O462 1.185 . S
O456 C455 1.160 . S
O457 Zn458 1.899 . S
O457 C465 1.284 . S
Zn458 O457 1.899 . S
Zn458 O459 2.032 . S
Zn458 O462 2.086 . S
Zn458 O467 1.977 . S
O459 Zn458 2.032 . S
O459 C463 1.278 . S
C460 O461 1.203 . S
C460 O467 1.267 . S
O461 C460 1.203 . S
O462 C455 1.185 . S
O462 Zn458 2.086 . S
C463 O459 1.278 . S
C463 O464 1.211 . S
O464 C463 1.211 . S
C465 O457 1.284 . S
C465 O466 1.273 . S
O466 C465 1.273 . S
O467 Zn458 1.977 . S
O467 C460 1.267 . S
C468 C469 1.387 . S
C468 H472 0.950 . S
C468 C477 1.390 . S
C469 C468 1.387 . S
C469 C471 1.387 . S
H470 C477 0.950 1_554 S
C471 C469 1.387 . S
C471 C473 1.390 . S
C471 H475 0.950 . S
H472 C468 0.950 . S
C473 C471 1.390 . S
C473 C474 1.387 1_556 S
C473 H476 0.950 1_556 S
C474 C473 1.387 1_554 S
C474 C477 1.387 1_554 S
H475 C471 0.950 . S
H476 C473 0.950 1_554 S
C477 C468 1.390 . S
C477 H470 0.950 1_556 S
C477 C474 1.387 1_556 S
C478 C479 1.387 . S
C478 H482 0.950 . S
C478 C487 1.390 . S
C479 C478 1.387 . S
C479 C481 1.387 . S
H480 C487 0.950 1_554 S
C481 C479 1.387 . S
C481 C483 1.390 . S
C481 H485 0.950 . S
H482 C478 0.950 . S
C483 C481 1.390 . S
C483 C484 1.387 1_556 S
C483 H486 0.950 1_556 S
C484 C483 1.387 1_554 S
C484 C487 1.387 1_554 S
H485 C481 0.950 . S
H486 C483 0.950 1_554 S
C487 C478 1.390 . S
C487 H480 0.950 1_556 S
C487 C484 1.387 1_556 S
C488 C489 1.387 1_556 S
C488 H492 0.950 1_556 S
C488 C497 1.390 . S
C489 C488 1.387 1_554 S
C489 C491 1.387 1_554 S
H490 C497 0.950 . S
C491 C489 1.387 1_556 S
C491 C493 1.390 . S
C491 H495 0.950 1_556 S
H492 C488 0.950 1_554 S
C493 C491 1.390 . S
C493 C494 1.387 . S
C493 H496 0.950 . S
C494 C493 1.387 . S
C494 C497 1.387 . S
H495 C491 0.950 1_554 S
H496 C493 0.950 . S
C497 C488 1.390 . S
C497 H490 0.950 . S
C497 C494 1.387 . S
C498 C499 1.387 . S
C498 H502 0.950 . S
C498 C507 1.390 . S
C499 C498 1.387 . S
C499 C501 1.387 . S
H500 C507 0.950 . S
C501 C499 1.387 . S
C501 C503 1.390 . S
C501 H505 0.950 . S
H502 C498 0.950 . S
C503 C501 1.390 . S
C503 C504 1.387 . S
C503 H506 0.950 . S
C504 C503 1.387 . S
C504 C507 1.387 . S
H505 C501 0.950 . S
H506 C503 0.950 . S
C507 C498 1.390 . S
C507 H500 0.950 . S
C507 C504 1.387 . S
C508 C509 1.387 . S
C508 H512 0.950 . S
C508 C517 1.390 . S
C509 C508 1.387 . S
C509 C511 1.387 . S
H510 C517 0.950 . S
C511 C509 1.387 . S
C511 C513 1.390 . S
C511 H515 0.950 . S
H512 C508 0.950 . S
C513 C511 1.390 . S
C513 C514 1.387 . S
C513 H516 0.950 . S
C514 C513 1.387 . S
C514 C517 1.387 . S
H515 C511 0.950 . S
H516 C513 0.950 . S
C517 C508 1.390 . S
C517 H510 0.950 . S
C517 C514 1.387 . S
C518 C519 1.387 . S
C518 H522 0.950 . S
C518 C527 1.390 . S
C519 C518 1.387 . S
C519 C521 1.387 . S
H520 C527 0.950 . S
C521 C519 1.387 . S
C521 C523 1.390 . S
C521 H525 0.950 . S
H522 C518 0.950 . S
C523 C521 1.390 . S
C523 C524 1.387 . S
C523 H526 0.950 . S
C524 C523 1.387 . S
C524 C527 1.387 . S
H525 C521 0.950 . S
H526 C523 0.950 . S
C527 C518 1.390 . S
C527 H520 0.950 . S
C527 C524 1.387 . S
C528 C529 1.387 . S
C528 H532 0.950 . S
C528 C537 1.390 . S
C529 C528 1.387 . S
C529 C531 1.387 . S
H530 C537 0.950 1_556 S
C531 C529 1.387 . S
C531 C533 1.390 . S
C531 H535 0.950 . S
H532 C528 0.950 . S
C533 C531 1.390 . S
C533 C534 1.387 1_554 S
C533 H536 0.950 1_554 S
C534 C533 1.387 1_556 S
C534 C537 1.387 1_556 S
H535 C531 0.950 . S
H536 C533 0.950 1_556 S
C537 C528 1.390 . S
C537 H530 0.950 1_554 S
C537 C534 1.387 1_554 S
C538 C539 1.387 . S
C538 H542 0.950 . S
C538 C547 1.390 . S
C539 C538 1.387 . S
C539 C541 1.387 . S
H540 C547 0.950 1_556 S
C541 C539 1.387 . S
C541 C543 1.390 . S
C541 H545 0.950 . S
H542 C538 0.950 . S
C543 C541 1.390 . S
C543 C544 1.387 1_554 S
C543 H546 0.950 1_554 S
C544 C543 1.387 1_556 S
C544 C547 1.387 1_556 S
H545 C541 0.950 . S
H546 C543 0.950 1_556 S
C547 C538 1.390 . S
C547 H540 0.950 1_554 S
C547 C544 1.387 1_554 S
C548 C549 1.387 1_554 S
C548 H552 0.950 1_554 S
C548 C557 1.390 . S
C549 C548 1.387 1_556 S
C549 C551 1.387 1_556 S
H550 C557 0.950 . S
C551 C549 1.387 1_554 S
C551 C553 1.390 . S
C551 H555 0.950 1_554 S
H552 C548 0.950 1_556 S
C553 C551 1.390 . S
C553 C554 1.387 . S
C553 H556 0.950 . S
C554 C553 1.387 . S
C554 C557 1.387 . S
H555 C551 0.950 1_556 S
H556 C553 0.950 . S
C557 C548 1.390 . S
C557 H550 0.950 . S
C557 C554 1.387 . S
C558 C559 1.387 . S
C558 H562 0.950 . S
C558 C567 1.390 . S
C559 C558 1.387 . S
C559 C561 1.387 . S
H560 C567 0.950 . S
C561 C559 1.387 . S
C561 C563 1.390 . S
C561 H565 0.950 . S
H562 C558 0.950 . S
C563 C561 1.390 . S
C563 C564 1.387 . S
C563 H566 0.950 . S
C564 C563 1.387 . S
C564 C567 1.387 . S
H565 C561 0.950 . S
H566 C563 0.950 . S
C567 C558 1.390 . S
C567 H560 0.950 . S
C567 C564 1.387 . S
C568 C569 1.387 . S
C568 H572 0.950 . S
C568 C577 1.390 . S
C569 C568 1.387 . S
C569 C571 1.387 . S
H570 C577 0.950 . S
C571 C569 1.387 . S
C571 C573 1.390 . S
C571 H575 0.950 . S
H572 C568 0.950 . S
C573 C571 1.390 . S
C573 C574 1.387 . S
C573 H576 0.950 . S
C574 C573 1.387 . S
C574 C577 1.387 . S
H575 C571 0.950 . S
H576 C573 0.950 . S
C577 C568 1.390 . S
C577 H570 0.950 . S
C577 C574 1.387 . S
C578 C579 1.387 . S
C578 H582 0.950 . S
C578 C587 1.390 . S
C579 C578 1.387 . S
C579 C581 1.387 . S
H580 C587 0.950 . S
C581 C579 1.387 . S
C581 C583 1.390 . S
C581 H585 0.950 . S
H582 C578 0.950 . S
C583 C581 1.390 . S
C583 C584 1.387 . S
C583 H586 0.950 . S
C584 C583 1.387 . S
C584 C587 1.387 . S
H585 C581 0.950 . S
H586 C583 0.950 . S
C587 C578 1.390 . S
C587 H580 0.950 . S
C587 C584 1.387 . S
C588 C589 1.387 . S
C588 H592 0.950 . S
C588 C597 1.390 . S
C589 C588 1.387 . S
C589 C591 1.387 . S
H590 C597 0.950 . S
C591 C589 1.387 . S
C591 C593 1.390 . S
C591 H595 0.950 . S
H592 C588 0.950 . S
C593 C591 1.390 . S
C593 C594 1.387 . S
C593 H596 0.950 . S
C594 C593 1.387 . S
C594 C597 1.387 . S
H595 C591 0.950 . S
H596 C593 0.950 . S
C597 C588 1.390 . S
C597 H590 0.950 . S
C597 C594 1.387 . S
C598 C599 1.387 . S
C598 H602 0.950 . S
C598 C607 1.390 . S
C599 C598 1.387 . S
C599 C601 1.387 . S
H600 C607 0.950 . S
C601 C599 1.387 . S
C601 C603 1.390 . S
C601 H605 0.950 . S
H602 C598 0.950 . S
C603 C601 1.390 . S
C603 C604 1.387 . S
C603 H606 0.950 . S
C604 C603 1.387 . S
C604 C607 1.387 . S
H605 C601 0.950 . S
H606 C603 0.950 . S
C607 C598 1.390 . S
C607 H600 0.950 . S
C607 C604 1.387 . S
C608 C609 1.387 . S
C608 H612 0.950 . S
C608 C617 1.390 . S
C609 C608 1.387 . S
C609 C611 1.387 . S
H610 C617 0.950 . S
C611 C609 1.387 . S
C611 C613 1.390 . S
C611 H615 0.950 . S
H612 C608 0.950 . S
C613 C611 1.390 . S
C613 C614 1.387 . S
C613 H616 0.950 . S
C614 C613 1.387 . S
C614 C617 1.387 . S
H615 C611 0.950 . S
H616 C613 0.950 . S
C617 C608 1.390 . S
C617 H610 0.950 . S
C617 C614 1.387 . S
C618 C619 1.387 . S
C618 H622 0.950 . S
C618 C627 1.390 . S
C619 C618 1.387 . S
C619 C621 1.387 . S
H620 C627 0.950 . S
C621 C619 1.387 . S
C621 C623 1.390 . S
C621 H625 0.950 . S
H622 C618 0.950 . S
C623 C621 1.390 . S
C623 C624 1.387 . S
C623 H626 0.950 . S
C624 C623 1.387 . S
C624 C627 1.387 . S
H625 C621 0.950 . S
H626 C623 0.950 . S
C627 C618 1.390 . S
C627 H620 0.950 . S
C627 C624 1.387 . S
C628 C629 1.387 . S
C628 H632 0.950 . S
C628 C637 1.390 . S
C629 C628 1.387 . S
C629 C631 1.387 . S
H630 C637 0.950 . S
C631 C629 1.387 . S
C631 C633 1.390 . S
C631 H635 0.950 . S
H632 C628 0.950 . S
C633 C631 1.390 . S
C633 C634 1.387 . S
C633 H636 0.950 . S
C634 C633 1.387 . S
C634 C637 1.387 . S
H635 C631 0.950 . S
H636 C633 0.950 . S
C637 C628 1.390 . S
C637 H630 0.950 . S
C637 C634 1.387 . S
C638 C639 1.387 . S
C638 H642 0.950 . S
C638 C647 1.390 . S
C639 C638 1.387 . S
C639 C641 1.387 . S
H640 C647 0.950 . S
C641 C639 1.387 . S
C641 C643 1.390 . S
C641 H645 0.950 . S
H642 C638 0.950 . S
C643 C641 1.390 . S
C643 C644 1.387 . S
C643 H646 0.950 . S
C644 C643 1.387 . S
C644 C647 1.387 . S
H645 C641 0.950 . S
H646 C643 0.950 . S
C647 C638 1.390 . S
C647 H640 0.950 . S
C647 C644 1.387 . S
C648 C649 1.387 . S
C648 H652 0.950 . S
C648 C657 1.390 . S
C649 C648 1.387 . S
C649 C651 1.387 . S
H650 C657 0.950 . S
C651 C649 1.387 . S
C651 C653 1.390 . S
C651 H655 0.950 . S
H652 C648 0.950 . S
C653 C651 1.390 . S
C653 C654 1.387 . S
C653 H656 0.950 . S
C654 C653 1.387 . S
C654 C657 1.387 . S
H655 C651 0.950 . S
H656 C653 0.950 . S
C657 C648 1.390 . S
C657 H650 0.950 . S
C657 C654 1.387 . S
C658 C659 1.387 . S
C658 H662 0.950 . S
C658 C667 1.390 . S
C659 C658 1.387 . S
C659 C661 1.387 . S
H660 C667 0.950 . S
C661 C659 1.387 . S
C661 C663 1.390 . S
C661 H665 0.950 . S
H662 C658 0.950 . S
C663 C661 1.390 . S
C663 C664 1.387 . S
C663 H666 0.950 . S
C664 C663 1.387 . S
C664 C667 1.387 . S
H665 C661 0.950 . S
H666 C663 0.950 . S
C667 C658 1.390 . S
C667 H660 0.950 . S
C667 C664 1.387 . S
C668 C669 1.387 . S
C668 H672 0.950 . S
C668 C677 1.390 . S
C669 C668 1.387 . S
C669 C671 1.387 . S
H670 C677 0.950 . S
C671 C669 1.387 . S
C671 C673 1.390 . S
C671 H675 0.950 . S
H672 C668 0.950 . S
C673 C671 1.390 . S
C673 C674 1.387 . S
C673 H676 0.950 . S
C674 C673 1.387 . S
C674 C677 1.387 . S
H675 C671 0.950 . S
H676 C673 0.950 . S
C677 C668 1.390 . S
C677 H670 0.950 . S
C677 C674 1.387 . S
C678 C679 1.387 . S
C678 H682 0.950 . S
C678 C687 1.390 . S
C679 C678 1.387 . S
C679 C681 1.387 . S
H680 C687 0.950 . S
C681 C679 1.387 . S
C681 C683 1.390 . S
C681 H685 0.950 . S
H682 C678 0.950 . S
C683 C681 1.390 . S
C683 C684 1.387 . S
C683 H686 0.950 . S
C684 C683 1.387 . S
C684 C687 1.387 . S
H685 C681 0.950 . S
H686 C683 0.950 . S
C687 C678 1.390 . S
C687 H680 0.950 . S
C687 C684 1.387 . S
C688 C689 1.387 . S
C688 H692 0.950 . S
C688 C697 1.390 . S
C689 C688 1.387 . S
C689 C691 1.387 . S
H690 C697 0.950 . S
C691 C689 1.387 . S
C691 C693 1.390 . S
C691 H695 0.950 . S
H692 C688 0.950 . S
C693 C691 1.390 . S
C693 C694 1.387 . S
C693 H696 0.950 . S
C694 C693 1.387 . S
C694 C697 1.387 . S
H695 C691 0.950 . S
H696 C693 0.950 . S
C697 C688 1.390 . S
C697 H690 0.950 . S
C697 C694 1.387 . S
C698 C699 1.387 . S
C698 H702 0.950 . S
C698 C707 1.390 . S
C699 C698 1.387 . S
C699 C701 1.387 . S
H700 C707 0.950 . S
C701 C699 1.387 . S
C701 C703 1.390 . S
C701 H705 0.950 . S
H702 C698 0.950 . S
C703 C701 1.390 . S
C703 C704 1.387 . S
C703 H706 0.950 . S
C704 C703 1.387 . S
C704 C707 1.387 . S
H705 C701 0.950 . S
H706 C703 0.950 . S
C707 C698 1.390 . S
C707 H700 0.950 . S
C707 C704 1.387 . S
C708 C709 1.387 . S
C708 H712 0.950 . S
C708 C717 1.390 . S
C709 C708 1.387 . S
C709 C711 1.387 . S
H710 C717 0.950 . S
C711 C709 1.387 . S
C711 C713 1.390 . S
C711 H715 0.950 . S
H712 C708 0.950 . S
C713 C711 1.390 . S
C713 C714 1.387 . S
C713 H716 0.950 . S
C714 C713 1.387 . S
C714 C717 1.387 . S
H715 C711 0.950 . S
H716 C713 0.950 . S
C717 C708 1.390 . S
C717 H710 0.950 . S
C717 C714 1.387 . S
C718 C719 1.387 . S
C718 H722 0.950 . S
C718 C727 1.390 . S
C719 C718 1.387 . S
C719 C721 1.387 . S
H720 C727 0.950 . S
C721 C719 1.387 . S
C721 C723 1.390 . S
C721 H725 0.950 . S
H722 C718 0.950 . S
C723 C721 1.390 . S
C723 C724 1.387 . S
C723 H726 0.950 . S
C724 C723 1.387 . S
C724 C727 1.387 . S
H725 C721 0.950 . S
H726 C723 0.950 . S
C727 C718 1.390 . S
C727 H720 0.950 . S
C727 C724 1.387 . S
C728 C729 1.387 . S
C728 H732 0.950 . S
C728 C737 1.390 . S
C729 C728 1.387 . S
C729 C731 1.387 . S
H730 C737 0.950 . S
C731 C729 1.387 . S
C731 C733 1.390 . S
C731 H735 0.950 . S
H732 C728 0.950 . S
C733 C731 1.390 . S
C733 C734 1.387 . S
C733 H736 0.950 . S
C734 C733 1.387 . S
C734 C737 1.387 . S
H735 C731 0.950 . S
H736 C733 0.950 . S
C737 C728 1.390 . S
C737 H730 0.950 . S
C737 C734 1.387 . S
C738 C739 1.387 . S
C738 H742 0.950 . S
C738 C747 1.390 . S
C739 C738 1.387 . S
C739 C741 1.387 . S
H740 C747 0.950 . S
C741 C739 1.387 . S
C741 C743 1.390 . S
C741 H745 0.950 . S
H742 C738 0.950 . S
C743 C741 1.390 . S
C743 C744 1.387 . S
C743 H746 0.950 . S
C744 C743 1.387 . S
C744 C747 1.387 . S
H745 C741 0.950 . S
H746 C743 0.950 . S
C747 C738 1.390 . S
C747 H740 0.950 . S
C747 C744 1.387 . S
C748 C749 1.387 . S
C748 H752 0.950 . S
C748 C757 1.390 . S
C749 C748 1.387 . S
C749 C751 1.387 . S
H750 C757 0.950 . S
C751 C749 1.387 . S
C751 C753 1.390 . S
C751 H755 0.950 . S
H752 C748 0.950 . S
C753 C751 1.390 . S
C753 C754 1.387 . S
C753 H756 0.950 . S
C754 C753 1.387 . S
C754 C757 1.387 . S
H755 C751 0.950 . S
H756 C753 0.950 . S
C757 C748 1.390 . S
C757 H750 0.950 . S
C757 C754 1.387 . S
C758 C759 1.387 . S
C758 H762 0.950 . S
C758 C767 1.390 . S
C759 C758 1.387 . S
C759 C761 1.387 . S
H760 C767 0.950 . S
C761 C759 1.387 . S
C761 C763 1.390 . S
C761 H765 0.950 . S
H762 C758 0.950 . S
C763 C761 1.390 . S
C763 C764 1.387 . S
C763 H766 0.950 . S
C764 C763 1.387 . S
C764 C767 1.387 . S
H765 C761 0.950 . S
H766 C763 0.950 . S
C767 C758 1.390 . S
C767 H760 0.950 . S
C767 C764 1.387 . S
C768 C769 1.387 . S
C768 H772 0.950 . S
C768 C777 1.390 . S
C769 C768 1.387 . S
C769 C771 1.387 . S
H770 C777 0.950 . S
C771 C769 1.387 . S
C771 C773 1.390 . S
C771 H775 0.950 . S
H772 C768 0.950 . S
C773 C771 1.390 . S
C773 C774 1.387 . S
C773 H776 0.950 . S
C774 C773 1.387 . S
C774 C777 1.387 . S
H775 C771 0.950 . S
H776 C773 0.950 . S
C777 C768 1.390 . S
C777 H770 0.950 . S
C777 C774 1.387 . S
C778 C779 1.387 . S
C778 H782 0.950 . S
C778 C787 1.390 . S
C779 C778 1.387 . S
C779 C781 1.387 . S
H780 C787 0.950 . S
C781 C779 1.387 . S
C781 C783 1.390 . S
C781 H785 0.950 . S
H782 C778 0.950 . S
C783 C781 1.390 . S
C783 C784 1.387 . S
C783 H786 0.950 . S
C784 C783 1.387 . S
C784 C787 1.387 . S
H785 C781 0.950 . S
H786 C783 0.950 . S
C787 C778 1.390 . S
C787 H780 0.950 . S
C787 C784 1.387 . S
C788 C789 1.387 . S
C788 H792 0.950 . S
C788 C797 1.390 . S
C789 C788 1.387 . S
C789 C791 1.387 . S
H790 C797 0.950 . S
C791 C789 1.387 . S
C791 C793 1.390 . S
C791 H795 0.950 . S
H792 C788 0.950 . S
C793 C791 1.390 . S
C793 C794 1.387 . S
C793 H796 0.950 . S
C794 C793 1.387 . S
C794 C797 1.387 . S
H795 C791 0.950 . S
H796 C793 0.950 . S
C797 C788 1.390 . S
C797 H790 0.950 . S
C797 C794 1.387 . S
C798 C799 1.387 . S
C798 H802 0.950 . S
C798 C807 1.390 . S
C799 C798 1.387 . S
C799 C801 1.387 . S
H800 C807 0.950 . S
C801 C799 1.387 . S
C801 C803 1.390 . S
C801 H805 0.950 . S
H802 C798 0.950 . S
C803 C801 1.390 . S
C803 C804 1.387 . S
C803 H806 0.950 . S
C804 C803 1.387 . S
C804 C807 1.387 . S
H805 C801 0.950 . S
H806 C803 0.950 . S
C807 C798 1.390 . S
C807 H800 0.950 . S
C807 C804 1.387 . S
C808 C809 1.387 . S
C808 H812 0.950 . S
C808 C817 1.390 . S
C809 C808 1.387 . S
C809 C811 1.387 . S
H810 C817 0.950 . S
C811 C809 1.387 . S
C811 C813 1.390 . S
C811 H815 0.950 . S
H812 C808 0.950 . S
C813 C811 1.390 . S
C813 C814 1.387 . S
C813 H816 0.950 . S
C814 C813 1.387 . S
C814 C817 1.387 . S
H815 C811 0.950 . S
H816 C813 0.950 . S
C817 C808 1.390 . S
C817 H810 0.950 . S
C817 C814 1.387 . S
C818 C819 1.387 . S
C818 H822 0.950 . S
C818 C827 1.390 . S
C819 C818 1.387 . S
C819 C821 1.387 . S
H820 C827 0.950 . S
C821 C819 1.387 . S
C821 C823 1.390 . S
C821 H825 0.950 . S
H822 C818 0.950 . S
C823 C821 1.390 . S
C823 C824 1.387 . S
C823 H826 0.950 . S
C824 C823 1.387 . S
C824 C827 1.387 . S
H825 C821 0.950 . S
H826 C823 0.950 . S
C827 C818 1.390 . S
C827 H820 0.950 . S
C827 C824 1.387 . S
C828 C829 1.387 . S
C828 H832 0.950 . S
C828 C837 1.390 . S
C829 C828 1.387 . S
C829 C831 1.387 . S
H830 C837 0.950 . S
C831 C829 1.387 . S
C831 C833 1.390 . S
C831 H835 0.950 . S
H832 C828 0.950 . S
C833 C831 1.390 . S
C833 C834 1.387 . S
C833 H836 0.950 . S
C834 C833 1.387 . S
C834 C837 1.387 . S
H835 C831 0.950 . S
H836 C833 0.950 . S
C837 C828 1.390 . S
C837 H830 0.950 . S
C837 C834 1.387 . S
C838 C839 1.387 . S
C838 H842 0.950 . S
C838 C847 1.390 1_565 S
C839 C838 1.387 . S
C839 C841 1.387 . S
H840 C847 0.950 . S
C841 C839 1.387 . S
C841 C843 1.390 1_565 S
C841 H845 0.950 . S
H842 C838 0.950 . S
C843 C841 1.390 1_545 S
C843 C844 1.387 . S
C843 H846 0.950 . S
C844 C843 1.387 . S
C844 C847 1.387 . S
H845 C841 0.950 . S
H846 C843 0.950 . S
C847 C838 1.390 1_545 S
C847 H840 0.950 . S
C847 C844 1.387 . S
C848 C849 1.387 . S
C848 H852 0.950 . S
C848 C857 1.390 1_655 S
C849 C848 1.387 . S
C849 C851 1.387 . S
H850 C857 0.950 . S
C851 C849 1.387 . S
C851 C853 1.390 1_655 S
C851 H855 0.950 . S
H852 C848 0.950 . S
C853 C851 1.390 1_455 S
C853 C854 1.387 . S
C853 H856 0.950 . S
C854 C853 1.387 . S
C854 C857 1.387 . S
H855 C851 0.950 . S
H856 C853 0.950 . S
C857 C848 1.390 1_455 S
C857 H850 0.950 . S
C857 C854 1.387 . S
C858 C859 1.387 . S
C858 H862 0.950 . S
C858 C867 1.390 . S
C859 C858 1.387 . S
C859 C861 1.387 . S
H860 C867 0.950 . S
C861 C859 1.387 . S
C861 C863 1.390 . S
C861 H865 0.950 . S
H862 C858 0.950 . S
C863 C861 1.390 . S
C863 C864 1.387 . S
C863 H866 0.950 . S
C864 C863 1.387 . S
C864 C867 1.387 . S
H865 C861 0.950 . S
H866 C863 0.950 . S
C867 C858 1.390 . S
C867 H860 0.950 . S
C867 C864 1.387 . S
C868 C869 1.387 . S
C868 H872 0.950 . S
C868 C877 1.390 1_545 S
C869 C868 1.387 . S
C869 C871 1.387 . S
H870 C877 0.950 . S
C871 C869 1.387 . S
C871 C873 1.390 1_545 S
C871 H875 0.950 . S
H872 C868 0.950 . S
C873 C871 1.390 1_565 S
C873 C874 1.387 . S
C873 H876 0.950 . S
C874 C873 1.387 . S
C874 C877 1.387 . S
H875 C871 0.950 . S
H876 C873 0.950 . S
C877 C868 1.390 1_565 S
C877 H870 0.950 . S
C877 C874 1.387 . S
C878 C879 1.387 . S
C878 H882 0.950 . S
C878 C887 1.390 1_655 S
C879 C878 1.387 . S
C879 C881 1.387 . S
H880 C887 0.950 . S
C881 C879 1.387 . S
C881 C883 1.390 1_655 S
C881 H885 0.950 . S
H882 C878 0.950 . S
C883 C881 1.390 1_455 S
C883 C884 1.387 . S
C883 H886 0.950 . S
C884 C883 1.387 . S
C884 C887 1.387 . S
H885 C881 0.950 . S
H886 C883 0.950 . S
C887 C878 1.390 1_455 S
C887 H880 0.950 . S
C887 C884 1.387 . S
C888 C889 1.387 . S
C888 H892 0.950 . S
C888 C897 1.390 . S
C889 C888 1.387 . S
C889 C891 1.387 . S
H890 C897 0.950 . S
C891 C889 1.387 . S
C891 C893 1.390 . S
C891 H895 0.950 . S
H892 C888 0.950 . S
C893 C891 1.390 . S
C893 C894 1.387 . S
C893 H896 0.950 . S
C894 C893 1.387 . S
C894 C897 1.387 . S
H895 C891 0.950 . S
H896 C893 0.950 . S
C897 C888 1.390 . S
C897 H890 0.950 . S
C897 C894 1.387 . S
C898 C899 1.387 . S
C898 H902 0.950 . S
C898 C907 1.390 . S
C899 C898 1.387 . S
C899 C901 1.387 . S
H900 C907 0.950 . S
C901 C899 1.387 . S
C901 C903 1.390 . S
C901 H905 0.950 . S
H902 C898 0.950 . S
C903 C901 1.390 . S
C903 C904 1.387 . S
C903 H906 0.950 . S
C904 C903 1.387 . S
C904 C907 1.387 . S
H905 C901 0.950 . S
H906 C903 0.950 . S
C907 C898 1.390 . S
C907 H900 0.950 . S
C907 C904 1.387 . S
C908 C909 1.387 . S
C908 H912 0.950 . S
C908 C917 1.390 . S
C909 C908 1.387 . S
C909 C911 1.387 . S
H910 C917 0.950 . S
C911 C909 1.387 . S
C911 C913 1.390 . S
C911 H915 0.950 . S
H912 C908 0.950 . S
C913 C911 1.390 . S
C913 C914 1.387 . S
C913 H916 0.950 . S
C914 C913 1.387 . S
C914 C917 1.387 . S
H915 C911 0.950 . S
H916 C913 0.950 . S
C917 C908 1.390 . S
C917 H910 0.950 . S
C917 C914 1.387 . S
C918 C919 1.387 . S
C918 H922 0.950 . S
C918 C927 1.390 . S
C919 C918 1.387 . S
C919 C921 1.387 . S
H920 C927 0.950 . S
C921 C919 1.387 . S
C921 C923 1.390 . S
C921 H925 0.950 1_554 S
H922 C918 0.950 . S
C923 C921 1.390 . S
C923 C924 1.387 . S
C923 H926 0.950 1_554 S
C924 C923 1.387 . S
C924 C927 1.387 . S
H925 C921 0.950 1_556 S
H926 C923 0.950 1_556 S
C927 C918 1.390 . S
C927 H920 0.950 . S
C927 C924 1.387 . S
C928 C929 1.387 . S
C928 H932 0.950 . S
C928 C937 1.390 . S
C929 C928 1.387 . S
C929 C931 1.387 . S
H930 C937 0.950 . S
C931 C929 1.387 . S
C931 C933 1.390 . S
C931 H935 0.950 . S
H932 C928 0.950 . S
C933 C931 1.390 . S
C933 C934 1.387 . S
C933 H936 0.950 . S
C934 C933 1.387 . S
C934 C937 1.387 . S
H935 C931 0.950 . S
H936 C933 0.950 . S
C937 C928 1.390 . S
C937 H930 0.950 . S
C937 C934 1.387 . S
C938 C939 1.387 . S
C938 H942 0.950 . S
C938 C947 1.390 . S
C939 C938 1.387 . S
C939 C941 1.387 . S
H940 C947 0.950 1_556 S
C941 C939 1.387 . S
C941 C943 1.390 . S
C941 H945 0.950 . S
H942 C938 0.950 . S
C943 C941 1.390 . S
C943 C944 1.387 . S
C943 H946 0.950 . S
C944 C943 1.387 . S
C944 C947 1.387 . S
H945 C941 0.950 . S
H946 C943 0.950 . S
C947 C938 1.390 . S
C947 H940 0.950 1_554 S
C947 C944 1.387 . S
C948 C949 1.387 . S
C948 H952 0.950 . S
C948 C957 1.390 . S
C949 C948 1.387 . S
C949 C951 1.387 . S
H950 C957 0.950 . S
C951 C949 1.387 . S
C951 C953 1.390 . S
C951 H955 0.950 1_556 S
H952 C948 0.950 . S
C953 C951 1.390 . S
C953 C954 1.387 . S
C953 H956 0.950 . S
C954 C953 1.387 . S
C954 C957 1.387 . S
H955 C951 0.950 1_554 S
H956 C953 0.950 . S
C957 C948 1.390 . S
C957 H950 0.950 . S
C957 C954 1.387 . S
C958 C959 1.387 . S
C958 H962 0.950 . S
C958 C967 1.390 . S
C959 C958 1.387 . S
C959 C961 1.387 . S
H960 C967 0.950 . S
C961 C959 1.387 . S
C961 C963 1.390 . S
C961 H965 0.950 . S
H962 C958 0.950 . S
C963 C961 1.390 . S
C963 C964 1.387 . S
C963 H966 0.950 . S
C964 C963 1.387 . S
C964 C967 1.387 . S
H965 C961 0.950 . S
H966 C963 0.950 . S
C967 C958 1.390 . S
C967 H960 0.950 . S
C967 C964 1.387 . S
C968 C969 1.387 . S
C968 H972 0.950 . S
C968 C977 1.390 . S
C969 C968 1.387 . S
C969 C971 1.387 . S
H970 C977 0.950 . S
C971 C969 1.387 . S
C971 C973 1.390 . S
C971 H975 0.950 . S
H972 C968 0.950 . S
C973 C971 1.390 . S
C973 C974 1.387 . S
C973 H976 0.950 1_556 S
C974 C973 1.387 . S
C974 C977 1.387 . S
H975 C971 0.950 . S
H976 C973 0.950 1_554 S
C977 C968 1.390 . S
C977 H970 0.950 . S
C977 C974 1.387 . S
C978 C979 1.387 . S
C978 H982 0.950 . S
C978 C987 1.390 . S
C979 C978 1.387 . S
C979 C981 1.387 . S
H980 C987 0.950 . S
C981 C979 1.387 . S
C981 C983 1.390 . S
C981 H985 0.950 . S
H982 C978 0.950 . S
C983 C981 1.390 . S
C983 C984 1.387 . S
C983 H986 0.950 . S
C984 C983 1.387 . S
C984 C987 1.387 . S
H985 C981 0.950 . S
H986 C983 0.950 . S
C987 C978 1.390 . S
C987 H980 0.950 . S
C987 C984 1.387 . S
C988 C989 1.387 . S
C988 H992 0.950 . S
C988 C997 1.390 . S
C989 C988 1.387 . S
C989 C991 1.387 . S
H990 C997 0.950 . S
C991 C989 1.387 . S
C991 C993 1.390 . S
C991 H995 0.950 . S
H992 C988 0.950 . S
C993 C991 1.390 . S
C993 C994 1.387 . S
C993 H996 0.950 . S
C994 C993 1.387 . S
C994 C997 1.387 . S
H995 C991 0.950 . S
H996 C993 0.950 . S
C997 C988 1.390 . S
C997 H990 0.950 . S
C997 C994 1.387 . S
C998 C999 1.387 . S
C998 H1002 0.950 . S
C998 C1007 1.390 . S
C999 C998 1.387 . S
C999 C1001 1.387 . S
H1000 C1007 0.950 . S
C1001 C999 1.387 . S
C1001 C1003 1.390 . S
C1001 H1005 0.950 . S
H1002 C998 0.950 . S
C1003 C1001 1.390 . S
C1003 C1004 1.387 . S
C1003 H1006 0.950 . S
C1004 C1003 1.387 . S
C1004 C1007 1.387 . S
H1005 C1001 0.950 . S
H1006 C1003 0.950 . S
C1007 C998 1.390 . S
C1007 H1000 0.950 . S
C1007 C1004 1.387 . S
C1008 C1009 1.387 . S
C1008 H1012 0.950 . S
C1008 C1017 1.390 . S
C1009 C1008 1.387 . S
C1009 C1011 1.387 . S
H1010 C1017 0.950 . S
C1011 C1009 1.387 . S
C1011 C1013 1.390 . S
C1011 H1015 0.950 . S
H1012 C1008 0.950 . S
C1013 C1011 1.390 . S
C1013 C1014 1.387 . S
C1013 H1016 0.950 . S
C1014 C1013 1.387 . S
C1014 C1017 1.387 . S
H1015 C1011 0.950 . S
H1016 C1013 0.950 . S
C1017 C1008 1.390 . S
C1017 H1010 0.950 . S
C1017 C1014 1.387 . S
C1018 C1019 1.387 . S
C1018 H1022 0.950 . S
C1018 C1027 1.390 . S
C1019 C1018 1.387 . S
C1019 C1021 1.387 . S
H1020 C1027 0.950 . S
C1021 C1019 1.387 . S
C1021 C1023 1.390 . S
C1021 H1025 0.950 . S
H1022 C1018 0.950 . S
C1023 C1021 1.390 . S
C1023 C1024 1.387 . S
C1023 H1026 0.950 . S
C1024 C1023 1.387 . S
C1024 C1027 1.387 . S
H1025 C1021 0.950 . S
H1026 C1023 0.950 . S
C1027 C1018 1.390 . S
C1027 H1020 0.950 . S
C1027 C1024 1.387 . S
C1028 C1029 1.387 . S
C1028 H1032 0.950 . S
C1028 C1037 1.390 . S
C1029 C1028 1.387 . S
C1029 C1031 1.387 . S
H1030 C1037 0.950 . S
C1031 C1029 1.387 . S
C1031 C1033 1.390 . S
C1031 H1035 0.950 . S
H1032 C1028 0.950 . S
C1033 C1031 1.390 . S
C1033 C1034 1.387 . S
C1033 H1036 0.950 . S
C1034 C1033 1.387 . S
C1034 C1037 1.387 . S
H1035 C1031 0.950 . S
H1036 C1033 0.950 . S
C1037 C1028 1.390 . S
C1037 H1030 0.950 . S
C1037 C1034 1.387 . S
C1038 C1039 1.387 . S
C1038 H1042 0.950 . S
C1038 C1047 1.390 . S
C1039 C1038 1.387 . S
C1039 C1041 1.387 . S
H1040 C1047 0.950 . S
C1041 C1039 1.387 . S
C1041 C1043 1.390 . S
C1041 H1045 0.950 . S
H1042 C1038 0.950 . S
C1043 C1041 1.390 . S
C1043 C1044 1.387 . S
C1043 H1046 0.950 . S
C1044 C1043 1.387 . S
C1044 C1047 1.387 . S
H1045 C1041 0.950 . S
H1046 C1043 0.950 . S
C1047 C1038 1.390 . S
C1047 H1040 0.950 . S
C1047 C1044 1.387 . S
C1048 C1049 1.387 . S
C1048 H1052 0.950 . S
C1048 C1057 1.390 . S
C1049 C1048 1.387 . S
C1049 C1051 1.387 . S
H1050 C1057 0.950 . S
C1051 C1049 1.387 . S
C1051 C1053 1.390 . S
C1051 H1055 0.950 . S
H1052 C1048 0.950 . S
C1053 C1051 1.390 . S
C1053 C1054 1.387 . S
C1053 H1056 0.950 . S
C1054 C1053 1.387 . S
C1054 C1057 1.387 . S
H1055 C1051 0.950 . S
H1056 C1053 0.950 . S
C1057 C1048 1.390 . S
C1057 H1050 0.950 . S
C1057 C1054 1.387 . S
C1058 C1059 1.387 . S
C1058 H1062 0.950 . S
C1058 C1067 1.390 . S
C1059 C1058 1.387 . S
C1059 C1061 1.387 . S
H1060 C1067 0.950 . S
C1061 C1059 1.387 . S
C1061 C1063 1.390 . S
C1061 H1065 0.950 . S
H1062 C1058 0.950 . S
C1063 C1061 1.390 . S
C1063 C1064 1.387 . S
C1063 H1066 0.950 . S
C1064 C1063 1.387 . S
C1064 C1067 1.387 . S
H1065 C1061 0.950 . S
H1066 C1063 0.950 . S
C1067 C1058 1.390 . S
C1067 H1060 0.950 . S
C1067 C1064 1.387 . S
C1068 C1069 1.387 . S
C1068 H1072 0.950 . S
C1068 C1077 1.390 . S
C1069 C1068 1.387 . S
C1069 C1071 1.387 . S
H1070 C1077 0.950 . S
C1071 C1069 1.387 . S
C1071 C1073 1.390 . S
C1071 H1075 0.950 . S
H1072 C1068 0.950 . S
C1073 C1071 1.390 . S
C1073 C1074 1.387 . S
C1073 H1076 0.950 . S
C1074 C1073 1.387 . S
C1074 C1077 1.387 . S
H1075 C1071 0.950 . S
H1076 C1073 0.950 . S
C1077 C1068 1.390 . S
C1077 H1070 0.950 . S
C1077 C1074 1.387 . S
C1078 C1079 1.387 . S
C1078 H1082 0.950 . S
C1078 C1087 1.390 . S
C1079 C1078 1.387 . S
C1079 C1081 1.387 . S
H1080 C1087 0.950 . S
C1081 C1079 1.387 . S
C1081 C1083 1.390 . S
C1081 H1085 0.950 . S
H1082 C1078 0.950 . S
C1083 C1081 1.390 . S
C1083 C1084 1.387 . S
C1083 H1086 0.950 . S
C1084 C1083 1.387 . S
C1084 C1087 1.387 . S
H1085 C1081 0.950 . S
H1086 C1083 0.950 . S
C1087 C1078 1.390 . S
C1087 H1080 0.950 . S
C1087 C1084 1.387 . S
C1088 C1089 1.387 . S
C1088 H1092 0.950 . S
C1088 C1097 1.390 . S
C1089 C1088 1.387 . S
C1089 C1091 1.387 . S
H1090 C1097 0.950 . S
C1091 C1089 1.387 . S
C1091 C1093 1.390 . S
C1091 H1095 0.950 . S
H1092 C1088 0.950 . S
C1093 C1091 1.390 . S
C1093 C1094 1.387 . S
C1093 H1096 0.950 . S
C1094 C1093 1.387 . S
C1094 C1097 1.387 . S
H1095 C1091 0.950 . S
H1096 C1093 0.950 . S
C1097 C1088 1.390 . S
C1097 H1090 0.950 . S
C1097 C1094 1.387 . S
C1098 C1099 1.387 . S
C1098 H1102 0.950 . S
C1098 C1107 1.390 . S
C1099 C1098 1.387 . S
C1099 C1101 1.387 . S
H1100 C1107 0.950 . S
C1101 C1099 1.387 . S
C1101 C1103 1.390 . S
C1101 H1105 0.950 . S
H1102 C1098 0.950 . S
C1103 C1101 1.390 . S
C1103 C1104 1.387 . S
C1103 H1106 0.950 . S
C1104 C1103 1.387 . S
C1104 C1107 1.387 . S
H1105 C1101 0.950 . S
H1106 C1103 0.950 . S
C1107 C1098 1.390 . S
C1107 H1100 0.950 . S
C1107 C1104 1.387 . S
C1108 C1109 1.387 . S
C1108 H1112 0.950 . S
C1108 C1117 1.390 . S
C1109 C1108 1.387 . S
C1109 C1111 1.387 . S
H1110 C1117 0.950 . S
C1111 C1109 1.387 . S
C1111 C1113 1.390 . S
C1111 H1115 0.950 . S
H1112 C1108 0.950 . S
C1113 C1111 1.390 . S
C1113 C1114 1.387 . S
C1113 H1116 0.950 . S
C1114 C1113 1.387 . S
C1114 C1117 1.387 . S
H1115 C1111 0.950 . S
H1116 C1113 0.950 . S
C1117 C1108 1.390 . S
C1117 H1110 0.950 . S
C1117 C1114 1.387 . S
C1118 C1119 1.387 . S
C1118 H1122 0.950 . S
C1118 C1127 1.390 . S
C1119 C1118 1.387 . S
C1119 C1121 1.387 . S
H1120 C1127 0.950 . S
C1121 C1119 1.387 . S
C1121 C1123 1.390 . S
C1121 H1125 0.950 . S
H1122 C1118 0.950 . S
C1123 C1121 1.390 . S
C1123 C1124 1.387 . S
C1123 H1126 0.950 . S
C1124 C1123 1.387 . S
C1124 C1127 1.387 . S
H1125 C1121 0.950 . S
H1126 C1123 0.950 . S
C1127 C1118 1.390 . S
C1127 H1120 0.950 . S
C1127 C1124 1.387 . S
C1128 C1129 1.387 . S
C1128 H1132 0.950 . S
C1128 C1137 1.418 . S
C1129 C1128 1.387 . S
C1129 C1131 1.373 1_455 S
H1130 C1137 0.961 . S
C1131 C1129 1.373 1_655 S
C1131 C1133 1.418 . S
C1131 H1135 0.961 . S
H1132 C1128 0.950 . S
C1133 C1131 1.418 . S
C1133 C1134 1.387 . S
C1133 H1136 0.950 . S
C1134 C1133 1.387 . S
C1134 C1137 1.373 1_655 S
H1135 C1131 0.961 . S
H1136 C1133 0.950 . S
C1137 C1128 1.418 . S
C1137 H1130 0.961 . S
C1137 C1134 1.373 1_455 S
C1138 C1139 1.387 . S
C1138 H1142 0.950 . S
C1138 C1147 1.390 . S
C1139 C1138 1.387 . S
C1139 C1141 1.387 . S
H1140 C1147 0.950 . S
C1141 C1139 1.387 . S
C1141 C1143 1.390 . S
C1141 H1145 0.950 . S
H1142 C1138 0.950 . S
C1143 C1141 1.390 . S
C1143 C1144 1.387 . S
C1143 H1146 0.950 . S
C1144 C1143 1.387 . S
C1144 C1147 1.387 . S
H1145 C1141 0.950 . S
H1146 C1143 0.950 . S
C1147 C1138 1.390 . S
C1147 H1140 0.950 . S
C1147 C1144 1.387 . S
C1148 C1149 1.387 . S
C1148 H1152 0.950 . S
C1148 C1157 1.390 1_545 S
C1149 C1148 1.387 . S
C1149 C1151 1.387 . S
H1150 C1157 0.950 . S
C1151 C1149 1.387 . S
C1151 C1153 1.390 1_545 S
C1151 H1155 0.950 . S
H1152 C1148 0.950 . S
C1153 C1151 1.390 1_565 S
C1153 C1154 1.387 . S
C1153 H1156 0.950 . S
C1154 C1153 1.387 . S
C1154 C1157 1.387 . S
H1155 C1151 0.950 . S
H1156 C1153 0.950 . S
C1157 C1148 1.390 1_565 S
C1157 H1150 0.950 . S
C1157 C1154 1.387 . S
C1158 C1159 1.387 . S
C1158 H1162 0.950 . S
C1158 C1167 1.390 1_545 S
C1159 C1158 1.387 . S
C1159 C1161 1.387 1_554 S
H1160 C1167 0.950 . S
C1161 C1159 1.387 1_556 S
C1161 C1163 1.390 1_545 S
C1161 H1165 0.950 . S
H1162 C1158 0.950 . S
C1163 C1161 1.390 1_565 S
C1163 C1164 1.387 . S
C1163 H1166 0.950 . S
C1164 C1163 1.387 . S
C1164 C1167 1.387 1_556 S
H1165 C1161 0.950 . S
H1166 C1163 0.950 . S
C1167 C1158 1.390 1_565 S
C1167 H1160 0.950 . S
C1167 C1164 1.387 1_554 S
C1168 C1169 1.387 . S
C1168 H1172 0.950 . S
C1168 C1177 1.390 1_655 S
C1169 C1168 1.387 . S
C1169 C1171 1.387 1_554 S
H1170 C1177 0.950 . S
C1171 C1169 1.387 1_556 S
C1171 C1173 1.390 1_655 S
C1171 H1175 0.950 . S
H1172 C1168 0.950 . S
C1173 C1171 1.390 1_455 S
C1173 C1174 1.387 . S
C1173 H1176 0.950 . S
C1174 C1173 1.387 . S
C1174 C1177 1.387 1_556 S
H1175 C1171 0.950 . S
H1176 C1173 0.950 . S
C1177 C1168 1.390 1_455 S
C1177 H1170 0.950 . S
C1177 C1174 1.387 1_554 S
C1178 C1179 1.387 1_556 S
C1178 H1182 0.950 . S
C1178 C1187 1.390 . S
C1179 C1178 1.387 1_554 S
C1179 C1181 1.387 . S
H1180 C1187 0.950 . S
C1181 C1179 1.387 . S
C1181 C1183 1.390 . S
C1181 H1185 0.950 . S
H1182 C1178 0.950 . S
C1183 C1181 1.390 . S
C1183 C1184 1.387 1_554 S
C1183 H1186 0.950 . S
C1184 C1183 1.387 1_556 S
C1184 C1187 1.387 . S
H1185 C1181 0.950 . S
H1186 C1183 0.950 . S
C1187 C1178 1.390 . S
C1187 H1180 0.950 . S
C1187 C1184 1.387 . S
C469 C138 1.259 . S
C474 C10 1.313 . S
C479 C151 1.258 . S
C484 C23 1.316 . S
C489 C36 1.313 . S
C494 C125 1.258 . S
C499 C49 1.316 . S
C504 C112 1.261 . S
C509 C62 1.316 . S
C514 C86 1.260 . S
C519 C99 1.258 . S
C524 C75 1.315 . S
C529 C60 1.260 . S
C534 C88 1.316 . S
C539 C73 1.260 . S
C544 C101 1.313 . S
C549 C114 1.314 . S
C554 C47 1.258 . S
C559 C34 1.261 . S
C564 C127 1.315 . S
C569 C140 1.313 . S
C574 C8 1.260 . S
C579 C153 1.315 . S
C584 C21 1.262 . S
C589 C294 1.259 . S
C594 C166 1.313 . S
C599 C307 1.258 . S
C604 C179 1.313 . S
C609 C192 1.315 . S
C614 C281 1.261 . S
C619 C205 1.313 . S
C624 C268 1.258 1_556 S
C629 C218 1.313 . S
C634 C242 1.261 1_556 S
C639 C231 1.313 . S
C644 C255 1.259 1_556 S
C649 C216 1.261 . S
C654 C244 1.315 . S
C659 C229 1.261 . S
C664 C257 1.313 . S
C669 C203 1.262 . S
C674 C270 1.315 . S
C679 C190 1.262 . S
C684 C283 1.315 . S
C689 C164 1.258 . S
C694 C296 1.315 . S
C699 C177 1.261 . S
C704 C309 1.313 . S
C709 C322 1.316 . S
C714 C450 1.258 . S
C719 C463 1.259 . S
C724 C335 1.316 . S
C729 C437 1.261 . S
C734 C348 1.316 . S
C739 C361 1.314 . S
C744 C424 1.258 . S
C749 C374 1.316 . S
C754 C398 1.258 . S
C759 C387 1.316 . S
C764 C411 1.261 . S
C769 C372 1.259 . S
C774 C400 1.313 . S
C779 C385 1.260 . S
C784 C413 1.313 . S
C789 C359 1.261 . S
C794 C426 1.315 . S
C799 C439 1.316 . S
C804 C346 1.261 1_554 S
C809 C320 1.259 1_554 S
C814 C452 1.316 . S
C819 C465 1.313 . S
C824 C333 1.259 1_554 S
C829 C39 1.367 . S
C834 C0 1.366 . S
C839 C52 1.368 . S
C844 C13 1.368 . S
C849 C26 1.367 . S
C854 C65 1.367 . S
C859 C117 1.368 . S
C864 C78 1.366 . S
C869 C130 1.368 . S
C874 C91 1.368 . S
C879 C143 1.367 . S
C884 C104 1.368 . S
C889 C195 1.367 . S
C894 C156 1.368 . S
C899 C208 1.367 . S
C904 C169 1.367 . S
C909 C182 1.366 . S
C914 C221 1.368 . S
C919 C234 1.366 . S
C924 C273 1.368 . S
C929 C286 1.366 . S
C934 C247 1.366 . S
C939 C260 1.368 . S
C944 C299 1.366 . S
C949 C351 1.367 . S
C954 C312 1.368 . S
C959 C364 1.368 . S
C964 C325 1.368 . S
C969 C338 1.368 . S
C974 C377 1.366 . S
C979 C390 1.366 . S
C984 C429 1.368 . S
C989 C403 1.367 . S
C994 C442 1.367 . S
C999 C416 1.366 . S
C1004 C455 1.368 . S
C1009 C5 1.385 . S
C1014 C239 1.385 . S
C1019 C252 1.384 . S
C1024 C18 1.384 . S
C1029 C265 1.383 . S
C1034 C31 1.383 . S
C1039 C434 1.384 . S
C1044 C44 1.384 . S
C1049 C447 1.388 . S
C1054 C57 1.388 . S
C1059 C460 1.387 . S
C1064 C70 1.387 . S
C1069 C83 1.385 . S
C1074 C317 1.385 . S
C1079 C330 1.388 . S
C1084 C96 1.388 . S
C1089 C343 1.384 . S
C1094 C109 1.384 . S
C1099 C122 1.383 . S
C1104 C200 1.383 . S
C1109 C135 1.383 . S
C1114 C213 1.383 . S
C1119 C148 1.384 . S
C1124 C226 1.384 . S
C1129 C395 1.384 . S
C1134 C161 1.384 . S
C1139 C408 1.387 . S
C1144 C174 1.387 . S
C1149 C187 1.383 . S
C1154 C421 1.383 . S
C1159 C278 1.383 . S
C1164 C356 1.383 . S
C1169 C291 1.383 . S
C1174 C369 1.383 . S
C1179 C304 1.387 . S
C1184 C382 1.387 . S
