# Generated by pormake.
# Topology lcy-a, (4)-cn, num edge types: 1
# Building blocks:
#     Node 0, Type 0, BuildingBlock: CEKHIL_clean_sbu_0, # of connection points: 4
#     Node 1, Type 0, BuildingBlock: CEKHIL_clean_sbu_0, # of connection points: 4
#     Node 2, Type 0, BuildingBlock: CEKHIL_clean_sbu_0, # of connection points: 4
#     Node 3, Type 0, BuildingBlock: CEKHIL_clean_sbu_0, # of connection points: 4
#     Node 4, Type 0, BuildingBlock: CEKHIL_clean_sbu_0, # of connection points: 4
#     Node 5, Type 0, BuildingBlock: CEKHIL_clean_sbu_0, # of connection points: 4
#     Node 6, Type 0, BuildingBlock: CEKHIL_clean_sbu_0, # of connection points: 4
#     Node 7, Type 0, BuildingBlock: CEKHIL_clean_sbu_0, # of connection points: 4
#     Node 8, Type 0, BuildingBlock: CEKHIL_clean_sbu_0, # of connection points: 4
#     Node 9, Type 0, BuildingBlock: CEKHIL_clean_sbu_0, # of connection points: 4
#     Node 10, Type 0, BuildingBlock: CEKHIL_clean_sbu_0, # of connection points: 4
#     Node 11, Type 0, BuildingBlock: CEKHIL_clean_sbu_0, # of connection points: 4
#     Node 12, Type 0, BuildingBlock: CEKHIL_clean_sbu_0, # of connection points: 4
#     Node 13, Type 0, BuildingBlock: CEKHIL_clean_sbu_0, # of connection points: 4
#     Node 14, Type 0, BuildingBlock: CEKHIL_clean_sbu_0, # of connection points: 4
#     Node 15, Type 0, BuildingBlock: CEKHIL_clean_sbu_0, # of connection points: 4
#     Node 16, Type 0, BuildingBlock: CEKHIL_clean_sbu_0, # of connection points: 4
#     Node 17, Type 0, BuildingBlock: CEKHIL_clean_sbu_0, # of connection points: 4
#     Node 18, Type 0, BuildingBlock: CEKHIL_clean_sbu_0, # of connection points: 4
#     Node 19, Type 0, BuildingBlock: CEKHIL_clean_sbu_0, # of connection points: 4
#     Node 20, Type 0, BuildingBlock: CEKHIL_clean_sbu_0, # of connection points: 4
#     Node 21, Type 0, BuildingBlock: CEKHIL_clean_sbu_0, # of connection points: 4
#     Node 22, Type 0, BuildingBlock: CEKHIL_clean_sbu_0, # of connection points: 4
#     Node 23, Type 0, BuildingBlock: CEKHIL_clean_sbu_0, # of connection points: 4
#     Edge 24, Type (0, 0), BuildingBlock: ZUJKAS_clean_linker_0, # of connection points: 2
#     Edge 25, Type (0, 0), BuildingBlock: ZUJKAS_clean_linker_0, # of connection points: 2
#     Edge 26, Type (0, 0), BuildingBlock: ZUJKAS_clean_linker_0, # of connection points: 2
#     Edge 27, Type (0, 0), BuildingBlock: ZUJKAS_clean_linker_0, # of connection points: 2
#     Edge 28, Type (0, 0), BuildingBlock: ZUJKAS_clean_linker_0, # of connection points: 2
#     Edge 29, Type (0, 0), BuildingBlock: ZUJKAS_clean_linker_0, # of connection points: 2
#     Edge 30, Type (0, 0), BuildingBlock: ZUJKAS_clean_linker_0, # of connection points: 2
#     Edge 31, Type (0, 0), BuildingBlock: ZUJKAS_clean_linker_0, # of connection points: 2
#     Edge 32, Type (0, 0), BuildingBlock: ZUJKAS_clean_linker_0, # of connection points: 2
#     Edge 33, Type (0, 0), BuildingBlock: ZUJKAS_clean_linker_0, # of connection points: 2
#     Edge 34, Type (0, 0), BuildingBlock: ZUJKAS_clean_linker_0, # of connection points: 2
#     Edge 35, Type (0, 0), BuildingBlock: ZUJKAS_clean_linker_0, # of connection points: 2
#     Edge 36, Type (0, 0), BuildingBlock: ZUJKAS_clean_linker_0, # of connection points: 2
#     Edge 37, Type (0, 0), BuildingBlock: ZUJKAS_clean_linker_0, # of connection points: 2
#     Edge 38, Type (0, 0), BuildingBlock: ZUJKAS_clean_linker_0, # of connection points: 2
#     Edge 39, Type (0, 0), BuildingBlock: ZUJKAS_clean_linker_0, # of connection points: 2
#     Edge 40, Type (0, 0), BuildingBlock: ZUJKAS_clean_linker_0, # of connection points: 2
#     Edge 41, Type (0, 0), BuildingBlock: ZUJKAS_clean_linker_0, # of connection points: 2
#     Edge 42, Type (0, 0), BuildingBlock: ZUJKAS_clean_linker_0, # of connection points: 2
#     Edge 43, Type (0, 0), BuildingBlock: ZUJKAS_clean_linker_0, # of connection points: 2
#     Edge 44, Type (0, 0), BuildingBlock: ZUJKAS_clean_linker_0, # of connection points: 2
#     Edge 45, Type (0, 0), BuildingBlock: ZUJKAS_clean_linker_0, # of connection points: 2
#     Edge 46, Type (0, 0), BuildingBlock: ZUJKAS_clean_linker_0, # of connection points: 2
#     Edge 47, Type (0, 0), BuildingBlock: ZUJKAS_clean_linker_0, # of connection points: 2
#     Edge 48, Type (0, 0), BuildingBlock: ZUJKAS_clean_linker_0, # of connection points: 2
#     Edge 49, Type (0, 0), BuildingBlock: ZUJKAS_clean_linker_0, # of connection points: 2
#     Edge 50, Type (0, 0), BuildingBlock: ZUJKAS_clean_linker_0, # of connection points: 2
#     Edge 51, Type (0, 0), BuildingBlock: ZUJKAS_clean_linker_0, # of connection points: 2
#     Edge 52, Type (0, 0), BuildingBlock: ZUJKAS_clean_linker_0, # of connection points: 2
#     Edge 53, Type (0, 0), BuildingBlock: ZUJKAS_clean_linker_0, # of connection points: 2
#     Edge 54, Type (0, 0), BuildingBlock: ZUJKAS_clean_linker_0, # of connection points: 2
#     Edge 55, Type (0, 0), BuildingBlock: ZUJKAS_clean_linker_0, # of connection points: 2
#     Edge 56, Type (0, 0), BuildingBlock: ZUJKAS_clean_linker_0, # of connection points: 2
#     Edge 57, Type (0, 0), BuildingBlock: ZUJKAS_clean_linker_0, # of connection points: 2
#     Edge 58, Type (0, 0), BuildingBlock: ZUJKAS_clean_linker_0, # of connection points: 2
#     Edge 59, Type (0, 0), BuildingBlock: ZUJKAS_clean_linker_0, # of connection points: 2
#     Edge 60, Type (0, 0), BuildingBlock: ZUJKAS_clean_linker_0, # of connection points: 2
#     Edge 61, Type (0, 0), BuildingBlock: ZUJKAS_clean_linker_0, # of connection points: 2
#     Edge 62, Type (0, 0), BuildingBlock: ZUJKAS_clean_linker_0, # of connection points: 2
#     Edge 63, Type (0, 0), BuildingBlock: ZUJKAS_clean_linker_0, # of connection points: 2
#     Edge 64, Type (0, 0), BuildingBlock: ZUJKAS_clean_linker_0, # of connection points: 2
#     Edge 65, Type (0, 0), BuildingBlock: ZUJKAS_clean_linker_0, # of connection points: 2
#     Edge 66, Type (0, 0), BuildingBlock: ZUJKAS_clean_linker_0, # of connection points: 2
#     Edge 67, Type (0, 0), BuildingBlock: ZUJKAS_clean_linker_0, # of connection points: 2
#     Edge 68, Type (0, 0), BuildingBlock: ZUJKAS_clean_linker_0, # of connection points: 2
#     Edge 69, Type (0, 0), BuildingBlock: ZUJKAS_clean_linker_0, # of connection points: 2
#     Edge 70, Type (0, 0), BuildingBlock: ZUJKAS_clean_linker_0, # of connection points: 2
#     Edge 71, Type (0, 0), BuildingBlock: ZUJKAS_clean_linker_0, # of connection points: 2
# Relax obj value: 0.424
# Max RMSD: 0.177
# Mean RMSD: 0.177
data_MOF--net-lcy-a--node1-CEKHIL_clean_sbu_0--edge1-ZUJKAS_clean_linker_0
_symmetry_space_group_name_H-M    P1
_symmetry_Int_Tables_number       1
_symmetry_cell_setting            triclinic
loop_
_symmetry_equiv_pos_as_xyz
'x, y, z'
_cell_length_a     72.070749
_cell_length_b     72.058693
_cell_length_c     72.077776
_cell_angle_alpha  90.011694
_cell_angle_beta   90.007004
_cell_angle_gamma 90.009727
loop_
_atom_site_label
_atom_site_type_symbol
_atom_site_fract_x
_atom_site_fract_y
_atom_site_fract_z
_atom_type_partial_charge
Co0 Co 0.22369 0.25871 0.40711 0.0
O1 O 0.21847 0.24988 0.43167 0.0
O2 O 0.19956 0.26728 0.41468 0.0
C3 C 0.23459 0.23191 0.39535 0.0
O4 O 0.22393 0.26987 0.38119 0.0
Co5 Co 0.26403 0.25921 0.392 0.0
O6 O 0.25191 0.26555 0.36809 0.0
C7 C 0.2525 0.28678 0.41989 0.0
C8 C 0.20278 0.25863 0.43019 0.0
C9 C 0.23502 0.27074 0.36722 0.0
O10 O 0.23552 0.28161 0.41798 0.0
O11 O 0.26608 0.27855 0.41192 0.0
O12 O 0.21679 0.23474 0.39625 0.0
O13 O 0.24478 0.24429 0.40331 0.0
Co14 Co 0.96895 0.96824 0.65818 0.0
O15 O 0.97797 0.96378 0.68285 0.0
O16 O 0.9654 0.94254 0.66443 0.0
C17 C 0.99339 0.98487 0.64808 0.0
O18 O 0.95909 0.96713 0.6317 0.0
Co19 Co 0.96092 0.00799 0.64359 0.0
O20 O 0.96065 0.99557 0.61906 0.0
C21 C 0.93457 0.99005 0.66935 0.0
C22 C 0.97305 0.94662 0.68025 0.0
C23 C 0.95833 0.9781 0.61763 0.0
O24 O 0.94374 0.97474 0.66857 0.0
O25 O 0.93969 0.00499 0.66123 0.0
O26 O 0.99417 0.96684 0.64822 0.0
O27 O 0.97883 0.99204 0.65567 0.0
Co28 Co 0.28646 0.72779 0.90422 0.0
O29 O 0.29359 0.73569 0.92863 0.0
O30 O 0.31064 0.71804 0.91003 0.0
C31 C 0.27599 0.75551 0.89435 0.0
O32 O 0.28426 0.7175 0.878 0.0
Co33 Co 0.24568 0.72949 0.89062 0.0
O34 O 0.25715 0.72669 0.86568 0.0
C35 C 0.2572 0.70027 0.91705 0.0
C36 C 0.30886 0.72653 0.92586 0.0
C37 C 0.27332 0.71971 0.86407 0.0
O38 O 0.27428 0.70507 0.91507 0.0
O39 O 0.24372 0.70903 0.90947 0.0
O40 O 0.29366 0.75188 0.89383 0.0
O41 O 0.26577 0.74308 0.90218 0.0
Co42 Co 0.50841 0.03367 0.15472 0.0
O43 O 0.49747 0.04291 0.17719 0.0
O44 O 0.51889 0.05747 0.16053 0.0
C45 C 0.48229 0.02405 0.14062 0.0
O46 O 0.52225 0.02937 0.13056 0.0
Co47 Co 0.50652 0.99214 0.14374 0.0
O48 O 0.51569 0.00105 0.11932 0.0
C49 C 0.53141 0.00398 0.17394 0.0
C50 C 0.50822 0.05725 0.17506 0.0
C51 C 0.52273 0.01718 0.11754 0.0
O52 O 0.52837 0.02106 0.16974 0.0
O53 O 0.52296 0.99045 0.16612 0.0
O54 O 0.48692 0.0415 0.14011 0.0
O55 O 0.49228 0.01371 0.15129 0.0
Co56 Co 0.71785 0.21832 0.58688 0.0
O57 O 0.7142 0.22898 0.56267 0.0
O58 O 0.69258 0.21458 0.57919 0.0
C59 C 0.73356 0.24233 0.59933 0.0
O60 O 0.71579 0.2067 0.61257 0.0
Co61 Co 0.75721 0.21007 0.6024 0.0
O62 O 0.74381 0.2072 0.62623 0.0
C63 C 0.74118 0.18572 0.57359 0.0
C64 C 0.69713 0.22335 0.56411 0.0
C65 C 0.7263 0.20479 0.62687 0.0
O66 O 0.72538 0.19395 0.5751 0.0
O67 O 0.75574 0.19102 0.58227 0.0
O68 O 0.71554 0.24284 0.5985 0.0
O69 O 0.74126 0.22844 0.59109 0.0
Co70 Co 0.01642 0.47036 0.83931 0.0
O71 O 0.00794 0.46408 0.81486 0.0
O72 O 0.02438 0.44559 0.83319 0.0
C73 C 0.9896 0.48266 0.84954 0.0
O74 O 0.02688 0.47165 0.86554 0.0
Co75 Co 0.01802 0.51149 0.85201 0.0
O76 O 0.02408 0.50072 0.87659 0.0
C77 C 0.04606 0.49736 0.82587 0.0
C78 C 0.01604 0.44819 0.81739 0.0
C79 C 0.02829 0.48367 0.87868 0.0
O80 O 0.04003 0.48076 0.82849 0.0
O81 O 0.03819 0.5117 0.8328 0.0
O82 O 0.99196 0.46478 0.84971 0.0
O83 O 0.00258 0.4921 0.84159 0.0
Co84 Co 0.78069 0.75732 0.08775 0.0
O85 O 0.79096 0.74709 0.06543 0.0
O86 O 0.8038 0.76947 0.08229 0.0
C87 C 0.77272 0.73083 0.10206 0.0
O88 O 0.77492 0.77078 0.11181 0.0
Co89 Co 0.73909 0.75274 0.09727 0.0
O90 O 0.74675 0.7622 0.12204 0.0
C91 C 0.75003 0.7791 0.06819 0.0
C92 C 0.80445 0.75886 0.06772 0.0
C93 C 0.7623 0.77031 0.12441 0.0
O94 O 0.76711 0.77649 0.07261 0.0
O95 O 0.73667 0.76995 0.0755 0.0
O96 O 0.78984 0.73655 0.10247 0.0
O97 O 0.76186 0.73978 0.09094 0.0
Co98 Co 0.47802 0.53449 0.34337 0.0
O99 O 0.48707 0.5415 0.31932 0.0
O100 O 0.46919 0.55896 0.33747 0.0
C101 C 0.50464 0.52336 0.3552 0.0
O102 O 0.46667 0.53252 0.36913 0.0
Co103 Co 0.4779 0.4934 0.35617 0.0
O104 O 0.47206 0.50412 0.38084 0.0
C105 C 0.4512 0.50593 0.32787 0.0
C106 C 0.47808 0.55691 0.32193 0.0
C107 C 0.46664 0.52086 0.38264 0.0
O108 O 0.4556 0.52293 0.33116 0.0
O109 O 0.45953 0.49215 0.33537 0.0
O110 O 0.50152 0.54114 0.35519 0.0
O111 O 0.49279 0.51343 0.34616 0.0
Co112 Co 0.40243 0.22351 0.2623 0.0
O113 O 0.42708 0.22067 0.25261 0.0
O114 O 0.41124 0.1989 0.26758 0.0
C115 C 0.38997 0.2372 0.23717 0.0
O116 O 0.37666 0.22088 0.27353 0.0
Co117 Co 0.38503 0.26245 0.26817 0.0
O118 O 0.36179 0.24824 0.27223 0.0
C119 C 0.41482 0.24943 0.29303 0.0
C120 C 0.42642 0.20391 0.2592 0.0
C121 C 0.36195 0.23082 0.27532 0.0
O122 O 0.41322 0.23294 0.28636 0.0
O123 O 0.4059 0.26338 0.28655 0.0
O124 O 0.3916 0.21924 0.23771 0.0
O125 O 0.3974 0.24608 0.25082 0.0
Co126 Co 0.02833 0.16113 0.51113 0.0
O127 O 0.0367 0.18409 0.50048 0.0
O128 O 0.05247 0.16705 0.52074 0.0
C129 C 0.01774 0.14778 0.48498 0.0
O130 O 0.02498 0.13648 0.52438 0.0
Co131 Co 0.98689 0.14959 0.51061 0.0
O132 O 0.99665 0.12498 0.51836 0.0
C133 C -0.0006 0.17879 0.53633 0.0
C134 C 0.05155 0.18185 0.51047 0.0
C135 C 0.01301 0.12324 0.52485 0.0
O136 O 0.01638 0.17517 0.53218 0.0
O137 O 0.9856 0.17112 0.5282 0.0
O138 O 0.03539 0.14741 0.48876 0.0
O139 O 0.00776 0.15792 0.49585 0.0
Co140 Co 0.09662 0.78501 0.77638 0.0
O141 O 0.07358 0.78946 0.76369 0.0
O142 O 0.09085 0.811 0.77736 0.0
C143 C 0.10929 0.76619 0.75495 0.0
O144 O 0.12145 0.78618 0.78987 0.0
Co145 Co 0.10834 0.7456 0.78939 0.0
O146 O 0.13296 0.75734 0.79252 0.0
C147 C 0.0791 0.76592 0.80953 0.0
C148 C 0.07589 0.80677 0.7682 0.0
C149 C 0.13477 0.7749 0.79362 0.0
O150 O 0.08231 0.78069 0.80006 0.0
O151 O 0.08718 0.75038 0.80667 0.0
O152 O 0.11012 0.78411 0.75281 0.0
O153 O 0.09953 0.76047 0.7688 0.0
Co154 Co 0.47066 0.8374 0.01831 0.0
O155 O 0.46806 0.81258 0.00904 0.0
O156 O 0.44568 0.82884 0.02256 0.0
C157 C 0.48565 0.84892 0.99348 0.0
O158 O 0.46797 0.86355 0.02889 0.0
Co159 Co 0.50935 0.855 0.02523 0.0
O160 O 0.49494 0.87845 0.02406 0.0
C161 C 0.49448 0.82725 0.05157 0.0
C162 C 0.45099 0.81346 0.01472 0.0
C163 C 0.47769 0.87852 0.02789 0.0
O164 O 0.47883 0.82714 0.043 0.0
O165 O 0.50855 0.83668 0.04617 0.0
O166 O 0.46765 0.84763 0.9933 0.0
O167 O 0.4938 0.84183 0.00775 0.0
Co168 Co 0.91268 0.27857 0.7291 0.0
O169 O 0.93707 0.28463 0.73778 0.0
O170 O 0.91905 0.30336 0.72127 0.0
C171 C 0.90192 0.2664 0.75578 0.0
O172 O 0.88654 0.27734 0.71835 0.0
Co173 Co 0.89954 0.23752 0.72783 0.0
O174 O 0.87485 0.24886 0.72339 0.0
C175 C 0.92642 0.25114 0.70015 0.0
C176 C 0.93476 0.30057 0.72973 0.0
C177 C 0.87298 0.26569 0.71825 0.0
O178 O 0.92377 0.26789 0.70573 0.0
O179 O 0.91919 0.23701 0.70815 0.0
O180 O 0.90192 0.28429 0.7534 0.0
O181 O 0.91012 0.25694 0.743 0.0
Co182 Co 0.95875 0.65398 0.96544 0.0
O183 O 0.95919 0.67852 0.9758 0.0
O184 O 0.93384 0.66332 0.96708 0.0
C185 C 0.97856 0.64105 0.98576 0.0
O186 O 0.95276 0.62834 0.95497 0.0
Co187 Co 0.99429 0.63594 0.9491 0.0
O188 O 0.97965 0.61289 0.95202 0.0
C189 C 0.97475 0.6651 0.92808 0.0
C190 C 0.94128 0.67834 0.9738 0.0
C191 C 0.96198 0.61322 0.95257 0.0
O192 O 0.96145 0.66514 0.93995 0.0
O193 O 0.98939 0.6552 0.92967 0.0
O194 O 0.96115 0.64288 0.99013 0.0
O195 O 0.98351 0.6485 0.97025 0.0
Co196 Co 0.59004 0.71633 0.23159 0.0
O197 O 0.56504 0.71079 0.23894 0.0
O198 O 0.58411 0.69126 0.22457 0.0
C199 C 0.5989 0.72967 0.25842 0.0
O200 O 0.61672 0.71679 0.22224 0.0
Co201 Co 0.6048 0.75673 0.22947 0.0
O202 O 0.62946 0.74446 0.22893 0.0
C203 C 0.5791 0.74257 0.20066 0.0
C204 C 0.56791 0.69451 0.23179 0.0
C205 C 0.63085 0.72762 0.22372 0.0
O206 O 0.58042 0.72604 0.20725 0.0
O207 O 0.58681 0.75672 0.20819 0.0
O208 O 0.59915 0.7117 0.25679 0.0
O209 O 0.59196 0.73861 0.24455 0.0
Co210 Co 0.52838 0.33659 0.47768 0.0
O211 O 0.53578 0.31279 0.48693 0.0
O212 O 0.55277 0.33053 0.46837 0.0
C213 C 0.51787 0.34811 0.50475 0.0
O214 O 0.52572 0.36219 0.46602 0.0
Co215 Co 0.48726 0.3492 0.47886 0.0
O216 O 0.49841 0.37417 0.47516 0.0
C217 C 0.49925 0.32133 0.45126 0.0
C218 C 0.55107 0.31518 0.47771 0.0
C219 C 0.51453 0.37595 0.46812 0.0
O220 O 0.51633 0.3242 0.45564 0.0
O221 O 0.48566 0.32896 0.45981 0.0
O222 O 0.5355 0.34867 0.50098 0.0
O223 O 0.50773 0.33915 0.49304 0.0
Co224 Co 0.26796 0.41269 0.21956 0.0
O225 O 0.25879 0.43762 0.21699 0.0
O226 O 0.27147 0.42089 0.19446 0.0
C227 C 0.2438 0.40096 0.2355 0.0
O228 O 0.27815 0.38648 0.21645 0.0
Co229 Co 0.27647 0.39536 0.25805 0.0
O230 O 0.27679 0.37179 0.24387 0.0
C231 C 0.30238 0.42268 0.24194 0.0
C232 C 0.26398 0.43642 0.19976 0.0
C233 C 0.27909 0.37164 0.22634 0.0
O234 O 0.29311 0.4228 0.22669 0.0
O235 O 0.29746 0.41348 0.25632 0.0
O236 O 0.24282 0.40254 0.21755 0.0
O237 O 0.25827 0.40827 0.24311 0.0
Co238 Co 0.76469 0.09613 0.78321 0.0
O239 O 0.75436 0.07241 0.78963 0.0
O240 O 0.77288 0.08923 0.80761 0.0
C241 C 0.7385 0.10855 0.77156 0.0
O242 O 0.7773 0.12137 0.78206 0.0
Co243 Co 0.7662 0.11021 0.74257 0.0
O244 O 0.77306 0.13429 0.75403 0.0
C245 C 0.79126 0.08019 0.75479 0.0
C246 C 0.76327 0.07414 0.80521 0.0
C247 C 0.77842 0.13522 0.77086 0.0
O248 O 0.78678 0.08321 0.77182 0.0
O249 O 0.78353 0.08852 0.74113 0.0
O250 O 0.74127 0.10862 0.7894 0.0
O251 O 0.7507 0.09977 0.76187 0.0
Co252 Co 0.16485 0.51348 0.02513 0.0
O253 O 0.18795 0.50444 0.03495 0.0
O254 O 0.16946 0.52479 0.04882 0.0
C255 C 0.15274 0.48622 0.01581 0.0
O256 O 0.13977 0.52534 0.0202 0.0
Co257 Co 0.15473 0.50988 0.98348 0.0
O258 O 0.1295 0.51714 0.99194 0.0
C259 C 0.18231 0.53768 0.99517 0.0
C260 C 0.1847 0.51515 0.0491 0.0
C261 C 0.12693 0.52446 0.00784 0.0
O262 O 0.17838 0.53439 0.01228 0.0
O263 O 0.17544 0.52834 0.98171 0.0
O264 O 0.15183 0.49103 0.03318 0.0
O265 O 0.1629 0.49676 0.00548 0.0
Co266 Co 0.71331 0.90874 0.27974 0.0
O267 O 0.7232 0.93343 0.28166 0.0
O268 O 0.71141 0.91715 0.30499 0.0
C269 C 0.73642 0.89668 0.26259 0.0
O270 O 0.70273 0.88277 0.28344 0.0
Co271 Co 0.70253 0.89158 0.24171 0.0
O272 O 0.70272 0.86808 0.25597 0.0
C273 C 0.67795 0.91931 0.25923 0.0
C274 C 0.71907 0.93243 0.29918 0.0
C275 C 0.70117 0.86795 0.27359 0.0
O276 O 0.68807 0.91937 0.27394 0.0
O277 O 0.68191 0.90997 0.24465 0.0
O278 O 0.73829 0.89811 0.28048 0.0
O279 O 0.72168 0.90415 0.25572 0.0
Co280 Co 0.33491 0.48078 0.52419 0.0
O281 O 0.31027 0.48936 0.52946 0.0
O282 O 0.32715 0.47146 0.548 0.0
C283 C 0.34665 0.50796 0.51435 0.0
O284 O 0.36091 0.46974 0.52379 0.0
Co285 Co 0.35064 0.48174 0.48413 0.0
O286 O 0.37468 0.477 0.49678 0.0
C287 C 0.32288 0.45345 0.49437 0.0
C288 C 0.31167 0.48024 0.54493 0.0
C289 C 0.37532 0.47058 0.51325 0.0
O290 O 0.32427 0.45825 0.51151 0.0
O291 O 0.33118 0.46202 0.4812 0.0
O292 O 0.3456 0.5045 0.53202 0.0
O293 O 0.33885 0.49591 0.50364 0.0
Co294 Co 0.23706 0.57788 0.7204 0.0
O295 O 0.24744 0.55527 0.7108 0.0
O296 O 0.22506 0.57165 0.69741 0.0
C297 C 0.26348 0.59264 0.728 0.0
O298 O 0.22355 0.60211 0.72541 0.0
Co299 Co 0.24171 0.5885 0.76181 0.0
O300 O 0.23168 0.61282 0.75356 0.0
C301 C 0.215 0.55948 0.75165 0.0
C302 C 0.23582 0.55717 0.69713 0.0
C303 C 0.22371 0.61486 0.7379 0.0
O304 O 0.2178 0.56321 0.73442 0.0
O305 O 0.22425 0.56705 0.76479 0.0
O306 O 0.25784 0.5924 0.71086 0.0
O307 O 0.25458 0.58177 0.73914 0.0
Co308 Co 0.66504 0.97486 0.97267 0.0
O309 O 0.68945 0.98429 0.96772 0.0
O310 O 0.67197 0.96885 0.94759 0.0
C311 C 0.65344 0.00041 0.98637 0.0
O312 O 0.63905 0.96383 0.97237 0.0
Co313 Co 0.65064 0.9705 0.01306 0.0
O314 O 0.62632 0.96682 0.00067 0.0
C315 C 0.6783 0.94415 -0.00163 0.0
C316 C 0.68744 0.97742 0.95117 0.0
C317 C 0.62508 0.96295 0.98345 0.0
O318 O 0.67616 0.95088 0.98197 0.0
O319 O 0.67053 0.95107 0.01277 0.0
O320 O 0.65406 -0.00067 0.96837 0.0
O321 O 0.66168 0.98717 0.99516 0.0
Co322 Co 0.84124 0.01022 0.46338 0.0
O323 O 0.81825 -0.00046 0.45521 0.0
O324 O 0.83567 0.01892 0.43878 0.0
C325 C 0.85389 0.98421 0.47509 0.0
O326 O 0.86609 0.02321 0.46649 0.0
Co327 Co 0.85208 0.01115 0.50502 0.0
O328 O 0.87664 0.01937 0.49561 0.0
C329 C 0.82233 0.03551 0.49121 0.0
C330 C 0.82071 0.00891 0.44001 0.0
C331 C 0.87886 0.02465 0.47888 0.0
O332 O 0.82712 0.03178 0.47441 0.0
O333 O 0.82953 0.02743 0.50529 0.0
O334 O 0.85471 0.98737 0.45734 0.0
O335 O 0.84395 0.9957 0.48454 0.0
H336 H 0.05651 0.20971 0.48549 0.0
H337 H 0.08403 0.22908 0.48164 0.0
H338 H 0.10858 0.2042 0.53024 0.0
H339 H 0.08128 0.18427 0.53382 0.0
H340 H 0.1046 0.25439 0.50295 0.0
H341 H 0.14391 0.18919 0.48899 0.0
H342 H 0.11899 0.18946 0.49087 0.0
H343 H 0.13313 0.19105 0.51136 0.0
C344 C 0.06767 0.20852 0.49549 0.0
C345 C 0.06698 0.19521 0.50969 0.0
C346 C 0.08332 0.21968 0.49335 0.0
C347 C 0.09844 0.2178 0.50546 0.0
C348 C 0.09718 0.20556 0.52054 0.0
H349 H 0.20823 0.24738 0.46582 0.0
H350 H 0.18451 0.24208 0.48945 0.0
C351 C 0.08162 0.19419 0.52254 0.0
C352 C 0.11617 0.22691 0.5007 0.0
H353 H 0.15878 0.21707 0.48284 0.0
C354 C 0.11662 0.24631 0.49887 0.0
C355 C 0.13184 0.21629 0.49549 0.0
C356 C 0.13202 0.19535 0.49662 0.0
C357 C 0.13202 0.2553 0.49105 0.0
C358 C 0.14713 0.24453 0.48469 0.0
C359 C 0.14717 0.2253 0.48774 0.0
C360 C 0.16181 0.25214 0.47256 0.0
C361 C 0.13174 0.27614 0.48921 0.0
C362 C 0.15699 0.26007 0.45543 0.0
C363 C 0.17052 0.26318 0.44193 0.0
C364 C 0.18902 0.25808 0.44526 0.0
C365 C 0.19401 0.2512 0.4628 0.0
C366 C 0.18051 0.2483 0.47636 0.0
H367 H 0.12346 0.28256 0.50051 0.0
H368 H 0.14597 0.28204 0.48947 0.0
H369 H 0.1251 0.27994 0.47584 0.0
H370 H 0.1426 0.2627 0.45199 0.0
H371 H 0.1663 0.26853 0.42853 0.0
H372 H 0.98878 0.95138 0.7143 0.0
H373 H 0.00152 0.92718 0.73436 0.0
H374 H 0.98047 0.88513 0.69739 0.0
H375 H 0.96762 0.90923 0.67717 0.0
H376 H 0.98033 0.87962 0.74241 0.0
H377 H 0.04623 0.89709 0.70573 0.0
H378 H 0.03208 0.91587 0.71421 0.0
H379 H 0.02378 0.90162 0.69558 0.0
C380 C 0.98647 0.93698 0.71065 0.0
C381 C 0.97751 0.93217 0.69401 0.0
C382 C 0.99366 0.92321 0.72218 0.0
C383 C 0.99195 0.90449 0.71723 0.0
C384 C 0.9818 0.89956 0.7014 0.0
H385 H 0.04317 0.80176 0.74979 0.0
H386 H 0.02124 0.8257 0.73994 0.0
C387 C 0.97457 0.91334 0.68985 0.0
C388 C 0.00332 0.89046 0.72672 0.0
H389 H 0.04755 0.87391 0.72844 0.0
C390 C 0.99504 0.87833 0.73947 0.0
C391 C 0.02243 0.88894 0.72272 0.0
C392 C 0.03176 0.90147 0.70876 0.0
C393 C 0.00559 0.86463 0.74848 0.0
C394 C 0.0247 0.86303 0.74432 0.0
C395 C 0.0329 0.87528 0.73165 0.0
C396 C 0.03654 0.84838 0.75233 0.0
C397 C 0.99632 0.85215 0.76249 0.0
C398 C 0.05244 0.85326 0.76243 0.0
C399 C 0.06509 0.83967 0.7679 0.0
C400 C 0.06207 0.82099 0.76323 0.0
C401 C 0.04588 0.81607 0.75353 0.0
C402 C 0.03323 0.82968 0.74807 0.0
H403 H 0.98306 0.85816 0.76758 0.0
H404 H 0.9932 0.83859 0.7559 0.0
H405 H 0.00558 0.84958 0.77453 0.0
H406 H 0.05528 0.86767 0.76569 0.0
H407 H 0.07739 0.84387 0.77544 0.0
H408 H 0.34232 0.70869 0.92418 0.0
H409 H 0.36881 0.71303 0.945 0.0
H410 H 0.33601 0.74981 0.97901 0.0
H411 H 0.30949 0.74516 0.95867 0.0
H412 H 0.38433 0.74591 0.94806 0.0
H413 H 0.36487 0.72337 0.01842 0.0
H414 H 0.35218 0.71607 -0.00193 0.0
H415 H 0.34714 0.73801 0.009 0.0
C416 C 0.34064 0.7173 0.93638 0.0
C417 C 0.32393 0.72677 0.93969 0.0
C418 C 0.35575 0.7197 0.9483 0.0
C419 C 0.35434 0.73157 0.96369 0.0
C420 C 0.33732 0.74019 0.96754 0.0
H421 H 0.41338 0.81319 0.0194 0.0
H422 H 0.39178 0.78891 0.00948 0.0
C423 C 0.32221 0.73771 0.95572 0.0
C424 C 0.37121 0.73775 0.97364 0.0
H425 H 0.3873 0.74897 0.01676 0.0
C426 C 0.38528 0.74608 0.96308 0.0
C427 C 0.37239 0.738 0.99323 0.0
C428 C 0.35839 0.72818 0.00529 0.0
C429 C 0.39969 0.75597 0.97154 0.0
C430 C 0.40016 0.7573 0.99111 0.0
C431 C 0.38678 0.748 0.00175 0.0
C432 C 0.41326 0.77 0.0004 0.0
C433 C 0.41353 0.76601 0.95941 0.0
C434 C 0.43244 0.76703 -0.00083 0.0
C435 C 0.44477 0.78094 0.00459 0.0
C436 C 0.43808 0.79793 0.01148 0.0
C437 C 0.41891 0.80029 0.014 0.0
C438 C 0.40657 0.78641 0.00845 0.0
H439 H 0.40943 0.76592 0.94455 0.0
H440 H 0.41512 0.78064 0.96397 0.0
H441 H 0.42727 0.75915 0.9606 0.0
H442 H 0.43782 0.75433 0.9932 0.0
H443 H 0.45951 0.77862 0.00276 0.0
H444 H 0.52892 0.08899 0.17393 0.0
H445 H 0.52592 0.11615 0.1941 0.0
H446 H 0.48392 0.0878 0.22598 0.0
H447 H 0.48703 0.06059 0.20615 0.0
H448 H 0.49388 0.13479 0.19528 0.0
H449 H 0.51221 0.1142 0.2666 0.0
H450 H 0.51947 0.10104 0.24652 0.0
H451 H 0.49675 0.0976 0.25639 0.0
C452 C 0.51933 0.08842 0.18549 0.0
C453 C 0.50802 0.07278 0.18835 0.0
C454 C 0.51773 0.10388 0.19705 0.0
C455 C 0.5049 0.10389 0.21169 0.0
C456 C 0.49427 0.08793 0.21508 0.0
H457 H 0.42647 0.16658 0.26518 0.0
H458 H 0.45058 0.14453 0.2562 0.0
C459 C 0.49587 0.07248 0.20356 0.0
C460 C 0.50007 0.12138 0.22123 0.0
H461 H 0.48889 0.13877 0.2638 0.0
C462 C 0.4933 0.13596 0.21027 0.0
C463 C 0.49937 0.12282 0.24078 0.0
C464 C 0.50754 0.10812 0.25323 0.0
C465 C 0.48425 0.15116 0.21826 0.0
C466 C 0.48231 0.15194 0.23778 0.0
C467 C 0.49034 0.13806 0.24883 0.0
C468 C 0.46975 0.16554 0.24652 0.0
C469 C 0.47553 0.16544 0.20562 0.0
C470 C 0.47289 0.18465 0.24471 0.0
C471 C 0.459 0.19726 0.24951 0.0
C472 C 0.44192 0.1909 0.25647 0.0
C473 C 0.43942 0.17185 0.25969 0.0
C474 C 0.45323 0.15925 0.25468 0.0
H475 H 0.47579 0.1611 0.19083 0.0
H476 H 0.46089 0.16805 0.20967 0.0
H477 H 0.48325 0.17871 0.20681 0.0
H478 H 0.48571 0.18975 0.23874 0.0
H479 H 0.4614 0.21192 0.2472 0.0
H480 H 0.70011 0.24857 0.53608 0.0
H481 H 0.67535 0.2592 0.51543 0.0
H482 H 0.63833 0.21828 0.53862 0.0
H483 H 0.66283 0.20801 0.55977 0.0
H484 H 0.6513 0.24376 0.48892 0.0
H485 H 0.61375 0.26731 0.55204 0.0
H486 H 0.63748 0.25948 0.55273 0.0
H487 H 0.61881 0.24294 0.55174 0.0
C488 C 0.68677 0.24167 0.53659 0.0
C489 C 0.68323 0.22774 0.54978 0.0
C490 C 0.67268 0.24769 0.52473 0.0
C491 C 0.65494 0.23977 0.5258 0.0
C492 C 0.65184 0.22483 0.5379 0.0
H493 H 0.5484 0.27951 0.48945 0.0
H494 H 0.57386 0.25854 0.49705 0.0
C495 C 0.66582 0.21899 0.54995 0.0
C496 C 0.63925 0.2485 0.51587 0.0
H497 H 0.59865 0.27149 0.52351 0.0
C498 C 0.63971 0.24975 0.49642 0.0
C499 C 0.62431 0.25651 0.52576 0.0
C500 C 0.62357 0.25669 0.54672 0.0
C501 C 0.62542 0.25868 0.48659 0.0
C502 C 0.6105 0.26657 0.49654 0.0
C503 C 0.61004 0.2652 0.51593 0.0
C504 C 0.59541 0.27715 0.48755 0.0
C505 C 0.62632 0.25956 0.46571 0.0
C506 C 0.59911 0.2943 0.47908 0.0
C507 C 0.58453 0.30634 0.47466 0.0
C508 C 0.56616 0.30144 0.47894 0.0
C509 C 0.56246 0.28375 0.48623 0.0
C510 C 0.57697 0.2717 0.49047 0.0
H511 H 0.63603 0.24904 0.45997 0.0
H512 H 0.61238 0.2574 0.45952 0.0
H513 H 0.63131 0.2735 0.46146 0.0
H514 H 0.61327 0.2989 0.47704 0.0
H515 H 0.58775 0.31991 0.46904 0.0
H516 H 0.97096 0.29614 0.73926 0.0
H517 H 0.99306 0.32056 0.74742 0.0
H518 H 0.95281 0.36217 0.73233 0.0
H519 H 0.93071 0.33779 0.72373 0.0
H520 H 0.99227 0.37153 0.72465 0.0
H521 H 0.978 0.34686 0.79655 0.0
H522 H 0.98655 0.32984 0.78047 0.0
H523 H 0.964 0.33986 0.77703 0.0
C524 C 0.96696 0.3105 0.7373 0.0
C525 C 0.94901 0.31513 0.73127 0.0
C526 C 0.97962 0.32439 0.74188 0.0
C527 C 0.97439 0.34308 0.74076 0.0
C528 C 0.95704 0.34778 0.73328 0.0
H529 H 0.99549 0.4483 0.78573 0.0
H530 H 0.99025 0.42244 0.76463 0.0
C531 C 0.94442 0.33386 0.72847 0.0
C532 C 0.98558 0.35744 0.75013 0.0
H533 H 0.99666 0.37304 0.79333 0.0
C534 C 0.99349 0.3718 0.73965 0.0
C535 C 0.98713 0.35765 0.76968 0.0
C536 C 0.97839 0.34283 0.78167 0.0
C537 C 0.00262 0.38669 0.74833 0.0
C538 C 0.00341 0.38729 0.76795 0.0
C539 C 0.99616 0.3725 0.7783 0.0
C540 C 0.00956 0.40392 0.77832 0.0
C541 C 0.01112 0.40166 0.73645 0.0
C542 C 0.02217 0.40215 0.79307 0.0
C543 C 0.02487 0.41682 0.80545 0.0
C544 C 0.01503 0.43349 0.80321 0.0
C545 C 0.00326 0.4356 0.78782 0.0
C546 C 0.00043 0.42089 0.77558 0.0
H547 H 0.0156 0.39602 0.72281 0.0
H548 H 0.00059 0.41256 0.73374 0.0
H549 H 0.02326 0.40817 0.74336 0.0
H550 H 0.02927 0.38912 0.79551 0.0
H551 H 0.03415 0.41487 0.81711 0.0
H552 H 0.8354 0.78078 0.06965 0.0
H553 H 0.86218 0.78031 0.0487 0.0
H554 H 0.83495 0.73896 0.01501 0.0
H555 H 0.80823 0.73955 0.03557 0.0
H556 H 0.88274 0.74995 0.04464 0.0
H557 H 0.85842 0.77054 0.97541 0.0
H558 H 0.84574 0.7763 0.99628 0.0
H559 H 0.84243 0.75415 0.98506 0.0
C560 C 0.83501 0.77188 0.05755 0.0
C561 C 0.81985 0.76003 0.05434 0.0
C562 C 0.85024 0.77173 0.04555 0.0
C563 C 0.85041 0.75988 0.0301 0.0
C564 C 0.83492 0.74864 0.0265 0.0
H565 H 0.90359 0.68082 0.97407 0.0
H566 H 0.88482 0.70666 0.98531 0.0
C567 C 0.81975 0.74877 0.03846 0.0
C568 C 0.86772 0.75648 0.01966 0.0
H569 H 0.88216 0.74559 0.97598 0.0
C570 C 0.88298 0.74964 0.0296 0.0
C571 C 0.86808 0.75631 5e-05 0.0
C572 C 0.85282 0.76494 0.98864 0.0
C573 C 0.89749 0.74043 0.02055 0.0
C574 C 0.89672 0.73832 0.00105 0.0
C575 C 0.88253 0.74702 0.99096 0.0
C576 C 0.90829 0.72435 0.99159 0.0
C577 C 0.91252 0.73144 0.03206 0.0
C578 C 0.92765 0.72598 0.99101 0.0
C579 C 0.93843 0.71111 0.98482 0.0
C580 C 0.92994 0.69451 0.97901 0.0
C581 C 0.91052 0.69336 0.97863 0.0
C582 C 0.89978 0.70816 0.9849 0.0
H583 H 0.90998 0.73291 0.04719 0.0
H584 H 0.91358 0.71644 0.0287 0.0
H585 H 0.92607 0.73799 0.02883 0.0
H586 H 0.93442 0.73847 0.99591 0.0
H587 H 0.9534 0.71247 0.98498 0.0
H588 H 0.53094 0.6979 0.22498 0.0
H589 H 0.50692 0.6744 0.23053 0.0
H590 H 0.5492 0.63592 0.24861 0.0
H591 H 0.57311 0.65872 0.24138 0.0
H592 H 0.52396 0.61769 0.23234 0.0
H593 H 0.48803 0.66621 0.28063 0.0
H594 H 0.48813 0.67306 0.25674 0.0
H595 H 0.50956 0.67226 0.2696 0.0
C596 C 0.53498 0.68424 0.22981 0.0
C597 C 0.55372 0.68003 0.23299 0.0
C598 C 0.52128 0.67092 0.23315 0.0
C599 C 0.52613 0.65358 0.24065 0.0
C600 C 0.54502 0.64918 0.2429 0.0
H601 H 0.48927 0.59201 0.32792 0.0
H602 H 0.49579 0.61555 0.30451 0.0
C603 C 0.55871 0.66221 0.23884 0.0
C604 C 0.51193 0.64035 0.2476 0.0
H605 H 0.47881 0.63538 0.28106 0.0
C606 C 0.51396 0.62155 0.24292 0.0
C607 C 0.49863 0.64547 0.26116 0.0
C608 C 0.49599 0.6653 0.26746 0.0
C609 C 0.50487 0.60757 0.25293 0.0
C610 C 0.49236 0.61265 0.26724 0.0
C611 C 0.4886 0.63153 0.27029 0.0
C612 C 0.48577 0.59912 0.28131 0.0
C613 C 0.51018 0.58764 0.24913 0.0
C614 C 0.47737 0.58225 0.27629 0.0
C615 C 0.47445 0.56847 0.28963 0.0
C616 C 0.47896 0.57184 0.30826 0.0
C617 C 0.48574 0.58922 0.31357 0.0
C618 C 0.48937 0.60267 0.30018 0.0
H619 H 0.52279 0.58656 0.24032 0.0
H620 H 0.51287 0.58006 0.26226 0.0
H621 H 0.49869 0.58063 0.24167 0.0
H622 H 0.4737 0.57945 0.262 0.0
H623 H 0.46891 0.55515 0.28541 0.0
H624 H 0.25133 0.47136 0.20741 0.0
H625 H 0.24307 0.49554 0.18498 0.0
H626 H 0.26119 0.4602 0.14021 0.0
H627 H 0.26986 0.43621 0.16246 0.0
H628 H 0.26968 0.49851 0.13491 0.0
H629 H 0.19579 0.48649 0.15478 0.0
H630 H 0.2115 0.49365 0.17276 0.0
H631 H 0.2141 0.47119 0.16227 0.0
C632 C 0.25377 0.46886 0.19279 0.0
C633 C 0.2609 0.45178 0.18662 0.0
C634 C 0.24907 0.48269 0.18004 0.0
C635 C 0.25124 0.47949 0.16097 0.0
C636 C 0.2594 0.4629 0.15489 0.0
H637 H 0.21619 0.49494 0.05431 0.0
H638 H 0.23464 0.49273 0.08253 0.0
C639 C 0.26423 0.44916 0.16761 0.0
C640 C 0.24312 0.49218 0.14708 0.0
H641 H 0.2014 0.50355 0.12801 0.0
C642 C 0.25476 0.5 0.13357 0.0
C643 C 0.22366 0.49424 0.14552 0.0
C644 C 0.21045 0.4859 0.1595 0.0
C645 C 0.24737 0.50879 0.11786 0.0
C646 C 0.2279 0.50941 0.11553 0.0
C647 C 0.21633 0.50299 0.1298 0.0
C648 C 0.21915 0.51372 0.09748 0.0
C649 C 0.26047 0.51674 0.10361 0.0
C650 C 0.20428 0.52625 0.09646 0.0
C651 C 0.19349 0.5273 0.0804 0.0
C652 C 0.19736 0.51577 0.06515 0.0
C653 C 0.21285 0.50397 0.06585 0.0
C654 C 0.22357 0.50288 0.08191 0.0
H655 H 0.27342 0.5218 0.11027 0.0
H656 H 0.26439 0.50569 0.09363 0.0
H657 H 0.254 0.52835 0.09582 0.0
H658 H 0.20054 0.53461 0.10838 0.0
H659 H 0.1817 0.53662 0.08021 0.0
H660 H 0.72289 0.98965 0.95597 0.0
H661 H 0.74422 0.00025 0.9318 0.0
H662 H 0.70502 0.98357 0.88977 0.0
H663 H 0.68379 0.9725 0.91382 0.0
H664 H 0.7435 0.97869 0.87955 0.0
H665 H 0.72745 0.04908 0.90733 0.0
H666 H 0.73738 0.03292 0.9235 0.0
H667 H 0.71461 0.02876 0.91424 0.0
C668 C 0.71899 0.98788 0.94156 0.0
C669 C 0.70154 0.98062 0.93674 0.0
C670 C 0.73119 0.9939 0.9278 0.0
C671 C 0.72598 0.99302 0.90908 0.0
C672 C 0.70923 0.9844 0.90418 0.0
H673 H 0.74182 0.04302 0.80518 0.0
H674 H 0.73742 0.02112 0.83058 0.0
C675 C 0.6971 0.97817 0.91793 0.0
C676 C 0.73649 0.00337 0.89489 0.0
H677 H 0.74546 0.04751 0.88053 0.0
C678 C 0.7442 0.99373 0.87984 0.0
C679 C 0.73732 0.02298 0.89537 0.0
C680 C 0.72866 0.03412 0.91087 0.0
C681 C 0.75234 0.00328 0.86494 0.0
C682 C 0.75242 0.02291 0.86508 0.0
C683 C 0.74546 0.03245 0.88052 0.0
C684 C 0.75764 0.03405 0.84867 0.0
C685 C 0.76053 0.99231 0.84912 0.0
C686 C 0.77041 0.04866 0.85043 0.0
C687 C 0.77268 0.06142 0.83605 0.0
C688 C 0.7622 0.05977 0.8197 0.0
C689 C 0.75007 0.04466 0.81763 0.0
C690 C 0.74772 0.03197 0.83206 0.0
H691 H 0.76531 0.97843 0.85385 0.0
H692 H 0.74973 0.99011 0.83837 0.0
H693 H 0.7724 -0.00027 0.84268 0.0
H694 H 0.77807 0.05058 0.86322 0.0
H695 H 0.78225 0.07286 0.83797 0.0
H696 H 0.71482 0.93298 0.33676 0.0
H697 H 0.7272 0.95592 0.35833 0.0
H698 H 0.74652 0.98906 0.31238 0.0
H699 H 0.73441 0.96597 0.29065 0.0
H700 H 0.7739 0.97956 0.33582 0.0
H701 H 0.71558 0.00779 0.37655 0.0
H702 H 0.71456 0.98295 0.37553 0.0
H703 H 0.71226 0.99629 0.35451 0.0
C704 C 0.72131 0.94535 0.33122 0.0
C705 C 0.72388 0.94758 0.31204 0.0
C706 C 0.7282 0.95857 0.34357 0.0
C707 C 0.73757 0.97431 0.33694 0.0
C708 C 0.7392 0.97708 0.31775 0.0
H709 H 0.81995 0.02977 0.40832 0.0
H710 H 0.79835 0.02671 0.38223 0.0
C711 C 0.73236 0.96383 0.30538 0.0
C712 C 0.74837 0.98586 0.35 0.0
H713 H 0.74563 0.0071 0.39217 0.0
C714 C 0.76772 0.98608 0.34789 0.0
C715 C 0.74024 0.99434 0.36568 0.0
C716 C 0.71949 0.9955 0.36809 0.0
C717 C 0.77928 0.99306 0.36186 0.0
C718 C 0.77117 0.00036 0.37818 0.0
C719 C 0.75178 0.0014 0.37967 0.0
C720 C 0.78255 0.00443 0.39472 0.0
C721 C 0.80004 0.9912 0.35963 0.0
C722 C 0.78028 0.99347 0.41063 0.0
C723 C 0.79244 0.99528 0.42555 0.0
C724 C 0.80713 0.00805 0.42476 0.0
C725 C 0.8089 0.01962 0.40916 0.0
C726 C 0.7966 0.0179 0.39428 0.0
H727 H 0.80385 0.98241 0.34755 0.0
H728 H 0.8062 0.00515 0.35749 0.0
H729 H 0.80634 0.98509 0.37229 0.0
H730 H 0.76951 0.98298 0.41122 0.0
H731 H 0.79064 0.98628 0.43744 0.0
H732 H 0.21273 0.55731 0.66705 0.0
H733 H 0.21459 0.53725 0.63971 0.0
H734 H 0.25984 0.50718 0.66487 0.0
H735 H 0.25783 0.52685 0.69227 0.0
H736 H 0.24487 0.53764 0.61882 0.0
H737 H 0.23221 0.46534 0.64009 0.0
H738 H 0.22501 0.48489 0.65405 0.0
H739 H 0.24841 0.47616 0.65555 0.0
C740 C 0.22279 0.54614 0.66691 0.0
C741 C 0.23531 0.54378 0.68168 0.0
C742 C 0.22375 0.53463 0.65134 0.0
C743 C 0.23717 0.52055 0.65035 0.0
C744 C 0.24903 0.51761 0.66551 0.0
H745 H 0.31406 0.47226 0.5818 0.0
H746 H 0.29075 0.47889 0.60553 0.0
C747 C 0.24804 0.52905 0.68108 0.0
C748 C 0.24125 0.51133 0.63247 0.0
H749 H 0.25368 0.46955 0.614 0.0
C750 C 0.24626 0.52271 0.61752 0.0
C751 C 0.24301 0.49186 0.63084 0.0
C752 C 0.23667 0.47888 0.64596 0.0
C753 C 0.25467 0.51534 0.60165 0.0
C754 C 0.25774 0.49596 0.60058 0.0
C755 C 0.25141 0.4844 0.61492 0.0
C756 C 0.26981 0.48804 0.58602 0.0
C757 C 0.26156 0.52857 0.58691 0.0
C758 C 0.26541 0.49015 0.56719 0.0
C759 C 0.27885 0.48677 0.55366 0.0
C760 C 0.29669 0.48083 0.55879 0.0
C761 C 0.30046 0.47699 0.5775 0.0
C762 C 0.28712 0.48067 0.59104 0.0
H763 H 0.26087 0.54328 0.59147 0.0
H764 H 0.27614 0.52535 0.5831 0.0
H765 H 0.25287 0.52712 0.57429 0.0
H766 H 0.25196 0.49542 0.56304 0.0
H767 H 0.27548 0.48949 0.53927 0.0
H768 H 0.31701 0.4385 0.46001 0.0
H769 H 0.29961 0.41064 0.45224 0.0
H770 H 0.28545 0.40301 0.50986 0.0
H771 H 0.30312 0.43089 0.51793 0.0
H772 H 0.29892 0.37139 0.49384 0.0
H773 H 0.24414 0.40136 0.44943 0.0
H774 H 0.26674 0.40881 0.44217 0.0
H775 H 0.25822 0.41537 0.46473 0.0
C776 C 0.31008 0.43107 0.47107 0.0
C777 C 0.31151 0.43698 0.48962 0.0
C778 C 0.29998 0.41519 0.46656 0.0
C779 C 0.29094 0.40497 0.48042 0.0
C780 C 0.29219 0.41084 0.49894 0.0
H781 H 0.22794 0.30882 0.43903 0.0
H782 H 0.23501 0.33674 0.4571 0.0
C783 C 0.30232 0.42676 0.50351 0.0
C784 C 0.28151 0.38739 0.47554 0.0
H785 H 0.25108 0.36883 0.4444 0.0
C786 C 0.28818 0.37083 0.48331 0.0
C787 C 0.26723 0.38669 0.46209 0.0
C788 C 0.25852 0.40404 0.45428 0.0
C789 C 0.28193 0.35353 0.47696 0.0
C790 C 0.26896 0.35284 0.46225 0.0
C791 C 0.26125 0.36938 0.45548 0.0
C792 C 0.26463 0.33531 0.45248 0.0
C793 C 0.28964 0.33616 0.48574 0.0
C794 C 0.27893 0.32539 0.44379 0.0
C795 C 0.27498 0.30951 0.43347 0.0
C796 C 0.2566 0.30327 0.43147 0.0
C797 C 0.24226 0.3132 0.44029 0.0
C798 C 0.24625 0.32914 0.45064 0.0
H799 H 0.29401 0.33875 0.5003 0.0
H800 H 0.2793 0.32474 0.48561 0.0
H801 H 0.30206 0.33159 0.47787 0.0
H802 H 0.29315 0.33018 0.44461 0.0
H803 H 0.28638 0.30231 0.42683 0.0
H804 H 0.92671 0.97183 0.70181 0.0
H805 H 0.90003 0.97751 0.72241 0.0
H806 H 0.87752 0.01597 0.68247 0.0
H807 H 0.90404 0.01066 0.66218 0.0
H808 H 0.8918 0.01569 0.7353 0.0
H809 H 0.83238 0.98339 0.69907 0.0
H810 H 0.85606 0.9757 0.69586 0.0
H811 H 0.84756 0.99573 0.68362 0.0
C812 C 0.91582 0.98116 0.69731 0.0
C813 C 0.91743 0.99091 0.68049 0.0
C814 C 0.90066 0.9844 0.70907 0.0
C815 C 0.88677 0.997 0.70384 0.0
C816 C 0.88796 0.00597 0.68662 0.0
H817 H 0.80787 0.07394 0.72145 0.0
H818 H 0.83033 0.05007 0.71358 0.0
C819 C 0.90318 0.00303 0.6751 0.0
C820 C 0.8721 0.00287 0.71689 0.0
H821 H 0.8255 0.01069 0.7176 0.0
C822 C 0.87722 0.01412 0.73194 0.0
C823 C 0.85316 0.00069 0.71244 0.0
C824 C 0.84692 0.98806 0.69696 0.0
C825 C 0.86398 0.02489 0.74135 0.0
C826 C 0.84523 0.02409 0.73563 0.0
C827 C 0.83993 0.01139 0.72184 0.0
C828 C 0.83167 0.03844 0.74122 0.0
C829 C 0.87033 0.03827 0.75615 0.0
C830 C 0.8251 0.03995 0.75949 0.0
C831 C 0.81222 0.05377 0.76413 0.0
C832 C 0.80568 0.06618 0.75051 0.0
C833 C 0.81249 0.06462 0.7323 0.0
C834 C 0.82532 0.05092 0.72773 0.0
H835 H 0.88564 0.0382 0.75792 0.0
H836 H 0.86583 0.05259 0.75264 0.0
H837 H 0.86387 0.03449 0.7696 0.0
H838 H 0.82975 0.03033 0.77005 0.0
H839 H 0.80716 0.05452 0.77826 0.0
H840 H 0.22335 0.68396 0.92211 0.0
H841 H 0.21598 0.65677 0.94069 0.0
H842 H 0.27337 0.65191 0.95693 0.0
H843 H 0.28105 0.6791 0.93801 0.0
H844 H 0.25883 0.61883 0.94616 0.0
H845 H 0.21155 0.652 0.99642 0.0
H846 H 0.20471 0.65722 0.97309 0.0
H847 H 0.22681 0.66525 0.9816 0.0
C848 C 0.23445 0.67725 0.9297 0.0
C849 C 0.2528 0.68381 0.92858 0.0
C850 C 0.23016 0.66177 0.94046 0.0
C851 C 0.24404 0.65259 0.95055 0.0
C852 C 0.26241 0.65894 0.94941 0.0
H853 H 0.1997 0.56181 0.01915 0.0
H854 H 0.21855 0.58893 0.01105 0.0
C855 C 0.26676 0.67446 0.93856 0.0
C856 C 0.23931 0.6357 0.96128 0.0
H857 H 0.20736 0.61889 0.99186 0.0
C858 C 0.24784 0.61888 0.95644 0.0
C859 C 0.22532 0.63581 0.97505 0.0
C860 C 0.21673 0.65359 0.98199 0.0
C861 C 0.2417 0.60199 0.96393 0.0
C862 C 0.22639 0.60194 0.97622 0.0
C863 C 0.21889 0.61889 0.98219 0.0
C864 C 0.21666 0.58458 0.98141 0.0
C865 C 0.25139 0.58433 0.95823 0.0
C866 C 0.20931 0.57319 0.96744 0.0
C867 C 0.1986 0.55775 0.97198 0.0
C868 C 0.19477 0.55342 0.99062 0.0
C869 C 0.20236 0.56471 0.00465 0.0
C870 C 0.21316 0.5802 6e-05 0.0
H871 H 0.2662 0.58699 0.95484 0.0
H872 H 0.25068 0.57365 0.96932 0.0
H873 H 0.24466 0.57871 0.94557 0.0
H874 H 0.21136 0.57658 0.95295 0.0
H875 H 0.19295 0.54947 0.96078 0.0
H876 H 0.54993 0.02812 0.19707 0.0
H877 H 0.5733 0.02035 0.22057 0.0
H878 H 0.56809 0.96239 0.20654 0.0
H879 H 0.54469 0.96986 0.18346 0.0
H880 H 0.56851 0.96914 0.24489 0.0
H881 H 0.62678 0.00495 0.20856 0.0
H882 H 0.60653 0.01833 0.21433 0.0
H883 H 0.60498 0.00041 0.19711 0.0
C884 C 0.55377 0.01372 0.19901 0.0
C885 C 0.54547 -0.00038 0.18829 0.0
C886 C 0.56714 0.00933 0.21242 0.0
C887 C 0.5725 0.99082 0.21519 0.0
C888 C 0.56408 0.97677 0.20468 0.0
H889 H 0.64613 0.91195 0.24069 0.0
H890 H 0.61962 0.93251 0.23626 0.0
C891 C 0.55072 0.98109 0.19141 0.0
C892 C 0.58728 0.98563 0.22847 0.0
H893 H 0.63444 0.98441 0.23245 0.0
C894 C 0.5829 0.97286 0.24251 0.0
C895 C 0.60602 0.99067 0.22547 0.0
C896 C 0.61151 0.00427 0.21053 0.0
C897 C 0.59687 0.96375 0.2525 0.0
C898 C 0.61561 0.9675 0.24826 0.0
C899 C 0.61999 0.9816 0.23559 0.0
C900 C 0.63047 0.95448 0.25362 0.0
C901 C 0.59156 0.94927 0.26662 0.0
C902 C 0.64525 0.96001 0.26503 0.0
C903 C 0.66039 0.94812 0.26778 0.0
C904 C 0.66108 0.93085 0.25871 0.0
C905 C 0.64599 0.92522 0.24776 0.0
C906 C 0.6308 0.93689 0.24533 0.0
H907 H 0.57743 0.9518 0.27222 0.0
H908 H 0.59162 0.9354 0.2599 0.0
H909 H 0.60163 0.94899 0.27829 0.0
H910 H 0.64527 0.97364 0.27136 0.0
H911 H 0.67193 0.95281 0.27621 0.0
H912 H 0.7698 0.16122 0.57239 0.0
H913 H 0.77455 0.13579 0.5508 0.0
H914 H 0.72191 0.14731 0.52489 0.0
H915 H 0.71691 0.17324 0.54663 0.0
H916 H 0.73442 0.10557 0.53644 0.0
H917 H 0.78188 0.14592 0.49125 0.0
H918 H 0.78467 0.15011 0.51571 0.0
H919 H 0.76335 0.1565 0.50449 0.0
C920 C 0.75914 0.15847 0.56216 0.0
C921 C 0.74304 0.16945 0.56114 0.0
C922 C 0.76191 0.14388 0.54983 0.0
C923 C 0.7487 0.1399 0.53617 0.0
C924 C 0.73228 0.15032 0.53533 0.0
H925 H 0.80397 0.05734 0.46572 0.0
H926 H 0.78096 0.08162 0.47211 0.0
C927 C 0.72946 0.16506 0.54777 0.0
C928 C 0.75278 0.12485 0.5229 0.0
H929 H 0.78669 0.11289 0.49222 0.0
C930 C 0.7454 0.10719 0.52627 0.0
C931 C 0.76687 0.12707 0.50946 0.0
C932 C 0.77459 0.14595 0.50483 0.0
C933 C 0.75315 0.09139 0.5179 0.0
C934 C 0.76886 0.09342 0.50627 0.0
C935 C 0.77482 0.11128 0.50133 0.0
C936 C 0.78115 0.07753 0.50185 0.0
C937 C 0.74509 0.07261 0.52238 0.0
C938 C 0.78906 0.06737 0.51643 0.0
C939 C 0.80221 0.05366 0.51289 0.0
C940 C 0.80794 0.04984 0.49463 0.0
C941 C 0.79989 0.05992 0.47995 0.0
C942 C 0.78668 0.07374 0.48355 0.0
H943 H 0.7299 0.07361 0.52485 0.0
H944 H 0.74765 0.06249 0.51105 0.0
H945 H 0.75155 0.06727 0.5353 0.0
H946 H 0.7855 0.07045 0.53071 0.0
H947 H 0.80808 0.04627 0.52458 0.0
H948 H 0.20239 0.55072 0.78635 0.0
H949 H 0.17453 0.53344 0.79435 0.0
H950 H 0.16441 0.5223 0.73643 0.0
H951 H 0.19217 0.53998 0.72817 0.0
H952 H 0.13455 0.53657 0.75267 0.0
H953 H 0.16049 0.47956 0.79657 0.0
H954 H 0.16939 0.50135 0.8046 0.0
H955 H 0.17563 0.49305 0.78185 0.0
C956 C 0.19448 0.54433 0.77527 0.0
C957 C 0.1995 0.54688 0.75659 0.0
C958 C 0.1786 0.53428 0.77992 0.0
C959 C 0.16752 0.52632 0.76602 0.0
C960 C 0.17283 0.52822 0.74739 0.0
H961 H 0.06671 0.47094 0.80766 0.0
H962 H 0.09541 0.47564 0.79007 0.0
C963 C 0.18871 0.53836 0.7427 0.0
C964 C 0.14933 0.51808 0.77097 0.0
H965 H 0.12862 0.48931 0.80235 0.0
C966 C 0.13327 0.52593 0.76325 0.0
C967 C 0.14759 0.50394 0.78448 0.0
C968 C 0.16423 0.49386 0.79218 0.0
C969 C 0.11558 0.52104 0.76967 0.0
C970 C 0.11395 0.50829 0.7845 0.0
C971 C 0.1299 0.49936 0.79123 0.0
C972 C 0.09612 0.50536 0.79429 0.0
C973 C 0.09882 0.52994 0.76081 0.0
C974 C 0.08715 0.52047 0.80265 0.0
C975 C 0.0708 0.51788 0.81266 0.0
C976 C 0.06314 0.50004 0.81472 0.0
C977 C 0.07219 0.48488 0.80635 0.0
C978 C 0.08858 0.48752 0.79627 0.0
H979 H 0.10169 0.53387 0.74619 0.0
H980 H 0.08663 0.52052 0.76111 0.0
H981 H 0.09526 0.5428 0.7685 0.0
H982 H 0.09299 0.53429 0.80172 0.0
H983 H 0.06434 0.52987 0.81899 0.0
H984 H 0.68738 0.92719 0.03095 0.0
H985 H 0.70507 0.89889 0.03539 0.0
H986 H 0.71344 0.89436 0.97632 0.0
H987 H 0.69538 0.92285 0.97159 0.0
H988 H 0.70151 0.86157 0.99236 0.0
H989 H 0.76057 0.88979 0.03198 0.0
H990 H 0.73903 0.89747 0.04176 0.0
H991 H 0.74524 0.90437 0.01854 0.0
C992 C 0.69307 0.92036 0.01883 0.0
C993 C 0.68992 0.92736 0.00089 0.0
C994 C 0.70335 0.90422 0.02144 0.0
C995 C 0.71089 0.89473 0.00623 0.0
C996 C 0.70789 0.90162 0.98826 0.0
H997 H 0.77423 0.79928 0.04685 0.0
H998 H 0.76701 0.82573 0.02687 0.0
C999 C 0.69757 0.91788 0.9856 0.0
C1000 C 0.72068 0.87696 0.00939 0.0
H1001 H 0.75283 0.85746 0.03804 0.0
C1002 C 0.71304 0.86065 0.00199 0.0
C1003 C 0.73601 0.87577 0.02156 0.0
C1004 C 0.74581 0.89283 0.02874 0.0
C1005 C 0.71926 0.84313 0.00779 0.0
C1006 C 0.73315 0.84199 0.02162 0.0
C1007 C 0.74192 0.85829 0.0277 0.0
C1008 C 0.73737 0.82444 0.0315 0.0
C1009 C 0.71053 0.82605 -0.00059 0.0
C1010 C 0.7231 0.81483 0.04065 0.0
C1011 C 0.72715 0.79969 0.05202 0.0
C1012 C 0.74561 0.794 0.05473 0.0
C1013 C 0.75985 0.80334 0.04517 0.0
C1014 C 0.75576 0.81844 0.03368 0.0
H1015 H 0.70605 0.82871 0.98489 0.0
H1016 H 0.72023 0.81409 -0.00051 0.0
H1017 H 0.69799 0.82228 0.00751 0.0
H1018 H 0.70886 0.81952 0.03964 0.0
H1019 H 0.71583 0.79291 0.05922 0.0
H1020 H 0.31033 0.45553 0.22443 0.0
H1021 H 0.33719 0.47586 0.23026 0.0
H1022 H 0.35938 0.43547 0.2684 0.0
H1023 H 0.33268 0.4154 0.26298 0.0
H1024 H 0.34661 0.48784 0.26968 0.0
H1025 H 0.40382 0.45173 0.23325 0.0
H1026 H 0.37978 0.44966 0.22628 0.0
H1027 H 0.38846 0.43641 0.24556 0.0
C1028 C 0.32114 0.4509 0.23379 0.0
C1029 C 0.31941 0.43396 0.24335 0.0
C1030 C 0.3364 0.4625 0.23711 0.0
C1031 C 0.35026 0.45703 0.24962 0.0
C1032 C 0.3489 0.4398 0.25853 0.0
H1033 H 0.43454 0.47258 0.32172 0.0
H1034 H 0.41051 0.46517 0.29928 0.0
C1035 C 0.33359 0.42842 0.2555 0.0
C1036 C 0.36536 0.46973 0.25515 0.0
H1037 H 0.41237 0.47005 0.25998 0.0
C1038 C 0.36105 0.48445 0.26713 0.0
C1039 C 0.38409 0.46521 0.25169 0.0
C1040 C 0.38937 0.44999 0.23834 0.0
C1041 C 0.37501 0.49354 0.27726 0.0
C1042 C 0.39364 0.48782 0.27506 0.0
C1043 C 0.39804 0.47431 0.26173 0.0
C1044 C 0.40819 0.49311 0.28854 0.0
C1045 C 0.3696 0.50799 0.29141 0.0
C1046 C 0.41476 0.51138 0.29006 0.0
C1047 C 0.42855 0.51576 0.30307 0.0
C1048 C 0.436 0.50186 0.31463 0.0
C1049 C 0.42923 0.48364 0.31304 0.0
C1050 C 0.4155 0.47934 0.30016 0.0
H1051 H 0.35431 0.50965 0.29252 0.0
H1052 H 0.37518 0.50421 0.30526 0.0
H1053 H 0.37567 0.52158 0.28745 0.0
H1054 H 0.40939 0.52217 0.28108 0.0
H1055 H 0.43356 0.52991 0.30386 0.0
H1056 H 0.46502 0.31065 0.43911 0.0
H1057 H 0.45748 0.29165 0.41234 0.0
H1058 H 0.5157 0.2846 0.40048 0.0
H1059 H 0.52352 0.30398 0.42736 0.0
H1060 H 0.49596 0.29517 0.37004 0.0
H1061 H 0.46036 0.23629 0.40337 0.0
H1062 H 0.45111 0.25779 0.41179 0.0
H1063 H 0.47507 0.25206 0.41616 0.0
C1064 C 0.47631 0.30496 0.431 0.0
C1065 C 0.49491 0.30891 0.43543 0.0
C1066 C 0.47195 0.29389 0.41577 0.0
C1067 C 0.48602 0.28635 0.40466 0.0
C1068 C 0.50463 0.2901 0.40904 0.0
H1069 H 0.43703 0.22411 0.31111 0.0
H1070 H 0.45836 0.23011 0.33697 0.0
C1071 C 0.50906 0.3012 0.42437 0.0
C1072 C 0.4809 0.27616 0.38755 0.0
H1073 H 0.45018 0.24375 0.37184 0.0
C1074 C 0.48633 0.28359 0.3704 0.0
C1075 C 0.46872 0.26077 0.38796 0.0
C1076 C 0.46366 0.25115 0.40584 0.0
C1077 C 0.47846 0.27721 0.35379 0.0
C1078 C 0.46458 0.26335 0.35445 0.0
C1079 C 0.46054 0.25466 0.37138 0.0
C1080 C 0.45245 0.25952 0.33831 0.0
C1081 C 0.48454 0.28592 0.33575 0.0
C1082 C 0.44182 0.27397 0.3308 0.0
C1083 C 0.42964 0.27062 0.31618 0.0
C1084 C 0.42766 0.25267 0.30878 0.0
C1085 C 0.43822 0.23811 0.31645 0.0
C1086 C 0.45045 0.2415 0.33117 0.0
H1087 H 0.49912 0.29084 0.33661 0.0
H1088 H 0.48331 0.276 0.32402 0.0
H1089 H 0.47565 0.29814 0.33278 0.0
H1090 H 0.44274 0.28787 0.33645 0.0
H1091 H 0.42171 0.28218 0.31076 0.0
H1092 H 0.96556 0.18879 0.55016 0.0
H1093 H 0.95908 0.20814 0.57696 0.0
H1094 H 0.01764 0.21805 0.58442 0.0
H1095 H 0.02439 0.19826 0.55763 0.0
H1096 H 0.00159 0.20724 0.61602 0.0
H1097 H 0.95923 0.26321 0.58579 0.0
H1098 H 0.95028 0.24111 0.57877 0.0
H1099 H 0.97327 0.24797 0.57169 0.0
C1100 C 0.97712 0.19525 0.55727 0.0
C1101 C 0.99552 0.19188 0.55173 0.0
C1102 C 0.97335 0.20651 0.57253 0.0
C1103 C 0.98784 0.21487 0.58247 0.0
C1104 C 0.00623 0.21188 0.5768 0.0
H1105 H 0.9452 0.27685 0.67904 0.0
H1106 H 0.96394 0.271 0.65126 0.0
C1107 C 0.01005 0.20054 0.56151 0.0
C1108 C 0.98363 0.22493 0.5999 0.0
H1109 H 0.95284 0.25579 0.61832 0.0
C1110 C 0.99127 0.2182 0.61649 0.0
C1111 C 0.97052 0.23953 0.60056 0.0
C1112 C 0.96304 0.2485 0.58319 0.0
C1113 C 0.9849 0.22449 0.63375 0.0
C1114 C 0.97023 0.23752 0.63437 0.0
C1115 C 0.96382 0.24551 0.61782 0.0
C1116 C 0.95991 0.24125 0.65173 0.0
C1117 C 0.99347 0.21662 0.65114 0.0
C1118 C 0.95124 0.22651 0.661 0.0
C1119 C 0.94057 0.22975 0.67677 0.0
C1120 C 0.93814 0.24789 0.68357 0.0
C1121 C 0.9468 0.26271 0.67422 0.0
C1122 C 0.95754 0.25941 0.65837 0.0
H1123 H 0.00816 0.2126 0.64875 0.0
H1124 H 0.99292 0.22672 0.66277 0.0
H1125 H 0.98578 0.20394 0.65529 0.0
H1126 H 0.95243 0.21245 0.6558 0.0
H1127 H 0.93405 0.218 0.68349 0.0
H1128 H 0.97241 0.70227 0.93164 0.0
H1129 H 0.9825 0.72494 0.90862 0.0
H1130 H 0.98639 0.68141 0.86758 0.0
H1131 H 0.97779 0.65856 0.89115 0.0
H1132 H 0.01746 0.69611 0.871 0.0
H1133 H 0.96862 0.75457 0.8649 0.0
H1134 H 0.974 0.7507 0.88884 0.0
H1135 H 0.96211 0.73295 0.87577 0.0
C1136 C 0.97473 0.69773 0.91749 0.0
C1137 C 0.97448 0.67878 0.91306 0.0
C1138 C 0.98037 0.71073 0.90426 0.0
C1139 C 0.98523 0.70497 0.88627 0.0
C1140 C 0.98283 0.68621 0.88138 0.0
H1141 H 0.04254 0.77042 0.80262 0.0
H1142 H 0.0174 0.75867 0.82234 0.0
C1143 C 0.97786 0.67315 0.89478 0.0
C1144 C 0.99652 0.71728 0.87418 0.0
H1145 H 0.00106 0.76164 0.85789 0.0
C1146 C 0.01358 0.71031 0.86787 0.0
C1147 C 0.99164 0.73587 0.87 0.0
C1148 C 0.97298 0.74385 0.87509 0.0
C1149 C 0.02603 0.72137 0.858 0.0
C1150 C 0.02181 0.74032 0.85508 0.0
C1151 C 0.00449 0.74725 0.86068 0.0
C1152 C 0.03529 0.75263 0.84568 0.0
C1153 C 0.04359 0.71251 0.85071 0.0
C1154 C 0.05335 0.75438 0.85282 0.0
C1155 C 0.06771 0.7606 0.84145 0.0
C1156 C 0.06401 0.76589 0.82312 0.0
C1157 C 0.04559 0.76654 0.81682 0.0
C1158 C 0.03126 0.75982 0.82805 0.0
H1159 H 0.04214 0.69721 0.84942 0.0
H1160 H 0.04741 0.71819 0.83691 0.0
H1161 H 0.05514 0.7153 0.8605 0.0
H1162 H 0.05663 0.74924 0.86656 0.0
H1163 H 0.08186 0.75995 0.84649 0.0
H1164 H 0.55189 0.72002 0.18631 0.0
H1165 H 0.53076 0.7272 0.16049 0.0
H1166 H 0.55898 0.77923 0.15186 0.0
H1167 H 0.57999 0.77234 0.17747 0.0
H1168 H 0.5138 0.77522 0.15928 0.0
H1169 H 0.54723 0.73763 0.10056 0.0
H1170 H 0.54659 0.72815 0.12378 0.0
H1171 H 0.56177 0.74715 0.11859 0.0
C1172 C 0.55375 0.73287 0.17872 0.0
C1173 C 0.56753 0.7457 0.18401 0.0
C1174 C 0.54165 0.73693 0.16406 0.0
C1175 C 0.54337 0.75374 0.15445 0.0
C1176 C 0.55748 0.76621 0.15924 0.0
H1177 H 0.51767 0.83309 0.08066 0.0
H1178 H 0.52419 0.81205 0.1064 0.0
C1179 C 0.56944 0.76225 0.17389 0.0
C1180 C 0.53003 0.75922 0.13997 0.0
H1181 H 0.52625 0.76186 0.09292 0.0
C1182 C 0.51606 0.77187 0.14478 0.0
C1183 C 0.53307 0.75473 0.12116 0.0
C1184 C 0.54792 0.74111 0.11556 0.0
C1185 C 0.50603 0.78133 0.13107 0.0
C1186 C 0.51024 0.77807 0.11223 0.0
C1187 C 0.52307 0.76424 0.10743 0.0
C1188 C 0.50437 0.79124 0.09774 0.0
C1189 C 0.49192 0.7957 0.13673 0.0
C1190 C 0.49086 0.78651 0.08458 0.0
C1191 C 0.4869 0.79867 0.06994 0.0
C1192 C 0.49676 0.81543 0.06812 0.0
C1193 C 0.50995 0.82023 0.08164 0.0
C1194 C 0.51364 0.80827 0.09637 0.0
H1195 H 0.48721 0.79363 0.15126 0.0
H1196 H 0.49825 0.8097 0.13563 0.0
H1197 H 0.47969 0.79527 0.12736 0.0
H1198 H 0.48368 0.77333 0.08544 0.0
H1199 H 0.47674 0.7946 0.05963 0.0
H1200 H 0.25605 0.28425 0.3389 0.0
H1201 H 0.24575 0.3022 0.31233 0.0
H1202 H 0.1887 0.29437 0.32876 0.0
H1203 H 0.19905 0.27703 0.35614 0.0
H1204 H 0.22475 0.29675 0.28283 0.0
H1205 H 0.19085 0.34959 0.32804 0.0
H1206 H 0.20469 0.3311 0.33755 0.0
H1207 H 0.1817 0.32645 0.32903 0.0
C1208 C 0.24129 0.28617 0.33685 0.0
C1209 C 0.22839 0.27948 0.34984 0.0
C1210 C 0.23539 0.29641 0.32156 0.0
C1211 C 0.21645 0.30001 0.31871 0.0
C1212 C 0.20341 0.29227 0.33095 0.0
H1213 H 0.21823 0.37575 0.22232 0.0
H1214 H 0.20381 0.35044 0.24008 0.0
C1215 C 0.20934 0.28227 0.34653 0.0
C1216 C 0.21103 0.31308 0.3037 0.0
H1217 H 0.196 0.35752 0.29725 0.0
C1218 C 0.21811 0.30992 0.28582 0.0
C1219 C 0.20213 0.33016 0.30761 0.0
C1220 C 0.19448 0.33467 0.32659 0.0
C1221 C 0.21853 0.32408 0.27245 0.0
C1222 C 0.21095 0.34165 0.27689 0.0
C1223 C 0.20187 0.34405 0.29396 0.0
C1224 C 0.2161 0.35854 0.26629 0.0
C1225 C 0.2287 0.32061 0.25446 0.0
C1226 C 0.2267 0.37214 0.27532 0.0
C1227 C 0.23456 0.38667 0.26536 0.0
C1228 C 0.23216 0.38786 0.24608 0.0
C1229 C 0.22042 0.37507 0.23716 0.0
C1230 C 0.21233 0.36052 0.24726 0.0
H1231 H 0.2357 0.30687 0.25424 0.0
H1232 H 0.21872 0.32105 0.24276 0.0
H1233 H 0.23935 0.3315 0.2521 0.0
H1234 H 0.22978 0.37099 0.29 0.0
H1235 H 0.24336 0.39642 0.27268 0.0
H1236 H 0.88381 0.96514 0.46089 0.0
H1237 H 0.9075 0.94852 0.47889 0.0
H1238 H 0.87604 0.95852 0.5289 0.0
H1239 H 0.85237 0.97418 0.5111 0.0
H1240 H 0.92879 0.96377 0.50222 0.0
H1241 H 0.89494 0.90935 0.5421 0.0
H1242 H 0.88397 0.91915 0.5218 0.0
H1243 H 0.88011 0.92906 0.54454 0.0
C1244 C 0.8817 0.96312 0.47563 0.0
C1245 C 0.86635 0.97107 0.48465 0.0
C1246 C 0.89524 0.95364 0.48591 0.0
C1247 C 0.89351 0.95194 0.50528 0.0
C1248 C 0.87754 0.95896 0.51396 0.0
H1249 H 0.94894 0.99731 0.58649 0.0
H1250 H 0.93898 0.98506 0.55687 0.0
C1251 C 0.86407 0.96825 0.50376 0.0
C1252 C 0.90946 0.94635 0.5171 0.0
H1253 H 0.91624 0.93037 0.56101 0.0
C1254 C 0.92633 0.95583 0.51476 0.0
C1255 C 0.90695 0.93529 0.53313 0.0
C1256 C 0.89055 0.92248 0.53533 0.0
C1257 C 0.93922 0.957 0.52928 0.0
C1258 C 0.9347 0.94916 0.54671 0.0
C1259 C 0.91941 0.93714 0.54795 0.0
C1260 C 0.94313 0.95616 0.56418 0.0
C1261 C 0.95695 0.96765 0.52612 0.0
C1262 C 0.94828 0.94406 0.57857 0.0
C1263 C 0.95356 0.95111 0.59591 0.0
C1264 C 0.95379 0.97038 0.59912 0.0
C1265 C 0.94907 0.98241 0.58453 0.0
C1266 C 0.94361 0.97538 0.56739 0.0
H1267 H 0.96246 0.96476 0.51201 0.0
H1268 H 0.95406 0.98276 0.52687 0.0
H1269 H 0.96775 0.96405 0.5365 0.0
H1270 H 0.94781 0.92917 0.57653 0.0
H1271 H 0.9572 0.94147 0.60684 0.0
H1272 H 0.28069 0.59467 0.7614 0.0
H1273 H 0.29044 0.62297 0.77731 0.0
H1274 H 0.27927 0.65483 0.72795 0.0
H1275 H 0.26954 0.62648 0.71184 0.0
H1276 H 0.31594 0.65633 0.76865 0.0
H1277 H 0.23966 0.66985 0.76903 0.0
H1278 H 0.24876 0.64703 0.76422 0.0
H1279 H 0.25116 0.66517 0.74737 0.0
C1280 C 0.28094 0.60759 0.75372 0.0
C1281 C 0.27419 0.60841 0.73547 0.0
C1282 C 0.28656 0.62373 0.76281 0.0
C1283 C 0.28538 0.64095 0.75383 0.0
C1284 C 0.28024 0.64163 0.73507 0.0
H1285 H 0.26263 0.73205 0.82987 0.0
H1286 H 0.26934 0.71775 0.79981 0.0
C1287 C 0.27475 0.62541 0.72589 0.0
C1288 C 0.28633 0.65801 0.76518 0.0
H1289 H 0.25786 0.68663 0.78971 0.0
C1290 C 0.30334 0.66333 0.77299 0.0
C1291 C 0.2699 0.66725 0.77057 0.0
C1292 C 0.25127 0.66212 0.76246 0.0
C1293 C 0.30419 0.67702 0.78686 0.0
C1294 C 0.28749 0.68494 0.79359 0.0
C1295 C 0.27068 0.68053 0.78473 0.0
C1296 C 0.28657 0.69585 0.8111 0.0
C1297 C 0.32294 0.68256 0.79429 0.0
C1298 C 0.29435 0.68865 0.82748 0.0
C1299 C 0.29086 0.69705 0.84459 0.0
C1300 C 0.27902 0.71248 0.84576 0.0
C1301 C 0.27169 0.72007 0.82937 0.0
C1302 C 0.27557 0.71193 0.81219 0.0
H1303 H 0.33358 0.68205 0.78314 0.0
H1304 H 0.32277 0.69675 0.8003 0.0
H1305 H 0.32725 0.67256 0.80517 0.0
H1306 H 0.30231 0.67592 0.82724 0.0
H1307 H 0.29657 0.6908 0.85701 0.0
H1308 H 0.5319 0.05172 0.10469 0.0
H1309 H 0.54932 0.05939 0.07661 0.0
H1310 H 0.55325 0.00112 0.06328 0.0
H1311 H 0.53522 0.99347 0.09076 0.0
H1312 H 0.5829 0.05211 0.06919 0.0
H1313 H 0.54253 0.02028 0.01318 0.0
H1314 H 0.53291 0.02343 0.03609 0.0
H1315 H 0.54609 0.00285 0.03047 0.0
C1316 C 0.53625 0.04057 0.0956 0.0
C1317 C 0.53227 0.02196 0.10001 0.0
C1318 C 0.54614 0.04499 0.07951 0.0
C1319 C 0.55234 0.0309 0.06757 0.0
C1320 C 0.5481 0.01234 0.07184 0.0
H1321 H 0.65128 0.00593 0.02339 0.0
H1322 H 0.62614 0.0204 0.04036 0.0
C1323 C 0.53797 0.00793 0.08774 0.0
C1324 C 0.56515 0.03513 0.052 0.0
H1325 H 0.57669 0.01965 0.00885 0.0
C1326 C 0.58126 0.04546 0.05579 0.0
C1327 C 0.56287 0.02721 0.03417 0.0
C1328 C 0.54502 0.01805 0.02822 0.0
C1329 C 0.59597 0.04613 0.04309 0.0
C1330 C 0.59482 0.03566 0.02654 0.0
C1331 C 0.57787 0.02728 0.02178 0.0
C1332 C 0.61163 0.03029 0.01594 0.0
C1333 C 0.61294 0.05737 0.04798 0.0
C1334 C 0.612 0.03097 0.99645 0.0
C1335 C 0.62637 0.02234 0.98662 0.0
C1336 C 0.64045 0.01281 0.99618 0.0
C1337 C 0.64062 0.01316 0.01563 0.0
C1338 C 0.62631 0.02166 0.0254 0.0
H1339 H 0.60892 0.07028 0.05539 0.0
H1340 H 0.62188 0.04922 0.05751 0.0
H1341 H 0.62111 0.06117 0.03548 0.0
H1342 H 0.60074 0.03741 0.98886 0.0
H1343 H 0.62587 0.02221 0.9716 0.0
H1344 H 0.74413 0.19019 0.65667 0.0
H1345 H 0.73104 0.18102 0.68627 0.0
H1346 H 0.67668 0.19835 0.66809 0.0
H1347 H 0.68974 0.2071 0.63782 0.0
H1348 H 0.71275 0.2016 0.71269 0.0
H1349 H 0.66651 0.14583 0.6854 0.0
H1350 H 0.68376 0.15636 0.67066 0.0
H1351 H 0.6636 0.16932 0.67745 0.0
C1352 C 0.72938 0.1921 0.65887 0.0
C1353 C 0.71797 0.19929 0.64483 0.0
C1354 C 0.7219 0.18692 0.67589 0.0
C1355 C 0.70286 0.18897 0.67945 0.0
C1356 C 0.69136 0.19641 0.66559 0.0
H1357 H 0.71586 0.13569 0.7865 0.0
H1358 H 0.69674 0.15791 0.76893 0.0
C1359 C 0.69885 0.2014 0.64832 0.0
C1360 C 0.69567 0.18237 0.69757 0.0
H1361 H 0.67683 0.14311 0.71591 0.0
C1362 C 0.7044 0.1891 0.71363 0.0
C1363 C 0.68421 0.1665 0.69885 0.0
C1364 C 0.67394 0.15897 0.68223 0.0
C1365 C 0.70484 0.17857 0.72999 0.0
C1366 C 0.69578 0.16113 0.73031 0.0
C1367 C 0.68412 0.15627 0.71544 0.0
C1368 C 0.70298 0.14584 0.7421 0.0
C1369 C 0.71702 0.18507 0.74574 0.0
C1370 C 0.71171 0.13095 0.73307 0.0
C1371 C 0.72221 0.11824 0.743 0.0
C1372 C 0.72443 0.12012 0.76223 0.0
C1373 C 0.71453 0.13408 0.77162 0.0
C1374 C 0.70373 0.14684 0.76159 0.0
H1375 H 0.72353 0.19875 0.74287 0.0
H1376 H 0.70862 0.1864 0.75857 0.0
H1377 H 0.72824 0.17484 0.74836 0.0
H1378 H 0.71141 0.12979 0.71808 0.0
H1379 H 0.7294 0.10746 0.73537 0.0
H1380 H 0.15225 0.4742 0.98029 0.0
H1381 H 0.12538 0.46329 0.96328 0.0
H1382 H 0.0944 0.45915 0.01437 0.0
H1383 H 0.12122 0.4713 0.03148 0.0
H1384 H 0.10179 0.43596 0.96079 0.0
H1385 H 0.06482 0.49797 0.98867 0.0
H1386 H 0.08894 0.49382 0.99349 0.0
H1387 H 0.07134 0.48056 0.00521 0.0
C1388 C 0.13986 0.47062 0.98801 0.0
C1389 C 0.13866 0.47413 0.00712 0.0
C1390 C 0.12446 0.46427 0.97825 0.0
C1391 C 0.1076 0.46102 0.98742 0.0
C1392 C 0.10706 0.46222 0.00689 0.0
H1393 H 0.02683 0.44936 0.89525 0.0
H1394 H 0.04139 0.44005 0.92462 0.0
C1395 C 0.12247 0.46894 0.0167 0.0
C1396 C 0.09052 0.45902 0.97602 0.0
H1397 H 0.0522 0.48353 0.96285 0.0
C1398 C 0.09071 0.44614 0.96138 0.0
C1399 C 0.07602 0.47228 0.9769 0.0
C1400 C 0.07522 0.48703 0.9918 0.0
C1401 C 0.07817 0.44747 0.94651 0.0
C1402 C 0.06442 0.46153 0.94681 0.0
C1403 C 0.0629 0.47294 0.96254 0.0
C1404 C 0.05381 0.46692 0.92993 0.0
C1405 C 0.08093 0.43491 0.92997 0.0
C1406 C 0.05511 0.48531 0.92357 0.0
C1407 C 0.04634 0.49076 0.90725 0.0
C1408 C 0.03633 0.47787 0.89663 0.0
C1409 C 0.03467 0.45952 0.90307 0.0
C1410 C 0.0431 0.45416 0.91978 0.0
H1411 H 0.09435 0.42735 0.93058 0.0
H1412 H 0.06966 0.42444 0.92958 0.0
H1413 H 0.08053 0.44297 0.91685 0.0
H1414 H 0.06334 0.49545 0.93105 0.0
H1415 H 0.04796 0.50497 0.90262 0.0
H1416 H 0.76183 0.87071 0.27421 0.0
H1417 H 0.77719 0.84721 0.25482 0.0
H1418 H 0.75148 0.87081 0.20617 0.0
H1419 H 0.7366 0.89427 0.2252 0.0
H1420 H 0.75954 0.82128 0.23493 0.0
H1421 H 0.80276 0.86173 0.18695 0.0
H1422 H 0.794 0.87146 0.20833 0.0
H1423 H 0.78005 0.87178 0.18753 0.0
C1424 C 0.75993 0.87114 0.25932 0.0
C1425 C 0.74802 0.88428 0.25119 0.0
C1426 C 0.76865 0.85771 0.24828 0.0
C1427 C 0.76575 0.85744 0.229 0.0
C1428 C 0.7544 0.87103 0.22091 0.0
H1429 H 0.73724 0.77885 0.15157 0.0
H1430 H 0.74258 0.79705 0.1795 0.0
C1431 C 0.74573 0.88435 0.23186 0.0
C1432 C 0.77234 0.84184 0.21736 0.0
H1433 H 0.78844 0.83358 0.17373 0.0
C1434 C 0.76637 0.82383 0.22177 0.0
C1435 C 0.78174 0.84497 0.20043 0.0
C1436 C 0.79018 0.86353 0.19568 0.0
C1437 C 0.76776 0.80935 0.20883 0.0
C1438 C 0.77478 0.81318 0.19089 0.0
C1439 C 0.78259 0.83067 0.18728 0.0
C1440 C 0.77217 0.80022 0.17509 0.0
C1441 C 0.76111 0.79028 0.21435 0.0
C1442 C 0.78692 0.7962 0.16302 0.0
C1443 C 0.78378 0.78618 0.14672 0.0
C1444 C 0.76584 0.77994 0.1422 0.0
C1445 C 0.75123 0.78343 0.15462 0.0
C1446 C 0.75433 0.79365 0.17077 0.0
H1447 H 0.76373 0.78773 0.22933 0.0
H1448 H 0.74591 0.78935 0.21212 0.0
H1449 H 0.76804 0.77922 0.20616 0.0
H1450 H 0.80078 0.8012 0.16599 0.0
H1451 H 0.79539 0.78356 0.13754 0.0
H1452 H 0.37499 0.52643 0.53199 0.0
H1453 H 0.40049 0.54316 0.5168 0.0
H1454 H 0.37344 0.53567 0.46386 0.0
H1455 H 0.34801 0.51979 0.4789 0.0
H1456 H 0.42315 0.52738 0.4948 0.0
H1457 H 0.39505 0.58477 0.45445 0.0
H1458 H 0.38202 0.57462 0.4733 0.0
H1459 H 0.3799 0.56565 0.44995 0.0
C1460 C 0.3742 0.52908 0.51722 0.0
C1461 C 0.35964 0.5217 0.50656 0.0
C1462 C 0.38879 0.5386 0.50855 0.0
C1463 C 0.38887 0.54093 0.48917 0.0
C1464 C 0.37357 0.53466 0.47885 0.0
H1465 H 0.45382 0.4991 0.41072 0.0
H1466 H 0.44004 0.50898 0.4398 0.0
C1467 C 0.35907 0.5253 0.48745 0.0
C1468 C 0.40601 0.54627 0.47907 0.0
H1469 H 0.41767 0.56421 0.43699 0.0
C1470 C 0.42222 0.53602 0.48252 0.0
C1471 C 0.40541 0.55813 0.46345 0.0
C1472 C 0.38968 0.57156 0.46029 0.0
C1473 C 0.4365 0.53515 0.46934 0.0
C1474 C 0.43408 0.54413 0.45203 0.0
C1475 C 0.41927 0.55663 0.44988 0.0
C1476 C 0.44461 0.53839 0.43525 0.0
C1477 C 0.45351 0.52381 0.47376 0.0
C1478 C 0.45131 0.55158 0.42255 0.0
C1479 C 0.45869 0.54591 0.40551 0.0
C1480 C 0.45963 0.52695 0.40093 0.0
C1481 C 0.45343 0.51379 0.41387 0.0
C1482 C 0.44578 0.51946 0.43069 0.0
H1483 H 0.45746 0.52562 0.48855 0.0
H1484 H 0.45038 0.50887 0.47169 0.0
H1485 H 0.46551 0.52772 0.46492 0.0
H1486 H 0.45043 0.56626 0.42563 0.0
H1487 H 0.46351 0.55638 0.39586 0.0
H1488 H 0.21752 0.21071 0.36855 0.0
H1489 H 0.2331 0.19362 0.34354 0.0
H1490 H 0.28616 0.20661 0.36821 0.0
H1491 H 0.2708 0.22268 0.39325 0.0
H1492 H 0.25243 0.20906 0.31914 0.0
H1493 H 0.29964 0.15808 0.34834 0.0
H1494 H 0.28052 0.16704 0.36185 0.0
H1495 H 0.30302 0.17819 0.36244 0.0
C1496 C 0.23247 0.20922 0.36895 0.0
C1497 C 0.24299 0.2182 0.38269 0.0
C1498 C 0.24137 0.19947 0.35465 0.0
C1499 C 0.26086 0.19856 0.35398 0.0
C1500 C 0.27115 0.20645 0.36854 0.0
H1501 H 0.33075 0.24798 0.28799 0.0
H1502 H 0.30357 0.23386 0.30177 0.0
C1503 C 0.26232 0.21598 0.3828 0.0
C1504 C 0.27081 0.19319 0.33673 0.0
H1505 H 0.31453 0.18005 0.32466 0.0
C1506 C 0.2657 0.20203 0.32013 0.0
C1507 C 0.28774 0.18325 0.33732 0.0
C1508 C 0.29283 0.17094 0.35345 0.0
C1509 C 0.27837 0.20388 0.3055 0.0
C1510 C 0.29675 0.19743 0.30791 0.0
C1511 C 0.30074 0.18584 0.32307 0.0
C1512 C 0.31248 0.20547 0.29727 0.0
C1513 C 0.27223 0.21381 0.28814 0.0
C1514 C 0.32701 0.19433 0.29058 0.0
C1515 C 0.34298 0.20248 0.28306 0.0
C1516 C 0.34468 0.22193 0.28209 0.0
C1517 C 0.3299 0.23298 0.28835 0.0
C1518 C 0.31414 0.22486 0.29603 0.0
H1519 H 0.25782 0.20974 0.28448 0.0
H1520 H 0.27217 0.229 0.29068 0.0
H1521 H 0.28145 0.21072 0.27618 0.0
H1522 H 0.32619 0.17935 0.29156 0.0
H1523 H 0.3541 0.19357 0.2783 0.0
H1524 H 0.01926 0.97339 0.62252 0.0
H1525 H 0.03535 0.99302 0.59978 0.0
H1526 H 0.01032 0.0416 0.6243 0.0
H1527 H 0.99488 0.02234 0.64712 0.0
H1528 H 0.01857 0.0125 0.57429 0.0
H1529 H 0.06053 0.06169 0.61426 0.0
H1530 H 0.05193 0.04045 0.62442 0.0
H1531 H 0.03792 0.06124 0.62449 0.0
C1532 C 0.01772 0.98832 0.62337 0.0
C1533 C 0.00575 0.99635 0.63651 0.0
C1534 C 0.02688 -0.0005 0.61037 0.0
C1535 C 0.0243 0.01884 0.61047 0.0
C1536 C 0.01305 0.02683 0.62422 0.0
H1537 H 0.99036 0.09413 0.53369 0.0
H1538 H -0.00171 0.06648 0.55128 0.0
C1539 C 0.00401 0.01573 0.63717 0.0
C1540 C 0.03069 0.0306 0.59484 0.0
H1541 H 0.04477 0.07494 0.58652 0.0
C1542 C 0.02486 0.02593 0.57685 0.0
C1543 C 0.03947 0.04789 0.59788 0.0
C1544 C 0.048 0.05295 0.61631 0.0
C1545 C 0.02554 0.03894 0.56239 0.0
C1546 C 0.03162 0.05722 0.56624 0.0
C1547 C 0.03954 0.06112 0.58362 0.0
C1548 C 0.02757 0.07296 0.55359 0.0
C1549 C 0.01903 0.03314 0.54337 0.0
C1550 C 0.04127 0.08612 0.54929 0.0
C1551 C 0.03666 0.10227 0.53957 0.0
C1552 C 0.01823 0.10557 0.53396 0.0
C1553 C 0.00468 0.09207 0.53776 0.0
C1554 C 0.00927 0.07607 0.54763 0.0
H1555 H 0.02267 0.0184 0.54065 0.0
H1556 H 0.00369 0.03428 0.54267 0.0
H1557 H 0.0252 0.04189 0.53229 0.0
H1558 H 0.05545 0.08412 0.55385 0.0
H1559 H 0.04748 0.11232 0.53676 0.0
H1560 H 0.24015 0.76608 0.89548 0.0
H1561 H 0.22385 0.78517 0.87325 0.0
H1562 H 0.2757 0.79896 0.84657 0.0
H1563 H 0.2922 0.77878 0.8686 0.0
H1564 H 0.22268 0.81978 0.85997 0.0
H1565 H 0.2503 0.77247 0.80515 0.0
H1566 H 0.25493 0.76785 0.82924 0.0
H1567 H 0.26609 0.78702 0.8178 0.0
C1568 C 0.24819 0.77337 0.88508 0.0
C1569 C 0.26737 0.77053 0.88345 0.0
C1570 C 0.23885 0.78448 0.87242 0.0
C1571 C 0.24846 0.79319 0.85789 0.0
C1572 C 0.26793 0.79197 0.85735 0.0
H1573 H 0.1476 0.81092 0.79174 0.0
H1574 H 0.17794 0.82257 0.8021 0.0
C1575 C 0.27735 0.78055 0.87001 0.0
C1576 C 0.23729 0.80069 0.84228 0.0
H1577 H 0.22096 0.78485 0.80081 0.0
C1578 C 0.22257 0.8127 0.84669 0.0
C1579 C 0.23743 0.79179 0.82475 0.0
C1580 C 0.25297 0.77904 0.81884 0.0
C1581 C 0.2065 0.81335 0.83568 0.0
C1582 C 0.2056 0.80224 0.81954 0.0
C1583 C 0.22163 0.793 0.81346 0.0
C1584 C 0.18758 0.79588 0.81193 0.0
C1585 C 0.18989 0.82405 0.84258 0.0
C1586 C 0.18309 0.77701 0.81371 0.0
C1587 C 0.16603 0.77033 0.80768 0.0
C1588 C 0.15288 0.78237 0.79983 0.0
C1589 C 0.15737 0.80131 0.79791 0.0
C1590 C 0.17468 0.80801 0.80382 0.0
H1591 H 0.19268 0.83122 0.85595 0.0
H1592 H 0.18589 0.83465 0.83217 0.0
H1593 H 0.17791 0.81455 0.84452 0.0
H1594 H 0.19275 0.76741 0.82008 0.0
H1595 H 0.16309 0.75569 0.80944 0.0
H1596 H 0.46476 0.99097 0.14256 0.0
H1597 H 0.45415 0.97235 0.11635 0.0
H1598 H 0.46413 0.01835 0.07943 0.0
H1599 H 0.47482 0.03716 0.10574 0.0
H1600 H 0.42844 0.97584 0.08355 0.0
H1601 H 0.50427 0.97756 0.06769 0.0
H1602 H 0.4954 0.98494 0.08987 0.0
H1603 H 0.49201 -0.00081 0.06977 0.0
C1604 C 0.46403 0.99735 0.12897 0.0
C1605 C 0.4708 0.01539 0.12611 0.0
C1606 C 0.45791 0.98672 0.11402 0.0
C1607 C 0.4586 0.99392 0.09597 0.0
C1608 C 0.46357 0.01257 0.09329 0.0
H1609 H 0.48343 0.91192 0.01153 0.0
H1610 H 0.47404 0.94236 0.02323 0.0
C1611 C 0.4696 0.02331 0.10833 0.0
C1612 C 0.45771 0.9808 0.08024 0.0
H1613 H 0.48651 0.95496 0.05315 0.0
C1614 C 0.44101 0.97151 0.07649 0.0
C1615 C 0.47413 0.97526 0.07105 0.0
C1616 C 0.49253 0.98463 0.07475 0.0
C1617 C 0.44048 0.95623 0.06437 0.0
C1618 C 0.45721 0.94974 0.05635 0.0
C1619 C 0.47365 0.95984 0.05925 0.0
C1620 C 0.45875 0.93152 0.04674 0.0
C1621 C 0.42204 0.94709 0.06058 0.0
C1622 C 0.45267 0.91519 0.05555 0.0
C1623 C 0.45763 0.89777 0.04857 0.0
C1624 C 0.46926 0.89642 0.03302 0.0
C1625 C 0.47455 0.91265 0.02364 0.0
C1626 C 0.46917 0.93003 0.03031 0.0
H1627 H 0.41065 0.95747 0.06081 0.0
H1628 H 0.42191 0.9399 0.04695 0.0
H1629 H 0.41911 0.9368 0.07165 0.0
H1630 H 0.44514 0.91584 0.06853 0.0
H1631 H 0.45354 0.88543 0.05612 0.0
H1632 H 0.72113 0.26805 0.62476 0.0
H1633 H 0.74011 0.28507 0.64749 0.0
H1634 H 0.78947 0.25995 0.62473 0.0
H1635 H 0.77092 0.24364 0.60197 0.0
H1636 H 0.76032 0.27074 0.67422 0.0
H1637 H 0.80789 0.31144 0.63122 0.0
H1638 H 0.78678 0.30168 0.62185 0.0
H1639 H 0.80795 0.28826 0.62231 0.0
C1640 C 0.73609 0.26661 0.62436 0.0
C1641 C 0.74456 0.25453 0.61159 0.0
C1642 C 0.74689 0.2763 0.63734 0.0
C1643 C 0.76629 0.27414 0.63758 0.0
C1644 C 0.77465 0.26243 0.62448 0.0
H1645 H 0.84241 0.24408 0.71267 0.0
H1646 H 0.81399 0.25228 0.69677 0.0
C1647 C 0.76396 0.25288 0.61156 0.0
C1648 C 0.77789 0.28192 0.65272 0.0
H1649 H 0.82201 0.29743 0.65952 0.0
C1650 C 0.77357 0.27716 0.67111 0.0
C1651 C 0.79489 0.291 0.64896 0.0
C1652 C 0.79948 0.29857 0.63 0.0
C1653 C 0.78679 0.27899 0.6853 0.0
C1654 C 0.80492 0.28509 0.6808 0.0
C1655 C 0.80834 0.29217 0.66297 0.0
C1656 C 0.82109 0.28127 0.69303 0.0
C1657 C 0.7814 0.27355 0.70477 0.0
C1658 C 0.8349 0.29471 0.69607 0.0
C1659 C 0.85156 0.2899 0.70486 0.0
C1660 C 0.85472 0.27154 0.71074 0.0
C1661 C 0.84053 0.25836 0.70837 0.0
C1662 C 0.82404 0.26311 0.69947 0.0
H1663 H 0.76681 0.27763 0.70765 0.0
H1664 H 0.78222 0.25823 0.7062 0.0
H1665 H 0.79055 0.28008 0.7153 0.0
H1666 H 0.83303 0.30877 0.69111 0.0
H1667 H 0.86215 0.30043 0.70654 0.0
H1668 H 0.96118 0.46667 0.86936 0.0
H1669 H 0.93793 0.48276 0.88843 0.0
H1670 H 0.96141 0.5354 0.87205 0.0
H1671 H 0.98384 0.51963 0.85273 0.0
H1672 H 0.94336 0.50192 0.91762 0.0
H1673 H 0.90883 0.54988 0.87078 0.0
H1674 H 0.92146 0.53008 0.86198 0.0
H1675 H 0.93292 0.55217 0.86537 0.0
C1676 C 0.961 0.4817 0.86954 0.0
C1677 C 0.97435 0.49191 0.85961 0.0
C1678 C 0.94769 0.49086 0.88038 0.0
C1679 C 0.94753 0.51035 0.88136 0.0
C1680 C 0.96063 0.52043 0.87102 0.0
H1681 H 0.97632 0.57844 0.95338 0.0
H1682 H 0.96283 0.55055 0.94079 0.0
C1683 C 0.97373 0.51135 0.86015 0.0
C1684 C 0.93605 0.52042 0.8952 0.0
H1685 H 0.92061 0.56461 0.90084 0.0
C1686 C 0.93764 0.51534 0.91394 0.0
C1687 C 0.92739 0.53746 0.89072 0.0
C1688 C 0.92236 0.5425 0.87105 0.0
C1689 C 0.93417 0.5283 0.92805 0.0
C1690 C 0.92995 0.54685 0.92313 0.0
C1691 C 0.92479 0.55069 0.90473 0.0
C1692 C 0.93589 0.56269 0.93496 0.0
C1693 C 0.93663 0.52239 0.94795 0.0
C1694 C 0.92538 0.57911 0.93608 0.0
C1695 C 0.9334 0.59548 0.94292 0.0
C1696 C 0.95207 0.59565 0.94863 0.0
C1697 C 0.96199 0.57889 0.94886 0.0
C1698 C 0.95408 0.5627 0.94196 0.0
H1699 H 0.9299 0.50871 0.95023 0.0
H1700 H 0.95162 0.52061 0.95099 0.0
H1701 H 0.93062 0.53262 0.95779 0.0
H1702 H 0.91136 0.57953 0.93067 0.0
H1703 H 0.92534 0.60816 0.9427 0.0
H1704 H 0.66497 0.7366 0.23741 0.0
H1705 H 0.69515 0.72944 0.22349 0.0
H1706 H 0.66777 0.69803 0.18046 0.0
H1707 H 0.63779 0.70411 0.19504 0.0
H1708 H 0.69997 0.68272 0.18794 0.0
H1709 H 0.71065 0.7588 0.17979 0.0
H1710 H 0.70921 0.75128 0.20343 0.0
H1711 H 0.68927 0.74928 0.18848 0.0
C1712 C 0.6655 0.72788 0.22517 0.0
C1713 C 0.64908 0.72113 0.21711 0.0
C1714 C 0.68271 0.7239 0.21716 0.0
C1715 C 0.6837 0.71377 0.20053 0.0
C1716 C 0.66739 0.70601 0.19319 0.0
H1717 H 0.74081 0.71094 0.10187 0.0
H1718 H 0.72292 0.7017 0.12915 0.0
C1719 C 0.65023 0.70951 0.20151 0.0
C1720 C 0.70126 0.71258 0.18977 0.0
H1721 H 0.73294 0.73932 0.16682 0.0
C1722 C 0.70731 0.6951 0.18352 0.0
C1723 C 0.71088 0.72874 0.18394 0.0
C1724 C 0.70461 0.74808 0.18909 0.0
C1725 C 0.72216 0.69344 0.17099 0.0
C1726 C 0.73125 0.70961 0.16477 0.0
C1727 C 0.72598 0.72694 0.17184 0.0
C1728 C 0.74416 0.70952 0.14887 0.0
C1729 C 0.72766 0.67452 0.16397 0.0
C1730 C 0.76231 0.71628 0.15093 0.0
C1731 C 0.77266 0.72133 0.13532 0.0
C1732 C 0.76475 0.72012 0.11753 0.0
C1733 C 0.74721 0.71193 0.11544 0.0
C1734 C 0.73702 0.70658 0.131 0.0
H1735 H 0.72272 0.66332 0.17335 0.0
H1736 H 0.72139 0.67226 0.15009 0.0
H1737 H 0.74296 0.67348 0.1625 0.0
H1738 H 0.76792 0.71888 0.16463 0.0
H1739 H 0.78607 0.72781 0.13734 0.0
H1740 H 0.52076 0.48965 0.35281 0.0
H1741 H 0.53161 0.47084 0.37881 0.0
H1742 H 0.52486 0.51752 0.41562 0.0
H1743 H 0.51411 0.53656 0.3895 0.0
H1744 H 0.55908 0.47506 0.41181 0.0
H1745 H 0.48333 0.47709 0.42807 0.0
H1746 H 0.49171 0.48296 0.40525 0.0
H1747 H 0.49581 0.49841 0.42432 0.0
C1748 C 0.52235 0.49612 0.36629 0.0
C1749 C 0.51651 0.51446 0.36922 0.0
C1750 C 0.52857 0.48539 0.38112 0.0
C1751 C 0.52884 0.49278 0.3991 0.0
C1752 C 0.52476 0.51163 0.40179 0.0
H1753 H 0.50531 0.40935 0.48309 0.0
H1754 H 0.51278 0.44018 0.47106 0.0
C1755 C 0.5187 0.52249 0.38686 0.0
C1756 C 0.52975 0.47976 0.41489 0.0
H1757 H 0.50083 0.45351 0.44143 0.0
C1758 C 0.54647 0.47059 0.41872 0.0
C1759 C 0.51331 0.47413 0.42396 0.0
C1760 C 0.49496 0.48357 0.42029 0.0
C1761 C 0.54698 0.45523 0.43072 0.0
C1762 C 0.53017 0.44847 0.43839 0.0
C1763 C 0.51372 0.45853 0.43552 0.0
C1764 C 0.52869 0.43007 0.44764 0.0
C1765 C 0.56546 0.4463 0.43475 0.0
C1766 C 0.53544 0.41404 0.43877 0.0
C1767 C 0.53153 0.39643 0.44589 0.0
C1768 C 0.52027 0.3945 0.46165 0.0
C1769 C 0.51387 0.41048 0.47079 0.0
C1770 C 0.5182 0.42809 0.46396 0.0
H1771 H 0.5767 0.45686 0.4349 0.0
H1772 H 0.56544 0.43892 0.44827 0.0
H1773 H 0.56878 0.43624 0.42357 0.0
H1774 H 0.54297 0.41504 0.42582 0.0
H1775 H 0.53653 0.38432 0.43852 0.0
H1776 H 0.36529 0.22234 0.21203 0.0
H1777 H 0.34257 0.23958 0.19326 0.0
H1778 H 0.36481 0.2911 0.2143 0.0
H1779 H 0.38749 0.27421 0.2323 0.0
H1780 H 0.31574 0.25946 0.20608 0.0
H1781 H 0.35544 0.30701 0.16283 0.0
H1782 H 0.36606 0.28659 0.17279 0.0
H1783 H 0.36593 0.30838 0.18526 0.0
C1784 C 0.36561 0.23736 0.21213 0.0
C1785 C 0.37808 0.24696 0.22367 0.0
C1786 C 0.35266 0.24719 0.20141 0.0
C1787 C 0.35218 0.2667 0.20199 0.0
C1788 C 0.36523 0.27614 0.21297 0.0
H1789 H 0.2846 0.3382 0.24311 0.0
H1790 H 0.29708 0.3102 0.22954 0.0
C1791 C 0.37807 0.26641 0.22355 0.0
C1792 C 0.33649 0.27744 0.19407 0.0
H1793 H 0.3288 0.32198 0.18053 0.0
C1794 C 0.31844 0.27286 0.19978 0.0
C1795 C 0.33951 0.29454 0.18492 0.0
C1796 C 0.3578 0.29922 0.17592 0.0
C1797 C 0.30426 0.28619 0.19954 0.0
C1798 C 0.30855 0.30461 0.19422 0.0
C1799 C 0.3256 0.30812 0.18545 0.0
C1800 C 0.29778 0.3207 0.20135 0.0
C1801 C 0.28521 0.2807 0.20623 0.0
C1802 C 0.2942 0.3363 0.19019 0.0
C1803 C 0.28747 0.35273 0.19812 0.0
C1804 C 0.28423 0.35385 0.21736 0.0
C1805 C 0.28696 0.33793 0.22827 0.0
C1806 C 0.29383 0.32168 0.22041 0.0
H1807 H 0.28151 0.26674 0.20082 0.0
H1808 H 0.28525 0.27975 0.2216 0.0
H1809 H 0.27443 0.29077 0.2018 0.0
H1810 H 0.29728 0.33599 0.17548 0.0
H1811 H 0.2854 0.3647 0.18927 0.0
H1812 H 0.78628 0.14546 0.80674 0.0
H1813 H 0.80221 0.17362 0.81718 0.0
H1814 H 0.80668 0.19196 0.76036 0.0
H1815 H 0.79028 0.16446 0.74998 0.0
H1816 H 0.83558 0.1838 0.81142 0.0
H1817 H 0.79283 0.23971 0.78324 0.0
H1818 H 0.78424 0.21621 0.78472 0.0
H1819 H 0.79691 0.22397 0.76451 0.0
C1820 C 0.79039 0.15568 0.79651 0.0
C1821 C 0.787 0.15269 0.7775 0.0
C1822 C 0.79944 0.1718 0.80252 0.0
C1823 C 0.80528 0.1852 0.78964 0.0
C1824 C 0.8017 0.18227 0.7707 0.0
H1825 H 0.90082 0.22971 0.76339 0.0
H1826 H 0.87695 0.21315 0.78015 0.0
C1827 C 0.79249 0.16634 0.76472 0.0
C1828 C 0.81714 0.20109 0.79532 0.0
H1829 H 0.82711 0.24508 0.78135 0.0
C1830 C 0.83343 0.19741 0.80537 0.0
C1831 C 0.81413 0.21921 0.78837 0.0
C1832 C 0.79592 0.22499 0.77984 0.0
C1833 C 0.84781 0.2105 0.80624 0.0
C1834 C 0.84611 0.22727 0.79616 0.0
C1835 C 0.8288 0.23198 0.78855 0.0
C1836 C 0.86265 0.23781 0.78983 0.0
C1837 C 0.86508 0.20574 0.81706 0.0
C1838 C 0.86279 0.25733 0.78958 0.0
C1839 C 0.87638 0.26693 0.7795 0.0
C1840 C 0.88993 0.25709 0.7695 0.0
C1841 C 0.89052 0.23769 0.77089 0.0
C1842 C 0.87696 0.22816 0.78078 0.0
H1843 H 0.86134 0.1986 0.83019 0.0
H1844 H 0.87372 0.19596 0.80887 0.0
H1845 H 0.87342 0.21826 0.8204 0.0
H1846 H 0.85184 0.2651 0.79633 0.0
H1847 H 0.87561 0.28191 0.77866 0.0
H1848 H 0.01527 0.63705 0.9795 0.0
H1849 H 0.03636 0.61487 0.99352 0.0
H1850 H 0.99259 0.59541 0.02943 0.0
H1851 H 0.971 0.61761 0.01498 0.0
H1852 H 0.04775 0.60946 0.03002 0.0
H1853 H 0.00953 0.54822 0.00205 0.0
H1854 H 0.0046 0.57145 0.99413 0.0
H1855 H 0.99731 0.56423 0.01681 0.0
C1856 C 0.01009 0.62818 0.99047 0.0
C1857 C 0.99144 0.62893 0.99602 0.0
C1858 C 0.0222 0.61555 -0.00146 0.0
C1859 C 0.016 0.60337 0.01237 0.0
C1860 C -0.00244 0.60454 0.01858 0.0
H1861 H 0.1136 0.5357 0.04163 0.0
H1862 H 0.08444 0.55188 0.04797 0.0
C1863 C 0.98531 0.61726 0.01042 0.0
C1864 C 0.02899 0.58898 0.01911 0.0
H1865 H 0.03998 0.54346 0.01214 0.0
C1866 C 0.04595 0.5949 0.0266 0.0
C1867 C 0.02649 0.57005 0.0146 0.0
C1868 C 0.00857 0.56299 0.00638 0.0
C1869 C 0.06112 0.5828 0.02802 0.0
C1870 C 0.05902 0.56412 0.02228 0.0
C1871 C 0.04153 0.55781 0.01643 0.0
C1872 C 0.07531 0.55191 0.01938 0.0
C1873 C 0.07962 0.59059 0.03406 0.0
C1874 C 0.07937 0.54568 0.00137 0.0
C1875 C 0.09586 0.53623 -0.00227 0.0
C1876 C 0.10871 0.53295 0.01201 0.0
C1877 C 0.10417 0.53836 0.03023 0.0
C1878 C 0.08753 0.54763 0.0339 0.0
H1879 H 0.07949 0.60599 0.03488 0.0
H1880 H 0.08314 0.58514 0.04801 0.0
H1881 H 0.09076 0.58635 0.02429 0.0
H1882 H 0.07009 0.54877 0.98995 0.0
H1883 H 0.0988 0.53209 0.98358 0.0
H1884 H 0.69449 0.86128 0.31067 0.0
H1885 H 0.68327 0.83234 0.32463 0.0
H1886 H 0.68487 0.80603 0.27086 0.0
H1887 H 0.69656 0.83426 0.25712 0.0
H1888 H 0.65206 0.81676 0.31904 0.0
H1889 H 0.70257 0.76378 0.3005 0.0
H1890 H 0.70848 0.78814 0.29964 0.0
H1891 H 0.69877 0.77655 0.27959 0.0
C1892 C 0.69285 0.84916 0.30194 0.0
C1893 C 0.69628 0.85017 0.28272 0.0
C1894 C 0.6865 0.83261 0.30996 0.0
C1895 C 0.68358 0.81679 0.29893 0.0
C1896 C 0.68763 0.81771 0.27989 0.0
H1897 H 0.59789 0.76647 0.26511 0.0
H1898 H 0.61833 0.78424 0.28481 0.0
C1899 C 0.69405 0.83408 0.27194 0.0
C1900 C 0.67351 0.8003 0.3061 0.0
H1901 H 0.66894 0.75481 0.29437 0.0
C1902 C 0.65607 0.80304 0.31434 0.0
C1903 C 0.67887 0.78208 0.3011 0.0
C1904 C 0.69834 0.77752 0.29495 0.0
C1905 C 0.64281 0.78879 0.31452 0.0
C1906 C 0.64692 0.77181 0.30555 0.0
C1907 C 0.66537 0.76808 0.30052 0.0
C1908 C 0.63207 0.76036 0.29697 0.0
C1909 C 0.62406 0.79262 0.32295 0.0
C1910 C 0.63288 0.74085 0.29696 0.0
C1911 C 0.62129 0.73054 0.2852 0.0
C1912 C 0.60887 0.73966 0.27323 0.0
C1913 C 0.60734 0.75904 0.27413 0.0
C1914 C 0.61889 0.76925 0.28571 0.0
H1915 H 0.62569 0.80027 0.33623 0.0
H1916 H 0.61592 0.80166 0.31349 0.0
H1917 H 0.61617 0.77965 0.32559 0.0
H1918 H 0.64306 0.73367 0.30536 0.0
H1919 H 0.62275 0.71559 0.28476 0.0
H1920 H 0.4096 0.47329 0.49717 0.0
H1921 H 0.4373 0.45533 0.50485 0.0
H1922 H 0.40896 0.43109 0.55156 0.0
H1923 H 0.38108 0.44901 0.54408 0.0
H1924 H 0.45569 0.44373 0.5503 0.0
H1925 H 0.42379 0.39369 0.50051 0.0
H1926 H 0.42249 0.41822 0.49574 0.0
H1927 H 0.40968 0.40867 0.51478 0.0
C1928 C 0.40933 0.46445 0.50932 0.0
C1929 C 0.39298 0.46231 0.51979 0.0
C1930 C 0.42524 0.45435 0.51378 0.0
C1931 C 0.4251 0.44198 0.52877 0.0
C1932 C 0.40932 0.44075 0.54005 0.0
H1933 H 0.48808 0.34153 0.52635 0.0
H1934 H 0.46695 0.36503 0.53852 0.0
C1935 C 0.39338 0.45091 0.53566 0.0
C1936 C 0.43995 0.42799 0.53037 0.0
H1937 H 0.45324 0.3866 0.51195 0.0
C1938 C 0.45518 0.43113 0.5421 0.0
C1939 C 0.43909 0.41162 0.51968 0.0
C1940 C 0.42291 0.40767 0.50696 0.0
C1941 C 0.46982 0.41821 0.54318 0.0
C1942 C 0.46913 0.40201 0.5321 0.0
C1943 C 0.4537 0.39891 0.52062 0.0
C1944 C 0.48444 0.3883 0.53109 0.0
C1945 C 0.4858 0.42196 0.55614 0.0
C1946 C 0.50188 0.3935 0.5241 0.0
C1947 C 0.51422 0.37998 0.51758 0.0
C1948 C 0.50898 0.36121 0.51759 0.0
C1949 C 0.4924 0.35594 0.52627 0.0
C1950 C 0.48031 0.36936 0.53316 0.0
H1951 H 0.48172 0.43156 0.56749 0.0
H1952 H 0.49113 0.40889 0.56232 0.0
H1953 H 0.49725 0.42857 0.54825 0.0
H1954 H 0.50525 0.408 0.52201 0.0
H1955 H 0.52682 0.38438 0.51066 0.0
H1956 H 0.21376 0.62902 0.70406 0.0
H1957 H 0.19807 0.65853 0.6978 0.0
H1958 H 0.19637 0.67002 0.75653 0.0
H1959 H 0.21221 0.64086 0.76284 0.0
H1960 H 0.16448 0.6693 0.70799 0.0
H1961 H 0.21471 0.71886 0.73721 0.0
H1962 H 0.22074 0.69499 0.73249 0.0
H1963 H 0.2097 0.70128 0.75405 0.0
C1964 C 0.21013 0.63791 0.71562 0.0
C1965 C 0.21429 0.63265 0.73396 0.0
C1966 C 0.20127 0.6548 0.71201 0.0
C1967 C 0.19647 0.6667 0.72665 0.0
C1968 C 0.20051 0.66138 0.74494 0.0
H1969 H 0.10707 0.72879 0.75534 0.0
H1970 H 0.12891 0.70669 0.74239 0.0
C1971 C 0.20942 0.6446 0.74856 0.0
C1972 C 0.18571 0.68389 0.72323 0.0
H1973 H 0.1821 0.72865 0.7381 0.0
C1974 C 0.16855 0.68243 0.71414 0.0
C1975 C 0.19121 0.70121 0.73068 0.0
C1976 C 0.21021 0.70421 0.73894 0.0
C1977 C 0.15597 0.69726 0.71404 0.0
C1978 C 0.16052 0.71375 0.72367 0.0
C1979 C 0.17843 0.71588 0.73102 0.0
C1980 C 0.14612 0.72741 0.72904 0.0
C1981 C 0.13759 0.6948 0.70432 0.0
C1982 C 0.14857 0.74653 0.72604 0.0
C1983 C 0.13607 0.75933 0.73367 0.0
C1984 C 0.12114 0.75313 0.74457 0.0
C1985 C 0.11843 0.734 0.74698 0.0
C1986 C 0.13082 0.7213 0.73939 0.0
H1987 H 0.13912 0.68573 0.69195 0.0
H1988 H 0.12768 0.68792 0.71389 0.0
H1989 H 0.13165 0.70831 0.6999 0.0
H1990 H 0.16043 0.75154 0.71828 0.0
H1991 H 0.13854 0.77403 0.7317 0.0
H1992 H 0.4723 0.87592 0.97002 0.0
H1993 H 0.49091 0.89927 0.9535 0.0
H1994 H 0.54097 0.87255 0.97269 0.0
H1995 H 0.52269 0.84925 0.98852 0.0
H1996 H 0.51195 0.92341 0.96989 0.0
H1997 H 0.55767 0.88618 0.9223 0.0
H1998 H 0.53682 0.87558 0.93134 0.0
H1999 H 0.55852 0.87384 0.9438 0.0
C2000 C 0.48728 0.87473 0.97009 0.0
C2001 C 0.49609 0.86085 0.98058 0.0
C2002 C 0.49789 0.88807 0.96069 0.0
C2003 C 0.51738 0.88752 0.96153 0.0
C2004 C 0.52602 0.87301 0.97123 0.0
H2005 H 0.59427 0.95373 0.00338 0.0
H2006 H 0.56569 0.94014 0.99207 0.0
C2007 C 0.51552 0.85978 0.98053 0.0
C2008 C 0.5289 0.90343 0.95538 0.0
H2009 H 0.5732 0.9113 0.94103 0.0
C2010 C 0.52507 0.92098 0.96294 0.0
C2011 C 0.54574 0.90071 0.94566 0.0
C2012 C 0.54974 0.88307 0.93514 0.0
C2013 C 0.53871 0.93485 0.96342 0.0
C2014 C 0.55674 0.93076 0.95679 0.0
C2015 C 0.55962 0.91429 0.94677 0.0
C2016 C 0.57325 0.94144 0.96298 0.0
C2017 C 0.53393 0.95332 0.97201 0.0
C2018 C 0.5874 0.94635 0.95051 0.0
C2019 C 0.60413 0.95376 0.95705 0.0
C2020 C 0.60699 0.95639 0.9762 0.0
C2021 C 0.59257 0.952 0.98855 0.0
C2022 C 0.57601 0.94444 0.98204 0.0
H2023 H 0.51952 0.95739 0.96831 0.0
H2024 H 0.53454 0.95214 0.98735 0.0
H2025 H 0.54356 0.96445 0.96744 0.0
H2026 H 0.58569 0.94398 0.93576 0.0
H2027 H 0.61492 0.95709 0.94714 0.0
H2028 H 0.90239 0.04405 0.50105 0.0
H2029 H 0.93123 0.05934 0.49227 0.0
H2030 H 0.92541 0.03859 0.43637 0.0
H2031 H 0.89581 0.02414 0.44491 0.0
H2032 H 0.96322 0.04766 0.48026 0.0
H2033 H 0.93203 0.0919 0.42509 0.0
H2034 H 0.91797 0.07795 0.44031 0.0
H2035 H 0.93052 0.06731 0.42153 0.0
C2036 C 0.90723 0.04277 0.48688 0.0
C2037 C 0.89674 0.03314 0.47361 0.0
C2038 C 0.92377 0.05145 0.48186 0.0
C2039 C 0.93041 0.05041 0.46355 0.0
C2040 C 0.92035 0.0401 0.45042 0.0
H2041 H 0.03306 0.11644 0.46929 0.0
H2042 H 0.01569 0.08995 0.45666 0.0
C2043 C 0.90349 0.03178 0.45534 0.0
C2044 C 0.94751 0.06081 0.45856 0.0
H2045 H 0.96237 0.09844 0.43393 0.0
C2046 C 0.96318 0.05861 0.46993 0.0
C2047 C 0.94757 0.07487 0.44481 0.0
C2048 C 0.93111 0.0783 0.43229 0.0
C2049 C 0.9779 0.07135 0.46952 0.0
C2050 C 0.97731 0.08623 0.45668 0.0
C2051 C 0.96272 0.08708 0.44379 0.0
C2052 C 0.98881 0.10312 0.45937 0.0
C2053 C 0.99291 0.06975 0.48408 0.0
C2054 C 0.97968 0.11983 0.46345 0.0
C2055 C 0.98954 0.13499 0.47015 0.0
C2056 C 0.00873 0.13373 0.47313 0.0
C2057 C 0.01821 0.1177 0.46731 0.0
C2058 C 0.00829 0.1025 0.4603 0.0
H2059 H 0.98987 0.05876 0.49446 0.0
H2060 H 0.00628 0.06626 0.4773 0.0
H2061 H 0.99464 0.0831 0.49158 0.0
H2062 H 0.96469 0.12078 0.46273 0.0
H2063 H 0.98188 0.14727 0.47424 0.0
loop_
_geom_bond_atom_site_label_1
_geom_bond_atom_site_label_2
_geom_bond_distance
_geom_bond_site_symmetry_2
_ccdc_geom_bond_type
Co0 O1 2.216 . S
Co0 O2 2.091 . S
Co0 O4 2.004 . S
Co0 O10 2.021 . S
Co0 O12 2.137 . S
Co0 O13 2.244 . S
O1 Co0 2.216 . S
O1 C8 1.247 . S
O2 Co0 2.091 . S
O2 C8 1.261 . S
C3 O12 1.247 . S
C3 O13 1.272 . S
O4 Co0 2.004 . S
O4 C9 1.259 . S
Co5 O6 2.061 . S
Co5 O11 2.052 . S
Co5 O13 2.135 . S
O6 Co5 2.061 . S
O6 C9 1.235 . S
C7 O10 1.238 . S
C7 O11 1.241 . S
C8 O1 1.247 . S
C8 O2 1.261 . S
C9 O4 1.259 . S
C9 O6 1.235 . S
O10 Co0 2.021 . S
O10 C7 1.238 . S
O11 Co5 2.052 . S
O11 C7 1.241 . S
O12 Co0 2.137 . S
O12 C3 1.247 . S
O13 Co0 2.244 . S
O13 C3 1.272 . S
O13 Co5 2.135 . S
Co14 O15 2.216 . S
Co14 O16 2.091 . S
Co14 O18 2.004 . S
Co14 O24 2.021 . S
Co14 O26 2.137 . S
Co14 O27 2.244 . S
O15 Co14 2.216 . S
O15 C22 1.247 . S
O16 Co14 2.091 . S
O16 C22 1.261 . S
C17 O26 1.247 . S
C17 O27 1.272 . S
O18 Co14 2.004 . S
O18 C23 1.259 . S
Co19 O20 2.061 . S
Co19 O25 2.052 . S
Co19 O27 2.135 . S
O20 Co19 2.061 . S
O20 C23 1.235 . S
C21 O24 1.238 . S
C21 O25 1.241 . S
C22 O15 1.247 . S
C22 O16 1.261 . S
C23 O18 1.259 . S
C23 O20 1.235 . S
O24 Co14 2.021 . S
O24 C21 1.238 . S
O25 Co19 2.052 . S
O25 C21 1.241 . S
O26 Co14 2.137 . S
O26 C17 1.247 . S
O27 Co14 2.244 . S
O27 C17 1.272 . S
O27 Co19 2.135 . S
Co28 O29 2.216 . S
Co28 O30 2.091 . S
Co28 O32 2.004 . S
Co28 O38 2.021 . S
Co28 O40 2.137 . S
Co28 O41 2.244 . S
O29 Co28 2.216 . S
O29 C36 1.247 . S
O30 Co28 2.091 . S
O30 C36 1.261 . S
C31 O40 1.247 . S
C31 O41 1.272 . S
O32 Co28 2.004 . S
O32 C37 1.259 . S
Co33 O34 2.061 . S
Co33 O39 2.052 . S
Co33 O41 2.135 . S
O34 Co33 2.061 . S
O34 C37 1.235 . S
C35 O38 1.238 . S
C35 O39 1.241 . S
C36 O29 1.247 . S
C36 O30 1.261 . S
C37 O32 1.259 . S
C37 O34 1.235 . S
O38 Co28 2.021 . S
O38 C35 1.238 . S
O39 Co33 2.052 . S
O39 C35 1.241 . S
O40 Co28 2.137 . S
O40 C31 1.247 . S
O41 Co28 2.244 . S
O41 C31 1.272 . S
O41 Co33 2.135 . S
Co42 O43 2.216 . S
Co42 O44 2.091 . S
Co42 O46 2.004 . S
Co42 O52 2.021 . S
Co42 O54 2.137 . S
Co42 O55 2.244 . S
O43 Co42 2.216 . S
O43 C50 1.247 . S
O44 Co42 2.091 . S
O44 C50 1.261 . S
C45 O54 1.247 . S
C45 O55 1.272 . S
O46 Co42 2.004 . S
O46 C51 1.259 . S
Co47 O48 2.061 . S
Co47 O53 2.052 . S
Co47 O55 2.135 . S
O48 Co47 2.061 . S
O48 C51 1.235 . S
C49 O52 1.238 . S
C49 O53 1.241 . S
C50 O43 1.247 . S
C50 O44 1.261 . S
C51 O46 1.259 . S
C51 O48 1.235 . S
O52 Co42 2.021 . S
O52 C49 1.238 . S
O53 Co47 2.052 . S
O53 C49 1.241 . S
O54 Co42 2.137 . S
O54 C45 1.247 . S
O55 Co42 2.244 . S
O55 C45 1.272 . S
O55 Co47 2.135 . S
Co56 O57 2.216 . S
Co56 O58 2.091 . S
Co56 O60 2.004 . S
Co56 O66 2.021 . S
Co56 O68 2.137 . S
Co56 O69 2.244 . S
O57 Co56 2.216 . S
O57 C64 1.247 . S
O58 Co56 2.091 . S
O58 C64 1.261 . S
C59 O68 1.247 . S
C59 O69 1.272 . S
O60 Co56 2.004 . S
O60 C65 1.259 . S
Co61 O62 2.061 . S
Co61 O67 2.052 . S
Co61 O69 2.135 . S
O62 Co61 2.061 . S
O62 C65 1.235 . S
C63 O66 1.238 . S
C63 O67 1.241 . S
C64 O57 1.247 . S
C64 O58 1.261 . S
C65 O60 1.259 . S
C65 O62 1.235 . S
O66 Co56 2.021 . S
O66 C63 1.238 . S
O67 Co61 2.052 . S
O67 C63 1.241 . S
O68 Co56 2.137 . S
O68 C59 1.247 . S
O69 Co56 2.244 . S
O69 C59 1.272 . S
O69 Co61 2.135 . S
Co70 O71 2.216 . S
Co70 O72 2.091 . S
Co70 O74 2.004 . S
Co70 O80 2.021 . S
Co70 O82 2.137 . S
Co70 O83 2.244 . S
O71 Co70 2.216 . S
O71 C78 1.247 . S
O72 Co70 2.091 . S
O72 C78 1.261 . S
C73 O82 1.247 . S
C73 O83 1.272 . S
O74 Co70 2.004 . S
O74 C79 1.259 . S
Co75 O76 2.061 . S
Co75 O81 2.052 . S
Co75 O83 2.135 . S
O76 Co75 2.061 . S
O76 C79 1.235 . S
C77 O80 1.238 . S
C77 O81 1.241 . S
C78 O71 1.247 . S
C78 O72 1.261 . S
C79 O74 1.259 . S
C79 O76 1.235 . S
O80 Co70 2.021 . S
O80 C77 1.238 . S
O81 Co75 2.052 . S
O81 C77 1.241 . S
O82 Co70 2.137 . S
O82 C73 1.247 . S
O83 Co70 2.244 . S
O83 C73 1.272 . S
O83 Co75 2.135 . S
Co84 O85 2.216 . S
Co84 O86 2.091 . S
Co84 O88 2.004 . S
Co84 O94 2.021 . S
Co84 O96 2.137 . S
Co84 O97 2.244 . S
O85 Co84 2.216 . S
O85 C92 1.247 . S
O86 Co84 2.091 . S
O86 C92 1.261 . S
C87 O96 1.247 . S
C87 O97 1.272 . S
O88 Co84 2.004 . S
O88 C93 1.259 . S
Co89 O90 2.061 . S
Co89 O95 2.052 . S
Co89 O97 2.135 . S
O90 Co89 2.061 . S
O90 C93 1.235 . S
C91 O94 1.238 . S
C91 O95 1.241 . S
C92 O85 1.247 . S
C92 O86 1.261 . S
C93 O88 1.259 . S
C93 O90 1.235 . S
O94 Co84 2.021 . S
O94 C91 1.238 . S
O95 Co89 2.052 . S
O95 C91 1.241 . S
O96 Co84 2.137 . S
O96 C87 1.247 . S
O97 Co84 2.244 . S
O97 C87 1.272 . S
O97 Co89 2.135 . S
Co98 O99 2.216 . S
Co98 O100 2.091 . S
Co98 O102 2.004 . S
Co98 O108 2.021 . S
Co98 O110 2.137 . S
Co98 O111 2.244 . S
O99 Co98 2.216 . S
O99 C106 1.247 . S
O100 Co98 2.091 . S
O100 C106 1.261 . S
C101 O110 1.247 . S
C101 O111 1.272 . S
O102 Co98 2.004 . S
O102 C107 1.259 . S
Co103 O104 2.061 . S
Co103 O109 2.052 . S
Co103 O111 2.135 . S
O104 Co103 2.061 . S
O104 C107 1.235 . S
C105 O108 1.238 . S
C105 O109 1.241 . S
C106 O99 1.247 . S
C106 O100 1.261 . S
C107 O102 1.259 . S
C107 O104 1.235 . S
O108 Co98 2.021 . S
O108 C105 1.238 . S
O109 Co103 2.052 . S
O109 C105 1.241 . S
O110 Co98 2.137 . S
O110 C101 1.247 . S
O111 Co98 2.244 . S
O111 C101 1.272 . S
O111 Co103 2.135 . S
Co112 O113 2.216 . S
Co112 O114 2.091 . S
Co112 O116 2.004 . S
Co112 O122 2.021 . S
Co112 O124 2.137 . S
Co112 O125 2.244 . S
O113 Co112 2.216 . S
O113 C120 1.247 . S
O114 Co112 2.091 . S
O114 C120 1.261 . S
C115 O124 1.247 . S
C115 O125 1.272 . S
O116 Co112 2.004 . S
O116 C121 1.259 . S
Co117 O118 2.061 . S
Co117 O123 2.052 . S
Co117 O125 2.135 . S
O118 Co117 2.061 . S
O118 C121 1.235 . S
C119 O122 1.238 . S
C119 O123 1.241 . S
C120 O113 1.247 . S
C120 O114 1.261 . S
C121 O116 1.259 . S
C121 O118 1.235 . S
O122 Co112 2.021 . S
O122 C119 1.238 . S
O123 Co117 2.052 . S
O123 C119 1.241 . S
O124 Co112 2.137 . S
O124 C115 1.247 . S
O125 Co112 2.244 . S
O125 C115 1.272 . S
O125 Co117 2.135 . S
Co126 O127 2.216 . S
Co126 O128 2.091 . S
Co126 O130 2.004 . S
Co126 O136 2.021 . S
Co126 O138 2.137 . S
Co126 O139 2.244 . S
O127 Co126 2.216 . S
O127 C134 1.247 . S
O128 Co126 2.091 . S
O128 C134 1.261 . S
C129 O138 1.247 . S
C129 O139 1.272 . S
O130 Co126 2.004 . S
O130 C135 1.259 . S
Co131 O132 2.061 . S
Co131 O137 2.052 . S
Co131 O139 2.135 . S
O132 Co131 2.061 . S
O132 C135 1.235 . S
C133 O136 1.238 . S
C133 O137 1.241 . S
C134 O127 1.247 . S
C134 O128 1.261 . S
C135 O130 1.259 . S
C135 O132 1.235 . S
O136 Co126 2.021 . S
O136 C133 1.238 . S
O137 Co131 2.052 . S
O137 C133 1.241 . S
O138 Co126 2.137 . S
O138 C129 1.247 . S
O139 Co126 2.244 . S
O139 C129 1.272 . S
O139 Co131 2.135 . S
Co140 O141 2.216 . S
Co140 O142 2.091 . S
Co140 O144 2.004 . S
Co140 O150 2.021 . S
Co140 O152 2.137 . S
Co140 O153 2.244 . S
O141 Co140 2.216 . S
O141 C148 1.247 . S
O142 Co140 2.091 . S
O142 C148 1.261 . S
C143 O152 1.247 . S
C143 O153 1.272 . S
O144 Co140 2.004 . S
O144 C149 1.259 . S
Co145 O146 2.061 . S
Co145 O151 2.052 . S
Co145 O153 2.135 . S
O146 Co145 2.061 . S
O146 C149 1.235 . S
C147 O150 1.238 . S
C147 O151 1.241 . S
C148 O141 1.247 . S
C148 O142 1.261 . S
C149 O144 1.259 . S
C149 O146 1.235 . S
O150 Co140 2.021 . S
O150 C147 1.238 . S
O151 Co145 2.052 . S
O151 C147 1.241 . S
O152 Co140 2.137 . S
O152 C143 1.247 . S
O153 Co140 2.244 . S
O153 C143 1.272 . S
O153 Co145 2.135 . S
Co154 O155 2.216 . S
Co154 O156 2.091 . S
Co154 O158 2.004 . S
Co154 O164 2.021 . S
Co154 O166 2.137 . S
Co154 O167 2.244 . S
O155 Co154 2.216 . S
O155 C162 1.247 . S
O156 Co154 2.091 . S
O156 C162 1.261 . S
C157 O166 1.247 . S
C157 O167 1.272 . S
O158 Co154 2.004 . S
O158 C163 1.259 . S
Co159 O160 2.061 . S
Co159 O165 2.052 . S
Co159 O167 2.135 . S
O160 Co159 2.061 . S
O160 C163 1.235 . S
C161 O164 1.238 . S
C161 O165 1.241 . S
C162 O155 1.247 . S
C162 O156 1.261 . S
C163 O158 1.259 . S
C163 O160 1.235 . S
O164 Co154 2.021 . S
O164 C161 1.238 . S
O165 Co159 2.052 . S
O165 C161 1.241 . S
O166 Co154 2.137 . S
O166 C157 1.247 . S
O167 Co154 2.244 . S
O167 C157 1.272 . S
O167 Co159 2.135 . S
Co168 O169 2.216 . S
Co168 O170 2.091 . S
Co168 O172 2.004 . S
Co168 O178 2.021 . S
Co168 O180 2.137 . S
Co168 O181 2.244 . S
O169 Co168 2.216 . S
O169 C176 1.247 . S
O170 Co168 2.091 . S
O170 C176 1.261 . S
C171 O180 1.247 . S
C171 O181 1.272 . S
O172 Co168 2.004 . S
O172 C177 1.259 . S
Co173 O174 2.061 . S
Co173 O179 2.052 . S
Co173 O181 2.135 . S
O174 Co173 2.061 . S
O174 C177 1.235 . S
C175 O178 1.238 . S
C175 O179 1.241 . S
C176 O169 1.247 . S
C176 O170 1.261 . S
C177 O172 1.259 . S
C177 O174 1.235 . S
O178 Co168 2.021 . S
O178 C175 1.238 . S
O179 Co173 2.052 . S
O179 C175 1.241 . S
O180 Co168 2.137 . S
O180 C171 1.247 . S
O181 Co168 2.244 . S
O181 C171 1.272 . S
O181 Co173 2.135 . S
Co182 O183 2.216 . S
Co182 O184 2.091 . S
Co182 O186 2.004 . S
Co182 O192 2.021 . S
Co182 O194 2.137 . S
Co182 O195 2.244 . S
O183 Co182 2.216 . S
O183 C190 1.247 . S
O184 Co182 2.091 . S
O184 C190 1.261 . S
C185 O194 1.247 . S
C185 O195 1.272 . S
O186 Co182 2.004 . S
O186 C191 1.259 . S
Co187 O188 2.061 . S
Co187 O193 2.052 . S
Co187 O195 2.135 . S
O188 Co187 2.061 . S
O188 C191 1.235 . S
C189 O192 1.238 . S
C189 O193 1.241 . S
C190 O183 1.247 . S
C190 O184 1.261 . S
C191 O186 1.259 . S
C191 O188 1.235 . S
O192 Co182 2.021 . S
O192 C189 1.238 . S
O193 Co187 2.052 . S
O193 C189 1.241 . S
O194 Co182 2.137 . S
O194 C185 1.247 . S
O195 Co182 2.244 . S
O195 C185 1.272 . S
O195 Co187 2.135 . S
Co196 O197 2.216 . S
Co196 O198 2.091 . S
Co196 O200 2.004 . S
Co196 O206 2.021 . S
Co196 O208 2.137 . S
Co196 O209 2.244 . S
O197 Co196 2.216 . S
O197 C204 1.247 . S
O198 Co196 2.091 . S
O198 C204 1.261 . S
C199 O208 1.247 . S
C199 O209 1.272 . S
O200 Co196 2.004 . S
O200 C205 1.259 . S
Co201 O202 2.061 . S
Co201 O207 2.052 . S
Co201 O209 2.135 . S
O202 Co201 2.061 . S
O202 C205 1.235 . S
C203 O206 1.238 . S
C203 O207 1.241 . S
C204 O197 1.247 . S
C204 O198 1.261 . S
C205 O200 1.259 . S
C205 O202 1.235 . S
O206 Co196 2.021 . S
O206 C203 1.238 . S
O207 Co201 2.052 . S
O207 C203 1.241 . S
O208 Co196 2.137 . S
O208 C199 1.247 . S
O209 Co196 2.244 . S
O209 C199 1.272 . S
O209 Co201 2.135 . S
Co210 O211 2.216 . S
Co210 O212 2.091 . S
Co210 O214 2.004 . S
Co210 O220 2.021 . S
Co210 O222 2.137 . S
Co210 O223 2.244 . S
O211 Co210 2.216 . S
O211 C218 1.247 . S
O212 Co210 2.091 . S
O212 C218 1.261 . S
C213 O222 1.247 . S
C213 O223 1.272 . S
O214 Co210 2.004 . S
O214 C219 1.259 . S
Co215 O216 2.061 . S
Co215 O221 2.052 . S
Co215 O223 2.135 . S
O216 Co215 2.061 . S
O216 C219 1.235 . S
C217 O220 1.238 . S
C217 O221 1.241 . S
C218 O211 1.247 . S
C218 O212 1.261 . S
C219 O214 1.259 . S
C219 O216 1.235 . S
O220 Co210 2.021 . S
O220 C217 1.238 . S
O221 Co215 2.052 . S
O221 C217 1.241 . S
O222 Co210 2.137 . S
O222 C213 1.247 . S
O223 Co210 2.244 . S
O223 C213 1.272 . S
O223 Co215 2.135 . S
Co224 O225 2.216 . S
Co224 O226 2.091 . S
Co224 O228 2.004 . S
Co224 O234 2.021 . S
Co224 O236 2.137 . S
Co224 O237 2.244 . S
O225 Co224 2.216 . S
O225 C232 1.247 . S
O226 Co224 2.091 . S
O226 C232 1.261 . S
C227 O236 1.247 . S
C227 O237 1.272 . S
O228 Co224 2.004 . S
O228 C233 1.259 . S
Co229 O230 2.061 . S
Co229 O235 2.052 . S
Co229 O237 2.135 . S
O230 Co229 2.061 . S
O230 C233 1.235 . S
C231 O234 1.238 . S
C231 O235 1.241 . S
C232 O225 1.247 . S
C232 O226 1.261 . S
C233 O228 1.259 . S
C233 O230 1.235 . S
O234 Co224 2.021 . S
O234 C231 1.238 . S
O235 Co229 2.052 . S
O235 C231 1.241 . S
O236 Co224 2.137 . S
O236 C227 1.247 . S
O237 Co224 2.244 . S
O237 C227 1.272 . S
O237 Co229 2.135 . S
Co238 O239 2.216 . S
Co238 O240 2.091 . S
Co238 O242 2.004 . S
Co238 O248 2.021 . S
Co238 O250 2.137 . S
Co238 O251 2.244 . S
O239 Co238 2.216 . S
O239 C246 1.247 . S
O240 Co238 2.091 . S
O240 C246 1.261 . S
C241 O250 1.247 . S
C241 O251 1.272 . S
O242 Co238 2.004 . S
O242 C247 1.259 . S
Co243 O244 2.061 . S
Co243 O249 2.052 . S
Co243 O251 2.135 . S
O244 Co243 2.061 . S
O244 C247 1.235 . S
C245 O248 1.238 . S
C245 O249 1.241 . S
C246 O239 1.247 . S
C246 O240 1.261 . S
C247 O242 1.259 . S
C247 O244 1.235 . S
O248 Co238 2.021 . S
O248 C245 1.238 . S
O249 Co243 2.052 . S
O249 C245 1.241 . S
O250 Co238 2.137 . S
O250 C241 1.247 . S
O251 Co238 2.244 . S
O251 C241 1.272 . S
O251 Co243 2.135 . S
Co252 O253 2.216 . S
Co252 O254 2.091 . S
Co252 O256 2.004 . S
Co252 O262 2.021 . S
Co252 O264 2.137 . S
Co252 O265 2.244 . S
O253 Co252 2.216 . S
O253 C260 1.247 . S
O254 Co252 2.091 . S
O254 C260 1.261 . S
C255 O264 1.247 . S
C255 O265 1.272 . S
O256 Co252 2.004 . S
O256 C261 1.259 . S
Co257 O258 2.061 . S
Co257 O263 2.052 . S
Co257 O265 2.135 . S
O258 Co257 2.061 . S
O258 C261 1.235 . S
C259 O262 1.238 . S
C259 O263 1.241 . S
C260 O253 1.247 . S
C260 O254 1.261 . S
C261 O256 1.259 . S
C261 O258 1.235 . S
O262 Co252 2.021 . S
O262 C259 1.238 . S
O263 Co257 2.052 . S
O263 C259 1.241 . S
O264 Co252 2.137 . S
O264 C255 1.247 . S
O265 Co252 2.244 . S
O265 C255 1.272 . S
O265 Co257 2.135 . S
Co266 O267 2.216 . S
Co266 O268 2.091 . S
Co266 O270 2.004 . S
Co266 O276 2.021 . S
Co266 O278 2.137 . S
Co266 O279 2.244 . S
O267 Co266 2.216 . S
O267 C274 1.247 . S
O268 Co266 2.091 . S
O268 C274 1.261 . S
C269 O278 1.247 . S
C269 O279 1.272 . S
O270 Co266 2.004 . S
O270 C275 1.259 . S
Co271 O272 2.061 . S
Co271 O277 2.052 . S
Co271 O279 2.135 . S
O272 Co271 2.061 . S
O272 C275 1.235 . S
C273 O276 1.238 . S
C273 O277 1.241 . S
C274 O267 1.247 . S
C274 O268 1.261 . S
C275 O270 1.259 . S
C275 O272 1.235 . S
O276 Co266 2.021 . S
O276 C273 1.238 . S
O277 Co271 2.052 . S
O277 C273 1.241 . S
O278 Co266 2.137 . S
O278 C269 1.247 . S
O279 Co266 2.244 . S
O279 C269 1.272 . S
O279 Co271 2.135 . S
Co280 O281 2.216 . S
Co280 O282 2.091 . S
Co280 O284 2.004 . S
Co280 O290 2.021 . S
Co280 O292 2.137 . S
Co280 O293 2.244 . S
O281 Co280 2.216 . S
O281 C288 1.247 . S
O282 Co280 2.091 . S
O282 C288 1.261 . S
C283 O292 1.247 . S
C283 O293 1.272 . S
O284 Co280 2.004 . S
O284 C289 1.259 . S
Co285 O286 2.061 . S
Co285 O291 2.052 . S
Co285 O293 2.135 . S
O286 Co285 2.061 . S
O286 C289 1.235 . S
C287 O290 1.238 . S
C287 O291 1.241 . S
C288 O281 1.247 . S
C288 O282 1.261 . S
C289 O284 1.259 . S
C289 O286 1.235 . S
O290 Co280 2.021 . S
O290 C287 1.238 . S
O291 Co285 2.052 . S
O291 C287 1.241 . S
O292 Co280 2.137 . S
O292 C283 1.247 . S
O293 Co280 2.244 . S
O293 C283 1.272 . S
O293 Co285 2.135 . S
Co294 O295 2.216 . S
Co294 O296 2.091 . S
Co294 O298 2.004 . S
Co294 O304 2.021 . S
Co294 O306 2.137 . S
Co294 O307 2.244 . S
O295 Co294 2.216 . S
O295 C302 1.247 . S
O296 Co294 2.091 . S
O296 C302 1.261 . S
C297 O306 1.247 . S
C297 O307 1.272 . S
O298 Co294 2.004 . S
O298 C303 1.259 . S
Co299 O300 2.061 . S
Co299 O305 2.052 . S
Co299 O307 2.135 . S
O300 Co299 2.061 . S
O300 C303 1.235 . S
C301 O304 1.238 . S
C301 O305 1.241 . S
C302 O295 1.247 . S
C302 O296 1.261 . S
C303 O298 1.259 . S
C303 O300 1.235 . S
O304 Co294 2.021 . S
O304 C301 1.238 . S
O305 Co299 2.052 . S
O305 C301 1.241 . S
O306 Co294 2.137 . S
O306 C297 1.247 . S
O307 Co294 2.244 . S
O307 C297 1.272 . S
O307 Co299 2.135 . S
Co308 O309 2.216 . S
Co308 O310 2.091 . S
Co308 O312 2.004 . S
Co308 O318 2.021 . S
Co308 O320 2.137 . S
Co308 O321 2.244 . S
O309 Co308 2.216 . S
O309 C316 1.247 . S
O310 Co308 2.091 . S
O310 C316 1.261 . S
C311 O320 1.247 . S
C311 O321 1.272 . S
O312 Co308 2.004 . S
O312 C317 1.259 . S
Co313 O314 2.061 . S
Co313 O319 2.052 . S
Co313 O321 2.135 . S
O314 Co313 2.061 . S
O314 C317 1.235 . S
C315 O318 1.238 . S
C315 O319 1.241 . S
C316 O309 1.247 . S
C316 O310 1.261 . S
C317 O312 1.259 . S
C317 O314 1.235 . S
O318 Co308 2.021 . S
O318 C315 1.238 . S
O319 Co313 2.052 . S
O319 C315 1.241 . S
O320 Co308 2.137 . S
O320 C311 1.247 . S
O321 Co308 2.244 . S
O321 C311 1.272 . S
O321 Co313 2.135 . S
Co322 O323 2.216 . S
Co322 O324 2.091 . S
Co322 O326 2.004 . S
Co322 O332 2.021 . S
Co322 O334 2.137 . S
Co322 O335 2.244 . S
O323 Co322 2.216 . S
O323 C330 1.247 . S
O324 Co322 2.091 . S
O324 C330 1.261 . S
C325 O334 1.247 . S
C325 O335 1.272 . S
O326 Co322 2.004 . S
O326 C331 1.259 . S
Co327 O328 2.061 . S
Co327 O333 2.052 . S
Co327 O335 2.135 . S
O328 Co327 2.061 . S
O328 C331 1.235 . S
C329 O332 1.238 . S
C329 O333 1.241 . S
C330 O323 1.247 . S
C330 O324 1.261 . S
C331 O326 1.259 . S
C331 O328 1.235 . S
O332 Co322 2.021 . S
O332 C329 1.238 . S
O333 Co327 2.052 . S
O333 C329 1.241 . S
O334 Co322 2.137 . S
O334 C325 1.247 . S
O335 Co322 2.244 . S
O335 C325 1.272 . S
O335 Co327 2.135 . S
H336 C344 0.929 . S
H337 C346 0.930 . S
H338 C348 0.930 . S
H339 C351 0.929 . S
H340 C354 0.930 . S
H341 C356 0.960 . S
H342 C356 0.960 . S
H343 C356 0.960 . S
C344 H336 0.929 . S
C344 C345 1.377 . S
C344 C346 1.384 . S
C345 C344 1.377 . S
C345 C351 1.390 . S
C346 H337 0.930 . S
C346 C344 1.384 . S
C346 C347 1.372 . S
C347 C346 1.372 . S
C347 C348 1.400 . S
C347 C352 1.490 . S
C348 H338 0.930 . S
C348 C347 1.400 . S
C348 C351 1.386 . S
H349 C365 0.930 . S
H350 C366 0.931 . S
C351 H339 0.929 . S
C351 C345 1.390 . S
C351 C348 1.386 . S
C352 C347 1.490 . S
C352 C354 1.395 . S
C352 C355 1.403 . S
H353 C359 0.930 . S
C354 H340 0.930 . S
C354 C352 1.395 . S
C354 C357 1.403 . S
C355 C352 1.403 . S
C355 C356 1.524 . S
C355 C359 1.400 . S
C356 H341 0.960 . S
C356 H342 0.960 . S
C356 H343 0.960 . S
C356 C355 1.524 . S
C357 C354 1.403 . S
C357 C358 1.392 . S
C357 C361 1.495 . S
C358 C357 1.392 . S
C358 C359 1.385 . S
C358 C360 1.478 . S
C359 H353 0.930 . S
C359 C355 1.400 . S
C359 C358 1.385 . S
C360 C358 1.478 . S
C360 C362 1.381 . S
C360 C366 1.383 . S
C361 C357 1.495 . S
C361 H367 0.959 . S
C361 H368 0.961 . S
C361 H369 0.960 . S
C362 C360 1.381 . S
C362 C363 1.394 . S
C362 H370 0.930 . S
C363 C362 1.394 . S
C363 C364 1.383 . S
C363 H371 0.929 . S
C364 C363 1.383 . S
C364 C365 1.377 . S
C365 H349 0.930 . S
C365 C364 1.377 . S
C365 C366 1.379 . S
C366 H350 0.931 . S
C366 C360 1.383 . S
C366 C365 1.379 . S
H367 C361 0.959 . S
H368 C361 0.961 . S
H369 C361 0.960 . S
H370 C362 0.930 . S
H371 C363 0.929 . S
H372 C380 0.929 . S
H373 C382 0.916 1_455 S
H374 C384 0.930 . S
H375 C387 0.929 . S
H376 C390 0.930 1_655 S
H377 C392 0.960 . S
H378 C392 0.960 . S
H379 C392 0.960 . S
C380 H372 0.929 . S
C380 C381 1.377 . S
C380 C382 1.384 . S
C381 C380 1.377 . S
C381 C387 1.390 . S
C382 H373 0.916 1_655 S
C382 C380 1.384 . S
C382 C383 1.360 1_655 S
C383 C382 1.360 1_455 S
C383 C384 1.382 1_455 S
C383 C388 1.520 . S
C384 H374 0.930 . S
C384 C383 1.382 1_655 S
C384 C387 1.386 . S
H385 C401 0.930 . S
H386 C402 0.931 . S
C387 H375 0.929 . S
C387 C381 1.390 . S
C387 C384 1.386 . S
C388 C383 1.520 . S
C388 C390 1.395 . S
C388 C391 1.403 . S
H389 C395 0.930 . S
C390 H376 0.930 1_455 S
C390 C388 1.395 . S
C390 C393 1.403 . S
C391 C388 1.403 . S
C391 C392 1.524 . S
C391 C395 1.400 . S
C392 H377 0.960 . S
C392 H378 0.960 . S
C392 H379 0.960 . S
C392 C391 1.524 . S
C393 C390 1.403 . S
C393 C394 1.392 . S
C393 C397 1.495 . S
C394 C393 1.392 . S
C394 C395 1.385 . S
C394 C396 1.478 . S
C395 H389 0.930 . S
C395 C391 1.400 . S
C395 C394 1.385 . S
C396 C394 1.478 . S
C396 C398 1.381 . S
C396 C402 1.383 . S
C397 C393 1.495 . S
C397 H403 0.959 . S
C397 H404 0.961 . S
C397 H405 0.960 . S
C398 C396 1.381 . S
C398 C399 1.394 . S
C398 H406 0.930 . S
C399 C398 1.394 . S
C399 C400 1.383 . S
C399 H407 0.929 . S
C400 C399 1.383 . S
C400 C401 1.377 . S
C401 H385 0.930 . S
C401 C400 1.377 . S
C401 C402 1.379 . S
C402 H386 0.931 . S
C402 C396 1.383 . S
C402 C401 1.379 . S
H403 C397 0.959 . S
H404 C397 0.961 . S
H405 C397 0.960 . S
H406 C398 0.930 . S
H407 C399 0.929 . S
H408 C416 0.929 . S
H409 C418 0.930 . S
H410 C420 0.930 . S
H411 C423 0.929 . S
H412 C426 0.930 . S
H413 C428 0.960 . S
H414 C428 0.960 . S
H415 C428 0.960 . S
C416 H408 0.929 . S
C416 C417 1.377 . S
C416 C418 1.384 . S
C417 C416 1.377 . S
C417 C423 1.390 . S
C418 H409 0.930 . S
C418 C416 1.384 . S
C418 C419 1.372 . S
C419 C418 1.372 . S
C419 C420 1.400 . S
C419 C424 1.490 . S
C420 H410 0.930 . S
C420 C419 1.400 . S
C420 C423 1.386 . S
H421 C437 0.930 . S
H422 C438 0.931 . S
C423 H411 0.929 . S
C423 C417 1.390 . S
C423 C420 1.386 . S
C424 C419 1.490 . S
C424 C426 1.395 . S
C424 C427 1.403 . S
H425 C431 0.930 . S
C426 H412 0.930 . S
C426 C424 1.395 . S
C426 C429 1.403 . S
C427 C424 1.403 . S
C427 C428 1.524 . S
C427 C431 1.400 . S
C428 H413 0.960 . S
C428 H414 0.960 . S
C428 H415 0.960 . S
C428 C427 1.524 . S
C429 C426 1.403 . S
C429 C430 1.392 . S
C429 C433 1.495 . S
C430 C429 1.392 . S
C430 C431 1.385 . S
C430 C432 1.478 . S
C431 H425 0.930 . S
C431 C427 1.400 . S
C431 C430 1.385 . S
C432 C430 1.478 . S
C432 C434 1.381 1_556 S
C432 C438 1.383 . S
C433 C429 1.495 . S
C433 H439 0.959 . S
C433 H440 0.961 . S
C433 H441 0.960 . S
C434 C432 1.381 1_554 S
C434 C435 1.394 . S
C434 H442 0.930 . S
C435 C434 1.394 . S
C435 C436 1.383 . S
C435 H443 0.929 . S
C436 C435 1.383 . S
C436 C437 1.377 . S
C437 H421 0.930 . S
C437 C436 1.377 . S
C437 C438 1.379 1_554 S
C438 H422 0.931 . S
C438 C432 1.383 . S
C438 C437 1.379 1_556 S
H439 C433 0.959 . S
H440 C433 0.961 . S
H441 C433 0.960 . S
H442 C434 0.930 . S
H443 C435 0.929 . S
H444 C452 0.929 . S
H445 C454 0.930 . S
H446 C456 0.930 . S
H447 C459 0.929 . S
H448 C462 0.930 . S
H449 C464 0.960 . S
H450 C464 0.960 . S
H451 C464 0.960 . S
C452 H444 0.929 . S
C452 C453 1.377 . S
C452 C454 1.384 . S
C453 C452 1.377 . S
C453 C459 1.390 . S
C454 H445 0.930 . S
C454 C452 1.384 . S
C454 C455 1.372 . S
C455 C454 1.372 . S
C455 C456 1.400 . S
C455 C460 1.490 . S
C456 H446 0.930 . S
C456 C455 1.400 . S
C456 C459 1.386 . S
H457 C473 0.930 . S
H458 C474 0.931 . S
C459 H447 0.929 . S
C459 C453 1.390 . S
C459 C456 1.386 . S
C460 C455 1.490 . S
C460 C462 1.395 . S
C460 C463 1.403 . S
H461 C467 0.930 . S
C462 H448 0.930 . S
C462 C460 1.395 . S
C462 C465 1.403 . S
C463 C460 1.403 . S
C463 C464 1.524 . S
C463 C467 1.400 . S
C464 H449 0.960 . S
C464 H450 0.960 . S
C464 H451 0.960 . S
C464 C463 1.524 . S
C465 C462 1.403 . S
C465 C466 1.392 . S
C465 C469 1.495 . S
C466 C465 1.392 . S
C466 C467 1.385 . S
C466 C468 1.478 . S
C467 H461 0.930 . S
C467 C463 1.400 . S
C467 C466 1.385 . S
C468 C466 1.478 . S
C468 C470 1.381 . S
C468 C474 1.383 . S
C469 C465 1.495 . S
C469 H475 0.959 . S
C469 H476 0.961 . S
C469 H477 0.960 . S
C470 C468 1.381 . S
C470 C471 1.394 . S
C470 H478 0.930 . S
C471 C470 1.394 . S
C471 C472 1.383 . S
C471 H479 0.929 . S
C472 C471 1.383 . S
C472 C473 1.377 . S
C473 H457 0.930 . S
C473 C472 1.377 . S
C473 C474 1.379 . S
C474 H458 0.931 . S
C474 C468 1.383 . S
C474 C473 1.379 . S
H475 C469 0.959 . S
H476 C469 0.961 . S
H477 C469 0.960 . S
H478 C470 0.930 . S
H479 C471 0.929 . S
H480 C488 0.929 . S
H481 C490 0.930 . S
H482 C492 0.930 . S
H483 C495 0.929 . S
H484 C498 0.930 . S
H485 C500 0.960 . S
H486 C500 0.960 . S
H487 C500 0.960 . S
C488 H480 0.929 . S
C488 C489 1.377 . S
C488 C490 1.384 . S
C489 C488 1.377 . S
C489 C495 1.390 . S
C490 H481 0.930 . S
C490 C488 1.384 . S
C490 C491 1.372 . S
C491 C490 1.372 . S
C491 C492 1.400 . S
C491 C496 1.490 . S
C492 H482 0.930 . S
C492 C491 1.400 . S
C492 C495 1.386 . S
H493 C509 0.930 . S
H494 C510 0.931 . S
C495 H483 0.929 . S
C495 C489 1.390 . S
C495 C492 1.386 . S
C496 C491 1.490 . S
C496 C498 1.395 . S
C496 C499 1.403 . S
H497 C503 0.930 . S
C498 H484 0.930 . S
C498 C496 1.395 . S
C498 C501 1.403 . S
C499 C496 1.403 . S
C499 C500 1.524 . S
C499 C503 1.400 . S
C500 H485 0.960 . S
C500 H486 0.960 . S
C500 H487 0.960 . S
C500 C499 1.524 . S
C501 C498 1.403 . S
C501 C502 1.392 . S
C501 C505 1.495 . S
C502 C501 1.392 . S
C502 C503 1.385 . S
C502 C504 1.478 . S
C503 H497 0.930 . S
C503 C499 1.400 . S
C503 C502 1.385 . S
C504 C502 1.478 . S
C504 C506 1.381 . S
C504 C510 1.383 . S
C505 C501 1.495 . S
C505 H511 0.959 . S
C505 H512 0.961 . S
C505 H513 0.960 . S
C506 C504 1.381 . S
C506 C507 1.394 . S
C506 H514 0.930 . S
C507 C506 1.394 . S
C507 C508 1.383 . S
C507 H515 0.929 . S
C508 C507 1.383 . S
C508 C509 1.377 . S
C509 H493 0.930 . S
C509 C508 1.377 . S
C509 C510 1.379 . S
C510 H494 0.931 . S
C510 C504 1.383 . S
C510 C509 1.379 . S
H511 C505 0.959 . S
H512 C505 0.961 . S
H513 C505 0.960 . S
H514 C506 0.930 . S
H515 C507 0.929 . S
H516 C524 0.929 . S
H517 C526 0.930 . S
H518 C528 0.930 . S
H519 C531 0.929 . S
H520 C534 0.930 . S
H521 C536 0.960 . S
H522 C536 0.960 . S
H523 C536 0.960 . S
C524 H516 0.929 . S
C524 C525 1.377 . S
C524 C526 1.384 . S
C525 C524 1.377 . S
C525 C531 1.390 . S
C526 H517 0.930 . S
C526 C524 1.384 . S
C526 C527 1.372 . S
C527 C526 1.372 . S
C527 C528 1.400 . S
C527 C532 1.490 . S
C528 H518 0.930 . S
C528 C527 1.400 . S
C528 C531 1.386 . S
H529 C545 0.930 . S
H530 C546 0.931 . S
C531 H519 0.929 . S
C531 C525 1.390 . S
C531 C528 1.386 . S
C532 C527 1.490 . S
C532 C534 1.395 . S
C532 C535 1.403 . S
H533 C539 0.930 . S
C534 H520 0.930 . S
C534 C532 1.395 . S
C534 C537 1.403 . S
C535 C532 1.403 . S
C535 C536 1.524 . S
C535 C539 1.400 . S
C536 H521 0.960 . S
C536 H522 0.960 . S
C536 H523 0.960 . S
C536 C535 1.524 . S
C537 C534 1.403 . S
C537 C538 1.392 . S
C537 C541 1.533 . S
C538 C537 1.392 . S
C538 C539 1.385 . S
C538 C540 1.478 1_655 S
C539 H533 0.930 . S
C539 C535 1.400 . S
C539 C538 1.385 . S
C540 C538 1.478 1_455 S
C540 C542 1.381 . S
C540 C546 1.383 1_455 S
C541 C537 1.533 . S
C541 H547 0.974 . S
C541 H548 0.974 . S
C541 H549 0.899 1_655 S
C542 C540 1.381 . S
C542 C543 1.394 . S
C542 H550 0.930 . S
C543 C542 1.394 . S
C543 C544 1.383 . S
C543 H551 0.929 . S
C544 C543 1.383 . S
C544 C545 1.377 . S
C545 H529 0.930 . S
C545 C544 1.377 . S
C545 C546 1.379 1_455 S
C546 H530 0.931 . S
C546 C540 1.383 1_655 S
C546 C545 1.379 1_655 S
H547 C541 0.974 . S
H548 C541 0.974 . S
H549 C541 0.899 1_455 S
H550 C542 0.930 . S
H551 C543 0.929 . S
H552 C560 0.929 . S
H553 C562 0.930 . S
H554 C564 0.930 . S
H555 C567 0.929 . S
H556 C570 0.930 . S
H557 C572 0.960 . S
H558 C572 0.960 . S
H559 C572 0.960 . S
C560 H552 0.929 . S
C560 C561 1.377 . S
C560 C562 1.384 . S
C561 C560 1.377 . S
C561 C567 1.390 . S
C562 H553 0.930 . S
C562 C560 1.384 . S
C562 C563 1.372 . S
C563 C562 1.372 . S
C563 C564 1.400 . S
C563 C568 1.490 . S
C564 H554 0.930 . S
C564 C563 1.400 . S
C564 C567 1.386 . S
H565 C581 0.930 . S
H566 C582 0.931 . S
C567 H555 0.929 . S
C567 C561 1.390 . S
C567 C564 1.386 . S
C568 C563 1.490 . S
C568 C570 1.395 . S
C568 C571 1.403 . S
H569 C575 0.930 . S
C570 H556 0.930 . S
C570 C568 1.395 . S
C570 C573 1.403 . S
C571 C568 1.403 . S
C571 C572 1.524 . S
C571 C575 1.400 . S
C572 H557 0.960 . S
C572 H558 0.960 . S
C572 H559 0.960 . S
C572 C571 1.524 . S
C573 C570 1.403 . S
C573 C574 1.392 . S
C573 C577 1.495 . S
C574 C573 1.392 . S
C574 C575 1.385 . S
C574 C576 1.478 . S
C575 H569 0.930 . S
C575 C571 1.400 . S
C575 C574 1.385 . S
C576 C574 1.478 . S
C576 C578 1.381 1_554 S
C576 C582 1.383 . S
C577 C573 1.495 . S
C577 H583 0.959 . S
C577 H584 0.961 . S
C577 H585 0.960 . S
C578 C576 1.381 1_556 S
C578 C579 1.394 . S
C578 H586 0.930 . S
C579 C578 1.394 . S
C579 C580 1.383 . S
C579 H587 0.929 . S
C580 C579 1.383 . S
C580 C581 1.377 . S
C581 H565 0.930 . S
C581 C580 1.377 . S
C581 C582 1.379 1_556 S
C582 H566 0.931 . S
C582 C576 1.383 . S
C582 C581 1.379 1_554 S
H583 C577 0.959 . S
H584 C577 0.961 . S
H585 C577 0.960 . S
H586 C578 0.930 . S
H587 C579 0.929 . S
H588 C596 0.929 . S
H589 C598 0.930 . S
H590 C600 0.930 . S
H591 C603 0.929 . S
H592 C606 0.930 . S
H593 C608 0.960 . S
H594 C608 0.960 . S
H595 C608 0.960 . S
C596 H588 0.929 . S
C596 C597 1.377 . S
C596 C598 1.384 . S
C597 C596 1.377 . S
C597 C603 1.390 . S
C598 H589 0.930 . S
C598 C596 1.384 . S
C598 C599 1.372 . S
C599 C598 1.372 . S
C599 C600 1.400 . S
C599 C604 1.490 . S
C600 H590 0.930 . S
C600 C599 1.400 . S
C600 C603 1.386 . S
H601 C617 0.930 . S
H602 C618 0.931 . S
C603 H591 0.929 . S
C603 C597 1.390 . S
C603 C600 1.386 . S
C604 C599 1.490 . S
C604 C606 1.395 . S
C604 C607 1.403 . S
H605 C611 0.930 . S
C606 H592 0.930 . S
C606 C604 1.395 . S
C606 C609 1.403 . S
C607 C604 1.403 . S
C607 C608 1.524 . S
C607 C611 1.400 . S
C608 H593 0.960 . S
C608 H594 0.960 . S
C608 H595 0.960 . S
C608 C607 1.524 . S
C609 C606 1.403 . S
C609 C610 1.392 . S
C609 C613 1.495 . S
C610 C609 1.392 . S
C610 C611 1.385 . S
C610 C612 1.478 . S
C611 H605 0.930 . S
C611 C607 1.400 . S
C611 C610 1.385 . S
C612 C610 1.478 . S
C612 C614 1.381 . S
C612 C618 1.383 . S
C613 C609 1.495 . S
C613 H619 0.959 . S
C613 H620 0.961 . S
C613 H621 0.960 . S
C614 C612 1.381 . S
C614 C615 1.394 . S
C614 H622 0.930 . S
C615 C614 1.394 . S
C615 C616 1.383 . S
C615 H623 0.929 . S
C616 C615 1.383 . S
C616 C617 1.377 . S
C617 H601 0.930 . S
C617 C616 1.377 . S
C617 C618 1.379 . S
C618 H602 0.931 . S
C618 C612 1.383 . S
C618 C617 1.379 . S
H619 C613 0.959 . S
H620 C613 0.961 . S
H621 C613 0.960 . S
H622 C614 0.930 . S
H623 C615 0.929 . S
H624 C632 0.929 . S
H625 C634 0.930 . S
H626 C636 0.930 . S
H627 C639 0.929 . S
H628 C642 0.930 . S
H629 C644 0.960 . S
H630 C644 0.960 . S
H631 C644 0.960 . S
C632 H624 0.929 . S
C632 C633 1.377 . S
C632 C634 1.384 . S
C633 C632 1.377 . S
C633 C639 1.390 . S
C634 H625 0.930 . S
C634 C632 1.384 . S
C634 C635 1.372 . S
C635 C634 1.372 . S
C635 C636 1.400 . S
C635 C640 1.490 . S
C636 H626 0.930 . S
C636 C635 1.400 . S
C636 C639 1.386 . S
H637 C653 0.930 . S
H638 C654 0.931 . S
C639 H627 0.929 . S
C639 C633 1.390 . S
C639 C636 1.386 . S
C640 C635 1.490 . S
C640 C642 1.395 . S
C640 C643 1.403 . S
H641 C647 0.930 . S
C642 H628 0.930 . S
C642 C640 1.395 . S
C642 C645 1.403 . S
C643 C640 1.403 . S
C643 C644 1.524 . S
C643 C647 1.400 . S
C644 H629 0.960 . S
C644 H630 0.960 . S
C644 H631 0.960 . S
C644 C643 1.524 . S
C645 C642 1.403 . S
C645 C646 1.392 . S
C645 C649 1.495 . S
C646 C645 1.392 . S
C646 C647 1.385 . S
C646 C648 1.478 . S
C647 H641 0.930 . S
C647 C643 1.400 . S
C647 C646 1.385 . S
C648 C646 1.478 . S
C648 C650 1.381 . S
C648 C654 1.383 . S
C649 C645 1.495 . S
C649 H655 0.959 . S
C649 H656 0.961 . S
C649 H657 0.960 . S
C650 C648 1.381 . S
C650 C651 1.394 . S
C650 H658 0.930 . S
C651 C650 1.394 . S
C651 C652 1.383 . S
C651 H659 0.929 . S
C652 C651 1.383 . S
C652 C653 1.377 . S
C653 H637 0.930 . S
C653 C652 1.377 . S
C653 C654 1.379 . S
C654 H638 0.931 . S
C654 C648 1.383 . S
C654 C653 1.379 . S
H655 C649 0.959 . S
H656 C649 0.961 . S
H657 C649 0.960 . S
H658 C650 0.930 . S
H659 C651 0.929 . S
H660 C668 0.929 . S
H661 C670 0.930 . S
H662 C672 0.930 . S
H663 C675 0.929 . S
H664 C678 0.930 1_565 S
H665 C680 0.960 . S
H666 C680 0.960 . S
H667 C680 0.960 . S
C668 H660 0.929 . S
C668 C669 1.377 . S
C668 C670 1.384 . S
C669 C668 1.377 . S
C669 C675 1.390 . S
C670 H661 0.930 . S
C670 C668 1.384 . S
C670 C671 1.376 . S
C671 C670 1.376 . S
C671 C672 1.398 1_565 S
C671 C676 1.487 1_565 S
C672 H662 0.930 . S
C672 C671 1.398 1_545 S
C672 C675 1.386 1_545 S
H673 C689 0.930 . S
H674 C690 0.931 . S
C675 H663 0.929 . S
C675 C669 1.390 . S
C675 C672 1.386 1_565 S
C676 C671 1.487 1_545 S
C676 C678 1.395 . S
C676 C679 1.403 . S
H677 C683 0.930 . S
C678 H664 0.930 1_545 S
C678 C676 1.395 . S
C678 C681 1.403 . S
C679 C676 1.403 . S
C679 C680 1.524 . S
C679 C683 1.400 . S
C680 H665 0.960 . S
C680 H666 0.960 . S
C680 H667 0.960 . S
C680 C679 1.524 . S
C681 C678 1.403 . S
C681 C682 1.392 . S
C681 C685 1.495 . S
C682 C681 1.392 . S
C682 C683 1.385 . S
C682 C684 1.478 . S
C683 H677 0.930 . S
C683 C679 1.400 . S
C683 C682 1.385 . S
C684 C682 1.478 . S
C684 C686 1.381 . S
C684 C690 1.383 . S
C685 C681 1.495 . S
C685 H691 0.959 . S
C685 H692 0.961 . S
C685 H693 0.960 . S
C686 C684 1.381 . S
C686 C687 1.394 . S
C686 H694 0.930 . S
C687 C686 1.394 . S
C687 C688 1.383 . S
C687 H695 0.929 . S
C688 C687 1.383 . S
C688 C689 1.377 . S
C689 H673 0.930 . S
C689 C688 1.377 . S
C689 C690 1.379 . S
C690 H674 0.931 . S
C690 C684 1.383 . S
C690 C689 1.379 . S
H691 C685 0.959 . S
H692 C685 0.961 . S
H693 C685 0.960 . S
H694 C686 0.930 . S
H695 C687 0.929 . S
H696 C704 0.929 . S
H697 C706 0.930 . S
H698 C708 0.930 . S
H699 C711 0.929 . S
H700 C714 0.930 . S
H701 C716 0.960 . S
H702 C716 0.960 . S
H703 C716 0.960 . S
C704 H696 0.929 . S
C704 C705 1.377 . S
C704 C706 1.384 . S
C705 C704 1.377 . S
C705 C711 1.390 . S
C706 H697 0.930 . S
C706 C704 1.384 . S
C706 C707 1.372 . S
C707 C706 1.372 . S
C707 C708 1.400 . S
C707 C712 1.490 . S
C708 H698 0.930 . S
C708 C707 1.400 . S
C708 C711 1.386 . S
H709 C725 0.930 . S
H710 C726 0.931 . S
C711 H699 0.929 . S
C711 C705 1.390 . S
C711 C708 1.386 . S
C712 C707 1.490 . S
C712 C714 1.395 . S
C712 C715 1.403 . S
H713 C719 0.930 . S
C714 H700 0.930 . S
C714 C712 1.395 . S
C714 C717 1.403 . S
C715 C712 1.403 . S
C715 C716 1.524 . S
C715 C719 1.400 . S
C716 H701 0.960 . S
C716 H702 0.960 . S
C716 H703 0.960 . S
C716 C715 1.524 . S
C717 C714 1.403 . S
C717 C718 1.392 . S
C717 C721 1.495 . S
C718 C717 1.392 . S
C718 C719 1.385 . S
C718 C720 1.478 . S
C719 H713 0.930 . S
C719 C715 1.400 . S
C719 C718 1.385 . S
C720 C718 1.478 . S
C720 C722 1.381 . S
C720 C726 1.383 1_565 S
C721 C717 1.495 . S
C721 H727 0.959 . S
C721 H728 0.961 . S
C721 H729 0.960 . S
C722 C720 1.381 . S
C722 C723 1.394 1_565 S
C722 H730 0.930 . S
C723 C722 1.394 1_545 S
C723 C724 1.383 . S
C723 H731 0.929 . S
C724 C723 1.383 . S
C724 C725 1.377 . S
C725 H709 0.930 . S
C725 C724 1.377 . S
C725 C726 1.379 . S
C726 H710 0.931 . S
C726 C720 1.383 1_545 S
C726 C725 1.379 . S
H727 C721 0.959 . S
H728 C721 0.961 . S
H729 C721 0.960 . S
H730 C722 0.930 . S
H731 C723 0.929 . S
H732 C740 0.929 . S
H733 C742 0.930 . S
H734 C744 0.930 . S
H735 C747 0.929 . S
H736 C750 0.930 . S
H737 C752 0.960 . S
H738 C752 0.960 . S
H739 C752 0.960 . S
C740 H732 0.929 . S
C740 C741 1.377 . S
C740 C742 1.384 . S
C741 C740 1.377 . S
C741 C747 1.390 . S
C742 H733 0.930 . S
C742 C740 1.384 . S
C742 C743 1.372 . S
C743 C742 1.372 . S
C743 C744 1.400 . S
C743 C748 1.490 . S
C744 H734 0.930 . S
C744 C743 1.400 . S
C744 C747 1.386 . S
H745 C761 0.930 . S
H746 C762 0.931 . S
C747 H735 0.929 . S
C747 C741 1.390 . S
C747 C744 1.386 . S
C748 C743 1.490 . S
C748 C750 1.395 . S
C748 C751 1.403 . S
H749 C755 0.930 . S
C750 H736 0.930 . S
C750 C748 1.395 . S
C750 C753 1.403 . S
C751 C748 1.403 . S
C751 C752 1.524 . S
C751 C755 1.400 . S
C752 H737 0.960 . S
C752 H738 0.960 . S
C752 H739 0.960 . S
C752 C751 1.524 . S
C753 C750 1.403 . S
C753 C754 1.392 . S
C753 C757 1.495 . S
C754 C753 1.392 . S
C754 C755 1.385 . S
C754 C756 1.478 . S
C755 H749 0.930 . S
C755 C751 1.400 . S
C755 C754 1.385 . S
C756 C754 1.478 . S
C756 C758 1.381 . S
C756 C762 1.383 . S
C757 C753 1.495 . S
C757 H763 0.959 . S
C757 H764 0.961 . S
C757 H765 0.960 . S
C758 C756 1.381 . S
C758 C759 1.394 . S
C758 H766 0.930 . S
C759 C758 1.394 . S
C759 C760 1.383 . S
C759 H767 0.929 . S
C760 C759 1.383 . S
C760 C761 1.377 . S
C761 H745 0.930 . S
C761 C760 1.377 . S
C761 C762 1.379 . S
C762 H746 0.931 . S
C762 C756 1.383 . S
C762 C761 1.379 . S
H763 C757 0.959 . S
H764 C757 0.961 . S
H765 C757 0.960 . S
H766 C758 0.930 . S
H767 C759 0.929 . S
H768 C776 0.929 . S
H769 C778 0.930 . S
H770 C780 0.930 . S
H771 C783 0.929 . S
H772 C786 0.930 . S
H773 C788 0.960 . S
H774 C788 0.960 . S
H775 C788 0.960 . S
C776 H768 0.929 . S
C776 C777 1.377 . S
C776 C778 1.384 . S
C777 C776 1.377 . S
C777 C783 1.390 . S
C778 H769 0.930 . S
C778 C776 1.384 . S
C778 C779 1.372 . S
C779 C778 1.372 . S
C779 C780 1.400 . S
C779 C784 1.490 . S
C780 H770 0.930 . S
C780 C779 1.400 . S
C780 C783 1.386 . S
H781 C797 0.930 . S
H782 C798 0.931 . S
C783 H771 0.929 . S
C783 C777 1.390 . S
C783 C780 1.386 . S
C784 C779 1.490 . S
C784 C786 1.395 . S
C784 C787 1.403 . S
H785 C791 0.930 . S
C786 H772 0.930 . S
C786 C784 1.395 . S
C786 C789 1.403 . S
C787 C784 1.403 . S
C787 C788 1.524 . S
C787 C791 1.400 . S
C788 H773 0.960 . S
C788 H774 0.960 . S
C788 H775 0.960 . S
C788 C787 1.524 . S
C789 C786 1.403 . S
C789 C790 1.392 . S
C789 C793 1.495 . S
C790 C789 1.392 . S
C790 C791 1.385 . S
C790 C792 1.478 . S
C791 H785 0.930 . S
C791 C787 1.400 . S
C791 C790 1.385 . S
C792 C790 1.478 . S
C792 C794 1.381 . S
C792 C798 1.383 . S
C793 C789 1.495 . S
C793 H799 0.959 . S
C793 H800 0.961 . S
C793 H801 0.960 . S
C794 C792 1.381 . S
C794 C795 1.394 . S
C794 H802 0.930 . S
C795 C794 1.394 . S
C795 C796 1.383 . S
C795 H803 0.929 . S
C796 C795 1.383 . S
C796 C797 1.377 . S
C797 H781 0.930 . S
C797 C796 1.377 . S
C797 C798 1.379 . S
C798 H782 0.931 . S
C798 C792 1.383 . S
C798 C797 1.379 . S
H799 C793 0.959 . S
H800 C793 0.961 . S
H801 C793 0.960 . S
H802 C794 0.930 . S
H803 C795 0.929 . S
H804 C812 0.929 . S
H805 C814 0.930 . S
H806 C816 0.930 . S
H807 C819 0.929 . S
H808 C822 0.930 . S
H809 C824 0.960 . S
H810 C824 0.960 . S
H811 C824 0.960 . S
C812 H804 0.929 . S
C812 C813 1.377 . S
C812 C814 1.384 . S
C813 C812 1.377 . S
C813 C819 1.390 . S
C814 H805 0.930 . S
C814 C812 1.384 . S
C814 C815 1.372 . S
C815 C814 1.372 . S
C815 C816 1.400 . S
C815 C820 1.490 1_565 S
C816 H806 0.930 . S
C816 C815 1.400 . S
C816 C819 1.386 . S
H817 C833 0.930 . S
H818 C834 0.931 . S
C819 H807 0.929 . S
C819 C813 1.390 . S
C819 C816 1.386 . S
C820 C815 1.490 1_545 S
C820 C822 1.395 . S
C820 C823 1.403 . S
H821 C827 0.930 . S
C822 H808 0.930 . S
C822 C820 1.395 . S
C822 C825 1.403 . S
C823 C820 1.403 . S
C823 C824 1.524 1_545 S
C823 C827 1.400 . S
C824 H809 0.960 . S
C824 H810 0.960 . S
C824 H811 0.960 . S
C824 C823 1.524 1_565 S
C825 C822 1.403 . S
C825 C826 1.392 . S
C825 C829 1.495 . S
C826 C825 1.392 . S
C826 C827 1.385 . S
C826 C828 1.478 . S
C827 H821 0.930 . S
C827 C823 1.400 . S
C827 C826 1.385 . S
C828 C826 1.478 . S
C828 C830 1.381 . S
C828 C834 1.383 . S
C829 C825 1.495 . S
C829 H835 0.959 . S
C829 H836 0.961 . S
C829 H837 0.960 . S
C830 C828 1.381 . S
C830 C831 1.394 . S
C830 H838 0.930 . S
C831 C830 1.394 . S
C831 C832 1.383 . S
C831 H839 0.929 . S
C832 C831 1.383 . S
C832 C833 1.377 . S
C833 H817 0.930 . S
C833 C832 1.377 . S
C833 C834 1.379 . S
C834 H818 0.931 . S
C834 C828 1.383 . S
C834 C833 1.379 . S
H835 C829 0.959 . S
H836 C829 0.961 . S
H837 C829 0.960 . S
H838 C830 0.930 . S
H839 C831 0.929 . S
H840 C848 0.929 . S
H841 C850 0.930 . S
H842 C852 0.930 . S
H843 C855 0.929 . S
H844 C858 0.930 . S
H845 C860 0.960 . S
H846 C860 0.960 . S
H847 C860 0.960 . S
C848 H840 0.929 . S
C848 C849 1.377 . S
C848 C850 1.384 . S
C849 C848 1.377 . S
C849 C855 1.390 . S
C850 H841 0.930 . S
C850 C848 1.384 . S
C850 C851 1.372 . S
C851 C850 1.372 . S
C851 C852 1.400 . S
C851 C856 1.490 . S
C852 H842 0.930 . S
C852 C851 1.400 . S
C852 C855 1.386 . S
H853 C869 0.930 . S
H854 C870 0.931 . S
C855 H843 0.929 . S
C855 C849 1.390 . S
C855 C852 1.386 . S
C856 C851 1.490 . S
C856 C858 1.395 . S
C856 C859 1.403 . S
H857 C863 0.930 . S
C858 H844 0.930 . S
C858 C856 1.395 . S
C858 C861 1.403 . S
C859 C856 1.403 . S
C859 C860 1.524 . S
C859 C863 1.400 . S
C860 H845 0.960 . S
C860 H846 0.960 . S
C860 H847 0.960 . S
C860 C859 1.524 . S
C861 C858 1.403 . S
C861 C862 1.396 . S
C861 C865 1.495 1_556 S
C862 C861 1.396 . S
C862 C863 1.421 . S
C862 C864 1.441 1_556 S
C863 H857 0.930 . S
C863 C859 1.400 . S
C863 C862 1.421 . S
C864 C862 1.441 1_554 S
C864 C866 1.381 . S
C864 C870 1.383 . S
C865 C861 1.495 1_554 S
C865 H871 0.959 . S
C865 H872 0.961 . S
C865 H873 0.960 . S
C866 C864 1.381 . S
C866 C867 1.394 . S
C866 H874 0.930 . S
C867 C866 1.394 . S
C867 C868 1.383 . S
C867 H875 0.929 . S
C868 C867 1.383 . S
C868 C869 1.377 . S
C869 H853 0.930 . S
C869 C868 1.377 . S
C869 C870 1.379 . S
C870 H854 0.931 . S
C870 C864 1.383 . S
C870 C869 1.379 . S
H871 C865 0.959 . S
H872 C865 0.961 . S
H873 C865 0.960 . S
H874 C866 0.930 . S
H875 C867 0.929 . S
H876 C884 0.929 . S
H877 C886 0.930 . S
H878 C888 0.930 1_565 S
H879 C891 0.929 . S
H880 C894 0.930 1_545 S
H881 C896 0.960 . S
H882 C896 0.960 1_545 S
H883 C896 0.960 . S
C884 H876 0.929 . S
C884 C885 1.377 . S
C884 C886 1.384 . S
C885 C884 1.377 . S
C885 C891 1.390 . S
C886 H877 0.930 . S
C886 C884 1.384 . S
C886 C887 1.372 . S
C887 C886 1.372 . S
C887 C888 1.400 . S
C887 C892 1.490 1_545 S
C888 H878 0.930 1_545 S
C888 C887 1.400 . S
C888 C891 1.386 . S
H889 C905 0.930 . S
H890 C906 0.931 . S
C891 H879 0.929 . S
C891 C885 1.390 . S
C891 C888 1.386 . S
C892 C887 1.490 1_565 S
C892 C894 1.395 . S
C892 C895 1.403 . S
H893 C899 0.930 . S
C894 H880 0.930 1_565 S
C894 C892 1.395 . S
C894 C897 1.403 . S
C895 C892 1.403 . S
C895 C896 1.524 . S
C895 C899 1.400 . S
C896 H881 0.960 . S
C896 H882 0.960 1_565 S
C896 H883 0.960 . S
C896 C895 1.524 . S
C897 C894 1.403 . S
C897 C898 1.392 . S
C897 C901 1.495 . S
C898 C897 1.392 . S
C898 C899 1.385 . S
C898 C900 1.478 . S
C899 H893 0.930 . S
C899 C895 1.400 . S
C899 C898 1.385 . S
C900 C898 1.478 . S
C900 C902 1.381 . S
C900 C906 1.383 . S
C901 C897 1.495 . S
C901 H907 0.959 . S
C901 H908 0.961 . S
C901 H909 0.960 . S
C902 C900 1.381 . S
C902 C903 1.394 . S
C902 H910 0.930 . S
C903 C902 1.394 . S
C903 C904 1.383 . S
C903 H911 0.929 . S
C904 C903 1.383 . S
C904 C905 1.377 . S
C905 H889 0.930 . S
C905 C904 1.377 . S
C905 C906 1.379 . S
C906 H890 0.931 . S
C906 C900 1.383 . S
C906 C905 1.379 . S
H907 C901 0.959 . S
H908 C901 0.961 . S
H909 C901 0.960 . S
H910 C902 0.930 . S
H911 C903 0.929 . S
H912 C920 0.929 . S
H913 C922 0.930 . S
H914 C924 0.930 . S
H915 C927 0.929 . S
H916 C930 0.930 . S
H917 C932 0.960 . S
H918 C932 0.960 . S
H919 C932 0.960 . S
C920 H912 0.929 . S
C920 C921 1.377 . S
C920 C922 1.384 . S
C921 C920 1.377 . S
C921 C927 1.390 . S
C922 H913 0.930 . S
C922 C920 1.384 . S
C922 C923 1.372 . S
C923 C922 1.372 . S
C923 C924 1.400 . S
C923 C928 1.490 . S
C924 H914 0.930 . S
C924 C923 1.400 . S
C924 C927 1.386 . S
H925 C941 0.930 . S
H926 C942 0.931 . S
C927 H915 0.929 . S
C927 C921 1.390 . S
C927 C924 1.386 . S
C928 C923 1.490 . S
C928 C930 1.395 . S
C928 C931 1.403 . S
H929 C935 0.930 . S
C930 H916 0.930 . S
C930 C928 1.395 . S
C930 C933 1.403 . S
C931 C928 1.403 . S
C931 C932 1.524 . S
C931 C935 1.400 . S
C932 H917 0.960 . S
C932 H918 0.960 . S
C932 H919 0.960 . S
C932 C931 1.524 . S
C933 C930 1.403 . S
C933 C934 1.392 . S
C933 C937 1.495 . S
C934 C933 1.392 . S
C934 C935 1.385 . S
C934 C936 1.478 . S
C935 H929 0.930 . S
C935 C931 1.400 . S
C935 C934 1.385 . S
C936 C934 1.478 . S
C936 C938 1.381 . S
C936 C942 1.383 . S
C937 C933 1.495 . S
C937 H943 0.959 . S
C937 H944 0.961 . S
C937 H945 0.960 . S
C938 C936 1.381 . S
C938 C939 1.394 . S
C938 H946 0.930 . S
C939 C938 1.394 . S
C939 C940 1.383 . S
C939 H947 0.929 . S
C940 C939 1.383 . S
C940 C941 1.377 . S
C941 H925 0.930 . S
C941 C940 1.377 . S
C941 C942 1.379 . S
C942 H926 0.931 . S
C942 C936 1.383 . S
C942 C941 1.379 . S
H943 C937 0.959 . S
H944 C937 0.961 . S
H945 C937 0.960 . S
H946 C938 0.930 . S
H947 C939 0.929 . S
H948 C956 0.929 . S
H949 C958 0.930 . S
H950 C960 0.930 . S
H951 C963 0.929 . S
H952 C966 0.930 . S
H953 C968 0.960 . S
H954 C968 0.960 . S
H955 C968 0.960 . S
C956 H948 0.929 . S
C956 C957 1.377 . S
C956 C958 1.384 . S
C957 C956 1.377 . S
C957 C963 1.390 . S
C958 H949 0.930 . S
C958 C956 1.384 . S
C958 C959 1.372 . S
C959 C958 1.372 . S
C959 C960 1.400 . S
C959 C964 1.490 . S
C960 H950 0.930 . S
C960 C959 1.400 . S
C960 C963 1.386 . S
H961 C977 0.930 . S
H962 C978 0.931 . S
C963 H951 0.929 . S
C963 C957 1.390 . S
C963 C960 1.386 . S
C964 C959 1.490 . S
C964 C966 1.395 . S
C964 C967 1.403 . S
H965 C971 0.930 . S
C966 H952 0.930 . S
C966 C964 1.395 . S
C966 C969 1.403 . S
C967 C964 1.403 . S
C967 C968 1.524 . S
C967 C971 1.400 . S
C968 H953 0.960 . S
C968 H954 0.960 . S
C968 H955 0.960 . S
C968 C967 1.524 . S
C969 C966 1.403 . S
C969 C970 1.392 . S
C969 C973 1.495 . S
C970 C969 1.392 . S
C970 C971 1.385 . S
C970 C972 1.478 . S
C971 H965 0.930 . S
C971 C967 1.400 . S
C971 C970 1.385 . S
C972 C970 1.478 . S
C972 C974 1.381 . S
C972 C978 1.383 . S
C973 C969 1.495 . S
C973 H979 0.959 . S
C973 H980 0.961 . S
C973 H981 0.960 . S
C974 C972 1.381 . S
C974 C975 1.394 . S
C974 H982 0.930 . S
C975 C974 1.394 . S
C975 C976 1.383 . S
C975 H983 0.929 . S
C976 C975 1.383 . S
C976 C977 1.377 . S
C977 H961 0.930 . S
C977 C976 1.377 . S
C977 C978 1.379 . S
C978 H962 0.931 . S
C978 C972 1.383 . S
C978 C977 1.379 . S
H979 C973 0.959 . S
H980 C973 0.961 . S
H981 C973 0.960 . S
H982 C974 0.930 . S
H983 C975 0.929 . S
H984 C992 0.929 . S
H985 C994 0.930 1_554 S
H986 C996 0.930 . S
H987 C999 0.929 . S
H988 C1002 0.930 . S
H989 C1004 0.960 . S
H990 C1004 0.960 . S
H991 C1004 0.960 . S
C992 H984 0.929 . S
C992 C993 1.377 . S
C992 C994 1.384 . S
C993 C992 1.377 . S
C993 C999 1.390 . S
C994 H985 0.930 1_556 S
C994 C992 1.384 . S
C994 C995 1.372 . S
C995 C994 1.372 . S
C995 C996 1.400 . S
C995 C1000 1.490 1_556 S
C996 H986 0.930 . S
C996 C995 1.400 . S
C996 C999 1.386 . S
H997 C1013 0.930 . S
H998 C1014 0.931 . S
C999 H987 0.929 . S
C999 C993 1.390 . S
C999 C996 1.386 . S
C1000 C995 1.490 1_554 S
C1000 C1002 1.395 . S
C1000 C1003 1.403 . S
H1001 C1007 0.930 . S
C1002 H988 0.930 . S
C1002 C1000 1.395 . S
C1002 C1005 1.403 . S
C1003 C1000 1.403 . S
C1003 C1004 1.524 1_554 S
C1003 C1007 1.400 . S
C1004 H989 0.960 . S
C1004 H990 0.960 . S
C1004 H991 0.960 . S
C1004 C1003 1.524 1_556 S
C1005 C1002 1.403 . S
C1005 C1006 1.392 . S
C1005 C1009 1.495 . S
C1006 C1005 1.392 . S
C1006 C1007 1.385 . S
C1006 C1008 1.478 . S
C1007 H1001 0.930 . S
C1007 C1003 1.400 . S
C1007 C1006 1.385 . S
C1008 C1006 1.478 . S
C1008 C1010 1.381 . S
C1008 C1014 1.383 . S
C1009 C1005 1.495 . S
C1009 H1015 0.959 . S
C1009 H1016 0.961 . S
C1009 H1017 0.960 . S
C1010 C1008 1.381 . S
C1010 C1011 1.394 . S
C1010 H1018 0.930 . S
C1011 C1010 1.394 . S
C1011 C1012 1.383 . S
C1011 H1019 0.929 . S
C1012 C1011 1.383 . S
C1012 C1013 1.377 . S
C1013 H997 0.930 . S
C1013 C1012 1.377 . S
C1013 C1014 1.379 . S
C1014 H998 0.931 . S
C1014 C1008 1.383 . S
C1014 C1013 1.379 . S
H1015 C1009 0.959 . S
H1016 C1009 0.961 . S
H1017 C1009 0.960 . S
H1018 C1010 0.930 . S
H1019 C1011 0.929 . S
H1020 C1028 0.929 . S
H1021 C1030 0.930 . S
H1022 C1032 0.930 . S
H1023 C1035 0.929 . S
H1024 C1038 0.930 . S
H1025 C1040 0.960 . S
H1026 C1040 0.960 . S
H1027 C1040 0.960 . S
C1028 H1020 0.929 . S
C1028 C1029 1.377 . S
C1028 C1030 1.384 . S
C1029 C1028 1.377 . S
C1029 C1035 1.390 . S
C1030 H1021 0.930 . S
C1030 C1028 1.384 . S
C1030 C1031 1.372 . S
C1031 C1030 1.372 . S
C1031 C1032 1.400 . S
C1031 C1036 1.490 . S
C1032 H1022 0.930 . S
C1032 C1031 1.400 . S
C1032 C1035 1.386 . S
H1033 C1049 0.930 . S
H1034 C1050 0.931 . S
C1035 H1023 0.929 . S
C1035 C1029 1.390 . S
C1035 C1032 1.386 . S
C1036 C1031 1.490 . S
C1036 C1038 1.395 . S
C1036 C1039 1.403 . S
H1037 C1043 0.930 . S
C1038 H1024 0.930 . S
C1038 C1036 1.395 . S
C1038 C1041 1.403 . S
C1039 C1036 1.403 . S
C1039 C1040 1.524 . S
C1039 C1043 1.400 . S
C1040 H1025 0.960 . S
C1040 H1026 0.960 . S
C1040 H1027 0.960 . S
C1040 C1039 1.524 . S
C1041 C1038 1.403 . S
C1041 C1042 1.392 . S
C1041 C1045 1.495 . S
C1042 C1041 1.392 . S
C1042 C1043 1.385 . S
C1042 C1044 1.478 . S
C1043 H1037 0.930 . S
C1043 C1039 1.400 . S
C1043 C1042 1.385 . S
C1044 C1042 1.478 . S
C1044 C1046 1.381 . S
C1044 C1050 1.383 . S
C1045 C1041 1.495 . S
C1045 H1051 0.959 . S
C1045 H1052 0.961 . S
C1045 H1053 0.960 . S
C1046 C1044 1.381 . S
C1046 C1047 1.394 . S
C1046 H1054 0.930 . S
C1047 C1046 1.394 . S
C1047 C1048 1.383 . S
C1047 H1055 0.929 . S
C1048 C1047 1.383 . S
C1048 C1049 1.377 . S
C1049 H1033 0.930 . S
C1049 C1048 1.377 . S
C1049 C1050 1.379 . S
C1050 H1034 0.931 . S
C1050 C1044 1.383 . S
C1050 C1049 1.379 . S
H1051 C1045 0.959 . S
H1052 C1045 0.961 . S
H1053 C1045 0.960 . S
H1054 C1046 0.930 . S
H1055 C1047 0.929 . S
H1056 C1064 0.929 . S
H1057 C1066 0.930 . S
H1058 C1068 0.930 . S
H1059 C1071 0.929 . S
H1060 C1074 0.930 . S
H1061 C1076 0.960 . S
H1062 C1076 0.960 . S
H1063 C1076 0.960 . S
C1064 H1056 0.929 . S
C1064 C1065 1.377 . S
C1064 C1066 1.384 . S
C1065 C1064 1.377 . S
C1065 C1071 1.390 . S
C1066 H1057 0.930 . S
C1066 C1064 1.384 . S
C1066 C1067 1.372 . S
C1067 C1066 1.372 . S
C1067 C1068 1.400 . S
C1067 C1072 1.490 . S
C1068 H1058 0.930 . S
C1068 C1067 1.400 . S
C1068 C1071 1.386 . S
H1069 C1085 0.930 . S
H1070 C1086 0.931 . S
C1071 H1059 0.929 . S
C1071 C1065 1.390 . S
C1071 C1068 1.386 . S
C1072 C1067 1.490 . S
C1072 C1074 1.395 . S
C1072 C1075 1.403 . S
H1073 C1079 0.930 . S
C1074 H1060 0.930 . S
C1074 C1072 1.395 . S
C1074 C1077 1.403 . S
C1075 C1072 1.403 . S
C1075 C1076 1.524 . S
C1075 C1079 1.400 . S
C1076 H1061 0.960 . S
C1076 H1062 0.960 . S
C1076 H1063 0.960 . S
C1076 C1075 1.524 . S
C1077 C1074 1.403 . S
C1077 C1078 1.392 . S
C1077 C1081 1.495 . S
C1078 C1077 1.392 . S
C1078 C1079 1.385 . S
C1078 C1080 1.478 . S
C1079 H1073 0.930 . S
C1079 C1075 1.400 . S
C1079 C1078 1.385 . S
C1080 C1078 1.478 . S
C1080 C1082 1.381 . S
C1080 C1086 1.383 . S
C1081 C1077 1.495 . S
C1081 H1087 0.959 . S
C1081 H1088 0.961 . S
C1081 H1089 0.960 . S
C1082 C1080 1.381 . S
C1082 C1083 1.394 . S
C1082 H1090 0.930 . S
C1083 C1082 1.394 . S
C1083 C1084 1.383 . S
C1083 H1091 0.929 . S
C1084 C1083 1.383 . S
C1084 C1085 1.377 . S
C1085 H1069 0.930 . S
C1085 C1084 1.377 . S
C1085 C1086 1.379 . S
C1086 H1070 0.931 . S
C1086 C1080 1.383 . S
C1086 C1085 1.379 . S
H1087 C1081 0.959 . S
H1088 C1081 0.961 . S
H1089 C1081 0.960 . S
H1090 C1082 0.930 . S
H1091 C1083 0.929 . S
H1092 C1100 0.929 . S
H1093 C1102 0.930 1_655 S
H1094 C1104 0.930 . S
H1095 C1107 0.929 . S
H1096 C1110 0.930 . S
H1097 C1112 0.960 . S
H1098 C1112 0.960 . S
H1099 C1112 0.960 . S
C1100 H1092 0.929 . S
C1100 C1101 1.377 . S
C1100 C1102 1.384 . S
C1101 C1100 1.377 . S
C1101 C1107 1.390 . S
C1102 H1093 0.930 1_455 S
C1102 C1100 1.384 . S
C1102 C1103 1.372 . S
C1103 C1102 1.372 . S
C1103 C1104 1.400 . S
C1103 C1108 1.490 1_455 S
C1104 H1094 0.930 . S
C1104 C1103 1.400 . S
C1104 C1107 1.386 . S
H1105 C1121 0.930 . S
H1106 C1122 0.931 . S
C1107 H1095 0.929 . S
C1107 C1101 1.390 . S
C1107 C1104 1.386 . S
C1108 C1103 1.490 1_655 S
C1108 C1110 1.395 . S
C1108 C1111 1.403 1_655 S
H1109 C1115 0.930 . S
C1110 H1096 0.930 . S
C1110 C1108 1.395 . S
C1110 C1113 1.403 . S
C1111 C1108 1.403 1_455 S
C1111 C1112 1.524 . S
C1111 C1115 1.400 1_455 S
C1112 H1097 0.960 . S
C1112 H1098 0.960 . S
C1112 H1099 0.960 . S
C1112 C1111 1.524 . S
C1113 C1110 1.403 . S
C1113 C1114 1.392 . S
C1113 C1117 1.495 . S
C1114 C1113 1.392 . S
C1114 C1115 1.385 . S
C1114 C1116 1.478 . S
C1115 H1109 0.930 . S
C1115 C1111 1.400 1_655 S
C1115 C1114 1.385 . S
C1116 C1114 1.478 . S
C1116 C1118 1.381 . S
C1116 C1122 1.383 . S
C1117 C1113 1.495 . S
C1117 H1123 0.959 . S
C1117 H1124 0.961 . S
C1117 H1125 0.960 . S
C1118 C1116 1.381 . S
C1118 C1119 1.394 . S
C1118 H1126 0.930 . S
C1119 C1118 1.394 . S
C1119 C1120 1.383 . S
C1119 H1127 0.929 . S
C1120 C1119 1.383 . S
C1120 C1121 1.377 . S
C1121 H1105 0.930 . S
C1121 C1120 1.377 . S
C1121 C1122 1.379 . S
C1122 H1106 0.931 . S
C1122 C1116 1.383 . S
C1122 C1121 1.379 . S
H1123 C1117 0.959 . S
H1124 C1117 0.961 . S
H1125 C1117 0.960 . S
H1126 C1118 0.930 . S
H1127 C1119 0.929 . S
H1128 C1136 0.929 . S
H1129 C1138 0.930 1_455 S
H1130 C1140 0.930 . S
H1131 C1143 0.929 . S
H1132 C1146 0.930 . S
H1133 C1148 0.960 . S
H1134 C1148 0.960 . S
H1135 C1148 0.960 . S
C1136 H1128 0.929 . S
C1136 C1137 1.377 . S
C1136 C1138 1.384 . S
C1137 C1136 1.377 . S
C1137 C1143 1.390 . S
C1138 H1129 0.930 1_655 S
C1138 C1136 1.384 . S
C1138 C1139 1.372 . S
C1139 C1138 1.372 . S
C1139 C1140 1.400 . S
C1139 C1144 1.490 1_655 S
C1140 H1130 0.930 . S
C1140 C1139 1.400 . S
C1140 C1143 1.386 . S
H1141 C1157 0.930 . S
H1142 C1158 0.931 . S
C1143 H1131 0.929 . S
C1143 C1137 1.390 . S
C1143 C1140 1.386 . S
C1144 C1139 1.490 1_455 S
C1144 C1146 1.395 . S
C1144 C1147 1.403 1_455 S
H1145 C1151 0.930 . S
C1146 H1132 0.930 . S
C1146 C1144 1.395 . S
C1146 C1149 1.403 . S
C1147 C1144 1.403 1_655 S
C1147 C1148 1.524 . S
C1147 C1151 1.400 1_655 S
C1148 H1133 0.960 . S
C1148 H1134 0.960 . S
C1148 H1135 0.960 . S
C1148 C1147 1.524 . S
C1149 C1146 1.403 . S
C1149 C1150 1.392 . S
C1149 C1153 1.495 . S
C1150 C1149 1.392 . S
C1150 C1151 1.385 . S
C1150 C1152 1.478 . S
C1151 H1145 0.930 . S
C1151 C1147 1.400 1_455 S
C1151 C1150 1.385 . S
C1152 C1150 1.478 . S
C1152 C1154 1.381 . S
C1152 C1158 1.383 . S
C1153 C1149 1.495 . S
C1153 H1159 0.959 . S
C1153 H1160 0.961 . S
C1153 H1161 0.960 . S
C1154 C1152 1.381 . S
C1154 C1155 1.394 . S
C1154 H1162 0.930 . S
C1155 C1154 1.394 . S
C1155 C1156 1.383 . S
C1155 H1163 0.929 . S
C1156 C1155 1.383 . S
C1156 C1157 1.377 . S
C1157 H1141 0.930 . S
C1157 C1156 1.377 . S
C1157 C1158 1.379 . S
C1158 H1142 0.931 . S
C1158 C1152 1.383 . S
C1158 C1157 1.379 . S
H1159 C1153 0.959 . S
H1160 C1153 0.961 . S
H1161 C1153 0.960 . S
H1162 C1154 0.930 . S
H1163 C1155 0.929 . S
H1164 C1172 0.929 . S
H1165 C1174 0.930 . S
H1166 C1176 0.930 . S
H1167 C1179 0.929 . S
H1168 C1182 0.930 . S
H1169 C1184 0.960 . S
H1170 C1184 0.960 . S
H1171 C1184 0.960 . S
C1172 H1164 0.929 . S
C1172 C1173 1.377 . S
C1172 C1174 1.384 . S
C1173 C1172 1.377 . S
C1173 C1179 1.390 . S
C1174 H1165 0.930 . S
C1174 C1172 1.384 . S
C1174 C1175 1.372 . S
C1175 C1174 1.372 . S
C1175 C1176 1.400 . S
C1175 C1180 1.490 . S
C1176 H1166 0.930 . S
C1176 C1175 1.400 . S
C1176 C1179 1.386 . S
H1177 C1193 0.930 . S
H1178 C1194 0.931 . S
C1179 H1167 0.929 . S
C1179 C1173 1.390 . S
C1179 C1176 1.386 . S
C1180 C1175 1.490 . S
C1180 C1182 1.395 . S
C1180 C1183 1.403 . S
H1181 C1187 0.930 . S
C1182 H1168 0.930 . S
C1182 C1180 1.395 . S
C1182 C1185 1.403 . S
C1183 C1180 1.403 . S
C1183 C1184 1.524 . S
C1183 C1187 1.400 . S
C1184 H1169 0.960 . S
C1184 H1170 0.960 . S
C1184 H1171 0.960 . S
C1184 C1183 1.524 . S
C1185 C1182 1.403 . S
C1185 C1186 1.392 . S
C1185 C1189 1.495 . S
C1186 C1185 1.392 . S
C1186 C1187 1.385 . S
C1186 C1188 1.478 . S
C1187 H1181 0.930 . S
C1187 C1183 1.400 . S
C1187 C1186 1.385 . S
C1188 C1186 1.478 . S
C1188 C1190 1.381 . S
C1188 C1194 1.383 . S
C1189 C1185 1.495 . S
C1189 H1195 0.959 . S
C1189 H1196 0.961 . S
C1189 H1197 0.960 . S
C1190 C1188 1.381 . S
C1190 C1191 1.394 . S
C1190 H1198 0.930 . S
C1191 C1190 1.394 . S
C1191 C1192 1.383 . S
C1191 H1199 0.929 . S
C1192 C1191 1.383 . S
C1192 C1193 1.377 . S
C1193 H1177 0.930 . S
C1193 C1192 1.377 . S
C1193 C1194 1.379 . S
C1194 H1178 0.931 . S
C1194 C1188 1.383 . S
C1194 C1193 1.379 . S
H1195 C1189 0.959 . S
H1196 C1189 0.961 . S
H1197 C1189 0.960 . S
H1198 C1190 0.930 . S
H1199 C1191 0.929 . S
H1200 C1208 0.929 . S
H1201 C1210 0.930 . S
H1202 C1212 0.930 . S
H1203 C1215 0.929 . S
H1204 C1218 0.930 . S
H1205 C1220 0.960 . S
H1206 C1220 0.960 . S
H1207 C1220 0.960 . S
C1208 H1200 0.929 . S
C1208 C1209 1.377 . S
C1208 C1210 1.384 . S
C1209 C1208 1.377 . S
C1209 C1215 1.390 . S
C1210 H1201 0.930 . S
C1210 C1208 1.384 . S
C1210 C1211 1.372 . S
C1211 C1210 1.372 . S
C1211 C1212 1.400 . S
C1211 C1216 1.490 . S
C1212 H1202 0.930 . S
C1212 C1211 1.400 . S
C1212 C1215 1.386 . S
H1213 C1229 0.930 . S
H1214 C1230 0.931 . S
C1215 H1203 0.929 . S
C1215 C1209 1.390 . S
C1215 C1212 1.386 . S
C1216 C1211 1.490 . S
C1216 C1218 1.395 . S
C1216 C1219 1.403 . S
H1217 C1223 0.930 . S
C1218 H1204 0.930 . S
C1218 C1216 1.395 . S
C1218 C1221 1.403 . S
C1219 C1216 1.403 . S
C1219 C1220 1.524 . S
C1219 C1223 1.400 . S
C1220 H1205 0.960 . S
C1220 H1206 0.960 . S
C1220 H1207 0.960 . S
C1220 C1219 1.524 . S
C1221 C1218 1.403 . S
C1221 C1222 1.392 . S
C1221 C1225 1.495 . S
C1222 C1221 1.392 . S
C1222 C1223 1.385 . S
C1222 C1224 1.478 . S
C1223 H1217 0.930 . S
C1223 C1219 1.400 . S
C1223 C1222 1.385 . S
C1224 C1222 1.478 . S
C1224 C1226 1.381 . S
C1224 C1230 1.383 . S
C1225 C1221 1.495 . S
C1225 H1231 0.959 . S
C1225 H1232 0.961 . S
C1225 H1233 0.960 . S
C1226 C1224 1.381 . S
C1226 C1227 1.394 . S
C1226 H1234 0.930 . S
C1227 C1226 1.394 . S
C1227 C1228 1.383 . S
C1227 H1235 0.929 . S
C1228 C1227 1.383 . S
C1228 C1229 1.377 . S
C1229 H1213 0.930 . S
C1229 C1228 1.377 . S
C1229 C1230 1.379 . S
C1230 H1214 0.931 . S
C1230 C1224 1.383 . S
C1230 C1229 1.379 . S
H1231 C1225 0.959 . S
H1232 C1225 0.961 . S
H1233 C1225 0.960 . S
H1234 C1226 0.930 . S
H1235 C1227 0.929 . S
H1236 C1244 0.929 . S
H1237 C1246 0.930 . S
H1238 C1248 0.930 1_565 S
H1239 C1251 0.929 . S
H1240 C1254 0.980 . S
H1241 C1256 0.960 . S
H1242 C1256 0.960 . S
H1243 C1256 0.960 . S
C1244 H1236 0.929 . S
C1244 C1245 1.377 . S
C1244 C1246 1.384 . S
C1245 C1244 1.377 . S
C1245 C1251 1.390 . S
C1246 H1237 0.930 . S
C1246 C1244 1.384 . S
C1246 C1247 1.368 1_545 S
C1247 C1246 1.368 1_565 S
C1247 C1248 1.399 1_565 S
C1247 C1252 1.495 . S
C1248 H1238 0.930 1_545 S
C1248 C1247 1.399 1_545 S
C1248 C1251 1.386 . S
H1249 C1265 0.930 . S
H1250 C1266 0.931 . S
C1251 H1239 0.929 . S
C1251 C1245 1.390 . S
C1251 C1248 1.386 . S
C1252 C1247 1.495 . S
C1252 C1254 1.368 1_565 S
C1252 C1255 1.403 . S
H1253 C1259 0.930 . S
C1254 H1240 0.980 . S
C1254 C1252 1.368 1_545 S
C1254 C1257 1.384 1_545 S
C1255 C1252 1.403 . S
C1255 C1256 1.524 . S
C1255 C1259 1.400 . S
C1256 H1241 0.960 . S
C1256 H1242 0.960 . S
C1256 H1243 0.960 . S
C1256 C1255 1.524 . S
C1257 C1254 1.384 1_565 S
C1257 C1258 1.392 . S
C1257 C1261 1.495 1_565 S
C1258 C1257 1.392 . S
C1258 C1259 1.385 . S
C1258 C1260 1.478 . S
C1259 H1253 0.930 . S
C1259 C1255 1.400 . S
C1259 C1258 1.385 . S
C1260 C1258 1.478 . S
C1260 C1262 1.381 . S
C1260 C1266 1.383 . S
C1261 C1257 1.495 1_545 S
C1261 H1267 0.959 . S
C1261 H1268 0.961 . S
C1261 H1269 0.943 1_545 S
C1262 C1260 1.381 . S
C1262 C1263 1.394 . S
C1262 H1270 0.930 . S
C1263 C1262 1.394 . S
C1263 C1264 1.383 . S
C1263 H1271 0.929 . S
C1264 C1263 1.383 . S
C1264 C1265 1.377 . S
C1265 H1249 0.930 . S
C1265 C1264 1.377 . S
C1265 C1266 1.379 . S
C1266 H1250 0.931 . S
C1266 C1260 1.383 . S
C1266 C1265 1.379 . S
H1267 C1261 0.959 . S
H1268 C1261 0.961 . S
H1269 C1261 0.943 1_565 S
H1270 C1262 0.930 . S
H1271 C1263 0.929 . S
H1272 C1280 0.929 . S
H1273 C1282 0.930 . S
H1274 C1284 0.930 . S
H1275 C1287 0.929 . S
H1276 C1290 0.930 . S
H1277 C1292 0.960 . S
H1278 C1292 0.960 . S
H1279 C1292 0.960 . S
C1280 H1272 0.929 . S
C1280 C1281 1.377 . S
C1280 C1282 1.384 . S
C1281 C1280 1.377 . S
C1281 C1287 1.390 . S
C1282 H1273 0.930 . S
C1282 C1280 1.384 . S
C1282 C1283 1.372 . S
C1283 C1282 1.372 . S
C1283 C1284 1.400 . S
C1283 C1288 1.490 . S
C1284 H1274 0.930 . S
C1284 C1283 1.400 . S
C1284 C1287 1.386 . S
H1285 C1301 0.930 . S
H1286 C1302 0.931 . S
C1287 H1275 0.929 . S
C1287 C1281 1.390 . S
C1287 C1284 1.386 . S
C1288 C1283 1.490 . S
C1288 C1290 1.395 . S
C1288 C1291 1.403 . S
H1289 C1295 0.930 . S
C1290 H1276 0.930 . S
C1290 C1288 1.395 . S
C1290 C1293 1.403 . S
C1291 C1288 1.403 . S
C1291 C1292 1.524 . S
C1291 C1295 1.400 . S
C1292 H1277 0.960 . S
C1292 H1278 0.960 . S
C1292 H1279 0.960 . S
C1292 C1291 1.524 . S
C1293 C1290 1.403 . S
C1293 C1294 1.392 . S
C1293 C1297 1.495 . S
C1294 C1293 1.392 . S
C1294 C1295 1.385 . S
C1294 C1296 1.478 . S
C1295 H1289 0.930 . S
C1295 C1291 1.400 . S
C1295 C1294 1.385 . S
C1296 C1294 1.478 . S
C1296 C1298 1.381 . S
C1296 C1302 1.383 . S
C1297 C1293 1.495 . S
C1297 H1303 0.959 . S
C1297 H1304 0.961 . S
C1297 H1305 0.960 . S
C1298 C1296 1.381 . S
C1298 C1299 1.394 . S
C1298 H1306 0.930 . S
C1299 C1298 1.394 . S
C1299 C1300 1.383 . S
C1299 H1307 0.929 . S
C1300 C1299 1.383 . S
C1300 C1301 1.377 . S
C1301 H1285 0.930 . S
C1301 C1300 1.377 . S
C1301 C1302 1.379 . S
C1302 H1286 0.931 . S
C1302 C1296 1.383 . S
C1302 C1301 1.379 . S
H1303 C1297 0.959 . S
H1304 C1297 0.961 . S
H1305 C1297 0.960 . S
H1306 C1298 0.930 . S
H1307 C1299 0.929 . S
H1308 C1316 0.929 . S
H1309 C1318 0.930 . S
H1310 C1320 0.930 . S
H1311 C1323 0.929 . S
H1312 C1326 0.930 . S
H1313 C1328 0.960 . S
H1314 C1328 0.960 . S
H1315 C1328 0.960 . S
C1316 H1308 0.929 . S
C1316 C1317 1.377 . S
C1316 C1318 1.384 . S
C1317 C1316 1.377 . S
C1317 C1323 1.390 . S
C1318 H1309 0.930 . S
C1318 C1316 1.384 . S
C1318 C1319 1.372 . S
C1319 C1318 1.372 . S
C1319 C1320 1.400 . S
C1319 C1324 1.490 . S
C1320 H1310 0.930 . S
C1320 C1319 1.400 . S
C1320 C1323 1.386 . S
H1321 C1337 0.930 . S
H1322 C1338 0.931 . S
C1323 H1311 0.929 . S
C1323 C1317 1.390 . S
C1323 C1320 1.386 . S
C1324 C1319 1.490 . S
C1324 C1326 1.395 . S
C1324 C1327 1.403 . S
H1325 C1331 0.930 . S
C1326 H1312 0.930 . S
C1326 C1324 1.395 . S
C1326 C1329 1.403 . S
C1327 C1324 1.403 . S
C1327 C1328 1.524 . S
C1327 C1331 1.400 . S
C1328 H1313 0.960 . S
C1328 H1314 0.960 . S
C1328 H1315 0.960 . S
C1328 C1327 1.524 . S
C1329 C1326 1.403 . S
C1329 C1330 1.392 . S
C1329 C1333 1.495 . S
C1330 C1329 1.392 . S
C1330 C1331 1.385 . S
C1330 C1332 1.488 . S
C1331 H1325 0.930 . S
C1331 C1327 1.400 . S
C1331 C1330 1.385 . S
C1332 C1330 1.488 . S
C1332 C1334 1.391 1_554 S
C1332 C1338 1.363 1_545 S
C1333 C1329 1.495 . S
C1333 H1339 0.959 . S
C1333 H1340 0.978 . S
C1333 H1341 0.960 . S
C1334 C1332 1.391 1_556 S
C1334 C1335 1.396 . S
C1334 H1342 0.930 . S
C1335 C1334 1.396 . S
C1335 C1336 1.379 1_545 S
C1335 H1343 0.931 . S
C1336 C1335 1.379 1_565 S
C1336 C1337 1.377 . S
C1337 H1321 0.930 . S
C1337 C1336 1.377 . S
C1337 C1338 1.379 1_556 S
C1338 H1322 0.931 . S
C1338 C1332 1.363 1_565 S
C1338 C1337 1.379 1_554 S
H1339 C1333 0.959 . S
H1340 C1333 0.978 . S
H1341 C1333 0.960 . S
H1342 C1334 0.930 . S
H1343 C1335 0.931 . S
H1344 C1352 0.929 . S
H1345 C1354 0.930 . S
H1346 C1356 0.930 . S
H1347 C1359 0.929 . S
H1348 C1362 0.930 . S
H1349 C1364 0.960 . S
H1350 C1364 0.960 . S
H1351 C1364 0.960 . S
C1352 H1344 0.929 . S
C1352 C1353 1.377 . S
C1352 C1354 1.384 . S
C1353 C1352 1.377 . S
C1353 C1359 1.390 . S
C1354 H1345 0.930 . S
C1354 C1352 1.384 . S
C1354 C1355 1.372 . S
C1355 C1354 1.372 . S
C1355 C1356 1.400 . S
C1355 C1360 1.490 . S
C1356 H1346 0.930 . S
C1356 C1355 1.400 . S
C1356 C1359 1.386 . S
H1357 C1373 0.930 . S
H1358 C1374 0.931 . S
C1359 H1347 0.929 . S
C1359 C1353 1.390 . S
C1359 C1356 1.386 . S
C1360 C1355 1.490 . S
C1360 C1362 1.395 . S
C1360 C1363 1.403 . S
H1361 C1367 0.930 . S
C1362 H1348 0.930 . S
C1362 C1360 1.395 . S
C1362 C1365 1.403 . S
C1363 C1360 1.403 . S
C1363 C1364 1.524 . S
C1363 C1367 1.400 . S
C1364 H1349 0.960 . S
C1364 H1350 0.960 . S
C1364 H1351 0.960 . S
C1364 C1363 1.524 . S
C1365 C1362 1.403 . S
C1365 C1366 1.392 . S
C1365 C1369 1.495 . S
C1366 C1365 1.392 . S
C1366 C1367 1.385 . S
C1366 C1368 1.478 . S
C1367 H1361 0.930 . S
C1367 C1363 1.400 . S
C1367 C1366 1.385 . S
C1368 C1366 1.478 . S
C1368 C1370 1.381 . S
C1368 C1374 1.383 . S
C1369 C1365 1.495 . S
C1369 H1375 0.959 . S
C1369 H1376 0.961 . S
C1369 H1377 0.960 . S
C1370 C1368 1.381 . S
C1370 C1371 1.394 . S
C1370 H1378 0.930 . S
C1371 C1370 1.394 . S
C1371 C1372 1.383 . S
C1371 H1379 0.929 . S
C1372 C1371 1.383 . S
C1372 C1373 1.377 . S
C1373 H1357 0.930 . S
C1373 C1372 1.377 . S
C1373 C1374 1.379 . S
C1374 H1358 0.931 . S
C1374 C1368 1.383 . S
C1374 C1373 1.379 . S
H1375 C1369 0.959 . S
H1376 C1369 0.961 . S
H1377 C1369 0.960 . S
H1378 C1370 0.930 . S
H1379 C1371 0.929 . S
H1380 C1388 0.929 . S
H1381 C1390 0.930 . S
H1382 C1392 0.930 . S
H1383 C1395 0.929 . S
H1384 C1398 0.930 . S
H1385 C1400 0.960 . S
H1386 C1400 0.960 . S
H1387 C1400 0.960 . S
C1388 H1380 0.929 . S
C1388 C1389 1.377 . S
C1388 C1390 1.384 1_554 S
C1389 C1388 1.377 . S
C1389 C1395 1.390 . S
C1390 H1381 0.930 . S
C1390 C1388 1.384 1_556 S
C1390 C1391 1.372 . S
C1391 C1390 1.372 . S
C1391 C1392 1.400 1_556 S
C1391 C1396 1.490 . S
C1392 H1382 0.930 . S
C1392 C1391 1.400 1_554 S
C1392 C1395 1.386 . S
H1393 C1409 0.930 . S
H1394 C1410 0.931 . S
C1395 H1383 0.929 . S
C1395 C1389 1.390 . S
C1395 C1392 1.386 . S
C1396 C1391 1.490 . S
C1396 C1398 1.395 . S
C1396 C1399 1.403 . S
H1397 C1403 0.930 . S
C1398 H1384 0.930 . S
C1398 C1396 1.395 . S
C1398 C1401 1.403 . S
C1399 C1396 1.403 . S
C1399 C1400 1.524 . S
C1399 C1403 1.400 . S
C1400 H1385 0.960 . S
C1400 H1386 0.960 . S
C1400 H1387 0.960 . S
C1400 C1399 1.524 . S
C1401 C1398 1.403 . S
C1401 C1402 1.392 . S
C1401 C1405 1.495 . S
C1402 C1401 1.392 . S
C1402 C1403 1.385 . S
C1402 C1404 1.478 . S
C1403 H1397 0.930 . S
C1403 C1399 1.400 . S
C1403 C1402 1.385 . S
C1404 C1402 1.478 . S
C1404 C1406 1.381 . S
C1404 C1410 1.383 . S
C1405 C1401 1.495 . S
C1405 H1411 0.959 . S
C1405 H1412 0.961 . S
C1405 H1413 0.960 . S
C1406 C1404 1.381 . S
C1406 C1407 1.394 . S
C1406 H1414 0.930 . S
C1407 C1406 1.394 . S
C1407 C1408 1.383 . S
C1407 H1415 0.929 . S
C1408 C1407 1.383 . S
C1408 C1409 1.377 . S
C1409 H1393 0.930 . S
C1409 C1408 1.377 . S
C1409 C1410 1.379 . S
C1410 H1394 0.931 . S
C1410 C1404 1.383 . S
C1410 C1409 1.379 . S
H1411 C1405 0.959 . S
H1412 C1405 0.961 . S
H1413 C1405 0.960 . S
H1414 C1406 0.930 . S
H1415 C1407 0.929 . S
H1416 C1424 0.929 . S
H1417 C1426 0.930 . S
H1418 C1428 0.930 . S
H1419 C1431 0.929 . S
H1420 C1434 0.930 . S
H1421 C1436 0.960 . S
H1422 C1436 0.960 . S
H1423 C1436 0.960 . S
C1424 H1416 0.929 . S
C1424 C1425 1.377 . S
C1424 C1426 1.384 . S
C1425 C1424 1.377 . S
C1425 C1431 1.390 . S
C1426 H1417 0.930 . S
C1426 C1424 1.384 . S
C1426 C1427 1.372 . S
C1427 C1426 1.372 . S
C1427 C1428 1.400 . S
C1427 C1432 1.490 . S
C1428 H1418 0.930 . S
C1428 C1427 1.400 . S
C1428 C1431 1.386 . S
H1429 C1445 0.930 . S
H1430 C1446 0.931 . S
C1431 H1419 0.929 . S
C1431 C1425 1.390 . S
C1431 C1428 1.386 . S
C1432 C1427 1.490 . S
C1432 C1434 1.395 . S
C1432 C1435 1.403 . S
H1433 C1439 0.930 . S
C1434 H1420 0.930 . S
C1434 C1432 1.395 . S
C1434 C1437 1.403 . S
C1435 C1432 1.403 . S
C1435 C1436 1.524 . S
C1435 C1439 1.400 . S
C1436 H1421 0.960 . S
C1436 H1422 0.960 . S
C1436 H1423 0.960 . S
C1436 C1435 1.524 . S
C1437 C1434 1.403 . S
C1437 C1438 1.392 . S
C1437 C1441 1.495 . S
C1438 C1437 1.392 . S
C1438 C1439 1.385 . S
C1438 C1440 1.478 . S
C1439 H1433 0.930 . S
C1439 C1435 1.400 . S
C1439 C1438 1.385 . S
C1440 C1438 1.478 . S
C1440 C1442 1.381 . S
C1440 C1446 1.383 . S
C1441 C1437 1.495 . S
C1441 H1447 0.959 . S
C1441 H1448 0.961 . S
C1441 H1449 0.960 . S
C1442 C1440 1.381 . S
C1442 C1443 1.394 . S
C1442 H1450 0.930 . S
C1443 C1442 1.394 . S
C1443 C1444 1.383 . S
C1443 H1451 0.929 . S
C1444 C1443 1.383 . S
C1444 C1445 1.377 . S
C1445 H1429 0.930 . S
C1445 C1444 1.377 . S
C1445 C1446 1.379 . S
C1446 H1430 0.931 . S
C1446 C1440 1.383 . S
C1446 C1445 1.379 . S
H1447 C1441 0.959 . S
H1448 C1441 0.961 . S
H1449 C1441 0.960 . S
H1450 C1442 0.930 . S
H1451 C1443 0.929 . S
H1452 C1460 0.929 . S
H1453 C1462 0.930 . S
H1454 C1464 0.930 . S
H1455 C1467 0.929 . S
H1456 C1470 0.930 . S
H1457 C1472 0.960 . S
H1458 C1472 0.960 . S
H1459 C1472 0.960 . S
C1460 H1452 0.929 . S
C1460 C1461 1.377 . S
C1460 C1462 1.384 . S
C1461 C1460 1.377 . S
C1461 C1467 1.390 . S
C1462 H1453 0.930 . S
C1462 C1460 1.384 . S
C1462 C1463 1.372 . S
C1463 C1462 1.372 . S
C1463 C1464 1.400 . S
C1463 C1468 1.490 . S
C1464 H1454 0.930 . S
C1464 C1463 1.400 . S
C1464 C1467 1.386 . S
H1465 C1481 0.930 . S
H1466 C1482 0.931 . S
C1467 H1455 0.929 . S
C1467 C1461 1.390 . S
C1467 C1464 1.386 . S
C1468 C1463 1.490 . S
C1468 C1470 1.395 . S
C1468 C1471 1.403 . S
H1469 C1475 0.930 . S
C1470 H1456 0.930 . S
C1470 C1468 1.395 . S
C1470 C1473 1.403 . S
C1471 C1468 1.403 . S
C1471 C1472 1.524 . S
C1471 C1475 1.400 . S
C1472 H1457 0.960 . S
C1472 H1458 0.960 . S
C1472 H1459 0.960 . S
C1472 C1471 1.524 . S
C1473 C1470 1.403 . S
C1473 C1474 1.392 . S
C1473 C1477 1.495 . S
C1474 C1473 1.392 . S
C1474 C1475 1.385 . S
C1474 C1476 1.478 . S
C1475 H1469 0.930 . S
C1475 C1471 1.400 . S
C1475 C1474 1.385 . S
C1476 C1474 1.478 . S
C1476 C1478 1.381 . S
C1476 C1482 1.383 . S
C1477 C1473 1.495 . S
C1477 H1483 0.959 . S
C1477 H1484 0.961 . S
C1477 H1485 0.960 . S
C1478 C1476 1.381 . S
C1478 C1479 1.394 . S
C1478 H1486 0.930 . S
C1479 C1478 1.394 . S
C1479 C1480 1.383 . S
C1479 H1487 0.929 . S
C1480 C1479 1.383 . S
C1480 C1481 1.377 . S
C1481 H1465 0.930 . S
C1481 C1480 1.377 . S
C1481 C1482 1.379 . S
C1482 H1466 0.931 . S
C1482 C1476 1.383 . S
C1482 C1481 1.379 . S
H1483 C1477 0.959 . S
H1484 C1477 0.961 . S
H1485 C1477 0.960 . S
H1486 C1478 0.930 . S
H1487 C1479 0.929 . S
H1488 C1496 0.929 . S
H1489 C1498 0.930 . S
H1490 C1500 0.930 . S
H1491 C1503 0.929 . S
H1492 C1506 0.930 . S
H1493 C1508 0.960 . S
H1494 C1508 0.960 . S
H1495 C1508 0.960 . S
C1496 H1488 0.929 . S
C1496 C1497 1.377 . S
C1496 C1498 1.384 . S
C1497 C1496 1.377 . S
C1497 C1503 1.390 . S
C1498 H1489 0.930 . S
C1498 C1496 1.384 . S
C1498 C1499 1.372 . S
C1499 C1498 1.372 . S
C1499 C1500 1.400 . S
C1499 C1504 1.490 . S
C1500 H1490 0.930 . S
C1500 C1499 1.400 . S
C1500 C1503 1.386 . S
H1501 C1517 0.930 . S
H1502 C1518 0.931 . S
C1503 H1491 0.929 . S
C1503 C1497 1.390 . S
C1503 C1500 1.386 . S
C1504 C1499 1.490 . S
C1504 C1506 1.395 . S
C1504 C1507 1.403 . S
H1505 C1511 0.930 . S
C1506 H1492 0.930 . S
C1506 C1504 1.395 . S
C1506 C1509 1.403 . S
C1507 C1504 1.403 . S
C1507 C1508 1.524 . S
C1507 C1511 1.400 . S
C1508 H1493 0.960 . S
C1508 H1494 0.960 . S
C1508 H1495 0.960 . S
C1508 C1507 1.524 . S
C1509 C1506 1.403 . S
C1509 C1510 1.392 . S
C1509 C1513 1.495 . S
C1510 C1509 1.392 . S
C1510 C1511 1.385 . S
C1510 C1512 1.478 . S
C1511 H1505 0.930 . S
C1511 C1507 1.400 . S
C1511 C1510 1.385 . S
C1512 C1510 1.478 . S
C1512 C1514 1.381 . S
C1512 C1518 1.383 . S
C1513 C1509 1.495 . S
C1513 H1519 0.959 . S
C1513 H1520 0.961 . S
C1513 H1521 0.960 . S
C1514 C1512 1.381 . S
C1514 C1515 1.394 . S
C1514 H1522 0.930 . S
C1515 C1514 1.394 . S
C1515 C1516 1.383 . S
C1515 H1523 0.929 . S
C1516 C1515 1.383 . S
C1516 C1517 1.377 . S
C1517 H1501 0.930 . S
C1517 C1516 1.377 . S
C1517 C1518 1.379 . S
C1518 H1502 0.931 . S
C1518 C1512 1.383 . S
C1518 C1517 1.379 . S
H1519 C1513 0.959 . S
H1520 C1513 0.961 . S
H1521 C1513 0.960 . S
H1522 C1514 0.930 . S
H1523 C1515 0.929 . S
H1524 C1532 0.929 1_455 S
H1525 C1534 0.930 . S
H1526 C1536 0.913 1_545 S
H1527 C1539 0.929 . S
H1528 C1542 0.930 . S
H1529 C1544 0.960 . S
H1530 C1544 0.960 . S
H1531 C1544 0.960 . S
C1532 H1524 0.929 1_655 S
C1532 C1533 1.377 . S
C1532 C1534 1.384 1_655 S
C1533 C1532 1.377 . S
C1533 C1539 1.390 . S
C1534 H1525 0.930 . S
C1534 C1532 1.384 1_455 S
C1534 C1535 1.396 1_565 S
C1535 C1534 1.396 1_545 S
C1535 C1536 1.340 1_445 S
C1535 C1540 1.520 . S
C1536 H1526 0.913 1_565 S
C1536 C1535 1.340 1_665 S
C1536 C1539 1.409 . S
H1537 C1553 0.930 . S
H1538 C1554 0.931 . S
C1539 H1527 0.929 . S
C1539 C1533 1.390 . S
C1539 C1536 1.409 . S
C1540 C1535 1.520 . S
C1540 C1542 1.395 . S
C1540 C1543 1.403 . S
H1541 C1547 0.930 . S
C1542 H1528 0.930 . S
C1542 C1540 1.395 . S
C1542 C1545 1.403 . S
C1543 C1540 1.403 . S
C1543 C1544 1.524 1_455 S
C1543 C1547 1.400 . S
C1544 H1529 0.960 . S
C1544 H1530 0.960 . S
C1544 H1531 0.960 . S
C1544 C1543 1.524 1_655 S
C1545 C1542 1.403 . S
C1545 C1546 1.392 . S
C1545 C1549 1.495 . S
C1546 C1545 1.392 . S
C1546 C1547 1.385 . S
C1546 C1548 1.478 . S
C1547 H1541 0.930 . S
C1547 C1543 1.400 . S
C1547 C1546 1.385 . S
C1548 C1546 1.478 . S
C1548 C1550 1.381 . S
C1548 C1554 1.383 . S
C1549 C1545 1.495 . S
C1549 H1555 0.959 . S
C1549 H1556 0.961 . S
C1549 H1557 0.960 . S
C1550 C1548 1.381 . S
C1550 C1551 1.394 . S
C1550 H1558 0.930 . S
C1551 C1550 1.394 . S
C1551 C1552 1.383 . S
C1551 H1559 0.929 . S
C1552 C1551 1.383 . S
C1552 C1553 1.377 . S
C1553 H1537 0.930 . S
C1553 C1552 1.377 . S
C1553 C1554 1.379 . S
C1554 H1538 0.931 . S
C1554 C1548 1.383 . S
C1554 C1553 1.379 . S
H1555 C1549 0.959 . S
H1556 C1549 0.961 . S
H1557 C1549 0.960 . S
H1558 C1550 0.930 . S
H1559 C1551 0.929 . S
H1560 C1568 0.929 . S
H1561 C1570 0.930 . S
H1562 C1572 0.930 . S
H1563 C1575 0.929 . S
H1564 C1578 0.930 . S
H1565 C1580 0.960 . S
H1566 C1580 0.960 . S
H1567 C1580 0.960 . S
C1568 H1560 0.929 . S
C1568 C1569 1.377 . S
C1568 C1570 1.384 . S
C1569 C1568 1.377 . S
C1569 C1575 1.390 . S
C1570 H1561 0.930 . S
C1570 C1568 1.384 . S
C1570 C1571 1.372 . S
C1571 C1570 1.372 . S
C1571 C1572 1.400 . S
C1571 C1576 1.490 . S
C1572 H1562 0.930 . S
C1572 C1571 1.400 . S
C1572 C1575 1.386 . S
H1573 C1589 0.930 . S
H1574 C1590 0.931 . S
C1575 H1563 0.929 . S
C1575 C1569 1.390 . S
C1575 C1572 1.386 . S
C1576 C1571 1.490 . S
C1576 C1578 1.395 . S
C1576 C1579 1.403 . S
H1577 C1583 0.930 . S
C1578 H1564 0.930 . S
C1578 C1576 1.395 . S
C1578 C1581 1.403 . S
C1579 C1576 1.403 . S
C1579 C1580 1.524 . S
C1579 C1583 1.400 . S
C1580 H1565 0.960 . S
C1580 H1566 0.960 . S
C1580 H1567 0.960 . S
C1580 C1579 1.524 . S
C1581 C1578 1.403 . S
C1581 C1582 1.392 . S
C1581 C1585 1.495 . S
C1582 C1581 1.392 . S
C1582 C1583 1.385 . S
C1582 C1584 1.478 . S
C1583 H1577 0.930 . S
C1583 C1579 1.400 . S
C1583 C1582 1.385 . S
C1584 C1582 1.478 . S
C1584 C1586 1.381 . S
C1584 C1590 1.383 . S
C1585 C1581 1.495 . S
C1585 H1591 0.959 . S
C1585 H1592 0.961 . S
C1585 H1593 0.960 . S
C1586 C1584 1.381 . S
C1586 C1587 1.394 . S
C1586 H1594 0.930 . S
C1587 C1586 1.394 . S
C1587 C1588 1.383 . S
C1587 H1595 0.929 . S
C1588 C1587 1.383 . S
C1588 C1589 1.377 . S
C1589 H1573 0.930 . S
C1589 C1588 1.377 . S
C1589 C1590 1.379 . S
C1590 H1574 0.931 . S
C1590 C1584 1.383 . S
C1590 C1589 1.379 . S
H1591 C1585 0.959 . S
H1592 C1585 0.961 . S
H1593 C1585 0.960 . S
H1594 C1586 0.930 . S
H1595 C1587 0.929 . S
H1596 C1604 0.929 . S
H1597 C1606 0.930 1_565 S
H1598 C1608 0.948 . S
H1599 C1611 0.929 . S
H1600 C1614 0.930 . S
H1601 C1616 0.960 . S
H1602 C1616 0.960 . S
H1603 C1616 0.960 . S
C1604 H1596 0.929 . S
C1604 C1605 1.377 . S
C1604 C1606 1.384 . S
C1605 C1604 1.377 . S
C1605 C1611 1.390 . S
C1606 H1597 0.930 1_545 S
C1606 C1604 1.384 . S
C1606 C1607 1.372 1_545 S
C1607 C1606 1.372 1_565 S
C1607 C1608 1.400 1_565 S
C1607 C1612 1.490 . S
C1608 H1598 0.948 . S
C1608 C1607 1.400 1_545 S
C1608 C1611 1.386 . S
H1609 C1625 0.930 . S
H1610 C1626 0.931 . S
C1611 H1599 0.929 . S
C1611 C1605 1.390 . S
C1611 C1608 1.386 . S
C1612 C1607 1.490 . S
C1612 C1614 1.395 . S
C1612 C1615 1.403 . S
H1613 C1619 0.930 . S
C1614 H1600 0.930 . S
C1614 C1612 1.395 . S
C1614 C1617 1.403 . S
C1615 C1612 1.403 . S
C1615 C1616 1.524 . S
C1615 C1619 1.400 . S
C1616 H1601 0.960 . S
C1616 H1602 0.960 . S
C1616 H1603 0.960 . S
C1616 C1615 1.524 . S
C1617 C1614 1.403 . S
C1617 C1618 1.392 . S
C1617 C1621 1.495 . S
C1618 C1617 1.392 . S
C1618 C1619 1.385 . S
C1618 C1620 1.478 . S
C1619 H1613 0.930 . S
C1619 C1615 1.400 . S
C1619 C1618 1.385 . S
C1620 C1618 1.478 . S
C1620 C1622 1.381 . S
C1620 C1626 1.383 . S
C1621 C1617 1.495 . S
C1621 H1627 0.959 . S
C1621 H1628 0.961 . S
C1621 H1629 0.960 . S
C1622 C1620 1.381 . S
C1622 C1623 1.394 . S
C1622 H1630 0.930 . S
C1623 C1622 1.394 . S
C1623 C1624 1.383 . S
C1623 H1631 0.929 . S
C1624 C1623 1.383 . S
C1624 C1625 1.377 . S
C1625 H1609 0.930 . S
C1625 C1624 1.377 . S
C1625 C1626 1.379 . S
C1626 H1610 0.931 . S
C1626 C1620 1.383 . S
C1626 C1625 1.379 . S
H1627 C1621 0.959 . S
H1628 C1621 0.961 . S
H1629 C1621 0.960 . S
H1630 C1622 0.930 . S
H1631 C1623 0.929 . S
H1632 C1640 0.929 . S
H1633 C1642 0.930 . S
H1634 C1644 0.930 . S
H1635 C1647 0.929 . S
H1636 C1650 0.930 . S
H1637 C1652 0.960 . S
H1638 C1652 0.960 . S
H1639 C1652 0.960 . S
C1640 H1632 0.929 . S
C1640 C1641 1.377 . S
C1640 C1642 1.384 . S
C1641 C1640 1.377 . S
C1641 C1647 1.390 . S
C1642 H1633 0.930 . S
C1642 C1640 1.384 . S
C1642 C1643 1.372 . S
C1643 C1642 1.372 . S
C1643 C1644 1.400 . S
C1643 C1648 1.490 . S
C1644 H1634 0.930 . S
C1644 C1643 1.400 . S
C1644 C1647 1.386 . S
H1645 C1661 0.930 . S
H1646 C1662 0.931 . S
C1647 H1635 0.929 . S
C1647 C1641 1.390 . S
C1647 C1644 1.386 . S
C1648 C1643 1.490 . S
C1648 C1650 1.395 . S
C1648 C1651 1.403 . S
H1649 C1655 0.930 . S
C1650 H1636 0.930 . S
C1650 C1648 1.395 . S
C1650 C1653 1.403 . S
C1651 C1648 1.403 . S
C1651 C1652 1.524 . S
C1651 C1655 1.400 . S
C1652 H1637 0.960 . S
C1652 H1638 0.960 . S
C1652 H1639 0.960 . S
C1652 C1651 1.524 . S
C1653 C1650 1.403 . S
C1653 C1654 1.392 . S
C1653 C1657 1.495 . S
C1654 C1653 1.392 . S
C1654 C1655 1.385 . S
C1654 C1656 1.478 . S
C1655 H1649 0.930 . S
C1655 C1651 1.400 . S
C1655 C1654 1.385 . S
C1656 C1654 1.478 . S
C1656 C1658 1.381 . S
C1656 C1662 1.383 . S
C1657 C1653 1.495 . S
C1657 H1663 0.959 . S
C1657 H1664 0.961 . S
C1657 H1665 0.960 . S
C1658 C1656 1.381 . S
C1658 C1659 1.394 . S
C1658 H1666 0.930 . S
C1659 C1658 1.394 . S
C1659 C1660 1.383 . S
C1659 H1667 0.929 . S
C1660 C1659 1.383 . S
C1660 C1661 1.377 . S
C1661 H1645 0.930 . S
C1661 C1660 1.377 . S
C1661 C1662 1.379 . S
C1662 H1646 0.931 . S
C1662 C1656 1.383 . S
C1662 C1661 1.379 . S
H1663 C1657 0.959 . S
H1664 C1657 0.961 . S
H1665 C1657 0.960 . S
H1666 C1658 0.930 . S
H1667 C1659 0.929 . S
H1668 C1676 0.916 1_655 S
H1669 C1678 0.930 . S
H1670 C1680 0.930 . S
H1671 C1683 0.929 . S
H1672 C1686 0.930 . S
H1673 C1688 0.960 . S
H1674 C1688 0.960 . S
H1675 C1688 0.960 . S
C1676 H1668 0.916 1_455 S
C1676 C1677 1.377 . S
C1676 C1678 1.384 1_455 S
C1677 C1676 1.377 . S
C1677 C1683 1.390 . S
C1678 H1669 0.930 . S
C1678 C1676 1.384 1_655 S
C1678 C1679 1.387 . S
C1679 C1678 1.387 . S
C1679 C1680 1.361 1_655 S
C1679 C1684 1.515 . S
C1680 H1670 0.930 . S
C1680 C1679 1.361 1_455 S
C1680 C1683 1.386 . S
H1681 C1697 0.930 . S
H1682 C1698 0.931 . S
C1683 H1671 0.929 . S
C1683 C1677 1.390 . S
C1683 C1680 1.386 . S
C1684 C1679 1.515 . S
C1684 C1686 1.395 . S
C1684 C1687 1.403 . S
H1685 C1691 0.930 . S
C1686 H1672 0.930 . S
C1686 C1684 1.395 . S
C1686 C1689 1.403 . S
C1687 C1684 1.403 . S
C1687 C1688 1.524 1_655 S
C1687 C1691 1.400 . S
C1688 H1673 0.960 . S
C1688 H1674 0.960 . S
C1688 H1675 0.960 . S
C1688 C1687 1.524 1_455 S
C1689 C1686 1.403 . S
C1689 C1690 1.392 . S
C1689 C1693 1.495 . S
C1690 C1689 1.392 . S
C1690 C1691 1.385 . S
C1690 C1692 1.478 . S
C1691 H1685 0.930 . S
C1691 C1687 1.400 . S
C1691 C1690 1.385 . S
C1692 C1690 1.478 . S
C1692 C1694 1.381 . S
C1692 C1698 1.383 . S
C1693 C1689 1.495 . S
C1693 H1699 0.959 . S
C1693 H1700 0.961 . S
C1693 H1701 0.960 . S
C1694 C1692 1.381 . S
C1694 C1695 1.394 . S
C1694 H1702 0.930 . S
C1695 C1694 1.394 . S
C1695 C1696 1.383 . S
C1695 H1703 0.929 . S
C1696 C1695 1.383 . S
C1696 C1697 1.377 . S
C1697 H1681 0.930 . S
C1697 C1696 1.377 . S
C1697 C1698 1.379 . S
C1698 H1682 0.931 . S
C1698 C1692 1.383 . S
C1698 C1697 1.379 . S
H1699 C1693 0.959 . S
H1700 C1693 0.961 . S
H1701 C1693 0.960 . S
H1702 C1694 0.930 . S
H1703 C1695 0.929 . S
H1704 C1712 0.929 . S
H1705 C1714 0.930 . S
H1706 C1716 0.930 . S
H1707 C1719 0.929 . S
H1708 C1722 0.930 . S
H1709 C1724 0.960 . S
H1710 C1724 0.960 . S
H1711 C1724 0.960 . S
C1712 H1704 0.929 . S
C1712 C1713 1.377 . S
C1712 C1714 1.384 . S
C1713 C1712 1.377 . S
C1713 C1719 1.390 . S
C1714 H1705 0.930 . S
C1714 C1712 1.384 . S
C1714 C1715 1.372 . S
C1715 C1714 1.372 . S
C1715 C1716 1.400 . S
C1715 C1720 1.490 . S
C1716 H1706 0.930 . S
C1716 C1715 1.400 . S
C1716 C1719 1.386 . S
H1717 C1733 0.930 . S
H1718 C1734 0.931 . S
C1719 H1707 0.929 . S
C1719 C1713 1.390 . S
C1719 C1716 1.386 . S
C1720 C1715 1.490 . S
C1720 C1722 1.395 . S
C1720 C1723 1.403 . S
H1721 C1727 0.930 . S
C1722 H1708 0.930 . S
C1722 C1720 1.395 . S
C1722 C1725 1.403 . S
C1723 C1720 1.403 . S
C1723 C1724 1.524 . S
C1723 C1727 1.400 . S
C1724 H1709 0.960 . S
C1724 H1710 0.960 . S
C1724 H1711 0.960 . S
C1724 C1723 1.524 . S
C1725 C1722 1.403 . S
C1725 C1726 1.392 . S
C1725 C1729 1.495 . S
C1726 C1725 1.392 . S
C1726 C1727 1.385 . S
C1726 C1728 1.478 . S
C1727 H1721 0.930 . S
C1727 C1723 1.400 . S
C1727 C1726 1.385 . S
C1728 C1726 1.478 . S
C1728 C1730 1.381 . S
C1728 C1734 1.383 . S
C1729 C1725 1.495 . S
C1729 H1735 0.959 . S
C1729 H1736 0.961 . S
C1729 H1737 0.960 . S
C1730 C1728 1.381 . S
C1730 C1731 1.394 . S
C1730 H1738 0.930 . S
C1731 C1730 1.394 . S
C1731 C1732 1.383 . S
C1731 H1739 0.929 . S
C1732 C1731 1.383 . S
C1732 C1733 1.377 . S
C1733 H1717 0.930 . S
C1733 C1732 1.377 . S
C1733 C1734 1.379 . S
C1734 H1718 0.931 . S
C1734 C1728 1.383 . S
C1734 C1733 1.379 . S
H1735 C1729 0.959 . S
H1736 C1729 0.961 . S
H1737 C1729 0.960 . S
H1738 C1730 0.930 . S
H1739 C1731 0.929 . S
H1740 C1748 0.929 . S
H1741 C1750 0.930 . S
H1742 C1752 0.930 . S
H1743 C1755 0.929 . S
H1744 C1758 0.930 . S
H1745 C1760 0.960 . S
H1746 C1760 0.960 . S
H1747 C1760 0.960 . S
C1748 H1740 0.929 . S
C1748 C1749 1.377 . S
C1748 C1750 1.384 . S
C1749 C1748 1.377 . S
C1749 C1755 1.390 . S
C1750 H1741 0.930 . S
C1750 C1748 1.384 . S
C1750 C1751 1.372 . S
C1751 C1750 1.372 . S
C1751 C1752 1.400 . S
C1751 C1756 1.490 . S
C1752 H1742 0.930 . S
C1752 C1751 1.400 . S
C1752 C1755 1.386 . S
H1753 C1769 0.930 . S
H1754 C1770 0.931 . S
C1755 H1743 0.929 . S
C1755 C1749 1.390 . S
C1755 C1752 1.386 . S
C1756 C1751 1.490 . S
C1756 C1758 1.395 . S
C1756 C1759 1.403 . S
H1757 C1763 0.930 . S
C1758 H1744 0.930 . S
C1758 C1756 1.395 . S
C1758 C1761 1.403 . S
C1759 C1756 1.403 . S
C1759 C1760 1.524 . S
C1759 C1763 1.400 . S
C1760 H1745 0.960 . S
C1760 H1746 0.960 . S
C1760 H1747 0.960 . S
C1760 C1759 1.524 . S
C1761 C1758 1.403 . S
C1761 C1762 1.392 . S
C1761 C1765 1.495 . S
C1762 C1761 1.392 . S
C1762 C1763 1.385 . S
C1762 C1764 1.478 . S
C1763 H1757 0.930 . S
C1763 C1759 1.400 . S
C1763 C1762 1.385 . S
C1764 C1762 1.478 . S
C1764 C1766 1.381 . S
C1764 C1770 1.383 . S
C1765 C1761 1.495 . S
C1765 H1771 0.959 . S
C1765 H1772 0.961 . S
C1765 H1773 0.960 . S
C1766 C1764 1.381 . S
C1766 C1767 1.394 . S
C1766 H1774 0.930 . S
C1767 C1766 1.394 . S
C1767 C1768 1.383 . S
C1767 H1775 0.929 . S
C1768 C1767 1.383 . S
C1768 C1769 1.377 . S
C1769 H1753 0.930 . S
C1769 C1768 1.377 . S
C1769 C1770 1.379 . S
C1770 H1754 0.931 . S
C1770 C1764 1.383 . S
C1770 C1769 1.379 . S
H1771 C1765 0.959 . S
H1772 C1765 0.961 . S
H1773 C1765 0.960 . S
H1774 C1766 0.930 . S
H1775 C1767 0.929 . S
H1776 C1784 0.929 . S
H1777 C1786 0.930 . S
H1778 C1788 0.930 . S
H1779 C1791 0.929 . S
H1780 C1794 0.930 . S
H1781 C1796 0.960 . S
H1782 C1796 0.960 . S
H1783 C1796 0.960 . S
C1784 H1776 0.929 . S
C1784 C1785 1.377 . S
C1784 C1786 1.384 . S
C1785 C1784 1.377 . S
C1785 C1791 1.390 . S
C1786 H1777 0.930 . S
C1786 C1784 1.384 . S
C1786 C1787 1.372 . S
C1787 C1786 1.372 . S
C1787 C1788 1.400 . S
C1787 C1792 1.490 . S
C1788 H1778 0.930 . S
C1788 C1787 1.400 . S
C1788 C1791 1.386 . S
H1789 C1805 0.930 . S
H1790 C1806 0.931 . S
C1791 H1779 0.929 . S
C1791 C1785 1.390 . S
C1791 C1788 1.386 . S
C1792 C1787 1.490 . S
C1792 C1794 1.395 . S
C1792 C1795 1.403 . S
H1793 C1799 0.930 . S
C1794 H1780 0.930 . S
C1794 C1792 1.395 . S
C1794 C1797 1.403 . S
C1795 C1792 1.403 . S
C1795 C1796 1.524 . S
C1795 C1799 1.400 . S
C1796 H1781 0.960 . S
C1796 H1782 0.960 . S
C1796 H1783 0.960 . S
C1796 C1795 1.524 . S
C1797 C1794 1.403 . S
C1797 C1798 1.392 . S
C1797 C1801 1.495 . S
C1798 C1797 1.392 . S
C1798 C1799 1.385 . S
C1798 C1800 1.478 . S
C1799 H1793 0.930 . S
C1799 C1795 1.400 . S
C1799 C1798 1.385 . S
C1800 C1798 1.478 . S
C1800 C1802 1.381 . S
C1800 C1806 1.383 . S
C1801 C1797 1.495 . S
C1801 H1807 0.959 . S
C1801 H1808 0.961 . S
C1801 H1809 0.960 . S
C1802 C1800 1.381 . S
C1802 C1803 1.394 . S
C1802 H1810 0.930 . S
C1803 C1802 1.394 . S
C1803 C1804 1.383 . S
C1803 H1811 0.929 . S
C1804 C1803 1.383 . S
C1804 C1805 1.377 . S
C1805 H1789 0.930 . S
C1805 C1804 1.377 . S
C1805 C1806 1.379 . S
C1806 H1790 0.931 . S
C1806 C1800 1.383 . S
C1806 C1805 1.379 . S
H1807 C1801 0.959 . S
H1808 C1801 0.961 . S
H1809 C1801 0.960 . S
H1810 C1802 0.930 . S
H1811 C1803 0.929 . S
H1812 C1820 0.929 . S
H1813 C1822 0.930 . S
H1814 C1824 0.930 . S
H1815 C1827 0.929 . S
H1816 C1830 0.930 . S
H1817 C1832 0.960 . S
H1818 C1832 0.960 . S
H1819 C1832 0.960 . S
C1820 H1812 0.929 . S
C1820 C1821 1.377 . S
C1820 C1822 1.384 . S
C1821 C1820 1.377 . S
C1821 C1827 1.390 . S
C1822 H1813 0.930 . S
C1822 C1820 1.384 . S
C1822 C1823 1.372 . S
C1823 C1822 1.372 . S
C1823 C1824 1.400 . S
C1823 C1828 1.490 . S
C1824 H1814 0.930 . S
C1824 C1823 1.400 . S
C1824 C1827 1.386 . S
H1825 C1841 0.930 . S
H1826 C1842 0.931 . S
C1827 H1815 0.929 . S
C1827 C1821 1.390 . S
C1827 C1824 1.386 . S
C1828 C1823 1.490 . S
C1828 C1830 1.395 . S
C1828 C1831 1.403 . S
H1829 C1835 0.930 . S
C1830 H1816 0.930 . S
C1830 C1828 1.395 . S
C1830 C1833 1.403 . S
C1831 C1828 1.403 . S
C1831 C1832 1.524 . S
C1831 C1835 1.400 . S
C1832 H1817 0.960 . S
C1832 H1818 0.960 . S
C1832 H1819 0.960 . S
C1832 C1831 1.524 . S
C1833 C1830 1.403 . S
C1833 C1834 1.392 . S
C1833 C1837 1.495 . S
C1834 C1833 1.392 . S
C1834 C1835 1.385 . S
C1834 C1836 1.478 . S
C1835 H1829 0.930 . S
C1835 C1831 1.400 . S
C1835 C1834 1.385 . S
C1836 C1834 1.478 . S
C1836 C1838 1.381 . S
C1836 C1842 1.383 . S
C1837 C1833 1.495 . S
C1837 H1843 0.959 . S
C1837 H1844 0.961 . S
C1837 H1845 0.960 . S
C1838 C1836 1.381 . S
C1838 C1839 1.394 . S
C1838 H1846 0.930 . S
C1839 C1838 1.394 . S
C1839 C1840 1.383 . S
C1839 H1847 0.929 . S
C1840 C1839 1.383 . S
C1840 C1841 1.377 . S
C1841 H1825 0.930 . S
C1841 C1840 1.377 . S
C1841 C1842 1.379 . S
C1842 H1826 0.931 . S
C1842 C1836 1.383 . S
C1842 C1841 1.379 . S
H1843 C1837 0.959 . S
H1844 C1837 0.961 . S
H1845 C1837 0.960 . S
H1846 C1838 0.930 . S
H1847 C1839 0.929 . S
H1848 C1856 0.929 . S
H1849 C1858 0.930 . S
H1850 C1860 0.930 1_554 S
H1851 C1863 0.929 . S
H1852 C1866 0.930 . S
H1853 C1868 0.960 . S
H1854 C1868 0.960 . S
H1855 C1868 0.960 . S
C1856 H1848 0.929 . S
C1856 C1857 1.377 . S
C1856 C1858 1.384 1_655 S
C1857 C1856 1.377 . S
C1857 C1863 1.390 . S
C1858 H1849 0.930 . S
C1858 C1856 1.384 1_455 S
C1858 C1859 1.373 . S
C1859 C1858 1.373 . S
C1859 C1860 1.400 1_455 S
C1859 C1864 1.488 1_556 S
C1860 H1850 0.930 1_556 S
C1860 C1859 1.400 1_655 S
C1860 C1863 1.386 . S
H1861 C1877 0.930 . S
H1862 C1878 0.931 . S
C1863 H1851 0.929 . S
C1863 C1857 1.390 . S
C1863 C1860 1.386 . S
C1864 C1859 1.488 1_554 S
C1864 C1866 1.395 . S
C1864 C1867 1.403 . S
H1865 C1871 0.930 . S
C1866 H1852 0.930 . S
C1866 C1864 1.395 . S
C1866 C1869 1.403 . S
C1867 C1864 1.403 . S
C1867 C1868 1.524 1_554 S
C1867 C1871 1.400 . S
C1868 H1853 0.960 . S
C1868 H1854 0.960 . S
C1868 H1855 0.960 . S
C1868 C1867 1.524 1_556 S
C1869 C1866 1.403 . S
C1869 C1870 1.392 . S
C1869 C1873 1.495 . S
C1870 C1869 1.392 . S
C1870 C1871 1.385 . S
C1870 C1872 1.478 . S
C1871 H1865 0.930 . S
C1871 C1867 1.400 . S
C1871 C1870 1.385 . S
C1872 C1870 1.478 . S
C1872 C1874 1.381 . S
C1872 C1878 1.383 . S
C1873 C1869 1.495 . S
C1873 H1879 0.959 . S
C1873 H1880 0.961 . S
C1873 H1881 0.960 . S
C1874 C1872 1.381 . S
C1874 C1875 1.394 . S
C1874 H1882 0.930 . S
C1875 C1874 1.394 . S
C1875 C1876 1.383 . S
C1875 H1883 0.929 . S
C1876 C1875 1.383 . S
C1876 C1877 1.377 . S
C1877 H1861 0.930 . S
C1877 C1876 1.377 . S
C1877 C1878 1.379 . S
C1878 H1862 0.931 . S
C1878 C1872 1.383 . S
C1878 C1877 1.379 . S
H1879 C1873 0.959 . S
H1880 C1873 0.961 . S
H1881 C1873 0.960 . S
H1882 C1874 0.930 . S
H1883 C1875 0.929 . S
H1884 C1892 0.929 . S
H1885 C1894 0.930 . S
H1886 C1896 0.930 . S
H1887 C1899 0.929 . S
H1888 C1902 0.930 . S
H1889 C1904 0.960 . S
H1890 C1904 0.960 . S
H1891 C1904 0.960 . S
C1892 H1884 0.929 . S
C1892 C1893 1.377 . S
C1892 C1894 1.384 . S
C1893 C1892 1.377 . S
C1893 C1899 1.390 . S
C1894 H1885 0.930 . S
C1894 C1892 1.384 . S
C1894 C1895 1.372 . S
C1895 C1894 1.372 . S
C1895 C1896 1.400 . S
C1895 C1900 1.490 . S
C1896 H1886 0.930 . S
C1896 C1895 1.400 . S
C1896 C1899 1.386 . S
H1897 C1913 0.930 . S
H1898 C1914 0.931 . S
C1899 H1887 0.929 . S
C1899 C1893 1.390 . S
C1899 C1896 1.386 . S
C1900 C1895 1.490 . S
C1900 C1902 1.395 . S
C1900 C1903 1.403 . S
H1901 C1907 0.930 . S
C1902 H1888 0.930 . S
C1902 C1900 1.395 . S
C1902 C1905 1.403 . S
C1903 C1900 1.403 . S
C1903 C1904 1.524 . S
C1903 C1907 1.400 . S
C1904 H1889 0.960 . S
C1904 H1890 0.960 . S
C1904 H1891 0.960 . S
C1904 C1903 1.524 . S
C1905 C1902 1.403 . S
C1905 C1906 1.392 . S
C1905 C1909 1.495 . S
C1906 C1905 1.392 . S
C1906 C1907 1.385 . S
C1906 C1908 1.478 . S
C1907 H1901 0.930 . S
C1907 C1903 1.400 . S
C1907 C1906 1.385 . S
C1908 C1906 1.478 . S
C1908 C1910 1.381 . S
C1908 C1914 1.383 . S
C1909 C1905 1.495 . S
C1909 H1915 0.959 . S
C1909 H1916 0.961 . S
C1909 H1917 0.960 . S
C1910 C1908 1.381 . S
C1910 C1911 1.394 . S
C1910 H1918 0.930 . S
C1911 C1910 1.394 . S
C1911 C1912 1.383 . S
C1911 H1919 0.929 . S
C1912 C1911 1.383 . S
C1912 C1913 1.377 . S
C1913 H1897 0.930 . S
C1913 C1912 1.377 . S
C1913 C1914 1.379 . S
C1914 H1898 0.931 . S
C1914 C1908 1.383 . S
C1914 C1913 1.379 . S
H1915 C1909 0.959 . S
H1916 C1909 0.961 . S
H1917 C1909 0.960 . S
H1918 C1910 0.930 . S
H1919 C1911 0.929 . S
H1920 C1928 0.929 . S
H1921 C1930 0.930 . S
H1922 C1932 0.930 . S
H1923 C1935 0.929 . S
H1924 C1938 0.930 . S
H1925 C1940 0.960 . S
H1926 C1940 0.960 . S
H1927 C1940 0.960 . S
C1928 H1920 0.929 . S
C1928 C1929 1.377 . S
C1928 C1930 1.384 . S
C1929 C1928 1.377 . S
C1929 C1935 1.390 . S
C1930 H1921 0.930 . S
C1930 C1928 1.384 . S
C1930 C1931 1.372 . S
C1931 C1930 1.372 . S
C1931 C1932 1.400 . S
C1931 C1936 1.490 . S
C1932 H1922 0.930 . S
C1932 C1931 1.400 . S
C1932 C1935 1.386 . S
H1933 C1949 0.930 . S
H1934 C1950 0.931 . S
C1935 H1923 0.929 . S
C1935 C1929 1.390 . S
C1935 C1932 1.386 . S
C1936 C1931 1.490 . S
C1936 C1938 1.395 . S
C1936 C1939 1.403 . S
H1937 C1943 0.930 . S
C1938 H1924 0.930 . S
C1938 C1936 1.395 . S
C1938 C1941 1.403 . S
C1939 C1936 1.403 . S
C1939 C1940 1.524 . S
C1939 C1943 1.400 . S
C1940 H1925 0.960 . S
C1940 H1926 0.960 . S
C1940 H1927 0.960 . S
C1940 C1939 1.524 . S
C1941 C1938 1.403 . S
C1941 C1942 1.392 . S
C1941 C1945 1.495 . S
C1942 C1941 1.392 . S
C1942 C1943 1.385 . S
C1942 C1944 1.478 . S
C1943 H1937 0.930 . S
C1943 C1939 1.400 . S
C1943 C1942 1.385 . S
C1944 C1942 1.478 . S
C1944 C1946 1.381 . S
C1944 C1950 1.383 . S
C1945 C1941 1.495 . S
C1945 H1951 0.959 . S
C1945 H1952 0.961 . S
C1945 H1953 0.960 . S
C1946 C1944 1.381 . S
C1946 C1947 1.394 . S
C1946 H1954 0.930 . S
C1947 C1946 1.394 . S
C1947 C1948 1.383 . S
C1947 H1955 0.929 . S
C1948 C1947 1.383 . S
C1948 C1949 1.377 . S
C1949 H1933 0.930 . S
C1949 C1948 1.377 . S
C1949 C1950 1.379 . S
C1950 H1934 0.931 . S
C1950 C1944 1.383 . S
C1950 C1949 1.379 . S
H1951 C1945 0.959 . S
H1952 C1945 0.961 . S
H1953 C1945 0.960 . S
H1954 C1946 0.930 . S
H1955 C1947 0.929 . S
H1956 C1964 0.929 . S
H1957 C1966 0.930 . S
H1958 C1968 0.930 . S
H1959 C1971 0.929 . S
H1960 C1974 0.930 . S
H1961 C1976 0.960 . S
H1962 C1976 0.960 . S
H1963 C1976 0.960 . S
C1964 H1956 0.929 . S
C1964 C1965 1.377 . S
C1964 C1966 1.384 . S
C1965 C1964 1.377 . S
C1965 C1971 1.390 . S
C1966 H1957 0.930 . S
C1966 C1964 1.384 . S
C1966 C1967 1.372 . S
C1967 C1966 1.372 . S
C1967 C1968 1.400 . S
C1967 C1972 1.490 . S
C1968 H1958 0.930 . S
C1968 C1967 1.400 . S
C1968 C1971 1.386 . S
H1969 C1985 0.930 . S
H1970 C1986 0.931 . S
C1971 H1959 0.929 . S
C1971 C1965 1.390 . S
C1971 C1968 1.386 . S
C1972 C1967 1.490 . S
C1972 C1974 1.395 . S
C1972 C1975 1.403 . S
H1973 C1979 0.930 . S
C1974 H1960 0.930 . S
C1974 C1972 1.395 . S
C1974 C1977 1.403 . S
C1975 C1972 1.403 . S
C1975 C1976 1.524 . S
C1975 C1979 1.400 . S
C1976 H1961 0.960 . S
C1976 H1962 0.960 . S
C1976 H1963 0.960 . S
C1976 C1975 1.524 . S
C1977 C1974 1.403 . S
C1977 C1978 1.392 . S
C1977 C1981 1.495 . S
C1978 C1977 1.392 . S
C1978 C1979 1.385 . S
C1978 C1980 1.478 . S
C1979 H1973 0.930 . S
C1979 C1975 1.400 . S
C1979 C1978 1.385 . S
C1980 C1978 1.478 . S
C1980 C1982 1.381 . S
C1980 C1986 1.383 . S
C1981 C1977 1.495 . S
C1981 H1987 0.959 . S
C1981 H1988 0.961 . S
C1981 H1989 0.960 . S
C1982 C1980 1.381 . S
C1982 C1983 1.394 . S
C1982 H1990 0.930 . S
C1983 C1982 1.394 . S
C1983 C1984 1.383 . S
C1983 H1991 0.929 . S
C1984 C1983 1.383 . S
C1984 C1985 1.377 . S
C1985 H1969 0.930 . S
C1985 C1984 1.377 . S
C1985 C1986 1.379 . S
C1986 H1970 0.931 . S
C1986 C1980 1.383 . S
C1986 C1985 1.379 . S
H1987 C1981 0.959 . S
H1988 C1981 0.961 . S
H1989 C1981 0.960 . S
H1990 C1982 0.930 . S
H1991 C1983 0.929 . S
H1992 C2000 0.929 . S
H1993 C2002 0.930 . S
H1994 C2004 0.948 . S
H1995 C2007 0.929 . S
H1996 C2010 0.930 . S
H1997 C2012 0.960 . S
H1998 C2012 0.960 . S
H1999 C2012 0.960 . S
C2000 H1992 0.929 . S
C2000 C2001 1.377 . S
C2000 C2002 1.384 . S
C2001 C2000 1.377 . S
C2001 C2007 1.390 . S
C2002 H1993 0.930 . S
C2002 C2000 1.384 . S
C2002 C2003 1.371 1_554 S
C2003 C2002 1.371 1_556 S
C2003 C2004 1.399 . S
C2003 C2008 1.491 . S
C2004 H1994 0.948 . S
C2004 C2003 1.399 . S
C2004 C2007 1.370 1_556 S
H2005 C2021 0.930 . S
H2006 C2022 0.931 . S
C2007 H1995 0.929 . S
C2007 C2001 1.390 . S
C2007 C2004 1.370 1_554 S
C2008 C2003 1.491 . S
C2008 C2010 1.395 1_556 S
C2008 C2011 1.403 . S
H2009 C2015 0.930 . S
C2010 H1996 0.930 . S
C2010 C2008 1.395 1_554 S
C2010 C2013 1.403 1_554 S
C2011 C2008 1.403 . S
C2011 C2012 1.524 . S
C2011 C2015 1.400 . S
C2012 H1997 0.960 . S
C2012 H1998 0.960 . S
C2012 H1999 0.960 . S
C2012 C2011 1.524 . S
C2013 C2010 1.403 1_556 S
C2013 C2014 1.392 . S
C2013 C2017 1.495 1_556 S
C2014 C2013 1.392 . S
C2014 C2015 1.385 . S
C2014 C2016 1.478 . S
C2015 H2009 0.930 . S
C2015 C2011 1.400 . S
C2015 C2014 1.385 . S
C2016 C2014 1.478 . S
C2016 C2018 1.381 . S
C2016 C2022 1.383 . S
C2017 C2013 1.495 1_554 S
C2017 H2023 0.959 . S
C2017 H2024 0.961 . S
C2017 H2025 0.960 . S
C2018 C2016 1.381 . S
C2018 C2019 1.394 . S
C2018 H2026 0.930 . S
C2019 C2018 1.394 . S
C2019 C2020 1.383 . S
C2019 H2027 0.929 . S
C2020 C2019 1.383 . S
C2020 C2021 1.377 . S
C2021 H2005 0.930 . S
C2021 C2020 1.377 . S
C2021 C2022 1.379 . S
C2022 H2006 0.931 . S
C2022 C2016 1.383 . S
C2022 C2021 1.379 . S
H2023 C2017 0.959 . S
H2024 C2017 0.961 . S
H2025 C2017 0.960 . S
H2026 C2018 0.930 . S
H2027 C2019 0.929 . S
H2028 C2036 0.929 . S
H2029 C2038 0.930 . S
H2030 C2040 0.930 . S
H2031 C2043 0.929 . S
H2032 C2046 0.930 . S
H2033 C2048 0.960 . S
H2034 C2048 0.960 . S
H2035 C2048 0.960 . S
C2036 H2028 0.929 . S
C2036 C2037 1.377 . S
C2036 C2038 1.384 . S
C2037 C2036 1.377 . S
C2037 C2043 1.390 . S
C2038 H2029 0.930 . S
C2038 C2036 1.384 . S
C2038 C2039 1.372 . S
C2039 C2038 1.372 . S
C2039 C2040 1.400 . S
C2039 C2044 1.490 . S
C2040 H2030 0.930 . S
C2040 C2039 1.400 . S
C2040 C2043 1.386 . S
H2041 C2057 0.930 . S
H2042 C2058 0.931 . S
C2043 H2031 0.929 . S
C2043 C2037 1.390 . S
C2043 C2040 1.386 . S
C2044 C2039 1.490 . S
C2044 C2046 1.395 . S
C2044 C2047 1.403 . S
H2045 C2051 0.930 . S
C2046 H2032 0.930 . S
C2046 C2044 1.395 . S
C2046 C2049 1.403 . S
C2047 C2044 1.403 . S
C2047 C2048 1.524 . S
C2047 C2051 1.400 . S
C2048 H2033 0.960 . S
C2048 H2034 0.960 . S
C2048 H2035 0.960 . S
C2048 C2047 1.524 . S
C2049 C2046 1.403 . S
C2049 C2050 1.392 . S
C2049 C2053 1.495 . S
C2050 C2049 1.392 . S
C2050 C2051 1.385 . S
C2050 C2052 1.478 . S
C2051 H2045 0.930 . S
C2051 C2047 1.400 . S
C2051 C2050 1.385 . S
C2052 C2050 1.478 . S
C2052 C2054 1.387 . S
C2052 C2058 1.383 1_655 S
C2053 C2049 1.495 . S
C2053 H2059 0.959 . S
C2053 H2060 0.961 . S
C2053 H2061 0.960 . S
C2054 C2052 1.387 . S
C2054 C2055 1.356 1_655 S
C2054 H2062 0.964 . S
C2055 C2054 1.356 1_455 S
C2055 C2056 1.383 . S
C2055 H2063 0.929 . S
C2056 C2055 1.383 . S
C2056 C2057 1.377 . S
C2057 H2041 0.930 . S
C2057 C2056 1.377 . S
C2057 C2058 1.379 . S
C2058 H2042 0.931 . S
C2058 C2052 1.383 1_455 S
C2058 C2057 1.379 . S
H2059 C2053 0.959 . S
H2060 C2053 0.961 . S
H2061 C2053 0.960 . S
H2062 C2054 0.964 . S
H2063 C2055 0.929 . S
C345 C134 1.041 . S
C364 C8 1.063 . S
C381 C22 1.038 . S
C400 C148 1.049 . S
C417 C36 1.041 . S
C436 C162 1.017 . S
C453 C50 1.046 . S
C472 C120 1.026 . S
C489 C64 1.039 . S
C508 C218 1.057 . S
C525 C176 1.038 . S
C544 C78 1.028 . S
C561 C92 1.042 . S
C580 C190 1.017 . S
C597 C204 1.039 . S
C616 C106 1.024 . S
C633 C232 1.038 . S
C652 C260 1.025 . S
C669 C316 1.039 . S
C688 C246 1.021 . S
C705 C274 1.047 . S
C724 C330 1.048 . S
C741 C302 1.040 . S
C760 C288 1.020 . S
C777 C287 1.696 . S
C796 C7 1.663 . S
C813 C21 1.700 . S
C832 C245 1.693 . S
C849 C35 1.690 . S
C868 C259 1.709 . S
C885 C49 1.699 . S
C904 C273 1.714 . S
C921 C63 1.688 . S
C940 C329 1.675 . S
C957 C301 1.691 . S
C976 C77 1.661 . S
C993 C315 1.691 . S
C1012 C91 1.661 . S
C1029 C231 1.700 . S
C1048 C105 1.713 . S
C1065 C217 1.688 . S
C1084 C119 1.676 . S
C1101 C133 1.695 . S
C1120 C175 1.661 . S
C1137 C189 1.695 . S
C1156 C147 1.662 . S
C1173 C203 1.700 . S
C1192 C161 1.699 . S
C1209 C9 0.867 . S
C1228 C227 0.942 . S
C1245 C325 0.929 . S
C1264 C23 0.814 . S
C1281 C297 0.922 . S
C1300 C37 0.933 . S
C1317 C51 0.889 . S
C1336 C311 0.914 . S
C1353 C65 0.881 . S
C1372 C241 0.915 . S
C1389 C255 0.920 . S
C1408 C79 0.942 . S
C1425 C269 0.928 . S
C1444 C93 0.853 . S
C1461 C283 0.929 . S
C1480 C107 0.814 . S
C1497 C3 0.928 . S
C1516 C121 0.859 . S
C1533 C17 0.923 . S
C1552 C135 0.915 . S
C1569 C31 0.925 . S
C1588 C149 0.861 . S
C1605 C45 0.921 . S
C1624 C163 0.938 . S
C1641 C59 0.922 . S
C1660 C177 0.932 . S
C1677 C73 0.922 . S
C1696 C191 0.926 . S
C1713 C205 0.867 . S
C1732 C87 0.947 . S
C1749 C101 0.922 . S
C1768 C219 0.934 . S
C1785 C115 0.923 . S
C1804 C233 0.921 . S
C1821 C247 0.878 . S
C1840 C171 0.934 . S
C1857 C185 0.920 . S
C1876 C261 0.940 . S
C1893 C275 0.893 . S
C1912 C199 0.905 . S
C1929 C289 0.867 . S
C1948 C213 0.947 . S
C1965 C303 0.886 . S
C1984 C143 0.919 . S
C2001 C157 0.929 . S
C2020 C317 0.816 . S
C2037 C331 0.873 . S
C2056 C129 0.929 . S
