# Generated by pormake.
# Topology qtz-e, (6)-cn, num edge types: 1
# Building blocks:
#     Node 0, Type 0, BuildingBlock: INOVEN_clean_sbu_0, # of connection points: 6
#     Node 1, Type 0, BuildingBlock: INOVEN_clean_sbu_0, # of connection points: 6
#     Node 2, Type 0, BuildingBlock: INOVEN_clean_sbu_0, # of connection points: 6
#     Node 3, Type 0, BuildingBlock: INOVEN_clean_sbu_0, # of connection points: 6
#     Node 4, Type 0, BuildingBlock: INOVEN_clean_sbu_0, # of connection points: 6
#     Node 5, Type 0, BuildingBlock: INOVEN_clean_sbu_0, # of connection points: 6
#     Edge 6, Type (0, 0), BuildingBlock: KIFKEQ_clean_linker_1, # of connection points: 2
#     Edge 7, Type (0, 0), BuildingBlock: KIFKEQ_clean_linker_1, # of connection points: 2
#     Edge 8, Type (0, 0), BuildingBlock: KIFKEQ_clean_linker_1, # of connection points: 2
#     Edge 9, Type (0, 0), BuildingBlock: KIFKEQ_clean_linker_1, # of connection points: 2
#     Edge 10, Type (0, 0), BuildingBlock: KIFKEQ_clean_linker_1, # of connection points: 2
#     Edge 11, Type (0, 0), BuildingBlock: KIFKEQ_clean_linker_1, # of connection points: 2
#     Edge 12, Type (0, 0), BuildingBlock: KIFKEQ_clean_linker_1, # of connection points: 2
#     Edge 13, Type (0, 0), BuildingBlock: KIFKEQ_clean_linker_1, # of connection points: 2
#     Edge 14, Type (0, 0), BuildingBlock: KIFKEQ_clean_linker_1, # of connection points: 2
#     Edge 15, Type (0, 0), BuildingBlock: KIFKEQ_clean_linker_1, # of connection points: 2
#     Edge 16, Type (0, 0), BuildingBlock: KIFKEQ_clean_linker_1, # of connection points: 2
#     Edge 17, Type (0, 0), BuildingBlock: KIFKEQ_clean_linker_1, # of connection points: 2
#     Edge 18, Type (0, 0), BuildingBlock: KIFKEQ_clean_linker_1, # of connection points: 2
#     Edge 19, Type (0, 0), BuildingBlock: KIFKEQ_clean_linker_1, # of connection points: 2
#     Edge 20, Type (0, 0), BuildingBlock: KIFKEQ_clean_linker_1, # of connection points: 2
#     Edge 21, Type (0, 0), BuildingBlock: KIFKEQ_clean_linker_1, # of connection points: 2
#     Edge 22, Type (0, 0), BuildingBlock: KIFKEQ_clean_linker_1, # of connection points: 2
#     Edge 23, Type (0, 0), BuildingBlock: KIFKEQ_clean_linker_1, # of connection points: 2
# Relax obj value: 0.088
# Max RMSD: 0.173
# Mean RMSD: 0.173
data_MOF--net-qtz-e--node1-INOVEN_clean_sbu_0--edge1-KIFKEQ_clean_linker_1
_symmetry_space_group_name_H-M    P1
_symmetry_Int_Tables_number       1
_symmetry_cell_setting            triclinic
loop_
_symmetry_equiv_pos_as_xyz
'x, y, z'
_cell_length_a     26.790625
_cell_length_b     26.7121
_cell_length_c     51.999256
_cell_angle_alpha  89.867901
_cell_angle_beta   89.848065
_cell_angle_gamma 119.56372
loop_
_atom_site_label
_atom_site_type_symbol
_atom_site_fract_x
_atom_site_fract_y
_atom_site_fract_z
_atom_type_partial_charge
Gd0 Gd 0.20434 0.48185 0.06524 0.0
Gd1 Gd 0.1744 0.36103 0.05099 0.0
C2 C 0.14136 0.37514 0.10776 0.0
C3 C 0.19548 0.56696 0.08284 0.0
C4 C 0.19592 0.58378 0.10966 0.0
C5 C 0.22327 0.56778 0.12831 0.0
C6 C 0.16508 0.61105 0.11719 0.0
C7 C 0.18947 0.60668 0.1619 0.0
C8 C 0.16182 0.62244 0.1432 0.0
C9 C 0.22032 0.5794 0.15418 0.0
C10 C 0.29116 0.46194 0.07348 0.0
C11 C 0.24456 0.4671 1.01079 0.0
C12 C 0.17336 0.27431 0.0281 0.0
C13 C 0.19121 0.2669 1.00187 0.0
C14 C 0.18166 0.29275 0.98023 0.0
C15 C 0.21934 0.23485 0.99836 0.0
C16 C 0.22767 0.25413 0.95201 0.0
C17 C 0.23741 0.22857 0.97377 0.0
C18 C 0.1995 0.28634 0.95564 0.0
C19 C 0.09492 0.39349 0.04156 0.0
O20 O 0.15525 0.42795 0.10015 0.0
O21 O 0.14997 0.34016 0.09267 0.0
O22 O 0.24396 0.57241 0.07427 0.0
O23 O 0.15082 0.51789 0.07656 0.0
O24 O 0.29733 0.5118 0.06752 0.0
O25 O 0.23896 0.42514 0.07763 0.0
O26 O 0.23691 0.41785 1.02023 0.0
O27 O 0.22571 0.49743 1.02333 0.0
O28 O 0.12854 0.28148 0.02956 0.0
O29 O 0.21443 0.30853 0.04359 0.0
O30 O 0.08194 0.34466 0.05235 0.0
O31 O 0.14746 0.42105 0.03717 0.0
H32 H 0.24609 0.54531 0.12291 0.0
H33 H 0.14294 0.62274 0.10305 0.0
H34 H 0.13795 0.64375 0.14868 0.0
H35 H 0.24117 0.56593 0.16822 0.0
H36 H 0.16086 0.3185 0.98232 0.0
H37 H 0.22743 0.21463 1.01469 0.0
H38 H 0.25842 0.20303 0.97178 0.0
H39 H 0.19211 0.30754 0.93951 0.0
Gd40 Gd 0.69576 0.19933 0.39644 0.0
Gd41 Gd 0.80353 0.19481 0.38573 0.0
C42 C 0.7541 0.15653 0.44163 0.0
C43 C 0.59471 0.17203 0.41277 0.0
C44 C 0.57658 0.17452 0.43921 0.0
C45 C 0.61545 0.21655 0.45611 0.0
C46 C 0.52291 0.13227 0.44848 0.0
C47 C 0.54703 0.17471 0.4912 0.0
C48 C 0.50823 0.13225 0.47436 0.0
C49 C 0.60067 0.21687 0.48178 0.0
C50 C 0.78948 0.30051 0.40491 0.0
C51 C 0.75051 0.24358 0.34235 0.0
C52 C 0.89959 0.21248 0.36537 0.0
C53 C 0.92411 0.22779 0.33895 0.0
C54 C 0.88836 0.21264 0.31725 0.0
C55 C -0.01621 0.25837 0.33523 0.0
C56 C 0.97176 0.25813 0.28851 0.0
C57 C 0.00735 0.27338 0.31036 0.0
C58 C 0.91185 0.22754 0.29238 0.0
C59 C 0.70174 0.09937 0.37486 0.0
O60 O 0.70891 0.15826 0.43235 0.0
O61 O 0.80175 0.17525 0.4279 0.0
O62 O 0.6292 0.22182 0.40203 0.0
O63 O 0.61111 0.13386 0.40907 0.0
O64 O 0.74097 0.29411 0.39693 0.0
O65 O 0.78572 0.25239 0.41049 0.0
O66 O 0.79695 0.24788 0.35324 0.0
O67 O 0.70017 0.21569 0.35401 0.0
O68 O 0.85481 0.16137 0.36836 0.0
O69 O 0.8944 0.25212 0.37789 0.0
O70 O 0.74253 0.09688 0.38718 0.0
O71 O 0.71715 0.15054 0.37 0.0
H72 H 0.65779 0.24866 0.44957 0.0
H73 H 0.49282 0.09891 0.43584 0.0
H74 H 0.46658 0.09929 0.48118 0.0
H75 H 0.6318 0.24941 0.49443 0.0
H76 H 0.84213 0.18952 0.31953 0.0
H77 H 0.0123 0.27061 0.35161 0.0
H78 H 0.05359 0.29634 0.30826 0.0
H79 H 0.88294 0.21585 0.27618 0.0
Gd80 Gd 0.48922 0.69653 0.72897 0.0
Gd81 Gd 0.60035 0.80502 0.71688 0.0
C82 C 0.58865 0.75871 0.77383 0.0
C83 C 0.41526 0.59682 0.74645 0.0
C84 C 0.39354 0.58028 0.77283 0.0
C85 C 0.38917 0.62023 0.78883 0.0
C86 C 0.38219 0.52699 0.78295 0.0
C87 C 0.36199 0.55377 0.82481 0.0
C88 C 0.36665 0.51383 0.80883 0.0
C89 C 0.37314 0.60693 0.81452 0.0
C90 C 0.48118 0.79184 0.73466 0.0
C91 C 0.50098 0.74324 0.67304 0.0
C92 C 0.67669 0.90181 0.69654 0.0
C93 C 0.68545 0.92924 0.67068 0.0
C94 C 0.7387 0.95085 0.65815 0.0
C95 C 0.64112 0.93308 0.658 0.0
C96 C 0.70315 0.97918 0.62064 0.0
C97 C 0.64984 0.95768 0.63335 0.0
C98 C 0.74748 0.97546 0.6335 0.0
C99 C 0.5989 0.70405 0.71007 0.0
O100 O 0.54198 0.71284 0.76525 0.0
O101 O 0.6176 0.80515 0.75926 0.0
O102 O 0.40063 0.63109 0.73473 0.0
O103 O 0.4695 0.61253 0.74339 0.0
O104 O 0.4395 0.74268 0.72733 0.0
O105 O 0.52479 0.78783 0.74089 0.0
O106 O 0.54265 0.79186 0.68256 0.0
O107 O 0.47877 0.69502 0.68647 0.0
O108 O 0.68293 0.85633 0.69792 0.0
O109 O 0.63331 0.89639 0.71036 0.0
O110 O 0.64106 0.74757 0.72139 0.0
O111 O 0.56133 0.71627 0.70378 0.0
H112 H 0.39922 0.66229 0.78161 0.0
H113 H 0.38625 0.49606 0.77097 0.0
H114 H 0.35816 0.47249 0.81635 0.0
H115 H 0.37086 0.63885 0.82651 0.0
H116 H 0.77358 0.94827 0.66738 0.0
H117 H 0.59945 0.91675 0.66704 0.0
H118 H 0.61478 0.96029 0.62438 0.0
H119 H 0.78885 -0.00936 0.62435 0.0
Gd120 Gd 0.77686 0.50308 0.06361 0.0
Gd121 Gd 0.78177 0.61486 0.05102 0.0
C122 C 0.8194 0.606 0.10739 0.0
C123 C 0.80071 0.42599 0.07953 0.0
C124 C 0.79353 0.39919 0.10502 0.0
C125 C 0.74146 0.37816 0.11855 0.0
C126 C 0.84049 0.39951 0.11703 0.0
C127 C 0.7841 0.36035 0.15609 0.0
C128 C 0.83589 0.38039 0.14243 0.0
C129 C 0.73673 0.35863 0.14379 0.0
C130 C 0.67629 0.49878 0.07213 0.0
C131 C 0.73451 0.51221 1.00901 0.0
C132 C 0.76565 0.69401 0.02992 0.0
C133 C 0.74906 0.702 1.00365 0.0
C134 C 0.75606 0.67336 0.98249 0.0
C135 C 0.72579 0.73826 0.99954 0.0
C136 C 0.71673 0.71723 0.95342 0.0
C137 C 0.70992 0.74592 0.97473 0.0
C138 C 0.74 0.68074 0.95772 0.0
C139 C 0.87771 0.60757 0.04168 0.0
O140 O 0.8181 0.55845 0.09901 0.0
O141 O 0.8006 0.63416 0.09298 0.0
O142 O 0.75345 0.4135 0.06721 0.0
O143 O 0.83904 0.4807 0.07827 0.0
O144 O 0.68179 0.45539 0.06503 0.0
O145 O 0.72464 0.54233 0.07683 0.0
O146 O 0.72842 0.554 1.0193 0.0
O147 O 0.76361 0.49151 1.02114 0.0
O148 O 0.81601 0.69784 0.03205 0.0
O149 O 0.72627 0.65128 0.04338 0.0
O150 O 0.87907 0.65087 0.05354 0.0
O151 O 0.82715 0.57158 0.03654 0.0
H152 H 0.70475 0.37832 0.10995 0.0
H153 H 0.88113 0.41605 0.10701 0.0
H154 H 0.87295 0.3818 0.15147 0.0
H155 H 0.69658 0.34417 0.15399 0.0
H156 H 0.77416 0.64531 0.98509 0.0
H157 H 0.71975 0.76065 1.01555 0.0
H158 H 0.69144 0.77367 0.97234 0.0
H159 H 0.7466 0.65837 0.94188 0.0
Gd160 Gd 0.23504 0.75821 0.4024 0.0
Gd161 Gd 0.15834 0.80515 0.38221 0.0
C162 C 0.20308 0.83551 0.43951 0.0
C163 C 0.31591 0.73731 0.41476 0.0
C164 C 0.33831 0.72964 0.43937 0.0
C165 C 0.30198 0.68911 0.45767 0.0
C166 C 0.39581 0.76739 0.44566 0.0
C167 C 0.37935 0.72728 0.48881 0.0
C168 C 0.41611 0.76646 0.47024 0.0
C169 C 0.32251 0.68773 0.48215 0.0
C170 C 0.12466 0.69695 0.41796 0.0
C171 C 0.18649 0.7244 0.34486 0.0
C172 C 0.08244 0.81805 0.35681 0.0
C173 C 0.05362 0.79624 0.33148 0.0
C174 C 0.08454 0.81552 0.3082 0.0
C175 C -0.00523 0.75571 0.33028 0.0
C176 C -0.00146 0.75434 0.28323 0.0
C177 C 0.96762 0.73488 0.3065 0.0
C178 C 0.05742 0.7949 0.28448 0.0
C179 C 0.27352 0.87515 0.37905 0.0
O180 O 0.24361 0.8235 0.43232 0.0
O181 O 0.15862 0.8236 0.4245 0.0
O182 O 0.26457 0.69678 0.40796 0.0
O183 O 0.32442 0.78941 0.41069 0.0
O184 O 0.16835 0.70675 0.43209 0.0
O185 O 0.14201 0.71979 0.39611 0.0
O186 O 0.15824 0.75254 0.3487 0.0
O187 O 0.22067 0.72173 0.36243 0.0
O188 O 0.1374 0.85528 0.35616 0.0
O189 O 0.06875 0.78051 0.37557 0.0
O190 O 0.23888 0.89385 0.38583 0.0
O191 O 0.24542 0.82263 0.3744 0.0
H192 H 0.25727 0.65981 0.45343 0.0
H193 H 0.42448 0.79905 0.43184 0.0
H194 H 0.46027 0.79704 0.47489 0.0
H195 H 0.29325 0.65743 0.49623 0.0
H196 H 0.12999 0.84645 0.30821 0.0
H197 H 0.96962 0.74012 0.34778 0.0
H198 H 0.92213 0.70412 0.30634 0.0
H199 H 0.08295 0.81026 0.26708 0.0
Gd200 Gd 0.46892 0.25047 0.73209 0.0
Gd201 Gd 0.34742 0.16428 0.7166 0.0
C202 C 0.3611 0.21056 0.77354 0.0
C203 C 0.55696 0.34274 0.74849 0.0
C204 C 0.57957 0.36557 0.77429 0.0
C205 C 0.61439 0.34817 0.78733 0.0
C206 C 0.5645 0.40308 0.78661 0.0
C207 C 0.61458 0.40131 0.82521 0.0
C208 C 0.58175 0.42069 0.81186 0.0
C209 C 0.63154 0.36571 0.81254 0.0
C210 C 0.44433 0.14211 0.73992 0.0
C211 C 0.45401 0.19582 0.67732 0.0
C212 C 0.25945 0.08218 0.69359 0.0
C213 C 0.25177 0.05837 0.6672 0.0
C214 C 0.284 0.09337 0.64645 0.0
C215 C 0.21326 -2e-05 0.66264 0.0
C216 C 0.23954 0.01177 0.61699 0.0
C217 C 0.20711 0.97693 0.63785 0.0
C218 C 0.278 0.07042 0.6217 0.0
C219 C 0.38446 0.27713 0.7073 0.0
O220 O 0.41469 0.24788 0.7666 0.0
O221 O 0.32624 0.16836 0.7581 0.0
O222 O 0.55921 0.29687 0.74136 0.0
O223 O 0.50856 0.34051 0.74225 0.0
O224 O 0.49537 0.18406 0.73492 0.0
O225 O 0.40901 0.15997 0.74373 0.0
O226 O 0.40347 0.156 0.68607 0.0
O227 O 0.4851 0.24374 0.6903 0.0
O228 O 0.26821 0.13474 0.69541 0.0
O229 O 0.29297 0.07295 0.70877 0.0
O230 O 0.3346 0.24305 0.71743 0.0
O231 O 0.41045 0.24999 0.7034 0.0
H232 H 0.62755 0.32004 0.77827 0.0
H233 H 0.53823 0.41777 0.77697 0.0
H234 H 0.56796 0.44806 0.82118 0.0
H235 H 0.65785 0.35111 0.82219 0.0
H236 H 0.31427 0.13857 0.6494 0.0
H237 H 0.18822 0.972 0.67833 0.0
H238 H 0.17768 0.93148 0.63515 0.0
H239 H 0.3033 0.09889 0.60621 0.0
H240 H 0.12072 0.72288 0.3047 0.0
H241 H 0.2412 0.66728 0.32703 0.0
H242 H 0.11911 0.68928 0.26139 0.0
H243 H 0.23797 0.63159 0.28352 0.0
H244 H 0.27704 0.65272 0.19635 0.0
H245 H 0.27243 0.67367 0.24158 0.0
H246 H 0.08943 0.60627 0.23494 0.0
H247 H 0.09449 0.58642 0.18949 0.0
C248 C 0.14637 0.70277 0.30049 0.0
C249 C 0.18165 0.69836 0.3193 0.0
C250 C 0.145 0.68298 0.27562 0.0
C251 C 0.17856 0.65792 0.26895 0.0
C252 C 0.2123 0.65155 0.28798 0.0
C253 C 0.21388 0.67165 0.31293 0.0
C254 C 0.2358 0.642 0.20466 0.0
C255 C 0.18618 0.61835 0.18944 0.0
C256 C 0.23307 0.65366 0.23059 0.0
C257 C 0.18056 0.64159 0.24188 0.0
C258 C 0.1307 0.61687 0.22672 0.0
C259 C 0.13354 0.60558 0.20072 0.0
H260 H 0.5505 0.27142 0.65068 0.0
H261 H 0.39841 0.10431 0.64501 0.0
H262 H 0.57469 0.26369 0.60622 0.0
H263 H 0.42098 0.09785 0.60034 0.0
H264 H 0.50118 0.08436 0.52507 0.0
H265 H 0.48271 0.08701 0.57094 0.0
H266 H 0.54104 0.26915 0.56474 0.0
H267 H 0.56077 0.26647 0.51922 0.0
C268 C 0.52229 0.233 0.63999 0.0
C269 C 0.47209 0.18891 0.65129 0.0
C270 C 0.53583 0.22878 0.6144 0.0
C271 C 0.49924 0.18057 0.5995 0.0
C272 C 0.45027 0.13549 0.61118 0.0
C273 C 0.43705 0.13947 0.63681 0.0
C274 C 0.50961 0.12476 0.53357 0.0
C275 C 0.53253 0.17524 0.51866 0.0
C276 C 0.4991 0.12638 0.55984 0.0
C277 C 0.51087 0.17844 0.57165 0.0
C278 C 0.53285 0.22861 0.5565 0.0
C279 C 0.54378 0.22706 0.53036 0.0
H280 H 0.2806 0.41016 0.979 0.0
H281 H 0.26391 0.56284 0.98341 0.0
H282 H 0.31007 0.43155 0.93437 0.0
H283 H 0.29642 0.58598 0.93891 0.0
H284 H 0.2829 0.56859 0.85158 0.0
H285 H 0.2592 0.55072 0.89714 0.0
H286 H 0.38434 0.4943 0.90579 0.0
H287 H 0.40679 0.5109 0.85995 0.0
C288 C 0.2839 0.44876 0.97054 0.0
C289 C 0.26907 0.48438 0.98467 0.0
C290 C 0.30139 0.46132 0.94494 0.0
C291 C 0.30525 0.51028 0.93294 0.0
C292 C 0.29273 0.54724 0.94741 0.0
C293 C 0.27459 0.5343 0.97299 0.0
C294 C 0.30531 0.55243 0.86328 0.0
C295 C 0.34654 0.54097 0.8523 0.0
C296 C 0.29208 0.54256 0.88941 0.0
C297 C 0.32016 0.52148 0.9052 0.0
C298 C 0.36138 0.50989 0.89414 0.0
C299 C 0.37425 0.51931 0.86791 0.0
H300 H 0.66498 0.23851 0.3117 0.0
H301 H 0.84704 0.29742 0.31287 0.0
H302 H 0.6732 0.26898 0.26683 0.0
H303 H 0.85467 0.32522 0.26806 0.0
H304 H 0.86001 0.41853 0.19431 0.0
H305 H 0.85101 0.3939 0.23988 0.0
H306 H 0.68946 0.23997 0.22517 0.0
H307 H 0.69811 0.26543 0.17966 0.0
C308 C 0.70667 0.258 0.30243 0.0
C309 C 0.75523 0.26526 0.31581 0.0
C310 C 0.71132 0.27498 0.27668 0.0
C311 C 0.76455 0.29927 0.26382 0.0
C312 C 0.81318 0.30742 0.27743 0.0
C313 C 0.80864 0.29097 0.30314 0.0
C314 C 0.82291 0.37918 0.20083 0.0
C315 C 0.77988 0.34373 0.18349 0.0
C316 C 0.81765 0.36508 0.22692 0.0
C317 C 0.76944 0.31499 0.23618 0.0
C318 C 0.72659 0.27938 0.21875 0.0
C319 C 0.73169 0.29372 0.19269 0.0
H320 H 0.40328 0.66103 0.65032 0.0
H321 H 0.5575 0.82248 0.63532 0.0
H322 H 0.37407 0.65786 0.60576 0.0
H323 H 0.52959 0.81847 0.5906 0.0
H324 H 0.43474 0.82219 0.5188 0.0
H325 H 0.46313 0.82671 0.56356 0.0
H326 H 0.39757 0.64275 0.56354 0.0
H327 H 0.36748 0.63834 0.51896 0.0
C328 C 0.43103 0.69572 0.63745 0.0
C329 C 0.48253 0.7421 0.64629 0.0
C330 C 0.41454 0.69373 0.61187 0.0
C331 C 0.4496 0.73775 0.59453 0.0
C332 C 0.50107 0.78427 0.60349 0.0
C333 C 0.51719 0.78655 0.62913 0.0
C334 C 0.42692 0.78288 0.52837 0.0
C335 C 0.39913 0.72994 0.5155 0.0
C336 C 0.44323 0.78542 0.55399 0.0
C337 C 0.43261 0.73508 0.5672 0.0
C338 C 0.40543 0.68219 0.55412 0.0
C339 C 0.38851 0.67961 0.52857 0.0
H340 H 0.66998 0.54334 0.9796 0.0
H341 H 0.75075 0.43757 0.97903 0.0
H342 H 0.63894 0.51566 0.93545 0.0
H343 H 0.72038 0.41057 0.93471 0.0
H344 H 0.60885 0.33059 0.8643 0.0
H345 H 0.63489 0.35557 0.90917 0.0
H346 H 0.68075 0.53184 0.89263 0.0
H347 H 0.65422 0.50661 0.84771 0.0
C348 C 0.6811 0.51414 0.97007 0.0
C349 C 0.71298 0.49274 0.98278 0.0
C350 C 0.66354 0.49854 0.94471 0.0
C351 C 0.67737 0.4611 0.93156 0.0
C352 C 0.70846 0.43897 0.94443 0.0
C353 C 0.72603 0.45459 0.9698 0.0
C354 C 0.6249 0.37476 0.87023 0.0
C355 C 0.62991 0.41677 0.85249 0.0
C356 C 0.63979 0.38905 0.89591 0.0
C357 C 0.66011 0.4457 0.90441 0.0
C358 C 0.66455 0.48763 0.88672 0.0
C359 C 0.64949 0.47327 0.86101 0.0
H360 H 0.31918 0.38146 0.05868 0.0
H361 H 0.37553 0.53305 0.10524 0.0
H362 H 0.41294 0.38849 0.06323 0.0
H363 H 0.46863 0.53913 0.111 0.0
H364 H 0.64689 0.58267 0.07884 0.0
H365 H 0.55002 0.56807 0.08455 0.0
H366 H 0.48305 0.38402 0.08847 0.0
H367 H 0.57891 0.39878 0.0813 0.0
C368 C 0.35092 0.41472 0.07081 0.0
C369 C 0.34047 0.4565 0.08168 0.0
C370 C 0.40483 0.41908 0.07342 0.0
C371 C 0.44883 0.46499 0.08723 0.0
C372 C 0.43639 0.50415 0.09971 0.0
C373 C 0.38291 0.50027 0.09671 0.0
C374 C 0.61137 0.53933 0.08113 0.0
C375 C 0.62008 0.49194 0.07917 0.0
C376 C 0.55587 0.53076 0.08462 0.0
C377 C 0.50842 0.47464 0.0867 0.0
C378 C 0.51817 0.42764 0.08629 0.0
C379 C 0.57324 0.43618 0.08233 0.0
H380 H 0.03244 0.65561 0.38635 0.0
H381 H 0.09413 0.61598 0.4559 0.0
H382 H 0.95031 0.55863 0.38626 0.0
H383 H 0.01148 0.51865 0.45586 0.0
H384 H 0.89947 0.33161 0.42057 0.0
H385 H -0.02157 0.4304 0.42746 0.0
H386 H 0.86344 0.49624 0.41109 0.0
H387 H 0.78618 0.39941 0.40384 0.0
C388 C 0.02768 0.62657 0.40194 0.0
C389 C 0.06966 0.64323 0.42106 0.0
C390 C -0.01923 0.57098 0.40188 0.0
C391 C 0.97491 0.53093 0.42094 0.0
C392 C 0.01549 0.54841 0.44075 0.0
C393 C 0.06232 0.60427 0.44091 0.0
C394 C 0.89135 0.36735 0.41871 0.0
C395 C 0.83703 0.35795 0.41142 0.0
C396 C 0.93621 0.42368 0.42276 0.0
C397 C 0.92702 0.47094 0.41953 0.0
C398 C 0.87205 0.46085 0.41326 0.0
C399 C 0.82775 0.40518 0.40918 0.0
H400 H 0.50183 0.11769 0.77555 0.0
H401 H 0.37046 0.04048 0.71785 0.0
H402 H 0.50623 0.02884 0.77908 0.0
H403 H 0.37601 0.95224 0.72035 0.0
H404 H 0.37971 0.79038 0.73597 0.0
H405 H 0.36252 0.87029 0.74323 0.0
H406 H 0.54491 0.984 0.75264 0.0
H407 H 0.56156 0.90265 0.7467 0.0
C408 C 0.47273 0.08085 0.76417 0.0
C409 C 0.43512 0.08508 0.74674 0.0
C410 C 0.47583 0.03036 0.76586 0.0
C411 C 0.44223 0.98365 0.74971 0.0
C412 C 0.40206 -0.013 0.73334 0.0
C413 C 0.39844 0.03736 0.73196 0.0
C414 C 0.41615 0.83239 0.73984 0.0
C415 C 0.47214 0.84063 0.74051 0.0
C416 C 0.40625 0.87827 0.74388 0.0
C417 C 0.45224 0.93375 0.74829 0.0
C418 C 0.50829 0.94168 0.74964 0.0
C419 C 0.51808 0.89534 0.74598 0.0
H420 H 0.56686 0.63661 0.66886 0.0
H421 H 0.59771 0.63699 0.75022 0.0
H422 H 0.51607 0.53193 0.66878 0.0
H423 H 0.5455 0.53087 0.75036 0.0
H424 H 0.37195 0.3517 0.73972 0.0
H425 H 0.43578 0.45679 0.74171 0.0
H426 H 0.53192 0.44781 0.67682 0.0
H427 H 0.46883 0.34413 0.67484 0.0
C428 C 0.56467 0.61398 0.68654 0.0
C429 C 0.58698 0.64441 0.70942 0.0
C430 C 0.53509 0.55414 0.68657 0.0
C431 C 0.52631 0.52342 0.70962 0.0
C432 C 0.55138 0.55376 0.73239 0.0
C433 C 0.58219 0.61417 0.73224 0.0
C434 C 0.40605 0.37268 0.72565 0.0
C435 C 0.41508 0.34034 0.70685 0.0
C436 C 0.44314 0.43233 0.72708 0.0
C437 C 0.489 0.46013 0.70953 0.0
C438 C 0.49696 0.42754 0.69055 0.0
C439 C 0.46058 0.36836 0.68929 0.0
H440 H 0.10487 0.47203 1.00696 0.0
H441 H 0.00968 0.38193 0.07488 0.0
H442 H 0.0601 0.53224 1.00777 0.0
H443 H 0.96463 0.4432 0.07583 0.0
H444 H 0.90298 0.56251 1.00144 0.0
H445 H 0.956 0.51017 1.00186 0.0
H446 H 0.00083 0.55678 0.08133 0.0
H447 H 0.94803 0.6107 0.08066 0.0
C448 C 0.07351 0.46459 1.02184 0.0
C449 C 0.05983 0.42181 0.04059 0.0
C450 C 0.04834 0.49934 1.02242 0.0
C451 C 0.00942 0.49268 0.04199 0.0
C452 C -0.00492 0.44948 0.06072 0.0
C453 C 0.01986 0.41384 0.05991 0.0
C454 C 0.92602 0.5634 1.0187 0.0
C455 C 0.92267 0.59147 0.04082 0.0
C456 C 0.95578 0.53298 1.01903 0.0
C457 C -0.01812 0.52898 0.0417 0.0
C458 C -0.01943 0.55896 0.06369 0.0
C459 C 0.95154 0.59066 0.06317 0.0
H460 H 0.34643 -0.01483 0.39616 0.0
H461 H 0.34336 0.83617 0.36221 0.0
H462 H 0.45223 0.03449 0.39637 0.0
H463 H 0.44783 0.88423 0.36368 0.0
H464 H 0.64072 0.00534 0.40678 0.0
H465 H 0.53494 0.94841 0.40988 0.0
H466 H 0.5204 0.04325 0.34587 0.0
H467 H 0.62452 0.09808 0.34211 0.0
C468 C 0.3682 0.96289 0.38905 0.0
C469 C 0.3368 0.9068 0.37938 0.0
C470 C 0.42833 -0.00932 0.38944 0.0
C471 C 0.4574 0.9622 0.38064 0.0
C472 C 0.42606 0.90628 0.3711 0.0
C473 C 0.36641 0.87915 0.37015 0.0
C474 C 0.61472 0.01253 0.39296 0.0
C475 C 0.64051 0.05584 0.37419 0.0
C476 C 0.55461 0.98083 0.39497 0.0
C477 C 0.52035 -0.00707 0.37846 0.0
C478 C 0.54624 0.03419 0.35905 0.0
C479 C 0.60566 0.06497 0.3568 0.0
H480 H 0.42361 0.28547 0.81197 0.0
H481 H 0.2525 0.14925 0.79448 0.0
H482 H 0.39124 0.29578 0.85443 0.0
H483 H 0.22021 0.15936 0.83721 0.0
H484 H 0.1707 0.23578 0.90599 0.0
H485 H 0.20231 0.2255 0.86318 0.0
H486 H 0.3594 0.24566 0.89552 0.0
H487 H 0.32839 0.25725 0.9382 0.0
C488 C 0.37903 0.25751 0.81714 0.0
C489 C 0.34077 0.21636 0.79963 0.0
C490 C 0.36051 0.26327 0.84166 0.0
C491 C 0.30304 0.22835 0.84945 0.0
C492 C 0.26465 0.18742 0.83188 0.0
C493 C 0.28328 0.18137 0.80737 0.0
C494 C 0.21219 0.23845 0.90398 0.0
C495 C 0.24689 0.2474 0.92571 0.0
C496 C 0.23009 0.23193 0.8794 0.0
C497 C 0.28349 0.23465 0.87574 0.0
C498 C 0.31826 0.2438 0.89746 0.0
C499 C 0.30017 0.24987 0.92205 0.0
H500 H 0.06545 0.35909 0.27238 0.0
H501 H 0.93553 0.19403 0.24406 0.0
H502 H 0.10676 0.38539 0.22934 0.0
H503 H 0.97595 0.22105 0.20077 0.0
H504 H 0.09922 0.26842 0.1309 0.0
H505 H 0.05895 0.2395 0.17426 0.0
H506 H 0.08632 0.41068 0.18769 0.0
H507 H 0.12688 0.43961 0.14481 0.0
C508 C 0.04571 0.32821 0.25703 0.0
C509 C -0.00301 0.27431 0.26191 0.0
C510 C 0.06912 0.3436 0.23217 0.0
C511 C 0.04478 0.30551 0.21136 0.0
C512 C -0.00369 0.2514 0.21625 0.0
C513 C 0.97266 0.23613 0.24111 0.0
C514 C 0.09674 0.2999 0.14312 0.0
C515 C 0.11657 0.35643 0.13418 0.0
C516 C 0.07328 0.28322 0.16799 0.0
C517 C 0.06937 0.3227 0.18469 0.0
C518 C 0.08927 0.37917 0.17568 0.0
C519 C 0.11233 0.3957 0.15087 0.0
H520 H 0.80039 0.07183 0.6004 0.0
H521 H 0.62688 0.94531 0.58033 0.0
H522 H 0.81451 0.1143 0.55754 0.0
H523 H 0.64088 -0.01185 0.53769 0.0
H524 H 0.66239 0.11588 0.47454 0.0
H525 H 0.6519 0.074 0.51704 0.0
H526 H 0.82344 0.0986 0.51173 0.0
H527 H 0.83441 0.14158 0.46894 0.0
C528 C 0.76533 0.05261 0.58685 0.0
C529 C 0.71229 0.00507 0.59413 0.0
C530 C 0.77349 0.07712 0.56217 0.0
C531 C 0.72882 0.05505 0.54403 0.0
C532 C 0.67603 0.00718 0.55122 0.0
C533 C 0.66793 0.98257 0.57581 0.0
C534 C 0.69813 0.11255 0.48229 0.0
C535 C 0.74933 0.13217 0.46806 0.0
C536 C 0.69186 0.08801 0.50675 0.0
C537 C 0.73655 0.08226 0.51793 0.0
C538 C 0.78816 0.10259 0.50389 0.0
C539 C 0.79442 0.12708 0.47926 0.0
H540 H 0.5347 0.67214 0.8091 0.0
H541 H 0.68652 0.83827 0.7992 0.0
H542 H 0.5662 0.66399 0.8518 0.0
H543 H 0.71875 0.82951 0.84221 0.0
H544 H 0.72905 0.81623 0.93081 0.0
H545 H 0.69882 0.82804 0.88802 0.0
H546 H 0.63682 0.64811 0.87263 0.0
H547 H 0.66498 0.63583 0.91562 0.0
C548 C 0.57502 0.70708 0.81596 0.0
C549 C 0.60811 0.75591 0.80046 0.0
C550 C 0.59333 0.70212 0.84054 0.0
C551 C 0.64542 0.74574 0.85055 0.0
C552 C 0.6782 0.79514 0.83528 0.0
C553 C 0.65982 0.80013 0.81054 0.0
C554 C 0.70848 0.77901 0.91841 0.0
C555 C 0.69936 0.72497 0.92691 0.0
C556 C 0.69175 0.78599 0.89368 0.0
C557 C 0.66511 0.73908 0.87672 0.0
C558 C 0.65644 0.68518 0.88516 0.0
C559 C 0.67329 0.67824 0.90983 0.0
H560 H 0.01409 0.81544 0.23845 0.0
H561 H 0.91778 0.64386 0.27005 0.0
H562 H 0.96977 0.77975 0.19664 0.0
H563 H 0.87221 0.60842 0.22839 0.0
H564 H 0.85414 0.55461 0.14339 0.0
H565 H 0.89537 0.59024 0.18557 0.0
H566 H 0.87944 0.74171 0.17349 0.0
H567 H 0.83867 0.70633 0.13096 0.0
C568 C -0.01655 0.77006 0.23652 0.0
C569 C 0.96982 0.7326 0.25775 0.0
C570 C 0.95746 0.74966 0.21254 0.0
C571 C 0.91725 0.69108 0.20897 0.0
C572 C 0.90335 0.65367 0.23024 0.0
C573 C 0.9291 0.67415 0.25428 0.0
C574 C 0.85919 0.5955 0.14966 0.0
C575 C 0.84296 0.62754 0.13359 0.0
C576 C 0.88262 0.61581 0.17403 0.0
C577 C 0.89086 0.66895 0.18311 0.0
C578 C 0.8744 0.70093 0.1671 0.0
C579 C 0.85063 0.68043 0.14272 0.0
H580 H 0.14168 0.93045 0.59271 0.0
H581 H 0.32433 0.03693 0.58102 0.0
H582 H 0.13291 0.88893 0.5501 0.0
H583 H 0.31525 -0.00282 0.53811 0.0
H584 H 0.28918 0.86764 0.47486 0.0
H585 H 0.29727 0.91021 0.51701 0.0
H586 H 0.13755 0.90942 0.5046 0.0
H587 H 0.12884 0.86563 0.46245 0.0
C588 C 0.18005 0.94507 0.58111 0.0
C589 C 0.2338 -0.01293 0.59054 0.0
C590 C 0.17489 0.92171 0.55646 0.0
C591 C 0.22333 0.93949 0.54048 0.0
C592 C 0.277 0.98175 0.54986 0.0
C593 C 0.28213 0.00516 0.57447 0.0
C594 C 0.2557 0.87656 0.48101 0.0
C595 C 0.20828 0.86301 0.46509 0.0
C596 C 0.26057 0.90142 0.50524 0.0
C597 C 0.21816 0.91353 0.51438 0.0
C598 C 0.17077 0.90014 0.49843 0.0
C599 C 0.16593 0.87531 0.47412 0.0
loop_
_geom_bond_atom_site_label_1
_geom_bond_atom_site_label_2
_geom_bond_distance
_geom_bond_site_symmetry_2
_ccdc_geom_bond_type
Gd0 C3 2.818 . S
Gd0 O20 2.377 . S
Gd0 O22 2.448 . S
Gd0 O23 2.506 . S
Gd0 O24 2.435 . S
Gd0 O25 2.717 . S
Gd0 O27 2.395 . S
Gd0 O31 2.327 . S
Gd1 C12 2.818 1_554 S
Gd1 O21 2.395 . S
Gd1 O25 2.327 . S
Gd1 O26 2.377 1_554 S
Gd1 O28 2.448 1_554 S
Gd1 O29 2.506 1_554 S
Gd1 O30 2.435 . S
Gd1 O31 2.717 . S
C2 O20 1.240 . S
C2 O21 1.240 . S
C3 Gd0 2.818 . S
C3 C4 1.510 . S
C3 O22 1.249 . S
C3 O23 1.252 . S
C4 C3 1.510 . S
C4 C5 1.404 . S
C4 C6 1.352 . S
C5 C4 1.404 . S
C5 C9 1.389 . S
C5 H32 0.930 . S
C6 C4 1.352 . S
C6 C8 1.374 . S
C6 H33 0.931 . S
C7 C8 1.359 . S
C7 C9 1.364 . S
C8 C6 1.374 . S
C8 C7 1.359 . S
C8 H34 0.931 . S
C9 C5 1.389 . S
C9 C7 1.364 . S
C9 H35 0.931 . S
C10 O24 1.256 . S
C10 O25 1.257 . S
C11 O26 1.240 . S
C11 O27 1.240 1_556 S
C12 Gd1 2.818 1_556 S
C12 C13 1.510 . S
C12 O28 1.249 . S
C12 O29 1.252 . S
C13 C12 1.510 . S
C13 C14 1.404 . S
C13 C15 1.352 . S
C14 C13 1.404 . S
C14 C18 1.389 . S
C14 H36 0.930 . S
C15 C13 1.352 . S
C15 C17 1.374 . S
C15 H37 0.931 . S
C16 C17 1.359 . S
C16 C18 1.364 . S
C17 C15 1.374 . S
C17 C16 1.359 . S
C17 H38 0.931 . S
C18 C14 1.389 . S
C18 C16 1.364 . S
C18 H39 0.931 . S
C19 O30 1.256 . S
C19 O31 1.257 . S
O20 Gd0 2.377 . S
O20 C2 1.240 . S
O21 Gd1 2.395 . S
O21 C2 1.240 . S
O22 Gd0 2.448 . S
O22 C3 1.249 . S
O23 Gd0 2.506 . S
O23 C3 1.252 . S
O24 Gd0 2.435 . S
O24 C10 1.256 . S
O25 Gd0 2.717 . S
O25 Gd1 2.327 . S
O25 C10 1.257 . S
O26 Gd1 2.377 1_556 S
O26 C11 1.240 . S
O27 Gd0 2.395 . S
O27 C11 1.240 1_554 S
O28 Gd1 2.448 1_556 S
O28 C12 1.249 . S
O29 Gd1 2.506 1_556 S
O29 C12 1.252 . S
O30 Gd1 2.435 . S
O30 C19 1.256 . S
O31 Gd0 2.327 . S
O31 Gd1 2.717 . S
O31 C19 1.257 . S
H32 C5 0.930 . S
H33 C6 0.931 . S
H34 C8 0.931 . S
H35 C9 0.931 . S
H36 C14 0.930 . S
H37 C15 0.931 . S
H38 C17 0.931 . S
H39 C18 0.931 . S
Gd40 C43 2.818 . S
Gd40 O60 2.377 . S
Gd40 O62 2.448 . S
Gd40 O63 2.506 . S
Gd40 O64 2.435 . S
Gd40 O65 2.717 . S
Gd40 O67 2.395 . S
Gd40 O71 2.327 . S
Gd41 C52 2.818 . S
Gd41 O61 2.395 . S
Gd41 O65 2.327 . S
Gd41 O66 2.377 . S
Gd41 O68 2.448 . S
Gd41 O69 2.506 . S
Gd41 O70 2.435 . S
Gd41 O71 2.717 . S
C42 O60 1.240 . S
C42 O61 1.240 . S
C43 Gd40 2.818 . S
C43 C44 1.510 . S
C43 O62 1.249 . S
C43 O63 1.252 . S
C44 C43 1.510 . S
C44 C45 1.404 . S
C44 C46 1.352 . S
C45 C44 1.404 . S
C45 C49 1.389 . S
C45 H72 0.930 . S
C46 C44 1.352 . S
C46 C48 1.374 . S
C46 H73 0.931 . S
C47 C48 1.359 . S
C47 C49 1.364 . S
C48 C46 1.374 . S
C48 C47 1.359 . S
C48 H74 0.931 . S
C49 C45 1.389 . S
C49 C47 1.364 . S
C49 H75 0.931 . S
C50 O64 1.256 . S
C50 O65 1.257 . S
C51 O66 1.240 . S
C51 O67 1.240 . S
C52 Gd41 2.818 . S
C52 C53 1.510 . S
C52 O68 1.249 . S
C52 O69 1.252 . S
C53 C52 1.510 . S
C53 C54 1.404 . S
C53 C55 1.352 . S
C54 C53 1.404 . S
C54 C58 1.389 . S
C54 H76 0.930 . S
C55 C53 1.352 . S
C55 C57 1.374 . S
C55 H77 0.931 . S
C56 C57 1.359 . S
C56 C58 1.364 . S
C57 C55 1.374 . S
C57 C56 1.359 . S
C57 H78 0.931 1_655 S
C58 C54 1.389 . S
C58 C56 1.364 . S
C58 H79 0.931 . S
C59 O70 1.256 . S
C59 O71 1.257 . S
O60 Gd40 2.377 . S
O60 C42 1.240 . S
O61 Gd41 2.395 . S
O61 C42 1.240 . S
O62 Gd40 2.448 . S
O62 C43 1.249 . S
O63 Gd40 2.506 . S
O63 C43 1.252 . S
O64 Gd40 2.435 . S
O64 C50 1.256 . S
O65 Gd40 2.717 . S
O65 Gd41 2.327 . S
O65 C50 1.257 . S
O66 Gd41 2.377 . S
O66 C51 1.240 . S
O67 Gd40 2.395 . S
O67 C51 1.240 . S
O68 Gd41 2.448 . S
O68 C52 1.249 . S
O69 Gd41 2.506 . S
O69 C52 1.252 . S
O70 Gd41 2.435 . S
O70 C59 1.256 . S
O71 Gd40 2.327 . S
O71 Gd41 2.717 . S
O71 C59 1.257 . S
H72 C45 0.930 . S
H73 C46 0.931 . S
H74 C48 0.931 . S
H75 C49 0.931 . S
H76 C54 0.930 . S
H77 C55 0.931 . S
H78 C57 0.931 1_455 S
H79 C58 0.931 . S
Gd80 C83 2.818 . S
Gd80 O100 2.377 . S
Gd80 O102 2.448 . S
Gd80 O103 2.506 . S
Gd80 O104 2.435 . S
Gd80 O105 2.717 . S
Gd80 O107 2.395 . S
Gd80 O111 2.327 . S
Gd81 C92 2.818 . S
Gd81 O101 2.395 . S
Gd81 O105 2.327 . S
Gd81 O106 2.377 . S
Gd81 O108 2.448 . S
Gd81 O109 2.506 . S
Gd81 O110 2.435 . S
Gd81 O111 2.717 . S
C82 O100 1.240 . S
C82 O101 1.240 . S
C83 Gd80 2.818 . S
C83 C84 1.510 . S
C83 O102 1.249 . S
C83 O103 1.252 . S
C84 C83 1.510 . S
C84 C85 1.404 . S
C84 C86 1.352 . S
C85 C84 1.404 . S
C85 C89 1.389 . S
C85 H112 0.930 . S
C86 C84 1.352 . S
C86 C88 1.374 . S
C86 H113 0.931 . S
C87 C88 1.359 . S
C87 C89 1.364 . S
C88 C86 1.374 . S
C88 C87 1.359 . S
C88 H114 0.931 . S
C89 C85 1.389 . S
C89 C87 1.364 . S
C89 H115 0.931 . S
C90 O104 1.256 . S
C90 O105 1.257 . S
C91 O106 1.240 . S
C91 O107 1.240 . S
C92 Gd81 2.818 . S
C92 C93 1.510 . S
C92 O108 1.249 . S
C92 O109 1.252 . S
C93 C92 1.510 . S
C93 C94 1.404 . S
C93 C95 1.352 . S
C94 C93 1.404 . S
C94 C98 1.389 . S
C94 H116 0.930 . S
C95 C93 1.352 . S
C95 C97 1.374 . S
C95 H117 0.931 . S
C96 C97 1.359 . S
C96 C98 1.364 . S
C97 C95 1.374 . S
C97 C96 1.359 . S
C97 H118 0.931 1_565 S
C98 C94 1.389 . S
C98 C96 1.364 . S
C98 H119 0.931 . S
C99 O110 1.256 . S
C99 O111 1.257 . S
O100 Gd80 2.377 . S
O100 C82 1.240 . S
O101 Gd81 2.395 . S
O101 C82 1.240 . S
O102 Gd80 2.448 . S
O102 C83 1.249 . S
O103 Gd80 2.506 . S
O103 C83 1.252 . S
O104 Gd80 2.435 . S
O104 C90 1.256 . S
O105 Gd80 2.717 . S
O105 Gd81 2.327 . S
O105 C90 1.257 . S
O106 Gd81 2.377 . S
O106 C91 1.240 . S
O107 Gd80 2.395 . S
O107 C91 1.240 . S
O108 Gd81 2.448 . S
O108 C92 1.249 . S
O109 Gd81 2.506 . S
O109 C92 1.252 . S
O110 Gd81 2.435 . S
O110 C99 1.256 . S
O111 Gd80 2.327 . S
O111 Gd81 2.717 . S
O111 C99 1.257 . S
H112 C85 0.930 . S
H113 C86 0.931 . S
H114 C88 0.931 . S
H115 C89 0.931 . S
H116 C94 0.930 . S
H117 C95 0.931 . S
H118 C97 0.931 1_545 S
H119 C98 0.931 . S
Gd120 C123 2.818 . S
Gd120 O140 2.377 . S
Gd120 O142 2.448 . S
Gd120 O143 2.506 . S
Gd120 O144 2.435 . S
Gd120 O145 2.717 . S
Gd120 O147 2.395 . S
Gd120 O151 2.327 . S
Gd121 C132 2.818 1_554 S
Gd121 O141 2.395 . S
Gd121 O145 2.327 . S
Gd121 O146 2.377 1_554 S
Gd121 O148 2.448 1_554 S
Gd121 O149 2.506 1_554 S
Gd121 O150 2.435 . S
Gd121 O151 2.717 . S
C122 O140 1.240 . S
C122 O141 1.240 . S
C123 Gd120 2.818 . S
C123 C124 1.510 . S
C123 O142 1.249 . S
C123 O143 1.252 . S
C124 C123 1.510 . S
C124 C125 1.404 . S
C124 C126 1.352 . S
C125 C124 1.404 . S
C125 C129 1.389 . S
C125 H152 0.930 . S
C126 C124 1.352 . S
C126 C128 1.374 . S
C126 H153 0.931 . S
C127 C128 1.359 . S
C127 C129 1.364 . S
C128 C126 1.374 . S
C128 C127 1.359 . S
C128 H154 0.931 . S
C129 C125 1.389 . S
C129 C127 1.364 . S
C129 H155 0.931 . S
C130 O144 1.256 . S
C130 O145 1.257 . S
C131 O146 1.240 . S
C131 O147 1.240 1_556 S
C132 Gd121 2.818 1_556 S
C132 C133 1.510 . S
C132 O148 1.249 . S
C132 O149 1.252 . S
C133 C132 1.510 . S
C133 C134 1.404 . S
C133 C135 1.352 . S
C134 C133 1.404 . S
C134 C138 1.389 . S
C134 H156 0.930 . S
C135 C133 1.352 . S
C135 C137 1.374 . S
C135 H157 0.931 . S
C136 C137 1.359 . S
C136 C138 1.364 . S
C137 C135 1.374 . S
C137 C136 1.359 . S
C137 H158 0.931 . S
C138 C134 1.389 . S
C138 C136 1.364 . S
C138 H159 0.931 . S
C139 O150 1.256 . S
C139 O151 1.257 . S
O140 Gd120 2.377 . S
O140 C122 1.240 . S
O141 Gd121 2.395 . S
O141 C122 1.240 . S
O142 Gd120 2.448 . S
O142 C123 1.249 . S
O143 Gd120 2.506 . S
O143 C123 1.252 . S
O144 Gd120 2.435 . S
O144 C130 1.256 . S
O145 Gd120 2.717 . S
O145 Gd121 2.327 . S
O145 C130 1.257 . S
O146 Gd121 2.377 1_556 S
O146 C131 1.240 . S
O147 Gd120 2.395 . S
O147 C131 1.240 1_554 S
O148 Gd121 2.448 1_556 S
O148 C132 1.249 . S
O149 Gd121 2.506 1_556 S
O149 C132 1.252 . S
O150 Gd121 2.435 . S
O150 C139 1.256 . S
O151 Gd120 2.327 . S
O151 Gd121 2.717 . S
O151 C139 1.257 . S
H152 C125 0.930 . S
H153 C126 0.931 . S
H154 C128 0.931 . S
H155 C129 0.931 . S
H156 C134 0.930 . S
H157 C135 0.931 . S
H158 C137 0.931 . S
H159 C138 0.931 . S
Gd160 C163 2.818 . S
Gd160 O180 2.377 . S
Gd160 O182 2.448 . S
Gd160 O183 2.506 . S
Gd160 O184 2.435 . S
Gd160 O185 2.717 . S
Gd160 O187 2.395 . S
Gd160 O191 2.327 . S
Gd161 C172 2.818 . S
Gd161 O181 2.395 . S
Gd161 O185 2.327 . S
Gd161 O186 2.377 . S
Gd161 O188 2.448 . S
Gd161 O189 2.506 . S
Gd161 O190 2.435 . S
Gd161 O191 2.717 . S
C162 O180 1.240 . S
C162 O181 1.240 . S
C163 Gd160 2.818 . S
C163 C164 1.510 . S
C163 O182 1.249 . S
C163 O183 1.252 . S
C164 C163 1.510 . S
C164 C165 1.404 . S
C164 C166 1.352 . S
C165 C164 1.404 . S
C165 C169 1.389 . S
C165 H192 0.930 . S
C166 C164 1.352 . S
C166 C168 1.374 . S
C166 H193 0.931 . S
C167 C168 1.359 . S
C167 C169 1.364 . S
C168 C166 1.374 . S
C168 C167 1.359 . S
C168 H194 0.931 . S
C169 C165 1.389 . S
C169 C167 1.364 . S
C169 H195 0.931 . S
C170 O184 1.256 . S
C170 O185 1.257 . S
C171 O186 1.240 . S
C171 O187 1.240 . S
C172 Gd161 2.818 . S
C172 C173 1.510 . S
C172 O188 1.249 . S
C172 O189 1.252 . S
C173 C172 1.510 . S
C173 C174 1.404 . S
C173 C175 1.352 . S
C174 C173 1.404 . S
C174 C178 1.389 . S
C174 H196 0.930 . S
C175 C173 1.352 . S
C175 C177 1.374 . S
C175 H197 0.931 . S
C176 C177 1.359 . S
C176 C178 1.364 . S
C177 C175 1.374 . S
C177 C176 1.359 . S
C177 H198 0.931 1_455 S
C178 C174 1.389 . S
C178 C176 1.364 . S
C178 H199 0.931 . S
C179 O190 1.256 . S
C179 O191 1.257 . S
O180 Gd160 2.377 . S
O180 C162 1.240 . S
O181 Gd161 2.395 . S
O181 C162 1.240 . S
O182 Gd160 2.448 . S
O182 C163 1.249 . S
O183 Gd160 2.506 . S
O183 C163 1.252 . S
O184 Gd160 2.435 . S
O184 C170 1.256 . S
O185 Gd160 2.717 . S
O185 Gd161 2.327 . S
O185 C170 1.257 . S
O186 Gd161 2.377 . S
O186 C171 1.240 . S
O187 Gd160 2.395 . S
O187 C171 1.240 . S
O188 Gd161 2.448 . S
O188 C172 1.249 . S
O189 Gd161 2.506 . S
O189 C172 1.252 . S
O190 Gd161 2.435 . S
O190 C179 1.256 . S
O191 Gd160 2.327 . S
O191 Gd161 2.717 . S
O191 C179 1.257 . S
H192 C165 0.930 . S
H193 C166 0.931 . S
H194 C168 0.931 . S
H195 C169 0.931 . S
H196 C174 0.930 . S
H197 C175 0.931 . S
H198 C177 0.931 1_655 S
H199 C178 0.931 . S
Gd200 C203 2.818 . S
Gd200 O220 2.377 . S
Gd200 O222 2.448 . S
Gd200 O223 2.506 . S
Gd200 O224 2.435 . S
Gd200 O225 2.717 . S
Gd200 O227 2.395 . S
Gd200 O231 2.327 . S
Gd201 C212 2.818 . S
Gd201 O221 2.395 . S
Gd201 O225 2.327 . S
Gd201 O226 2.377 . S
Gd201 O228 2.448 . S
Gd201 O229 2.506 . S
Gd201 O230 2.435 . S
Gd201 O231 2.717 . S
C202 O220 1.240 . S
C202 O221 1.240 . S
C203 Gd200 2.818 . S
C203 C204 1.510 . S
C203 O222 1.249 . S
C203 O223 1.252 . S
C204 C203 1.510 . S
C204 C205 1.404 . S
C204 C206 1.352 . S
C205 C204 1.404 . S
C205 C209 1.389 . S
C205 H232 0.930 . S
C206 C204 1.352 . S
C206 C208 1.374 . S
C206 H233 0.931 . S
C207 C208 1.359 . S
C207 C209 1.364 . S
C208 C206 1.374 . S
C208 C207 1.359 . S
C208 H234 0.931 . S
C209 C205 1.389 . S
C209 C207 1.364 . S
C209 H235 0.931 . S
C210 O224 1.256 . S
C210 O225 1.257 . S
C211 O226 1.240 . S
C211 O227 1.240 . S
C212 Gd201 2.818 . S
C212 C213 1.510 . S
C212 O228 1.249 . S
C212 O229 1.252 . S
C213 C212 1.510 . S
C213 C214 1.404 . S
C213 C215 1.352 . S
C214 C213 1.404 . S
C214 C218 1.389 . S
C214 H236 0.930 . S
C215 C213 1.352 . S
C215 C217 1.374 . S
C215 H237 0.931 . S
C216 C217 1.359 . S
C216 C218 1.364 . S
C217 C215 1.374 . S
C217 C216 1.359 . S
C217 H238 0.931 1_545 S
C218 C214 1.389 . S
C218 C216 1.364 . S
C218 H239 0.931 . S
C219 O230 1.256 . S
C219 O231 1.257 . S
O220 Gd200 2.377 . S
O220 C202 1.240 . S
O221 Gd201 2.395 . S
O221 C202 1.240 . S
O222 Gd200 2.448 . S
O222 C203 1.249 . S
O223 Gd200 2.506 . S
O223 C203 1.252 . S
O224 Gd200 2.435 . S
O224 C210 1.256 . S
O225 Gd200 2.717 . S
O225 Gd201 2.327 . S
O225 C210 1.257 . S
O226 Gd201 2.377 . S
O226 C211 1.240 . S
O227 Gd200 2.395 . S
O227 C211 1.240 . S
O228 Gd201 2.448 . S
O228 C212 1.249 . S
O229 Gd201 2.506 . S
O229 C212 1.252 . S
O230 Gd201 2.435 . S
O230 C219 1.256 . S
O231 Gd200 2.327 . S
O231 Gd201 2.717 . S
O231 C219 1.257 . S
H232 C205 0.930 . S
H233 C206 0.931 . S
H234 C208 0.931 . S
H235 C209 0.931 . S
H236 C214 0.930 . S
H237 C215 0.931 . S
H238 C217 0.931 1_565 S
H239 C218 0.931 . S
H240 C248 0.950 . S
H241 C253 0.950 . S
H242 C250 0.950 . S
H243 C252 0.950 . S
H244 C254 0.950 . S
H245 C256 0.950 . S
H246 C258 0.950 . S
H247 C259 0.950 . S
C248 H240 0.950 . S
C248 C249 1.386 . S
C248 C250 1.391 . S
C249 C248 1.386 . S
C249 C253 1.393 . S
C250 H242 0.950 . S
C250 C248 1.391 . S
C250 C251 1.400 . S
C251 C250 1.400 . S
C251 C252 1.398 . S
C251 C257 1.491 . S
C252 H243 0.950 . S
C252 C251 1.398 . S
C252 C253 1.391 . S
C253 H241 0.950 . S
C253 C249 1.393 . S
C253 C252 1.391 . S
C254 H244 0.950 . S
C254 C255 1.386 . S
C254 C256 1.391 . S
C255 C254 1.386 . S
C255 C259 1.393 . S
C256 H245 0.950 . S
C256 C254 1.391 . S
C256 C257 1.400 . S
C257 C251 1.491 . S
C257 C256 1.400 . S
C257 C258 1.398 . S
C258 H246 0.950 . S
C258 C257 1.398 . S
C258 C259 1.391 . S
C259 H247 0.950 . S
C259 C255 1.393 . S
C259 C258 1.391 . S
H260 C268 0.950 . S
H261 C273 0.950 . S
H262 C270 0.950 . S
H263 C272 0.950 . S
H264 C274 0.950 . S
H265 C276 0.950 . S
H266 C278 0.950 . S
H267 C279 0.950 . S
C268 H260 0.950 . S
C268 C269 1.386 . S
C268 C270 1.391 . S
C269 C268 1.386 . S
C269 C273 1.393 . S
C270 H262 0.950 . S
C270 C268 1.391 . S
C270 C271 1.400 . S
C271 C270 1.400 . S
C271 C272 1.398 . S
C271 C277 1.491 . S
C272 H263 0.950 . S
C272 C271 1.398 . S
C272 C273 1.391 . S
C273 H261 0.950 . S
C273 C269 1.393 . S
C273 C272 1.391 . S
C274 H264 0.950 . S
C274 C275 1.386 . S
C274 C276 1.391 . S
C275 C274 1.386 . S
C275 C279 1.393 . S
C276 H265 0.950 . S
C276 C274 1.391 . S
C276 C277 1.400 . S
C277 C271 1.491 . S
C277 C276 1.400 . S
C277 C278 1.398 . S
C278 H266 0.950 . S
C278 C277 1.398 . S
C278 C279 1.391 . S
C279 H267 0.950 . S
C279 C275 1.393 . S
C279 C278 1.391 . S
H280 C288 0.950 . S
H281 C293 0.950 . S
H282 C290 0.950 . S
H283 C292 0.950 . S
H284 C294 0.950 . S
H285 C296 0.950 . S
H286 C298 0.950 . S
H287 C299 0.950 . S
C288 H280 0.950 . S
C288 C289 1.386 . S
C288 C290 1.391 . S
C289 C288 1.386 . S
C289 C293 1.393 . S
C290 H282 0.950 . S
C290 C288 1.391 . S
C290 C291 1.400 . S
C291 C290 1.400 . S
C291 C292 1.398 . S
C291 C297 1.491 . S
C292 H283 0.950 . S
C292 C291 1.398 . S
C292 C293 1.391 . S
C293 H281 0.950 . S
C293 C289 1.393 . S
C293 C292 1.391 . S
C294 H284 0.950 . S
C294 C295 1.386 . S
C294 C296 1.391 . S
C295 C294 1.386 . S
C295 C299 1.393 . S
C296 H285 0.950 . S
C296 C294 1.391 . S
C296 C297 1.400 . S
C297 C291 1.491 . S
C297 C296 1.400 . S
C297 C298 1.398 . S
C298 H286 0.950 . S
C298 C297 1.398 . S
C298 C299 1.391 . S
C299 H287 0.950 . S
C299 C295 1.393 . S
C299 C298 1.391 . S
H300 C308 0.950 . S
H301 C313 0.950 . S
H302 C310 0.950 . S
H303 C312 0.950 . S
H304 C314 0.950 . S
H305 C316 0.950 . S
H306 C318 0.950 . S
H307 C319 0.950 . S
C308 H300 0.950 . S
C308 C309 1.386 . S
C308 C310 1.391 . S
C309 C308 1.386 . S
C309 C313 1.393 . S
C310 H302 0.950 . S
C310 C308 1.391 . S
C310 C311 1.400 . S
C311 C310 1.400 . S
C311 C312 1.398 . S
C311 C317 1.491 . S
C312 H303 0.950 . S
C312 C311 1.398 . S
C312 C313 1.391 . S
C313 H301 0.950 . S
C313 C309 1.393 . S
C313 C312 1.391 . S
C314 H304 0.950 . S
C314 C315 1.386 . S
C314 C316 1.391 . S
C315 C314 1.386 . S
C315 C319 1.393 . S
C316 H305 0.950 . S
C316 C314 1.391 . S
C316 C317 1.400 . S
C317 C311 1.491 . S
C317 C316 1.400 . S
C317 C318 1.398 . S
C318 H306 0.950 . S
C318 C317 1.398 . S
C318 C319 1.391 . S
C319 H307 0.950 . S
C319 C315 1.393 . S
C319 C318 1.391 . S
H320 C328 0.950 . S
H321 C333 0.950 . S
H322 C330 0.950 . S
H323 C332 0.950 . S
H324 C334 0.950 . S
H325 C336 0.950 . S
H326 C338 0.950 . S
H327 C339 0.950 . S
C328 H320 0.950 . S
C328 C329 1.386 . S
C328 C330 1.391 . S
C329 C328 1.386 . S
C329 C333 1.393 . S
C330 H322 0.950 . S
C330 C328 1.391 . S
C330 C331 1.400 . S
C331 C330 1.400 . S
C331 C332 1.398 . S
C331 C337 1.491 . S
C332 H323 0.950 . S
C332 C331 1.398 . S
C332 C333 1.391 . S
C333 H321 0.950 . S
C333 C329 1.393 . S
C333 C332 1.391 . S
C334 H324 0.950 . S
C334 C335 1.386 . S
C334 C336 1.391 . S
C335 C334 1.386 . S
C335 C339 1.393 . S
C336 H325 0.950 . S
C336 C334 1.391 . S
C336 C337 1.400 . S
C337 C331 1.491 . S
C337 C336 1.400 . S
C337 C338 1.398 . S
C338 H326 0.950 . S
C338 C337 1.398 . S
C338 C339 1.391 . S
C339 H327 0.950 . S
C339 C335 1.393 . S
C339 C338 1.391 . S
H340 C348 0.950 . S
H341 C353 0.950 . S
H342 C350 0.950 . S
H343 C352 0.950 . S
H344 C354 0.950 . S
H345 C356 0.950 . S
H346 C358 0.950 . S
H347 C359 0.950 . S
C348 H340 0.950 . S
C348 C349 1.386 . S
C348 C350 1.391 . S
C349 C348 1.386 . S
C349 C353 1.393 . S
C350 H342 0.950 . S
C350 C348 1.391 . S
C350 C351 1.400 . S
C351 C350 1.400 . S
C351 C352 1.398 . S
C351 C357 1.491 . S
C352 H343 0.950 . S
C352 C351 1.398 . S
C352 C353 1.391 . S
C353 H341 0.950 . S
C353 C349 1.393 . S
C353 C352 1.391 . S
C354 H344 0.950 . S
C354 C355 1.386 . S
C354 C356 1.391 . S
C355 C354 1.386 . S
C355 C359 1.393 . S
C356 H345 0.950 . S
C356 C354 1.391 . S
C356 C357 1.400 . S
C357 C351 1.491 . S
C357 C356 1.400 . S
C357 C358 1.398 . S
C358 H346 0.950 . S
C358 C357 1.398 . S
C358 C359 1.391 . S
C359 H347 0.950 . S
C359 C355 1.393 . S
C359 C358 1.391 . S
H360 C368 0.950 . S
H361 C373 0.950 . S
H362 C370 0.950 . S
H363 C372 0.950 . S
H364 C374 0.950 . S
H365 C376 0.950 . S
H366 C378 0.950 . S
H367 C379 0.950 . S
C368 H360 0.950 . S
C368 C369 1.386 . S
C368 C370 1.391 . S
C369 C368 1.386 . S
C369 C373 1.393 . S
C370 H362 0.950 . S
C370 C368 1.391 . S
C370 C371 1.400 . S
C371 C370 1.400 . S
C371 C372 1.398 . S
C371 C377 1.491 . S
C372 H363 0.950 . S
C372 C371 1.398 . S
C372 C373 1.391 . S
C373 H361 0.950 . S
C373 C369 1.393 . S
C373 C372 1.391 . S
C374 H364 0.950 . S
C374 C375 1.386 . S
C374 C376 1.391 . S
C375 C374 1.386 . S
C375 C379 1.393 . S
C376 H365 0.950 . S
C376 C374 1.391 . S
C376 C377 1.400 . S
C377 C371 1.491 . S
C377 C376 1.400 . S
C377 C378 1.398 . S
C378 H366 0.950 . S
C378 C377 1.398 . S
C378 C379 1.391 . S
C379 H367 0.950 . S
C379 C375 1.393 . S
C379 C378 1.391 . S
H380 C388 0.950 . S
H381 C393 0.950 . S
H382 C390 0.950 . S
H383 C392 0.961 . S
H384 C394 0.950 . S
H385 C396 0.950 . S
H386 C398 0.961 . S
H387 C399 0.950 . S
C388 H380 0.950 . S
C388 C389 1.386 . S
C388 C390 1.391 . S
C389 C388 1.386 . S
C389 C393 1.393 . S
C390 H382 0.950 . S
C390 C388 1.391 . S
C390 C391 1.400 . S
C391 C390 1.400 . S
C391 C392 1.387 1_455 S
C391 C397 1.491 1_455 S
C392 H383 0.961 . S
C392 C391 1.387 1_655 S
C392 C393 1.392 1_655 S
C393 H381 0.950 . S
C393 C389 1.393 . S
C393 C392 1.392 1_455 S
C394 H384 0.950 . S
C394 C395 1.386 . S
C394 C396 1.391 . S
C395 C394 1.386 . S
C395 C399 1.393 . S
C396 H385 0.950 . S
C396 C394 1.391 . S
C396 C397 1.400 . S
C397 C391 1.491 1_655 S
C397 C396 1.400 . S
C397 C398 1.387 1_655 S
C398 H386 0.961 . S
C398 C397 1.387 1_455 S
C398 C399 1.392 1_455 S
C399 H387 0.950 . S
C399 C395 1.393 . S
C399 C398 1.392 1_655 S
H400 C408 0.950 . S
H401 C413 0.950 . S
H402 C410 0.950 . S
H403 C412 0.950 . S
H404 C414 0.950 . S
H405 C416 0.950 . S
H406 C418 0.950 . S
H407 C419 0.950 . S
C408 H400 0.950 . S
C408 C409 1.386 . S
C408 C410 1.391 . S
C409 C408 1.386 . S
C409 C413 1.393 . S
C410 H402 0.950 . S
C410 C408 1.391 . S
C410 C411 1.400 . S
C411 C410 1.400 . S
C411 C412 1.398 . S
C411 C417 1.491 1_545 S
C412 H403 0.950 . S
C412 C411 1.398 . S
C412 C413 1.391 . S
C413 H401 0.950 . S
C413 C409 1.393 . S
C413 C412 1.391 . S
C414 H404 0.950 . S
C414 C415 1.386 . S
C414 C416 1.391 . S
C415 C414 1.386 . S
C415 C419 1.393 . S
C416 H405 0.950 . S
C416 C414 1.391 . S
C416 C417 1.400 . S
C417 C411 1.491 1_565 S
C417 C416 1.400 . S
C417 C418 1.398 . S
C418 H406 0.950 . S
C418 C417 1.398 . S
C418 C419 1.391 . S
C419 H407 0.950 . S
C419 C415 1.393 . S
C419 C418 1.391 . S
H420 C428 0.950 . S
H421 C433 0.950 . S
H422 C430 0.950 . S
H423 C432 0.950 . S
H424 C434 0.950 . S
H425 C436 0.950 . S
H426 C438 0.950 . S
H427 C439 0.950 . S
C428 H420 0.950 . S
C428 C429 1.386 . S
C428 C430 1.391 . S
C429 C428 1.386 . S
C429 C433 1.393 . S
C430 H422 0.950 . S
C430 C428 1.391 . S
C430 C431 1.400 . S
C431 C430 1.400 . S
C431 C432 1.398 . S
C431 C437 1.491 . S
C432 H423 0.950 . S
C432 C431 1.398 . S
C432 C433 1.391 . S
C433 H421 0.950 . S
C433 C429 1.393 . S
C433 C432 1.391 . S
C434 H424 0.950 . S
C434 C435 1.386 . S
C434 C436 1.391 . S
C435 C434 1.386 . S
C435 C439 1.393 . S
C436 H425 0.950 . S
C436 C434 1.391 . S
C436 C437 1.400 . S
C437 C431 1.491 . S
C437 C436 1.400 . S
C437 C438 1.398 . S
C438 H426 0.950 . S
C438 C437 1.398 . S
C438 C439 1.391 . S
C439 H427 0.950 . S
C439 C435 1.393 . S
C439 C438 1.391 . S
H440 C448 0.950 . S
H441 C453 0.950 1_655 S
H442 C450 0.950 . S
H443 C452 0.950 . S
H444 C454 0.950 . S
H445 C456 0.950 . S
H446 C458 0.950 . S
H447 C459 0.950 1_455 S
C448 H440 0.950 . S
C448 C449 1.386 . S
C448 C450 1.391 . S
C449 C448 1.386 . S
C449 C453 1.393 . S
C450 H442 0.950 . S
C450 C448 1.391 . S
C450 C451 1.400 . S
C451 C450 1.400 . S
C451 C452 1.398 1_455 S
C451 C457 1.491 1_455 S
C452 H443 0.950 . S
C452 C451 1.398 1_655 S
C452 C453 1.391 1_655 S
C453 H441 0.950 1_455 S
C453 C449 1.393 . S
C453 C452 1.391 1_455 S
C454 H444 0.950 . S
C454 C455 1.386 . S
C454 C456 1.391 . S
C455 C454 1.386 . S
C455 C459 1.393 . S
C456 H445 0.950 . S
C456 C454 1.391 . S
C456 C457 1.400 . S
C457 C451 1.491 1_655 S
C457 C456 1.400 . S
C457 C458 1.398 1_655 S
C458 H446 0.950 . S
C458 C457 1.398 1_455 S
C458 C459 1.391 1_455 S
C459 H447 0.950 1_655 S
C459 C455 1.393 . S
C459 C458 1.391 1_655 S
H460 C468 0.950 1_545 S
H461 C473 0.950 . S
H462 C470 0.950 . S
H463 C472 0.950 . S
H464 C474 0.950 1_565 S
H465 C476 0.950 . S
H466 C478 0.950 . S
H467 C479 0.950 . S
C468 H460 0.950 1_565 S
C468 C469 1.386 . S
C468 C470 1.391 1_565 S
C469 C468 1.386 . S
C469 C473 1.393 . S
C470 H462 0.950 . S
C470 C468 1.391 1_545 S
C470 C471 1.400 1_545 S
C471 C470 1.400 1_565 S
C471 C472 1.398 . S
C471 C477 1.491 1_565 S
C472 H463 0.950 . S
C472 C471 1.398 . S
C472 C473 1.391 . S
C473 H461 0.950 . S
C473 C469 1.393 . S
C473 C472 1.391 . S
C474 H464 0.950 1_545 S
C474 C475 1.386 . S
C474 C476 1.391 1_545 S
C475 C474 1.386 . S
C475 C479 1.393 . S
C476 H465 0.950 . S
C476 C474 1.391 1_565 S
C476 C477 1.400 1_565 S
C477 C471 1.491 1_545 S
C477 C476 1.400 1_545 S
C477 C478 1.398 . S
C478 H466 0.950 . S
C478 C477 1.398 . S
C478 C479 1.391 . S
C479 H467 0.950 . S
C479 C475 1.393 . S
C479 C478 1.391 . S
H480 C488 0.950 . S
H481 C493 0.950 . S
H482 C490 0.950 . S
H483 C492 0.950 . S
H484 C494 0.950 . S
H485 C496 0.950 . S
H486 C498 0.950 . S
H487 C499 0.950 . S
C488 H480 0.950 . S
C488 C489 1.386 . S
C488 C490 1.391 . S
C489 C488 1.386 . S
C489 C493 1.393 . S
C490 H482 0.950 . S
C490 C488 1.391 . S
C490 C491 1.400 . S
C491 C490 1.400 . S
C491 C492 1.398 . S
C491 C497 1.491 . S
C492 H483 0.950 . S
C492 C491 1.398 . S
C492 C493 1.391 . S
C493 H481 0.950 . S
C493 C489 1.393 . S
C493 C492 1.391 . S
C494 H484 0.950 . S
C494 C495 1.386 . S
C494 C496 1.391 . S
C495 C494 1.386 . S
C495 C499 1.393 . S
C496 H485 0.950 . S
C496 C494 1.391 . S
C496 C497 1.400 . S
C497 C491 1.491 . S
C497 C496 1.400 . S
C497 C498 1.398 . S
C498 H486 0.950 . S
C498 C497 1.398 . S
C498 C499 1.391 . S
C499 H487 0.950 . S
C499 C495 1.393 . S
C499 C498 1.391 . S
H500 C508 0.950 . S
H501 C513 0.950 . S
H502 C510 0.950 1_655 S
H503 C512 0.950 . S
H504 C514 0.950 . S
H505 C516 0.950 . S
H506 C518 0.950 . S
H507 C519 0.950 . S
C508 H500 0.950 . S
C508 C509 1.386 . S
C508 C510 1.391 1_655 S
C509 C508 1.386 . S
C509 C513 1.393 1_655 S
C510 H502 0.950 1_455 S
C510 C508 1.391 1_455 S
C510 C511 1.400 . S
C511 C510 1.400 . S
C511 C512 1.398 . S
C511 C517 1.491 . S
C512 H503 0.950 . S
C512 C511 1.398 . S
C512 C513 1.391 . S
C513 H501 0.950 . S
C513 C509 1.393 1_455 S
C513 C512 1.391 . S
C514 H504 0.950 . S
C514 C515 1.386 . S
C514 C516 1.391 . S
C515 C514 1.386 . S
C515 C519 1.393 . S
C516 H505 0.950 . S
C516 C514 1.391 . S
C516 C517 1.400 . S
C517 C511 1.491 . S
C517 C516 1.400 . S
C517 C518 1.398 . S
C518 H506 0.950 . S
C518 C517 1.398 . S
C518 C519 1.391 . S
C519 H507 0.950 . S
C519 C515 1.393 . S
C519 C518 1.391 . S
H520 C528 0.950 . S
H521 C533 0.950 1_565 S
H522 C530 0.950 . S
H523 C532 0.950 . S
H524 C534 0.950 . S
H525 C536 0.950 . S
H526 C538 0.950 . S
H527 C539 0.950 . S
C528 H520 0.950 . S
C528 C529 1.386 . S
C528 C530 1.391 1_565 S
C529 C528 1.386 . S
C529 C533 1.393 1_565 S
C530 H522 0.950 . S
C530 C528 1.391 1_545 S
C530 C531 1.400 . S
C531 C530 1.400 . S
C531 C532 1.398 . S
C531 C537 1.491 . S
C532 H523 0.950 . S
C532 C531 1.398 . S
C532 C533 1.391 . S
C533 H521 0.950 1_545 S
C533 C529 1.393 1_545 S
C533 C532 1.391 . S
C534 H524 0.950 . S
C534 C535 1.386 . S
C534 C536 1.391 . S
C535 C534 1.386 . S
C535 C539 1.393 . S
C536 H525 0.950 . S
C536 C534 1.391 . S
C536 C537 1.400 . S
C537 C531 1.491 . S
C537 C536 1.400 . S
C537 C538 1.398 . S
C538 H526 0.950 . S
C538 C537 1.398 . S
C538 C539 1.391 . S
C539 H527 0.950 . S
C539 C535 1.393 . S
C539 C538 1.391 . S
H540 C548 0.950 . S
H541 C553 0.950 . S
H542 C550 0.950 . S
H543 C552 0.950 . S
H544 C554 0.950 . S
H545 C556 0.950 . S
H546 C558 0.950 . S
H547 C559 0.950 . S
C548 H540 0.950 . S
C548 C549 1.386 . S
C548 C550 1.391 . S
C549 C548 1.386 . S
C549 C553 1.393 . S
C550 H542 0.950 . S
C550 C548 1.391 . S
C550 C551 1.400 . S
C551 C550 1.400 . S
C551 C552 1.398 . S
C551 C557 1.491 . S
C552 H543 0.950 . S
C552 C551 1.398 . S
C552 C553 1.391 . S
C553 H541 0.950 . S
C553 C549 1.393 . S
C553 C552 1.391 . S
C554 H544 0.950 . S
C554 C555 1.386 . S
C554 C556 1.391 . S
C555 C554 1.386 . S
C555 C559 1.393 . S
C556 H545 0.950 . S
C556 C554 1.391 . S
C556 C557 1.400 . S
C557 C551 1.491 . S
C557 C556 1.400 . S
C557 C558 1.398 . S
C558 H546 0.950 . S
C558 C557 1.398 . S
C558 C559 1.391 . S
C559 H547 0.950 . S
C559 C555 1.393 . S
C559 C558 1.391 . S
H560 C568 0.950 . S
H561 C573 0.950 . S
H562 C570 0.950 . S
H563 C572 0.950 1_455 S
H564 C574 0.950 . S
H565 C576 0.950 . S
H566 C578 0.950 . S
H567 C579 0.950 . S
C568 H560 0.950 . S
C568 C569 1.386 1_655 S
C568 C570 1.391 . S
C569 C568 1.386 1_455 S
C569 C573 1.393 . S
C570 H562 0.950 . S
C570 C568 1.391 . S
C570 C571 1.400 . S
C571 C570 1.400 . S
C571 C572 1.398 . S
C571 C577 1.491 . S
C572 H563 0.950 1_655 S
C572 C571 1.398 . S
C572 C573 1.391 1_655 S
C573 H561 0.950 . S
C573 C569 1.393 . S
C573 C572 1.391 1_455 S
C574 H564 0.950 . S
C574 C575 1.386 . S
C574 C576 1.391 . S
C575 C574 1.386 . S
C575 C579 1.393 . S
C576 H565 0.950 . S
C576 C574 1.391 . S
C576 C577 1.400 . S
C577 C571 1.491 . S
C577 C576 1.400 . S
C577 C578 1.398 . S
C578 H566 0.950 . S
C578 C577 1.398 . S
C578 C579 1.391 . S
C579 H567 0.950 . S
C579 C575 1.393 . S
C579 C578 1.391 . S
H580 C588 0.950 . S
H581 C593 0.950 . S
H582 C590 0.950 . S
H583 C592 0.950 . S
H584 C594 0.950 . S
H585 C596 0.964 . S
H586 C598 0.950 . S
H587 C599 0.950 . S
C588 H580 0.950 . S
C588 C589 1.386 1_565 S
C588 C590 1.391 . S
C589 C588 1.386 1_545 S
C589 C593 1.393 . S
C590 H582 0.950 . S
C590 C588 1.391 . S
C590 C591 1.400 . S
C591 C590 1.400 . S
C591 C592 1.398 1_565 S
C591 C597 1.491 . S
C592 H583 0.950 . S
C592 C591 1.398 1_545 S
C592 C593 1.391 . S
C593 H581 0.950 . S
C593 C589 1.393 . S
C593 C592 1.391 . S
C594 H584 0.950 . S
C594 C595 1.386 . S
C594 C596 1.391 . S
C595 C594 1.386 . S
C595 C599 1.393 . S
C596 H585 0.964 . S
C596 C594 1.391 . S
C596 C597 1.400 . S
C597 C591 1.491 . S
C597 C596 1.400 . S
C597 C598 1.398 . S
C598 H586 0.950 . S
C598 C597 1.398 . S
C598 C599 1.391 . S
C599 H587 0.950 . S
C599 C595 1.393 . S
C599 C598 1.391 . S
C249 C171 1.183 . S
C255 C7 1.187 . S
C269 C211 1.188 . S
C275 C47 1.188 . S
C289 C11 1.183 . S
C295 C87 1.187 . S
C309 C51 1.187 . S
C315 C127 1.188 . S
C329 C91 1.185 . S
C335 C167 1.187 . S
C349 C131 1.180 . S
C355 C207 1.187 . S
C369 C10 0.942 . S
C375 C130 0.937 . S
C389 C170 0.943 . S
C395 C50 0.951 . S
C409 C210 0.995 . S
C415 C90 0.992 . S
C429 C99 1.087 . S
C435 C219 1.083 . S
C449 C19 1.078 . S
C455 C139 1.087 . S
C469 C179 1.083 . S
C475 C59 1.075 . S
C489 C202 1.307 . S
C495 C16 1.270 . S
C509 C56 1.271 . S
C515 C2 1.307 . S
C529 C96 1.276 . S
C535 C42 1.304 . S
C549 C82 1.305 . S
C555 C136 1.266 . S
C569 C176 1.284 . S
C575 C122 1.305 . S
C589 C216 1.289 . S
C595 C162 1.306 . S
