# Generated by pormake.
# Topology wlt, (5)-cn, num edge types: 1
# Building blocks:
#     Node 0, Type 0, BuildingBlock: BEQFEK_clean_sbu_0, # of connection points: 5
#     Node 1, Type 0, BuildingBlock: BEQFEK_clean_sbu_0, # of connection points: 5
#     Node 2, Type 0, BuildingBlock: BEQFEK_clean_sbu_0, # of connection points: 5
#     Node 3, Type 0, BuildingBlock: BEQFEK_clean_sbu_0, # of connection points: 5
#     Node 4, Type 0, BuildingBlock: BEQFEK_clean_sbu_0, # of connection points: 5
#     Node 5, Type 0, BuildingBlock: BEQFEK_clean_sbu_0, # of connection points: 5
#     Node 6, Type 0, BuildingBlock: BEQFEK_clean_sbu_0, # of connection points: 5
#     Node 7, Type 0, BuildingBlock: BEQFEK_clean_sbu_0, # of connection points: 5
#     Node 8, Type 0, BuildingBlock: BEQFEK_clean_sbu_0, # of connection points: 5
#     Node 9, Type 0, BuildingBlock: BEQFEK_clean_sbu_0, # of connection points: 5
#     Node 10, Type 0, BuildingBlock: BEQFEK_clean_sbu_0, # of connection points: 5
#     Node 11, Type 0, BuildingBlock: BEQFEK_clean_sbu_0, # of connection points: 5
#     Node 12, Type 0, BuildingBlock: BEQFEK_clean_sbu_0, # of connection points: 5
#     Node 13, Type 0, BuildingBlock: BEQFEK_clean_sbu_0, # of connection points: 5
#     Node 14, Type 0, BuildingBlock: BEQFEK_clean_sbu_0, # of connection points: 5
#     Node 15, Type 0, BuildingBlock: BEQFEK_clean_sbu_0, # of connection points: 5
#     Node 16, Type 0, BuildingBlock: BEQFEK_clean_sbu_0, # of connection points: 5
#     Node 17, Type 0, BuildingBlock: BEQFEK_clean_sbu_0, # of connection points: 5
#     Node 18, Type 0, BuildingBlock: BEQFEK_clean_sbu_0, # of connection points: 5
#     Node 19, Type 0, BuildingBlock: BEQFEK_clean_sbu_0, # of connection points: 5
#     Node 20, Type 0, BuildingBlock: BEQFEK_clean_sbu_0, # of connection points: 5
#     Node 21, Type 0, BuildingBlock: BEQFEK_clean_sbu_0, # of connection points: 5
#     Node 22, Type 0, BuildingBlock: BEQFEK_clean_sbu_0, # of connection points: 5
#     Node 23, Type 0, BuildingBlock: BEQFEK_clean_sbu_0, # of connection points: 5
#     Node 24, Type 0, BuildingBlock: BEQFEK_clean_sbu_0, # of connection points: 5
#     Node 25, Type 0, BuildingBlock: BEQFEK_clean_sbu_0, # of connection points: 5
#     Node 26, Type 0, BuildingBlock: BEQFEK_clean_sbu_0, # of connection points: 5
#     Node 27, Type 0, BuildingBlock: BEQFEK_clean_sbu_0, # of connection points: 5
#     Node 28, Type 0, BuildingBlock: BEQFEK_clean_sbu_0, # of connection points: 5
#     Node 29, Type 0, BuildingBlock: BEQFEK_clean_sbu_0, # of connection points: 5
#     Node 30, Type 0, BuildingBlock: BEQFEK_clean_sbu_0, # of connection points: 5
#     Node 31, Type 0, BuildingBlock: BEQFEK_clean_sbu_0, # of connection points: 5
#     Node 32, Type 0, BuildingBlock: BEQFEK_clean_sbu_0, # of connection points: 5
#     Node 33, Type 0, BuildingBlock: BEQFEK_clean_sbu_0, # of connection points: 5
#     Node 34, Type 0, BuildingBlock: BEQFEK_clean_sbu_0, # of connection points: 5
#     Node 35, Type 0, BuildingBlock: BEQFEK_clean_sbu_0, # of connection points: 5
#     Edge 36, Type (0, 0), BuildingBlock: OJICUG_clean_linker_0, # of connection points: 2
#     Edge 37, Type (0, 0), BuildingBlock: OJICUG_clean_linker_0, # of connection points: 2
#     Edge 38, Type (0, 0), BuildingBlock: OJICUG_clean_linker_0, # of connection points: 2
#     Edge 39, Type (0, 0), BuildingBlock: OJICUG_clean_linker_0, # of connection points: 2
#     Edge 40, Type (0, 0), BuildingBlock: OJICUG_clean_linker_0, # of connection points: 2
#     Edge 41, Type (0, 0), BuildingBlock: OJICUG_clean_linker_0, # of connection points: 2
#     Edge 42, Type (0, 0), BuildingBlock: OJICUG_clean_linker_0, # of connection points: 2
#     Edge 43, Type (0, 0), BuildingBlock: OJICUG_clean_linker_0, # of connection points: 2
#     Edge 44, Type (0, 0), BuildingBlock: OJICUG_clean_linker_0, # of connection points: 2
#     Edge 45, Type (0, 0), BuildingBlock: OJICUG_clean_linker_0, # of connection points: 2
#     Edge 46, Type (0, 0), BuildingBlock: OJICUG_clean_linker_0, # of connection points: 2
#     Edge 47, Type (0, 0), BuildingBlock: OJICUG_clean_linker_0, # of connection points: 2
#     Edge 48, Type (0, 0), BuildingBlock: OJICUG_clean_linker_0, # of connection points: 2
#     Edge 49, Type (0, 0), BuildingBlock: OJICUG_clean_linker_0, # of connection points: 2
#     Edge 50, Type (0, 0), BuildingBlock: OJICUG_clean_linker_0, # of connection points: 2
#     Edge 51, Type (0, 0), BuildingBlock: OJICUG_clean_linker_0, # of connection points: 2
#     Edge 52, Type (0, 0), BuildingBlock: OJICUG_clean_linker_0, # of connection points: 2
#     Edge 53, Type (0, 0), BuildingBlock: OJICUG_clean_linker_0, # of connection points: 2
#     Edge 54, Type (0, 0), BuildingBlock: OJICUG_clean_linker_0, # of connection points: 2
#     Edge 55, Type (0, 0), BuildingBlock: OJICUG_clean_linker_0, # of connection points: 2
#     Edge 56, Type (0, 0), BuildingBlock: OJICUG_clean_linker_0, # of connection points: 2
#     Edge 57, Type (0, 0), BuildingBlock: OJICUG_clean_linker_0, # of connection points: 2
#     Edge 58, Type (0, 0), BuildingBlock: OJICUG_clean_linker_0, # of connection points: 2
#     Edge 59, Type (0, 0), BuildingBlock: OJICUG_clean_linker_0, # of connection points: 2
#     Edge 60, Type (0, 0), BuildingBlock: OJICUG_clean_linker_0, # of connection points: 2
#     Edge 61, Type (0, 0), BuildingBlock: OJICUG_clean_linker_0, # of connection points: 2
#     Edge 62, Type (0, 0), BuildingBlock: OJICUG_clean_linker_0, # of connection points: 2
#     Edge 63, Type (0, 0), BuildingBlock: OJICUG_clean_linker_0, # of connection points: 2
#     Edge 64, Type (0, 0), BuildingBlock: OJICUG_clean_linker_0, # of connection points: 2
#     Edge 65, Type (0, 0), BuildingBlock: OJICUG_clean_linker_0, # of connection points: 2
#     Edge 66, Type (0, 0), BuildingBlock: OJICUG_clean_linker_0, # of connection points: 2
#     Edge 67, Type (0, 0), BuildingBlock: OJICUG_clean_linker_0, # of connection points: 2
#     Edge 68, Type (0, 0), BuildingBlock: OJICUG_clean_linker_0, # of connection points: 2
#     Edge 69, Type (0, 0), BuildingBlock: OJICUG_clean_linker_0, # of connection points: 2
#     Edge 70, Type (0, 0), BuildingBlock: OJICUG_clean_linker_0, # of connection points: 2
#     Edge 71, Type (0, 0), BuildingBlock: OJICUG_clean_linker_0, # of connection points: 2
#     Edge 72, Type (0, 0), BuildingBlock: OJICUG_clean_linker_0, # of connection points: 2
#     Edge 73, Type (0, 0), BuildingBlock: OJICUG_clean_linker_0, # of connection points: 2
#     Edge 74, Type (0, 0), BuildingBlock: OJICUG_clean_linker_0, # of connection points: 2
#     Edge 75, Type (0, 0), BuildingBlock: OJICUG_clean_linker_0, # of connection points: 2
#     Edge 76, Type (0, 0), BuildingBlock: OJICUG_clean_linker_0, # of connection points: 2
#     Edge 77, Type (0, 0), BuildingBlock: OJICUG_clean_linker_0, # of connection points: 2
#     Edge 78, Type (0, 0), BuildingBlock: OJICUG_clean_linker_0, # of connection points: 2
#     Edge 79, Type (0, 0), BuildingBlock: OJICUG_clean_linker_0, # of connection points: 2
#     Edge 80, Type (0, 0), BuildingBlock: OJICUG_clean_linker_0, # of connection points: 2
#     Edge 81, Type (0, 0), BuildingBlock: OJICUG_clean_linker_0, # of connection points: 2
#     Edge 82, Type (0, 0), BuildingBlock: OJICUG_clean_linker_0, # of connection points: 2
#     Edge 83, Type (0, 0), BuildingBlock: OJICUG_clean_linker_0, # of connection points: 2
#     Edge 84, Type (0, 0), BuildingBlock: OJICUG_clean_linker_0, # of connection points: 2
#     Edge 85, Type (0, 0), BuildingBlock: OJICUG_clean_linker_0, # of connection points: 2
#     Edge 86, Type (0, 0), BuildingBlock: OJICUG_clean_linker_0, # of connection points: 2
#     Edge 87, Type (0, 0), BuildingBlock: OJICUG_clean_linker_0, # of connection points: 2
#     Edge 88, Type (0, 0), BuildingBlock: OJICUG_clean_linker_0, # of connection points: 2
#     Edge 89, Type (0, 0), BuildingBlock: OJICUG_clean_linker_0, # of connection points: 2
#     Edge 90, Type (0, 0), BuildingBlock: OJICUG_clean_linker_0, # of connection points: 2
#     Edge 91, Type (0, 0), BuildingBlock: OJICUG_clean_linker_0, # of connection points: 2
#     Edge 92, Type (0, 0), BuildingBlock: OJICUG_clean_linker_0, # of connection points: 2
#     Edge 93, Type (0, 0), BuildingBlock: OJICUG_clean_linker_0, # of connection points: 2
#     Edge 94, Type (0, 0), BuildingBlock: OJICUG_clean_linker_0, # of connection points: 2
#     Edge 95, Type (0, 0), BuildingBlock: OJICUG_clean_linker_0, # of connection points: 2
#     Edge 96, Type (0, 0), BuildingBlock: OJICUG_clean_linker_0, # of connection points: 2
#     Edge 97, Type (0, 0), BuildingBlock: OJICUG_clean_linker_0, # of connection points: 2
#     Edge 98, Type (0, 0), BuildingBlock: OJICUG_clean_linker_0, # of connection points: 2
#     Edge 99, Type (0, 0), BuildingBlock: OJICUG_clean_linker_0, # of connection points: 2
#     Edge 100, Type (0, 0), BuildingBlock: OJICUG_clean_linker_0, # of connection points: 2
#     Edge 101, Type (0, 0), BuildingBlock: OJICUG_clean_linker_0, # of connection points: 2
#     Edge 102, Type (0, 0), BuildingBlock: OJICUG_clean_linker_0, # of connection points: 2
#     Edge 103, Type (0, 0), BuildingBlock: OJICUG_clean_linker_0, # of connection points: 2
#     Edge 104, Type (0, 0), BuildingBlock: OJICUG_clean_linker_0, # of connection points: 2
#     Edge 105, Type (0, 0), BuildingBlock: OJICUG_clean_linker_0, # of connection points: 2
#     Edge 106, Type (0, 0), BuildingBlock: OJICUG_clean_linker_0, # of connection points: 2
#     Edge 107, Type (0, 0), BuildingBlock: OJICUG_clean_linker_0, # of connection points: 2
#     Edge 108, Type (0, 0), BuildingBlock: OJICUG_clean_linker_0, # of connection points: 2
#     Edge 109, Type (0, 0), BuildingBlock: OJICUG_clean_linker_0, # of connection points: 2
#     Edge 110, Type (0, 0), BuildingBlock: OJICUG_clean_linker_0, # of connection points: 2
#     Edge 111, Type (0, 0), BuildingBlock: OJICUG_clean_linker_0, # of connection points: 2
#     Edge 112, Type (0, 0), BuildingBlock: OJICUG_clean_linker_0, # of connection points: 2
#     Edge 113, Type (0, 0), BuildingBlock: OJICUG_clean_linker_0, # of connection points: 2
#     Edge 114, Type (0, 0), BuildingBlock: OJICUG_clean_linker_0, # of connection points: 2
#     Edge 115, Type (0, 0), BuildingBlock: OJICUG_clean_linker_0, # of connection points: 2
#     Edge 116, Type (0, 0), BuildingBlock: OJICUG_clean_linker_0, # of connection points: 2
#     Edge 117, Type (0, 0), BuildingBlock: OJICUG_clean_linker_0, # of connection points: 2
#     Edge 118, Type (0, 0), BuildingBlock: OJICUG_clean_linker_0, # of connection points: 2
#     Edge 119, Type (0, 0), BuildingBlock: OJICUG_clean_linker_0, # of connection points: 2
#     Edge 120, Type (0, 0), BuildingBlock: OJICUG_clean_linker_0, # of connection points: 2
#     Edge 121, Type (0, 0), BuildingBlock: OJICUG_clean_linker_0, # of connection points: 2
#     Edge 122, Type (0, 0), BuildingBlock: OJICUG_clean_linker_0, # of connection points: 2
#     Edge 123, Type (0, 0), BuildingBlock: OJICUG_clean_linker_0, # of connection points: 2
#     Edge 124, Type (0, 0), BuildingBlock: OJICUG_clean_linker_0, # of connection points: 2
#     Edge 125, Type (0, 0), BuildingBlock: OJICUG_clean_linker_0, # of connection points: 2
# Relax obj value: 0.148
# Max RMSD: 0.167
# Mean RMSD: 0.167
data_MOF--net-wlt--node1-BEQFEK_clean_sbu_0--edge1-OJICUG_clean_linker_0
_symmetry_space_group_name_H-M    P1
_symmetry_Int_Tables_number       1
_symmetry_cell_setting            triclinic
loop_
_symmetry_equiv_pos_as_xyz
'x, y, z'
_cell_length_a     53.171829
_cell_length_b     53.155024
_cell_length_c     38.167595
_cell_angle_alpha  89.986776
_cell_angle_beta   89.94243
_cell_angle_gamma 119.99658
loop_
_atom_site_label
_atom_site_type_symbol
_atom_site_fract_x
_atom_site_fract_y
_atom_site_fract_z
_atom_type_partial_charge
Co0 Co 0.27135 0.21984 0.12559 0.0
Co1 Co 0.21522 0.21995 0.10043 0.0
C2 C 0.2747 0.27439 0.09739 0.0
O3 O 0.28792 0.26145 0.109 0.0
O4 O 0.24711 0.26081 0.09328 0.0
C5 C 0.32319 0.21065 0.13502 0.0
O6 O 0.33802 0.22714 0.10844 0.0
C7 C 0.1717 0.22576 0.05721 0.0
C8 C 0.13149 0.18695 0.07537 0.0
C9 C 0.14183 0.20987 0.05197 0.0
N10 N 0.1786 0.2126 0.08247 0.0
N11 N 0.1544 0.18967 0.09345 0.0
C12 C 0.19362 0.25119 0.03641 0.0
H13 H 0.21465 0.25154 0.0359 0.0
H14 H 0.18589 0.25047 0.00923 0.0
H15 H 0.19711 0.2715 0.04902 0.0
C16 C 0.25081 0.17257 0.07283 0.0
N17 N 0.24808 0.19303 0.09054 0.0
N18 N 0.2253 0.19388 0.07872 0.0
C19 C 0.21352 0.17477 0.05206 0.0
C20 C 0.22927 0.16056 0.04753 0.0
C21 C 0.27216 0.16302 0.08183 0.0
H22 H 0.27244 0.16029 0.11057 0.0
H23 H 0.29411 0.17979 0.073 0.0
H24 H 0.26654 0.14201 0.0694 0.0
O25 O 0.24863 0.21377 0.16821 0.0
O26 O 0.20839 0.21289 0.15174 0.0
H27 H 0.16843 0.15969 0.04392 0.0
H28 H 0.18776 0.1606 0.00458 0.0
C29 C 0.18924 0.17197 0.0295 0.0
H30 H 0.19274 0.19383 0.02324 0.0
H31 H 0.15366 0.17531 0.11262 0.0
O32 O 0.29888 0.20807 0.14305 0.0
C33 C 0.22414 0.21103 0.17545 0.0
Co34 Co 0.78524 0.05174 0.12411 0.0
Co35 Co 0.78462 0.99449 0.10198 0.0
C36 C 0.73091 1.00193 0.09681 0.0
O37 O 0.74389 0.02826 0.10769 0.0
O38 O 0.74432 0.98762 0.09394 0.0
C39 C 0.79499 0.11293 0.136 0.0
O40 O 0.77426 0.11002 0.11479 0.0
C41 C 0.78048 0.94794 0.05475 0.0
C42 C 0.80594 0.93306 0.08525 0.0
C43 C 0.79095 0.92854 0.05411 0.0
N44 N 0.78934 0.96332 0.08469 0.0
N45 N 0.80442 0.95418 0.10277 0.0
C46 C 0.76142 0.95111 0.0284 0.0
H47 H 0.74931 0.96078 0.04064 0.0
H48 H 0.77506 0.96582 0.00709 0.0
H49 H 0.74591 0.92972 0.01682 0.0
C50 C 0.83075 0.07613 0.0699 0.0
N51 N 0.81124 0.05352 0.08913 0.0
N52 N 0.81245 0.03015 0.0808 0.0
C53 C 0.83334 0.03739 0.0563 0.0
C54 C 0.84561 0.06681 0.04863 0.0
C55 C 0.83324 0.10545 0.06975 0.0
H56 H 0.81123 0.10285 0.0704 0.0
H57 H 0.84472 0.11816 0.04611 0.0
H58 H 0.84528 0.11762 0.09341 0.0
O59 O 0.78993 0.03464 0.16758 0.0
O60 O 0.79054 0.9947 0.15313 0.0
H61 H 0.86382 0.02871 0.02888 0.0
H62 H 0.82597 0.0029 0.02156 0.0
C63 C 0.84211 0.01686 0.04145 0.0
H64 H 0.84262 0.00277 0.0625 0.0
H65 H 0.814 0.96261 0.127 0.0
O66 O 0.79957 0.09193 0.14049 0.0
C67 C 0.79203 0.0127 0.17603 0.0
Co68 Co 0.95255 0.73553 0.12693 0.0
Co69 Co 0.0085 0.79102 0.09967 0.0
C70 C 0.00345 0.73179 0.09771 0.0
O71 O 0.97751 0.71894 0.11002 0.0
O72 O 0.01751 0.75928 0.09278 0.0
C73 C 0.89207 0.68443 0.13414 0.0
O74 O 0.89397 0.67327 0.10423 0.0
C75 C 0.05753 0.834 0.0556 0.0
C76 C 0.05887 0.87442 0.07267 0.0
C77 C 0.07155 0.86383 0.04977 0.0
N78 N 0.03741 0.8274 0.08075 0.0
N79 N 0.03861 0.85172 0.09103 0.0
C80 C 0.0611 0.81181 0.03552 0.0
H81 H 0.04039 0.79079 0.03521 0.0
H82 H 0.06821 0.8192 0.00824 0.0
H83 H 0.07781 0.80842 0.04855 0.0
C84 C 0.92496 0.7563 0.07532 0.0
N85 N 0.94836 0.75858 0.09202 0.0
N86 N 0.97197 0.7806 0.07879 0.0
C87 C 0.9644 0.79194 0.05188 0.0
C88 C 0.93429 0.77695 0.04888 0.0
C89 C 0.89419 0.73677 0.08661 0.0
H90 H 0.89291 0.73559 0.11558 0.0
H91 H 0.88628 0.71475 0.07573 0.0
H92 H 0.8798 0.74488 0.07719 0.0
O93 O 0.96977 0.75877 0.16873 0.0
O94 O 0.00915 0.79853 0.15095 0.0
H95 H 0.9944 0.83645 0.04017 0.0
H96 H 0.97554 0.81492 0.00231 0.0
C97 C 0.9857 0.81486 0.02764 0.0
H98 H 0.00396 0.81098 0.02235 0.0
H99 H 0.02498 0.85268 0.11001 0.0
O100 O 0.91386 0.70735 0.14558 0.0
C101 C 0.99178 0.78326 0.17517 0.0
Co102 Co 0.21938 0.26875 0.37195 0.0
Co103 Co 0.21996 0.21286 0.39753 0.0
C104 C 0.27391 0.2729 0.40064 0.0
O105 O 0.26084 0.28589 0.38881 0.0
O106 O 0.26052 0.24532 0.4048 0.0
C107 C 0.21016 0.32016 0.36363 0.0
O108 O 0.22507 0.33318 0.39191 0.0
C109 C 0.22533 0.16955 0.44239 0.0
C110 C 0.19051 0.1289 0.41913 0.0
C111 C 0.21104 0.1394 0.44557 0.0
N112 N 0.21329 0.17638 0.41569 0.0
N113 N 0.19267 0.15193 0.40184 0.0
C114 C 0.25054 0.19146 0.46346 0.0
H115 H 0.26446 0.21089 0.44739 0.0
H116 H 0.24236 0.19839 0.48609 0.0
H117 H 0.26371 0.18209 0.47342 0.0
C118 C 0.17153 0.24761 0.42423 0.0
N119 N 0.1923 0.24519 0.4068 0.0
N120 N 0.19317 0.22238 0.4186 0.0
C121 C 0.17367 0.21022 0.44487 0.0
C122 C 0.15933 0.22586 0.44931 0.0
C123 C 0.16183 0.26884 0.41517 0.0
H124 H 0.16 0.26982 0.38637 0.0
H125 H 0.17799 0.29063 0.42507 0.0
H126 H 0.14035 0.26254 0.42679 0.0
O127 O 0.21395 0.24613 0.32951 0.0
O128 O 0.21349 0.20609 0.34611 0.0
H129 H 0.16018 0.16528 0.45133 0.0
H130 H 0.1574 0.18253 0.49082 0.0
C131 C 0.17055 0.18556 0.46698 0.0
H132 H 0.19231 0.18989 0.47518 0.0
H133 H 0.17973 0.15098 0.38078 0.0
O134 O 0.20802 0.29638 0.35389 0.0
C135 C 0.21162 0.2218 0.32232 0.0
Co136 Co 0.73448 0.95237 0.37531 0.0
Co137 Co 0.79144 0.00889 0.39769 0.0
C138 C 0.73107 0.00298 0.40267 0.0
O139 O 0.71743 0.97668 0.39164 0.0
O140 O 0.75878 0.01692 0.40581 0.0
C141 C 0.68228 0.89154 0.36088 0.0
O142 O 0.66276 0.89494 0.37807 0.0
C143 C 0.83348 0.05629 0.44346 0.0
C144 C 0.87491 0.06518 0.41912 0.0
C145 C 0.86345 0.07306 0.44675 0.0
N146 N 0.82756 0.03915 0.41519 0.0
N147 N 0.85242 0.04485 0.40058 0.0
C148 C 0.8109 0.05477 0.46812 0.0
H149 H 0.79124 0.03287 0.46722 0.0
H150 H 0.81945 0.05988 0.49528 0.0
H151 H 0.80467 0.07095 0.45997 0.0
C152 C 0.75432 0.92712 0.42969 0.0
N153 N 0.75805 0.94995 0.41043 0.0
N154 N 0.78266 0.97306 0.41918 0.0
C155 C 0.79562 0.9655 0.44419 0.0
C156 C 0.77807 0.93606 0.45154 0.0
C157 C 0.72735 0.89792 0.42917 0.0
H158 H 0.72772 0.88577 0.40574 0.0
H159 H 0.70804 0.90066 0.4276 0.0
H160 H 0.72546 0.8851 0.45296 0.0
O161 O 0.75654 0.96908 0.3319 0.0
O162 O 0.79736 0.00862 0.34656 0.0
H163 H 0.84044 0.99771 0.4388 0.0
H164 H 0.83286 0.97417 0.47603 0.0
C165 C 0.82458 0.98584 0.45993 0.0
H166 H 0.82267 1.00193 0.47654 0.0
H167 H 0.85403 0.03422 0.37845 0.0
O168 O 0.70834 0.91217 0.35938 0.0
C169 C 0.78081 0.99078 0.32357 0.0
Co170 Co 0.0527 0.78583 0.37251 0.0
Co171 Co 0.99629 0.78604 0.3961 0.0
C172 C 1.00181 0.73148 0.39983 0.0
O173 O 0.02806 0.74436 0.38858 0.0
O174 O 0.98779 0.74512 0.40351 0.0
C175 C 0.11316 0.79395 0.36139 0.0
O176 O 0.11014 0.7744 0.38466 0.0
C177 C 0.94832 0.78021 0.44146 0.0
C178 C 0.94145 0.81473 0.4192 0.0
C179 C 0.93229 0.79413 0.44554 0.0
N180 N 0.96629 0.79223 0.414 0.0
N181 N 0.96178 0.81257 0.4006 0.0
C182 C 0.9484 0.75765 0.4648 0.0
H183 H 0.97008 0.75937 0.46442 0.0
H184 H 0.94249 0.75993 0.49204 0.0
H185 H 0.93219 0.73581 0.45497 0.0
C186 C 0.07848 0.83148 0.42664 0.0
N187 N 0.05555 0.812 0.40783 0.0
N188 N 0.03219 0.81267 0.41772 0.0
C189 C 0.0396 0.83265 0.44338 0.0
C190 C 0.06921 0.8453 0.44965 0.0
C191 C 0.10822 0.83512 0.42453 0.0
H192 H 0.11814 0.84497 0.39893 0.0
H193 H 0.10649 0.81352 0.42644 0.0
H194 H 0.12256 0.84906 0.44586 0.0
O195 O 0.03625 0.79195 0.32962 0.0
O196 O 0.99683 0.79316 0.34507 0.0
H197 H 0.00781 0.84598 0.44128 0.0
H198 H 0.0301 0.858 0.47999 0.0
C199 C 0.01889 0.8398 0.4612 0.0
H200 H 1.0022 0.82035 0.47535 0.0
H201 H 0.97324 0.82562 0.3793 0.0
O202 O 0.09238 0.7986 0.3556 0.0
C203 C 0.0147 0.79488 0.3218 0.0
Co204 Co 0.73549 0.78465 0.87339 0.0
Co205 Co 0.7921 0.78473 0.89638 0.0
C206 C 0.73186 0.7303 0.9007 0.0
O207 O 0.71844 0.74317 0.88964 0.0
O208 O 0.75954 0.74393 0.90406 0.0
C209 C 0.6836 0.79369 0.86187 0.0
O210 O 0.66644 0.77409 0.88473 0.0
C211 C 0.83411 0.77896 0.94181 0.0
C212 C 0.87554 0.81252 0.91849 0.0
C213 C 0.86408 0.7925 0.94546 0.0
N214 N 0.8282 0.79064 0.91399 0.0
N215 N 0.85307 0.8104 0.89996 0.0
C216 C 0.81147 0.75716 0.96585 0.0
H217 H 0.79162 0.75906 0.96507 0.0
H218 H 0.81978 0.76014 0.99309 0.0
H219 H 0.80565 0.73501 0.95701 0.0
C220 C 0.75576 0.83047 0.92735 0.0
N221 N 0.75906 0.8109 0.90849 0.0
N222 N 0.78316 0.8116 0.91805 0.0
C223 C 0.79595 0.83173 0.94351 0.0
C224 C 0.77904 0.84442 0.95002 0.0
C225 C 0.72962 0.83406 0.92565 0.0
H226 H 0.72962 0.8443 0.90032 0.0
H227 H 0.70977 0.81241 0.92717 0.0
H228 H 0.72914 0.84767 0.94736 0.0
O229 O 0.75778 0.79036 0.83025 0.0
O230 O 0.79847 0.79159 0.84531 0.0
H231 H 0.8409 0.84442 0.94073 0.0
H232 H 0.8314 0.85766 0.97906 0.0
C233 C 0.82397 0.83897 0.96092 0.0
H234 H 0.82114 0.81979 0.97575 0.0
H235 H 0.85468 0.8231 0.87829 0.0
O236 O 0.70894 0.79788 0.85663 0.0
C237 C 0.78217 0.79318 0.82218 0.0
Co238 Co 0.21971 0.9523 0.87112 0.0
Co239 Co 0.22019 0.00856 0.89728 0.0
C240 C 0.27423 0.00312 0.89998 0.0
O241 O 0.26118 0.97708 0.888 0.0
O242 O 0.26081 0.01722 0.9045 0.0
C243 C 0.21019 0.89156 0.86331 0.0
O244 O 0.22417 0.89333 0.8924 0.0
C245 C 0.2267 0.05789 0.9409 0.0
C246 C 0.18801 0.05981 0.92352 0.0
C247 C 0.21119 0.07223 0.94651 0.0
N248 N 0.2131 0.03782 0.91578 0.0
N249 N 0.19023 0.03937 0.9053 0.0
C250 C 0.25224 0.06116 0.96114 0.0
H251 H 0.25201 0.04019 0.96207 0.0
H252 H 0.25223 0.06882 0.98819 0.0
H253 H 0.27248 0.07736 0.9478 0.0
C254 C 0.17166 0.92521 0.92319 0.0
N255 N 0.19255 0.94848 0.90597 0.0
N256 N 0.19375 0.97215 0.91835 0.0
C257 C 0.17459 0.96476 0.94499 0.0
C258 C 0.1599 0.93472 0.94887 0.0
C259 C 0.16127 0.8943 0.91332 0.0
H260 H 0.16018 0.8921 0.88443 0.0
H261 H 0.17655 0.8877 0.92376 0.0
H262 H 0.13932 0.87945 0.92403 0.0
O263 O 0.21416 0.96963 0.82897 0.0
O264 O 0.21384 0.00921 0.84594 0.0
H265 H 0.15986 0.99492 0.95428 0.0
H266 H 0.16095 0.9761 0.99311 0.0
C267 C 0.17217 0.98617 0.96815 0.0
H268 H 0.19412 0.00439 0.97428 0.0
H269 H 0.17563 0.02584 0.88629 0.0
O270 O 0.20866 0.91337 0.85277 0.0
C271 C 0.21195 0.99173 0.82203 0.0
Co272 Co 0.05314 0.26757 0.87209 0.0
Co273 Co 0.99678 0.21165 0.8979 0.0
C274 C 1.00227 0.27143 0.89998 0.0
O275 O 0.02841 0.28444 0.88834 0.0
O276 O 0.98817 0.24388 0.90441 0.0
C277 C 0.1137 0.3191 0.86377 0.0
O278 O 0.11182 0.33198 0.89223 0.0
C279 C 0.9481 0.16849 0.94296 0.0
C280 C 0.94265 0.12775 0.92039 0.0
C281 C 0.93243 0.13837 0.94651 0.0
N282 N 0.96708 0.17521 0.91635 0.0
N283 N 0.96347 0.1507 0.90291 0.0
C284 C 0.94453 0.19045 0.96359 0.0
H285 H 0.94979 0.20964 0.94717 0.0
H286 H 0.95968 0.1978 0.98616 0.0
H287 H 0.922 0.18098 0.97363 0.0
C288 C 0.07991 0.24704 0.9249 0.0
N289 N 0.05671 0.24439 0.90734 0.0
N290 N 0.03306 0.22167 0.91937 0.0
C291 C 0.04042 0.20985 0.94598 0.0
C292 C 0.0704 0.2256 0.95037 0.0
C293 C 0.11083 0.26807 0.91552 0.0
H294 H 0.11349 0.26894 0.88669 0.0
H295 H 0.11668 0.28993 0.92541 0.0
H296 H 0.12595 0.26164 0.92698 0.0
O297 O 0.03638 0.2446 0.82988 0.0
O298 O 0.99693 0.20448 0.8466 0.0
H299 H 0.00923 0.16492 0.95311 0.0
H300 H 0.02899 0.18279 0.99249 0.0
C301 C 0.01891 0.1854 0.96837 0.0
H302 H 1.00132 0.18964 0.97611 0.0
H303 H 0.97558 0.14967 0.88201 0.0
O304 O 0.09207 0.29536 0.85396 0.0
C305 C 0.01462 0.2201 0.8228 0.0
Co306 Co 0.78592 0.73465 0.62622 0.0
Co307 Co 0.78491 0.79026 0.6 0.0
C308 C 0.73119 0.73025 0.59751 0.0
O309 O 0.74436 0.71736 0.60936 0.0
O310 O 0.74449 0.75779 0.59311 0.0
C311 C 0.79594 0.68375 0.63431 0.0
O312 O 0.78187 0.67126 0.60536 0.0
C313 C 0.77892 0.83336 0.55539 0.0
C314 C 0.81395 0.8741 0.57823 0.0
C315 C 0.79304 0.86349 0.55225 0.0
N316 N 0.7914 0.82662 0.58169 0.0
N317 N 0.81216 0.85112 0.59527 0.0
C318 C 0.75348 0.8114 0.53469 0.0
H319 H 0.73971 0.79204 0.55093 0.0
H320 H 0.76139 0.80438 0.51189 0.0
H321 H 0.74024 0.82077 0.52497 0.0
C322 C 0.83416 0.75623 0.57442 0.0
N323 N 0.81304 0.75831 0.59144 0.0
N324 N 0.81166 0.78069 0.57905 0.0
C325 C 0.83093 0.79268 0.55256 0.0
C326 C 0.84587 0.77755 0.54875 0.0
C327 C 0.84483 0.73599 0.58457 0.0
H328 H 0.84582 0.73496 0.61348 0.0
H329 H 0.82975 0.71401 0.57419 0.0
H330 H 0.86688 0.7433 0.57406 0.0
O331 O 0.79128 0.75746 0.66837 0.0
O332 O 0.79147 0.79728 0.65132 0.0
H333 H 0.84429 0.83738 0.54404 0.0
H334 H 0.84514 0.81853 0.505 0.0
C335 C 0.83313 0.81651 0.52956 0.0
H336 H 0.81107 0.81201 0.52261 0.0
H337 H 0.82539 0.85215 0.61604 0.0
O338 O 0.79737 0.7071 0.64459 0.0
C339 C 0.79348 0.78178 0.67526 0.0
Co340 Co 0.27066 0.052 0.62304 0.0
Co341 Co 0.21387 0.99507 0.6012 0.0
C342 C 0.27467 1.00159 0.59679 0.0
O343 O 0.28818 0.02802 0.6073 0.0
O344 O 0.24696 0.98748 0.59388 0.0
C345 C 0.3222 0.11323 0.63435 0.0
O346 O 0.33978 0.11064 0.61233 0.0
C347 C 0.17139 0.94853 0.5542 0.0
C348 C 0.13106 0.93382 0.58477 0.0
C349 C 0.14154 0.9292 0.55365 0.0
N350 N 0.17793 0.96399 0.58407 0.0
N351 N 0.15372 0.95496 0.6022 0.0
C352 C 0.19359 0.95155 0.52784 0.0
H353 H 0.21535 0.96116 0.54005 0.0
H354 H 0.19473 0.96623 0.50648 0.0
H355 H 0.18762 0.9301 0.51632 0.0
C356 C 0.2501 0.07655 0.56833 0.0
N357 N 0.24684 0.05392 0.58766 0.0
N358 N 0.22219 0.03063 0.57936 0.0
C359 C 0.20868 0.03794 0.5548 0.0
C360 C 0.22598 0.06732 0.54705 0.0
C361 C 0.27695 0.10583 0.56825 0.0
H362 H 0.27716 0.11791 0.59205 0.0
H363 H 0.29632 0.10316 0.56863 0.0
H364 H 0.27818 0.11867 0.54475 0.0
O365 O 0.24856 0.0356 0.66654 0.0
O366 O 0.20775 0.99602 0.65212 0.0
H367 H 0.16466 0.00365 0.5613 0.0
H368 H 0.16959 0.02958 0.52757 0.0
C369 C 0.17928 0.01758 0.54015 0.0
H370 H 0.18123 0.00345 0.52029 0.0
H371 H 0.1526 0.96346 0.6264 0.0
O372 O 0.29679 0.09209 0.63926 0.0
C373 C 0.2242 0.01409 0.67497 0.0
Co374 Co 0.95267 0.2186 0.628 0.0
Co375 Co 0.00841 0.2188 0.60066 0.0
C376 C 0.0035 0.27312 0.59854 0.0
O377 O 0.97759 0.26008 0.61091 0.0
O378 O 0.01756 0.25968 0.59373 0.0
C379 C 0.89233 0.20946 0.63529 0.0
O380 O 0.89412 0.22233 0.60525 0.0
C381 C 0.05745 0.2247 0.55655 0.0
C382 C 0.05794 0.185 0.57278 0.0
C383 C 0.07104 0.20854 0.55031 0.0
N384 N 0.03716 0.21112 0.58152 0.0
N385 N 0.03786 0.18762 0.5913 0.0
C386 C 0.0616 0.2509 0.53698 0.0
H387 H 0.04102 0.25145 0.53641 0.0
H388 H 0.06911 0.25104 0.50981 0.0
H389 H 0.07822 0.27071 0.55062 0.0
C390 C 0.92479 0.17014 0.57658 0.0
N391 N 0.94828 0.19127 0.59313 0.0
N392 N 0.97182 0.19284 0.57975 0.0
C393 C 0.96412 0.17394 0.55282 0.0
C394 C 0.934 0.1588 0.55002 0.0
C395 C 0.89409 0.15885 0.58818 0.0
H396 H 0.89301 0.15894 0.61716 0.0
H397 H 0.88601 0.17281 0.57726 0.0
H398 H 0.87971 0.13627 0.57902 0.0
O399 O 0.96974 0.21239 0.66981 0.0
O400 O 0.00891 0.21164 0.65201 0.0
H401 H 0.99375 0.1591 0.54048 0.0
H402 H 0.9751 0.16253 0.50289 0.0
C403 C 0.98531 0.17237 0.52835 0.0
H404 H 0.00374 0.19448 0.52338 0.0
H405 H 0.02399 0.17289 0.61002 0.0
O406 O 0.91413 0.20835 0.64669 0.0
C407 C 0.99156 0.20959 0.67625 0.0
Co408 Co 0.9369 0.55325 0.4577 0.0
Co409 Co 0.88 0.55278 0.43504 0.0
C410 C 0.94025 0.60745 0.43073 0.0
O411 O 0.95382 0.59471 0.44173 0.0
O412 O 0.91256 0.59368 0.4274 0.0
C413 C 0.98888 0.54427 0.46978 0.0
O414 O 0.00654 0.56454 0.44791 0.0
C415 C 0.8382 0.55833 0.389 0.0
C416 C 0.79663 0.52557 0.41283 0.0
C417 C 0.80826 0.54509 0.38538 0.0
N418 N 0.84395 0.54697 0.41726 0.0
N419 N 0.81901 0.52768 0.43158 0.0
C420 C 0.86095 0.57955 0.36459 0.0
H421 H 0.88065 0.5774 0.36573 0.0
H422 H 0.85261 0.57619 0.33733 0.0
H423 H 0.86703 0.60191 0.3728 0.0
C424 C 0.91723 0.50817 0.40303 0.0
N425 N 0.91353 0.52729 0.42231 0.0
N426 N 0.88906 0.526 0.41329 0.0
C427 C 0.87623 0.50567 0.38804 0.0
C428 C 0.89367 0.49365 0.38085 0.0
C429 C 0.94404 0.50569 0.40381 0.0
H430 H 0.94407 0.49419 0.42807 0.0
H431 H 0.96342 0.52772 0.40394 0.0
H432 H 0.94543 0.4937 0.3808 0.0
O433 O 0.91451 0.54735 0.50088 0.0
O434 O 0.87365 0.5459 0.4861 0.0
H435 H 0.83136 0.49301 0.39274 0.0
H436 H 0.83943 0.47772 0.35524 0.0
C437 C 0.8475 0.49737 0.37184 0.0
H438 H 0.84965 0.51566 0.35563 0.0
H439 H 0.81726 0.51529 0.45364 0.0
O440 O 0.96336 0.53979 0.47433 0.0
C441 C 0.89009 0.54443 0.50912 0.0
Co442 Co 0.45274 0.3859 0.45824 0.0
Co443 Co 0.45202 0.32922 0.43315 0.0
C444 C 0.39802 0.33529 0.43043 0.0
O445 O 0.41113 0.36148 0.44185 0.0
O446 O 0.41144 0.32114 0.42638 0.0
C447 C 0.46246 0.44684 0.4665 0.0
O448 O 0.44761 0.44516 0.43825 0.0
C449 C 0.44608 0.28033 0.38827 0.0
C450 C 0.47996 0.27336 0.41226 0.0
C451 C 0.45974 0.26386 0.38549 0.0
N452 N 0.45818 0.29905 0.41511 0.0
N453 N 0.47824 0.29455 0.42937 0.0
C454 C 0.42139 0.27772 0.3667 0.0
H455 H 0.4077 0.28379 0.38235 0.0
H456 H 0.43012 0.29273 0.34401 0.0
H457 H 0.40785 0.25523 0.35675 0.0
C458 C 0.50032 0.41218 0.40555 0.0
N459 N 0.47957 0.38911 0.42317 0.0
N460 N 0.4787 0.36535 0.41167 0.0
C461 C 0.49821 0.37252 0.38546 0.0
C462 C 0.51253 0.40247 0.38069 0.0
C463 C 0.51007 0.44317 0.4143 0.0
H464 H 0.51211 0.44618 0.44307 0.0
H465 H 0.49381 0.4487 0.40449 0.0
H466 H 0.53146 0.4583 0.40244 0.0
O467 O 0.45845 0.36894 0.50076 0.0
O468 O 0.45901 0.32936 0.48443 0.0
H469 H 0.51145 0.3408 0.38001 0.0
H470 H 0.51502 0.36085 0.34023 0.0
C471 C 0.50149 0.35084 0.36384 0.0
H472 H 0.4798 0.33351 0.35528 0.0
H473 H 0.49107 0.30626 0.45065 0.0
O474 O 0.46438 0.42504 0.47614 0.0
C475 C 0.46097 0.34707 0.50809 0.0
Co476 Co 0.61923 0.06985 0.46169 0.0
Co477 Co 0.67507 0.12536 0.4343 0.0
C478 C 0.67023 0.06621 0.43267 0.0
O479 O 0.64428 0.05338 0.44493 0.0
O480 O 0.6843 0.09369 0.42767 0.0
C481 C 0.55894 0.0186 0.46871 0.0
O482 O 0.56095 0.00755 0.43876 0.0
C483 C 0.72439 0.16849 0.39054 0.0
C484 C 0.72434 0.20861 0.40582 0.0
C485 C 0.73782 0.19818 0.38398 0.0
N486 N 0.7038 0.16178 0.4151 0.0
N487 N 0.70418 0.18594 0.42433 0.0
C488 C 0.72899 0.14647 0.37163 0.0
H489 H 0.70841 0.12536 0.37052 0.0
H490 H 0.73719 0.15389 0.34466 0.0
H491 H 0.74523 0.14322 0.38612 0.0
C492 C 0.5915 0.0903 0.40995 0.0
N493 N 0.61494 0.09272 0.42667 0.0
N494 N 0.63851 0.11464 0.41324 0.0
C495 C 0.63088 0.12572 0.38611 0.0
C496 C 0.60076 0.11071 0.38323 0.0
C497 C 0.56077 0.07093 0.4215 0.0
H498 H 0.55963 0.06982 0.45047 0.0
H499 H 0.55267 0.04886 0.41066 0.0
H500 H 0.54643 0.07914 0.4122 0.0
O501 O 0.63625 0.09316 0.50342 0.0
O502 O 0.67551 0.13302 0.48561 0.0
H503 H 0.66036 0.17013 0.37332 0.0
H504 H 0.64198 0.14767 0.3359 0.0
C505 C 0.65211 0.14833 0.36153 0.0
H506 H 0.67066 0.14477 0.35696 0.0
H507 H 0.69004 0.18678 0.44265 0.0
O508 O 0.58064 0.04153 0.48024 0.0
C509 C 0.65812 0.11775 0.50984 0.0
Co510 Co 0.88644 0.60263 0.70569 0.0
Co511 Co 0.88755 0.54695 0.7314 0.0
C512 C 0.9412 0.60719 0.73416 0.0
O513 O 0.928 0.62009 0.72245 0.0
O514 O 0.92793 0.57963 0.73836 0.0
C515 C 0.87645 0.65359 0.69728 0.0
O516 O 0.89109 0.66657 0.72573 0.0
C517 C 0.89373 0.5041 0.7763 0.0
C518 C 0.85955 0.46322 0.75276 0.0
C519 C 0.88003 0.47397 0.77923 0.0
N520 N 0.88143 0.51068 0.74965 0.0
N521 N 0.86118 0.48609 0.73565 0.0
C522 C 0.91866 0.52623 0.79753 0.0
H523 H 0.9323 0.54587 0.78163 0.0
H524 H 0.91017 0.53273 0.82025 0.0
H525 H 0.93219 0.51725 0.80739 0.0
C526 C 0.83859 0.5811 0.75799 0.0
N527 N 0.85951 0.57892 0.7406 0.0
N528 N 0.86061 0.55623 0.75244 0.0
C529 C 0.84114 0.54394 0.7787 0.0
C530 C 0.82656 0.55936 0.7831 0.0
C531 C 0.82853 0.60202 0.74881 0.0
H532 H 0.82678 0.60299 0.71999 0.0
H533 H 0.84443 0.62388 0.75878 0.0
H534 H 0.80694 0.59544 0.76028 0.0
O535 O 0.88117 0.5799 0.66339 0.0
O536 O 0.88105 0.54003 0.68007 0.0
H537 H 0.82803 0.4991 0.78511 0.0
H538 H 0.82503 0.51621 0.82462 0.0
C539 C 0.83823 0.51937 0.8008 0.0
H540 H 0.86005 0.52388 0.809 0.0
H541 H 0.84818 0.48494 0.71455 0.0
O542 O 0.87469 0.62998 0.68744 0.0
C543 C 0.87904 0.55564 0.65627 0.0
Co544 Co 0.40154 0.28484 0.70401 0.0
Co545 Co 0.4573 0.34088 0.7302 0.0
C546 C 0.39784 0.33562 0.7331 0.0
O547 O 0.38478 0.30959 0.7211 0.0
O548 O 0.42538 0.34967 0.7374 0.0
C549 C 0.34993 0.22405 0.69487 0.0
O550 O 0.33607 0.22564 0.72254 0.0
C551 C 0.50016 0.39001 0.77409 0.0
C552 C 0.54071 0.39189 0.75647 0.0
C553 C 0.53001 0.40425 0.77968 0.0
N554 N 0.49366 0.37006 0.74879 0.0
N555 N 0.51805 0.37158 0.73817 0.0
C556 C 0.4779 0.39318 0.79456 0.0
H557 H 0.45701 0.37234 0.79492 0.0
H558 H 0.48537 0.40021 0.82181 0.0
H559 H 0.47423 0.40983 0.78179 0.0
C560 C 0.42231 0.25753 0.75578 0.0
N561 N 0.42479 0.28091 0.73878 0.0
N562 N 0.44716 0.3045 0.75138 0.0
C563 C 0.45869 0.29696 0.7781 0.0
C564 C 0.44338 0.26687 0.78169 0.0
C565 C 0.40184 0.22673 0.74541 0.0
H566 H 0.40137 0.22479 0.7165 0.0
H567 H 0.37975 0.22024 0.75506 0.0
H568 H 0.40854 0.21164 0.75631 0.0
O569 O 0.42443 0.30197 0.66177 0.0
O570 O 0.46452 0.34124 0.67884 0.0
H571 H 0.50343 0.32699 0.78841 0.0
H572 H 0.48271 0.30828 0.82691 0.0
C573 C 0.48212 0.31833 0.80169 0.0
H574 H 0.47838 0.33662 0.80734 0.0
H575 H 0.5191 0.35812 0.71903 0.0
O576 O 0.37391 0.24585 0.68593 0.0
C577 C 0.44894 0.32382 0.65487 0.0
Co578 Co 0.72063 0.11974 0.70481 0.0
Co579 Co 0.66432 0.11898 0.73136 0.0
C580 C 0.67002 0.06492 0.73325 0.0
O581 O 0.69608 0.0781 0.72139 0.0
O582 O 0.65586 0.07828 0.7378 0.0
C583 C 0.78123 0.12936 0.6976 0.0
O584 O 0.77938 0.11593 0.72722 0.0
C585 C 0.61536 0.11307 0.77618 0.0
C586 C 0.60985 0.14833 0.75359 0.0
C587 C 0.59947 0.12729 0.77947 0.0
N588 N 0.6346 0.1256 0.74986 0.0
N589 N 0.63097 0.1465 0.73644 0.0
C590 C 0.61171 0.08747 0.79675 0.0
H591 H 0.61711 0.07364 0.78037 0.0
H592 H 0.6267 0.09521 0.81947 0.0
H593 H 0.58912 0.07434 0.8066 0.0
C594 C 0.7476 0.16785 0.75674 0.0
N595 N 0.72434 0.14676 0.73984 0.0
N596 N 0.70064 0.14529 0.75256 0.0
C597 C 0.70801 0.1644 0.77922 0.0
C598 C 0.7381 0.17937 0.78275 0.0
C599 C 0.77846 0.17889 0.74599 0.0
H600 H 0.78011 0.17939 0.71705 0.0
H601 H 0.78595 0.1644 0.75675 0.0
H602 H 0.79297 0.20122 0.75585 0.0
O603 O 0.70369 0.12588 0.66275 0.0
O604 O 0.66433 0.12644 0.68014 0.0
H605 H 0.67695 0.178 0.78842 0.0
H606 H 0.69649 0.1781 0.82724 0.0
C607 C 0.68647 0.16648 0.80251 0.0
H608 H 0.66876 0.14438 0.80913 0.0
H609 H 0.64322 0.1598 0.7157 0.0
O610 O 0.75944 0.13063 0.68649 0.0
C611 C 0.68187 0.12863 0.65609 0.0
Co612 Co 0.4016 0.11721 0.20735 0.0
Co613 Co 0.45837 0.11748 0.23014 0.0
C614 C 0.39798 0.06307 0.23494 0.0
O615 O 0.38446 0.07581 0.22375 0.0
O616 O 0.42568 0.07677 0.23821 0.0
C617 C 0.34989 0.12659 0.19505 0.0
O618 O 0.33213 0.10637 0.21691 0.0
C619 C 0.50037 0.11214 0.27603 0.0
C620 C 0.54179 0.1447 0.25167 0.0
C621 C 0.53033 0.12538 0.27933 0.0
N622 N 0.49444 0.12332 0.24772 0.0
N623 N 0.5193 0.14248 0.23309 0.0
C624 C 0.47778 0.09111 0.30073 0.0
H625 H 0.45806 0.09322 0.29965 0.0
H626 H 0.48629 0.09469 0.32791 0.0
H627 H 0.47168 0.06869 0.29276 0.0
C628 C 0.42156 0.16258 0.26171 0.0
N629 N 0.42514 0.14334 0.24254 0.0
N630 N 0.4496 0.14458 0.25152 0.0
C631 C 0.46256 0.16501 0.27664 0.0
C632 C 0.4452 0.17714 0.28379 0.0
C633 C 0.39478 0.1651 0.26102 0.0
H634 H 0.39475 0.17663 0.23679 0.0
H635 H 0.37538 0.14308 0.26089 0.0
H636 H 0.39343 0.17708 0.28406 0.0
O637 O 0.42387 0.12262 0.16414 0.0
O638 O 0.46456 0.12379 0.17907 0.0
H639 H 0.50735 0.17741 0.27183 0.0
H640 H 0.49952 0.19305 0.30916 0.0
C641 C 0.4913 0.17327 0.29277 0.0
H642 H 0.48909 0.15505 0.30917 0.0
H643 H 0.52091 0.15471 0.21093 0.0
O644 O 0.37536 0.1309 0.19055 0.0
C645 C 0.44816 0.1252 0.15598 0.0
Co646 Co 0.88678 0.28511 0.20645 0.0
Co647 Co 0.88774 0.34198 0.23148 0.0
C648 C 0.94139 0.33524 0.23503 0.0
O649 O 0.92829 0.30913 0.22334 0.0
O650 O 0.92806 0.34951 0.23896 0.0
C651 C 0.87753 0.22417 0.19621 0.0
O652 O 0.89511 0.22626 0.22163 0.0
C653 C 0.89344 0.39073 0.27646 0.0
C654 C 0.86009 0.39814 0.25178 0.0
C655 C 0.87991 0.40734 0.27897 0.0
N656 N 0.88165 0.37223 0.24937 0.0
N657 N 0.86191 0.377 0.23469 0.0
C658 C 0.91774 0.39299 0.29853 0.0
H659 H 0.93143 0.3867 0.28323 0.0
H660 H 0.9086 0.37797 0.32116 0.0
H661 H 0.93137 0.41543 0.30858 0.0
C662 C 0.83934 0.25904 0.25898 0.0
N663 N 0.85996 0.28213 0.24127 0.0
N664 N 0.86059 0.30583 0.25248 0.0
C665 C 0.84088 0.29861 0.27848 0.0
C666 C 0.82678 0.26868 0.28348 0.0
C667 C 0.83041 0.22813 0.25085 0.0
H668 H 0.8269 0.22444 0.22227 0.0
H669 H 0.84792 0.22383 0.25898 0.0
H670 H 0.80996 0.21258 0.26427 0.0
O671 O 0.8818 0.30254 0.1638 0.0
O672 O 0.88167 0.34237 0.18008 0.0
H673 H 0.82784 0.33053 0.28319 0.0
H674 H 0.82324 0.31017 0.323 0.0
C675 C 0.8373 0.32024 0.2998 0.0
H676 H 0.85885 0.33742 0.30899 0.0
H677 H 0.84934 0.36549 0.21315 0.0
O678 O 0.87429 0.24565 0.18891 0.0
C679 C 0.87983 0.32472 0.15642 0.0
Co680 Co 0.72011 0.60172 0.20298 0.0
Co681 Co 0.66419 0.54616 0.23013 0.0
C682 C 0.66915 0.60538 0.23233 0.0
O683 O 0.6951 0.61825 0.22003 0.0
O684 O 0.65507 0.57787 0.23712 0.0
C685 C 0.78061 0.65286 0.19602 0.0
O686 O 0.77871 0.66392 0.22602 0.0
C687 C 0.6149 0.50295 0.27385 0.0
C688 C 0.61455 0.46277 0.25784 0.0
C689 C 0.60129 0.47319 0.28008 0.0
N690 N 0.63536 0.50969 0.2491 0.0
N691 N 0.63474 0.48551 0.23944 0.0
C692 C 0.61061 0.52497 0.29324 0.0
H693 H 0.63122 0.54606 0.29415 0.0
H694 H 0.60274 0.5175 0.32029 0.0
H695 H 0.59421 0.52829 0.27924 0.0
C696 C 0.74771 0.58094 0.2546 0.0
N697 N 0.72432 0.57863 0.23786 0.0
N698 N 0.70071 0.55668 0.25115 0.0
C699 C 0.70826 0.54544 0.27819 0.0
C700 C 0.73837 0.56038 0.28117 0.0
C701 C 0.77848 0.60037 0.24323 0.0
H702 H 0.77972 0.60159 0.21426 0.0
H703 H 0.78651 0.62239 0.25418 0.0
H704 H 0.7928 0.59214 0.25254 0.0
O705 O 0.70302 0.57856 0.16105 0.0
O706 O 0.66372 0.5387 0.17877 0.0
H707 H 0.67854 0.50099 0.29058 0.0
H708 H 0.69704 0.52313 0.32818 0.0
C709 C 0.68695 0.52273 0.30262 0.0
H710 H 0.66851 0.52643 0.30737 0.0
H711 H 0.64874 0.48467 0.2209 0.0
O712 O 0.75882 0.63 0.18448 0.0
C713 C 0.68109 0.55402 0.15455 0.0
Co714 Co 0.4523 0.06854 0.95724 0.0
Co715 Co 0.45249 0.12531 0.93439 0.0
C716 C 0.39824 0.0648 0.92972 0.0
O717 O 0.41102 0.05133 0.9409 0.0
O718 O 0.41186 0.0925 0.9264 0.0
C719 C 0.46083 0.01646 0.96959 0.0
O720 O 0.44007 0.99883 0.94827 0.0
C721 C 0.44658 0.1671 0.8886 0.0
C722 C 0.47956 0.20868 0.9121 0.0
C723 C 0.45979 0.19705 0.88497 0.0
N724 N 0.4582 0.16134 0.91659 0.0
N725 N 0.47761 0.18629 0.93072 0.0
C726 C 0.42505 0.14437 0.86451 0.0
H727 H 0.42744 0.1248 0.86504 0.0
H728 H 0.42781 0.15283 0.83734 0.0
H729 H 0.4028 0.13803 0.87354 0.0
C730 C 0.49762 0.08853 0.90284 0.0
N731 N 0.47841 0.09212 0.92206 0.0
N732 N 0.47968 0.11661 0.91309 0.0
C733 C 0.50014 0.1296 0.88796 0.0
C734 C 0.51224 0.11221 0.88077 0.0
C735 C 0.50002 0.06166 0.9035 0.0
H736 H 0.51166 0.06162 0.9276 0.0
H737 H 0.47798 0.04229 0.9039 0.0
H738 H 0.51182 0.06021 0.88032 0.0
O739 O 0.45753 0.09073 0.0004 0.0
O740 O 0.45861 0.13143 0.98551 0.0
H741 H 0.5128 0.17445 0.89292 0.0
H742 H 0.52815 0.16661 0.85532 0.0
C743 C 0.50847 0.15842 0.87192 0.0
H744 H 0.4902 0.15636 0.85578 0.0
H745 H 0.49017 0.18803 0.95257 0.0
O746 O 0.46582 0.04218 0.97394 0.0
C747 C 0.45998 0.11497 0.00859 0.0
Co748 Co 0.93787 0.38517 0.95726 0.0
Co749 Co 0.88085 0.32882 0.93503 0.0
C750 C 0.94106 0.33432 0.9302 0.0
O751 O 0.95472 0.36063 0.94119 0.0
O752 O 0.91335 0.32043 0.92703 0.0
C753 C 0.99043 0.44572 0.97175 0.0
O754 O 0.0101 0.44191 0.95559 0.0
C755 C 0.83847 0.28129 0.88965 0.0
C756 C 0.79719 0.27329 0.91356 0.0
C757 C 0.80849 0.26492 0.88624 0.0
N758 N 0.84457 0.29869 0.91768 0.0
N759 N 0.81979 0.29351 0.93205 0.0
C760 C 0.86094 0.2822 0.86526 0.0
H761 H 0.88077 0.30398 0.86591 0.0
H762 H 0.8524 0.27685 0.83811 0.0
H763 H 0.86688 0.26592 0.8739 0.0
C764 C 0.91834 0.41048 0.90257 0.0
N765 N 0.91447 0.38767 0.92197 0.0
N766 N 0.88985 0.36458 0.91318 0.0
C767 C 0.87705 0.37215 0.88796 0.0
C768 C 0.8947 0.40157 0.88055 0.0
C769 C 0.94534 0.43967 0.90316 0.0
H770 H 0.96463 0.4369 0.90481 0.0
H771 H 0.94729 0.45251 0.87937 0.0
H772 H 0.94493 0.45181 0.92658 0.0
O773 O 0.91582 0.36892 0.00081 0.0
O774 O 0.87492 0.3295 0.98617 0.0
H775 H 0.84014 0.36348 0.85545 0.0
H776 H 0.84999 0.33547 0.85595 0.0
C777 C 0.84815 0.35184 0.87206 0.0
H778 H 0.8321 0.34031 0.89314 0.0
H779 H 0.81833 0.30446 0.95395 0.0
O780 O 0.96425 0.42534 0.97273 0.0
C781 C 0.89144 0.34739 0.00915 0.0
Co782 Co 0.61881 0.55157 0.95922 0.0
Co783 Co 0.67471 0.55155 0.93292 0.0
C784 C 0.67011 0.60613 0.9308 0.0
O785 O 0.64405 0.59315 0.94273 0.0
O786 O 0.68406 0.59255 0.92616 0.0
C787 C 0.55834 0.54264 0.96694 0.0
O788 O 0.56012 0.5564 0.93762 0.0
C789 C 0.72397 0.55753 0.88937 0.0
C790 C 0.72499 0.51827 0.90642 0.0
C791 C 0.73788 0.54161 0.88364 0.0
N792 N 0.70369 0.54401 0.91434 0.0
N793 N 0.70471 0.52078 0.92463 0.0
C794 C 0.72783 0.58343 0.86934 0.0
H795 H 0.70713 0.58372 0.86857 0.0
H796 H 0.73539 0.58338 0.84223 0.0
H797 H 0.74433 0.60344 0.88275 0.0
C798 C 0.59142 0.50389 0.90671 0.0
N799 N 0.61473 0.52458 0.924 0.0
N800 N 0.63833 0.5257 0.91148 0.0
C801 C 0.63085 0.50671 0.88467 0.0
C802 C 0.60083 0.49219 0.88084 0.0
C803 C 0.56055 0.49351 0.91679 0.0
H804 H 0.55844 0.49252 0.94569 0.0
H805 H 0.5539 0.50874 0.90628 0.0
H806 H 0.54568 0.47152 0.90625 0.0
O807 O 0.63549 0.5451 0.00136 0.0
O808 O 0.67472 0.54422 0.98418 0.0
H809 H 0.66059 0.49152 0.87499 0.0
H810 H 0.64216 0.49343 0.83626 0.0
C811 C 0.65219 0.50425 0.86139 0.0
H812 H 0.67064 0.52618 0.85559 0.0
H813 H 0.69092 0.50615 0.94349 0.0
O814 O 0.58006 0.54102 0.97754 0.0
C815 C 0.65721 0.54222 0.00816 0.0
Co816 Co 0.60455 0.8863 0.79233 0.0
Co817 Co 0.5487 0.88657 0.76663 0.0
C818 C 0.6083 0.94081 0.76356 0.0
O819 O 0.62139 0.92785 0.77548 0.0
O820 O 0.58073 0.92729 0.75933 0.0
C821 C 0.65617 0.8771 0.80162 0.0
O822 O 0.67043 0.89304 0.77443 0.0
C823 C 0.50587 0.89278 0.7227 0.0
C824 C 0.46521 0.85468 0.7412 0.0
C825 C 0.47599 0.87738 0.71745 0.0
N826 N 0.51235 0.87956 0.74831 0.0
N827 N 0.48789 0.85705 0.75947 0.0
C828 C 0.52817 0.91778 0.70165 0.0
H829 H 0.54896 0.91763 0.70143 0.0
H830 H 0.52057 0.91694 0.67438 0.0
H831 H 0.53208 0.93837 0.71385 0.0
C832 C 0.58393 0.83866 0.73997 0.0
N833 N 0.58132 0.85932 0.75736 0.0
N834 N 0.55862 0.86022 0.74533 0.0
C835 C 0.54679 0.84096 0.71883 0.0
C836 C 0.56242 0.82659 0.71463 0.0
C837 C 0.60508 0.82894 0.74933 0.0
H838 H 0.60549 0.82666 0.77814 0.0
H839 H 0.62704 0.84537 0.74013 0.0
H840 H 0.59914 0.80767 0.73741 0.0
O841 O 0.58171 0.88048 0.83477 0.0
O842 O 0.54161 0.87972 0.81793 0.0
H843 H 0.50177 0.8262 0.7107 0.0
H844 H 0.5209 0.8264 0.67147 0.0
C845 C 0.52256 0.83812 0.69616 0.0
H846 H 0.52627 0.85998 0.68945 0.0
H847 H 0.48681 0.84276 0.77895 0.0
O848 O 0.63204 0.8747 0.81022 0.0
C849 C 0.55724 0.87787 0.84181 0.0
Co850 Co 0.11971 0.71966 0.79361 0.0
Co851 Co 0.11904 0.66339 0.76716 0.0
C852 C 0.06523 0.66925 0.76402 0.0
O853 O 0.07826 0.69519 0.77628 0.0
O854 O 0.07859 0.65508 0.75957 0.0
C855 C 0.12953 0.78045 0.80142 0.0
O856 O 0.11567 0.7787 0.77223 0.0
C857 C 0.11252 0.61403 0.72346 0.0
C858 C 0.15116 0.61208 0.74095 0.0
C859 C 0.12802 0.59969 0.71789 0.0
N860 N 0.12607 0.63409 0.74861 0.0
N861 N 0.14891 0.63251 0.75916 0.0
C862 C 0.08701 0.61078 0.70315 0.0
H863 H 0.08723 0.63175 0.70225 0.0
H864 H 0.08708 0.60318 0.67609 0.0
H865 H 0.06675 0.59455 0.71642 0.0
C866 C 0.16809 0.74677 0.74185 0.0
N867 N 0.14705 0.7235 0.75892 0.0
N868 N 0.14572 0.69981 0.74642 0.0
C869 C 0.16493 0.70719 0.71982 0.0
C870 C 0.17981 0.73724 0.71613 0.0
C871 C 0.17862 0.77768 0.75185 0.0
H872 H 0.17956 0.77977 0.78075 0.0
H873 H 0.16351 0.78446 0.7413 0.0
H874 H 0.20066 0.79245 0.74131 0.0
O875 O 0.12488 0.70201 0.8358 0.0
O876 O 0.12509 0.66244 0.81852 0.0
H877 H 0.1794 0.67687 0.71012 0.0
H878 H 0.17827 0.69585 0.67147 0.0
C879 C 0.16712 0.68576 0.69646 0.0
H880 H 0.1451 0.66763 0.69038 0.0
H881 H 0.16348 0.64601 0.77821 0.0
O882 O 0.1309 0.75858 0.81209 0.0
C883 C 0.12693 0.67978 0.84258 0.0
Co884 Co 0.28517 0.40136 0.7931 0.0
Co885 Co 0.3412 0.45721 0.76701 0.0
C886 C 0.33602 0.39772 0.76434 0.0
O887 O 0.30998 0.38466 0.77627 0.0
O888 O 0.35008 0.42528 0.76 0.0
C889 C 0.22465 0.34985 0.80117 0.0
O890 O 0.22646 0.33738 0.7723 0.0
C891 C 0.3903 0.49992 0.72283 0.0
C892 C 0.39268 0.54065 0.74065 0.0
C893 C 0.40474 0.52979 0.71722 0.0
N894 N 0.37051 0.49355 0.74834 0.0
N895 N 0.37234 0.51805 0.75908 0.0
C896 C 0.39314 0.47753 0.70221 0.0
H897 H 0.37219 0.45675 0.70196 0.0
H898 H 0.40011 0.48502 0.67492 0.0
H899 H 0.4097 0.47364 0.71478 0.0
C900 C 0.25798 0.42197 0.74078 0.0
N901 N 0.28126 0.42451 0.75806 0.0
N902 N 0.30489 0.44705 0.74569 0.0
C903 C 0.29746 0.45875 0.71903 0.0
C904 C 0.26745 0.44325 0.7151 0.0
C905 C 0.2271 0.40127 0.75062 0.0
H906 H 0.22481 0.40025 0.7795 0.0
H907 H 0.22075 0.37939 0.74037 0.0
H908 H 0.21212 0.40813 0.73975 0.0
O909 O 0.30205 0.42434 0.83535 0.0
O910 O 0.3413 0.4645 0.8183 0.0
H911 H 0.32768 0.50368 0.71002 0.0
H912 H 0.30881 0.48402 0.6711 0.0
C913 C 0.31887 0.4827 0.69596 0.0
H914 H 0.33704 0.47894 0.6896 0.0
H915 H 0.35907 0.51922 0.7784 0.0
O916 O 0.24634 0.3734 0.81134 0.0
C917 C 0.3238 0.4489 0.84225 0.0
Co918 Co 0.55216 0.93534 0.03869 0.0
Co919 Co 0.55319 0.87948 0.06354 0.0
C920 C 0.60698 0.9398 0.06627 0.0
O921 O 0.59379 0.95282 0.05494 0.0
O922 O 0.59366 0.91221 0.07027 0.0
C923 C 0.54309 0.9871 0.02899 0.0
O924 O 0.56075 0.00243 0.05444 0.0
C925 C 0.55962 0.83687 0.10846 0.0
C926 C 0.52593 0.79585 0.08464 0.0
C927 C 0.54619 0.80676 0.11135 0.0
N928 N 0.54735 0.84329 0.08161 0.0
N929 N 0.52741 0.81862 0.06744 0.0
C930 C 0.58425 0.85915 0.12993 0.0
H931 H 0.59781 0.87888 0.11417 0.0
H932 H 0.57544 0.86541 0.15255 0.0
H933 H 0.59794 0.8504 0.13995 0.0
C934 C 0.50526 0.9143 0.09191 0.0
N935 N 0.52567 0.91172 0.0739 0.0
N936 N 0.52639 0.88868 0.08512 0.0
C937 C 0.50696 0.87635 0.11142 0.0
C938 C 0.49295 0.89225 0.11662 0.0
C939 C 0.49622 0.9362 0.08383 0.0
H940 H 0.49262 0.93636 0.05527 0.0
H941 H 0.5137 0.95805 0.09192 0.0
H942 H 0.47579 0.93125 0.09734 0.0
O943 O 0.54664 0.91279 0.99604 0.0
O944 O 0.54631 0.87272 0.01225 0.0
H945 H 0.49378 0.83137 0.1163 0.0
H946 H 0.48976 0.84739 0.15622 0.0
C947 C 0.50353 0.85121 0.13277 0.0
H948 H 0.52516 0.85552 0.14156 0.0
H949 H 0.5145 0.81734 0.04618 0.0
O950 O 0.53974 0.96239 0.02144 0.0
C951 C 0.54433 0.8885 0.98864 0.0
Co952 Co 0.06836 0.61829 0.04122 0.0
Co953 Co 0.12514 0.67488 0.06351 0.0
C954 C 0.06475 0.66897 0.06788 0.0
O955 O 0.05121 0.64262 0.05703 0.0
O956 O 0.09245 0.683 0.07111 0.0
C957 C 0.01604 0.55763 0.02688 0.0
O958 O 0.99636 0.56144 0.04301 0.0
C959 C 0.16721 0.72272 0.10879 0.0
C960 C 0.20861 0.73118 0.08477 0.0
C961 C 0.19719 0.73943 0.11208 0.0
N962 N 0.16125 0.70528 0.08083 0.0
N963 N 0.18609 0.71073 0.06639 0.0
C964 C 0.14466 0.72156 0.13324 0.0
H965 H 0.1249 0.69973 0.13247 0.0
H966 H 0.15317 0.72681 0.1604 0.0
H967 H 0.13862 0.7378 0.12477 0.0
C968 C 0.08804 0.59335 0.09622 0.0
N969 N 0.0918 0.61606 0.0767 0.0
N970 N 0.11629 0.63927 0.08554 0.0
C971 C 0.12914 0.63189 0.1109 0.0
C972 C 0.11164 0.60247 0.11836 0.0
C973 C 0.06118 0.56406 0.0956 0.0
H974 H 0.06174 0.55195 0.07221 0.0
H975 H 0.04178 0.56664 0.09385 0.0
H976 H 0.05928 0.55126 0.11942 0.0
O977 O 0.09049 0.63456 0.99771 0.0
O978 O 0.13125 0.67406 0.01251 0.0
H979 H 0.174 0.66407 0.10585 0.0
H980 H 0.16609 0.64089 0.14351 0.0
C981 C 0.15795 0.65239 0.12688 0.0
H982 H 0.15588 0.66863 0.14298 0.0
H983 H 0.18767 0.69982 0.04451 0.0
O984 O 0.0422 0.57804 0.02581 0.0
C985 C 0.11487 0.65614 0.98948 0.0
Co986 Co 0.38689 0.453 0.03716 0.0
Co987 Co 0.33106 0.45273 0.06442 0.0
C988 C 0.33612 0.39849 0.06686 0.0
O989 O 0.36203 0.41152 0.05447 0.0
O990 O 0.32205 0.41193 0.07159 0.0
C991 C 0.4474 0.46246 0.02966 0.0
O992 O 0.44572 0.44949 0.05959 0.0
C993 C 0.28192 0.44674 0.10841 0.0
C994 C 0.28144 0.48647 0.09227 0.0
C995 C 0.26831 0.46287 0.11466 0.0
N996 N 0.30226 0.46038 0.08351 0.0
N997 N 0.30157 0.48389 0.07378 0.0
C998 C 0.27775 0.4205 0.12791 0.0
H999 H 0.29838 0.42006 0.12869 0.0
H1000 H 0.27004 0.42022 0.15502 0.0
H1001 H 0.26128 0.40072 0.11409 0.0
C1002 C 0.41468 0.50157 0.08848 0.0
N1003 N 0.39122 0.48044 0.07188 0.0
N1004 N 0.36766 0.47885 0.08523 0.0
C1005 C 0.37532 0.49774 0.11218 0.0
C1006 C 0.40545 0.51289 0.11504 0.0
C1007 C 0.4454 0.51283 0.07697 0.0
H1008 H 0.44654 0.51284 0.048 0.0
H1009 H 0.45341 0.49879 0.08785 0.0
H1010 H 0.4598 0.53537 0.08624 0.0
O1011 O 0.3696 0.45882 0.99526 0.0
O1012 O 0.33038 0.4595 0.01298 0.0
H1013 H 0.34566 0.51251 0.12461 0.0
H1014 H 0.36428 0.509 0.16217 0.0
C1015 C 0.3541 0.49922 0.13668 0.0
H1016 H 0.33567 0.4771 0.14157 0.0
H1017 H 0.31547 0.49867 0.05512 0.0
O1018 O 0.4255 0.46347 0.01842 0.0
C1019 C 0.34767 0.4614 0.98874 0.0
Co1020 Co 0.06809 0.45163 0.53935 0.0
Co1021 Co 0.12413 0.45154 0.56484 0.0
C1022 C 0.06463 0.39715 0.56782 0.0
O1023 O 0.0514 0.41005 0.5561 0.0
O1024 O 0.0922 0.41076 0.57197 0.0
C1025 C 0.0163 0.46073 0.52982 0.0
O1026 O 1.00167 0.44436 0.55658 0.0
C1027 C 0.16697 0.44517 0.60853 0.0
C1028 C 0.20762 0.48353 0.59046 0.0
C1029 C 0.19684 0.46061 0.6139 0.0
N1030 N 0.16051 0.45858 0.58314 0.0
N1031 N 0.18495 0.48125 0.57224 0.0
C1032 C 0.14468 0.41995 0.62927 0.0
H1033 H 0.12392 0.42015 0.6298 0.0
H1034 H 0.1523 0.42042 0.65645 0.0
H1035 H 0.1407 0.39949 0.61659 0.0
C1036 C 0.08859 0.49909 0.59189 0.0
N1037 N 0.09131 0.47855 0.57436 0.0
N1038 N 0.11408 0.47772 0.58631 0.0
C1039 C 0.12586 0.49693 0.61287 0.0
C1040 C 0.11012 0.51118 0.6172 0.0
C1041 C 0.0673 0.50866 0.58267 0.0
H1042 H 0.06701 0.51121 0.5539 0.0
H1043 H 0.04535 0.492 0.59161 0.0
H1044 H 0.07301 0.52977 0.59488 0.0
O1045 O 0.09092 0.45754 0.49686 0.0
O1046 O 0.13115 0.4585 0.51357 0.0
H1047 H 0.17093 0.51195 0.62097 0.0
H1048 H 0.1517 0.51138 0.66027 0.0
C1049 C 0.15015 0.49982 0.63547 0.0
H1050 H 0.1466 0.47798 0.64198 0.0
H1051 H 0.18604 0.49569 0.55296 0.0
O1052 O 0.04059 0.46333 0.52161 0.0
C1053 C 0.11543 0.46026 0.48975 0.0
Co1054 Co 0.55272 0.61812 0.53805 0.0
Co1055 Co 0.55332 0.6743 0.56453 0.0
C1056 C 0.60715 0.6684 0.56774 0.0
O1057 O 0.59412 0.64248 0.55544 0.0
O1058 O 0.59378 0.68258 0.57218 0.0
C1059 C 0.54312 0.55742 0.52946 0.0
O1060 O 0.55728 0.55896 0.55832 0.0
C1061 C 0.55984 0.72358 0.60841 0.0
C1062 C 0.52121 0.72558 0.591 0.0
C1063 C 0.54435 0.73793 0.61406 0.0
N1064 N 0.54628 0.70357 0.58321 0.0
N1065 N 0.52344 0.70517 0.57272 0.0
C1066 C 0.58535 0.72678 0.62868 0.0
H1067 H 0.58509 0.70579 0.62956 0.0
H1068 H 0.58531 0.73438 0.65575 0.0
H1069 H 0.60561 0.74299 0.61539 0.0
C1070 C 0.50443 0.59086 0.58982 0.0
N1071 N 0.52537 0.61418 0.57272 0.0
N1072 N 0.52659 0.63782 0.58522 0.0
C1073 C 0.50739 0.63035 0.61184 0.0
C1074 C 0.49264 0.6003 0.61556 0.0
C1075 C 0.49415 0.55999 0.57987 0.0
H1076 H 0.49298 0.55783 0.55098 0.0
H1077 H 0.50957 0.55349 0.59013 0.0
H1078 H 0.47226 0.54504 0.59066 0.0
O1079 O 0.54764 0.63583 0.49589 0.0
O1080 O 0.54735 0.67537 0.5131 0.0
H1081 H 0.49281 0.66058 0.62157 0.0
H1082 H 0.49397 0.6416 0.66021 0.0
C1083 C 0.50511 0.65173 0.63524 0.0
H1084 H 0.52711 0.66989 0.64134 0.0
H1085 H 0.50886 0.69171 0.55366 0.0
O1086 O 0.54152 0.5793 0.5194 0.0
C1087 C 0.54558 0.65804 0.48905 0.0
Co1088 Co 0.38705 0.93536 0.53756 0.0
Co1089 Co 0.33116 0.87967 0.56422 0.0
C1090 C 0.33608 0.93897 0.56625 0.0
O1091 O 0.36208 0.95195 0.55416 0.0
O1092 O 0.32208 0.91145 0.57095 0.0
C1093 C 0.44735 0.98681 0.53016 0.0
O1094 O 0.44527 0.99845 0.5596 0.0
C1095 C 0.28224 0.83715 0.60864 0.0
C1096 C 0.27992 0.79636 0.5912 0.0
C1097 C 0.26783 0.80732 0.61447 0.0
N1098 N 0.30201 0.84341 0.58316 0.0
N1099 N 0.30023 0.81888 0.57265 0.0
C1100 C 0.27937 0.85963 0.62903 0.0
H1101 H 0.30031 0.88042 0.62919 0.0
H1102 H 0.2724 0.85228 0.65635 0.0
H1103 H 0.26281 0.86345 0.61633 0.0
C1104 C 0.4145 0.915 0.58991 0.0
N1105 N 0.39116 0.91245 0.57277 0.0
N1106 N 0.36756 0.89006 0.58546 0.0
C1107 C 0.37507 0.87855 0.61225 0.0
C1108 C 0.40511 0.89397 0.61589 0.0
C1109 C 0.44536 0.93531 0.57959 0.0
H1110 H 0.4473 0.93645 0.55068 0.0
H1111 H 0.45227 0.95722 0.5902 0.0
H1112 H 0.46013 0.92798 0.58991 0.0
O1113 O 0.37015 0.91211 0.49555 0.0
O1114 O 0.3309 0.87211 0.513 0.0
H1115 H 0.3449 0.83372 0.62197 0.0
H1116 H 0.36388 0.85385 0.6606 0.0
C1117 C 0.35374 0.85486 0.63567 0.0
H1118 H 0.33558 0.85868 0.64186 0.0
H1119 H 0.31351 0.81763 0.55338 0.0
O1120 O 0.42576 0.96354 0.51917 0.0
C1121 C 0.34835 0.88751 0.48891 0.0
Co1122 Co 0.12016 0.40196 0.29333 0.0
Co1123 Co 0.11916 0.45765 0.26789 0.0
C1124 C 0.06542 0.39742 0.26507 0.0
O1125 O 0.0786 0.38449 0.27671 0.0
O1126 O 0.07872 0.425 0.26095 0.0
C1127 C 0.12975 0.35079 0.30157 0.0
O1128 O 0.11471 0.33765 0.27341 0.0
C1129 C 0.11294 0.50042 0.223 0.0
C1130 C 0.14694 0.54135 0.24667 0.0
C1131 C 0.12655 0.53054 0.22009 0.0
N1132 N 0.12521 0.4939 0.24974 0.0
N1133 N 0.14534 0.51851 0.26381 0.0
C1134 C 0.08812 0.47824 0.20167 0.0
H1135 H 0.07445 0.45861 0.21754 0.0
H1136 H 0.09673 0.47176 0.17905 0.0
H1137 H 0.07459 0.48718 0.19165 0.0
C1138 C 0.16781 0.4233 0.24072 0.0
N1139 N 0.14704 0.4256 0.25831 0.0
N1140 N 0.14605 0.44839 0.24665 0.0
C1141 C 0.1655 0.46069 0.22037 0.0
C1142 C 0.17991 0.44513 0.21572 0.0
C1143 C 0.1776 0.40211 0.24955 0.0
H1144 H 0.17963 0.40116 0.27833 0.0
H1145 H 0.16138 0.3803 0.23977 0.0
H1146 H 0.199 0.4084 0.23771 0.0
O1147 O 0.12556 0.4246 0.33581 0.0
O1148 O 0.12585 0.46456 0.31921 0.0
H1149 H 0.1786 0.50558 0.21444 0.0
H1150 H 0.18195 0.48882 0.1748 0.0
C1151 C 0.16856 0.48544 0.1985 0.0
H1152 H 0.1468 0.48098 0.19011 0.0
H1153 H 0.1583 0.51971 0.28498 0.0
O1154 O 0.13185 0.37455 0.3113 0.0
C1155 C 0.12783 0.4489 0.34299 0.0
Co1156 Co 0.60469 0.71916 0.29027 0.0
Co1157 Co 0.5478 0.66256 0.26795 0.0
C1158 C 0.60819 0.6684 0.26342 0.0
O1159 O 0.62178 0.69474 0.27431 0.0
O1160 O 0.58048 0.65443 0.26027 0.0
C1161 C 0.65694 0.78007 0.30432 0.0
O1162 O 0.67646 0.77664 0.28721 0.0
C1163 C 0.50583 0.61503 0.2222 0.0
C1164 C 0.46436 0.60617 0.24639 0.0
C1165 C 0.47586 0.59827 0.21882 0.0
N1166 N 0.51171 0.63217 0.25045 0.0
N1167 N 0.48682 0.62648 0.26498 0.0
C1168 C 0.52845 0.61656 0.19759 0.0
H1169 H 0.54818 0.6384 0.19869 0.0
H1170 H 0.52 0.61165 0.17038 0.0
H1171 H 0.53452 0.60024 0.20562 0.0
C1172 C 0.58494 0.74416 0.23537 0.0
N1173 N 0.58121 0.72143 0.25483 0.0
N1174 N 0.5567 0.69823 0.246 0.0
C1175 C 0.54382 0.70564 0.22071 0.0
C1176 C 0.56131 0.73506 0.21326 0.0
C1177 C 0.61178 0.77346 0.23601 0.0
H1178 H 0.61128 0.78549 0.25951 0.0
H1179 H 0.63118 0.77088 0.23755 0.0
H1180 H 0.61359 0.78633 0.21229 0.0
O1181 O 0.58249 0.70283 0.33376 0.0
O1182 O 0.54167 0.66337 0.319 0.0
H1183 H 0.499 0.67333 0.22581 0.0
H1184 H 0.50676 0.69674 0.18839 0.0
C1185 C 0.51498 0.68517 0.20477 0.0
H1186 H 0.51706 0.66907 0.18839 0.0
H1187 H 0.48517 0.63714 0.28706 0.0
O1188 O 0.63089 0.75943 0.30589 0.0
C1189 C 0.55808 0.68129 0.34202 0.0
Co1190 Co 0.28561 0.88428 0.29403 0.0
Co1191 Co 0.34156 0.88459 0.26715 0.0
C1192 C 0.3367 0.93897 0.26527 0.0
O1193 O 0.31069 0.92588 0.27738 0.0
O1194 O 0.35074 0.92551 0.26044 0.0
C1195 C 0.22513 0.87552 0.30206 0.0
O1196 O 0.22726 0.89046 0.27369 0.0
C1197 C 0.39101 0.89068 0.22374 0.0
C1198 C 0.39097 0.85061 0.23952 0.0
C1199 C 0.40447 0.87441 0.21748 0.0
N1200 N 0.37039 0.87692 0.24831 0.0
N1201 N 0.37079 0.85321 0.25785 0.0
C1202 C 0.3956 0.91718 0.20451 0.0
H1203 H 0.37506 0.9178 0.20346 0.0
H1204 H 0.40364 0.9177 0.17753 0.0
H1205 H 0.41198 0.93676 0.21874 0.0
C1206 C 0.25816 0.83649 0.24192 0.0
N1207 N 0.28155 0.8573 0.25893 0.0
N1208 N 0.30514 0.85875 0.24587 0.0
C1209 C 0.29757 0.84001 0.21878 0.0
C1210 C 0.26748 0.82514 0.21549 0.0
C1211 C 0.22738 0.82572 0.25282 0.0
H1212 H 0.22576 0.8247 0.28177 0.0
H1213 H 0.22028 0.84076 0.24285 0.0
H1214 H 0.21256 0.80365 0.24244 0.0
O1215 O 0.30249 0.87799 0.33602 0.0
O1216 O 0.34177 0.87735 0.31845 0.0
H1217 H 0.32706 0.82491 0.20686 0.0
H1218 H 0.30887 0.82867 0.16901 0.0
C1219 C 0.31888 0.83836 0.1946 0.0
H1220 H 0.33748 0.86042 0.18988 0.0
H1221 H 0.35663 0.83832 0.27623 0.0
O1222 O 0.2467 0.87338 0.3121 0.0
C1223 C 0.32435 0.87527 0.34259 0.0
C1224 C 0.19685 0.22388 0.26087 0.0
C1225 C 0.20941 0.21346 0.28513 0.0
H1226 H 0.19101 0.23054 0.2068 0.0
C1227 C 0.22314 0.19848 0.27286 0.0
H1228 H 0.18598 0.23537 0.26972 0.0
C1229 C 0.22648 0.19623 0.23688 0.0
C1230 C 0.21556 0.20832 0.21264 0.0
H1231 H 0.23304 0.19031 0.29098 0.0
H1232 H 0.23871 0.18612 0.22804 0.0
C1233 C 0.19961 0.22102 0.2249 0.0
C1234 C 0.78035 0.97848 0.22619 0.0
C1235 C 0.79374 0.00708 0.21352 0.0
H1236 H 0.76553 0.95089 0.27138 0.0
C1237 C 0.80602 0.03028 0.23742 0.0
H1238 H 0.77066 0.96022 0.20831 0.0
C1239 C 0.80365 0.02497 0.27346 0.0
C1240 C 0.78831 0.99637 0.28612 0.0
H1241 H 0.81661 0.05256 0.22826 0.0
H1242 H 0.81225 0.04323 0.29133 0.0
C1243 C 0.77733 0.97316 0.26222 0.0
C1244 C 0.03235 0.80866 0.2603 0.0
C1245 C 0.00928 0.79759 0.2845 0.0
H1246 H 0.04487 0.81355 0.20621 0.0
C1247 C 0.98075 0.78593 0.27218 0.0
H1248 H 0.05459 0.81799 0.26918 0.0
C1249 C 0.97522 0.78298 0.23624 0.0
C1250 C 0.99815 0.79225 0.21208 0.0
H1251 H 0.96259 0.77726 0.29024 0.0
H1252 H 0.95288 0.77219 0.22736 0.0
C1253 C 0.02684 0.80631 0.22431 0.0
C1254 C 0.78128 0.80451 0.72469 0.0
C1255 C 0.79581 0.79036 0.71231 0.0
H1256 H 0.76537 0.8163 0.76968 0.0
C1257 C 0.80931 0.78087 0.73638 0.0
H1258 H 0.77063 0.81193 0.70666 0.0
C1259 C 0.80676 0.7838 0.77235 0.0
C1260 C 0.79008 0.79566 0.7848 0.0
H1261 H 0.82079 0.77002 0.7274 0.0
H1262 H 0.81619 0.77503 0.79033 0.0
C1263 C 0.77815 0.80684 0.7607 0.0
C1264 C 0.22529 0.02673 0.77246 0.0
C1265 C 0.20994 0.99809 0.78494 0.0
H1266 H 0.24211 0.05426 0.72738 0.0
C1267 C 0.19608 0.97512 0.76094 0.0
H1268 H 0.23628 0.04478 0.79045 0.0
C1269 C 0.19897 0.98052 0.72495 0.0
C1270 C 0.21638 0.00894 0.71241 0.0
H1271 H 0.18402 0.95283 0.77001 0.0
H1272 H 0.18915 0.96229 0.70705 0.0
C1273 C 0.22877 0.03209 0.73643 0.0
C1274 C 0.0263 0.21982 0.7254 0.0
C1275 C 0.99763 0.20648 0.71318 0.0
H1276 H 0.05416 0.23467 0.77024 0.0
C1277 C 0.97462 0.19357 0.7374 0.0
H1278 H 0.0444 0.22995 0.7073 0.0
C1279 C 0.98016 0.19581 0.77336 0.0
C1280 C 0.00879 0.21154 0.78564 0.0
H1281 H 0.95228 0.18295 0.72856 0.0
H1282 H 0.96202 0.18709 0.79146 0.0
C1283 C 0.03184 0.22261 0.76139 0.0
C1284 C 0.89129 0.53312 0.60662 0.0
C1285 C 0.87676 0.54723 0.61914 0.0
H1286 H 0.90711 0.52137 0.56149 0.0
C1287 C 0.86324 0.55678 0.59516 0.0
H1288 H 0.90197 0.52566 0.62456 0.0
C1289 C 0.8657 0.55386 0.55916 0.0
C1290 C 0.88233 0.54199 0.54657 0.0
H1291 H 0.85177 0.56761 0.60424 0.0
H1292 H 0.85623 0.56263 0.54126 0.0
C1293 C 0.89435 0.53083 0.57057 0.0
C1294 C 0.45057 0.31253 0.5576 0.0
C1295 C 0.46348 0.34119 0.5453 0.0
H1296 H 0.43574 0.28457 0.60244 0.0
C1297 C 0.47549 0.36421 0.56953 0.0
H1298 H 0.44111 0.29441 0.53952 0.0
C1299 C 0.47292 0.35862 0.60552 0.0
C1300 C 0.45769 0.32992 0.61779 0.0
H1301 H 0.48576 0.38655 0.56066 0.0
H1302 H 0.481 0.37671 0.62362 0.0
C1303 C 0.4474 0.30693 0.59357 0.0
C1304 C 0.69885 0.14392 0.59474 0.0
C1305 C 0.67591 0.13179 0.61913 0.0
H1306 H 0.71115 0.14969 0.54056 0.0
C1307 C 0.64724 0.11933 0.60711 0.0
H1308 H 0.72121 0.15389 0.60341 0.0
C1309 C 0.64153 0.11655 0.57119 0.0
C1310 C 0.66441 0.12674 0.54678 0.0
H1311 H 0.62919 0.10985 0.62533 0.0
H1312 H 0.61914 0.1051 0.56249 0.0
C1313 C 0.69315 0.14169 0.55881 0.0
C1314 C 0.44495 0.13959 0.09465 0.0
C1315 C 0.4559 0.12735 0.11858 0.0
H1316 H 0.43845 0.14598 0.04071 0.0
C1317 C 0.47149 0.11434 0.10599 0.0
H1318 H 0.43299 0.1499 0.10376 0.0
C1319 C 0.47407 0.11157 0.06997 0.0
C1320 C 0.46176 0.12244 0.04602 0.0
H1321 H 0.48008 0.10468 0.12389 0.0
H1322 H 0.48478 0.1 0.06084 0.0
C1323 C 0.44819 0.13749 0.05862 0.0
C1324 C 0.89254 0.35961 0.10675 0.0
C1325 C 0.87793 0.33093 0.11919 0.0
H1326 H 0.90852 0.38732 0.06172 0.0
C1327 C 0.86457 0.30793 0.09512 0.0
H1328 H 0.90311 0.3777 0.12476 0.0
C1329 C 0.86716 0.31342 0.05913 0.0
C1330 C 0.88378 0.34196 0.04663 0.0
H1331 H 0.85304 0.2856 0.10412 0.0
H1332 H 0.85773 0.29521 0.04116 0.0
C1333 C 0.89575 0.36507 0.07072 0.0
C1334 C 0.64031 0.52736 0.06965 0.0
C1335 C 0.66322 0.53936 0.04521 0.0
H1336 H 0.62806 0.52191 0.12384 0.0
C1337 C 0.69191 0.55207 0.05724 0.0
H1338 H 0.61794 0.51723 0.06099 0.0
C1339 C 0.69767 0.55517 0.09316 0.0
C1340 C 0.6748 0.54502 0.11759 0.0
H1341 H 0.70995 0.5615 0.03899 0.0
H1342 H 0.72006 0.56676 0.10182 0.0
C1343 C 0.64605 0.52989 0.10558 0.0
C1344 C 0.55556 0.86498 0.93916 0.0
C1345 C 0.54219 0.88032 0.95138 0.0
H1346 H 0.57095 0.85233 0.89444 0.0
C1347 C 0.53007 0.89115 0.92706 0.0
H1348 H 0.56512 0.85647 0.95732 0.0
C1349 C 0.53292 0.88832 0.89109 0.0
C1350 C 0.54852 0.87522 0.87892 0.0
H1351 H 0.51948 0.90293 0.93586 0.0
H1352 H 0.52467 0.89814 0.87295 0.0
C1353 C 0.559 0.86275 0.90321 0.0
C1354 C 0.13978 0.69023 0.93982 0.0
C1355 C 0.12268 0.66167 0.95205 0.0
H1356 H 0.15439 0.71834 0.89512 0.0
C1357 C 0.11045 0.63873 0.92774 0.0
H1358 H 0.14945 0.70832 0.95795 0.0
C1359 C 0.11381 0.64442 0.89176 0.0
C1360 C 0.12886 0.67318 0.87963 0.0
H1361 H 0.09733 0.61646 0.93653 0.0
H1362 H 0.10298 0.6265 0.87357 0.0
C1363 C 0.14254 0.69596 0.9039 0.0
C1364 C 0.36417 0.47672 0.9273 0.0
C1365 C 0.34131 0.46392 0.95173 0.0
H1366 H 0.37648 0.48265 0.87314 0.0
C1367 C 0.31256 0.45003 0.93971 0.0
H1368 H 0.38656 0.48773 0.93597 0.0
C1369 C 0.30683 0.44667 0.90377 0.0
C1370 C 0.32975 0.45771 0.87934 0.0
H1371 H 0.29457 0.43993 0.95798 0.0
H1372 H 0.28448 0.43426 0.89511 0.0
C1373 C 0.35843 0.47392 0.89137 0.0
C1374 C 0.14242 0.44675 0.40453 0.0
C1375 C 0.13006 0.4573 0.38017 0.0
H1376 H 0.14815 0.44017 0.45866 0.0
C1377 C 0.1166 0.47257 0.3923 0.0
H1378 H 0.1531 0.43504 0.39579 0.0
C1379 C 0.11331 0.47501 0.42825 0.0
C1380 C 0.12402 0.4628 0.4526 0.0
H1381 H 0.10686 0.48087 0.3741 0.0
H1382 H 0.10127 0.48534 0.43698 0.0
C1383 C 0.13972 0.44978 0.44047 0.0
C1384 C 0.53 0.64178 0.42774 0.0
C1385 C 0.54375 0.66461 0.45195 0.0
H1386 H 0.52316 0.62927 0.37374 0.0
C1387 C 0.55903 0.69332 0.43969 0.0
H1388 H 0.51798 0.61943 0.43661 0.0
C1389 C 0.56252 0.69891 0.40369 0.0
C1390 C 0.55021 0.6759 0.37946 0.0
H1391 H 0.56992 0.71128 0.45783 0.0
H1392 H 0.5758 0.72113 0.39483 0.0
C1393 C 0.5329 0.6474 0.39179 0.0
C1394 C 0.30772 0.86006 0.40403 0.0
C1395 C 0.33057 0.87252 0.37957 0.0
H1396 H 0.29549 0.85437 0.45822 0.0
C1397 C 0.35932 0.88589 0.39154 0.0
H1398 H 0.28532 0.84944 0.3954 0.0
C1399 C 0.3651 0.88914 0.42746 0.0
C1400 C 0.34223 0.87852 0.45192 0.0
H1401 H 0.37732 0.89569 0.37326 0.0
H1402 H 0.38749 0.90121 0.43608 0.0
C1403 C 0.3135 0.86275 0.43995 0.0
C1404 C 0.27604 0.32149 0.08615 0.0
C1405 C 0.29113 0.30615 0.08952 0.0
H1406 H 0.27821 0.36213 0.07693 0.0
C1407 C 0.32155 0.32155 0.08551 0.0
H1408 H 0.25266 0.31052 0.0892 0.0
C1409 C 0.33637 0.3515 0.07794 0.0
C1410 C 0.32113 0.36676 0.07487 0.0
H1411 H 0.33386 0.31044 0.08789 0.0
H1412 H 0.35974 0.36272 0.07478 0.0
C1413 C 0.29079 0.35128 0.07923 0.0
C1414 C 0.65395 0.98687 0.07771 0.0
C1415 C 0.63872 0.95643 0.07394 0.0
H1416 H 0.69495 0.02524 0.08823 0.0
C1417 C 0.65421 0.94151 0.07737 0.0
H1418 H 0.64271 0.99906 0.07524 0.0
C1419 C 0.68397 0.95642 0.08429 0.0
C1420 C 0.69927 0.98677 0.08849 0.0
H1421 H 0.64339 0.91813 0.07443 0.0
H1422 H 0.69492 0.94394 0.08672 0.0
C1423 C 0.68388 1.00186 0.08519 0.0
C1424 C 0.04881 0.72992 0.0856 0.0
C1425 C 0.01847 0.71506 0.09003 0.0
H1426 H 0.08693 0.72724 0.0757 0.0
C1427 C 0.00324 0.68455 0.08735 0.0
H1428 H 0.06138 0.75337 0.08762 0.0
C1429 C 0.01805 0.6694 0.08002 0.0
C1430 C 0.04846 0.6844 0.07583 0.0
H1431 H 0.97988 0.6724 0.0906 0.0
H1432 H 0.00572 0.64595 0.07788 0.0
C1433 C 0.06356 0.71485 0.07888 0.0
C1434 C 0.35088 0.28966 0.4193 0.0
C1435 C 0.36626 0.32008 0.42277 0.0
H1436 H 0.31024 0.25126 0.41005 0.0
C1437 C 0.35088 0.33515 0.41911 0.0
H1438 H 0.3618 0.27719 0.42211 0.0
C1439 C 0.32091 0.32008 0.41177 0.0
C1440 C 0.30563 0.28959 0.40854 0.0
H1441 H 0.36202 0.35857 0.42161 0.0
H1442 H 0.30971 0.33226 0.40887 0.0
C1443 C 0.32109 0.27468 0.41253 0.0
C1444 C 0.73015 0.04896 0.41401 0.0
C1445 C 0.71492 0.01852 0.4108 0.0
H1446 H 0.72817 0.08759 0.42287 0.0
C1447 C 0.68451 0.00364 0.41489 0.0
H1448 H 0.75353 0.06126 0.41091 0.0
C1449 C 0.66982 0.0189 0.42225 0.0
C1450 C 0.68517 0.0494 0.42505 0.0
H1451 H 0.67208 0.9802 0.41262 0.0
H1452 H 0.64645 0.00684 0.42539 0.0
C1453 C 0.71552 0.06415 0.42074 0.0
C1454 C 0.98695 0.65459 0.41887 0.0
C1455 C 0.95651 0.63916 0.42261 0.0
H1456 H 0.02519 0.6957 0.40843 0.0
C1457 C 0.94141 0.65447 0.41889 0.0
H1458 H 0.99929 0.64352 0.42153 0.0
C1459 C 0.95622 0.68429 0.41192 0.0
C1460 C 0.98659 0.69976 0.4079 0.0
H1461 H 0.91802 0.64346 0.4217 0.0
H1462 H 0.94368 0.69516 0.40935 0.0
C1463 C 1.0018 0.6845 0.41132 0.0
C1464 C 0.67015 0.65326 0.92008 0.0
C1465 C 0.6853 0.63791 0.9231 0.0
H1466 H 0.67277 0.69436 0.91027 0.0
C1467 C 0.71566 0.65334 0.91893 0.0
H1468 H 0.64677 0.64209 0.9231 0.0
C1469 C 0.73051 0.68318 0.91215 0.0
C1470 C 0.71548 0.69858 0.90875 0.0
H1471 H 0.72816 0.64241 0.92121 0.0
H1472 H 0.75389 0.69412 0.90918 0.0
C1473 C 0.68505 0.68322 0.91268 0.0
C1474 C 0.35122 0.01798 0.91789 0.0
C1475 C 0.36657 0.04842 0.92166 0.0
H1476 H 0.31009 0.97967 0.90772 0.0
C1477 C 0.3512 0.06346 0.91826 0.0
H1478 H 0.36237 0.00569 0.92033 0.0
C1479 C 0.32139 0.04861 0.91162 0.0
C1480 C 0.30596 0.01823 0.90763 0.0
H1481 H 0.36214 0.08686 0.92111 0.0
H1482 H 0.31048 0.06114 0.90931 0.0
C1483 C 0.32127 0.00306 0.91064 0.0
C1484 C 0.98773 0.33374 0.91853 0.0
C1485 C 0.95726 0.31883 0.92199 0.0
H1486 H 0.02593 0.33067 0.90851 0.0
C1487 C 0.94206 0.28845 0.91802 0.0
H1488 H 1.00015 0.35713 0.92136 0.0
C1489 C 0.95679 0.27335 0.91119 0.0
C1490 C 0.9872 0.28813 0.90759 0.0
H1491 H 0.91864 0.27613 0.92058 0.0
H1492 H 0.94415 0.24996 0.90845 0.0
C1493 C 1.00251 0.31858 0.91112 0.0
C1494 C 0.68421 0.68321 0.58573 0.0
C1495 C 0.69944 0.7136 0.58996 0.0
H1496 H 0.64314 0.64493 0.57496 0.0
C1497 C 0.68391 0.72854 0.58717 0.0
H1498 H 0.69548 0.67102 0.58771 0.0
C1499 C 0.65414 0.71369 0.58045 0.0
C1500 C 0.63882 0.68339 0.57577 0.0
H1501 H 0.69472 0.75188 0.5905 0.0
H1502 H 0.64318 0.7262 0.57854 0.0
C1503 C 0.65424 0.66827 0.57838 0.0
C1504 C 0.29071 0.94071 0.57889 0.0
C1505 C 0.32101 0.95563 0.57411 0.0
H1506 H 0.2526 0.9433 0.58927 0.0
C1507 C 0.33618 0.98615 0.5767 0.0
H1508 H 0.27818 0.91725 0.57698 0.0
C1509 C 0.32136 1.00126 0.58423 0.0
C1510 C 0.29099 0.9862 0.58875 0.0
H1511 H 0.35952 0.99835 0.5732 0.0
H1512 H 0.33365 0.02471 0.58625 0.0
C1513 C 0.27594 0.95574 0.58584 0.0
C1514 C 0.04876 0.32038 0.58621 0.0
C1515 C 0.01842 0.30484 0.59054 0.0
H1516 H 0.08681 0.36118 0.57619 0.0
C1517 C 0.00311 0.32001 0.58738 0.0
H1518 H 0.06139 0.30958 0.58857 0.0
C1519 C 0.01785 0.34995 0.57974 0.0
C1520 C 0.04826 0.36542 0.57575 0.0
H1521 H 0.97974 0.30873 0.5905 0.0
H1522 H 0.00548 0.361 0.57728 0.0
C1523 C 0.06343 0.35016 0.57922 0.0
C1524 C 0.01827 0.6239 0.75144 0.0
C1525 C 0.03354 0.65421 0.75605 0.0
H1526 H 0.97773 0.58565 0.7414 0.0
C1527 C 0.01808 0.66928 0.75338 0.0
H1528 H 0.02925 0.61143 0.7534 0.0
C1529 C 0.98811 0.65429 0.74601 0.0
C1530 C 0.97293 0.62388 0.7418 0.0
H1531 H 0.02914 0.69262 0.75675 0.0
H1532 H 0.97681 0.66644 0.74395 0.0
C1533 C 0.9885 0.609 0.74469 0.0
C1534 C 0.38149 0.39607 0.75231 0.0
C1535 C 0.35112 0.38112 0.75626 0.0
H1536 H 0.41973 0.39364 0.74244 0.0
C1537 C 0.33593 0.35066 0.75261 0.0
H1538 H 0.39403 0.41947 0.75505 0.0
C1539 C 0.35085 0.33567 0.74484 0.0
C1540 C 0.38129 0.35077 0.7412 0.0
H1541 H 0.31254 0.33845 0.75544 0.0
H1542 H 0.33858 0.31227 0.74199 0.0
C1543 C 0.39632 0.38115 0.74517 0.0
C1544 C 0.65532 0.98803 0.75248 0.0
C1545 C 0.62482 0.97253 0.75551 0.0
H1546 H 0.69366 0.0293 0.74266 0.0
C1547 C 0.60973 0.98777 0.75107 0.0
H1548 H 0.66765 0.977 0.75569 0.0
C1549 C 0.62454 0.01756 0.74415 0.0
C1550 C 0.65497 0.03315 0.74092 0.0
H1551 H 0.58628 0.97674 0.75328 0.0
H1552 H 0.61194 0.02832 0.74102 0.0
C1553 C 0.67022 0.01799 0.74495 0.0
C1554 C 0.39684 0.01609 0.2466 0.0
C1555 C 0.38171 0.03137 0.24314 0.0
H1556 H 0.3947 0.97543 0.25575 0.0
C1557 C 0.35128 0.01592 0.24708 0.0
H1558 H 0.42023 0.0271 0.24363 0.0
C1559 C 0.33648 0.98596 0.25454 0.0
C1560 C 0.35174 0.97074 0.25759 0.0
H1561 H 0.33892 0.02697 0.24462 0.0
H1562 H 0.3131 0.97471 0.25755 0.0
C1563 C 0.38211 0.98627 0.25343 0.0
C1564 C 0.98844 0.38072 0.2469 0.0
C1565 C 0.97309 0.35034 0.24298 0.0
H1566 H 0.02903 0.41904 0.2565 0.0
C1567 C 0.98847 0.33524 0.24632 0.0
H1568 H 0.97753 0.39322 0.24435 0.0
C1569 C 0.01843 0.35027 0.25372 0.0
C1570 C 0.03369 0.38073 0.25732 0.0
H1571 H 0.97734 0.31185 0.24347 0.0
H1572 H 0.02966 0.33808 0.25632 0.0
C1573 C 0.01821 0.39564 0.25372 0.0
C1574 C 0.65479 0.66786 0.25087 0.0
C1575 C 0.6244 0.65291 0.25522 0.0
H1576 H 0.69286 0.66477 0.23984 0.0
C1577 C 0.60923 0.62248 0.25198 0.0
H1578 H 0.66718 0.69129 0.25314 0.0
C1579 C 0.62389 0.60736 0.24492 0.0
C1580 C 0.65421 0.62216 0.24031 0.0
H1581 H 0.58587 0.61012 0.25526 0.0
H1582 H 0.61126 0.58392 0.24277 0.0
C1583 C 0.66951 0.65266 0.24319 0.0
C1584 C 0.31257 0.17011 0.17683 0.0
C1585 C 0.33103 0.19018 0.15143 0.0
H1586 H 0.30365 0.13405 0.21002 0.0
C1587 C 0.35545 0.18881 0.14028 0.0
H1588 H 0.29343 0.1704 0.186 0.0
C1589 C 0.3612 0.16781 0.15408 0.0
C1590 C 0.34259 0.14761 0.17924 0.0
H1591 H 0.36996 0.20371 0.12063 0.0
H1592 H 0.38029 0.16742 0.14492 0.0
C1593 C 0.31822 0.14902 0.19045 0.0
C1594 C 0.85733 0.17039 0.18974 0.0
C1595 C 0.85733 0.19579 0.17983 0.0
H1596 H 0.8375 0.12436 0.184 0.0
C1597 C 0.83638 0.19366 0.15552 0.0
H1598 H 0.87298 0.17118 0.20851 0.0
C1599 C 0.81579 0.16679 0.14172 0.0
C1600 C 0.81575 0.14139 0.1517 0.0
H1601 H 0.83561 0.21278 0.14732 0.0
H1602 H 0.80008 0.16598 0.12303 0.0
C1603 C 0.83683 0.14352 0.17579 0.0
C1604 C 0.8376 0.65524 0.13405 0.0
C1605 C 0.8635 0.67518 0.15071 0.0
H1606 H 0.79123 0.63318 0.13474 0.0
C1607 C 0.86191 0.6885 0.18194 0.0
H1608 H 0.83801 0.64489 0.10979 0.0
C1609 C 0.83508 0.68207 0.19611 0.0
C1610 C 0.80919 0.66214 0.17945 0.0
H1611 H 0.88146 0.70414 0.19541 0.0
H1612 H 0.83468 0.69243 0.22038 0.0
C1613 C 0.81078 0.64883 0.14822 0.0
C1614 C 0.16602 0.35714 0.34765 0.0
C1615 C 0.14936 0.34197 0.31816 0.0
H1616 H 0.19857 0.36261 0.38477 0.0
C1617 C 0.15358 0.32026 0.30326 0.0
H1618 H 0.16345 0.37416 0.35974 0.0
C1619 C 0.17399 0.31389 0.31746 0.0
C1620 C 0.19063 0.32905 0.34697 0.0
H1621 H 0.14142 0.30841 0.28035 0.0
H1622 H 0.17655 0.29687 0.30537 0.0
C1623 C 0.18642 0.35077 0.36186 0.0
C1624 C 0.64785 0.83849 0.35004 0.0
C1625 C 0.67542 0.86305 0.34593 0.0
H1626 H 0.62051 0.79311 0.34047 0.0
C1627 C 0.69711 0.86005 0.32827 0.0
H1628 H 0.63073 0.83997 0.3636 0.0
C1629 C 0.69136 0.83314 0.31509 0.0
C1630 C 0.66378 0.80858 0.3192 0.0
H1631 H 0.71869 0.87852 0.32466 0.0
H1632 H 0.70847 0.83166 0.30153 0.0
C1633 C 0.64209 0.81159 0.33685 0.0
C1634 C 0.17099 0.85387 0.30516 0.0
C1635 C 0.19651 0.85577 0.31826 0.0
H1636 H 0.12468 0.83257 0.30814 0.0
C1637 C 0.19433 0.83673 0.34539 0.0
H1638 H 0.17183 0.86796 0.28414 0.0
C1639 C 0.16729 0.81612 0.35882 0.0
C1640 C 0.14179 0.8142 0.34569 0.0
H1641 H 0.21354 0.83743 0.35606 0.0
H1642 H 0.16644 0.80196 0.37977 0.0
C1643 C 0.14395 0.83338 0.31878 0.0
C1644 C 0.69398 0.83399 0.81985 0.0
C1645 C 0.67602 0.81446 0.84596 0.0
H1646 H 0.70213 0.86928 0.78564 0.0
C1647 C 0.65217 0.81642 0.85806 0.0
H1648 H 0.71267 0.83316 0.80999 0.0
C1649 C 0.64642 0.83743 0.8444 0.0
C1650 C 0.66424 0.85684 0.81808 0.0
H1651 H 0.63813 0.80199 0.87837 0.0
H1652 H 0.62769 0.83816 0.85427 0.0
C1653 C 0.68813 0.8549 0.80603 0.0
C1654 C 0.18533 0.83709 0.86258 0.0
C1655 C 0.19064 0.86309 0.84671 0.0
H1656 H 0.1614 0.7907 0.86128 0.0
C1657 C 0.17495 0.86168 0.81628 0.0
H1658 H 0.19671 0.83735 0.88622 0.0
C1659 C 0.15442 0.83492 0.80213 0.0
C1660 C 0.14911 0.80891 0.818 0.0
H1661 H 0.17835 0.88131 0.80343 0.0
H1662 H 0.14304 0.83466 0.77849 0.0
C1663 C 0.1648 0.81033 0.84843 0.0
C1664 C 0.16807 0.34926 0.86232 0.0
C1665 C 0.14211 0.32802 0.84702 0.0
H1666 H 0.21443 0.37223 0.86041 0.0
C1667 C 0.14353 0.3133 0.81701 0.0
H1668 H 0.1678 0.36072 0.88564 0.0
C1669 C 0.17027 0.31964 0.80267 0.0
C1670 C 0.19624 0.34088 0.81796 0.0
H1671 H 0.12391 0.29665 0.8046 0.0
H1672 H 0.17054 0.30817 0.77935 0.0
C1673 C 0.19482 0.35558 0.848 0.0
C1674 C 0.84073 0.64745 0.65051 0.0
C1675 C 0.85683 0.6623 0.68046 0.0
H1676 H 0.8086 0.64211 0.61279 0.0
C1677 C 0.85201 0.68357 0.69558 0.0
H1678 H 0.84376 0.63077 0.63824 0.0
C1679 C 0.83157 0.6898 0.68115 0.0
C1680 C 0.8155 0.67496 0.65117 0.0
H1681 H 0.86373 0.69516 0.71884 0.0
H1682 H 0.82856 0.70647 0.69343 0.0
C1683 C 0.82031 0.65369 0.63606 0.0
C1684 C 0.35956 0.19414 0.65197 0.0
C1685 C 0.34171 0.19575 0.67822 0.0
H1686 H 0.36782 0.16696 0.61804 0.0
C1687 C 0.31763 0.16996 0.69003 0.0
H1688 H 0.37843 0.21357 0.64229 0.0
C1689 C 0.31165 0.1432 0.67607 0.0
C1690 C 0.3297 0.1416 0.65013 0.0
H1691 H 0.30359 0.17036 0.71033 0.0
H1692 H 0.29285 0.1237 0.68577 0.0
C1693 C 0.35371 0.16738 0.63823 0.0
C1694 C 0.83788 0.18406 0.63543 0.0
C1695 C 0.86385 0.19019 0.65203 0.0
H1696 H 0.79152 0.15952 0.63629 0.0
C1697 C 0.86242 0.17541 0.68332 0.0
H1698 H 0.83817 0.19472 0.61112 0.0
C1699 C 0.83568 0.15492 0.69759 0.0
C1700 C 0.80972 0.14878 0.68098 0.0
H1701 H 0.88203 0.17946 0.69675 0.0
H1702 H 0.83539 0.14425 0.72189 0.0
C1703 C 0.81114 0.16359 0.64972 0.0
C1704 C 0.97793 0.50322 0.51088 0.0
C1705 C 0.99638 0.52338 0.48558 0.0
H1706 H 0.96947 0.46749 0.54446 0.0
C1707 C 0.02075 0.52205 0.47423 0.0
H1708 H 0.95884 0.50356 0.52015 0.0
C1709 C 0.02657 0.50107 0.48785 0.0
C1710 C 0.00828 0.48105 0.5134 0.0
H1711 H 0.03519 0.53698 0.45454 0.0
H1712 H 0.04571 0.50084 0.47858 0.0
C1713 C 0.98385 0.48235 0.52469 0.0
C1714 C 0.5074 0.52791 0.48268 0.0
C1715 C 0.52357 0.52911 0.51255 0.0
H1716 H 0.47511 0.50116 0.4451 0.0
C1717 C 0.51881 0.50301 0.52756 0.0
H1718 H 0.51037 0.54762 0.47049 0.0
C1719 C 0.49833 0.47636 0.51313 0.0
C1720 C 0.48213 0.47516 0.4833 0.0
H1721 H 0.53058 0.5031 0.55075 0.0
H1722 H 0.49534 0.45664 0.52533 0.0
C1723 C 0.4869 0.50126 0.46827 0.0
C1724 C 0.52865 0.02264 0.51631 0.0
C1725 C 0.53034 0.00924 0.4852 0.0
H1726 H 0.5013 0.02661 0.55453 0.0
C1727 C 0.5045 0.98916 0.46855 0.0
H1728 H 0.54815 0.03839 0.52977 0.0
C1729 C 0.47764 0.98269 0.48262 0.0
C1730 C 0.47595 0.99611 0.51371 0.0
H1731 H 0.50499 0.97875 0.44438 0.0
H1732 H 0.45813 0.96694 0.46917 0.0
C1733 C 0.50178 0.01619 0.53036 0.0
C1734 C 0.5019 0.97674 0.98854 0.0
C1735 C 0.52289 0.99541 0.01292 0.0
H1736 H 0.46563 0.96841 0.95618 0.0
C1737 C 0.52294 0.02075 0.02319 0.0
H1738 H 0.5011 0.9569 0.98009 0.0
C1739 C 0.50245 0.02723 0.00947 0.0
C1740 C 0.48137 0.00847 0.98525 0.0
H1741 H 0.5386 0.03546 0.04204 0.0
H1742 H 0.50317 0.04704 0.01792 0.0
C1743 C 0.48134 0.98315 0.97497 0.0
C1744 C 0.0252 0.4986 0.98302 0.0
C1745 C 0.99734 0.47433 0.9863 0.0
H1746 H 0.05285 0.54387 0.99293 0.0
C1747 C 0.97546 0.47772 0.00282 0.0
H1748 H 0.04248 0.49681 0.97035 0.0
C1749 C 0.98129 0.50473 0.01569 0.0
C1750 C 0.00915 0.529 0.01239 0.0
H1751 H 0.95365 0.45947 0.00577 0.0
H1752 H 0.96401 0.50652 0.02834 0.0
C1753 C 0.03104 0.52561 0.99589 0.0
C1754 C 0.47718 0.49689 0.98183 0.0
C1755 C 0.47583 0.48184 0.01286 0.0
H1756 H 0.5041 0.52825 0.94338 0.0
C1757 C 0.50186 0.48773 0.02912 0.0
H1758 H 0.45753 0.49304 0.96867 0.0
C1759 C 0.52856 0.50821 0.01475 0.0
C1760 C 0.5299 0.52326 0.98373 0.0
H1761 H 0.50164 0.47686 0.05322 0.0
H1762 H 0.54822 0.51206 0.0279 0.0
C1763 C 0.50388 0.51738 0.96748 0.0
C1764 C 0.19253 0.09296 0.99127 0.0
C1765 C 0.21616 0.09466 0.9727 0.0
H1766 H 0.17832 0.11213 0.03027 0.0
C1767 C 0.24405 0.11837 0.97841 0.0
H1768 H 0.17078 0.07487 0.98726 0.0
C1769 C 0.24822 0.14001 0.00237 0.0
C1770 C 0.22465 0.13806 0.0214 0.0
H1771 H 0.2625 0.12052 0.96382 0.0
H1772 H 0.26987 0.15839 0.00587 0.0
C1773 C 0.19678 0.11432 0.01567 0.0
C1774 C 0.86641 0.0751 0.98809 0.0
C1775 C 0.86854 0.08446 0.02286 0.0
H1776 H 0.88491 0.08515 0.93657 0.0
C1777 C 0.89201 0.11151 0.03263 0.0
H1778 H 0.84837 0.0544 0.9799 0.0
C1779 C 0.91273 0.12922 0.00788 0.0
C1780 C 0.91026 0.12022 0.97285 0.0
H1781 H 0.89432 0.11896 0.05948 0.0
H1782 H 0.93091 0.14964 0.01641 0.0
C1783 C 0.88717 0.09278 0.96333 0.0
C1784 C 0.89275 0.75675 0.00655 0.0
C1785 C 0.91605 0.78098 0.02266 0.0
H1786 H 0.8577 0.7414 0.96972 0.0
C1787 C 0.92167 0.80893 0.01365 0.0
H1788 H 0.88825 0.73497 0.0125 0.0
C1789 C 0.90463 0.81258 0.98859 0.0
C1790 C 0.8812 0.78833 0.9728 0.0
H1791 H 0.93918 0.82795 0.02605 0.0
H1792 H 0.90956 0.83437 0.98179 0.0
C1793 C 0.87528 0.76038 0.9821 0.0
C1794 C 0.13911 0.24498 0.49465 0.0
C1795 C 0.13683 0.22135 0.47547 0.0
H1796 H 0.11996 0.25953 0.53333 0.0
C1797 C 0.11275 0.19363 0.48097 0.0
H1798 H 0.15771 0.26652 0.49127 0.0
C1799 C 0.0914 0.1896 0.50532 0.0
C1800 C 0.09345 0.2133 0.52408 0.0
H1801 H 0.11029 0.17514 0.4662 0.0
H1802 H 0.07304 0.16796 0.50915 0.0
C1803 C 0.11751 0.24103 0.51859 0.0
C1804 C 0.77955 0.89113 0.46681 0.0
C1805 C 0.78279 0.91795 0.47714 0.0
H1806 H 0.78063 0.85299 0.48224 0.0
C1807 C 0.78934 0.92669 0.51218 0.0
H1808 H 0.77483 0.88412 0.43977 0.0
C1809 C 0.79242 0.90879 0.53656 0.0
C1810 C 0.78866 0.88169 0.52641 0.0
H1811 H 0.79164 0.94715 0.52081 0.0
H1812 H 0.79743 0.91601 0.5635 0.0
C1813 C 0.78251 0.87318 0.49119 0.0
C1814 C 0.07999 0.86219 0.51164 0.0
C1815 C 0.08701 0.86736 0.476 0.0
H1816 H 0.09214 0.87762 0.56412 0.0
C1817 C 0.11196 0.89306 0.4657 0.0
H1818 H 0.06094 0.84236 0.52011 0.0
C1819 C 0.12986 0.91326 0.49075 0.0
C1820 C 0.12329 0.90788 0.5266 0.0
H1821 H 0.11757 0.89751 0.43821 0.0
H1822 H 0.14841 0.93324 0.48185 0.0
C1823 C 0.09794 0.88229 0.53671 0.0
C1824 C 0.7879 0.88174 0.03704 0.0
C1825 C 0.78788 0.90721 0.027 0.0
H1826 H 0.78511 0.84185 0.02039 0.0
C1827 C 0.78639 0.91244 0.99117 0.0
H1828 H 0.78927 0.87716 0.06441 0.0
C1829 C 0.78399 0.89218 0.96611 0.0
C1830 C 0.78349 0.86659 0.97636 0.0
H1831 H 0.78764 0.93233 0.98227 0.0
H1832 H 0.78257 0.8965 0.93865 0.0
C1833 C 0.78569 0.8616 0.01195 0.0
C1834 C 0.09257 0.90387 0.00576 0.0
C1835 C 0.09398 0.88146 0.02357 0.0
H1836 H 0.11199 0.93784 0.96746 0.0
C1837 C 0.11743 0.87699 0.01713 0.0
H1838 H 0.0747 0.90778 0.01033 0.0
C1839 C 0.13903 0.89456 0.99316 0.0
C1840 C 0.13738 0.91669 0.97495 0.0
H1841 H 0.11944 0.86038 0.03116 0.0
H1842 H 0.15717 0.89101 0.98905 0.0
C1843 C 0.11394 0.92116 0.98144 0.0
C1844 C 0.10215 0.19016 0.00757 0.0
C1845 C 0.12399 0.21418 0.02567 0.0
H1846 H 0.06859 0.17507 0.96876 0.0
C1847 C 0.12775 0.24185 0.01937 0.0
H1848 H 0.09884 0.16858 0.01202 0.0
C1849 C 0.10996 0.24541 0.99532 0.0
C1850 C 0.08843 0.22146 0.97677 0.0
H1851 H 0.14398 0.2606 0.03356 0.0
H1852 H 0.11296 0.26692 0.99134 0.0
C1853 C 0.08474 0.19381 0.98305 0.0
C1854 C 0.86677 0.75789 0.505 0.0
C1855 C 0.8682 0.7819 0.52241 0.0
H1856 H 0.8863 0.74293 0.46734 0.0
C1857 C 0.89116 0.80985 0.51472 0.0
H1858 H 0.84901 0.73613 0.50997 0.0
C1859 C 0.91204 0.81375 0.48972 0.0
C1860 C 0.91074 0.7897 0.47271 0.0
H1861 H 0.89306 0.82867 0.52814 0.0
H1862 H 0.92942 0.83555 0.48396 0.0
C1863 C 0.88804 0.76173 0.48065 0.0
C1864 C 0.22424 0.11205 0.53147 0.0
C1865 C 0.22075 0.08508 0.52146 0.0
H1866 H 0.22342 0.15022 0.51562 0.0
C1867 C 0.21367 0.07591 0.48662 0.0
H1868 H 0.22926 0.11935 0.55838 0.0
C1869 C 0.21068 0.09372 0.46201 0.0
C1870 C 0.21494 0.1211 0.47177 0.0
H1871 H 0.21105 0.05526 0.47827 0.0
H1872 H 0.20544 0.08625 0.43519 0.0
C1873 C 0.22128 0.12988 0.50689 0.0
C1874 C 0.89207 0.13721 0.50822 0.0
C1875 C 0.91563 0.13648 0.52391 0.0
H1876 H 0.85673 0.11733 0.47179 0.0
C1877 C 0.92139 0.11432 0.51454 0.0
H1878 H 0.88745 0.15436 0.51441 0.0
C1879 C 0.90426 0.09362 0.48951 0.0
C1880 C 0.8806 0.09425 0.47416 0.0
H1881 H 0.93908 0.11293 0.52661 0.0
H1882 H 0.90933 0.07692 0.48239 0.0
C1883 C 0.87451 0.11608 0.48384 0.0
C1884 C 0.89151 0.44699 0.36526 0.0
C1885 C 0.88908 0.47106 0.35498 0.0
H1886 H 0.89006 0.40768 0.34953 0.0
C1887 C 0.88358 0.47401 0.31975 0.0
H1888 H 0.89541 0.44414 0.39243 0.0
C1889 C 0.88084 0.45334 0.2951 0.0
C1890 C 0.88384 0.42952 0.3052 0.0
H1891 H 0.8819 0.49254 0.3112 0.0
H1892 H 0.87671 0.45617 0.26801 0.0
C1893 C 0.88884 0.42636 0.34062 0.0
C1894 C 0.58075 0.43403 0.32524 0.0
C1895 C 0.57872 0.45554 0.30612 0.0
H1896 H 0.56174 0.40087 0.3646 0.0
C1897 C 0.55455 0.45911 0.31114 0.0
H1898 H 0.5992 0.43084 0.32179 0.0
C1899 C 0.53284 0.4415 0.33497 0.0
C1900 C 0.5351 0.42031 0.35454 0.0
H1901 H 0.55213 0.47505 0.29612 0.0
H1902 H 0.51416 0.44437 0.33802 0.0
C1903 C 0.55929 0.41677 0.34951 0.0
C1904 C 0.54139 0.0936 0.31677 0.0
C1905 C 0.54749 0.12148 0.30685 0.0
H1906 H 0.5543 0.06841 0.34772 0.0
C1907 C 0.57113 0.14585 0.3221 0.0
H1908 H 0.52363 0.07451 0.30481 0.0
C1909 C 0.58824 0.14241 0.34727 0.0
C1910 C 0.58245 0.11453 0.35691 0.0
H1911 H 0.5762 0.16759 0.31479 0.0
H1912 H 0.60591 0.16155 0.35926 0.0
C1913 C 0.55893 0.09016 0.34132 0.0
C1914 C 0.78009 0.52689 0.81482 0.0
C1915 C 0.80401 0.55469 0.80924 0.0
H1916 H 0.74039 0.50106 0.84296 0.0
C1917 C 0.80604 0.57829 0.82825 0.0
H1918 H 0.77782 0.50842 0.80018 0.0
C1919 C 0.78433 0.57424 0.85206 0.0
C1920 C 0.76042 0.54643 0.85762 0.0
H1921 H 0.82452 0.5999 0.82481 0.0
H1922 H 0.78657 0.59273 0.86663 0.0
C1923 C 0.75864 0.52275 0.83908 0.0
C1924 C 0.42739 0.20839 0.84924 0.0
C1925 C 0.45538 0.21402 0.85763 0.0
H1926 H 0.40177 0.2216 0.81967 0.0
C1927 C 0.47946 0.23706 0.84102 0.0
H1928 H 0.40856 0.19107 0.86225 0.0
C1929 C 0.47558 0.25401 0.81599 0.0
C1930 C 0.4476 0.24871 0.80789 0.0
H1931 H 0.50128 0.24176 0.84716 0.0
H1932 H 0.49446 0.27119 0.80292 0.0
C1933 C 0.42355 0.22583 0.8249 0.0
C1934 C 0.79666 0.22121 0.8502 0.0
C1935 C 0.79124 0.24366 0.85896 0.0
H1936 H 0.7832 0.18253 0.82025 0.0
C1937 C 0.76822 0.24494 0.8427 0.0
H1938 H 0.81394 0.2195 0.86292 0.0
C1939 C 0.75111 0.22427 0.81761 0.0
C1940 C 0.75623 0.20152 0.80914 0.0
H1941 H 0.7637 0.26214 0.84911 0.0
H1942 H 0.73399 0.22618 0.80475 0.0
C1943 C 0.77908 0.20012 0.8258 0.0
C1944 C 0.44738 0.22381 0.29938 0.0
C1945 C 0.4499 0.1998 0.30962 0.0
H1946 H 0.44893 0.26318 0.31511 0.0
C1947 C 0.45567 0.19699 0.3448 0.0
H1948 H 0.44327 0.22657 0.27225 0.0
C1949 C 0.45863 0.21777 0.36941 0.0
C1950 C 0.45556 0.24154 0.35934 0.0
H1951 H 0.45742 0.17849 0.35335 0.0
H1952 H 0.463 0.21506 0.39645 0.0
C1953 C 0.45025 0.24455 0.32398 0.0
C1954 C 0.77964 0.25396 0.31386 0.0
C1955 C 0.80416 0.25087 0.30959 0.0
H1956 H 0.73942 0.23961 0.34099 0.0
C1957 C 0.80673 0.23021 0.32991 0.0
H1958 H 0.77698 0.26948 0.29822 0.0
C1959 C 0.78495 0.21263 0.3537 0.0
C1960 C 0.76045 0.21575 0.35796 0.0
H1961 H 0.82567 0.22773 0.32747 0.0
H1962 H 0.78757 0.19706 0.36927 0.0
C1963 C 0.75812 0.23677 0.33811 0.0
C1964 C 0.7677 0.52489 0.34224 0.0
C1965 C 0.79127 0.54917 0.35776 0.0
H1966 H 0.73312 0.50941 0.30482 0.0
C1967 C 0.79744 0.5771 0.34798 0.0
H1968 H 0.76257 0.5031 0.34943 0.0
C1969 C 0.78006 0.58069 0.32335 0.0
C1970 C 0.75659 0.55641 0.30751 0.0
H1971 H 0.81515 0.59612 0.36013 0.0
H1972 H 0.78474 0.60248 0.31708 0.0
C1973 C 0.75074 0.52848 0.31699 0.0
C1974 C 0.55345 0.12636 0.79538 0.0
C1975 C 0.57697 0.12289 0.80545 0.0
H1976 H 0.51421 0.12526 0.81134 0.0
C1977 C 0.57959 0.117 0.8407 0.0
H1978 H 0.55106 0.13116 0.76841 0.0
C1979 C 0.55876 0.11405 0.86523 0.0
C1980 C 0.53499 0.11697 0.855 0.0
H1981 H 0.59802 0.1153 0.84953 0.0
H1982 H 0.56126 0.10955 0.8923 0.0
C1983 C 0.53253 0.12323 0.81991 0.0
C1984 C 0.88091 0.42884 0.79518 0.0
C1985 C 0.88439 0.45585 0.80525 0.0
H1986 H 0.8818 0.39058 0.81113 0.0
C1987 C 0.89022 0.46431 0.84052 0.0
H1988 H 0.87616 0.42165 0.76821 0.0
C1989 C 0.89314 0.44641 0.86502 0.0
C1990 C 0.89013 0.41967 0.85478 0.0
H1991 H 0.89186 0.4844 0.84943 0.0
H1992 H 0.89762 0.45338 0.89209 0.0
C1993 C 0.88391 0.41098 0.81969 0.0
C1994 C 0.57002 0.42511 0.82361 0.0
C1995 C 0.54755 0.42653 0.80602 0.0
H1996 H 0.60399 0.44438 0.86181 0.0
C1997 C 0.54296 0.44986 0.8128 0.0
H1998 H 0.57401 0.40732 0.81881 0.0
C1999 C 0.56051 0.47137 0.83683 0.0
C2000 C 0.58273 0.46973 0.85478 0.0
H2001 H 0.52628 0.45187 0.79895 0.0
H2002 H 0.55689 0.48944 0.84116 0.0
C2003 C 0.58727 0.44636 0.84801 0.0
C2004 C 0.52992 0.78025 0.6829 0.0
C2005 C 0.55781 0.80395 0.68869 0.0
H2006 H 0.50391 0.74078 0.65454 0.0
C2007 C 0.58141 0.80574 0.6699 0.0
H2008 H 0.51143 0.77818 0.69734 0.0
C2009 C 0.57724 0.78402 0.64606 0.0
C2010 C 0.54933 0.76038 0.64024 0.0
H2011 H 0.60308 0.82406 0.67346 0.0
H2012 H 0.59572 0.78607 0.63161 0.0
C2013 C 0.52568 0.75882 0.65862 0.0
C2014 C 0.22243 0.79487 0.64779 0.0
C2015 C 0.24558 0.79 0.64099 0.0
H2016 H 0.18296 0.78133 0.67628 0.0
C2017 C 0.24683 0.76748 0.65873 0.0
H2018 H 0.22056 0.81159 0.63384 0.0
C2019 C 0.22556 0.75042 0.68329 0.0
C2020 C 0.20236 0.75522 0.69005 0.0
H2021 H 0.26448 0.76328 0.65391 0.0
H2022 H 0.22737 0.73362 0.69717 0.0
C2023 C 0.20091 0.77751 0.67198 0.0
C2024 C 0.20979 0.4279 0.64684 0.0
C2025 C 0.21434 0.45584 0.64024 0.0
H2026 H 0.22375 0.4022 0.67503 0.0
C2027 C 0.23668 0.47967 0.65803 0.0
H2028 H 0.19318 0.40927 0.63286 0.0
C2029 C 0.25387 0.4756 0.68247 0.0
C2030 C 0.24941 0.44769 0.68903 0.0
H2031 H 0.24062 0.50145 0.65335 0.0
H2032 H 0.27049 0.49425 0.69644 0.0
C2033 C 0.22731 0.4239 0.67086 0.0
C2034 C 0.44603 0.85997 0.14753 0.0
C2035 C 0.47053 0.88756 0.14296 0.0
H2036 H 0.40591 0.83428 0.17493 0.0
C2037 C 0.47322 0.91091 0.16312 0.0
H2038 H 0.44328 0.8417 0.13202 0.0
C2039 C 0.45153 0.90686 0.18698 0.0
C2040 C 0.42703 0.87927 0.19148 0.0
H2041 H 0.49215 0.93233 0.16045 0.0
H2042 H 0.45422 0.92515 0.20238 0.0
C2043 C 0.42462 0.8558 0.17185 0.0
C2044 C 0.11359 0.55789 0.13408 0.0
C2045 C 0.11633 0.58453 0.14423 0.0
H2046 H 0.11514 0.52009 0.14985 0.0
C2047 C 0.12237 0.59326 0.17933 0.0
H2048 H 0.10926 0.5509 0.107 0.0
C2049 C 0.12543 0.5755 0.20395 0.0
C2050 C 0.1222 0.54858 0.19396 0.0
H2051 H 0.12427 0.61359 0.18781 0.0
H2052 H 0.13002 0.5827 0.23093 0.0
C2053 C 0.11658 0.5401 0.15868 0.0
C2054 C 0.41802 0.55725 0.15079 0.0
C2055 C 0.42379 0.53512 0.14129 0.0
H2056 H 0.43003 0.59454 0.18314 0.0
C2057 C 0.44731 0.53432 0.15699 0.0
H2058 H 0.40036 0.55869 0.13872 0.0
C2059 C 0.46483 0.55535 0.18149 0.0
C2060 C 0.45874 0.57716 0.19129 0.0
H2061 H 0.45193 0.51718 0.15071 0.0
H2062 H 0.48258 0.55404 0.19353 0.0
C2063 C 0.43511 0.57785 0.17593 0.0
C2064 C 0.14676 0.5789 0.67329 0.0
C2065 C 0.12309 0.57725 0.69172 0.0
H2066 H 0.16105 0.55966 0.63447 0.0
C2067 C 0.09521 0.55355 0.68596 0.0
H2068 H 0.1685 0.59699 0.67734 0.0
C2069 C 0.09108 0.53186 0.6621 0.0
C2070 C 0.11469 0.53375 0.64322 0.0
H2071 H 0.07673 0.55143 0.70045 0.0
H2072 H 0.06944 0.51349 0.65856 0.0
C2073 C 0.14255 0.5575 0.64898 0.0
C2074 C 0.45019 0.54248 0.68384 0.0
C2075 C 0.42697 0.54722 0.69071 0.0
H2076 H 0.4897 0.55624 0.65534 0.0
C2077 C 0.42564 0.56974 0.67308 0.0
H2078 H 0.45213 0.52576 0.6977 0.0
C2079 C 0.44687 0.5869 0.64854 0.0
C2080 C 0.47014 0.58223 0.64168 0.0
H2081 H 0.40793 0.57384 0.67797 0.0
H2082 H 0.44497 0.60367 0.63472 0.0
C2083 C 0.47169 0.55996 0.65969 0.0
C2084 C 0.41865 0.86184 0.6491 0.0
C2085 C 0.42326 0.88972 0.64199 0.0
H2086 H 0.43185 0.83619 0.67874 0.0
C2087 C 0.44559 0.91369 0.65966 0.0
H2088 H 0.40186 0.84306 0.63551 0.0
C2089 C 0.46316 0.90987 0.68378 0.0
C2090 C 0.45846 0.88196 0.69096 0.0
H2091 H 0.44928 0.93539 0.65507 0.0
H2092 H 0.47994 0.92863 0.6974 0.0
C2093 C 0.43591 0.85796 0.67363 0.0
C2094 C 0.20012 0.42623 0.17008 0.0
C2095 C 0.20239 0.44978 0.18946 0.0
H2096 H 0.2193 0.41184 0.13127 0.0
C2097 C 0.22649 0.47751 0.18413 0.0
H2098 H 0.18151 0.40468 0.17334 0.0
C2099 C 0.24786 0.48165 0.15976 0.0
C2100 C 0.24583 0.45802 0.14083 0.0
H2101 H 0.22894 0.49594 0.19905 0.0
H2102 H 0.26624 0.50329 0.15607 0.0
C2103 C 0.22175 0.43028 0.14614 0.0
C2104 C 0.55927 0.77959 0.19746 0.0
C2105 C 0.55661 0.75297 0.18736 0.0
H2106 H 0.55755 0.81729 0.18163 0.0
C2107 C 0.55059 0.7442 0.15227 0.0
H2108 H 0.56358 0.7866 0.22453 0.0
C2109 C 0.54747 0.76189 0.12761 0.0
C2110 C 0.55061 0.7888 0.13754 0.0
H2111 H 0.54873 0.72388 0.14383 0.0
H2112 H 0.54289 0.75466 0.10064 0.0
C2113 C 0.5562 0.79731 0.17282 0.0
C2114 C 0.25481 0.78057 0.18022 0.0
C2115 C 0.24928 0.80296 0.18916 0.0
H2116 H 0.2426 0.74295 0.14844 0.0
C2117 C 0.22607 0.80399 0.17292 0.0
H2118 H 0.27225 0.77898 0.19269 0.0
C2119 C 0.20854 0.78285 0.14853 0.0
C2120 C 0.21436 0.76074 0.13936 0.0
H2121 H 0.22165 0.82134 0.17878 0.0
H2122 H 0.19098 0.78427 0.13613 0.0
C2123 C 0.23774 0.75987 0.15518 0.0
loop_
_geom_bond_atom_site_label_1
_geom_bond_atom_site_label_2
_geom_bond_distance
_geom_bond_site_symmetry_2
_ccdc_geom_bond_type
Co0 O3 1.970 . S
Co0 N17 1.989 . S
Co0 O25 1.967 . S
Co0 O32 1.920 . S
Co1 O4 1.966 . S
Co1 N10 2.022 . S
Co1 N18 1.993 . S
Co1 O26 1.941 . S
C2 O3 1.258 . S
C2 O4 1.263 . S
O3 Co0 1.970 . S
O3 C2 1.258 . S
O4 Co1 1.966 . S
O4 C2 1.263 . S
C5 O6 1.235 . S
C5 O32 1.289 . S
O6 C5 1.235 . S
C7 C9 1.400 . S
C7 N10 1.351 . S
C7 C12 1.501 . S
C8 C9 1.387 . S
C8 N11 1.341 . S
C9 C7 1.400 . S
C9 C8 1.387 . S
N10 Co1 2.022 . S
N10 C7 1.351 . S
N10 N11 1.365 . S
N11 C8 1.341 . S
N11 N10 1.365 . S
N11 H31 0.862 . S
C12 C7 1.501 . S
C12 H13 0.961 . S
C12 H14 0.961 . S
C12 H15 0.960 . S
H13 C12 0.961 . S
H14 C12 0.961 . S
H15 C12 0.960 . S
C16 N17 1.342 . S
C16 C20 1.401 . S
C16 C21 1.499 . S
N17 Co0 1.989 . S
N17 C16 1.342 . S
N17 N18 1.388 . S
N18 Co1 1.993 . S
N18 N17 1.388 . S
N18 C19 1.346 . S
C19 N18 1.346 . S
C19 C20 1.396 . S
C19 C29 1.510 . S
C20 C16 1.401 . S
C20 C19 1.396 . S
C21 C16 1.499 . S
C21 H22 0.959 . S
C21 H23 0.960 . S
C21 H24 0.961 . S
H22 C21 0.959 . S
H23 C21 0.960 . S
H24 C21 0.961 . S
O25 Co0 1.967 . S
O25 C33 1.258 . S
O26 Co1 1.941 . S
O26 C33 1.266 . S
H27 C29 0.959 . S
H28 C29 0.961 . S
C29 C19 1.510 . S
C29 H27 0.959 . S
C29 H28 0.961 . S
C29 H30 0.960 . S
H30 C29 0.960 . S
H31 N11 0.862 . S
O32 Co0 1.920 . S
O32 C5 1.289 . S
C33 O25 1.258 . S
C33 O26 1.266 . S
Co34 O37 1.970 . S
Co34 N51 1.989 . S
Co34 O59 1.967 . S
Co34 O66 1.920 . S
Co35 O38 1.966 . S
Co35 N44 2.022 . S
Co35 N52 1.993 1_565 S
Co35 O60 1.941 . S
C36 O37 1.258 . S
C36 O38 1.263 1_545 S
O37 Co34 1.970 . S
O37 C36 1.258 . S
O38 Co35 1.966 . S
O38 C36 1.263 1_565 S
C39 O40 1.235 . S
C39 O66 1.289 . S
O40 C39 1.235 . S
C41 C43 1.400 . S
C41 N44 1.351 . S
C41 C46 1.501 . S
C42 C43 1.387 . S
C42 N45 1.341 . S
C43 C41 1.400 . S
C43 C42 1.387 . S
N44 Co35 2.022 . S
N44 C41 1.351 . S
N44 N45 1.365 . S
N45 C42 1.341 . S
N45 N44 1.365 . S
N45 H65 0.862 . S
C46 C41 1.501 . S
C46 H47 0.961 . S
C46 H48 0.961 . S
C46 H49 0.960 . S
H47 C46 0.961 . S
H48 C46 0.961 . S
H49 C46 0.960 . S
C50 N51 1.342 . S
C50 C54 1.401 . S
C50 C55 1.499 . S
N51 Co34 1.989 . S
N51 C50 1.342 . S
N51 N52 1.388 . S
N52 Co35 1.993 1_545 S
N52 N51 1.388 . S
N52 C53 1.346 . S
C53 N52 1.346 . S
C53 C54 1.396 . S
C53 C63 1.510 . S
C54 C50 1.401 . S
C54 C53 1.396 . S
C55 C50 1.499 . S
C55 H56 0.959 . S
C55 H57 0.960 . S
C55 H58 0.961 . S
H56 C55 0.959 . S
H57 C55 0.960 . S
H58 C55 0.961 . S
O59 Co34 1.967 . S
O59 C67 1.258 . S
O60 Co35 1.941 . S
O60 C67 1.266 1_565 S
H61 C63 0.959 . S
H62 C63 0.961 . S
C63 C53 1.510 . S
C63 H61 0.959 . S
C63 H62 0.961 . S
C63 H64 0.960 . S
H64 C63 0.960 . S
H65 N45 0.862 . S
O66 Co34 1.920 . S
O66 C39 1.289 . S
C67 O59 1.258 . S
C67 O60 1.266 1_545 S
Co68 O71 1.970 . S
Co68 N85 1.989 . S
Co68 O93 1.967 . S
Co68 O100 1.920 . S
Co69 O72 1.966 . S
Co69 N78 2.022 . S
Co69 N86 1.993 1_455 S
Co69 O94 1.941 . S
C70 O71 1.258 . S
C70 O72 1.263 1_655 S
O71 Co68 1.970 . S
O71 C70 1.258 . S
O72 Co69 1.966 . S
O72 C70 1.263 1_455 S
C73 O74 1.235 . S
C73 O100 1.289 . S
O74 C73 1.235 . S
C75 C77 1.400 . S
C75 N78 1.351 . S
C75 C80 1.501 . S
C76 C77 1.387 . S
C76 N79 1.341 . S
C77 C75 1.400 . S
C77 C76 1.387 . S
N78 Co69 2.022 . S
N78 C75 1.351 . S
N78 N79 1.365 . S
N79 C76 1.341 . S
N79 N78 1.365 . S
N79 H99 0.862 . S
C80 C75 1.501 . S
C80 H81 0.961 . S
C80 H82 0.961 . S
C80 H83 0.960 . S
H81 C80 0.961 . S
H82 C80 0.961 . S
H83 C80 0.960 . S
C84 N85 1.342 . S
C84 C88 1.401 . S
C84 C89 1.499 . S
N85 Co68 1.989 . S
N85 C84 1.342 . S
N85 N86 1.388 . S
N86 Co69 1.993 1_655 S
N86 N85 1.388 . S
N86 C87 1.346 . S
C87 N86 1.346 . S
C87 C88 1.396 . S
C87 C97 1.510 . S
C88 C84 1.401 . S
C88 C87 1.396 . S
C89 C84 1.499 . S
C89 H90 0.959 . S
C89 H91 0.960 . S
C89 H92 0.961 . S
H90 C89 0.959 . S
H91 C89 0.960 . S
H92 C89 0.961 . S
O93 Co68 1.967 . S
O93 C101 1.258 . S
O94 Co69 1.941 . S
O94 C101 1.266 1_455 S
H95 C97 0.959 . S
H96 C97 0.961 . S
C97 C87 1.510 . S
C97 H95 0.959 . S
C97 H96 0.961 . S
C97 H98 0.960 . S
H98 C97 0.960 . S
H99 N79 0.862 . S
O100 Co68 1.920 . S
O100 C73 1.289 . S
C101 O93 1.258 . S
C101 O94 1.266 1_655 S
Co102 O105 1.970 . S
Co102 N119 1.989 . S
Co102 O127 1.967 . S
Co102 O134 1.920 . S
Co103 O106 1.966 . S
Co103 N112 2.022 . S
Co103 N120 1.993 . S
Co103 O128 1.941 . S
C104 O105 1.258 . S
C104 O106 1.263 . S
O105 Co102 1.970 . S
O105 C104 1.258 . S
O106 Co103 1.966 . S
O106 C104 1.263 . S
C107 O108 1.235 . S
C107 O134 1.289 . S
O108 C107 1.235 . S
C109 C111 1.400 . S
C109 N112 1.351 . S
C109 C114 1.501 . S
C110 C111 1.387 . S
C110 N113 1.341 . S
C111 C109 1.400 . S
C111 C110 1.387 . S
N112 Co103 2.022 . S
N112 C109 1.351 . S
N112 N113 1.365 . S
N113 C110 1.341 . S
N113 N112 1.365 . S
N113 H133 0.862 . S
C114 C109 1.501 . S
C114 H115 0.961 . S
C114 H116 0.961 . S
C114 H117 0.960 . S
H115 C114 0.961 . S
H116 C114 0.961 . S
H117 C114 0.960 . S
C118 N119 1.342 . S
C118 C122 1.401 . S
C118 C123 1.499 . S
N119 Co102 1.989 . S
N119 C118 1.342 . S
N119 N120 1.388 . S
N120 Co103 1.993 . S
N120 N119 1.388 . S
N120 C121 1.346 . S
C121 N120 1.346 . S
C121 C122 1.396 . S
C121 C131 1.510 . S
C122 C118 1.401 . S
C122 C121 1.396 . S
C123 C118 1.499 . S
C123 H124 0.959 . S
C123 H125 0.960 . S
C123 H126 0.961 . S
H124 C123 0.959 . S
H125 C123 0.960 . S
H126 C123 0.961 . S
O127 Co102 1.967 . S
O127 C135 1.258 . S
O128 Co103 1.941 . S
O128 C135 1.266 . S
H129 C131 0.959 . S
H130 C131 0.961 . S
C131 C121 1.510 . S
C131 H129 0.959 . S
C131 H130 0.961 . S
C131 H132 0.960 . S
H132 C131 0.960 . S
H133 N113 0.862 . S
O134 Co102 1.920 . S
O134 C107 1.289 . S
C135 O127 1.258 . S
C135 O128 1.266 . S
Co136 O139 1.970 . S
Co136 N153 1.989 . S
Co136 O161 1.967 . S
Co136 O168 1.920 . S
Co137 O140 1.966 . S
Co137 N146 2.022 . S
Co137 N154 1.993 1_545 S
Co137 O162 1.941 . S
C138 O139 1.258 . S
C138 O140 1.263 1_565 S
O139 Co136 1.970 . S
O139 C138 1.258 . S
O140 Co137 1.966 . S
O140 C138 1.263 1_545 S
C141 O142 1.235 . S
C141 O168 1.289 . S
O142 C141 1.235 . S
C143 C145 1.400 . S
C143 N146 1.351 . S
C143 C148 1.501 . S
C144 C145 1.387 . S
C144 N147 1.341 . S
C145 C143 1.400 . S
C145 C144 1.387 . S
N146 Co137 2.022 . S
N146 C143 1.351 . S
N146 N147 1.365 . S
N147 C144 1.341 . S
N147 N146 1.365 . S
N147 H167 0.862 . S
C148 C143 1.501 . S
C148 H149 0.961 . S
C148 H150 0.961 . S
C148 H151 0.960 . S
H149 C148 0.961 . S
H150 C148 0.961 . S
H151 C148 0.960 . S
C152 N153 1.342 . S
C152 C156 1.401 . S
C152 C157 1.499 . S
N153 Co136 1.989 . S
N153 C152 1.342 . S
N153 N154 1.388 . S
N154 Co137 1.993 1_565 S
N154 N153 1.388 . S
N154 C155 1.346 . S
C155 N154 1.346 . S
C155 C156 1.396 . S
C155 C165 1.510 . S
C156 C152 1.401 . S
C156 C155 1.396 . S
C157 C152 1.499 . S
C157 H158 0.959 . S
C157 H159 0.960 . S
C157 H160 0.961 . S
H158 C157 0.959 . S
H159 C157 0.960 . S
H160 C157 0.961 . S
O161 Co136 1.967 . S
O161 C169 1.258 . S
O162 Co137 1.941 . S
O162 C169 1.266 1_545 S
H163 C165 0.959 . S
H164 C165 0.961 . S
C165 C155 1.510 . S
C165 H163 0.959 . S
C165 H164 0.961 . S
C165 H166 0.960 . S
H166 C165 0.960 . S
H167 N147 0.862 . S
O168 Co136 1.920 . S
O168 C141 1.289 . S
C169 O161 1.258 . S
C169 O162 1.266 1_565 S
Co170 O173 1.970 . S
Co170 N187 1.989 . S
Co170 O195 1.967 . S
Co170 O202 1.920 . S
Co171 O174 1.966 . S
Co171 N180 2.022 . S
Co171 N188 1.993 1_655 S
Co171 O196 1.941 . S
C172 O173 1.258 . S
C172 O174 1.263 1_455 S
O173 Co170 1.970 . S
O173 C172 1.258 . S
O174 Co171 1.966 . S
O174 C172 1.263 1_655 S
C175 O176 1.235 . S
C175 O202 1.289 . S
O176 C175 1.235 . S
C177 C179 1.400 . S
C177 N180 1.351 . S
C177 C182 1.501 . S
C178 C179 1.387 . S
C178 N181 1.341 . S
C179 C177 1.400 . S
C179 C178 1.387 . S
N180 Co171 2.022 . S
N180 C177 1.351 . S
N180 N181 1.365 . S
N181 C178 1.341 . S
N181 N180 1.365 . S
N181 H201 0.862 . S
C182 C177 1.501 . S
C182 H183 0.961 . S
C182 H184 0.961 . S
C182 H185 0.960 . S
H183 C182 0.961 . S
H184 C182 0.961 . S
H185 C182 0.960 . S
C186 N187 1.342 . S
C186 C190 1.401 . S
C186 C191 1.499 . S
N187 Co170 1.989 . S
N187 C186 1.342 . S
N187 N188 1.388 . S
N188 Co171 1.993 1_455 S
N188 N187 1.388 . S
N188 C189 1.346 . S
C189 N188 1.346 . S
C189 C190 1.396 . S
C189 C199 1.510 . S
C190 C186 1.401 . S
C190 C189 1.396 . S
C191 C186 1.499 . S
C191 H192 0.959 . S
C191 H193 0.960 . S
C191 H194 0.961 . S
H192 C191 0.959 . S
H193 C191 0.960 . S
H194 C191 0.961 . S
O195 Co170 1.967 . S
O195 C203 1.258 . S
O196 Co171 1.941 . S
O196 C203 1.266 1_655 S
H197 C199 0.959 . S
H198 C199 0.961 . S
C199 C189 1.510 . S
C199 H197 0.959 . S
C199 H198 0.961 . S
C199 H200 0.960 . S
H200 C199 0.960 . S
H201 N181 0.862 . S
O202 Co170 1.920 . S
O202 C175 1.289 . S
C203 O195 1.258 . S
C203 O196 1.266 1_455 S
Co204 O207 1.970 . S
Co204 N221 1.989 . S
Co204 O229 1.967 . S
Co204 O236 1.920 . S
Co205 O208 1.966 . S
Co205 N214 2.022 . S
Co205 N222 1.993 . S
Co205 O230 1.941 . S
C206 O207 1.258 . S
C206 O208 1.263 . S
O207 Co204 1.970 . S
O207 C206 1.258 . S
O208 Co205 1.966 . S
O208 C206 1.263 . S
C209 O210 1.235 . S
C209 O236 1.289 . S
O210 C209 1.235 . S
C211 C213 1.400 . S
C211 N214 1.351 . S
C211 C216 1.501 . S
C212 C213 1.387 . S
C212 N215 1.341 . S
C213 C211 1.400 . S
C213 C212 1.387 . S
N214 Co205 2.022 . S
N214 C211 1.351 . S
N214 N215 1.365 . S
N215 C212 1.341 . S
N215 N214 1.365 . S
N215 H235 0.862 . S
C216 C211 1.501 . S
C216 H217 0.961 . S
C216 H218 0.961 . S
C216 H219 0.960 . S
H217 C216 0.961 . S
H218 C216 0.961 . S
H219 C216 0.960 . S
C220 N221 1.342 . S
C220 C224 1.401 . S
C220 C225 1.499 . S
N221 Co204 1.989 . S
N221 C220 1.342 . S
N221 N222 1.388 . S
N222 Co205 1.993 . S
N222 N221 1.388 . S
N222 C223 1.346 . S
C223 N222 1.346 . S
C223 C224 1.396 . S
C223 C233 1.510 . S
C224 C220 1.401 . S
C224 C223 1.396 . S
C225 C220 1.499 . S
C225 H226 0.959 . S
C225 H227 0.960 . S
C225 H228 0.961 . S
H226 C225 0.959 . S
H227 C225 0.960 . S
H228 C225 0.961 . S
O229 Co204 1.967 . S
O229 C237 1.258 . S
O230 Co205 1.941 . S
O230 C237 1.266 . S
H231 C233 0.959 . S
H232 C233 0.961 . S
C233 C223 1.510 . S
C233 H231 0.959 . S
C233 H232 0.961 . S
C233 H234 0.960 . S
H234 C233 0.960 . S
H235 N215 0.862 . S
O236 Co204 1.920 . S
O236 C209 1.289 . S
C237 O229 1.258 . S
C237 O230 1.266 . S
Co238 O241 1.970 . S
Co238 N255 1.989 . S
Co238 O263 1.967 . S
Co238 O270 1.920 . S
Co239 O242 1.966 . S
Co239 N248 2.022 . S
Co239 N256 1.993 1_545 S
Co239 O264 1.941 . S
C240 O241 1.258 . S
C240 O242 1.263 1_565 S
O241 Co238 1.970 . S
O241 C240 1.258 . S
O242 Co239 1.966 . S
O242 C240 1.263 1_545 S
C243 O244 1.235 . S
C243 O270 1.289 . S
O244 C243 1.235 . S
C245 C247 1.400 . S
C245 N248 1.351 . S
C245 C250 1.501 . S
C246 C247 1.387 . S
C246 N249 1.341 . S
C247 C245 1.400 . S
C247 C246 1.387 . S
N248 Co239 2.022 . S
N248 C245 1.351 . S
N248 N249 1.365 . S
N249 C246 1.341 . S
N249 N248 1.365 . S
N249 H269 0.862 . S
C250 C245 1.501 . S
C250 H251 0.961 . S
C250 H252 0.961 . S
C250 H253 0.960 . S
H251 C250 0.961 . S
H252 C250 0.961 . S
H253 C250 0.960 . S
C254 N255 1.342 . S
C254 C258 1.401 . S
C254 C259 1.499 . S
N255 Co238 1.989 . S
N255 C254 1.342 . S
N255 N256 1.388 . S
N256 Co239 1.993 1_565 S
N256 N255 1.388 . S
N256 C257 1.346 . S
C257 N256 1.346 . S
C257 C258 1.396 . S
C257 C267 1.510 . S
C258 C254 1.401 . S
C258 C257 1.396 . S
C259 C254 1.499 . S
C259 H260 0.959 . S
C259 H261 0.960 . S
C259 H262 0.961 . S
H260 C259 0.959 . S
H261 C259 0.960 . S
H262 C259 0.961 . S
O263 Co238 1.967 . S
O263 C271 1.258 . S
O264 Co239 1.941 . S
O264 C271 1.266 1_545 S
H265 C267 0.959 . S
H266 C267 0.961 . S
C267 C257 1.510 . S
C267 H265 0.959 . S
C267 H266 0.961 . S
C267 H268 0.960 . S
H268 C267 0.960 . S
H269 N249 0.862 . S
O270 Co238 1.920 . S
O270 C243 1.289 . S
C271 O263 1.258 . S
C271 O264 1.266 1_565 S
Co272 O275 1.970 . S
Co272 N289 1.989 . S
Co272 O297 1.967 . S
Co272 O304 1.920 . S
Co273 O276 1.966 . S
Co273 N282 2.022 . S
Co273 N290 1.993 1_655 S
Co273 O298 1.941 . S
C274 O275 1.258 . S
C274 O276 1.263 1_455 S
O275 Co272 1.970 . S
O275 C274 1.258 . S
O276 Co273 1.966 . S
O276 C274 1.263 1_655 S
C277 O278 1.235 . S
C277 O304 1.289 . S
O278 C277 1.235 . S
C279 C281 1.400 . S
C279 N282 1.351 . S
C279 C284 1.501 . S
C280 C281 1.387 . S
C280 N283 1.341 . S
C281 C279 1.400 . S
C281 C280 1.387 . S
N282 Co273 2.022 . S
N282 C279 1.351 . S
N282 N283 1.365 . S
N283 C280 1.341 . S
N283 N282 1.365 . S
N283 H303 0.862 . S
C284 C279 1.501 . S
C284 H285 0.961 . S
C284 H286 0.961 . S
C284 H287 0.960 . S
H285 C284 0.961 . S
H286 C284 0.961 . S
H287 C284 0.960 . S
C288 N289 1.342 . S
C288 C292 1.401 . S
C288 C293 1.499 . S
N289 Co272 1.989 . S
N289 C288 1.342 . S
N289 N290 1.388 . S
N290 Co273 1.993 1_455 S
N290 N289 1.388 . S
N290 C291 1.346 . S
C291 N290 1.346 . S
C291 C292 1.396 . S
C291 C301 1.510 . S
C292 C288 1.401 . S
C292 C291 1.396 . S
C293 C288 1.499 . S
C293 H294 0.959 . S
C293 H295 0.960 . S
C293 H296 0.961 . S
H294 C293 0.959 . S
H295 C293 0.960 . S
H296 C293 0.961 . S
O297 Co272 1.967 . S
O297 C305 1.258 . S
O298 Co273 1.941 . S
O298 C305 1.266 1_655 S
H299 C301 0.959 . S
H300 C301 0.961 . S
C301 C291 1.510 . S
C301 H299 0.959 . S
C301 H300 0.961 . S
C301 H302 0.960 . S
H302 C301 0.960 . S
H303 N283 0.862 . S
O304 Co272 1.920 . S
O304 C277 1.289 . S
C305 O297 1.258 . S
C305 O298 1.266 1_455 S
Co306 O309 1.970 . S
Co306 N323 1.989 . S
Co306 O331 1.967 . S
Co306 O338 1.920 . S
Co307 O310 1.966 . S
Co307 N316 2.022 . S
Co307 N324 1.993 . S
Co307 O332 1.941 . S
C308 O309 1.258 . S
C308 O310 1.263 . S
O309 Co306 1.970 . S
O309 C308 1.258 . S
O310 Co307 1.966 . S
O310 C308 1.263 . S
C311 O312 1.235 . S
C311 O338 1.289 . S
O312 C311 1.235 . S
C313 C315 1.400 . S
C313 N316 1.351 . S
C313 C318 1.501 . S
C314 C315 1.387 . S
C314 N317 1.341 . S
C315 C313 1.400 . S
C315 C314 1.387 . S
N316 Co307 2.022 . S
N316 C313 1.351 . S
N316 N317 1.365 . S
N317 C314 1.341 . S
N317 N316 1.365 . S
N317 H337 0.862 . S
C318 C313 1.501 . S
C318 H319 0.961 . S
C318 H320 0.961 . S
C318 H321 0.960 . S
H319 C318 0.961 . S
H320 C318 0.961 . S
H321 C318 0.960 . S
C322 N323 1.342 . S
C322 C326 1.401 . S
C322 C327 1.499 . S
N323 Co306 1.989 . S
N323 C322 1.342 . S
N323 N324 1.388 . S
N324 Co307 1.993 . S
N324 N323 1.388 . S
N324 C325 1.346 . S
C325 N324 1.346 . S
C325 C326 1.396 . S
C325 C335 1.510 . S
C326 C322 1.401 . S
C326 C325 1.396 . S
C327 C322 1.499 . S
C327 H328 0.959 . S
C327 H329 0.960 . S
C327 H330 0.961 . S
H328 C327 0.959 . S
H329 C327 0.960 . S
H330 C327 0.961 . S
O331 Co306 1.967 . S
O331 C339 1.258 . S
O332 Co307 1.941 . S
O332 C339 1.266 . S
H333 C335 0.959 . S
H334 C335 0.961 . S
C335 C325 1.510 . S
C335 H333 0.959 . S
C335 H334 0.961 . S
C335 H336 0.960 . S
H336 C335 0.960 . S
H337 N317 0.862 . S
O338 Co306 1.920 . S
O338 C311 1.289 . S
C339 O331 1.258 . S
C339 O332 1.266 . S
Co340 O343 1.970 . S
Co340 N357 1.989 . S
Co340 O365 1.967 . S
Co340 O372 1.920 . S
Co341 O344 1.966 . S
Co341 N350 2.022 . S
Co341 N358 1.993 1_565 S
Co341 O366 1.941 . S
C342 O343 1.258 . S
C342 O344 1.263 1_545 S
O343 Co340 1.970 . S
O343 C342 1.258 . S
O344 Co341 1.966 . S
O344 C342 1.263 1_565 S
C345 O346 1.235 . S
C345 O372 1.289 . S
O346 C345 1.235 . S
C347 C349 1.400 . S
C347 N350 1.351 . S
C347 C352 1.501 . S
C348 C349 1.387 . S
C348 N351 1.341 . S
C349 C347 1.400 . S
C349 C348 1.387 . S
N350 Co341 2.022 . S
N350 C347 1.351 . S
N350 N351 1.365 . S
N351 C348 1.341 . S
N351 N350 1.365 . S
N351 H371 0.862 . S
C352 C347 1.501 . S
C352 H353 0.961 . S
C352 H354 0.961 . S
C352 H355 0.960 . S
H353 C352 0.961 . S
H354 C352 0.961 . S
H355 C352 0.960 . S
C356 N357 1.342 . S
C356 C360 1.401 . S
C356 C361 1.499 . S
N357 Co340 1.989 . S
N357 C356 1.342 . S
N357 N358 1.388 . S
N358 Co341 1.993 1_545 S
N358 N357 1.388 . S
N358 C359 1.346 . S
C359 N358 1.346 . S
C359 C360 1.396 . S
C359 C369 1.510 . S
C360 C356 1.401 . S
C360 C359 1.396 . S
C361 C356 1.499 . S
C361 H362 0.959 . S
C361 H363 0.960 . S
C361 H364 0.961 . S
H362 C361 0.959 . S
H363 C361 0.960 . S
H364 C361 0.961 . S
O365 Co340 1.967 . S
O365 C373 1.258 . S
O366 Co341 1.941 . S
O366 C373 1.266 1_565 S
H367 C369 0.959 . S
H368 C369 0.961 . S
C369 C359 1.510 . S
C369 H367 0.959 . S
C369 H368 0.961 . S
C369 H370 0.960 . S
H370 C369 0.960 . S
H371 N351 0.862 . S
O372 Co340 1.920 . S
O372 C345 1.289 . S
C373 O365 1.258 . S
C373 O366 1.266 1_545 S
Co374 O377 1.970 . S
Co374 N391 1.989 . S
Co374 O399 1.967 . S
Co374 O406 1.920 . S
Co375 O378 1.966 . S
Co375 N384 2.022 . S
Co375 N392 1.993 1_455 S
Co375 O400 1.941 . S
C376 O377 1.258 . S
C376 O378 1.263 1_655 S
O377 Co374 1.970 . S
O377 C376 1.258 . S
O378 Co375 1.966 . S
O378 C376 1.263 1_455 S
C379 O380 1.235 . S
C379 O406 1.289 . S
O380 C379 1.235 . S
C381 C383 1.400 . S
C381 N384 1.351 . S
C381 C386 1.501 . S
C382 C383 1.387 . S
C382 N385 1.341 . S
C383 C381 1.400 . S
C383 C382 1.387 . S
N384 Co375 2.022 . S
N384 C381 1.351 . S
N384 N385 1.365 . S
N385 C382 1.341 . S
N385 N384 1.365 . S
N385 H405 0.862 . S
C386 C381 1.501 . S
C386 H387 0.961 . S
C386 H388 0.961 . S
C386 H389 0.960 . S
H387 C386 0.961 . S
H388 C386 0.961 . S
H389 C386 0.960 . S
C390 N391 1.342 . S
C390 C394 1.401 . S
C390 C395 1.499 . S
N391 Co374 1.989 . S
N391 C390 1.342 . S
N391 N392 1.388 . S
N392 Co375 1.993 1_655 S
N392 N391 1.388 . S
N392 C393 1.346 . S
C393 N392 1.346 . S
C393 C394 1.396 . S
C393 C403 1.510 . S
C394 C390 1.401 . S
C394 C393 1.396 . S
C395 C390 1.499 . S
C395 H396 0.959 . S
C395 H397 0.960 . S
C395 H398 0.961 . S
H396 C395 0.959 . S
H397 C395 0.960 . S
H398 C395 0.961 . S
O399 Co374 1.967 . S
O399 C407 1.258 . S
O400 Co375 1.941 . S
O400 C407 1.266 1_455 S
H401 C403 0.959 . S
H402 C403 0.961 . S
C403 C393 1.510 . S
C403 H401 0.959 . S
C403 H402 0.961 . S
C403 H404 0.960 . S
H404 C403 0.960 . S
H405 N385 0.862 . S
O406 Co374 1.920 . S
O406 C379 1.289 . S
C407 O399 1.258 . S
C407 O400 1.266 1_655 S
Co408 O411 1.970 . S
Co408 N425 1.989 . S
Co408 O433 1.967 . S
Co408 O440 1.920 . S
Co409 O412 1.966 . S
Co409 N418 2.022 . S
Co409 N426 1.993 . S
Co409 O434 1.941 . S
C410 O411 1.258 . S
C410 O412 1.263 . S
O411 Co408 1.970 . S
O411 C410 1.258 . S
O412 Co409 1.966 . S
O412 C410 1.263 . S
C413 O414 1.235 . S
C413 O440 1.289 . S
O414 C413 1.235 . S
C415 C417 1.400 . S
C415 N418 1.351 . S
C415 C420 1.501 . S
C416 C417 1.387 . S
C416 N419 1.341 . S
C417 C415 1.400 . S
C417 C416 1.387 . S
N418 Co409 2.022 . S
N418 C415 1.351 . S
N418 N419 1.365 . S
N419 C416 1.341 . S
N419 N418 1.365 . S
N419 H439 0.862 . S
C420 C415 1.501 . S
C420 H421 0.961 . S
C420 H422 0.961 . S
C420 H423 0.960 . S
H421 C420 0.961 . S
H422 C420 0.961 . S
H423 C420 0.960 . S
C424 N425 1.342 . S
C424 C428 1.401 . S
C424 C429 1.499 . S
N425 Co408 1.989 . S
N425 C424 1.342 . S
N425 N426 1.388 . S
N426 Co409 1.993 . S
N426 N425 1.388 . S
N426 C427 1.346 . S
C427 N426 1.346 . S
C427 C428 1.396 . S
C427 C437 1.510 . S
C428 C424 1.401 . S
C428 C427 1.396 . S
C429 C424 1.499 . S
C429 H430 0.959 . S
C429 H431 0.960 . S
C429 H432 0.961 . S
H430 C429 0.959 . S
H431 C429 0.960 . S
H432 C429 0.961 . S
O433 Co408 1.967 . S
O433 C441 1.258 . S
O434 Co409 1.941 . S
O434 C441 1.266 . S
H435 C437 0.959 . S
H436 C437 0.961 . S
C437 C427 1.510 . S
C437 H435 0.959 . S
C437 H436 0.961 . S
C437 H438 0.960 . S
H438 C437 0.960 . S
H439 N419 0.862 . S
O440 Co408 1.920 . S
O440 C413 1.289 . S
C441 O433 1.258 . S
C441 O434 1.266 . S
Co442 O445 1.970 . S
Co442 N459 1.989 . S
Co442 O467 1.967 . S
Co442 O474 1.920 . S
Co443 O446 1.966 . S
Co443 N452 2.022 . S
Co443 N460 1.993 . S
Co443 O468 1.941 . S
C444 O445 1.258 . S
C444 O446 1.263 . S
O445 Co442 1.970 . S
O445 C444 1.258 . S
O446 Co443 1.966 . S
O446 C444 1.263 . S
C447 O448 1.235 . S
C447 O474 1.289 . S
O448 C447 1.235 . S
C449 C451 1.400 . S
C449 N452 1.351 . S
C449 C454 1.501 . S
C450 C451 1.387 . S
C450 N453 1.341 . S
C451 C449 1.400 . S
C451 C450 1.387 . S
N452 Co443 2.022 . S
N452 C449 1.351 . S
N452 N453 1.365 . S
N453 C450 1.341 . S
N453 N452 1.365 . S
N453 H473 0.862 . S
C454 C449 1.501 . S
C454 H455 0.961 . S
C454 H456 0.961 . S
C454 H457 0.960 . S
H455 C454 0.961 . S
H456 C454 0.961 . S
H457 C454 0.960 . S
C458 N459 1.342 . S
C458 C462 1.401 . S
C458 C463 1.499 . S
N459 Co442 1.989 . S
N459 C458 1.342 . S
N459 N460 1.388 . S
N460 Co443 1.993 . S
N460 N459 1.388 . S
N460 C461 1.346 . S
C461 N460 1.346 . S
C461 C462 1.396 . S
C461 C471 1.510 . S
C462 C458 1.401 . S
C462 C461 1.396 . S
C463 C458 1.499 . S
C463 H464 0.959 . S
C463 H465 0.960 . S
C463 H466 0.961 . S
H464 C463 0.959 . S
H465 C463 0.960 . S
H466 C463 0.961 . S
O467 Co442 1.967 . S
O467 C475 1.258 . S
O468 Co443 1.941 . S
O468 C475 1.266 . S
H469 C471 0.959 . S
H470 C471 0.961 . S
C471 C461 1.510 . S
C471 H469 0.959 . S
C471 H470 0.961 . S
C471 H472 0.960 . S
H472 C471 0.960 . S
H473 N453 0.862 . S
O474 Co442 1.920 . S
O474 C447 1.289 . S
C475 O467 1.258 . S
C475 O468 1.266 . S
Co476 O479 1.970 . S
Co476 N493 1.989 . S
Co476 O501 1.967 . S
Co476 O508 1.920 . S
Co477 O480 1.966 . S
Co477 N486 2.022 . S
Co477 N494 1.993 . S
Co477 O502 1.941 . S
C478 O479 1.258 . S
C478 O480 1.263 . S
O479 Co476 1.970 . S
O479 C478 1.258 . S
O480 Co477 1.966 . S
O480 C478 1.263 . S
C481 O482 1.235 . S
C481 O508 1.289 . S
O482 C481 1.235 . S
C483 C485 1.400 . S
C483 N486 1.351 . S
C483 C488 1.501 . S
C484 C485 1.387 . S
C484 N487 1.341 . S
C485 C483 1.400 . S
C485 C484 1.387 . S
N486 Co477 2.022 . S
N486 C483 1.351 . S
N486 N487 1.365 . S
N487 C484 1.341 . S
N487 N486 1.365 . S
N487 H507 0.862 . S
C488 C483 1.501 . S
C488 H489 0.961 . S
C488 H490 0.961 . S
C488 H491 0.960 . S
H489 C488 0.961 . S
H490 C488 0.961 . S
H491 C488 0.960 . S
C492 N493 1.342 . S
C492 C496 1.401 . S
C492 C497 1.499 . S
N493 Co476 1.989 . S
N493 C492 1.342 . S
N493 N494 1.388 . S
N494 Co477 1.993 . S
N494 N493 1.388 . S
N494 C495 1.346 . S
C495 N494 1.346 . S
C495 C496 1.396 . S
C495 C505 1.510 . S
C496 C492 1.401 . S
C496 C495 1.396 . S
C497 C492 1.499 . S
C497 H498 0.959 . S
C497 H499 0.960 . S
C497 H500 0.961 . S
H498 C497 0.959 . S
H499 C497 0.960 . S
H500 C497 0.961 . S
O501 Co476 1.967 . S
O501 C509 1.258 . S
O502 Co477 1.941 . S
O502 C509 1.266 . S
H503 C505 0.959 . S
H504 C505 0.961 . S
C505 C495 1.510 . S
C505 H503 0.959 . S
C505 H504 0.961 . S
C505 H506 0.960 . S
H506 C505 0.960 . S
H507 N487 0.862 . S
O508 Co476 1.920 . S
O508 C481 1.289 . S
C509 O501 1.258 . S
C509 O502 1.266 . S
Co510 O513 1.970 . S
Co510 N527 1.989 . S
Co510 O535 1.967 . S
Co510 O542 1.920 . S
Co511 O514 1.966 . S
Co511 N520 2.022 . S
Co511 N528 1.993 . S
Co511 O536 1.941 . S
C512 O513 1.258 . S
C512 O514 1.263 . S
O513 Co510 1.970 . S
O513 C512 1.258 . S
O514 Co511 1.966 . S
O514 C512 1.263 . S
C515 O516 1.235 . S
C515 O542 1.289 . S
O516 C515 1.235 . S
C517 C519 1.400 . S
C517 N520 1.351 . S
C517 C522 1.501 . S
C518 C519 1.387 . S
C518 N521 1.341 . S
C519 C517 1.400 . S
C519 C518 1.387 . S
N520 Co511 2.022 . S
N520 C517 1.351 . S
N520 N521 1.365 . S
N521 C518 1.341 . S
N521 N520 1.365 . S
N521 H541 0.862 . S
C522 C517 1.501 . S
C522 H523 0.961 . S
C522 H524 0.961 . S
C522 H525 0.960 . S
H523 C522 0.961 . S
H524 C522 0.961 . S
H525 C522 0.960 . S
C526 N527 1.342 . S
C526 C530 1.401 . S
C526 C531 1.499 . S
N527 Co510 1.989 . S
N527 C526 1.342 . S
N527 N528 1.388 . S
N528 Co511 1.993 . S
N528 N527 1.388 . S
N528 C529 1.346 . S
C529 N528 1.346 . S
C529 C530 1.396 . S
C529 C539 1.510 . S
C530 C526 1.401 . S
C530 C529 1.396 . S
C531 C526 1.499 . S
C531 H532 0.959 . S
C531 H533 0.960 . S
C531 H534 0.961 . S
H532 C531 0.959 . S
H533 C531 0.960 . S
H534 C531 0.961 . S
O535 Co510 1.967 . S
O535 C543 1.258 . S
O536 Co511 1.941 . S
O536 C543 1.266 . S
H537 C539 0.959 . S
H538 C539 0.961 . S
C539 C529 1.510 . S
C539 H537 0.959 . S
C539 H538 0.961 . S
C539 H540 0.960 . S
H540 C539 0.960 . S
H541 N521 0.862 . S
O542 Co510 1.920 . S
O542 C515 1.289 . S
C543 O535 1.258 . S
C543 O536 1.266 . S
Co544 O547 1.970 . S
Co544 N561 1.989 . S
Co544 O569 1.967 . S
Co544 O576 1.920 . S
Co545 O548 1.966 . S
Co545 N554 2.022 . S
Co545 N562 1.993 . S
Co545 O570 1.941 . S
C546 O547 1.258 . S
C546 O548 1.263 . S
O547 Co544 1.970 . S
O547 C546 1.258 . S
O548 Co545 1.966 . S
O548 C546 1.263 . S
C549 O550 1.235 . S
C549 O576 1.289 . S
O550 C549 1.235 . S
C551 C553 1.400 . S
C551 N554 1.351 . S
C551 C556 1.501 . S
C552 C553 1.387 . S
C552 N555 1.341 . S
C553 C551 1.400 . S
C553 C552 1.387 . S
N554 Co545 2.022 . S
N554 C551 1.351 . S
N554 N555 1.365 . S
N555 C552 1.341 . S
N555 N554 1.365 . S
N555 H575 0.862 . S
C556 C551 1.501 . S
C556 H557 0.961 . S
C556 H558 0.961 . S
C556 H559 0.960 . S
H557 C556 0.961 . S
H558 C556 0.961 . S
H559 C556 0.960 . S
C560 N561 1.342 . S
C560 C564 1.401 . S
C560 C565 1.499 . S
N561 Co544 1.989 . S
N561 C560 1.342 . S
N561 N562 1.388 . S
N562 Co545 1.993 . S
N562 N561 1.388 . S
N562 C563 1.346 . S
C563 N562 1.346 . S
C563 C564 1.396 . S
C563 C573 1.510 . S
C564 C560 1.401 . S
C564 C563 1.396 . S
C565 C560 1.499 . S
C565 H566 0.959 . S
C565 H567 0.960 . S
C565 H568 0.961 . S
H566 C565 0.959 . S
H567 C565 0.960 . S
H568 C565 0.961 . S
O569 Co544 1.967 . S
O569 C577 1.258 . S
O570 Co545 1.941 . S
O570 C577 1.266 . S
H571 C573 0.959 . S
H572 C573 0.961 . S
C573 C563 1.510 . S
C573 H571 0.959 . S
C573 H572 0.961 . S
C573 H574 0.960 . S
H574 C573 0.960 . S
H575 N555 0.862 . S
O576 Co544 1.920 . S
O576 C549 1.289 . S
C577 O569 1.258 . S
C577 O570 1.266 . S
Co578 O581 1.970 . S
Co578 N595 1.989 . S
Co578 O603 1.967 . S
Co578 O610 1.920 . S
Co579 O582 1.966 . S
Co579 N588 2.022 . S
Co579 N596 1.993 . S
Co579 O604 1.941 . S
C580 O581 1.258 . S
C580 O582 1.263 . S
O581 Co578 1.970 . S
O581 C580 1.258 . S
O582 Co579 1.966 . S
O582 C580 1.263 . S
C583 O584 1.235 . S
C583 O610 1.289 . S
O584 C583 1.235 . S
C585 C587 1.400 . S
C585 N588 1.351 . S
C585 C590 1.501 . S
C586 C587 1.387 . S
C586 N589 1.341 . S
C587 C585 1.400 . S
C587 C586 1.387 . S
N588 Co579 2.022 . S
N588 C585 1.351 . S
N588 N589 1.365 . S
N589 C586 1.341 . S
N589 N588 1.365 . S
N589 H609 0.862 . S
C590 C585 1.501 . S
C590 H591 0.961 . S
C590 H592 0.961 . S
C590 H593 0.960 . S
H591 C590 0.961 . S
H592 C590 0.961 . S
H593 C590 0.960 . S
C594 N595 1.342 . S
C594 C598 1.401 . S
C594 C599 1.499 . S
N595 Co578 1.989 . S
N595 C594 1.342 . S
N595 N596 1.388 . S
N596 Co579 1.993 . S
N596 N595 1.388 . S
N596 C597 1.346 . S
C597 N596 1.346 . S
C597 C598 1.396 . S
C597 C607 1.510 . S
C598 C594 1.401 . S
C598 C597 1.396 . S
C599 C594 1.499 . S
C599 H600 0.959 . S
C599 H601 0.960 . S
C599 H602 0.961 . S
H600 C599 0.959 . S
H601 C599 0.960 . S
H602 C599 0.961 . S
O603 Co578 1.967 . S
O603 C611 1.258 . S
O604 Co579 1.941 . S
O604 C611 1.266 . S
H605 C607 0.959 . S
H606 C607 0.961 . S
C607 C597 1.510 . S
C607 H605 0.959 . S
C607 H606 0.961 . S
C607 H608 0.960 . S
H608 C607 0.960 . S
H609 N589 0.862 . S
O610 Co578 1.920 . S
O610 C583 1.289 . S
C611 O603 1.258 . S
C611 O604 1.266 . S
Co612 O615 1.970 . S
Co612 N629 1.989 . S
Co612 O637 1.967 . S
Co612 O644 1.920 . S
Co613 O616 1.966 . S
Co613 N622 2.022 . S
Co613 N630 1.993 . S
Co613 O638 1.941 . S
C614 O615 1.258 . S
C614 O616 1.263 . S
O615 Co612 1.970 . S
O615 C614 1.258 . S
O616 Co613 1.966 . S
O616 C614 1.263 . S
C617 O618 1.235 . S
C617 O644 1.289 . S
O618 C617 1.235 . S
C619 C621 1.400 . S
C619 N622 1.351 . S
C619 C624 1.501 . S
C620 C621 1.387 . S
C620 N623 1.341 . S
C621 C619 1.400 . S
C621 C620 1.387 . S
N622 Co613 2.022 . S
N622 C619 1.351 . S
N622 N623 1.365 . S
N623 C620 1.341 . S
N623 N622 1.365 . S
N623 H643 0.862 . S
C624 C619 1.501 . S
C624 H625 0.961 . S
C624 H626 0.961 . S
C624 H627 0.960 . S
H625 C624 0.961 . S
H626 C624 0.961 . S
H627 C624 0.960 . S
C628 N629 1.342 . S
C628 C632 1.401 . S
C628 C633 1.499 . S
N629 Co612 1.989 . S
N629 C628 1.342 . S
N629 N630 1.388 . S
N630 Co613 1.993 . S
N630 N629 1.388 . S
N630 C631 1.346 . S
C631 N630 1.346 . S
C631 C632 1.396 . S
C631 C641 1.510 . S
C632 C628 1.401 . S
C632 C631 1.396 . S
C633 C628 1.499 . S
C633 H634 0.959 . S
C633 H635 0.960 . S
C633 H636 0.961 . S
H634 C633 0.959 . S
H635 C633 0.960 . S
H636 C633 0.961 . S
O637 Co612 1.967 . S
O637 C645 1.258 . S
O638 Co613 1.941 . S
O638 C645 1.266 . S
H639 C641 0.959 . S
H640 C641 0.961 . S
C641 C631 1.510 . S
C641 H639 0.959 . S
C641 H640 0.961 . S
C641 H642 0.960 . S
H642 C641 0.960 . S
H643 N623 0.862 . S
O644 Co612 1.920 . S
O644 C617 1.289 . S
C645 O637 1.258 . S
C645 O638 1.266 . S
Co646 O649 1.970 . S
Co646 N663 1.989 . S
Co646 O671 1.967 . S
Co646 O678 1.920 . S
Co647 O650 1.966 . S
Co647 N656 2.022 . S
Co647 N664 1.993 . S
Co647 O672 1.941 . S
C648 O649 1.258 . S
C648 O650 1.263 . S
O649 Co646 1.970 . S
O649 C648 1.258 . S
O650 Co647 1.966 . S
O650 C648 1.263 . S
C651 O652 1.235 . S
C651 O678 1.289 . S
O652 C651 1.235 . S
C653 C655 1.400 . S
C653 N656 1.351 . S
C653 C658 1.501 . S
C654 C655 1.387 . S
C654 N657 1.341 . S
C655 C653 1.400 . S
C655 C654 1.387 . S
N656 Co647 2.022 . S
N656 C653 1.351 . S
N656 N657 1.365 . S
N657 C654 1.341 . S
N657 N656 1.365 . S
N657 H677 0.862 . S
C658 C653 1.501 . S
C658 H659 0.961 . S
C658 H660 0.961 . S
C658 H661 0.960 . S
H659 C658 0.961 . S
H660 C658 0.961 . S
H661 C658 0.960 . S
C662 N663 1.342 . S
C662 C666 1.401 . S
C662 C667 1.499 . S
N663 Co646 1.989 . S
N663 C662 1.342 . S
N663 N664 1.388 . S
N664 Co647 1.993 . S
N664 N663 1.388 . S
N664 C665 1.346 . S
C665 N664 1.346 . S
C665 C666 1.396 . S
C665 C675 1.510 . S
C666 C662 1.401 . S
C666 C665 1.396 . S
C667 C662 1.499 . S
C667 H668 0.959 . S
C667 H669 0.960 . S
C667 H670 0.961 . S
H668 C667 0.959 . S
H669 C667 0.960 . S
H670 C667 0.961 . S
O671 Co646 1.967 . S
O671 C679 1.258 . S
O672 Co647 1.941 . S
O672 C679 1.266 . S
H673 C675 0.959 . S
H674 C675 0.961 . S
C675 C665 1.510 . S
C675 H673 0.959 . S
C675 H674 0.961 . S
C675 H676 0.960 . S
H676 C675 0.960 . S
H677 N657 0.862 . S
O678 Co646 1.920 . S
O678 C651 1.289 . S
C679 O671 1.258 . S
C679 O672 1.266 . S
Co680 O683 1.970 . S
Co680 N697 1.989 . S
Co680 O705 1.967 . S
Co680 O712 1.920 . S
Co681 O684 1.966 . S
Co681 N690 2.022 . S
Co681 N698 1.993 . S
Co681 O706 1.941 . S
C682 O683 1.258 . S
C682 O684 1.263 . S
O683 Co680 1.970 . S
O683 C682 1.258 . S
O684 Co681 1.966 . S
O684 C682 1.263 . S
C685 O686 1.235 . S
C685 O712 1.289 . S
O686 C685 1.235 . S
C687 C689 1.400 . S
C687 N690 1.351 . S
C687 C692 1.501 . S
C688 C689 1.387 . S
C688 N691 1.341 . S
C689 C687 1.400 . S
C689 C688 1.387 . S
N690 Co681 2.022 . S
N690 C687 1.351 . S
N690 N691 1.365 . S
N691 C688 1.341 . S
N691 N690 1.365 . S
N691 H711 0.862 . S
C692 C687 1.501 . S
C692 H693 0.961 . S
C692 H694 0.961 . S
C692 H695 0.960 . S
H693 C692 0.961 . S
H694 C692 0.961 . S
H695 C692 0.960 . S
C696 N697 1.342 . S
C696 C700 1.401 . S
C696 C701 1.499 . S
N697 Co680 1.989 . S
N697 C696 1.342 . S
N697 N698 1.388 . S
N698 Co681 1.993 . S
N698 N697 1.388 . S
N698 C699 1.346 . S
C699 N698 1.346 . S
C699 C700 1.396 . S
C699 C709 1.510 . S
C700 C696 1.401 . S
C700 C699 1.396 . S
C701 C696 1.499 . S
C701 H702 0.959 . S
C701 H703 0.960 . S
C701 H704 0.961 . S
H702 C701 0.959 . S
H703 C701 0.960 . S
H704 C701 0.961 . S
O705 Co680 1.967 . S
O705 C713 1.258 . S
O706 Co681 1.941 . S
O706 C713 1.266 . S
H707 C709 0.959 . S
H708 C709 0.961 . S
C709 C699 1.510 . S
C709 H707 0.959 . S
C709 H708 0.961 . S
C709 H710 0.960 . S
H710 C709 0.960 . S
H711 N691 0.862 . S
O712 Co680 1.920 . S
O712 C685 1.289 . S
C713 O705 1.258 . S
C713 O706 1.266 . S
Co714 O717 1.970 . S
Co714 N731 1.989 . S
Co714 O739 1.967 1_556 S
Co714 O746 1.920 . S
Co715 O718 1.966 . S
Co715 N724 2.022 . S
Co715 N732 1.993 . S
Co715 O740 1.941 . S
C716 O717 1.258 . S
C716 O718 1.263 . S
O717 Co714 1.970 . S
O717 C716 1.258 . S
O718 Co715 1.966 . S
O718 C716 1.263 . S
C719 O720 1.235 . S
C719 O746 1.289 . S
O720 C719 1.235 . S
C721 C723 1.400 . S
C721 N724 1.351 . S
C721 C726 1.501 . S
C722 C723 1.387 . S
C722 N725 1.341 . S
C723 C721 1.400 . S
C723 C722 1.387 . S
N724 Co715 2.022 . S
N724 C721 1.351 . S
N724 N725 1.365 . S
N725 C722 1.341 . S
N725 N724 1.365 . S
N725 H745 0.862 . S
C726 C721 1.501 . S
C726 H727 0.961 . S
C726 H728 0.961 . S
C726 H729 0.960 . S
H727 C726 0.961 . S
H728 C726 0.961 . S
H729 C726 0.960 . S
C730 N731 1.342 . S
C730 C734 1.401 . S
C730 C735 1.499 . S
N731 Co714 1.989 . S
N731 C730 1.342 . S
N731 N732 1.388 . S
N732 Co715 1.993 . S
N732 N731 1.388 . S
N732 C733 1.346 . S
C733 N732 1.346 . S
C733 C734 1.396 . S
C733 C743 1.510 . S
C734 C730 1.401 . S
C734 C733 1.396 . S
C735 C730 1.499 . S
C735 H736 0.959 . S
C735 H737 0.960 . S
C735 H738 0.961 . S
H736 C735 0.959 . S
H737 C735 0.960 . S
H738 C735 0.961 . S
O739 Co714 1.967 1_554 S
O739 C747 1.258 . S
O740 Co715 1.941 . S
O740 C747 1.266 1_556 S
H741 C743 0.959 . S
H742 C743 0.961 . S
C743 C733 1.510 . S
C743 H741 0.959 . S
C743 H742 0.961 . S
C743 H744 0.960 . S
H744 C743 0.960 . S
H745 N725 0.862 . S
O746 Co714 1.920 . S
O746 C719 1.289 . S
C747 O739 1.258 . S
C747 O740 1.266 1_554 S
Co748 O751 1.970 . S
Co748 N765 1.989 . S
Co748 O773 1.967 1_556 S
Co748 O780 1.920 . S
Co749 O752 1.966 . S
Co749 N758 2.022 . S
Co749 N766 1.993 . S
Co749 O774 1.941 . S
C750 O751 1.258 . S
C750 O752 1.263 . S
O751 Co748 1.970 . S
O751 C750 1.258 . S
O752 Co749 1.966 . S
O752 C750 1.263 . S
C753 O754 1.235 . S
C753 O780 1.289 . S
O754 C753 1.235 . S
C755 C757 1.400 . S
C755 N758 1.351 . S
C755 C760 1.501 . S
C756 C757 1.387 . S
C756 N759 1.341 . S
C757 C755 1.400 . S
C757 C756 1.387 . S
N758 Co749 2.022 . S
N758 C755 1.351 . S
N758 N759 1.365 . S
N759 C756 1.341 . S
N759 N758 1.365 . S
N759 H779 0.862 . S
C760 C755 1.501 . S
C760 H761 0.961 . S
C760 H762 0.961 . S
C760 H763 0.960 . S
H761 C760 0.961 . S
H762 C760 0.961 . S
H763 C760 0.960 . S
C764 N765 1.342 . S
C764 C768 1.401 . S
C764 C769 1.499 . S
N765 Co748 1.989 . S
N765 C764 1.342 . S
N765 N766 1.388 . S
N766 Co749 1.993 . S
N766 N765 1.388 . S
N766 C767 1.346 . S
C767 N766 1.346 . S
C767 C768 1.396 . S
C767 C777 1.510 . S
C768 C764 1.401 . S
C768 C767 1.396 . S
C769 C764 1.499 . S
C769 H770 0.959 . S
C769 H771 0.960 . S
C769 H772 0.961 . S
H770 C769 0.959 . S
H771 C769 0.960 . S
H772 C769 0.961 . S
O773 Co748 1.967 1_554 S
O773 C781 1.258 . S
O774 Co749 1.941 . S
O774 C781 1.266 1_556 S
H775 C777 0.959 . S
H776 C777 0.961 . S
C777 C767 1.510 . S
C777 H775 0.959 . S
C777 H776 0.961 . S
C777 H778 0.960 . S
H778 C777 0.960 . S
H779 N759 0.862 . S
O780 Co748 1.920 . S
O780 C753 1.289 . S
C781 O773 1.258 . S
C781 O774 1.266 1_554 S
Co782 O785 1.970 . S
Co782 N799 1.989 . S
Co782 O807 1.967 1_556 S
Co782 O814 1.920 . S
Co783 O786 1.966 . S
Co783 N792 2.022 . S
Co783 N800 1.993 . S
Co783 O808 1.941 . S
C784 O785 1.258 . S
C784 O786 1.263 . S
O785 Co782 1.970 . S
O785 C784 1.258 . S
O786 Co783 1.966 . S
O786 C784 1.263 . S
C787 O788 1.235 . S
C787 O814 1.289 . S
O788 C787 1.235 . S
C789 C791 1.400 . S
C789 N792 1.351 . S
C789 C794 1.501 . S
C790 C791 1.387 . S
C790 N793 1.341 . S
C791 C789 1.400 . S
C791 C790 1.387 . S
N792 Co783 2.022 . S
N792 C789 1.351 . S
N792 N793 1.365 . S
N793 C790 1.341 . S
N793 N792 1.365 . S
N793 H813 0.862 . S
C794 C789 1.501 . S
C794 H795 0.961 . S
C794 H796 0.961 . S
C794 H797 0.960 . S
H795 C794 0.961 . S
H796 C794 0.961 . S
H797 C794 0.960 . S
C798 N799 1.342 . S
C798 C802 1.401 . S
C798 C803 1.499 . S
N799 Co782 1.989 . S
N799 C798 1.342 . S
N799 N800 1.388 . S
N800 Co783 1.993 . S
N800 N799 1.388 . S
N800 C801 1.346 . S
C801 N800 1.346 . S
C801 C802 1.396 . S
C801 C811 1.510 . S
C802 C798 1.401 . S
C802 C801 1.396 . S
C803 C798 1.499 . S
C803 H804 0.959 . S
C803 H805 0.960 . S
C803 H806 0.961 . S
H804 C803 0.959 . S
H805 C803 0.960 . S
H806 C803 0.961 . S
O807 Co782 1.967 1_554 S
O807 C815 1.258 . S
O808 Co783 1.941 . S
O808 C815 1.266 1_556 S
H809 C811 0.959 . S
H810 C811 0.961 . S
C811 C801 1.510 . S
C811 H809 0.959 . S
C811 H810 0.961 . S
C811 H812 0.960 . S
H812 C811 0.960 . S
H813 N793 0.862 . S
O814 Co782 1.920 . S
O814 C787 1.289 . S
C815 O807 1.258 . S
C815 O808 1.266 1_554 S
Co816 O819 1.970 . S
Co816 N833 1.989 . S
Co816 O841 1.967 . S
Co816 O848 1.920 . S
Co817 O820 1.966 . S
Co817 N826 2.022 . S
Co817 N834 1.993 . S
Co817 O842 1.941 . S
C818 O819 1.258 . S
C818 O820 1.263 . S
O819 Co816 1.970 . S
O819 C818 1.258 . S
O820 Co817 1.966 . S
O820 C818 1.263 . S
C821 O822 1.235 . S
C821 O848 1.289 . S
O822 C821 1.235 . S
C823 C825 1.400 . S
C823 N826 1.351 . S
C823 C828 1.501 . S
C824 C825 1.387 . S
C824 N827 1.341 . S
C825 C823 1.400 . S
C825 C824 1.387 . S
N826 Co817 2.022 . S
N826 C823 1.351 . S
N826 N827 1.365 . S
N827 C824 1.341 . S
N827 N826 1.365 . S
N827 H847 0.862 . S
C828 C823 1.501 . S
C828 H829 0.961 . S
C828 H830 0.961 . S
C828 H831 0.960 . S
H829 C828 0.961 . S
H830 C828 0.961 . S
H831 C828 0.960 . S
C832 N833 1.342 . S
C832 C836 1.401 . S
C832 C837 1.499 . S
N833 Co816 1.989 . S
N833 C832 1.342 . S
N833 N834 1.388 . S
N834 Co817 1.993 . S
N834 N833 1.388 . S
N834 C835 1.346 . S
C835 N834 1.346 . S
C835 C836 1.396 . S
C835 C845 1.510 . S
C836 C832 1.401 . S
C836 C835 1.396 . S
C837 C832 1.499 . S
C837 H838 0.959 . S
C837 H839 0.960 . S
C837 H840 0.961 . S
H838 C837 0.959 . S
H839 C837 0.960 . S
H840 C837 0.961 . S
O841 Co816 1.967 . S
O841 C849 1.258 . S
O842 Co817 1.941 . S
O842 C849 1.266 . S
H843 C845 0.959 . S
H844 C845 0.961 . S
C845 C835 1.510 . S
C845 H843 0.959 . S
C845 H844 0.961 . S
C845 H846 0.960 . S
H846 C845 0.960 . S
H847 N827 0.862 . S
O848 Co816 1.920 . S
O848 C821 1.289 . S
C849 O841 1.258 . S
C849 O842 1.266 . S
Co850 O853 1.970 . S
Co850 N867 1.989 . S
Co850 O875 1.967 . S
Co850 O882 1.920 . S
Co851 O854 1.966 . S
Co851 N860 2.022 . S
Co851 N868 1.993 . S
Co851 O876 1.941 . S
C852 O853 1.258 . S
C852 O854 1.263 . S
O853 Co850 1.970 . S
O853 C852 1.258 . S
O854 Co851 1.966 . S
O854 C852 1.263 . S
C855 O856 1.235 . S
C855 O882 1.289 . S
O856 C855 1.235 . S
C857 C859 1.400 . S
C857 N860 1.351 . S
C857 C862 1.501 . S
C858 C859 1.387 . S
C858 N861 1.341 . S
C859 C857 1.400 . S
C859 C858 1.387 . S
N860 Co851 2.022 . S
N860 C857 1.351 . S
N860 N861 1.365 . S
N861 C858 1.341 . S
N861 N860 1.365 . S
N861 H881 0.862 . S
C862 C857 1.501 . S
C862 H863 0.961 . S
C862 H864 0.961 . S
C862 H865 0.960 . S
H863 C862 0.961 . S
H864 C862 0.961 . S
H865 C862 0.960 . S
C866 N867 1.342 . S
C866 C870 1.401 . S
C866 C871 1.499 . S
N867 Co850 1.989 . S
N867 C866 1.342 . S
N867 N868 1.388 . S
N868 Co851 1.993 . S
N868 N867 1.388 . S
N868 C869 1.346 . S
C869 N868 1.346 . S
C869 C870 1.396 . S
C869 C879 1.510 . S
C870 C866 1.401 . S
C870 C869 1.396 . S
C871 C866 1.499 . S
C871 H872 0.959 . S
C871 H873 0.960 . S
C871 H874 0.961 . S
H872 C871 0.959 . S
H873 C871 0.960 . S
H874 C871 0.961 . S
O875 Co850 1.967 . S
O875 C883 1.258 . S
O876 Co851 1.941 . S
O876 C883 1.266 . S
H877 C879 0.959 . S
H878 C879 0.961 . S
C879 C869 1.510 . S
C879 H877 0.959 . S
C879 H878 0.961 . S
C879 H880 0.960 . S
H880 C879 0.960 . S
H881 N861 0.862 . S
O882 Co850 1.920 . S
O882 C855 1.289 . S
C883 O875 1.258 . S
C883 O876 1.266 . S
Co884 O887 1.970 . S
Co884 N901 1.989 . S
Co884 O909 1.967 . S
Co884 O916 1.920 . S
Co885 O888 1.966 . S
Co885 N894 2.022 . S
Co885 N902 1.993 . S
Co885 O910 1.941 . S
C886 O887 1.258 . S
C886 O888 1.263 . S
O887 Co884 1.970 . S
O887 C886 1.258 . S
O888 Co885 1.966 . S
O888 C886 1.263 . S
C889 O890 1.235 . S
C889 O916 1.289 . S
O890 C889 1.235 . S
C891 C893 1.400 . S
C891 N894 1.351 . S
C891 C896 1.501 . S
C892 C893 1.387 . S
C892 N895 1.341 . S
C893 C891 1.400 . S
C893 C892 1.387 . S
N894 Co885 2.022 . S
N894 C891 1.351 . S
N894 N895 1.365 . S
N895 C892 1.341 . S
N895 N894 1.365 . S
N895 H915 0.862 . S
C896 C891 1.501 . S
C896 H897 0.961 . S
C896 H898 0.961 . S
C896 H899 0.960 . S
H897 C896 0.961 . S
H898 C896 0.961 . S
H899 C896 0.960 . S
C900 N901 1.342 . S
C900 C904 1.401 . S
C900 C905 1.499 . S
N901 Co884 1.989 . S
N901 C900 1.342 . S
N901 N902 1.388 . S
N902 Co885 1.993 . S
N902 N901 1.388 . S
N902 C903 1.346 . S
C903 N902 1.346 . S
C903 C904 1.396 . S
C903 C913 1.510 . S
C904 C900 1.401 . S
C904 C903 1.396 . S
C905 C900 1.499 . S
C905 H906 0.959 . S
C905 H907 0.960 . S
C905 H908 0.961 . S
H906 C905 0.959 . S
H907 C905 0.960 . S
H908 C905 0.961 . S
O909 Co884 1.967 . S
O909 C917 1.258 . S
O910 Co885 1.941 . S
O910 C917 1.266 . S
H911 C913 0.959 . S
H912 C913 0.961 . S
C913 C903 1.510 . S
C913 H911 0.959 . S
C913 H912 0.961 . S
C913 H914 0.960 . S
H914 C913 0.960 . S
H915 N895 0.862 . S
O916 Co884 1.920 . S
O916 C889 1.289 . S
C917 O909 1.258 . S
C917 O910 1.266 . S
Co918 O921 1.970 . S
Co918 N935 1.989 . S
Co918 O943 1.967 1_554 S
Co918 O950 1.920 . S
Co919 O922 1.966 . S
Co919 N928 2.022 . S
Co919 N936 1.993 . S
Co919 O944 1.941 . S
C920 O921 1.258 . S
C920 O922 1.263 . S
O921 Co918 1.970 . S
O921 C920 1.258 . S
O922 Co919 1.966 . S
O922 C920 1.263 . S
C923 O924 1.235 . S
C923 O950 1.289 . S
O924 C923 1.235 . S
C925 C927 1.400 . S
C925 N928 1.351 . S
C925 C930 1.501 . S
C926 C927 1.387 . S
C926 N929 1.341 . S
C927 C925 1.400 . S
C927 C926 1.387 . S
N928 Co919 2.022 . S
N928 C925 1.351 . S
N928 N929 1.365 . S
N929 C926 1.341 . S
N929 N928 1.365 . S
N929 H949 0.862 . S
C930 C925 1.501 . S
C930 H931 0.961 . S
C930 H932 0.961 . S
C930 H933 0.960 . S
H931 C930 0.961 . S
H932 C930 0.961 . S
H933 C930 0.960 . S
C934 N935 1.342 . S
C934 C938 1.401 . S
C934 C939 1.499 . S
N935 Co918 1.989 . S
N935 C934 1.342 . S
N935 N936 1.388 . S
N936 Co919 1.993 . S
N936 N935 1.388 . S
N936 C937 1.346 . S
C937 N936 1.346 . S
C937 C938 1.396 . S
C937 C947 1.510 . S
C938 C934 1.401 . S
C938 C937 1.396 . S
C939 C934 1.499 . S
C939 H940 0.959 . S
C939 H941 0.960 . S
C939 H942 0.961 . S
H940 C939 0.959 . S
H941 C939 0.960 . S
H942 C939 0.961 . S
O943 Co918 1.967 1_556 S
O943 C951 1.258 . S
O944 Co919 1.941 . S
O944 C951 1.266 1_554 S
H945 C947 0.959 . S
H946 C947 0.961 . S
C947 C937 1.510 . S
C947 H945 0.959 . S
C947 H946 0.961 . S
C947 H948 0.960 . S
H948 C947 0.960 . S
H949 N929 0.862 . S
O950 Co918 1.920 . S
O950 C923 1.289 . S
C951 O943 1.258 . S
C951 O944 1.266 1_556 S
Co952 O955 1.970 . S
Co952 N969 1.989 . S
Co952 O977 1.967 1_554 S
Co952 O984 1.920 . S
Co953 O956 1.966 . S
Co953 N962 2.022 . S
Co953 N970 1.993 . S
Co953 O978 1.941 . S
C954 O955 1.258 . S
C954 O956 1.263 . S
O955 Co952 1.970 . S
O955 C954 1.258 . S
O956 Co953 1.966 . S
O956 C954 1.263 . S
C957 O958 1.235 . S
C957 O984 1.289 . S
O958 C957 1.235 . S
C959 C961 1.400 . S
C959 N962 1.351 . S
C959 C964 1.501 . S
C960 C961 1.387 . S
C960 N963 1.341 . S
C961 C959 1.400 . S
C961 C960 1.387 . S
N962 Co953 2.022 . S
N962 C959 1.351 . S
N962 N963 1.365 . S
N963 C960 1.341 . S
N963 N962 1.365 . S
N963 H983 0.862 . S
C964 C959 1.501 . S
C964 H965 0.961 . S
C964 H966 0.961 . S
C964 H967 0.960 . S
H965 C964 0.961 . S
H966 C964 0.961 . S
H967 C964 0.960 . S
C968 N969 1.342 . S
C968 C972 1.401 . S
C968 C973 1.499 . S
N969 Co952 1.989 . S
N969 C968 1.342 . S
N969 N970 1.388 . S
N970 Co953 1.993 . S
N970 N969 1.388 . S
N970 C971 1.346 . S
C971 N970 1.346 . S
C971 C972 1.396 . S
C971 C981 1.510 . S
C972 C968 1.401 . S
C972 C971 1.396 . S
C973 C968 1.499 . S
C973 H974 0.959 . S
C973 H975 0.960 . S
C973 H976 0.961 . S
H974 C973 0.959 . S
H975 C973 0.960 . S
H976 C973 0.961 . S
O977 Co952 1.967 1_556 S
O977 C985 1.258 . S
O978 Co953 1.941 . S
O978 C985 1.266 1_554 S
H979 C981 0.959 . S
H980 C981 0.961 . S
C981 C971 1.510 . S
C981 H979 0.959 . S
C981 H980 0.961 . S
C981 H982 0.960 . S
H982 C981 0.960 . S
H983 N963 0.862 . S
O984 Co952 1.920 . S
O984 C957 1.289 . S
C985 O977 1.258 . S
C985 O978 1.266 1_556 S
Co986 O989 1.970 . S
Co986 N1003 1.989 . S
Co986 O1011 1.967 1_554 S
Co986 O1018 1.920 . S
Co987 O990 1.966 . S
Co987 N996 2.022 . S
Co987 N1004 1.993 . S
Co987 O1012 1.941 . S
C988 O989 1.258 . S
C988 O990 1.263 . S
O989 Co986 1.970 . S
O989 C988 1.258 . S
O990 Co987 1.966 . S
O990 C988 1.263 . S
C991 O992 1.235 . S
C991 O1018 1.289 . S
O992 C991 1.235 . S
C993 C995 1.400 . S
C993 N996 1.351 . S
C993 C998 1.501 . S
C994 C995 1.387 . S
C994 N997 1.341 . S
C995 C993 1.400 . S
C995 C994 1.387 . S
N996 Co987 2.022 . S
N996 C993 1.351 . S
N996 N997 1.365 . S
N997 C994 1.341 . S
N997 N996 1.365 . S
N997 H1017 0.862 . S
C998 C993 1.501 . S
C998 H999 0.961 . S
C998 H1000 0.961 . S
C998 H1001 0.960 . S
H999 C998 0.961 . S
H1000 C998 0.961 . S
H1001 C998 0.960 . S
C1002 N1003 1.342 . S
C1002 C1006 1.401 . S
C1002 C1007 1.499 . S
N1003 Co986 1.989 . S
N1003 C1002 1.342 . S
N1003 N1004 1.388 . S
N1004 Co987 1.993 . S
N1004 N1003 1.388 . S
N1004 C1005 1.346 . S
C1005 N1004 1.346 . S
C1005 C1006 1.396 . S
C1005 C1015 1.510 . S
C1006 C1002 1.401 . S
C1006 C1005 1.396 . S
C1007 C1002 1.499 . S
C1007 H1008 0.959 . S
C1007 H1009 0.960 . S
C1007 H1010 0.961 . S
H1008 C1007 0.959 . S
H1009 C1007 0.960 . S
H1010 C1007 0.961 . S
O1011 Co986 1.967 1_556 S
O1011 C1019 1.258 . S
O1012 Co987 1.941 . S
O1012 C1019 1.266 1_554 S
H1013 C1015 0.959 . S
H1014 C1015 0.961 . S
C1015 C1005 1.510 . S
C1015 H1013 0.959 . S
C1015 H1014 0.961 . S
C1015 H1016 0.960 . S
H1016 C1015 0.960 . S
H1017 N997 0.862 . S
O1018 Co986 1.920 . S
O1018 C991 1.289 . S
C1019 O1011 1.258 . S
C1019 O1012 1.266 1_556 S
Co1020 O1023 1.970 . S
Co1020 N1037 1.989 . S
Co1020 O1045 1.967 . S
Co1020 O1052 1.920 . S
Co1021 O1024 1.966 . S
Co1021 N1030 2.022 . S
Co1021 N1038 1.993 . S
Co1021 O1046 1.941 . S
C1022 O1023 1.258 . S
C1022 O1024 1.263 . S
O1023 Co1020 1.970 . S
O1023 C1022 1.258 . S
O1024 Co1021 1.966 . S
O1024 C1022 1.263 . S
C1025 O1026 1.235 . S
C1025 O1052 1.289 . S
O1026 C1025 1.235 . S
C1027 C1029 1.400 . S
C1027 N1030 1.351 . S
C1027 C1032 1.501 . S
C1028 C1029 1.387 . S
C1028 N1031 1.341 . S
C1029 C1027 1.400 . S
C1029 C1028 1.387 . S
N1030 Co1021 2.022 . S
N1030 C1027 1.351 . S
N1030 N1031 1.365 . S
N1031 C1028 1.341 . S
N1031 N1030 1.365 . S
N1031 H1051 0.862 . S
C1032 C1027 1.501 . S
C1032 H1033 0.961 . S
C1032 H1034 0.961 . S
C1032 H1035 0.960 . S
H1033 C1032 0.961 . S
H1034 C1032 0.961 . S
H1035 C1032 0.960 . S
C1036 N1037 1.342 . S
C1036 C1040 1.401 . S
C1036 C1041 1.499 . S
N1037 Co1020 1.989 . S
N1037 C1036 1.342 . S
N1037 N1038 1.388 . S
N1038 Co1021 1.993 . S
N1038 N1037 1.388 . S
N1038 C1039 1.346 . S
C1039 N1038 1.346 . S
C1039 C1040 1.396 . S
C1039 C1049 1.510 . S
C1040 C1036 1.401 . S
C1040 C1039 1.396 . S
C1041 C1036 1.499 . S
C1041 H1042 0.959 . S
C1041 H1043 0.960 . S
C1041 H1044 0.961 . S
H1042 C1041 0.959 . S
H1043 C1041 0.960 . S
H1044 C1041 0.961 . S
O1045 Co1020 1.967 . S
O1045 C1053 1.258 . S
O1046 Co1021 1.941 . S
O1046 C1053 1.266 . S
H1047 C1049 0.959 . S
H1048 C1049 0.961 . S
C1049 C1039 1.510 . S
C1049 H1047 0.959 . S
C1049 H1048 0.961 . S
C1049 H1050 0.960 . S
H1050 C1049 0.960 . S
H1051 N1031 0.862 . S
O1052 Co1020 1.920 . S
O1052 C1025 1.289 . S
C1053 O1045 1.258 . S
C1053 O1046 1.266 . S
Co1054 O1057 1.970 . S
Co1054 N1071 1.989 . S
Co1054 O1079 1.967 . S
Co1054 O1086 1.920 . S
Co1055 O1058 1.966 . S
Co1055 N1064 2.022 . S
Co1055 N1072 1.993 . S
Co1055 O1080 1.941 . S
C1056 O1057 1.258 . S
C1056 O1058 1.263 . S
O1057 Co1054 1.970 . S
O1057 C1056 1.258 . S
O1058 Co1055 1.966 . S
O1058 C1056 1.263 . S
C1059 O1060 1.235 . S
C1059 O1086 1.289 . S
O1060 C1059 1.235 . S
C1061 C1063 1.400 . S
C1061 N1064 1.351 . S
C1061 C1066 1.501 . S
C1062 C1063 1.387 . S
C1062 N1065 1.341 . S
C1063 C1061 1.400 . S
C1063 C1062 1.387 . S
N1064 Co1055 2.022 . S
N1064 C1061 1.351 . S
N1064 N1065 1.365 . S
N1065 C1062 1.341 . S
N1065 N1064 1.365 . S
N1065 H1085 0.862 . S
C1066 C1061 1.501 . S
C1066 H1067 0.961 . S
C1066 H1068 0.961 . S
C1066 H1069 0.960 . S
H1067 C1066 0.961 . S
H1068 C1066 0.961 . S
H1069 C1066 0.960 . S
C1070 N1071 1.342 . S
C1070 C1074 1.401 . S
C1070 C1075 1.499 . S
N1071 Co1054 1.989 . S
N1071 C1070 1.342 . S
N1071 N1072 1.388 . S
N1072 Co1055 1.993 . S
N1072 N1071 1.388 . S
N1072 C1073 1.346 . S
C1073 N1072 1.346 . S
C1073 C1074 1.396 . S
C1073 C1083 1.510 . S
C1074 C1070 1.401 . S
C1074 C1073 1.396 . S
C1075 C1070 1.499 . S
C1075 H1076 0.959 . S
C1075 H1077 0.960 . S
C1075 H1078 0.961 . S
H1076 C1075 0.959 . S
H1077 C1075 0.960 . S
H1078 C1075 0.961 . S
O1079 Co1054 1.967 . S
O1079 C1087 1.258 . S
O1080 Co1055 1.941 . S
O1080 C1087 1.266 . S
H1081 C1083 0.959 . S
H1082 C1083 0.961 . S
C1083 C1073 1.510 . S
C1083 H1081 0.959 . S
C1083 H1082 0.961 . S
C1083 H1084 0.960 . S
H1084 C1083 0.960 . S
H1085 N1065 0.862 . S
O1086 Co1054 1.920 . S
O1086 C1059 1.289 . S
C1087 O1079 1.258 . S
C1087 O1080 1.266 . S
Co1088 O1091 1.970 . S
Co1088 N1105 1.989 . S
Co1088 O1113 1.967 . S
Co1088 O1120 1.920 . S
Co1089 O1092 1.966 . S
Co1089 N1098 2.022 . S
Co1089 N1106 1.993 . S
Co1089 O1114 1.941 . S
C1090 O1091 1.258 . S
C1090 O1092 1.263 . S
O1091 Co1088 1.970 . S
O1091 C1090 1.258 . S
O1092 Co1089 1.966 . S
O1092 C1090 1.263 . S
C1093 O1094 1.235 . S
C1093 O1120 1.289 . S
O1094 C1093 1.235 . S
C1095 C1097 1.400 . S
C1095 N1098 1.351 . S
C1095 C1100 1.501 . S
C1096 C1097 1.387 . S
C1096 N1099 1.341 . S
C1097 C1095 1.400 . S
C1097 C1096 1.387 . S
N1098 Co1089 2.022 . S
N1098 C1095 1.351 . S
N1098 N1099 1.365 . S
N1099 C1096 1.341 . S
N1099 N1098 1.365 . S
N1099 H1119 0.862 . S
C1100 C1095 1.501 . S
C1100 H1101 0.961 . S
C1100 H1102 0.961 . S
C1100 H1103 0.960 . S
H1101 C1100 0.961 . S
H1102 C1100 0.961 . S
H1103 C1100 0.960 . S
C1104 N1105 1.342 . S
C1104 C1108 1.401 . S
C1104 C1109 1.499 . S
N1105 Co1088 1.989 . S
N1105 C1104 1.342 . S
N1105 N1106 1.388 . S
N1106 Co1089 1.993 . S
N1106 N1105 1.388 . S
N1106 C1107 1.346 . S
C1107 N1106 1.346 . S
C1107 C1108 1.396 . S
C1107 C1117 1.510 . S
C1108 C1104 1.401 . S
C1108 C1107 1.396 . S
C1109 C1104 1.499 . S
C1109 H1110 0.959 . S
C1109 H1111 0.960 . S
C1109 H1112 0.961 . S
H1110 C1109 0.959 . S
H1111 C1109 0.960 . S
H1112 C1109 0.961 . S
O1113 Co1088 1.967 . S
O1113 C1121 1.258 . S
O1114 Co1089 1.941 . S
O1114 C1121 1.266 . S
H1115 C1117 0.959 . S
H1116 C1117 0.961 . S
C1117 C1107 1.510 . S
C1117 H1115 0.959 . S
C1117 H1116 0.961 . S
C1117 H1118 0.960 . S
H1118 C1117 0.960 . S
H1119 N1099 0.862 . S
O1120 Co1088 1.920 . S
O1120 C1093 1.289 . S
C1121 O1113 1.258 . S
C1121 O1114 1.266 . S
Co1122 O1125 1.970 . S
Co1122 N1139 1.989 . S
Co1122 O1147 1.967 . S
Co1122 O1154 1.920 . S
Co1123 O1126 1.966 . S
Co1123 N1132 2.022 . S
Co1123 N1140 1.993 . S
Co1123 O1148 1.941 . S
C1124 O1125 1.258 . S
C1124 O1126 1.263 . S
O1125 Co1122 1.970 . S
O1125 C1124 1.258 . S
O1126 Co1123 1.966 . S
O1126 C1124 1.263 . S
C1127 O1128 1.235 . S
C1127 O1154 1.289 . S
O1128 C1127 1.235 . S
C1129 C1131 1.400 . S
C1129 N1132 1.351 . S
C1129 C1134 1.501 . S
C1130 C1131 1.387 . S
C1130 N1133 1.341 . S
C1131 C1129 1.400 . S
C1131 C1130 1.387 . S
N1132 Co1123 2.022 . S
N1132 C1129 1.351 . S
N1132 N1133 1.365 . S
N1133 C1130 1.341 . S
N1133 N1132 1.365 . S
N1133 H1153 0.862 . S
C1134 C1129 1.501 . S
C1134 H1135 0.961 . S
C1134 H1136 0.961 . S
C1134 H1137 0.960 . S
H1135 C1134 0.961 . S
H1136 C1134 0.961 . S
H1137 C1134 0.960 . S
C1138 N1139 1.342 . S
C1138 C1142 1.401 . S
C1138 C1143 1.499 . S
N1139 Co1122 1.989 . S
N1139 C1138 1.342 . S
N1139 N1140 1.388 . S
N1140 Co1123 1.993 . S
N1140 N1139 1.388 . S
N1140 C1141 1.346 . S
C1141 N1140 1.346 . S
C1141 C1142 1.396 . S
C1141 C1151 1.510 . S
C1142 C1138 1.401 . S
C1142 C1141 1.396 . S
C1143 C1138 1.499 . S
C1143 H1144 0.959 . S
C1143 H1145 0.960 . S
C1143 H1146 0.961 . S
H1144 C1143 0.959 . S
H1145 C1143 0.960 . S
H1146 C1143 0.961 . S
O1147 Co1122 1.967 . S
O1147 C1155 1.258 . S
O1148 Co1123 1.941 . S
O1148 C1155 1.266 . S
H1149 C1151 0.959 . S
H1150 C1151 0.961 . S
C1151 C1141 1.510 . S
C1151 H1149 0.959 . S
C1151 H1150 0.961 . S
C1151 H1152 0.960 . S
H1152 C1151 0.960 . S
H1153 N1133 0.862 . S
O1154 Co1122 1.920 . S
O1154 C1127 1.289 . S
C1155 O1147 1.258 . S
C1155 O1148 1.266 . S
Co1156 O1159 1.970 . S
Co1156 N1173 1.989 . S
Co1156 O1181 1.967 . S
Co1156 O1188 1.920 . S
Co1157 O1160 1.966 . S
Co1157 N1166 2.022 . S
Co1157 N1174 1.993 . S
Co1157 O1182 1.941 . S
C1158 O1159 1.258 . S
C1158 O1160 1.263 . S
O1159 Co1156 1.970 . S
O1159 C1158 1.258 . S
O1160 Co1157 1.966 . S
O1160 C1158 1.263 . S
C1161 O1162 1.235 . S
C1161 O1188 1.289 . S
O1162 C1161 1.235 . S
C1163 C1165 1.400 . S
C1163 N1166 1.351 . S
C1163 C1168 1.501 . S
C1164 C1165 1.387 . S
C1164 N1167 1.341 . S
C1165 C1163 1.400 . S
C1165 C1164 1.387 . S
N1166 Co1157 2.022 . S
N1166 C1163 1.351 . S
N1166 N1167 1.365 . S
N1167 C1164 1.341 . S
N1167 N1166 1.365 . S
N1167 H1187 0.862 . S
C1168 C1163 1.501 . S
C1168 H1169 0.961 . S
C1168 H1170 0.961 . S
C1168 H1171 0.960 . S
H1169 C1168 0.961 . S
H1170 C1168 0.961 . S
H1171 C1168 0.960 . S
C1172 N1173 1.342 . S
C1172 C1176 1.401 . S
C1172 C1177 1.499 . S
N1173 Co1156 1.989 . S
N1173 C1172 1.342 . S
N1173 N1174 1.388 . S
N1174 Co1157 1.993 . S
N1174 N1173 1.388 . S
N1174 C1175 1.346 . S
C1175 N1174 1.346 . S
C1175 C1176 1.396 . S
C1175 C1185 1.510 . S
C1176 C1172 1.401 . S
C1176 C1175 1.396 . S
C1177 C1172 1.499 . S
C1177 H1178 0.959 . S
C1177 H1179 0.960 . S
C1177 H1180 0.961 . S
H1178 C1177 0.959 . S
H1179 C1177 0.960 . S
H1180 C1177 0.961 . S
O1181 Co1156 1.967 . S
O1181 C1189 1.258 . S
O1182 Co1157 1.941 . S
O1182 C1189 1.266 . S
H1183 C1185 0.959 . S
H1184 C1185 0.961 . S
C1185 C1175 1.510 . S
C1185 H1183 0.959 . S
C1185 H1184 0.961 . S
C1185 H1186 0.960 . S
H1186 C1185 0.960 . S
H1187 N1167 0.862 . S
O1188 Co1156 1.920 . S
O1188 C1161 1.289 . S
C1189 O1181 1.258 . S
C1189 O1182 1.266 . S
Co1190 O1193 1.970 . S
Co1190 N1207 1.989 . S
Co1190 O1215 1.967 . S
Co1190 O1222 1.920 . S
Co1191 O1194 1.966 . S
Co1191 N1200 2.022 . S
Co1191 N1208 1.993 . S
Co1191 O1216 1.941 . S
C1192 O1193 1.258 . S
C1192 O1194 1.263 . S
O1193 Co1190 1.970 . S
O1193 C1192 1.258 . S
O1194 Co1191 1.966 . S
O1194 C1192 1.263 . S
C1195 O1196 1.235 . S
C1195 O1222 1.289 . S
O1196 C1195 1.235 . S
C1197 C1199 1.400 . S
C1197 N1200 1.351 . S
C1197 C1202 1.501 . S
C1198 C1199 1.387 . S
C1198 N1201 1.341 . S
C1199 C1197 1.400 . S
C1199 C1198 1.387 . S
N1200 Co1191 2.022 . S
N1200 C1197 1.351 . S
N1200 N1201 1.365 . S
N1201 C1198 1.341 . S
N1201 N1200 1.365 . S
N1201 H1221 0.862 . S
C1202 C1197 1.501 . S
C1202 H1203 0.961 . S
C1202 H1204 0.961 . S
C1202 H1205 0.960 . S
H1203 C1202 0.961 . S
H1204 C1202 0.961 . S
H1205 C1202 0.960 . S
C1206 N1207 1.342 . S
C1206 C1210 1.401 . S
C1206 C1211 1.499 . S
N1207 Co1190 1.989 . S
N1207 C1206 1.342 . S
N1207 N1208 1.388 . S
N1208 Co1191 1.993 . S
N1208 N1207 1.388 . S
N1208 C1209 1.346 . S
C1209 N1208 1.346 . S
C1209 C1210 1.396 . S
C1209 C1219 1.510 . S
C1210 C1206 1.401 . S
C1210 C1209 1.396 . S
C1211 C1206 1.499 . S
C1211 H1212 0.959 . S
C1211 H1213 0.960 . S
C1211 H1214 0.961 . S
H1212 C1211 0.959 . S
H1213 C1211 0.960 . S
H1214 C1211 0.961 . S
O1215 Co1190 1.967 . S
O1215 C1223 1.258 . S
O1216 Co1191 1.941 . S
O1216 C1223 1.266 . S
H1217 C1219 0.959 . S
H1218 C1219 0.961 . S
C1219 C1209 1.510 . S
C1219 H1217 0.959 . S
C1219 H1218 0.961 . S
C1219 H1220 0.960 . S
H1220 C1219 0.960 . S
H1221 N1201 0.862 . S
O1222 Co1190 1.920 . S
O1222 C1195 1.289 . S
C1223 O1215 1.258 . S
C1223 O1216 1.266 . S
C1224 C1225 1.387 . S
C1224 H1228 0.950 . S
C1224 C1233 1.390 . S
C1225 C1224 1.387 . S
C1225 C1227 1.387 . S
H1226 C1233 0.950 . S
C1227 C1225 1.387 . S
C1227 C1229 1.390 . S
C1227 H1231 0.950 . S
H1228 C1224 0.950 . S
C1229 C1227 1.390 . S
C1229 C1230 1.387 . S
C1229 H1232 0.950 . S
C1230 C1229 1.387 . S
C1230 C1233 1.387 . S
H1231 C1227 0.950 . S
H1232 C1229 0.950 . S
C1233 C1224 1.390 . S
C1233 H1226 0.950 . S
C1233 C1230 1.387 . S
C1234 C1235 1.387 1_565 S
C1234 H1238 0.950 . S
C1234 C1243 1.390 . S
C1235 C1234 1.387 1_545 S
C1235 C1237 1.387 . S
H1236 C1243 0.950 . S
C1237 C1235 1.387 . S
C1237 C1239 1.390 . S
C1237 H1241 0.950 . S
H1238 C1234 0.950 . S
C1239 C1237 1.390 . S
C1239 C1240 1.387 1_545 S
C1239 H1242 0.950 . S
C1240 C1239 1.387 1_565 S
C1240 C1243 1.387 . S
H1241 C1237 0.950 . S
H1242 C1239 0.950 . S
C1243 C1234 1.390 . S
C1243 H1236 0.950 . S
C1243 C1240 1.387 . S
C1244 C1245 1.387 . S
C1244 H1248 0.950 . S
C1244 C1253 1.390 . S
C1245 C1244 1.387 . S
C1245 C1247 1.387 1_455 S
H1246 C1253 0.950 . S
C1247 C1245 1.387 1_655 S
C1247 C1249 1.390 . S
C1247 H1251 0.950 . S
H1248 C1244 0.950 . S
C1249 C1247 1.390 . S
C1249 C1250 1.387 . S
C1249 H1252 0.950 . S
C1250 C1249 1.387 . S
C1250 C1253 1.387 1_655 S
H1251 C1247 0.950 . S
H1252 C1249 0.950 . S
C1253 C1244 1.390 . S
C1253 H1246 0.950 . S
C1253 C1250 1.387 1_455 S
C1254 C1255 1.387 . S
C1254 H1258 0.950 . S
C1254 C1263 1.390 . S
C1255 C1254 1.387 . S
C1255 C1257 1.387 . S
H1256 C1263 0.950 . S
C1257 C1255 1.387 . S
C1257 C1259 1.390 . S
C1257 H1261 0.950 . S
H1258 C1254 0.950 . S
C1259 C1257 1.390 . S
C1259 C1260 1.387 . S
C1259 H1262 0.950 . S
C1260 C1259 1.387 . S
C1260 C1263 1.387 . S
H1261 C1257 0.950 . S
H1262 C1259 0.950 . S
C1263 C1254 1.390 . S
C1263 H1256 0.950 . S
C1263 C1260 1.387 . S
C1264 C1265 1.387 . S
C1264 H1268 0.950 . S
C1264 C1273 1.390 1_565 S
C1265 C1264 1.387 . S
C1265 C1267 1.387 . S
H1266 C1273 0.950 . S
C1267 C1265 1.387 . S
C1267 C1269 1.390 1_565 S
C1267 H1271 0.950 . S
H1268 C1264 0.950 . S
C1269 C1267 1.390 1_545 S
C1269 C1270 1.387 . S
C1269 H1272 0.950 . S
C1270 C1269 1.387 . S
C1270 C1273 1.387 . S
H1271 C1267 0.950 . S
H1272 C1269 0.950 . S
C1273 C1264 1.390 1_545 S
C1273 H1266 0.950 . S
C1273 C1270 1.387 . S
C1274 C1275 1.387 1_455 S
C1274 H1278 0.950 . S
C1274 C1283 1.390 . S
C1275 C1274 1.387 1_655 S
C1275 C1277 1.387 . S
H1276 C1283 0.950 . S
C1277 C1275 1.387 . S
C1277 C1279 1.390 . S
C1277 H1281 0.950 . S
H1278 C1274 0.950 . S
C1279 C1277 1.390 . S
C1279 C1280 1.387 1_655 S
C1279 H1282 0.950 . S
C1280 C1279 1.387 1_455 S
C1280 C1283 1.387 . S
H1281 C1277 0.950 . S
H1282 C1279 0.950 . S
C1283 C1274 1.390 . S
C1283 H1276 0.950 . S
C1283 C1280 1.387 . S
C1284 C1285 1.387 . S
C1284 H1288 0.950 . S
C1284 C1293 1.390 . S
C1285 C1284 1.387 . S
C1285 C1287 1.387 . S
H1286 C1293 0.950 . S
C1287 C1285 1.387 . S
C1287 C1289 1.390 . S
C1287 H1291 0.950 . S
H1288 C1284 0.950 . S
C1289 C1287 1.390 . S
C1289 C1290 1.387 . S
C1289 H1292 0.950 . S
C1290 C1289 1.387 . S
C1290 C1293 1.387 . S
H1291 C1287 0.950 . S
H1292 C1289 0.950 . S
C1293 C1284 1.390 . S
C1293 H1286 0.950 . S
C1293 C1290 1.387 . S
C1294 C1295 1.387 . S
C1294 H1298 0.950 . S
C1294 C1303 1.390 . S
C1295 C1294 1.387 . S
C1295 C1297 1.387 . S
H1296 C1303 0.950 . S
C1297 C1295 1.387 . S
C1297 C1299 1.390 . S
C1297 H1301 0.950 . S
H1298 C1294 0.950 . S
C1299 C1297 1.390 . S
C1299 C1300 1.387 . S
C1299 H1302 0.950 . S
C1300 C1299 1.387 . S
C1300 C1303 1.387 . S
H1301 C1297 0.950 . S
H1302 C1299 0.950 . S
C1303 C1294 1.390 . S
C1303 H1296 0.950 . S
C1303 C1300 1.387 . S
C1304 C1305 1.387 . S
C1304 H1308 0.950 . S
C1304 C1313 1.390 . S
C1305 C1304 1.387 . S
C1305 C1307 1.387 . S
H1306 C1313 0.950 . S
C1307 C1305 1.387 . S
C1307 C1309 1.390 . S
C1307 H1311 0.950 . S
H1308 C1304 0.950 . S
C1309 C1307 1.390 . S
C1309 C1310 1.387 . S
C1309 H1312 0.950 . S
C1310 C1309 1.387 . S
C1310 C1313 1.387 . S
H1311 C1307 0.950 . S
H1312 C1309 0.950 . S
C1313 C1304 1.390 . S
C1313 H1306 0.950 . S
C1313 C1310 1.387 . S
C1314 C1315 1.387 . S
C1314 H1318 0.950 . S
C1314 C1323 1.390 . S
C1315 C1314 1.387 . S
C1315 C1317 1.387 . S
H1316 C1323 0.950 . S
C1317 C1315 1.387 . S
C1317 C1319 1.390 . S
C1317 H1321 0.950 . S
H1318 C1314 0.950 . S
C1319 C1317 1.390 . S
C1319 C1320 1.387 . S
C1319 H1322 0.950 . S
C1320 C1319 1.387 . S
C1320 C1323 1.387 . S
H1321 C1317 0.950 . S
H1322 C1319 0.950 . S
C1323 C1314 1.390 . S
C1323 H1316 0.950 . S
C1323 C1320 1.387 . S
C1324 C1325 1.387 . S
C1324 H1328 0.950 . S
C1324 C1333 1.390 . S
C1325 C1324 1.387 . S
C1325 C1327 1.387 . S
H1326 C1333 0.950 . S
C1327 C1325 1.387 . S
C1327 C1329 1.390 . S
C1327 H1331 0.950 . S
H1328 C1324 0.950 . S
C1329 C1327 1.390 . S
C1329 C1330 1.387 . S
C1329 H1332 0.950 . S
C1330 C1329 1.387 . S
C1330 C1333 1.387 . S
H1331 C1327 0.950 . S
H1332 C1329 0.950 . S
C1333 C1324 1.390 . S
C1333 H1326 0.950 . S
C1333 C1330 1.387 . S
C1334 C1335 1.387 . S
C1334 H1338 0.950 . S
C1334 C1343 1.390 . S
C1335 C1334 1.387 . S
C1335 C1337 1.387 . S
H1336 C1343 0.950 . S
C1337 C1335 1.387 . S
C1337 C1339 1.390 . S
C1337 H1341 0.950 . S
H1338 C1334 0.950 . S
C1339 C1337 1.390 . S
C1339 C1340 1.387 . S
C1339 H1342 0.950 . S
C1340 C1339 1.387 . S
C1340 C1343 1.387 . S
H1341 C1337 0.950 . S
H1342 C1339 0.950 . S
C1343 C1334 1.390 . S
C1343 H1336 0.950 . S
C1343 C1340 1.387 . S
C1344 C1345 1.387 . S
C1344 H1348 0.950 . S
C1344 C1353 1.390 . S
C1345 C1344 1.387 . S
C1345 C1347 1.387 . S
H1346 C1353 0.950 . S
C1347 C1345 1.387 . S
C1347 C1349 1.390 . S
C1347 H1351 0.950 . S
H1348 C1344 0.950 . S
C1349 C1347 1.390 . S
C1349 C1350 1.387 . S
C1349 H1352 0.950 . S
C1350 C1349 1.387 . S
C1350 C1353 1.387 . S
H1351 C1347 0.950 . S
H1352 C1349 0.950 . S
C1353 C1344 1.390 . S
C1353 H1346 0.950 . S
C1353 C1350 1.387 . S
C1354 C1355 1.387 . S
C1354 H1358 0.950 . S
C1354 C1363 1.390 . S
C1355 C1354 1.387 . S
C1355 C1357 1.387 . S
H1356 C1363 0.950 . S
C1357 C1355 1.387 . S
C1357 C1359 1.390 . S
C1357 H1361 0.950 . S
H1358 C1354 0.950 . S
C1359 C1357 1.390 . S
C1359 C1360 1.387 . S
C1359 H1362 0.950 . S
C1360 C1359 1.387 . S
C1360 C1363 1.387 . S
H1361 C1357 0.950 . S
H1362 C1359 0.950 . S
C1363 C1354 1.390 . S
C1363 H1356 0.950 . S
C1363 C1360 1.387 . S
C1364 C1365 1.387 . S
C1364 H1368 0.950 . S
C1364 C1373 1.390 . S
C1365 C1364 1.387 . S
C1365 C1367 1.387 . S
H1366 C1373 0.950 . S
C1367 C1365 1.387 . S
C1367 C1369 1.390 . S
C1367 H1371 0.950 . S
H1368 C1364 0.950 . S
C1369 C1367 1.390 . S
C1369 C1370 1.387 . S
C1369 H1372 0.950 . S
C1370 C1369 1.387 . S
C1370 C1373 1.387 . S
H1371 C1367 0.950 . S
H1372 C1369 0.950 . S
C1373 C1364 1.390 . S
C1373 H1366 0.950 . S
C1373 C1370 1.387 . S
C1374 C1375 1.387 . S
C1374 H1378 0.950 . S
C1374 C1383 1.390 . S
C1375 C1374 1.387 . S
C1375 C1377 1.387 . S
H1376 C1383 0.950 . S
C1377 C1375 1.387 . S
C1377 C1379 1.390 . S
C1377 H1381 0.950 . S
H1378 C1374 0.950 . S
C1379 C1377 1.390 . S
C1379 C1380 1.387 . S
C1379 H1382 0.950 . S
C1380 C1379 1.387 . S
C1380 C1383 1.387 . S
H1381 C1377 0.950 . S
H1382 C1379 0.950 . S
C1383 C1374 1.390 . S
C1383 H1376 0.950 . S
C1383 C1380 1.387 . S
C1384 C1385 1.387 . S
C1384 H1388 0.950 . S
C1384 C1393 1.390 . S
C1385 C1384 1.387 . S
C1385 C1387 1.387 . S
H1386 C1393 0.950 . S
C1387 C1385 1.387 . S
C1387 C1389 1.390 . S
C1387 H1391 0.950 . S
H1388 C1384 0.950 . S
C1389 C1387 1.390 . S
C1389 C1390 1.387 . S
C1389 H1392 0.950 . S
C1390 C1389 1.387 . S
C1390 C1393 1.387 . S
H1391 C1387 0.950 . S
H1392 C1389 0.950 . S
C1393 C1384 1.390 . S
C1393 H1386 0.950 . S
C1393 C1390 1.387 . S
C1394 C1395 1.387 . S
C1394 H1398 0.950 . S
C1394 C1403 1.390 . S
C1395 C1394 1.387 . S
C1395 C1397 1.387 . S
H1396 C1403 0.950 . S
C1397 C1395 1.387 . S
C1397 C1399 1.390 . S
C1397 H1401 0.950 . S
H1398 C1394 0.950 . S
C1399 C1397 1.390 . S
C1399 C1400 1.387 . S
C1399 H1402 0.950 . S
C1400 C1399 1.387 . S
C1400 C1403 1.387 . S
H1401 C1397 0.950 . S
H1402 C1399 0.950 . S
C1403 C1394 1.390 . S
C1403 H1396 0.950 . S
C1403 C1400 1.387 . S
C1404 C1405 1.387 . S
C1404 H1408 0.950 . S
C1404 C1413 1.390 . S
C1405 C1404 1.387 . S
C1405 C1407 1.387 . S
H1406 C1413 0.950 . S
C1407 C1405 1.387 . S
C1407 C1409 1.390 . S
C1407 H1411 0.950 . S
H1408 C1404 0.950 . S
C1409 C1407 1.390 . S
C1409 C1410 1.387 . S
C1409 H1412 0.950 . S
C1410 C1409 1.387 . S
C1410 C1413 1.387 . S
H1411 C1407 0.950 . S
H1412 C1409 0.950 . S
C1413 C1404 1.390 . S
C1413 H1406 0.950 . S
C1413 C1410 1.387 . S
C1414 C1415 1.387 . S
C1414 H1418 0.950 . S
C1414 C1423 1.390 . S
C1415 C1414 1.387 . S
C1415 C1417 1.387 . S
H1416 C1423 0.958 . S
C1417 C1415 1.387 . S
C1417 C1419 1.390 . S
C1417 H1421 0.950 . S
H1418 C1414 0.950 . S
C1419 C1417 1.390 . S
C1419 C1420 1.387 . S
C1419 H1422 0.950 . S
C1420 C1419 1.387 . S
C1420 C1423 1.387 . S
H1421 C1417 0.950 . S
H1422 C1419 0.950 . S
C1423 C1414 1.390 . S
C1423 H1416 0.958 . S
C1423 C1420 1.387 . S
C1424 C1425 1.387 . S
C1424 H1428 0.950 . S
C1424 C1433 1.390 . S
C1425 C1424 1.387 . S
C1425 C1427 1.387 . S
H1426 C1433 0.950 . S
C1427 C1425 1.387 . S
C1427 C1429 1.390 . S
C1427 H1431 0.950 . S
H1428 C1424 0.950 . S
C1429 C1427 1.390 . S
C1429 C1430 1.387 . S
C1429 H1432 0.950 . S
C1430 C1429 1.387 . S
C1430 C1433 1.387 . S
H1431 C1427 0.950 . S
H1432 C1429 0.950 . S
C1433 C1424 1.390 . S
C1433 H1426 0.950 . S
C1433 C1430 1.387 . S
C1434 C1435 1.387 . S
C1434 H1438 0.950 . S
C1434 C1443 1.390 . S
C1435 C1434 1.387 . S
C1435 C1437 1.387 . S
H1436 C1443 0.950 . S
C1437 C1435 1.387 . S
C1437 C1439 1.390 . S
C1437 H1441 0.950 . S
H1438 C1434 0.950 . S
C1439 C1437 1.390 . S
C1439 C1440 1.387 . S
C1439 H1442 0.950 . S
C1440 C1439 1.387 . S
C1440 C1443 1.387 . S
H1441 C1437 0.950 . S
H1442 C1439 0.950 . S
C1443 C1434 1.390 . S
C1443 H1436 0.950 . S
C1443 C1440 1.387 . S
C1444 C1445 1.387 . S
C1444 H1448 0.950 . S
C1444 C1453 1.390 . S
C1445 C1444 1.387 . S
C1445 C1447 1.387 . S
H1446 C1453 0.950 . S
C1447 C1445 1.387 . S
C1447 C1449 1.390 . S
C1447 H1451 0.975 . S
H1448 C1444 0.950 . S
C1449 C1447 1.390 . S
C1449 C1450 1.387 . S
C1449 H1452 0.950 . S
C1450 C1449 1.387 . S
C1450 C1453 1.387 . S
H1451 C1447 0.975 . S
H1452 C1449 0.950 . S
C1453 C1444 1.390 . S
C1453 H1446 0.950 . S
C1453 C1450 1.387 . S
C1454 C1455 1.387 . S
C1454 H1458 0.950 . S
C1454 C1463 1.390 . S
C1455 C1454 1.387 . S
C1455 C1457 1.387 . S
H1456 C1463 0.950 1_455 S
C1457 C1455 1.387 . S
C1457 C1459 1.390 . S
C1457 H1461 0.950 . S
H1458 C1454 0.950 . S
C1459 C1457 1.390 . S
C1459 C1460 1.387 . S
C1459 H1462 0.950 . S
C1460 C1459 1.387 . S
C1460 C1463 1.387 . S
H1461 C1457 0.950 . S
H1462 C1459 0.950 . S
C1463 C1454 1.390 . S
C1463 H1456 0.950 1_655 S
C1463 C1460 1.387 . S
C1464 C1465 1.387 . S
C1464 H1468 0.950 . S
C1464 C1473 1.390 . S
C1465 C1464 1.387 . S
C1465 C1467 1.387 . S
H1466 C1473 0.950 . S
C1467 C1465 1.387 . S
C1467 C1469 1.390 . S
C1467 H1471 0.950 . S
H1468 C1464 0.950 . S
C1469 C1467 1.390 . S
C1469 C1470 1.387 . S
C1469 H1472 0.950 . S
C1470 C1469 1.387 . S
C1470 C1473 1.387 . S
H1471 C1467 0.950 . S
H1472 C1469 0.950 . S
C1473 C1464 1.390 . S
C1473 H1466 0.950 . S
C1473 C1470 1.387 . S
C1474 C1475 1.387 . S
C1474 H1478 0.950 . S
C1474 C1483 1.390 . S
C1475 C1474 1.387 . S
C1475 C1477 1.387 . S
H1476 C1483 0.950 . S
C1477 C1475 1.387 . S
C1477 C1479 1.390 . S
C1477 H1481 0.950 . S
H1478 C1474 0.950 . S
C1479 C1477 1.390 . S
C1479 C1480 1.387 . S
C1479 H1482 0.950 . S
C1480 C1479 1.387 . S
C1480 C1483 1.387 . S
H1481 C1477 0.950 . S
H1482 C1479 0.950 . S
C1483 C1474 1.390 . S
C1483 H1476 0.950 . S
C1483 C1480 1.387 . S
C1484 C1485 1.387 . S
C1484 H1488 0.950 . S
C1484 C1493 1.390 . S
C1485 C1484 1.387 . S
C1485 C1487 1.387 . S
H1486 C1493 0.950 . S
C1487 C1485 1.387 . S
C1487 C1489 1.390 . S
C1487 H1491 0.950 . S
H1488 C1484 0.950 . S
C1489 C1487 1.390 . S
C1489 C1490 1.387 . S
C1489 H1492 0.950 . S
C1490 C1489 1.387 . S
C1490 C1493 1.387 . S
H1491 C1487 0.950 . S
H1492 C1489 0.950 . S
C1493 C1484 1.390 . S
C1493 H1486 0.950 . S
C1493 C1490 1.387 . S
C1494 C1495 1.387 . S
C1494 H1498 0.950 . S
C1494 C1503 1.390 . S
C1495 C1494 1.387 . S
C1495 C1497 1.387 . S
H1496 C1503 0.950 . S
C1497 C1495 1.387 . S
C1497 C1499 1.390 . S
C1497 H1501 0.950 . S
H1498 C1494 0.950 . S
C1499 C1497 1.390 . S
C1499 C1500 1.387 . S
C1499 H1502 0.950 . S
C1500 C1499 1.387 . S
C1500 C1503 1.387 . S
H1501 C1497 0.950 . S
H1502 C1499 0.950 . S
C1503 C1494 1.390 . S
C1503 H1496 0.950 . S
C1503 C1500 1.387 . S
C1504 C1505 1.387 . S
C1504 H1508 0.950 . S
C1504 C1513 1.390 . S
C1505 C1504 1.387 . S
C1505 C1507 1.387 . S
H1506 C1513 0.950 . S
C1507 C1505 1.387 . S
C1507 C1509 1.390 . S
C1507 H1511 0.950 . S
H1508 C1504 0.950 . S
C1509 C1507 1.390 . S
C1509 C1510 1.387 . S
C1509 H1512 0.950 1_565 S
C1510 C1509 1.387 . S
C1510 C1513 1.387 . S
H1511 C1507 0.950 . S
H1512 C1509 0.950 1_545 S
C1513 C1504 1.390 . S
C1513 H1506 0.950 . S
C1513 C1510 1.387 . S
C1514 C1515 1.387 . S
C1514 H1518 0.950 . S
C1514 C1523 1.390 . S
C1515 C1514 1.387 . S
C1515 C1517 1.387 . S
H1516 C1523 0.950 . S
C1517 C1515 1.387 . S
C1517 C1519 1.390 . S
C1517 H1521 0.950 1_455 S
H1518 C1514 0.950 . S
C1519 C1517 1.390 . S
C1519 C1520 1.387 . S
C1519 H1522 0.950 . S
C1520 C1519 1.387 . S
C1520 C1523 1.387 . S
H1521 C1517 0.950 1_655 S
H1522 C1519 0.950 . S
C1523 C1514 1.390 . S
C1523 H1516 0.950 . S
C1523 C1520 1.387 . S
C1524 C1525 1.387 . S
C1524 H1528 0.950 . S
C1524 C1533 1.390 1_455 S
C1525 C1524 1.387 . S
C1525 C1527 1.387 . S
H1526 C1533 0.950 . S
C1527 C1525 1.387 . S
C1527 C1529 1.390 1_455 S
C1527 H1531 0.950 . S
H1528 C1524 0.950 . S
C1529 C1527 1.390 1_655 S
C1529 C1530 1.387 . S
C1529 H1532 0.950 . S
C1530 C1529 1.387 . S
C1530 C1533 1.387 . S
H1531 C1527 0.950 . S
H1532 C1529 0.950 . S
C1533 C1524 1.390 1_655 S
C1533 H1526 0.950 . S
C1533 C1530 1.387 . S
C1534 C1535 1.387 . S
C1534 H1538 0.950 . S
C1534 C1543 1.390 . S
C1535 C1534 1.387 . S
C1535 C1537 1.387 . S
H1536 C1543 0.950 . S
C1537 C1535 1.387 . S
C1537 C1539 1.390 . S
C1537 H1541 0.950 . S
H1538 C1534 0.950 . S
C1539 C1537 1.390 . S
C1539 C1540 1.387 . S
C1539 H1542 0.950 . S
C1540 C1539 1.387 . S
C1540 C1543 1.387 . S
H1541 C1537 0.950 . S
H1542 C1539 0.950 . S
C1543 C1534 1.390 . S
C1543 H1536 0.950 . S
C1543 C1540 1.387 . S
C1544 C1545 1.387 . S
C1544 H1548 0.950 . S
C1544 C1553 1.390 1_565 S
C1545 C1544 1.387 . S
C1545 C1547 1.387 . S
H1546 C1553 0.950 . S
C1547 C1545 1.387 . S
C1547 C1549 1.390 1_565 S
C1547 H1551 0.950 . S
H1548 C1544 0.950 . S
C1549 C1547 1.390 1_545 S
C1549 C1550 1.387 . S
C1549 H1552 0.950 . S
C1550 C1549 1.387 . S
C1550 C1553 1.387 . S
H1551 C1547 0.950 . S
H1552 C1549 0.950 . S
C1553 C1544 1.390 1_545 S
C1553 H1546 0.950 . S
C1553 C1550 1.387 . S
C1554 C1555 1.387 . S
C1554 H1558 0.950 . S
C1554 C1563 1.390 1_545 S
C1555 C1554 1.387 . S
C1555 C1557 1.387 . S
H1556 C1563 0.950 . S
C1557 C1555 1.387 . S
C1557 C1559 1.390 1_545 S
C1557 H1561 0.950 . S
H1558 C1554 0.950 . S
C1559 C1557 1.390 1_565 S
C1559 C1560 1.387 . S
C1559 H1562 0.950 . S
C1560 C1559 1.387 . S
C1560 C1563 1.387 . S
H1561 C1557 0.950 . S
H1562 C1559 0.950 . S
C1563 C1554 1.390 1_565 S
C1563 H1556 0.950 . S
C1563 C1560 1.387 . S
C1564 C1565 1.387 . S
C1564 H1568 0.950 . S
C1564 C1573 1.390 1_655 S
C1565 C1564 1.387 . S
C1565 C1567 1.387 . S
H1566 C1573 0.950 . S
C1567 C1565 1.387 . S
C1567 C1569 1.390 1_655 S
C1567 H1571 0.950 . S
H1568 C1564 0.950 . S
C1569 C1567 1.390 1_455 S
C1569 C1570 1.387 . S
C1569 H1572 0.950 . S
C1570 C1569 1.387 . S
C1570 C1573 1.387 . S
H1571 C1567 0.950 . S
H1572 C1569 0.950 . S
C1573 C1564 1.390 1_455 S
C1573 H1566 0.950 . S
C1573 C1570 1.387 . S
C1574 C1575 1.387 . S
C1574 H1578 0.950 . S
C1574 C1583 1.390 . S
C1575 C1574 1.387 . S
C1575 C1577 1.387 . S
H1576 C1583 0.950 . S
C1577 C1575 1.387 . S
C1577 C1579 1.390 . S
C1577 H1581 0.950 . S
H1578 C1574 0.950 . S
C1579 C1577 1.390 . S
C1579 C1580 1.387 . S
C1579 H1582 0.950 . S
C1580 C1579 1.387 . S
C1580 C1583 1.387 . S
H1581 C1577 0.950 . S
H1582 C1579 0.950 . S
C1583 C1574 1.390 . S
C1583 H1576 0.950 . S
C1583 C1580 1.387 . S
C1584 C1585 1.387 . S
C1584 H1588 0.950 . S
C1584 C1593 1.390 . S
C1585 C1584 1.387 . S
C1585 C1587 1.387 . S
H1586 C1593 0.950 . S
C1587 C1585 1.387 . S
C1587 C1589 1.390 . S
C1587 H1591 0.950 . S
H1588 C1584 0.950 . S
C1589 C1587 1.390 . S
C1589 C1590 1.387 . S
C1589 H1592 0.950 . S
C1590 C1589 1.387 . S
C1590 C1593 1.387 . S
H1591 C1587 0.950 . S
H1592 C1589 0.950 . S
C1593 C1584 1.390 . S
C1593 H1586 0.950 . S
C1593 C1590 1.387 . S
C1594 C1595 1.387 . S
C1594 H1598 0.950 . S
C1594 C1603 1.390 . S
C1595 C1594 1.387 . S
C1595 C1597 1.387 . S
H1596 C1603 0.950 . S
C1597 C1595 1.387 . S
C1597 C1599 1.390 . S
C1597 H1601 0.950 . S
H1598 C1594 0.950 . S
C1599 C1597 1.390 . S
C1599 C1600 1.387 . S
C1599 H1602 0.950 . S
C1600 C1599 1.387 . S
C1600 C1603 1.387 . S
H1601 C1597 0.950 . S
H1602 C1599 0.950 . S
C1603 C1594 1.390 . S
C1603 H1596 0.950 . S
C1603 C1600 1.387 . S
C1604 C1605 1.387 . S
C1604 H1608 0.950 . S
C1604 C1613 1.390 . S
C1605 C1604 1.387 . S
C1605 C1607 1.387 . S
H1606 C1613 0.950 . S
C1607 C1605 1.387 . S
C1607 C1609 1.390 . S
C1607 H1611 0.950 . S
H1608 C1604 0.950 . S
C1609 C1607 1.390 . S
C1609 C1610 1.387 . S
C1609 H1612 0.950 . S
C1610 C1609 1.387 . S
C1610 C1613 1.387 . S
H1611 C1607 0.950 . S
H1612 C1609 0.950 . S
C1613 C1604 1.390 . S
C1613 H1606 0.950 . S
C1613 C1610 1.387 . S
C1614 C1615 1.387 . S
C1614 H1618 0.950 . S
C1614 C1623 1.390 . S
C1615 C1614 1.387 . S
C1615 C1617 1.387 . S
H1616 C1623 0.950 . S
C1617 C1615 1.387 . S
C1617 C1619 1.390 . S
C1617 H1621 0.950 . S
H1618 C1614 0.950 . S
C1619 C1617 1.390 . S
C1619 C1620 1.387 . S
C1619 H1622 0.950 . S
C1620 C1619 1.387 . S
C1620 C1623 1.387 . S
H1621 C1617 0.950 . S
H1622 C1619 0.950 . S
C1623 C1614 1.390 . S
C1623 H1616 0.950 . S
C1623 C1620 1.387 . S
C1624 C1625 1.387 . S
C1624 H1628 0.950 . S
C1624 C1633 1.390 . S
C1625 C1624 1.387 . S
C1625 C1627 1.387 . S
H1626 C1633 0.950 . S
C1627 C1625 1.387 . S
C1627 C1629 1.390 . S
C1627 H1631 0.950 . S
H1628 C1624 0.950 . S
C1629 C1627 1.390 . S
C1629 C1630 1.387 . S
C1629 H1632 0.950 . S
C1630 C1629 1.387 . S
C1630 C1633 1.387 . S
H1631 C1627 0.950 . S
H1632 C1629 0.950 . S
C1633 C1624 1.390 . S
C1633 H1626 0.950 . S
C1633 C1630 1.387 . S
C1634 C1635 1.387 . S
C1634 H1638 0.950 . S
C1634 C1643 1.390 . S
C1635 C1634 1.387 . S
C1635 C1637 1.387 . S
H1636 C1643 0.950 . S
C1637 C1635 1.387 . S
C1637 C1639 1.390 . S
C1637 H1641 0.950 . S
H1638 C1634 0.950 . S
C1639 C1637 1.390 . S
C1639 C1640 1.387 . S
C1639 H1642 0.950 . S
C1640 C1639 1.387 . S
C1640 C1643 1.387 . S
H1641 C1637 0.950 . S
H1642 C1639 0.950 . S
C1643 C1634 1.390 . S
C1643 H1636 0.950 . S
C1643 C1640 1.387 . S
C1644 C1645 1.387 . S
C1644 H1648 0.950 . S
C1644 C1653 1.390 . S
C1645 C1644 1.387 . S
C1645 C1647 1.387 . S
H1646 C1653 0.950 . S
C1647 C1645 1.387 . S
C1647 C1649 1.390 . S
C1647 H1651 0.950 . S
H1648 C1644 0.950 . S
C1649 C1647 1.390 . S
C1649 C1650 1.387 . S
C1649 H1652 0.950 . S
C1650 C1649 1.387 . S
C1650 C1653 1.387 . S
H1651 C1647 0.950 . S
H1652 C1649 0.950 . S
C1653 C1644 1.390 . S
C1653 H1646 0.950 . S
C1653 C1650 1.387 . S
C1654 C1655 1.387 . S
C1654 H1658 0.950 . S
C1654 C1663 1.390 . S
C1655 C1654 1.387 . S
C1655 C1657 1.387 . S
H1656 C1663 0.950 . S
C1657 C1655 1.387 . S
C1657 C1659 1.390 . S
C1657 H1661 0.950 . S
H1658 C1654 0.950 . S
C1659 C1657 1.390 . S
C1659 C1660 1.387 . S
C1659 H1662 0.950 . S
C1660 C1659 1.387 . S
C1660 C1663 1.387 . S
H1661 C1657 0.950 . S
H1662 C1659 0.950 . S
C1663 C1654 1.390 . S
C1663 H1656 0.950 . S
C1663 C1660 1.387 . S
C1664 C1665 1.387 . S
C1664 H1668 0.950 . S
C1664 C1673 1.390 . S
C1665 C1664 1.387 . S
C1665 C1667 1.387 . S
H1666 C1673 0.950 . S
C1667 C1665 1.387 . S
C1667 C1669 1.390 . S
C1667 H1671 0.950 . S
H1668 C1664 0.950 . S
C1669 C1667 1.390 . S
C1669 C1670 1.387 . S
C1669 H1672 0.950 . S
C1670 C1669 1.387 . S
C1670 C1673 1.387 . S
H1671 C1667 0.950 . S
H1672 C1669 0.950 . S
C1673 C1664 1.390 . S
C1673 H1666 0.950 . S
C1673 C1670 1.387 . S
C1674 C1675 1.387 . S
C1674 H1678 0.950 . S
C1674 C1683 1.390 . S
C1675 C1674 1.387 . S
C1675 C1677 1.387 . S
H1676 C1683 0.950 . S
C1677 C1675 1.387 . S
C1677 C1679 1.390 . S
C1677 H1681 0.950 . S
H1678 C1674 0.950 . S
C1679 C1677 1.390 . S
C1679 C1680 1.387 . S
C1679 H1682 0.950 . S
C1680 C1679 1.387 . S
C1680 C1683 1.387 . S
H1681 C1677 0.950 . S
H1682 C1679 0.950 . S
C1683 C1674 1.390 . S
C1683 H1676 0.950 . S
C1683 C1680 1.387 . S
C1684 C1685 1.387 . S
C1684 H1688 0.950 . S
C1684 C1693 1.390 . S
C1685 C1684 1.387 . S
C1685 C1687 1.387 . S
H1686 C1693 0.950 . S
C1687 C1685 1.387 . S
C1687 C1689 1.390 . S
C1687 H1691 0.950 . S
H1688 C1684 0.950 . S
C1689 C1687 1.390 . S
C1689 C1690 1.387 . S
C1689 H1692 0.950 . S
C1690 C1689 1.387 . S
C1690 C1693 1.387 . S
H1691 C1687 0.950 . S
H1692 C1689 0.950 . S
C1693 C1684 1.390 . S
C1693 H1686 0.950 . S
C1693 C1690 1.387 . S
C1694 C1695 1.387 . S
C1694 H1698 0.950 . S
C1694 C1703 1.390 . S
C1695 C1694 1.387 . S
C1695 C1697 1.387 . S
H1696 C1703 0.950 . S
C1697 C1695 1.387 . S
C1697 C1699 1.390 . S
C1697 H1701 0.950 . S
H1698 C1694 0.950 . S
C1699 C1697 1.390 . S
C1699 C1700 1.387 . S
C1699 H1702 0.950 . S
C1700 C1699 1.387 . S
C1700 C1703 1.387 . S
H1701 C1697 0.950 . S
H1702 C1699 0.950 . S
C1703 C1694 1.390 . S
C1703 H1696 0.950 . S
C1703 C1700 1.387 . S
C1704 C1705 1.387 1_455 S
C1704 H1708 0.950 . S
C1704 C1713 1.390 . S
C1705 C1704 1.387 1_655 S
C1705 C1707 1.387 . S
H1706 C1713 0.950 . S
C1707 C1705 1.387 . S
C1707 C1709 1.390 . S
C1707 H1711 0.950 . S
H1708 C1704 0.950 . S
C1709 C1707 1.390 . S
C1709 C1710 1.387 1_655 S
C1709 H1712 0.950 . S
C1710 C1709 1.387 1_455 S
C1710 C1713 1.387 . S
H1711 C1707 0.950 . S
H1712 C1709 0.950 . S
C1713 C1704 1.390 . S
C1713 H1706 0.950 . S
C1713 C1710 1.387 . S
C1714 C1715 1.387 . S
C1714 H1718 0.950 . S
C1714 C1723 1.390 . S
C1715 C1714 1.387 . S
C1715 C1717 1.387 . S
H1716 C1723 0.950 . S
C1717 C1715 1.387 . S
C1717 C1719 1.390 . S
C1717 H1721 0.950 . S
H1718 C1714 0.950 . S
C1719 C1717 1.390 . S
C1719 C1720 1.387 . S
C1719 H1722 0.950 . S
C1720 C1719 1.387 . S
C1720 C1723 1.387 . S
H1721 C1717 0.950 . S
H1722 C1719 0.950 . S
C1723 C1714 1.390 . S
C1723 H1716 0.950 . S
C1723 C1720 1.387 . S
C1724 C1725 1.387 . S
C1724 H1728 0.950 . S
C1724 C1733 1.390 . S
C1725 C1724 1.387 . S
C1725 C1727 1.387 1_545 S
H1726 C1733 0.950 . S
C1727 C1725 1.387 1_565 S
C1727 C1729 1.390 . S
C1727 H1731 0.950 . S
H1728 C1724 0.950 . S
C1729 C1727 1.390 . S
C1729 C1730 1.387 . S
C1729 H1732 0.950 . S
C1730 C1729 1.387 . S
C1730 C1733 1.387 1_565 S
H1731 C1727 0.950 . S
H1732 C1729 0.950 . S
C1733 C1724 1.390 . S
C1733 H1726 0.950 . S
C1733 C1730 1.387 1_545 S
C1734 C1735 1.387 1_556 S
C1734 H1738 0.950 . S
C1734 C1743 1.390 . S
C1735 C1734 1.387 1_554 S
C1735 C1737 1.387 1_565 S
H1736 C1743 0.950 . S
C1737 C1735 1.387 1_545 S
C1737 C1739 1.390 . S
C1737 H1741 0.950 . S
H1738 C1734 0.950 . S
C1739 C1737 1.390 . S
C1739 C1740 1.387 1_554 S
C1739 H1742 0.950 . S
C1740 C1739 1.387 1_556 S
C1740 C1743 1.387 1_545 S
H1741 C1737 0.950 . S
H1742 C1739 0.950 . S
C1743 C1734 1.390 . S
C1743 H1736 0.950 . S
C1743 C1740 1.387 1_565 S
C1744 C1745 1.387 1_455 S
C1744 H1748 0.950 . S
C1744 C1753 1.390 . S
C1745 C1744 1.387 1_655 S
C1745 C1747 1.387 1_556 S
H1746 C1753 0.950 . S
C1747 C1745 1.387 1_554 S
C1747 C1749 1.390 . S
C1747 H1751 0.950 . S
H1748 C1744 0.950 . S
C1749 C1747 1.390 . S
C1749 C1750 1.387 1_655 S
C1749 H1752 0.950 . S
C1750 C1749 1.387 1_455 S
C1750 C1753 1.387 1_554 S
H1751 C1747 0.950 . S
H1752 C1749 0.950 . S
C1753 C1744 1.390 . S
C1753 H1746 0.950 . S
C1753 C1750 1.387 1_556 S
C1754 C1755 1.387 1_556 S
C1754 H1758 0.950 . S
C1754 C1763 1.390 . S
C1755 C1754 1.387 1_554 S
C1755 C1757 1.387 . S
H1756 C1763 0.950 . S
C1757 C1755 1.387 . S
C1757 C1759 1.390 . S
C1757 H1761 0.950 . S
H1758 C1754 0.950 . S
C1759 C1757 1.390 . S
C1759 C1760 1.387 1_554 S
C1759 H1762 0.950 . S
C1760 C1759 1.387 1_556 S
C1760 C1763 1.387 . S
H1761 C1757 0.950 . S
H1762 C1759 0.950 . S
C1763 C1754 1.390 . S
C1763 H1756 0.950 . S
C1763 C1760 1.387 . S
C1764 C1765 1.387 1_554 S
C1764 H1768 0.950 . S
C1764 C1773 1.390 . S
C1765 C1764 1.387 1_556 S
C1765 C1767 1.387 . S
H1766 C1773 0.950 . S
C1767 C1765 1.387 . S
C1767 C1769 1.390 1_556 S
C1767 H1771 0.950 . S
H1768 C1764 0.950 . S
C1769 C1767 1.390 1_554 S
C1769 C1770 1.387 . S
C1769 H1772 0.950 . S
C1770 C1769 1.387 . S
C1770 C1773 1.387 . S
H1771 C1767 0.950 . S
H1772 C1769 0.950 . S
C1773 C1764 1.390 . S
C1773 H1766 0.950 . S
C1773 C1770 1.387 . S
C1774 C1775 1.387 . S
C1774 H1778 0.950 . S
C1774 C1783 1.390 1_554 S
C1775 C1774 1.387 . S
C1775 C1777 1.387 . S
H1776 C1783 0.950 . S
C1777 C1775 1.387 . S
C1777 C1779 1.390 . S
C1777 H1781 0.950 . S
H1778 C1774 0.950 . S
C1779 C1777 1.390 . S
C1779 C1780 1.387 1_554 S
C1779 H1782 0.950 . S
C1780 C1779 1.387 1_556 S
C1780 C1783 1.387 . S
H1781 C1777 0.950 . S
H1782 C1779 0.950 . S
C1783 C1774 1.390 1_556 S
C1783 H1776 0.950 . S
C1783 C1780 1.387 . S
C1784 C1785 1.387 . S
C1784 H1788 0.950 . S
C1784 C1793 1.390 . S
C1785 C1784 1.387 . S
C1785 C1787 1.387 . S
H1786 C1793 0.950 1_556 S
C1787 C1785 1.387 . S
C1787 C1789 1.390 . S
C1787 H1791 0.950 . S
H1788 C1784 0.950 . S
C1789 C1787 1.390 . S
C1789 C1790 1.387 1_554 S
C1789 H1792 0.950 . S
C1790 C1789 1.387 1_556 S
C1790 C1793 1.387 1_556 S
H1791 C1787 0.950 . S
H1792 C1789 0.950 . S
C1793 C1784 1.390 . S
C1793 H1786 0.950 1_554 S
C1793 C1790 1.387 1_554 S
C1794 C1795 1.387 . S
C1794 H1798 0.950 . S
C1794 C1803 1.390 . S
C1795 C1794 1.387 . S
C1795 C1797 1.387 . S
H1796 C1803 0.950 . S
C1797 C1795 1.387 . S
C1797 C1799 1.390 . S
C1797 H1801 0.950 . S
H1798 C1794 0.950 . S
C1799 C1797 1.390 . S
C1799 C1800 1.387 . S
C1799 H1802 0.950 . S
C1800 C1799 1.387 . S
C1800 C1803 1.387 . S
H1801 C1797 0.950 . S
H1802 C1799 0.950 . S
C1803 C1794 1.390 . S
C1803 H1796 0.950 . S
C1803 C1800 1.387 . S
C1804 C1805 1.387 . S
C1804 H1808 0.950 . S
C1804 C1813 1.390 . S
C1805 C1804 1.387 . S
C1805 C1807 1.387 . S
H1806 C1813 0.950 . S
C1807 C1805 1.387 . S
C1807 C1809 1.390 . S
C1807 H1811 0.950 . S
H1808 C1804 0.950 . S
C1809 C1807 1.390 . S
C1809 C1810 1.387 . S
C1809 H1812 0.950 . S
C1810 C1809 1.387 . S
C1810 C1813 1.387 . S
H1811 C1807 0.950 . S
H1812 C1809 0.950 . S
C1813 C1804 1.390 . S
C1813 H1806 0.950 . S
C1813 C1810 1.387 . S
C1814 C1815 1.387 . S
C1814 H1818 0.950 . S
C1814 C1823 1.390 . S
C1815 C1814 1.387 . S
C1815 C1817 1.387 . S
H1816 C1823 0.950 . S
C1817 C1815 1.387 . S
C1817 C1819 1.390 . S
C1817 H1821 0.950 . S
H1818 C1814 0.950 . S
C1819 C1817 1.390 . S
C1819 C1820 1.387 . S
C1819 H1822 0.950 . S
C1820 C1819 1.387 . S
C1820 C1823 1.387 . S
H1821 C1817 0.950 . S
H1822 C1819 0.950 . S
C1823 C1814 1.390 . S
C1823 H1816 0.950 . S
C1823 C1820 1.387 . S
C1824 C1825 1.387 . S
C1824 H1828 0.950 . S
C1824 C1833 1.390 1_554 S
C1825 C1824 1.387 . S
C1825 C1827 1.387 1_554 S
H1826 C1833 0.957 . S
C1827 C1825 1.387 1_556 S
C1827 C1829 1.390 . S
C1827 H1831 0.950 . S
H1828 C1824 0.950 . S
C1829 C1827 1.390 . S
C1829 C1830 1.387 . S
C1829 H1832 0.950 . S
C1830 C1829 1.387 . S
C1830 C1833 1.387 . S
H1831 C1827 0.950 . S
H1832 C1829 0.950 . S
C1833 C1824 1.390 1_556 S
C1833 H1826 0.957 . S
C1833 C1830 1.387 . S
C1834 C1835 1.387 1_556 S
C1834 H1838 0.950 1_556 S
C1834 C1843 1.390 . S
C1835 C1834 1.387 1_554 S
C1835 C1837 1.387 1_554 S
H1836 C1843 0.950 . S
C1837 C1835 1.387 1_556 S
C1837 C1839 1.390 . S
C1837 H1841 0.950 1_556 S
H1838 C1834 0.950 1_554 S
C1839 C1837 1.390 . S
C1839 C1840 1.387 . S
C1839 H1842 0.950 . S
C1840 C1839 1.387 . S
C1840 C1843 1.387 . S
H1841 C1837 0.950 1_554 S
H1842 C1839 0.950 . S
C1843 C1834 1.390 . S
C1843 H1836 0.950 . S
C1843 C1840 1.387 . S
C1844 C1845 1.383 1_556 S
C1844 H1848 0.938 1_556 S
C1844 C1853 1.407 . S
C1845 C1844 1.383 1_554 S
C1845 C1847 1.387 1_554 S
H1846 C1853 0.950 . S
C1847 C1845 1.387 1_556 S
C1847 C1849 1.390 . S
C1847 H1851 0.950 . S
H1848 C1844 0.938 1_554 S
C1849 C1847 1.390 . S
C1849 C1850 1.387 . S
C1849 H1852 0.950 . S
C1850 C1849 1.387 . S
C1850 C1853 1.387 . S
H1851 C1847 0.950 . S
H1852 C1849 0.950 . S
C1853 C1844 1.407 . S
C1853 H1846 0.950 . S
C1853 C1850 1.387 . S
C1854 C1855 1.387 . S
C1854 H1858 0.950 . S
C1854 C1863 1.390 . S
C1855 C1854 1.387 . S
C1855 C1857 1.387 . S
H1856 C1863 0.950 . S
C1857 C1855 1.387 . S
C1857 C1859 1.390 . S
C1857 H1861 0.950 . S
H1858 C1854 0.950 . S
C1859 C1857 1.390 . S
C1859 C1860 1.387 . S
C1859 H1862 0.950 . S
C1860 C1859 1.387 . S
C1860 C1863 1.387 . S
H1861 C1857 0.950 . S
H1862 C1859 0.950 . S
C1863 C1854 1.390 . S
C1863 H1856 0.950 . S
C1863 C1860 1.387 . S
C1864 C1865 1.387 . S
C1864 H1868 0.950 . S
C1864 C1873 1.390 . S
C1865 C1864 1.387 . S
C1865 C1867 1.387 . S
H1866 C1873 0.950 . S
C1867 C1865 1.387 . S
C1867 C1869 1.390 . S
C1867 H1871 0.950 . S
H1868 C1864 0.950 . S
C1869 C1867 1.390 . S
C1869 C1870 1.387 . S
C1869 H1872 0.950 . S
C1870 C1869 1.387 . S
C1870 C1873 1.387 . S
H1871 C1867 0.950 . S
H1872 C1869 0.950 . S
C1873 C1864 1.390 . S
C1873 H1866 0.950 . S
C1873 C1870 1.387 . S
C1874 C1875 1.387 . S
C1874 H1878 0.950 . S
C1874 C1883 1.390 . S
C1875 C1874 1.387 . S
C1875 C1877 1.387 . S
H1876 C1883 0.950 . S
C1877 C1875 1.387 . S
C1877 C1879 1.390 . S
C1877 H1881 0.950 . S
H1878 C1874 0.950 . S
C1879 C1877 1.390 . S
C1879 C1880 1.387 . S
C1879 H1882 0.950 . S
C1880 C1879 1.387 . S
C1880 C1883 1.387 . S
H1881 C1877 0.950 . S
H1882 C1879 0.950 . S
C1883 C1874 1.390 . S
C1883 H1876 0.950 . S
C1883 C1880 1.387 . S
C1884 C1885 1.387 . S
C1884 H1888 0.950 . S
C1884 C1893 1.390 . S
C1885 C1884 1.387 . S
C1885 C1887 1.387 . S
H1886 C1893 0.950 . S
C1887 C1885 1.387 . S
C1887 C1889 1.390 . S
C1887 H1891 0.950 . S
H1888 C1884 0.950 . S
C1889 C1887 1.390 . S
C1889 C1890 1.387 . S
C1889 H1892 0.950 . S
C1890 C1889 1.387 . S
C1890 C1893 1.387 . S
H1891 C1887 0.950 . S
H1892 C1889 0.950 . S
C1893 C1884 1.390 . S
C1893 H1886 0.950 . S
C1893 C1890 1.387 . S
C1894 C1895 1.387 . S
C1894 H1898 0.950 . S
C1894 C1903 1.390 . S
C1895 C1894 1.387 . S
C1895 C1897 1.387 . S
H1896 C1903 0.950 . S
C1897 C1895 1.387 . S
C1897 C1899 1.390 . S
C1897 H1901 0.950 . S
H1898 C1894 0.950 . S
C1899 C1897 1.390 . S
C1899 C1900 1.387 . S
C1899 H1902 0.950 . S
C1900 C1899 1.387 . S
C1900 C1903 1.387 . S
H1901 C1897 0.950 . S
H1902 C1899 0.950 . S
C1903 C1894 1.390 . S
C1903 H1896 0.950 . S
C1903 C1900 1.387 . S
C1904 C1905 1.387 . S
C1904 H1908 0.950 . S
C1904 C1913 1.390 . S
C1905 C1904 1.387 . S
C1905 C1907 1.387 . S
H1906 C1913 0.950 . S
C1907 C1905 1.387 . S
C1907 C1909 1.390 . S
C1907 H1911 0.950 . S
H1908 C1904 0.950 . S
C1909 C1907 1.390 . S
C1909 C1910 1.387 . S
C1909 H1912 0.950 . S
C1910 C1909 1.387 . S
C1910 C1913 1.387 . S
H1911 C1907 0.950 . S
H1912 C1909 0.950 . S
C1913 C1904 1.390 . S
C1913 H1906 0.950 . S
C1913 C1910 1.387 . S
C1914 C1915 1.387 . S
C1914 H1918 0.950 . S
C1914 C1923 1.390 . S
C1915 C1914 1.387 . S
C1915 C1917 1.387 . S
H1916 C1923 0.950 . S
C1917 C1915 1.387 . S
C1917 C1919 1.390 . S
C1917 H1921 0.950 . S
H1918 C1914 0.950 . S
C1919 C1917 1.390 . S
C1919 C1920 1.387 . S
C1919 H1922 0.950 . S
C1920 C1919 1.387 . S
C1920 C1923 1.387 . S
H1921 C1917 0.950 . S
H1922 C1919 0.950 . S
C1923 C1914 1.390 . S
C1923 H1916 0.950 . S
C1923 C1920 1.387 . S
C1924 C1925 1.387 . S
C1924 H1928 0.950 . S
C1924 C1933 1.390 . S
C1925 C1924 1.387 . S
C1925 C1927 1.387 . S
H1926 C1933 0.950 . S
C1927 C1925 1.387 . S
C1927 C1929 1.390 . S
C1927 H1931 0.950 . S
H1928 C1924 0.950 . S
C1929 C1927 1.390 . S
C1929 C1930 1.387 . S
C1929 H1932 0.950 . S
C1930 C1929 1.387 . S
C1930 C1933 1.387 . S
H1931 C1927 0.950 . S
H1932 C1929 0.950 . S
C1933 C1924 1.390 . S
C1933 H1926 0.950 . S
C1933 C1930 1.387 . S
C1934 C1935 1.387 . S
C1934 H1938 0.950 . S
C1934 C1943 1.390 . S
C1935 C1934 1.387 . S
C1935 C1937 1.387 . S
H1936 C1943 0.950 . S
C1937 C1935 1.387 . S
C1937 C1939 1.390 . S
C1937 H1941 0.950 . S
H1938 C1934 0.950 . S
C1939 C1937 1.390 . S
C1939 C1940 1.387 . S
C1939 H1942 0.950 . S
C1940 C1939 1.387 . S
C1940 C1943 1.387 . S
H1941 C1937 0.950 . S
H1942 C1939 0.950 . S
C1943 C1934 1.390 . S
C1943 H1936 0.950 . S
C1943 C1940 1.387 . S
C1944 C1945 1.387 . S
C1944 H1948 0.950 . S
C1944 C1953 1.390 . S
C1945 C1944 1.387 . S
C1945 C1947 1.387 . S
H1946 C1953 0.950 . S
C1947 C1945 1.387 . S
C1947 C1949 1.390 . S
C1947 H1951 0.950 . S
H1948 C1944 0.950 . S
C1949 C1947 1.390 . S
C1949 C1950 1.387 . S
C1949 H1952 0.950 . S
C1950 C1949 1.387 . S
C1950 C1953 1.387 . S
H1951 C1947 0.950 . S
H1952 C1949 0.950 . S
C1953 C1944 1.390 . S
C1953 H1946 0.950 . S
C1953 C1950 1.387 . S
C1954 C1955 1.387 . S
C1954 H1958 0.950 . S
C1954 C1963 1.390 . S
C1955 C1954 1.387 . S
C1955 C1957 1.387 . S
H1956 C1963 0.950 . S
C1957 C1955 1.387 . S
C1957 C1959 1.390 . S
C1957 H1961 0.950 . S
H1958 C1954 0.950 . S
C1959 C1957 1.390 . S
C1959 C1960 1.387 . S
C1959 H1962 0.950 . S
C1960 C1959 1.387 . S
C1960 C1963 1.387 . S
H1961 C1957 0.950 . S
H1962 C1959 0.950 . S
C1963 C1954 1.390 . S
C1963 H1956 0.950 . S
C1963 C1960 1.387 . S
C1964 C1965 1.387 . S
C1964 H1968 0.950 . S
C1964 C1973 1.390 . S
C1965 C1964 1.387 . S
C1965 C1967 1.387 . S
H1966 C1973 0.950 . S
C1967 C1965 1.387 . S
C1967 C1969 1.390 . S
C1967 H1971 0.950 . S
H1968 C1964 0.950 . S
C1969 C1967 1.390 . S
C1969 C1970 1.387 . S
C1969 H1972 0.950 . S
C1970 C1969 1.387 . S
C1970 C1973 1.387 . S
H1971 C1967 0.950 . S
H1972 C1969 0.950 . S
C1973 C1964 1.390 . S
C1973 H1966 0.950 . S
C1973 C1970 1.387 . S
C1974 C1975 1.387 . S
C1974 H1978 0.950 . S
C1974 C1983 1.390 . S
C1975 C1974 1.387 . S
C1975 C1977 1.387 . S
H1976 C1983 0.950 . S
C1977 C1975 1.387 . S
C1977 C1979 1.390 . S
C1977 H1981 0.950 . S
H1978 C1974 0.950 . S
C1979 C1977 1.390 . S
C1979 C1980 1.387 . S
C1979 H1982 0.950 . S
C1980 C1979 1.387 . S
C1980 C1983 1.387 . S
H1981 C1977 0.950 . S
H1982 C1979 0.950 . S
C1983 C1974 1.390 . S
C1983 H1976 0.950 . S
C1983 C1980 1.387 . S
C1984 C1985 1.387 . S
C1984 H1988 0.950 . S
C1984 C1993 1.390 . S
C1985 C1984 1.387 . S
C1985 C1987 1.387 . S
H1986 C1993 0.950 . S
C1987 C1985 1.387 . S
C1987 C1989 1.390 . S
C1987 H1991 0.950 . S
H1988 C1984 0.950 . S
C1989 C1987 1.390 . S
C1989 C1990 1.387 . S
C1989 H1992 0.950 . S
C1990 C1989 1.387 . S
C1990 C1993 1.387 . S
H1991 C1987 0.950 . S
H1992 C1989 0.950 . S
C1993 C1984 1.390 . S
C1993 H1986 0.950 . S
C1993 C1990 1.387 . S
C1994 C1995 1.387 . S
C1994 H1998 0.950 . S
C1994 C2003 1.390 . S
C1995 C1994 1.387 . S
C1995 C1997 1.387 . S
H1996 C2003 0.950 . S
C1997 C1995 1.387 . S
C1997 C1999 1.390 . S
C1997 H2001 0.950 . S
H1998 C1994 0.950 . S
C1999 C1997 1.390 . S
C1999 C2000 1.387 . S
C1999 H2002 0.950 . S
C2000 C1999 1.387 . S
C2000 C2003 1.387 . S
H2001 C1997 0.950 . S
H2002 C1999 0.950 . S
C2003 C1994 1.390 . S
C2003 H1996 0.950 . S
C2003 C2000 1.387 . S
C2004 C2005 1.387 . S
C2004 H2008 0.950 . S
C2004 C2013 1.390 . S
C2005 C2004 1.387 . S
C2005 C2007 1.387 . S
H2006 C2013 0.950 . S
C2007 C2005 1.387 . S
C2007 C2009 1.390 . S
C2007 H2011 0.950 . S
H2008 C2004 0.950 . S
C2009 C2007 1.390 . S
C2009 C2010 1.387 . S
C2009 H2012 0.950 . S
C2010 C2009 1.387 . S
C2010 C2013 1.387 . S
H2011 C2007 0.950 . S
H2012 C2009 0.950 . S
C2013 C2004 1.390 . S
C2013 H2006 0.950 . S
C2013 C2010 1.387 . S
C2014 C2015 1.387 . S
C2014 H2018 0.950 . S
C2014 C2023 1.390 . S
C2015 C2014 1.387 . S
C2015 C2017 1.387 . S
H2016 C2023 0.950 . S
C2017 C2015 1.387 . S
C2017 C2019 1.390 . S
C2017 H2021 0.950 . S
H2018 C2014 0.950 . S
C2019 C2017 1.390 . S
C2019 C2020 1.387 . S
C2019 H2022 0.950 . S
C2020 C2019 1.387 . S
C2020 C2023 1.387 . S
H2021 C2017 0.950 . S
H2022 C2019 0.950 . S
C2023 C2014 1.390 . S
C2023 H2016 0.950 . S
C2023 C2020 1.387 . S
C2024 C2025 1.387 . S
C2024 H2028 0.950 . S
C2024 C2033 1.390 . S
C2025 C2024 1.387 . S
C2025 C2027 1.387 . S
H2026 C2033 0.950 . S
C2027 C2025 1.387 . S
C2027 C2029 1.390 . S
C2027 H2031 0.950 . S
H2028 C2024 0.950 . S
C2029 C2027 1.390 . S
C2029 C2030 1.387 . S
C2029 H2032 0.950 . S
C2030 C2029 1.387 . S
C2030 C2033 1.387 . S
H2031 C2027 0.950 . S
H2032 C2029 0.950 . S
C2033 C2024 1.390 . S
C2033 H2026 0.950 . S
C2033 C2030 1.387 . S
C2034 C2035 1.387 . S
C2034 H2038 0.950 . S
C2034 C2043 1.390 . S
C2035 C2034 1.387 . S
C2035 C2037 1.387 . S
H2036 C2043 0.950 . S
C2037 C2035 1.387 . S
C2037 C2039 1.390 . S
C2037 H2041 0.950 . S
H2038 C2034 0.950 . S
C2039 C2037 1.390 . S
C2039 C2040 1.387 . S
C2039 H2042 0.950 . S
C2040 C2039 1.387 . S
C2040 C2043 1.387 . S
H2041 C2037 0.950 . S
H2042 C2039 0.950 . S
C2043 C2034 1.390 . S
C2043 H2036 0.950 . S
C2043 C2040 1.387 . S
C2044 C2045 1.387 . S
C2044 H2048 0.950 . S
C2044 C2053 1.390 . S
C2045 C2044 1.387 . S
C2045 C2047 1.387 . S
H2046 C2053 0.950 . S
C2047 C2045 1.387 . S
C2047 C2049 1.390 . S
C2047 H2051 0.950 . S
H2048 C2044 0.950 . S
C2049 C2047 1.390 . S
C2049 C2050 1.387 . S
C2049 H2052 0.950 . S
C2050 C2049 1.387 . S
C2050 C2053 1.387 . S
H2051 C2047 0.950 . S
H2052 C2049 0.950 . S
C2053 C2044 1.390 . S
C2053 H2046 0.950 . S
C2053 C2050 1.387 . S
C2054 C2055 1.387 . S
C2054 H2058 0.950 . S
C2054 C2063 1.390 . S
C2055 C2054 1.387 . S
C2055 C2057 1.387 . S
H2056 C2063 0.950 . S
C2057 C2055 1.387 . S
C2057 C2059 1.390 . S
C2057 H2061 0.950 . S
H2058 C2054 0.950 . S
C2059 C2057 1.390 . S
C2059 C2060 1.387 . S
C2059 H2062 0.950 . S
C2060 C2059 1.387 . S
C2060 C2063 1.387 . S
H2061 C2057 0.950 . S
H2062 C2059 0.950 . S
C2063 C2054 1.390 . S
C2063 H2056 0.950 . S
C2063 C2060 1.387 . S
C2064 C2065 1.387 . S
C2064 H2068 0.950 . S
C2064 C2073 1.390 . S
C2065 C2064 1.387 . S
C2065 C2067 1.387 . S
H2066 C2073 0.950 . S
C2067 C2065 1.387 . S
C2067 C2069 1.390 . S
C2067 H2071 0.950 . S
H2068 C2064 0.950 . S
C2069 C2067 1.390 . S
C2069 C2070 1.387 . S
C2069 H2072 0.950 . S
C2070 C2069 1.387 . S
C2070 C2073 1.387 . S
H2071 C2067 0.950 . S
H2072 C2069 0.950 . S
C2073 C2064 1.390 . S
C2073 H2066 0.950 . S
C2073 C2070 1.387 . S
C2074 C2075 1.387 . S
C2074 H2078 0.950 . S
C2074 C2083 1.390 . S
C2075 C2074 1.387 . S
C2075 C2077 1.387 . S
H2076 C2083 0.950 . S
C2077 C2075 1.387 . S
C2077 C2079 1.390 . S
C2077 H2081 0.950 . S
H2078 C2074 0.950 . S
C2079 C2077 1.390 . S
C2079 C2080 1.387 . S
C2079 H2082 0.950 . S
C2080 C2079 1.387 . S
C2080 C2083 1.387 . S
H2081 C2077 0.950 . S
H2082 C2079 0.950 . S
C2083 C2074 1.390 . S
C2083 H2076 0.950 . S
C2083 C2080 1.387 . S
C2084 C2085 1.387 . S
C2084 H2088 0.950 . S
C2084 C2093 1.390 . S
C2085 C2084 1.387 . S
C2085 C2087 1.387 . S
H2086 C2093 0.950 . S
C2087 C2085 1.387 . S
C2087 C2089 1.390 . S
C2087 H2091 0.950 . S
H2088 C2084 0.950 . S
C2089 C2087 1.390 . S
C2089 C2090 1.387 . S
C2089 H2092 0.950 . S
C2090 C2089 1.387 . S
C2090 C2093 1.387 . S
H2091 C2087 0.950 . S
H2092 C2089 0.950 . S
C2093 C2084 1.390 . S
C2093 H2086 0.950 . S
C2093 C2090 1.387 . S
C2094 C2095 1.387 . S
C2094 H2098 0.950 . S
C2094 C2103 1.390 . S
C2095 C2094 1.387 . S
C2095 C2097 1.387 . S
H2096 C2103 0.950 . S
C2097 C2095 1.387 . S
C2097 C2099 1.390 . S
C2097 H2101 0.950 . S
H2098 C2094 0.950 . S
C2099 C2097 1.390 . S
C2099 C2100 1.387 . S
C2099 H2102 0.950 . S
C2100 C2099 1.387 . S
C2100 C2103 1.387 . S
H2101 C2097 0.950 . S
H2102 C2099 0.950 . S
C2103 C2094 1.390 . S
C2103 H2096 0.950 . S
C2103 C2100 1.387 . S
C2104 C2105 1.387 . S
C2104 H2108 0.950 . S
C2104 C2113 1.390 . S
C2105 C2104 1.387 . S
C2105 C2107 1.387 . S
H2106 C2113 0.950 . S
C2107 C2105 1.387 . S
C2107 C2109 1.390 . S
C2107 H2111 0.950 . S
H2108 C2104 0.950 . S
C2109 C2107 1.390 . S
C2109 C2110 1.387 . S
C2109 H2112 0.950 . S
C2110 C2109 1.387 . S
C2110 C2113 1.387 . S
H2111 C2107 0.950 . S
H2112 C2109 0.950 . S
C2113 C2104 1.390 . S
C2113 H2106 0.950 . S
C2113 C2110 1.387 . S
C2114 C2115 1.387 . S
C2114 H2118 0.950 . S
C2114 C2123 1.390 . S
C2115 C2114 1.387 . S
C2115 C2117 1.387 . S
H2116 C2123 0.950 . S
C2117 C2115 1.387 . S
C2117 C2119 1.390 . S
C2117 H2121 0.950 . S
H2118 C2114 0.950 . S
C2119 C2117 1.390 . S
C2119 C2120 1.387 . S
C2119 H2122 0.950 . S
C2120 C2119 1.387 . S
C2120 C2123 1.387 . S
H2121 C2117 0.950 . S
H2122 C2119 0.950 . S
C2123 C2114 1.390 . S
C2123 H2116 0.950 . S
C2123 C2120 1.387 . S
C1225 C135 1.545 . S
C1230 C33 1.545 . S
C1235 C67 1.544 . S
C1240 C169 1.545 . S
C1245 C203 1.545 . S
C1250 C101 1.544 . S
C1255 C339 1.545 . S
C1260 C237 1.544 . S
C1265 C271 1.545 . S
C1270 C373 1.545 . S
C1275 C407 1.545 . S
C1280 C305 1.544 . S
C1285 C543 1.545 . S
C1290 C441 1.545 . S
C1295 C475 1.545 . S
C1300 C577 1.545 . S
C1305 C611 1.545 . S
C1310 C509 1.545 . S
C1315 C645 1.545 . S
C1320 C747 1.545 . S
C1325 C679 1.545 . S
C1330 C781 1.545 . S
C1335 C815 1.544 . S
C1340 C713 1.545 . S
C1345 C951 1.545 . S
C1350 C849 1.545 . S
C1355 C985 1.545 . S
C1360 C883 1.545 . S
C1365 C1019 1.545 . S
C1370 C917 1.545 . S
C1375 C1155 1.545 . S
C1380 C1053 1.545 . S
C1385 C1087 1.545 . S
C1390 C1189 1.545 . S
C1395 C1223 1.544 . S
C1400 C1121 1.545 . S
C1405 C2 2.279 . S
C1410 C988 2.279 . S
C1415 C920 2.279 . S
C1420 C36 2.279 1_565 S
C1425 C70 2.279 1_455 S
C1430 C954 2.279 . S
C1435 C444 2.279 . S
C1440 C104 2.279 . S
C1445 C138 2.279 1_545 S
C1450 C478 2.279 . S
C1455 C410 2.280 . S
C1460 C172 2.280 1_655 S
C1465 C784 2.279 . S
C1470 C206 2.279 . S
C1475 C716 2.279 . S
C1480 C240 2.279 1_545 S
C1485 C750 2.279 . S
C1490 C274 2.279 1_655 S
C1495 C308 2.279 . S
C1500 C1056 2.279 . S
C1505 C1090 2.279 . S
C1510 C342 2.280 1_565 S
C1515 C376 2.280 1_455 S
C1520 C1022 2.280 . S
C1525 C852 2.279 . S
C1530 C512 2.279 . S
C1535 C886 2.279 . S
C1540 C546 2.279 . S
C1545 C818 2.280 . S
C1550 C580 2.280 . S
C1555 C614 2.280 . S
C1560 C1192 2.280 . S
C1565 C648 2.279 . S
C1570 C1124 2.279 . S
C1575 C1158 2.279 . S
C1580 C682 2.279 . S
C1585 C5 1.585 . S
C1590 C617 1.585 . S
C1595 C651 1.585 . S
C1600 C39 1.585 . S
C1605 C73 1.583 . S
C1610 C685 1.583 . S
C1615 C1127 1.583 . S
C1620 C107 1.583 . S
C1625 C141 1.583 . S
C1630 C1161 1.583 . S
C1635 C1195 1.584 . S
C1640 C175 1.584 . S
C1645 C209 1.583 . S
C1650 C821 1.583 . S
C1655 C243 1.585 . S
C1660 C855 1.585 . S
C1665 C277 1.585 . S
C1670 C889 1.585 . S
C1675 C515 1.585 . S
C1680 C311 1.585 . S
C1685 C549 1.584 . S
C1690 C345 1.584 . S
C1695 C379 1.585 . S
C1700 C583 1.585 . S
C1705 C413 1.585 . S
C1710 C1025 1.585 . S
C1715 C1059 1.582 . S
C1720 C447 1.582 . S
C1725 C481 1.585 . S
C1730 C1093 1.585 . S
C1735 C923 1.586 . S
C1740 C719 1.586 . S
C1745 C753 1.585 . S
C1750 C957 1.585 . S
C1755 C991 1.585 . S
C1760 C787 1.585 . S
C1765 C247 1.188 . S
C1770 C20 1.195 . S
C1775 C54 1.197 . S
C1780 C281 1.190 . S
C1785 C88 1.195 . S
C1790 C213 1.191 . S
C1795 C122 1.195 . S
C1800 C383 1.191 . S
C1805 C156 1.194 . S
C1810 C315 1.188 . S
C1815 C190 1.196 . S
C1820 C349 1.192 . S
C1825 C43 1.188 . S
C1830 C224 1.194 . S
C1835 C77 1.191 . S
C1840 C258 1.195 . S
C1845 C9 1.191 . S
C1850 C292 1.195 . S
C1855 C326 1.197 . S
C1860 C179 1.190 . S
C1865 C360 1.197 . S
C1870 C111 1.191 . S
C1875 C394 1.196 . S
C1880 C145 1.188 . S
C1885 C428 1.194 . S
C1890 C655 1.188 . S
C1895 C689 1.189 . S
C1900 C462 1.197 . S
C1905 C621 1.190 . S
C1910 C496 1.194 . S
C1915 C530 1.197 . S
C1920 C791 1.190 . S
C1925 C723 1.190 . S
C1930 C564 1.194 . S
C1935 C757 1.192 . S
C1940 C598 1.196 . S
C1945 C632 1.197 . S
C1950 C451 1.191 . S
C1955 C666 1.194 . S
C1960 C485 1.190 . S
C1965 C417 1.191 . S
C1970 C700 1.194 . S
C1975 C587 1.188 . S
C1980 C734 1.194 . S
C1985 C519 1.189 . S
C1990 C768 1.194 . S
C1995 C553 1.192 . S
C2000 C802 1.196 . S
C2005 C836 1.195 . S
C2010 C1063 1.188 . S
C2015 C1097 1.190 . S
C2020 C870 1.194 . S
C2025 C1029 1.191 . S
C2030 C904 1.195 . S
C2035 C938 1.197 . S
C2040 C1199 1.189 . S
C2045 C972 1.194 . S
C2050 C1131 1.188 . S
C2055 C1006 1.197 . S
C2060 C1165 1.190 . S
C2065 C859 1.191 . S
C2070 C1040 1.195 . S
C2075 C893 1.190 . S
C2080 C1074 1.197 . S
C2085 C1108 1.195 . S
C2090 C825 1.191 . S
C2095 C1142 1.196 . S
C2100 C995 1.189 . S
C2105 C1176 1.197 . S
C2110 C927 1.192 . S
C2115 C1210 1.196 . S
C2120 C961 1.192 . S
