# Generated by pormake.
# Topology mmt, (4)-cn, num edge types: 1
# Building blocks:
#     Node 0, Type 0, BuildingBlock: QUQFOY_clean_sbu_1, # of connection points: 4
#     Node 1, Type 0, BuildingBlock: QUQFOY_clean_sbu_1, # of connection points: 4
#     Node 2, Type 0, BuildingBlock: QUQFOY_clean_sbu_1, # of connection points: 4
#     Node 3, Type 0, BuildingBlock: QUQFOY_clean_sbu_1, # of connection points: 4
#     Node 4, Type 0, BuildingBlock: QUQFOY_clean_sbu_1, # of connection points: 4
#     Node 5, Type 0, BuildingBlock: QUQFOY_clean_sbu_1, # of connection points: 4
#     Node 6, Type 0, BuildingBlock: QUQFOY_clean_sbu_1, # of connection points: 4
#     Node 7, Type 0, BuildingBlock: QUQFOY_clean_sbu_1, # of connection points: 4
#     Edge 8, Type (0, 0), BuildingBlock: KIFKEQ_clean_linker_1, # of connection points: 2
#     Edge 9, Type (0, 0), BuildingBlock: KIFKEQ_clean_linker_1, # of connection points: 2
#     Edge 10, Type (0, 0), BuildingBlock: KIFKEQ_clean_linker_1, # of connection points: 2
#     Edge 11, Type (0, 0), BuildingBlock: KIFKEQ_clean_linker_1, # of connection points: 2
#     Edge 12, Type (0, 0), BuildingBlock: KIFKEQ_clean_linker_1, # of connection points: 2
#     Edge 13, Type (0, 0), BuildingBlock: KIFKEQ_clean_linker_1, # of connection points: 2
#     Edge 14, Type (0, 0), BuildingBlock: KIFKEQ_clean_linker_1, # of connection points: 2
#     Edge 15, Type (0, 0), BuildingBlock: KIFKEQ_clean_linker_1, # of connection points: 2
#     Edge 16, Type (0, 0), BuildingBlock: KIFKEQ_clean_linker_1, # of connection points: 2
#     Edge 17, Type (0, 0), BuildingBlock: KIFKEQ_clean_linker_1, # of connection points: 2
#     Edge 18, Type (0, 0), BuildingBlock: KIFKEQ_clean_linker_1, # of connection points: 2
#     Edge 19, Type (0, 0), BuildingBlock: KIFKEQ_clean_linker_1, # of connection points: 2
#     Edge 20, Type (0, 0), BuildingBlock: KIFKEQ_clean_linker_1, # of connection points: 2
#     Edge 21, Type (0, 0), BuildingBlock: KIFKEQ_clean_linker_1, # of connection points: 2
#     Edge 22, Type (0, 0), BuildingBlock: KIFKEQ_clean_linker_1, # of connection points: 2
#     Edge 23, Type (0, 0), BuildingBlock: KIFKEQ_clean_linker_1, # of connection points: 2
# Relax obj value: 0.022
# Max RMSD: 0.102
# Mean RMSD: 0.102
data_MOF--net-mmt--node1-QUQFOY_clean_sbu_1--edge1-KIFKEQ_clean_linker_1
_symmetry_space_group_name_H-M    P1
_symmetry_Int_Tables_number       1
_symmetry_cell_setting            triclinic
loop_
_symmetry_equiv_pos_as_xyz
'x, y, z'
_cell_length_a     23.687551
_cell_length_b     41.896259
_cell_length_c     45.908943
_cell_angle_alpha  90.294422
_cell_angle_beta   90.044103
_cell_angle_gamma 90.186617
loop_
_atom_site_label
_atom_site_type_symbol
_atom_site_fract_x
_atom_site_fract_y
_atom_site_fract_z
_atom_type_partial_charge
O0 O 0.17093 0.58337 0.33518 0.0
Cd1 Cd 0.10245 0.61101 0.34645 0.0
Cd2 Cd 0.08572 0.55569 0.37925 0.0
O3 O 0.16467 0.54257 0.36522 0.0
O4 O 0.12348 0.65091 0.32573 0.0
O5 O 0.11497 0.64895 0.37351 0.0
C6 C 0.12835 0.66498 0.35058 0.0
C7 C 0.05682 0.54814 0.42733 0.0
C8 C 0.19042 0.55742 0.34516 0.0
C9 C 0.0033 0.57058 0.3307 0.0
O10 O 0.02299 0.55072 0.34886 0.0
O11 O 0.02563 0.59806 0.32796 0.0
O12 O 0.06502 0.52436 0.40996 0.0
O13 O 0.06732 0.57649 0.41772 0.0
O14 O 0.26631 0.96598 0.33337 0.0
Cd15 Cd 0.33243 0.93892 0.34832 0.0
Cd16 Cd 0.34166 0.99586 0.37952 0.0
O17 O 0.2623 1.00653 0.36405 0.0
O18 O 0.31416 0.89837 0.32754 0.0
O19 O 0.31606 0.90176 0.37545 0.0
C20 C 0.30578 0.88505 0.35234 0.0
C21 C 0.36978 1.00662 0.42734 0.0
C22 C 0.24236 0.99124 0.34239 0.0
C23 C 0.42915 0.97985 0.33317 0.0
O24 O 0.40531 1.00035 0.34947 0.0
O25 O 0.41062 0.95136 0.33185 0.0
O26 O 0.36172 0.0292 0.40886 0.0
O27 O 0.35883 0.97771 0.4191 0.0
O28 O 0.65922 0.46106 0.21688 0.0
Cd29 Cd 0.59488 0.43381 0.19985 0.0
Cd30 Cd 0.58133 0.48979 0.16969 0.0
O31 O 0.65944 0.50187 0.18673 0.0
O32 O 0.6112 0.39122 0.21689 0.0
O33 O 0.61384 0.40001 0.16958 0.0
C34 C 0.6211 0.38064 0.19104 0.0
C35 C 0.55747 0.49863 0.12113 0.0
C36 C 0.68079 0.48713 0.2082 0.0
C37 C 0.49278 0.47139 0.21405 0.0
O38 O 0.51401 0.49282 0.19786 0.0
O39 O 0.51598 0.4442 0.21612 0.0
O40 O 0.56429 0.522 0.13918 0.0
O41 O 0.56711 0.47005 0.13034 0.0
O42 O 0.76865 0.08723 0.21438 0.0
Cd43 Cd 0.83489 0.1129 0.19712 0.0
Cd44 Cd 0.8414 0.0563 0.16766 0.0
O45 O 0.76141 0.04726 0.18316 0.0
O46 O 0.82192 0.15588 0.21453 0.0
O47 O 0.81727 0.14699 0.1672 0.0
C48 C 0.81179 0.16654 0.18883 0.0
C49 C 0.86935 0.04454 0.12004 0.0
C50 C 0.74311 0.06238 0.20527 0.0
C51 C 0.92995 0.072 0.2132 0.0
O52 O 0.90436 0.05108 0.198 0.0
O53 O 0.91347 0.10083 0.21309 0.0
O54 O 0.85955 1.0223 0.13868 0.0
O55 O 0.86018 0.07371 0.12799 0.0
O56 O 0.77439 0.46877 0.72013 0.0
Cd57 Cd 0.83167 0.43644 0.70427 0.0
Cd58 Cd 0.85466 0.49176 0.67101 0.0
O59 O 0.78136 0.50921 0.68967 0.0
O60 O 0.80378 0.39707 0.72373 0.0
O61 O 0.80794 0.40145 0.67591 0.0
C62 C 0.79394 0.38491 0.69844 0.0
C63 C 0.87809 0.50431 0.62291 0.0
C64 C 0.75833 0.49603 0.71152 0.0
C65 C 0.94164 0.4675 0.71527 0.0
O66 O 0.92439 0.48878 0.69777 0.0
O67 O 0.9124 0.44258 0.71996 0.0
O68 O 0.87937 0.52549 0.64331 0.0
O69 O 0.86061 0.47601 0.6295 0.0
O70 O 0.65814 0.08633 0.71713 0.0
Cd71 Cd 0.59089 0.11162 0.70099 0.0
Cd72 Cd 0.58687 0.0565 0.66923 0.0
O73 O 0.667 0.04776 0.68472 0.0
O74 O 0.60411 0.153 0.72137 0.0
O75 O 0.60606 0.14858 0.67351 0.0
C76 C 0.61317 0.16602 0.6965 0.0
C77 C 0.56076 0.04988 0.62062 0.0
C78 C 0.68471 0.06231 0.7073 0.0
C79 C 0.49662 0.06805 0.71443 0.0
O80 O 0.52302 0.04821 0.6985 0.0
O81 O 0.51277 0.09699 0.71596 0.0
O82 O 0.57248 0.02574 0.63683 0.0
O83 O 0.56682 0.07814 0.63166 0.0
O84 O 0.26721 0.58463 0.8322 0.0
Cd85 Cd 0.33198 0.61385 0.8464 0.0
Cd86 Cd 0.35059 0.55813 0.87884 0.0
O87 O 0.27437 0.54343 0.86179 0.0
O88 O 0.31166 0.65548 0.82854 0.0
O89 O 0.31371 0.6483 0.87611 0.0
C90 C 0.30343 0.66677 0.85431 0.0
C91 C 0.37662 0.54594 0.92666 0.0
C92 C 0.24925 0.55781 0.84124 0.0
C93 C 0.43661 0.57792 0.83297 0.0
O94 O 0.41724 0.55724 0.85046 0.0
O95 O 0.41134 0.60435 0.82953 0.0
O96 O 0.37305 0.52423 0.90679 0.0
O97 O 0.36239 0.57468 0.91979 0.0
O98 O 0.15551 0.95844 0.83094 0.0
Cd99 Cd 0.0889 0.93399 0.84913 0.0
Cd100 Cd 0.0871 0.98867 0.87972 0.0
O101 O 0.1676 0.99603 0.86409 0.0
O102 O 0.0982 0.89056 0.83203 0.0
O103 O 0.1069 0.90017 0.87913 0.0
C104 C 0.10998 0.88021 0.85766 0.0
C105 C 0.06114 0.99623 0.92822 0.0
C106 C 0.18363 0.98192 0.84098 0.0
C107 C -0.00425 0.97735 0.83531 0.0
O108 O 0.0238 0.99747 0.85027 0.0
O109 O 0.01016 0.94815 0.83489 0.0
O110 O 0.07436 1.02 0.91182 0.0
O111 O 0.0657 0.96776 0.91747 0.0
H112 H 0.21884 0.49424 0.34141 0.0
H113 H 0.2728 0.58849 0.31555 0.0
H114 H 0.29029 0.47066 0.30954 0.0
H115 H 0.34525 0.56519 0.28473 0.0
H116 H 0.41684 0.51892 0.20559 0.0
H117 H 0.34519 0.53773 0.23932 0.0
H118 H 0.38923 0.46266 0.29939 0.0
H119 H 0.45981 0.44306 0.26492 0.0
C120 C 0.24695 0.50989 0.32951 0.0
C121 C 0.23997 0.54317 0.33071 0.0
C122 C 0.28779 0.49641 0.31121 0.0
C123 C 0.32261 0.51602 0.29404 0.0
C124 C 0.3179 0.54934 0.29688 0.0
C125 C 0.27681 0.56274 0.3148 0.0
C126 C 0.41074 0.50617 0.22582 0.0
C127 C 0.44419 0.47968 0.2327 0.0
C128 C 0.37007 0.51714 0.24533 0.0
C129 C 0.36242 0.5022 0.27242 0.0
C130 C 0.39403 0.47473 0.27873 0.0
C131 C 0.43441 0.46348 0.25897 0.0
H132 H 0.00673 0.10907 0.24343 0.0
H133 H 0.95531 1.01129 0.22828 0.0
H134 H 0.08097 0.09046 0.27644 0.0
H135 H 0.02686 0.99307 0.26176 0.0
H136 H 0.19958 0.96685 0.29218 0.0
H137 H 0.12577 0.98817 0.2619 0.0
H138 H 0.09989 0.06509 0.32351 0.0
H139 H 0.17659 0.04416 0.35377 0.0
C140 C 0.01119 0.0837 0.24717 0.0
C141 C -0.02422 0.06164 0.23286 0.0
C142 C 0.05327 0.07307 0.26627 0.0
C143 C 0.06022 0.04024 0.27153 0.0
C144 C 0.02375 1.01844 0.25769 0.0
C145 C -0.01748 0.02895 0.23845 0.0
C146 C 0.17815 0.9882 0.29957 0.0
C147 C 0.19389 1.00367 0.32558 0.0
C148 C 0.13544 1.0004 0.28215 0.0
C149 C 0.10643 0.02819 0.29037 0.0
C150 C 0.12176 0.04375 0.31646 0.0
C151 C 0.16525 0.03161 0.33392 0.0
H152 H 0.71659 0.46951 0.26178 0.0
H153 H 0.75188 0.53654 0.19284 0.0
H154 H 0.79248 0.49196 0.29052 0.0
H155 H 0.8305 0.55848 0.22154 0.0
H156 H 0.93378 0.60744 0.29638 0.0
H157 H 0.85551 0.58878 0.26557 0.0
H158 H 0.89185 0.49151 0.29009 0.0
H159 H -0.03264 0.50998 0.32131 0.0
C160 C 0.74113 0.48882 0.25253 0.0
C161 C 0.72859 0.50095 0.22481 0.0
C162 C 0.78494 0.50167 0.26905 0.0
C163 C 0.81828 0.52672 0.25819 0.0
C164 C 0.80544 0.53928 0.23059 0.0
C165 C 0.76078 0.52657 0.21407 0.0
C166 C 0.92464 0.58212 0.2952 0.0
C167 C 0.95616 0.56026 0.31166 0.0
C168 C 0.88017 0.57141 0.27741 0.0
C169 C 0.8669 0.53867 0.27565 0.0
C170 C 0.89971 0.51695 0.29151 0.0
C171 C 0.94331 0.52759 0.30941 0.0
H172 H 0.70666 0.08387 0.25782 0.0
H173 H 0.67186 1.01217 0.1921 0.0
H174 H 0.63296 0.06211 0.28818 0.0
H175 H 0.59552 0.99093 0.22241 0.0
H176 H 0.50121 0.94329 0.29978 0.0
H177 H 0.57646 0.96245 0.26762 0.0
H178 H 0.53393 0.05977 0.29006 0.0
H179 H 0.46138 0.04087 0.32267 0.0
C180 C 0.68263 0.06371 0.24959 0.0
C181 C 0.69497 0.04993 0.22237 0.0
C182 C 0.64006 0.05125 0.26705 0.0
C183 C 0.60786 0.02492 0.25767 0.0
C184 C 0.61989 1.01106 0.23039 0.0
C185 C 0.66321 1.02341 0.21291 0.0
C186 C 0.50844 0.96873 0.29795 0.0
C187 C 0.47582 0.9905 0.3141 0.0
C188 C 0.55112 0.97973 0.27934 0.0
C189 C 0.56156 1.01266 0.27643 0.0
C190 C 0.52812 0.03425 0.29226 0.0
C191 C 0.48624 1.02334 0.31098 0.0
H192 H 0.49526 0.61526 0.79371 0.0
H193 H 0.49105 0.52113 0.83188 0.0
H194 H 0.57653 0.59921 0.76392 0.0
H195 H 0.56947 0.5051 0.80188 0.0
H196 H 0.74084 0.49025 0.76918 0.0
H197 H 0.66775 0.51441 0.79866 0.0
H198 H 0.60374 0.5636 0.72303 0.0
H199 H 0.67974 0.54019 0.69345 0.0
C200 C 0.51166 0.59128 0.79582 0.0
C201 C 0.48697 0.56962 0.81542 0.0
C202 C 0.55784 0.58203 0.77862 0.0
C203 C 0.57994 0.55099 0.78076 0.0
C204 C 0.55467 0.52945 0.80018 0.0
C205 C 0.50925 0.53867 0.81736 0.0
C206 C 0.71135 0.50631 0.75878 0.0
C207 C 0.71519 0.51284 0.72889 0.0
C208 C 0.66931 0.52013 0.77569 0.0
C209 C 0.629 0.54034 0.76309 0.0
C210 C 0.63419 0.54813 0.73339 0.0
C211 C 0.67734 0.53461 0.71642 0.0
H212 H 0.72455 0.0853 0.75878 0.0
H213 H 0.75365 1.01119 0.69467 0.0
H214 H 0.79783 0.06344 0.78924 0.0
H215 H 0.82951 0.98979 0.72508 0.0
H216 H -0.03176 0.03898 0.82418 0.0
H217 H 0.89679 0.05889 0.79136 0.0
H218 H 0.8457 0.96218 0.77094 0.0
H219 H 0.91951 0.94201 0.80326 0.0
C220 C 0.74723 0.06457 0.7509 0.0
C221 C 0.73327 0.05008 0.72416 0.0
C222 C 0.78959 0.05207 0.76842 0.0
C223 C 0.81987 0.02494 0.75959 0.0
C224 C 0.80654 1.01053 0.73267 0.0
C225 C 0.76352 1.02297 0.71511 0.0
C226 C 0.94168 1.02184 0.81288 0.0
C227 C 0.94934 0.98886 0.81655 0.0
C228 C 0.90049 0.03331 0.79404 0.0
C229 C 0.86516 1.01217 0.77863 0.0
C230 C 0.87264 0.97911 0.78224 0.0
C231 C 0.91449 0.96756 0.80098 0.0
H232 H 0.17408 0.58603 0.8049 0.0
H233 H 0.21716 0.49476 0.84215 0.0
H234 H 0.10297 0.56041 0.77467 0.0
H235 H 0.14639 0.46881 0.81111 0.0
H236 H -0.02981 0.44381 0.76881 0.0
H237 H 0.04491 0.46373 0.80102 0.0
H238 H 0.10362 0.526 0.73259 0.0
H239 H 0.02832 0.50691 0.70095 0.0
C240 C 0.16823 0.56046 0.8067 0.0
C241 C 0.20158 0.5424 0.82576 0.0
C242 C 0.12779 0.5457 0.78915 0.0
C243 C 0.11994 0.51244 0.78996 0.0
C244 C 0.15152 0.49446 0.80994 0.0
C245 C 0.19197 0.50933 0.82773 0.0
C246 C -0.00015 0.46127 0.76052 0.0
C247 C -0.00698 0.47414 0.73252 0.0
C248 C 0.04257 0.47271 0.77897 0.0
C249 C 0.07929 0.49702 0.7696 0.0
C250 C 0.07489 0.508 0.74081 0.0
C251 C 0.03207 0.49686 0.72256 0.0
H252 H 0.25696 0.03074 0.85508 0.0
H253 H 0.21868 0.96141 0.78777 0.0
H254 H 0.33289 0.05237 0.82483 0.0
H255 H 0.29227 0.98357 0.75747 0.0
H256 H 0.42411 0.10295 0.74879 0.0
H257 H 0.34938 0.08242 0.78042 0.0
H258 H 0.39154 0.98611 0.7544 0.0
H259 H 0.46397 1.00645 0.7223 0.0
C260 C 0.26481 1.02007 0.83394 0.0
C261 C 0.23202 0.99419 0.82397 0.0
C262 C 0.30789 0.03265 0.81649 0.0
C263 C 0.31877 1.01967 0.78873 0.0
C264 C 0.28591 0.99379 0.77893 0.0
C265 C 0.24342 0.98112 0.79635 0.0
C266 C 0.41696 0.07743 0.7497 0.0
C267 C 0.44966 0.05639 0.73281 0.0
C268 C 0.37455 0.06565 0.76802 0.0
C269 C 0.36433 0.03261 0.7699 0.0
C270 C 0.3974 1.01171 0.7531 0.0
C271 C 0.43918 1.02343 0.73469 0.0
H272 H 0.00963 0.59217 0.46411 0.0
H273 H 0.04899 0.4919 0.45659 0.0
H274 H 0.96265 0.58224 0.51045 0.0
H275 H 0.00426 0.48208 0.50336 0.0
H276 H 0.87281 0.46762 0.57334 0.0
H277 H 0.91493 0.47915 0.52604 0.0
H278 H -0.02207 0.56908 0.55962 0.0
H279 H 0.93389 0.55812 0.60626 0.0
C280 C 0.00903 0.56809 0.4726 0.0
C281 C 0.03296 0.54283 0.45669 0.0
C282 C -0.01784 0.56236 0.49921 0.0
C283 C -0.02082 0.53127 0.51068 0.0
C284 C 0.00444 0.50619 0.49498 0.0
C285 C 0.03068 0.51187 0.46826 0.0
C286 C 0.89513 0.48998 0.57046 0.0
C287 C 0.89992 0.51194 0.59354 0.0
C288 C 0.91979 0.49651 0.54342 0.0
C289 C 0.95036 0.52498 0.53896 0.0
C290 C 0.95416 0.54713 0.562 0.0
C291 C 0.92903 0.54076 0.58886 0.0
H292 H 0.37974 0.96675 0.47423 0.0
H293 H 0.41739 0.0625 0.44559 0.0
H294 H 0.42613 0.97801 0.52064 0.0
H295 H 0.46594 0.07334 0.49119 0.0
H296 H 0.5039 0.09283 0.58704 0.0
H297 H 0.45517 0.08268 0.54115 0.0
H298 H 0.51597 0.98546 0.54145 0.0
H299 H 0.56237 0.99534 0.58795 0.0
C300 C 0.39792 0.99019 0.47785 0.0
C301 C 0.39469 1.01373 0.45627 0.0
C302 C 0.42508 0.9966 0.50435 0.0
C303 C 0.45034 0.02657 0.50973 0.0
C304 C 0.44638 0.05017 0.48815 0.0
C305 C 0.41864 0.04389 0.46187 0.0
C306 C 0.50727 0.0694 0.57713 0.0
C307 C 0.53692 0.0449 0.59113 0.0
C308 C 0.47937 0.06353 0.55074 0.0
C309 C 0.48109 0.03311 0.53754 0.0
C310 C 0.5124 1.00894 0.55122 0.0
C311 C 0.53962 1.0147 0.57776 0.0
H312 H 0.55386 0.55526 0.0922 0.0
H313 H 0.50915 0.45566 0.08363 0.0
H314 H 0.50988 0.56621 0.0454 0.0
H315 H 0.46272 0.46673 0.03743 0.0
H316 H 0.43036 0.49145 0.9426 0.0
H317 H 0.47642 0.47989 0.98856 0.0
H318 H 0.42127 0.57096 1.02277 0.0
H319 H 0.37737 0.5831 0.97603 0.0
C320 C 0.53464 0.53567 0.08026 0.0
C321 C 0.53513 0.50457 0.09156 0.0
C322 C 0.50879 0.54201 0.05354 0.0
C323 C 0.48205 0.51747 0.03761 0.0
C324 C 0.48344 0.48622 0.04879 0.0
C325 C 0.51002 0.47982 0.07534 0.0
C326 C 0.42771 0.50895 0.95998 0.0
C327 C 0.40017 0.53822 0.95565 0.0
C328 C 0.45402 0.50225 0.98648 0.0
C329 C 0.45289 0.52446 1.00953 0.0
C330 C 0.42412 0.5535 1.00537 0.0
C331 C 0.3984 0.56038 0.97867 0.0
H332 H 0.06546 0.05107 0.96042 0.0
H333 H 0.00136 0.95451 0.96193 0.0
H334 H 0.01886 0.06217 1.00658 0.0
H335 H 0.95244 0.96591 1.00744 0.0
H336 H 0.88262 0.08371 0.07286 0.0
H337 H 0.92923 0.07123 0.02684 0.0
H338 H 0.96259 0.97564 0.05736 0.0
H339 H 0.91379 0.98773 0.10256 0.0
C340 C 0.04144 0.03217 0.97067 0.0
C341 C 0.03722 1.00188 0.95757 0.0
C342 C 0.0141 0.03864 0.99702 0.0
C343 C -0.01885 1.0151 1.01074 0.0
C344 C -0.02209 0.98457 0.99782 0.0
C345 C 0.00592 0.97799 0.97164 0.0
C346 C 0.89942 0.05996 0.06955 0.0
C347 C 0.89431 0.03671 0.09132 0.0
C348 C 0.92672 0.05284 0.04327 0.0
C349 C 0.95024 1.02243 0.03831 0.0
C350 C 0.94439 0.99914 0.06007 0.0
C351 C 0.9165 1.00613 0.08612 0.0
H352 H 0.12854 0.70708 0.397 0.0
H353 H 0.1851 0.69609 0.30813 0.0
H354 H 0.17129 0.76044 0.39878 0.0
H355 H 0.22992 0.74791 0.31029 0.0
H356 H 0.25326 0.85323 0.30859 0.0
H357 H 0.20801 0.80151 0.30981 0.0
H358 H 0.2572 0.79063 0.39994 0.0
H359 H 0.30032 0.84392 0.39902 0.0
C360 C 0.15013 0.71603 0.37791 0.0
C361 C 0.15266 0.69757 0.35229 0.0
C362 C 0.17512 0.74647 0.37899 0.0
C363 C 0.20373 0.75882 0.35458 0.0
C364 C 0.20696 0.73984 0.32927 0.0
C365 C 0.18135 0.70989 0.32805 0.0
C366 C 0.25484 0.83982 0.32868 0.0
C367 C 0.28102 0.85257 0.35362 0.0
C368 C 0.22898 0.80992 0.32937 0.0
C369 C 0.22949 0.79143 0.35485 0.0
C370 C 0.25551 0.80423 0.37997 0.0
C371 C 0.28071 0.83462 0.37941 0.0
H372 H 0.75856 0.1925 0.14123 0.0
H373 H 0.81533 0.21478 0.22845 0.0
H374 H 0.71027 0.24416 0.13903 0.0
H375 H 0.76858 0.26616 0.22603 0.0
H376 H 0.67201 0.35488 0.14245 0.0
H377 H 0.72124 0.30354 0.13909 0.0
H378 H 0.67028 0.28179 0.22712 0.0
H379 H 0.6226 0.33283 0.23065 0.0
C380 C 0.76167 0.20865 0.15967 0.0
C381 C 0.79018 0.19941 0.18515 0.0
C382 C 0.73401 0.2382 0.15841 0.0
C383 C 0.73451 0.25897 0.1826 0.0
C384 C 0.76592 0.25036 0.20732 0.0
C385 C 0.79315 0.22097 0.20862 0.0
C386 C 0.67081 0.33887 0.16089 0.0
C387 C 0.64397 0.34806 0.18693 0.0
C388 C 0.69899 0.3095 0.15897 0.0
C389 C 0.70073 0.28888 0.18306 0.0
C390 C 0.67121 0.29749 0.20845 0.0
C391 C 0.64343 0.32669 0.2104 0.0
H392 H 0.65568 0.20106 0.74113 0.0
H393 H 0.62307 0.20531 0.64868 0.0
H394 H 0.69867 0.25331 0.7397 0.0
H395 H 0.66389 0.25915 0.64739 0.0
H396 H 0.79486 0.34213 0.65264 0.0
H397 H 0.74887 0.28963 0.65065 0.0
H398 H 0.67771 0.30674 0.73603 0.0
H399 H 0.726 0.35766 0.73854 0.0
C400 C 0.65666 0.21348 0.7205 0.0
C401 C 0.63543 0.19908 0.69506 0.0
C402 C 0.68118 0.24372 0.71969 0.0
C403 C 0.68427 0.26093 0.69349 0.0
C404 C 0.66274 0.24659 0.66793 0.0
C405 C 0.63886 0.21586 0.66868 0.0
C406 C 0.76947 0.33443 0.67093 0.0
C407 C 0.76486 0.3537 0.69595 0.0
C408 C 0.74272 0.30448 0.66975 0.0
C409 C 0.71009 0.29353 0.69338 0.0
C410 C 0.70388 0.31366 0.71779 0.0
C411 C 0.73141 0.34307 0.7192 0.0
H412 H 0.2576 0.69371 0.9037 0.0
H413 H 0.29386 0.71284 0.81325 0.0
H414 H 0.20711 0.74461 0.90732 0.0
H415 H 0.24501 0.7635 0.81699 0.0
H416 H 0.10103 0.83101 0.81921 0.0
H417 H 0.1478 0.77957 0.82113 0.0
H418 H 0.21647 0.80353 0.90569 0.0
H419 H 0.16809 0.85513 0.90405 0.0
C420 C 0.25558 0.70898 0.88476 0.0
C421 C 0.27924 0.6991 0.85812 0.0
C422 C 0.22667 0.7381 0.88683 0.0
C423 C 0.22098 0.75783 0.86228 0.0
C424 C 0.24709 0.7485 0.83611 0.0
C425 C 0.27559 0.71952 0.83403 0.0
C426 C 0.12543 0.8252 0.83843 0.0
C427 C 0.13126 0.84728 0.86136 0.0
C428 C 0.1527 0.79578 0.83942 0.0
C429 C 0.18705 0.7877 0.86325 0.0
C430 C 0.19041 0.80902 0.887 0.0
C431 C 0.16267 0.83856 0.88607 0.0
loop_
_geom_bond_atom_site_label_1
_geom_bond_atom_site_label_2
_geom_bond_distance
_geom_bond_site_symmetry_2
_ccdc_geom_bond_type
O0 Cd1 2.223 . S
O0 C8 1.315 . S
Cd1 O0 2.223 . S
Cd1 O4 2.297 . S
Cd1 O5 2.439 . S
Cd1 O11 2.240 . S
Cd2 O3 2.240 . S
Cd2 O10 2.223 . S
Cd2 O12 2.297 . S
Cd2 O13 2.439 . S
O3 Cd2 2.240 . S
O3 C8 1.279 . S
O4 Cd1 2.297 . S
O4 C6 1.247 . S
O5 Cd1 2.439 . S
O5 C6 1.208 . S
C6 O4 1.247 . S
C6 O5 1.208 . S
C7 O12 1.247 . S
C7 O13 1.208 . S
C8 O0 1.315 . S
C8 O3 1.279 . S
C9 O10 1.315 . S
C9 O11 1.279 . S
O10 Cd2 2.223 . S
O10 C9 1.315 . S
O11 Cd1 2.240 . S
O11 C9 1.279 . S
O12 Cd2 2.297 . S
O12 C7 1.247 . S
O13 Cd2 2.439 . S
O13 C7 1.208 . S
O14 Cd15 2.223 . S
O14 C22 1.315 . S
Cd15 O14 2.223 . S
Cd15 O18 2.297 . S
Cd15 O19 2.439 . S
Cd15 O25 2.240 . S
Cd16 O17 2.240 . S
Cd16 O24 2.223 . S
Cd16 O26 2.297 . S
Cd16 O27 2.439 . S
O17 Cd16 2.240 . S
O17 C22 1.279 . S
O18 Cd15 2.297 . S
O18 C20 1.247 . S
O19 Cd15 2.439 . S
O19 C20 1.208 . S
C20 O18 1.247 . S
C20 O19 1.208 . S
C21 O26 1.247 . S
C21 O27 1.208 . S
C22 O14 1.315 . S
C22 O17 1.279 . S
C23 O24 1.315 . S
C23 O25 1.279 . S
O24 Cd16 2.223 . S
O24 C23 1.315 . S
O25 Cd15 2.240 . S
O25 C23 1.279 . S
O26 Cd16 2.297 . S
O26 C21 1.247 . S
O27 Cd16 2.439 . S
O27 C21 1.208 . S
O28 Cd29 2.223 . S
O28 C36 1.315 . S
Cd29 O28 2.223 . S
Cd29 O32 2.297 . S
Cd29 O33 2.439 . S
Cd29 O39 2.240 . S
Cd30 O31 2.240 . S
Cd30 O38 2.223 . S
Cd30 O40 2.297 . S
Cd30 O41 2.439 . S
O31 Cd30 2.240 . S
O31 C36 1.279 . S
O32 Cd29 2.297 . S
O32 C34 1.247 . S
O33 Cd29 2.439 . S
O33 C34 1.208 . S
C34 O32 1.247 . S
C34 O33 1.208 . S
C35 O40 1.247 . S
C35 O41 1.208 . S
C36 O28 1.315 . S
C36 O31 1.279 . S
C37 O38 1.315 . S
C37 O39 1.279 . S
O38 Cd30 2.223 . S
O38 C37 1.315 . S
O39 Cd29 2.240 . S
O39 C37 1.279 . S
O40 Cd30 2.297 . S
O40 C35 1.247 . S
O41 Cd30 2.439 . S
O41 C35 1.208 . S
O42 Cd43 2.223 . S
O42 C50 1.315 . S
Cd43 O42 2.223 . S
Cd43 O46 2.297 . S
Cd43 O47 2.439 . S
Cd43 O53 2.240 . S
Cd44 O45 2.240 . S
Cd44 O52 2.223 . S
Cd44 O54 2.297 . S
Cd44 O55 2.439 . S
O45 Cd44 2.240 . S
O45 C50 1.279 . S
O46 Cd43 2.297 . S
O46 C48 1.247 . S
O47 Cd43 2.439 . S
O47 C48 1.208 . S
C48 O46 1.247 . S
C48 O47 1.208 . S
C49 O54 1.247 . S
C49 O55 1.208 . S
C50 O42 1.315 . S
C50 O45 1.279 . S
C51 O52 1.315 . S
C51 O53 1.279 . S
O52 Cd44 2.223 . S
O52 C51 1.315 . S
O53 Cd43 2.240 . S
O53 C51 1.279 . S
O54 Cd44 2.297 . S
O54 C49 1.247 . S
O55 Cd44 2.439 . S
O55 C49 1.208 . S
O56 Cd57 2.223 . S
O56 C64 1.315 . S
Cd57 O56 2.223 . S
Cd57 O60 2.297 . S
Cd57 O61 2.439 . S
Cd57 O67 2.240 . S
Cd58 O59 2.240 . S
Cd58 O66 2.223 . S
Cd58 O68 2.297 . S
Cd58 O69 2.439 . S
O59 Cd58 2.240 . S
O59 C64 1.279 . S
O60 Cd57 2.297 . S
O60 C62 1.247 . S
O61 Cd57 2.439 . S
O61 C62 1.208 . S
C62 O60 1.247 . S
C62 O61 1.208 . S
C63 O68 1.247 . S
C63 O69 1.208 . S
C64 O56 1.315 . S
C64 O59 1.279 . S
C65 O66 1.315 . S
C65 O67 1.279 . S
O66 Cd58 2.223 . S
O66 C65 1.315 . S
O67 Cd57 2.240 . S
O67 C65 1.279 . S
O68 Cd58 2.297 . S
O68 C63 1.247 . S
O69 Cd58 2.439 . S
O69 C63 1.208 . S
O70 Cd71 2.223 . S
O70 C78 1.315 . S
Cd71 O70 2.223 . S
Cd71 O74 2.297 . S
Cd71 O75 2.439 . S
Cd71 O81 2.240 . S
Cd72 O73 2.240 . S
Cd72 O80 2.223 . S
Cd72 O82 2.297 . S
Cd72 O83 2.439 . S
O73 Cd72 2.240 . S
O73 C78 1.279 . S
O74 Cd71 2.297 . S
O74 C76 1.247 . S
O75 Cd71 2.439 . S
O75 C76 1.208 . S
C76 O74 1.247 . S
C76 O75 1.208 . S
C77 O82 1.247 . S
C77 O83 1.208 . S
C78 O70 1.315 . S
C78 O73 1.279 . S
C79 O80 1.315 . S
C79 O81 1.279 . S
O80 Cd72 2.223 . S
O80 C79 1.315 . S
O81 Cd71 2.240 . S
O81 C79 1.279 . S
O82 Cd72 2.297 . S
O82 C77 1.247 . S
O83 Cd72 2.439 . S
O83 C77 1.208 . S
O84 Cd85 2.223 . S
O84 C92 1.315 . S
Cd85 O84 2.223 . S
Cd85 O88 2.297 . S
Cd85 O89 2.439 . S
Cd85 O95 2.240 . S
Cd86 O87 2.240 . S
Cd86 O94 2.223 . S
Cd86 O96 2.297 . S
Cd86 O97 2.439 . S
O87 Cd86 2.240 . S
O87 C92 1.279 . S
O88 Cd85 2.297 . S
O88 C90 1.247 . S
O89 Cd85 2.439 . S
O89 C90 1.208 . S
C90 O88 1.247 . S
C90 O89 1.208 . S
C91 O96 1.247 . S
C91 O97 1.208 . S
C92 O84 1.315 . S
C92 O87 1.279 . S
C93 O94 1.315 . S
C93 O95 1.279 . S
O94 Cd86 2.223 . S
O94 C93 1.315 . S
O95 Cd85 2.240 . S
O95 C93 1.279 . S
O96 Cd86 2.297 . S
O96 C91 1.247 . S
O97 Cd86 2.439 . S
O97 C91 1.208 . S
O98 Cd99 2.223 . S
O98 C106 1.315 . S
Cd99 O98 2.223 . S
Cd99 O102 2.297 . S
Cd99 O103 2.439 . S
Cd99 O109 2.240 . S
Cd100 O101 2.240 . S
Cd100 O108 2.223 . S
Cd100 O110 2.297 . S
Cd100 O111 2.439 . S
O101 Cd100 2.240 . S
O101 C106 1.279 . S
O102 Cd99 2.297 . S
O102 C104 1.247 . S
O103 Cd99 2.439 . S
O103 C104 1.208 . S
C104 O102 1.247 . S
C104 O103 1.208 . S
C105 O110 1.247 . S
C105 O111 1.208 . S
C106 O98 1.315 . S
C106 O101 1.279 . S
C107 O108 1.315 . S
C107 O109 1.279 . S
O108 Cd100 2.223 . S
O108 C107 1.315 . S
O109 Cd99 2.240 . S
O109 C107 1.279 . S
O110 Cd100 2.297 . S
O110 C105 1.247 . S
O111 Cd100 2.439 . S
O111 C105 1.208 . S
H112 C120 0.950 . S
H113 C125 0.950 . S
H114 C122 0.950 . S
H115 C124 0.950 . S
H116 C126 0.950 . S
H117 C128 0.950 . S
H118 C130 0.950 . S
H119 C131 0.950 . S
C120 H112 0.950 . S
C120 C121 1.386 . S
C120 C122 1.391 . S
C121 C120 1.386 . S
C121 C125 1.393 . S
C122 H114 0.950 . S
C122 C120 1.391 . S
C122 C123 1.400 . S
C123 C122 1.400 . S
C123 C124 1.398 . S
C123 C129 1.491 . S
C124 H115 0.950 . S
C124 C123 1.398 . S
C124 C125 1.391 . S
C125 H113 0.950 . S
C125 C121 1.393 . S
C125 C124 1.391 . S
C126 H116 0.950 . S
C126 C127 1.386 . S
C126 C128 1.391 . S
C127 C126 1.386 . S
C127 C131 1.393 . S
C128 H117 0.950 . S
C128 C126 1.391 . S
C128 C129 1.400 . S
C129 C123 1.491 . S
C129 C128 1.400 . S
C129 C130 1.398 . S
C130 H118 0.950 . S
C130 C129 1.398 . S
C130 C131 1.391 . S
C131 H119 0.950 . S
C131 C127 1.393 . S
C131 C130 1.391 . S
H132 C140 0.950 . S
H133 C145 0.950 1_655 S
H134 C142 0.950 . S
H135 C144 0.950 . S
H136 C146 0.950 . S
H137 C148 0.950 . S
H138 C150 0.950 . S
H139 C151 0.950 1_545 S
C140 H132 0.950 . S
C140 C141 1.386 . S
C140 C142 1.391 . S
C141 C140 1.386 . S
C141 C145 1.393 1_545 S
C142 H134 0.950 . S
C142 C140 1.391 . S
C142 C143 1.400 . S
C143 C142 1.400 . S
C143 C144 1.398 1_545 S
C143 C149 1.491 1_545 S
C144 H135 0.950 . S
C144 C143 1.398 1_565 S
C144 C145 1.391 . S
C145 H133 0.950 1_455 S
C145 C141 1.393 1_565 S
C145 C144 1.391 . S
C146 H136 0.950 . S
C146 C147 1.386 . S
C146 C148 1.391 . S
C147 C146 1.386 . S
C147 C151 1.393 . S
C148 H137 0.950 . S
C148 C146 1.391 . S
C148 C149 1.400 . S
C149 C143 1.491 1_565 S
C149 C148 1.400 . S
C149 C150 1.398 1_565 S
C150 H138 0.950 . S
C150 C149 1.398 1_545 S
C150 C151 1.391 1_545 S
C151 H139 0.950 1_565 S
C151 C147 1.393 . S
C151 C150 1.391 1_565 S
H152 C160 0.950 . S
H153 C165 0.950 . S
H154 C162 0.950 . S
H155 C164 0.950 . S
H156 C166 0.950 . S
H157 C168 0.950 . S
H158 C170 0.950 . S
H159 C171 0.950 . S
C160 H152 0.950 . S
C160 C161 1.386 . S
C160 C162 1.391 . S
C161 C160 1.386 . S
C161 C165 1.393 . S
C162 H154 0.950 . S
C162 C160 1.391 . S
C162 C163 1.400 . S
C163 C162 1.400 . S
C163 C164 1.398 . S
C163 C169 1.491 . S
C164 H155 0.950 . S
C164 C163 1.398 . S
C164 C165 1.391 . S
C165 H153 0.950 . S
C165 C161 1.393 . S
C165 C164 1.391 . S
C166 H156 0.950 . S
C166 C167 1.386 . S
C166 C168 1.391 . S
C167 C166 1.386 . S
C167 C171 1.393 . S
C168 H157 0.950 . S
C168 C166 1.391 . S
C168 C169 1.400 . S
C169 C163 1.491 . S
C169 C168 1.400 . S
C169 C170 1.398 . S
C170 H158 0.950 . S
C170 C169 1.398 . S
C170 C171 1.391 . S
C171 H159 0.950 . S
C171 C167 1.393 . S
C171 C170 1.391 . S
H172 C180 0.950 . S
H173 C185 0.950 1_565 S
H174 C182 0.950 . S
H175 C184 0.950 . S
H176 C186 0.950 . S
H177 C188 0.950 . S
H178 C190 0.950 . S
H179 C191 0.950 . S
C180 H172 0.950 . S
C180 C181 1.386 . S
C180 C182 1.391 . S
C181 C180 1.386 . S
C181 C185 1.393 . S
C182 H174 0.950 . S
C182 C180 1.391 . S
C182 C183 1.400 . S
C183 C182 1.400 . S
C183 C184 1.398 1_545 S
C183 C189 1.480 1_545 S
C184 H175 0.950 . S
C184 C183 1.398 1_565 S
C184 C185 1.391 1_565 S
C185 H173 0.950 1_545 S
C185 C181 1.393 . S
C185 C184 1.391 1_545 S
C186 H176 0.950 . S
C186 C187 1.386 . S
C186 C188 1.391 . S
C187 C186 1.386 . S
C187 C191 1.393 1_565 S
C188 H177 0.950 . S
C188 C186 1.391 . S
C188 C189 1.431 . S
C189 C183 1.480 1_565 S
C189 C188 1.431 . S
C189 C190 1.379 1_565 S
C190 H178 0.950 . S
C190 C189 1.379 1_545 S
C190 C191 1.391 . S
C191 H179 0.950 . S
C191 C187 1.393 1_545 S
C191 C190 1.391 . S
H192 C200 0.950 . S
H193 C205 0.950 . S
H194 C202 0.950 . S
H195 C204 0.950 . S
H196 C206 0.950 . S
H197 C208 0.950 . S
H198 C210 0.950 . S
H199 C211 0.950 . S
C200 H192 0.950 . S
C200 C201 1.386 . S
C200 C202 1.391 . S
C201 C200 1.386 . S
C201 C205 1.393 . S
C202 H194 0.950 . S
C202 C200 1.391 . S
C202 C203 1.400 . S
C203 C202 1.400 . S
C203 C204 1.398 . S
C203 C209 1.491 . S
C204 H195 0.950 . S
C204 C203 1.398 . S
C204 C205 1.391 . S
C205 H193 0.950 . S
C205 C201 1.393 . S
C205 C204 1.391 . S
C206 H196 0.950 . S
C206 C207 1.386 . S
C206 C208 1.391 . S
C207 C206 1.386 . S
C207 C211 1.393 . S
C208 H197 0.950 . S
C208 C206 1.391 . S
C208 C209 1.400 . S
C209 C203 1.491 . S
C209 C208 1.400 . S
C209 C210 1.398 . S
C210 H198 0.950 . S
C210 C209 1.398 . S
C210 C211 1.391 . S
C211 H199 0.950 . S
C211 C207 1.393 . S
C211 C210 1.391 . S
H212 C220 0.950 . S
H213 C225 0.950 . S
H214 C222 0.950 1_565 S
H215 C224 0.950 . S
H216 C226 0.950 . S
H217 C228 0.950 . S
H218 C230 0.950 . S
H219 C231 0.950 . S
C220 H212 0.950 . S
C220 C221 1.386 . S
C220 C222 1.391 . S
C221 C220 1.386 . S
C221 C225 1.393 . S
C222 H214 0.950 1_545 S
C222 C220 1.391 . S
C222 C223 1.400 . S
C223 C222 1.400 . S
C223 C224 1.398 . S
C223 C229 1.485 1_545 S
C224 H215 0.950 . S
C224 C223 1.398 . S
C224 C225 1.391 . S
C225 H213 0.950 . S
C225 C221 1.393 . S
C225 C224 1.391 . S
C226 H216 0.950 . S
C226 C227 1.386 1_455 S
C226 C228 1.391 1_465 S
C227 C226 1.386 1_655 S
C227 C231 1.393 . S
C228 H217 0.950 . S
C228 C226 1.391 1_645 S
C228 C229 1.399 1_545 S
C229 C223 1.485 1_565 S
C229 C228 1.399 1_565 S
C229 C230 1.405 . S
C230 H218 0.950 . S
C230 C229 1.405 . S
C230 C231 1.391 . S
C231 H219 0.950 . S
C231 C227 1.393 . S
C231 C230 1.391 . S
H232 C240 0.950 . S
H233 C245 0.950 . S
H234 C242 0.950 . S
H235 C244 0.950 . S
H236 C246 0.950 . S
H237 C248 0.950 . S
H238 C250 0.950 . S
H239 C251 0.950 . S
C240 H232 0.950 . S
C240 C241 1.386 . S
C240 C242 1.391 . S
C241 C240 1.386 . S
C241 C245 1.393 . S
C242 H234 0.950 . S
C242 C240 1.391 . S
C242 C243 1.400 . S
C243 C242 1.400 . S
C243 C244 1.398 . S
C243 C249 1.491 . S
C244 H235 0.950 . S
C244 C243 1.398 . S
C244 C245 1.391 . S
C245 H233 0.950 . S
C245 C241 1.393 . S
C245 C244 1.391 . S
C246 H236 0.950 . S
C246 C247 1.386 1_655 S
C246 C248 1.391 1_655 S
C247 C246 1.386 1_455 S
C247 C251 1.393 . S
C248 H237 0.950 . S
C248 C246 1.391 1_455 S
C248 C249 1.400 . S
C249 C243 1.491 . S
C249 C248 1.400 . S
C249 C250 1.398 . S
C250 H238 0.950 . S
C250 C249 1.398 . S
C250 C251 1.391 . S
C251 H239 0.950 . S
C251 C247 1.393 . S
C251 C250 1.391 . S
H252 C260 0.950 . S
H253 C265 0.950 . S
H254 C262 0.950 . S
H255 C264 0.950 1_545 S
H256 C266 0.950 . S
H257 C268 0.950 . S
H258 C270 0.950 . S
H259 C271 0.950 . S
C260 H252 0.950 . S
C260 C261 1.386 . S
C260 C262 1.391 . S
C261 C260 1.386 . S
C261 C265 1.393 . S
C262 H254 0.950 . S
C262 C260 1.391 . S
C262 C263 1.400 . S
C263 C262 1.400 . S
C263 C264 1.398 . S
C263 C269 1.491 1_565 S
C264 H255 0.950 1_565 S
C264 C263 1.398 . S
C264 C265 1.391 . S
C265 H253 0.950 . S
C265 C261 1.393 . S
C265 C264 1.391 . S
C266 H256 0.950 . S
C266 C267 1.386 . S
C266 C268 1.391 . S
C267 C266 1.386 . S
C267 C271 1.393 . S
C268 H257 0.950 . S
C268 C266 1.391 . S
C268 C269 1.400 . S
C269 C263 1.491 1_545 S
C269 C268 1.400 . S
C269 C270 1.398 1_545 S
C270 H258 0.950 . S
C270 C269 1.398 1_565 S
C270 C271 1.391 1_565 S
C271 H259 0.950 . S
C271 C267 1.393 . S
C271 C270 1.391 1_545 S
H272 C280 0.950 . S
H273 C285 0.950 . S
H274 C282 0.950 . S
H275 C284 0.950 . S
H276 C286 0.950 . S
H277 C288 0.950 . S
H278 C290 0.950 . S
H279 C291 0.950 . S
C280 H272 0.950 . S
C280 C281 1.386 . S
C280 C282 1.391 . S
C281 C280 1.386 . S
C281 C285 1.393 1_455 S
C282 H274 0.950 . S
C282 C280 1.391 . S
C282 C283 1.400 . S
C283 C282 1.400 . S
C283 C284 1.398 1_455 S
C283 C289 1.491 1_455 S
C284 H275 0.950 . S
C284 C283 1.398 1_655 S
C284 C285 1.391 . S
C285 H273 0.950 . S
C285 C281 1.393 1_655 S
C285 C284 1.391 . S
C286 H276 0.950 . S
C286 C287 1.386 . S
C286 C288 1.391 . S
C287 C286 1.386 . S
C287 C291 1.393 1_655 S
C288 H277 0.950 . S
C288 C286 1.391 . S
C288 C289 1.400 . S
C289 C283 1.491 1_655 S
C289 C288 1.400 . S
C289 C290 1.398 1_655 S
C290 H278 0.950 . S
C290 C289 1.398 1_455 S
C290 C291 1.391 . S
C291 H279 0.950 . S
C291 C287 1.393 1_455 S
C291 C290 1.391 . S
H292 C300 0.950 . S
H293 C305 0.951 . S
H294 C302 0.950 . S
H295 C304 0.950 . S
H296 C306 0.950 . S
H297 C308 0.950 . S
H298 C310 0.950 . S
H299 C311 0.951 . S
C300 H292 0.950 . S
C300 C301 1.386 . S
C300 C302 1.391 . S
C301 C300 1.386 . S
C301 C305 1.390 1_565 S
C302 H294 0.950 . S
C302 C300 1.391 . S
C302 C303 1.400 . S
C303 C302 1.400 . S
C303 C304 1.398 1_565 S
C303 C309 1.491 1_565 S
C304 H295 0.950 . S
C304 C303 1.398 1_545 S
C304 C305 1.392 . S
C305 H293 0.951 . S
C305 C301 1.390 1_545 S
C305 C304 1.392 . S
C306 H296 0.950 . S
C306 C307 1.386 . S
C306 C308 1.391 . S
C307 C306 1.386 . S
C307 C311 1.390 1_545 S
C308 H297 0.950 . S
C308 C306 1.391 . S
C308 C309 1.400 . S
C309 C303 1.491 1_545 S
C309 C308 1.400 . S
C309 C310 1.398 1_545 S
C310 H298 0.950 . S
C310 C309 1.398 1_565 S
C310 C311 1.392 . S
C311 H299 0.951 . S
C311 C307 1.390 1_565 S
C311 C310 1.392 . S
H312 C320 0.950 . S
H313 C325 0.950 . S
H314 C322 0.950 . S
H315 C324 0.950 . S
H316 C326 0.950 . S
H317 C328 0.950 . S
H318 C330 0.950 . S
H319 C331 0.950 . S
C320 H312 0.950 . S
C320 C321 1.386 . S
C320 C322 1.391 . S
C321 C320 1.386 . S
C321 C325 1.393 . S
C322 H314 0.950 . S
C322 C320 1.391 . S
C322 C323 1.400 . S
C323 C322 1.400 . S
C323 C324 1.398 . S
C323 C329 1.491 1_554 S
C324 H315 0.950 . S
C324 C323 1.398 . S
C324 C325 1.391 . S
C325 H313 0.950 . S
C325 C321 1.393 . S
C325 C324 1.391 . S
C326 H316 0.950 . S
C326 C327 1.386 . S
C326 C328 1.391 . S
C327 C326 1.386 . S
C327 C331 1.393 . S
C328 H317 0.950 . S
C328 C326 1.391 . S
C328 C329 1.400 . S
C329 C323 1.491 1_556 S
C329 C328 1.400 . S
C329 C330 1.398 . S
C330 H318 0.950 . S
C330 C329 1.398 . S
C330 C331 1.391 . S
C331 H319 0.950 . S
C331 C327 1.393 . S
C331 C330 1.391 . S
H332 C340 0.950 . S
H333 C345 0.950 . S
H334 C342 0.950 . S
H335 C344 0.950 . S
H336 C346 0.950 . S
H337 C348 0.950 . S
H338 C350 0.950 . S
H339 C351 0.950 . S
C340 H332 0.950 . S
C340 C341 1.386 . S
C340 C342 1.391 . S
C341 C340 1.386 . S
C341 C345 1.393 1_455 S
C342 H334 0.950 . S
C342 C340 1.391 . S
C342 C343 1.400 . S
C343 C342 1.400 . S
C343 C344 1.398 1_455 S
C343 C349 1.491 1_466 S
C344 H335 0.950 . S
C344 C343 1.398 1_655 S
C344 C345 1.391 . S
C345 H333 0.950 . S
C345 C341 1.393 1_655 S
C345 C344 1.391 . S
C346 H336 0.950 . S
C346 C347 1.386 . S
C346 C348 1.391 . S
C347 C346 1.386 . S
C347 C351 1.393 1_655 S
C348 H337 0.950 . S
C348 C346 1.391 . S
C348 C349 1.400 . S
C349 C343 1.491 1_644 S
C349 C348 1.400 . S
C349 C350 1.398 1_655 S
C350 H338 0.950 . S
C350 C349 1.398 1_455 S
C350 C351 1.391 . S
C351 H339 0.950 . S
C351 C347 1.393 1_455 S
C351 C350 1.391 . S
H352 C360 0.950 . S
H353 C365 0.950 . S
H354 C362 0.950 . S
H355 C364 0.950 . S
H356 C366 0.950 . S
H357 C368 0.950 . S
H358 C370 0.950 . S
H359 C371 0.950 . S
C360 H352 0.950 . S
C360 C361 1.386 . S
C360 C362 1.391 . S
C361 C360 1.386 . S
C361 C365 1.393 . S
C362 H354 0.950 . S
C362 C360 1.391 . S
C362 C363 1.400 . S
C363 C362 1.400 . S
C363 C364 1.398 . S
C363 C369 1.491 . S
C364 H355 0.950 . S
C364 C363 1.398 . S
C364 C365 1.391 . S
C365 H353 0.950 . S
C365 C361 1.393 . S
C365 C364 1.391 . S
C366 H356 0.950 . S
C366 C367 1.386 . S
C366 C368 1.391 . S
C367 C366 1.386 . S
C367 C371 1.393 . S
C368 H357 0.950 . S
C368 C366 1.391 . S
C368 C369 1.400 . S
C369 C363 1.491 . S
C369 C368 1.400 . S
C369 C370 1.398 . S
C370 H358 0.950 . S
C370 C369 1.398 . S
C370 C371 1.391 . S
C371 H359 0.950 . S
C371 C367 1.393 . S
C371 C370 1.391 . S
H372 C380 0.950 . S
H373 C385 0.950 . S
H374 C382 0.950 . S
H375 C384 0.950 . S
H376 C386 0.950 . S
H377 C388 0.950 . S
H378 C390 0.950 . S
H379 C391 0.950 . S
C380 H372 0.950 . S
C380 C381 1.386 . S
C380 C382 1.391 . S
C381 C380 1.386 . S
C381 C385 1.393 . S
C382 H374 0.950 . S
C382 C380 1.391 . S
C382 C383 1.400 . S
C383 C382 1.400 . S
C383 C384 1.398 . S
C383 C389 1.491 . S
C384 H375 0.950 . S
C384 C383 1.398 . S
C384 C385 1.391 . S
C385 H373 0.950 . S
C385 C381 1.393 . S
C385 C384 1.391 . S
C386 H376 0.950 . S
C386 C387 1.386 . S
C386 C388 1.391 . S
C387 C386 1.386 . S
C387 C391 1.393 . S
C388 H377 0.950 . S
C388 C386 1.391 . S
C388 C389 1.400 . S
C389 C383 1.491 . S
C389 C388 1.400 . S
C389 C390 1.398 . S
C390 H378 0.950 . S
C390 C389 1.398 . S
C390 C391 1.391 . S
C391 H379 0.950 . S
C391 C387 1.393 . S
C391 C390 1.391 . S
H392 C400 0.950 . S
H393 C405 0.950 . S
H394 C402 0.950 . S
H395 C404 0.950 . S
H396 C406 0.950 . S
H397 C408 0.950 . S
H398 C410 0.950 . S
H399 C411 0.950 . S
C400 H392 0.950 . S
C400 C401 1.386 . S
C400 C402 1.391 . S
C401 C400 1.386 . S
C401 C405 1.393 . S
C402 H394 0.950 . S
C402 C400 1.391 . S
C402 C403 1.400 . S
C403 C402 1.400 . S
C403 C404 1.398 . S
C403 C409 1.491 . S
C404 H395 0.950 . S
C404 C403 1.398 . S
C404 C405 1.391 . S
C405 H393 0.950 . S
C405 C401 1.393 . S
C405 C404 1.391 . S
C406 H396 0.950 . S
C406 C407 1.386 . S
C406 C408 1.391 . S
C407 C406 1.386 . S
C407 C411 1.393 . S
C408 H397 0.950 . S
C408 C406 1.391 . S
C408 C409 1.400 . S
C409 C403 1.491 . S
C409 C408 1.400 . S
C409 C410 1.398 . S
C410 H398 0.950 . S
C410 C409 1.398 . S
C410 C411 1.391 . S
C411 H399 0.950 . S
C411 C407 1.393 . S
C411 C410 1.391 . S
H412 C420 0.950 . S
H413 C425 0.950 . S
H414 C422 0.950 . S
H415 C424 0.950 . S
H416 C426 0.950 . S
H417 C428 0.950 . S
H418 C430 0.950 . S
H419 C431 0.950 . S
C420 H412 0.950 . S
C420 C421 1.386 . S
C420 C422 1.391 . S
C421 C420 1.386 . S
C421 C425 1.393 . S
C422 H414 0.950 . S
C422 C420 1.391 . S
C422 C423 1.400 . S
C423 C422 1.400 . S
C423 C424 1.398 . S
C423 C429 1.491 . S
C424 H415 0.950 . S
C424 C423 1.398 . S
C424 C425 1.391 . S
C425 H413 0.950 . S
C425 C421 1.393 . S
C425 C424 1.391 . S
C426 H416 0.950 . S
C426 C427 1.386 . S
C426 C428 1.391 . S
C427 C426 1.386 . S
C427 C431 1.393 . S
C428 H417 0.950 . S
C428 C426 1.391 . S
C428 C429 1.400 . S
C429 C423 1.491 . S
C429 C428 1.400 . S
C429 C430 1.398 . S
C430 H418 0.950 . S
C430 C429 1.398 . S
C430 C431 1.391 . S
C431 H419 0.950 . S
C431 C427 1.393 . S
C431 C430 1.391 . S
C121 C8 1.684 . S
C127 C37 1.681 . S
C141 C51 1.688 1_455 S
C147 C22 1.677 . S
C161 C36 1.679 . S
C167 C9 1.682 1_655 S
C181 C50 1.682 . S
C187 C23 1.679 . S
C201 C93 1.687 . S
C207 C64 1.674 . S
C221 C78 1.685 . S
C227 C107 1.678 1_655 S
C241 C92 1.685 . S
C247 C65 1.679 1_455 S
C261 C106 1.673 . S
C267 C79 1.690 . S
C281 C7 1.501 . S
C287 C63 1.501 . S
C301 C21 1.490 . S
C307 C77 1.490 . S
C321 C35 1.497 . S
C327 C91 1.497 . S
C341 C105 1.479 . S
C347 C49 1.479 . S
C361 C6 1.485 . S
C367 C20 1.503 . S
C381 C48 1.482 . S
C387 C34 1.501 . S
C401 C76 1.502 . S
C407 C62 1.494 . S
C421 C90 1.481 . S
C427 C104 1.493 . S
