# Generated by pormake.
# Topology wir, (6)-cn, num edge types: 1
# Building blocks:
#     Node 0, Type 0, BuildingBlock: MIDCAF_clean_sbu_0, # of connection points: 6
#     Node 1, Type 0, BuildingBlock: MIDCAF_clean_sbu_0, # of connection points: 6
#     Node 2, Type 0, BuildingBlock: MIDCAF_clean_sbu_0, # of connection points: 6
#     Node 3, Type 0, BuildingBlock: MIDCAF_clean_sbu_0, # of connection points: 6
#     Node 4, Type 0, BuildingBlock: MIDCAF_clean_sbu_0, # of connection points: 6
#     Node 5, Type 0, BuildingBlock: MIDCAF_clean_sbu_0, # of connection points: 6
#     Node 6, Type 0, BuildingBlock: MIDCAF_clean_sbu_0, # of connection points: 6
#     Node 7, Type 0, BuildingBlock: MIDCAF_clean_sbu_0, # of connection points: 6
#     Node 8, Type 0, BuildingBlock: MIDCAF_clean_sbu_0, # of connection points: 6
#     Node 9, Type 0, BuildingBlock: MIDCAF_clean_sbu_0, # of connection points: 6
#     Node 10, Type 0, BuildingBlock: MIDCAF_clean_sbu_0, # of connection points: 6
#     Node 11, Type 0, BuildingBlock: MIDCAF_clean_sbu_0, # of connection points: 6
#     Node 12, Type 0, BuildingBlock: MIDCAF_clean_sbu_0, # of connection points: 6
#     Node 13, Type 0, BuildingBlock: MIDCAF_clean_sbu_0, # of connection points: 6
#     Node 14, Type 0, BuildingBlock: MIDCAF_clean_sbu_0, # of connection points: 6
#     Node 15, Type 0, BuildingBlock: MIDCAF_clean_sbu_0, # of connection points: 6
#     Node 16, Type 0, BuildingBlock: MIDCAF_clean_sbu_0, # of connection points: 6
#     Node 17, Type 0, BuildingBlock: MIDCAF_clean_sbu_0, # of connection points: 6
#     Node 18, Type 0, BuildingBlock: MIDCAF_clean_sbu_0, # of connection points: 6
#     Node 19, Type 0, BuildingBlock: MIDCAF_clean_sbu_0, # of connection points: 6
#     Node 20, Type 0, BuildingBlock: MIDCAF_clean_sbu_0, # of connection points: 6
#     Node 21, Type 0, BuildingBlock: MIDCAF_clean_sbu_0, # of connection points: 6
#     Node 22, Type 0, BuildingBlock: MIDCAF_clean_sbu_0, # of connection points: 6
#     Node 23, Type 0, BuildingBlock: MIDCAF_clean_sbu_0, # of connection points: 6
#     Node 24, Type 0, BuildingBlock: MIDCAF_clean_sbu_0, # of connection points: 6
#     Node 25, Type 0, BuildingBlock: MIDCAF_clean_sbu_0, # of connection points: 6
#     Node 26, Type 0, BuildingBlock: MIDCAF_clean_sbu_0, # of connection points: 6
#     Node 27, Type 0, BuildingBlock: MIDCAF_clean_sbu_0, # of connection points: 6
#     Node 28, Type 0, BuildingBlock: MIDCAF_clean_sbu_0, # of connection points: 6
#     Node 29, Type 0, BuildingBlock: MIDCAF_clean_sbu_0, # of connection points: 6
#     Node 30, Type 0, BuildingBlock: MIDCAF_clean_sbu_0, # of connection points: 6
#     Node 31, Type 0, BuildingBlock: MIDCAF_clean_sbu_0, # of connection points: 6
#     Edge 32, Type (0, 0), BuildingBlock: TEMPAE_clean_linker_10, # of connection points: 2
#     Edge 33, Type (0, 0), BuildingBlock: TEMPAE_clean_linker_10, # of connection points: 2
#     Edge 34, Type (0, 0), BuildingBlock: TEMPAE_clean_linker_10, # of connection points: 2
#     Edge 35, Type (0, 0), BuildingBlock: TEMPAE_clean_linker_10, # of connection points: 2
#     Edge 36, Type (0, 0), BuildingBlock: TEMPAE_clean_linker_10, # of connection points: 2
#     Edge 37, Type (0, 0), BuildingBlock: TEMPAE_clean_linker_10, # of connection points: 2
#     Edge 38, Type (0, 0), BuildingBlock: TEMPAE_clean_linker_10, # of connection points: 2
#     Edge 39, Type (0, 0), BuildingBlock: TEMPAE_clean_linker_10, # of connection points: 2
#     Edge 40, Type (0, 0), BuildingBlock: TEMPAE_clean_linker_10, # of connection points: 2
#     Edge 41, Type (0, 0), BuildingBlock: TEMPAE_clean_linker_10, # of connection points: 2
#     Edge 42, Type (0, 0), BuildingBlock: TEMPAE_clean_linker_10, # of connection points: 2
#     Edge 43, Type (0, 0), BuildingBlock: TEMPAE_clean_linker_10, # of connection points: 2
#     Edge 44, Type (0, 0), BuildingBlock: TEMPAE_clean_linker_10, # of connection points: 2
#     Edge 45, Type (0, 0), BuildingBlock: TEMPAE_clean_linker_10, # of connection points: 2
#     Edge 46, Type (0, 0), BuildingBlock: TEMPAE_clean_linker_10, # of connection points: 2
#     Edge 47, Type (0, 0), BuildingBlock: TEMPAE_clean_linker_10, # of connection points: 2
#     Edge 48, Type (0, 0), BuildingBlock: TEMPAE_clean_linker_10, # of connection points: 2
#     Edge 49, Type (0, 0), BuildingBlock: TEMPAE_clean_linker_10, # of connection points: 2
#     Edge 50, Type (0, 0), BuildingBlock: TEMPAE_clean_linker_10, # of connection points: 2
#     Edge 51, Type (0, 0), BuildingBlock: TEMPAE_clean_linker_10, # of connection points: 2
#     Edge 52, Type (0, 0), BuildingBlock: TEMPAE_clean_linker_10, # of connection points: 2
#     Edge 53, Type (0, 0), BuildingBlock: TEMPAE_clean_linker_10, # of connection points: 2
#     Edge 54, Type (0, 0), BuildingBlock: TEMPAE_clean_linker_10, # of connection points: 2
#     Edge 55, Type (0, 0), BuildingBlock: TEMPAE_clean_linker_10, # of connection points: 2
#     Edge 56, Type (0, 0), BuildingBlock: TEMPAE_clean_linker_10, # of connection points: 2
#     Edge 57, Type (0, 0), BuildingBlock: TEMPAE_clean_linker_10, # of connection points: 2
#     Edge 58, Type (0, 0), BuildingBlock: TEMPAE_clean_linker_10, # of connection points: 2
#     Edge 59, Type (0, 0), BuildingBlock: TEMPAE_clean_linker_10, # of connection points: 2
#     Edge 60, Type (0, 0), BuildingBlock: TEMPAE_clean_linker_10, # of connection points: 2
#     Edge 61, Type (0, 0), BuildingBlock: TEMPAE_clean_linker_10, # of connection points: 2
#     Edge 62, Type (0, 0), BuildingBlock: TEMPAE_clean_linker_10, # of connection points: 2
#     Edge 63, Type (0, 0), BuildingBlock: TEMPAE_clean_linker_10, # of connection points: 2
#     Edge 64, Type (0, 0), BuildingBlock: TEMPAE_clean_linker_10, # of connection points: 2
#     Edge 65, Type (0, 0), BuildingBlock: TEMPAE_clean_linker_10, # of connection points: 2
#     Edge 66, Type (0, 0), BuildingBlock: TEMPAE_clean_linker_10, # of connection points: 2
#     Edge 67, Type (0, 0), BuildingBlock: TEMPAE_clean_linker_10, # of connection points: 2
#     Edge 68, Type (0, 0), BuildingBlock: TEMPAE_clean_linker_10, # of connection points: 2
#     Edge 69, Type (0, 0), BuildingBlock: TEMPAE_clean_linker_10, # of connection points: 2
#     Edge 70, Type (0, 0), BuildingBlock: TEMPAE_clean_linker_10, # of connection points: 2
#     Edge 71, Type (0, 0), BuildingBlock: TEMPAE_clean_linker_10, # of connection points: 2
#     Edge 72, Type (0, 0), BuildingBlock: TEMPAE_clean_linker_10, # of connection points: 2
#     Edge 73, Type (0, 0), BuildingBlock: TEMPAE_clean_linker_10, # of connection points: 2
#     Edge 74, Type (0, 0), BuildingBlock: TEMPAE_clean_linker_10, # of connection points: 2
#     Edge 75, Type (0, 0), BuildingBlock: TEMPAE_clean_linker_10, # of connection points: 2
#     Edge 76, Type (0, 0), BuildingBlock: TEMPAE_clean_linker_10, # of connection points: 2
#     Edge 77, Type (0, 0), BuildingBlock: TEMPAE_clean_linker_10, # of connection points: 2
#     Edge 78, Type (0, 0), BuildingBlock: TEMPAE_clean_linker_10, # of connection points: 2
#     Edge 79, Type (0, 0), BuildingBlock: TEMPAE_clean_linker_10, # of connection points: 2
#     Edge 80, Type (0, 0), BuildingBlock: TEMPAE_clean_linker_10, # of connection points: 2
#     Edge 81, Type (0, 0), BuildingBlock: TEMPAE_clean_linker_10, # of connection points: 2
#     Edge 82, Type (0, 0), BuildingBlock: TEMPAE_clean_linker_10, # of connection points: 2
#     Edge 83, Type (0, 0), BuildingBlock: TEMPAE_clean_linker_10, # of connection points: 2
#     Edge 84, Type (0, 0), BuildingBlock: TEMPAE_clean_linker_10, # of connection points: 2
#     Edge 85, Type (0, 0), BuildingBlock: TEMPAE_clean_linker_10, # of connection points: 2
#     Edge 86, Type (0, 0), BuildingBlock: TEMPAE_clean_linker_10, # of connection points: 2
#     Edge 87, Type (0, 0), BuildingBlock: TEMPAE_clean_linker_10, # of connection points: 2
#     Edge 88, Type (0, 0), BuildingBlock: TEMPAE_clean_linker_10, # of connection points: 2
#     Edge 89, Type (0, 0), BuildingBlock: TEMPAE_clean_linker_10, # of connection points: 2
#     Edge 90, Type (0, 0), BuildingBlock: TEMPAE_clean_linker_10, # of connection points: 2
#     Edge 91, Type (0, 0), BuildingBlock: TEMPAE_clean_linker_10, # of connection points: 2
#     Edge 92, Type (0, 0), BuildingBlock: TEMPAE_clean_linker_10, # of connection points: 2
#     Edge 93, Type (0, 0), BuildingBlock: TEMPAE_clean_linker_10, # of connection points: 2
#     Edge 94, Type (0, 0), BuildingBlock: TEMPAE_clean_linker_10, # of connection points: 2
#     Edge 95, Type (0, 0), BuildingBlock: TEMPAE_clean_linker_10, # of connection points: 2
#     Edge 96, Type (0, 0), BuildingBlock: TEMPAE_clean_linker_10, # of connection points: 2
#     Edge 97, Type (0, 0), BuildingBlock: TEMPAE_clean_linker_10, # of connection points: 2
#     Edge 98, Type (0, 0), BuildingBlock: TEMPAE_clean_linker_10, # of connection points: 2
#     Edge 99, Type (0, 0), BuildingBlock: TEMPAE_clean_linker_10, # of connection points: 2
#     Edge 100, Type (0, 0), BuildingBlock: TEMPAE_clean_linker_10, # of connection points: 2
#     Edge 101, Type (0, 0), BuildingBlock: TEMPAE_clean_linker_10, # of connection points: 2
#     Edge 102, Type (0, 0), BuildingBlock: TEMPAE_clean_linker_10, # of connection points: 2
#     Edge 103, Type (0, 0), BuildingBlock: TEMPAE_clean_linker_10, # of connection points: 2
#     Edge 104, Type (0, 0), BuildingBlock: TEMPAE_clean_linker_10, # of connection points: 2
#     Edge 105, Type (0, 0), BuildingBlock: TEMPAE_clean_linker_10, # of connection points: 2
#     Edge 106, Type (0, 0), BuildingBlock: TEMPAE_clean_linker_10, # of connection points: 2
#     Edge 107, Type (0, 0), BuildingBlock: TEMPAE_clean_linker_10, # of connection points: 2
#     Edge 108, Type (0, 0), BuildingBlock: TEMPAE_clean_linker_10, # of connection points: 2
#     Edge 109, Type (0, 0), BuildingBlock: TEMPAE_clean_linker_10, # of connection points: 2
#     Edge 110, Type (0, 0), BuildingBlock: TEMPAE_clean_linker_10, # of connection points: 2
#     Edge 111, Type (0, 0), BuildingBlock: TEMPAE_clean_linker_10, # of connection points: 2
#     Edge 112, Type (0, 0), BuildingBlock: TEMPAE_clean_linker_10, # of connection points: 2
#     Edge 113, Type (0, 0), BuildingBlock: TEMPAE_clean_linker_10, # of connection points: 2
#     Edge 114, Type (0, 0), BuildingBlock: TEMPAE_clean_linker_10, # of connection points: 2
#     Edge 115, Type (0, 0), BuildingBlock: TEMPAE_clean_linker_10, # of connection points: 2
#     Edge 116, Type (0, 0), BuildingBlock: TEMPAE_clean_linker_10, # of connection points: 2
#     Edge 117, Type (0, 0), BuildingBlock: TEMPAE_clean_linker_10, # of connection points: 2
#     Edge 118, Type (0, 0), BuildingBlock: TEMPAE_clean_linker_10, # of connection points: 2
#     Edge 119, Type (0, 0), BuildingBlock: TEMPAE_clean_linker_10, # of connection points: 2
#     Edge 120, Type (0, 0), BuildingBlock: TEMPAE_clean_linker_10, # of connection points: 2
#     Edge 121, Type (0, 0), BuildingBlock: TEMPAE_clean_linker_10, # of connection points: 2
#     Edge 122, Type (0, 0), BuildingBlock: TEMPAE_clean_linker_10, # of connection points: 2
#     Edge 123, Type (0, 0), BuildingBlock: TEMPAE_clean_linker_10, # of connection points: 2
#     Edge 124, Type (0, 0), BuildingBlock: TEMPAE_clean_linker_10, # of connection points: 2
#     Edge 125, Type (0, 0), BuildingBlock: TEMPAE_clean_linker_10, # of connection points: 2
#     Edge 126, Type (0, 0), BuildingBlock: TEMPAE_clean_linker_10, # of connection points: 2
#     Edge 127, Type (0, 0), BuildingBlock: TEMPAE_clean_linker_10, # of connection points: 2
# Relax obj value: 0.320
# Max RMSD: 0.222
# Mean RMSD: 0.222
data_MOF--net-wir--node1-MIDCAF_clean_sbu_0--edge1-TEMPAE_clean_linker_10
_symmetry_space_group_name_H-M    P1
_symmetry_Int_Tables_number       1
_symmetry_cell_setting            triclinic
loop_
_symmetry_equiv_pos_as_xyz
'x, y, z'
_cell_length_a     39.186723
_cell_length_b     39.132889
_cell_length_c     87.184369
_cell_angle_alpha  89.993806
_cell_angle_beta   89.948908
_cell_angle_gamma 90.029499
loop_
_atom_site_label
_atom_site_type_symbol
_atom_site_fract_x
_atom_site_fract_y
_atom_site_fract_z
_atom_type_partial_charge
Zn0 Zn 0.16101 0.07498 0.29892 0.0
Zn1 Zn 0.1934 0.17271 0.29349 0.0
Zn2 Zn 0.16725 0.12757 0.28771 0.0
C3 C 0.15856 0.1663 0.31877 0.0
C4 C 0.12465 0.19181 0.28723 0.0
O5 O 0.16094 0.09801 0.2677 0.0
O6 O 0.17558 0.05121 0.27985 0.0
C7 C 0.21771 0.10133 0.3121 0.0
O8 O 0.14176 0.15 0.30834 0.0
O9 O 0.1888 0.1759 0.31598 0.0
O10 O 0.15368 0.20573 0.28552 0.0
O11 O 0.12374 0.16062 0.29186 0.0
O12 O 0.19383 0.08171 0.31623 0.0
O13 O 0.21462 0.11859 0.29985 0.0
O14 O 0.11544 0.12805 0.29985 0.0
O15 O 0.11165 0.07237 0.30324 0.0
C16 C 0.09774 0.10139 0.30377 0.0
O17 O 0.18398 0.15068 0.26538 0.0
O18 O 0.19156 0.20197 0.27516 0.0
C19 C 0.16867 0.06642 0.26744 0.0
C20 C 0.19288 0.18208 0.26364 0.0
Zn21 Zn 0.06256 0.90021 0.51847 0.0
Zn22 Zn 0.15337 0.90839 0.54731 0.0
Zn23 Zn 0.10186 0.91924 0.53581 0.0
C24 C 0.12593 0.85223 0.55603 0.0
C25 C 0.13486 0.96249 0.56323 0.0
O26 O 0.0709 0.95894 0.52216 0.0
O27 O 0.0771 0.92944 0.5012 0.0
C28 C 0.06664 0.842 0.5288 0.0
O29 O 0.10028 0.87077 0.55122 0.0
O30 O 0.15602 0.86104 0.55298 0.0
O31 O 0.15222 0.93606 0.5656 0.0
O32 O 0.11552 0.96339 0.55134 0.0
O33 O 0.0648 0.85042 0.51488 0.0
O34 O 0.07713 0.86435 0.53873 0.0
O35 O 0.0664 0.8936 0.55054 0.0
O36 O 0.02754 0.91701 0.53604 0.0
C37 C 0.03659 0.90726 0.54936 0.0
O38 O 0.13816 0.91073 0.51717 0.0
O39 O 0.18347 0.92329 0.5307 0.0
C40 C 0.06872 0.95717 0.50744 0.0
C41 C 0.17012 0.91728 0.51783 0.0
Zn42 Zn 0.32095 0.91138 0.79537 0.0
Zn43 Zn 0.30971 0.77288 0.79146 0.0
Zn44 Zn 0.31885 0.85767 0.78357 0.0
C45 C 0.32514 0.82067 0.81275 0.0
C46 C 0.37998 0.79923 0.78453 0.0
O47 O 0.32574 0.89748 0.76602 0.0
O48 O 0.30022 0.93848 0.77861 0.0
C49 C 0.26868 0.88415 0.80956 0.0
O50 O 0.3447 0.83792 0.80379 0.0
O51 O 0.29744 0.81014 0.80704 0.0
O52 O 0.35895 0.77561 0.78096 0.0
O53 O 0.36869 0.82879 0.78903 0.0
O54 O 0.29288 0.90304 0.81389 0.0
O55 O 0.27158 0.86751 0.79698 0.0
O56 O 0.36973 0.86171 0.79548 0.0
O57 O 0.37053 0.91794 0.79771 0.0
C58 C 0.38595 0.88978 0.79864 0.0
O59 O 0.2963 0.82489 0.766 0.0
O60 O 0.32588 0.77826 0.76948 0.0
C61 C 0.31242 0.92735 0.76618 0.0
C62 C 0.30454 0.79489 0.76166 0.0
Zn63 Zn 0.32466 0.08021 0.04549 0.0
Zn64 Zn 0.43673 0.04723 0.03794 0.0
Zn65 Zn 0.38198 0.06843 0.03821 0.0
C66 C 0.42069 0.07113 0.06646 0.0
C67 C 0.44395 0.11851 0.03552 0.0
O68 O 0.36108 0.07467 0.01544 0.0
O69 O 0.30867 0.08204 0.02414 0.0
C70 C 0.3391 0.01735 0.05916 0.0
O71 O 0.40745 0.09289 0.05718 0.0
O72 O 0.43034 0.0425 0.0612 0.0
O73 O 0.45875 0.0926 0.02989 0.0
O74 O 0.4156 0.11376 0.04285 0.0
O75 O 0.31562 0.03933 0.05812 0.0
O76 O 0.36735 0.0226 0.05205 0.0
O77 O 0.38249 0.11945 0.0496 0.0
O78 O 0.32788 0.12517 0.0556 0.0
C79 C 0.35765 0.1373 0.05514 0.0
O80 O 0.39964 0.058 0.01468 0.0
O81 O 0.42641 0.0116 0.02188 0.0
C82 C 0.32934 0.08023 0.01306 0.0
C83 C 0.41625 0.03082 0.01113 0.0
Zn84 Zn 0.16289 0.80835 0.16755 0.0
Zn85 Zn 0.17767 0.90659 0.14436 0.0
Zn86 Zn 0.17129 0.85545 0.15484 0.0
C87 C 0.11528 0.88852 0.13403 0.0
C88 C 0.23203 0.87382 0.13295 0.0
O89 O 0.21994 0.82723 0.16046 0.0
O90 O 0.19655 0.82473 0.18307 0.0
C91 C 0.10048 0.81177 0.16069 0.0
O92 O 0.12734 0.85935 0.13856 0.0
O93 O 0.13154 0.91558 0.1369 0.0
O94 O 0.21144 0.89649 0.12859 0.0
O95 O 0.22422 0.85512 0.14462 0.0
O96 O 0.1141 0.80413 0.17335 0.0
O97 O 0.11795 0.8297 0.15094 0.0
O98 O 0.14508 0.82693 0.13781 0.0
O99 O 0.17617 0.78459 0.14632 0.0
C100 C 0.16039 0.79834 0.13517 0.0
O101 O 0.16065 0.8888 0.17341 0.0
O102 O 0.19263 0.92933 0.16362 0.0
C103 C 0.22289 0.82137 0.17494 0.0
C104 C 0.17623 0.91717 0.17482 0.0
Zn105 Zn 0.48202 0.93345 0.40859 0.0
Zn106 Zn 0.32065 0.89374 0.39341 0.0
Zn107 Zn 0.37964 0.91412 0.40087 0.0
C108 C 0.36572 0.83834 0.39036 0.0
C109 C 0.33412 0.94811 0.37401 0.0
O110 O 0.38322 0.93826 0.42371 0.0
O111 O 0.43163 0.94107 0.41224 0.0
C112 C 0.45151 0.86319 0.40489 0.0
O113 O 0.38691 0.85994 0.39601 0.0
O114 O 0.33534 0.84709 0.38758 0.0
O115 O 0.30976 0.92822 0.37725 0.0
O116 O 0.36269 0.9454 0.38119 0.0
O117 O 0.47707 0.88187 0.40854 0.0
O118 O 0.42094 0.87439 0.40206 0.0
O119 O 0.39703 0.94527 0.38161 0.0
O120 O 0.44013 0.94879 0.39642 0.0
C121 C 0.42931 0.94745 0.3827 0.0
O122 O 0.34945 0.9253 0.42158 0.0
O123 O 0.30187 0.89946 0.4143 0.0
C124 C 0.41495 0.94497 0.4245 0.0
C125 C 0.31898 0.91486 0.42443 0.0
Zn126 Zn 0.33626 0.07745 0.6425 0.0
Zn127 Zn 0.31273 0.19762 0.65478 0.0
Zn128 Zn 0.33201 0.14005 0.64979 0.0
C129 C 0.29472 0.19291 0.62586 0.0
C130 C 0.3859 0.19602 0.65387 0.0
O131 O 0.31897 0.11187 0.67105 0.0
O132 O 0.32272 0.05875 0.66253 0.0
C133 C 0.28626 0.09982 0.62346 0.0
O134 O 0.30439 0.1625 0.6296 0.0
O135 O 0.29412 0.21606 0.63585 0.0
O136 O 0.36087 0.2133 0.65877 0.0
O137 O 0.38078 0.16591 0.64842 0.0
O138 O 0.30304 0.07282 0.62569 0.0
O139 O 0.29362 0.12718 0.63111 0.0
O140 O 0.38655 0.13153 0.64297 0.0
O141 O 0.38515 0.07643 0.63737 0.0
C142 C 0.40161 0.10405 0.63837 0.0
O143 O 0.31327 0.1485 0.67473 0.0
O144 O 0.28194 0.19498 0.67231 0.0
C145 C 0.31713 0.07939 0.67334 0.0
C146 C 0.29278 0.17102 0.68061 0.0
Zn147 Zn 0.16113 0.08292 0.89435 0.0
Zn148 Zn 0.05539 0.04507 0.89707 0.0
Zn149 Zn 0.10746 0.06892 0.90443 0.0
C150 C 0.07688 0.07268 0.87178 0.0
C151 C 0.04352 0.11489 0.9022 0.0
O152 O 0.14255 0.08104 0.92316 0.0
O153 O 0.19068 0.07031 0.91129 0.0
C154 C 0.14518 0.02351 0.88026 0.0
O155 O 0.08855 0.09149 0.88274 0.0
O156 O 0.06846 0.04225 0.87481 0.0
O157 O 0.02664 0.08761 0.90419 0.0
O158 O 0.07512 0.1122 0.89833 0.0
O159 O 0.16127 0.0506 0.87717 0.0
O160 O 0.12397 0.02332 0.89147 0.0
O161 O 0.10677 0.11968 0.89112 0.0
O162 O 0.16163 0.13253 0.89017 0.0
C163 C 0.13113 0.14119 0.88795 0.0
O164 O 0.07422 0.05125 0.92354 0.0
O165 O 0.05727 0.00558 0.91128 0.0
C166 C 0.17494 0.0773 0.92348 0.0
C167 C 0.05885 0.02229 0.92367 0.0
Zn168 Zn 0.82495 0.80094 0.6523 0.0
Zn169 Zn 0.81041 0.91397 0.65771 0.0
Zn170 Zn 0.82493 0.85774 0.65479 0.0
C171 C 0.85906 0.90212 0.63326 0.0
C172 C 0.77131 0.89507 0.63452 0.0
O173 O 0.78231 0.84028 0.66908 0.0
O174 O 0.79999 0.78708 0.67045 0.0
C175 C 0.89172 0.8228 0.65977 0.0
O176 O 0.83814 0.87663 0.63253 0.0
O177 O 0.8554 0.92314 0.64426 0.0
O178 O 0.76529 0.91029 0.64699 0.0
O179 O 0.79876 0.87716 0.63341 0.0
O180 O 0.87515 0.79854 0.65381 0.0
O181 O 0.87666 0.85092 0.66307 0.0
O182 O 0.82535 0.84321 0.62972 0.0
O183 O 0.80512 0.79092 0.6321 0.0
C184 C 0.81523 0.81489 0.62358 0.0
O185 O 0.8601 0.88608 0.67018 0.0
O186 O 0.81234 0.90242 0.68032 0.0
C187 C 0.78036 0.81041 0.67499 0.0
C188 C 0.84434 0.90072 0.6813 0.0
Zn189 Zn 0.98321 0.07423 0.40399 0.0
Zn190 Zn 0.81708 0.08029 0.39747 0.0
Zn191 Zn 0.87722 0.07821 0.4013 0.0
C192 C 0.84076 0.14578 0.39067 0.0
C193 C 0.83565 0.03544 0.37524 0.0
O194 O 0.88832 0.06083 0.42498 0.0
O195 O 0.9372 0.06567 0.41415 0.0
C196 C 0.93932 0.13932 0.39852 0.0
O197 O 0.8699 0.13188 0.39345 0.0
O198 O 0.81385 0.12926 0.3935 0.0
O199 O 0.80917 0.05126 0.37934 0.0
O200 O 0.86407 0.04108 0.38228 0.0
O201 O 0.96745 0.12294 0.39992 0.0
O202 O 0.9091 0.12558 0.39901 0.0
O203 O 0.89812 0.0454 0.38384 0.0
O204 O 0.94279 0.04517 0.3981 0.0
C205 C 0.93055 0.04467 0.38467 0.0
O206 O 0.85276 0.06391 0.4238 0.0
O207 O 0.79855 0.06368 0.41684 0.0
C208 C 0.92072 0.05969 0.42632 0.0
C209 C 0.82093 0.05929 0.42699 0.0
Zn210 Zn 0.65393 0.1986 0.15911 0.0
Zn211 Zn 0.65406 0.07693 0.15063 0.0
Zn212 Zn 0.65626 0.13763 0.15446 0.0
C213 C 0.58907 0.09301 0.14631 0.0
C214 C 0.6996 0.0951 0.1288 0.0
O215 O 0.68062 0.15108 0.17728 0.0
O216 O 0.66331 0.20405 0.18092 0.0
C217 C 0.58983 0.1874 0.15033 0.0
O218 O 0.60315 0.12203 0.14927 0.0
O219 O 0.6065 0.06605 0.14671 0.0
O220 O 0.68345 0.06938 0.13348 0.0
O221 O 0.69307 0.12454 0.13485 0.0
O222 O 0.60862 0.21312 0.15216 0.0
O223 O 0.6025 0.15707 0.15157 0.0
O224 O 0.68398 0.1606 0.13546 0.0
O225 O 0.69053 0.21229 0.14485 0.0
C226 C 0.69349 0.19183 0.13375 0.0
O227 O 0.67181 0.11419 0.17661 0.0
O228 O 0.6723 0.06005 0.16958 0.0
C229 C 0.67968 0.17844 0.18559 0.0
C230 C 0.67608 0.08235 0.17981 0.0
Zn231 Zn 0.54949 0.89973 0.91368 0.0
Zn232 Zn 0.6653 0.90747 0.89557 0.0
Zn233 Zn 0.60248 0.9116 0.90287 0.0
C234 C 0.64211 0.84274 0.89151 0.0
C235 C 0.63799 0.9555 0.87538 0.0
O236 O 0.59262 0.94395 0.92471 0.0
O237 O 0.5376 0.93392 0.92761 0.0
C238 C 0.56113 0.83916 0.91077 0.0
O239 O 0.61571 0.85836 0.89685 0.0
O240 O 0.6697 0.85883 0.88964 0.0
O241 O 0.66591 0.94172 0.87904 0.0
O242 O 0.61027 0.94717 0.88251 0.0
O243 O 0.54721 0.85327 0.92211 0.0
O244 O 0.58104 0.85686 0.90194 0.0
O245 O 0.57602 0.93557 0.88477 0.0
O246 O 0.53034 0.90739 0.89259 0.0
C247 C 0.54544 0.92512 0.88251 0.0
O248 O 0.62781 0.92948 0.92386 0.0
O249 O 0.68106 0.92145 0.91606 0.0
C250 C 0.56352 0.95113 0.93103 0.0
C251 C 0.66018 0.92984 0.92643 0.0
Zn252 Zn 0.82192 0.24773 0.78101 0.0
Zn253 Zn 0.82999 0.06657 0.78993 0.0
Zn254 Zn 0.82701 0.12831 0.78431 0.0
C255 C 0.89363 0.09412 0.7978 0.0
C256 C 0.77578 0.08792 0.80771 0.0
O257 O 0.80835 0.14628 0.76188 0.0
O258 O 0.81631 0.19562 0.77311 0.0
C259 C 0.87599 0.18718 0.78594 0.0
O260 O 0.87985 0.12047 0.79153 0.0
O261 O 0.87666 0.06681 0.79914 0.0
O262 O 0.79011 0.06043 0.80374 0.0
O263 O 0.78665 0.11668 0.8023 0.0
O264 O 0.84681 0.20062 0.7837 0.0
O265 O 0.87657 0.15455 0.78716 0.0
O266 O 0.79632 0.15098 0.80208 0.0
O267 O 0.8068 0.19869 0.79006 0.0
C268 C 0.79837 0.18362 0.80256 0.0
O269 O 0.81685 0.10839 0.76118 0.0
O270 O 0.826 0.05461 0.76782 0.0
C271 C 0.80646 0.17899 0.76125 0.0
C272 C 0.82019 0.07667 0.75757 0.0
Zn273 Zn 0.68872 0.09571 0.54006 0.0
Zn274 Zn 0.54669 0.06782 0.53593 0.0
Zn275 Zn 0.6048 0.07598 0.53351 0.0
C276 C 0.56387 0.03757 0.5605 0.0
C277 C 0.54865 0.13512 0.53712 0.0
O278 O 0.62329 0.05255 0.51213 0.0
O279 O 0.66853 0.07233 0.52296 0.0
C280 C 0.65755 0.04597 0.56074 0.0
O281 O 0.59086 0.05358 0.55613 0.0
O282 O 0.54209 0.02979 0.55048 0.0
O283 O 0.5292 0.11263 0.54263 0.0
O284 O 0.57866 0.12662 0.53242 0.0
O285 O 0.68338 0.06446 0.55782 0.0
O286 O 0.6294 0.04828 0.55304 0.0
O287 O 0.6154 0.13045 0.53603 0.0
O288 O 0.66958 0.14172 0.54254 0.0
C289 C 0.6392 0.1513 0.54014 0.0
O290 O 0.58741 0.04762 0.51226 0.0
O291 O 0.53239 0.05714 0.51526 0.0
C292 C 0.65548 0.05714 0.51184 0.0
C293 C 0.55645 0.04549 0.50729 0.0
Zn294 Zn 0.66306 0.90644 0.29594 0.0
Zn295 Zn 0.68114 0.78213 0.28346 0.0
Zn296 Zn 0.66544 0.85543 0.28668 0.0
C297 C 0.66495 0.81366 0.31291 0.0
C298 C 0.60721 0.79561 0.28687 0.0
O299 O 0.6606 0.88723 0.26619 0.0
O300 O 0.68398 0.93014 0.2785 0.0
C301 C 0.7148 0.88164 0.31156 0.0
O302 O 0.64215 0.83153 0.30597 0.0
O303 O 0.68946 0.80131 0.30514 0.0
O304 O 0.62843 0.77585 0.28018 0.0
O305 O 0.61733 0.82476 0.29231 0.0
O306 O 0.6897 0.90029 0.31493 0.0
O307 O 0.71364 0.86397 0.29923 0.0
O308 O 0.61589 0.85859 0.30006 0.0
O309 O 0.61438 0.91458 0.2984 0.0
C310 C 0.60029 0.8872 0.30258 0.0
O311 O 0.67677 0.8424 0.26329 0.0
O312 O 0.65167 0.79331 0.26454 0.0
C313 C 0.67298 0.91754 0.26614 0.0
C314 C 0.66743 0.81505 0.2566 0.0
Zn315 Zn 0.81948 0.91429 0.05122 0.0
Zn316 Zn 0.95227 0.93375 0.04168 0.0
Zn317 Zn 0.87304 0.91798 0.03898 0.0
C318 C 0.91296 0.91808 0.06649 0.0
C319 C 0.93303 0.85951 0.03978 0.0
O320 O 0.84188 0.91296 0.01863 0.0
O321 O 0.79594 0.9266 0.03174 0.0
C322 C 0.84382 0.97386 0.06183 0.0
O323 O 0.89725 0.89522 0.05861 0.0
O324 O 0.92062 0.94549 0.05966 0.0
O325 O 0.95468 0.88145 0.03498 0.0
O326 O 0.90363 0.86973 0.0449 0.0
O327 O 0.82391 0.95112 0.06688 0.0
O328 O 0.8627 0.96727 0.05025 0.0
O329 O 0.87088 0.86706 0.05149 0.0
O330 O 0.816 0.86581 0.05738 0.0
C331 C 0.84445 0.85089 0.05671 0.0
O332 O 0.89339 0.93152 0.01645 0.0
O333 O 0.94409 0.91067 0.02105 0.0
C334 C 0.81032 0.92133 0.01897 0.0
C335 C 0.92343 0.92428 0.01178 0.0
Zn336 Zn 0.68637 0.68598 0.7872 0.0
Zn337 Zn 0.65795 0.57709 0.79712 0.0
Zn338 Zn 0.66419 0.62884 0.78434 0.0
C339 C 0.59641 0.60498 0.80145 0.0
C340 C 0.71645 0.60169 0.80841 0.0
O341 O 0.67028 0.65313 0.76253 0.0
O342 O 0.71773 0.67832 0.76917 0.0
C343 C 0.61588 0.69517 0.78705 0.0
O344 O 0.61556 0.6304 0.79748 0.0
O345 O 0.60834 0.57513 0.80106 0.0
O346 O 0.69106 0.58605 0.81393 0.0
O347 O 0.71334 0.6175 0.79561 0.0
O348 O 0.64175 0.71263 0.78321 0.0
O349 O 0.62023 0.66334 0.79055 0.0
O350 O 0.64387 0.6505 0.80553 0.0
O351 O 0.69364 0.67462 0.80964 0.0
C352 C 0.66482 0.66522 0.81478 0.0
O353 O 0.65525 0.59079 0.7667 0.0
O354 O 0.67281 0.54709 0.7803 0.0
C355 C 0.6971 0.66947 0.75874 0.0
C356 C 0.6639 0.55935 0.76754 0.0
Zn357 Zn 0.55136 0.42781 0.03319 0.0
Zn358 Zn 0.65767 0.40283 0.03954 0.0
Zn359 Zn 0.60587 0.41007 0.03294 0.0
C360 C 0.63854 0.34134 0.04627 0.0
C361 C 0.64325 0.45539 0.05686 0.0
O362 O 0.58824 0.41848 0.00917 0.0
O363 O 0.55839 0.46293 0.0164 0.0
C364 C 0.54741 0.35624 0.03147 0.0
O365 O 0.61078 0.35932 0.04564 0.0
O366 O 0.66553 0.35375 0.04074 0.0
O367 O 0.65853 0.42749 0.05904 0.0
O368 O 0.62131 0.45699 0.04596 0.0
O369 O 0.53063 0.38128 0.02618 0.0
O370 O 0.57621 0.36268 0.03811 0.0
O371 O 0.5841 0.38379 0.05251 0.0
O372 O 0.55853 0.43304 0.05642 0.0
C373 C 0.56857 0.40449 0.06168 0.0
O374 O 0.63145 0.40569 0.01085 0.0
O375 O 0.67759 0.42597 0.02178 0.0
C376 C 0.57052 0.44491 0.00561 0.0
C377 C 0.66197 0.4172 0.00978 0.0
Zn378 Zn 0.83614 0.42053 0.28707 0.0
Zn379 Zn 0.8279 0.25345 0.28151 0.0
Zn380 Zn 0.83264 0.3603 0.28477 0.0
C381 C 0.8035 0.30923 0.30382 0.0
C382 C 0.89366 0.29611 0.28669 0.0
O383 O 0.81688 0.38393 0.26179 0.0
O384 O 0.82531 0.43858 0.26696 0.0
C385 C 0.7894 0.40576 0.30899 0.0
O386 O 0.80211 0.34173 0.30413 0.0
O387 O 0.80801 0.29657 0.29061 0.0
O388 O 0.87704 0.26823 0.28471 0.0
O389 O 0.88013 0.32663 0.28683 0.0
O390 O 0.80376 0.43178 0.30346 0.0
O391 O 0.79682 0.37585 0.30375 0.0
O392 O 0.8873 0.36609 0.29157 0.0
O393 O 0.88357 0.42195 0.29332 0.0
C394 C 0.90071 0.39505 0.29523 0.0
O395 O 0.81051 0.34836 0.26202 0.0
O396 O 0.8183 0.30137 0.27408 0.0
C397 C 0.81675 0.41567 0.25761 0.0
C398 C 0.80875 0.31585 0.26188 0.0
Zn399 Zn 0.92183 0.58362 0.51697 0.0
Zn400 Zn 0.81814 0.57062 0.54107 0.0
Zn401 Zn 0.87264 0.57277 0.52937 0.0
C402 C 0.84374 0.62939 0.55298 0.0
C403 C 0.8549 0.51202 0.55033 0.0
O404 O 0.90323 0.52594 0.52405 0.0
O405 O 0.90627 0.54918 0.50141 0.0
C406 C 0.91323 0.64544 0.52495 0.0
O407 O 0.87 0.61682 0.5459 0.0
O408 O 0.81526 0.61446 0.5523 0.0
O409 O 0.82883 0.52985 0.55316 0.0
O410 O 0.87636 0.52169 0.54004 0.0
O411 O 0.9227 0.63388 0.51212 0.0
O412 O 0.89649 0.62554 0.5341 0.0
O413 O 0.9014 0.59815 0.54669 0.0
O414 O 0.94526 0.56934 0.53814 0.0
C415 C 0.93007 0.58317 0.54944 0.0
O416 O 0.83994 0.58124 0.50992 0.0
O417 O 0.79302 0.56471 0.52163 0.0
C418 C 0.91068 0.52317 0.50972 0.0
C419 C 0.80839 0.57322 0.50948 0.0
Zn420 Zn 0.66524 0.41848 0.64458 0.0
Zn421 Zn 0.69529 0.27958 0.64623 0.0
Zn422 Zn 0.67609 0.35963 0.64851 0.0
C423 C 0.67257 0.31723 0.62216 0.0
C424 C 0.62178 0.29751 0.6512 0.0
O425 O 0.67651 0.3778 0.67196 0.0
O426 O 0.67937 0.43226 0.66554 0.0
C427 C 0.71855 0.40249 0.62466 0.0
O428 O 0.65047 0.33325 0.63035 0.0
O429 O 0.70154 0.31175 0.62806 0.0
O430 O 0.64543 0.27704 0.65531 0.0
O431 O 0.62927 0.32667 0.64493 0.0
O432 O 0.69638 0.42551 0.62667 0.0
O433 O 0.71746 0.37563 0.633 0.0
O434 O 0.62256 0.36128 0.63944 0.0
O435 O 0.61501 0.41713 0.64111 0.0
C436 C 0.60298 0.38781 0.63847 0.0
O437 O 0.69623 0.33982 0.67057 0.0
O438 O 0.67769 0.28716 0.66801 0.0
C439 C 0.67935 0.4093 0.67572 0.0
C440 C 0.69239 0.30962 0.67605 0.0
Zn441 Zn 0.94475 0.42304 0.90493 0.0
Zn442 Zn 0.82815 0.39852 0.89364 0.0
Zn443 Zn 0.88563 0.40669 0.8994 0.0
C444 C 0.85179 0.33515 0.88966 0.0
C445 C 0.83923 0.4453 0.87275 0.0
O446 O 0.8947 0.42315 0.92431 0.0
O447 O 0.93944 0.45678 0.92159 0.0
C448 C 0.94127 0.35146 0.90342 0.0
O449 O 0.87935 0.3528 0.89124 0.0
O450 O 0.82348 0.34894 0.89253 0.0
O451 O 0.81728 0.42228 0.8748 0.0
O452 O 0.86687 0.4447 0.88093 0.0
O453 O 0.95777 0.37439 0.91047 0.0
O454 O 0.91339 0.35905 0.89645 0.0
O455 O 0.90227 0.43933 0.88075 0.0
O456 O 0.95783 0.43713 0.88403 0.0
C457 C 0.93265 0.44238 0.87536 0.0
O458 O 0.85801 0.41579 0.92117 0.0
O459 O 0.80665 0.41971 0.91116 0.0
C460 C 0.9164 0.44455 0.93008 0.0
C461 C 0.82581 0.42109 0.92269 0.0
Zn462 Zn 0.81545 0.68999 0.1482 0.0
Zn463 Zn 0.8303 0.54333 0.14793 0.0
Zn464 Zn 0.8226 0.63397 0.15235 0.0
C465 C 0.89005 0.58916 0.14163 0.0
C466 C 0.77767 0.5805 0.12957 0.0
O467 O 0.80327 0.65654 0.17487 0.0
O468 O 0.81662 0.70908 0.16857 0.0
C469 C 0.88178 0.68311 0.14166 0.0
O470 O 0.87409 0.61603 0.14646 0.0
O471 O 0.8763 0.55969 0.14092 0.0
O472 O 0.79161 0.5522 0.13322 0.0
O473 O 0.78742 0.60952 0.13522 0.0
O474 O 0.85735 0.70101 0.13675 0.0
O475 O 0.87501 0.65484 0.14863 0.0
O476 O 0.7942 0.64664 0.13104 0.0
O477 O 0.77163 0.69564 0.13724 0.0
C478 C 0.7778 0.67369 0.12704 0.0
O479 O 0.8049 0.6199 0.17606 0.0
O480 O 0.81812 0.5785 0.16176 0.0
C481 C 0.80585 0.68845 0.1785 0.0
C482 C 0.80793 0.58773 0.17462 0.0
Zn483 Zn 0.68772 0.5855 0.39529 0.0
Zn484 Zn 0.54042 0.56707 0.39779 0.0
Zn485 Zn 0.59749 0.57509 0.4005 0.0
C486 C 0.55592 0.52758 0.37812 0.0
C487 C 0.54875 0.63174 0.38938 0.0
O488 O 0.61158 0.55923 0.42377 0.0
O489 O 0.65314 0.5711 0.40916 0.0
C490 C 0.64985 0.53379 0.37654 0.0
O491 O 0.58339 0.54476 0.38017 0.0
O492 O 0.53982 0.51889 0.39 0.0
O493 O 0.53059 0.60726 0.38466 0.0
O494 O 0.5769 0.62534 0.39633 0.0
O495 O 0.67757 0.5498 0.37919 0.0
O496 O 0.62145 0.54058 0.38344 0.0
O497 O 0.61578 0.6266 0.39497 0.0
O498 O 0.67213 0.63328 0.39061 0.0
C499 C 0.64194 0.64512 0.39147 0.0
O500 O 0.57607 0.55967 0.4236 0.0
O501 O 0.52325 0.5741 0.4183 0.0
C502 C 0.64354 0.5632 0.42229 0.0
C503 C 0.54509 0.56503 0.42804 0.0
Zn504 Zn 0.28859 0.30559 0.14709 0.0
Zn505 Zn 0.32753 0.41526 0.14399 0.0
Zn506 Zn 0.31439 0.35868 0.15118 0.0
C507 C 0.38631 0.38179 0.13654 0.0
C508 C 0.26819 0.39566 0.12815 0.0
O509 O 0.30257 0.33652 0.17312 0.0
O510 O 0.25442 0.31726 0.16377 0.0
C511 C 0.35794 0.29183 0.15017 0.0
O512 O 0.36549 0.3571 0.13965 0.0
O513 O 0.37664 0.41231 0.13818 0.0
O514 O 0.29287 0.41637 0.12722 0.0
O515 O 0.26865 0.37244 0.13844 0.0
O516 O 0.33035 0.27641 0.15326 0.0
O517 O 0.35667 0.32337 0.14589 0.0
O518 O 0.33816 0.33771 0.13093 0.0
O519 O 0.28798 0.31741 0.12429 0.0
C520 C 0.31799 0.32629 0.12047 0.0
O521 O 0.32065 0.38026 0.17358 0.0
O522 O 0.31606 0.43287 0.16476 0.0
C523 C 0.27323 0.32299 0.17529 0.0
C524 C 0.31781 0.41234 0.17592 0.0
Zn525 Zn 0.31908 0.566 0.89483 0.0
Zn526 Zn 0.42124 0.57736 0.91874 0.0
Zn527 Zn 0.37601 0.56429 0.90406 0.0
C528 C 0.43857 0.57721 0.88729 0.0
C529 C 0.40965 0.63882 0.90997 0.0
O530 O 0.34933 0.57783 0.92435 0.0
O531 O 0.29838 0.58249 0.91407 0.0
C532 C 0.34281 0.50069 0.88772 0.0
O533 O 0.40843 0.58994 0.88854 0.0
O534 O 0.45199 0.5648 0.89932 0.0
O535 O 0.41503 0.62749 0.92331 0.0
O536 O 0.39782 0.61803 0.8997 0.0
O537 O 0.31532 0.5174 0.8887 0.0
O538 O 0.37069 0.51405 0.89261 0.0
O539 O 0.37556 0.60697 0.88673 0.0
O540 O 0.32237 0.60131 0.8787 0.0
C541 C 0.3504 0.61716 0.87821 0.0
O542 O 0.40712 0.51887 0.91094 0.0
O543 O 0.4076 0.54142 0.93383 0.0
C544 C 0.31789 0.58545 0.92549 0.0
C545 C 0.41278 0.51574 0.9254 0.0
Zn546 Zn 0.1821 0.6896 0.64899 0.0
Zn547 Zn 0.13936 0.57417 0.64645 0.0
Zn548 Zn 0.15572 0.63541 0.64828 0.0
C549 C 0.08212 0.60985 0.63755 0.0
C550 C 0.19473 0.57922 0.62735 0.0
O551 O 0.18029 0.64794 0.67113 0.0
O552 O 0.22024 0.68329 0.66312 0.0
C553 C 0.11122 0.69836 0.65343 0.0
O554 O 0.10062 0.63522 0.64206 0.0
O555 O 0.09394 0.57991 0.63787 0.0
O556 O 0.17578 0.55637 0.63297 0.0
O557 O 0.18968 0.6109 0.63082 0.0
O558 O 0.13937 0.71161 0.65731 0.0
O559 O 0.11093 0.66847 0.64726 0.0
O560 O 0.18288 0.64466 0.62625 0.0
O561 O 0.19247 0.69996 0.62765 0.0
C562 C 0.19081 0.67315 0.61972 0.0
O563 O 0.16789 0.61231 0.67078 0.0
O564 O 0.14208 0.56241 0.66813 0.0
C565 C 0.20691 0.66648 0.67389 0.0
C566 C 0.1581 0.58347 0.67632 0.0
Zn567 Zn 0.05223 0.44219 0.40987 0.0
Zn568 Zn 0.1647 0.40902 0.39867 0.0
Zn569 Zn 0.10643 0.41685 0.40557 0.0
C570 C 0.13394 0.34795 0.39187 0.0
C571 C 0.1522 0.46386 0.38133 0.0
O572 O 0.09767 0.43387 0.43039 0.0
O573 O 0.05799 0.47307 0.4274 0.0
C574 C 0.04477 0.36935 0.40828 0.0
O575 O 0.1092 0.36344 0.39859 0.0
O576 O 0.16164 0.3634 0.38937 0.0
O577 O 0.17775 0.44682 0.38556 0.0
O578 O 0.12251 0.4559 0.38687 0.0
O579 O 0.02978 0.39572 0.41334 0.0
O580 O 0.07559 0.37165 0.40341 0.0
O581 O 0.08789 0.44391 0.38451 0.0
O582 O 0.03607 0.46058 0.39052 0.0
C583 C 0.05737 0.45226 0.38036 0.0
O584 O 0.13393 0.42127 0.42813 0.0
O585 O 0.18456 0.40798 0.41888 0.0
C586 C 0.07804 0.45717 0.43614 0.0
C587 C 0.16553 0.41335 0.43026 0.0
Zn588 Zn 0.30208 0.68723 0.28395 0.0
Zn589 Zn 0.31555 0.58257 0.29565 0.0
Zn590 Zn 0.31922 0.63259 0.2848 0.0
C591 C 0.38094 0.59783 0.30227 0.0
C592 C 0.26099 0.60787 0.30774 0.0
O593 O 0.31654 0.64926 0.2607 0.0
O594 O 0.27059 0.67887 0.26579 0.0
C595 C 0.37309 0.69069 0.28511 0.0
O596 O 0.36836 0.62738 0.29868 0.0
O597 O 0.36253 0.57177 0.30052 0.0
O598 O 0.28388 0.58847 0.3129 0.0
O599 O 0.26728 0.62555 0.29563 0.0
O600 O 0.34921 0.70801 0.27917 0.0
O601 O 0.36595 0.6614 0.29114 0.0
O602 O 0.3415 0.65426 0.3054 0.0
O603 O 0.2937 0.68361 0.30699 0.0
C604 C 0.32071 0.67263 0.31339 0.0
O605 O 0.32791 0.59972 0.26541 0.0
O606 O 0.29929 0.55915 0.277 0.0
C607 C 0.29078 0.66639 0.2559 0.0
C608 C 0.31434 0.57003 0.26515 0.0
Zn609 Zn 0.15598 0.57341 0.04352 0.0
Zn610 Zn 0.05302 0.58067 0.01992 0.0
Zn611 Zn 0.10091 0.56805 0.03367 0.0
C612 C 0.04415 0.57649 0.05276 0.0
C613 C 0.05882 0.64143 0.02861 0.0
O614 O 0.13413 0.57939 0.01482 0.0
O615 O 0.18245 0.56262 0.02516 0.0
C616 C 0.12912 0.51828 0.05867 0.0
O617 O 0.07193 0.59342 0.05057 0.0
O618 O 0.03008 0.56332 0.04101 0.0
O619 O 0.04948 0.6307 0.01564 0.0
O620 O 0.07515 0.62106 0.03767 0.0
O621 O 0.15245 0.54022 0.06001 0.0
O622 O 0.10739 0.52109 0.04773 0.0
O623 O 0.10192 0.61495 0.04902 0.0
O624 O 0.15803 0.62124 0.05011 0.0
C625 C 0.12865 0.63264 0.05296 0.0
O626 O 0.07001 0.52332 0.02511 0.0
O627 O 0.06895 0.54942 0.00313 0.0
C628 C 0.16588 0.57286 0.01366 0.0
C629 C 0.06432 0.52231 0.01062 0.0
Zn630 Zn 0.15401 0.31358 0.76745 0.0
Zn631 Zn 0.15327 0.41232 0.79634 0.0
Zn632 Zn 0.16685 0.3592 0.7835 0.0
C633 C 0.09869 0.37987 0.80533 0.0
C634 C 0.21446 0.39375 0.8091 0.0
O635 O 0.21034 0.32547 0.77502 0.0
O636 O 0.18917 0.32774 0.75199 0.0
C637 C 0.09212 0.32261 0.77414 0.0
O638 O 0.11677 0.35679 0.79816 0.0
O639 O 0.10827 0.41052 0.80553 0.0
O640 O 0.19017 0.41436 0.81098 0.0
O641 O 0.21162 0.37005 0.79896 0.0
O642 O 0.10506 0.31498 0.76134 0.0
O643 O 0.1115 0.33631 0.78454 0.0
O644 O 0.13706 0.32699 0.79768 0.0
O645 O 0.16606 0.28469 0.78782 0.0
C646 C 0.15131 0.29763 0.79943 0.0
O647 O 0.16276 0.3958 0.76464 0.0
O648 O 0.15961 0.44222 0.77872 0.0
C649 C 0.21393 0.32027 0.76054 0.0
C650 C 0.1626 0.42841 0.76574 0.0
Zn651 Zn 0.33467 0.43 0.52996 0.0
Zn652 Zn 0.4399 0.39887 0.53697 0.0
Zn653 Zn 0.38601 0.41018 0.53502 0.0
C654 C 0.42733 0.42014 0.56524 0.0
C655 C 0.41003 0.33823 0.53059 0.0
O656 O 0.35818 0.37973 0.51713 0.0
O657 O 0.34686 0.42991 0.50762 0.0
C658 C 0.34998 0.46534 0.55475 0.0
O659 O 0.39783 0.41004 0.56034 0.0
O660 O 0.451 0.42516 0.55566 0.0
O661 O 0.43267 0.34927 0.53958 0.0
O662 O 0.38866 0.35927 0.52474 0.0
O663 O 0.33882 0.47337 0.54167 0.0
O664 O 0.36481 0.43619 0.55627 0.0
O665 O 0.36434 0.39601 0.55667 0.0
O666 O 0.32131 0.38398 0.54151 0.0
C667 C 0.33854 0.3768 0.55343 0.0
O668 O 0.40919 0.45182 0.52301 0.0
O669 O 0.45043 0.41724 0.51619 0.0
C670 C 0.34666 0.39793 0.50597 0.0
C671 C 0.43423 0.44473 0.51424 0.0
C672 C 0.13921 0.2212 0.32802 0.0
C673 C 0.14068 0.18597 0.33043 0.0
C674 C 0.13235 0.24351 0.34003 0.0
C675 C 0.12626 0.22997 0.35482 0.0
C676 C 0.12447 0.19412 0.35705 0.0
C677 C 0.13228 0.17224 0.34473 0.0
C678 C 0.13515 0.28154 0.33708 0.0
C679 C 0.11669 0.17908 0.37258 0.0
C680 C 0.15866 0.29266 0.38385 0.0
C681 C 0.12985 0.3134 0.38569 0.0
C682 C 0.15719 0.2631 0.37488 0.0
C683 C 0.12588 0.25386 0.36793 0.0
C684 C 0.09615 0.27307 0.37095 0.0
C685 C 0.09859 0.30313 0.37955 0.0
C686 C 0.18995 0.24434 0.37136 0.0
C687 C 0.06251 0.2637 0.36384 0.0
H688 H 0.1466 0.23147 0.31697 0.0
H689 H 0.13379 0.14486 0.34649 0.0
H690 H 0.11199 0.29501 0.34114 0.0
H691 H 0.15723 0.29208 0.3435 0.0
H692 H 0.13866 0.28753 0.32472 0.0
H693 H 0.11003 0.15154 0.37179 0.0
H694 H 0.13934 0.18173 0.38011 0.0
H695 H 0.0953 0.193 0.37812 0.0
H696 H 0.18295 0.30081 0.38857 0.0
H697 H 0.07661 0.31978 0.38048 0.0
H698 H 0.198 0.25032 0.35944 0.0
H699 H 0.1862 0.21632 0.37211 0.0
H700 H 0.21093 0.25181 0.37924 0.0
H701 H 0.06252 0.27039 0.35149 0.0
H702 H 0.04122 0.27759 0.36944 0.0
H703 H 0.05835 0.23573 0.36474 0.0
C704 C 0.97774 0.91395 0.56021 0.0
C705 C 0.01251 0.90744 0.56251 0.0
C706 C 0.95472 0.91424 0.57257 0.0
C707 C 0.96675 0.90857 0.58768 0.0
C708 C 0.00195 0.90235 0.59012 0.0
C709 C 0.02435 0.90155 0.57749 0.0
C710 C 0.91728 0.91988 0.56941 0.0
C711 C 0.01579 0.89546 0.60598 0.0
C712 C 0.90477 0.9354 0.61929 0.0
C713 C 0.88779 0.90455 0.62219 0.0
C714 C 0.93169 0.93691 0.60855 0.0
C715 C 0.94187 0.90687 0.60065 0.0
C716 C 0.92616 0.87539 0.60431 0.0
C717 C 0.89932 0.87477 0.61493 0.0
C718 C 0.94882 0.9707 0.60542 0.0
C719 C 0.93651 0.84235 0.59664 0.0
H720 H 0.96837 0.91835 0.54869 0.0
H721 H 0.05122 0.89648 0.57938 0.0
H722 H 0.90255 0.89699 0.573 0.0
H723 H 0.90776 0.94184 0.57623 0.0
H724 H 0.91209 0.92484 0.55709 0.0
H725 H 0.04409 0.897 0.60633 0.0
H726 H 0.00512 0.91382 0.61442 0.0
H727 H 0.00806 0.86944 0.60968 0.0
H728 H 0.89661 0.9584 0.62516 0.0
H729 H 0.88748 0.8507 0.61767 0.0
H730 H 0.94332 0.97883 0.59348 0.0
H731 H 0.97691 0.96803 0.60648 0.0
H732 H 0.94003 0.99104 0.61339 0.0
H733 H 0.92238 0.83969 0.58568 0.0
H734 H 0.93029 0.82002 0.60396 0.0
H735 H 0.96417 0.84157 0.59402 0.0
C736 C 0.33564 0.80361 0.83994 0.0
C737 C 0.34055 0.79794 0.82424 0.0
C738 C 0.34195 0.77729 0.85061 0.0
C739 C 0.35304 0.7449 0.84526 0.0
C740 C 0.36017 0.74009 0.82956 0.0
C741 C 0.35305 0.76636 0.81933 0.0
C742 C 0.33443 0.78327 0.86736 0.0
C743 C 0.37209 0.70612 0.82324 0.0
C744 C 0.38157 0.66989 0.86942 0.0
C745 C 0.35193 0.64985 0.86967 0.0
C746 C 0.38191 0.70206 0.86231 0.0
C747 C 0.3519 0.71434 0.85524 0.0
C748 C 0.32173 0.69452 0.85564 0.0
C749 C 0.32216 0.66255 0.86278 0.0
C750 C 0.4146 0.72235 0.86184 0.0
C751 C 0.28927 0.7064 0.84795 0.0
H752 H 0.32495 0.82771 0.84375 0.0
H753 H 0.35548 0.76105 0.80734 0.0
H754 H 0.31055 0.76978 0.87056 0.0
H755 H 0.3552 0.77273 0.8746 0.0
H756 H 0.33125 0.81086 0.86999 0.0
H757 H 0.38004 0.70795 0.81103 0.0
H758 H 0.39394 0.69626 0.82997 0.0
H759 H 0.35113 0.68713 0.82411 0.0
H760 H 0.4046 0.66037 0.87463 0.0
H761 H 0.29891 0.64754 0.86298 0.0
H762 H 0.40958 0.74969 0.86435 0.0
H763 H 0.42591 0.72088 0.8502 0.0
H764 H 0.43359 0.71251 0.87013 0.0
H765 H 0.28272 0.73266 0.85171 0.0
H766 H 0.26729 0.68935 0.85046 0.0
H767 H 0.29309 0.70714 0.83533 0.0
C768 C 0.55924 0.07932 0.12261 0.0
C769 C 0.5574 0.092 0.13756 0.0
C770 C 0.53058 0.07877 0.11321 0.0
C771 C 0.49917 0.09114 0.11898 0.0
C772 C 0.49689 0.10297 0.13433 0.0
C773 C 0.5264 0.10363 0.14347 0.0
C774 C 0.53407 0.06484 0.09709 0.0
C775 C 0.4635 0.11359 0.14143 0.0
C776 C 0.44611 0.11261 0.08464 0.0
C777 C 0.43097 0.08077 0.08201 0.0
C778 C 0.4657 0.1181 0.09784 0.0
C779 C 0.4694 0.09121 0.10859 0.0
C780 C 0.45007 0.06094 0.10696 0.0
C781 C 0.43134 0.05585 0.09351 0.0
C782 C 0.48594 0.15081 0.09916 0.0
C783 C 0.4525 0.03228 0.11848 0.0
H784 H 0.58349 0.07029 0.11816 0.0
H785 H 0.52508 0.11248 0.15523 0.0
H786 H 0.51581 0.04354 0.09529 0.0
H787 H 0.52792 0.08507 0.08862 0.0
H788 H 0.56021 0.05527 0.09464 0.0
H789 H 0.46709 0.13681 0.14849 0.0
H790 H 0.44321 0.11837 0.13286 0.0
H791 H 0.45468 0.09305 0.14927 0.0
H792 H 0.44564 0.13189 0.07574 0.0
H793 H 0.41897 0.03145 0.0915 0.0
H794 H 0.51138 0.14702 0.09382 0.0
H795 H 0.49002 0.1581 0.11131 0.0
H796 H 0.47308 0.17217 0.09308 0.0
H797 H 0.47746 0.01919 0.11718 0.0
H798 H 0.43189 0.0131 0.11689 0.0
H799 H 0.45111 0.04248 0.13034 0.0
C800 C 0.16042 0.74431 0.12015 0.0
C801 C 0.15268 0.7791 0.12108 0.0
C802 C 0.15131 0.72528 0.10721 0.0
C803 C 0.1346 0.74161 0.09479 0.0
C804 C 0.12688 0.77683 0.09561 0.0
C805 C 0.13579 0.79514 0.10884 0.0
C806 C 0.15989 0.68763 0.1068 0.0
C807 C 0.10927 0.79521 0.0826 0.0
C808 C 0.15371 0.68835 0.06039 0.0
C809 C 0.12559 0.6662 0.06045 0.0
C810 C 0.15491 0.71643 0.07025 0.0
C811 C 0.12784 0.72164 0.0807 0.0
C812 C 0.09756 0.70209 0.07936 0.0
C813 C 0.09652 0.67488 0.0689 0.0
C814 C 0.18678 0.7381 0.07062 0.0
C815 C 0.06766 0.70774 0.08993 0.0
H816 H 0.17319 0.73178 0.12963 0.0
H817 H 0.12952 0.82207 0.10957 0.0
H818 H 0.13671 0.67245 0.10413 0.0
H819 H 0.17887 0.68267 0.09762 0.0
H820 H 0.17061 0.67841 0.11784 0.0
H821 H 0.11079 0.82343 0.08387 0.0
H822 H 0.12048 0.7879 0.07138 0.0
H823 H 0.08195 0.78793 0.08242 0.0
H824 H 0.17568 0.68268 0.05326 0.0
H825 H 0.07396 0.65907 0.06822 0.0
H826 H 0.20311 0.72983 0.08033 0.0
H827 H 0.18034 0.76543 0.07239 0.0
H828 H 0.20179 0.73561 0.05986 0.0
H829 H 0.07531 0.70188 0.1019 0.0
H830 H 0.0454 0.69153 0.08687 0.0
H831 H 0.05973 0.73487 0.08951 0.0
C832 C 0.54668 0.86457 0.31536 0.0
C833 C 0.57089 0.89043 0.31311 0.0
C834 C 0.51969 0.86922 0.3259 0.0
C835 C 0.51737 0.90019 0.33434 0.0
C836 C 0.54226 0.92585 0.33224 0.0
C837 C 0.56834 0.92074 0.32165 0.0
C838 C 0.49365 0.84126 0.32783 0.0
C839 C 0.54209 0.95853 0.34154 0.0
C840 C 0.44105 0.93859 0.35468 0.0
C841 C 0.45075 0.93412 0.37003 0.0
C842 C 0.46121 0.92535 0.34268 0.0
C843 C 0.49075 0.90602 0.3462 0.0
C844 C 0.49887 0.89919 0.36167 0.0
C845 C 0.47968 0.91449 0.3733 0.0
C846 C 0.45208 0.93357 0.32629 0.0
C847 C 0.52892 0.87704 0.36596 0.0
H848 H 0.54866 0.84105 0.30886 0.0
H849 H 0.58749 0.94055 0.32038 0.0
H850 H 0.48529 0.83882 0.33994 0.0
H851 H 0.47082 0.84771 0.32091 0.0
H852 H 0.50378 0.81625 0.32389 0.0
H853 H 0.56272 0.97642 0.33808 0.0
H854 H 0.51725 0.97182 0.34028 0.0
H855 H 0.54546 0.95246 0.35388 0.0
H856 H 0.41843 0.95341 0.35205 0.0
H857 H 0.48764 0.91095 0.38493 0.0
H858 H 0.45293 0.91006 0.31918 0.0
H859 H 0.47114 0.95168 0.3215 0.0
H860 H 0.42637 0.94532 0.32532 0.0
H861 H 0.52789 0.85267 0.35949 0.0
H862 H 0.52945 0.87104 0.37842 0.0
H863 H 0.55307 0.89016 0.36285 0.0
C864 C 0.31999 0.316 0.55408 0.0
C865 C 0.3319 0.3449 0.56197 0.0
C866 C 0.31458 0.28486 0.56171 0.0
C867 C 0.32035 0.28283 0.57768 0.0
C868 C 0.33369 0.31162 0.58558 0.0
C869 C 0.33949 0.34229 0.5776 0.0
C870 C 0.30258 0.25421 0.55271 0.0
C871 C 0.3415 0.31009 0.60253 0.0
C872 C 0.26992 0.22799 0.60515 0.0
C873 C 0.29451 0.20426 0.60977 0.0
C874 C 0.27692 0.25156 0.59344 0.0
C875 C 0.30968 0.25202 0.58655 0.0
C876 C 0.3333 0.22574 0.59005 0.0
C877 C 0.32502 0.20159 0.60143 0.0
C878 C 0.25055 0.27834 0.58965 0.0
C879 C 0.36811 0.22421 0.58262 0.0
H880 H 0.31539 0.31761 0.54184 0.0
H881 H 0.34922 0.36445 0.58363 0.0
H882 H 0.32077 0.23278 0.55427 0.0
H883 H 0.27741 0.24559 0.55707 0.0
H884 H 0.30032 0.25973 0.54025 0.0
H885 H 0.3522 0.33449 0.60692 0.0
H886 H 0.31792 0.30412 0.60906 0.0
H887 H 0.36008 0.28929 0.60481 0.0
H888 H 0.24644 0.2302 0.61167 0.0
H889 H 0.34417 0.18328 0.60505 0.0
H890 H 0.24825 0.28146 0.57704 0.0
H891 H 0.25866 0.30329 0.59449 0.0
H892 H 0.22506 0.27182 0.59441 0.0
H893 H 0.36573 0.21126 0.57136 0.0
H894 H 0.38652 0.2094 0.58967 0.0
H895 H 0.37887 0.25005 0.58058 0.0
C896 C 0.02462 0.09811 0.86199 0.0
C897 C 0.05829 0.08836 0.85911 0.0
C898 C 0.00189 0.10383 0.84998 0.0
C899 C 0.01369 0.10105 0.83468 0.0
C900 C 0.04868 0.09469 0.83173 0.0
C901 C 0.07056 0.08727 0.84406 0.0
C902 C 0.96459 0.1092 0.85377 0.0
C903 C 0.06252 0.09388 0.81558 0.0
C904 C 0.94466 0.06611 0.80914 0.0
C905 C 0.92798 0.09616 0.8047 0.0
C906 C 0.97424 0.06734 0.81809 0.0
C907 C 0.98819 0.09947 0.82219 0.0
C908 C 0.97325 0.12984 0.81658 0.0
C909 C 0.94263 0.12783 0.80834 0.0
C910 C 0.98859 0.03429 0.82432 0.0
C911 C 0.98841 0.16444 0.82014 0.0
H912 H 0.01516 0.09815 0.87367 0.0
H913 H 0.09671 0.07957 0.84194 0.0
H914 H 0.9546 0.13225 0.84793 0.0
H915 H 0.94953 0.087 0.84965 0.0
H916 H 0.96011 0.1121 0.8663 0.0
H917 H 0.09069 0.09712 0.81542 0.0
H918 H 0.05633 0.06899 0.81018 0.0
H919 H 0.05075 0.11428 0.8085 0.0
H920 H 0.93349 0.04152 0.80638 0.0
H921 H 0.92922 0.15109 0.80563 0.0
H922 H 0.98496 0.0335 0.83694 0.0
H923 H 0.01636 0.03265 0.82205 0.0
H924 H 0.97605 0.01148 0.81925 0.0
H925 H 0.98611 0.17 0.83257 0.0
H926 H 0.97562 0.18528 0.8137 0.0
H927 H 0.01602 0.16458 0.8173 0.0
C928 C 0.80165 0.79878 0.59685 0.0
C929 C 0.82603 0.80504 0.60818 0.0
C930 C 0.80854 0.77547 0.585 0.0
C931 C 0.84006 0.75769 0.58492 0.0
C932 C 0.86598 0.76686 0.59537 0.0
C933 C 0.85852 0.79038 0.60695 0.0
C934 C 0.78066 0.76677 0.57374 0.0
C935 C 0.89988 0.74848 0.59561 0.0
C936 C 0.83276 0.66337 0.5763 0.0
C937 C 0.84615 0.66155 0.56149 0.0
C938 C 0.83116 0.69458 0.58407 0.0
C939 C 0.8428 0.72471 0.57667 0.0
C940 C 0.85678 0.72288 0.56173 0.0
C941 C 0.85827 0.69112 0.5543 0.0
C942 C 0.81663 0.69531 0.60014 0.0
C943 C 0.86991 0.75421 0.55353 0.0
H944 H 0.77628 0.80952 0.59805 0.0
H945 H 0.87671 0.79384 0.61618 0.0
H946 H 0.79134 0.76324 0.56205 0.0
H947 H 0.76842 0.74236 0.57719 0.0
H948 H 0.76071 0.78691 0.57336 0.0
H949 H 0.91764 0.75917 0.60429 0.0
H950 H 0.8959 0.72101 0.59825 0.0
H951 H 0.91211 0.75004 0.58416 0.0
H952 H 0.82321 0.64034 0.58174 0.0
H953 H 0.86727 0.68968 0.5426 0.0
H954 H 0.79359 0.71177 0.60047 0.0
H955 H 0.83553 0.70639 0.6082 0.0
H956 H 0.80949 0.66945 0.60432 0.0
H957 H 0.85357 0.77678 0.55583 0.0
H958 H 0.87132 0.75017 0.54094 0.0
H959 H 0.89599 0.76012 0.5577 0.0
C960 C 0.98652 0.05232 0.37137 0.0
C961 C 0.95117 0.05742 0.37156 0.0
C962 C 0.00678 0.06504 0.35937 0.0
C963 C 0.99141 0.08364 0.34724 0.0
C964 C 0.95577 0.08954 0.34752 0.0
C965 C 0.93602 0.07609 0.35959 0.0
C966 C 0.04463 0.05783 0.35948 0.0
C967 C 0.93851 0.10971 0.33497 0.0
C968 C 0.05759 0.12899 0.32251 0.0
C969 C 0.06431 0.10353 0.31161 0.0
C970 C 0.03173 0.12435 0.33359 0.0
C971 C 0.01241 0.09361 0.33364 0.0
C972 C 0.01682 0.06979 0.32159 0.0
C973 C 0.04257 0.07514 0.31073 0.0
C974 C 0.02724 0.15088 0.34599 0.0
C975 C -0.00316 0.03679 0.32104 0.0
H976 H -0.00166 0.03792 0.38057 0.0
H977 H 0.90873 0.08061 0.35974 0.0
H978 H 0.05149 0.04197 0.34939 0.0
H979 H 0.05917 0.08208 0.3586 0.0
H980 H 0.05283 0.04419 0.37003 0.0
H981 H 0.91121 0.11475 0.33755 0.0
H982 H 0.95175 0.13449 0.33324 0.0
H983 H 0.9401 0.09548 0.32399 0.0
H984 H 0.07423 0.15105 0.32321 0.0
H985 H 0.04753 0.05558 0.30219 0.0
H986 H 0.04005 0.14202 0.35662 0.0
H987 H -0.00017 0.15468 0.34871 0.0
H988 H 0.0386 0.17582 0.34265 0.0
H989 H 0.00552 0.01975 0.33043 0.0
H990 H 0.00029 0.02314 0.30997 0.0
H991 H 0.96924 0.04163 0.32278 0.0
C992 C 0.67269 0.29163 0.05489 0.0
C993 C 0.64192 0.30995 0.05565 0.0
C994 C 0.68174 0.26831 0.06631 0.0
C995 C 0.6587 0.26164 0.07841 0.0
C996 C 0.626 0.27715 0.07837 0.0
C997 C 0.61839 0.3019 0.0672 0.0
C998 C 0.7173 0.25339 0.06622 0.0
C999 C 0.59999 0.26984 0.09072 0.0
C1000 C 0.68044 0.18912 0.10573 0.0
C1001 C 0.69412 0.20716 0.11823 0.0
C1002 C 0.66874 0.20646 0.09263 0.0
C1003 C 0.67099 0.24251 0.09203 0.0
C1004 C 0.68656 0.2606 0.1042 0.0
C1005 C 0.69862 0.24265 0.11696 0.0
C1006 C 0.65207 0.18651 0.07985 0.0
C1007 C 0.68894 0.29915 0.10413 0.0
H1008 H 0.69109 0.2975 0.04597 0.0
H1009 H 0.59487 0.3161 0.06803 0.0
H1010 H 0.73214 0.26427 0.0759 0.0
H1011 H 0.71636 0.22531 0.06787 0.0
H1012 H 0.73119 0.25898 0.05539 0.0
H1013 H 0.57365 0.27441 0.08649 0.0
H1014 H 0.60182 0.24311 0.09489 0.0
H1015 H 0.60447 0.28716 0.10059 0.0
H1016 H 0.67651 0.16177 0.1066 0.0
H1017 H 0.70912 0.25687 0.12653 0.0
H1018 H 0.66524 0.19167 0.06882 0.0
H1019 H 0.62519 0.19493 0.07849 0.0
H1020 H 0.65239 0.15854 0.08201 0.0
H1021 H 0.70271 0.30799 0.09374 0.0
H1022 H 0.70225 0.30927 0.11442 0.0
H1023 H 0.66294 0.31033 0.10378 0.0
C1024 C 0.4398 0.91907 0.80512 0.0
C1025 C 0.41948 0.8897 0.80614 0.0
C1026 C 0.46586 0.92513 0.8157 0.0
C1027 C 0.47202 0.90086 0.82737 0.0
C1028 C 0.45409 0.86939 0.8274 0.0
C1029 C 0.42763 0.86433 0.81682 0.0
C1030 C 0.48399 0.95918 0.81543 0.0
C1031 C 0.46048 0.84261 0.83953 0.0
C1032 C 0.5463 0.91426 0.85461 0.0
C1033 C 0.52931 0.92735 0.86746 0.0
C1034 C 0.52806 0.90559 0.84131 0.0
C1035 C 0.49238 0.91102 0.84091 0.0
C1036 C 0.47561 0.92622 0.8536 0.0
C1037 C 0.49431 0.93389 0.86679 0.0
C1038 C 0.54646 0.88863 0.82814 0.0
C1039 C 0.43762 0.93286 0.85357 0.0
H1040 H 0.43343 0.9387 0.79681 0.0
H1041 H 0.41134 0.84213 0.8179 0.0
H1042 H 0.47435 0.97526 0.82498 0.0
H1043 H 0.51182 0.95581 0.81715 0.0
H1044 H 0.47975 0.9731 0.80449 0.0
H1045 H 0.44757 0.81808 0.83681 0.0
H1046 H 0.48824 0.83791 0.84082 0.0
H1047 H 0.45077 0.8518 0.85076 0.0
H1048 H 0.57327 0.90827 0.85539 0.0
H1049 H 0.48127 0.9434 0.87691 0.0
H1050 H 0.54055 0.90179 0.81719 0.0
H1051 H 0.5375 0.86184 0.82699 0.0
H1052 H 0.57456 0.88844 0.82979 0.0
H1053 H 0.43038 0.94795 0.8433 0.0
H1054 H 0.42909 0.94687 0.86397 0.0
H1055 H 0.42361 0.90825 0.85303 0.0
C1056 C 0.81589 0.18298 0.83003 0.0
C1057 C 0.8031 0.2012 0.8174 0.0
C1058 C 0.82738 0.20004 0.84323 0.0
C1059 C 0.82493 0.23604 0.844 0.0
C1060 C 0.81085 0.25444 0.83149 0.0
C1061 C 0.80057 0.23681 0.81826 0.0
C1062 C 0.84344 0.17972 0.85606 0.0
C1063 C 0.80709 0.29283 0.83199 0.0
C1064 C 0.82082 0.28292 0.88183 0.0
C1065 C 0.85096 0.30229 0.8813 0.0
C1066 C 0.81269 0.25989 0.87011 0.0
C1067 C 0.83611 0.2547 0.85799 0.0
C1068 C 0.8685 0.27083 0.85846 0.0
C1069 C 0.87527 0.29509 0.86996 0.0
C1070 C 0.77747 0.24419 0.86985 0.0
C1071 C 0.8948 0.26462 0.84611 0.0
H1072 H 0.81872 0.15547 0.8293 0.0
H1073 H 0.79112 0.25096 0.80845 0.0
H1074 H 0.87021 0.18819 0.85774 0.0
H1075 H 0.82974 0.18438 0.86699 0.0
H1076 H 0.84337 0.15182 0.8537 0.0
H1077 H 0.79369 0.30299 0.82173 0.0
H1078 H 0.7927 0.30053 0.8424 0.0
H1079 H 0.83262 0.30499 0.83264 0.0
H1080 H 0.80194 0.2883 0.8906 0.0
H1081 H 0.89808 0.31055 0.86919 0.0
H1082 H 0.7789 0.21636 0.86759 0.0
H1083 H 0.76245 0.25584 0.86041 0.0
H1084 H 0.76349 0.24829 0.88079 0.0
H1085 H 0.89744 0.23684 0.84384 0.0
H1086 H 0.92014 0.27514 0.84928 0.0
H1087 H 0.88656 0.27691 0.83526 0.0
C1088 C 0.56715 0.06367 0.5869 0.0
C1089 C 0.55089 0.04166 0.57645 0.0
C1090 C 0.5493 0.07722 0.5996 0.0
C1091 C 0.51428 0.06928 0.60162 0.0
C1092 C 0.49851 0.04554 0.59162 0.0
C1093 C 0.5173 0.03119 0.57958 0.0
C1094 C 0.56731 0.10137 0.61037 0.0
C1095 C 0.46097 0.03701 0.59293 0.0
C1096 C 0.45822 0.0764 0.63659 0.0
C1097 C 0.43693 0.10364 0.63245 0.0
C1098 C 0.48644 0.06735 0.62754 0.0
C1099 C 0.49322 0.08568 0.61388 0.0
C1100 C 0.47402 0.11557 0.61059 0.0
C1101 C 0.44592 0.12414 0.61991 0.0
C1102 C 0.50646 0.03575 0.63168 0.0
C1103 C 0.48031 0.13619 0.59624 0.0
H1104 H 0.59306 0.072 0.58465 0.0
H1105 H 0.50444 0.01401 0.57172 0.0
H1106 H 0.55617 0.12732 0.60935 0.0
H1107 H 0.56361 0.09298 0.62242 0.0
H1108 H 0.5951 0.103 0.60795 0.0
H1109 H 0.45246 0.01857 0.58403 0.0
H1110 H 0.45536 0.02598 0.60437 0.0
H1111 H 0.44558 0.06067 0.59175 0.0
H1112 H 0.45113 0.06037 0.64623 0.0
H1113 H 0.42923 0.14495 0.61657 0.0
H1114 H 0.53408 0.03956 0.62944 0.0
H1115 H 0.49774 0.01405 0.62449 0.0
H1116 H 0.50288 0.02862 0.64392 0.0
H1117 H 0.47005 0.16255 0.59736 0.0
H1118 H 0.4673 0.12363 0.58644 0.0
H1119 H 0.5079 0.13772 0.59348 0.0
C1120 C 0.68372 0.77705 0.33435 0.0
C1121 C 0.6601 0.80076 0.32864 0.0
C1122 C 0.6767 0.75792 0.34743 0.0
C1123 C 0.64608 0.76402 0.35558 0.0
C1124 C 0.62406 0.7908 0.35098 0.0
C1125 C 0.63093 0.80851 0.33728 0.0
C1126 C 0.70068 0.72906 0.3516 0.0
C1127 C 0.59236 0.79936 0.35998 0.0
C1128 C 0.61748 0.67974 0.37085 0.0
C1129 C 0.63606 0.67844 0.3845 0.0
C1130 C 0.61706 0.70942 0.36198 0.0
C1131 C 0.63535 0.73848 0.36712 0.0
C1132 C 0.65076 0.73838 0.3818 0.0
C1133 C 0.65178 0.70784 0.39021 0.0
C1134 C 0.60092 0.70793 0.34626 0.0
C1135 C 0.66869 0.76952 0.38803 0.0
H1136 H 0.7068 0.77148 0.32796 0.0
H1137 H 0.6129 0.82732 0.33308 0.0
H1138 H 0.70983 0.73207 0.36354 0.0
H1139 H 0.68703 0.70424 0.35089 0.0
H1140 H 0.7233 0.72781 0.34393 0.0
H1141 H 0.58351 0.82568 0.35742 0.0
H1142 H 0.57165 0.78139 0.35686 0.0
H1143 H 0.59699 0.79698 0.37249 0.0
H1144 H 0.60542 0.6567 0.36654 0.0
H1145 H 0.66579 0.70663 0.40092 0.0
H1146 H 0.62128 0.70627 0.33743 0.0
H1147 H 0.58594 0.73133 0.34393 0.0
H1148 H 0.58385 0.68543 0.34495 0.0
H1149 H 0.69503 0.77066 0.3834 0.0
H1150 H 0.67035 0.76866 0.40074 0.0
H1151 H 0.65528 0.79326 0.38454 0.0
C1152 C 0.05709 0.86764 0.1272 0.0
C1153 C 0.08303 0.89168 0.1255 0.0
C1154 C 0.02637 0.87085 0.11915 0.0
C1155 C 0.0213 0.89927 0.10946 0.0
C1156 C 0.04689 0.92457 0.10818 0.0
C1157 C 0.07757 0.92034 0.11614 0.0
C1158 C -9e-05 0.84324 0.12056 0.0
C1159 C 0.04237 0.95547 0.098 0.0
C1160 C 0.96783 0.89285 0.07388 0.0
C1161 C 0.93706 0.9077 0.07843 0.0
C1162 C -0.00567 0.88753 0.08423 0.0
C1163 C 0.99122 0.90054 0.09926 0.0
C1164 C 0.96056 0.91668 0.10395 0.0
C1165 C 0.93349 0.91972 0.09345 0.0
C1166 C 0.02626 0.86941 0.07883 0.0
C1167 C 0.9571 0.93218 0.11973 0.0
H1168 H 0.06064 0.84677 0.135 0.0
H1169 H 0.0975 0.93937 0.11488 0.0
H1170 H 0.97429 0.8544 0.12253 0.0
H1171 H -0.00116 0.82836 0.10973 0.0
H1172 H 0.00597 0.82565 0.13009 0.0
H1173 H 0.06271 0.97482 0.09983 0.0
H1174 H 0.04298 0.94748 0.0858 0.0
H1175 H 0.01721 0.96759 0.10013 0.0
H1176 H 0.97201 0.88679 0.062 0.0
H1177 H 0.91033 0.93305 0.09671 0.0
H1178 H 0.03281 0.84834 0.08682 0.0
H1179 H 0.04808 0.88746 0.07871 0.0
H1180 H 0.02334 0.85857 0.06712 0.0
H1181 H 0.9615 0.91244 0.12864 0.0
H1182 H 0.93155 0.94376 0.1216 0.0
H1183 H 0.97681 0.95223 0.12134 0.0
C1184 C 0.66854 0.78764 0.88353 0.0
C1185 C 0.6392 0.80764 0.88537 0.0
C1186 C 0.66795 0.75812 0.87442 0.0
C1187 C 0.6371 0.74816 0.86722 0.0
C1188 C 0.60669 0.76622 0.87037 0.0
C1189 C 0.60829 0.79629 0.87908 0.0
C1190 C 0.70116 0.74009 0.87104 0.0
C1191 C 0.57325 0.75578 0.86316 0.0
C1192 C 0.65101 0.71998 0.82646 0.0
C1193 C 0.65173 0.68445 0.82789 0.0
C1194 C 0.64482 0.7408 0.8391 0.0
C1195 C 0.63864 0.72557 0.85357 0.0
C1196 C 0.6366 0.68949 0.85486 0.0
C1197 C 0.64349 0.66908 0.8419 0.0
C1198 C 0.64688 0.77913 0.83703 0.0
C1199 C 0.62863 0.67261 0.87 0.0
H1200 H 0.69255 0.79638 0.88831 0.0
H1201 H 0.58599 0.81239 0.87973 0.0
H1202 H 0.6978 0.71198 0.87149 0.0
H1203 H 0.7097 0.74678 0.85927 0.0
H1204 H 0.7216 0.74752 0.87921 0.0
H1205 H 0.55146 0.7709 0.8676 0.0
H1206 H 0.57445 0.75927 0.85054 0.0
H1207 H 0.56835 0.72828 0.86533 0.0
H1208 H 0.65691 0.73157 0.81546 0.0
H1209 H 0.64379 0.64147 0.84285 0.0
H1210 H 0.66796 0.78959 0.84412 0.0
H1211 H 0.62288 0.79138 0.84092 0.0
H1212 H 0.65141 0.78658 0.8249 0.0
H1213 H 0.65067 0.67555 0.87786 0.0
H1214 H 0.62313 0.64493 0.86863 0.0
H1215 H 0.60638 0.6851 0.87553 0.0
C1216 C 0.44692 0.36316 0.13337 0.0
C1217 C 0.4165 0.3755 0.12711 0.0
C1218 C 0.47671 0.36177 0.12437 0.0
C1219 C 0.47556 0.37299 0.10892 0.0
C1220 C 0.44424 0.38385 0.10247 0.0
C1221 C 0.41513 0.38502 0.11169 0.0
C1222 C 0.50967 0.35036 0.13164 0.0
C1223 C 0.44178 0.39622 0.08608 0.0
C1224 C 0.54742 0.41624 0.08792 0.0
C1225 C 0.5537 0.39261 0.07621 0.0
C1226 C 0.52426 0.40879 0.0997 0.0
C1227 C 0.50718 0.37688 0.09971 0.0
C1228 C 0.51615 0.35167 0.08878 0.0
C1229 C 0.53909 0.36 0.07703 0.0
C1230 C 0.51525 0.43649 0.11107 0.0
C1231 C 0.49876 0.31731 0.08841 0.0
H1232 H 0.44778 0.35611 0.14538 0.0
H1233 H 0.39129 0.39438 0.10696 0.0
H1234 H 0.52574 0.33596 0.12339 0.0
H1235 H 0.5243 0.3731 0.13543 0.0
H1236 H 0.50493 0.33424 0.14186 0.0
H1237 H 0.41517 0.40254 0.08273 0.0
H1238 H 0.45776 0.41941 0.08457 0.0
H1239 H 0.4516 0.37648 0.0781 0.0
H1240 H 0.55864 0.44154 0.0872 0.0
H1241 H 0.54283 0.34212 0.0677 0.0
H1242 H 0.51466 0.42615 0.1229 0.0
H1243 H 0.48938 0.44647 0.10847 0.0
H1244 H 0.53358 0.45814 0.11067 0.0
H1245 H 0.49356 0.30792 0.10017 0.0
H1246 H 0.5143 0.29806 0.08217 0.0
H1247 H 0.47402 0.3198 0.08234 0.0
C1248 C 0.8614 0.20194 0.3791 0.0
C1249 C 0.83657 0.17647 0.38073 0.0
C1250 C 0.8574 0.22828 0.36814 0.0
C1251 C 0.82834 0.22854 0.35844 0.0
C1252 C 0.80268 0.20366 0.3605 0.0
C1253 C 0.80697 0.17834 0.37161 0.0
C1254 C 0.88469 0.2551 0.36654 0.0
C1255 C 0.77144 0.20245 0.35034 0.0
C1256 C 0.80008 0.3016 0.33247 0.0
C1257 C 0.81038 0.28941 0.31805 0.0
C1258 C 0.80723 0.283 0.34595 0.0
C1259 C 0.82582 0.25199 0.34499 0.0
C1260 C 0.83764 0.24058 0.33054 0.0
C1261 C 0.82929 0.25906 0.31732 0.0
C1262 C 0.79386 0.29581 0.36114 0.0
C1263 C 0.85808 0.20803 0.32892 0.0
H1264 H 0.88373 0.20127 0.38631 0.0
H1265 H 0.78747 0.15881 0.37256 0.0
H1266 H 0.89915 0.25062 0.35579 0.0
H1267 H 0.87322 0.28094 0.36572 0.0
H1268 H 0.90255 0.25464 0.37638 0.0
H1269 H 0.75253 0.18317 0.35425 0.0
H1270 H 0.75881 0.22779 0.34999 0.0
H1271 H 0.77917 0.19597 0.33844 0.0
H1272 H 0.78578 0.32526 0.33318 0.0
H1273 H 0.83798 0.24954 0.30643 0.0
H1274 H 0.81459 0.29621 0.36979 0.0
H1275 H 0.77386 0.27816 0.36545 0.0
H1276 H 0.78274 0.32183 0.36022 0.0
H1277 H 0.87967 0.20789 0.33714 0.0
H1278 H 0.86846 0.20469 0.31715 0.0
H1279 H 0.84164 0.18573 0.33163 0.0
C1280 C 0.98052 0.57662 0.56664 0.0
C1281 C 0.94705 0.58793 0.56439 0.0
C1282 C -0.00256 0.58281 0.58051 0.0
C1283 C 0.98036 0.60057 0.59244 0.0
C1284 C 0.94633 0.6115 0.59035 0.0
C1285 C 0.93006 0.60503 0.57633 0.0
C1286 C 0.03392 0.57099 0.58225 0.0
C1287 C 0.92748 0.63072 0.60276 0.0
C1288 C 0.02545 0.58767 0.63012 0.0
C1289 C 0.04927 0.61444 0.62962 0.0
C1290 C 0.00055 0.58423 0.61871 0.0
C1291 C -0.00099 0.60865 0.60679 0.0
C1292 C 0.01987 0.63812 0.60745 0.0
C1293 C 0.04557 0.64017 0.61862 0.0
C1294 C 0.97844 0.55264 0.61855 0.0
C1295 C 0.01764 0.66563 0.59539 0.0
H1296 H -0.00626 0.56344 0.55745 0.0
H1297 H 0.9041 0.61379 0.5747 0.0
H1298 H 0.05084 0.59343 0.58393 0.0
H1299 H 0.0364 0.55447 0.59253 0.0
H1300 H 0.04305 0.5565 0.57209 0.0
H1301 H 0.90058 0.63616 0.59957 0.0
H1302 H 0.9277 0.61585 0.6136 0.0
H1303 H 0.94053 0.65534 0.60511 0.0
H1304 H 0.02832 0.56763 0.63862 0.0
H1305 H 0.06461 0.66012 0.61782 0.0
H1306 H 0.98821 0.53461 0.60976 0.0
H1307 H 0.95177 0.55911 0.61546 0.0
H1308 H 0.97847 0.5394 0.62983 0.0
H1309 H 0.03419 0.65837 0.5856 0.0
H1310 H 0.02633 0.69063 0.59998 0.0
H1311 H 0.99133 0.66875 0.59096 0.0
C1312 C 0.64849 0.21245 0.54555 0.0
C1313 C 0.62958 0.18269 0.54801 0.0
C1314 C 0.65013 0.2377 0.55691 0.0
C1315 C 0.63343 0.23215 0.5711 0.0
C1316 C 0.61185 0.20355 0.57305 0.0
C1317 C 0.61016 0.17909 0.5614 0.0
C1318 C 0.67205 0.26884 0.55426 0.0
C1319 C 0.59323 0.19714 0.58794 0.0
C1320 C 0.68101 0.2663 0.60546 0.0
C1321 C 0.66193 0.29548 0.60919 0.0
C1322 C 0.67147 0.24516 0.59326 0.0
C1323 C 0.64229 0.25356 0.58449 0.0
C1324 C 0.62258 0.28252 0.58835 0.0
C1325 C 0.63293 0.30326 0.60059 0.0
C1326 C 0.69267 0.21384 0.58978 0.0
C1327 C 0.59061 0.29219 0.57977 0.0
H1328 H 0.66409 0.21469 0.53532 0.0
H1329 H 0.59631 0.15551 0.56345 0.0
H1330 H 0.65839 0.2922 0.55807 0.0
H1331 H 0.69576 0.26673 0.56115 0.0
H1332 H 0.67922 0.27176 0.542 0.0
H1333 H 0.57515 0.17533 0.5871 0.0
H1334 H 0.612 0.19147 0.59713 0.0
H1335 H 0.57886 0.2203 0.59144 0.0
H1336 H 0.70341 0.25975 0.61213 0.0
H1337 H 0.61883 0.326 0.60315 0.0
H1338 H 0.70449 0.21637 0.57827 0.0
H1339 H 0.6762 0.19076 0.58957 0.0
H1340 H 0.71329 0.2098 0.59833 0.0
H1341 H 0.59299 0.31883 0.57553 0.0
H1342 H 0.56861 0.29136 0.58781 0.0
H1343 H 0.58485 0.27536 0.5699 0.0
C1344 C 0.03596 0.37915 0.80354 0.0
C1345 C 0.06538 0.37218 0.81208 0.0
C1346 C 0.0048 0.38575 0.81091 0.0
C1347 C 0.0036 0.38594 0.82713 0.0
C1348 C 0.03226 0.37442 0.83561 0.0
C1349 C 0.06306 0.36817 0.82795 0.0
C1350 C 0.9745 0.39634 0.8014 0.0
C1351 C 0.03169 0.37274 0.85291 0.0
C1352 C 0.96388 0.45449 0.85138 0.0
C1353 C 0.93869 0.43587 0.85903 0.0
C1354 C 0.98238 0.43965 0.83933 0.0
C1355 C 0.97633 0.40498 0.83536 0.0
C1356 C 0.94818 0.38756 0.84184 0.0
C1357 C 0.92915 0.4036 0.85343 0.0
C1358 C 0.01134 0.45967 0.83226 0.0
C1359 C 0.94083 0.35061 0.83817 0.0
H1360 H 0.03801 0.38251 0.79122 0.0
H1361 H 0.08605 0.36324 0.83451 0.0
H1362 H 0.95026 0.38743 0.80662 0.0
H1363 H 0.97362 0.42465 0.80075 0.0
H1364 H 0.97635 0.38615 0.78953 0.0
H1365 H 0.05383 0.35832 0.85753 0.0
H1366 H 0.03248 0.39904 0.85767 0.0
H1367 H 0.00786 0.36045 0.85702 0.0
H1368 H 0.97137 0.47928 0.85581 0.0
H1369 H 0.90994 0.38892 0.85953 0.0
H1370 H 0.01192 0.45597 0.81964 0.0
H1371 H 0.03596 0.45036 0.83695 0.0
H1372 H 0.00923 0.48744 0.83472 0.0
H1373 H 0.94813 0.34406 0.82625 0.0
H1374 H 0.91338 0.34457 0.83989 0.0
H1375 H 0.95578 0.33408 0.84603 0.0
C1376 C 0.86068 0.80903 0.07684 0.0
C1377 C 0.84627 0.81564 0.06248 0.0
C1378 C 0.85189 0.77923 0.08499 0.0
C1379 C 0.82843 0.75567 0.07847 0.0
C1380 C 0.81717 0.76056 0.06321 0.0
C1381 C 0.82584 0.79078 0.05548 0.0
C1382 C 0.86479 0.77496 0.1012 0.0
C1383 C 0.79315 0.73564 0.05561 0.0
C1384 C 0.81056 0.67621 0.10242 0.0
C1385 C 0.78263 0.68728 0.11129 0.0
C1386 C 0.82479 0.69732 0.091 0.0
C1387 C 0.81082 0.73019 0.08846 0.0
C1388 C 0.78065 0.73993 0.0963 0.0
C1389 C 0.76663 0.7181 0.10739 0.0
C1390 C 0.85635 0.68558 0.08258 0.0
C1391 C 0.76484 0.77476 0.09401 0.0
H1392 H 0.87619 0.82853 0.08228 0.0
H1393 H 0.8146 0.79612 0.04437 0.0
H1394 H 0.84387 0.78087 0.10937 0.0
H1395 H 0.87284 0.74822 0.10333 0.0
H1396 H 0.88662 0.79221 0.10369 0.0
H1397 H 0.79228 0.73938 0.04298 0.0
H1398 H 0.80082 0.7089 0.05807 0.0
H1399 H 0.76702 0.73933 0.06023 0.0
H1400 H 0.82331 0.65249 0.10531 0.0
H1401 H 0.74503 0.72678 0.11414 0.0
H1402 H 0.87895 0.69935 0.0871 0.0
H1403 H 0.85444 0.69158 0.07017 0.0
H1404 H 0.86075 0.65771 0.08398 0.0
H1405 H 0.78299 0.79481 0.09784 0.0
H1406 H 0.74066 0.77783 0.10053 0.0
H1407 H 0.75953 0.77924 0.08169 0.0
C1408 C 0.54881 0.54451 0.35037 0.0
C1409 C 0.53466 0.53846 0.3649 0.0
C1410 C 0.52894 0.55894 0.33853 0.0
C1411 C 0.49474 0.5688 0.34154 0.0
C1412 C 0.48102 0.56412 0.35639 0.0
C1413 C 0.50066 0.54817 0.36766 0.0
C1414 C 0.54415 0.56295 0.32273 0.0
C1415 C 0.44512 0.57518 0.36035 0.0
C1416 C 0.4341 0.61934 0.3159 0.0
C1417 C 0.41448 0.59258 0.30984 0.0
C1418 C 0.46254 0.61223 0.32536 0.0
C1419 C 0.47094 0.57775 0.32885 0.0
C1420 C 0.45242 0.55095 0.32193 0.0
C1421 C 0.42506 0.55871 0.31235 0.0
C1422 C 0.48263 0.64143 0.33213 0.0
C1423 C 0.45931 0.51385 0.32572 0.0
H1424 H 0.57523 0.53775 0.34825 0.0
H1425 H 0.4896 0.54473 0.37895 0.0
H1426 H 0.53067 0.54594 0.31455 0.0
H1427 H 0.54061 0.58955 0.31862 0.0
H1428 H 0.57177 0.5566 0.3225 0.0
H1429 H 0.43955 0.57277 0.37281 0.0
H1430 H 0.4411 0.60217 0.35696 0.0
H1431 H 0.42648 0.55937 0.35393 0.0
H1432 H 0.42648 0.64555 0.31381 0.0
H1433 H 0.41065 0.53767 0.30751 0.0
H1434 H 0.50948 0.63996 0.32812 0.0
H1435 H 0.48303 0.63956 0.34482 0.0
H1436 H 0.47198 0.66669 0.32884 0.0
H1437 H 0.48687 0.50797 0.3246 0.0
H1438 H 0.44477 0.49605 0.31825 0.0
H1439 H 0.45189 0.50878 0.33781 0.0
C1440 C 0.30855 0.30232 0.09462 0.0
C1441 C 0.33147 0.31412 0.10573 0.0
C1442 C 0.31902 0.27879 0.08354 0.0
C1443 C 0.35345 0.26785 0.08338 0.0
C1444 C 0.37768 0.28392 0.09301 0.0
C1445 C 0.36632 0.30693 0.10419 0.0
C1446 C 0.29208 0.26187 0.07373 0.0
C1447 C 0.41475 0.27363 0.09278 0.0
C1448 C 0.35799 0.17264 0.07825 0.0
C1449 C 0.36395 0.17001 0.06254 0.0
C1450 C 0.35663 0.20455 0.08534 0.0
C1451 C 0.36148 0.23442 0.07638 0.0
C1452 C 0.36941 0.2317 0.0606 0.0
C1453 C 0.37046 0.19923 0.05378 0.0
C1454 C 0.34682 0.20619 0.1021 0.0
C1455 C 0.37458 0.26301 0.05078 0.0
H1456 H 0.28167 0.30852 0.09562 0.0
H1457 H 0.38419 0.31623 0.11269 0.0
H1458 H 0.30137 0.25758 0.06189 0.0
H1459 H 0.2857 0.23654 0.0787 0.0
H1460 H 0.2683 0.27727 0.07322 0.0
H1461 H 0.43031 0.28889 0.10094 0.0
H1462 H 0.41741 0.2462 0.0958 0.0
H1463 H 0.42509 0.27712 0.08105 0.0
H1464 H 0.3526 0.14973 0.08484 0.0
H1465 H 0.37468 0.19677 0.04154 0.0
H1466 H 0.31996 0.21492 0.1031 0.0
H1467 H 0.36295 0.2248 0.10833 0.0
H1468 H 0.34908 0.18094 0.10784 0.0
H1469 H 0.34996 0.27649 0.04923 0.0
H1470 H 0.38465 0.25639 0.03927 0.0
H1471 H 0.39227 0.28114 0.05648 0.0
C1472 C 0.44307 0.60179 0.86112 0.0
C1473 C 0.45846 0.58401 0.87328 0.0
C1474 C 0.46173 0.61151 0.8482 0.0
C1475 C 0.49611 0.6014 0.84703 0.0
C1476 C 0.51169 0.58259 0.85904 0.0
C1477 C 0.49272 0.57448 0.87217 0.0
C1478 C 0.44465 0.63241 0.83581 0.0
C1479 C 0.54825 0.57065 0.85791 0.0
C1480 C 0.54001 0.58445 0.80965 0.0
C1481 C 0.56441 0.61049 0.80966 0.0
C1482 C 0.51521 0.58293 0.8211 0.0
C1483 C 0.51529 0.60801 0.83278 0.0
C1484 C 0.53724 0.63665 0.83173 0.0
C1485 C 0.56159 0.63769 0.82 0.0
C1486 C 0.49159 0.55244 0.82162 0.0
C1487 C 0.53749 0.66425 0.84382 0.0
H1488 H 0.41634 0.60838 0.86167 0.0
H1489 H 0.50462 0.56059 0.88149 0.0
H1490 H 0.45876 0.6567 0.83406 0.0
H1491 H 0.44519 0.61841 0.82475 0.0
H1492 H 0.41771 0.63858 0.83866 0.0
H1493 H 0.55659 0.55662 0.86833 0.0
H1494 H 0.55124 0.55356 0.84785 0.0
H1495 H 0.56544 0.59285 0.85617 0.0
H1496 H 0.54206 0.56377 0.80141 0.0
H1497 H 0.58035 0.65804 0.81987 0.0
H1498 H 0.46512 0.56043 0.8243 0.0
H1499 H 0.50002 0.5348 0.83083 0.0
H1500 H 0.49147 0.53818 0.81059 0.0
H1501 H 0.51109 0.67168 0.84697 0.0
H1502 H 0.55155 0.68736 0.83993 0.0
H1503 H 0.55017 0.65442 0.8543 0.0
C1504 C 0.20624 0.70026 0.59517 0.0
C1505 C 0.18454 0.67836 0.6033 0.0
C1506 C 0.19311 0.72244 0.58398 0.0
C1507 C 0.1574 0.72355 0.58148 0.0
C1508 C 0.13639 0.69817 0.58809 0.0
C1509 C 0.15061 0.67483 0.59852 0.0
C1510 C 0.21679 0.74774 0.57641 0.0
C1511 C 0.09835 0.69776 0.58559 0.0
C1512 C 0.12614 0.81483 0.57853 0.0
C1513 C 0.12151 0.81831 0.56274 0.0
C1514 C 0.13619 0.78349 0.58484 0.0
C1515 C 0.14185 0.75509 0.57503 0.0
C1516 C 0.13432 0.75781 0.55922 0.0
C1517 C 0.12464 0.78965 0.55321 0.0
C1518 C 0.14283 0.78142 0.60189 0.0
C1519 C 0.13873 0.72783 0.54854 0.0
H1520 H 0.23257 0.70292 0.59881 0.0
H1521 H 0.13382 0.65768 0.60476 0.0
H1522 H 0.20947 0.75191 0.56426 0.0
H1523 H 0.215 0.77266 0.58244 0.0
H1524 H 0.24374 0.73899 0.57685 0.0
H1525 H 0.08544 0.68507 0.59531 0.0
H1526 H 0.08743 0.72376 0.58435 0.0
H1527 H 0.09256 0.68319 0.575 0.0
H1528 H 0.12461 0.83732 0.58577 0.0
H1529 H 0.1222 0.79277 0.5409 0.0
H1530 H 0.17054 0.77785 0.60397 0.0
H1531 H 0.12933 0.75909 0.60688 0.0
H1532 H 0.13445 0.80485 0.60802 0.0
H1533 H 0.16603 0.72037 0.54811 0.0
H1534 H 0.12993 0.73368 0.53672 0.0
H1535 H 0.12418 0.70553 0.5529 0.0
C1536 C 0.01245 0.41882 0.3674 0.0
C1537 C 0.04264 0.43798 0.36604 0.0
C1538 C -0.00472 0.40618 0.35457 0.0
C1539 C 0.0086 0.41258 0.33976 0.0
C1540 C 0.04067 0.42932 0.3383 0.0
C1541 C 0.05752 0.44181 0.35152 0.0
C1542 C 0.96126 0.38867 0.35693 0.0
C1543 C 0.0562 0.43547 0.32271 0.0
C1544 C 0.95391 0.37157 0.30841 0.0
C1545 C 0.93282 0.39897 0.30431 0.0
C1546 C 0.9807 0.37598 0.31909 0.0
C1547 C 0.9856 0.40821 0.32625 0.0
C1548 C 0.96486 0.43603 0.32187 0.0
C1549 C 0.93974 0.43133 0.31072 0.0
C1550 C 0.0032 0.34606 0.32302 0.0
C1551 C 0.96716 0.4703 0.32986 0.0
H1552 H 0.00157 0.41431 0.37867 0.0
H1553 H 0.08141 0.45553 0.35042 0.0
H1554 H 0.94048 0.40601 0.35317 0.0
H1555 H 0.95942 0.36507 0.34996 0.0
H1556 H 0.95679 0.3818 0.36914 0.0
H1557 H 0.08327 0.44369 0.32352 0.0
H1558 H 0.05464 0.41193 0.31564 0.0
H1559 H 0.04166 0.45567 0.31664 0.0
H1560 H 0.94898 0.34667 0.30368 0.0
H1561 H 0.92391 0.45307 0.3078 0.0
H1562 H 0.00311 0.34116 0.33554 0.0
H1563 H 0.02988 0.35227 0.31979 0.0
H1564 H -0.00488 0.32239 0.31702 0.0
H1565 H 0.96137 0.46713 0.34224 0.0
H1566 H 0.94911 0.48937 0.32505 0.0
H1567 H -0.00663 0.48076 0.32894 0.0
C1568 C 0.39543 0.80308 0.37115 0.0
C1569 C 0.37651 0.80467 0.38474 0.0
C1570 C 0.39362 0.77422 0.36161 0.0
C1571 C 0.37189 0.74673 0.36575 0.0
C1572 C 0.3566 0.74644 0.38048 0.0
C1573 C 0.3588 0.77568 0.38976 0.0
C1574 C 0.4107 0.77553 0.34609 0.0
C1575 C 0.33389 0.71744 0.38554 0.0
C1576 C 0.31493 0.71763 0.33329 0.0
C1577 C 0.33145 0.68806 0.32808 0.0
C1578 C 0.32773 0.73641 0.34565 0.0
C1579 C 0.35735 0.72485 0.35338 0.0
C1580 C 0.37318 0.69402 0.34865 0.0
C1581 C 0.36015 0.67608 0.33596 0.0
C1582 C 0.31027 0.76956 0.34993 0.0
C1583 C 0.40374 0.67989 0.35688 0.0
H1584 H 0.40837 0.82585 0.36709 0.0
H1585 H 0.3438 0.77713 0.4002 0.0
H1586 H 0.42294 0.75073 0.34336 0.0
H1587 H 0.39123 0.78055 0.33713 0.0
H1588 H 0.4303 0.79601 0.34548 0.0
H1589 H 0.33098 0.71691 0.39822 0.0
H1590 H 0.30818 0.72072 0.38042 0.0
H1591 H 0.34417 0.69252 0.38163 0.0
H1592 H 0.29279 0.72722 0.32722 0.0
H1593 H 0.37276 0.65303 0.33205 0.0
H1594 H 0.32851 0.79115 0.34889 0.0
H1595 H 0.30152 0.76858 0.36202 0.0
H1596 H 0.28786 0.77511 0.34255 0.0
H1597 H 0.42393 0.69958 0.35787 0.0
H1598 H 0.41461 0.65724 0.35098 0.0
H1599 H 0.3958 0.67214 0.36857 0.0
C1600 C 0.94763 0.56915 0.13387 0.0
C1601 C 0.92161 0.59351 0.13281 0.0
C1602 C 0.97296 0.56707 0.12253 0.0
C1603 C 0.97164 0.5896 0.10983 0.0
C1604 C 0.94697 0.61594 0.10939 0.0
C1605 C 0.92196 0.61729 0.12081 0.0
C1606 C -0.00084 0.53891 0.12346 0.0
C1607 C 0.94487 0.64068 0.09612 0.0
C1608 C 0.04176 0.59519 0.0801 0.0
C1609 C 0.02706 0.57721 0.06783 0.0
C1610 C 0.02443 0.59895 0.09406 0.0
C1611 C 0.99246 0.58287 0.09599 0.0
C1612 C 0.97873 0.5625 0.08405 0.0
C1613 C -0.00399 0.56029 0.07002 0.0
C1614 C 0.03956 0.62129 0.10645 0.0
C1615 C 0.94511 0.54406 0.08587 0.0
H1616 H 0.94691 0.55043 0.14303 0.0
H1617 H 0.90109 0.63525 0.11962 0.0
H1618 H 0.99241 0.51843 0.1152 0.0
H1619 H 0.02484 0.54855 0.1203 0.0
H1620 H 0.0004 0.52755 0.13513 0.0
H1621 H 0.92831 0.66292 0.09881 0.0
H1622 H 0.97057 0.65022 0.09293 0.0
H1623 H 0.93413 0.62737 0.08597 0.0
H1624 H 0.06658 0.60688 0.07875 0.0
H1625 H 0.98497 0.54564 0.0607 0.0
H1626 H 0.03961 0.60771 0.11762 0.0
H1627 H 0.02361 0.6445 0.1079 0.0
H1628 H 0.06603 0.62944 0.10371 0.0
H1629 H 0.94509 0.52876 0.09658 0.0
H1630 H 0.93964 0.52678 0.07607 0.0
H1631 H 0.92413 0.56299 0.08677 0.0
C1632 C 0.12107 0.28775 0.82422 0.0
C1633 C 0.14735 0.2789 0.81401 0.0
C1634 C 0.11586 0.26954 0.83783 0.0
C1635 C 0.13869 0.24307 0.84175 0.0
C1636 C 0.16681 0.23565 0.83206 0.0
C1637 C 0.1704 0.25321 0.81811 0.0
C1638 C 0.08503 0.27746 0.84764 0.0
C1639 C 0.19244 0.20838 0.83616 0.0
C1640 C 0.14259 0.20168 0.88101 0.0
C1641 C 0.12512 0.17113 0.87819 0.0
C1642 C 0.14511 0.22686 0.8696 0.0
C1643 C 0.131 0.22042 0.85493 0.0
C1644 C 0.11149 0.19055 0.85241 0.0
C1645 C 0.10846 0.16652 0.86419 0.0
C1646 C 0.16487 0.2591 0.87291 0.0
C1647 C 0.0963 0.18247 0.83689 0.0
H1648 H 0.10391 0.30837 0.82141 0.0
H1649 H 0.19138 0.24705 0.81048 0.0
H1650 H 0.067 0.25558 0.84728 0.0
H1651 H 0.09262 0.28105 0.85978 0.0
H1652 H 0.07129 0.30062 0.84367 0.0
H1653 H 0.21516 0.20901 0.82853 0.0
H1654 H 0.20105 0.21152 0.8482 0.0
H1655 H 0.18028 0.18286 0.8352 0.0
H1656 H 0.15563 0.20511 0.89187 0.0
H1657 H 0.09578 0.14272 0.86191 0.0
H1658 H 0.15135 0.28177 0.8683 0.0
H1659 H 0.19012 0.25774 0.86718 0.0
H1660 H 0.16902 0.26277 0.88541 0.0
H1661 H 0.08331 0.20513 0.83198 0.0
H1662 H 0.07763 0.16121 0.8375 0.0
H1663 H 0.11703 0.17504 0.82887 0.0
C1664 C 0.46148 0.44563 0.58597 0.0
C1665 C 0.43633 0.42211 0.58163 0.0
C1666 C 0.48199 0.43982 0.59883 0.0
C1667 C 0.4766 0.41007 0.60778 0.0
C1668 C 0.44796 0.38902 0.60473 0.0
C1669 C 0.42814 0.39517 0.59155 0.0
C1670 C 0.5125 0.46275 0.60136 0.0
C1671 C 0.44061 0.35771 0.61424 0.0
C1672 C 0.56165 0.37165 0.61829 0.0
C1673 C 0.56765 0.38576 0.6327 0.0
C1674 C 0.53091 0.37724 0.61052 0.0
C1675 C 0.50517 0.39737 0.61748 0.0
C1676 C 0.50994 0.4095 0.63263 0.0
C1677 C 0.54145 0.40404 0.63998 0.0
C1678 C 0.52722 0.36398 0.59432 0.0
C1679 C 0.48282 0.43021 0.64063 0.0
H1680 H 0.46766 0.46662 0.57831 0.0
H1681 H 0.40888 0.37678 0.58819 0.0
H1682 H 0.51561 0.46885 0.61369 0.0
H1683 H 0.53595 0.44931 0.59752 0.0
H1684 H 0.51042 0.48706 0.59484 0.0
H1685 H 0.413 0.35134 0.61401 0.0
H1686 H 0.45476 0.33565 0.6094 0.0
H1687 H 0.44877 0.36119 0.62633 0.0
H1688 H 0.5821 0.35879 0.61253 0.0
H1689 H 0.54618 0.41538 0.65112 0.0
H1690 H 0.52227 0.38537 0.58627 0.0
H1691 H 0.50522 0.3462 0.59365 0.0
H1692 H 0.55039 0.35039 0.59036 0.0
H1693 H 0.48275 0.45661 0.636 0.0
H1694 H 0.48736 0.43163 0.65319 0.0
H1695 H 0.45717 0.4191 0.63855 0.0
C1696 C 0.09163 0.24475 0.29255 0.0
C1697 C 0.09301 0.21183 0.28638 0.0
C1698 C 0.06066 0.26254 0.29338 0.0
C1699 C 0.03079 0.24774 0.28711 0.0
C1700 C 0.03259 0.21515 0.28004 0.0
C1701 C 0.06354 0.19716 0.28016 0.0
C1702 C 0.05976 0.29606 0.30185 0.0
C1703 C 0.00177 0.19906 0.27256 0.0
C1704 C 0.94149 0.26939 0.30046 0.0
C1705 C 0.93041 0.29134 0.2888 0.0
C1706 C 0.97484 0.25657 0.30056 0.0
C1707 C -0.00268 0.26537 0.28847 0.0
C1708 C 0.98671 0.28896 0.27708 0.0
C1709 C 0.95326 0.30188 0.27743 0.0
C1710 C 0.98533 0.23219 0.31314 0.0
C1711 C 0.00988 0.29868 0.26395 0.0
H1712 H 0.11447 0.25605 0.29736 0.0
H1713 H 0.06481 0.17169 0.27529 0.0
H1714 H 0.04271 0.3147 0.29612 0.0
H1715 H 0.04983 0.29133 0.31358 0.0
H1716 H 0.08558 0.30754 0.30295 0.0
H1717 H 0.00839 0.17541 0.26617 0.0
H1718 H 0.98251 0.19255 0.28141 0.0
H1719 H 0.98974 0.21739 0.26449 0.0
H1720 H 0.92344 0.26096 0.30913 0.0
H1721 H 0.94426 0.31827 0.26825 0.0
H1722 H 0.01052 0.23963 0.3179 0.0
H1723 H 0.98792 0.20601 0.3084 0.0
H1724 H 0.96641 0.2314 0.32264 0.0
H1725 H 0.03485 0.30768 0.26837 0.0
H1726 H -0.00134 0.31903 0.25664 0.0
H1727 H 0.01481 0.27587 0.25672 0.0
C1728 C 0.92598 0.70792 0.52504 0.0
C1729 C 0.93153 0.67534 0.53107 0.0
C1730 C 0.9481 0.73502 0.52866 0.0
C1731 C 0.97738 0.72879 0.53781 0.0
C1732 C 0.98201 0.69627 0.54455 0.0
C1733 C 0.95874 0.67004 0.54122 0.0
C1734 C 0.94148 0.76975 0.52178 0.0
C1735 C 0.01304 0.6883 0.55416 0.0
C1736 C 0.05103 0.78191 0.5233 0.0
C1737 C 0.05093 0.80938 0.53356 0.0
C1738 C 0.02897 0.75413 0.52532 0.0
C1739 C 0.00576 0.75412 0.5378 0.0
C1740 C 0.00769 0.78032 0.54899 0.0
C1741 C 0.03055 0.80766 0.54678 0.0
C1742 C 0.02874 0.72614 0.51338 0.0
C1743 C 0.98375 0.7812 0.56256 0.0
H1744 H 0.90498 0.71191 0.51716 0.0
H1745 H 0.96351 0.64466 0.5456 0.0
H1746 H 0.94458 0.78994 0.53061 0.0
H1747 H 0.96033 0.7748 0.51255 0.0
H1748 H 0.91543 0.77168 0.51684 0.0
H1749 H 0.0118 0.66228 0.55923 0.0
H1750 H 0.03637 0.69003 0.54697 0.0
H1751 H 0.01575 0.70728 0.56353 0.0
H1752 H 0.06708 0.78306 0.51317 0.0
H1753 H 0.03041 0.82891 0.55476 0.0
H1754 H 0.0051 0.72801 0.50643 0.0
H1755 H 0.02887 0.70064 0.51894 0.0
H1756 H 0.051 0.72783 0.50552 0.0
H1757 H 0.95873 0.79155 0.55884 0.0
H1758 H -0.00629 0.79783 0.57187 0.0
H1759 H 0.97924 0.75522 0.56724 0.0
C1760 C 0.42989 0.78114 0.80049 0.0
C1761 C 0.41647 0.78979 0.7861 0.0
C1762 C 0.46229 0.76595 0.80194 0.0
C1763 C 0.4824 0.76033 0.78865 0.0
C1764 C 0.46941 0.77029 0.77413 0.0
C1765 C 0.43639 0.78431 0.77301 0.0
C1766 C 0.47448 0.7551 0.81764 0.0
C1767 C 0.49005 0.76524 0.75968 0.0
C1768 C 0.57881 0.747 0.7908 0.0
C1769 C 0.58174 0.71158 0.7886 0.0
C1770 C 0.54664 0.763 0.79155 0.0
C1771 C 0.51657 0.74326 0.78976 0.0
C1772 C 0.51939 0.70731 0.7881 0.0
C1773 C 0.55186 0.69195 0.78757 0.0
C1774 C 0.54483 0.80117 0.79389 0.0
C1775 C 0.4881 0.6851 0.78646 0.0
H1776 H 0.41461 0.785 0.81064 0.0
H1777 H 0.42587 0.79048 0.76185 0.0
H1778 H 0.48293 0.72804 0.81747 0.0
H1779 H 0.49677 0.77083 0.82106 0.0
H1780 H 0.45432 0.75788 0.82652 0.0
H1781 H 0.47709 0.77585 0.7494 0.0
H1782 H 0.51535 0.77772 0.76086 0.0
H1783 H 0.49461 0.73758 0.7578 0.0
H1784 H 0.60174 0.76231 0.79189 0.0
H1785 H 0.55384 0.6646 0.78586 0.0
H1786 H 0.5277 0.80729 0.80365 0.0
H1787 H 0.53387 0.81341 0.78353 0.0
H1788 H 0.57029 0.81256 0.79617 0.0
H1789 H 0.4698 0.69037 0.79588 0.0
H1790 H 0.49445 0.65743 0.78657 0.0
H1791 H 0.47503 0.69116 0.77551 0.0
C1792 C 0.4815 0.16165 0.02242 0.0
C1793 C 0.45991 0.15297 0.03466 0.0
C1794 C 0.49599 0.19453 0.02128 0.0
C1795 C 0.48928 0.21915 0.03283 0.0
C1796 C 0.46804 0.21022 0.04537 0.0
C1797 C 0.45337 0.17744 0.04603 0.0
C1798 C 0.51853 0.20287 0.00774 0.0
C1799 C 0.46119 0.23512 0.05822 0.0
C1800 C 0.5506 0.29386 0.03814 0.0
C1801 C 0.53281 0.32104 0.03138 0.0
C1802 C 0.53684 0.26072 0.03872 0.0
C1803 C 0.50469 0.25413 0.03195 0.0
C1804 C 0.48696 0.28122 0.02466 0.0
C1805 C 0.50107 0.31433 0.02456 0.0
C1806 C 0.55665 0.23286 0.04673 0.0
C1807 C 0.45302 0.27523 0.01698 0.0
H1808 H 0.48661 0.14288 0.01356 0.0
H1809 H 0.43719 0.17079 0.05562 0.0
H1810 H 0.50821 0.22527 0.00148 0.0
H1811 H 0.54445 0.20986 0.01178 0.0
H1812 H 0.52076 0.18113 -0.0004 0.0
H1813 H 0.44314 0.22465 0.06685 0.0
H1814 H 0.4854 0.2416 0.06412 0.0
H1815 H 0.45074 0.25929 0.05353 0.0
H1816 H 0.5754 0.29845 0.04302 0.0
H1817 H 0.48719 0.33497 0.01911 0.0
H1818 H 0.56058 0.21092 0.03887 0.0
H1819 H 0.5419 0.22334 0.05672 0.0
H1820 H 0.58194 0.24182 0.05085 0.0
H1821 H 0.45607 0.25654 0.00751 0.0
H1822 H 0.44188 0.2991 0.01225 0.0
H1823 H 0.43482 0.26402 0.0253 0.0
C1824 C 0.94612 0.68035 0.14493 0.0
C1825 C 0.91634 0.69874 0.1416 0.0
C1826 C 0.97785 0.69718 0.14625 0.0
C1827 C 0.97925 0.73341 0.1455 0.0
C1828 C 0.94905 0.75189 0.14233 0.0
C1829 C 0.91861 0.7343 0.13977 0.0
C1830 C 0.00959 0.67631 0.149 0.0
C1831 C 0.94769 0.79038 0.14189 0.0
C1832 C 0.04596 0.78301 0.16795 0.0
C1833 C 0.06856 0.7936 0.15641 0.0
C1834 C 0.01763 0.76236 0.16461 0.0
C1835 C 0.0113 0.75226 0.14927 0.0
C1836 C 0.03408 0.76267 0.13754 0.0
C1837 C 0.06289 0.78248 0.14131 0.0
C1838 C -0.00604 0.752 0.17747 0.0
C1839 C 0.02763 0.75355 0.12098 0.0
H1840 H 0.94468 0.65307 0.14675 0.0
H1841 H 0.89588 0.7491 0.13729 0.0
H1842 H 0.03027 0.68455 0.14111 0.0
H1843 H 0.0187 0.68053 0.16089 0.0
H1844 H 0.00498 0.64854 0.14731 0.0
H1845 H 0.92323 0.79982 0.14676 0.0
H1846 H 0.96875 0.8027 0.1483 0.0
H1847 H 0.94842 0.7986 0.12973 0.0
H1848 H 0.05063 0.79071 0.17971 0.0
H1849 H 0.08089 0.78939 0.13241 0.0
H1850 H 0.99074 0.72383 0.17761 0.0
H1851 H 0.96839 0.76344 0.17556 0.0
H1852 H 0.00346 0.76031 0.18888 0.0
H1853 H 0.02842 0.72539 0.11957 0.0
H1854 H 0.04666 0.76542 0.11317 0.0
H1855 H 0.00179 0.76214 0.1175 0.0
C1856 C 0.46199 0.80542 0.41484 0.0
C1857 C 0.45877 0.82745 0.40236 0.0
C1858 C 0.475 0.77251 0.41276 0.0
C1859 C 0.48512 0.76221 0.39787 0.0
C1860 C 0.48071 0.78422 0.38516 0.0
C1861 C 0.46779 0.81693 0.38763 0.0
C1862 C 0.47938 0.74962 0.42657 0.0
C1863 C 0.49076 0.77363 0.36912 0.0
C1864 C 0.55263 0.69411 0.39511 0.0
C1865 C 0.53356 0.66608 0.39001 0.0
C1866 C 0.53743 0.72604 0.39714 0.0
C1867 C 0.50172 0.72899 0.39553 0.0
C1868 C 0.48188 0.70044 0.39141 0.0
C1869 C 0.49818 0.66965 0.38799 0.0
C1870 C 0.55939 0.75634 0.40135 0.0
C1871 C 0.44343 0.70214 0.39134 0.0
H1872 H 0.45551 0.81439 0.42625 0.0
H1873 H 0.46581 0.83476 0.37815 0.0
H1874 H 0.47191 0.72293 0.42391 0.0
H1875 H 0.50663 0.74935 0.42999 0.0
H1876 H 0.46411 0.75866 0.43651 0.0
H1877 H 0.48732 0.79457 0.36067 0.0
H1878 H 0.51784 0.76541 0.36892 0.0
H1879 H 0.47512 0.75145 0.36547 0.0
H1880 H 0.57915 0.69106 0.39798 0.0
H1881 H 0.48281 0.6478 0.3847 0.0
H1882 H 0.55287 0.76518 0.41308 0.0
H1883 H 0.5544 0.77789 0.39339 0.0
H1884 H 0.58705 0.75019 0.40099 0.0
H1885 H 0.43399 0.71137 0.4026 0.0
H1886 H 0.43174 0.67682 0.38912 0.0
H1887 H 0.43473 0.72084 0.38264 0.0
C1888 C 0.57511 0.26751 0.66508 0.0
C1889 C 0.58606 0.28615 0.65228 0.0
C1890 C 0.54178 0.25457 0.66588 0.0
C1891 C 0.51929 0.2597 0.65339 0.0
C1892 C 0.53008 0.2791 0.64055 0.0
C1893 C 0.56339 0.29226 0.6402 0.0
C1894 C 0.5309 0.23481 0.67995 0.0
C1895 C 0.50688 0.285 0.62699 0.0
C1896 C 0.4488 0.1941 0.64849 0.0
C1897 C 0.42032 0.21174 0.65406 0.0
C1898 C 0.48106 0.20959 0.64798 0.0
C1899 C 0.48507 0.24339 0.6535 0.0
C1900 C 0.45657 0.26122 0.6594 0.0
C1901 C 0.42455 0.24525 0.65954 0.0
C1902 C 0.51082 0.18982 0.64145 0.0
C1903 C 0.4599 0.2971 0.66562 0.0
H1904 H 0.59272 0.26298 0.67445 0.0
H1905 H 0.57223 0.30599 0.63017 0.0
H1906 H 0.50672 0.24533 0.68459 0.0
H1907 H 0.52605 0.20776 0.67682 0.0
H1908 H 0.55051 0.23547 0.68914 0.0
H1909 H 0.51899 0.30121 0.61805 0.0
H1910 H 0.49982 0.26013 0.62176 0.0
H1911 H 0.48292 0.29745 0.6308 0.0
H1912 H 0.44592 0.16821 0.6445 0.0
H1913 H 0.40276 0.2592 0.66395 0.0
H1914 H 0.531 0.18699 0.65026 0.0
H1915 H 0.52212 0.20406 0.63167 0.0
H1916 H 0.50329 0.16397 0.6374 0.0
H1917 H 0.47833 0.29744 0.67527 0.0
H1918 H 0.43515 0.30746 0.66975 0.0
H1919 H 0.47004 0.31439 0.65662 0.0
C1920 C 0.99167 0.15274 0.90401 0.0
C1921 C 0.02716 0.14911 0.90273 0.0
C1922 C 0.97649 0.18534 0.90435 0.0
C1923 C -0.00274 0.21489 0.90327 0.0
C1924 C 0.03306 0.21135 0.90205 0.0
C1925 C 0.04751 0.17861 0.90196 0.0
C1926 C 0.93823 0.18822 0.90581 0.0
C1927 C 0.05617 0.24213 0.90064 0.0
C1928 C 0.95831 0.29848 0.88959 0.0
C1929 C 0.95426 0.31619 0.9034 0.0
C1930 C 0.97209 0.26536 0.88936 0.0
C1931 C 0.9817 0.2496 0.90335 0.0
C1932 C 0.9777 0.2676 0.91735 0.0
C1933 C 0.96428 0.30085 0.91717 0.0
C1934 C 0.97669 0.24747 0.87415 0.0
C1935 C 0.98799 0.25194 0.93249 0.0
H1936 H 0.97574 0.13014 0.90469 0.0
H1937 H 0.07494 0.17627 0.90138 0.0
H1938 H 0.93161 0.2039 0.91599 0.0
H1939 H 0.92769 0.20143 0.8956 0.0
H1940 H 0.9257 0.16287 0.90691 0.0
H1941 H 0.0836 0.235 0.90033 0.0
H1942 H 0.05003 0.25632 0.88997 0.0
H1943 H 0.05194 0.25982 0.91039 0.0
H1944 H 0.95195 0.31108 0.87891 0.0
H1945 H 0.96145 0.31487 0.92783 0.0
H1946 H 0.95843 0.22587 0.87334 0.0
H1947 H 0.00279 0.23671 0.87316 0.0
H1948 H 0.97232 0.26489 0.86429 0.0
H1949 H 0.97461 0.22722 0.93416 0.0
H1950 H 0.9821 0.26888 0.94237 0.0
H1951 H 0.01578 0.24654 0.93248 0.0
C1952 C 0.07841 0.74286 0.66761 0.0
C1953 C 0.0796 0.71826 0.65591 0.0
C1954 C 0.04964 0.76369 0.66965 0.0
C1955 C 0.02156 0.76019 0.6596 0.0
C1956 C 0.02254 0.73532 0.64779 0.0
C1957 C 0.05151 0.71453 0.64618 0.0
C1958 C 0.04925 0.7894 0.68257 0.0
C1959 C 0.99313 0.7307 0.63679 0.0
C1960 C 0.9332 0.78617 0.6725 0.0
C1961 C 0.92732 0.81539 0.66362 0.0
C1962 C 0.96421 0.76862 0.67169 0.0
C1963 C 0.99034 0.78112 0.662 0.0
C1964 C 0.98559 0.81234 0.65398 0.0
C1965 C 0.95379 0.829 0.65474 0.0
C1966 C 0.9677 0.73506 0.6801 0.0
C1967 C 0.01311 0.82673 0.64373 0.0
H1968 H 0.10004 0.74578 0.67524 0.0
H1969 H 0.05253 0.69603 0.63707 0.0
H1970 H 0.0453 0.81546 0.67788 0.0
H1971 H 0.02765 0.784 0.69044 0.0
H1972 H 0.07329 0.78914 0.68931 0.0
H1973 H -0.00245 0.70946 0.62856 0.0
H1974 H 0.96926 0.72546 0.64322 0.0
H1975 H 0.98911 0.75459 0.63018 0.0
H1976 H 0.91227 0.77524 0.67902 0.0
H1977 H 0.94881 0.85095 0.64748 0.0
H1978 H 0.99203 0.73413 0.68657 0.0
H1979 H 0.96812 0.7138 0.67168 0.0
H1980 H 0.94629 0.73057 0.68823 0.0
H1981 H 0.03824 0.82595 0.64957 0.0
H1982 H 0.00758 0.85349 0.64028 0.0
H1983 H 0.01513 0.81094 0.6332 0.0
C1984 C 0.95331 0.19363 0.38565 0.0
C1985 C 0.94297 0.17637 0.39885 0.0
C1986 C 0.96633 0.22692 0.38656 0.0
C1987 C 0.97073 0.24241 0.40115 0.0
C1988 C 0.95903 0.22528 0.41448 0.0
C1989 C 0.945 0.19249 0.41313 0.0
C1990 C 0.97694 0.24388 0.37181 0.0
C1991 C 0.96327 0.24065 0.43026 0.0
C1992 C 0.04307 0.30546 0.40748 0.0
C1993 C 0.02585 0.33678 0.40709 0.0
C1994 C 0.02556 0.27462 0.40508 0.0
C1995 C 0.98975 0.2751 0.40281 0.0
C1996 C 0.97212 0.30663 0.40287 0.0
C1997 C 0.99042 0.33711 0.4049 0.0
C1998 C 0.0454 0.24156 0.40492 0.0
C1999 C 0.93412 0.30839 0.40026 0.0
H2000 H 0.95241 0.18062 0.37466 0.0
H2001 H 0.9379 0.17841 0.42337 0.0
H2002 H 0.9815 0.2717 0.37304 0.0
H2003 H 0.00018 0.23102 0.36752 0.0
H2004 H 0.95731 0.23982 0.36285 0.0
H2005 H 0.95075 0.22505 0.4393 0.0
H2006 H 0.99083 0.24279 0.43302 0.0
H2007 H 0.95239 0.26682 0.43055 0.0
H2008 H 0.07033 0.3051 0.40955 0.0
H2009 H 0.97701 0.36132 0.40447 0.0
H2010 H 0.03982 0.22708 0.39427 0.0
H2011 H 0.03741 0.2254 0.41475 0.0
H2012 H 0.07339 0.24583 0.40563 0.0
H2013 H 0.92892 0.30415 0.38791 0.0
H2014 H 0.92346 0.33367 0.40353 0.0
H2015 H 0.92055 0.28825 0.40684 0.0
C2016 C 0.54304 0.21369 0.13539 0.0
C2017 C 0.55329 0.19329 0.14774 0.0
C2018 C 0.50975 0.22672 0.13461 0.0
C2019 C 0.48659 0.21996 0.14672 0.0
C2020 C 0.4964 0.19783 0.1588 0.0
C2021 C 0.52975 0.18473 0.15917 0.0
C2022 C 0.50027 0.24969 0.12139 0.0
C2023 C 0.47221 0.18923 0.17171 0.0
C2024 C 0.41974 0.2871 0.15612 0.0
C2025 C 0.39047 0.27315 0.14944 0.0
C2026 C 0.45108 0.26981 0.15544 0.0
C2027 C 0.45333 0.23834 0.14743 0.0
C2028 C 0.4238 0.2247 0.14029 0.0
C2029 C 0.39255 0.24193 0.1417 0.0
C2030 C 0.48146 0.28487 0.16367 0.0
C2031 C 0.4244 0.19192 0.13123 0.0
H2032 H 0.56158 0.22069 0.12669 0.0
H2033 H 0.53803 0.16949 0.16886 0.0
H2034 H 0.47409 0.24408 0.11725 0.0
H2035 H 0.5007 0.27658 0.12537 0.0
H2036 H 0.51833 0.24708 0.11162 0.0
H2037 H 0.48143 0.16721 0.17861 0.0
H2038 H 0.46961 0.21163 0.17941 0.0
H2039 H 0.44647 0.18311 0.16717 0.0
H2040 H 0.41791 0.31121 0.1622 0.0
H2041 H 0.36985 0.23132 0.13643 0.0
H2042 H 0.50499 0.28257 0.15667 0.0
H2043 H 0.48578 0.27058 0.17448 0.0
H2044 H 0.47743 0.31219 0.16663 0.0
H2045 H 0.45048 0.18261 0.12879 0.0
H2046 H 0.41109 0.19551 0.12012 0.0
H2047 H 0.41026 0.172 0.13769 0.0
C2048 C 0.54986 0.77759 0.91515 0.0
C2049 C 0.5468 0.8064 0.90581 0.0
C2050 C 0.52823 0.74938 0.91308 0.0
C2051 C 0.50227 0.75072 0.90177 0.0
C2052 C 0.50057 0.77904 0.8917 0.0
C2053 C 0.52304 0.80654 0.89382 0.0
C2054 C 0.53162 0.71915 0.92373 0.0
C2055 C 0.47395 0.7812 0.87924 0.0
C2056 C 0.45547 0.6673 0.89511 0.0
C2057 C 0.42816 0.67006 0.90543 0.0
C2058 C 0.479 0.69393 0.89316 0.0
C2059 C 0.47498 0.72427 0.90174 0.0
C2060 C 0.4464 0.72794 0.91163 0.0
C2061 C 0.42358 0.70052 0.91353 0.0
C2062 C 0.5087 0.68901 0.88234 0.0
C2063 C 0.44099 0.76013 0.92084 0.0
H2064 H 0.56795 0.77789 0.92455 0.0
H2065 H 0.5205 0.82923 0.88676 0.0
H2066 H 0.50933 0.71827 0.93158 0.0
H2067 H 0.53181 0.69497 0.91708 0.0
H2068 H 0.55525 0.72045 0.93073 0.0
H2069 H 0.47474 0.80599 0.87304 0.0
H2070 H 0.47815 0.76045 0.87081 0.0
H2071 H 0.44809 0.77775 0.8842 0.0
H2072 H 0.45962 0.64357 0.88913 0.0
H2073 H 0.40291 0.70241 0.92176 0.0
H2074 H 0.53319 0.69406 0.8883 0.0
H2075 H 0.50672 0.70748 0.87274 0.0
H2076 H 0.50946 0.66278 0.87747 0.0
H2077 H 0.46167 0.76277 0.92945 0.0
H2078 H 0.41608 0.76012 0.92694 0.0
H2079 H 0.44215 0.78285 0.91323 0.0
C2080 C 0.04989 0.29741 0.79256 0.0
C2081 C 0.05751 0.30949 0.77781 0.0
C2082 C 0.01971 0.27913 0.79556 0.0
C2083 C -0.00346 0.27268 0.78343 0.0
C2084 C 0.00333 0.28627 0.76867 0.0
C2085 C 0.0338 0.30426 0.76603 0.0
C2086 C 0.01407 0.26502 0.81149 0.0
C2087 C 0.97907 0.28058 0.75547 0.0
C2088 C 0.93897 0.19453 0.78241 0.0
C2089 C 0.9073 0.2084 0.78651 0.0
C2090 C 0.96858 0.21477 0.78225 0.0
C2091 C 0.96628 0.25006 0.78573 0.0
C2092 C 0.93448 0.26406 0.79019 0.0
C2093 C 0.90535 0.24306 0.79053 0.0
C2094 C 0.00224 0.19846 0.77813 0.0
C2095 C 0.93106 0.30142 0.7942 0.0
H2096 H 0.06833 0.30058 0.8016 0.0
H2097 H 0.03958 0.31338 0.75457 0.0
H2098 H 0.98661 0.26419 0.81457 0.0
H2099 H 0.0241 0.23852 0.81199 0.0
H2100 H 0.02783 0.28039 0.82025 0.0
H2101 H 0.98669 0.29507 0.74505 0.0
H2102 H 0.97826 0.25299 0.75255 0.0
H2103 H 0.95284 0.28835 0.75878 0.0
H2104 H 0.94054 0.16788 0.77909 0.0
H2105 H 0.88095 0.25389 0.7938 0.0
H2106 H 0.0216 0.20448 0.78701 0.0
H2107 H 0.0116 0.20901 0.76708 0.0
H2108 H 0.00021 0.17023 0.77705 0.0
H2109 H 0.95101 0.30897 0.80256 0.0
H2110 H 0.90562 0.30754 0.79911 0.0
H2111 H 0.93496 0.31708 0.78373 0.0
C2112 C 0.40922 0.27582 0.53315 0.0
C2113 C 0.41687 0.30444 0.5242 0.0
C2114 C 0.43023 0.24677 0.53271 0.0
C2115 C 0.46027 0.24727 0.52362 0.0
C2116 C 0.46625 0.27493 0.51352 0.0
C2117 C 0.4438 0.3028 0.51363 0.0
C2118 C 0.42192 0.21711 0.54312 0.0
C2119 C 0.49853 0.27729 0.50409 0.0
C2120 C 0.53228 0.19603 0.54149 0.0
C2121 C 0.53255 0.16704 0.53216 0.0
C2122 C 0.51024 0.22341 0.53825 0.0
C2123 C 0.48692 0.22072 0.52585 0.0
C2124 C 0.48788 0.19176 0.51618 0.0
C2125 C 0.51104 0.16547 0.51936 0.0
C2126 C 0.5108 0.25439 0.54857 0.0
C2127 C 0.46275 0.18726 0.50322 0.0
H2128 H 0.3889 0.27739 0.54159 0.0
H2129 H 0.45023 0.32545 0.50704 0.0
H2130 H 0.42938 0.19242 0.53785 0.0
H2131 H 0.43613 0.21995 0.55405 0.0
H2132 H 0.39424 0.21631 0.54586 0.0
H2133 H 0.49695 0.29768 0.49526 0.0
H2134 H 0.52027 0.28318 0.51181 0.0
H2135 H 0.50429 0.2527 0.49834 0.0
H2136 H 0.5479 0.19672 0.55169 0.0
H2137 H 0.51079 0.14248 0.5124 0.0
H2138 H 0.48777 0.2544 0.55597 0.0
H2139 H 0.5104 0.27821 0.54166 0.0
H2140 H 0.53366 0.25473 0.55609 0.0
H2141 H 0.43672 0.18408 0.50805 0.0
H2142 H 0.46873 0.1646 0.49603 0.0
H2143 H 0.46227 0.21022 0.49577 0.0
C2144 C 0.5477 0.79254 0.27722 0.0
C2145 C 0.57156 0.78438 0.28855 0.0
C2146 C 0.51481 0.77819 0.27747 0.0
C2147 C 0.50568 0.75516 0.28935 0.0
C2148 C 0.52944 0.74797 0.30117 0.0
C2149 C 0.56228 0.7625 0.30056 0.0
C2150 C 0.49012 0.78696 0.26479 0.0
C2151 C 0.5205 0.72421 0.3142 0.0
C2152 C 0.41067 0.73746 0.29436 0.0
C2153 C 0.40717 0.70597 0.28694 0.0
C2154 C 0.44268 0.75332 0.29564 0.0
C2155 C 0.47177 0.73765 0.28901 0.0
C2156 C 0.46823 0.70557 0.28158 0.0
C2157 C 0.43599 0.6898 0.28088 0.0
C2158 C 0.44524 0.78643 0.30439 0.0
C2159 C 0.49828 0.68835 0.274 0.0
H2160 H 0.55516 0.80935 0.26791 0.0
H2161 H 0.58099 0.75618 0.30927 0.0
H2162 H 0.48308 0.76344 0.25841 0.0
H2163 H 0.46632 0.79768 0.26973 0.0
H2164 H 0.50092 0.80577 0.25656 0.0
H2165 H 0.54092 0.72306 0.32301 0.0
H2166 H 0.49645 0.73259 0.31978 0.0
H2167 H 0.51617 0.69806 0.30969 0.0
H2168 H 0.38829 0.74954 0.29929 0.0
H2169 H 0.43307 0.6654 0.27514 0.0
H2170 H 0.46257 0.80474 0.29857 0.0
H2171 H 0.45582 0.78093 0.31592 0.0
H2172 H 0.41993 0.79874 0.30594 0.0
H2173 H 0.50899 0.70531 0.26499 0.0
H2174 H 0.49124 0.66356 0.26866 0.0
H2175 H 0.51875 0.68379 0.28253 0.0
C2176 C 0.94201 0.80132 0.02896 0.0
C2177 C 0.94413 0.82363 0.04144 0.0
C2178 C 0.95907 0.7697 0.02919 0.0
C2179 C 0.98024 0.76122 0.04184 0.0
C2180 C 0.98092 0.78296 0.0548 0.0
C2181 C 0.96195 0.81337 0.05458 0.0
C2182 C 0.95579 0.74616 0.01555 0.0
C2183 C 0.00392 0.77602 0.06835 0.0
C2184 C 0.01398 0.67028 0.04371 0.0
C2185 C 0.04322 0.67285 0.03454 0.0
C2186 C -0.00626 0.69909 0.04677 0.0
C2187 C 0.00363 0.73126 0.04079 0.0
C2188 C 0.03483 0.73426 0.03262 0.0
C2189 C 0.05392 0.7048 0.02929 0.0
C2190 C 0.96068 0.69462 0.05546 0.0
C2191 C 0.04731 0.76839 0.02683 0.0
H2192 H 0.92798 0.80909 0.01884 0.0
H2193 H 0.9626 0.82977 0.06448 0.0
H2194 H 0.97975 0.7467 0.00878 0.0
H2195 H 0.95165 0.71944 0.01941 0.0
H2196 H 0.93439 0.75372 0.00792 0.0
H2197 H -0.00467 0.78995 0.07877 0.0
H2198 H 0.00554 0.7484 0.07105 0.0
H2199 H 0.03007 0.78489 0.0655 0.0
H2200 H 0.00577 0.64531 0.04768 0.0
H2201 H 0.07662 0.70657 0.02221 0.0
H2202 H 0.93889 0.69984 0.04768 0.0
H2203 H 0.95902 0.71313 0.06506 0.0
H2204 H 0.95785 0.66839 0.06019 0.0
H2205 H 0.0309 0.77708 0.01724 0.0
H2206 H 0.07409 0.76713 0.02267 0.0
H2207 H 0.04565 0.78787 0.03606 0.0
C2208 C 0.23388 0.22128 0.25172 0.0
C2209 C 0.20906 0.19585 0.24961 0.0
C2210 C 0.24744 0.23951 0.23943 0.0
C2211 C 0.2364 0.23188 0.22442 0.0
C2212 C 0.21355 0.20418 0.22196 0.0
C2213 C 0.19989 0.18635 0.23468 0.0
C2214 C 0.27171 0.26862 0.24274 0.0
C2215 C 0.20256 0.19443 0.20597 0.0
C2216 C 0.23486 0.30701 0.19685 0.0
C2217 C 0.26609 0.30333 0.18929 0.0
C2218 C 0.22498 0.28385 0.20834 0.0
C2219 C 0.24616 0.25549 0.21177 0.0
C2220 C 0.27779 0.2517 0.2041 0.0
C2221 C 0.28761 0.27602 0.1931 0.0
C2222 C 0.1918 0.28964 0.21676 0.0
C2223 C 0.30069 0.22142 0.20711 0.0
H2224 H 0.24204 0.22793 0.26323 0.0
H2225 H 0.18124 0.16625 0.23298 0.0
H2226 H 0.29442 0.26734 0.23518 0.0
H2227 H 0.25867 0.29325 0.24043 0.0
H2228 H 0.28053 0.26867 0.25485 0.0
H2229 H 0.18903 0.16948 0.20575 0.0
H2230 H 0.18524 0.21431 0.20133 0.0
H2231 H 0.22502 0.19305 0.19822 0.0
H2232 H 0.21801 0.32777 0.19364 0.0
H2233 H 0.3113 0.27263 0.18684 0.0
H2234 H 0.19643 0.29056 0.22931 0.0
H2235 H 0.17412 0.26806 0.21455 0.0
H2236 H 0.1791 0.31377 0.21324 0.0
H2237 H 0.30601 0.21883 0.21955 0.0
H2238 H 0.32537 0.22337 0.20088 0.0
H2239 H 0.28756 0.19768 0.20341 0.0
C2240 C 0.96858 0.07001 0.44465 0.0
C2241 C 0.93863 0.05221 0.44095 0.0
C2242 C 0.98857 0.06067 0.45739 0.0
C2243 C 0.97937 0.03177 0.46628 0.0
C2244 C 0.94838 0.01446 0.46288 0.0
C2245 C 0.92804 0.02534 0.45045 0.0
C2246 C 0.0206 0.08068 0.4608 0.0
C2247 C 0.93808 0.98276 0.47159 0.0
C2248 C 0.0527 0.97805 0.48149 0.0
C2249 C 0.05025 0.98219 0.4975 0.0
C2250 C 0.02998 -0.00594 0.47138 0.0
C2251 C 0.00471 0.01637 0.47721 0.0
C2252 C 0.00361 0.02289 0.49326 0.0
C2253 C 0.02609 0.00533 0.50327 0.0
C2254 C 0.03198 0.98553 0.45448 0.0
C2255 C 0.97804 0.04757 0.4999 0.0
H2256 H 0.97673 0.09099 0.43739 0.0
H2257 H 0.90503 0.01137 0.44754 0.0
H2258 H 0.02324 0.08498 0.47333 0.0
H2259 H 0.04322 0.06598 0.45695 0.0
H2260 H 0.02079 0.1058 0.45486 0.0
H2261 H 0.91181 0.9743 0.46867 0.0
H2262 H 0.95606 0.96174 0.4688 0.0
H2263 H 0.93958 0.98721 0.48412 0.0
H2264 H 0.07143 0.96052 0.47681 0.0
H2265 H 0.02375 0.00863 0.51556 0.0
H2266 H 0.03663 0.00901 0.44767 0.0
H2267 H 0.00735 0.97457 0.45057 0.0
H2268 H 0.05258 0.96693 0.45185 0.0
H2269 H 0.97882 0.0721 0.49352 0.0
H2270 H 0.98282 0.0527 0.51224 0.0
H2271 H 0.95192 0.03701 0.49866 0.0
C2272 C 0.28107 0.73962 0.75245 0.0
C2273 C 0.28368 0.77522 0.75055 0.0
C2274 C 0.26406 0.71915 0.74177 0.0
C2275 C 0.24953 0.73442 0.72866 0.0
C2276 C 0.25006 0.77057 0.7271 0.0
C2277 C 0.26704 0.79068 0.73816 0.0
C2278 C 0.26349 0.68089 0.7441 0.0
C2279 C 0.2343 0.78778 0.71335 0.0
C2280 C 0.25271 0.68398 0.69162 0.0
C2281 C 0.21853 0.67458 0.68956 0.0
C2282 C 0.26305 0.70277 0.70446 0.0
C2283 C 0.23863 0.71229 0.71564 0.0
C2284 C 0.2045 0.70063 0.71425 0.0
C2285 C 0.1948 0.68179 0.70117 0.0
C2286 C 0.29983 0.71407 0.70559 0.0
C2287 C 0.17782 0.70985 0.72603 0.0
H2288 H 0.29295 0.72743 0.76226 0.0
H2289 H 0.26851 0.81816 0.73677 0.0
H2290 H 0.23752 0.67057 0.74206 0.0
H2291 H 0.28089 0.6686 0.7357 0.0
H2292 H 0.27173 0.67351 0.75583 0.0
H2293 H 0.23353 0.81602 0.71461 0.0
H2294 H 0.24931 0.78142 0.70294 0.0
H2295 H 0.20796 0.77824 0.71151 0.0
H2296 H 0.27105 0.67851 0.68262 0.0
H2297 H 0.16821 0.67508 0.69949 0.0
H2298 H 0.3109 0.70571 0.71668 0.0
H2299 H 0.30123 0.74238 0.70522 0.0
H2300 H 0.31579 0.70366 0.69614 0.0
H2301 H 0.18775 0.70617 0.73783 0.0
H2302 H 0.1542 0.69445 0.72464 0.0
H2303 H 0.1711 0.73725 0.7248 0.0
C2304 C 0.44125 -0.0054 -0.00951 0.0
C2305 C 0.43335 0.02724 -0.00395 0.0
C2306 C 0.46525 0.99004 -0.02131 0.0
C2307 C 0.48288 0.01873 -0.02736 0.0
C2308 C 0.47372 0.05195 -0.02234 0.0
C2309 C 0.44873 0.05581 -0.01082 0.0
C2310 C 0.47267 0.95424 -0.02687 0.0
C2311 C 0.49204 0.08326 -0.0282 0.0
C2312 C 0.565 0.98409 0.95565 0.0
C2313 C 0.55598 0.98203 0.94016 0.0
C2314 C 0.54338 0.00101 0.9662 0.0
C2315 C 0.51103 0.01326 0.96126 0.0
C2316 C 0.50383 0.0143 0.94539 0.0
C2317 C 0.52751 0.00067 0.93502 0.0
C2318 C 0.55355 0.00268 -0.01715 0.0
C2319 C 0.46913 0.02447 0.93938 0.0
H2320 H 0.42962 0.97245 -0.00415 0.0
H2321 H 0.44329 0.08108 -0.00635 0.0
H2322 H 0.47298 0.95342 0.9604 0.0
H2323 H 0.49823 0.94614 -0.02281 0.0
H2324 H 0.45358 0.93549 -0.02263 0.0
H2325 H 0.4782 0.10715 -0.02525 0.0
H2326 H 0.51781 0.08435 -0.02296 0.0
H2327 H 0.49557 0.08225 0.95919 0.0
H2328 H 0.58697 0.96999 0.95976 0.0
H2329 H 0.52051 -0.00088 0.92299 0.0
H2330 H 0.54122 0.98148 -0.01077 0.0
H2331 H 0.545 0.0271 -0.01193 0.0
H2332 H 0.58163 0.00031 -0.01576 0.0
H2333 H 0.45125 0.00276 0.94104 0.0
H2334 H 0.46994 0.03059 0.92694 0.0
H2335 H 0.45854 0.0467 0.94563 0.0
C2336 C 0.31706 0.69166 0.23214 0.0
C2337 C 0.28815 0.67904 0.23982 0.0
C2338 C 0.3138 0.71272 0.21904 0.0
C2339 C 0.28092 0.72092 0.21334 0.0
C2340 C 0.25194 0.70549 0.22024 0.0
C2341 C 0.25589 0.68518 0.23345 0.0
C2342 C 0.34538 0.72848 0.21213 0.0
C2343 C 0.21636 0.71276 0.21449 0.0
C2344 C 0.25837 0.80853 0.19754 0.0
C2345 C 0.25071 0.8013 0.18215 0.0
C2346 C 0.27053 0.78313 0.20754 0.0
C2347 C 0.27597 0.74952 0.202 0.0
C2348 C 0.2721 0.74308 0.18605 0.0
C2349 C 0.2593 0.76902 0.17631 0.0
C2350 C 0.27396 0.7915 0.22439 0.0
C2351 C 0.27833 0.70799 0.1795 0.0
H2352 H 0.34209 0.68745 0.23708 0.0
H2353 H 0.23344 0.67557 0.23933 0.0
H2354 H 0.34411 0.72796 0.19942 0.0
H2355 H 0.34713 0.75565 0.21569 0.0
H2356 H 0.36895 0.71518 0.21591 0.0
H2357 H 0.1972 0.69509 0.21955 0.0
H2358 H 0.20918 0.73933 0.21755 0.0
H2359 H 0.21526 0.71054 0.20182 0.0
H2360 H 0.25128 0.83326 0.20219 0.0
H2361 H 0.25278 0.7629 0.16454 0.0
H2362 H 0.29863 0.782 0.22892 0.0
H2363 H 0.25331 0.77857 0.2309 0.0
H2364 H 0.27225 0.8194 0.22662 0.0
H2365 H 0.30178 0.69657 0.18443 0.0
H2366 H 0.28075 0.70866 0.16681 0.0
H2367 H 0.25662 0.69105 0.18251 0.0
C2368 C 0.52572 -0.00449 0.49807 0.0
C2369 C 0.54612 0.02378 0.4944 0.0
C2370 C 0.50377 0.98094 0.48726 0.0
C2371 C 0.50291 -0.00567 0.47221 0.0
C2372 C 0.52531 0.02137 0.46809 0.0
C2373 C 0.54639 0.03624 0.47936 0.0
C2374 C 0.47985 0.95276 0.49225 0.0
C2375 C 0.52567 0.03564 0.45201 0.0
C2376 C 0.465 0.93807 0.4413 0.0
C2377 C 0.4333 0.95352 0.43871 0.0
C2378 C 0.48786 0.95116 0.45211 0.0
C2379 C 0.4784 0.97995 0.4609 0.0
C2380 C 0.44539 -0.00563 0.45907 0.0
C2381 C 0.42314 0.981 0.44789 0.0
C2382 C 0.5227 0.93503 0.45365 0.0
C2383 C 0.43412 0.02465 0.46852 0.0
H2384 H 0.52485 0.98662 0.50985 0.0
H2385 H 0.56134 0.05877 0.47667 0.0
H2386 H 0.45305 0.96165 0.49127 0.0
H2387 H 0.48265 0.93019 0.48467 0.0
H2388 H 0.48446 0.94463 0.50429 0.0
H2389 H 0.54641 0.05464 0.45032 0.0
H2390 H 0.52891 0.01471 0.44355 0.0
H2391 H 0.50089 0.04817 0.44954 0.0
H2392 H 0.47252 0.91635 0.43441 0.0
H2393 H 0.39872 0.99312 0.44577 0.0
H2394 H 0.5271 0.92683 0.46566 0.0
H2395 H 0.54268 0.9541 0.45078 0.0
H2396 H 0.52591 0.91252 0.44601 0.0
H2397 H 0.43761 0.01922 0.48092 0.0
H2398 H 0.40697 0.03138 0.46646 0.0
H2399 H 0.45018 0.04714 0.4657 0.0
C2400 C 0.25268 0.18097 0.70213 0.0
C2401 C 0.28628 0.1748 0.6973 0.0
C2402 C 0.24569 0.20028 0.7154 0.0
C2403 C 0.27297 0.21433 0.72404 0.0
C2404 C 0.30689 0.20501 0.72014 0.0
C2405 C 0.31314 0.18521 0.70686 0.0
C2406 C 0.20906 0.20888 0.71909 0.0
C2407 C 0.33682 0.21906 0.72897 0.0
C2408 C 0.25054 0.30326 0.73863 0.0
C2409 C 0.23976 0.29689 0.75372 0.0
C2410 C 0.26358 0.27706 0.72926 0.0
C2411 C 0.266 0.24326 0.73503 0.0
C2412 C 0.25792 0.23725 0.7507 0.0
C2413 C 0.24488 0.26413 0.75986 0.0
C2414 C 0.27185 0.28509 0.71271 0.0
C2415 C 0.26027 0.20187 0.75744 0.0
H2416 H 0.23181 0.17353 0.69467 0.0
H2417 H 0.3392 0.18127 0.70306 0.0
H2418 H 0.20433 0.20722 0.73162 0.0
H2419 H 0.20368 0.23553 0.71547 0.0
H2420 H 0.19093 0.19164 0.71309 0.0
H2421 H 0.36053 0.20439 0.72665 0.0
H2422 H 0.34118 0.24603 0.72555 0.0
H2423 H 0.33164 0.21876 0.74148 0.0
H2424 H 0.24616 0.32835 0.73372 0.0
H2425 H 0.23583 0.25868 0.77136 0.0
H2426 H 0.25252 0.27304 0.70514 0.0
H2427 H 0.2971 0.27442 0.70954 0.0
H2428 H 0.27205 0.31301 0.71041 0.0
H2429 H 0.23869 0.18618 0.75317 0.0
H2430 H 0.25913 0.20237 0.77017 0.0
H2431 H 0.28425 0.18913 0.75382 0.0
C2432 C 0.03386 0.02996 0.95028 0.0
C2433 C 0.03758 0.01056 0.93683 0.0
C2434 C 0.01171 0.01919 0.96213 0.0
C2435 C 0.99269 0.98854 0.9604 0.0
C2436 C -0.00426 0.96952 0.94669 0.0
C2437 C 0.01823 0.98052 0.93523 0.0
C2438 C 0.00938 0.04 -0.02333 0.0
C2439 C 0.97607 0.93673 0.9443 0.0
C2440 C 0.97332 0.93233 -0.00544 0.0
C2441 C 0.93857 0.93873 -0.00251 0.0
C2442 C 0.99121 0.94968 -0.0169 0.0
C2443 C 0.97385 0.97316 -0.02639 0.0
C2444 C 0.93848 0.97914 -0.02397 0.0
C2445 C 0.92126 0.96212 -0.01191 0.0
C2446 C 0.02895 0.94279 -0.01882 0.0
C2447 C 0.91901 0.00356 0.96593 0.0
H2448 H 0.04825 0.05344 0.95156 0.0
H2449 H 0.02046 0.96536 0.92487 0.0
H2450 H 0.98231 0.04534 -0.02049 0.0
H2451 H 0.02024 0.02521 -0.01364 0.0
H2452 H 0.02333 0.06464 -0.02426 0.0
H2453 H 0.97839 0.92698 0.93238 0.0
H2454 H 0.98574 0.91682 0.95224 0.0
H2455 H 0.94864 0.94066 0.94693 0.0
H2456 H 0.98723 0.91432 0.00163 0.0
H2457 H 0.89459 0.96754 -0.00969 0.0
H2458 H 0.04345 0.96714 -0.01856 0.0
H2459 H 0.03373 0.93065 -0.03011 0.0
H2460 H 0.03918 0.92576 -0.00973 0.0
H2461 H 0.93069 0.02935 0.96652 0.0
H2462 H 0.89171 0.00551 -0.03073 0.0
H2463 H 0.92053 -0.00495 0.9538 0.0
C2464 C 0.7114 0.67708 0.73101 0.0
C2465 C 0.69724 0.68966 0.74458 0.0
C2466 C 0.71741 0.69916 0.71856 0.0
C2467 C 0.70936 0.73442 0.71997 0.0
C2468 C 0.69236 0.74632 0.73324 0.0
C2469 C 0.68659 0.72375 0.74541 0.0
C2470 C 0.73518 0.68534 0.70451 0.0
C2471 C 0.68322 0.78353 0.73521 0.0
C2472 C 0.774 0.79343 0.70171 0.0
C2473 C 0.75808 0.80193 0.68788 0.0
C2474 C 0.75788 0.77223 0.71241 0.0
C2475 C 0.72477 0.75959 0.70924 0.0
C2476 C 0.70756 0.77013 0.69576 0.0
C2477 C 0.72465 0.79106 0.68511 0.0
C2478 C 0.77734 0.76137 0.72657 0.0
C2479 C 0.67214 0.75748 0.6921 0.0
H2480 H 0.71946 0.65061 0.73044 0.0
H2481 H 0.6755 0.73326 0.75598 0.0
H2482 H 0.72462 0.69681 0.6939 0.0
H2483 H 0.76268 0.69204 0.70505 0.0
H2484 H 0.73294 0.65709 0.70374 0.0
H2485 H 0.66478 0.78743 0.74474 0.0
H2486 H 0.70667 0.79834 0.73781 0.0
H2487 H 0.67216 0.79409 0.72451 0.0
H2488 H 0.80032 0.80104 0.70357 0.0
H2489 H 0.71291 0.79674 0.67414 0.0
H2490 H 0.78175 0.73336 0.72627 0.0
H2491 H 0.76226 0.76703 0.73703 0.0
H2492 H 0.80246 0.77436 0.72753 0.0
H2493 H 0.67288 0.72957 0.68991 0.0
H2494 H 0.66124 0.77036 0.68186 0.0
H2495 H 0.65489 0.76173 0.70202 0.0
C2496 C 0.80824 0.26228 0.24653 0.0
C2497 C 0.79517 0.2952 0.24903 0.0
C2498 C 0.7925 0.23954 0.23628 0.0
C2499 C 0.76256 0.2497 0.22847 0.0
C2500 C 0.74975 0.28332 0.23062 0.0
C2501 C 0.76643 0.30582 0.24079 0.0
C2502 C 0.80738 0.20428 0.23413 0.0
C2503 C 0.71784 0.29513 0.22254 0.0
C2504 C 0.73448 0.20404 0.19216 0.0
C2505 C 0.7058 0.18583 0.19722 0.0
C2506 C 0.75371 0.2242 0.20225 0.0
C2507 C 0.74476 0.22531 0.21797 0.0
C2508 C 0.71759 0.20451 0.2234 0.0
C2509 C 0.69784 0.18559 0.21287 0.0
C2510 C 0.78179 0.24644 0.19582 0.0
C2511 C 0.70803 0.204 0.24016 0.0
H2512 H 0.8306 0.25406 0.25284 0.0
H2513 H 0.756 0.33106 0.24286 0.0
H2514 H 0.78877 0.18478 0.23806 0.0
H2515 H 0.81236 0.19941 0.2218 0.0
H2516 H 0.83157 0.2008 0.24057 0.0
H2517 H 0.71167 0.32224 0.2251 0.0
H2518 H 0.72084 0.29217 0.20995 0.0
H2519 H 0.69591 0.279 0.22608 0.0
H2520 H 0.73991 0.2051 0.17995 0.0
H2521 H 0.67511 0.1723 0.21673 0.0
H2522 H 0.8055 0.24349 0.20262 0.0
H2523 H 0.77403 0.27367 0.19657 0.0
H2524 H 0.78748 0.24041 0.18363 0.0
H2525 H 0.73104 0.20022 0.24737 0.0
H2526 H 0.68932 0.18349 0.24282 0.0
H2527 H 0.69669 0.22895 0.2434 0.0
C2528 C 0.73309 0.26688 0.68585 0.0
C2529 C 0.71382 0.29642 0.68875 0.0
C2530 C 0.74985 0.24932 0.6976 0.0
C2531 C 0.74731 0.26134 0.71285 0.0
C2532 C 0.72921 0.29215 0.71584 0.0
C2533 C 0.71268 0.30952 0.70369 0.0
C2534 C 0.76923 0.21708 0.69372 0.0
C2535 C 0.72603 0.30582 0.73196 0.0
C2536 C 0.75909 0.19166 0.74302 0.0
C2537 C 0.79246 0.19778 0.74799 0.0
C2538 C 0.74363 0.21307 0.73205 0.0
C2539 C 0.76243 0.24049 0.72554 0.0
C2540 C 0.79653 0.24611 0.73031 0.0
C2541 C 0.81084 0.22517 0.74173 0.0
C2542 C 0.70702 0.20658 0.72756 0.0
C2543 C 0.81797 0.27406 0.72327 0.0
H2544 H 0.73429 0.25684 0.67426 0.0
H2545 H 0.6977 0.33224 0.70598 0.0
H2546 H 0.79542 0.21821 0.69852 0.0
H2547 H 0.75627 0.19471 0.69894 0.0
H2548 H 0.77106 0.21277 0.68115 0.0
H2549 H 0.71335 0.33119 0.73228 0.0
H2550 H 0.71099 0.28765 0.73903 0.0
H2551 H 0.75158 0.30808 0.73733 0.0
H2552 H 0.74462 0.171 0.74817 0.0
H2553 H 0.83654 0.23012 0.74577 0.0
H2554 H 0.70562 0.19984 0.71522 0.0
H2555 H 0.69172 0.23015 0.72923 0.0
H2556 H 0.69528 0.1856 0.73433 0.0
H2557 H 0.81975 0.27027 0.71068 0.0
H2558 H 0.84421 0.27476 0.72808 0.0
H2559 H 0.80575 0.29925 0.72521 0.0
C2560 C 0.72363 0.79191 0.24932 0.0
C2561 C 0.69029 0.80041 0.24493 0.0
C2562 C 0.74404 0.77063 0.24018 0.0
C2563 C 0.73117 0.75839 0.22605 0.0
C2564 C 0.69772 0.76761 0.22138 0.0
C2565 C 0.67735 0.7879 0.23108 0.0
C2566 C 0.77907 0.76064 0.24581 0.0
C2567 C 0.68355 0.75613 0.20613 0.0
C2568 C 0.79482 0.73939 0.19465 0.0
C2569 C 0.7918 0.70376 0.19279 0.0
C2570 C 0.77545 0.75718 0.20545 0.0
C2571 C 0.75382 0.73889 0.21545 0.0
C2572 C 0.75299 0.70261 0.21474 0.0
C2573 C 0.77156 0.68538 0.20318 0.0
C2574 C 0.77653 0.79583 0.20543 0.0
C2575 C 0.73161 0.68219 0.22583 0.0
H2576 H 0.7331 0.80049 0.26036 0.0
H2577 H 0.6512 0.79363 0.22795 0.0
H2578 H 0.78156 0.73239 0.2459 0.0
H2579 H 0.79891 0.7707 0.23794 0.0
H2580 H 0.78434 0.77045 0.25753 0.0
H2581 H 0.65731 0.76585 0.2041 0.0
H2582 H 0.70032 0.76521 0.1967 0.0
H2583 H 0.68307 0.72783 0.20557 0.0
H2584 H 0.81086 0.75405 0.18693 0.0
H2585 H 0.76927 0.65791 0.20196 0.0
H2586 H 0.78392 0.80556 0.21689 0.0
H2587 H 0.75076 0.80607 0.20284 0.0
H2588 H 0.79474 0.80618 0.19683 0.0
H2589 H 0.7366 0.69067 0.23777 0.0
H2590 H 0.73679 0.65435 0.22497 0.0
H2591 H 0.70416 0.68663 0.22348 0.0
C2592 C 0.54829 0.42279 -0.01955 0.0
C2593 C 0.55717 0.45059 -0.01018 0.0
C2594 C 0.5271 0.42723 0.9675 0.0
C2595 C 0.51497 0.46029 0.96368 0.0
C2596 C 0.52636 0.48871 -0.02761 0.0
C2597 C 0.54697 0.48348 -0.01462 0.0
C2598 C 0.51551 0.39622 0.95865 0.0
C2599 C 0.51472 0.52455 0.96868 0.0
C2600 C 0.46851 0.48543 0.9268 0.0
C2601 C 0.43497 0.48913 0.93219 0.0
C2602 C 0.49471 0.47355 0.93656 0.0
C2603 C 0.48712 0.46508 0.95203 0.0
C2604 C 0.45264 0.46558 0.95697 0.0
C2605 C 0.42712 0.47763 0.94702 0.0
C2606 C 0.53094 0.47339 0.93073 0.0
C2607 C 0.44303 0.45669 -0.02673 0.0
H2608 H 0.55566 0.39722 -0.01611 0.0
H2609 H 0.55372 0.50509 -0.00745 0.0
H2610 H 0.48842 0.39077 0.96144 0.0
H2611 H 0.51705 0.40096 0.94612 0.0
H2612 H 0.53092 0.37325 0.96148 0.0
H2613 H 0.52917 0.54413 -0.02477 0.0
H2614 H 0.51769 0.52983 0.95625 0.0
H2615 H 0.48723 0.5272 -0.02848 0.0
H2616 H 0.47498 0.49518 0.91553 0.0
H2617 H 0.40139 0.48114 0.95135 0.0
H2618 H 0.54466 0.45021 0.93468 0.0
H2619 H 0.54466 0.49593 0.93538 0.0
H2620 H 0.53201 0.47454 0.91801 0.0
H2621 H 0.45542 0.4325 -0.02315 0.0
H2622 H 0.41499 0.45403 -0.02526 0.0
H2623 H 0.45213 0.47713 -0.01891 0.0
C2624 C 0.93243 0.49022 0.4876 0.0
C2625 C 0.93438 0.49717 0.50337 0.0
C2626 C 0.96089 0.47851 0.47933 0.0
C2627 C 0.99224 0.47286 0.48703 0.0
C2628 C -0.00661 0.47644 0.50323 0.0
C2629 C 0.96445 0.4887 0.51123 0.0
C2630 C 0.95816 0.47542 0.46209 0.0
C2631 C 0.02595 0.47013 0.51196 0.0
C2632 C 0.05584 0.43057 0.45999 0.0
C2633 C 0.06999 0.45931 0.45274 0.0
C2634 C 0.03275 0.4342 0.47233 0.0
C2635 C 0.02404 0.46729 0.47768 0.0
C2636 C 0.04175 0.49594 0.47165 0.0
C2637 C 0.06425 0.49162 0.4592 0.0
C2638 C 0.01472 0.40292 0.47837 0.0
C2639 C 0.03386 0.53175 0.47702 0.0
H2640 H 0.9094 0.49711 0.48143 0.0
H2641 H 0.96646 0.49464 0.52334 0.0
H2642 H 0.97367 0.49575 0.45657 0.0
H2643 H 0.96838 0.45048 0.45817 0.0
H2644 H 0.93143 0.47791 0.458 0.0
H2645 H 0.02143 0.46875 0.52453 0.0
H2646 H 0.03813 0.44603 0.50811 0.0
H2647 H 0.04418 0.49122 0.50967 0.0
H2648 H 0.05954 0.40558 0.45488 0.0
H2649 H 0.07471 0.51396 0.45353 0.0
H2650 H 0.98894 0.4013 0.47316 0.0
H2651 H 0.01139 0.40447 0.49099 0.0
H2652 H 0.02882 0.37914 0.47551 0.0
H2653 H 0.00927 0.54012 0.47196 0.0
H2654 H 0.05398 0.55016 0.47347 0.0
H2655 H 0.03118 0.53269 0.48967 0.0
C2656 C 0.01206 0.48545 0.00945 0.0
C2657 C 0.04309 0.49597 0.00294 0.0
C2658 C 0.98569 0.47185 0.00022 0.0
C2659 C 0.9905 0.46883 -0.01588 0.0
C2660 C 0.02289 0.47678 -0.0222 0.0
C2661 C 0.04866 0.49009 -0.01274 0.0
C2662 C 0.95185 0.46344 0.00752 0.0
C2663 C 0.02954 0.47407 0.96076 0.0
C2664 C 0.93611 0.42125 0.95494 0.0
C2665 C 0.92169 0.4486 0.9468 0.0
C2666 C 0.9562 0.42698 0.96812 0.0
C2667 C 0.96142 0.46079 -0.02653 0.0
C2668 C 0.94333 0.48791 0.96635 0.0
C2669 C 0.92418 0.48157 0.95298 0.0
C2670 C 0.975 0.39728 -0.02481 0.0
C2671 C 0.94728 0.5243 -0.0282 0.0
H2672 H 0.00724 0.49067 0.02147 0.0
H2673 H 0.07241 0.49862 -0.01787 0.0
H2674 H 0.93325 0.48393 0.0048 0.0
H2675 H 0.94151 0.43915 0.0029 0.0
H2676 H 0.95393 0.46133 0.0202 0.0
H2677 H 0.05684 0.47819 0.95785 0.0
H2678 H 0.0217 0.4486 0.95642 0.0
H2679 H 0.01415 0.49351 0.95459 0.0
H2680 H 0.93501 0.39582 0.95003 0.0
H2681 H 0.91359 0.50287 0.94661 0.0
H2682 H 0.97531 0.39933 -0.01212 0.0
H2683 H 0.00189 0.39755 -0.02882 0.0
H2684 H 0.96344 0.37242 -0.02811 0.0
H2685 H 0.94659 0.52562 -0.0155 0.0
H2686 H 0.92698 0.54113 0.96711 0.0
H2687 H 0.97238 0.53434 0.96798 0.0
C2688 C 0.45303 0.45538 0.48777 0.0
C2689 C 0.44638 0.46822 0.50244 0.0
C2690 C 0.47046 0.47507 0.47693 0.0
C2691 C 0.48242 0.50792 0.48111 0.0
C2692 C 0.47523 0.52119 0.49588 0.0
C2693 C 0.45678 0.50121 0.50637 0.0
C2694 C 0.47646 0.46051 0.46109 0.0
C2695 C 0.48807 0.55588 0.50075 0.0
C2696 C 0.55185 0.5376 0.45395 0.0
C2697 C 0.53257 0.55693 0.4436 0.0
C2698 C 0.53641 0.52364 0.46711 0.0
C2699 C 0.50099 0.52867 0.46963 0.0
C2700 C 0.48221 0.55022 0.45981 0.0
C2701 C 0.49843 0.5647 0.44714 0.0
C2702 C 0.55736 0.50153 0.47769 0.0
C2703 C 0.44418 0.55526 0.46172 0.0
H2704 H 0.44508 0.4296 0.4849 0.0
H2705 H 0.45215 0.51057 0.51789 0.0
H2706 H 0.46667 0.47835 0.45223 0.0
H2707 H 0.50422 0.45737 0.45905 0.0
H2708 H 0.46388 0.43531 0.45949 0.0
H2709 H 0.48028 0.56241 0.51265 0.0
H2710 H 0.51634 0.55646 0.50003 0.0
H2711 H 0.47831 0.57589 0.49289 0.0
H2712 H 0.57829 0.53182 0.45138 0.0
H2713 H 0.48342 0.58023 0.43937 0.0
H2714 H 0.5513 0.47425 0.47555 0.0
H2715 H 0.55109 0.50707 0.48986 0.0
H2716 H 0.58517 0.50533 0.47589 0.0
H2717 H 0.4308 0.53102 0.45896 0.0
H2718 H 0.4341 0.57559 0.45407 0.0
H2719 H 0.43778 0.56189 0.47374 0.0
C2720 C 0.27851 0.0856 0.31243 0.0
C2721 C 0.25023 0.09888 0.3202 0.0
C2722 C 0.30362 0.06752 0.32051 0.0
C2723 C 0.29992 0.06321 0.33655 0.0
C2724 C 0.27497 0.08235 0.34457 0.0
C2725 C 0.24994 0.09967 0.33622 0.0
C2726 C 0.33056 0.04852 0.31157 0.0
C2727 C 0.27094 0.07967 0.36175 0.0
C2728 C 0.30072 0.97428 0.3529 0.0
C2729 C 0.32917 0.97539 0.36254 0.0
C2730 C 0.29242 0.00204 0.34356 0.0
C2731 C 0.31311 0.03178 0.34391 0.0
C2732 C 0.34332 0.03214 0.35275 0.0
C2733 C 0.35104 0.00384 0.36202 0.0
C2734 C 0.26017 0.00021 0.33407 0.0
C2735 C 0.36633 0.06304 0.3532 0.0
H2736 H 0.27868 0.08529 0.29999 0.0
H2737 H 0.2281 0.11047 0.34215 0.0
H2738 H 0.35433 0.04555 0.31834 0.0
H2739 H 0.32093 0.02261 0.30872 0.0
H2740 H 0.33659 0.06184 0.30064 0.0
H2741 H 0.25592 0.10138 0.36644 0.0
H2742 H 0.25727 0.05561 0.36458 0.0
H2743 H 0.29611 0.07899 0.36753 0.0
H2744 H 0.28411 0.95211 0.35305 0.0
H2745 H 0.37326 0.0048 0.3694 0.0
H2746 H 0.26564 0.00701 0.32197 0.0
H2747 H 0.2412 0.01878 0.33852 0.0
H2748 H 0.24841 0.97438 0.33428 0.0
H2749 H 0.36829 0.07524 0.34174 0.0
H2750 H 0.39235 0.0563 0.35724 0.0
H2751 H 0.35554 0.08219 0.36123 0.0
C2752 C 0.26351 0.08463 0.59786 0.0
C2753 C 0.25755 0.0981 0.6125 0.0
C2754 C 0.23676 0.07108 0.58903 0.0
C2755 C 0.20321 0.07036 0.59515 0.0
C2756 C 0.19658 0.0872 0.60926 0.0
C2757 C 0.22391 0.10095 0.61778 0.0
C2758 C 0.24534 0.05361 0.57407 0.0
C2759 C 0.16129 0.08743 0.61616 0.0
C2760 C 0.13998 0.02622 0.56816 0.0
C2761 C 0.14279 0.99232 0.57322 0.0
C2762 C 0.15699 0.0529 0.57603 0.0
C2763 C 0.17817 0.04513 0.58879 0.0
C2764 C 0.17882 0.01131 0.59452 0.0
C2765 C 0.16033 0.98579 0.58698 0.0
C2766 C 0.154 0.08895 0.57014 0.0
C2767 C 0.20164 0.00115 0.60775 0.0
H2768 H 0.28959 0.08222 0.59382 0.0
H2769 H 0.21928 0.1109 0.62921 0.0
H2770 H 0.24524 0.0255 0.57581 0.0
H2771 H 0.22606 0.05959 0.56517 0.0
H2772 H 0.27089 0.06123 0.56973 0.0
H2773 H 0.15853 0.10798 0.62487 0.0
H2774 H 0.14157 0.09087 0.60717 0.0
H2775 H 0.15639 0.0626 0.6219 0.0
H2776 H 0.12635 0.03164 0.55763 0.0
H2777 H 0.16209 0.9598 0.59122 0.0
H2778 H 0.1773 0.09571 0.56358 0.0
H2779 H 0.15175 0.10726 0.57981 0.0
H2780 H 0.1316 0.092 0.56246 0.0
H2781 H 0.22877 0.00511 0.60451 0.0
H2782 H 0.19832 0.97395 0.61109 0.0
H2783 H 0.19642 0.01729 0.61792 0.0
C2784 C 0.19041 0.98886 0.86844 0.0
C2785 C 0.15566 0.99238 0.8719 0.0
C2786 C 0.20208 0.96379 0.85834 0.0
C2787 C 0.17843 0.94111 0.85149 0.0
C2788 C 0.14345 0.94293 0.85572 0.0
C2789 C 0.13234 0.96874 0.86593 0.0
C2790 C 0.23964 0.96308 0.85432 0.0
C2791 C 0.11766 0.9187 0.84895 0.0
C2792 C 0.21535 0.91587 0.81327 0.0
C2793 C 0.23594 0.88831 0.8176 0.0
C2794 C 0.19301 0.93122 0.82382 0.0
C2795 C 0.19079 0.91817 0.83896 0.0
C2796 C 0.20822 0.88752 0.84268 0.0
C2797 C 0.23126 0.87334 0.83203 0.0
C2798 C 0.17577 0.96426 0.81937 0.0
C2799 C 0.20584 0.87213 0.8585 0.0
H2800 H 0.20858 0.00682 0.87326 0.0
H2801 H 0.10546 0.97145 0.86859 0.0
H2802 H 0.25039 0.93734 0.85648 0.0
H2803 H 0.24306 0.96875 0.84194 0.0
H2804 H 0.25468 0.98197 0.86101 0.0
H2805 H 0.09288 0.91976 0.85512 0.0
H2806 H 0.11317 0.92543 0.83676 0.0
H2807 H 0.12745 0.8921 0.84923 0.0
H2808 H 0.21963 0.92793 0.80223 0.0
H2809 H 0.24767 0.8524 0.83548 0.0
H2810 H 0.18997 0.986 0.82449 0.0
H2811 H 0.14928 0.96519 0.82381 0.0
H2812 H 0.17521 0.96784 0.80673 0.0
H2813 H 0.22334 0.88593 0.86635 0.0
H2814 H 0.21327 0.84473 0.85843 0.0
H2815 H 0.17959 0.87452 0.86317 0.0
C2816 C 0.2845 0.90677 0.13038 0.0
C2817 C 0.26658 0.87707 0.12627 0.0
C2818 C 0.30384 0.92511 0.11953 0.0
C2819 C 0.30712 0.91238 0.10437 0.0
C2820 C 0.29382 0.87949 0.10098 0.0
C2821 C 0.27298 0.8626 0.11184 0.0
C2822 C 0.31605 0.96049 0.12372 0.0
C2823 C 0.298 0.86405 0.08525 0.0
C2824 C 0.29845 0.97951 0.07308 0.0
C2825 C 0.33245 0.98705 0.06918 0.0
C2826 C 0.2902 0.95496 0.08418 0.0
C2827 C 0.31651 0.93643 0.09157 0.0
C2828 C 0.35095 0.94256 0.0872 0.0
C2829 C 0.35858 0.96798 0.07611 0.0
C2830 C 0.2531 0.95002 0.08845 0.0
C2831 C 0.37972 0.92298 0.09454 0.0
H2832 H 0.27899 0.91857 0.14137 0.0
H2833 H 0.2588 0.84006 0.10841 0.0
H2834 H 0.34177 0.96556 0.11895 0.0
H2835 H 0.29833 0.97966 0.11876 0.0
H2836 H 0.31681 0.96432 0.13635 0.0
H2837 H 0.29385 0.83597 0.08546 0.0
H2838 H 0.27906 0.87547 0.07731 0.0
H2839 H 0.32382 0.86943 0.08058 0.0
H2840 H 0.27792 0.99373 0.06773 0.0
H2841 H 0.38491 0.97368 0.07328 0.0
H2842 H 0.24938 0.95532 0.10084 0.0
H2843 H 0.24533 0.92318 0.08637 0.0
H2844 H 0.2358 0.96697 0.08181 0.0
H2845 H 0.38255 0.93101 0.10667 0.0
H2846 H 0.40439 0.92733 0.08857 0.0
H2847 H 0.37396 0.89521 0.09453 0.0
C2848 C 0.71482 0.90755 0.62318 0.0
C2849 C 0.75016 0.90431 0.62118 0.0
C2850 C 0.69481 0.92564 0.61261 0.0
C2851 C 0.71069 0.9416 0.59992 0.0
C2852 C 0.74604 0.93627 0.59724 0.0
C2853 C 0.76537 0.91733 0.60787 0.0
C2854 C 0.6572 0.9301 0.61577 0.0
C2855 C 0.76402 0.95309 0.58391 0.0
C2856 C 0.65978 0.98462 0.56803 0.0
C2857 C 0.66248 0.01903 0.57229 0.0
C2858 C 0.67441 0.95876 0.57713 0.0
C2859 C 0.69166 0.9677 0.59084 0.0
C2860 C 0.69222 0.0023 0.59566 0.0
C2861 C 0.67793 0.02753 0.58623 0.0
C2862 C 0.6733 0.92227 0.57158 0.0
C2863 C 0.70973 0.01302 0.61032 0.0
H2864 H 0.70312 0.89761 0.63354 0.0
H2865 H 0.79279 0.91532 0.60645 0.0
H2866 H 0.65242 0.95645 0.61995 0.0
H2867 H 0.64214 0.92655 0.60512 0.0
H2868 H 0.64784 0.91184 0.62458 0.0
H2869 H 0.7905 0.94349 0.58244 0.0
H2870 H 0.74971 0.94872 0.57311 0.0
H2871 H 0.76509 0.98111 0.58582 0.0
H2872 H 0.64857 0.97817 0.55703 0.0
H2873 H 0.68035 0.05424 0.58938 0.0
H2874 H 0.66589 0.9048 0.58104 0.0
H2875 H 0.6991 0.91453 0.56765 0.0
H2876 H 0.65517 0.91889 0.56191 0.0
H2877 H 0.70001 -0.0022 0.62013 0.0
H2878 H 0.70587 0.04055 0.6129 0.0
H2879 H 0.73754 0.00809 0.60938 0.0
C2880 C 0.80804 0.01495 0.35144 0.0
C2881 C 0.83248 0.00976 0.36291 0.0
C2882 C 0.79789 0.98828 0.34177 0.0
C2883 C 0.8124 0.9554 0.3437 0.0
C2884 C 0.83949 0.95086 0.35427 0.0
C2885 C 0.84936 0.97825 0.36378 0.0
C2886 C 0.76923 -0.00538 0.33054 0.0
C2887 C 0.85601 0.91643 0.35645 0.0
C2888 C 0.74238 0.89201 0.33641 0.0
C2889 C 0.74606 0.88659 0.32062 0.0
C2890 C 0.76619 0.91151 0.34457 0.0
C2891 C 0.79462 0.92552 0.33673 0.0
C2892 C 0.80088 0.91601 0.32128 0.0
C2893 C 0.77631 0.89662 0.31333 0.0
C2894 C 0.75821 0.92092 0.361 0.0
C2895 C 0.8313 0.92956 0.31261 0.0
H2896 H 0.79535 0.03951 0.3506 0.0
H2897 H 0.86836 0.97422 0.37263 0.0
H2898 H 0.7757 0.98408 0.3191 0.0
H2899 H 0.74577 0.98149 0.33458 0.0
H2900 H 0.76347 0.02227 0.32924 0.0
H2901 H 0.88104 0.91865 0.36233 0.0
H2902 H 0.83914 0.90005 0.36355 0.0
H2903 H 0.85972 0.9034 0.34527 0.0
H2904 H 0.71891 0.88418 0.34202 0.0
H2905 H 0.77907 0.89268 0.30108 0.0
H2906 H 0.74902 0.94774 0.36145 0.0
H2907 H 0.78138 0.91922 0.36824 0.0
H2908 H 0.73816 0.90422 0.36601 0.0
H2909 H 0.82545 0.95553 0.30824 0.0
H2910 H 0.83757 0.91306 0.30263 0.0
H2911 H 0.85401 0.93149 0.32015 0.0
C2912 C 0.85233 0.01925 0.08141 0.0
C2913 C 0.83851 0.00896 0.06736 0.0
C2914 C 0.83669 0.04533 0.09004 0.0
C2915 C 0.80565 0.05989 0.08478 0.0
C2916 C 0.79461 0.05277 0.06963 0.0
C2917 C 0.81138 0.02745 0.06107 0.0
C2918 C 0.85033 0.05316 0.10581 0.0
C2919 C 0.76161 0.06709 0.06348 0.0
C2920 C 0.73367 0.05429 0.11341 0.0
C2921 C 0.72698 0.08857 0.11726 0.0
C2922 C 0.75947 0.04515 0.10322 0.0
C2923 C 0.77962 0.07088 0.09631 0.0
C2924 C 0.77353 0.10569 0.10009 0.0
C2925 C 0.74721 0.11422 0.1106 0.0
C2926 C 0.76489 0.00753 0.09988 0.0
C2927 C 0.79483 0.13374 0.0931 0.0
H2928 H 0.87328 0.00483 0.08632 0.0
H2929 H 0.80053 0.01918 0.05024 0.0
H2930 H 0.84475 0.07992 0.10917 0.0
H2931 H 0.83799 0.03598 0.1143 0.0
H2932 H 0.87833 0.04883 0.10636 0.0
H2933 H 0.76069 0.06578 0.05076 0.0
H2934 H 0.73999 0.05185 0.06808 0.0
H2935 H 0.75792 0.09396 0.06712 0.0
H2936 H 0.71875 0.03391 0.1185 0.0
H2937 H 0.7426 0.14068 0.11359 0.0
H2938 H 0.79092 -0.00025 0.10342 0.0
H2939 H 0.76244 0.00256 0.0874 0.0
H2940 H 0.74635 0.9909 0.10599 0.0
H2941 H 0.82228 0.12884 0.0953 0.0
H2942 H 0.78805 0.1593 0.09773 0.0
H2943 H 0.79131 0.13407 0.08049 0.0
C2944 C 0.65628 0.9723 0.84939 0.0
C2945 C 0.63951 0.98136 0.86299 0.0
C2946 C 0.67146 -0.00293 0.83994 0.0
C2947 C 0.66982 0.03203 0.84414 0.0
C2948 C 0.64948 0.04163 0.85693 0.0
C2949 C 0.63472 0.01609 0.8663 0.0
C2950 C 0.6925 0.98531 0.8264 0.0
C2951 C 0.64585 0.07855 0.86156 0.0
C2952 C 0.75404 0.07308 0.83352 0.0
C2953 C 0.74725 0.08546 0.81878 0.0
C2954 C 0.72802 0.05895 0.84265 0.0
C2955 C 0.69432 0.05662 0.83679 0.0
C2956 C 0.68674 0.07228 0.82251 0.0
C2957 C 0.71339 0.08637 0.81361 0.0
C2958 C 0.73745 0.04323 0.85789 0.0
C2959 C 0.65116 0.07145 0.81598 0.0
H2960 H 0.66028 0.94544 0.84689 0.0
H2961 H 0.62221 0.02326 0.87692 0.0
H2962 H 0.68633 0.00056 0.81605 0.0
H2963 H 0.72 0.98914 0.82893 0.0
H2964 H 0.68832 0.95786 0.82374 0.0
H2965 H 0.62258 0.08259 0.86863 0.0
H2966 H 0.66829 0.08622 0.8685 0.0
H2967 H 0.64474 0.09548 0.85137 0.0
H2968 H 0.78027 0.07207 0.83746 0.0
H2969 H 0.70812 0.09551 0.80211 0.0
H2970 H 0.73651 0.01496 0.85694 0.0
H2971 H 0.71898 0.05093 0.86688 0.0
H2972 H 0.76348 0.05077 0.86163 0.0
H2973 H 0.64652 0.04621 0.81057 0.0
H2974 H 0.64758 0.09148 0.8071 0.0
H2975 H 0.63179 0.075 0.82514 0.0
C2976 C 0.75257 0.6007 0.8316 0.0
C2977 C 0.74966 0.59539 0.81577 0.0
C2978 C 0.77608 0.582 0.84039 0.0
C2979 C 0.79646 0.55675 0.83317 0.0
C2980 C 0.7964 0.55433 0.81694 0.0
C2981 C 0.77307 0.57393 0.80839 0.0
C2982 C 0.7754 0.58591 0.85761 0.0
C2983 C 0.81738 0.52767 0.80873 0.0
C2984 C 0.85323 0.50027 0.85852 0.0
C2985 C 0.83097 0.47303 0.86165 0.0
C2986 C 0.84295 0.52753 0.84891 0.0
C2987 C 0.80964 0.5276 0.84253 0.0
C2988 C 0.78747 0.49984 0.84551 0.0
C2989 C 0.79848 0.47301 0.85484 0.0
C2990 C 0.86734 0.55651 0.84584 0.0
C2991 C 0.7515 0.49877 0.83922 0.0
H2992 H 0.73416 0.61702 0.83732 0.0
H2993 H 0.77038 0.5693 0.79618 0.0
H2994 H 0.75896 0.56567 0.86262 0.0
H2995 H 0.8013 0.58306 0.86255 0.0
H2996 H 0.76487 0.61112 0.86107 0.0
H2997 H 0.82018 0.53366 0.79634 0.0
H2998 H 0.84309 0.52534 0.81394 0.0
H2999 H 0.80455 0.50248 0.80978 0.0
H3000 H 0.87834 0.50057 0.8637 0.0
H3001 H 0.78086 0.45227 0.85712 0.0
H3002 H 0.85683 0.5806 0.8506 0.0
H3003 H 0.87036 0.56028 0.83329 0.0
H3004 H 0.89286 0.55191 0.85097 0.0
H3005 H 0.73664 0.52073 0.84371 0.0
H3006 H 0.73782 0.47489 0.84235 0.0
H3007 H 0.75194 0.50089 0.82654 0.0
C3008 C 0.6917 0.4843 0.06935 0.0
C3009 C 0.65717 0.48561 0.06508 0.0
C3010 C 0.70635 0.50899 0.07881 0.0
C3011 C 0.68623 0.53653 0.08412 0.0
C3012 C 0.65205 0.53984 0.07885 0.0
C3013 C 0.63773 0.51414 0.06937 0.0
C3014 C 0.74294 0.50408 0.08391 0.0
C3015 C 0.63037 0.56972 0.08372 0.0
C3016 C 0.72173 0.55571 0.12296 0.0
C3017 C 0.74793 0.57855 0.11924 0.0
C3018 C 0.69775 0.54548 0.11198 0.0
C3019 C 0.70037 0.55803 0.09678 0.0
C3020 C 0.72425 0.58437 0.0935 0.0
C3021 C 0.748 0.59428 0.10481 0.0
C3022 C 0.67276 0.51763 0.11619 0.0
C3023 C 0.72742 0.59926 0.07762 0.0
H3024 H 0.7074 0.46301 0.06566 0.0
H3025 H 0.61124 0.51567 0.06588 0.0
H3026 H 0.75818 0.52729 0.08142 0.0
H3027 H 0.74377 0.49971 0.09648 0.0
H3028 H 0.7554 0.48201 0.07817 0.0
H3029 H 0.60669 0.57169 0.07679 0.0
H3030 H 0.62312 0.56682 0.09595 0.0
H3031 H 0.64497 0.59391 0.08267 0.0
H3032 H 0.72153 0.54386 0.13421 0.0
H3033 H 0.76826 0.61199 0.10192 0.0
H3034 H 0.6822 0.49284 0.11168 0.0
H3035 H 0.64741 0.52251 0.11102 0.0
H3036 H 0.66966 0.51524 0.12881 0.0
H3037 H 0.74455 0.58291 0.07063 0.0
H3038 H 0.7386 0.62535 0.07798 0.0
H3039 H 0.70228 0.60034 0.07179 0.0
C3040 C 0.77089 0.43561 0.33239 0.0
C3041 C 0.76406 0.41096 0.3212 0.0
C3042 C 0.74498 0.44817 0.34184 0.0
C3043 C 0.71119 0.436 0.33991 0.0
C3044 C 0.70464 0.40905 0.32945 0.0
C3045 C 0.73138 0.39663 0.3202 0.0
C3046 C 0.75341 0.47648 0.35302 0.0
C3047 C 0.66911 0.39523 0.32715 0.0
C3048 C 0.65943 0.47244 0.37219 0.0
C3049 C 0.65205 0.50465 0.36608 0.0
C3050 C 0.67494 0.44725 0.36311 0.0
C3051 C 0.68306 0.45478 0.34765 0.0
C3052 C 0.6712 0.48563 0.34099 0.0
C3053 C 0.6562 0.51052 0.35039 0.0
C3054 C 0.68672 0.41462 0.37063 0.0
C3055 C 0.67855 0.49438 0.32445 0.0
H3056 H 0.79631 0.44646 0.33318 0.0
H3057 H 0.72615 0.37768 0.31144 0.0
H3058 H 0.74143 0.50068 0.34914 0.0
H3059 H 0.74308 0.4705 0.36456 0.0
H3060 H 0.78134 0.48077 0.35407 0.0
H3061 H 0.66955 0.36963 0.32164 0.0
H3062 H 0.65516 0.39343 0.33819 0.0
H3063 H 0.65467 0.41285 0.31959 0.0
H3064 H 0.65638 0.4682 0.38441 0.0
H3065 H 0.65052 0.53561 0.34576 0.0
H3066 H 0.71395 0.41726 0.37392 0.0
H3067 H 0.68465 0.39267 0.36263 0.0
H3068 H 0.67176 0.40896 0.38116 0.0
H3069 H 0.70553 0.50268 0.32335 0.0
H3070 H 0.66193 0.51541 0.32028 0.0
H3071 H 0.67491 0.47176 0.31696 0.0
C3072 C 0.77641 0.39051 0.61279 0.0
C3073 C 0.74507 0.40787 0.61265 0.0
C3074 C 0.80239 0.39883 0.60215 0.0
C3075 C 0.79682 0.42503 0.59118 0.0
C3076 C 0.76451 0.4412 0.59054 0.0
C3077 C 0.73922 0.43242 0.60121 0.0
C3078 C 0.83615 0.38053 0.60308 0.0
C3079 C 0.75699 0.46909 0.57903 0.0
C3080 C 0.86146 0.48762 0.57583 0.0
C3081 C 0.85878 0.48146 0.56002 0.0
C3082 C 0.84423 0.46699 0.58651 0.0
C3083 C 0.82507 0.43857 0.58129 0.0
C3084 C 0.82735 0.42896 0.56563 0.0
C3085 C 0.84378 0.45087 0.5551 0.0
C3086 C 0.84221 0.47884 0.60298 0.0
C3087 C 0.80875 0.39802 0.55962 0.0
H3088 H 0.78109 0.37135 0.62151 0.0
H3089 H 0.71487 0.44552 0.60078 0.0
H3090 H 0.84611 0.37476 0.59145 0.0
H3091 H 0.85505 0.39719 0.60889 0.0
H3092 H 0.8341 0.35634 0.60969 0.0
H3093 H 0.73021 0.47829 0.57974 0.0
H3094 H 0.77428 0.49113 0.581 0.0
H3095 H 0.76165 0.45972 0.56721 0.0
H3096 H 0.87257 0.51156 0.57966 0.0
H3097 H 0.84118 0.44616 0.5429 0.0
H3098 H 0.84463 0.45699 0.61099 0.0
H3099 H 0.81694 0.49084 0.60503 0.0
H3100 H 0.86231 0.49793 0.60571 0.0
H3101 H 0.80944 0.37682 0.56807 0.0
H3102 H 0.81994 0.38906 0.54862 0.0
H3103 H 0.78163 0.40467 0.55754 0.0
C3104 C 0.24707 0.41425 0.10277 0.0
C3105 C 0.23991 0.39938 0.11703 0.0
C3106 C 0.22092 0.42509 0.09301 0.0
C3107 C 0.18647 0.42071 0.09755 0.0
C3108 C 0.17906 0.40234 0.11119 0.0
C3109 C 0.20598 0.39194 0.12087 0.0
C3110 C 0.23045 0.44438 0.0786 0.0
C3111 C 0.14278 0.39581 0.11614 0.0
C3112 C 0.13868 0.49901 0.08508 0.0
C3113 C 0.12963 0.49022 0.07002 0.0
C3114 C 0.15436 0.47541 0.09485 0.0
C3115 C 0.15982 0.44157 0.08967 0.0
C3116 C 0.14592 0.43124 0.07535 0.0
C3117 C 0.13143 0.45594 0.0655 0.0
C3118 C 0.16927 0.48816 0.1098 0.0
C3119 C 0.1494 0.39498 0.06977 0.0
H3120 H 0.27337 0.41918 0.09956 0.0
H3121 H 0.20035 0.37999 0.1318 0.0
H3122 H 0.21642 0.43414 0.06858 0.0
H3123 H 0.22331 0.47168 0.07989 0.0
H3124 H 0.25823 0.44298 0.0761 0.0
H3125 H 0.14118 0.37381 0.12416 0.0
H3126 H 0.13273 0.41867 0.12214 0.0
H3127 H 0.12617 0.39078 0.10608 0.0
H3128 H 0.13708 0.52555 0.08862 0.0
H3129 H 0.12452 0.449 0.05387 0.0
H3130 H 0.19753 0.48888 0.10889 0.0
H3131 H 0.16266 0.47073 0.11936 0.0
H3132 H 0.1602 0.51424 0.11275 0.0
H3133 H 0.1743 0.39183 0.06388 0.0
H3134 H 0.12896 0.38858 0.06143 0.0
H3135 H 0.14839 0.3766 0.07946 0.0
C3136 C 0.35989 0.4657 0.86496 0.0
C3137 C 0.34126 0.46864 0.87865 0.0
C3138 C 0.34797 0.44485 0.85285 0.0
C3139 C 0.31659 0.42701 0.85445 0.0
C3140 C 0.30048 0.42642 0.86902 0.0
C3141 C 0.31308 0.44712 0.88091 0.0
C3142 C 0.36669 0.44544 0.83773 0.0
C3143 C 0.26697 0.40817 0.87146 0.0
C3144 C 0.2511 0.43496 0.82284 0.0
C3145 C 0.24584 0.40094 0.81822 0.0
C3146 C 0.27513 0.4437 0.83399 0.0
C3147 C 0.29584 0.41796 0.84055 0.0
C3148 C 0.29317 0.38393 0.8349 0.0
C3149 C 0.26784 0.37563 0.82387 0.0
C3150 C 0.27642 0.48035 0.8395 0.0
C3151 C 0.31603 0.35613 0.84097 0.0
H3152 H 0.38151 0.48247 0.86304 0.0
H3153 H 0.29852 0.44941 0.89145 0.0
H3154 H 0.36427 0.42061 0.83168 0.0
H3155 H 0.35558 0.46551 0.83026 0.0
H3156 H 0.39417 0.45141 0.83937 0.0
H3157 H 0.26088 0.40522 0.88384 0.0
H3158 H 0.2462 0.42314 0.86601 0.0
H3159 H 0.26731 0.38254 0.86606 0.0
H3160 H 0.23494 0.45497 0.81823 0.0
H3161 H 0.26428 0.34937 0.82028 0.0
H3162 H 0.30265 0.49065 0.83841 0.0
H3163 H 0.26923 0.48155 0.85181 0.0
H3164 H 0.25892 0.49731 0.83299 0.0
H3165 H 0.34277 0.36534 0.84173 0.0
H3166 H 0.31523 0.33295 0.83363 0.0
H3167 H 0.30782 0.34893 0.85271 0.0
C3168 C 0.3294 0.52087 0.56475 0.0
C3169 C 0.34041 0.48744 0.56785 0.0
C3170 C 0.31103 0.53972 0.5756 0.0
C3171 C 0.30411 0.52512 0.5901 0.0
C3172 C 0.3188 0.49309 0.59397 0.0
C3173 C 0.33669 0.47438 0.58272 0.0
C3174 C 0.29579 0.57354 0.57085 0.0
C3175 C 0.31307 0.47729 0.60954 0.0
C3176 C 0.25574 0.58075 0.61883 0.0
C3177 C 0.22238 0.56858 0.61692 0.0
C3178 C 0.283 0.5664 0.61047 0.0
C3179 C 0.27638 0.54003 0.59972 0.0
C3180 C 0.24243 0.52861 0.59745 0.0
C3181 C 0.21601 0.54267 0.60624 0.0
C3182 C 0.31888 0.57858 0.61351 0.0
C3183 C 0.23394 0.50139 0.58576 0.0
H3184 H 0.33287 0.53145 0.55336 0.0
H3185 H 0.34549 0.44873 0.58525 0.0
H3186 H 0.26805 0.57017 0.56876 0.0
H3187 H 0.29872 0.59287 0.58005 0.0
H3188 H 0.30766 0.58362 0.56018 0.0
H3189 H 0.33135 0.4562 0.61183 0.0
H3190 H 0.31554 0.49681 0.61871 0.0
H3191 H 0.2868 0.46677 0.61015 0.0
H3192 H 0.2607 0.60031 0.62735 0.0
H3193 H 0.19018 0.53321 0.60483 0.0
H3194 H 0.33181 0.58554 0.60263 0.0
H3195 H 0.33381 0.55755 0.61878 0.0
H3196 H 0.31948 0.60097 0.62135 0.0
H3197 H 0.24301 0.50935 0.57424 0.0
H3198 H 0.20611 0.49619 0.58509 0.0
H3199 H 0.24719 0.47723 0.58871 0.0
C3200 C 0.19191 0.49747 0.36485 0.0
C3201 C 0.15811 0.49106 0.36951 0.0
C3202 C 0.19981 0.52124 0.3534 0.0
C3203 C 0.17336 0.53996 0.34625 0.0
C3204 C 0.13905 0.53409 0.35087 0.0
C3205 C 0.13177 0.50971 0.36248 0.0
C3206 C 0.23682 0.526 0.34889 0.0
C3207 C 0.11016 0.55354 0.34355 0.0
C3208 C 0.21809 0.6154 0.32837 0.0
C3209 C 0.22642 0.60202 0.31395 0.0
C3210 C 0.19584 0.59776 0.33834 0.0
C3211 C 0.18286 0.56529 0.33401 0.0
C3212 C 0.18797 0.55388 0.31874 0.0
C3213 C 0.20931 0.57267 0.30884 0.0
C3214 C 0.19024 0.6116 0.35429 0.0
C3215 C 0.17552 0.51929 0.31352 0.0
H3216 H 0.21275 0.48356 0.37011 0.0
H3217 H 0.10562 0.50518 0.36595 0.0
H3218 H 0.2401 0.52134 0.33642 0.0
H3219 H 0.24491 0.55265 0.35123 0.0
H3220 H 0.25419 0.50854 0.35521 0.0
H3221 H 0.08489 0.54574 0.34816 0.0
H3222 H 0.11368 0.58133 0.3455 0.0
H3223 H 0.11027 0.54941 0.33096 0.0
H3224 H 0.23172 0.6377 0.33251 0.0
H3225 H 0.21631 0.56178 0.29784 0.0
H3226 H 0.20836 0.59916 0.36231 0.0
H3227 H 0.16399 0.60598 0.35834 0.0
H3228 H 0.1946 0.63963 0.35474 0.0
H3229 H 0.19336 0.49937 0.31774 0.0
H3230 H 0.17453 0.51756 0.30081 0.0
H3231 H 0.14989 0.51352 0.31823 0.0
C3232 C 0.16577 0.06205 0.23878 0.0
C3233 C 0.16732 0.04635 0.25321 0.0
C3234 C 0.16478 0.04218 0.22537 0.0
C3235 C 0.1652 0.0061 0.22661 0.0
C3236 C 0.16578 0.9903 0.24116 0.0
C3237 C 0.16692 0.01061 0.25426 0.0
C3238 C 0.16398 0.05965 0.20993 0.0
C3239 C 0.16619 0.95186 0.24292 0.0
C3240 C 0.14101 0.94632 0.19437 0.0
C3241 C 0.17322 0.93775 0.18866 0.0
C3242 C 0.1378 0.97008 0.2063 0.0
C3243 C 0.16761 0.9844 0.21283 0.0
C3244 C 0.2002 0.97536 0.20714 0.0
C3245 C 0.20256 0.95245 0.19491 0.0
C3246 C 0.10269 0.97993 0.2119 0.0
C3247 C 0.23255 0.9894 0.21415 0.0
H3248 H 0.16586 0.0897 0.23796 0.0
H3249 H 0.16754 -0.00171 0.26539 0.0
H3250 H 0.18771 0.05377 0.20351 0.0
H3251 H 0.14233 0.04982 0.20302 0.0
H3252 H 0.16159 0.08784 0.21097 0.0
H3253 H 0.16536 0.94373 0.25512 0.0
H3254 H 0.14407 0.94039 0.23689 0.0
H3255 H 0.18965 0.9413 0.2376 0.0
H3256 H 0.1184 0.93542 0.18913 0.0
H3257 H 0.22736 0.94586 0.19024 0.0
H3258 H 0.09961 0.0081 0.21141 0.0
H3259 H 0.0995 0.97219 0.22405 0.0
H3260 H 0.08211 0.96789 0.20501 0.0
H3261 H 0.23219 0.01773 0.21388 0.0
H3262 H 0.2558 0.98033 0.2081 0.0
H3263 H 0.23422 0.98155 0.22635 0.0
C3264 C 0.22815 0.91835 0.50641 0.0
C3265 C 0.19265 0.91673 0.50421 0.0
C3266 C 0.25075 0.9183 0.49402 0.0
C3267 C 0.23768 0.91689 0.47896 0.0
C3268 C 0.20192 0.91484 0.47656 0.0
C3269 C 0.17971 0.91472 0.48927 0.0
C3270 C 0.28868 0.91968 0.49708 0.0
C3271 C 0.18725 0.91291 0.46059 0.0
C3272 C 0.29362 0.94769 0.44609 0.0
C3273 C 0.30418 0.91658 0.43982 0.0
C3274 C 0.27221 0.94822 0.45904 0.0
C3275 C 0.26162 0.91695 0.46577 0.0
C3276 C 0.2739 0.88562 0.45988 0.0
C3277 C 0.29482 0.88586 0.44688 0.0
C3278 C 0.25968 0.98206 0.46514 0.0
C3279 C 0.26384 0.85177 0.46688 0.0
H3280 H 0.23853 0.91953 0.51792 0.0
H3281 H 0.15236 0.91335 0.4875 0.0
H3282 H 0.30162 0.89771 0.49153 0.0
H3283 H 0.2996 0.94331 0.49205 0.0
H3284 H 0.29469 0.91925 0.50954 0.0
H3285 H 0.15896 0.91104 0.46065 0.0
H3286 H 0.19481 0.93591 0.45396 0.0
H3287 H 0.19774 0.89038 0.45447 0.0
H3288 H 0.3005 0.97134 0.44039 0.0
H3289 H 0.30291 0.86184 0.44184 0.0
H3290 H 0.26566 0.98435 0.47753 0.0
H3291 H 0.23152 0.98349 0.46397 0.0
H3292 H 0.27122 0.00409 0.45899 0.0
H3293 H 0.26809 0.85207 0.47946 0.0
H3294 H 0.27836 0.83009 0.46188 0.0
H3295 H 0.23623 0.84719 0.46496 0.0
C3296 C 0.28746 0.03838 0.69023 0.0
C3297 C 0.3117 0.06444 0.68863 0.0
C3298 C 0.28759 0.01669 0.70303 0.0
C3299 C 0.31314 0.02064 0.71436 0.0
C3300 C 0.33717 0.0476 0.71301 0.0
C3301 C 0.33593 0.06949 0.7002 0.0
C3302 C 0.26113 0.98874 0.70413 0.0
C3303 C 0.36525 0.05215 0.72467 0.0
C3304 C 0.29524 0.98166 0.75337 0.0
C3305 C 0.31262 0.9503 0.75259 0.0
C3306 C 0.29576 0.00487 0.74115 0.0
C3307 C 0.31417 -0.00323 0.72769 0.0
C3308 C 0.33205 0.96528 0.72679 0.0
C3309 C 0.33092 0.94229 0.73923 0.0
C3310 C 0.27619 0.03798 0.74258 0.0
C3311 C 0.35217 0.95581 0.71264 0.0
H3312 H 0.26922 0.03407 0.68108 0.0
H3313 H 0.35535 0.08895 0.69869 0.0
H3314 H 0.27376 0.96341 0.70358 0.0
H3315 H 0.24764 0.99025 0.7153 0.0
H3316 H 0.24197 0.99025 0.69477 0.0
H3317 H 0.3813 0.07492 0.72224 0.0
H3318 H 0.35428 0.0547 0.73635 0.0
H3319 H 0.38183 0.02916 0.72473 0.0
H3320 H 0.281 0.98823 0.76362 0.0
H3321 H 0.34462 0.91828 0.73856 0.0
H3322 H 0.25627 0.03927 0.73356 0.0
H3323 H 0.29356 0.06002 0.7408 0.0
H3324 H 0.26371 0.04076 0.75395 0.0
H3325 H 0.33446 0.95144 0.70292 0.0
H3326 H 0.36762 0.93233 0.71435 0.0
H3327 H 0.36945 0.97704 0.70931 0.0
C3328 C 0.22681 0.10166 0.9349 0.0
C3329 C 0.19556 0.0849 0.9371 0.0
C3330 C 0.25032 0.10486 0.9468 0.0
C3331 C 0.24245 0.09071 0.96126 0.0
C3332 C 0.20996 0.0757 0.96388 0.0
C3333 C 0.18662 0.07307 0.95168 0.0
C3334 C 0.28424 0.12184 0.94365 0.0
C3335 C 0.20061 0.06096 -0.02068 0.0
C3336 C 0.31464 0.06044 -0.01317 0.0
C3337 C 0.31519 0.08641 -0.00219 0.0
C3338 C 0.29158 0.06202 -0.02548 0.0
C3339 C 0.26892 0.09018 -0.02664 0.0
C3340 C 0.27127 0.11752 -0.01613 0.0
C3341 C 0.29445 0.11526 -0.00402 0.0
C3342 C 0.28996 0.03268 0.96331 0.0
C3343 C 0.24784 0.14809 -0.01705 0.0
H3344 H 0.23336 0.11143 0.92363 0.0
H3345 H 0.16236 0.06025 0.95334 0.0
H3346 H 0.29015 0.14096 0.95266 0.0
H3347 H 0.30478 0.10234 0.94389 0.0
H3348 H 0.28477 0.13477 0.93231 0.0
H3349 H 0.17332 0.05335 -0.02008 0.0
H3350 H 0.21658 0.03813 -0.01837 0.0
H3351 H 0.20584 0.07974 -0.01144 0.0
H3352 H 0.3303 0.0379 -0.01151 0.0
H3353 H 0.29482 0.13512 0.00466 0.0
H3354 H 0.29174 0.04233 0.95136 0.0
H3355 H 0.26505 0.01942 0.96445 0.0
H3356 H 0.3107 0.01381 0.96521 0.0
H3357 H 0.24739 0.15862 -0.02886 0.0
H3358 H 0.25555 0.16873 -0.00901 0.0
H3359 H 0.22142 0.14012 -0.01417 0.0
C3360 C 0.86203 0.9259 0.70617 0.0
C3361 C 0.85969 0.92877 0.6902 0.0
C3362 C 0.86021 0.95509 0.7156 0.0
C3363 C 0.85411 0.98761 0.70891 0.0
C3364 C 0.85441 0.99083 0.69275 0.0
C3365 C 0.85801 0.96145 0.68361 0.0
C3366 C 0.86177 0.95067 0.73279 0.0
C3367 C 0.84691 0.02451 0.68503 0.0
C3368 C 0.80006 0.04304 0.73531 0.0
C3369 C 0.82456 0.06487 0.74166 0.0
C3370 C 0.80886 0.01957 0.72373 0.0
C3371 C 0.84331 0.017 0.7188 0.0
C3372 C 0.86759 0.04067 0.72444 0.0
C3373 C 0.85779 0.06457 0.73568 0.0
C3374 C 0.78179 -0.00431 0.71766 0.0
C3375 C 0.90466 0.03851 0.71986 0.0
H3376 H 0.86246 0.90069 0.71133 0.0
H3377 H 0.85507 0.96366 0.67128 0.0
H3378 H 0.87745 0.97116 0.73807 0.0
H3379 H 0.83568 0.95258 0.73766 0.0
H3380 H 0.87261 0.92547 0.73605 0.0
H3381 H 0.85327 0.02395 0.67261 0.0
H3382 H 0.81931 0.0303 0.68624 0.0
H3383 H 0.86124 0.04566 0.69052 0.0
H3384 H 0.77462 0.04251 0.74022 0.0
H3385 H 0.87708 0.0806 0.74096 0.0
H3386 H 0.78579 0.96976 0.72248 0.0
H3387 H 0.78354 0.99366 0.70499 0.0
H3388 H 0.75568 0.00428 0.7208 0.0
H3389 H 0.91655 0.0164 0.72577 0.0
H3390 H 0.91894 0.06197 0.72307 0.0
H3391 H 0.90742 0.03428 0.70735 0.0
C3392 C 0.71166 0.03619 0.50362 0.0
C3393 C 0.67868 0.04664 0.49942 0.0
C3394 C 0.73828 0.03517 0.49295 0.0
C3395 C 0.73184 0.04475 0.47761 0.0
C3396 C 0.69817 0.05372 0.47308 0.0
C3397 C 0.67179 0.05442 0.48409 0.0
C3398 C 0.77364 0.02551 0.49829 0.0
C3399 C 0.69049 0.06443 0.45682 0.0
C3400 C 0.80351 0.07921 0.45259 0.0
C3401 C 0.80856 0.05188 0.4425 0.0
C3402 C 0.77948 0.07686 0.46453 0.0
C3403 C 0.7605 0.04628 0.46641 0.0
C3404 C 0.7678 0.01769 0.45704 0.0
C3405 C 0.79148 0.02099 0.44505 0.0
C3406 C 0.77242 0.10801 0.47424 0.0
C3407 C 0.74882 0.9844 0.45896 0.0
H3408 H 0.71706 0.03051 0.51556 0.0
H3409 H 0.64654 0.06327 0.48093 0.0
H3410 H 0.78413 0.00484 0.49097 0.0
H3411 H 0.79098 0.0478 0.4972 0.0
H3412 H 0.7739 0.01683 0.51042 0.0
H3413 H 0.66297 0.06993 0.45504 0.0
H3414 H 0.7054 0.08767 0.45391 0.0
H3415 H 0.69839 0.04406 0.44871 0.0
H3416 H 0.816 0.10342 0.4503 0.0
H3417 H 0.79483 0.00018 0.43696 0.0
H3418 H 0.77222 0.10124 0.48659 0.0
H3419 H 0.74679 0.11825 0.4714 0.0
H3420 H 0.79157 0.12853 0.47235 0.0
H3421 H 0.74886 0.97641 0.47118 0.0
H3422 H 0.7601 0.96359 0.45193 0.0
H3423 H 0.72182 0.98786 0.45548 0.0
C3424 C 0.65969 0.97479 0.25641 0.0
C3425 C 0.6694 0.94109 0.25311 0.0
C3426 C 0.65994 4e-05 0.24514 0.0
C3427 C 0.67009 0.99142 0.23011 0.0
C3428 C 0.67843 0.95703 0.22644 0.0
C3429 C 0.6779 0.93201 0.23807 0.0
C3430 C 0.65018 0.03615 0.24947 0.0
C3431 C 0.6886 0.94694 0.21037 0.0
C3432 C 0.64287 0.05301 0.19912 0.0
C3433 C 0.67373 0.06918 0.19543 0.0
C3434 C 0.64151 0.02716 0.21014 0.0
C3435 C 0.67141 0.01866 0.21831 0.0
C3436 C 0.70206 0.03704 0.21559 0.0
C3437 C 0.70311 0.06165 0.20383 0.0
C3438 C 0.60868 0.00741 0.21225 0.0
C3439 C 0.734 0.02955 0.22463 0.0
H3440 H 0.65244 0.98163 0.26802 0.0
H3441 H 0.68532 0.90591 0.23557 0.0
H3442 H 0.67195 0.05362 0.24727 0.0
H3443 H 0.62855 0.04502 0.2423 0.0
H3444 H 0.64268 0.03842 0.26172 0.0
H3445 H 0.69218 0.9189 0.20919 0.0
H3446 H 0.66892 0.95542 0.20205 0.0
H3447 H 0.71281 0.95987 0.20721 0.0
H3448 H 0.62042 0.05822 0.19221 0.0
H3449 H 0.72712 0.07345 0.20064 0.0
H3450 H 0.60068 0.0078 0.22445 0.0
H3451 H 0.6128 0.98028 0.20904 0.0
H3452 H 0.58755 0.01776 0.20515 0.0
H3453 H 0.72857 0.03112 0.2371 0.0
H3454 H 0.75502 0.04757 0.22183 0.0
H3455 H 0.74273 0.00314 0.22219 0.0
C3456 C 0.79581 0.90699 -0.00849 0.0
C3457 C 0.78931 0.92537 0.00499 0.0
C3458 C 0.77297 0.90868 -0.02096 0.0
C3459 C 0.74349 0.92967 -0.01993 0.0
C3460 C 0.73747 0.94886 -0.00649 0.0
C3461 C 0.76033 0.94641 0.00576 0.0
C3462 C 0.77997 0.8876 0.96488 0.0
C3463 C 0.7067 0.97187 -0.00498 0.0
C3464 C 0.70248 0.9585 0.94286 0.0
C3465 C 0.67468 0.93616 0.94168 0.0
C3466 C 0.7246 0.95716 0.95546 0.0
C3467 C 0.71913 0.93238 0.96703 0.0
C3468 C 0.69016 0.91071 0.96622 0.0
C3469 C 0.66803 0.91308 0.95357 0.0
C3470 C 0.75472 0.9812 0.95604 0.0
C3471 C 0.68375 0.88366 -0.02177 0.0
H3472 H 0.81801 0.89053 -0.00909 0.0
H3473 H 0.75528 0.96097 0.01609 0.0
H3474 H 0.75813 0.87027 0.96262 0.0
H3475 H 0.78265 0.90454 0.95475 0.0
H3476 H 0.80353 0.87201 0.966 0.0
H3477 H 0.70593 0.98536 0.00623 0.0
H3478 H 0.7068 0.99122 -0.01429 0.0
H3479 H 0.68295 0.95667 -0.00621 0.0
H3480 H 0.70797 0.9758 0.93345 0.0
H3481 H 0.64716 0.89505 0.95238 0.0
H3482 H 0.7788 0.96642 0.95525 0.0
H3483 H 0.75509 -0.00493 0.96714 0.0
H3484 H 0.75426 0.00021 0.94658 0.0
H3485 H 0.70468 0.86458 -0.02206 0.0
H3486 H 0.65913 0.87016 -0.02359 0.0
H3487 H 0.68365 0.89519 -0.01015 0.0
C3488 C 0.66739 0.54803 0.73922 0.0
C3489 C 0.66256 0.53618 0.75422 0.0
C3490 C 0.66921 0.52487 0.7269 0.0
C3491 C 0.66563 0.48933 0.72974 0.0
C3492 C 0.65939 0.47755 0.74479 0.0
C3493 C 0.65811 0.50107 0.75683 0.0
C3494 C 0.67571 0.53827 0.71093 0.0
C3495 C 0.65472 0.44 0.74823 0.0
C3496 C 0.64325 0.43264 0.69602 0.0
C3497 C 0.67546 0.42082 0.69155 0.0
C3498 C 0.63953 0.45444 0.70864 0.0
C3499 C 0.66879 0.46428 0.71703 0.0
C3500 C 0.70116 0.45062 0.71312 0.0
C3501 C 0.70419 0.42925 0.70024 0.0
C3502 C 0.60467 0.46866 0.71235 0.0
C3503 C 0.73279 0.46014 0.722 0.0
H3504 H 0.67086 0.57515 0.73721 0.0
H3505 H 0.65382 0.49185 0.7684 0.0
H3506 H 0.70013 0.52782 0.7065 0.0
H3507 H 0.65524 0.5296 0.70305 0.0
H3508 H 0.67701 0.56662 0.71058 0.0
H3509 H 0.64899 0.43519 0.76052 0.0
H3510 H 0.63359 0.42942 0.74122 0.0
H3511 H 0.67821 0.4258 0.74511 0.0
H3512 H 0.62126 0.4268 0.68893 0.0
H3513 H 0.72915 0.42078 0.69645 0.0
H3514 H 0.60422 0.49645 0.70982 0.0
H3515 H 0.59891 0.46556 0.72473 0.0
H3516 H 0.58417 0.4561 0.7056 0.0
H3517 H 0.73814 0.48778 0.7205 0.0
H3518 H 0.75551 0.44541 0.71821 0.0
H3519 H 0.72877 0.45559 0.73444 0.0
C3520 C 0.80661 0.44486 0.94786 0.0
C3521 C 0.80835 0.41786 0.93741 0.0
C3522 C 0.78185 0.44452 0.95957 0.0
C3523 C 0.75819 0.41707 0.96037 0.0
C3524 C 0.76079 0.38941 0.95006 0.0
C3525 C 0.78623 0.38993 0.9389 0.0
C3526 C 0.78027 0.47383 -0.02922 0.0
C3527 C 0.73594 0.35987 0.95042 0.0
C3528 C 0.71477 0.39764 -0.00214 0.0
C3529 C 0.68292 0.41335 -0.00401 0.0
C3530 C 0.73943 0.39891 -0.01362 0.0
C3531 C 0.73187 0.41593 -0.02746 0.0
C3532 C 0.69904 0.4304 -0.0298 0.0
C3533 C 0.67471 0.42903 -0.01791 0.0
C3534 C 0.77392 0.38285 -0.01073 0.0
C3535 C 0.69006 0.44801 0.95535 0.0
H3536 H 0.82336 0.46669 0.94644 0.0
H3537 H 0.7875 0.36931 0.93058 0.0
H3538 H 0.75544 0.48722 -0.03034 0.0
H3539 H 0.78187 0.46403 -0.01729 0.0
H3540 H 0.80117 0.49258 0.96894 0.0
H3541 H 0.74121 0.34074 0.94131 0.0
H3542 H 0.73703 0.34683 0.9617 0.0
H3543 H 0.70951 0.36948 0.94893 0.0
H3544 H 0.72086 0.38531 0.00867 0.0
H3545 H 0.65011 0.44137 -0.01922 0.0
H3546 H 0.79422 0.40251 -0.01171 0.0
H3547 H 0.77925 0.363 -0.01949 0.0
H3548 H 0.77564 0.37087 0.0008 0.0
H3549 H 0.70665 0.47073 0.95376 0.0
H3550 H 0.66298 0.45637 0.95506 0.0
H3551 H 0.69481 0.43064 0.94552 0.0
C3552 C 0.83503 0.43383 0.23184 0.0
C3553 C 0.80816 0.42743 0.24204 0.0
C3554 C 0.83194 0.45856 0.2202 0.0
C3555 C 0.80115 0.4773 0.21871 0.0
C3556 C 0.77299 0.46881 0.22819 0.0
C3557 C 0.77694 0.44419 0.23982 0.0
C3558 C 0.86268 0.46667 0.2104 0.0
C3559 C 0.73949 0.48753 0.2268 0.0
C3560 C 0.8086 0.56759 0.2021 0.0
C3561 C 0.80107 0.56176 0.18663 0.0
C3562 C 0.80808 0.54041 0.21277 0.0
C3563 C 0.79915 0.50692 0.20786 0.0
C3564 C 0.78982 0.50151 0.19239 0.0
C3565 C 0.79115 0.52884 0.182 0.0
C3566 C 0.8186 0.54719 0.22914 0.0
C3567 C 0.77964 0.46656 0.18666 0.0
H3568 H 0.85954 0.42179 0.23387 0.0
H3569 H 0.75648 0.4401 0.24801 0.0
H3570 H 0.85551 0.46792 0.19811 0.0
H3571 H 0.87288 0.49211 0.21366 0.0
H3572 H 0.8833 0.44745 0.2118 0.0
H3573 H 0.71901 0.47529 0.2337 0.0
H3574 H 0.7427 0.51424 0.23082 0.0
H3575 H 0.73124 0.48861 0.21464 0.0
H3576 H 0.81667 0.59286 0.20569 0.0
H3577 H 0.78519 0.52422 0.17003 0.0
H3578 H 0.84192 0.53231 0.23187 0.0
H3579 H 0.79829 0.53859 0.23713 0.0
H3580 H 0.82385 0.57468 0.23127 0.0
H3581 H 0.80164 0.44884 0.18753 0.0
H3582 H 0.77091 0.4671 0.17454 0.0
H3583 H 0.75886 0.45595 0.19389 0.0
C3584 C 0.70141 0.55264 0.4322 0.0
C3585 C 0.66792 0.5634 0.43501 0.0
C3586 C 0.72666 0.55593 0.44342 0.0
C3587 C 0.71831 0.57122 0.45762 0.0
C3588 C 0.6846 0.58291 0.46039 0.0
C3589 C 0.65951 0.57827 0.44908 0.0
C3590 C 0.76199 0.54229 0.4402 0.0
C3591 C 0.67512 0.60025 0.47526 0.0
C3592 C 0.76659 0.54439 0.49298 0.0
C3593 C 0.78916 0.5717 0.49508 0.0
C3594 C 0.74408 0.54368 0.4806 0.0
C3595 C 0.74369 0.57136 0.4702 0.0
C3596 C 0.76703 0.59879 0.47201 0.0
C3597 C 0.78999 0.59842 0.48442 0.0
C3598 C 0.72013 0.51364 0.47888 0.0
C3599 C 0.76695 0.62887 0.46118 0.0
H3600 H 0.70782 0.54149 0.42118 0.0
H3601 H 0.63373 0.58738 0.45102 0.0
H3602 H 0.78132 0.56259 0.44198 0.0
H3603 H 0.76792 0.52129 0.44832 0.0
H3604 H 0.76457 0.53238 0.42831 0.0
H3605 H 0.64885 0.61089 0.475 0.0
H3606 H 0.67684 0.58171 0.48485 0.0
H3607 H 0.69331 0.62128 0.47776 0.0
H3608 H 0.76617 0.52366 0.50124 0.0
H3609 H 0.80731 0.61966 0.4862 0.0
H3610 H 0.72264 0.50241 0.46725 0.0
H3611 H 0.69334 0.52232 0.4802 0.0
H3612 H 0.72509 0.49333 0.4875 0.0
H3613 H 0.77417 0.62032 0.44949 0.0
H3614 H 0.78496 0.64923 0.46483 0.0
H3615 H 0.74092 0.6399 0.46041 0.0
C3616 C 0.33002 0.55671 0.23778 0.0
C3617 C 0.31936 0.54596 0.25233 0.0
C3618 C 0.33382 0.53289 0.2258 0.0
C3619 C 0.32695 0.49783 0.22861 0.0
C3620 C 0.31814 0.48682 0.24349 0.0
C3621 C 0.31429 0.51096 0.25511 0.0
C3622 C 0.34384 0.54529 0.21004 0.0
C3623 C 0.31116 0.44965 0.24702 0.0
C3624 C 0.29015 0.44634 0.19596 0.0
C3625 C 0.31833 0.42717 0.19126 0.0
C3626 C 0.2927 0.46917 0.20823 0.0
C3627 C 0.32441 0.47322 0.21577 0.0
C3628 C 0.35275 0.45299 0.21138 0.0
C3629 C 0.34931 0.42999 0.19911 0.0
C3630 C 0.26175 0.48984 0.21278 0.0
C3631 C 0.38702 0.45692 0.21906 0.0
H3632 H 0.33456 0.58364 0.23567 0.0
H3633 H 0.307 0.50222 0.26645 0.0
H3634 H 0.36472 0.5293 0.20531 0.0
H3635 H 0.32175 0.54287 0.20216 0.0
H3636 H 0.35226 0.57241 0.21014 0.0
H3637 H 0.30786 0.44494 0.2595 0.0
H3638 H 0.28757 0.44142 0.24104 0.0
H3639 H 0.33233 0.43339 0.24277 0.0
H3640 H 0.26651 0.44458 0.18954 0.0
H3641 H 0.37135 0.41591 0.19503 0.0
H3642 H 0.26708 0.51748 0.21123 0.0
H3643 H 0.25586 0.48572 0.2251 0.0
H3644 H 0.23883 0.48309 0.20593 0.0
H3645 H 0.39825 0.48196 0.21585 0.0
H3646 H 0.40511 0.43644 0.21563 0.0
H3647 H 0.38428 0.45664 0.23173 0.0
C3648 C 0.31046 0.57708 0.95342 0.0
C3649 C 0.30272 0.59535 0.94011 0.0
C3650 C 0.28895 0.57919 0.96621 0.0
C3651 C 0.25978 0.60052 0.96555 0.0
C3652 C 0.25436 0.622 0.95277 0.0
C3653 C 0.27584 0.6189 0.94008 0.0
C3654 C 0.29551 0.55608 -0.02024 0.0
C3655 C 0.22416 0.64586 0.95191 0.0
C3656 C 0.18287 0.56587 -0.01349 0.0
C3657 C 0.18534 0.58357 0.00033 0.0
C3658 C 0.20658 0.57202 -0.0252 0.0
C3659 C 0.23264 0.59668 -0.02288 0.0
C3660 C 0.23368 0.61607 -0.00925 0.0
C3661 C 0.21009 0.60896 0.00231 0.0
C3662 C 0.20488 0.55092 0.96031 0.0
C3663 C 0.26061 0.64301 -0.00654 0.0
H3664 H 0.33136 0.55891 0.95333 0.0
H3665 H 0.27035 0.63336 0.92976 0.0
H3666 H 0.29291 0.57039 -0.00932 0.0
H3667 H 0.27624 0.53529 -0.02011 0.0
H3668 H 0.32131 0.54437 -0.02068 0.0
H3669 H 0.22714 0.66502 0.9426 0.0
H3670 H 0.20068 0.63083 0.94964 0.0
H3671 H 0.22046 0.65948 0.96295 0.0
H3672 H 0.16372 0.54606 -0.01478 0.0
H3673 H 0.21165 0.62246 0.01316 0.0
H3674 H 0.22831 0.53518 0.95924 0.0
H3675 H 0.20375 0.56785 0.95012 0.0
H3676 H 0.18236 0.53367 0.96013 0.0
H3677 H 0.28566 0.63052 -0.00467 0.0
H3678 H 0.25472 0.65904 0.00364 0.0
H3679 H 0.26319 0.65985 -0.01671 0.0
C3680 C 0.13911 0.56935 0.70233 0.0
C3681 C 0.16608 0.57255 0.69192 0.0
C3682 C 0.14123 0.54666 0.71472 0.0
C3683 C 0.17097 0.52655 0.71656 0.0
C3684 C 0.19924 0.53155 0.70669 0.0
C3685 C 0.19643 0.55463 0.69443 0.0
C3686 C 0.11072 0.54241 0.72514 0.0
C3687 C 0.23143 0.51075 0.70838 0.0
C3688 C 0.18074 0.48421 0.75519 0.0
C3689 C 0.16757 0.45135 0.75246 0.0
C3690 C 0.18307 0.50846 0.7435 0.0
C3691 C 0.17195 0.49978 0.72862 0.0
C3692 C 0.15988 0.46623 0.72556 0.0
C3693 C 0.15799 0.44219 0.73756 0.0
C3694 C 0.19626 0.54379 0.74723 0.0
C3695 C 0.14776 0.45622 0.70976 0.0
H3696 H 0.11533 0.58262 0.70006 0.0
H3697 H 0.21683 0.55643 0.68605 0.0
H3698 H 0.09949 0.51663 0.72348 0.0
H3699 H 0.11856 0.54436 0.73733 0.0
H3700 H 0.09066 0.56182 0.72288 0.0
H3701 H 0.25214 0.51997 0.70071 0.0
H3702 H 0.24062 0.51151 0.7204 0.0
H3703 H 0.22597 0.48364 0.70556 0.0
H3704 H 0.18881 0.49129 0.76665 0.0
H3705 H 0.14789 0.41685 0.73543 0.0
H3706 H 0.17551 0.56278 0.74573 0.0
H3707 H 0.21713 0.55093 0.73924 0.0
H3708 H 0.20593 0.54571 0.75917 0.0
H3709 H 0.12457 0.47109 0.7068 0.0
H3710 H 0.14159 0.42856 0.70897 0.0
H3711 H 0.16751 0.46243 0.70107 0.0
C3712 C 0.18352 0.42436 0.45772 0.0
C3713 C 0.1799 0.40237 0.44517 0.0
C3714 C 0.20761 0.41694 0.46934 0.0
C3715 C 0.22914 0.38781 0.46792 0.0
C3716 C 0.22304 0.36417 0.456 0.0
C3717 C 0.19797 0.37135 0.44507 0.0
C3718 C 0.21208 0.44177 0.4824 0.0
C3719 C 0.2457 0.3334 0.4536 0.0
C3720 C 0.321 0.40193 0.48026 0.0
C3721 C 0.32234 0.38499 0.49442 0.0
C3722 C 0.29106 0.40231 0.47145 0.0
C3723 C 0.26155 0.38522 0.47689 0.0
C3724 C 0.26357 0.36568 0.49057 0.0
C3725 C 0.29404 0.36577 0.49919 0.0
C3726 C 0.29049 0.42282 0.45676 0.0
C3727 C 0.2329 0.34687 0.49674 0.0
H3728 H 0.16959 0.44828 0.45789 0.0
H3729 H 0.19494 0.35409 0.43543 0.0
H3730 H 0.21667 0.42793 0.49332 0.0
H3731 H 0.23464 0.45816 0.48015 0.0
H3732 H 0.18939 0.4585 0.48378 0.0
H3733 H 0.23461 0.31507 0.44525 0.0
H3734 H 0.27081 0.342 0.44913 0.0
H3735 H 0.25036 0.31985 0.46457 0.0
H3736 H 0.34263 0.41731 0.47668 0.0
H3737 H 0.29459 0.35342 0.51032 0.0
H3738 H 0.27294 0.44488 0.45806 0.0
H3739 H 0.28079 0.40695 0.44716 0.0
H3740 H 0.31614 0.43271 0.45362 0.0
H3741 H 0.21439 0.36566 0.5014 0.0
H3742 H 0.23993 0.32881 0.50605 0.0
H3743 H 0.21978 0.33247 0.48752 0.0
loop_
_geom_bond_atom_site_label_1
_geom_bond_atom_site_label_2
_geom_bond_distance
_geom_bond_site_symmetry_2
_ccdc_geom_bond_type
Zn0 O6 1.920 . S
Zn0 O12 1.898 . S
Zn0 O15 1.905 . S
Zn1 O9 1.905 . S
Zn1 O10 1.898 . S
Zn1 O18 1.920 . S
Zn2 O5 2.080 . S
Zn2 O8 2.114 . S
Zn2 O11 2.120 . S
Zn2 O13 2.120 . S
Zn2 O14 2.114 . S
Zn2 O17 2.080 . S
C3 O8 1.166 . S
C3 O9 1.182 . S
C4 O10 1.167 . S
C4 O11 1.299 . S
O5 Zn2 2.080 . S
O5 C19 1.305 . S
O6 Zn0 1.920 . S
O6 C19 1.234 . S
C7 O12 1.167 . S
C7 O13 1.299 . S
O8 Zn2 2.114 . S
O8 C3 1.166 . S
O9 Zn1 1.905 . S
O9 C3 1.182 . S
O10 Zn1 1.898 . S
O10 C4 1.167 . S
O11 Zn2 2.120 . S
O11 C4 1.299 . S
O12 Zn0 1.898 . S
O12 C7 1.167 . S
O13 Zn2 2.120 . S
O13 C7 1.299 . S
O14 Zn2 2.114 . S
O14 C16 1.166 . S
O15 Zn0 1.905 . S
O15 C16 1.182 . S
C16 O14 1.166 . S
C16 O15 1.182 . S
O17 Zn2 2.080 . S
O17 C20 1.305 . S
O18 Zn1 1.920 . S
O18 C20 1.234 . S
C19 O5 1.305 . S
C19 O6 1.234 . S
C20 O17 1.305 . S
C20 O18 1.234 . S
Zn21 O27 1.920 . S
Zn21 O33 1.898 . S
Zn21 O36 1.905 . S
Zn22 O30 1.905 . S
Zn22 O31 1.898 . S
Zn22 O39 1.920 . S
Zn23 O26 2.080 . S
Zn23 O29 2.114 . S
Zn23 O32 2.120 . S
Zn23 O34 2.120 . S
Zn23 O35 2.114 . S
Zn23 O38 2.080 . S
C24 O29 1.166 . S
C24 O30 1.182 . S
C25 O31 1.167 . S
C25 O32 1.299 . S
O26 Zn23 2.080 . S
O26 C40 1.305 . S
O27 Zn21 1.920 . S
O27 C40 1.234 . S
C28 O33 1.167 . S
C28 O34 1.299 . S
O29 Zn23 2.114 . S
O29 C24 1.166 . S
O30 Zn22 1.905 . S
O30 C24 1.182 . S
O31 Zn22 1.898 . S
O31 C25 1.167 . S
O32 Zn23 2.120 . S
O32 C25 1.299 . S
O33 Zn21 1.898 . S
O33 C28 1.167 . S
O34 Zn23 2.120 . S
O34 C28 1.299 . S
O35 Zn23 2.114 . S
O35 C37 1.166 . S
O36 Zn21 1.905 . S
O36 C37 1.182 . S
C37 O35 1.166 . S
C37 O36 1.182 . S
O38 Zn23 2.080 . S
O38 C41 1.305 . S
O39 Zn22 1.920 . S
O39 C41 1.234 . S
C40 O26 1.305 . S
C40 O27 1.234 . S
C41 O38 1.305 . S
C41 O39 1.234 . S
Zn42 O48 1.920 . S
Zn42 O54 1.898 . S
Zn42 O57 1.905 . S
Zn43 O51 1.905 . S
Zn43 O52 1.898 . S
Zn43 O60 1.920 . S
Zn44 O47 2.080 . S
Zn44 O50 2.114 . S
Zn44 O53 2.120 . S
Zn44 O55 2.120 . S
Zn44 O56 2.114 . S
Zn44 O59 2.080 . S
C45 O50 1.166 . S
C45 O51 1.182 . S
C46 O52 1.167 . S
C46 O53 1.299 . S
O47 Zn44 2.080 . S
O47 C61 1.305 . S
O48 Zn42 1.920 . S
O48 C61 1.234 . S
C49 O54 1.167 . S
C49 O55 1.299 . S
O50 Zn44 2.114 . S
O50 C45 1.166 . S
O51 Zn43 1.905 . S
O51 C45 1.182 . S
O52 Zn43 1.898 . S
O52 C46 1.167 . S
O53 Zn44 2.120 . S
O53 C46 1.299 . S
O54 Zn42 1.898 . S
O54 C49 1.167 . S
O55 Zn44 2.120 . S
O55 C49 1.299 . S
O56 Zn44 2.114 . S
O56 C58 1.166 . S
O57 Zn42 1.905 . S
O57 C58 1.182 . S
C58 O56 1.166 . S
C58 O57 1.182 . S
O59 Zn44 2.080 . S
O59 C62 1.305 . S
O60 Zn43 1.920 . S
O60 C62 1.234 . S
C61 O47 1.305 . S
C61 O48 1.234 . S
C62 O59 1.305 . S
C62 O60 1.234 . S
Zn63 O69 1.920 . S
Zn63 O75 1.898 . S
Zn63 O78 1.905 . S
Zn64 O72 1.905 . S
Zn64 O73 1.898 . S
Zn64 O81 1.920 . S
Zn65 O68 2.080 . S
Zn65 O71 2.114 . S
Zn65 O74 2.120 . S
Zn65 O76 2.120 . S
Zn65 O77 2.114 . S
Zn65 O80 2.080 . S
C66 O71 1.166 . S
C66 O72 1.182 . S
C67 O73 1.167 . S
C67 O74 1.299 . S
O68 Zn65 2.080 . S
O68 C82 1.305 . S
O69 Zn63 1.920 . S
O69 C82 1.234 . S
C70 O75 1.167 . S
C70 O76 1.299 . S
O71 Zn65 2.114 . S
O71 C66 1.166 . S
O72 Zn64 1.905 . S
O72 C66 1.182 . S
O73 Zn64 1.898 . S
O73 C67 1.167 . S
O74 Zn65 2.120 . S
O74 C67 1.299 . S
O75 Zn63 1.898 . S
O75 C70 1.167 . S
O76 Zn65 2.120 . S
O76 C70 1.299 . S
O77 Zn65 2.114 . S
O77 C79 1.166 . S
O78 Zn63 1.905 . S
O78 C79 1.182 . S
C79 O77 1.166 . S
C79 O78 1.182 . S
O80 Zn65 2.080 . S
O80 C83 1.305 . S
O81 Zn64 1.920 . S
O81 C83 1.234 . S
C82 O68 1.305 . S
C82 O69 1.234 . S
C83 O80 1.305 . S
C83 O81 1.234 . S
Zn84 O90 1.920 . S
Zn84 O96 1.898 . S
Zn84 O99 1.905 . S
Zn85 O93 1.905 . S
Zn85 O94 1.898 . S
Zn85 O102 1.920 . S
Zn86 O89 2.080 . S
Zn86 O92 2.114 . S
Zn86 O95 2.120 . S
Zn86 O97 2.120 . S
Zn86 O98 2.114 . S
Zn86 O101 2.080 . S
C87 O92 1.166 . S
C87 O93 1.182 . S
C88 O94 1.167 . S
C88 O95 1.299 . S
O89 Zn86 2.080 . S
O89 C103 1.305 . S
O90 Zn84 1.920 . S
O90 C103 1.234 . S
C91 O96 1.167 . S
C91 O97 1.299 . S
O92 Zn86 2.114 . S
O92 C87 1.166 . S
O93 Zn85 1.905 . S
O93 C87 1.182 . S
O94 Zn85 1.898 . S
O94 C88 1.167 . S
O95 Zn86 2.120 . S
O95 C88 1.299 . S
O96 Zn84 1.898 . S
O96 C91 1.167 . S
O97 Zn86 2.120 . S
O97 C91 1.299 . S
O98 Zn86 2.114 . S
O98 C100 1.166 . S
O99 Zn84 1.905 . S
O99 C100 1.182 . S
C100 O98 1.166 . S
C100 O99 1.182 . S
O101 Zn86 2.080 . S
O101 C104 1.305 . S
O102 Zn85 1.920 . S
O102 C104 1.234 . S
C103 O89 1.305 . S
C103 O90 1.234 . S
C104 O101 1.305 . S
C104 O102 1.234 . S
Zn105 O111 1.920 . S
Zn105 O117 1.898 . S
Zn105 O120 1.905 . S
Zn106 O114 1.905 . S
Zn106 O115 1.898 . S
Zn106 O123 1.920 . S
Zn107 O110 2.080 . S
Zn107 O113 2.114 . S
Zn107 O116 2.120 . S
Zn107 O118 2.120 . S
Zn107 O119 2.114 . S
Zn107 O122 2.080 . S
C108 O113 1.166 . S
C108 O114 1.182 . S
C109 O115 1.167 . S
C109 O116 1.299 . S
O110 Zn107 2.080 . S
O110 C124 1.305 . S
O111 Zn105 1.920 . S
O111 C124 1.234 . S
C112 O117 1.167 . S
C112 O118 1.299 . S
O113 Zn107 2.114 . S
O113 C108 1.166 . S
O114 Zn106 1.905 . S
O114 C108 1.182 . S
O115 Zn106 1.898 . S
O115 C109 1.167 . S
O116 Zn107 2.120 . S
O116 C109 1.299 . S
O117 Zn105 1.898 . S
O117 C112 1.167 . S
O118 Zn107 2.120 . S
O118 C112 1.299 . S
O119 Zn107 2.114 . S
O119 C121 1.166 . S
O120 Zn105 1.905 . S
O120 C121 1.182 . S
C121 O119 1.166 . S
C121 O120 1.182 . S
O122 Zn107 2.080 . S
O122 C125 1.305 . S
O123 Zn106 1.920 . S
O123 C125 1.234 . S
C124 O110 1.305 . S
C124 O111 1.234 . S
C125 O122 1.305 . S
C125 O123 1.234 . S
Zn126 O132 1.920 . S
Zn126 O138 1.898 . S
Zn126 O141 1.905 . S
Zn127 O135 1.905 . S
Zn127 O136 1.898 . S
Zn127 O144 1.920 . S
Zn128 O131 2.080 . S
Zn128 O134 2.114 . S
Zn128 O137 2.120 . S
Zn128 O139 2.120 . S
Zn128 O140 2.114 . S
Zn128 O143 2.080 . S
C129 O134 1.166 . S
C129 O135 1.182 . S
C130 O136 1.167 . S
C130 O137 1.299 . S
O131 Zn128 2.080 . S
O131 C145 1.305 . S
O132 Zn126 1.920 . S
O132 C145 1.234 . S
C133 O138 1.167 . S
C133 O139 1.299 . S
O134 Zn128 2.114 . S
O134 C129 1.166 . S
O135 Zn127 1.905 . S
O135 C129 1.182 . S
O136 Zn127 1.898 . S
O136 C130 1.167 . S
O137 Zn128 2.120 . S
O137 C130 1.299 . S
O138 Zn126 1.898 . S
O138 C133 1.167 . S
O139 Zn128 2.120 . S
O139 C133 1.299 . S
O140 Zn128 2.114 . S
O140 C142 1.166 . S
O141 Zn126 1.905 . S
O141 C142 1.182 . S
C142 O140 1.166 . S
C142 O141 1.182 . S
O143 Zn128 2.080 . S
O143 C146 1.305 . S
O144 Zn127 1.920 . S
O144 C146 1.234 . S
C145 O131 1.305 . S
C145 O132 1.234 . S
C146 O143 1.305 . S
C146 O144 1.234 . S
Zn147 O153 1.920 . S
Zn147 O159 1.898 . S
Zn147 O162 1.905 . S
Zn148 O156 1.905 . S
Zn148 O157 1.898 . S
Zn148 O165 1.920 . S
Zn149 O152 2.080 . S
Zn149 O155 2.114 . S
Zn149 O158 2.120 . S
Zn149 O160 2.120 . S
Zn149 O161 2.114 . S
Zn149 O164 2.080 . S
C150 O155 1.166 . S
C150 O156 1.182 . S
C151 O157 1.167 . S
C151 O158 1.299 . S
O152 Zn149 2.080 . S
O152 C166 1.305 . S
O153 Zn147 1.920 . S
O153 C166 1.234 . S
C154 O159 1.167 . S
C154 O160 1.299 . S
O155 Zn149 2.114 . S
O155 C150 1.166 . S
O156 Zn148 1.905 . S
O156 C150 1.182 . S
O157 Zn148 1.898 . S
O157 C151 1.167 . S
O158 Zn149 2.120 . S
O158 C151 1.299 . S
O159 Zn147 1.898 . S
O159 C154 1.167 . S
O160 Zn149 2.120 . S
O160 C154 1.299 . S
O161 Zn149 2.114 . S
O161 C163 1.166 . S
O162 Zn147 1.905 . S
O162 C163 1.182 . S
C163 O161 1.166 . S
C163 O162 1.182 . S
O164 Zn149 2.080 . S
O164 C167 1.305 . S
O165 Zn148 1.920 . S
O165 C167 1.234 . S
C166 O152 1.305 . S
C166 O153 1.234 . S
C167 O164 1.305 . S
C167 O165 1.234 . S
Zn168 O174 1.920 . S
Zn168 O180 1.898 . S
Zn168 O183 1.905 . S
Zn169 O177 1.905 . S
Zn169 O178 1.898 . S
Zn169 O186 1.920 . S
Zn170 O173 2.080 . S
Zn170 O176 2.114 . S
Zn170 O179 2.120 . S
Zn170 O181 2.120 . S
Zn170 O182 2.114 . S
Zn170 O185 2.080 . S
C171 O176 1.166 . S
C171 O177 1.182 . S
C172 O178 1.167 . S
C172 O179 1.299 . S
O173 Zn170 2.080 . S
O173 C187 1.305 . S
O174 Zn168 1.920 . S
O174 C187 1.234 . S
C175 O180 1.167 . S
C175 O181 1.299 . S
O176 Zn170 2.114 . S
O176 C171 1.166 . S
O177 Zn169 1.905 . S
O177 C171 1.182 . S
O178 Zn169 1.898 . S
O178 C172 1.167 . S
O179 Zn170 2.120 . S
O179 C172 1.299 . S
O180 Zn168 1.898 . S
O180 C175 1.167 . S
O181 Zn170 2.120 . S
O181 C175 1.299 . S
O182 Zn170 2.114 . S
O182 C184 1.166 . S
O183 Zn168 1.905 . S
O183 C184 1.182 . S
C184 O182 1.166 . S
C184 O183 1.182 . S
O185 Zn170 2.080 . S
O185 C188 1.305 . S
O186 Zn169 1.920 . S
O186 C188 1.234 . S
C187 O173 1.305 . S
C187 O174 1.234 . S
C188 O185 1.305 . S
C188 O186 1.234 . S
Zn189 O195 1.920 . S
Zn189 O201 1.898 . S
Zn189 O204 1.905 . S
Zn190 O198 1.905 . S
Zn190 O199 1.898 . S
Zn190 O207 1.920 . S
Zn191 O194 2.080 . S
Zn191 O197 2.114 . S
Zn191 O200 2.120 . S
Zn191 O202 2.120 . S
Zn191 O203 2.114 . S
Zn191 O206 2.080 . S
C192 O197 1.166 . S
C192 O198 1.182 . S
C193 O199 1.167 . S
C193 O200 1.299 . S
O194 Zn191 2.080 . S
O194 C208 1.305 . S
O195 Zn189 1.920 . S
O195 C208 1.234 . S
C196 O201 1.167 . S
C196 O202 1.299 . S
O197 Zn191 2.114 . S
O197 C192 1.166 . S
O198 Zn190 1.905 . S
O198 C192 1.182 . S
O199 Zn190 1.898 . S
O199 C193 1.167 . S
O200 Zn191 2.120 . S
O200 C193 1.299 . S
O201 Zn189 1.898 . S
O201 C196 1.167 . S
O202 Zn191 2.120 . S
O202 C196 1.299 . S
O203 Zn191 2.114 . S
O203 C205 1.166 . S
O204 Zn189 1.905 . S
O204 C205 1.182 . S
C205 O203 1.166 . S
C205 O204 1.182 . S
O206 Zn191 2.080 . S
O206 C209 1.305 . S
O207 Zn190 1.920 . S
O207 C209 1.234 . S
C208 O194 1.305 . S
C208 O195 1.234 . S
C209 O206 1.305 . S
C209 O207 1.234 . S
Zn210 O216 1.920 . S
Zn210 O222 1.898 . S
Zn210 O225 1.905 . S
Zn211 O219 1.905 . S
Zn211 O220 1.898 . S
Zn211 O228 1.920 . S
Zn212 O215 2.080 . S
Zn212 O218 2.114 . S
Zn212 O221 2.120 . S
Zn212 O223 2.120 . S
Zn212 O224 2.114 . S
Zn212 O227 2.080 . S
C213 O218 1.166 . S
C213 O219 1.182 . S
C214 O220 1.167 . S
C214 O221 1.299 . S
O215 Zn212 2.080 . S
O215 C229 1.305 . S
O216 Zn210 1.920 . S
O216 C229 1.234 . S
C217 O222 1.167 . S
C217 O223 1.299 . S
O218 Zn212 2.114 . S
O218 C213 1.166 . S
O219 Zn211 1.905 . S
O219 C213 1.182 . S
O220 Zn211 1.898 . S
O220 C214 1.167 . S
O221 Zn212 2.120 . S
O221 C214 1.299 . S
O222 Zn210 1.898 . S
O222 C217 1.167 . S
O223 Zn212 2.120 . S
O223 C217 1.299 . S
O224 Zn212 2.114 . S
O224 C226 1.166 . S
O225 Zn210 1.905 . S
O225 C226 1.182 . S
C226 O224 1.166 . S
C226 O225 1.182 . S
O227 Zn212 2.080 . S
O227 C230 1.305 . S
O228 Zn211 1.920 . S
O228 C230 1.234 . S
C229 O215 1.305 . S
C229 O216 1.234 . S
C230 O227 1.305 . S
C230 O228 1.234 . S
Zn231 O237 1.920 . S
Zn231 O243 1.898 . S
Zn231 O246 1.905 . S
Zn232 O240 1.905 . S
Zn232 O241 1.898 . S
Zn232 O249 1.920 . S
Zn233 O236 2.080 . S
Zn233 O239 2.114 . S
Zn233 O242 2.120 . S
Zn233 O244 2.120 . S
Zn233 O245 2.114 . S
Zn233 O248 2.080 . S
C234 O239 1.166 . S
C234 O240 1.182 . S
C235 O241 1.167 . S
C235 O242 1.299 . S
O236 Zn233 2.080 . S
O236 C250 1.305 . S
O237 Zn231 1.920 . S
O237 C250 1.234 . S
C238 O243 1.167 . S
C238 O244 1.299 . S
O239 Zn233 2.114 . S
O239 C234 1.166 . S
O240 Zn232 1.905 . S
O240 C234 1.182 . S
O241 Zn232 1.898 . S
O241 C235 1.167 . S
O242 Zn233 2.120 . S
O242 C235 1.299 . S
O243 Zn231 1.898 . S
O243 C238 1.167 . S
O244 Zn233 2.120 . S
O244 C238 1.299 . S
O245 Zn233 2.114 . S
O245 C247 1.166 . S
O246 Zn231 1.905 . S
O246 C247 1.182 . S
C247 O245 1.166 . S
C247 O246 1.182 . S
O248 Zn233 2.080 . S
O248 C251 1.305 . S
O249 Zn232 1.920 . S
O249 C251 1.234 . S
C250 O236 1.305 . S
C250 O237 1.234 . S
C251 O248 1.305 . S
C251 O249 1.234 . S
Zn252 O258 1.920 . S
Zn252 O264 1.898 . S
Zn252 O267 1.905 . S
Zn253 O261 1.905 . S
Zn253 O262 1.898 . S
Zn253 O270 1.920 . S
Zn254 O257 2.080 . S
Zn254 O260 2.114 . S
Zn254 O263 2.120 . S
Zn254 O265 2.120 . S
Zn254 O266 2.114 . S
Zn254 O269 2.080 . S
C255 O260 1.166 . S
C255 O261 1.182 . S
C256 O262 1.167 . S
C256 O263 1.299 . S
O257 Zn254 2.080 . S
O257 C271 1.305 . S
O258 Zn252 1.920 . S
O258 C271 1.234 . S
C259 O264 1.167 . S
C259 O265 1.299 . S
O260 Zn254 2.114 . S
O260 C255 1.166 . S
O261 Zn253 1.905 . S
O261 C255 1.182 . S
O262 Zn253 1.898 . S
O262 C256 1.167 . S
O263 Zn254 2.120 . S
O263 C256 1.299 . S
O264 Zn252 1.898 . S
O264 C259 1.167 . S
O265 Zn254 2.120 . S
O265 C259 1.299 . S
O266 Zn254 2.114 . S
O266 C268 1.166 . S
O267 Zn252 1.905 . S
O267 C268 1.182 . S
C268 O266 1.166 . S
C268 O267 1.182 . S
O269 Zn254 2.080 . S
O269 C272 1.305 . S
O270 Zn253 1.920 . S
O270 C272 1.234 . S
C271 O257 1.305 . S
C271 O258 1.234 . S
C272 O269 1.305 . S
C272 O270 1.234 . S
Zn273 O279 1.920 . S
Zn273 O285 1.898 . S
Zn273 O288 1.905 . S
Zn274 O282 1.905 . S
Zn274 O283 1.898 . S
Zn274 O291 1.920 . S
Zn275 O278 2.080 . S
Zn275 O281 2.114 . S
Zn275 O284 2.120 . S
Zn275 O286 2.120 . S
Zn275 O287 2.114 . S
Zn275 O290 2.080 . S
C276 O281 1.166 . S
C276 O282 1.182 . S
C277 O283 1.167 . S
C277 O284 1.299 . S
O278 Zn275 2.080 . S
O278 C292 1.305 . S
O279 Zn273 1.920 . S
O279 C292 1.234 . S
C280 O285 1.167 . S
C280 O286 1.299 . S
O281 Zn275 2.114 . S
O281 C276 1.166 . S
O282 Zn274 1.905 . S
O282 C276 1.182 . S
O283 Zn274 1.898 . S
O283 C277 1.167 . S
O284 Zn275 2.120 . S
O284 C277 1.299 . S
O285 Zn273 1.898 . S
O285 C280 1.167 . S
O286 Zn275 2.120 . S
O286 C280 1.299 . S
O287 Zn275 2.114 . S
O287 C289 1.166 . S
O288 Zn273 1.905 . S
O288 C289 1.182 . S
C289 O287 1.166 . S
C289 O288 1.182 . S
O290 Zn275 2.080 . S
O290 C293 1.305 . S
O291 Zn274 1.920 . S
O291 C293 1.234 . S
C292 O278 1.305 . S
C292 O279 1.234 . S
C293 O290 1.305 . S
C293 O291 1.234 . S
Zn294 O300 1.920 . S
Zn294 O306 1.898 . S
Zn294 O309 1.905 . S
Zn295 O303 1.905 . S
Zn295 O304 1.898 . S
Zn295 O312 1.920 . S
Zn296 O299 2.080 . S
Zn296 O302 2.114 . S
Zn296 O305 2.120 . S
Zn296 O307 2.120 . S
Zn296 O308 2.114 . S
Zn296 O311 2.080 . S
C297 O302 1.166 . S
C297 O303 1.182 . S
C298 O304 1.167 . S
C298 O305 1.299 . S
O299 Zn296 2.080 . S
O299 C313 1.305 . S
O300 Zn294 1.920 . S
O300 C313 1.234 . S
C301 O306 1.167 . S
C301 O307 1.299 . S
O302 Zn296 2.114 . S
O302 C297 1.166 . S
O303 Zn295 1.905 . S
O303 C297 1.182 . S
O304 Zn295 1.898 . S
O304 C298 1.167 . S
O305 Zn296 2.120 . S
O305 C298 1.299 . S
O306 Zn294 1.898 . S
O306 C301 1.167 . S
O307 Zn296 2.120 . S
O307 C301 1.299 . S
O308 Zn296 2.114 . S
O308 C310 1.166 . S
O309 Zn294 1.905 . S
O309 C310 1.182 . S
C310 O308 1.166 . S
C310 O309 1.182 . S
O311 Zn296 2.080 . S
O311 C314 1.305 . S
O312 Zn295 1.920 . S
O312 C314 1.234 . S
C313 O299 1.305 . S
C313 O300 1.234 . S
C314 O311 1.305 . S
C314 O312 1.234 . S
Zn315 O321 1.920 . S
Zn315 O327 1.898 . S
Zn315 O330 1.905 . S
Zn316 O324 1.905 . S
Zn316 O325 1.898 . S
Zn316 O333 1.920 . S
Zn317 O320 2.080 . S
Zn317 O323 2.114 . S
Zn317 O326 2.120 . S
Zn317 O328 2.120 . S
Zn317 O329 2.114 . S
Zn317 O332 2.080 . S
C318 O323 1.166 . S
C318 O324 1.182 . S
C319 O325 1.167 . S
C319 O326 1.299 . S
O320 Zn317 2.080 . S
O320 C334 1.305 . S
O321 Zn315 1.920 . S
O321 C334 1.234 . S
C322 O327 1.167 . S
C322 O328 1.299 . S
O323 Zn317 2.114 . S
O323 C318 1.166 . S
O324 Zn316 1.905 . S
O324 C318 1.182 . S
O325 Zn316 1.898 . S
O325 C319 1.167 . S
O326 Zn317 2.120 . S
O326 C319 1.299 . S
O327 Zn315 1.898 . S
O327 C322 1.167 . S
O328 Zn317 2.120 . S
O328 C322 1.299 . S
O329 Zn317 2.114 . S
O329 C331 1.166 . S
O330 Zn315 1.905 . S
O330 C331 1.182 . S
C331 O329 1.166 . S
C331 O330 1.182 . S
O332 Zn317 2.080 . S
O332 C335 1.305 . S
O333 Zn316 1.920 . S
O333 C335 1.234 . S
C334 O320 1.305 . S
C334 O321 1.234 . S
C335 O332 1.305 . S
C335 O333 1.234 . S
Zn336 O342 1.920 . S
Zn336 O348 1.898 . S
Zn336 O351 1.905 . S
Zn337 O345 1.905 . S
Zn337 O346 1.898 . S
Zn337 O354 1.920 . S
Zn338 O341 2.080 . S
Zn338 O344 2.114 . S
Zn338 O347 2.120 . S
Zn338 O349 2.120 . S
Zn338 O350 2.114 . S
Zn338 O353 2.080 . S
C339 O344 1.166 . S
C339 O345 1.182 . S
C340 O346 1.167 . S
C340 O347 1.299 . S
O341 Zn338 2.080 . S
O341 C355 1.305 . S
O342 Zn336 1.920 . S
O342 C355 1.234 . S
C343 O348 1.167 . S
C343 O349 1.299 . S
O344 Zn338 2.114 . S
O344 C339 1.166 . S
O345 Zn337 1.905 . S
O345 C339 1.182 . S
O346 Zn337 1.898 . S
O346 C340 1.167 . S
O347 Zn338 2.120 . S
O347 C340 1.299 . S
O348 Zn336 1.898 . S
O348 C343 1.167 . S
O349 Zn338 2.120 . S
O349 C343 1.299 . S
O350 Zn338 2.114 . S
O350 C352 1.166 . S
O351 Zn336 1.905 . S
O351 C352 1.182 . S
C352 O350 1.166 . S
C352 O351 1.182 . S
O353 Zn338 2.080 . S
O353 C356 1.305 . S
O354 Zn337 1.920 . S
O354 C356 1.234 . S
C355 O341 1.305 . S
C355 O342 1.234 . S
C356 O353 1.305 . S
C356 O354 1.234 . S
Zn357 O363 1.920 . S
Zn357 O369 1.898 . S
Zn357 O372 1.905 . S
Zn358 O366 1.905 . S
Zn358 O367 1.898 . S
Zn358 O375 1.920 . S
Zn359 O362 2.080 . S
Zn359 O365 2.114 . S
Zn359 O368 2.120 . S
Zn359 O370 2.120 . S
Zn359 O371 2.114 . S
Zn359 O374 2.080 . S
C360 O365 1.166 . S
C360 O366 1.182 . S
C361 O367 1.167 . S
C361 O368 1.299 . S
O362 Zn359 2.080 . S
O362 C376 1.305 . S
O363 Zn357 1.920 . S
O363 C376 1.234 . S
C364 O369 1.167 . S
C364 O370 1.299 . S
O365 Zn359 2.114 . S
O365 C360 1.166 . S
O366 Zn358 1.905 . S
O366 C360 1.182 . S
O367 Zn358 1.898 . S
O367 C361 1.167 . S
O368 Zn359 2.120 . S
O368 C361 1.299 . S
O369 Zn357 1.898 . S
O369 C364 1.167 . S
O370 Zn359 2.120 . S
O370 C364 1.299 . S
O371 Zn359 2.114 . S
O371 C373 1.166 . S
O372 Zn357 1.905 . S
O372 C373 1.182 . S
C373 O371 1.166 . S
C373 O372 1.182 . S
O374 Zn359 2.080 . S
O374 C377 1.305 . S
O375 Zn358 1.920 . S
O375 C377 1.234 . S
C376 O362 1.305 . S
C376 O363 1.234 . S
C377 O374 1.305 . S
C377 O375 1.234 . S
Zn378 O384 1.920 . S
Zn378 O390 1.898 . S
Zn378 O393 1.905 . S
Zn379 O387 1.905 . S
Zn379 O388 1.898 . S
Zn379 O396 1.920 . S
Zn380 O383 2.080 . S
Zn380 O386 2.114 . S
Zn380 O389 2.120 . S
Zn380 O391 2.120 . S
Zn380 O392 2.114 . S
Zn380 O395 2.080 . S
C381 O386 1.166 . S
C381 O387 1.182 . S
C382 O388 1.167 . S
C382 O389 1.299 . S
O383 Zn380 2.080 . S
O383 C397 1.305 . S
O384 Zn378 1.920 . S
O384 C397 1.234 . S
C385 O390 1.167 . S
C385 O391 1.299 . S
O386 Zn380 2.114 . S
O386 C381 1.166 . S
O387 Zn379 1.905 . S
O387 C381 1.182 . S
O388 Zn379 1.898 . S
O388 C382 1.167 . S
O389 Zn380 2.120 . S
O389 C382 1.299 . S
O390 Zn378 1.898 . S
O390 C385 1.167 . S
O391 Zn380 2.120 . S
O391 C385 1.299 . S
O392 Zn380 2.114 . S
O392 C394 1.166 . S
O393 Zn378 1.905 . S
O393 C394 1.182 . S
C394 O392 1.166 . S
C394 O393 1.182 . S
O395 Zn380 2.080 . S
O395 C398 1.305 . S
O396 Zn379 1.920 . S
O396 C398 1.234 . S
C397 O383 1.305 . S
C397 O384 1.234 . S
C398 O395 1.305 . S
C398 O396 1.234 . S
Zn399 O405 1.920 . S
Zn399 O411 1.898 . S
Zn399 O414 1.905 . S
Zn400 O408 1.905 . S
Zn400 O409 1.898 . S
Zn400 O417 1.920 . S
Zn401 O404 2.080 . S
Zn401 O407 2.114 . S
Zn401 O410 2.120 . S
Zn401 O412 2.120 . S
Zn401 O413 2.114 . S
Zn401 O416 2.080 . S
C402 O407 1.166 . S
C402 O408 1.182 . S
C403 O409 1.167 . S
C403 O410 1.299 . S
O404 Zn401 2.080 . S
O404 C418 1.305 . S
O405 Zn399 1.920 . S
O405 C418 1.234 . S
C406 O411 1.167 . S
C406 O412 1.299 . S
O407 Zn401 2.114 . S
O407 C402 1.166 . S
O408 Zn400 1.905 . S
O408 C402 1.182 . S
O409 Zn400 1.898 . S
O409 C403 1.167 . S
O410 Zn401 2.120 . S
O410 C403 1.299 . S
O411 Zn399 1.898 . S
O411 C406 1.167 . S
O412 Zn401 2.120 . S
O412 C406 1.299 . S
O413 Zn401 2.114 . S
O413 C415 1.166 . S
O414 Zn399 1.905 . S
O414 C415 1.182 . S
C415 O413 1.166 . S
C415 O414 1.182 . S
O416 Zn401 2.080 . S
O416 C419 1.305 . S
O417 Zn400 1.920 . S
O417 C419 1.234 . S
C418 O404 1.305 . S
C418 O405 1.234 . S
C419 O416 1.305 . S
C419 O417 1.234 . S
Zn420 O426 1.920 . S
Zn420 O432 1.898 . S
Zn420 O435 1.905 . S
Zn421 O429 1.905 . S
Zn421 O430 1.898 . S
Zn421 O438 1.920 . S
Zn422 O425 2.080 . S
Zn422 O428 2.114 . S
Zn422 O431 2.120 . S
Zn422 O433 2.120 . S
Zn422 O434 2.114 . S
Zn422 O437 2.080 . S
C423 O428 1.166 . S
C423 O429 1.182 . S
C424 O430 1.167 . S
C424 O431 1.299 . S
O425 Zn422 2.080 . S
O425 C439 1.305 . S
O426 Zn420 1.920 . S
O426 C439 1.234 . S
C427 O432 1.167 . S
C427 O433 1.299 . S
O428 Zn422 2.114 . S
O428 C423 1.166 . S
O429 Zn421 1.905 . S
O429 C423 1.182 . S
O430 Zn421 1.898 . S
O430 C424 1.167 . S
O431 Zn422 2.120 . S
O431 C424 1.299 . S
O432 Zn420 1.898 . S
O432 C427 1.167 . S
O433 Zn422 2.120 . S
O433 C427 1.299 . S
O434 Zn422 2.114 . S
O434 C436 1.166 . S
O435 Zn420 1.905 . S
O435 C436 1.182 . S
C436 O434 1.166 . S
C436 O435 1.182 . S
O437 Zn422 2.080 . S
O437 C440 1.305 . S
O438 Zn421 1.920 . S
O438 C440 1.234 . S
C439 O425 1.305 . S
C439 O426 1.234 . S
C440 O437 1.305 . S
C440 O438 1.234 . S
Zn441 O447 1.920 . S
Zn441 O453 1.898 . S
Zn441 O456 1.905 . S
Zn442 O450 1.905 . S
Zn442 O451 1.898 . S
Zn442 O459 1.920 . S
Zn443 O446 2.080 . S
Zn443 O449 2.114 . S
Zn443 O452 2.120 . S
Zn443 O454 2.120 . S
Zn443 O455 2.114 . S
Zn443 O458 2.080 . S
C444 O449 1.166 . S
C444 O450 1.182 . S
C445 O451 1.167 . S
C445 O452 1.299 . S
O446 Zn443 2.080 . S
O446 C460 1.305 . S
O447 Zn441 1.920 . S
O447 C460 1.234 . S
C448 O453 1.167 . S
C448 O454 1.299 . S
O449 Zn443 2.114 . S
O449 C444 1.166 . S
O450 Zn442 1.905 . S
O450 C444 1.182 . S
O451 Zn442 1.898 . S
O451 C445 1.167 . S
O452 Zn443 2.120 . S
O452 C445 1.299 . S
O453 Zn441 1.898 . S
O453 C448 1.167 . S
O454 Zn443 2.120 . S
O454 C448 1.299 . S
O455 Zn443 2.114 . S
O455 C457 1.166 . S
O456 Zn441 1.905 . S
O456 C457 1.182 . S
C457 O455 1.166 . S
C457 O456 1.182 . S
O458 Zn443 2.080 . S
O458 C461 1.305 . S
O459 Zn442 1.920 . S
O459 C461 1.234 . S
C460 O446 1.305 . S
C460 O447 1.234 . S
C461 O458 1.305 . S
C461 O459 1.234 . S
Zn462 O468 1.920 . S
Zn462 O474 1.898 . S
Zn462 O477 1.905 . S
Zn463 O471 1.905 . S
Zn463 O472 1.898 . S
Zn463 O480 1.920 . S
Zn464 O467 2.080 . S
Zn464 O470 2.114 . S
Zn464 O473 2.120 . S
Zn464 O475 2.120 . S
Zn464 O476 2.114 . S
Zn464 O479 2.080 . S
C465 O470 1.166 . S
C465 O471 1.182 . S
C466 O472 1.167 . S
C466 O473 1.299 . S
O467 Zn464 2.080 . S
O467 C481 1.305 . S
O468 Zn462 1.920 . S
O468 C481 1.234 . S
C469 O474 1.167 . S
C469 O475 1.299 . S
O470 Zn464 2.114 . S
O470 C465 1.166 . S
O471 Zn463 1.905 . S
O471 C465 1.182 . S
O472 Zn463 1.898 . S
O472 C466 1.167 . S
O473 Zn464 2.120 . S
O473 C466 1.299 . S
O474 Zn462 1.898 . S
O474 C469 1.167 . S
O475 Zn464 2.120 . S
O475 C469 1.299 . S
O476 Zn464 2.114 . S
O476 C478 1.166 . S
O477 Zn462 1.905 . S
O477 C478 1.182 . S
C478 O476 1.166 . S
C478 O477 1.182 . S
O479 Zn464 2.080 . S
O479 C482 1.305 . S
O480 Zn463 1.920 . S
O480 C482 1.234 . S
C481 O467 1.305 . S
C481 O468 1.234 . S
C482 O479 1.305 . S
C482 O480 1.234 . S
Zn483 O489 1.920 . S
Zn483 O495 1.898 . S
Zn483 O498 1.905 . S
Zn484 O492 1.905 . S
Zn484 O493 1.898 . S
Zn484 O501 1.920 . S
Zn485 O488 2.080 . S
Zn485 O491 2.114 . S
Zn485 O494 2.120 . S
Zn485 O496 2.120 . S
Zn485 O497 2.114 . S
Zn485 O500 2.080 . S
C486 O491 1.166 . S
C486 O492 1.182 . S
C487 O493 1.167 . S
C487 O494 1.299 . S
O488 Zn485 2.080 . S
O488 C502 1.305 . S
O489 Zn483 1.920 . S
O489 C502 1.234 . S
C490 O495 1.167 . S
C490 O496 1.299 . S
O491 Zn485 2.114 . S
O491 C486 1.166 . S
O492 Zn484 1.905 . S
O492 C486 1.182 . S
O493 Zn484 1.898 . S
O493 C487 1.167 . S
O494 Zn485 2.120 . S
O494 C487 1.299 . S
O495 Zn483 1.898 . S
O495 C490 1.167 . S
O496 Zn485 2.120 . S
O496 C490 1.299 . S
O497 Zn485 2.114 . S
O497 C499 1.166 . S
O498 Zn483 1.905 . S
O498 C499 1.182 . S
C499 O497 1.166 . S
C499 O498 1.182 . S
O500 Zn485 2.080 . S
O500 C503 1.305 . S
O501 Zn484 1.920 . S
O501 C503 1.234 . S
C502 O488 1.305 . S
C502 O489 1.234 . S
C503 O500 1.305 . S
C503 O501 1.234 . S
Zn504 O510 1.920 . S
Zn504 O516 1.898 . S
Zn504 O519 1.905 . S
Zn505 O513 1.905 . S
Zn505 O514 1.898 . S
Zn505 O522 1.920 . S
Zn506 O509 2.080 . S
Zn506 O512 2.114 . S
Zn506 O515 2.120 . S
Zn506 O517 2.120 . S
Zn506 O518 2.114 . S
Zn506 O521 2.080 . S
C507 O512 1.166 . S
C507 O513 1.182 . S
C508 O514 1.167 . S
C508 O515 1.299 . S
O509 Zn506 2.080 . S
O509 C523 1.305 . S
O510 Zn504 1.920 . S
O510 C523 1.234 . S
C511 O516 1.167 . S
C511 O517 1.299 . S
O512 Zn506 2.114 . S
O512 C507 1.166 . S
O513 Zn505 1.905 . S
O513 C507 1.182 . S
O514 Zn505 1.898 . S
O514 C508 1.167 . S
O515 Zn506 2.120 . S
O515 C508 1.299 . S
O516 Zn504 1.898 . S
O516 C511 1.167 . S
O517 Zn506 2.120 . S
O517 C511 1.299 . S
O518 Zn506 2.114 . S
O518 C520 1.166 . S
O519 Zn504 1.905 . S
O519 C520 1.182 . S
C520 O518 1.166 . S
C520 O519 1.182 . S
O521 Zn506 2.080 . S
O521 C524 1.305 . S
O522 Zn505 1.920 . S
O522 C524 1.234 . S
C523 O509 1.305 . S
C523 O510 1.234 . S
C524 O521 1.305 . S
C524 O522 1.234 . S
Zn525 O531 1.920 . S
Zn525 O537 1.898 . S
Zn525 O540 1.905 . S
Zn526 O534 1.905 . S
Zn526 O535 1.898 . S
Zn526 O543 1.920 . S
Zn527 O530 2.080 . S
Zn527 O533 2.114 . S
Zn527 O536 2.120 . S
Zn527 O538 2.120 . S
Zn527 O539 2.114 . S
Zn527 O542 2.080 . S
C528 O533 1.166 . S
C528 O534 1.182 . S
C529 O535 1.167 . S
C529 O536 1.299 . S
O530 Zn527 2.080 . S
O530 C544 1.305 . S
O531 Zn525 1.920 . S
O531 C544 1.234 . S
C532 O537 1.167 . S
C532 O538 1.299 . S
O533 Zn527 2.114 . S
O533 C528 1.166 . S
O534 Zn526 1.905 . S
O534 C528 1.182 . S
O535 Zn526 1.898 . S
O535 C529 1.167 . S
O536 Zn527 2.120 . S
O536 C529 1.299 . S
O537 Zn525 1.898 . S
O537 C532 1.167 . S
O538 Zn527 2.120 . S
O538 C532 1.299 . S
O539 Zn527 2.114 . S
O539 C541 1.166 . S
O540 Zn525 1.905 . S
O540 C541 1.182 . S
C541 O539 1.166 . S
C541 O540 1.182 . S
O542 Zn527 2.080 . S
O542 C545 1.305 . S
O543 Zn526 1.920 . S
O543 C545 1.234 . S
C544 O530 1.305 . S
C544 O531 1.234 . S
C545 O542 1.305 . S
C545 O543 1.234 . S
Zn546 O552 1.920 . S
Zn546 O558 1.898 . S
Zn546 O561 1.905 . S
Zn547 O555 1.905 . S
Zn547 O556 1.898 . S
Zn547 O564 1.920 . S
Zn548 O551 2.080 . S
Zn548 O554 2.114 . S
Zn548 O557 2.120 . S
Zn548 O559 2.120 . S
Zn548 O560 2.114 . S
Zn548 O563 2.080 . S
C549 O554 1.166 . S
C549 O555 1.182 . S
C550 O556 1.167 . S
C550 O557 1.299 . S
O551 Zn548 2.080 . S
O551 C565 1.305 . S
O552 Zn546 1.920 . S
O552 C565 1.234 . S
C553 O558 1.167 . S
C553 O559 1.299 . S
O554 Zn548 2.114 . S
O554 C549 1.166 . S
O555 Zn547 1.905 . S
O555 C549 1.182 . S
O556 Zn547 1.898 . S
O556 C550 1.167 . S
O557 Zn548 2.120 . S
O557 C550 1.299 . S
O558 Zn546 1.898 . S
O558 C553 1.167 . S
O559 Zn548 2.120 . S
O559 C553 1.299 . S
O560 Zn548 2.114 . S
O560 C562 1.166 . S
O561 Zn546 1.905 . S
O561 C562 1.182 . S
C562 O560 1.166 . S
C562 O561 1.182 . S
O563 Zn548 2.080 . S
O563 C566 1.305 . S
O564 Zn547 1.920 . S
O564 C566 1.234 . S
C565 O551 1.305 . S
C565 O552 1.234 . S
C566 O563 1.305 . S
C566 O564 1.234 . S
Zn567 O573 1.920 . S
Zn567 O579 1.898 . S
Zn567 O582 1.905 . S
Zn568 O576 1.905 . S
Zn568 O577 1.898 . S
Zn568 O585 1.920 . S
Zn569 O572 2.080 . S
Zn569 O575 2.114 . S
Zn569 O578 2.120 . S
Zn569 O580 2.120 . S
Zn569 O581 2.114 . S
Zn569 O584 2.080 . S
C570 O575 1.166 . S
C570 O576 1.182 . S
C571 O577 1.167 . S
C571 O578 1.299 . S
O572 Zn569 2.080 . S
O572 C586 1.305 . S
O573 Zn567 1.920 . S
O573 C586 1.234 . S
C574 O579 1.167 . S
C574 O580 1.299 . S
O575 Zn569 2.114 . S
O575 C570 1.166 . S
O576 Zn568 1.905 . S
O576 C570 1.182 . S
O577 Zn568 1.898 . S
O577 C571 1.167 . S
O578 Zn569 2.120 . S
O578 C571 1.299 . S
O579 Zn567 1.898 . S
O579 C574 1.167 . S
O580 Zn569 2.120 . S
O580 C574 1.299 . S
O581 Zn569 2.114 . S
O581 C583 1.166 . S
O582 Zn567 1.905 . S
O582 C583 1.182 . S
C583 O581 1.166 . S
C583 O582 1.182 . S
O584 Zn569 2.080 . S
O584 C587 1.305 . S
O585 Zn568 1.920 . S
O585 C587 1.234 . S
C586 O572 1.305 . S
C586 O573 1.234 . S
C587 O584 1.305 . S
C587 O585 1.234 . S
Zn588 O594 1.920 . S
Zn588 O600 1.898 . S
Zn588 O603 1.905 . S
Zn589 O597 1.905 . S
Zn589 O598 1.898 . S
Zn589 O606 1.920 . S
Zn590 O593 2.080 . S
Zn590 O596 2.114 . S
Zn590 O599 2.120 . S
Zn590 O601 2.120 . S
Zn590 O602 2.114 . S
Zn590 O605 2.080 . S
C591 O596 1.166 . S
C591 O597 1.182 . S
C592 O598 1.167 . S
C592 O599 1.299 . S
O593 Zn590 2.080 . S
O593 C607 1.305 . S
O594 Zn588 1.920 . S
O594 C607 1.234 . S
C595 O600 1.167 . S
C595 O601 1.299 . S
O596 Zn590 2.114 . S
O596 C591 1.166 . S
O597 Zn589 1.905 . S
O597 C591 1.182 . S
O598 Zn589 1.898 . S
O598 C592 1.167 . S
O599 Zn590 2.120 . S
O599 C592 1.299 . S
O600 Zn588 1.898 . S
O600 C595 1.167 . S
O601 Zn590 2.120 . S
O601 C595 1.299 . S
O602 Zn590 2.114 . S
O602 C604 1.166 . S
O603 Zn588 1.905 . S
O603 C604 1.182 . S
C604 O602 1.166 . S
C604 O603 1.182 . S
O605 Zn590 2.080 . S
O605 C608 1.305 . S
O606 Zn589 1.920 . S
O606 C608 1.234 . S
C607 O593 1.305 . S
C607 O594 1.234 . S
C608 O605 1.305 . S
C608 O606 1.234 . S
Zn609 O615 1.920 . S
Zn609 O621 1.898 . S
Zn609 O624 1.905 . S
Zn610 O618 1.905 . S
Zn610 O619 1.898 . S
Zn610 O627 1.920 . S
Zn611 O614 2.080 . S
Zn611 O617 2.114 . S
Zn611 O620 2.120 . S
Zn611 O622 2.120 . S
Zn611 O623 2.114 . S
Zn611 O626 2.080 . S
C612 O617 1.166 . S
C612 O618 1.182 . S
C613 O619 1.167 . S
C613 O620 1.299 . S
O614 Zn611 2.080 . S
O614 C628 1.305 . S
O615 Zn609 1.920 . S
O615 C628 1.234 . S
C616 O621 1.167 . S
C616 O622 1.299 . S
O617 Zn611 2.114 . S
O617 C612 1.166 . S
O618 Zn610 1.905 . S
O618 C612 1.182 . S
O619 Zn610 1.898 . S
O619 C613 1.167 . S
O620 Zn611 2.120 . S
O620 C613 1.299 . S
O621 Zn609 1.898 . S
O621 C616 1.167 . S
O622 Zn611 2.120 . S
O622 C616 1.299 . S
O623 Zn611 2.114 . S
O623 C625 1.166 . S
O624 Zn609 1.905 . S
O624 C625 1.182 . S
C625 O623 1.166 . S
C625 O624 1.182 . S
O626 Zn611 2.080 . S
O626 C629 1.305 . S
O627 Zn610 1.920 . S
O627 C629 1.234 . S
C628 O614 1.305 . S
C628 O615 1.234 . S
C629 O626 1.305 . S
C629 O627 1.234 . S
Zn630 O636 1.920 . S
Zn630 O642 1.898 . S
Zn630 O645 1.905 . S
Zn631 O639 1.905 . S
Zn631 O640 1.898 . S
Zn631 O648 1.920 . S
Zn632 O635 2.080 . S
Zn632 O638 2.114 . S
Zn632 O641 2.120 . S
Zn632 O643 2.120 . S
Zn632 O644 2.114 . S
Zn632 O647 2.080 . S
C633 O638 1.166 . S
C633 O639 1.182 . S
C634 O640 1.167 . S
C634 O641 1.299 . S
O635 Zn632 2.080 . S
O635 C649 1.305 . S
O636 Zn630 1.920 . S
O636 C649 1.234 . S
C637 O642 1.167 . S
C637 O643 1.299 . S
O638 Zn632 2.114 . S
O638 C633 1.166 . S
O639 Zn631 1.905 . S
O639 C633 1.182 . S
O640 Zn631 1.898 . S
O640 C634 1.167 . S
O641 Zn632 2.120 . S
O641 C634 1.299 . S
O642 Zn630 1.898 . S
O642 C637 1.167 . S
O643 Zn632 2.120 . S
O643 C637 1.299 . S
O644 Zn632 2.114 . S
O644 C646 1.166 . S
O645 Zn630 1.905 . S
O645 C646 1.182 . S
C646 O644 1.166 . S
C646 O645 1.182 . S
O647 Zn632 2.080 . S
O647 C650 1.305 . S
O648 Zn631 1.920 . S
O648 C650 1.234 . S
C649 O635 1.305 . S
C649 O636 1.234 . S
C650 O647 1.305 . S
C650 O648 1.234 . S
Zn651 O657 1.920 . S
Zn651 O663 1.898 . S
Zn651 O666 1.905 . S
Zn652 O660 1.905 . S
Zn652 O661 1.898 . S
Zn652 O669 1.920 . S
Zn653 O656 2.080 . S
Zn653 O659 2.114 . S
Zn653 O662 2.120 . S
Zn653 O664 2.120 . S
Zn653 O665 2.114 . S
Zn653 O668 2.080 . S
C654 O659 1.166 . S
C654 O660 1.182 . S
C655 O661 1.167 . S
C655 O662 1.299 . S
O656 Zn653 2.080 . S
O656 C670 1.305 . S
O657 Zn651 1.920 . S
O657 C670 1.234 . S
C658 O663 1.167 . S
C658 O664 1.299 . S
O659 Zn653 2.114 . S
O659 C654 1.166 . S
O660 Zn652 1.905 . S
O660 C654 1.182 . S
O661 Zn652 1.898 . S
O661 C655 1.167 . S
O662 Zn653 2.120 . S
O662 C655 1.299 . S
O663 Zn651 1.898 . S
O663 C658 1.167 . S
O664 Zn653 2.120 . S
O664 C658 1.299 . S
O665 Zn653 2.114 . S
O665 C667 1.166 . S
O666 Zn651 1.905 . S
O666 C667 1.182 . S
C667 O665 1.166 . S
C667 O666 1.182 . S
O668 Zn653 2.080 . S
O668 C671 1.305 . S
O669 Zn652 1.920 . S
O669 C671 1.234 . S
C670 O656 1.305 . S
C670 O657 1.234 . S
C671 O668 1.305 . S
C671 O669 1.234 . S
C672 C673 1.391 . S
C672 C674 1.394 . S
C672 H688 0.931 . S
C673 C672 1.391 . S
C673 C677 1.376 . S
C674 C672 1.394 . S
C674 C675 1.369 . S
C674 C678 1.531 . S
C675 C674 1.369 . S
C675 C676 1.410 . S
C675 C683 1.503 . S
C676 C675 1.410 . S
C676 C677 1.392 . S
C676 C679 1.511 . S
C677 C673 1.376 . S
C677 C676 1.392 . S
C677 H689 0.929 . S
C678 C674 1.531 . S
C678 H690 0.960 . S
C678 H691 0.962 . S
C678 H692 0.960 . S
C679 C676 1.511 . S
C679 H693 0.961 . S
C679 H694 0.961 . S
C679 H695 0.961 . S
C680 C681 1.370 . S
C680 C682 1.363 . S
C680 H696 0.931 . S
C681 C680 1.370 . S
C681 C685 1.408 . S
C682 C680 1.363 . S
C682 C683 1.370 . S
C682 C686 1.524 . S
C683 C675 1.503 . S
C683 C682 1.370 . S
C683 C684 1.403 . S
C684 C683 1.403 . S
C684 C685 1.404 . S
C684 C687 1.539 . S
C685 C681 1.408 . S
C685 C684 1.404 . S
C685 H697 0.930 . S
C686 C682 1.524 . S
C686 H698 0.956 . S
C686 H699 0.961 . S
C686 H700 0.961 . S
C687 C684 1.539 . S
C687 H701 0.958 . S
C687 H702 0.961 . S
C687 H703 0.960 . S
H688 C672 0.931 . S
H689 C677 0.929 . S
H690 C678 0.960 . S
H691 C678 0.962 . S
H692 C678 0.960 . S
H693 C679 0.961 . S
H694 C679 0.961 . S
H695 C679 0.961 . S
H696 C680 0.931 . S
H697 C685 0.930 . S
H698 C686 0.956 . S
H699 C686 0.961 . S
H700 C686 0.961 . S
H701 C687 0.958 . S
H702 C687 0.961 . S
H703 C687 0.960 . S
C704 C705 1.391 . S
C704 C706 1.394 1_455 S
C704 H720 0.931 . S
C705 C704 1.391 . S
C705 C709 1.376 . S
C706 C704 1.394 1_655 S
C706 C707 1.369 . S
C706 C710 1.531 . S
C707 C706 1.369 . S
C707 C708 1.410 1_655 S
C707 C715 1.503 . S
C708 C707 1.410 1_455 S
C708 C709 1.392 . S
C708 C711 1.511 . S
C709 C705 1.376 . S
C709 C708 1.392 . S
C709 H721 0.929 . S
C710 C706 1.531 . S
C710 H722 0.960 . S
C710 H723 0.962 . S
C710 H724 0.960 . S
C711 C708 1.511 . S
C711 H725 0.961 . S
C711 H726 0.961 . S
C711 H727 0.961 . S
C712 C713 1.370 . S
C712 C714 1.363 . S
C712 H728 0.931 . S
C713 C712 1.370 . S
C713 C717 1.408 . S
C714 C712 1.363 . S
C714 C715 1.370 . S
C714 C718 1.524 . S
C715 C707 1.503 . S
C715 C714 1.370 . S
C715 C716 1.403 . S
C716 C715 1.403 . S
C716 C717 1.404 . S
C716 C719 1.539 . S
C717 C713 1.408 . S
C717 C716 1.404 . S
C717 H729 0.930 . S
C718 C714 1.524 . S
C718 H730 0.956 . S
C718 H731 0.961 . S
C718 H732 0.961 . S
C719 C716 1.539 . S
C719 H733 0.958 . S
C719 H734 0.961 . S
C719 H735 0.960 . S
H720 C704 0.931 . S
H721 C709 0.929 . S
H722 C710 0.960 . S
H723 C710 0.962 . S
H724 C710 0.960 . S
H725 C711 0.961 . S
H726 C711 0.961 . S
H727 C711 0.961 . S
H728 C712 0.931 . S
H729 C717 0.930 . S
H730 C718 0.956 . S
H731 C718 0.961 . S
H732 C718 0.961 . S
H733 C719 0.958 . S
H734 C719 0.961 . S
H735 C719 0.960 . S
C736 C737 1.391 . S
C736 C738 1.394 . S
C736 H752 0.931 . S
C737 C736 1.391 . S
C737 C741 1.376 . S
C738 C736 1.394 . S
C738 C739 1.369 . S
C738 C742 1.531 . S
C739 C738 1.369 . S
C739 C740 1.410 . S
C739 C747 1.503 . S
C740 C739 1.410 . S
C740 C741 1.392 . S
C740 C743 1.511 . S
C741 C737 1.376 . S
C741 C740 1.392 . S
C741 H753 0.929 . S
C742 C738 1.531 . S
C742 H754 0.960 . S
C742 H755 0.962 . S
C742 H756 0.960 . S
C743 C740 1.511 . S
C743 H757 0.961 . S
C743 H758 0.961 . S
C743 H759 0.961 . S
C744 C745 1.370 . S
C744 C746 1.363 . S
C744 H760 0.931 . S
C745 C744 1.370 . S
C745 C749 1.408 . S
C746 C744 1.363 . S
C746 C747 1.370 . S
C746 C750 1.524 . S
C747 C739 1.503 . S
C747 C746 1.370 . S
C747 C748 1.403 . S
C748 C747 1.403 . S
C748 C749 1.404 . S
C748 C751 1.539 . S
C749 C745 1.408 . S
C749 C748 1.404 . S
C749 H761 0.930 . S
C750 C746 1.524 . S
C750 H762 0.956 . S
C750 H763 0.961 . S
C750 H764 0.961 . S
C751 C748 1.539 . S
C751 H765 0.958 . S
C751 H766 0.961 . S
C751 H767 0.960 . S
H752 C736 0.931 . S
H753 C741 0.929 . S
H754 C742 0.960 . S
H755 C742 0.962 . S
H756 C742 0.960 . S
H757 C743 0.961 . S
H758 C743 0.961 . S
H759 C743 0.961 . S
H760 C744 0.931 . S
H761 C749 0.930 . S
H762 C750 0.956 . S
H763 C750 0.961 . S
H764 C750 0.961 . S
H765 C751 0.958 . S
H766 C751 0.961 . S
H767 C751 0.960 . S
C768 C769 1.391 . S
C768 C770 1.394 . S
C768 H784 0.931 . S
C769 C768 1.391 . S
C769 C773 1.376 . S
C770 C768 1.394 . S
C770 C771 1.369 . S
C770 C774 1.531 . S
C771 C770 1.369 . S
C771 C772 1.410 . S
C771 C779 1.503 . S
C772 C771 1.410 . S
C772 C773 1.392 . S
C772 C775 1.511 . S
C773 C769 1.376 . S
C773 C772 1.392 . S
C773 H785 0.929 . S
C774 C770 1.531 . S
C774 H786 0.960 . S
C774 H787 0.962 . S
C774 H788 0.960 . S
C775 C772 1.511 . S
C775 H789 0.961 . S
C775 H790 0.961 . S
C775 H791 0.961 . S
C776 C777 1.370 . S
C776 C778 1.363 . S
C776 H792 0.931 . S
C777 C776 1.370 . S
C777 C781 1.408 . S
C778 C776 1.363 . S
C778 C779 1.370 . S
C778 C782 1.524 . S
C779 C771 1.503 . S
C779 C778 1.370 . S
C779 C780 1.403 . S
C780 C779 1.403 . S
C780 C781 1.404 . S
C780 C783 1.539 . S
C781 C777 1.408 . S
C781 C780 1.404 . S
C781 H793 0.930 . S
C782 C778 1.524 . S
C782 H794 0.956 . S
C782 H795 0.961 . S
C782 H796 0.961 . S
C783 C780 1.539 . S
C783 H797 0.958 . S
C783 H798 0.961 . S
C783 H799 0.960 . S
H784 C768 0.931 . S
H785 C773 0.929 . S
H786 C774 0.960 . S
H787 C774 0.962 . S
H788 C774 0.960 . S
H789 C775 0.961 . S
H790 C775 0.961 . S
H791 C775 0.961 . S
H792 C776 0.931 . S
H793 C781 0.930 . S
H794 C782 0.956 . S
H795 C782 0.961 . S
H796 C782 0.961 . S
H797 C783 0.958 . S
H798 C783 0.961 . S
H799 C783 0.960 . S
C800 C801 1.391 . S
C800 C802 1.394 . S
C800 H816 0.931 . S
C801 C800 1.391 . S
C801 C805 1.376 . S
C802 C800 1.394 . S
C802 C803 1.369 . S
C802 C806 1.531 . S
C803 C802 1.369 . S
C803 C804 1.410 . S
C803 C811 1.503 . S
C804 C803 1.410 . S
C804 C805 1.392 . S
C804 C807 1.511 . S
C805 C801 1.376 . S
C805 C804 1.392 . S
C805 H817 0.929 . S
C806 C802 1.531 . S
C806 H818 0.960 . S
C806 H819 0.962 . S
C806 H820 0.960 . S
C807 C804 1.511 . S
C807 H821 0.961 . S
C807 H822 0.961 . S
C807 H823 0.961 . S
C808 C809 1.370 . S
C808 C810 1.363 . S
C808 H824 0.931 . S
C809 C808 1.370 . S
C809 C813 1.408 . S
C810 C808 1.363 . S
C810 C811 1.370 . S
C810 C814 1.524 . S
C811 C803 1.503 . S
C811 C810 1.370 . S
C811 C812 1.403 . S
C812 C811 1.403 . S
C812 C813 1.404 . S
C812 C815 1.539 . S
C813 C809 1.408 . S
C813 C812 1.404 . S
C813 H825 0.930 . S
C814 C810 1.524 . S
C814 H826 0.956 . S
C814 H827 0.961 . S
C814 H828 0.961 . S
C815 C812 1.539 . S
C815 H829 0.958 . S
C815 H830 0.961 . S
C815 H831 0.960 . S
H816 C800 0.931 . S
H817 C805 0.929 . S
H818 C806 0.960 . S
H819 C806 0.962 . S
H820 C806 0.960 . S
H821 C807 0.961 . S
H822 C807 0.961 . S
H823 C807 0.961 . S
H824 C808 0.931 . S
H825 C813 0.930 . S
H826 C814 0.956 . S
H827 C814 0.961 . S
H828 C814 0.961 . S
H829 C815 0.958 . S
H830 C815 0.961 . S
H831 C815 0.960 . S
C832 C833 1.391 . S
C832 C834 1.394 . S
C832 H848 0.931 . S
C833 C832 1.391 . S
C833 C837 1.376 . S
C834 C832 1.394 . S
C834 C835 1.369 . S
C834 C838 1.531 . S
C835 C834 1.369 . S
C835 C836 1.410 . S
C835 C843 1.503 . S
C836 C835 1.410 . S
C836 C837 1.392 . S
C836 C839 1.511 . S
C837 C833 1.376 . S
C837 C836 1.392 . S
C837 H849 0.929 . S
C838 C834 1.531 . S
C838 H850 0.960 . S
C838 H851 0.962 . S
C838 H852 0.960 . S
C839 C836 1.511 . S
C839 H853 0.961 . S
C839 H854 0.961 . S
C839 H855 0.961 . S
C840 C841 1.370 . S
C840 C842 1.363 . S
C840 H856 0.931 . S
C841 C840 1.370 . S
C841 C845 1.408 . S
C842 C840 1.363 . S
C842 C843 1.370 . S
C842 C846 1.524 . S
C843 C835 1.503 . S
C843 C842 1.370 . S
C843 C844 1.403 . S
C844 C843 1.403 . S
C844 C845 1.404 . S
C844 C847 1.539 . S
C845 C841 1.408 . S
C845 C844 1.404 . S
C845 H857 0.930 . S
C846 C842 1.524 . S
C846 H858 0.956 . S
C846 H859 0.961 . S
C846 H860 0.961 . S
C847 C844 1.539 . S
C847 H861 0.958 . S
C847 H862 0.961 . S
C847 H863 0.960 . S
H848 C832 0.931 . S
H849 C837 0.929 . S
H850 C838 0.960 . S
H851 C838 0.962 . S
H852 C838 0.960 . S
H853 C839 0.961 . S
H854 C839 0.961 . S
H855 C839 0.961 . S
H856 C840 0.931 . S
H857 C845 0.930 . S
H858 C846 0.956 . S
H859 C846 0.961 . S
H860 C846 0.961 . S
H861 C847 0.958 . S
H862 C847 0.961 . S
H863 C847 0.960 . S
C864 C865 1.391 . S
C864 C866 1.394 . S
C864 H880 0.931 . S
C865 C864 1.391 . S
C865 C869 1.376 . S
C866 C864 1.394 . S
C866 C867 1.369 . S
C866 C870 1.531 . S
C867 C866 1.369 . S
C867 C868 1.410 . S
C867 C875 1.503 . S
C868 C867 1.410 . S
C868 C869 1.392 . S
C868 C871 1.511 . S
C869 C865 1.376 . S
C869 C868 1.392 . S
C869 H881 0.929 . S
C870 C866 1.531 . S
C870 H882 0.960 . S
C870 H883 0.962 . S
C870 H884 0.960 . S
C871 C868 1.511 . S
C871 H885 0.961 . S
C871 H886 0.961 . S
C871 H887 0.961 . S
C872 C873 1.370 . S
C872 C874 1.363 . S
C872 H888 0.931 . S
C873 C872 1.370 . S
C873 C877 1.408 . S
C874 C872 1.363 . S
C874 C875 1.370 . S
C874 C878 1.524 . S
C875 C867 1.503 . S
C875 C874 1.370 . S
C875 C876 1.403 . S
C876 C875 1.403 . S
C876 C877 1.404 . S
C876 C879 1.539 . S
C877 C873 1.408 . S
C877 C876 1.404 . S
C877 H889 0.930 . S
C878 C874 1.524 . S
C878 H890 0.956 . S
C878 H891 0.961 . S
C878 H892 0.961 . S
C879 C876 1.539 . S
C879 H893 0.958 . S
C879 H894 0.961 . S
C879 H895 0.960 . S
H880 C864 0.931 . S
H881 C869 0.929 . S
H882 C870 0.960 . S
H883 C870 0.962 . S
H884 C870 0.960 . S
H885 C871 0.961 . S
H886 C871 0.961 . S
H887 C871 0.961 . S
H888 C872 0.931 . S
H889 C877 0.930 . S
H890 C878 0.956 . S
H891 C878 0.961 . S
H892 C878 0.961 . S
H893 C879 0.958 . S
H894 C879 0.961 . S
H895 C879 0.960 . S
C896 C897 1.391 . S
C896 C898 1.394 1_455 S
C896 H912 0.931 . S
C897 C896 1.391 . S
C897 C901 1.376 . S
C898 C896 1.394 1_655 S
C898 C899 1.369 . S
C898 C902 1.531 . S
C899 C898 1.369 . S
C899 C900 1.410 1_655 S
C899 C907 1.503 . S
C900 C899 1.410 1_455 S
C900 C901 1.392 . S
C900 C903 1.511 . S
C901 C897 1.376 . S
C901 C900 1.392 . S
C901 H913 0.929 . S
C902 C898 1.531 . S
C902 H914 0.960 . S
C902 H915 0.962 . S
C902 H916 0.960 . S
C903 C900 1.511 . S
C903 H917 0.961 . S
C903 H918 0.961 . S
C903 H919 0.961 . S
C904 C905 1.370 . S
C904 C906 1.363 . S
C904 H920 0.931 . S
C905 C904 1.370 . S
C905 C909 1.408 . S
C906 C904 1.363 . S
C906 C907 1.370 . S
C906 C910 1.524 . S
C907 C899 1.503 . S
C907 C906 1.370 . S
C907 C908 1.403 . S
C908 C907 1.403 . S
C908 C909 1.404 . S
C908 C911 1.539 . S
C909 C905 1.408 . S
C909 C908 1.404 . S
C909 H921 0.930 . S
C910 C906 1.524 . S
C910 H922 0.956 . S
C910 H923 0.961 . S
C910 H924 0.961 . S
C911 C908 1.539 . S
C911 H925 0.958 . S
C911 H926 0.961 . S
C911 H927 0.960 1_655 S
H912 C896 0.931 . S
H913 C901 0.929 . S
H914 C902 0.960 . S
H915 C902 0.962 . S
H916 C902 0.960 . S
H917 C903 0.961 . S
H918 C903 0.961 . S
H919 C903 0.961 . S
H920 C904 0.931 . S
H921 C909 0.930 . S
H922 C910 0.956 . S
H923 C910 0.961 . S
H924 C910 0.961 . S
H925 C911 0.958 . S
H926 C911 0.961 . S
H927 C911 0.960 1_455 S
C928 C929 1.391 . S
C928 C930 1.394 . S
C928 H944 0.931 . S
C929 C928 1.391 . S
C929 C933 1.376 . S
C930 C928 1.394 . S
C930 C931 1.369 . S
C930 C934 1.531 . S
C931 C930 1.369 . S
C931 C932 1.410 . S
C931 C939 1.503 . S
C932 C931 1.410 . S
C932 C933 1.392 . S
C932 C935 1.511 . S
C933 C929 1.376 . S
C933 C932 1.392 . S
C933 H945 0.929 . S
C934 C930 1.531 . S
C934 H946 0.960 . S
C934 H947 0.962 . S
C934 H948 0.960 . S
C935 C932 1.511 . S
C935 H949 0.961 . S
C935 H950 0.961 . S
C935 H951 0.961 . S
C936 C937 1.370 . S
C936 C938 1.363 . S
C936 H952 0.931 . S
C937 C936 1.370 . S
C937 C941 1.408 . S
C938 C936 1.363 . S
C938 C939 1.370 . S
C938 C942 1.524 . S
C939 C931 1.503 . S
C939 C938 1.370 . S
C939 C940 1.403 . S
C940 C939 1.403 . S
C940 C941 1.404 . S
C940 C943 1.539 . S
C941 C937 1.408 . S
C941 C940 1.404 . S
C941 H953 0.930 . S
C942 C938 1.524 . S
C942 H954 0.956 . S
C942 H955 0.961 . S
C942 H956 0.961 . S
C943 C940 1.539 . S
C943 H957 0.958 . S
C943 H958 0.961 . S
C943 H959 0.960 . S
H944 C928 0.931 . S
H945 C933 0.929 . S
H946 C934 0.960 . S
H947 C934 0.962 . S
H948 C934 0.960 . S
H949 C935 0.961 . S
H950 C935 0.961 . S
H951 C935 0.961 . S
H952 C936 0.931 . S
H953 C941 0.930 . S
H954 C942 0.956 . S
H955 C942 0.961 . S
H956 C942 0.961 . S
H957 C943 0.958 . S
H958 C943 0.961 . S
H959 C943 0.960 . S
C960 C961 1.391 . S
C960 C962 1.394 1_655 S
C960 H976 0.931 . S
C961 C960 1.391 . S
C961 C965 1.376 . S
C962 C960 1.394 1_455 S
C962 C963 1.369 . S
C962 C966 1.531 . S
C963 C962 1.369 . S
C963 C964 1.410 1_455 S
C963 C971 1.503 . S
C964 C963 1.410 1_655 S
C964 C965 1.392 . S
C964 C967 1.511 . S
C965 C961 1.376 . S
C965 C964 1.392 . S
C965 H977 0.929 . S
C966 C962 1.531 . S
C966 H978 0.960 . S
C966 H979 0.962 . S
C966 H980 0.960 . S
C967 C964 1.511 . S
C967 H981 0.961 . S
C967 H982 0.961 . S
C967 H983 0.961 . S
C968 C969 1.370 . S
C968 C970 1.363 . S
C968 H984 0.931 . S
C969 C968 1.370 . S
C969 C973 1.408 . S
C970 C968 1.363 . S
C970 C971 1.370 . S
C970 C974 1.524 . S
C971 C963 1.503 . S
C971 C970 1.370 . S
C971 C972 1.403 . S
C972 C971 1.403 . S
C972 C973 1.404 . S
C972 C975 1.539 . S
C973 C969 1.408 . S
C973 C972 1.404 . S
C973 H985 0.930 . S
C974 C970 1.524 . S
C974 H986 0.956 . S
C974 H987 0.961 . S
C974 H988 0.961 . S
C975 C972 1.539 . S
C975 H989 0.958 . S
C975 H990 0.961 . S
C975 H991 0.960 . S
H976 C960 0.931 . S
H977 C965 0.929 . S
H978 C966 0.960 . S
H979 C966 0.962 . S
H980 C966 0.960 . S
H981 C967 0.961 . S
H982 C967 0.961 . S
H983 C967 0.961 . S
H984 C968 0.931 . S
H985 C973 0.930 . S
H986 C974 0.956 . S
H987 C974 0.961 . S
H988 C974 0.961 . S
H989 C975 0.958 . S
H990 C975 0.961 . S
H991 C975 0.960 . S
C992 C993 1.391 . S
C992 C994 1.394 . S
C992 H1008 0.931 . S
C993 C992 1.391 . S
C993 C997 1.376 . S
C994 C992 1.394 . S
C994 C995 1.369 . S
C994 C998 1.531 . S
C995 C994 1.369 . S
C995 C996 1.410 . S
C995 C1003 1.503 . S
C996 C995 1.410 . S
C996 C997 1.392 . S
C996 C999 1.511 . S
C997 C993 1.376 . S
C997 C996 1.392 . S
C997 H1009 0.929 . S
C998 C994 1.531 . S
C998 H1010 0.960 . S
C998 H1011 0.962 . S
C998 H1012 0.960 . S
C999 C996 1.511 . S
C999 H1013 0.961 . S
C999 H1014 0.961 . S
C999 H1015 0.961 . S
C1000 C1001 1.370 . S
C1000 C1002 1.363 . S
C1000 H1016 0.931 . S
C1001 C1000 1.370 . S
C1001 C1005 1.408 . S
C1002 C1000 1.363 . S
C1002 C1003 1.370 . S
C1002 C1006 1.524 . S
C1003 C995 1.503 . S
C1003 C1002 1.370 . S
C1003 C1004 1.403 . S
C1004 C1003 1.403 . S
C1004 C1005 1.404 . S
C1004 C1007 1.539 . S
C1005 C1001 1.408 . S
C1005 C1004 1.404 . S
C1005 H1017 0.930 . S
C1006 C1002 1.524 . S
C1006 H1018 0.956 . S
C1006 H1019 0.961 . S
C1006 H1020 0.961 . S
C1007 C1004 1.539 . S
C1007 H1021 0.958 . S
C1007 H1022 0.961 . S
C1007 H1023 0.960 . S
H1008 C992 0.931 . S
H1009 C997 0.929 . S
H1010 C998 0.960 . S
H1011 C998 0.962 . S
H1012 C998 0.960 . S
H1013 C999 0.961 . S
H1014 C999 0.961 . S
H1015 C999 0.961 . S
H1016 C1000 0.931 . S
H1017 C1005 0.930 . S
H1018 C1006 0.956 . S
H1019 C1006 0.961 . S
H1020 C1006 0.961 . S
H1021 C1007 0.958 . S
H1022 C1007 0.961 . S
H1023 C1007 0.960 . S
C1024 C1025 1.391 . S
C1024 C1026 1.394 . S
C1024 H1040 0.931 . S
C1025 C1024 1.391 . S
C1025 C1029 1.376 . S
C1026 C1024 1.394 . S
C1026 C1027 1.369 . S
C1026 C1030 1.531 . S
C1027 C1026 1.369 . S
C1027 C1028 1.410 . S
C1027 C1035 1.503 . S
C1028 C1027 1.410 . S
C1028 C1029 1.392 . S
C1028 C1031 1.511 . S
C1029 C1025 1.376 . S
C1029 C1028 1.392 . S
C1029 H1041 0.929 . S
C1030 C1026 1.531 . S
C1030 H1042 0.960 . S
C1030 H1043 0.962 . S
C1030 H1044 0.960 . S
C1031 C1028 1.511 . S
C1031 H1045 0.961 . S
C1031 H1046 0.961 . S
C1031 H1047 0.961 . S
C1032 C1033 1.370 . S
C1032 C1034 1.363 . S
C1032 H1048 0.931 . S
C1033 C1032 1.370 . S
C1033 C1037 1.408 . S
C1034 C1032 1.363 . S
C1034 C1035 1.370 . S
C1034 C1038 1.524 . S
C1035 C1027 1.503 . S
C1035 C1034 1.370 . S
C1035 C1036 1.403 . S
C1036 C1035 1.403 . S
C1036 C1037 1.404 . S
C1036 C1039 1.539 . S
C1037 C1033 1.408 . S
C1037 C1036 1.404 . S
C1037 H1049 0.930 . S
C1038 C1034 1.524 . S
C1038 H1050 0.956 . S
C1038 H1051 0.961 . S
C1038 H1052 0.961 . S
C1039 C1036 1.539 . S
C1039 H1053 0.958 . S
C1039 H1054 0.961 . S
C1039 H1055 0.960 . S
H1040 C1024 0.931 . S
H1041 C1029 0.929 . S
H1042 C1030 0.960 . S
H1043 C1030 0.962 . S
H1044 C1030 0.960 . S
H1045 C1031 0.961 . S
H1046 C1031 0.961 . S
H1047 C1031 0.961 . S
H1048 C1032 0.931 . S
H1049 C1037 0.930 . S
H1050 C1038 0.956 . S
H1051 C1038 0.961 . S
H1052 C1038 0.961 . S
H1053 C1039 0.958 . S
H1054 C1039 0.961 . S
H1055 C1039 0.960 . S
C1056 C1057 1.391 . S
C1056 C1058 1.394 . S
C1056 H1072 0.931 . S
C1057 C1056 1.391 . S
C1057 C1061 1.376 . S
C1058 C1056 1.394 . S
C1058 C1059 1.369 . S
C1058 C1062 1.531 . S
C1059 C1058 1.369 . S
C1059 C1060 1.410 . S
C1059 C1067 1.503 . S
C1060 C1059 1.410 . S
C1060 C1061 1.392 . S
C1060 C1063 1.511 . S
C1061 C1057 1.376 . S
C1061 C1060 1.392 . S
C1061 H1073 0.929 . S
C1062 C1058 1.531 . S
C1062 H1074 0.960 . S
C1062 H1075 0.962 . S
C1062 H1076 0.960 . S
C1063 C1060 1.511 . S
C1063 H1077 0.961 . S
C1063 H1078 0.961 . S
C1063 H1079 0.961 . S
C1064 C1065 1.370 . S
C1064 C1066 1.363 . S
C1064 H1080 0.931 . S
C1065 C1064 1.370 . S
C1065 C1069 1.408 . S
C1066 C1064 1.363 . S
C1066 C1067 1.370 . S
C1066 C1070 1.524 . S
C1067 C1059 1.503 . S
C1067 C1066 1.370 . S
C1067 C1068 1.403 . S
C1068 C1067 1.403 . S
C1068 C1069 1.404 . S
C1068 C1071 1.539 . S
C1069 C1065 1.408 . S
C1069 C1068 1.404 . S
C1069 H1081 0.930 . S
C1070 C1066 1.524 . S
C1070 H1082 0.956 . S
C1070 H1083 0.961 . S
C1070 H1084 0.961 . S
C1071 C1068 1.539 . S
C1071 H1085 0.958 . S
C1071 H1086 0.961 . S
C1071 H1087 0.960 . S
H1072 C1056 0.931 . S
H1073 C1061 0.929 . S
H1074 C1062 0.960 . S
H1075 C1062 0.962 . S
H1076 C1062 0.960 . S
H1077 C1063 0.961 . S
H1078 C1063 0.961 . S
H1079 C1063 0.961 . S
H1080 C1064 0.931 . S
H1081 C1069 0.930 . S
H1082 C1070 0.956 . S
H1083 C1070 0.961 . S
H1084 C1070 0.961 . S
H1085 C1071 0.958 . S
H1086 C1071 0.961 . S
H1087 C1071 0.960 . S
C1088 C1089 1.391 . S
C1088 C1090 1.394 . S
C1088 H1104 0.931 . S
C1089 C1088 1.391 . S
C1089 C1093 1.376 . S
C1090 C1088 1.394 . S
C1090 C1091 1.369 . S
C1090 C1094 1.531 . S
C1091 C1090 1.369 . S
C1091 C1092 1.410 . S
C1091 C1099 1.503 . S
C1092 C1091 1.410 . S
C1092 C1093 1.392 . S
C1092 C1095 1.511 . S
C1093 C1089 1.376 . S
C1093 C1092 1.392 . S
C1093 H1105 0.929 . S
C1094 C1090 1.531 . S
C1094 H1106 0.960 . S
C1094 H1107 0.962 . S
C1094 H1108 0.960 . S
C1095 C1092 1.511 . S
C1095 H1109 0.961 . S
C1095 H1110 0.961 . S
C1095 H1111 0.961 . S
C1096 C1097 1.370 . S
C1096 C1098 1.363 . S
C1096 H1112 0.931 . S
C1097 C1096 1.370 . S
C1097 C1101 1.408 . S
C1098 C1096 1.363 . S
C1098 C1099 1.370 . S
C1098 C1102 1.524 . S
C1099 C1091 1.503 . S
C1099 C1098 1.370 . S
C1099 C1100 1.403 . S
C1100 C1099 1.403 . S
C1100 C1101 1.404 . S
C1100 C1103 1.539 . S
C1101 C1097 1.408 . S
C1101 C1100 1.404 . S
C1101 H1113 0.930 . S
C1102 C1098 1.524 . S
C1102 H1114 0.956 . S
C1102 H1115 0.961 . S
C1102 H1116 0.961 . S
C1103 C1100 1.539 . S
C1103 H1117 0.958 . S
C1103 H1118 0.961 . S
C1103 H1119 0.960 . S
H1104 C1088 0.931 . S
H1105 C1093 0.929 . S
H1106 C1094 0.960 . S
H1107 C1094 0.962 . S
H1108 C1094 0.960 . S
H1109 C1095 0.961 . S
H1110 C1095 0.961 . S
H1111 C1095 0.961 . S
H1112 C1096 0.931 . S
H1113 C1101 0.930 . S
H1114 C1102 0.956 . S
H1115 C1102 0.961 . S
H1116 C1102 0.961 . S
H1117 C1103 0.958 . S
H1118 C1103 0.961 . S
H1119 C1103 0.960 . S
C1120 C1121 1.391 . S
C1120 C1122 1.394 . S
C1120 H1136 0.931 . S
C1121 C1120 1.391 . S
C1121 C1125 1.376 . S
C1122 C1120 1.394 . S
C1122 C1123 1.369 . S
C1122 C1126 1.531 . S
C1123 C1122 1.369 . S
C1123 C1124 1.410 . S
C1123 C1131 1.503 . S
C1124 C1123 1.410 . S
C1124 C1125 1.392 . S
C1124 C1127 1.511 . S
C1125 C1121 1.376 . S
C1125 C1124 1.392 . S
C1125 H1137 0.929 . S
C1126 C1122 1.531 . S
C1126 H1138 0.960 . S
C1126 H1139 0.962 . S
C1126 H1140 0.960 . S
C1127 C1124 1.511 . S
C1127 H1141 0.961 . S
C1127 H1142 0.961 . S
C1127 H1143 0.961 . S
C1128 C1129 1.370 . S
C1128 C1130 1.363 . S
C1128 H1144 0.931 . S
C1129 C1128 1.370 . S
C1129 C1133 1.408 . S
C1130 C1128 1.363 . S
C1130 C1131 1.370 . S
C1130 C1134 1.524 . S
C1131 C1123 1.503 . S
C1131 C1130 1.370 . S
C1131 C1132 1.403 . S
C1132 C1131 1.403 . S
C1132 C1133 1.404 . S
C1132 C1135 1.539 . S
C1133 C1129 1.408 . S
C1133 C1132 1.404 . S
C1133 H1145 0.930 . S
C1134 C1130 1.524 . S
C1134 H1146 0.956 . S
C1134 H1147 0.961 . S
C1134 H1148 0.961 . S
C1135 C1132 1.539 . S
C1135 H1149 0.958 . S
C1135 H1150 0.961 . S
C1135 H1151 0.960 . S
H1136 C1120 0.931 . S
H1137 C1125 0.929 . S
H1138 C1126 0.960 . S
H1139 C1126 0.962 . S
H1140 C1126 0.960 . S
H1141 C1127 0.961 . S
H1142 C1127 0.961 . S
H1143 C1127 0.961 . S
H1144 C1128 0.931 . S
H1145 C1133 0.930 . S
H1146 C1134 0.956 . S
H1147 C1134 0.961 . S
H1148 C1134 0.961 . S
H1149 C1135 0.958 . S
H1150 C1135 0.961 . S
H1151 C1135 0.960 . S
C1152 C1153 1.391 . S
C1152 C1154 1.394 . S
C1152 H1168 0.931 . S
C1153 C1152 1.391 . S
C1153 C1157 1.376 . S
C1154 C1152 1.394 . S
C1154 C1155 1.369 . S
C1154 C1158 1.531 1_455 S
C1155 C1154 1.369 . S
C1155 C1156 1.410 . S
C1155 C1163 1.503 . S
C1156 C1155 1.410 . S
C1156 C1157 1.392 . S
C1156 C1159 1.511 . S
C1157 C1153 1.376 . S
C1157 C1156 1.392 . S
C1157 H1169 0.929 . S
C1158 C1154 1.531 1_655 S
C1158 H1170 0.960 . S
C1158 H1171 0.962 . S
C1158 H1172 0.960 . S
C1159 C1156 1.511 . S
C1159 H1173 0.961 . S
C1159 H1174 0.961 . S
C1159 H1175 0.961 . S
C1160 C1161 1.370 . S
C1160 C1162 1.363 1_655 S
C1160 H1176 0.931 . S
C1161 C1160 1.370 . S
C1161 C1165 1.408 . S
C1162 C1160 1.363 1_455 S
C1162 C1163 1.370 . S
C1162 C1166 1.524 . S
C1163 C1155 1.503 . S
C1163 C1162 1.370 . S
C1163 C1164 1.403 1_455 S
C1164 C1163 1.403 1_655 S
C1164 C1165 1.404 . S
C1164 C1167 1.539 . S
C1165 C1161 1.408 . S
C1165 C1164 1.404 . S
C1165 H1177 0.930 . S
C1166 C1162 1.524 . S
C1166 H1178 0.956 . S
C1166 H1179 0.961 . S
C1166 H1180 0.961 . S
C1167 C1164 1.539 . S
C1167 H1181 0.958 . S
C1167 H1182 0.961 . S
C1167 H1183 0.960 . S
H1168 C1152 0.931 . S
H1169 C1157 0.929 . S
H1170 C1158 0.960 . S
H1171 C1158 0.962 . S
H1172 C1158 0.960 . S
H1173 C1159 0.961 . S
H1174 C1159 0.961 . S
H1175 C1159 0.961 . S
H1176 C1160 0.931 . S
H1177 C1165 0.930 . S
H1178 C1166 0.956 . S
H1179 C1166 0.961 . S
H1180 C1166 0.961 . S
H1181 C1167 0.958 . S
H1182 C1167 0.961 . S
H1183 C1167 0.960 . S
C1184 C1185 1.391 . S
C1184 C1186 1.394 . S
C1184 H1200 0.931 . S
C1185 C1184 1.391 . S
C1185 C1189 1.376 . S
C1186 C1184 1.394 . S
C1186 C1187 1.369 . S
C1186 C1190 1.531 . S
C1187 C1186 1.369 . S
C1187 C1188 1.410 . S
C1187 C1195 1.503 . S
C1188 C1187 1.410 . S
C1188 C1189 1.392 . S
C1188 C1191 1.511 . S
C1189 C1185 1.376 . S
C1189 C1188 1.392 . S
C1189 H1201 0.929 . S
C1190 C1186 1.531 . S
C1190 H1202 0.960 . S
C1190 H1203 0.962 . S
C1190 H1204 0.960 . S
C1191 C1188 1.511 . S
C1191 H1205 0.961 . S
C1191 H1206 0.961 . S
C1191 H1207 0.961 . S
C1192 C1193 1.370 . S
C1192 C1194 1.363 . S
C1192 H1208 0.931 . S
C1193 C1192 1.370 . S
C1193 C1197 1.408 . S
C1194 C1192 1.363 . S
C1194 C1195 1.370 . S
C1194 C1198 1.524 . S
C1195 C1187 1.503 . S
C1195 C1194 1.370 . S
C1195 C1196 1.403 . S
C1196 C1195 1.403 . S
C1196 C1197 1.404 . S
C1196 C1199 1.539 . S
C1197 C1193 1.408 . S
C1197 C1196 1.404 . S
C1197 H1209 0.930 . S
C1198 C1194 1.524 . S
C1198 H1210 0.956 . S
C1198 H1211 0.961 . S
C1198 H1212 0.961 . S
C1199 C1196 1.539 . S
C1199 H1213 0.958 . S
C1199 H1214 0.961 . S
C1199 H1215 0.960 . S
H1200 C1184 0.931 . S
H1201 C1189 0.929 . S
H1202 C1190 0.960 . S
H1203 C1190 0.962 . S
H1204 C1190 0.960 . S
H1205 C1191 0.961 . S
H1206 C1191 0.961 . S
H1207 C1191 0.961 . S
H1208 C1192 0.931 . S
H1209 C1197 0.930 . S
H1210 C1198 0.956 . S
H1211 C1198 0.961 . S
H1212 C1198 0.961 . S
H1213 C1199 0.958 . S
H1214 C1199 0.961 . S
H1215 C1199 0.960 . S
C1216 C1217 1.391 . S
C1216 C1218 1.394 . S
C1216 H1232 0.931 . S
C1217 C1216 1.391 . S
C1217 C1221 1.376 . S
C1218 C1216 1.394 . S
C1218 C1219 1.369 . S
C1218 C1222 1.531 . S
C1219 C1218 1.369 . S
C1219 C1220 1.410 . S
C1219 C1227 1.503 . S
C1220 C1219 1.410 . S
C1220 C1221 1.392 . S
C1220 C1223 1.511 . S
C1221 C1217 1.376 . S
C1221 C1220 1.392 . S
C1221 H1233 0.929 . S
C1222 C1218 1.531 . S
C1222 H1234 0.960 . S
C1222 H1235 0.962 . S
C1222 H1236 0.960 . S
C1223 C1220 1.511 . S
C1223 H1237 0.961 . S
C1223 H1238 0.961 . S
C1223 H1239 0.961 . S
C1224 C1225 1.370 . S
C1224 C1226 1.363 . S
C1224 H1240 0.931 . S
C1225 C1224 1.370 . S
C1225 C1229 1.408 . S
C1226 C1224 1.363 . S
C1226 C1227 1.370 . S
C1226 C1230 1.524 . S
C1227 C1219 1.503 . S
C1227 C1226 1.370 . S
C1227 C1228 1.403 . S
C1228 C1227 1.403 . S
C1228 C1229 1.404 . S
C1228 C1231 1.539 . S
C1229 C1225 1.408 . S
C1229 C1228 1.404 . S
C1229 H1241 0.930 . S
C1230 C1226 1.524 . S
C1230 H1242 0.956 . S
C1230 H1243 0.961 . S
C1230 H1244 0.961 . S
C1231 C1228 1.539 . S
C1231 H1245 0.958 . S
C1231 H1246 0.961 . S
C1231 H1247 0.960 . S
H1232 C1216 0.931 . S
H1233 C1221 0.929 . S
H1234 C1222 0.960 . S
H1235 C1222 0.962 . S
H1236 C1222 0.960 . S
H1237 C1223 0.961 . S
H1238 C1223 0.961 . S
H1239 C1223 0.961 . S
H1240 C1224 0.931 . S
H1241 C1229 0.930 . S
H1242 C1230 0.956 . S
H1243 C1230 0.961 . S
H1244 C1230 0.961 . S
H1245 C1231 0.958 . S
H1246 C1231 0.961 . S
H1247 C1231 0.960 . S
C1248 C1249 1.391 . S
C1248 C1250 1.394 . S
C1248 H1264 0.931 . S
C1249 C1248 1.391 . S
C1249 C1253 1.376 . S
C1250 C1248 1.394 . S
C1250 C1251 1.369 . S
C1250 C1254 1.531 . S
C1251 C1250 1.369 . S
C1251 C1252 1.410 . S
C1251 C1259 1.503 . S
C1252 C1251 1.410 . S
C1252 C1253 1.392 . S
C1252 C1255 1.511 . S
C1253 C1249 1.376 . S
C1253 C1252 1.392 . S
C1253 H1265 0.929 . S
C1254 C1250 1.531 . S
C1254 H1266 0.960 . S
C1254 H1267 0.962 . S
C1254 H1268 0.960 . S
C1255 C1252 1.511 . S
C1255 H1269 0.961 . S
C1255 H1270 0.961 . S
C1255 H1271 0.961 . S
C1256 C1257 1.370 . S
C1256 C1258 1.363 . S
C1256 H1272 0.931 . S
C1257 C1256 1.370 . S
C1257 C1261 1.408 . S
C1258 C1256 1.363 . S
C1258 C1259 1.370 . S
C1258 C1262 1.524 . S
C1259 C1251 1.503 . S
C1259 C1258 1.370 . S
C1259 C1260 1.403 . S
C1260 C1259 1.403 . S
C1260 C1261 1.404 . S
C1260 C1263 1.539 . S
C1261 C1257 1.408 . S
C1261 C1260 1.404 . S
C1261 H1273 0.930 . S
C1262 C1258 1.524 . S
C1262 H1274 0.956 . S
C1262 H1275 0.961 . S
C1262 H1276 0.961 . S
C1263 C1260 1.539 . S
C1263 H1277 0.958 . S
C1263 H1278 0.961 . S
C1263 H1279 0.960 . S
H1264 C1248 0.931 . S
H1265 C1253 0.929 . S
H1266 C1254 0.960 . S
H1267 C1254 0.962 . S
H1268 C1254 0.960 . S
H1269 C1255 0.961 . S
H1270 C1255 0.961 . S
H1271 C1255 0.961 . S
H1272 C1256 0.931 . S
H1273 C1261 0.930 . S
H1274 C1262 0.956 . S
H1275 C1262 0.961 . S
H1276 C1262 0.961 . S
H1277 C1263 0.958 . S
H1278 C1263 0.961 . S
H1279 C1263 0.960 . S
C1280 C1281 1.391 . S
C1280 C1282 1.394 1_655 S
C1280 H1296 0.931 . S
C1281 C1280 1.391 . S
C1281 C1285 1.376 . S
C1282 C1280 1.394 1_455 S
C1282 C1283 1.369 . S
C1282 C1286 1.531 . S
C1283 C1282 1.369 . S
C1283 C1284 1.410 1_455 S
C1283 C1291 1.503 . S
C1284 C1283 1.410 1_655 S
C1284 C1285 1.392 . S
C1284 C1287 1.511 . S
C1285 C1281 1.376 . S
C1285 C1284 1.392 . S
C1285 H1297 0.929 . S
C1286 C1282 1.531 . S
C1286 H1298 0.960 . S
C1286 H1299 0.962 . S
C1286 H1300 0.960 . S
C1287 C1284 1.511 . S
C1287 H1301 0.961 . S
C1287 H1302 0.961 . S
C1287 H1303 0.961 . S
C1288 C1289 1.370 . S
C1288 C1290 1.363 . S
C1288 H1304 0.931 . S
C1289 C1288 1.370 . S
C1289 C1293 1.408 . S
C1290 C1288 1.363 . S
C1290 C1291 1.370 . S
C1290 C1294 1.524 . S
C1291 C1283 1.503 . S
C1291 C1290 1.370 . S
C1291 C1292 1.403 . S
C1292 C1291 1.403 . S
C1292 C1293 1.404 . S
C1292 C1295 1.539 . S
C1293 C1289 1.408 . S
C1293 C1292 1.404 . S
C1293 H1305 0.930 . S
C1294 C1290 1.524 . S
C1294 H1306 0.956 . S
C1294 H1307 0.961 1_455 S
C1294 H1308 0.961 . S
C1295 C1292 1.539 . S
C1295 H1309 0.958 . S
C1295 H1310 0.961 . S
C1295 H1311 0.960 . S
H1296 C1280 0.931 . S
H1297 C1285 0.929 . S
H1298 C1286 0.960 . S
H1299 C1286 0.962 . S
H1300 C1286 0.960 . S
H1301 C1287 0.961 . S
H1302 C1287 0.961 . S
H1303 C1287 0.961 . S
H1304 C1288 0.931 . S
H1305 C1293 0.930 . S
H1306 C1294 0.956 . S
H1307 C1294 0.961 1_655 S
H1308 C1294 0.961 . S
H1309 C1295 0.958 . S
H1310 C1295 0.961 . S
H1311 C1295 0.960 . S
C1312 C1313 1.391 . S
C1312 C1314 1.394 . S
C1312 H1328 0.931 . S
C1313 C1312 1.391 . S
C1313 C1317 1.376 . S
C1314 C1312 1.394 . S
C1314 C1315 1.369 . S
C1314 C1318 1.531 . S
C1315 C1314 1.369 . S
C1315 C1316 1.410 . S
C1315 C1323 1.503 . S
C1316 C1315 1.410 . S
C1316 C1317 1.392 . S
C1316 C1319 1.511 . S
C1317 C1313 1.376 . S
C1317 C1316 1.392 . S
C1317 H1329 0.929 . S
C1318 C1314 1.531 . S
C1318 H1330 0.960 . S
C1318 H1331 0.962 . S
C1318 H1332 0.960 . S
C1319 C1316 1.511 . S
C1319 H1333 0.961 . S
C1319 H1334 0.961 . S
C1319 H1335 0.961 . S
C1320 C1321 1.370 . S
C1320 C1322 1.363 . S
C1320 H1336 0.931 . S
C1321 C1320 1.370 . S
C1321 C1325 1.408 . S
C1322 C1320 1.363 . S
C1322 C1323 1.370 . S
C1322 C1326 1.524 . S
C1323 C1315 1.503 . S
C1323 C1322 1.370 . S
C1323 C1324 1.403 . S
C1324 C1323 1.403 . S
C1324 C1325 1.404 . S
C1324 C1327 1.539 . S
C1325 C1321 1.408 . S
C1325 C1324 1.404 . S
C1325 H1337 0.930 . S
C1326 C1322 1.524 . S
C1326 H1338 0.956 . S
C1326 H1339 0.961 . S
C1326 H1340 0.961 . S
C1327 C1324 1.539 . S
C1327 H1341 0.958 . S
C1327 H1342 0.961 . S
C1327 H1343 0.960 . S
H1328 C1312 0.931 . S
H1329 C1317 0.929 . S
H1330 C1318 0.960 . S
H1331 C1318 0.962 . S
H1332 C1318 0.960 . S
H1333 C1319 0.961 . S
H1334 C1319 0.961 . S
H1335 C1319 0.961 . S
H1336 C1320 0.931 . S
H1337 C1325 0.930 . S
H1338 C1326 0.956 . S
H1339 C1326 0.961 . S
H1340 C1326 0.961 . S
H1341 C1327 0.958 . S
H1342 C1327 0.961 . S
H1343 C1327 0.960 . S
C1344 C1345 1.391 . S
C1344 C1346 1.394 . S
C1344 H1360 0.931 . S
C1345 C1344 1.391 . S
C1345 C1349 1.376 . S
C1346 C1344 1.394 . S
C1346 C1347 1.369 . S
C1346 C1350 1.531 1_455 S
C1347 C1346 1.369 . S
C1347 C1348 1.410 . S
C1347 C1355 1.503 . S
C1348 C1347 1.410 . S
C1348 C1349 1.392 . S
C1348 C1351 1.511 . S
C1349 C1345 1.376 . S
C1349 C1348 1.392 . S
C1349 H1361 0.929 . S
C1350 C1346 1.531 1_655 S
C1350 H1362 0.960 . S
C1350 H1363 0.962 . S
C1350 H1364 0.960 . S
C1351 C1348 1.511 . S
C1351 H1365 0.961 . S
C1351 H1366 0.961 . S
C1351 H1367 0.961 . S
C1352 C1353 1.370 . S
C1352 C1354 1.363 . S
C1352 H1368 0.931 . S
C1353 C1352 1.370 . S
C1353 C1357 1.408 . S
C1354 C1352 1.363 . S
C1354 C1355 1.370 1_655 S
C1354 C1358 1.524 1_655 S
C1355 C1347 1.503 . S
C1355 C1354 1.370 1_455 S
C1355 C1356 1.403 1_455 S
C1356 C1355 1.403 1_655 S
C1356 C1357 1.404 . S
C1356 C1359 1.539 . S
C1357 C1353 1.408 . S
C1357 C1356 1.404 . S
C1357 H1369 0.930 . S
C1358 C1354 1.524 1_455 S
C1358 H1370 0.956 . S
C1358 H1371 0.961 . S
C1358 H1372 0.961 . S
C1359 C1356 1.539 . S
C1359 H1373 0.958 . S
C1359 H1374 0.961 . S
C1359 H1375 0.960 1_655 S
H1360 C1344 0.931 . S
H1361 C1349 0.929 . S
H1362 C1350 0.960 . S
H1363 C1350 0.962 . S
H1364 C1350 0.960 . S
H1365 C1351 0.961 . S
H1366 C1351 0.961 . S
H1367 C1351 0.961 . S
H1368 C1352 0.931 . S
H1369 C1357 0.930 . S
H1370 C1358 0.956 . S
H1371 C1358 0.961 . S
H1372 C1358 0.961 . S
H1373 C1359 0.958 . S
H1374 C1359 0.961 . S
H1375 C1359 0.960 1_455 S
C1376 C1377 1.391 . S
C1376 C1378 1.394 . S
C1376 H1392 0.931 . S
C1377 C1376 1.391 . S
C1377 C1381 1.376 . S
C1378 C1376 1.394 . S
C1378 C1379 1.369 . S
C1378 C1382 1.531 . S
C1379 C1378 1.369 . S
C1379 C1380 1.410 . S
C1379 C1387 1.503 . S
C1380 C1379 1.410 . S
C1380 C1381 1.392 . S
C1380 C1383 1.511 . S
C1381 C1377 1.376 . S
C1381 C1380 1.392 . S
C1381 H1393 0.929 . S
C1382 C1378 1.531 . S
C1382 H1394 0.960 . S
C1382 H1395 0.962 . S
C1382 H1396 0.960 . S
C1383 C1380 1.511 . S
C1383 H1397 0.961 . S
C1383 H1398 0.961 . S
C1383 H1399 0.961 . S
C1384 C1385 1.370 . S
C1384 C1386 1.363 . S
C1384 H1400 0.931 . S
C1385 C1384 1.370 . S
C1385 C1389 1.408 . S
C1386 C1384 1.363 . S
C1386 C1387 1.370 . S
C1386 C1390 1.524 . S
C1387 C1379 1.503 . S
C1387 C1386 1.370 . S
C1387 C1388 1.403 . S
C1388 C1387 1.403 . S
C1388 C1389 1.404 . S
C1388 C1391 1.539 . S
C1389 C1385 1.408 . S
C1389 C1388 1.404 . S
C1389 H1401 0.930 . S
C1390 C1386 1.524 . S
C1390 H1402 0.956 . S
C1390 H1403 0.961 . S
C1390 H1404 0.961 . S
C1391 C1388 1.539 . S
C1391 H1405 0.958 . S
C1391 H1406 0.961 . S
C1391 H1407 0.960 . S
H1392 C1376 0.931 . S
H1393 C1381 0.929 . S
H1394 C1382 0.960 . S
H1395 C1382 0.962 . S
H1396 C1382 0.960 . S
H1397 C1383 0.961 . S
H1398 C1383 0.961 . S
H1399 C1383 0.961 . S
H1400 C1384 0.931 . S
H1401 C1389 0.930 . S
H1402 C1390 0.956 . S
H1403 C1390 0.961 . S
H1404 C1390 0.961 . S
H1405 C1391 0.958 . S
H1406 C1391 0.961 . S
H1407 C1391 0.960 . S
C1408 C1409 1.391 . S
C1408 C1410 1.394 . S
C1408 H1424 0.931 . S
C1409 C1408 1.391 . S
C1409 C1413 1.376 . S
C1410 C1408 1.394 . S
C1410 C1411 1.369 . S
C1410 C1414 1.531 . S
C1411 C1410 1.369 . S
C1411 C1412 1.410 . S
C1411 C1419 1.503 . S
C1412 C1411 1.410 . S
C1412 C1413 1.392 . S
C1412 C1415 1.511 . S
C1413 C1409 1.376 . S
C1413 C1412 1.392 . S
C1413 H1425 0.929 . S
C1414 C1410 1.531 . S
C1414 H1426 0.960 . S
C1414 H1427 0.962 . S
C1414 H1428 0.960 . S
C1415 C1412 1.511 . S
C1415 H1429 0.961 . S
C1415 H1430 0.961 . S
C1415 H1431 0.961 . S
C1416 C1417 1.370 . S
C1416 C1418 1.363 . S
C1416 H1432 0.931 . S
C1417 C1416 1.370 . S
C1417 C1421 1.408 . S
C1418 C1416 1.363 . S
C1418 C1419 1.370 . S
C1418 C1422 1.524 . S
C1419 C1411 1.503 . S
C1419 C1418 1.370 . S
C1419 C1420 1.403 . S
C1420 C1419 1.403 . S
C1420 C1421 1.404 . S
C1420 C1423 1.539 . S
C1421 C1417 1.408 . S
C1421 C1420 1.404 . S
C1421 H1433 0.930 . S
C1422 C1418 1.524 . S
C1422 H1434 0.956 . S
C1422 H1435 0.961 . S
C1422 H1436 0.961 . S
C1423 C1420 1.539 . S
C1423 H1437 0.958 . S
C1423 H1438 0.961 . S
C1423 H1439 0.960 . S
H1424 C1408 0.931 . S
H1425 C1413 0.929 . S
H1426 C1414 0.960 . S
H1427 C1414 0.962 . S
H1428 C1414 0.960 . S
H1429 C1415 0.961 . S
H1430 C1415 0.961 . S
H1431 C1415 0.961 . S
H1432 C1416 0.931 . S
H1433 C1421 0.930 . S
H1434 C1422 0.956 . S
H1435 C1422 0.961 . S
H1436 C1422 0.961 . S
H1437 C1423 0.958 . S
H1438 C1423 0.961 . S
H1439 C1423 0.960 . S
C1440 C1441 1.391 . S
C1440 C1442 1.394 . S
C1440 H1456 0.931 . S
C1441 C1440 1.391 . S
C1441 C1445 1.376 . S
C1442 C1440 1.394 . S
C1442 C1443 1.369 . S
C1442 C1446 1.531 . S
C1443 C1442 1.369 . S
C1443 C1444 1.410 . S
C1443 C1451 1.503 . S
C1444 C1443 1.410 . S
C1444 C1445 1.392 . S
C1444 C1447 1.511 . S
C1445 C1441 1.376 . S
C1445 C1444 1.392 . S
C1445 H1457 0.929 . S
C1446 C1442 1.531 . S
C1446 H1458 0.960 . S
C1446 H1459 0.962 . S
C1446 H1460 0.960 . S
C1447 C1444 1.511 . S
C1447 H1461 0.961 . S
C1447 H1462 0.961 . S
C1447 H1463 0.961 . S
C1448 C1449 1.370 . S
C1448 C1450 1.363 . S
C1448 H1464 0.931 . S
C1449 C1448 1.370 . S
C1449 C1453 1.408 . S
C1450 C1448 1.363 . S
C1450 C1451 1.370 . S
C1450 C1454 1.524 . S
C1451 C1443 1.503 . S
C1451 C1450 1.370 . S
C1451 C1452 1.403 . S
C1452 C1451 1.403 . S
C1452 C1453 1.404 . S
C1452 C1455 1.539 . S
C1453 C1449 1.408 . S
C1453 C1452 1.404 . S
C1453 H1465 0.930 . S
C1454 C1450 1.524 . S
C1454 H1466 0.956 . S
C1454 H1467 0.961 . S
C1454 H1468 0.961 . S
C1455 C1452 1.539 . S
C1455 H1469 0.958 . S
C1455 H1470 0.961 . S
C1455 H1471 0.960 . S
H1456 C1440 0.931 . S
H1457 C1445 0.929 . S
H1458 C1446 0.960 . S
H1459 C1446 0.962 . S
H1460 C1446 0.960 . S
H1461 C1447 0.961 . S
H1462 C1447 0.961 . S
H1463 C1447 0.961 . S
H1464 C1448 0.931 . S
H1465 C1453 0.930 . S
H1466 C1454 0.956 . S
H1467 C1454 0.961 . S
H1468 C1454 0.961 . S
H1469 C1455 0.958 . S
H1470 C1455 0.961 . S
H1471 C1455 0.960 . S
C1472 C1473 1.391 . S
C1472 C1474 1.394 . S
C1472 H1488 0.931 . S
C1473 C1472 1.391 . S
C1473 C1477 1.376 . S
C1474 C1472 1.394 . S
C1474 C1475 1.369 . S
C1474 C1478 1.531 . S
C1475 C1474 1.369 . S
C1475 C1476 1.410 . S
C1475 C1483 1.503 . S
C1476 C1475 1.410 . S
C1476 C1477 1.392 . S
C1476 C1479 1.511 . S
C1477 C1473 1.376 . S
C1477 C1476 1.392 . S
C1477 H1489 0.929 . S
C1478 C1474 1.531 . S
C1478 H1490 0.960 . S
C1478 H1491 0.962 . S
C1478 H1492 0.960 . S
C1479 C1476 1.511 . S
C1479 H1493 0.961 . S
C1479 H1494 0.961 . S
C1479 H1495 0.961 . S
C1480 C1481 1.370 . S
C1480 C1482 1.363 . S
C1480 H1496 0.931 . S
C1481 C1480 1.370 . S
C1481 C1485 1.408 . S
C1482 C1480 1.363 . S
C1482 C1483 1.370 . S
C1482 C1486 1.524 . S
C1483 C1475 1.503 . S
C1483 C1482 1.370 . S
C1483 C1484 1.403 . S
C1484 C1483 1.403 . S
C1484 C1485 1.404 . S
C1484 C1487 1.539 . S
C1485 C1481 1.408 . S
C1485 C1484 1.404 . S
C1485 H1497 0.930 . S
C1486 C1482 1.524 . S
C1486 H1498 0.956 . S
C1486 H1499 0.961 . S
C1486 H1500 0.961 . S
C1487 C1484 1.539 . S
C1487 H1501 0.958 . S
C1487 H1502 0.961 . S
C1487 H1503 0.960 . S
H1488 C1472 0.931 . S
H1489 C1477 0.929 . S
H1490 C1478 0.960 . S
H1491 C1478 0.962 . S
H1492 C1478 0.960 . S
H1493 C1479 0.961 . S
H1494 C1479 0.961 . S
H1495 C1479 0.961 . S
H1496 C1480 0.931 . S
H1497 C1485 0.930 . S
H1498 C1486 0.956 . S
H1499 C1486 0.961 . S
H1500 C1486 0.961 . S
H1501 C1487 0.958 . S
H1502 C1487 0.961 . S
H1503 C1487 0.960 . S
C1504 C1505 1.391 . S
C1504 C1506 1.394 . S
C1504 H1520 0.931 . S
C1505 C1504 1.391 . S
C1505 C1509 1.376 . S
C1506 C1504 1.394 . S
C1506 C1507 1.369 . S
C1506 C1510 1.531 . S
C1507 C1506 1.369 . S
C1507 C1508 1.410 . S
C1507 C1515 1.503 . S
C1508 C1507 1.410 . S
C1508 C1509 1.392 . S
C1508 C1511 1.511 . S
C1509 C1505 1.376 . S
C1509 C1508 1.392 . S
C1509 H1521 0.929 . S
C1510 C1506 1.531 . S
C1510 H1522 0.960 . S
C1510 H1523 0.962 . S
C1510 H1524 0.960 . S
C1511 C1508 1.511 . S
C1511 H1525 0.961 . S
C1511 H1526 0.961 . S
C1511 H1527 0.961 . S
C1512 C1513 1.370 . S
C1512 C1514 1.363 . S
C1512 H1528 0.931 . S
C1513 C1512 1.370 . S
C1513 C1517 1.408 . S
C1514 C1512 1.363 . S
C1514 C1515 1.370 . S
C1514 C1518 1.524 . S
C1515 C1507 1.503 . S
C1515 C1514 1.370 . S
C1515 C1516 1.403 . S
C1516 C1515 1.403 . S
C1516 C1517 1.404 . S
C1516 C1519 1.539 . S
C1517 C1513 1.408 . S
C1517 C1516 1.404 . S
C1517 H1529 0.930 . S
C1518 C1514 1.524 . S
C1518 H1530 0.956 . S
C1518 H1531 0.961 . S
C1518 H1532 0.961 . S
C1519 C1516 1.539 . S
C1519 H1533 0.958 . S
C1519 H1534 0.961 . S
C1519 H1535 0.960 . S
H1520 C1504 0.931 . S
H1521 C1509 0.929 . S
H1522 C1510 0.960 . S
H1523 C1510 0.962 . S
H1524 C1510 0.960 . S
H1525 C1511 0.961 . S
H1526 C1511 0.961 . S
H1527 C1511 0.961 . S
H1528 C1512 0.931 . S
H1529 C1517 0.930 . S
H1530 C1518 0.956 . S
H1531 C1518 0.961 . S
H1532 C1518 0.961 . S
H1533 C1519 0.958 . S
H1534 C1519 0.961 . S
H1535 C1519 0.960 . S
C1536 C1537 1.391 . S
C1536 C1538 1.394 1_455 S
C1536 H1552 0.931 . S
C1537 C1536 1.391 . S
C1537 C1541 1.376 . S
C1538 C1536 1.394 1_655 S
C1538 C1539 1.369 . S
C1538 C1542 1.531 . S
C1539 C1538 1.369 . S
C1539 C1540 1.410 1_655 S
C1539 C1547 1.503 . S
C1540 C1539 1.410 1_455 S
C1540 C1541 1.392 . S
C1540 C1543 1.511 . S
C1541 C1537 1.376 . S
C1541 C1540 1.392 . S
C1541 H1553 0.929 . S
C1542 C1538 1.531 . S
C1542 H1554 0.960 . S
C1542 H1555 0.962 . S
C1542 H1556 0.960 . S
C1543 C1540 1.511 . S
C1543 H1557 0.961 . S
C1543 H1558 0.961 . S
C1543 H1559 0.961 . S
C1544 C1545 1.370 . S
C1544 C1546 1.363 . S
C1544 H1560 0.931 . S
C1545 C1544 1.370 . S
C1545 C1549 1.408 . S
C1546 C1544 1.363 . S
C1546 C1547 1.370 . S
C1546 C1550 1.514 1_655 S
C1547 C1539 1.503 . S
C1547 C1546 1.370 . S
C1547 C1548 1.403 . S
C1548 C1547 1.403 . S
C1548 C1549 1.404 . S
C1548 C1551 1.539 . S
C1549 C1545 1.408 . S
C1549 C1548 1.404 . S
C1549 H1561 0.930 . S
C1550 C1546 1.514 1_455 S
C1550 H1562 0.955 1_455 S
C1550 H1563 0.971 . S
C1550 H1564 0.960 . S
C1551 C1548 1.539 . S
C1551 H1565 0.958 . S
C1551 H1566 0.961 . S
C1551 H1567 0.960 . S
H1552 C1536 0.931 . S
H1553 C1541 0.929 . S
H1554 C1542 0.960 . S
H1555 C1542 0.962 . S
H1556 C1542 0.960 . S
H1557 C1543 0.961 . S
H1558 C1543 0.961 . S
H1559 C1543 0.961 . S
H1560 C1544 0.931 . S
H1561 C1549 0.930 . S
H1562 C1550 0.955 1_655 S
H1563 C1550 0.971 . S
H1564 C1550 0.960 . S
H1565 C1551 0.958 . S
H1566 C1551 0.961 . S
H1567 C1551 0.960 . S
C1568 C1569 1.391 . S
C1568 C1570 1.394 . S
C1568 H1584 0.931 . S
C1569 C1568 1.391 . S
C1569 C1573 1.376 . S
C1570 C1568 1.394 . S
C1570 C1571 1.369 . S
C1570 C1574 1.531 . S
C1571 C1570 1.369 . S
C1571 C1572 1.410 . S
C1571 C1579 1.503 . S
C1572 C1571 1.410 . S
C1572 C1573 1.392 . S
C1572 C1575 1.511 . S
C1573 C1569 1.376 . S
C1573 C1572 1.392 . S
C1573 H1585 0.929 . S
C1574 C1570 1.531 . S
C1574 H1586 0.960 . S
C1574 H1587 0.962 . S
C1574 H1588 0.960 . S
C1575 C1572 1.511 . S
C1575 H1589 0.961 . S
C1575 H1590 0.961 . S
C1575 H1591 0.961 . S
C1576 C1577 1.370 . S
C1576 C1578 1.363 . S
C1576 H1592 0.931 . S
C1577 C1576 1.370 . S
C1577 C1581 1.408 . S
C1578 C1576 1.363 . S
C1578 C1579 1.370 . S
C1578 C1582 1.524 . S
C1579 C1571 1.503 . S
C1579 C1578 1.370 . S
C1579 C1580 1.403 . S
C1580 C1579 1.403 . S
C1580 C1581 1.404 . S
C1580 C1583 1.539 . S
C1581 C1577 1.408 . S
C1581 C1580 1.404 . S
C1581 H1593 0.930 . S
C1582 C1578 1.524 . S
C1582 H1594 0.956 . S
C1582 H1595 0.961 . S
C1582 H1596 0.961 . S
C1583 C1580 1.539 . S
C1583 H1597 0.958 . S
C1583 H1598 0.961 . S
C1583 H1599 0.960 . S
H1584 C1568 0.931 . S
H1585 C1573 0.929 . S
H1586 C1574 0.960 . S
H1587 C1574 0.962 . S
H1588 C1574 0.960 . S
H1589 C1575 0.961 . S
H1590 C1575 0.961 . S
H1591 C1575 0.961 . S
H1592 C1576 0.931 . S
H1593 C1581 0.930 . S
H1594 C1582 0.956 . S
H1595 C1582 0.961 . S
H1596 C1582 0.961 . S
H1597 C1583 0.958 . S
H1598 C1583 0.961 . S
H1599 C1583 0.960 . S
C1600 C1601 1.391 . S
C1600 C1602 1.394 . S
C1600 H1616 0.931 . S
C1601 C1600 1.391 . S
C1601 C1605 1.376 . S
C1602 C1600 1.394 . S
C1602 C1603 1.369 . S
C1602 C1606 1.550 . S
C1603 C1602 1.369 . S
C1603 C1604 1.410 . S
C1603 C1611 1.503 . S
C1604 C1603 1.410 . S
C1604 C1605 1.392 . S
C1604 C1607 1.511 . S
C1605 C1601 1.376 . S
C1605 C1604 1.392 . S
C1605 H1617 0.929 . S
C1606 C1602 1.550 . S
C1606 H1618 0.954 1_655 S
C1606 H1619 0.944 1_655 S
C1606 H1620 0.966 . S
C1607 C1604 1.511 . S
C1607 H1621 0.961 . S
C1607 H1622 0.961 . S
C1607 H1623 0.961 . S
C1608 C1609 1.370 . S
C1608 C1610 1.363 . S
C1608 H1624 0.931 . S
C1609 C1608 1.370 . S
C1609 C1613 1.408 . S
C1610 C1608 1.363 . S
C1610 C1611 1.370 1_455 S
C1610 C1614 1.524 . S
C1611 C1603 1.503 . S
C1611 C1610 1.370 1_655 S
C1611 C1612 1.403 . S
C1612 C1611 1.403 . S
C1612 C1613 1.404 1_655 S
C1612 C1615 1.539 . S
C1613 C1609 1.408 . S
C1613 C1612 1.404 1_455 S
C1613 H1625 0.930 . S
C1614 C1610 1.524 . S
C1614 H1626 0.956 . S
C1614 H1627 0.961 1_455 S
C1614 H1628 0.961 . S
C1615 C1612 1.539 . S
C1615 H1629 0.958 . S
C1615 H1630 0.961 . S
C1615 H1631 0.960 . S
H1616 C1600 0.931 . S
H1617 C1605 0.929 . S
H1618 C1606 0.954 1_455 S
H1619 C1606 0.944 1_455 S
H1620 C1606 0.966 . S
H1621 C1607 0.961 . S
H1622 C1607 0.961 . S
H1623 C1607 0.961 . S
H1624 C1608 0.931 . S
H1625 C1613 0.930 . S
H1626 C1614 0.956 . S
H1627 C1614 0.961 1_655 S
H1628 C1614 0.961 . S
H1629 C1615 0.958 . S
H1630 C1615 0.961 . S
H1631 C1615 0.960 . S
C1632 C1633 1.391 . S
C1632 C1634 1.394 . S
C1632 H1648 0.931 . S
C1633 C1632 1.391 . S
C1633 C1637 1.376 . S
C1634 C1632 1.394 . S
C1634 C1635 1.369 . S
C1634 C1638 1.531 . S
C1635 C1634 1.369 . S
C1635 C1636 1.410 . S
C1635 C1643 1.503 . S
C1636 C1635 1.410 . S
C1636 C1637 1.392 . S
C1636 C1639 1.511 . S
C1637 C1633 1.376 . S
C1637 C1636 1.392 . S
C1637 H1649 0.929 . S
C1638 C1634 1.531 . S
C1638 H1650 0.960 . S
C1638 H1651 0.962 . S
C1638 H1652 0.960 . S
C1639 C1636 1.511 . S
C1639 H1653 0.961 . S
C1639 H1654 0.961 . S
C1639 H1655 0.961 . S
C1640 C1641 1.370 . S
C1640 C1642 1.363 . S
C1640 H1656 0.931 . S
C1641 C1640 1.370 . S
C1641 C1645 1.408 . S
C1642 C1640 1.363 . S
C1642 C1643 1.370 . S
C1642 C1646 1.524 . S
C1643 C1635 1.503 . S
C1643 C1642 1.370 . S
C1643 C1644 1.403 . S
C1644 C1643 1.403 . S
C1644 C1645 1.404 . S
C1644 C1647 1.539 . S
C1645 C1641 1.408 . S
C1645 C1644 1.404 . S
C1645 H1657 0.930 . S
C1646 C1642 1.524 . S
C1646 H1658 0.956 . S
C1646 H1659 0.961 . S
C1646 H1660 0.961 . S
C1647 C1644 1.539 . S
C1647 H1661 0.958 . S
C1647 H1662 0.961 . S
C1647 H1663 0.960 . S
H1648 C1632 0.931 . S
H1649 C1637 0.929 . S
H1650 C1638 0.960 . S
H1651 C1638 0.962 . S
H1652 C1638 0.960 . S
H1653 C1639 0.961 . S
H1654 C1639 0.961 . S
H1655 C1639 0.961 . S
H1656 C1640 0.931 . S
H1657 C1645 0.930 . S
H1658 C1646 0.956 . S
H1659 C1646 0.961 . S
H1660 C1646 0.961 . S
H1661 C1647 0.958 . S
H1662 C1647 0.961 . S
H1663 C1647 0.960 . S
C1664 C1665 1.391 . S
C1664 C1666 1.394 . S
C1664 H1680 0.931 . S
C1665 C1664 1.391 . S
C1665 C1669 1.376 . S
C1666 C1664 1.394 . S
C1666 C1667 1.369 . S
C1666 C1670 1.531 . S
C1667 C1666 1.369 . S
C1667 C1668 1.410 . S
C1667 C1675 1.503 . S
C1668 C1667 1.410 . S
C1668 C1669 1.392 . S
C1668 C1671 1.511 . S
C1669 C1665 1.376 . S
C1669 C1668 1.392 . S
C1669 H1681 0.929 . S
C1670 C1666 1.531 . S
C1670 H1682 0.960 . S
C1670 H1683 0.962 . S
C1670 H1684 0.960 . S
C1671 C1668 1.511 . S
C1671 H1685 0.961 . S
C1671 H1686 0.961 . S
C1671 H1687 0.961 . S
C1672 C1673 1.370 . S
C1672 C1674 1.363 . S
C1672 H1688 0.931 . S
C1673 C1672 1.370 . S
C1673 C1677 1.408 . S
C1674 C1672 1.363 . S
C1674 C1675 1.370 . S
C1674 C1678 1.524 . S
C1675 C1667 1.503 . S
C1675 C1674 1.370 . S
C1675 C1676 1.403 . S
C1676 C1675 1.403 . S
C1676 C1677 1.404 . S
C1676 C1679 1.539 . S
C1677 C1673 1.408 . S
C1677 C1676 1.404 . S
C1677 H1689 0.930 . S
C1678 C1674 1.524 . S
C1678 H1690 0.956 . S
C1678 H1691 0.961 . S
C1678 H1692 0.961 . S
C1679 C1676 1.539 . S
C1679 H1693 0.958 . S
C1679 H1694 0.961 . S
C1679 H1695 0.960 . S
H1680 C1664 0.931 . S
H1681 C1669 0.929 . S
H1682 C1670 0.960 . S
H1683 C1670 0.962 . S
H1684 C1670 0.960 . S
H1685 C1671 0.961 . S
H1686 C1671 0.961 . S
H1687 C1671 0.961 . S
H1688 C1672 0.931 . S
H1689 C1677 0.930 . S
H1690 C1678 0.956 . S
H1691 C1678 0.961 . S
H1692 C1678 0.961 . S
H1693 C1679 0.958 . S
H1694 C1679 0.961 . S
H1695 C1679 0.960 . S
C1696 C1697 1.391 . S
C1696 C1698 1.394 . S
C1696 H1712 0.931 . S
C1697 C1696 1.391 . S
C1697 C1701 1.376 . S
C1698 C1696 1.394 . S
C1698 C1699 1.369 . S
C1698 C1702 1.531 . S
C1699 C1698 1.369 . S
C1699 C1700 1.410 . S
C1699 C1707 1.503 1_455 S
C1700 C1699 1.410 . S
C1700 C1701 1.392 . S
C1700 C1703 1.511 1_455 S
C1701 C1697 1.376 . S
C1701 C1700 1.392 . S
C1701 H1713 0.929 . S
C1702 C1698 1.531 . S
C1702 H1714 0.960 . S
C1702 H1715 0.962 . S
C1702 H1716 0.960 . S
C1703 C1700 1.511 1_655 S
C1703 H1717 0.961 . S
C1703 H1718 0.961 . S
C1703 H1719 0.961 . S
C1704 C1705 1.370 . S
C1704 C1706 1.363 . S
C1704 H1720 0.931 . S
C1705 C1704 1.370 . S
C1705 C1709 1.408 . S
C1706 C1704 1.363 . S
C1706 C1707 1.370 . S
C1706 C1710 1.524 . S
C1707 C1699 1.503 1_655 S
C1707 C1706 1.370 . S
C1707 C1708 1.403 . S
C1708 C1707 1.403 . S
C1708 C1709 1.404 . S
C1708 C1711 1.539 1_655 S
C1709 C1705 1.408 . S
C1709 C1708 1.404 . S
C1709 H1721 0.930 . S
C1710 C1706 1.524 . S
C1710 H1722 0.956 . S
C1710 H1723 0.961 . S
C1710 H1724 0.961 . S
C1711 C1708 1.539 1_455 S
C1711 H1725 0.958 . S
C1711 H1726 0.961 . S
C1711 H1727 0.960 . S
H1712 C1696 0.931 . S
H1713 C1701 0.929 . S
H1714 C1702 0.960 . S
H1715 C1702 0.962 . S
H1716 C1702 0.960 . S
H1717 C1703 0.961 . S
H1718 C1703 0.961 . S
H1719 C1703 0.961 . S
H1720 C1704 0.931 . S
H1721 C1709 0.930 . S
H1722 C1710 0.956 . S
H1723 C1710 0.961 . S
H1724 C1710 0.961 . S
H1725 C1711 0.958 . S
H1726 C1711 0.961 . S
H1727 C1711 0.960 . S
C1728 C1729 1.391 . S
C1728 C1730 1.394 . S
C1728 H1744 0.931 . S
C1729 C1728 1.391 . S
C1729 C1733 1.376 . S
C1730 C1728 1.394 . S
C1730 C1731 1.369 . S
C1730 C1734 1.531 . S
C1731 C1730 1.369 . S
C1731 C1732 1.410 1_655 S
C1731 C1739 1.503 1_655 S
C1732 C1731 1.410 1_455 S
C1732 C1733 1.392 1_455 S
C1732 C1735 1.511 . S
C1733 C1729 1.376 . S
C1733 C1732 1.392 1_655 S
C1733 H1745 0.929 . S
C1734 C1730 1.531 . S
C1734 H1746 0.960 . S
C1734 H1747 0.962 . S
C1734 H1748 0.960 . S
C1735 C1732 1.511 . S
C1735 H1749 0.961 . S
C1735 H1750 0.961 . S
C1735 H1751 0.961 . S
C1736 C1737 1.370 . S
C1736 C1738 1.363 . S
C1736 H1752 0.931 . S
C1737 C1736 1.370 . S
C1737 C1741 1.408 . S
C1738 C1736 1.363 . S
C1738 C1739 1.370 . S
C1738 C1742 1.524 . S
C1739 C1731 1.503 1_455 S
C1739 C1738 1.370 . S
C1739 C1740 1.403 . S
C1740 C1739 1.403 . S
C1740 C1741 1.404 . S
C1740 C1743 1.539 . S
C1741 C1737 1.408 . S
C1741 C1740 1.404 . S
C1741 H1753 0.930 . S
C1742 C1738 1.524 . S
C1742 H1754 0.956 1_455 S
C1742 H1755 0.961 . S
C1742 H1756 0.961 . S
C1743 C1740 1.539 . S
C1743 H1757 0.958 1_455 S
C1743 H1758 0.961 . S
C1743 H1759 0.960 . S
H1744 C1728 0.931 . S
H1745 C1733 0.929 . S
H1746 C1734 0.960 . S
H1747 C1734 0.962 . S
H1748 C1734 0.960 . S
H1749 C1735 0.961 . S
H1750 C1735 0.961 . S
H1751 C1735 0.961 . S
H1752 C1736 0.931 . S
H1753 C1741 0.930 . S
H1754 C1742 0.956 1_655 S
H1755 C1742 0.961 . S
H1756 C1742 0.961 . S
H1757 C1743 0.958 1_655 S
H1758 C1743 0.961 . S
H1759 C1743 0.960 . S
C1760 C1761 1.391 . S
C1760 C1762 1.394 . S
C1760 H1776 0.931 . S
C1761 C1760 1.391 . S
C1761 C1765 1.376 . S
C1762 C1760 1.394 . S
C1762 C1763 1.369 . S
C1762 C1766 1.531 . S
C1763 C1762 1.369 . S
C1763 C1764 1.410 . S
C1763 C1771 1.503 . S
C1764 C1763 1.410 . S
C1764 C1765 1.392 . S
C1764 C1767 1.511 . S
C1765 C1761 1.376 . S
C1765 C1764 1.392 . S
C1765 H1777 0.929 . S
C1766 C1762 1.531 . S
C1766 H1778 0.960 . S
C1766 H1779 0.962 . S
C1766 H1780 0.960 . S
C1767 C1764 1.511 . S
C1767 H1781 0.961 . S
C1767 H1782 0.961 . S
C1767 H1783 0.961 . S
C1768 C1769 1.370 . S
C1768 C1770 1.363 . S
C1768 H1784 0.931 . S
C1769 C1768 1.370 . S
C1769 C1773 1.408 . S
C1770 C1768 1.363 . S
C1770 C1771 1.370 . S
C1770 C1774 1.524 . S
C1771 C1763 1.503 . S
C1771 C1770 1.370 . S
C1771 C1772 1.403 . S
C1772 C1771 1.403 . S
C1772 C1773 1.404 . S
C1772 C1775 1.539 . S
C1773 C1769 1.408 . S
C1773 C1772 1.404 . S
C1773 H1785 0.930 . S
C1774 C1770 1.524 . S
C1774 H1786 0.956 . S
C1774 H1787 0.961 . S
C1774 H1788 0.961 . S
C1775 C1772 1.539 . S
C1775 H1789 0.958 . S
C1775 H1790 0.961 . S
C1775 H1791 0.960 . S
H1776 C1760 0.931 . S
H1777 C1765 0.929 . S
H1778 C1766 0.960 . S
H1779 C1766 0.962 . S
H1780 C1766 0.960 . S
H1781 C1767 0.961 . S
H1782 C1767 0.961 . S
H1783 C1767 0.961 . S
H1784 C1768 0.931 . S
H1785 C1773 0.930 . S
H1786 C1774 0.956 . S
H1787 C1774 0.961 . S
H1788 C1774 0.961 . S
H1789 C1775 0.958 . S
H1790 C1775 0.961 . S
H1791 C1775 0.960 . S
C1792 C1793 1.391 . S
C1792 C1794 1.394 . S
C1792 H1808 0.931 . S
C1793 C1792 1.391 . S
C1793 C1797 1.376 . S
C1794 C1792 1.394 . S
C1794 C1795 1.369 . S
C1794 C1798 1.531 . S
C1795 C1794 1.369 . S
C1795 C1796 1.410 . S
C1795 C1803 1.503 . S
C1796 C1795 1.410 . S
C1796 C1797 1.392 . S
C1796 C1799 1.511 . S
C1797 C1793 1.376 . S
C1797 C1796 1.392 . S
C1797 H1809 0.929 . S
C1798 C1794 1.531 . S
C1798 H1810 0.960 . S
C1798 H1811 0.962 . S
C1798 H1812 0.960 . S
C1799 C1796 1.511 . S
C1799 H1813 0.961 . S
C1799 H1814 0.961 . S
C1799 H1815 0.961 . S
C1800 C1801 1.370 . S
C1800 C1802 1.363 . S
C1800 H1816 0.931 . S
C1801 C1800 1.370 . S
C1801 C1805 1.408 . S
C1802 C1800 1.363 . S
C1802 C1803 1.370 . S
C1802 C1806 1.524 . S
C1803 C1795 1.503 . S
C1803 C1802 1.370 . S
C1803 C1804 1.403 . S
C1804 C1803 1.403 . S
C1804 C1805 1.404 . S
C1804 C1807 1.539 . S
C1805 C1801 1.408 . S
C1805 C1804 1.404 . S
C1805 H1817 0.930 . S
C1806 C1802 1.524 . S
C1806 H1818 0.956 . S
C1806 H1819 0.961 . S
C1806 H1820 0.961 . S
C1807 C1804 1.539 . S
C1807 H1821 0.958 . S
C1807 H1822 0.961 . S
C1807 H1823 0.960 . S
H1808 C1792 0.931 . S
H1809 C1797 0.929 . S
H1810 C1798 0.960 . S
H1811 C1798 0.962 . S
H1812 C1798 0.960 . S
H1813 C1799 0.961 . S
H1814 C1799 0.961 . S
H1815 C1799 0.961 . S
H1816 C1800 0.931 . S
H1817 C1805 0.930 . S
H1818 C1806 0.956 . S
H1819 C1806 0.961 . S
H1820 C1806 0.961 . S
H1821 C1807 0.958 . S
H1822 C1807 0.961 . S
H1823 C1807 0.960 . S
C1824 C1825 1.391 . S
C1824 C1826 1.394 . S
C1824 H1840 0.931 . S
C1825 C1824 1.391 . S
C1825 C1829 1.376 . S
C1826 C1824 1.394 . S
C1826 C1827 1.369 . S
C1826 C1830 1.531 1_655 S
C1827 C1826 1.369 . S
C1827 C1828 1.410 . S
C1827 C1835 1.503 1_655 S
C1828 C1827 1.410 . S
C1828 C1829 1.392 . S
C1828 C1831 1.511 . S
C1829 C1825 1.376 . S
C1829 C1828 1.392 . S
C1829 H1841 0.929 . S
C1830 C1826 1.531 1_455 S
C1830 H1842 0.960 . S
C1830 H1843 0.962 . S
C1830 H1844 0.960 . S
C1831 C1828 1.511 . S
C1831 H1845 0.961 . S
C1831 H1846 0.961 . S
C1831 H1847 0.961 . S
C1832 C1833 1.370 . S
C1832 C1834 1.363 . S
C1832 H1848 0.931 . S
C1833 C1832 1.370 . S
C1833 C1837 1.408 . S
C1834 C1832 1.363 . S
C1834 C1835 1.370 . S
C1834 C1838 1.524 . S
C1835 C1827 1.503 1_455 S
C1835 C1834 1.370 . S
C1835 C1836 1.403 . S
C1836 C1835 1.403 . S
C1836 C1837 1.404 . S
C1836 C1839 1.539 . S
C1837 C1833 1.408 . S
C1837 C1836 1.404 . S
C1837 H1849 0.930 . S
C1838 C1834 1.524 . S
C1838 H1850 0.956 . S
C1838 H1851 0.961 1_455 S
C1838 H1852 0.961 . S
C1839 C1836 1.539 . S
C1839 H1853 0.958 . S
C1839 H1854 0.961 . S
C1839 H1855 0.960 1_455 S
H1840 C1824 0.931 . S
H1841 C1829 0.929 . S
H1842 C1830 0.960 . S
H1843 C1830 0.962 . S
H1844 C1830 0.960 . S
H1845 C1831 0.961 . S
H1846 C1831 0.961 . S
H1847 C1831 0.961 . S
H1848 C1832 0.931 . S
H1849 C1837 0.930 . S
H1850 C1838 0.956 . S
H1851 C1838 0.961 1_655 S
H1852 C1838 0.961 . S
H1853 C1839 0.958 . S
H1854 C1839 0.961 . S
H1855 C1839 0.960 1_655 S
C1856 C1857 1.391 . S
C1856 C1858 1.394 . S
C1856 H1872 0.931 . S
C1857 C1856 1.391 . S
C1857 C1861 1.376 . S
C1858 C1856 1.394 . S
C1858 C1859 1.369 . S
C1858 C1862 1.531 . S
C1859 C1858 1.369 . S
C1859 C1860 1.410 . S
C1859 C1867 1.503 . S
C1860 C1859 1.410 . S
C1860 C1861 1.392 . S
C1860 C1863 1.511 . S
C1861 C1857 1.376 . S
C1861 C1860 1.392 . S
C1861 H1873 0.929 . S
C1862 C1858 1.531 . S
C1862 H1874 0.960 . S
C1862 H1875 0.962 . S
C1862 H1876 0.960 . S
C1863 C1860 1.511 . S
C1863 H1877 0.961 . S
C1863 H1878 0.961 . S
C1863 H1879 0.961 . S
C1864 C1865 1.370 . S
C1864 C1866 1.363 . S
C1864 H1880 0.931 . S
C1865 C1864 1.370 . S
C1865 C1869 1.408 . S
C1866 C1864 1.363 . S
C1866 C1867 1.370 . S
C1866 C1870 1.524 . S
C1867 C1859 1.503 . S
C1867 C1866 1.370 . S
C1867 C1868 1.403 . S
C1868 C1867 1.403 . S
C1868 C1869 1.404 . S
C1868 C1871 1.539 . S
C1869 C1865 1.408 . S
C1869 C1868 1.404 . S
C1869 H1881 0.930 . S
C1870 C1866 1.524 . S
C1870 H1882 0.956 . S
C1870 H1883 0.961 . S
C1870 H1884 0.961 . S
C1871 C1868 1.539 . S
C1871 H1885 0.958 . S
C1871 H1886 0.961 . S
C1871 H1887 0.960 . S
H1872 C1856 0.931 . S
H1873 C1861 0.929 . S
H1874 C1862 0.960 . S
H1875 C1862 0.962 . S
H1876 C1862 0.960 . S
H1877 C1863 0.961 . S
H1878 C1863 0.961 . S
H1879 C1863 0.961 . S
H1880 C1864 0.931 . S
H1881 C1869 0.930 . S
H1882 C1870 0.956 . S
H1883 C1870 0.961 . S
H1884 C1870 0.961 . S
H1885 C1871 0.958 . S
H1886 C1871 0.961 . S
H1887 C1871 0.960 . S
C1888 C1889 1.391 . S
C1888 C1890 1.394 . S
C1888 H1904 0.931 . S
C1889 C1888 1.391 . S
C1889 C1893 1.376 . S
C1890 C1888 1.394 . S
C1890 C1891 1.369 . S
C1890 C1894 1.531 . S
C1891 C1890 1.369 . S
C1891 C1892 1.410 . S
C1891 C1899 1.503 . S
C1892 C1891 1.410 . S
C1892 C1893 1.392 . S
C1892 C1895 1.511 . S
C1893 C1889 1.376 . S
C1893 C1892 1.392 . S
C1893 H1905 0.929 . S
C1894 C1890 1.531 . S
C1894 H1906 0.960 . S
C1894 H1907 0.962 . S
C1894 H1908 0.960 . S
C1895 C1892 1.511 . S
C1895 H1909 0.961 . S
C1895 H1910 0.961 . S
C1895 H1911 0.961 . S
C1896 C1897 1.370 . S
C1896 C1898 1.363 . S
C1896 H1912 0.931 . S
C1897 C1896 1.370 . S
C1897 C1901 1.408 . S
C1898 C1896 1.363 . S
C1898 C1899 1.370 . S
C1898 C1902 1.524 . S
C1899 C1891 1.503 . S
C1899 C1898 1.370 . S
C1899 C1900 1.403 . S
C1900 C1899 1.403 . S
C1900 C1901 1.404 . S
C1900 C1903 1.539 . S
C1901 C1897 1.408 . S
C1901 C1900 1.404 . S
C1901 H1913 0.930 . S
C1902 C1898 1.524 . S
C1902 H1914 0.956 . S
C1902 H1915 0.961 . S
C1902 H1916 0.961 . S
C1903 C1900 1.539 . S
C1903 H1917 0.958 . S
C1903 H1918 0.961 . S
C1903 H1919 0.960 . S
H1904 C1888 0.931 . S
H1905 C1893 0.929 . S
H1906 C1894 0.960 . S
H1907 C1894 0.962 . S
H1908 C1894 0.960 . S
H1909 C1895 0.961 . S
H1910 C1895 0.961 . S
H1911 C1895 0.961 . S
H1912 C1896 0.931 . S
H1913 C1901 0.930 . S
H1914 C1902 0.956 . S
H1915 C1902 0.961 . S
H1916 C1902 0.961 . S
H1917 C1903 0.958 . S
H1918 C1903 0.961 . S
H1919 C1903 0.960 . S
C1920 C1921 1.391 . S
C1920 C1922 1.394 1_455 S
C1920 H1936 0.931 . S
C1921 C1920 1.391 . S
C1921 C1925 1.376 . S
C1922 C1920 1.394 1_655 S
C1922 C1923 1.369 1_655 S
C1922 C1926 1.531 . S
C1923 C1922 1.369 1_455 S
C1923 C1924 1.410 . S
C1923 C1931 1.503 1_455 S
C1924 C1923 1.410 . S
C1924 C1925 1.392 . S
C1924 C1927 1.511 . S
C1925 C1921 1.376 . S
C1925 C1924 1.392 . S
C1925 H1937 0.929 . S
C1926 C1922 1.531 . S
C1926 H1938 0.960 . S
C1926 H1939 0.962 . S
C1926 H1940 0.960 . S
C1927 C1924 1.511 . S
C1927 H1941 0.961 . S
C1927 H1942 0.961 . S
C1927 H1943 0.961 . S
C1928 C1929 1.370 . S
C1928 C1930 1.363 . S
C1928 H1944 0.931 . S
C1929 C1928 1.370 . S
C1929 C1933 1.408 . S
C1930 C1928 1.363 . S
C1930 C1931 1.370 . S
C1930 C1934 1.524 . S
C1931 C1923 1.503 1_655 S
C1931 C1930 1.370 . S
C1931 C1932 1.403 . S
C1932 C1931 1.403 . S
C1932 C1933 1.404 . S
C1932 C1935 1.539 . S
C1933 C1929 1.408 . S
C1933 C1932 1.404 . S
C1933 H1945 0.930 . S
C1934 C1930 1.524 . S
C1934 H1946 0.956 . S
C1934 H1947 0.961 1_655 S
C1934 H1948 0.961 . S
C1935 C1932 1.539 . S
C1935 H1949 0.958 . S
C1935 H1950 0.961 . S
C1935 H1951 0.960 1_655 S
H1936 C1920 0.931 . S
H1937 C1925 0.929 . S
H1938 C1926 0.960 . S
H1939 C1926 0.962 . S
H1940 C1926 0.960 . S
H1941 C1927 0.961 . S
H1942 C1927 0.961 . S
H1943 C1927 0.961 . S
H1944 C1928 0.931 . S
H1945 C1933 0.930 . S
H1946 C1934 0.956 . S
H1947 C1934 0.961 1_455 S
H1948 C1934 0.961 . S
H1949 C1935 0.958 . S
H1950 C1935 0.961 . S
H1951 C1935 0.960 1_455 S
C1952 C1953 1.391 . S
C1952 C1954 1.394 . S
C1952 H1968 0.931 . S
C1953 C1952 1.391 . S
C1953 C1957 1.376 . S
C1954 C1952 1.394 . S
C1954 C1955 1.369 . S
C1954 C1958 1.531 . S
C1955 C1954 1.369 . S
C1955 C1956 1.410 . S
C1955 C1963 1.503 1_455 S
C1956 C1955 1.410 . S
C1956 C1957 1.392 . S
C1956 C1959 1.511 . S
C1957 C1953 1.376 . S
C1957 C1956 1.392 . S
C1957 H1969 0.929 . S
C1958 C1954 1.531 . S
C1958 H1970 0.960 . S
C1958 H1971 0.962 . S
C1958 H1972 0.960 . S
C1959 C1956 1.511 . S
C1959 H1973 0.961 . S
C1959 H1974 0.961 1_455 S
C1959 H1975 0.961 . S
C1960 C1961 1.370 . S
C1960 C1962 1.363 . S
C1960 H1976 0.931 . S
C1961 C1960 1.370 . S
C1961 C1965 1.408 . S
C1962 C1960 1.363 . S
C1962 C1963 1.370 . S
C1962 C1966 1.524 . S
C1963 C1955 1.503 1_655 S
C1963 C1962 1.370 . S
C1963 C1964 1.403 . S
C1964 C1963 1.403 . S
C1964 C1965 1.404 . S
C1964 C1967 1.539 1_655 S
C1965 C1961 1.408 . S
C1965 C1964 1.404 . S
C1965 H1977 0.930 . S
C1966 C1962 1.524 . S
C1966 H1978 0.956 . S
C1966 H1979 0.961 . S
C1966 H1980 0.961 . S
C1967 C1964 1.539 1_455 S
C1967 H1981 0.958 . S
C1967 H1982 0.961 . S
C1967 H1983 0.960 . S
H1968 C1952 0.931 . S
H1969 C1957 0.929 . S
H1970 C1958 0.960 . S
H1971 C1958 0.962 . S
H1972 C1958 0.960 . S
H1973 C1959 0.961 . S
H1974 C1959 0.961 1_655 S
H1975 C1959 0.961 . S
H1976 C1960 0.931 . S
H1977 C1965 0.930 . S
H1978 C1966 0.956 . S
H1979 C1966 0.961 . S
H1980 C1966 0.961 . S
H1981 C1967 0.958 . S
H1982 C1967 0.961 . S
H1983 C1967 0.960 . S
C1984 C1985 1.391 . S
C1984 C1986 1.394 . S
C1984 H2000 0.931 . S
C1985 C1984 1.391 . S
C1985 C1989 1.376 . S
C1986 C1984 1.394 . S
C1986 C1987 1.369 . S
C1986 C1990 1.531 . S
C1987 C1986 1.369 . S
C1987 C1988 1.410 . S
C1987 C1995 1.503 1_655 S
C1988 C1987 1.410 . S
C1988 C1989 1.392 . S
C1988 C1991 1.511 . S
C1989 C1985 1.376 . S
C1989 C1988 1.392 . S
C1989 H2001 0.929 . S
C1990 C1986 1.531 . S
C1990 H2002 0.960 . S
C1990 H2003 0.962 . S
C1990 H2004 0.960 . S
C1991 C1988 1.511 . S
C1991 H2005 0.961 . S
C1991 H2006 0.961 1_655 S
C1991 H2007 0.961 . S
C1992 C1993 1.370 . S
C1992 C1994 1.363 . S
C1992 H2008 0.931 . S
C1993 C1992 1.370 . S
C1993 C1997 1.408 . S
C1994 C1992 1.363 . S
C1994 C1995 1.370 . S
C1994 C1998 1.524 . S
C1995 C1987 1.503 1_455 S
C1995 C1994 1.370 . S
C1995 C1996 1.403 1_455 S
C1996 C1995 1.403 1_655 S
C1996 C1997 1.404 1_655 S
C1996 C1999 1.539 . S
C1997 C1993 1.408 . S
C1997 C1996 1.404 1_455 S
C1997 H2009 0.930 . S
C1998 C1994 1.524 . S
C1998 H2010 0.956 . S
C1998 H2011 0.961 . S
C1998 H2012 0.961 . S
C1999 C1996 1.539 . S
C1999 H2013 0.958 . S
C1999 H2014 0.961 . S
C1999 H2015 0.960 . S
H2000 C1984 0.931 . S
H2001 C1989 0.929 . S
H2002 C1990 0.960 . S
H2003 C1990 0.962 . S
H2004 C1990 0.960 . S
H2005 C1991 0.961 . S
H2006 C1991 0.961 1_455 S
H2007 C1991 0.961 . S
H2008 C1992 0.931 . S
H2009 C1997 0.930 . S
H2010 C1998 0.956 . S
H2011 C1998 0.961 . S
H2012 C1998 0.961 . S
H2013 C1999 0.958 . S
H2014 C1999 0.961 . S
H2015 C1999 0.960 . S
C2016 C2017 1.391 . S
C2016 C2018 1.394 . S
C2016 H2032 0.931 . S
C2017 C2016 1.391 . S
C2017 C2021 1.376 . S
C2018 C2016 1.394 . S
C2018 C2019 1.369 . S
C2018 C2022 1.531 . S
C2019 C2018 1.369 . S
C2019 C2020 1.410 . S
C2019 C2027 1.503 . S
C2020 C2019 1.410 . S
C2020 C2021 1.392 . S
C2020 C2023 1.511 . S
C2021 C2017 1.376 . S
C2021 C2020 1.392 . S
C2021 H2033 0.929 . S
C2022 C2018 1.531 . S
C2022 H2034 0.960 . S
C2022 H2035 0.962 . S
C2022 H2036 0.960 . S
C2023 C2020 1.511 . S
C2023 H2037 0.961 . S
C2023 H2038 0.961 . S
C2023 H2039 0.961 . S
C2024 C2025 1.370 . S
C2024 C2026 1.363 . S
C2024 H2040 0.931 . S
C2025 C2024 1.370 . S
C2025 C2029 1.408 . S
C2026 C2024 1.363 . S
C2026 C2027 1.370 . S
C2026 C2030 1.524 . S
C2027 C2019 1.503 . S
C2027 C2026 1.370 . S
C2027 C2028 1.403 . S
C2028 C2027 1.403 . S
C2028 C2029 1.404 . S
C2028 C2031 1.539 . S
C2029 C2025 1.408 . S
C2029 C2028 1.404 . S
C2029 H2041 0.930 . S
C2030 C2026 1.524 . S
C2030 H2042 0.956 . S
C2030 H2043 0.961 . S
C2030 H2044 0.961 . S
C2031 C2028 1.539 . S
C2031 H2045 0.958 . S
C2031 H2046 0.961 . S
C2031 H2047 0.960 . S
H2032 C2016 0.931 . S
H2033 C2021 0.929 . S
H2034 C2022 0.960 . S
H2035 C2022 0.962 . S
H2036 C2022 0.960 . S
H2037 C2023 0.961 . S
H2038 C2023 0.961 . S
H2039 C2023 0.961 . S
H2040 C2024 0.931 . S
H2041 C2029 0.930 . S
H2042 C2030 0.956 . S
H2043 C2030 0.961 . S
H2044 C2030 0.961 . S
H2045 C2031 0.958 . S
H2046 C2031 0.961 . S
H2047 C2031 0.960 . S
C2048 C2049 1.391 . S
C2048 C2050 1.394 . S
C2048 H2064 0.931 . S
C2049 C2048 1.391 . S
C2049 C2053 1.376 . S
C2050 C2048 1.394 . S
C2050 C2051 1.369 . S
C2050 C2054 1.531 . S
C2051 C2050 1.369 . S
C2051 C2052 1.410 . S
C2051 C2059 1.503 . S
C2052 C2051 1.410 . S
C2052 C2053 1.392 . S
C2052 C2055 1.511 . S
C2053 C2049 1.376 . S
C2053 C2052 1.392 . S
C2053 H2065 0.929 . S
C2054 C2050 1.531 . S
C2054 H2066 0.960 . S
C2054 H2067 0.962 . S
C2054 H2068 0.960 . S
C2055 C2052 1.511 . S
C2055 H2069 0.961 . S
C2055 H2070 0.961 . S
C2055 H2071 0.961 . S
C2056 C2057 1.370 . S
C2056 C2058 1.363 . S
C2056 H2072 0.931 . S
C2057 C2056 1.370 . S
C2057 C2061 1.408 . S
C2058 C2056 1.363 . S
C2058 C2059 1.370 . S
C2058 C2062 1.524 . S
C2059 C2051 1.503 . S
C2059 C2058 1.370 . S
C2059 C2060 1.403 . S
C2060 C2059 1.403 . S
C2060 C2061 1.404 . S
C2060 C2063 1.539 . S
C2061 C2057 1.408 . S
C2061 C2060 1.404 . S
C2061 H2073 0.930 . S
C2062 C2058 1.524 . S
C2062 H2074 0.956 . S
C2062 H2075 0.961 . S
C2062 H2076 0.961 . S
C2063 C2060 1.539 . S
C2063 H2077 0.958 . S
C2063 H2078 0.961 . S
C2063 H2079 0.960 . S
H2064 C2048 0.931 . S
H2065 C2053 0.929 . S
H2066 C2054 0.960 . S
H2067 C2054 0.962 . S
H2068 C2054 0.960 . S
H2069 C2055 0.961 . S
H2070 C2055 0.961 . S
H2071 C2055 0.961 . S
H2072 C2056 0.931 . S
H2073 C2061 0.930 . S
H2074 C2062 0.956 . S
H2075 C2062 0.961 . S
H2076 C2062 0.961 . S
H2077 C2063 0.958 . S
H2078 C2063 0.961 . S
H2079 C2063 0.960 . S
C2080 C2081 1.391 . S
C2080 C2082 1.394 . S
C2080 H2096 0.931 . S
C2081 C2080 1.391 . S
C2081 C2085 1.376 . S
C2082 C2080 1.394 . S
C2082 C2083 1.369 . S
C2082 C2086 1.531 . S
C2083 C2082 1.369 . S
C2083 C2084 1.410 . S
C2083 C2091 1.503 1_455 S
C2084 C2083 1.410 . S
C2084 C2085 1.392 . S
C2084 C2087 1.511 1_455 S
C2085 C2081 1.376 . S
C2085 C2084 1.392 . S
C2085 H2097 0.929 . S
C2086 C2082 1.531 . S
C2086 H2098 0.932 1_455 S
C2086 H2099 0.962 . S
C2086 H2100 0.960 . S
C2087 C2084 1.511 1_655 S
C2087 H2101 0.961 1_655 S
C2087 H2102 0.961 . S
C2087 H2103 0.961 . S
C2088 C2089 1.370 . S
C2088 C2090 1.363 . S
C2088 H2104 0.931 . S
C2089 C2088 1.370 . S
C2089 C2093 1.408 . S
C2090 C2088 1.363 . S
C2090 C2091 1.370 . S
C2090 C2094 1.524 1_655 S
C2091 C2083 1.503 1_655 S
C2091 C2090 1.370 . S
C2091 C2092 1.403 . S
C2092 C2091 1.403 . S
C2092 C2093 1.404 . S
C2092 C2095 1.539 . S
C2093 C2089 1.408 . S
C2093 C2092 1.404 . S
C2093 H2105 0.930 . S
C2094 C2090 1.524 1_455 S
C2094 H2106 0.956 . S
C2094 H2107 0.961 . S
C2094 H2108 0.961 . S
C2095 C2092 1.539 . S
C2095 H2109 0.958 . S
C2095 H2110 0.961 . S
C2095 H2111 0.960 . S
H2096 C2080 0.931 . S
H2097 C2085 0.929 . S
H2098 C2086 0.932 1_655 S
H2099 C2086 0.962 . S
H2100 C2086 0.960 . S
H2101 C2087 0.961 1_455 S
H2102 C2087 0.961 . S
H2103 C2087 0.961 . S
H2104 C2088 0.931 . S
H2105 C2093 0.930 . S
H2106 C2094 0.956 . S
H2107 C2094 0.961 . S
H2108 C2094 0.961 . S
H2109 C2095 0.958 . S
H2110 C2095 0.961 . S
H2111 C2095 0.960 . S
C2112 C2113 1.391 . S
C2112 C2114 1.394 . S
C2112 H2128 0.931 . S
C2113 C2112 1.391 . S
C2113 C2117 1.376 . S
C2114 C2112 1.394 . S
C2114 C2115 1.369 . S
C2114 C2118 1.531 . S
C2115 C2114 1.369 . S
C2115 C2116 1.410 . S
C2115 C2123 1.503 . S
C2116 C2115 1.410 . S
C2116 C2117 1.392 . S
C2116 C2119 1.511 . S
C2117 C2113 1.376 . S
C2117 C2116 1.392 . S
C2117 H2129 0.929 . S
C2118 C2114 1.531 . S
C2118 H2130 0.960 . S
C2118 H2131 0.962 . S
C2118 H2132 0.960 . S
C2119 C2116 1.511 . S
C2119 H2133 0.961 . S
C2119 H2134 0.961 . S
C2119 H2135 0.961 . S
C2120 C2121 1.370 . S
C2120 C2122 1.363 . S
C2120 H2136 0.931 . S
C2121 C2120 1.370 . S
C2121 C2125 1.408 . S
C2122 C2120 1.363 . S
C2122 C2123 1.370 . S
C2122 C2126 1.524 . S
C2123 C2115 1.503 . S
C2123 C2122 1.370 . S
C2123 C2124 1.403 . S
C2124 C2123 1.403 . S
C2124 C2125 1.404 . S
C2124 C2127 1.539 . S
C2125 C2121 1.408 . S
C2125 C2124 1.404 . S
C2125 H2137 0.930 . S
C2126 C2122 1.524 . S
C2126 H2138 0.956 . S
C2126 H2139 0.961 . S
C2126 H2140 0.961 . S
C2127 C2124 1.539 . S
C2127 H2141 0.958 . S
C2127 H2142 0.961 . S
C2127 H2143 0.960 . S
H2128 C2112 0.931 . S
H2129 C2117 0.929 . S
H2130 C2118 0.960 . S
H2131 C2118 0.962 . S
H2132 C2118 0.960 . S
H2133 C2119 0.961 . S
H2134 C2119 0.961 . S
H2135 C2119 0.961 . S
H2136 C2120 0.931 . S
H2137 C2125 0.930 . S
H2138 C2126 0.956 . S
H2139 C2126 0.961 . S
H2140 C2126 0.961 . S
H2141 C2127 0.958 . S
H2142 C2127 0.961 . S
H2143 C2127 0.960 . S
C2144 C2145 1.391 . S
C2144 C2146 1.394 . S
C2144 H2160 0.931 . S
C2145 C2144 1.391 . S
C2145 C2149 1.376 . S
C2146 C2144 1.394 . S
C2146 C2147 1.369 . S
C2146 C2150 1.531 . S
C2147 C2146 1.369 . S
C2147 C2148 1.410 . S
C2147 C2155 1.503 . S
C2148 C2147 1.410 . S
C2148 C2149 1.392 . S
C2148 C2151 1.511 . S
C2149 C2145 1.376 . S
C2149 C2148 1.392 . S
C2149 H2161 0.929 . S
C2150 C2146 1.531 . S
C2150 H2162 0.960 . S
C2150 H2163 0.962 . S
C2150 H2164 0.960 . S
C2151 C2148 1.511 . S
C2151 H2165 0.961 . S
C2151 H2166 0.961 . S
C2151 H2167 0.961 . S
C2152 C2153 1.370 . S
C2152 C2154 1.363 . S
C2152 H2168 0.931 . S
C2153 C2152 1.370 . S
C2153 C2157 1.408 . S
C2154 C2152 1.363 . S
C2154 C2155 1.370 . S
C2154 C2158 1.524 . S
C2155 C2147 1.503 . S
C2155 C2154 1.370 . S
C2155 C2156 1.403 . S
C2156 C2155 1.403 . S
C2156 C2157 1.404 . S
C2156 C2159 1.539 . S
C2157 C2153 1.408 . S
C2157 C2156 1.404 . S
C2157 H2169 0.930 . S
C2158 C2154 1.524 . S
C2158 H2170 0.956 . S
C2158 H2171 0.961 . S
C2158 H2172 0.961 . S
C2159 C2156 1.539 . S
C2159 H2173 0.958 . S
C2159 H2174 0.961 . S
C2159 H2175 0.960 . S
H2160 C2144 0.931 . S
H2161 C2149 0.929 . S
H2162 C2150 0.960 . S
H2163 C2150 0.962 . S
H2164 C2150 0.960 . S
H2165 C2151 0.961 . S
H2166 C2151 0.961 . S
H2167 C2151 0.961 . S
H2168 C2152 0.931 . S
H2169 C2157 0.930 . S
H2170 C2158 0.956 . S
H2171 C2158 0.961 . S
H2172 C2158 0.961 . S
H2173 C2159 0.958 . S
H2174 C2159 0.961 . S
H2175 C2159 0.960 . S
C2176 C2177 1.391 . S
C2176 C2178 1.394 . S
C2176 H2192 0.931 . S
C2177 C2176 1.391 . S
C2177 C2181 1.376 . S
C2178 C2176 1.394 . S
C2178 C2179 1.369 . S
C2178 C2182 1.531 . S
C2179 C2178 1.369 . S
C2179 C2180 1.410 . S
C2179 C2187 1.503 1_655 S
C2180 C2179 1.410 . S
C2180 C2181 1.392 . S
C2180 C2183 1.511 1_655 S
C2181 C2177 1.376 . S
C2181 C2180 1.392 . S
C2181 H2193 0.929 . S
C2182 C2178 1.531 . S
C2182 H2194 0.960 . S
C2182 H2195 0.962 . S
C2182 H2196 0.960 . S
C2183 C2180 1.511 1_455 S
C2183 H2197 0.961 . S
C2183 H2198 0.961 . S
C2183 H2199 0.961 . S
C2184 C2185 1.370 . S
C2184 C2186 1.363 . S
C2184 H2200 0.931 . S
C2185 C2184 1.370 . S
C2185 C2189 1.408 . S
C2186 C2184 1.363 . S
C2186 C2187 1.370 . S
C2186 C2190 1.524 1_455 S
C2187 C2179 1.503 1_455 S
C2187 C2186 1.370 . S
C2187 C2188 1.403 . S
C2188 C2187 1.403 . S
C2188 C2189 1.404 . S
C2188 C2191 1.539 . S
C2189 C2185 1.408 . S
C2189 C2188 1.404 . S
C2189 H2201 0.930 . S
C2190 C2186 1.524 1_655 S
C2190 H2202 0.956 . S
C2190 H2203 0.961 . S
C2190 H2204 0.961 . S
C2191 C2188 1.539 . S
C2191 H2205 0.958 . S
C2191 H2206 0.961 . S
C2191 H2207 0.960 . S
H2192 C2176 0.931 . S
H2193 C2181 0.929 . S
H2194 C2182 0.960 . S
H2195 C2182 0.962 . S
H2196 C2182 0.960 . S
H2197 C2183 0.961 . S
H2198 C2183 0.961 . S
H2199 C2183 0.961 . S
H2200 C2184 0.931 . S
H2201 C2189 0.930 . S
H2202 C2190 0.956 . S
H2203 C2190 0.961 . S
H2204 C2190 0.961 . S
H2205 C2191 0.958 . S
H2206 C2191 0.961 . S
H2207 C2191 0.960 . S
C2208 C2209 1.391 . S
C2208 C2210 1.394 . S
C2208 H2224 0.931 . S
C2209 C2208 1.391 . S
C2209 C2213 1.376 . S
C2210 C2208 1.394 . S
C2210 C2211 1.369 . S
C2210 C2214 1.531 . S
C2211 C2210 1.369 . S
C2211 C2212 1.410 . S
C2211 C2219 1.503 . S
C2212 C2211 1.410 . S
C2212 C2213 1.392 . S
C2212 C2215 1.511 . S
C2213 C2209 1.376 . S
C2213 C2212 1.392 . S
C2213 H2225 0.929 . S
C2214 C2210 1.531 . S
C2214 H2226 0.960 . S
C2214 H2227 0.962 . S
C2214 H2228 0.960 . S
C2215 C2212 1.511 . S
C2215 H2229 0.961 . S
C2215 H2230 0.961 . S
C2215 H2231 0.961 . S
C2216 C2217 1.370 . S
C2216 C2218 1.363 . S
C2216 H2232 0.931 . S
C2217 C2216 1.370 . S
C2217 C2221 1.408 . S
C2218 C2216 1.363 . S
C2218 C2219 1.370 . S
C2218 C2222 1.524 . S
C2219 C2211 1.503 . S
C2219 C2218 1.370 . S
C2219 C2220 1.403 . S
C2220 C2219 1.403 . S
C2220 C2221 1.404 . S
C2220 C2223 1.539 . S
C2221 C2217 1.408 . S
C2221 C2220 1.404 . S
C2221 H2233 0.930 . S
C2222 C2218 1.524 . S
C2222 H2234 0.956 . S
C2222 H2235 0.961 . S
C2222 H2236 0.961 . S
C2223 C2220 1.539 . S
C2223 H2237 0.958 . S
C2223 H2238 0.961 . S
C2223 H2239 0.960 . S
H2224 C2208 0.931 . S
H2225 C2213 0.929 . S
H2226 C2214 0.960 . S
H2227 C2214 0.962 . S
H2228 C2214 0.960 . S
H2229 C2215 0.961 . S
H2230 C2215 0.961 . S
H2231 C2215 0.961 . S
H2232 C2216 0.931 . S
H2233 C2221 0.930 . S
H2234 C2222 0.956 . S
H2235 C2222 0.961 . S
H2236 C2222 0.961 . S
H2237 C2223 0.958 . S
H2238 C2223 0.961 . S
H2239 C2223 0.960 . S
C2240 C2241 1.391 . S
C2240 C2242 1.394 . S
C2240 H2256 0.931 . S
C2241 C2240 1.391 . S
C2241 C2245 1.376 . S
C2242 C2240 1.394 . S
C2242 C2243 1.369 . S
C2242 C2246 1.531 1_655 S
C2243 C2242 1.369 . S
C2243 C2244 1.410 1_545 S
C2243 C2251 1.503 1_645 S
C2244 C2243 1.410 1_565 S
C2244 C2245 1.392 1_565 S
C2244 C2247 1.511 . S
C2245 C2241 1.376 . S
C2245 C2244 1.392 1_545 S
C2245 H2257 0.929 1_545 S
C2246 C2242 1.531 1_455 S
C2246 H2258 0.960 . S
C2246 H2259 0.962 . S
C2246 H2260 0.960 . S
C2247 C2244 1.511 . S
C2247 H2261 0.961 . S
C2247 H2262 0.961 . S
C2247 H2263 0.961 . S
C2248 C2249 1.370 . S
C2248 C2250 1.363 . S
C2248 H2264 0.931 . S
C2249 C2248 1.370 . S
C2249 C2253 1.408 . S
C2250 C2248 1.363 . S
C2250 C2251 1.370 . S
C2250 C2254 1.524 . S
C2251 C2243 1.503 1_465 S
C2251 C2250 1.370 . S
C2251 C2252 1.403 1_565 S
C2252 C2251 1.403 1_545 S
C2252 C2253 1.404 1_545 S
C2252 C2255 1.539 1_455 S
C2253 C2249 1.408 . S
C2253 C2252 1.404 1_565 S
C2253 H2265 0.930 . S
C2254 C2250 1.524 . S
C2254 H2266 0.956 . S
C2254 H2267 0.961 . S
C2254 H2268 0.961 . S
C2255 C2252 1.539 1_655 S
C2255 H2269 0.958 . S
C2255 H2270 0.961 . S
C2255 H2271 0.960 . S
H2256 C2240 0.931 . S
H2257 C2245 0.929 1_565 S
H2258 C2246 0.960 . S
H2259 C2246 0.962 . S
H2260 C2246 0.960 . S
H2261 C2247 0.961 . S
H2262 C2247 0.961 . S
H2263 C2247 0.961 . S
H2264 C2248 0.931 . S
H2265 C2253 0.930 . S
H2266 C2254 0.956 . S
H2267 C2254 0.961 . S
H2268 C2254 0.961 . S
H2269 C2255 0.958 . S
H2270 C2255 0.961 . S
H2271 C2255 0.960 . S
C2272 C2273 1.391 . S
C2272 C2274 1.394 . S
C2272 H2288 0.931 . S
C2273 C2272 1.391 . S
C2273 C2277 1.376 . S
C2274 C2272 1.394 . S
C2274 C2275 1.369 . S
C2274 C2278 1.531 . S
C2275 C2274 1.369 . S
C2275 C2276 1.410 . S
C2275 C2283 1.503 . S
C2276 C2275 1.410 . S
C2276 C2277 1.392 . S
C2276 C2279 1.511 . S
C2277 C2273 1.376 . S
C2277 C2276 1.392 . S
C2277 H2289 0.929 . S
C2278 C2274 1.531 . S
C2278 H2290 0.960 . S
C2278 H2291 0.962 . S
C2278 H2292 0.960 . S
C2279 C2276 1.511 . S
C2279 H2293 0.961 . S
C2279 H2294 0.961 . S
C2279 H2295 0.961 . S
C2280 C2281 1.370 . S
C2280 C2282 1.363 . S
C2280 H2296 0.931 . S
C2281 C2280 1.370 . S
C2281 C2285 1.408 . S
C2282 C2280 1.363 . S
C2282 C2283 1.370 . S
C2282 C2286 1.524 . S
C2283 C2275 1.503 . S
C2283 C2282 1.370 . S
C2283 C2284 1.403 . S
C2284 C2283 1.403 . S
C2284 C2285 1.404 . S
C2284 C2287 1.539 . S
C2285 C2281 1.408 . S
C2285 C2284 1.404 . S
C2285 H2297 0.930 . S
C2286 C2282 1.524 . S
C2286 H2298 0.956 . S
C2286 H2299 0.961 . S
C2286 H2300 0.961 . S
C2287 C2284 1.539 . S
C2287 H2301 0.958 . S
C2287 H2302 0.961 . S
C2287 H2303 0.960 . S
H2288 C2272 0.931 . S
H2289 C2277 0.929 . S
H2290 C2278 0.960 . S
H2291 C2278 0.962 . S
H2292 C2278 0.960 . S
H2293 C2279 0.961 . S
H2294 C2279 0.961 . S
H2295 C2279 0.961 . S
H2296 C2280 0.931 . S
H2297 C2285 0.930 . S
H2298 C2286 0.956 . S
H2299 C2286 0.961 . S
H2300 C2286 0.961 . S
H2301 C2287 0.958 . S
H2302 C2287 0.961 . S
H2303 C2287 0.960 . S
C2304 C2305 1.391 . S
C2304 C2306 1.394 1_545 S
C2304 H2320 0.931 1_545 S
C2305 C2304 1.391 . S
C2305 C2309 1.376 . S
C2306 C2304 1.394 1_565 S
C2306 C2307 1.369 1_565 S
C2306 C2310 1.531 . S
C2307 C2306 1.369 1_545 S
C2307 C2308 1.410 . S
C2307 C2315 1.503 1_544 S
C2308 C2307 1.410 . S
C2308 C2309 1.392 . S
C2308 C2311 1.511 1_554 S
C2309 C2305 1.376 . S
C2309 C2308 1.392 . S
C2309 H2321 0.929 . S
C2310 C2306 1.531 . S
C2310 H2322 0.960 . S
C2310 H2323 0.962 . S
C2310 H2324 0.960 . S
C2311 C2308 1.511 1_556 S
C2311 H2325 0.961 . S
C2311 H2326 0.961 . S
C2311 H2327 0.961 . S
C2312 C2313 1.370 . S
C2312 C2314 1.363 . S
C2312 H2328 0.931 . S
C2313 C2312 1.370 . S
C2313 C2317 1.408 . S
C2314 C2312 1.363 . S
C2314 C2315 1.370 . S
C2314 C2318 1.524 1_566 S
C2315 C2307 1.503 1_566 S
C2315 C2314 1.370 . S
C2315 C2316 1.403 . S
C2316 C2315 1.403 . S
C2316 C2317 1.404 . S
C2316 C2319 1.539 . S
C2317 C2313 1.408 . S
C2317 C2316 1.404 . S
C2317 H2329 0.930 . S
C2318 C2314 1.524 1_544 S
C2318 H2330 0.956 . S
C2318 H2331 0.961 . S
C2318 H2332 0.961 . S
C2319 C2316 1.539 . S
C2319 H2333 0.958 . S
C2319 H2334 0.961 . S
C2319 H2335 0.960 . S
H2320 C2304 0.931 1_565 S
H2321 C2309 0.929 . S
H2322 C2310 0.960 . S
H2323 C2310 0.962 . S
H2324 C2310 0.960 . S
H2325 C2311 0.961 . S
H2326 C2311 0.961 . S
H2327 C2311 0.961 . S
H2328 C2312 0.931 . S
H2329 C2317 0.930 . S
H2330 C2318 0.956 . S
H2331 C2318 0.961 . S
H2332 C2318 0.961 . S
H2333 C2319 0.958 . S
H2334 C2319 0.961 . S
H2335 C2319 0.960 . S
C2336 C2337 1.391 . S
C2336 C2338 1.394 . S
C2336 H2352 0.931 . S
C2337 C2336 1.391 . S
C2337 C2341 1.376 . S
C2338 C2336 1.394 . S
C2338 C2339 1.369 . S
C2338 C2342 1.531 . S
C2339 C2338 1.369 . S
C2339 C2340 1.410 . S
C2339 C2347 1.503 . S
C2340 C2339 1.410 . S
C2340 C2341 1.392 . S
C2340 C2343 1.511 . S
C2341 C2337 1.376 . S
C2341 C2340 1.392 . S
C2341 H2353 0.929 . S
C2342 C2338 1.531 . S
C2342 H2354 0.960 . S
C2342 H2355 0.962 . S
C2342 H2356 0.960 . S
C2343 C2340 1.511 . S
C2343 H2357 0.961 . S
C2343 H2358 0.961 . S
C2343 H2359 0.961 . S
C2344 C2345 1.370 . S
C2344 C2346 1.363 . S
C2344 H2360 0.931 . S
C2345 C2344 1.370 . S
C2345 C2349 1.408 . S
C2346 C2344 1.363 . S
C2346 C2347 1.370 . S
C2346 C2350 1.524 . S
C2347 C2339 1.503 . S
C2347 C2346 1.370 . S
C2347 C2348 1.403 . S
C2348 C2347 1.403 . S
C2348 C2349 1.404 . S
C2348 C2351 1.539 . S
C2349 C2345 1.408 . S
C2349 C2348 1.404 . S
C2349 H2361 0.930 . S
C2350 C2346 1.524 . S
C2350 H2362 0.956 . S
C2350 H2363 0.961 . S
C2350 H2364 0.961 . S
C2351 C2348 1.539 . S
C2351 H2365 0.958 . S
C2351 H2366 0.961 . S
C2351 H2367 0.960 . S
H2352 C2336 0.931 . S
H2353 C2341 0.929 . S
H2354 C2342 0.960 . S
H2355 C2342 0.962 . S
H2356 C2342 0.960 . S
H2357 C2343 0.961 . S
H2358 C2343 0.961 . S
H2359 C2343 0.961 . S
H2360 C2344 0.931 . S
H2361 C2349 0.930 . S
H2362 C2350 0.956 . S
H2363 C2350 0.961 . S
H2364 C2350 0.961 . S
H2365 C2351 0.958 . S
H2366 C2351 0.961 . S
H2367 C2351 0.960 . S
C2368 C2369 1.391 . S
C2368 C2370 1.394 . S
C2368 H2384 0.931 . S
C2369 C2368 1.391 . S
C2369 C2373 1.376 . S
C2370 C2368 1.394 . S
C2370 C2371 1.369 . S
C2370 C2374 1.531 1_545 S
C2371 C2370 1.369 . S
C2371 C2372 1.410 . S
C2371 C2379 1.503 1_545 S
C2372 C2371 1.410 . S
C2372 C2373 1.392 . S
C2372 C2375 1.511 . S
C2373 C2369 1.376 . S
C2373 C2372 1.392 . S
C2373 H2385 0.929 . S
C2374 C2370 1.531 1_565 S
C2374 H2386 0.960 . S
C2374 H2387 0.962 . S
C2374 H2388 0.960 . S
C2375 C2372 1.511 . S
C2375 H2389 0.961 . S
C2375 H2390 0.961 . S
C2375 H2391 0.961 . S
C2376 C2377 1.370 . S
C2376 C2378 1.363 . S
C2376 H2392 0.931 . S
C2377 C2376 1.370 . S
C2377 C2381 1.408 . S
C2378 C2376 1.363 . S
C2378 C2379 1.370 . S
C2378 C2382 1.524 . S
C2379 C2371 1.503 1_565 S
C2379 C2378 1.370 . S
C2379 C2380 1.403 1_565 S
C2380 C2379 1.403 1_545 S
C2380 C2381 1.404 1_545 S
C2380 C2383 1.539 . S
C2381 C2377 1.408 . S
C2381 C2380 1.404 1_565 S
C2381 H2393 0.930 1_565 S
C2382 C2378 1.524 . S
C2382 H2394 0.956 . S
C2382 H2395 0.961 . S
C2382 H2396 0.961 . S
C2383 C2380 1.539 . S
C2383 H2397 0.958 . S
C2383 H2398 0.961 . S
C2383 H2399 0.960 . S
H2384 C2368 0.931 . S
H2385 C2373 0.929 . S
H2386 C2374 0.960 . S
H2387 C2374 0.962 . S
H2388 C2374 0.960 . S
H2389 C2375 0.961 . S
H2390 C2375 0.961 . S
H2391 C2375 0.961 . S
H2392 C2376 0.931 . S
H2393 C2381 0.930 1_545 S
H2394 C2382 0.956 . S
H2395 C2382 0.961 . S
H2396 C2382 0.961 . S
H2397 C2383 0.958 . S
H2398 C2383 0.961 . S
H2399 C2383 0.960 . S
C2400 C2401 1.391 . S
C2400 C2402 1.394 . S
C2400 H2416 0.931 . S
C2401 C2400 1.391 . S
C2401 C2405 1.376 . S
C2402 C2400 1.394 . S
C2402 C2403 1.369 . S
C2402 C2406 1.531 . S
C2403 C2402 1.369 . S
C2403 C2404 1.410 . S
C2403 C2411 1.503 . S
C2404 C2403 1.410 . S
C2404 C2405 1.392 . S
C2404 C2407 1.511 . S
C2405 C2401 1.376 . S
C2405 C2404 1.392 . S
C2405 H2417 0.929 . S
C2406 C2402 1.531 . S
C2406 H2418 0.960 . S
C2406 H2419 0.962 . S
C2406 H2420 0.960 . S
C2407 C2404 1.511 . S
C2407 H2421 0.961 . S
C2407 H2422 0.961 . S
C2407 H2423 0.961 . S
C2408 C2409 1.370 . S
C2408 C2410 1.363 . S
C2408 H2424 0.931 . S
C2409 C2408 1.370 . S
C2409 C2413 1.408 . S
C2410 C2408 1.363 . S
C2410 C2411 1.370 . S
C2410 C2414 1.524 . S
C2411 C2403 1.503 . S
C2411 C2410 1.370 . S
C2411 C2412 1.403 . S
C2412 C2411 1.403 . S
C2412 C2413 1.404 . S
C2412 C2415 1.539 . S
C2413 C2409 1.408 . S
C2413 C2412 1.404 . S
C2413 H2425 0.930 . S
C2414 C2410 1.524 . S
C2414 H2426 0.956 . S
C2414 H2427 0.961 . S
C2414 H2428 0.961 . S
C2415 C2412 1.539 . S
C2415 H2429 0.958 . S
C2415 H2430 0.961 . S
C2415 H2431 0.960 . S
H2416 C2400 0.931 . S
H2417 C2405 0.929 . S
H2418 C2406 0.960 . S
H2419 C2406 0.962 . S
H2420 C2406 0.960 . S
H2421 C2407 0.961 . S
H2422 C2407 0.961 . S
H2423 C2407 0.961 . S
H2424 C2408 0.931 . S
H2425 C2413 0.930 . S
H2426 C2414 0.956 . S
H2427 C2414 0.961 . S
H2428 C2414 0.961 . S
H2429 C2415 0.958 . S
H2430 C2415 0.961 . S
H2431 C2415 0.960 . S
C2432 C2433 1.391 . S
C2432 C2434 1.394 . S
C2432 H2448 0.931 . S
C2433 C2432 1.391 . S
C2433 C2437 1.376 . S
C2434 C2432 1.394 . S
C2434 C2435 1.369 . S
C2434 C2438 1.531 1_556 S
C2435 C2434 1.369 . S
C2435 C2436 1.410 1_545 S
C2435 C2443 1.503 1_446 S
C2436 C2435 1.410 1_565 S
C2436 C2437 1.392 1_565 S
C2436 C2439 1.511 1_455 S
C2437 C2433 1.376 . S
C2437 C2436 1.392 1_545 S
C2437 H2449 0.926 1_545 S
C2438 C2434 1.531 1_554 S
C2438 H2450 0.960 1_455 S
C2438 H2451 0.962 . S
C2438 H2452 0.960 . S
C2439 C2436 1.511 1_655 S
C2439 H2453 0.961 1_655 S
C2439 H2454 0.961 . S
C2439 H2455 0.961 . S
C2440 C2441 1.370 . S
C2440 C2442 1.363 . S
C2440 H2456 0.931 . S
C2441 C2440 1.370 . S
C2441 C2445 1.408 . S
C2442 C2440 1.363 . S
C2442 C2443 1.370 . S
C2442 C2446 1.524 1_655 S
C2443 C2435 1.503 1_664 S
C2443 C2442 1.370 . S
C2443 C2444 1.403 1_565 S
C2444 C2443 1.403 1_545 S
C2444 C2445 1.404 1_545 S
C2444 C2447 1.539 1_554 S
C2445 C2441 1.408 . S
C2445 C2444 1.404 1_565 S
C2445 H2457 0.930 . S
C2446 C2442 1.524 1_455 S
C2446 H2458 0.956 . S
C2446 H2459 0.961 . S
C2446 H2460 0.961 . S
C2447 C2444 1.539 1_556 S
C2447 H2461 0.958 . S
C2447 H2462 0.961 . S
C2447 H2463 0.960 . S
H2448 C2432 0.931 . S
H2449 C2437 0.926 1_565 S
H2450 C2438 0.960 1_655 S
H2451 C2438 0.962 . S
H2452 C2438 0.960 . S
H2453 C2439 0.961 1_455 S
H2454 C2439 0.961 . S
H2455 C2439 0.961 . S
H2456 C2440 0.931 . S
H2457 C2445 0.930 . S
H2458 C2446 0.956 . S
H2459 C2446 0.961 . S
H2460 C2446 0.961 . S
H2461 C2447 0.958 . S
H2462 C2447 0.961 . S
H2463 C2447 0.960 . S
C2464 C2465 1.391 . S
C2464 C2466 1.394 . S
C2464 H2480 0.931 . S
C2465 C2464 1.391 . S
C2465 C2469 1.376 . S
C2466 C2464 1.394 . S
C2466 C2467 1.369 . S
C2466 C2470 1.531 . S
C2467 C2466 1.369 . S
C2467 C2468 1.410 . S
C2467 C2475 1.503 . S
C2468 C2467 1.410 . S
C2468 C2469 1.392 . S
C2468 C2471 1.511 . S
C2469 C2465 1.376 . S
C2469 C2468 1.392 . S
C2469 H2481 0.929 . S
C2470 C2466 1.531 . S
C2470 H2482 0.960 . S
C2470 H2483 0.962 . S
C2470 H2484 0.960 . S
C2471 C2468 1.511 . S
C2471 H2485 0.961 . S
C2471 H2486 0.961 . S
C2471 H2487 0.961 . S
C2472 C2473 1.370 . S
C2472 C2474 1.363 . S
C2472 H2488 0.931 . S
C2473 C2472 1.370 . S
C2473 C2477 1.408 . S
C2474 C2472 1.363 . S
C2474 C2475 1.370 . S
C2474 C2478 1.524 . S
C2475 C2467 1.503 . S
C2475 C2474 1.370 . S
C2475 C2476 1.403 . S
C2476 C2475 1.403 . S
C2476 C2477 1.404 . S
C2476 C2479 1.539 . S
C2477 C2473 1.408 . S
C2477 C2476 1.404 . S
C2477 H2489 0.930 . S
C2478 C2474 1.524 . S
C2478 H2490 0.956 . S
C2478 H2491 0.961 . S
C2478 H2492 0.961 . S
C2479 C2476 1.539 . S
C2479 H2493 0.958 . S
C2479 H2494 0.961 . S
C2479 H2495 0.960 . S
H2480 C2464 0.931 . S
H2481 C2469 0.929 . S
H2482 C2470 0.960 . S
H2483 C2470 0.962 . S
H2484 C2470 0.960 . S
H2485 C2471 0.961 . S
H2486 C2471 0.961 . S
H2487 C2471 0.961 . S
H2488 C2472 0.931 . S
H2489 C2477 0.930 . S
H2490 C2478 0.956 . S
H2491 C2478 0.961 . S
H2492 C2478 0.961 . S
H2493 C2479 0.958 . S
H2494 C2479 0.961 . S
H2495 C2479 0.960 . S
C2496 C2497 1.391 . S
C2496 C2498 1.394 . S
C2496 H2512 0.931 . S
C2497 C2496 1.391 . S
C2497 C2501 1.376 . S
C2498 C2496 1.394 . S
C2498 C2499 1.369 . S
C2498 C2502 1.531 . S
C2499 C2498 1.369 . S
C2499 C2500 1.410 . S
C2499 C2507 1.503 . S
C2500 C2499 1.410 . S
C2500 C2501 1.392 . S
C2500 C2503 1.511 . S
C2501 C2497 1.376 . S
C2501 C2500 1.392 . S
C2501 H2513 0.929 . S
C2502 C2498 1.531 . S
C2502 H2514 0.960 . S
C2502 H2515 0.962 . S
C2502 H2516 0.960 . S
C2503 C2500 1.511 . S
C2503 H2517 0.961 . S
C2503 H2518 0.961 . S
C2503 H2519 0.961 . S
C2504 C2505 1.370 . S
C2504 C2506 1.363 . S
C2504 H2520 0.931 . S
C2505 C2504 1.370 . S
C2505 C2509 1.408 . S
C2506 C2504 1.363 . S
C2506 C2507 1.370 . S
C2506 C2510 1.524 . S
C2507 C2499 1.503 . S
C2507 C2506 1.370 . S
C2507 C2508 1.403 . S
C2508 C2507 1.403 . S
C2508 C2509 1.404 . S
C2508 C2511 1.539 . S
C2509 C2505 1.408 . S
C2509 C2508 1.404 . S
C2509 H2521 0.930 . S
C2510 C2506 1.524 . S
C2510 H2522 0.956 . S
C2510 H2523 0.961 . S
C2510 H2524 0.961 . S
C2511 C2508 1.539 . S
C2511 H2525 0.958 . S
C2511 H2526 0.961 . S
C2511 H2527 0.960 . S
H2512 C2496 0.931 . S
H2513 C2501 0.929 . S
H2514 C2502 0.960 . S
H2515 C2502 0.962 . S
H2516 C2502 0.960 . S
H2517 C2503 0.961 . S
H2518 C2503 0.961 . S
H2519 C2503 0.961 . S
H2520 C2504 0.931 . S
H2521 C2509 0.930 . S
H2522 C2510 0.956 . S
H2523 C2510 0.961 . S
H2524 C2510 0.961 . S
H2525 C2511 0.958 . S
H2526 C2511 0.961 . S
H2527 C2511 0.960 . S
C2528 C2529 1.391 . S
C2528 C2530 1.394 . S
C2528 H2544 0.931 . S
C2529 C2528 1.391 . S
C2529 C2533 1.376 . S
C2530 C2528 1.394 . S
C2530 C2531 1.369 . S
C2530 C2534 1.531 . S
C2531 C2530 1.369 . S
C2531 C2532 1.410 . S
C2531 C2539 1.503 . S
C2532 C2531 1.410 . S
C2532 C2533 1.392 . S
C2532 C2535 1.511 . S
C2533 C2529 1.376 . S
C2533 C2532 1.392 . S
C2533 H2545 0.929 . S
C2534 C2530 1.531 . S
C2534 H2546 0.960 . S
C2534 H2547 0.962 . S
C2534 H2548 0.960 . S
C2535 C2532 1.511 . S
C2535 H2549 0.961 . S
C2535 H2550 0.961 . S
C2535 H2551 0.961 . S
C2536 C2537 1.370 . S
C2536 C2538 1.363 . S
C2536 H2552 0.931 . S
C2537 C2536 1.370 . S
C2537 C2541 1.408 . S
C2538 C2536 1.363 . S
C2538 C2539 1.370 . S
C2538 C2542 1.524 . S
C2539 C2531 1.503 . S
C2539 C2538 1.370 . S
C2539 C2540 1.403 . S
C2540 C2539 1.403 . S
C2540 C2541 1.404 . S
C2540 C2543 1.539 . S
C2541 C2537 1.408 . S
C2541 C2540 1.404 . S
C2541 H2553 0.930 . S
C2542 C2538 1.524 . S
C2542 H2554 0.956 . S
C2542 H2555 0.961 . S
C2542 H2556 0.961 . S
C2543 C2540 1.539 . S
C2543 H2557 0.958 . S
C2543 H2558 0.961 . S
C2543 H2559 0.960 . S
H2544 C2528 0.931 . S
H2545 C2533 0.929 . S
H2546 C2534 0.960 . S
H2547 C2534 0.962 . S
H2548 C2534 0.960 . S
H2549 C2535 0.961 . S
H2550 C2535 0.961 . S
H2551 C2535 0.961 . S
H2552 C2536 0.931 . S
H2553 C2541 0.930 . S
H2554 C2542 0.956 . S
H2555 C2542 0.961 . S
H2556 C2542 0.961 . S
H2557 C2543 0.958 . S
H2558 C2543 0.961 . S
H2559 C2543 0.960 . S
C2560 C2561 1.391 . S
C2560 C2562 1.394 . S
C2560 H2576 0.931 . S
C2561 C2560 1.391 . S
C2561 C2565 1.376 . S
C2562 C2560 1.394 . S
C2562 C2563 1.369 . S
C2562 C2566 1.531 . S
C2563 C2562 1.369 . S
C2563 C2564 1.410 . S
C2563 C2571 1.503 . S
C2564 C2563 1.410 . S
C2564 C2565 1.392 . S
C2564 C2567 1.511 . S
C2565 C2561 1.376 . S
C2565 C2564 1.392 . S
C2565 H2577 0.929 . S
C2566 C2562 1.531 . S
C2566 H2578 0.960 . S
C2566 H2579 0.962 . S
C2566 H2580 0.960 . S
C2567 C2564 1.511 . S
C2567 H2581 0.961 . S
C2567 H2582 0.961 . S
C2567 H2583 0.961 . S
C2568 C2569 1.370 . S
C2568 C2570 1.363 . S
C2568 H2584 0.931 . S
C2569 C2568 1.370 . S
C2569 C2573 1.408 . S
C2570 C2568 1.363 . S
C2570 C2571 1.370 . S
C2570 C2574 1.524 . S
C2571 C2563 1.503 . S
C2571 C2570 1.370 . S
C2571 C2572 1.403 . S
C2572 C2571 1.403 . S
C2572 C2573 1.404 . S
C2572 C2575 1.539 . S
C2573 C2569 1.408 . S
C2573 C2572 1.404 . S
C2573 H2585 0.930 . S
C2574 C2570 1.524 . S
C2574 H2586 0.956 . S
C2574 H2587 0.961 . S
C2574 H2588 0.961 . S
C2575 C2572 1.539 . S
C2575 H2589 0.958 . S
C2575 H2590 0.961 . S
C2575 H2591 0.960 . S
H2576 C2560 0.931 . S
H2577 C2565 0.929 . S
H2578 C2566 0.960 . S
H2579 C2566 0.962 . S
H2580 C2566 0.960 . S
H2581 C2567 0.961 . S
H2582 C2567 0.961 . S
H2583 C2567 0.961 . S
H2584 C2568 0.931 . S
H2585 C2573 0.930 . S
H2586 C2574 0.956 . S
H2587 C2574 0.961 . S
H2588 C2574 0.961 . S
H2589 C2575 0.958 . S
H2590 C2575 0.961 . S
H2591 C2575 0.960 . S
C2592 C2593 1.391 . S
C2592 C2594 1.394 . S
C2592 H2608 0.931 . S
C2593 C2592 1.391 . S
C2593 C2597 1.376 . S
C2594 C2592 1.394 . S
C2594 C2595 1.369 . S
C2594 C2598 1.531 1_554 S
C2595 C2594 1.369 . S
C2595 C2596 1.410 . S
C2595 C2603 1.503 1_554 S
C2596 C2595 1.410 . S
C2596 C2597 1.392 . S
C2596 C2599 1.511 . S
C2597 C2593 1.376 . S
C2597 C2596 1.392 . S
C2597 H2609 0.929 . S
C2598 C2594 1.531 1_556 S
C2598 H2610 0.960 . S
C2598 H2611 0.962 . S
C2598 H2612 0.960 1_556 S
C2599 C2596 1.511 . S
C2599 H2613 0.961 . S
C2599 H2614 0.961 . S
C2599 H2615 0.961 . S
C2600 C2601 1.370 . S
C2600 C2602 1.363 . S
C2600 H2616 0.931 . S
C2601 C2600 1.370 . S
C2601 C2605 1.408 . S
C2602 C2600 1.363 . S
C2602 C2603 1.370 . S
C2602 C2606 1.524 . S
C2603 C2595 1.503 1_556 S
C2603 C2602 1.370 . S
C2603 C2604 1.403 . S
C2604 C2603 1.403 . S
C2604 C2605 1.404 . S
C2604 C2607 1.539 1_556 S
C2605 C2601 1.408 . S
C2605 C2604 1.404 . S
C2605 H2617 0.930 . S
C2606 C2602 1.524 . S
C2606 H2618 0.956 . S
C2606 H2619 0.961 . S
C2606 H2620 0.961 . S
C2607 C2604 1.539 1_554 S
C2607 H2621 0.958 . S
C2607 H2622 0.961 . S
C2607 H2623 0.960 . S
H2608 C2592 0.931 . S
H2609 C2597 0.929 . S
H2610 C2598 0.960 . S
H2611 C2598 0.962 . S
H2612 C2598 0.960 1_554 S
H2613 C2599 0.961 . S
H2614 C2599 0.961 . S
H2615 C2599 0.961 . S
H2616 C2600 0.931 . S
H2617 C2605 0.930 . S
H2618 C2606 0.956 . S
H2619 C2606 0.961 . S
H2620 C2606 0.961 . S
H2621 C2607 0.958 . S
H2622 C2607 0.961 . S
H2623 C2607 0.960 . S
C2624 C2625 1.391 . S
C2624 C2626 1.394 . S
C2624 H2640 0.931 . S
C2625 C2624 1.391 . S
C2625 C2629 1.376 . S
C2626 C2624 1.394 . S
C2626 C2627 1.369 . S
C2626 C2630 1.531 . S
C2627 C2626 1.369 . S
C2627 C2628 1.411 . S
C2627 C2635 1.503 1_655 S
C2628 C2627 1.411 . S
C2628 C2629 1.395 . S
C2628 C2631 1.507 1_655 S
C2629 C2625 1.376 . S
C2629 C2628 1.395 . S
C2629 H2641 0.929 . S
C2630 C2626 1.531 . S
C2630 H2642 0.960 . S
C2630 H2643 0.962 . S
C2630 H2644 0.960 . S
C2631 C2628 1.507 1_455 S
C2631 H2645 0.961 . S
C2631 H2646 0.961 . S
C2631 H2647 0.961 . S
C2632 C2633 1.370 . S
C2632 C2634 1.363 . S
C2632 H2648 0.931 . S
C2633 C2632 1.370 . S
C2633 C2637 1.408 . S
C2634 C2632 1.363 . S
C2634 C2635 1.370 . S
C2634 C2638 1.524 1_455 S
C2635 C2627 1.503 1_455 S
C2635 C2634 1.370 . S
C2635 C2636 1.403 . S
C2636 C2635 1.403 . S
C2636 C2637 1.404 . S
C2636 C2639 1.539 . S
C2637 C2633 1.408 . S
C2637 C2636 1.404 . S
C2637 H2649 0.930 . S
C2638 C2634 1.524 1_655 S
C2638 H2650 0.956 . S
C2638 H2651 0.961 . S
C2638 H2652 0.961 . S
C2639 C2636 1.539 . S
C2639 H2653 0.958 . S
C2639 H2654 0.961 . S
C2639 H2655 0.960 . S
H2640 C2624 0.931 . S
H2641 C2629 0.929 . S
H2642 C2630 0.960 . S
H2643 C2630 0.962 . S
H2644 C2630 0.960 . S
H2645 C2631 0.961 . S
H2646 C2631 0.961 . S
H2647 C2631 0.961 . S
H2648 C2632 0.931 . S
H2649 C2637 0.930 . S
H2650 C2638 0.956 . S
H2651 C2638 0.961 . S
H2652 C2638 0.961 . S
H2653 C2639 0.958 . S
H2654 C2639 0.961 . S
H2655 C2639 0.960 . S
C2656 C2657 1.391 . S
C2656 C2658 1.394 . S
C2656 H2672 0.931 . S
C2657 C2656 1.391 . S
C2657 C2661 1.376 . S
C2658 C2656 1.394 . S
C2658 C2659 1.369 . S
C2658 C2662 1.531 1_455 S
C2659 C2658 1.369 . S
C2659 C2660 1.422 . S
C2659 C2667 1.503 1_454 S
C2660 C2659 1.422 . S
C2660 C2661 1.418 . S
C2660 C2663 1.475 1_554 S
C2661 C2657 1.376 . S
C2661 C2660 1.418 . S
C2661 H2673 0.929 . S
C2662 C2658 1.531 1_655 S
C2662 H2674 0.960 . S
C2662 H2675 0.962 . S
C2662 H2676 0.960 . S
C2663 C2660 1.475 1_556 S
C2663 H2677 0.961 . S
C2663 H2678 0.961 . S
C2663 H2679 0.961 . S
C2664 C2665 1.370 . S
C2664 C2666 1.363 . S
C2664 H2680 0.931 . S
C2665 C2664 1.370 . S
C2665 C2669 1.408 . S
C2666 C2664 1.363 . S
C2666 C2667 1.370 . S
C2666 C2670 1.524 1_655 S
C2667 C2659 1.503 1_656 S
C2667 C2666 1.370 . S
C2667 C2668 1.403 . S
C2668 C2667 1.403 . S
C2668 C2669 1.404 . S
C2668 C2671 1.539 . S
C2669 C2665 1.408 . S
C2669 C2668 1.404 . S
C2669 H2681 0.930 . S
C2670 C2666 1.524 1_455 S
C2670 H2682 0.956 1_556 S
C2670 H2683 0.961 . S
C2670 H2684 0.961 . S
C2671 C2668 1.539 . S
C2671 H2685 0.958 1_556 S
C2671 H2686 0.961 . S
C2671 H2687 0.960 . S
H2672 C2656 0.931 . S
H2673 C2661 0.929 . S
H2674 C2662 0.960 . S
H2675 C2662 0.962 . S
H2676 C2662 0.960 . S
H2677 C2663 0.961 . S
H2678 C2663 0.961 . S
H2679 C2663 0.961 . S
H2680 C2664 0.931 . S
H2681 C2669 0.930 . S
H2682 C2670 0.956 1_554 S
H2683 C2670 0.961 . S
H2684 C2670 0.961 . S
H2685 C2671 0.958 1_554 S
H2686 C2671 0.961 . S
H2687 C2671 0.960 . S
C2688 C2689 1.391 . S
C2688 C2690 1.394 . S
C2688 H2704 0.931 . S
C2689 C2688 1.391 . S
C2689 C2693 1.376 . S
C2690 C2688 1.394 . S
C2690 C2691 1.369 . S
C2690 C2694 1.531 . S
C2691 C2690 1.369 . S
C2691 C2692 1.410 . S
C2691 C2699 1.503 . S
C2692 C2691 1.410 . S
C2692 C2693 1.392 . S
C2692 C2695 1.511 . S
C2693 C2689 1.376 . S
C2693 C2692 1.392 . S
C2693 H2705 0.929 . S
C2694 C2690 1.531 . S
C2694 H2706 0.960 . S
C2694 H2707 0.962 . S
C2694 H2708 0.960 . S
C2695 C2692 1.511 . S
C2695 H2709 0.961 . S
C2695 H2710 0.961 . S
C2695 H2711 0.961 . S
C2696 C2697 1.370 . S
C2696 C2698 1.363 . S
C2696 H2712 0.931 . S
C2697 C2696 1.370 . S
C2697 C2701 1.408 . S
C2698 C2696 1.363 . S
C2698 C2699 1.370 . S
C2698 C2702 1.524 . S
C2699 C2691 1.503 . S
C2699 C2698 1.370 . S
C2699 C2700 1.403 . S
C2700 C2699 1.403 . S
C2700 C2701 1.404 . S
C2700 C2703 1.539 . S
C2701 C2697 1.408 . S
C2701 C2700 1.404 . S
C2701 H2713 0.930 . S
C2702 C2698 1.524 . S
C2702 H2714 0.956 . S
C2702 H2715 0.961 . S
C2702 H2716 0.961 . S
C2703 C2700 1.539 . S
C2703 H2717 0.958 . S
C2703 H2718 0.961 . S
C2703 H2719 0.960 . S
H2704 C2688 0.931 . S
H2705 C2693 0.929 . S
H2706 C2694 0.960 . S
H2707 C2694 0.962 . S
H2708 C2694 0.960 . S
H2709 C2695 0.961 . S
H2710 C2695 0.961 . S
H2711 C2695 0.961 . S
H2712 C2696 0.931 . S
H2713 C2701 0.930 . S
H2714 C2702 0.956 . S
H2715 C2702 0.961 . S
H2716 C2702 0.961 . S
H2717 C2703 0.958 . S
H2718 C2703 0.961 . S
H2719 C2703 0.960 . S
C2720 C2721 1.391 . S
C2720 C2722 1.394 . S
C2720 H2736 0.931 . S
C2721 C2720 1.391 . S
C2721 C2725 1.376 . S
C2722 C2720 1.394 . S
C2722 C2723 1.369 . S
C2722 C2726 1.531 . S
C2723 C2722 1.369 . S
C2723 C2724 1.410 . S
C2723 C2731 1.503 . S
C2724 C2723 1.410 . S
C2724 C2725 1.392 . S
C2724 C2727 1.511 . S
C2725 C2721 1.376 . S
C2725 C2724 1.392 . S
C2725 H2737 0.929 . S
C2726 C2722 1.531 . S
C2726 H2738 0.960 . S
C2726 H2739 0.962 1_545 S
C2726 H2740 0.960 . S
C2727 C2724 1.511 . S
C2727 H2741 0.961 . S
C2727 H2742 0.961 . S
C2727 H2743 0.961 . S
C2728 C2729 1.370 . S
C2728 C2730 1.363 . S
C2728 H2744 0.931 . S
C2729 C2728 1.370 . S
C2729 C2733 1.408 1_565 S
C2730 C2728 1.363 . S
C2730 C2731 1.370 1_565 S
C2730 C2734 1.524 . S
C2731 C2723 1.503 . S
C2731 C2730 1.370 1_545 S
C2731 C2732 1.403 . S
C2732 C2731 1.403 . S
C2732 C2733 1.404 . S
C2732 C2735 1.539 . S
C2733 C2729 1.408 1_545 S
C2733 C2732 1.404 . S
C2733 H2745 0.930 . S
C2734 C2730 1.524 . S
C2734 H2746 0.956 . S
C2734 H2747 0.961 1_565 S
C2734 H2748 0.961 . S
C2735 C2732 1.539 . S
C2735 H2749 0.958 . S
C2735 H2750 0.961 . S
C2735 H2751 0.960 . S
H2736 C2720 0.931 . S
H2737 C2725 0.929 . S
H2738 C2726 0.960 . S
H2739 C2726 0.962 1_565 S
H2740 C2726 0.960 . S
H2741 C2727 0.961 . S
H2742 C2727 0.961 . S
H2743 C2727 0.961 . S
H2744 C2728 0.931 . S
H2745 C2733 0.930 . S
H2746 C2734 0.956 . S
H2747 C2734 0.961 1_545 S
H2748 C2734 0.961 . S
H2749 C2735 0.958 . S
H2750 C2735 0.961 . S
H2751 C2735 0.960 . S
C2752 C2753 1.391 . S
C2752 C2754 1.394 . S
C2752 H2768 0.931 . S
C2753 C2752 1.391 . S
C2753 C2757 1.376 . S
C2754 C2752 1.394 . S
C2754 C2755 1.369 . S
C2754 C2758 1.531 . S
C2755 C2754 1.369 . S
C2755 C2756 1.410 . S
C2755 C2763 1.503 . S
C2756 C2755 1.410 . S
C2756 C2757 1.392 . S
C2756 C2759 1.511 . S
C2757 C2753 1.376 . S
C2757 C2756 1.392 . S
C2757 H2769 0.929 . S
C2758 C2754 1.531 . S
C2758 H2770 0.960 . S
C2758 H2771 0.962 . S
C2758 H2772 0.960 . S
C2759 C2756 1.511 . S
C2759 H2773 0.961 . S
C2759 H2774 0.961 . S
C2759 H2775 0.961 . S
C2760 C2761 1.370 1_545 S
C2760 C2762 1.363 . S
C2760 H2776 0.931 . S
C2761 C2760 1.370 1_565 S
C2761 C2765 1.408 . S
C2762 C2760 1.363 . S
C2762 C2763 1.370 . S
C2762 C2766 1.524 . S
C2763 C2755 1.503 . S
C2763 C2762 1.370 . S
C2763 C2764 1.403 1_545 S
C2764 C2763 1.403 1_565 S
C2764 C2765 1.404 . S
C2764 C2767 1.539 . S
C2765 C2761 1.408 . S
C2765 C2764 1.404 . S
C2765 H2777 0.930 . S
C2766 C2762 1.524 . S
C2766 H2778 0.956 . S
C2766 H2779 0.961 . S
C2766 H2780 0.961 . S
C2767 C2764 1.539 . S
C2767 H2781 0.958 . S
C2767 H2782 0.961 . S
C2767 H2783 0.960 . S
H2768 C2752 0.931 . S
H2769 C2757 0.929 . S
H2770 C2758 0.960 . S
H2771 C2758 0.962 . S
H2772 C2758 0.960 . S
H2773 C2759 0.961 . S
H2774 C2759 0.961 . S
H2775 C2759 0.961 . S
H2776 C2760 0.931 . S
H2777 C2765 0.930 . S
H2778 C2766 0.956 . S
H2779 C2766 0.961 . S
H2780 C2766 0.961 . S
H2781 C2767 0.958 . S
H2782 C2767 0.961 . S
H2783 C2767 0.960 . S
C2784 C2785 1.391 . S
C2784 C2786 1.394 1_545 S
C2784 H2800 0.931 . S
C2785 C2784 1.391 . S
C2785 C2789 1.376 1_545 S
C2786 C2784 1.394 1_565 S
C2786 C2787 1.369 . S
C2786 C2790 1.531 1_565 S
C2787 C2786 1.369 . S
C2787 C2788 1.410 . S
C2787 C2795 1.503 . S
C2788 C2787 1.410 . S
C2788 C2789 1.392 . S
C2788 C2791 1.511 . S
C2789 C2785 1.376 1_565 S
C2789 C2788 1.392 . S
C2789 H2801 0.929 . S
C2790 C2786 1.531 1_545 S
C2790 H2802 0.960 1_545 S
C2790 H2803 0.962 . S
C2790 H2804 0.960 . S
C2791 C2788 1.511 . S
C2791 H2805 0.961 . S
C2791 H2806 0.961 . S
C2791 H2807 0.961 . S
C2792 C2793 1.370 . S
C2792 C2794 1.363 . S
C2792 H2808 0.931 . S
C2793 C2792 1.370 . S
C2793 C2797 1.408 . S
C2794 C2792 1.363 . S
C2794 C2795 1.370 . S
C2794 C2798 1.524 . S
C2795 C2787 1.503 . S
C2795 C2794 1.370 . S
C2795 C2796 1.403 . S
C2796 C2795 1.403 . S
C2796 C2797 1.404 . S
C2796 C2799 1.539 . S
C2797 C2793 1.408 . S
C2797 C2796 1.404 . S
C2797 H2809 0.930 . S
C2798 C2794 1.524 . S
C2798 H2810 0.956 1_565 S
C2798 H2811 0.961 . S
C2798 H2812 0.961 1_565 S
C2799 C2796 1.539 . S
C2799 H2813 0.958 . S
C2799 H2814 0.961 . S
C2799 H2815 0.960 . S
H2800 C2784 0.931 . S
H2801 C2789 0.929 . S
H2802 C2790 0.960 1_565 S
H2803 C2790 0.962 . S
H2804 C2790 0.960 . S
H2805 C2791 0.961 . S
H2806 C2791 0.961 . S
H2807 C2791 0.961 . S
H2808 C2792 0.931 . S
H2809 C2797 0.930 . S
H2810 C2798 0.956 1_545 S
H2811 C2798 0.961 . S
H2812 C2798 0.961 1_545 S
H2813 C2799 0.958 . S
H2814 C2799 0.961 . S
H2815 C2799 0.960 . S
C2816 C2817 1.391 . S
C2816 C2818 1.394 . S
C2816 H2832 0.931 . S
C2817 C2816 1.391 . S
C2817 C2821 1.376 . S
C2818 C2816 1.394 . S
C2818 C2819 1.369 . S
C2818 C2822 1.531 1_565 S
C2819 C2818 1.369 . S
C2819 C2820 1.410 . S
C2819 C2827 1.503 . S
C2820 C2819 1.410 . S
C2820 C2821 1.392 . S
C2820 C2823 1.511 . S
C2821 C2817 1.376 . S
C2821 C2820 1.392 . S
C2821 H2833 0.929 . S
C2822 C2818 1.531 1_545 S
C2822 H2834 0.960 . S
C2822 H2835 0.962 . S
C2822 H2836 0.960 . S
C2823 C2820 1.511 . S
C2823 H2837 0.961 . S
C2823 H2838 0.961 . S
C2823 H2839 0.961 . S
C2824 C2825 1.370 . S
C2824 C2826 1.363 1_545 S
C2824 H2840 0.931 . S
C2825 C2824 1.370 . S
C2825 C2829 1.408 . S
C2826 C2824 1.363 1_565 S
C2826 C2827 1.370 . S
C2826 C2830 1.524 . S
C2827 C2819 1.503 . S
C2827 C2826 1.370 . S
C2827 C2828 1.403 . S
C2828 C2827 1.403 . S
C2828 C2829 1.404 1_565 S
C2828 C2831 1.539 . S
C2829 C2825 1.408 . S
C2829 C2828 1.404 1_545 S
C2829 H2841 0.930 . S
C2830 C2826 1.524 . S
C2830 H2842 0.956 1_565 S
C2830 H2843 0.961 . S
C2830 H2844 0.961 1_565 S
C2831 C2828 1.539 . S
C2831 H2845 0.958 . S
C2831 H2846 0.961 . S
C2831 H2847 0.960 . S
H2832 C2816 0.931 . S
H2833 C2821 0.929 . S
H2834 C2822 0.960 . S
H2835 C2822 0.962 . S
H2836 C2822 0.960 . S
H2837 C2823 0.961 . S
H2838 C2823 0.961 . S
H2839 C2823 0.961 . S
H2840 C2824 0.931 . S
H2841 C2829 0.930 . S
H2842 C2830 0.956 1_545 S
H2843 C2830 0.961 . S
H2844 C2830 0.961 1_545 S
H2845 C2831 0.958 . S
H2846 C2831 0.961 . S
H2847 C2831 0.960 . S
C2848 C2849 1.391 . S
C2848 C2850 1.394 . S
C2848 H2864 0.931 . S
C2849 C2848 1.391 . S
C2849 C2853 1.376 . S
C2850 C2848 1.394 . S
C2850 C2851 1.369 . S
C2850 C2854 1.531 . S
C2851 C2850 1.369 . S
C2851 C2852 1.410 . S
C2851 C2859 1.503 . S
C2852 C2851 1.410 . S
C2852 C2853 1.392 . S
C2852 C2855 1.511 . S
C2853 C2849 1.376 . S
C2853 C2852 1.392 . S
C2853 H2865 0.929 . S
C2854 C2850 1.531 . S
C2854 H2866 0.960 . S
C2854 H2867 0.962 . S
C2854 H2868 0.960 . S
C2855 C2852 1.511 . S
C2855 H2869 0.961 . S
C2855 H2870 0.961 . S
C2855 H2871 0.961 1_565 S
C2856 C2857 1.370 1_565 S
C2856 C2858 1.363 . S
C2856 H2872 0.931 . S
C2857 C2856 1.370 1_545 S
C2857 C2861 1.408 . S
C2858 C2856 1.363 . S
C2858 C2859 1.370 . S
C2858 C2862 1.524 . S
C2859 C2851 1.503 . S
C2859 C2858 1.370 . S
C2859 C2860 1.403 1_565 S
C2860 C2859 1.403 1_545 S
C2860 C2861 1.404 . S
C2860 C2863 1.539 . S
C2861 C2857 1.408 . S
C2861 C2860 1.404 . S
C2861 H2873 0.930 . S
C2862 C2858 1.524 . S
C2862 H2874 0.956 . S
C2862 H2875 0.961 . S
C2862 H2876 0.961 . S
C2863 C2860 1.539 . S
C2863 H2877 0.958 . S
C2863 H2878 0.961 . S
C2863 H2879 0.960 . S
H2864 C2848 0.931 . S
H2865 C2853 0.929 . S
H2866 C2854 0.960 . S
H2867 C2854 0.962 . S
H2868 C2854 0.960 . S
H2869 C2855 0.961 . S
H2870 C2855 0.961 . S
H2871 C2855 0.961 1_545 S
H2872 C2856 0.931 . S
H2873 C2861 0.930 . S
H2874 C2862 0.956 . S
H2875 C2862 0.961 . S
H2876 C2862 0.961 . S
H2877 C2863 0.958 . S
H2878 C2863 0.961 . S
H2879 C2863 0.960 . S
C2880 C2881 1.391 . S
C2880 C2882 1.394 . S
C2880 H2896 0.931 . S
C2881 C2880 1.391 . S
C2881 C2885 1.376 1_545 S
C2882 C2880 1.394 . S
C2882 C2883 1.369 1_545 S
C2882 C2886 1.531 . S
C2883 C2882 1.369 1_565 S
C2883 C2884 1.410 . S
C2883 C2891 1.503 . S
C2884 C2883 1.410 . S
C2884 C2885 1.392 . S
C2884 C2887 1.511 . S
C2885 C2881 1.376 1_565 S
C2885 C2884 1.392 . S
C2885 H2897 0.929 . S
C2886 C2882 1.531 . S
C2886 H2898 0.960 . S
C2886 H2899 0.962 . S
C2886 H2900 0.960 . S
C2887 C2884 1.511 . S
C2887 H2901 0.961 . S
C2887 H2902 0.961 . S
C2887 H2903 0.961 . S
C2888 C2889 1.370 . S
C2888 C2890 1.363 . S
C2888 H2904 0.931 . S
C2889 C2888 1.370 . S
C2889 C2893 1.408 . S
C2890 C2888 1.363 . S
C2890 C2891 1.370 . S
C2890 C2894 1.524 . S
C2891 C2883 1.503 . S
C2891 C2890 1.370 . S
C2891 C2892 1.403 . S
C2892 C2891 1.403 . S
C2892 C2893 1.404 . S
C2892 C2895 1.539 . S
C2893 C2889 1.408 . S
C2893 C2892 1.404 . S
C2893 H2905 0.930 . S
C2894 C2890 1.524 . S
C2894 H2906 0.956 . S
C2894 H2907 0.961 . S
C2894 H2908 0.961 . S
C2895 C2892 1.539 . S
C2895 H2909 0.958 . S
C2895 H2910 0.961 . S
C2895 H2911 0.960 . S
H2896 C2880 0.931 . S
H2897 C2885 0.929 . S
H2898 C2886 0.960 . S
H2899 C2886 0.962 . S
H2900 C2886 0.960 . S
H2901 C2887 0.961 . S
H2902 C2887 0.961 . S
H2903 C2887 0.961 . S
H2904 C2888 0.931 . S
H2905 C2893 0.930 . S
H2906 C2894 0.956 . S
H2907 C2894 0.961 . S
H2908 C2894 0.961 . S
H2909 C2895 0.958 . S
H2910 C2895 0.961 . S
H2911 C2895 0.960 . S
C2912 C2913 1.391 . S
C2912 C2914 1.394 1_565 S
C2912 H2928 0.931 . S
C2913 C2912 1.391 . S
C2913 C2917 1.376 . S
C2914 C2912 1.394 1_545 S
C2914 C2915 1.369 . S
C2914 C2918 1.531 . S
C2915 C2914 1.369 . S
C2915 C2916 1.410 . S
C2915 C2923 1.503 . S
C2916 C2915 1.410 . S
C2916 C2917 1.392 1_545 S
C2916 C2919 1.511 . S
C2917 C2913 1.376 . S
C2917 C2916 1.392 1_565 S
C2917 H2929 0.929 . S
C2918 C2914 1.531 . S
C2918 H2930 0.960 . S
C2918 H2931 0.962 . S
C2918 H2932 0.960 . S
C2919 C2916 1.511 . S
C2919 H2933 0.961 . S
C2919 H2934 0.961 . S
C2919 H2935 0.961 . S
C2920 C2921 1.370 . S
C2920 C2922 1.363 . S
C2920 H2936 0.931 . S
C2921 C2920 1.370 . S
C2921 C2925 1.408 . S
C2922 C2920 1.363 . S
C2922 C2923 1.370 . S
C2922 C2926 1.524 1_545 S
C2923 C2915 1.503 . S
C2923 C2922 1.370 . S
C2923 C2924 1.403 . S
C2924 C2923 1.403 . S
C2924 C2925 1.404 . S
C2924 C2927 1.539 . S
C2925 C2921 1.408 . S
C2925 C2924 1.404 . S
C2925 H2937 0.930 . S
C2926 C2922 1.524 1_565 S
C2926 H2938 0.956 . S
C2926 H2939 0.961 . S
C2926 H2940 0.961 . S
C2927 C2924 1.539 . S
C2927 H2941 0.958 . S
C2927 H2942 0.961 . S
C2927 H2943 0.960 . S
H2928 C2912 0.931 . S
H2929 C2917 0.929 . S
H2930 C2918 0.960 . S
H2931 C2918 0.962 . S
H2932 C2918 0.960 . S
H2933 C2919 0.961 . S
H2934 C2919 0.961 . S
H2935 C2919 0.961 . S
H2936 C2920 0.931 . S
H2937 C2925 0.930 . S
H2938 C2926 0.956 . S
H2939 C2926 0.961 . S
H2940 C2926 0.961 . S
H2941 C2927 0.958 . S
H2942 C2927 0.961 . S
H2943 C2927 0.960 . S
C2944 C2945 1.391 . S
C2944 C2946 1.394 . S
C2944 H2960 0.931 . S
C2945 C2944 1.391 . S
C2945 C2949 1.376 1_565 S
C2946 C2944 1.394 . S
C2946 C2947 1.369 1_565 S
C2946 C2950 1.531 . S
C2947 C2946 1.369 1_545 S
C2947 C2948 1.410 . S
C2947 C2955 1.503 . S
C2948 C2947 1.410 . S
C2948 C2949 1.392 . S
C2948 C2951 1.511 . S
C2949 C2945 1.376 1_545 S
C2949 C2948 1.392 . S
C2949 H2961 0.929 . S
C2950 C2946 1.531 . S
C2950 H2962 0.960 . S
C2950 H2963 0.962 . S
C2950 H2964 0.960 . S
C2951 C2948 1.511 . S
C2951 H2965 0.961 . S
C2951 H2966 0.961 . S
C2951 H2967 0.961 . S
C2952 C2953 1.370 . S
C2952 C2954 1.363 . S
C2952 H2968 0.931 . S
C2953 C2952 1.370 . S
C2953 C2957 1.408 . S
C2954 C2952 1.363 . S
C2954 C2955 1.370 . S
C2954 C2958 1.524 . S
C2955 C2947 1.503 . S
C2955 C2954 1.370 . S
C2955 C2956 1.403 . S
C2956 C2955 1.403 . S
C2956 C2957 1.404 . S
C2956 C2959 1.539 . S
C2957 C2953 1.408 . S
C2957 C2956 1.404 . S
C2957 H2969 0.930 . S
C2958 C2954 1.524 . S
C2958 H2970 0.956 . S
C2958 H2971 0.961 . S
C2958 H2972 0.961 . S
C2959 C2956 1.539 . S
C2959 H2973 0.958 . S
C2959 H2974 0.961 . S
C2959 H2975 0.960 . S
H2960 C2944 0.931 . S
H2961 C2949 0.929 . S
H2962 C2950 0.960 . S
H2963 C2950 0.962 . S
H2964 C2950 0.960 . S
H2965 C2951 0.961 . S
H2966 C2951 0.961 . S
H2967 C2951 0.961 . S
H2968 C2952 0.931 . S
H2969 C2957 0.930 . S
H2970 C2958 0.956 . S
H2971 C2958 0.961 . S
H2972 C2958 0.961 . S
H2973 C2959 0.958 . S
H2974 C2959 0.961 . S
H2975 C2959 0.960 . S
C2976 C2977 1.391 . S
C2976 C2978 1.394 . S
C2976 H2992 0.931 . S
C2977 C2976 1.391 . S
C2977 C2981 1.376 . S
C2978 C2976 1.394 . S
C2978 C2979 1.369 . S
C2978 C2982 1.531 . S
C2979 C2978 1.369 . S
C2979 C2980 1.410 . S
C2979 C2987 1.503 . S
C2980 C2979 1.410 . S
C2980 C2981 1.392 . S
C2980 C2983 1.511 . S
C2981 C2977 1.376 . S
C2981 C2980 1.392 . S
C2981 H2993 0.929 . S
C2982 C2978 1.531 . S
C2982 H2994 0.960 . S
C2982 H2995 0.962 . S
C2982 H2996 0.960 . S
C2983 C2980 1.511 . S
C2983 H2997 0.961 . S
C2983 H2998 0.961 . S
C2983 H2999 0.961 . S
C2984 C2985 1.370 . S
C2984 C2986 1.363 . S
C2984 H3000 0.931 . S
C2985 C2984 1.370 . S
C2985 C2989 1.408 . S
C2986 C2984 1.363 . S
C2986 C2987 1.370 . S
C2986 C2990 1.524 . S
C2987 C2979 1.503 . S
C2987 C2986 1.370 . S
C2987 C2988 1.403 . S
C2988 C2987 1.403 . S
C2988 C2989 1.404 . S
C2988 C2991 1.539 . S
C2989 C2985 1.408 . S
C2989 C2988 1.404 . S
C2989 H3001 0.930 . S
C2990 C2986 1.524 . S
C2990 H3002 0.956 . S
C2990 H3003 0.961 . S
C2990 H3004 0.961 . S
C2991 C2988 1.539 . S
C2991 H3005 0.958 . S
C2991 H3006 0.961 . S
C2991 H3007 0.960 . S
H2992 C2976 0.931 . S
H2993 C2981 0.929 . S
H2994 C2982 0.960 . S
H2995 C2982 0.962 . S
H2996 C2982 0.960 . S
H2997 C2983 0.961 . S
H2998 C2983 0.961 . S
H2999 C2983 0.961 . S
H3000 C2984 0.931 . S
H3001 C2989 0.930 . S
H3002 C2990 0.956 . S
H3003 C2990 0.961 . S
H3004 C2990 0.961 . S
H3005 C2991 0.958 . S
H3006 C2991 0.961 . S
H3007 C2991 0.960 . S
C3008 C3009 1.391 . S
C3008 C3010 1.394 . S
C3008 H3024 0.931 . S
C3009 C3008 1.391 . S
C3009 C3013 1.376 . S
C3010 C3008 1.394 . S
C3010 C3011 1.369 . S
C3010 C3014 1.531 . S
C3011 C3010 1.369 . S
C3011 C3012 1.410 . S
C3011 C3019 1.503 . S
C3012 C3011 1.410 . S
C3012 C3013 1.392 . S
C3012 C3015 1.511 . S
C3013 C3009 1.376 . S
C3013 C3012 1.392 . S
C3013 H3025 0.929 . S
C3014 C3010 1.531 . S
C3014 H3026 0.960 . S
C3014 H3027 0.962 . S
C3014 H3028 0.960 . S
C3015 C3012 1.511 . S
C3015 H3029 0.961 . S
C3015 H3030 0.961 . S
C3015 H3031 0.961 . S
C3016 C3017 1.370 . S
C3016 C3018 1.363 . S
C3016 H3032 0.931 . S
C3017 C3016 1.370 . S
C3017 C3021 1.408 . S
C3018 C3016 1.363 . S
C3018 C3019 1.370 . S
C3018 C3022 1.524 . S
C3019 C3011 1.503 . S
C3019 C3018 1.370 . S
C3019 C3020 1.403 . S
C3020 C3019 1.403 . S
C3020 C3021 1.404 . S
C3020 C3023 1.539 . S
C3021 C3017 1.408 . S
C3021 C3020 1.404 . S
C3021 H3033 0.930 . S
C3022 C3018 1.524 . S
C3022 H3034 0.956 . S
C3022 H3035 0.961 . S
C3022 H3036 0.961 . S
C3023 C3020 1.539 . S
C3023 H3037 0.958 . S
C3023 H3038 0.961 . S
C3023 H3039 0.960 . S
H3024 C3008 0.931 . S
H3025 C3013 0.929 . S
H3026 C3014 0.960 . S
H3027 C3014 0.962 . S
H3028 C3014 0.960 . S
H3029 C3015 0.961 . S
H3030 C3015 0.961 . S
H3031 C3015 0.961 . S
H3032 C3016 0.931 . S
H3033 C3021 0.930 . S
H3034 C3022 0.956 . S
H3035 C3022 0.961 . S
H3036 C3022 0.961 . S
H3037 C3023 0.958 . S
H3038 C3023 0.961 . S
H3039 C3023 0.960 . S
C3040 C3041 1.391 . S
C3040 C3042 1.394 . S
C3040 H3056 0.931 . S
C3041 C3040 1.391 . S
C3041 C3045 1.376 . S
C3042 C3040 1.394 . S
C3042 C3043 1.369 . S
C3042 C3046 1.531 . S
C3043 C3042 1.369 . S
C3043 C3044 1.410 . S
C3043 C3051 1.503 . S
C3044 C3043 1.410 . S
C3044 C3045 1.392 . S
C3044 C3047 1.511 . S
C3045 C3041 1.376 . S
C3045 C3044 1.392 . S
C3045 H3057 0.929 . S
C3046 C3042 1.531 . S
C3046 H3058 0.960 . S
C3046 H3059 0.962 . S
C3046 H3060 0.960 . S
C3047 C3044 1.511 . S
C3047 H3061 0.961 . S
C3047 H3062 0.961 . S
C3047 H3063 0.961 . S
C3048 C3049 1.370 . S
C3048 C3050 1.363 . S
C3048 H3064 0.931 . S
C3049 C3048 1.370 . S
C3049 C3053 1.408 . S
C3050 C3048 1.363 . S
C3050 C3051 1.370 . S
C3050 C3054 1.524 . S
C3051 C3043 1.503 . S
C3051 C3050 1.370 . S
C3051 C3052 1.403 . S
C3052 C3051 1.403 . S
C3052 C3053 1.404 . S
C3052 C3055 1.539 . S
C3053 C3049 1.408 . S
C3053 C3052 1.404 . S
C3053 H3065 0.930 . S
C3054 C3050 1.524 . S
C3054 H3066 0.956 . S
C3054 H3067 0.961 . S
C3054 H3068 0.961 . S
C3055 C3052 1.539 . S
C3055 H3069 0.958 . S
C3055 H3070 0.961 . S
C3055 H3071 0.960 . S
H3056 C3040 0.931 . S
H3057 C3045 0.929 . S
H3058 C3046 0.960 . S
H3059 C3046 0.962 . S
H3060 C3046 0.960 . S
H3061 C3047 0.961 . S
H3062 C3047 0.961 . S
H3063 C3047 0.961 . S
H3064 C3048 0.931 . S
H3065 C3053 0.930 . S
H3066 C3054 0.956 . S
H3067 C3054 0.961 . S
H3068 C3054 0.961 . S
H3069 C3055 0.958 . S
H3070 C3055 0.961 . S
H3071 C3055 0.960 . S
C3072 C3073 1.391 . S
C3072 C3074 1.394 . S
C3072 H3088 0.931 . S
C3073 C3072 1.391 . S
C3073 C3077 1.376 . S
C3074 C3072 1.394 . S
C3074 C3075 1.369 . S
C3074 C3078 1.531 . S
C3075 C3074 1.369 . S
C3075 C3076 1.410 . S
C3075 C3083 1.503 . S
C3076 C3075 1.410 . S
C3076 C3077 1.392 . S
C3076 C3079 1.511 . S
C3077 C3073 1.376 . S
C3077 C3076 1.392 . S
C3077 H3089 0.929 . S
C3078 C3074 1.531 . S
C3078 H3090 0.960 . S
C3078 H3091 0.962 . S
C3078 H3092 0.960 . S
C3079 C3076 1.511 . S
C3079 H3093 0.961 . S
C3079 H3094 0.961 . S
C3079 H3095 0.961 . S
C3080 C3081 1.370 . S
C3080 C3082 1.363 . S
C3080 H3096 0.931 . S
C3081 C3080 1.370 . S
C3081 C3085 1.408 . S
C3082 C3080 1.363 . S
C3082 C3083 1.370 . S
C3082 C3086 1.524 . S
C3083 C3075 1.503 . S
C3083 C3082 1.370 . S
C3083 C3084 1.403 . S
C3084 C3083 1.403 . S
C3084 C3085 1.404 . S
C3084 C3087 1.539 . S
C3085 C3081 1.408 . S
C3085 C3084 1.404 . S
C3085 H3097 0.930 . S
C3086 C3082 1.524 . S
C3086 H3098 0.956 . S
C3086 H3099 0.961 . S
C3086 H3100 0.961 . S
C3087 C3084 1.539 . S
C3087 H3101 0.958 . S
C3087 H3102 0.961 . S
C3087 H3103 0.960 . S
H3088 C3072 0.931 . S
H3089 C3077 0.929 . S
H3090 C3078 0.960 . S
H3091 C3078 0.962 . S
H3092 C3078 0.960 . S
H3093 C3079 0.961 . S
H3094 C3079 0.961 . S
H3095 C3079 0.961 . S
H3096 C3080 0.931 . S
H3097 C3085 0.930 . S
H3098 C3086 0.956 . S
H3099 C3086 0.961 . S
H3100 C3086 0.961 . S
H3101 C3087 0.958 . S
H3102 C3087 0.961 . S
H3103 C3087 0.960 . S
C3104 C3105 1.391 . S
C3104 C3106 1.394 . S
C3104 H3120 0.931 . S
C3105 C3104 1.391 . S
C3105 C3109 1.376 . S
C3106 C3104 1.394 . S
C3106 C3107 1.369 . S
C3106 C3110 1.531 . S
C3107 C3106 1.369 . S
C3107 C3108 1.410 . S
C3107 C3115 1.503 . S
C3108 C3107 1.410 . S
C3108 C3109 1.392 . S
C3108 C3111 1.511 . S
C3109 C3105 1.376 . S
C3109 C3108 1.392 . S
C3109 H3121 0.929 . S
C3110 C3106 1.531 . S
C3110 H3122 0.960 . S
C3110 H3123 0.962 . S
C3110 H3124 0.960 . S
C3111 C3108 1.511 . S
C3111 H3125 0.961 . S
C3111 H3126 0.961 . S
C3111 H3127 0.961 . S
C3112 C3113 1.370 . S
C3112 C3114 1.363 . S
C3112 H3128 0.931 . S
C3113 C3112 1.370 . S
C3113 C3117 1.408 . S
C3114 C3112 1.363 . S
C3114 C3115 1.370 . S
C3114 C3118 1.524 . S
C3115 C3107 1.503 . S
C3115 C3114 1.370 . S
C3115 C3116 1.403 . S
C3116 C3115 1.403 . S
C3116 C3117 1.404 . S
C3116 C3119 1.539 . S
C3117 C3113 1.408 . S
C3117 C3116 1.404 . S
C3117 H3129 0.930 . S
C3118 C3114 1.524 . S
C3118 H3130 0.956 . S
C3118 H3131 0.961 . S
C3118 H3132 0.961 . S
C3119 C3116 1.539 . S
C3119 H3133 0.958 . S
C3119 H3134 0.961 . S
C3119 H3135 0.960 . S
H3120 C3104 0.931 . S
H3121 C3109 0.929 . S
H3122 C3110 0.960 . S
H3123 C3110 0.962 . S
H3124 C3110 0.960 . S
H3125 C3111 0.961 . S
H3126 C3111 0.961 . S
H3127 C3111 0.961 . S
H3128 C3112 0.931 . S
H3129 C3117 0.930 . S
H3130 C3118 0.956 . S
H3131 C3118 0.961 . S
H3132 C3118 0.961 . S
H3133 C3119 0.958 . S
H3134 C3119 0.961 . S
H3135 C3119 0.960 . S
C3136 C3137 1.391 . S
C3136 C3138 1.394 . S
C3136 H3152 0.931 . S
C3137 C3136 1.391 . S
C3137 C3141 1.376 . S
C3138 C3136 1.394 . S
C3138 C3139 1.369 . S
C3138 C3142 1.531 . S
C3139 C3138 1.369 . S
C3139 C3140 1.410 . S
C3139 C3147 1.503 . S
C3140 C3139 1.410 . S
C3140 C3141 1.392 . S
C3140 C3143 1.511 . S
C3141 C3137 1.376 . S
C3141 C3140 1.392 . S
C3141 H3153 0.929 . S
C3142 C3138 1.531 . S
C3142 H3154 0.960 . S
C3142 H3155 0.962 . S
C3142 H3156 0.960 . S
C3143 C3140 1.511 . S
C3143 H3157 0.961 . S
C3143 H3158 0.961 . S
C3143 H3159 0.961 . S
C3144 C3145 1.370 . S
C3144 C3146 1.363 . S
C3144 H3160 0.931 . S
C3145 C3144 1.370 . S
C3145 C3149 1.408 . S
C3146 C3144 1.363 . S
C3146 C3147 1.370 . S
C3146 C3150 1.524 . S
C3147 C3139 1.503 . S
C3147 C3146 1.370 . S
C3147 C3148 1.403 . S
C3148 C3147 1.403 . S
C3148 C3149 1.404 . S
C3148 C3151 1.539 . S
C3149 C3145 1.408 . S
C3149 C3148 1.404 . S
C3149 H3161 0.930 . S
C3150 C3146 1.524 . S
C3150 H3162 0.956 . S
C3150 H3163 0.961 . S
C3150 H3164 0.961 . S
C3151 C3148 1.539 . S
C3151 H3165 0.958 . S
C3151 H3166 0.961 . S
C3151 H3167 0.960 . S
H3152 C3136 0.931 . S
H3153 C3141 0.929 . S
H3154 C3142 0.960 . S
H3155 C3142 0.962 . S
H3156 C3142 0.960 . S
H3157 C3143 0.961 . S
H3158 C3143 0.961 . S
H3159 C3143 0.961 . S
H3160 C3144 0.931 . S
H3161 C3149 0.930 . S
H3162 C3150 0.956 . S
H3163 C3150 0.961 . S
H3164 C3150 0.961 . S
H3165 C3151 0.958 . S
H3166 C3151 0.961 . S
H3167 C3151 0.960 . S
C3168 C3169 1.391 . S
C3168 C3170 1.394 . S
C3168 H3184 0.931 . S
C3169 C3168 1.391 . S
C3169 C3173 1.376 . S
C3170 C3168 1.394 . S
C3170 C3171 1.369 . S
C3170 C3174 1.531 . S
C3171 C3170 1.369 . S
C3171 C3172 1.410 . S
C3171 C3179 1.503 . S
C3172 C3171 1.410 . S
C3172 C3173 1.392 . S
C3172 C3175 1.511 . S
C3173 C3169 1.376 . S
C3173 C3172 1.392 . S
C3173 H3185 0.929 . S
C3174 C3170 1.531 . S
C3174 H3186 0.960 . S
C3174 H3187 0.962 . S
C3174 H3188 0.960 . S
C3175 C3172 1.511 . S
C3175 H3189 0.961 . S
C3175 H3190 0.961 . S
C3175 H3191 0.961 . S
C3176 C3177 1.370 . S
C3176 C3178 1.363 . S
C3176 H3192 0.931 . S
C3177 C3176 1.370 . S
C3177 C3181 1.408 . S
C3178 C3176 1.363 . S
C3178 C3179 1.370 . S
C3178 C3182 1.524 . S
C3179 C3171 1.503 . S
C3179 C3178 1.370 . S
C3179 C3180 1.403 . S
C3180 C3179 1.403 . S
C3180 C3181 1.404 . S
C3180 C3183 1.539 . S
C3181 C3177 1.408 . S
C3181 C3180 1.404 . S
C3181 H3193 0.930 . S
C3182 C3178 1.524 . S
C3182 H3194 0.956 . S
C3182 H3195 0.961 . S
C3182 H3196 0.961 . S
C3183 C3180 1.539 . S
C3183 H3197 0.958 . S
C3183 H3198 0.961 . S
C3183 H3199 0.960 . S
H3184 C3168 0.931 . S
H3185 C3173 0.929 . S
H3186 C3174 0.960 . S
H3187 C3174 0.962 . S
H3188 C3174 0.960 . S
H3189 C3175 0.961 . S
H3190 C3175 0.961 . S
H3191 C3175 0.961 . S
H3192 C3176 0.931 . S
H3193 C3181 0.930 . S
H3194 C3182 0.956 . S
H3195 C3182 0.961 . S
H3196 C3182 0.961 . S
H3197 C3183 0.958 . S
H3198 C3183 0.961 . S
H3199 C3183 0.960 . S
C3200 C3201 1.391 . S
C3200 C3202 1.394 . S
C3200 H3216 0.931 . S
C3201 C3200 1.391 . S
C3201 C3205 1.376 . S
C3202 C3200 1.394 . S
C3202 C3203 1.369 . S
C3202 C3206 1.531 . S
C3203 C3202 1.369 . S
C3203 C3204 1.410 . S
C3203 C3211 1.503 . S
C3204 C3203 1.410 . S
C3204 C3205 1.392 . S
C3204 C3207 1.511 . S
C3205 C3201 1.376 . S
C3205 C3204 1.392 . S
C3205 H3217 0.929 . S
C3206 C3202 1.531 . S
C3206 H3218 0.960 . S
C3206 H3219 0.962 . S
C3206 H3220 0.960 . S
C3207 C3204 1.511 . S
C3207 H3221 0.961 . S
C3207 H3222 0.961 . S
C3207 H3223 0.961 . S
C3208 C3209 1.370 . S
C3208 C3210 1.363 . S
C3208 H3224 0.931 . S
C3209 C3208 1.370 . S
C3209 C3213 1.408 . S
C3210 C3208 1.363 . S
C3210 C3211 1.370 . S
C3210 C3214 1.524 . S
C3211 C3203 1.503 . S
C3211 C3210 1.370 . S
C3211 C3212 1.403 . S
C3212 C3211 1.403 . S
C3212 C3213 1.404 . S
C3212 C3215 1.539 . S
C3213 C3209 1.408 . S
C3213 C3212 1.404 . S
C3213 H3225 0.930 . S
C3214 C3210 1.524 . S
C3214 H3226 0.956 . S
C3214 H3227 0.961 . S
C3214 H3228 0.961 . S
C3215 C3212 1.539 . S
C3215 H3229 0.958 . S
C3215 H3230 0.961 . S
C3215 H3231 0.960 . S
H3216 C3200 0.931 . S
H3217 C3205 0.929 . S
H3218 C3206 0.960 . S
H3219 C3206 0.962 . S
H3220 C3206 0.960 . S
H3221 C3207 0.961 . S
H3222 C3207 0.961 . S
H3223 C3207 0.961 . S
H3224 C3208 0.931 . S
H3225 C3213 0.930 . S
H3226 C3214 0.956 . S
H3227 C3214 0.961 . S
H3228 C3214 0.961 . S
H3229 C3215 0.958 . S
H3230 C3215 0.961 . S
H3231 C3215 0.960 . S
C3232 C3233 1.391 . S
C3232 C3234 1.394 . S
C3232 H3248 0.931 . S
C3233 C3232 1.391 . S
C3233 C3237 1.376 . S
C3234 C3232 1.394 . S
C3234 C3235 1.369 . S
C3234 C3238 1.531 . S
C3235 C3234 1.369 . S
C3235 C3236 1.410 . S
C3235 C3243 1.503 1_545 S
C3236 C3235 1.410 . S
C3236 C3237 1.392 . S
C3236 C3239 1.511 1_545 S
C3237 C3233 1.376 . S
C3237 C3236 1.392 . S
C3237 H3249 0.929 . S
C3238 C3234 1.531 . S
C3238 H3250 0.960 . S
C3238 H3251 0.962 . S
C3238 H3252 0.960 . S
C3239 C3236 1.511 1_565 S
C3239 H3253 0.961 . S
C3239 H3254 0.961 . S
C3239 H3255 0.961 . S
C3240 C3241 1.370 . S
C3240 C3242 1.363 . S
C3240 H3256 0.931 . S
C3241 C3240 1.370 . S
C3241 C3245 1.408 . S
C3242 C3240 1.363 . S
C3242 C3243 1.370 . S
C3242 C3246 1.524 . S
C3243 C3235 1.503 1_565 S
C3243 C3242 1.370 . S
C3243 C3244 1.403 . S
C3244 C3243 1.403 . S
C3244 C3245 1.404 . S
C3244 C3247 1.539 . S
C3245 C3241 1.408 . S
C3245 C3244 1.404 . S
C3245 H3257 0.930 . S
C3246 C3242 1.524 . S
C3246 H3258 0.956 1_565 S
C3246 H3259 0.961 . S
C3246 H3260 0.961 . S
C3247 C3244 1.539 . S
C3247 H3261 0.958 . S
C3247 H3262 0.961 . S
C3247 H3263 0.960 . S
H3248 C3232 0.931 . S
H3249 C3237 0.929 . S
H3250 C3238 0.960 . S
H3251 C3238 0.962 . S
H3252 C3238 0.960 . S
H3253 C3239 0.961 . S
H3254 C3239 0.961 . S
H3255 C3239 0.961 . S
H3256 C3240 0.931 . S
H3257 C3245 0.930 . S
H3258 C3246 0.956 1_545 S
H3259 C3246 0.961 . S
H3260 C3246 0.961 . S
H3261 C3247 0.958 . S
H3262 C3247 0.961 . S
H3263 C3247 0.960 . S
C3264 C3265 1.391 . S
C3264 C3266 1.394 . S
C3264 H3280 0.931 . S
C3265 C3264 1.391 . S
C3265 C3269 1.376 . S
C3266 C3264 1.394 . S
C3266 C3267 1.369 . S
C3266 C3270 1.531 . S
C3267 C3266 1.369 . S
C3267 C3268 1.410 . S
C3267 C3275 1.503 . S
C3268 C3267 1.410 . S
C3268 C3269 1.392 . S
C3268 C3271 1.511 . S
C3269 C3265 1.376 . S
C3269 C3268 1.392 . S
C3269 H3281 0.929 . S
C3270 C3266 1.531 . S
C3270 H3282 0.960 . S
C3270 H3283 0.962 . S
C3270 H3284 0.960 . S
C3271 C3268 1.511 . S
C3271 H3285 0.961 . S
C3271 H3286 0.961 . S
C3271 H3287 0.961 . S
C3272 C3273 1.370 . S
C3272 C3274 1.363 . S
C3272 H3288 0.931 . S
C3273 C3272 1.370 . S
C3273 C3277 1.408 . S
C3274 C3272 1.363 . S
C3274 C3275 1.370 . S
C3274 C3278 1.524 . S
C3275 C3267 1.503 . S
C3275 C3274 1.370 . S
C3275 C3276 1.403 . S
C3276 C3275 1.403 . S
C3276 C3277 1.404 . S
C3276 C3279 1.539 . S
C3277 C3273 1.408 . S
C3277 C3276 1.404 . S
C3277 H3289 0.930 . S
C3278 C3274 1.524 . S
C3278 H3290 0.956 . S
C3278 H3291 0.961 . S
C3278 H3292 0.961 . S
C3279 C3276 1.539 . S
C3279 H3293 0.958 . S
C3279 H3294 0.961 . S
C3279 H3295 0.960 . S
H3280 C3264 0.931 . S
H3281 C3269 0.929 . S
H3282 C3270 0.960 . S
H3283 C3270 0.962 . S
H3284 C3270 0.960 . S
H3285 C3271 0.961 . S
H3286 C3271 0.961 . S
H3287 C3271 0.961 . S
H3288 C3272 0.931 . S
H3289 C3277 0.930 . S
H3290 C3278 0.956 . S
H3291 C3278 0.961 . S
H3292 C3278 0.961 . S
H3293 C3279 0.958 . S
H3294 C3279 0.961 . S
H3295 C3279 0.960 . S
C3296 C3297 1.391 . S
C3296 C3298 1.394 . S
C3296 H3312 0.931 . S
C3297 C3296 1.391 . S
C3297 C3301 1.376 . S
C3298 C3296 1.394 . S
C3298 C3299 1.369 . S
C3298 C3302 1.531 1_545 S
C3299 C3298 1.369 . S
C3299 C3300 1.410 . S
C3299 C3307 1.503 1_545 S
C3300 C3299 1.410 . S
C3300 C3301 1.392 . S
C3300 C3303 1.511 . S
C3301 C3297 1.376 . S
C3301 C3300 1.392 . S
C3301 H3313 0.929 . S
C3302 C3298 1.531 1_565 S
C3302 H3314 0.960 . S
C3302 H3315 0.962 . S
C3302 H3316 0.960 . S
C3303 C3300 1.511 . S
C3303 H3317 0.961 . S
C3303 H3318 0.961 . S
C3303 H3319 0.961 . S
C3304 C3305 1.370 . S
C3304 C3306 1.363 . S
C3304 H3320 0.931 . S
C3305 C3304 1.370 . S
C3305 C3309 1.408 . S
C3306 C3304 1.363 . S
C3306 C3307 1.370 . S
C3306 C3310 1.524 1_565 S
C3307 C3299 1.503 1_565 S
C3307 C3306 1.370 . S
C3307 C3308 1.403 . S
C3308 C3307 1.403 . S
C3308 C3309 1.404 . S
C3308 C3311 1.539 . S
C3309 C3305 1.408 . S
C3309 C3308 1.404 . S
C3309 H3321 0.930 . S
C3310 C3306 1.524 1_545 S
C3310 H3322 0.956 . S
C3310 H3323 0.961 . S
C3310 H3324 0.961 . S
C3311 C3308 1.539 . S
C3311 H3325 0.958 . S
C3311 H3326 0.961 . S
C3311 H3327 0.960 . S
H3312 C3296 0.931 . S
H3313 C3301 0.929 . S
H3314 C3302 0.960 . S
H3315 C3302 0.962 . S
H3316 C3302 0.960 . S
H3317 C3303 0.961 . S
H3318 C3303 0.961 . S
H3319 C3303 0.961 . S
H3320 C3304 0.931 . S
H3321 C3309 0.930 . S
H3322 C3310 0.956 . S
H3323 C3310 0.961 . S
H3324 C3310 0.961 . S
H3325 C3311 0.958 . S
H3326 C3311 0.961 . S
H3327 C3311 0.960 . S
C3328 C3329 1.391 . S
C3328 C3330 1.394 . S
C3328 H3344 0.931 . S
C3329 C3328 1.391 . S
C3329 C3333 1.376 . S
C3330 C3328 1.394 . S
C3330 C3331 1.369 . S
C3330 C3334 1.531 . S
C3331 C3330 1.369 . S
C3331 C3332 1.410 . S
C3331 C3339 1.503 1_556 S
C3332 C3331 1.410 . S
C3332 C3333 1.392 . S
C3332 C3335 1.511 1_556 S
C3333 C3329 1.376 . S
C3333 C3332 1.392 . S
C3333 H3345 0.929 . S
C3334 C3330 1.531 . S
C3334 H3346 0.960 . S
C3334 H3347 0.962 . S
C3334 H3348 0.960 . S
C3335 C3332 1.511 1_554 S
C3335 H3349 0.961 . S
C3335 H3350 0.961 . S
C3335 H3351 0.961 . S
C3336 C3337 1.370 . S
C3336 C3338 1.363 . S
C3336 H3352 0.931 . S
C3337 C3336 1.370 . S
C3337 C3341 1.408 . S
C3338 C3336 1.363 . S
C3338 C3339 1.370 . S
C3338 C3342 1.524 1_554 S
C3339 C3331 1.503 1_554 S
C3339 C3338 1.370 . S
C3339 C3340 1.403 . S
C3340 C3339 1.403 . S
C3340 C3341 1.404 . S
C3340 C3343 1.539 . S
C3341 C3337 1.408 . S
C3341 C3340 1.404 . S
C3341 H3353 0.930 . S
C3342 C3338 1.524 1_556 S
C3342 H3354 0.956 . S
C3342 H3355 0.961 . S
C3342 H3356 0.961 . S
C3343 C3340 1.539 . S
C3343 H3357 0.958 . S
C3343 H3358 0.961 . S
C3343 H3359 0.960 . S
H3344 C3328 0.931 . S
H3345 C3333 0.929 . S
H3346 C3334 0.960 . S
H3347 C3334 0.962 . S
H3348 C3334 0.960 . S
H3349 C3335 0.961 . S
H3350 C3335 0.961 . S
H3351 C3335 0.961 . S
H3352 C3336 0.931 . S
H3353 C3341 0.930 . S
H3354 C3342 0.956 . S
H3355 C3342 0.961 . S
H3356 C3342 0.961 . S
H3357 C3343 0.958 . S
H3358 C3343 0.961 . S
H3359 C3343 0.960 . S
C3360 C3361 1.391 . S
C3360 C3362 1.394 . S
C3360 H3376 0.931 . S
C3361 C3360 1.391 . S
C3361 C3365 1.376 . S
C3362 C3360 1.394 . S
C3362 C3363 1.369 . S
C3362 C3366 1.531 . S
C3363 C3362 1.369 . S
C3363 C3364 1.410 . S
C3363 C3371 1.503 1_565 S
C3364 C3363 1.410 . S
C3364 C3365 1.392 . S
C3364 C3367 1.511 1_565 S
C3365 C3361 1.376 . S
C3365 C3364 1.392 . S
C3365 H3377 0.929 . S
C3366 C3362 1.531 . S
C3366 H3378 0.960 . S
C3366 H3379 0.962 . S
C3366 H3380 0.960 . S
C3367 C3364 1.511 1_545 S
C3367 H3381 0.961 . S
C3367 H3382 0.961 . S
C3367 H3383 0.961 . S
C3368 C3369 1.370 . S
C3368 C3370 1.363 . S
C3368 H3384 0.931 . S
C3369 C3368 1.370 . S
C3369 C3373 1.408 . S
C3370 C3368 1.363 . S
C3370 C3371 1.370 . S
C3370 C3374 1.524 1_545 S
C3371 C3363 1.503 1_545 S
C3371 C3370 1.370 . S
C3371 C3372 1.403 . S
C3372 C3371 1.403 . S
C3372 C3373 1.404 . S
C3372 C3375 1.539 . S
C3373 C3369 1.408 . S
C3373 C3372 1.404 . S
C3373 H3385 0.930 . S
C3374 C3370 1.524 1_565 S
C3374 H3386 0.956 . S
C3374 H3387 0.961 . S
C3374 H3388 0.961 1_565 S
C3375 C3372 1.539 . S
C3375 H3389 0.958 . S
C3375 H3390 0.961 . S
C3375 H3391 0.960 . S
H3376 C3360 0.931 . S
H3377 C3365 0.929 . S
H3378 C3366 0.960 . S
H3379 C3366 0.962 . S
H3380 C3366 0.960 . S
H3381 C3367 0.961 . S
H3382 C3367 0.961 . S
H3383 C3367 0.961 . S
H3384 C3368 0.931 . S
H3385 C3373 0.930 . S
H3386 C3374 0.956 . S
H3387 C3374 0.961 . S
H3388 C3374 0.961 1_545 S
H3389 C3375 0.958 . S
H3390 C3375 0.961 . S
H3391 C3375 0.960 . S
C3392 C3393 1.391 . S
C3392 C3394 1.394 . S
C3392 H3408 0.931 . S
C3393 C3392 1.391 . S
C3393 C3397 1.376 . S
C3394 C3392 1.394 . S
C3394 C3395 1.369 . S
C3394 C3398 1.531 . S
C3395 C3394 1.369 . S
C3395 C3396 1.410 . S
C3395 C3403 1.503 . S
C3396 C3395 1.410 . S
C3396 C3397 1.392 . S
C3396 C3399 1.511 . S
C3397 C3393 1.376 . S
C3397 C3396 1.392 . S
C3397 H3409 0.929 . S
C3398 C3394 1.531 . S
C3398 H3410 0.960 . S
C3398 H3411 0.962 . S
C3398 H3412 0.960 . S
C3399 C3396 1.511 . S
C3399 H3413 0.961 . S
C3399 H3414 0.961 . S
C3399 H3415 0.961 . S
C3400 C3401 1.370 . S
C3400 C3402 1.363 . S
C3400 H3416 0.931 . S
C3401 C3400 1.370 . S
C3401 C3405 1.408 . S
C3402 C3400 1.363 . S
C3402 C3403 1.370 . S
C3402 C3406 1.524 . S
C3403 C3395 1.503 . S
C3403 C3402 1.370 . S
C3403 C3404 1.403 . S
C3404 C3403 1.403 . S
C3404 C3405 1.404 . S
C3404 C3407 1.539 . S
C3405 C3401 1.408 . S
C3405 C3404 1.404 . S
C3405 H3417 0.930 . S
C3406 C3402 1.524 . S
C3406 H3418 0.956 . S
C3406 H3419 0.961 . S
C3406 H3420 0.961 . S
C3407 C3404 1.539 . S
C3407 H3421 0.958 . S
C3407 H3422 0.961 . S
C3407 H3423 0.960 . S
H3408 C3392 0.931 . S
H3409 C3397 0.929 . S
H3410 C3398 0.960 . S
H3411 C3398 0.962 . S
H3412 C3398 0.960 . S
H3413 C3399 0.961 . S
H3414 C3399 0.961 . S
H3415 C3399 0.961 . S
H3416 C3400 0.931 . S
H3417 C3405 0.930 . S
H3418 C3406 0.956 . S
H3419 C3406 0.961 . S
H3420 C3406 0.961 . S
H3421 C3407 0.958 . S
H3422 C3407 0.961 . S
H3423 C3407 0.960 . S
C3424 C3425 1.391 . S
C3424 C3426 1.394 . S
C3424 H3440 0.931 . S
C3425 C3424 1.391 . S
C3425 C3429 1.376 . S
C3426 C3424 1.394 . S
C3426 C3427 1.369 . S
C3426 C3430 1.531 1_565 S
C3427 C3426 1.369 . S
C3427 C3428 1.410 . S
C3427 C3435 1.503 1_565 S
C3428 C3427 1.410 . S
C3428 C3429 1.392 . S
C3428 C3431 1.511 . S
C3429 C3425 1.376 . S
C3429 C3428 1.392 . S
C3429 H3441 0.929 . S
C3430 C3426 1.531 1_545 S
C3430 H3442 0.960 . S
C3430 H3443 0.962 . S
C3430 H3444 0.960 . S
C3431 C3428 1.511 . S
C3431 H3445 0.961 . S
C3431 H3446 0.961 . S
C3431 H3447 0.961 . S
C3432 C3433 1.370 . S
C3432 C3434 1.363 . S
C3432 H3448 0.931 . S
C3433 C3432 1.370 . S
C3433 C3437 1.408 . S
C3434 C3432 1.363 . S
C3434 C3435 1.370 . S
C3434 C3438 1.524 1_545 S
C3435 C3427 1.503 1_545 S
C3435 C3434 1.370 . S
C3435 C3436 1.403 . S
C3436 C3435 1.403 . S
C3436 C3437 1.404 . S
C3436 C3439 1.539 . S
C3437 C3433 1.408 . S
C3437 C3436 1.404 . S
C3437 H3449 0.930 . S
C3438 C3434 1.524 1_565 S
C3438 H3450 0.956 . S
C3438 H3451 0.961 . S
C3438 H3452 0.961 . S
C3439 C3436 1.539 . S
C3439 H3453 0.958 . S
C3439 H3454 0.961 . S
C3439 H3455 0.960 . S
H3440 C3424 0.931 . S
H3441 C3429 0.929 . S
H3442 C3430 0.960 . S
H3443 C3430 0.962 . S
H3444 C3430 0.960 . S
H3445 C3431 0.961 . S
H3446 C3431 0.961 . S
H3447 C3431 0.961 . S
H3448 C3432 0.931 . S
H3449 C3437 0.930 . S
H3450 C3438 0.956 . S
H3451 C3438 0.961 . S
H3452 C3438 0.961 . S
H3453 C3439 0.958 . S
H3454 C3439 0.961 . S
H3455 C3439 0.960 . S
C3456 C3457 1.391 . S
C3456 C3458 1.394 . S
C3456 H3472 0.931 . S
C3457 C3456 1.391 . S
C3457 C3461 1.376 . S
C3458 C3456 1.394 . S
C3458 C3459 1.369 . S
C3458 C3462 1.531 1_554 S
C3459 C3458 1.369 . S
C3459 C3460 1.410 . S
C3459 C3467 1.503 1_554 S
C3460 C3459 1.410 . S
C3460 C3461 1.392 . S
C3460 C3463 1.511 . S
C3461 C3457 1.376 . S
C3461 C3460 1.392 . S
C3461 H3473 0.929 . S
C3462 C3458 1.531 1_556 S
C3462 H3474 0.960 . S
C3462 H3475 0.962 . S
C3462 H3476 0.960 . S
C3463 C3460 1.511 . S
C3463 H3477 0.961 . S
C3463 H3478 0.961 . S
C3463 H3479 0.961 . S
C3464 C3465 1.370 . S
C3464 C3466 1.363 . S
C3464 H3480 0.931 . S
C3465 C3464 1.370 . S
C3465 C3469 1.408 . S
C3466 C3464 1.363 . S
C3466 C3467 1.370 . S
C3466 C3470 1.524 . S
C3467 C3459 1.503 1_556 S
C3467 C3466 1.370 . S
C3467 C3468 1.403 . S
C3468 C3467 1.403 . S
C3468 C3469 1.404 . S
C3468 C3471 1.539 1_556 S
C3469 C3465 1.408 . S
C3469 C3468 1.404 . S
C3469 H3481 0.930 . S
C3470 C3466 1.524 . S
C3470 H3482 0.956 . S
C3470 H3483 0.961 . S
C3470 H3484 0.961 . S
C3471 C3468 1.539 1_554 S
C3471 H3485 0.958 . S
C3471 H3486 0.961 . S
C3471 H3487 0.960 . S
H3472 C3456 0.931 . S
H3473 C3461 0.929 . S
H3474 C3462 0.960 . S
H3475 C3462 0.962 . S
H3476 C3462 0.960 . S
H3477 C3463 0.961 . S
H3478 C3463 0.961 . S
H3479 C3463 0.961 . S
H3480 C3464 0.931 . S
H3481 C3469 0.930 . S
H3482 C3470 0.956 . S
H3483 C3470 0.961 . S
H3484 C3470 0.961 . S
H3485 C3471 0.958 . S
H3486 C3471 0.961 . S
H3487 C3471 0.960 . S
C3488 C3489 1.391 . S
C3488 C3490 1.394 . S
C3488 H3504 0.931 . S
C3489 C3488 1.391 . S
C3489 C3493 1.376 . S
C3490 C3488 1.394 . S
C3490 C3491 1.369 . S
C3490 C3494 1.531 . S
C3491 C3490 1.369 . S
C3491 C3492 1.410 . S
C3491 C3499 1.503 . S
C3492 C3491 1.410 . S
C3492 C3493 1.392 . S
C3492 C3495 1.511 . S
C3493 C3489 1.376 . S
C3493 C3492 1.392 . S
C3493 H3505 0.929 . S
C3494 C3490 1.531 . S
C3494 H3506 0.960 . S
C3494 H3507 0.962 . S
C3494 H3508 0.960 . S
C3495 C3492 1.511 . S
C3495 H3509 0.961 . S
C3495 H3510 0.961 . S
C3495 H3511 0.961 . S
C3496 C3497 1.370 . S
C3496 C3498 1.363 . S
C3496 H3512 0.931 . S
C3497 C3496 1.370 . S
C3497 C3501 1.408 . S
C3498 C3496 1.363 . S
C3498 C3499 1.370 . S
C3498 C3502 1.524 . S
C3499 C3491 1.503 . S
C3499 C3498 1.370 . S
C3499 C3500 1.403 . S
C3500 C3499 1.403 . S
C3500 C3501 1.404 . S
C3500 C3503 1.539 . S
C3501 C3497 1.408 . S
C3501 C3500 1.404 . S
C3501 H3513 0.930 . S
C3502 C3498 1.524 . S
C3502 H3514 0.956 . S
C3502 H3515 0.961 . S
C3502 H3516 0.961 . S
C3503 C3500 1.539 . S
C3503 H3517 0.958 . S
C3503 H3518 0.961 . S
C3503 H3519 0.960 . S
H3504 C3488 0.931 . S
H3505 C3493 0.929 . S
H3506 C3494 0.960 . S
H3507 C3494 0.962 . S
H3508 C3494 0.960 . S
H3509 C3495 0.961 . S
H3510 C3495 0.961 . S
H3511 C3495 0.961 . S
H3512 C3496 0.931 . S
H3513 C3501 0.930 . S
H3514 C3502 0.956 . S
H3515 C3502 0.961 . S
H3516 C3502 0.961 . S
H3517 C3503 0.958 . S
H3518 C3503 0.961 . S
H3519 C3503 0.960 . S
C3520 C3521 1.391 . S
C3520 C3522 1.394 . S
C3520 H3536 0.931 . S
C3521 C3520 1.391 . S
C3521 C3525 1.376 . S
C3522 C3520 1.394 . S
C3522 C3523 1.369 . S
C3522 C3526 1.531 1_556 S
C3523 C3522 1.369 . S
C3523 C3524 1.410 . S
C3523 C3531 1.503 1_556 S
C3524 C3523 1.410 . S
C3524 C3525 1.392 . S
C3524 C3527 1.511 . S
C3525 C3521 1.376 . S
C3525 C3524 1.392 . S
C3525 H3537 0.929 . S
C3526 C3522 1.531 1_554 S
C3526 H3538 0.960 . S
C3526 H3539 0.962 . S
C3526 H3540 0.960 1_554 S
C3527 C3524 1.511 . S
C3527 H3541 0.961 . S
C3527 H3542 0.961 . S
C3527 H3543 0.961 . S
C3528 C3529 1.370 . S
C3528 C3530 1.363 . S
C3528 H3544 0.931 . S
C3529 C3528 1.370 . S
C3529 C3533 1.408 . S
C3530 C3528 1.363 . S
C3530 C3531 1.370 . S
C3530 C3534 1.524 . S
C3531 C3523 1.503 1_554 S
C3531 C3530 1.370 . S
C3531 C3532 1.403 . S
C3532 C3531 1.403 . S
C3532 C3533 1.404 . S
C3532 C3535 1.539 1_554 S
C3533 C3529 1.408 . S
C3533 C3532 1.404 . S
C3533 H3545 0.930 . S
C3534 C3530 1.524 . S
C3534 H3546 0.956 . S
C3534 H3547 0.961 . S
C3534 H3548 0.961 . S
C3535 C3532 1.539 1_556 S
C3535 H3549 0.958 . S
C3535 H3550 0.961 . S
C3535 H3551 0.960 . S
H3536 C3520 0.931 . S
H3537 C3525 0.929 . S
H3538 C3526 0.960 . S
H3539 C3526 0.962 . S
H3540 C3526 0.960 1_556 S
H3541 C3527 0.961 . S
H3542 C3527 0.961 . S
H3543 C3527 0.961 . S
H3544 C3528 0.931 . S
H3545 C3533 0.930 . S
H3546 C3534 0.956 . S
H3547 C3534 0.961 . S
H3548 C3534 0.961 . S
H3549 C3535 0.958 . S
H3550 C3535 0.961 . S
H3551 C3535 0.960 . S
C3552 C3553 1.391 . S
C3552 C3554 1.394 . S
C3552 H3568 0.931 . S
C3553 C3552 1.391 . S
C3553 C3557 1.376 . S
C3554 C3552 1.394 . S
C3554 C3555 1.369 . S
C3554 C3558 1.531 . S
C3555 C3554 1.369 . S
C3555 C3556 1.410 . S
C3555 C3563 1.503 . S
C3556 C3555 1.410 . S
C3556 C3557 1.392 . S
C3556 C3559 1.511 . S
C3557 C3553 1.376 . S
C3557 C3556 1.392 . S
C3557 H3569 0.929 . S
C3558 C3554 1.531 . S
C3558 H3570 0.960 . S
C3558 H3571 0.962 . S
C3558 H3572 0.960 . S
C3559 C3556 1.511 . S
C3559 H3573 0.961 . S
C3559 H3574 0.961 . S
C3559 H3575 0.961 . S
C3560 C3561 1.370 . S
C3560 C3562 1.363 . S
C3560 H3576 0.931 . S
C3561 C3560 1.370 . S
C3561 C3565 1.408 . S
C3562 C3560 1.363 . S
C3562 C3563 1.370 . S
C3562 C3566 1.524 . S
C3563 C3555 1.503 . S
C3563 C3562 1.370 . S
C3563 C3564 1.403 . S
C3564 C3563 1.403 . S
C3564 C3565 1.404 . S
C3564 C3567 1.539 . S
C3565 C3561 1.408 . S
C3565 C3564 1.404 . S
C3565 H3577 0.930 . S
C3566 C3562 1.524 . S
C3566 H3578 0.956 . S
C3566 H3579 0.961 . S
C3566 H3580 0.961 . S
C3567 C3564 1.539 . S
C3567 H3581 0.958 . S
C3567 H3582 0.961 . S
C3567 H3583 0.960 . S
H3568 C3552 0.931 . S
H3569 C3557 0.929 . S
H3570 C3558 0.960 . S
H3571 C3558 0.962 . S
H3572 C3558 0.960 . S
H3573 C3559 0.961 . S
H3574 C3559 0.961 . S
H3575 C3559 0.961 . S
H3576 C3560 0.931 . S
H3577 C3565 0.930 . S
H3578 C3566 0.956 . S
H3579 C3566 0.961 . S
H3580 C3566 0.961 . S
H3581 C3567 0.958 . S
H3582 C3567 0.961 . S
H3583 C3567 0.960 . S
C3584 C3585 1.391 . S
C3584 C3586 1.394 . S
C3584 H3600 0.931 . S
C3585 C3584 1.391 . S
C3585 C3589 1.376 . S
C3586 C3584 1.394 . S
C3586 C3587 1.369 . S
C3586 C3590 1.531 . S
C3587 C3586 1.369 . S
C3587 C3588 1.410 . S
C3587 C3595 1.503 . S
C3588 C3587 1.410 . S
C3588 C3589 1.392 . S
C3588 C3591 1.511 . S
C3589 C3585 1.376 . S
C3589 C3588 1.392 . S
C3589 H3601 0.929 . S
C3590 C3586 1.531 . S
C3590 H3602 0.960 . S
C3590 H3603 0.962 . S
C3590 H3604 0.960 . S
C3591 C3588 1.511 . S
C3591 H3605 0.961 . S
C3591 H3606 0.961 . S
C3591 H3607 0.961 . S
C3592 C3593 1.370 . S
C3592 C3594 1.363 . S
C3592 H3608 0.931 . S
C3593 C3592 1.370 . S
C3593 C3597 1.408 . S
C3594 C3592 1.363 . S
C3594 C3595 1.370 . S
C3594 C3598 1.524 . S
C3595 C3587 1.503 . S
C3595 C3594 1.370 . S
C3595 C3596 1.403 . S
C3596 C3595 1.403 . S
C3596 C3597 1.404 . S
C3596 C3599 1.539 . S
C3597 C3593 1.408 . S
C3597 C3596 1.404 . S
C3597 H3609 0.930 . S
C3598 C3594 1.524 . S
C3598 H3610 0.956 . S
C3598 H3611 0.961 . S
C3598 H3612 0.961 . S
C3599 C3596 1.539 . S
C3599 H3613 0.958 . S
C3599 H3614 0.961 . S
C3599 H3615 0.960 . S
H3600 C3584 0.931 . S
H3601 C3589 0.929 . S
H3602 C3590 0.960 . S
H3603 C3590 0.962 . S
H3604 C3590 0.960 . S
H3605 C3591 0.961 . S
H3606 C3591 0.961 . S
H3607 C3591 0.961 . S
H3608 C3592 0.931 . S
H3609 C3597 0.930 . S
H3610 C3598 0.956 . S
H3611 C3598 0.961 . S
H3612 C3598 0.961 . S
H3613 C3599 0.958 . S
H3614 C3599 0.961 . S
H3615 C3599 0.960 . S
C3616 C3617 1.391 . S
C3616 C3618 1.394 . S
C3616 H3632 0.931 . S
C3617 C3616 1.391 . S
C3617 C3621 1.376 . S
C3618 C3616 1.394 . S
C3618 C3619 1.369 . S
C3618 C3622 1.531 . S
C3619 C3618 1.369 . S
C3619 C3620 1.410 . S
C3619 C3627 1.503 . S
C3620 C3619 1.410 . S
C3620 C3621 1.392 . S
C3620 C3623 1.511 . S
C3621 C3617 1.376 . S
C3621 C3620 1.392 . S
C3621 H3633 0.929 . S
C3622 C3618 1.531 . S
C3622 H3634 0.960 . S
C3622 H3635 0.962 . S
C3622 H3636 0.960 . S
C3623 C3620 1.511 . S
C3623 H3637 0.961 . S
C3623 H3638 0.961 . S
C3623 H3639 0.961 . S
C3624 C3625 1.370 . S
C3624 C3626 1.363 . S
C3624 H3640 0.931 . S
C3625 C3624 1.370 . S
C3625 C3629 1.408 . S
C3626 C3624 1.363 . S
C3626 C3627 1.370 . S
C3626 C3630 1.524 . S
C3627 C3619 1.503 . S
C3627 C3626 1.370 . S
C3627 C3628 1.403 . S
C3628 C3627 1.403 . S
C3628 C3629 1.404 . S
C3628 C3631 1.539 . S
C3629 C3625 1.408 . S
C3629 C3628 1.404 . S
C3629 H3641 0.930 . S
C3630 C3626 1.524 . S
C3630 H3642 0.956 . S
C3630 H3643 0.961 . S
C3630 H3644 0.961 . S
C3631 C3628 1.539 . S
C3631 H3645 0.958 . S
C3631 H3646 0.961 . S
C3631 H3647 0.960 . S
H3632 C3616 0.931 . S
H3633 C3621 0.929 . S
H3634 C3622 0.960 . S
H3635 C3622 0.962 . S
H3636 C3622 0.960 . S
H3637 C3623 0.961 . S
H3638 C3623 0.961 . S
H3639 C3623 0.961 . S
H3640 C3624 0.931 . S
H3641 C3629 0.930 . S
H3642 C3630 0.956 . S
H3643 C3630 0.961 . S
H3644 C3630 0.961 . S
H3645 C3631 0.958 . S
H3646 C3631 0.961 . S
H3647 C3631 0.960 . S
C3648 C3649 1.391 . S
C3648 C3650 1.394 . S
C3648 H3664 0.931 . S
C3649 C3648 1.391 . S
C3649 C3653 1.376 . S
C3650 C3648 1.394 . S
C3650 C3651 1.369 . S
C3650 C3654 1.531 1_556 S
C3651 C3650 1.369 . S
C3651 C3652 1.410 . S
C3651 C3659 1.503 1_556 S
C3652 C3651 1.410 . S
C3652 C3653 1.392 . S
C3652 C3655 1.511 . S
C3653 C3649 1.376 . S
C3653 C3652 1.392 . S
C3653 H3665 0.929 . S
C3654 C3650 1.531 1_554 S
C3654 H3666 0.960 . S
C3654 H3667 0.962 . S
C3654 H3668 0.960 . S
C3655 C3652 1.511 . S
C3655 H3669 0.961 . S
C3655 H3670 0.961 . S
C3655 H3671 0.961 . S
C3656 C3657 1.370 . S
C3656 C3658 1.363 . S
C3656 H3672 0.931 . S
C3657 C3656 1.370 . S
C3657 C3661 1.408 . S
C3658 C3656 1.363 . S
C3658 C3659 1.370 . S
C3658 C3662 1.524 1_554 S
C3659 C3651 1.503 1_554 S
C3659 C3658 1.370 . S
C3659 C3660 1.403 . S
C3660 C3659 1.403 . S
C3660 C3661 1.404 . S
C3660 C3663 1.539 . S
C3661 C3657 1.408 . S
C3661 C3660 1.404 . S
C3661 H3673 0.930 . S
C3662 C3658 1.524 1_556 S
C3662 H3674 0.956 . S
C3662 H3675 0.961 . S
C3662 H3676 0.961 . S
C3663 C3660 1.539 . S
C3663 H3677 0.958 . S
C3663 H3678 0.961 . S
C3663 H3679 0.960 . S
H3664 C3648 0.931 . S
H3665 C3653 0.929 . S
H3666 C3654 0.960 . S
H3667 C3654 0.962 . S
H3668 C3654 0.960 . S
H3669 C3655 0.961 . S
H3670 C3655 0.961 . S
H3671 C3655 0.961 . S
H3672 C3656 0.931 . S
H3673 C3661 0.930 . S
H3674 C3662 0.956 . S
H3675 C3662 0.961 . S
H3676 C3662 0.961 . S
H3677 C3663 0.958 . S
H3678 C3663 0.961 . S
H3679 C3663 0.960 . S
C3680 C3681 1.391 . S
C3680 C3682 1.394 . S
C3680 H3696 0.931 . S
C3681 C3680 1.391 . S
C3681 C3685 1.376 . S
C3682 C3680 1.394 . S
C3682 C3683 1.369 . S
C3682 C3686 1.531 . S
C3683 C3682 1.369 . S
C3683 C3684 1.410 . S
C3683 C3691 1.503 . S
C3684 C3683 1.410 . S
C3684 C3685 1.392 . S
C3684 C3687 1.511 . S
C3685 C3681 1.376 . S
C3685 C3684 1.392 . S
C3685 H3697 0.929 . S
C3686 C3682 1.531 . S
C3686 H3698 0.960 . S
C3686 H3699 0.962 . S
C3686 H3700 0.960 . S
C3687 C3684 1.511 . S
C3687 H3701 0.961 . S
C3687 H3702 0.961 . S
C3687 H3703 0.961 . S
C3688 C3689 1.370 . S
C3688 C3690 1.363 . S
C3688 H3704 0.931 . S
C3689 C3688 1.370 . S
C3689 C3693 1.408 . S
C3690 C3688 1.363 . S
C3690 C3691 1.370 . S
C3690 C3694 1.524 . S
C3691 C3683 1.503 . S
C3691 C3690 1.370 . S
C3691 C3692 1.403 . S
C3692 C3691 1.403 . S
C3692 C3693 1.404 . S
C3692 C3695 1.539 . S
C3693 C3689 1.408 . S
C3693 C3692 1.404 . S
C3693 H3705 0.930 . S
C3694 C3690 1.524 . S
C3694 H3706 0.956 . S
C3694 H3707 0.961 . S
C3694 H3708 0.961 . S
C3695 C3692 1.539 . S
C3695 H3709 0.958 . S
C3695 H3710 0.961 . S
C3695 H3711 0.960 . S
H3696 C3680 0.931 . S
H3697 C3685 0.929 . S
H3698 C3686 0.960 . S
H3699 C3686 0.962 . S
H3700 C3686 0.960 . S
H3701 C3687 0.961 . S
H3702 C3687 0.961 . S
H3703 C3687 0.961 . S
H3704 C3688 0.931 . S
H3705 C3693 0.930 . S
H3706 C3694 0.956 . S
H3707 C3694 0.961 . S
H3708 C3694 0.961 . S
H3709 C3695 0.958 . S
H3710 C3695 0.961 . S
H3711 C3695 0.960 . S
C3712 C3713 1.391 . S
C3712 C3714 1.394 . S
C3712 H3728 0.931 . S
C3713 C3712 1.391 . S
C3713 C3717 1.376 . S
C3714 C3712 1.394 . S
C3714 C3715 1.369 . S
C3714 C3718 1.531 . S
C3715 C3714 1.369 . S
C3715 C3716 1.410 . S
C3715 C3723 1.503 . S
C3716 C3715 1.410 . S
C3716 C3717 1.392 . S
C3716 C3719 1.511 . S
C3717 C3713 1.376 . S
C3717 C3716 1.392 . S
C3717 H3729 0.929 . S
C3718 C3714 1.531 . S
C3718 H3730 0.960 . S
C3718 H3731 0.962 . S
C3718 H3732 0.960 . S
C3719 C3716 1.511 . S
C3719 H3733 0.961 . S
C3719 H3734 0.961 . S
C3719 H3735 0.961 . S
C3720 C3721 1.370 . S
C3720 C3722 1.363 . S
C3720 H3736 0.931 . S
C3721 C3720 1.370 . S
C3721 C3725 1.408 . S
C3722 C3720 1.363 . S
C3722 C3723 1.370 . S
C3722 C3726 1.524 . S
C3723 C3715 1.503 . S
C3723 C3722 1.370 . S
C3723 C3724 1.403 . S
C3724 C3723 1.403 . S
C3724 C3725 1.404 . S
C3724 C3727 1.539 . S
C3725 C3721 1.408 . S
C3725 C3724 1.404 . S
C3725 H3737 0.930 . S
C3726 C3722 1.524 . S
C3726 H3738 0.956 . S
C3726 H3739 0.961 . S
C3726 H3740 0.961 . S
C3727 C3724 1.539 . S
C3727 H3741 0.958 . S
C3727 H3742 0.961 . S
C3727 H3743 0.960 . S
H3728 C3712 0.931 . S
H3729 C3717 0.929 . S
H3730 C3718 0.960 . S
H3731 C3718 0.962 . S
H3732 C3718 0.960 . S
H3733 C3719 0.961 . S
H3734 C3719 0.961 . S
H3735 C3719 0.961 . S
H3736 C3720 0.931 . S
H3737 C3725 0.930 . S
H3738 C3726 0.956 . S
H3739 C3726 0.961 . S
H3740 C3726 0.961 . S
H3741 C3727 0.958 . S
H3742 C3727 0.961 . S
H3743 C3727 0.960 . S
C673 C3 0.825 . S
C681 C570 0.921 . S
C705 C37 0.795 . S
C713 C171 0.918 . S
C737 C45 0.877 . S
C745 C541 0.872 . S
C769 C213 0.888 . S
C777 C66 0.889 . S
C801 C100 0.768 . S
C809 C625 0.910 . S
C833 C310 0.898 . S
C841 C121 0.813 . S
C865 C667 0.953 . S
C873 C129 0.838 . S
C897 C150 0.808 . S
C905 C255 0.920 . S
C929 C184 0.876 . S
C937 C402 0.922 . S
C961 C205 0.925 . S
C969 C16 0.887 . S
C993 C360 0.868 . S
C1001 C226 0.814 . S
C1025 C58 0.841 . S
C1033 C247 0.827 . S
C1057 C268 0.779 . S
C1065 C444 0.907 . S
C1089 C276 0.778 . S
C1097 C142 0.907 . S
C1121 C297 0.939 . S
C1129 C499 0.905 . S
C1153 C87 0.895 . S
C1161 C318 0.888 . S
C1185 C234 0.933 . S
C1193 C352 0.879 . S
C1217 C507 0.915 . S
C1225 C373 0.814 . S
C1249 C192 0.892 . S
C1257 C381 0.814 . S
C1281 C415 0.765 . S
C1289 C549 0.909 . S
C1313 C289 0.955 . S
C1321 C423 0.844 . S
C1345 C633 0.943 . S
C1353 C457 0.825 . S
C1377 C331 0.835 . S
C1385 C478 0.859 . S
C1409 C486 0.861 . S
C1417 C591 0.872 . S
C1441 C520 0.895 . S
C1449 C79 0.921 . S
C1473 C528 0.760 . S
C1481 C339 0.897 . S
C1505 C562 0.909 . S
C1513 C24 0.919 . S
C1537 C583 0.859 . S
C1545 C394 0.873 . S
C1569 C108 0.952 . S
C1577 C604 0.872 . S
C1601 C465 0.835 . S
C1609 C612 0.850 . S
C1633 C646 0.789 . S
C1641 C163 0.875 . S
C1665 C654 0.939 . S
C1673 C436 0.899 . S
C1697 C4 0.899 . S
C1705 C382 0.972 . S
C1729 C406 0.966 . S
C1737 C28 0.954 . S
C1761 C46 0.883 . S
C1769 C343 0.980 . S
C1793 C67 0.996 . S
C1801 C364 0.932 . S
C1825 C469 0.937 . S
C1833 C91 0.965 . S
C1857 C112 1.024 . S
C1865 C487 0.923 . S
C1889 C424 1.018 . S
C1897 C130 0.924 . S
C1921 C151 0.951 . S
C1929 C448 0.950 . S
C1953 C553 0.883 . S
C1961 C175 0.980 . S
C1985 C196 1.022 . S
C1993 C574 0.925 . S
C2017 C217 1.011 . S
C2025 C511 0.926 . S
C2049 C238 0.897 . S
C2057 C529 0.979 . S
C2081 C637 1.020 . S
C2089 C259 0.923 . S
C2113 C655 0.998 . S
C2121 C277 0.939 . S
C2145 C298 0.895 . S
C2153 C595 0.980 . S
C2177 C319 0.896 . S
C2185 C613 0.980 . S
C2209 C20 1.465 . S
C2217 C523 1.408 . S
C2241 C208 1.454 . S
C2249 C40 1.412 . S
C2273 C62 1.423 . S
C2281 C565 1.424 . S
C2305 C83 1.479 . S
C2313 C250 1.404 . S
C2337 C607 1.464 . S
C2345 C103 1.408 . S
C2369 C293 1.375 . S
C2377 C124 1.445 . S
C2401 C146 1.475 . S
C2409 C649 1.407 . S
C2433 C167 1.369 . S
C2441 C335 1.450 . S
C2465 C355 1.419 . S
C2473 C187 1.433 . S
C2497 C398 1.385 . S
C2505 C229 1.441 . S
C2529 C440 1.451 . S
C2537 C271 1.413 . S
C2561 C314 1.368 . S
C2569 C481 1.450 . S
C2593 C376 1.371 . S
C2601 C545 1.447 . S
C2625 C418 1.387 . S
C2633 C586 1.445 . S
C2657 C629 1.382 . S
C2665 C460 1.442 . S
C2689 C671 1.479 . S
C2697 C503 1.405 . S
C2721 C7 1.384 . S
C2729 C109 1.356 . S
C2753 C133 1.275 . S
C2761 C25 1.319 . S
C2785 C154 1.340 . S
C2793 C49 1.354 . S
C2817 C88 1.364 . S
C2825 C70 1.358 . S
C2849 C172 1.284 . S
C2857 C280 1.323 . S
C2881 C193 1.371 . S
C2889 C301 1.341 . S
C2913 C322 1.365 . S
C2921 C214 1.356 . S
C2945 C235 1.372 . S
C2953 C256 1.342 . S
C2977 C340 1.287 . S
C2985 C445 1.311 . S
C3009 C361 1.322 . S
C3017 C466 1.348 . S
C3041 C385 1.302 . S
C3049 C490 1.340 . S
C3073 C427 1.366 . S
C3081 C403 1.331 . S
C3105 C508 1.380 . S
C3113 C616 1.347 . S
C3137 C532 1.373 . S
C3145 C634 1.357 . S
C3169 C658 1.275 . S
C3177 C550 1.313 . S
C3201 C571 1.312 . S
C3209 C592 1.317 . S
C3233 C19 1.351 . S
C3241 C104 1.361 . S
C3265 C41 1.338 . S
C3273 C125 1.348 . S
C3297 C145 1.305 . S
C3305 C61 1.365 . S
C3329 C166 1.368 . S
C3337 C82 1.337 . S
C3361 C188 1.328 . S
C3369 C272 1.359 . S
C3393 C292 1.374 . S
C3401 C209 1.344 . S
C3425 C313 1.334 . S
C3433 C230 1.361 . S
C3457 C334 1.311 . S
C3465 C251 1.366 . S
C3489 C356 1.345 . S
C3497 C439 1.363 . S
C3521 C461 1.313 . S
C3529 C377 1.372 . S
C3553 C397 1.396 . S
C3561 C482 1.337 . S
C3585 C502 1.316 . S
C3593 C419 1.358 . S
C3617 C608 1.330 . S
C3625 C524 1.358 . S
C3649 C544 1.377 . S
C3657 C628 1.339 . S
C3681 C566 1.302 . S
C3689 C650 1.371 . S
C3713 C587 1.368 . S
C3721 C670 1.342 . S
