# Generated by pormake.
# Topology gme, (4)-cn, num edge types: 1
# Building blocks:
#     Node 0, Type 0, BuildingBlock: GALJAG_clean_sbu_0, # of connection points: 4
#     Node 1, Type 0, BuildingBlock: GALJAG_clean_sbu_0, # of connection points: 4
#     Node 2, Type 0, BuildingBlock: GALJAG_clean_sbu_0, # of connection points: 4
#     Node 3, Type 0, BuildingBlock: GALJAG_clean_sbu_0, # of connection points: 4
#     Node 4, Type 0, BuildingBlock: GALJAG_clean_sbu_0, # of connection points: 4
#     Node 5, Type 0, BuildingBlock: GALJAG_clean_sbu_0, # of connection points: 4
#     Node 6, Type 0, BuildingBlock: GALJAG_clean_sbu_0, # of connection points: 4
#     Node 7, Type 0, BuildingBlock: GALJAG_clean_sbu_0, # of connection points: 4
#     Node 8, Type 0, BuildingBlock: GALJAG_clean_sbu_0, # of connection points: 4
#     Node 9, Type 0, BuildingBlock: GALJAG_clean_sbu_0, # of connection points: 4
#     Node 10, Type 0, BuildingBlock: GALJAG_clean_sbu_0, # of connection points: 4
#     Node 11, Type 0, BuildingBlock: GALJAG_clean_sbu_0, # of connection points: 4
#     Node 12, Type 0, BuildingBlock: GALJAG_clean_sbu_0, # of connection points: 4
#     Node 13, Type 0, BuildingBlock: GALJAG_clean_sbu_0, # of connection points: 4
#     Node 14, Type 0, BuildingBlock: GALJAG_clean_sbu_0, # of connection points: 4
#     Node 15, Type 0, BuildingBlock: GALJAG_clean_sbu_0, # of connection points: 4
#     Node 16, Type 0, BuildingBlock: GALJAG_clean_sbu_0, # of connection points: 4
#     Node 17, Type 0, BuildingBlock: GALJAG_clean_sbu_0, # of connection points: 4
#     Node 18, Type 0, BuildingBlock: GALJAG_clean_sbu_0, # of connection points: 4
#     Node 19, Type 0, BuildingBlock: GALJAG_clean_sbu_0, # of connection points: 4
#     Node 20, Type 0, BuildingBlock: GALJAG_clean_sbu_0, # of connection points: 4
#     Node 21, Type 0, BuildingBlock: GALJAG_clean_sbu_0, # of connection points: 4
#     Node 22, Type 0, BuildingBlock: GALJAG_clean_sbu_0, # of connection points: 4
#     Node 23, Type 0, BuildingBlock: GALJAG_clean_sbu_0, # of connection points: 4
#     Edge 24, Type (0, 0), BuildingBlock: KIFKEQ_clean_linker_1, # of connection points: 2
#     Edge 25, Type (0, 0), BuildingBlock: KIFKEQ_clean_linker_1, # of connection points: 2
#     Edge 26, Type (0, 0), BuildingBlock: KIFKEQ_clean_linker_1, # of connection points: 2
#     Edge 27, Type (0, 0), BuildingBlock: KIFKEQ_clean_linker_1, # of connection points: 2
#     Edge 28, Type (0, 0), BuildingBlock: KIFKEQ_clean_linker_1, # of connection points: 2
#     Edge 29, Type (0, 0), BuildingBlock: KIFKEQ_clean_linker_1, # of connection points: 2
#     Edge 30, Type (0, 0), BuildingBlock: KIFKEQ_clean_linker_1, # of connection points: 2
#     Edge 31, Type (0, 0), BuildingBlock: KIFKEQ_clean_linker_1, # of connection points: 2
#     Edge 32, Type (0, 0), BuildingBlock: KIFKEQ_clean_linker_1, # of connection points: 2
#     Edge 33, Type (0, 0), BuildingBlock: KIFKEQ_clean_linker_1, # of connection points: 2
#     Edge 34, Type (0, 0), BuildingBlock: KIFKEQ_clean_linker_1, # of connection points: 2
#     Edge 35, Type (0, 0), BuildingBlock: KIFKEQ_clean_linker_1, # of connection points: 2
#     Edge 36, Type (0, 0), BuildingBlock: KIFKEQ_clean_linker_1, # of connection points: 2
#     Edge 37, Type (0, 0), BuildingBlock: KIFKEQ_clean_linker_1, # of connection points: 2
#     Edge 38, Type (0, 0), BuildingBlock: KIFKEQ_clean_linker_1, # of connection points: 2
#     Edge 39, Type (0, 0), BuildingBlock: KIFKEQ_clean_linker_1, # of connection points: 2
#     Edge 40, Type (0, 0), BuildingBlock: KIFKEQ_clean_linker_1, # of connection points: 2
#     Edge 41, Type (0, 0), BuildingBlock: KIFKEQ_clean_linker_1, # of connection points: 2
#     Edge 42, Type (0, 0), BuildingBlock: KIFKEQ_clean_linker_1, # of connection points: 2
#     Edge 43, Type (0, 0), BuildingBlock: KIFKEQ_clean_linker_1, # of connection points: 2
#     Edge 44, Type (0, 0), BuildingBlock: KIFKEQ_clean_linker_1, # of connection points: 2
#     Edge 45, Type (0, 0), BuildingBlock: KIFKEQ_clean_linker_1, # of connection points: 2
#     Edge 46, Type (0, 0), BuildingBlock: KIFKEQ_clean_linker_1, # of connection points: 2
#     Edge 47, Type (0, 0), BuildingBlock: KIFKEQ_clean_linker_1, # of connection points: 2
#     Edge 48, Type (0, 0), BuildingBlock: KIFKEQ_clean_linker_1, # of connection points: 2
#     Edge 49, Type (0, 0), BuildingBlock: KIFKEQ_clean_linker_1, # of connection points: 2
#     Edge 50, Type (0, 0), BuildingBlock: KIFKEQ_clean_linker_1, # of connection points: 2
#     Edge 51, Type (0, 0), BuildingBlock: KIFKEQ_clean_linker_1, # of connection points: 2
#     Edge 52, Type (0, 0), BuildingBlock: KIFKEQ_clean_linker_1, # of connection points: 2
#     Edge 53, Type (0, 0), BuildingBlock: KIFKEQ_clean_linker_1, # of connection points: 2
#     Edge 54, Type (0, 0), BuildingBlock: KIFKEQ_clean_linker_1, # of connection points: 2
#     Edge 55, Type (0, 0), BuildingBlock: KIFKEQ_clean_linker_1, # of connection points: 2
#     Edge 56, Type (0, 0), BuildingBlock: KIFKEQ_clean_linker_1, # of connection points: 2
#     Edge 57, Type (0, 0), BuildingBlock: KIFKEQ_clean_linker_1, # of connection points: 2
#     Edge 58, Type (0, 0), BuildingBlock: KIFKEQ_clean_linker_1, # of connection points: 2
#     Edge 59, Type (0, 0), BuildingBlock: KIFKEQ_clean_linker_1, # of connection points: 2
#     Edge 60, Type (0, 0), BuildingBlock: KIFKEQ_clean_linker_1, # of connection points: 2
#     Edge 61, Type (0, 0), BuildingBlock: KIFKEQ_clean_linker_1, # of connection points: 2
#     Edge 62, Type (0, 0), BuildingBlock: KIFKEQ_clean_linker_1, # of connection points: 2
#     Edge 63, Type (0, 0), BuildingBlock: KIFKEQ_clean_linker_1, # of connection points: 2
#     Edge 64, Type (0, 0), BuildingBlock: KIFKEQ_clean_linker_1, # of connection points: 2
#     Edge 65, Type (0, 0), BuildingBlock: KIFKEQ_clean_linker_1, # of connection points: 2
#     Edge 66, Type (0, 0), BuildingBlock: KIFKEQ_clean_linker_1, # of connection points: 2
#     Edge 67, Type (0, 0), BuildingBlock: KIFKEQ_clean_linker_1, # of connection points: 2
#     Edge 68, Type (0, 0), BuildingBlock: KIFKEQ_clean_linker_1, # of connection points: 2
#     Edge 69, Type (0, 0), BuildingBlock: KIFKEQ_clean_linker_1, # of connection points: 2
#     Edge 70, Type (0, 0), BuildingBlock: KIFKEQ_clean_linker_1, # of connection points: 2
#     Edge 71, Type (0, 0), BuildingBlock: KIFKEQ_clean_linker_1, # of connection points: 2
# Relax obj value: 0.080
# Max RMSD: 0.062
# Mean RMSD: 0.062
data_MOF--net-gme--node1-GALJAG_clean_sbu_0--edge1-KIFKEQ_clean_linker_1
_symmetry_space_group_name_H-M    P1
_symmetry_Int_Tables_number       1
_symmetry_cell_setting            triclinic
loop_
_symmetry_equiv_pos_as_xyz
'x, y, z'
_cell_length_a     58.958358
_cell_length_b     58.99074
_cell_length_c     56.596801
_cell_angle_alpha  90.045031
_cell_angle_beta   90.019011
_cell_angle_gamma 119.9569
loop_
_atom_site_label
_atom_site_type_symbol
_atom_site_fract_x
_atom_site_fract_y
_atom_site_fract_z
_atom_type_partial_charge
In0 In 0.40405 0.0767 0.12561 0.0
O1 O 0.37273 0.0533 0.15387 0.0
O2 O 0.41271 0.07386 0.16408 0.0
C3 C 0.38066 0.05238 0.08488 0.0
C4 C 0.40289 0.12184 0.1268 0.0
C5 C 0.44859 0.07502 0.12055 0.0
O6 O 0.37338 0.04128 0.10473 0.0
O7 O 0.39938 0.0756 0.08573 0.0
O8 O 0.44779 0.09591 0.11823 0.0
O9 O 0.42684 0.05494 0.12503 0.0
C10 C 0.3893 0.05927 0.17027 0.0
O11 O 0.42378 0.12106 0.1288 0.0
O12 O 0.38251 0.09983 0.12437 0.0
In13 In 0.32519 0.39314 0.62152 0.0
O14 O 0.30262 0.41517 0.6192 0.0
O15 O 0.2809 0.37349 0.61958 0.0
C16 C 0.3688 0.44071 0.62158 0.0
C17 C 0.32656 0.37368 0.66476 0.0
C18 C 0.32508 0.3691 0.58071 0.0
O19 O 0.34769 0.43671 0.63098 0.0
O20 O 0.36778 0.42082 0.6122 0.0
O21 O 0.32612 0.36006 0.60066 0.0
O22 O 0.32372 0.3897 0.58155 0.0
C23 C 0.28041 0.39464 0.61875 0.0
O24 O 0.30593 0.37113 0.65569 0.0
O25 O 0.34637 0.38505 0.65164 0.0
In26 In 0.92336 0.33716 0.11391 0.0
O27 O 0.94334 0.32945 0.14565 0.0
O28 O 0.92398 0.35119 0.15116 0.0
C29 C 0.94981 0.3347 0.07583 0.0
C30 C 0.87789 0.29138 0.11407 0.0
C31 C 0.92446 0.38279 0.10632 0.0
O32 O 0.9612 0.34509 0.09503 0.0
O33 O 0.92539 0.32524 0.07615 0.0
O34 O 0.90332 0.36121 0.10777 0.0
O35 O 0.94497 0.3812 0.10816 0.0
C36 C 0.93683 0.34155 0.16009 0.0
O37 O 0.87969 0.31235 0.10652 0.0
O38 O 0.89902 0.29354 0.12167 0.0
In39 In 0.60631 0.93351 0.61846 0.0
O40 O 0.58193 0.88928 0.61483 0.0
O41 O 0.62328 0.90636 0.61821 0.0
C42 C 0.55956 0.93136 0.61966 0.0
C43 C 0.62758 0.95481 0.66107 0.0
C44 C 0.62973 0.95556 0.577 0.0
O45 O 0.56357 0.91473 0.63003 0.0
O46 O 0.57911 0.94902 0.60884 0.0
O47 O 0.63895 0.96679 0.59654 0.0
O48 O 0.60939 0.93354 0.57866 0.0
C49 C 0.60137 0.88578 0.61571 0.0
O50 O 0.62976 0.9366 0.65179 0.0
O51 O 0.61578 0.96317 0.6484 0.0
In52 In 0.67043 0.59451 0.11525 0.0
O53 O 0.67196 0.62111 0.14596 0.0
O54 O 0.66369 0.58245 0.15354 0.0
C55 C 0.67155 0.62034 0.07554 0.0
C56 C 0.71745 0.59738 0.11418 0.0
C57 C 0.62354 0.55092 0.10973 0.0
O58 O 0.66877 0.62781 0.09575 0.0
O59 O 0.67421 0.60043 0.07564 0.0
O60 O 0.64467 0.55045 0.1113 0.0
O61 O 0.62607 0.57345 0.1108 0.0
C62 C 0.66684 0.60378 0.16148 0.0
O63 O 0.69646 0.57688 0.1088 0.0
O64 O 0.71477 0.61659 0.11995 0.0
In65 In 0.07458 0.6601 0.6144 0.0
O66 O 0.05048 0.66186 0.6458 0.0
O67 O 0.08406 0.65833 0.65263 0.0
C68 C 0.04826 0.65991 0.57524 0.0
C69 C 0.11833 0.7072 0.61114 0.0
C70 C 0.07197 0.61326 0.61132 0.0
O71 O 0.03907 0.65857 0.59571 0.0
O72 O 0.07031 0.66141 0.57483 0.0
O73 O 0.09306 0.63466 0.60893 0.0
O74 O 0.05201 0.61542 0.61504 0.0
C75 C 0.06528 0.66018 0.66107 0.0
O76 O 0.11763 0.68613 0.60565 0.0
O77 O 0.09681 0.70459 0.61809 0.0
In78 In 0.92651 0.5976 0.38184 0.0
O79 O 0.94981 0.62812 0.35298 0.0
O80 O 0.93178 0.58782 0.34423 0.0
C81 C 0.95097 0.62261 0.42213 0.0
C82 C 0.88103 0.59829 0.3809 0.0
C83 C 0.9258 0.55188 0.38709 0.0
O84 O 0.96254 0.62805 0.40242 0.0
O85 O 0.92716 0.60525 0.42127 0.0
O86 O 0.90578 0.55318 0.38133 0.0
O87 O 0.94629 0.57373 0.39021 0.0
C88 C 0.94537 0.61111 0.33732 0.0
O89 O 0.88267 0.57897 0.38814 0.0
O90 O 0.90239 0.61744 0.37409 0.0
In91 In 0.3355 0.92922 0.89172 0.0
O92 O 0.31088 0.88676 0.90278 0.0
O93 O 0.29106 0.90749 0.89363 0.0
C94 C 0.38195 0.93059 0.89033 0.0
C95 C 0.32982 0.93764 0.84573 0.0
C96 C 0.33741 0.95555 0.93131 0.0
O97 O 0.36033 0.90949 0.89025 0.0
O98 O 0.38016 0.95101 0.89094 0.0
O99 O 0.33471 0.96316 0.91114 0.0
O100 O 0.33912 0.93511 0.93116 0.0
C101 C 0.28929 0.88616 0.90014 0.0
O102 O 0.34048 0.95642 0.86024 0.0
O103 O 0.32237 0.91543 0.85451 0.0
In104 In 0.40841 0.3287 0.38897 0.0
O105 O 0.42678 0.30313 0.39366 0.0
O106 O 0.38574 0.28409 0.38727 0.0
C107 C 0.45205 0.37584 0.39382 0.0
C108 C 0.39919 0.32954 0.34233 0.0
C109 C 0.38154 0.32759 0.42804 0.0
O110 O 0.45157 0.35462 0.39809 0.0
O111 O 0.43044 0.37332 0.38728 0.0
O112 O 0.3739 0.32919 0.40755 0.0
O113 O 0.40226 0.32638 0.42854 0.0
C114 C 0.40566 0.28182 0.39086 0.0
O115 O 0.38369 0.32966 0.35773 0.0
O116 O 0.41872 0.32892 0.3506 0.0
In117 In 0.0654 0.40007 0.87921 0.0
O118 O 0.10972 0.42053 0.88246 0.0
O119 O 0.08962 0.38016 0.87322 0.0
C120 C 0.06591 0.44575 0.88454 0.0
C121 C 0.04963 0.386 0.83405 0.0
C122 C 0.03947 0.37429 0.91882 0.0
O123 O 0.08589 0.44359 0.88808 0.0
O124 O 0.04561 0.4248 0.87866 0.0
O125 O 0.02776 0.37362 0.89995 0.0
O126 O 0.06403 0.38726 0.91745 0.0
C127 C 0.11127 0.4005 0.87741 0.0
O128 O 0.04337 0.36921 0.85027 0.0
O129 O 0.06359 0.40938 0.84069 0.0
In130 In 0.66166 0.06413 0.37794 0.0
O131 O 0.68433 0.10837 0.37186 0.0
O132 O 0.70523 0.09014 0.38454 0.0
C133 C 0.61777 0.06727 0.38195 0.0
C134 C 0.66023 0.0419 0.33539 0.0
C135 C 0.66276 0.04148 0.41899 0.0
O136 O 0.63833 0.08509 0.37236 0.0
O137 O 0.61945 0.04802 0.38949 0.0
O138 O 0.65981 0.03016 0.39931 0.0
O139 O 0.66493 0.06381 0.41777 0.0
C140 C 0.706 0.11105 0.37842 0.0
O141 O 0.6403 0.04043 0.34497 0.0
O142 O 0.68068 0.05356 0.34769 0.0
In143 In 0.58949 0.66651 0.88621 0.0
O144 O 0.61386 0.66675 0.85419 0.0
O145 O 0.57667 0.66344 0.84833 0.0
C146 C 0.61692 0.66715 0.9247 0.0
C147 C 0.59367 0.71409 0.88748 0.0
C148 C 0.54546 0.61993 0.89186 0.0
O149 O 0.62326 0.66401 0.90412 0.0
O150 O 0.59728 0.67022 0.92554 0.0
O151 O 0.5464 0.64145 0.89577 0.0
O152 O 0.56683 0.62188 0.88532 0.0
C153 C 0.59685 0.66471 0.83937 0.0
O154 O 0.57269 0.69332 0.89231 0.0
O155 O 0.61274 0.71092 0.8823 0.0
In156 In 0.59977 0.93355 0.88013 0.0
O157 O 0.63142 0.95461 0.85155 0.0
O158 O 0.59145 0.93754 0.84177 0.0
C159 C 0.62364 0.95921 0.9203 0.0
C160 C 0.59986 0.88785 0.87939 0.0
C161 C 0.55476 0.93417 0.88588 0.0
O162 O 0.62942 0.97033 0.90038 0.0
O163 O 0.60633 0.93539 0.91974 0.0
O164 O 0.55643 0.9139 0.88935 0.0
O165 O 0.57587 0.95418 0.8798 0.0
C166 C 0.61499 0.9501 0.8353 0.0
O167 O 0.57939 0.88922 0.87629 0.0
O168 O 0.62038 0.90958 0.88261 0.0
In169 In 0.66291 0.59577 0.3824 0.0
O170 O 0.67474 0.62498 0.35124 0.0
O171 O 0.64319 0.58651 0.34646 0.0
C172 C 0.66211 0.62052 0.42235 0.0
C173 C 0.70915 0.59676 0.38084 0.0
C174 C 0.6194 0.54957 0.39046 0.0
O175 O 0.65592 0.6256 0.40247 0.0
O176 O 0.6693 0.60369 0.4218 0.0
O177 O 0.64137 0.55144 0.38644 0.0
O178 O 0.6195 0.57104 0.39059 0.0
C179 C 0.65768 0.60856 0.33738 0.0
O180 O 0.68743 0.57581 0.37968 0.0
O181 O 0.70757 0.61723 0.38279 0.0
In182 In 0.07796 0.66826 0.88324 0.0
O183 O 0.12171 0.69286 0.88943 0.0
O184 O 0.09928 0.71219 0.88956 0.0
C185 C 0.07517 0.62117 0.88311 0.0
C186 C 0.06806 0.67322 0.83739 0.0
C187 C 0.05331 0.66713 0.92363 0.0
O188 O 0.09665 0.64244 0.88327 0.0
O189 O 0.05513 0.62365 0.88278 0.0
O190 O 0.04571 0.67087 0.90383 0.0
O191 O 0.07281 0.6638 0.92271 0.0
C192 C 0.12152 0.7141 0.89162 0.0
O193 O 0.0498 0.66286 0.8524 0.0
O194 O 0.09057 0.68107 0.84568 0.0
In195 In 0.39837 0.06193 0.38675 0.0
O196 O 0.41847 0.10563 0.37913 0.0
O197 O 0.38141 0.08777 0.39643 0.0
C198 C 0.44571 0.06524 0.38647 0.0
C199 C 0.37647 0.04177 0.34394 0.0
C200 C 0.37729 0.03827 0.42835 0.0
O201 O 0.44321 0.08528 0.38565 0.0
O202 O 0.42445 0.0438 0.38747 0.0
O203 O 0.36622 0.02863 0.40884 0.0
O204 O 0.39852 0.05956 0.42668 0.0
C205 C 0.40039 0.10842 0.38816 0.0
O206 O 0.37151 0.05709 0.35534 0.0
O207 O 0.39135 0.03564 0.3546 0.0
In208 In 0.32975 0.40394 0.88249 0.0
O209 O 0.30523 0.42365 0.87699 0.0
O210 O 0.2851 0.38272 0.88315 0.0
C211 C 0.37496 0.44905 0.88889 0.0
C212 C 0.33456 0.3878 0.83879 0.0
C213 C 0.32926 0.38185 0.9244 0.0
O214 O 0.35333 0.44824 0.88575 0.0
O215 O 0.37374 0.42704 0.88891 0.0
O216 O 0.3329 0.37337 0.90509 0.0
O217 O 0.32559 0.40107 0.92242 0.0
C218 C 0.28351 0.40292 0.87929 0.0
O219 O 0.32072 0.37184 0.85464 0.0
O220 O 0.34602 0.41137 0.84516 0.0
In221 In 0.91733 0.33186 0.38352 0.0
O222 O 0.94176 0.33132 0.35187 0.0
O223 O 0.90862 0.33575 0.34549 0.0
C224 C 0.9428 0.32958 0.42231 0.0
C225 C 0.87315 0.28502 0.38408 0.0
C226 C 0.92119 0.37896 0.38979 0.0
O227 O 0.95274 0.33306 0.40191 0.0
O228 O 0.9203 0.32707 0.42284 0.0
O229 O 0.90014 0.35769 0.39297 0.0
O230 O 0.94044 0.37649 0.38368 0.0
C231 C 0.92744 0.3341 0.33683 0.0
O232 O 0.87342 0.30614 0.38843 0.0
O233 O 0.89527 0.28749 0.37968 0.0
In234 In 0.06253 0.39213 0.61671 0.0
O235 O 0.10659 0.41308 0.62343 0.0
O236 O 0.08858 0.375 0.60819 0.0
C237 C 0.06599 0.43941 0.6139 0.0
C238 C 0.04073 0.37185 0.65949 0.0
C239 C 0.03925 0.36895 0.57557 0.0
O240 O 0.08441 0.43654 0.62187 0.0
O241 O 0.04604 0.41853 0.60736 0.0
O242 O 0.02911 0.3592 0.59535 0.0
O243 O 0.06096 0.38985 0.57677 0.0
C244 C 0.10937 0.3946 0.61548 0.0
O245 O 0.05607 0.36608 0.64914 0.0
O246 O 0.03535 0.38665 0.64777 0.0
In247 In 0.66439 0.07269 0.11862 0.0
O248 O 0.65102 0.03976 0.14643 0.0
O249 O 0.68246 0.07722 0.15506 0.0
C250 C 0.66464 0.05099 0.07665 0.0
C251 C 0.70882 0.1188 0.11391 0.0
C252 C 0.61858 0.07275 0.12052 0.0
O253 O 0.66836 0.04253 0.09593 0.0
O254 O 0.66101 0.07022 0.07871 0.0
O255 O 0.64024 0.09264 0.12552 0.0
O256 O 0.62001 0.05284 0.11489 0.0
C257 C 0.66752 0.05411 0.16172 0.0
O258 O 0.68687 0.11713 0.11749 0.0
O259 O 0.70827 0.09714 0.11245 0.0
In260 In 0.5815 0.66094 0.61748 0.0
O261 O 0.60483 0.65574 0.64792 0.0
O262 O 0.58424 0.67605 0.65459 0.0
C263 C 0.60373 0.65706 0.5771 0.0
C264 C 0.58436 0.7073 0.61036 0.0
C265 C 0.53613 0.61491 0.62003 0.0
O266 O 0.6157 0.66234 0.59666 0.0
O267 O 0.58086 0.65358 0.57818 0.0
O268 O 0.53705 0.63603 0.61436 0.0
O269 O 0.55808 0.61702 0.62441 0.0
C270 C 0.59853 0.66768 0.66274 0.0
O271 O 0.56301 0.68658 0.61448 0.0
O272 O 0.60426 0.70453 0.60942 0.0
In273 In 0.93769 0.60507 0.11943 0.0
O274 O 0.89328 0.58356 0.12343 0.0
O275 O 0.91253 0.62385 0.11401 0.0
C276 C 0.93283 0.55739 0.114 0.0
C277 C 0.95889 0.62369 0.16279 0.0
C278 C 0.96186 0.63001 0.07922 0.0
O279 O 0.916 0.56073 0.12486 0.0
O280 O 0.95201 0.57804 0.10605 0.0
O281 O 0.97313 0.63674 0.09909 0.0
O282 O 0.93866 0.61125 0.07991 0.0
C283 C 0.89119 0.6033 0.11841 0.0
O284 O 0.96274 0.60758 0.15142 0.0
O285 O 0.94545 0.63143 0.15185 0.0
In286 In 0.33736 0.91974 0.6235 0.0
O287 O 0.33568 0.94515 0.65383 0.0
O288 O 0.33667 0.91055 0.66216 0.0
C289 C 0.33817 0.94492 0.58351 0.0
C290 C 0.29043 0.87596 0.61951 0.0
C291 C 0.38457 0.92303 0.62082 0.0
O292 O 0.33938 0.95468 0.6037 0.0
O293 O 0.3366 0.92282 0.58374 0.0
O294 O 0.36335 0.90188 0.61779 0.0
O295 O 0.38202 0.94266 0.62499 0.0
C296 C 0.3358 0.93016 0.66975 0.0
O297 O 0.31174 0.87578 0.61954 0.0
O298 O 0.29273 0.89834 0.62148 0.0
In299 In 0.4048 0.3392 0.11928 0.0
O300 O 0.37835 0.33355 0.15147 0.0
O301 O 0.41946 0.35118 0.15653 0.0
C302 C 0.37716 0.33771 0.08058 0.0
C303 C 0.40323 0.2928 0.12052 0.0
C304 C 0.44898 0.38475 0.11103 0.0
O305 O 0.37311 0.34472 0.10051 0.0
O306 O 0.39432 0.33099 0.0806 0.0
O307 O 0.44753 0.36279 0.10847 0.0
O308 O 0.428 0.38375 0.11755 0.0
C309 C 0.39737 0.3434 0.16581 0.0
O310 O 0.4236 0.31389 0.11515 0.0
O311 O 0.38351 0.29504 0.12518 0.0
H312 H 0.38834 0.012 0.31535 0.0
H313 H 0.3496 0.05776 0.3155 0.0
H314 H 0.38615 0.01001 0.27231 0.0
H315 H 0.34759 0.05589 0.27235 0.0
H316 H 0.34158 0.0396 0.19229 0.0
H317 H 0.3321 0.02848 0.23437 0.0
H318 H 0.41234 0.04802 0.24546 0.0
H319 H 0.42173 0.05917 0.20396 0.0
C320 C 0.37876 0.02106 0.30623 0.0
C321 C 0.36951 0.03538 0.31876 0.0
C322 C 0.37759 0.02 0.28159 0.0
C323 C 0.36709 0.03316 0.26899 0.0
C324 C 0.35573 0.0455 0.2816 0.0
C325 C 0.35697 0.04665 0.3063 0.0
C326 C 0.35701 0.04116 0.20375 0.0
C327 C 0.38241 0.05037 0.19494 0.0
C328 C 0.35162 0.03488 0.22777 0.0
C329 C 0.37144 0.03722 0.24314 0.0
C330 C 0.39655 0.0456 0.23402 0.0
C331 C 0.40199 0.05222 0.21026 0.0
H332 H 0.28647 0.35033 0.69637 0.0
H333 H 0.37018 0.38387 0.68996 0.0
H334 H 0.29002 0.34856 0.73917 0.0
H335 H 0.37371 0.3818 0.73281 0.0
H336 H 0.36928 0.41786 0.80513 0.0
H337 H 0.36826 0.40844 0.76322 0.0
H338 H 0.30164 0.33139 0.77443 0.0
H339 H 0.30263 0.34099 0.81672 0.0
C340 C 0.30555 0.35669 0.70406 0.0
C341 C 0.32809 0.36757 0.68985 0.0
C342 C 0.30757 0.35554 0.7286 0.0
C343 C 0.33219 0.36534 0.73942 0.0
C344 C 0.35451 0.37446 0.72501 0.0
C345 C 0.35247 0.37552 0.70047 0.0
C346 C 0.35468 0.39873 0.79875 0.0
C347 C 0.3359 0.38023 0.81415 0.0
C348 C 0.35422 0.39323 0.77472 0.0
C349 C 0.33484 0.36916 0.76545 0.0
C350 C 0.3167 0.35018 0.78104 0.0
C351 C 0.31734 0.35561 0.80523 0.0
H352 H 0.94934 0.31078 0.18746 0.0
H353 H 0.9357 0.37615 0.19064 0.0
H354 H 0.95039 0.30987 0.23087 0.0
H355 H 0.93734 0.37565 0.2335 0.0
H356 H 0.89861 0.34055 0.30318 0.0
H357 H 0.90508 0.34363 0.26083 0.0
H358 H 0.97275 0.3342 0.26902 0.0
H359 H 0.96601 0.33075 0.31209 0.0
C360 C 0.94718 0.32528 0.19741 0.0
C361 C 0.942 0.34325 0.18575 0.0
C362 C 0.94783 0.3248 0.2222 0.0
C363 C 0.94342 0.34236 0.23557 0.0
C364 C 0.94016 0.36145 0.22372 0.0
C365 C 0.93931 0.3618 0.19914 0.0
C366 C 0.91494 0.33916 0.29609 0.0
C367 C 0.93191 0.33558 0.31102 0.0
C368 C 0.91874 0.34109 0.27175 0.0
C369 C 0.93967 0.33957 0.26159 0.0
C370 C 0.95647 0.33548 0.27639 0.0
C371 C 0.95268 0.3336 0.30098 0.0
H372 H 0.65137 0.93792 0.69219 0.0
H373 H 0.61827 0.98856 0.68661 0.0
H374 H 0.65355 0.9431 0.73507 0.0
H375 H 0.62063 0.99388 0.72948 0.0
H376 H 0.58405 0.95233 0.80113 0.0
H377 H 0.59331 0.96022 0.75917 0.0
H378 H 0.67115 0.97268 0.77077 0.0
H379 H 0.66179 0.96477 0.8132 0.0
C380 C 0.64524 0.95073 0.70007 0.0
C381 C 0.63431 0.96254 0.68608 0.0
C382 C 0.64659 0.95379 0.72463 0.0
C383 C 0.63693 0.96862 0.73566 0.0
C384 C 0.62788 0.98204 0.72148 0.0
C385 C 0.62664 0.97908 0.69693 0.0
C386 C 0.60329 0.95712 0.79482 0.0
C387 C 0.62215 0.95778 0.81039 0.0
C388 C 0.60868 0.96187 0.77078 0.0
C389 C 0.633 0.96715 0.76165 0.0
C390 C 0.65222 0.96859 0.77732 0.0
C391 C 0.64691 0.96416 0.80156 0.0
H392 H 0.61842 0.57837 0.30716 0.0
H393 H 0.69413 0.64864 0.3099 0.0
H394 H 0.61922 0.58036 0.26424 0.0
H395 H 0.69509 0.65042 0.26655 0.0
H396 H 0.67728 0.64887 0.18522 0.0
H397 H 0.67339 0.65375 0.228 0.0
H398 H 0.64752 0.57177 0.23765 0.0
H399 H 0.65126 0.56691 0.19555 0.0
C400 C 0.63506 0.59453 0.29858 0.0
C401 C 0.65638 0.61315 0.31187 0.0
C402 C 0.63556 0.5956 0.27398 0.0
C403 C 0.65744 0.61525 0.26203 0.0
C404 C 0.67796 0.63506 0.2753 0.0
C405 C 0.67743 0.63402 0.30008 0.0
C406 C 0.67067 0.63196 0.19657 0.0
C407 C 0.66448 0.6075 0.18703 0.0
C408 C 0.66854 0.63476 0.22099 0.0
C409 C 0.65984 0.61307 0.23611 0.0
C410 C 0.65376 0.58874 0.22644 0.0
C411 C 0.65607 0.58601 0.20227 0.0
H412 H 0.02784 0.66593 0.68541 0.0
H413 H 0.09564 0.65695 0.69516 0.0
H414 H 0.0255 0.67058 0.72849 0.0
H415 H 0.09324 0.66151 0.7375 0.0
H416 H 0.10483 0.70299 0.8053 0.0
H417 H 0.10116 0.70041 0.76253 0.0
H418 H 0.01891 0.64348 0.76817 0.0
H419 H 0.02252 0.64625 0.81154 0.0
C420 C 0.04207 0.66478 0.6967 0.0
C421 C 0.06207 0.66133 0.68689 0.0
C422 C 0.04068 0.66738 0.72127 0.0
C423 C 0.05945 0.66682 0.73624 0.0
C424 C 0.07884 0.66256 0.72636 0.0
C425 C 0.08012 0.65983 0.70207 0.0
C426 C 0.08582 0.6902 0.79751 0.0
C427 C 0.06404 0.67452 0.81176 0.0
C428 C 0.08375 0.68869 0.77299 0.0
C429 C 0.05988 0.67137 0.76206 0.0
C430 C 0.03756 0.65696 0.77619 0.0
C431 C 0.03963 0.65852 0.80095 0.0
H432 H 0.98607 0.60744 0.19027 0.0
H433 H 0.9465 0.65235 0.19259 0.0
H434 H 0.98929 0.60912 0.23327 0.0
H435 H 0.94928 0.65363 0.23563 0.0
H436 H 0.96563 0.65846 0.31462 0.0
H437 H 0.97586 0.667 0.27239 0.0
H438 H 0.95444 0.58613 0.26216 0.0
H439 H 0.94452 0.57777 0.30393 0.0
C440 C 0.97854 0.61814 0.19993 0.0
C441 C 0.96572 0.62946 0.18808 0.0
C442 C 0.98026 0.61898 0.22458 0.0
C443 C 0.96913 0.63111 0.2379 0.0
C444 C 0.95814 0.64421 0.22592 0.0
C445 C 0.95646 0.64339 0.20123 0.0
C446 C 0.96353 0.64268 0.30333 0.0
C447 C 0.95414 0.61742 0.31252 0.0
C448 C 0.96927 0.64753 0.27918 0.0
C449 C 0.96603 0.62727 0.26392 0.0
C450 C 0.95758 0.6023 0.27342 0.0
C451 C 0.95165 0.59744 0.29738 0.0
H452 H 0.29568 0.90065 0.81595 0.0
H453 H 0.35825 0.98106 0.81776 0.0
H454 H 0.29571 0.90176 0.77305 0.0
H455 H 0.3586 0.98203 0.77426 0.0
H456 H 0.33489 0.9712 0.69243 0.0
H457 H 0.33155 0.97623 0.73532 0.0
H458 H 0.33098 0.90364 0.74713 0.0
H459 H 0.33414 0.89858 0.70502 0.0
C460 C 0.30923 0.91872 0.80713 0.0
C461 C 0.32726 0.94064 0.82014 0.0
C462 C 0.30928 0.91933 0.78256 0.0
C463 C 0.32753 0.94179 0.77034 0.0
C464 C 0.34434 0.96445 0.78328 0.0
C465 C 0.34418 0.96389 0.8081 0.0
C466 C 0.33406 0.95641 0.7043 0.0
C467 C 0.33456 0.93439 0.69536 0.0
C468 C 0.33225 0.95933 0.72876 0.0
C469 C 0.33061 0.94012 0.74449 0.0
C470 C 0.33164 0.9185 0.73543 0.0
C471 C 0.33359 0.91568 0.71125 0.0
H472 H 0.42961 0.32717 0.30779 0.0
H473 H 0.36109 0.33465 0.31857 0.0
H474 H 0.42651 0.33161 0.26553 0.0
H475 H 0.35812 0.3394 0.27564 0.0
H476 H 0.35281 0.3171 0.19291 0.0
H477 H 0.35074 0.31398 0.23628 0.0
H478 H 0.43375 0.36875 0.24001 0.0
H479 H 0.43588 0.37156 0.19721 0.0
C480 C 0.41382 0.32976 0.30112 0.0
C481 C 0.39574 0.33082 0.31656 0.0
C482 C 0.41214 0.33244 0.27686 0.0
C483 C 0.39235 0.33631 0.2673 0.0
C484 C 0.37361 0.33649 0.28257 0.0
C485 C 0.37535 0.33385 0.30707 0.0
C486 C 0.37045 0.32877 0.2031 0.0
C487 C 0.39457 0.34426 0.1917 0.0
C488 C 0.36927 0.32702 0.22787 0.0
C489 C 0.39219 0.34073 0.24147 0.0
C490 C 0.41587 0.35748 0.22999 0.0
C491 C 0.41706 0.35916 0.20545 0.0
H492 H 0.01089 0.38558 0.68598 0.0
H493 H 0.05481 0.34505 0.69001 0.0
H494 H 0.00705 0.3842 0.72892 0.0
H495 H 0.05113 0.34388 0.73306 0.0
H496 H 0.03099 0.33845 0.81199 0.0
H497 H 0.02228 0.32921 0.76958 0.0
H498 H 0.04285 0.40956 0.75768 0.0
H499 H 0.05154 0.4187 0.79959 0.0
C500 C 0.01919 0.37582 0.69599 0.0
C501 C 0.03346 0.36574 0.68465 0.0
C502 C 0.01709 0.37515 0.72059 0.0
C503 C 0.02915 0.36431 0.73437 0.0
C504 C 0.04156 0.35229 0.72292 0.0
C505 C 0.04373 0.35303 0.69827 0.0
C506 C 0.03329 0.35397 0.80027 0.0
C507 C 0.04206 0.37932 0.80903 0.0
C508 C 0.0284 0.34871 0.77605 0.0
C509 C 0.03175 0.36862 0.76032 0.0
C510 C 0.03967 0.39369 0.76934 0.0
C511 C 0.04487 0.39899 0.79336 0.0
H512 H 0.61947 0.02138 0.30422 0.0
H513 H 0.70169 0.04631 0.31012 0.0
H514 H 0.62202 0.01834 0.26148 0.0
H515 H 0.70415 0.04271 0.26734 0.0
H516 H 0.70475 0.08053 0.19491 0.0
H517 H 0.70295 0.07077 0.23674 0.0
H518 H 0.62962 -0.00095 0.22616 0.0
H519 H 0.63131 0.00914 0.18397 0.0
C520 C 0.63792 0.02549 0.29644 0.0
C521 C 0.66048 0.03448 0.31047 0.0
C522 C 0.63936 0.02361 0.27192 0.0
C523 C 0.66339 0.03066 0.26094 0.0
C524 C 0.68546 0.03761 0.27522 0.0
C525 C 0.68402 0.03954 0.29974 0.0
C526 C 0.68845 0.06243 0.2014 0.0
C527 C 0.66805 0.04572 0.18622 0.0
C528 C 0.68752 0.05671 0.2254 0.0
C529 C 0.6661 0.03414 0.23486 0.0
C530 C 0.64627 0.01671 0.21945 0.0
C531 C 0.6473 0.0224 0.1953 0.0
H532 H 0.61597 0.64014 0.68916 0.0
H533 H 0.59587 0.7011 0.6937 0.0
H534 H 0.61909 0.64003 0.73253 0.0
H535 H 0.59922 0.70114 0.73647 0.0
H536 H 0.56292 0.66258 0.80613 0.0
H537 H 0.56795 0.66473 0.76357 0.0
H538 H 0.64287 0.66894 0.77067 0.0
H539 H 0.63783 0.66676 0.81397 0.0
C540 C 0.61284 0.65389 0.69935 0.0
C541 C 0.60525 0.67032 0.68813 0.0
C542 C 0.61466 0.65385 0.7241 0.0
C543 C 0.60891 0.67024 0.73781 0.0
C544 C 0.60324 0.68793 0.72636 0.0
C545 C 0.60137 0.68793 0.70185 0.0
C546 C 0.5805 0.6639 0.79876 0.0
C547 C 0.60009 0.66472 0.81345 0.0
C548 C 0.58342 0.66526 0.77433 0.0
C549 C 0.60597 0.6674 0.76384 0.0
C550 C 0.62532 0.66737 0.77836 0.0
C551 C 0.62246 0.66619 0.80306 0.0
H552 H 0.36148 0.12886 0.11709 0.0
H553 H 0.44333 0.17072 0.13625 0.0
H554 H 0.36127 0.17006 0.11537 0.0
H555 H 0.44297 0.21182 0.13537 0.0
H556 H 0.44126 0.28257 0.10612 0.0
H557 H 0.44067 0.24104 0.10771 0.0
H558 H 0.36371 0.20464 0.13939 0.0
H559 H 0.36401 0.24609 0.137 0.0
C560 C 0.37936 0.14686 0.12115 0.0
C561 C 0.40244 0.14662 0.12673 0.0
C562 C 0.37922 0.17047 0.1203 0.0
C563 C 0.40213 0.1943 0.12516 0.0
C564 C 0.4251 0.19391 0.13109 0.0
C565 C 0.42528 0.17034 0.13177 0.0
C566 C 0.42421 0.26568 0.11338 0.0
C567 C 0.40268 0.26754 0.12144 0.0
C568 C 0.42393 0.2419 0.11445 0.0
C569 C 0.4022 0.2195 0.1238 0.0
C570 C 0.38062 0.22141 0.13181 0.0
C571 C 0.38083 0.24518 0.13057 0.0
H572 H 0.15561 0.43167 0.63493 0.0
H573 H 0.12058 0.35954 0.5951 0.0
H574 H 0.19721 0.43206 0.63549 0.0
H575 H 0.16225 0.36033 0.59495 0.0
H576 H 0.23089 0.35335 0.6225 0.0
H577 H 0.18997 0.35401 0.62155 0.0
H578 H 0.23304 0.43778 0.61106 0.0
H579 H 0.27411 0.43714 0.61281 0.0
C580 C 0.15689 0.41603 0.62612 0.0
C581 C 0.13485 0.39551 0.61508 0.0
C582 C 0.18075 0.41633 0.62631 0.0
C583 C 0.18307 0.39617 0.61535 0.0
C584 C 0.16106 0.3759 0.60395 0.0
C585 C 0.1372 0.37553 0.60391 0.0
C586 C 0.23161 0.3719 0.61997 0.0
C587 C 0.25567 0.39519 0.61771 0.0
C588 C 0.20814 0.37227 0.61927 0.0
C589 C 0.20817 0.39594 0.61611 0.0
C590 C 0.23231 0.41926 0.61381 0.0
C591 C 0.25583 0.41889 0.61466 0.0
H592 H 0.83108 0.28137 0.09553 0.0
H593 H 0.86873 0.24452 0.13167 0.0
H594 H 0.79024 0.23961 0.09431 0.0
H595 H 0.82774 0.20289 0.13104 0.0
H596 H 0.7579 0.12729 0.10484 0.0
H597 H 0.79874 0.16907 0.10409 0.0
H598 H 0.75613 0.20922 0.12014 0.0
H599 H 0.71526 0.16749 0.12024 0.0
C600 C 0.83057 0.26436 0.10334 0.0
C601 C 0.85307 0.26618 0.11369 0.0
C602 C 0.80714 0.24045 0.10274 0.0
C603 C 0.8057 0.21788 0.11257 0.0
C604 C 0.82826 0.21979 0.12298 0.0
C605 C 0.8517 0.24368 0.12349 0.0
C606 C 0.75727 0.14507 0.10807 0.0
C607 C 0.73341 0.14415 0.1126 0.0
C608 C 0.78068 0.169 0.10781 0.0
C609 C 0.78073 0.1925 0.11216 0.0
C610 C 0.75677 0.19153 0.11642 0.0
C611 C 0.73335 0.16762 0.1166 0.0
H612 H 0.5467 0.71946 0.6211 0.0
H613 H 0.62622 0.75333 0.59599 0.0
H614 H 0.55079 0.76259 0.62164 0.0
H615 H 0.63006 0.79645 0.59549 0.0
H616 H 0.63848 0.87233 0.62486 0.0
H617 H 0.63398 0.82906 0.62221 0.0
H618 H 0.55406 0.79723 0.59834 0.0
H619 H 0.55834 0.84036 0.60203 0.0
C620 C 0.56492 0.73611 0.6153 0.0
C621 C 0.58617 0.73309 0.60858 0.0
C622 C 0.56725 0.76085 0.61549 0.0
C623 C 0.59081 0.78309 0.6087 0.0
C624 C 0.61181 0.77986 0.6013 0.0
C625 C 0.60956 0.75514 0.60138 0.0
C626 C 0.61997 0.85605 0.61906 0.0
C627 C 0.59873 0.85964 0.61375 0.0
C628 C 0.61743 0.83126 0.61735 0.0
C629 C 0.59366 0.80959 0.61 0.0
C630 C 0.57251 0.81335 0.60443 0.0
C631 C 0.57498 0.83809 0.60643 0.0
H632 H 0.72797 0.55937 0.10024 0.0
H633 H 0.76461 0.63801 0.12816 0.0
H634 H 0.77007 0.56095 0.10077 0.0
H635 H 0.80663 0.63938 0.12929 0.0
H636 H 0.88196 0.64236 0.10521 0.0
H637 H 0.83999 0.641 0.10348 0.0
H638 H 0.80119 0.56119 0.12867 0.0
H639 H 0.84313 0.56237 0.12977 0.0
C640 C 0.74503 0.57697 0.10655 0.0
C641 C 0.74303 0.59857 0.11416 0.0
C642 C 0.76912 0.57781 0.107 0.0
C643 C 0.7917 0.60025 0.11515 0.0
C644 C 0.78968 0.62192 0.12263 0.0
C645 C 0.76559 0.6211 0.1221 0.0
C646 C 0.86445 0.62453 0.11036 0.0
C647 C 0.86579 0.60246 0.11762 0.0
C648 C 0.84043 0.62379 0.1095 0.0
C649 C 0.81724 0.601 0.11596 0.0
C650 C 0.81863 0.57893 0.12325 0.0
C651 C 0.84266 0.57965 0.12403 0.0
H652 H 0.28083 0.8259 0.62149 0.0
H653 H 0.24242 0.87142 0.61288 0.0
H654 H 0.23882 0.78577 0.6186 0.0
H655 H 0.20028 0.83116 0.60906 0.0
H656 H 0.12727 0.7535 0.63014 0.0
H657 H 0.16867 0.79475 0.63153 0.0
H658 H 0.20553 0.75971 0.59116 0.0
H659 H 0.16445 0.71831 0.59064 0.0
C660 C 0.26338 0.8273 0.61876 0.0
C661 C 0.26486 0.85176 0.61741 0.0
C662 C 0.23929 0.80429 0.61692 0.0
C663 C 0.21612 0.80518 0.61344 0.0
C664 C 0.21767 0.82973 0.61202 0.0
C665 C 0.2418 0.8528 0.61408 0.0
C666 C 0.14423 0.75473 0.62146 0.0
C667 C 0.14273 0.7327 0.61043 0.0
C668 C 0.16792 0.77839 0.62215 0.0
C669 C 0.19053 0.78053 0.61161 0.0
C670 C 0.18869 0.75862 0.59992 0.0
C671 C 0.1651 0.73494 0.59946 0.0
H672 H 0.87145 0.63538 0.36216 0.0
H673 H 0.83421 0.56138 0.39894 0.0
H674 H 0.82988 0.63505 0.3613 0.0
H675 H 0.79293 0.5614 0.39879 0.0
H676 H 0.71728 0.55571 0.37339 0.0
H677 H 0.75892 0.55636 0.37258 0.0
H678 H 0.79971 0.63949 0.38674 0.0
H679 H 0.75805 0.63891 0.38681 0.0
C680 C 0.85441 0.61913 0.37017 0.0
C681 C 0.85604 0.59838 0.38056 0.0
C682 C 0.83062 0.619 0.36981 0.0
C683 C 0.80802 0.59817 0.37995 0.0
C684 C 0.8098 0.57751 0.39045 0.0
C685 C 0.83351 0.57758 0.39068 0.0
C686 C 0.73516 0.57412 0.37627 0.0
C687 C 0.73443 0.59725 0.38019 0.0
C688 C 0.75903 0.57448 0.37595 0.0
C689 C 0.78269 0.59796 0.3797 0.0
C690 C 0.78191 0.62113 0.38349 0.0
C691 C 0.75803 0.62078 0.38367 0.0
H692 H 0.17178 0.72413 0.88917 0.0
H693 H 0.1256 0.76097 0.90294 0.0
H694 H 0.2117 0.76611 0.89364 0.0
H695 H 0.16559 0.80294 0.9084 0.0
H696 H 0.24138 0.87708 0.88569 0.0
H697 H 0.20041 0.83554 0.88569 0.0
H698 H 0.23894 0.79891 0.92089 0.0
H699 H 0.28014 0.84028 0.91991 0.0
C700 C 0.1702 0.74119 0.89348 0.0
C701 C 0.14562 0.73934 0.8956 0.0
C702 C 0.19309 0.76525 0.89623 0.0
C703 C 0.19192 0.78797 0.90143 0.0
C704 C 0.16724 0.78594 0.90405 0.0
C705 C 0.14432 0.76189 0.90104 0.0
C706 C 0.24099 0.86019 0.89364 0.0
C707 C 0.26395 0.86182 0.90264 0.0
C708 C 0.21747 0.83638 0.89376 0.0
C709 C 0.21637 0.81376 0.90313 0.0
C710 C 0.23919 0.81577 0.91306 0.0
C711 C 0.26276 0.83951 0.91267 0.0
H712 H 0.43816 0.15511 0.37029 0.0
H713 H 0.36437 0.119 0.40753 0.0
H714 H 0.43912 0.19694 0.37106 0.0
H715 H 0.36559 0.16091 0.40877 0.0
H716 H 0.36315 0.2335 0.38323 0.0
H717 H 0.36188 0.1915 0.38252 0.0
H718 H 0.44449 0.23062 0.3989 0.0
H719 H 0.44585 0.27259 0.3991 0.0
C720 C 0.42222 0.15616 0.37874 0.0
C721 C 0.40119 0.13382 0.38884 0.0
C722 C 0.42283 0.18013 0.3793 0.0
C723 C 0.40244 0.18225 0.39 0.0
C724 C 0.38143 0.15986 0.40012 0.0
C725 C 0.38081 0.13589 0.39954 0.0
C726 C 0.381 0.23308 0.38672 0.0
C727 C 0.4046 0.25629 0.39118 0.0
C728 C 0.38026 0.20903 0.38643 0.0
C729 C 0.4031 0.20773 0.3906 0.0
C730 C 0.42664 0.23099 0.39526 0.0
C731 C 0.42738 0.25501 0.39553 0.0
H732 H 0.27509 0.4428 0.86697 0.0
H733 H 0.23494 0.36182 0.88868 0.0
H734 H 0.23341 0.44206 0.86527 0.0
H735 H 0.19334 0.36126 0.8878 0.0
H736 H 0.12028 0.36166 0.86255 0.0
H737 H 0.16196 0.36228 0.86174 0.0
H738 H 0.20058 0.44048 0.89095 0.0
H739 H 0.1591 0.44012 0.89096 0.0
C740 C 0.25734 0.42487 0.87146 0.0
C741 C 0.25824 0.40238 0.87797 0.0
C742 C 0.23346 0.42448 0.87064 0.0
C743 C 0.20999 0.40162 0.87648 0.0
C744 C 0.21096 0.37908 0.88285 0.0
C745 C 0.23482 0.37943 0.88351 0.0
C746 C 0.13772 0.37899 0.86872 0.0
C747 C 0.13647 0.40084 0.8768 0.0
C748 C 0.16158 0.3793 0.86839 0.0
C749 C 0.18466 0.40142 0.87631 0.0
C750 C 0.18331 0.42328 0.88436 0.0
C751 C 0.1595 0.42302 0.88452 0.0
H752 H 0.75369 0.12116 0.39439 0.0
H753 H 0.71334 0.15849 0.36419 0.0
H754 H 0.79399 0.16325 0.3962 0.0
H755 H 0.7539 0.20062 0.36542 0.0
H756 H 0.8239 0.27494 0.39478 0.0
H757 H 0.78342 0.23285 0.39358 0.0
H758 H 0.82676 0.19559 0.37044 0.0
H759 H 0.8673 0.23758 0.37224 0.0
C760 C 0.75349 0.13837 0.388 0.0
C761 C 0.73039 0.13658 0.37914 0.0
C762 C 0.77662 0.16247 0.38891 0.0
C763 C 0.77719 0.18529 0.38091 0.0
C764 C 0.75404 0.18345 0.37201 0.0
C765 C 0.73085 0.15933 0.37117 0.0
C766 C 0.82476 0.25772 0.38951 0.0
C767 C 0.84874 0.2595 0.38364 0.0
C768 C 0.80155 0.23366 0.38866 0.0
C769 C 0.80185 0.21088 0.38186 0.0
C770 C 0.8259 0.21271 0.37605 0.0
C771 C 0.84911 0.23676 0.37697 0.0
H772 H 0.55671 0.72594 0.90177 0.0
H773 H 0.63446 0.76047 0.87217 0.0
H774 H 0.55882 0.7682 0.9 0.0
H775 H 0.63631 0.80266 0.86966 0.0
H776 H 0.6402 0.87962 0.89063 0.0
H777 H 0.63917 0.83784 0.89327 0.0
H778 H 0.55804 0.79768 0.87146 0.0
H779 H 0.55891 0.83936 0.86957 0.0
C780 C 0.57424 0.74259 0.89483 0.0
C781 C 0.59541 0.73993 0.8871 0.0
C782 C 0.57538 0.76677 0.89364 0.0
C783 C 0.59766 0.78882 0.88452 0.0
C784 C 0.61897 0.78617 0.87703 0.0
C785 C 0.61788 0.76198 0.87836 0.0
C786 C 0.62218 0.86185 0.88636 0.0
C787 C 0.59961 0.86272 0.87996 0.0
C788 C 0.62162 0.83791 0.88776 0.0
C789 C 0.59849 0.81437 0.88267 0.0
C790 C 0.57604 0.81537 0.87593 0.0
C791 C 0.57658 0.83927 0.87467 0.0
H792 H 0.33968 0.93967 0.97571 0.0
H793 H 0.3394 0.00276 0.93726 0.0
H794 H 0.34606 0.96325 0.01247 0.0
H795 H 0.34536 0.02642 0.97447 0.0
H796 H 0.39527 0.0722 0.0405 0.0
H797 H 0.38076 0.04874 0.00314 0.0
H798 H 0.32605 0.97872 0.0406 0.0
H799 H 0.34108 0.00211 0.0781 0.0
C800 C 0.34067 0.9585 0.97515 0.0
C801 C 0.33923 0.96946 0.95357 0.0
C802 C 0.34408 0.97193 0.99631 0.0
C803 C 0.34616 0.99671 0.99646 0.0
C804 C 0.34405 0.00744 0.97491 0.0
C805 C 0.34054 0.99389 0.95364 0.0
C806 C 0.37992 0.05187 0.04074 0.0
C807 C 0.36953 0.03888 0.06224 0.0
C808 C 0.37145 0.03848 0.0193 0.0
C809 C 0.35239 0.01179 0.01888 0.0
C810 C 0.34108 -0.00084 0.04035 0.0
C811 C 0.3496 0.01256 0.06182 0.0
H812 H 0.39517 0.32374 0.47305 0.0
H813 H 0.33846 0.33354 0.4327 0.0
H814 H 0.3769 0.32945 0.5095 0.0
H815 H 0.31959 0.33867 0.46946 0.0
H816 H 0.32407 0.38657 0.53651 0.0
H817 H 0.33337 0.37221 0.49934 0.0
H818 H 0.34027 0.31179 0.53619 0.0
H819 H 0.33158 0.32672 0.57364 0.0
C820 C 0.37849 0.32672 0.47199 0.0
C821 C 0.3684 0.32844 0.44999 0.0
C822 C 0.36785 0.32976 0.49295 0.0
C823 C 0.34679 0.33457 0.49247 0.0
C824 C 0.33603 0.33531 0.47045 0.0
C825 C 0.34673 0.33226 0.4494 0.0
C826 C 0.32724 0.37 0.53666 0.0
C827 C 0.32738 0.35795 0.55803 0.0
C828 C 0.33238 0.36162 0.51529 0.0
C829 C 0.33774 0.34094 0.51475 0.0
C830 C 0.33662 0.32805 0.53603 0.0
C831 C 0.33151 0.33649 0.55747 0.0
H832 H 0.06043 0.36863 0.95981 0.0
H833 H 0.98781 0.35517 0.92881 0.0
H834 H 0.03908 0.35467 0.99817 0.0
H835 H 0.96665 0.34225 0.96724 0.0
H836 H 0.92909 0.30619 0.03581 0.0
H837 H 0.95071 0.31119 0.99796 0.0
H838 H 0.02348 0.37135 0.02816 0.0
H839 H 0.00196 0.36542 0.06627 0.0
C840 C 0.03983 0.36251 0.96119 0.0
C841 C 0.02579 0.36307 0.94134 0.0
C842 C 0.02763 0.3547 0.98322 0.0
C843 C 0.00116 0.34753 0.98596 0.0
C844 C 0.98694 0.34725 0.96583 0.0
C845 C -0.00091 0.35479 0.94376 0.0
C846 C 0.94981 0.32018 0.03442 0.0
C847 C 0.96382 0.33554 0.05393 0.0
C848 C 0.96218 0.3232 0.01266 0.0
C849 C 0.9888 0.34194 0.00981 0.0
C850 C 0.00305 0.35652 0.02968 0.0
C851 C 0.99071 0.35323 0.05155 0.0
H852 H 0.65964 0.9942 0.42692 0.0
H853 H 0.66613 0.06186 0.46277 0.0
H854 H 0.65716 0.97372 0.4651 0.0
H855 H 0.6629 0.04125 0.50072 0.0
H856 H 0.67003 0.00507 0.56763 0.0
H857 H 0.68302 0.02625 0.52894 0.0
H858 H 0.62485 0.95462 0.49559 0.0
H859 H 0.61256 0.93348 0.53388 0.0
C860 C 0.66064 0.00471 0.44295 0.0
C861 C 0.66284 0.0295 0.44188 0.0
C862 C 0.65916 0.99299 0.46481 0.0
C863 C 0.65973 0.00579 0.48601 0.0
C864 C 0.66279 0.03096 0.48482 0.0
C865 C 0.66438 0.04269 0.46302 0.0
C866 C 0.66042 0.9938 0.55195 0.0
C867 C 0.64015 0.96772 0.55378 0.0
C868 C 0.66771 0.00593 0.52981 0.0
C869 C 0.65482 0.9922 0.50915 0.0
C870 C 0.63543 0.96574 0.51102 0.0
C871 C 0.62822 0.95365 0.53306 0.0
H872 H 0.67279 0.60415 0.03083 0.0
H873 H 0.66575 0.66331 0.06981 0.0
H874 H 0.66403 0.6198 0.99421 0.0
H875 H 0.65786 0.67973 0.03288 0.0
H876 H 0.60432 0.67146 0.96995 0.0
H877 H 0.62219 0.66444 0.00601 0.0
H878 H 0.67765 0.6532 0.96499 0.0
H879 H 0.65898 0.65942 0.92861 0.0
C880 C 0.66988 0.62088 0.03151 0.0
C881 C 0.66965 0.63232 0.05323 0.0
C882 C 0.66506 0.63002 0.01043 0.0
C883 C 0.66005 0.65095 0.01053 0.0
C884 C 0.66117 0.66326 0.03219 0.0
C885 C 0.66584 0.65398 0.05334 0.0
C886 C 0.62052 0.66776 0.96859 0.0
C887 C 0.63008 0.66573 0.94643 0.0
C888 C 0.63095 0.66396 0.98934 0.0
C889 C 0.65135 0.65816 0.98849 0.0
C890 C 0.66168 0.65724 0.96629 0.0
C891 C 0.65111 0.66093 0.94545 0.0
H892 H 0.06427 0.65976 0.53036 0.0
H893 H 0.00079 0.65762 0.57024 0.0
H894 H 0.04074 0.65493 0.49388 0.0
H895 H 0.97732 0.65362 0.53337 0.0
H896 H 0.93092 0.60839 0.46644 0.0
H897 H 0.95456 0.62123 0.50372 0.0
H898 H 0.02543 0.67467 0.46652 0.0
H899 H 0.00183 0.66097 0.42904 0.0
C900 C 0.04538 0.65864 0.5313 0.0
C901 C 0.03429 0.65888 0.5532 0.0
C902 C 0.03195 0.65612 0.5103 0.0
C903 C 0.0071 0.65395 0.51058 0.0
C904 C 0.99629 0.65493 0.5325 0.0
C905 C 0.00974 0.65733 0.55362 0.0
C906 C 0.95148 0.62315 0.46625 0.0
C907 C 0.96461 0.63345 0.44479 0.0
C908 C 0.96503 0.63066 0.48768 0.0
C909 C 0.99201 0.6488 0.48818 0.0
C910 C 0.00478 0.66023 0.46677 0.0
C911 C 0.99125 0.65253 0.44529 0.0
H912 H 0.61351 0.93842 0.9645 0.0
H913 H 0.65842 0.01132 0.927 0.0
H914 H 0.6275 0.96156 0.00199 0.0
H915 H 0.67297 0.03455 0.96468 0.0
H916 H 0.65751 0.06704 0.0337 0.0
H917 H 0.65181 0.04558 0.99572 0.0
H918 H 0.66372 0.98636 0.02889 0.0
H919 H 0.66891 0.0077 0.06719 0.0
C920 C 0.62674 0.95937 0.96428 0.0
C921 C 0.63469 0.97311 0.94281 0.0
C922 C 0.63492 0.97262 0.9858 0.0
C923 C 0.65126 -7e-05 0.98636 0.0
C924 C 0.66008 0.01354 0.96485 0.0
C925 C 0.65187 0.00025 0.94328 0.0
C926 C 0.65915 0.04957 0.03288 0.0
C927 C 0.66345 0.03893 0.05346 0.0
C928 C 0.6561 0.03737 0.01104 0.0
C929 C 0.65728 0.01423 0.00924 0.0
C930 C 0.6624 0.00401 0.02973 0.0
C931 C 0.66548 0.01627 0.05164 0.0
H932 H 0.67349 0.61116 0.46665 0.0
H933 H 0.64257 0.65349 0.429 0.0
H934 H 0.66219 0.62333 0.50409 0.0
H935 H 0.63173 0.6662 0.46658 0.0
H936 H 0.58115 0.6472 0.53368 0.0
H937 H 0.5988 0.64247 0.49642 0.0
H938 H 0.67023 0.65827 0.53175 0.0
H939 H 0.65221 0.66257 0.56939 0.0
C940 C 0.66472 0.6235 0.46639 0.0
C941 C 0.65868 0.63117 0.44487 0.0
C942 C 0.65837 0.6306 0.48789 0.0
C943 C 0.64583 0.64554 0.48835 0.0
C944 C 0.64098 0.6543 0.46682 0.0
C945 C 0.64734 0.64719 0.44529 0.0
C946 C 0.60067 0.64978 0.53353 0.0
C947 C 0.61524 0.65511 0.5545 0.0
C948 C 0.61091 0.64732 0.51209 0.0
C949 C 0.63599 0.65011 0.51104 0.0
C950 C 0.65075 0.6558 0.53199 0.0
C951 C 0.64049 0.65833 0.55352 0.0
H952 H 0.01323 0.66697 0.07199 0.0
H953 H 0.9405 0.61818 0.03524 0.0
H954 H 0.03597 0.68095 0.03409 0.0
H955 H 0.96318 0.63161 0.99755 0.0
H956 H 0.00892 0.67021 0.93121 0.0
H957 H 0.98727 0.6666 0.96911 0.0
H958 H 0.04752 0.65833 0.00487 0.0
H959 H 0.06917 0.66237 0.96739 0.0
C960 C 0.00206 0.65952 0.05583 0.0
C961 C 0.97517 0.64129 0.05657 0.0
C962 C 0.01507 0.6674 0.03414 0.0
C963 C 0.00143 0.65718 0.0128 0.0
C964 C 0.97426 0.64005 0.0136 0.0
C965 C 0.96128 0.63219 0.03524 0.0
C966 C 0.01759 0.66788 0.94724 0.0
C967 C 0.0406 0.66638 0.94633 0.0
C968 C 0.0052 0.66575 0.96891 0.0
C969 C 0.01569 0.66222 0.99003 0.0
C970 C 0.03911 0.66147 0.98905 0.0
C971 C 0.0514 0.66352 0.96748 0.0
H972 H 0.33377 0.9259 0.539 0.0
H973 H 0.34546 0.99422 0.57742 0.0
H974 H 0.33936 0.94874 0.50186 0.0
H975 H 0.35061 0.01709 0.54001 0.0
H976 H 0.39755 0.0573 0.47175 0.0
H977 H 0.38424 0.0348 0.5095 0.0
H978 H 0.32089 0.96757 0.47503 0.0
H979 H 0.33462 0.99007 0.43697 0.0
C980 C 0.33721 0.94573 0.53949 0.0
C981 C 0.33942 0.95837 0.56113 0.0
C982 C 0.34018 0.95875 0.51816 0.0
C983 C 0.34546 0.98475 0.51794 0.0
C984 C 0.34684 0.99714 0.5396 0.0
C985 C 0.3438 0.98405 0.56101 0.0
C986 C 0.3806 0.03782 0.47224 0.0
C987 C 0.36726 0.02533 0.45137 0.0
C988 C 0.37284 0.025 0.49394 0.0
C989 C 0.35155 -0.00064 0.49529 0.0
C990 C 0.33757 0.98722 0.47452 0.0
C991 C 0.34534 0.00011 0.45275 0.0
H992 H 0.33956 0.35178 0.0746 0.0
H993 H 0.38725 0.32758 0.03628 0.0
H994 H 0.32284 0.35829 0.03716 0.0
H995 H 0.37161 0.33506 0.99918 0.0
H996 H 0.33106 0.33731 0.9338 0.0
H997 H 0.33714 0.3222 0.97216 0.0
H998 H 0.33843 0.38874 0.00571 0.0
H999 H 0.33116 0.40299 0.9676 0.0
C1000 C 0.3463 0.34767 0.0582 0.0
C1001 C 0.36479 0.33929 0.05838 0.0
C1002 C 0.33689 0.35158 0.03674 0.0
C1003 C 0.34595 0.34736 0.01504 0.0
C1004 C 0.36378 0.33811 0.01541 0.0
C1005 C 0.37296 0.33402 0.03677 0.0
C1006 C 0.33231 0.34846 0.94945 0.0
C1007 C 0.33085 0.37141 0.94769 0.0
C1008 C 0.33594 0.33992 0.97144 0.0
C1009 C 0.33857 0.35437 0.99211 0.0
C1010 C 0.33615 0.37685 0.99033 0.0
C1011 C 0.3322 0.38518 0.9684 0.0
H1012 H 0.05771 0.38816 0.5318 0.0
H1013 H 0.99119 0.32572 0.56764 0.0
H1014 H 0.03451 0.37427 0.4944 0.0
H1015 H 0.96806 0.31122 0.52991 0.0
H1016 H 0.92438 0.32298 0.46722 0.0
H1017 H 0.94811 0.3282 0.50373 0.0
H1018 H 0.01621 0.34179 0.46373 0.0
H1019 H 0.99247 0.33723 0.42694 0.0
C1020 C 0.03826 0.37113 0.53161 0.0
C1021 C 0.02614 0.35819 0.5527 0.0
C1022 C 0.02502 0.36301 0.51009 0.0
C1023 C -0.00066 0.3417 0.50911 0.0
C1024 C 0.98768 0.32797 0.5301 0.0
C1025 C 0.00095 0.33616 0.55169 0.0
C1026 C 0.94434 0.3268 0.46617 0.0
C1027 C 0.95666 0.32996 0.4442 0.0
C1028 C 0.9579 0.32957 0.48716 0.0
C1029 C 0.98413 0.3355 0.48672 0.0
C1030 C 0.99613 0.33758 0.46469 0.0
C1031 C 0.98253 0.33485 0.44363 0.0
H1032 H 0.45587 0.03389 0.13043 0.0
H1033 H 0.49703 0.1147 0.10821 0.0
H1034 H 0.49692 0.03336 0.13065 0.0
H1035 H 0.53805 0.11399 0.10767 0.0
H1036 H 0.61013 0.11217 0.1347 0.0
H1037 H 0.56891 0.11248 0.13433 0.0
H1038 H 0.52968 0.03426 0.10519 0.0
H1039 H 0.57071 0.03371 0.10629 0.0
C1040 C 0.47367 0.05146 0.12533 0.0
C1041 C 0.47326 0.07434 0.11933 0.0
C1042 C 0.4972 0.05113 0.12535 0.0
C1043 C 0.52084 0.07365 0.11922 0.0
C1044 C 0.5203 0.09643 0.11287 0.0
C1045 C 0.49677 0.09679 0.11299 0.0
C1046 C 0.59265 0.09503 0.1283 0.0
C1047 C 0.59361 0.0729 0.12058 0.0
C1048 C 0.56907 0.09527 0.12791 0.0
C1049 C 0.54595 0.07342 0.11967 0.0
C1050 C 0.54699 0.05128 0.11196 0.0
C1051 C 0.57054 0.051 0.11248 0.0
H1052 H 0.4866 0.6058 0.61193 0.0
H1053 H 0.52982 0.56703 0.63059 0.0
H1054 H 0.44585 0.5638 0.61268 0.0
H1055 H 0.48911 0.52514 0.63167 0.0
H1056 H 0.41624 0.45279 0.60341 0.0
H1057 H 0.45639 0.49509 0.60351 0.0
H1058 H 0.41644 0.52921 0.64029 0.0
H1059 H 0.37602 0.48681 0.63989 0.0
C1060 C 0.48737 0.58832 0.61631 0.0
C1061 C 0.51139 0.58966 0.62111 0.0
C1062 C 0.46403 0.5643 0.61687 0.0
C1063 C 0.46427 0.54114 0.62216 0.0
C1064 C 0.48831 0.54258 0.62721 0.0
C1065 C 0.51161 0.56659 0.62671 0.0
C1066 C 0.41601 0.46931 0.61151 0.0
C1067 C 0.393 0.4665 0.62166 0.0
C1068 C 0.43906 0.49351 0.6117 0.0
C1069 C 0.43963 0.51548 0.622 0.0
C1070 C 0.41656 0.5127 0.63204 0.0
C1071 C 0.39346 0.48842 0.63191 0.0
H1072 H 0.96748 0.43151 0.10701 0.0
H1073 H 0.88313 0.39128 0.10204 0.0
H1074 H 0.96874 0.47337 0.10764 0.0
H1075 H 0.88437 0.43329 0.102 0.0
H1076 H 0.89598 0.51077 0.1329 0.0
H1077 H 0.89349 0.46835 0.12921 0.0
H1078 H 0.96174 0.50307 0.08411 0.0
H1079 H 0.96462 0.54552 0.08839 0.0
C1080 C 0.94922 0.43164 0.1057 0.0
C1081 C 0.92521 0.40813 0.10453 0.0
C1082 C 0.94993 0.45566 0.10595 0.0
C1083 C 0.92664 0.45672 0.10492 0.0
C1084 C 0.90264 0.43316 0.10317 0.0
C1085 C 0.90193 0.40911 0.10301 0.0
C1086 C 0.91038 0.50927 0.12215 0.0
C1087 C 0.93058 0.53146 0.11105 0.0
C1088 C 0.90887 0.48494 0.11989 0.0
C1089 C 0.92746 0.48229 0.1064 0.0
C1090 C 0.94735 0.50447 0.09495 0.0
C1091 C 0.94893 0.52879 0.0973 0.0
H1092 H 0.39435 0.88301 0.61362 0.0
H1093 H 0.43279 0.96624 0.62663 0.0
H1094 H 0.43673 0.88513 0.61324 0.0
H1095 H 0.4752 0.9683 0.62661 0.0
H1096 H 0.54713 0.96558 0.59929 0.0
H1097 H 0.5048 0.96359 0.59922 0.0
H1098 H 0.472 0.89284 0.64087 0.0
H1099 H 0.51429 0.89464 0.64063 0.0
C1100 C 0.41187 0.90176 0.61641 0.0
C1101 C 0.41028 0.92447 0.62014 0.0
C1102 C 0.43612 0.90293 0.61635 0.0
C1103 C 0.45931 0.92686 0.61997 0.0
C1104 C 0.45771 0.94962 0.62353 0.0
C1105 C 0.43343 0.94843 0.62364 0.0
C1106 C 0.53088 0.94962 0.60844 0.0
C1107 C 0.53399 0.93025 0.61996 0.0
C1108 C 0.50668 0.94855 0.60851 0.0
C1109 C 0.48506 0.92806 0.62004 0.0
C1110 C 0.48821 0.90871 0.63159 0.0
C1111 C 0.51245 0.90981 0.63157 0.0
H1112 H 0.57625 0.547 0.10054 0.0
H1113 H 0.61284 0.50062 0.11436 0.0
H1114 H 0.53361 0.50719 0.09817 0.0
H1115 H 0.57028 0.46096 0.11298 0.0
H1116 H 0.49393 0.392 0.09064 0.0
H1117 H 0.53573 0.43254 0.08779 0.0
H1118 H 0.50197 0.47393 0.12285 0.0
H1119 H 0.45992 0.43352 0.12472 0.0
C1120 C 0.57514 0.52828 0.10311 0.0
C1121 C 0.59783 0.52688 0.10763 0.0
C1122 C 0.5507 0.50547 0.1019 0.0
C1123 C 0.54843 0.4808 0.10541 0.0
C1124 C 0.57127 0.47952 0.10975 0.0
C1125 C 0.59569 0.50229 0.11071 0.0
C1126 C 0.49543 0.40984 0.09752 0.0
C1127 C 0.47374 0.40962 0.10797 0.0
C1128 C 0.51943 0.43306 0.09605 0.0
C1129 C 0.52236 0.45652 0.10529 0.0
C1130 C 0.5004 0.45634 0.11527 0.0
C1131 C 0.47631 0.43315 0.11647 0.0
H1132 H 0.02972 0.45 0.59524 0.0
H1133 H 0.10515 0.48662 0.62977 0.0
H1134 H 0.03132 0.49204 0.59358 0.0
H1135 H 0.1065 0.52864 0.62868 0.0
H1136 H 0.11202 0.60411 0.60185 0.0
H1137 H 0.11078 0.56217 0.60156 0.0
H1138 H 0.02859 0.52299 0.61957 0.0
H1139 H 0.02973 0.56489 0.61924 0.0
C1140 C 0.04662 0.46705 0.60254 0.0
C1141 C 0.06731 0.46504 0.61265 0.0
C1142 C 0.04747 0.49112 0.60172 0.0
C1143 C 0.06899 0.51371 0.61107 0.0
C1144 C 0.08978 0.5117 0.62105 0.0
C1145 C 0.08896 0.48761 0.6218 0.0
C1146 C 0.09367 0.58651 0.60564 0.0
C1147 C 0.07097 0.58775 0.61056 0.0
C1148 C 0.093 0.5625 0.60564 0.0
C1149 C 0.06961 0.53921 0.61062 0.0
C1150 C 0.04685 0.5405 0.61536 0.0
C1151 C 0.04752 0.56451 0.61529 0.0
H1152 H 0.88521 0.50319 0.37745 0.0
H1153 H 0.96542 0.54386 0.40167 0.0
H1154 H 0.88474 0.46176 0.37967 0.0
H1155 H 0.96477 0.50223 0.40457 0.0
H1156 H 0.96243 0.42688 0.37855 0.0
H1157 H 0.96379 0.46889 0.37929 0.0
H1158 H 0.88503 0.43102 0.40712 0.0
H1159 H 0.88344 0.38896 0.40568 0.0
C1160 C 0.90267 0.50322 0.38347 0.0
C1161 C 0.92537 0.52674 0.38933 0.0
C1162 C 0.90236 0.47945 0.3849 0.0
C1163 C 0.9247 0.47863 0.39236 0.0
C1164 C 0.94733 0.50219 0.39848 0.0
C1165 C 0.94767 0.52602 0.39694 0.0
C1166 C 0.94549 0.4276 0.38497 0.0
C1167 C 0.92278 0.40465 0.39192 0.0
C1168 C 0.94631 0.45169 0.38551 0.0
C1169 C 0.92446 0.45332 0.39314 0.0
C1170 C 0.90202 0.4304 0.40073 0.0
C1171 C 0.90116 0.40631 0.40006 0.0
H1172 H 0.50861 0.896 0.90423 0.0
H1173 H 0.5446 0.97231 0.87165 0.0
H1174 H 0.46705 0.8955 0.90628 0.0
H1175 H 0.50289 0.97145 0.87275 0.0
H1176 H 0.4304 0.97278 0.89776 0.0
H1177 H 0.47227 0.97389 0.89808 0.0
H1178 H 0.43263 0.89124 0.88169 0.0
H1179 H 0.39073 0.89004 0.88236 0.0
C1180 C 0.50758 0.91263 0.89745 0.0
C1181 C 0.52981 0.93419 0.8878 0.0
C1182 C 0.48373 0.91228 0.89845 0.0
C1183 C 0.48151 0.93338 0.88957 0.0
C1184 C 0.5039 0.95503 0.88009 0.0
C1185 C 0.52781 0.95549 0.87933 0.0
C1186 C 0.43069 0.95487 0.89425 0.0
C1187 C 0.40734 0.93133 0.89005 0.0
C1188 C 0.4547 0.95551 0.8943 0.0
C1189 C 0.45591 0.93265 0.8899 0.0
C1190 C 0.43245 0.90913 0.88557 0.0
C1191 C 0.40843 0.90845 0.88577 0.0
H1192 H 0.45946 0.42322 0.3796 0.0
H1193 H 0.49921 0.38634 0.41185 0.0
H1194 H 0.50001 0.46519 0.38038 0.0
H1195 H 0.53961 0.42847 0.41342 0.0
H1196 H 0.61304 0.50078 0.38503 0.0
H1197 H 0.57242 0.45897 0.38729 0.0
H1198 H 0.53049 0.49923 0.40565 0.0
H1199 H 0.57102 0.54107 0.40258 0.0
C1200 C 0.47682 0.42417 0.38713 0.0
C1201 C 0.47622 0.40151 0.39557 0.0
C1202 C 0.50004 0.44826 0.38772 0.0
C1203 C 0.52314 0.45025 0.39694 0.0
C1204 C 0.52233 0.4276 0.40584 0.0
C1205 C 0.49914 0.40348 0.40508 0.0
C1206 C 0.59516 0.50066 0.38968 0.0
C1207 C 0.59516 0.52417 0.39352 0.0
C1208 C 0.57188 0.47668 0.39112 0.0
C1209 C 0.54812 0.47569 0.39659 0.0
C1210 C 0.54832 0.49927 0.40099 0.0
C1211 C 0.57157 0.52324 0.39939 0.0
H1212 H 0.10478 0.4918 0.90249 0.0
H1213 H 0.02868 0.45684 0.86937 0.0
H1214 H 0.10663 0.53402 0.90323 0.0
H1215 H 0.03091 0.49917 0.86912 0.0
H1216 H 0.11483 0.61065 0.87677 0.0
H1217 H 0.1122 0.56811 0.87768 0.0
H1218 H 0.02942 0.53118 0.89301 0.0
H1219 H 0.03196 0.57364 0.89105 0.0
C1220 C 0.08847 0.49319 0.89532 0.0
C1221 C 0.06659 0.47107 0.88589 0.0
C1222 C 0.0896 0.51742 0.89556 0.0
C1223 C 0.06899 0.52012 0.8861 0.0
C1224 C 0.04698 0.49782 0.87689 0.0
C1225 C 0.04573 0.47354 0.8769 0.0
C1226 C 0.09608 0.5934 0.88027 0.0
C1227 C 0.07359 0.59541 0.88375 0.0
C1228 C 0.09459 0.56901 0.88099 0.0
C1229 C 0.0706 0.54612 0.88549 0.0
C1230 C 0.04814 0.54827 0.88912 0.0
C1231 C 0.04959 0.57263 0.88812 0.0
H1232 H 0.57354 0.0341 0.40606 0.0
H1233 H 0.6069 0.10293 0.36188 0.0
H1234 H 0.53265 0.03478 0.40808 0.0
H1235 H 0.5656 0.10317 0.36322 0.0
H1236 H 0.49449 0.10876 0.38832 0.0
H1237 H 0.53671 0.1103 0.38831 0.0
H1238 H 0.49673 0.02595 0.38301 0.0
H1239 H 0.45478 0.02445 0.38379 0.0
C1240 C 0.57209 0.04935 0.39672 0.0
C1241 C 0.59336 0.0684 0.38373 0.0
C1242 C 0.54859 0.04966 0.39775 0.0
C1243 C 0.54571 0.06889 0.38563 0.0
C1244 C 0.5672 0.08823 0.37296 0.0
C1245 C 0.59082 0.08803 0.37207 0.0
C1246 C 0.49481 0.09059 0.38721 0.0
C1247 C 0.47136 0.06649 0.38615 0.0
C1248 C 0.51897 0.09146 0.38707 0.0
C1249 C 0.52015 0.06824 0.38577 0.0
C1250 C 0.4966 0.04419 0.38451 0.0
C1251 C 0.47252 0.04333 0.38479 0.0
H1252 H 0.53686 0.57204 0.87781 0.0
H1253 H 0.49881 0.6106 0.91014 0.0
H1254 H 0.49569 0.53064 0.8785 0.0
H1255 H 0.45781 0.56905 0.91168 0.0
H1256 H 0.38327 0.49849 0.8833 0.0
H1257 H 0.4247 0.53945 0.88546 0.0
H1258 H 0.46435 0.49676 0.90319 0.0
H1259 H 0.42293 0.45569 0.90016 0.0
C1260 C 0.51975 0.57157 0.88536 0.0
C1261 C 0.52099 0.59455 0.89381 0.0
C1262 C 0.49616 0.54781 0.8859 0.0
C1263 C 0.47334 0.54647 0.89507 0.0
C1264 C 0.47485 0.56942 0.90408 0.0
C1265 C 0.49838 0.59321 0.90335 0.0
C1266 C 0.40083 0.49789 0.88775 0.0
C1267 C 0.39989 0.47391 0.89147 0.0
C1268 C 0.42458 0.52139 0.88915 0.0
C1269 C 0.44793 0.52146 0.89451 0.0
C1270 C 0.44684 0.49743 0.89866 0.0
C1271 C 0.42309 0.4739 0.89707 0.0
loop_
_geom_bond_atom_site_label_1
_geom_bond_atom_site_label_2
_geom_bond_distance
_geom_bond_site_symmetry_2
_ccdc_geom_bond_type
In0 O1 2.294 . S
In0 O2 2.326 . S
In0 O6 2.266 . S
In0 O7 2.326 . S
In0 O8 2.266 . S
In0 O9 2.326 . S
In0 O11 2.294 . S
In0 O12 2.326 . S
O1 In0 2.294 . S
O1 C10 1.240 . S
O2 In0 2.326 . S
O2 C10 1.252 . S
C3 O6 1.252 . S
C3 O7 1.260 . S
C4 O11 1.240 . S
C4 O12 1.252 . S
C5 O8 1.252 . S
C5 O9 1.260 . S
O6 In0 2.266 . S
O6 C3 1.252 . S
O7 In0 2.326 . S
O7 C3 1.260 . S
O8 In0 2.266 . S
O8 C5 1.252 . S
O9 In0 2.326 . S
O9 C5 1.260 . S
C10 O1 1.240 . S
C10 O2 1.252 . S
O11 In0 2.294 . S
O11 C4 1.240 . S
O12 In0 2.326 . S
O12 C4 1.252 . S
In13 O14 2.294 . S
In13 O15 2.326 . S
In13 O19 2.266 . S
In13 O20 2.326 . S
In13 O21 2.266 . S
In13 O22 2.326 . S
In13 O24 2.294 . S
In13 O25 2.326 . S
O14 In13 2.294 . S
O14 C23 1.240 . S
O15 In13 2.326 . S
O15 C23 1.252 . S
C16 O19 1.252 . S
C16 O20 1.260 . S
C17 O24 1.240 . S
C17 O25 1.252 . S
C18 O21 1.252 . S
C18 O22 1.260 . S
O19 In13 2.266 . S
O19 C16 1.252 . S
O20 In13 2.326 . S
O20 C16 1.260 . S
O21 In13 2.266 . S
O21 C18 1.252 . S
O22 In13 2.326 . S
O22 C18 1.260 . S
C23 O14 1.240 . S
C23 O15 1.252 . S
O24 In13 2.294 . S
O24 C17 1.240 . S
O25 In13 2.326 . S
O25 C17 1.252 . S
In26 O27 2.294 . S
In26 O28 2.326 . S
In26 O32 2.266 . S
In26 O33 2.326 . S
In26 O34 2.266 . S
In26 O35 2.326 . S
In26 O37 2.294 . S
In26 O38 2.326 . S
O27 In26 2.294 . S
O27 C36 1.240 . S
O28 In26 2.326 . S
O28 C36 1.252 . S
C29 O32 1.252 . S
C29 O33 1.260 . S
C30 O37 1.240 . S
C30 O38 1.252 . S
C31 O34 1.252 . S
C31 O35 1.260 . S
O32 In26 2.266 . S
O32 C29 1.252 . S
O33 In26 2.326 . S
O33 C29 1.260 . S
O34 In26 2.266 . S
O34 C31 1.252 . S
O35 In26 2.326 . S
O35 C31 1.260 . S
C36 O27 1.240 . S
C36 O28 1.252 . S
O37 In26 2.294 . S
O37 C30 1.240 . S
O38 In26 2.326 . S
O38 C30 1.252 . S
In39 O40 2.294 . S
In39 O41 2.326 . S
In39 O45 2.266 . S
In39 O46 2.326 . S
In39 O47 2.266 . S
In39 O48 2.326 . S
In39 O50 2.294 . S
In39 O51 2.326 . S
O40 In39 2.294 . S
O40 C49 1.240 . S
O41 In39 2.326 . S
O41 C49 1.252 . S
C42 O45 1.252 . S
C42 O46 1.260 . S
C43 O50 1.240 . S
C43 O51 1.252 . S
C44 O47 1.252 . S
C44 O48 1.260 . S
O45 In39 2.266 . S
O45 C42 1.252 . S
O46 In39 2.326 . S
O46 C42 1.260 . S
O47 In39 2.266 . S
O47 C44 1.252 . S
O48 In39 2.326 . S
O48 C44 1.260 . S
C49 O40 1.240 . S
C49 O41 1.252 . S
O50 In39 2.294 . S
O50 C43 1.240 . S
O51 In39 2.326 . S
O51 C43 1.252 . S
In52 O53 2.294 . S
In52 O54 2.326 . S
In52 O58 2.266 . S
In52 O59 2.326 . S
In52 O60 2.266 . S
In52 O61 2.326 . S
In52 O63 2.294 . S
In52 O64 2.326 . S
O53 In52 2.294 . S
O53 C62 1.240 . S
O54 In52 2.326 . S
O54 C62 1.252 . S
C55 O58 1.252 . S
C55 O59 1.260 . S
C56 O63 1.240 . S
C56 O64 1.252 . S
C57 O60 1.252 . S
C57 O61 1.260 . S
O58 In52 2.266 . S
O58 C55 1.252 . S
O59 In52 2.326 . S
O59 C55 1.260 . S
O60 In52 2.266 . S
O60 C57 1.252 . S
O61 In52 2.326 . S
O61 C57 1.260 . S
C62 O53 1.240 . S
C62 O54 1.252 . S
O63 In52 2.294 . S
O63 C56 1.240 . S
O64 In52 2.326 . S
O64 C56 1.252 . S
In65 O66 2.294 . S
In65 O67 2.326 . S
In65 O71 2.266 . S
In65 O72 2.326 . S
In65 O73 2.266 . S
In65 O74 2.326 . S
In65 O76 2.294 . S
In65 O77 2.326 . S
O66 In65 2.294 . S
O66 C75 1.240 . S
O67 In65 2.326 . S
O67 C75 1.252 . S
C68 O71 1.252 . S
C68 O72 1.260 . S
C69 O76 1.240 . S
C69 O77 1.252 . S
C70 O73 1.252 . S
C70 O74 1.260 . S
O71 In65 2.266 . S
O71 C68 1.252 . S
O72 In65 2.326 . S
O72 C68 1.260 . S
O73 In65 2.266 . S
O73 C70 1.252 . S
O74 In65 2.326 . S
O74 C70 1.260 . S
C75 O66 1.240 . S
C75 O67 1.252 . S
O76 In65 2.294 . S
O76 C69 1.240 . S
O77 In65 2.326 . S
O77 C69 1.252 . S
In78 O79 2.294 . S
In78 O80 2.326 . S
In78 O84 2.266 . S
In78 O85 2.326 . S
In78 O86 2.266 . S
In78 O87 2.326 . S
In78 O89 2.294 . S
In78 O90 2.326 . S
O79 In78 2.294 . S
O79 C88 1.240 . S
O80 In78 2.326 . S
O80 C88 1.252 . S
C81 O84 1.252 . S
C81 O85 1.260 . S
C82 O89 1.240 . S
C82 O90 1.252 . S
C83 O86 1.252 . S
C83 O87 1.260 . S
O84 In78 2.266 . S
O84 C81 1.252 . S
O85 In78 2.326 . S
O85 C81 1.260 . S
O86 In78 2.266 . S
O86 C83 1.252 . S
O87 In78 2.326 . S
O87 C83 1.260 . S
C88 O79 1.240 . S
C88 O80 1.252 . S
O89 In78 2.294 . S
O89 C82 1.240 . S
O90 In78 2.326 . S
O90 C82 1.252 . S
In91 O92 2.294 . S
In91 O93 2.326 . S
In91 O97 2.266 . S
In91 O98 2.326 . S
In91 O99 2.266 . S
In91 O100 2.326 . S
In91 O102 2.294 . S
In91 O103 2.326 . S
O92 In91 2.294 . S
O92 C101 1.240 . S
O93 In91 2.326 . S
O93 C101 1.252 . S
C94 O97 1.252 . S
C94 O98 1.260 . S
C95 O102 1.240 . S
C95 O103 1.252 . S
C96 O99 1.252 . S
C96 O100 1.260 . S
O97 In91 2.266 . S
O97 C94 1.252 . S
O98 In91 2.326 . S
O98 C94 1.260 . S
O99 In91 2.266 . S
O99 C96 1.252 . S
O100 In91 2.326 . S
O100 C96 1.260 . S
C101 O92 1.240 . S
C101 O93 1.252 . S
O102 In91 2.294 . S
O102 C95 1.240 . S
O103 In91 2.326 . S
O103 C95 1.252 . S
In104 O105 2.294 . S
In104 O106 2.326 . S
In104 O110 2.266 . S
In104 O111 2.326 . S
In104 O112 2.266 . S
In104 O113 2.326 . S
In104 O115 2.294 . S
In104 O116 2.326 . S
O105 In104 2.294 . S
O105 C114 1.240 . S
O106 In104 2.326 . S
O106 C114 1.252 . S
C107 O110 1.252 . S
C107 O111 1.260 . S
C108 O115 1.240 . S
C108 O116 1.252 . S
C109 O112 1.252 . S
C109 O113 1.260 . S
O110 In104 2.266 . S
O110 C107 1.252 . S
O111 In104 2.326 . S
O111 C107 1.260 . S
O112 In104 2.266 . S
O112 C109 1.252 . S
O113 In104 2.326 . S
O113 C109 1.260 . S
C114 O105 1.240 . S
C114 O106 1.252 . S
O115 In104 2.294 . S
O115 C108 1.240 . S
O116 In104 2.326 . S
O116 C108 1.252 . S
In117 O118 2.294 . S
In117 O119 2.326 . S
In117 O123 2.266 . S
In117 O124 2.326 . S
In117 O125 2.266 . S
In117 O126 2.326 . S
In117 O128 2.294 . S
In117 O129 2.326 . S
O118 In117 2.294 . S
O118 C127 1.240 . S
O119 In117 2.326 . S
O119 C127 1.252 . S
C120 O123 1.252 . S
C120 O124 1.260 . S
C121 O128 1.240 . S
C121 O129 1.252 . S
C122 O125 1.252 . S
C122 O126 1.260 . S
O123 In117 2.266 . S
O123 C120 1.252 . S
O124 In117 2.326 . S
O124 C120 1.260 . S
O125 In117 2.266 . S
O125 C122 1.252 . S
O126 In117 2.326 . S
O126 C122 1.260 . S
C127 O118 1.240 . S
C127 O119 1.252 . S
O128 In117 2.294 . S
O128 C121 1.240 . S
O129 In117 2.326 . S
O129 C121 1.252 . S
In130 O131 2.294 . S
In130 O132 2.326 . S
In130 O136 2.266 . S
In130 O137 2.326 . S
In130 O138 2.266 . S
In130 O139 2.326 . S
In130 O141 2.294 . S
In130 O142 2.326 . S
O131 In130 2.294 . S
O131 C140 1.240 . S
O132 In130 2.326 . S
O132 C140 1.252 . S
C133 O136 1.252 . S
C133 O137 1.260 . S
C134 O141 1.240 . S
C134 O142 1.252 . S
C135 O138 1.252 . S
C135 O139 1.260 . S
O136 In130 2.266 . S
O136 C133 1.252 . S
O137 In130 2.326 . S
O137 C133 1.260 . S
O138 In130 2.266 . S
O138 C135 1.252 . S
O139 In130 2.326 . S
O139 C135 1.260 . S
C140 O131 1.240 . S
C140 O132 1.252 . S
O141 In130 2.294 . S
O141 C134 1.240 . S
O142 In130 2.326 . S
O142 C134 1.252 . S
In143 O144 2.294 . S
In143 O145 2.326 . S
In143 O149 2.266 . S
In143 O150 2.326 . S
In143 O151 2.266 . S
In143 O152 2.326 . S
In143 O154 2.294 . S
In143 O155 2.326 . S
O144 In143 2.294 . S
O144 C153 1.240 . S
O145 In143 2.326 . S
O145 C153 1.252 . S
C146 O149 1.252 . S
C146 O150 1.260 . S
C147 O154 1.240 . S
C147 O155 1.252 . S
C148 O151 1.252 . S
C148 O152 1.260 . S
O149 In143 2.266 . S
O149 C146 1.252 . S
O150 In143 2.326 . S
O150 C146 1.260 . S
O151 In143 2.266 . S
O151 C148 1.252 . S
O152 In143 2.326 . S
O152 C148 1.260 . S
C153 O144 1.240 . S
C153 O145 1.252 . S
O154 In143 2.294 . S
O154 C147 1.240 . S
O155 In143 2.326 . S
O155 C147 1.252 . S
In156 O157 2.294 . S
In156 O158 2.326 . S
In156 O162 2.266 . S
In156 O163 2.326 . S
In156 O164 2.266 . S
In156 O165 2.326 . S
In156 O167 2.294 . S
In156 O168 2.326 . S
O157 In156 2.294 . S
O157 C166 1.240 . S
O158 In156 2.326 . S
O158 C166 1.252 . S
C159 O162 1.252 . S
C159 O163 1.260 . S
C160 O167 1.240 . S
C160 O168 1.252 . S
C161 O164 1.252 . S
C161 O165 1.260 . S
O162 In156 2.266 . S
O162 C159 1.252 . S
O163 In156 2.326 . S
O163 C159 1.260 . S
O164 In156 2.266 . S
O164 C161 1.252 . S
O165 In156 2.326 . S
O165 C161 1.260 . S
C166 O157 1.240 . S
C166 O158 1.252 . S
O167 In156 2.294 . S
O167 C160 1.240 . S
O168 In156 2.326 . S
O168 C160 1.252 . S
In169 O170 2.294 . S
In169 O171 2.326 . S
In169 O175 2.266 . S
In169 O176 2.326 . S
In169 O177 2.266 . S
In169 O178 2.326 . S
In169 O180 2.294 . S
In169 O181 2.326 . S
O170 In169 2.294 . S
O170 C179 1.240 . S
O171 In169 2.326 . S
O171 C179 1.252 . S
C172 O175 1.252 . S
C172 O176 1.260 . S
C173 O180 1.240 . S
C173 O181 1.252 . S
C174 O177 1.252 . S
C174 O178 1.260 . S
O175 In169 2.266 . S
O175 C172 1.252 . S
O176 In169 2.326 . S
O176 C172 1.260 . S
O177 In169 2.266 . S
O177 C174 1.252 . S
O178 In169 2.326 . S
O178 C174 1.260 . S
C179 O170 1.240 . S
C179 O171 1.252 . S
O180 In169 2.294 . S
O180 C173 1.240 . S
O181 In169 2.326 . S
O181 C173 1.252 . S
In182 O183 2.294 . S
In182 O184 2.326 . S
In182 O188 2.266 . S
In182 O189 2.326 . S
In182 O190 2.266 . S
In182 O191 2.326 . S
In182 O193 2.294 . S
In182 O194 2.326 . S
O183 In182 2.294 . S
O183 C192 1.240 . S
O184 In182 2.326 . S
O184 C192 1.252 . S
C185 O188 1.252 . S
C185 O189 1.260 . S
C186 O193 1.240 . S
C186 O194 1.252 . S
C187 O190 1.252 . S
C187 O191 1.260 . S
O188 In182 2.266 . S
O188 C185 1.252 . S
O189 In182 2.326 . S
O189 C185 1.260 . S
O190 In182 2.266 . S
O190 C187 1.252 . S
O191 In182 2.326 . S
O191 C187 1.260 . S
C192 O183 1.240 . S
C192 O184 1.252 . S
O193 In182 2.294 . S
O193 C186 1.240 . S
O194 In182 2.326 . S
O194 C186 1.252 . S
In195 O196 2.294 . S
In195 O197 2.326 . S
In195 O201 2.266 . S
In195 O202 2.326 . S
In195 O203 2.266 . S
In195 O204 2.326 . S
In195 O206 2.294 . S
In195 O207 2.326 . S
O196 In195 2.294 . S
O196 C205 1.240 . S
O197 In195 2.326 . S
O197 C205 1.252 . S
C198 O201 1.252 . S
C198 O202 1.260 . S
C199 O206 1.240 . S
C199 O207 1.252 . S
C200 O203 1.252 . S
C200 O204 1.260 . S
O201 In195 2.266 . S
O201 C198 1.252 . S
O202 In195 2.326 . S
O202 C198 1.260 . S
O203 In195 2.266 . S
O203 C200 1.252 . S
O204 In195 2.326 . S
O204 C200 1.260 . S
C205 O196 1.240 . S
C205 O197 1.252 . S
O206 In195 2.294 . S
O206 C199 1.240 . S
O207 In195 2.326 . S
O207 C199 1.252 . S
In208 O209 2.294 . S
In208 O210 2.326 . S
In208 O214 2.266 . S
In208 O215 2.326 . S
In208 O216 2.266 . S
In208 O217 2.326 . S
In208 O219 2.294 . S
In208 O220 2.326 . S
O209 In208 2.294 . S
O209 C218 1.240 . S
O210 In208 2.326 . S
O210 C218 1.252 . S
C211 O214 1.252 . S
C211 O215 1.260 . S
C212 O219 1.240 . S
C212 O220 1.252 . S
C213 O216 1.252 . S
C213 O217 1.260 . S
O214 In208 2.266 . S
O214 C211 1.252 . S
O215 In208 2.326 . S
O215 C211 1.260 . S
O216 In208 2.266 . S
O216 C213 1.252 . S
O217 In208 2.326 . S
O217 C213 1.260 . S
C218 O209 1.240 . S
C218 O210 1.252 . S
O219 In208 2.294 . S
O219 C212 1.240 . S
O220 In208 2.326 . S
O220 C212 1.252 . S
In221 O222 2.294 . S
In221 O223 2.326 . S
In221 O227 2.266 . S
In221 O228 2.326 . S
In221 O229 2.266 . S
In221 O230 2.326 . S
In221 O232 2.294 . S
In221 O233 2.326 . S
O222 In221 2.294 . S
O222 C231 1.240 . S
O223 In221 2.326 . S
O223 C231 1.252 . S
C224 O227 1.252 . S
C224 O228 1.260 . S
C225 O232 1.240 . S
C225 O233 1.252 . S
C226 O229 1.252 . S
C226 O230 1.260 . S
O227 In221 2.266 . S
O227 C224 1.252 . S
O228 In221 2.326 . S
O228 C224 1.260 . S
O229 In221 2.266 . S
O229 C226 1.252 . S
O230 In221 2.326 . S
O230 C226 1.260 . S
C231 O222 1.240 . S
C231 O223 1.252 . S
O232 In221 2.294 . S
O232 C225 1.240 . S
O233 In221 2.326 . S
O233 C225 1.252 . S
In234 O235 2.294 . S
In234 O236 2.326 . S
In234 O240 2.266 . S
In234 O241 2.326 . S
In234 O242 2.266 . S
In234 O243 2.326 . S
In234 O245 2.294 . S
In234 O246 2.326 . S
O235 In234 2.294 . S
O235 C244 1.240 . S
O236 In234 2.326 . S
O236 C244 1.252 . S
C237 O240 1.252 . S
C237 O241 1.260 . S
C238 O245 1.240 . S
C238 O246 1.252 . S
C239 O242 1.252 . S
C239 O243 1.260 . S
O240 In234 2.266 . S
O240 C237 1.252 . S
O241 In234 2.326 . S
O241 C237 1.260 . S
O242 In234 2.266 . S
O242 C239 1.252 . S
O243 In234 2.326 . S
O243 C239 1.260 . S
C244 O235 1.240 . S
C244 O236 1.252 . S
O245 In234 2.294 . S
O245 C238 1.240 . S
O246 In234 2.326 . S
O246 C238 1.252 . S
In247 O248 2.294 . S
In247 O249 2.326 . S
In247 O253 2.266 . S
In247 O254 2.326 . S
In247 O255 2.266 . S
In247 O256 2.326 . S
In247 O258 2.294 . S
In247 O259 2.326 . S
O248 In247 2.294 . S
O248 C257 1.240 . S
O249 In247 2.326 . S
O249 C257 1.252 . S
C250 O253 1.252 . S
C250 O254 1.260 . S
C251 O258 1.240 . S
C251 O259 1.252 . S
C252 O255 1.252 . S
C252 O256 1.260 . S
O253 In247 2.266 . S
O253 C250 1.252 . S
O254 In247 2.326 . S
O254 C250 1.260 . S
O255 In247 2.266 . S
O255 C252 1.252 . S
O256 In247 2.326 . S
O256 C252 1.260 . S
C257 O248 1.240 . S
C257 O249 1.252 . S
O258 In247 2.294 . S
O258 C251 1.240 . S
O259 In247 2.326 . S
O259 C251 1.252 . S
In260 O261 2.294 . S
In260 O262 2.326 . S
In260 O266 2.266 . S
In260 O267 2.326 . S
In260 O268 2.266 . S
In260 O269 2.326 . S
In260 O271 2.294 . S
In260 O272 2.326 . S
O261 In260 2.294 . S
O261 C270 1.240 . S
O262 In260 2.326 . S
O262 C270 1.252 . S
C263 O266 1.252 . S
C263 O267 1.260 . S
C264 O271 1.240 . S
C264 O272 1.252 . S
C265 O268 1.252 . S
C265 O269 1.260 . S
O266 In260 2.266 . S
O266 C263 1.252 . S
O267 In260 2.326 . S
O267 C263 1.260 . S
O268 In260 2.266 . S
O268 C265 1.252 . S
O269 In260 2.326 . S
O269 C265 1.260 . S
C270 O261 1.240 . S
C270 O262 1.252 . S
O271 In260 2.294 . S
O271 C264 1.240 . S
O272 In260 2.326 . S
O272 C264 1.252 . S
In273 O274 2.294 . S
In273 O275 2.326 . S
In273 O279 2.266 . S
In273 O280 2.326 . S
In273 O281 2.266 . S
In273 O282 2.326 . S
In273 O284 2.294 . S
In273 O285 2.326 . S
O274 In273 2.294 . S
O274 C283 1.240 . S
O275 In273 2.326 . S
O275 C283 1.252 . S
C276 O279 1.252 . S
C276 O280 1.260 . S
C277 O284 1.240 . S
C277 O285 1.252 . S
C278 O281 1.252 . S
C278 O282 1.260 . S
O279 In273 2.266 . S
O279 C276 1.252 . S
O280 In273 2.326 . S
O280 C276 1.260 . S
O281 In273 2.266 . S
O281 C278 1.252 . S
O282 In273 2.326 . S
O282 C278 1.260 . S
C283 O274 1.240 . S
C283 O275 1.252 . S
O284 In273 2.294 . S
O284 C277 1.240 . S
O285 In273 2.326 . S
O285 C277 1.252 . S
In286 O287 2.294 . S
In286 O288 2.326 . S
In286 O292 2.266 . S
In286 O293 2.326 . S
In286 O294 2.266 . S
In286 O295 2.326 . S
In286 O297 2.294 . S
In286 O298 2.326 . S
O287 In286 2.294 . S
O287 C296 1.240 . S
O288 In286 2.326 . S
O288 C296 1.252 . S
C289 O292 1.252 . S
C289 O293 1.260 . S
C290 O297 1.240 . S
C290 O298 1.252 . S
C291 O294 1.252 . S
C291 O295 1.260 . S
O292 In286 2.266 . S
O292 C289 1.252 . S
O293 In286 2.326 . S
O293 C289 1.260 . S
O294 In286 2.266 . S
O294 C291 1.252 . S
O295 In286 2.326 . S
O295 C291 1.260 . S
C296 O287 1.240 . S
C296 O288 1.252 . S
O297 In286 2.294 . S
O297 C290 1.240 . S
O298 In286 2.326 . S
O298 C290 1.252 . S
In299 O300 2.294 . S
In299 O301 2.326 . S
In299 O305 2.266 . S
In299 O306 2.326 . S
In299 O307 2.266 . S
In299 O308 2.326 . S
In299 O310 2.294 . S
In299 O311 2.326 . S
O300 In299 2.294 . S
O300 C309 1.240 . S
O301 In299 2.326 . S
O301 C309 1.252 . S
C302 O305 1.252 . S
C302 O306 1.260 . S
C303 O310 1.240 . S
C303 O311 1.252 . S
C304 O307 1.252 . S
C304 O308 1.260 . S
O305 In299 2.266 . S
O305 C302 1.252 . S
O306 In299 2.326 . S
O306 C302 1.260 . S
O307 In299 2.266 . S
O307 C304 1.252 . S
O308 In299 2.326 . S
O308 C304 1.260 . S
C309 O300 1.240 . S
C309 O301 1.252 . S
O310 In299 2.294 . S
O310 C303 1.240 . S
O311 In299 2.326 . S
O311 C303 1.252 . S
H312 C320 0.950 . S
H313 C325 0.950 . S
H314 C322 0.950 . S
H315 C324 0.950 . S
H316 C326 0.950 . S
H317 C328 0.950 . S
H318 C330 0.950 . S
H319 C331 0.950 . S
C320 H312 0.950 . S
C320 C321 1.386 . S
C320 C322 1.391 . S
C321 C320 1.386 . S
C321 C325 1.393 . S
C322 H314 0.950 . S
C322 C320 1.391 . S
C322 C323 1.400 . S
C323 C322 1.400 . S
C323 C324 1.398 . S
C323 C329 1.491 . S
C324 H315 0.950 . S
C324 C323 1.398 . S
C324 C325 1.391 . S
C325 H313 0.950 . S
C325 C321 1.393 . S
C325 C324 1.391 . S
C326 H316 0.950 . S
C326 C327 1.386 . S
C326 C328 1.391 . S
C327 C326 1.386 . S
C327 C331 1.393 . S
C328 H317 0.950 . S
C328 C326 1.391 . S
C328 C329 1.400 . S
C329 C323 1.491 . S
C329 C328 1.400 . S
C329 C330 1.398 . S
C330 H318 0.950 . S
C330 C329 1.398 . S
C330 C331 1.391 . S
C331 H319 0.950 . S
C331 C327 1.393 . S
C331 C330 1.391 . S
H332 C340 0.950 . S
H333 C345 0.950 . S
H334 C342 0.950 . S
H335 C344 0.950 . S
H336 C346 0.950 . S
H337 C348 0.950 . S
H338 C350 0.950 . S
H339 C351 0.950 . S
C340 H332 0.950 . S
C340 C341 1.386 . S
C340 C342 1.391 . S
C341 C340 1.386 . S
C341 C345 1.393 . S
C342 H334 0.950 . S
C342 C340 1.391 . S
C342 C343 1.400 . S
C343 C342 1.400 . S
C343 C344 1.398 . S
C343 C349 1.491 . S
C344 H335 0.950 . S
C344 C343 1.398 . S
C344 C345 1.391 . S
C345 H333 0.950 . S
C345 C341 1.393 . S
C345 C344 1.391 . S
C346 H336 0.950 . S
C346 C347 1.386 . S
C346 C348 1.391 . S
C347 C346 1.386 . S
C347 C351 1.393 . S
C348 H337 0.950 . S
C348 C346 1.391 . S
C348 C349 1.400 . S
C349 C343 1.491 . S
C349 C348 1.400 . S
C349 C350 1.398 . S
C350 H338 0.950 . S
C350 C349 1.398 . S
C350 C351 1.391 . S
C351 H339 0.950 . S
C351 C347 1.393 . S
C351 C350 1.391 . S
H352 C360 0.950 . S
H353 C365 0.950 . S
H354 C362 0.950 . S
H355 C364 0.950 . S
H356 C366 0.950 . S
H357 C368 0.950 . S
H358 C370 0.950 . S
H359 C371 0.950 . S
C360 H352 0.950 . S
C360 C361 1.386 . S
C360 C362 1.391 . S
C361 C360 1.386 . S
C361 C365 1.393 . S
C362 H354 0.950 . S
C362 C360 1.391 . S
C362 C363 1.400 . S
C363 C362 1.400 . S
C363 C364 1.398 . S
C363 C369 1.491 . S
C364 H355 0.950 . S
C364 C363 1.398 . S
C364 C365 1.391 . S
C365 H353 0.950 . S
C365 C361 1.393 . S
C365 C364 1.391 . S
C366 H356 0.950 . S
C366 C367 1.386 . S
C366 C368 1.391 . S
C367 C366 1.386 . S
C367 C371 1.393 . S
C368 H357 0.950 . S
C368 C366 1.391 . S
C368 C369 1.400 . S
C369 C363 1.491 . S
C369 C368 1.400 . S
C369 C370 1.398 . S
C370 H358 0.950 . S
C370 C369 1.398 . S
C370 C371 1.391 . S
C371 H359 0.950 . S
C371 C367 1.393 . S
C371 C370 1.391 . S
H372 C380 0.950 . S
H373 C385 0.950 . S
H374 C382 0.950 . S
H375 C384 0.950 . S
H376 C386 0.950 . S
H377 C388 0.950 . S
H378 C390 0.950 . S
H379 C391 0.950 . S
C380 H372 0.950 . S
C380 C381 1.386 . S
C380 C382 1.391 . S
C381 C380 1.386 . S
C381 C385 1.393 . S
C382 H374 0.950 . S
C382 C380 1.391 . S
C382 C383 1.400 . S
C383 C382 1.400 . S
C383 C384 1.398 . S
C383 C389 1.491 . S
C384 H375 0.950 . S
C384 C383 1.398 . S
C384 C385 1.391 . S
C385 H373 0.950 . S
C385 C381 1.393 . S
C385 C384 1.391 . S
C386 H376 0.950 . S
C386 C387 1.386 . S
C386 C388 1.391 . S
C387 C386 1.386 . S
C387 C391 1.393 . S
C388 H377 0.950 . S
C388 C386 1.391 . S
C388 C389 1.400 . S
C389 C383 1.491 . S
C389 C388 1.400 . S
C389 C390 1.398 . S
C390 H378 0.950 . S
C390 C389 1.398 . S
C390 C391 1.391 . S
C391 H379 0.950 . S
C391 C387 1.393 . S
C391 C390 1.391 . S
H392 C400 0.950 . S
H393 C405 0.950 . S
H394 C402 0.950 . S
H395 C404 0.950 . S
H396 C406 0.950 . S
H397 C408 0.950 . S
H398 C410 0.950 . S
H399 C411 0.950 . S
C400 H392 0.950 . S
C400 C401 1.386 . S
C400 C402 1.391 . S
C401 C400 1.386 . S
C401 C405 1.393 . S
C402 H394 0.950 . S
C402 C400 1.391 . S
C402 C403 1.400 . S
C403 C402 1.400 . S
C403 C404 1.398 . S
C403 C409 1.491 . S
C404 H395 0.950 . S
C404 C403 1.398 . S
C404 C405 1.391 . S
C405 H393 0.950 . S
C405 C401 1.393 . S
C405 C404 1.391 . S
C406 H396 0.950 . S
C406 C407 1.386 . S
C406 C408 1.391 . S
C407 C406 1.386 . S
C407 C411 1.393 . S
C408 H397 0.950 . S
C408 C406 1.391 . S
C408 C409 1.400 . S
C409 C403 1.491 . S
C409 C408 1.400 . S
C409 C410 1.398 . S
C410 H398 0.950 . S
C410 C409 1.398 . S
C410 C411 1.391 . S
C411 H399 0.950 . S
C411 C407 1.393 . S
C411 C410 1.391 . S
H412 C420 0.950 . S
H413 C425 0.950 . S
H414 C422 0.950 . S
H415 C424 0.950 . S
H416 C426 0.950 . S
H417 C428 0.950 . S
H418 C430 0.950 . S
H419 C431 0.950 . S
C420 H412 0.950 . S
C420 C421 1.386 . S
C420 C422 1.391 . S
C421 C420 1.386 . S
C421 C425 1.393 . S
C422 H414 0.950 . S
C422 C420 1.391 . S
C422 C423 1.400 . S
C423 C422 1.400 . S
C423 C424 1.398 . S
C423 C429 1.491 . S
C424 H415 0.950 . S
C424 C423 1.398 . S
C424 C425 1.391 . S
C425 H413 0.950 . S
C425 C421 1.393 . S
C425 C424 1.391 . S
C426 H416 0.950 . S
C426 C427 1.386 . S
C426 C428 1.391 . S
C427 C426 1.386 . S
C427 C431 1.393 . S
C428 H417 0.950 . S
C428 C426 1.391 . S
C428 C429 1.400 . S
C429 C423 1.491 . S
C429 C428 1.400 . S
C429 C430 1.398 . S
C430 H418 0.950 . S
C430 C429 1.398 . S
C430 C431 1.391 . S
C431 H419 0.950 . S
C431 C427 1.393 . S
C431 C430 1.391 . S
H432 C440 0.950 . S
H433 C445 0.950 . S
H434 C442 0.950 . S
H435 C444 0.950 . S
H436 C446 0.950 . S
H437 C448 0.950 . S
H438 C450 0.950 . S
H439 C451 0.950 . S
C440 H432 0.950 . S
C440 C441 1.386 . S
C440 C442 1.391 . S
C441 C440 1.386 . S
C441 C445 1.393 . S
C442 H434 0.950 . S
C442 C440 1.391 . S
C442 C443 1.400 . S
C443 C442 1.400 . S
C443 C444 1.398 . S
C443 C449 1.491 . S
C444 H435 0.950 . S
C444 C443 1.398 . S
C444 C445 1.391 . S
C445 H433 0.950 . S
C445 C441 1.393 . S
C445 C444 1.391 . S
C446 H436 0.950 . S
C446 C447 1.386 . S
C446 C448 1.391 . S
C447 C446 1.386 . S
C447 C451 1.393 . S
C448 H437 0.950 . S
C448 C446 1.391 . S
C448 C449 1.400 . S
C449 C443 1.491 . S
C449 C448 1.400 . S
C449 C450 1.398 . S
C450 H438 0.950 . S
C450 C449 1.398 . S
C450 C451 1.391 . S
C451 H439 0.950 . S
C451 C447 1.393 . S
C451 C450 1.391 . S
H452 C460 0.950 . S
H453 C465 0.950 . S
H454 C462 0.950 . S
H455 C464 0.950 . S
H456 C466 0.950 . S
H457 C468 0.950 . S
H458 C470 0.950 . S
H459 C471 0.950 . S
C460 H452 0.950 . S
C460 C461 1.386 . S
C460 C462 1.391 . S
C461 C460 1.386 . S
C461 C465 1.393 . S
C462 H454 0.950 . S
C462 C460 1.391 . S
C462 C463 1.400 . S
C463 C462 1.400 . S
C463 C464 1.398 . S
C463 C469 1.491 . S
C464 H455 0.950 . S
C464 C463 1.398 . S
C464 C465 1.391 . S
C465 H453 0.950 . S
C465 C461 1.393 . S
C465 C464 1.391 . S
C466 H456 0.950 . S
C466 C467 1.386 . S
C466 C468 1.391 . S
C467 C466 1.386 . S
C467 C471 1.393 . S
C468 H457 0.950 . S
C468 C466 1.391 . S
C468 C469 1.400 . S
C469 C463 1.491 . S
C469 C468 1.400 . S
C469 C470 1.398 . S
C470 H458 0.950 . S
C470 C469 1.398 . S
C470 C471 1.391 . S
C471 H459 0.950 . S
C471 C467 1.393 . S
C471 C470 1.391 . S
H472 C480 0.950 . S
H473 C485 0.950 . S
H474 C482 0.950 . S
H475 C484 0.950 . S
H476 C486 0.950 . S
H477 C488 0.950 . S
H478 C490 0.950 . S
H479 C491 0.950 . S
C480 H472 0.950 . S
C480 C481 1.386 . S
C480 C482 1.391 . S
C481 C480 1.386 . S
C481 C485 1.393 . S
C482 H474 0.950 . S
C482 C480 1.391 . S
C482 C483 1.400 . S
C483 C482 1.400 . S
C483 C484 1.398 . S
C483 C489 1.491 . S
C484 H475 0.950 . S
C484 C483 1.398 . S
C484 C485 1.391 . S
C485 H473 0.950 . S
C485 C481 1.393 . S
C485 C484 1.391 . S
C486 H476 0.950 . S
C486 C487 1.386 . S
C486 C488 1.391 . S
C487 C486 1.386 . S
C487 C491 1.393 . S
C488 H477 0.950 . S
C488 C486 1.391 . S
C488 C489 1.400 . S
C489 C483 1.491 . S
C489 C488 1.400 . S
C489 C490 1.398 . S
C490 H478 0.950 . S
C490 C489 1.398 . S
C490 C491 1.391 . S
C491 H479 0.950 . S
C491 C487 1.393 . S
C491 C490 1.391 . S
H492 C500 0.950 . S
H493 C505 0.950 . S
H494 C502 0.950 . S
H495 C504 0.950 . S
H496 C506 0.950 . S
H497 C508 0.950 . S
H498 C510 0.950 . S
H499 C511 0.950 . S
C500 H492 0.950 . S
C500 C501 1.386 . S
C500 C502 1.391 . S
C501 C500 1.386 . S
C501 C505 1.393 . S
C502 H494 0.950 . S
C502 C500 1.391 . S
C502 C503 1.400 . S
C503 C502 1.400 . S
C503 C504 1.398 . S
C503 C509 1.491 . S
C504 H495 0.950 . S
C504 C503 1.398 . S
C504 C505 1.391 . S
C505 H493 0.950 . S
C505 C501 1.393 . S
C505 C504 1.391 . S
C506 H496 0.950 . S
C506 C507 1.386 . S
C506 C508 1.391 . S
C507 C506 1.386 . S
C507 C511 1.393 . S
C508 H497 0.950 . S
C508 C506 1.391 . S
C508 C509 1.400 . S
C509 C503 1.491 . S
C509 C508 1.400 . S
C509 C510 1.398 . S
C510 H498 0.950 . S
C510 C509 1.398 . S
C510 C511 1.391 . S
C511 H499 0.950 . S
C511 C507 1.393 . S
C511 C510 1.391 . S
H512 C520 0.950 . S
H513 C525 0.950 . S
H514 C522 0.950 . S
H515 C524 0.950 . S
H516 C526 0.950 . S
H517 C528 0.950 . S
H518 C530 0.950 . S
H519 C531 0.950 . S
C520 H512 0.950 . S
C520 C521 1.386 . S
C520 C522 1.391 . S
C521 C520 1.386 . S
C521 C525 1.393 . S
C522 H514 0.950 . S
C522 C520 1.391 . S
C522 C523 1.400 . S
C523 C522 1.400 . S
C523 C524 1.398 . S
C523 C529 1.491 . S
C524 H515 0.950 . S
C524 C523 1.398 . S
C524 C525 1.391 . S
C525 H513 0.950 . S
C525 C521 1.393 . S
C525 C524 1.391 . S
C526 H516 0.950 . S
C526 C527 1.386 . S
C526 C528 1.391 . S
C527 C526 1.386 . S
C527 C531 1.393 . S
C528 H517 0.950 . S
C528 C526 1.391 . S
C528 C529 1.400 . S
C529 C523 1.491 . S
C529 C528 1.400 . S
C529 C530 1.398 . S
C530 H518 0.950 . S
C530 C529 1.398 . S
C530 C531 1.391 . S
C531 H519 0.950 . S
C531 C527 1.393 . S
C531 C530 1.391 . S
H532 C540 0.950 . S
H533 C545 0.950 . S
H534 C542 0.950 . S
H535 C544 0.950 . S
H536 C546 0.950 . S
H537 C548 0.950 . S
H538 C550 0.950 . S
H539 C551 0.950 . S
C540 H532 0.950 . S
C540 C541 1.386 . S
C540 C542 1.391 . S
C541 C540 1.386 . S
C541 C545 1.393 . S
C542 H534 0.950 . S
C542 C540 1.391 . S
C542 C543 1.400 . S
C543 C542 1.400 . S
C543 C544 1.398 . S
C543 C549 1.491 . S
C544 H535 0.950 . S
C544 C543 1.398 . S
C544 C545 1.391 . S
C545 H533 0.950 . S
C545 C541 1.393 . S
C545 C544 1.391 . S
C546 H536 0.950 . S
C546 C547 1.386 . S
C546 C548 1.391 . S
C547 C546 1.386 . S
C547 C551 1.393 . S
C548 H537 0.950 . S
C548 C546 1.391 . S
C548 C549 1.400 . S
C549 C543 1.491 . S
C549 C548 1.400 . S
C549 C550 1.398 . S
C550 H538 0.950 . S
C550 C549 1.398 . S
C550 C551 1.391 . S
C551 H539 0.950 . S
C551 C547 1.393 . S
C551 C550 1.391 . S
H552 C560 0.950 . S
H553 C565 0.950 . S
H554 C562 0.950 . S
H555 C564 0.950 . S
H556 C566 0.950 . S
H557 C568 0.950 . S
H558 C570 0.950 . S
H559 C571 0.950 . S
C560 H552 0.950 . S
C560 C561 1.386 . S
C560 C562 1.391 . S
C561 C560 1.386 . S
C561 C565 1.393 . S
C562 H554 0.950 . S
C562 C560 1.391 . S
C562 C563 1.400 . S
C563 C562 1.400 . S
C563 C564 1.398 . S
C563 C569 1.491 . S
C564 H555 0.950 . S
C564 C563 1.398 . S
C564 C565 1.391 . S
C565 H553 0.950 . S
C565 C561 1.393 . S
C565 C564 1.391 . S
C566 H556 0.950 . S
C566 C567 1.386 . S
C566 C568 1.391 . S
C567 C566 1.386 . S
C567 C571 1.393 . S
C568 H557 0.950 . S
C568 C566 1.391 . S
C568 C569 1.400 . S
C569 C563 1.491 . S
C569 C568 1.400 . S
C569 C570 1.398 . S
C570 H558 0.950 . S
C570 C569 1.398 . S
C570 C571 1.391 . S
C571 H559 0.950 . S
C571 C567 1.393 . S
C571 C570 1.391 . S
H572 C580 0.950 . S
H573 C585 0.950 . S
H574 C582 0.950 . S
H575 C584 0.950 . S
H576 C586 0.950 . S
H577 C588 0.950 . S
H578 C590 0.950 . S
H579 C591 0.950 . S
C580 H572 0.950 . S
C580 C581 1.386 . S
C580 C582 1.391 . S
C581 C580 1.386 . S
C581 C585 1.393 . S
C582 H574 0.950 . S
C582 C580 1.391 . S
C582 C583 1.400 . S
C583 C582 1.400 . S
C583 C584 1.398 . S
C583 C589 1.491 . S
C584 H575 0.950 . S
C584 C583 1.398 . S
C584 C585 1.391 . S
C585 H573 0.950 . S
C585 C581 1.393 . S
C585 C584 1.391 . S
C586 H576 0.950 . S
C586 C587 1.386 . S
C586 C588 1.391 . S
C587 C586 1.386 . S
C587 C591 1.393 . S
C588 H577 0.950 . S
C588 C586 1.391 . S
C588 C589 1.400 . S
C589 C583 1.491 . S
C589 C588 1.400 . S
C589 C590 1.398 . S
C590 H578 0.950 . S
C590 C589 1.398 . S
C590 C591 1.391 . S
C591 H579 0.950 . S
C591 C587 1.393 . S
C591 C590 1.391 . S
H592 C600 0.950 . S
H593 C605 0.950 . S
H594 C602 0.950 . S
H595 C604 0.950 . S
H596 C606 0.950 . S
H597 C608 0.950 . S
H598 C610 0.950 . S
H599 C611 0.950 . S
C600 H592 0.950 . S
C600 C601 1.386 . S
C600 C602 1.391 . S
C601 C600 1.386 . S
C601 C605 1.393 . S
C602 H594 0.950 . S
C602 C600 1.391 . S
C602 C603 1.400 . S
C603 C602 1.400 . S
C603 C604 1.398 . S
C603 C609 1.491 . S
C604 H595 0.950 . S
C604 C603 1.398 . S
C604 C605 1.391 . S
C605 H593 0.950 . S
C605 C601 1.393 . S
C605 C604 1.391 . S
C606 H596 0.950 . S
C606 C607 1.386 . S
C606 C608 1.391 . S
C607 C606 1.386 . S
C607 C611 1.393 . S
C608 H597 0.950 . S
C608 C606 1.391 . S
C608 C609 1.400 . S
C609 C603 1.491 . S
C609 C608 1.400 . S
C609 C610 1.398 . S
C610 H598 0.950 . S
C610 C609 1.398 . S
C610 C611 1.391 . S
C611 H599 0.950 . S
C611 C607 1.393 . S
C611 C610 1.391 . S
H612 C620 0.950 . S
H613 C625 0.950 . S
H614 C622 0.950 . S
H615 C624 0.950 . S
H616 C626 0.950 . S
H617 C628 0.950 . S
H618 C630 0.950 . S
H619 C631 0.950 . S
C620 H612 0.950 . S
C620 C621 1.386 . S
C620 C622 1.391 . S
C621 C620 1.386 . S
C621 C625 1.393 . S
C622 H614 0.950 . S
C622 C620 1.391 . S
C622 C623 1.400 . S
C623 C622 1.400 . S
C623 C624 1.398 . S
C623 C629 1.491 . S
C624 H615 0.950 . S
C624 C623 1.398 . S
C624 C625 1.391 . S
C625 H613 0.950 . S
C625 C621 1.393 . S
C625 C624 1.391 . S
C626 H616 0.950 . S
C626 C627 1.386 . S
C626 C628 1.391 . S
C627 C626 1.386 . S
C627 C631 1.393 . S
C628 H617 0.950 . S
C628 C626 1.391 . S
C628 C629 1.400 . S
C629 C623 1.491 . S
C629 C628 1.400 . S
C629 C630 1.398 . S
C630 H618 0.950 . S
C630 C629 1.398 . S
C630 C631 1.391 . S
C631 H619 0.950 . S
C631 C627 1.393 . S
C631 C630 1.391 . S
H632 C640 0.950 . S
H633 C645 0.950 . S
H634 C642 0.950 . S
H635 C644 0.950 . S
H636 C646 0.950 . S
H637 C648 0.950 . S
H638 C650 0.950 . S
H639 C651 0.950 . S
C640 H632 0.950 . S
C640 C641 1.386 . S
C640 C642 1.391 . S
C641 C640 1.386 . S
C641 C645 1.393 . S
C642 H634 0.950 . S
C642 C640 1.391 . S
C642 C643 1.400 . S
C643 C642 1.400 . S
C643 C644 1.398 . S
C643 C649 1.491 . S
C644 H635 0.950 . S
C644 C643 1.398 . S
C644 C645 1.391 . S
C645 H633 0.950 . S
C645 C641 1.393 . S
C645 C644 1.391 . S
C646 H636 0.950 . S
C646 C647 1.386 . S
C646 C648 1.391 . S
C647 C646 1.386 . S
C647 C651 1.393 . S
C648 H637 0.950 . S
C648 C646 1.391 . S
C648 C649 1.400 . S
C649 C643 1.491 . S
C649 C648 1.400 . S
C649 C650 1.398 . S
C650 H638 0.950 . S
C650 C649 1.398 . S
C650 C651 1.391 . S
C651 H639 0.950 . S
C651 C647 1.393 . S
C651 C650 1.391 . S
H652 C660 0.950 . S
H653 C665 0.950 . S
H654 C662 0.950 . S
H655 C664 0.950 . S
H656 C666 0.950 . S
H657 C668 0.950 . S
H658 C670 0.950 . S
H659 C671 0.950 . S
C660 H652 0.950 . S
C660 C661 1.386 . S
C660 C662 1.391 . S
C661 C660 1.386 . S
C661 C665 1.393 . S
C662 H654 0.950 . S
C662 C660 1.391 . S
C662 C663 1.400 . S
C663 C662 1.400 . S
C663 C664 1.398 . S
C663 C669 1.491 . S
C664 H655 0.950 . S
C664 C663 1.398 . S
C664 C665 1.391 . S
C665 H653 0.950 . S
C665 C661 1.393 . S
C665 C664 1.391 . S
C666 H656 0.950 . S
C666 C667 1.386 . S
C666 C668 1.391 . S
C667 C666 1.386 . S
C667 C671 1.393 . S
C668 H657 0.950 . S
C668 C666 1.391 . S
C668 C669 1.400 . S
C669 C663 1.491 . S
C669 C668 1.400 . S
C669 C670 1.398 . S
C670 H658 0.950 . S
C670 C669 1.398 . S
C670 C671 1.391 . S
C671 H659 0.950 . S
C671 C667 1.393 . S
C671 C670 1.391 . S
H672 C680 0.950 . S
H673 C685 0.950 . S
H674 C682 0.950 . S
H675 C684 0.950 . S
H676 C686 0.950 . S
H677 C688 0.950 . S
H678 C690 0.950 . S
H679 C691 0.950 . S
C680 H672 0.950 . S
C680 C681 1.386 . S
C680 C682 1.391 . S
C681 C680 1.386 . S
C681 C685 1.393 . S
C682 H674 0.950 . S
C682 C680 1.391 . S
C682 C683 1.400 . S
C683 C682 1.400 . S
C683 C684 1.398 . S
C683 C689 1.491 . S
C684 H675 0.950 . S
C684 C683 1.398 . S
C684 C685 1.391 . S
C685 H673 0.950 . S
C685 C681 1.393 . S
C685 C684 1.391 . S
C686 H676 0.950 . S
C686 C687 1.386 . S
C686 C688 1.391 . S
C687 C686 1.386 . S
C687 C691 1.393 . S
C688 H677 0.950 . S
C688 C686 1.391 . S
C688 C689 1.400 . S
C689 C683 1.491 . S
C689 C688 1.400 . S
C689 C690 1.398 . S
C690 H678 0.950 . S
C690 C689 1.398 . S
C690 C691 1.391 . S
C691 H679 0.950 . S
C691 C687 1.393 . S
C691 C690 1.391 . S
H692 C700 0.950 . S
H693 C705 0.950 . S
H694 C702 0.950 . S
H695 C704 0.950 . S
H696 C706 0.950 . S
H697 C708 0.950 . S
H698 C710 0.950 . S
H699 C711 0.950 . S
C700 H692 0.950 . S
C700 C701 1.386 . S
C700 C702 1.391 . S
C701 C700 1.386 . S
C701 C705 1.393 . S
C702 H694 0.950 . S
C702 C700 1.391 . S
C702 C703 1.400 . S
C703 C702 1.400 . S
C703 C704 1.398 . S
C703 C709 1.491 . S
C704 H695 0.950 . S
C704 C703 1.398 . S
C704 C705 1.391 . S
C705 H693 0.950 . S
C705 C701 1.393 . S
C705 C704 1.391 . S
C706 H696 0.950 . S
C706 C707 1.386 . S
C706 C708 1.391 . S
C707 C706 1.386 . S
C707 C711 1.393 . S
C708 H697 0.950 . S
C708 C706 1.391 . S
C708 C709 1.400 . S
C709 C703 1.491 . S
C709 C708 1.400 . S
C709 C710 1.398 . S
C710 H698 0.950 . S
C710 C709 1.398 . S
C710 C711 1.391 . S
C711 H699 0.950 . S
C711 C707 1.393 . S
C711 C710 1.391 . S
H712 C720 0.950 . S
H713 C725 0.950 . S
H714 C722 0.950 . S
H715 C724 0.950 . S
H716 C726 0.950 . S
H717 C728 0.950 . S
H718 C730 0.950 . S
H719 C731 0.950 . S
C720 H712 0.950 . S
C720 C721 1.386 . S
C720 C722 1.391 . S
C721 C720 1.386 . S
C721 C725 1.393 . S
C722 H714 0.950 . S
C722 C720 1.391 . S
C722 C723 1.400 . S
C723 C722 1.400 . S
C723 C724 1.398 . S
C723 C729 1.491 . S
C724 H715 0.950 . S
C724 C723 1.398 . S
C724 C725 1.391 . S
C725 H713 0.950 . S
C725 C721 1.393 . S
C725 C724 1.391 . S
C726 H716 0.950 . S
C726 C727 1.386 . S
C726 C728 1.391 . S
C727 C726 1.386 . S
C727 C731 1.393 . S
C728 H717 0.950 . S
C728 C726 1.391 . S
C728 C729 1.400 . S
C729 C723 1.491 . S
C729 C728 1.400 . S
C729 C730 1.398 . S
C730 H718 0.950 . S
C730 C729 1.398 . S
C730 C731 1.391 . S
C731 H719 0.950 . S
C731 C727 1.393 . S
C731 C730 1.391 . S
H732 C740 0.950 . S
H733 C745 0.950 . S
H734 C742 0.950 . S
H735 C744 0.950 . S
H736 C746 0.950 . S
H737 C748 0.950 . S
H738 C750 0.950 . S
H739 C751 0.950 . S
C740 H732 0.950 . S
C740 C741 1.386 . S
C740 C742 1.391 . S
C741 C740 1.386 . S
C741 C745 1.393 . S
C742 H734 0.950 . S
C742 C740 1.391 . S
C742 C743 1.400 . S
C743 C742 1.400 . S
C743 C744 1.398 . S
C743 C749 1.491 . S
C744 H735 0.950 . S
C744 C743 1.398 . S
C744 C745 1.391 . S
C745 H733 0.950 . S
C745 C741 1.393 . S
C745 C744 1.391 . S
C746 H736 0.950 . S
C746 C747 1.386 . S
C746 C748 1.391 . S
C747 C746 1.386 . S
C747 C751 1.393 . S
C748 H737 0.950 . S
C748 C746 1.391 . S
C748 C749 1.400 . S
C749 C743 1.491 . S
C749 C748 1.400 . S
C749 C750 1.398 . S
C750 H738 0.950 . S
C750 C749 1.398 . S
C750 C751 1.391 . S
C751 H739 0.950 . S
C751 C747 1.393 . S
C751 C750 1.391 . S
H752 C760 0.950 . S
H753 C765 0.950 . S
H754 C762 0.950 . S
H755 C764 0.950 . S
H756 C766 0.950 . S
H757 C768 0.950 . S
H758 C770 0.950 . S
H759 C771 0.950 . S
C760 H752 0.950 . S
C760 C761 1.386 . S
C760 C762 1.391 . S
C761 C760 1.386 . S
C761 C765 1.393 . S
C762 H754 0.950 . S
C762 C760 1.391 . S
C762 C763 1.400 . S
C763 C762 1.400 . S
C763 C764 1.398 . S
C763 C769 1.491 . S
C764 H755 0.950 . S
C764 C763 1.398 . S
C764 C765 1.391 . S
C765 H753 0.950 . S
C765 C761 1.393 . S
C765 C764 1.391 . S
C766 H756 0.950 . S
C766 C767 1.386 . S
C766 C768 1.391 . S
C767 C766 1.386 . S
C767 C771 1.393 . S
C768 H757 0.950 . S
C768 C766 1.391 . S
C768 C769 1.400 . S
C769 C763 1.491 . S
C769 C768 1.400 . S
C769 C770 1.398 . S
C770 H758 0.950 . S
C770 C769 1.398 . S
C770 C771 1.391 . S
C771 H759 0.950 . S
C771 C767 1.393 . S
C771 C770 1.391 . S
H772 C780 0.950 . S
H773 C785 0.950 . S
H774 C782 0.950 . S
H775 C784 0.950 . S
H776 C786 0.950 . S
H777 C788 0.950 . S
H778 C790 0.950 . S
H779 C791 0.950 . S
C780 H772 0.950 . S
C780 C781 1.386 . S
C780 C782 1.391 . S
C781 C780 1.386 . S
C781 C785 1.393 . S
C782 H774 0.950 . S
C782 C780 1.391 . S
C782 C783 1.400 . S
C783 C782 1.400 . S
C783 C784 1.398 . S
C783 C789 1.491 . S
C784 H775 0.950 . S
C784 C783 1.398 . S
C784 C785 1.391 . S
C785 H773 0.950 . S
C785 C781 1.393 . S
C785 C784 1.391 . S
C786 H776 0.950 . S
C786 C787 1.386 . S
C786 C788 1.391 . S
C787 C786 1.386 . S
C787 C791 1.393 . S
C788 H777 0.950 . S
C788 C786 1.391 . S
C788 C789 1.400 . S
C789 C783 1.491 . S
C789 C788 1.400 . S
C789 C790 1.398 . S
C790 H778 0.950 . S
C790 C789 1.398 . S
C790 C791 1.391 . S
C791 H779 0.950 . S
C791 C787 1.393 . S
C791 C790 1.391 . S
H792 C800 0.950 . S
H793 C805 0.947 1_545 S
H794 C802 0.950 . S
H795 C804 0.950 . S
H796 C806 0.950 . S
H797 C808 0.950 . S
H798 C810 0.950 . S
H799 C811 0.948 1_565 S
C800 H792 0.950 . S
C800 C801 1.386 . S
C800 C802 1.391 . S
C801 C800 1.386 . S
C801 C805 1.397 . S
C802 H794 0.950 . S
C802 C800 1.391 . S
C802 C803 1.400 . S
C803 C802 1.400 . S
C803 C804 1.398 1_565 S
C803 C809 1.491 1_566 S
C804 H795 0.950 . S
C804 C803 1.398 1_545 S
C804 C805 1.389 1_545 S
C805 H793 0.947 1_565 S
C805 C801 1.397 . S
C805 C804 1.389 1_565 S
C806 H796 0.950 . S
C806 C807 1.386 . S
C806 C808 1.391 . S
C807 C806 1.386 . S
C807 C811 1.397 . S
C808 H797 0.950 . S
C808 C806 1.391 . S
C808 C809 1.400 . S
C809 C803 1.491 1_544 S
C809 C808 1.400 . S
C809 C810 1.398 1_545 S
C810 H798 0.950 . S
C810 C809 1.398 1_565 S
C810 C811 1.389 1_565 S
C811 H799 0.948 1_545 S
C811 C807 1.397 . S
C811 C810 1.389 1_545 S
H812 C820 0.950 . S
H813 C825 0.950 . S
H814 C822 0.950 . S
H815 C824 0.950 . S
H816 C826 0.950 . S
H817 C828 0.950 . S
H818 C830 0.950 . S
H819 C831 0.950 . S
C820 H812 0.950 . S
C820 C821 1.386 . S
C820 C822 1.391 . S
C821 C820 1.386 . S
C821 C825 1.393 . S
C822 H814 0.950 . S
C822 C820 1.391 . S
C822 C823 1.400 . S
C823 C822 1.400 . S
C823 C824 1.398 . S
C823 C829 1.491 . S
C824 H815 0.950 . S
C824 C823 1.398 . S
C824 C825 1.391 . S
C825 H813 0.950 . S
C825 C821 1.393 . S
C825 C824 1.391 . S
C826 H816 0.950 . S
C826 C827 1.386 . S
C826 C828 1.391 . S
C827 C826 1.386 . S
C827 C831 1.393 . S
C828 H817 0.950 . S
C828 C826 1.391 . S
C828 C829 1.400 . S
C829 C823 1.491 . S
C829 C828 1.400 . S
C829 C830 1.398 . S
C830 H818 0.950 . S
C830 C829 1.398 . S
C830 C831 1.391 . S
C831 H819 0.950 . S
C831 C827 1.393 . S
C831 C830 1.391 . S
H832 C840 0.950 . S
H833 C845 0.955 . S
H834 C842 0.950 . S
H835 C844 0.950 . S
H836 C846 0.950 . S
H837 C848 0.950 . S
H838 C850 0.950 . S
H839 C851 0.955 . S
C840 H832 0.950 . S
C840 C841 1.386 . S
C840 C842 1.391 . S
C841 C840 1.386 . S
C841 C845 1.384 1_455 S
C842 H834 0.950 . S
C842 C840 1.391 . S
C842 C843 1.400 . S
C843 C842 1.400 . S
C843 C844 1.398 1_455 S
C843 C849 1.491 1_456 S
C844 H835 0.950 . S
C844 C843 1.398 1_655 S
C844 C845 1.393 . S
C845 H833 0.955 . S
C845 C841 1.384 1_655 S
C845 C844 1.393 . S
C846 H836 0.950 . S
C846 C847 1.386 . S
C846 C848 1.391 . S
C847 C846 1.386 . S
C847 C851 1.385 1_655 S
C848 H837 0.950 . S
C848 C846 1.391 . S
C848 C849 1.400 . S
C849 C843 1.491 1_654 S
C849 C848 1.400 . S
C849 C850 1.398 1_655 S
C850 H838 0.950 . S
C850 C849 1.398 1_455 S
C850 C851 1.393 . S
C851 H839 0.955 . S
C851 C847 1.385 1_455 S
C851 C850 1.393 . S
H852 C860 0.950 . S
H853 C865 0.950 . S
H854 C862 0.950 . S
H855 C864 0.950 . S
H856 C866 0.950 . S
H857 C868 0.950 . S
H858 C870 0.950 . S
H859 C871 0.950 . S
C860 H852 0.950 . S
C860 C861 1.386 . S
C860 C862 1.391 1_545 S
C861 C860 1.386 . S
C861 C865 1.393 . S
C862 H854 0.950 . S
C862 C860 1.391 1_565 S
C862 C863 1.400 1_565 S
C863 C862 1.400 1_545 S
C863 C864 1.398 . S
C863 C869 1.491 1_545 S
C864 H855 0.950 . S
C864 C863 1.398 . S
C864 C865 1.391 . S
C865 H853 0.950 . S
C865 C861 1.393 . S
C865 C864 1.391 . S
C866 H856 0.950 . S
C866 C867 1.386 . S
C866 C868 1.391 1_565 S
C867 C866 1.386 . S
C867 C871 1.393 . S
C868 H857 0.950 . S
C868 C866 1.391 1_545 S
C868 C869 1.400 1_545 S
C869 C863 1.491 1_565 S
C869 C868 1.400 1_565 S
C869 C870 1.398 . S
C870 H858 0.950 . S
C870 C869 1.398 . S
C870 C871 1.391 . S
C871 H859 0.950 . S
C871 C867 1.393 . S
C871 C870 1.391 . S
H872 C880 0.950 . S
H873 C885 0.950 . S
H874 C882 0.950 . S
H875 C884 0.950 . S
H876 C886 0.950 . S
H877 C888 0.950 . S
H878 C890 0.950 . S
H879 C891 0.950 . S
C880 H872 0.950 . S
C880 C881 1.386 . S
C880 C882 1.391 . S
C881 C880 1.386 . S
C881 C885 1.393 . S
C882 H874 0.950 . S
C882 C880 1.391 . S
C882 C883 1.400 . S
C883 C882 1.400 . S
C883 C884 1.398 . S
C883 C889 1.491 1_554 S
C884 H875 0.950 . S
C884 C883 1.398 . S
C884 C885 1.391 . S
C885 H873 0.950 . S
C885 C881 1.393 . S
C885 C884 1.391 . S
C886 H876 0.950 . S
C886 C887 1.386 . S
C886 C888 1.391 . S
C887 C886 1.386 . S
C887 C891 1.393 . S
C888 H877 0.950 . S
C888 C886 1.391 . S
C888 C889 1.400 . S
C889 C883 1.491 1_556 S
C889 C888 1.400 . S
C889 C890 1.398 . S
C890 H878 0.950 . S
C890 C889 1.398 . S
C890 C891 1.391 . S
C891 H879 0.950 . S
C891 C887 1.393 . S
C891 C890 1.391 . S
H892 C900 0.950 . S
H893 C905 0.950 1_655 S
H894 C902 0.950 . S
H895 C904 0.950 . S
H896 C906 0.950 . S
H897 C908 0.950 . S
H898 C910 0.950 . S
H899 C911 0.950 1_455 S
C900 H892 0.950 . S
C900 C901 1.386 . S
C900 C902 1.391 . S
C901 C900 1.386 . S
C901 C905 1.393 . S
C902 H894 0.950 . S
C902 C900 1.391 . S
C902 C903 1.400 . S
C903 C902 1.400 . S
C903 C904 1.398 1_455 S
C903 C909 1.491 1_455 S
C904 H895 0.950 . S
C904 C903 1.398 1_655 S
C904 C905 1.391 1_655 S
C905 H893 0.950 1_455 S
C905 C901 1.393 . S
C905 C904 1.391 1_455 S
C906 H896 0.950 . S
C906 C907 1.386 . S
C906 C908 1.391 . S
C907 C906 1.386 . S
C907 C911 1.393 . S
C908 H897 0.950 . S
C908 C906 1.391 . S
C908 C909 1.400 . S
C909 C903 1.491 1_655 S
C909 C908 1.400 . S
C909 C910 1.398 1_655 S
C910 H898 0.950 . S
C910 C909 1.398 1_455 S
C910 C911 1.391 1_455 S
C911 H899 0.950 1_655 S
C911 C907 1.393 . S
C911 C910 1.391 1_655 S
H912 C920 0.950 . S
H913 C925 0.922 1_545 S
H914 C922 0.950 . S
H915 C924 0.950 . S
H916 C926 0.950 . S
H917 C928 0.950 . S
H918 C930 0.950 . S
H919 C931 0.921 1_565 S
C920 H912 0.950 . S
C920 C921 1.386 . S
C920 C922 1.391 . S
C921 C920 1.386 . S
C921 C925 1.435 . S
C922 H914 0.950 . S
C922 C920 1.391 . S
C922 C923 1.400 . S
C923 C922 1.400 . S
C923 C924 1.398 1_565 S
C923 C929 1.491 1_566 S
C924 H915 0.950 . S
C924 C923 1.398 1_545 S
C924 C925 1.378 1_545 S
C925 H913 0.922 1_565 S
C925 C921 1.435 . S
C925 C924 1.378 1_565 S
C926 H916 0.950 . S
C926 C927 1.386 . S
C926 C928 1.391 . S
C927 C926 1.386 . S
C927 C931 1.436 . S
C928 H917 0.950 . S
C928 C926 1.391 . S
C928 C929 1.400 . S
C929 C923 1.491 1_544 S
C929 C928 1.400 . S
C929 C930 1.398 1_545 S
C930 H918 0.950 . S
C930 C929 1.398 1_565 S
C930 C931 1.377 1_565 S
C931 H919 0.921 1_545 S
C931 C927 1.436 . S
C931 C930 1.377 1_545 S
H932 C940 0.950 . S
H933 C945 0.950 . S
H934 C942 0.950 . S
H935 C944 0.950 . S
H936 C946 0.950 . S
H937 C948 0.950 . S
H938 C950 0.950 . S
H939 C951 0.950 . S
C940 H932 0.950 . S
C940 C941 1.386 . S
C940 C942 1.391 . S
C941 C940 1.386 . S
C941 C945 1.393 . S
C942 H934 0.950 . S
C942 C940 1.391 . S
C942 C943 1.400 . S
C943 C942 1.400 . S
C943 C944 1.398 . S
C943 C949 1.491 . S
C944 H935 0.950 . S
C944 C943 1.398 . S
C944 C945 1.391 . S
C945 H933 0.950 . S
C945 C941 1.393 . S
C945 C944 1.391 . S
C946 H936 0.950 . S
C946 C947 1.386 . S
C946 C948 1.391 . S
C947 C946 1.386 . S
C947 C951 1.393 . S
C948 H937 0.950 . S
C948 C946 1.391 . S
C948 C949 1.400 . S
C949 C943 1.491 . S
C949 C948 1.400 . S
C949 C950 1.398 . S
C950 H938 0.950 . S
C950 C949 1.398 . S
C950 C951 1.391 . S
C951 H939 0.950 . S
C951 C947 1.393 . S
C951 C950 1.391 . S
H952 C960 0.950 1_455 S
H953 C965 0.950 . S
H954 C962 0.950 . S
H955 C964 0.950 . S
H956 C966 0.950 1_655 S
H957 C968 0.950 . S
H958 C970 0.950 . S
H959 C971 0.950 . S
C960 H952 0.950 1_655 S
C960 C961 1.386 . S
C960 C962 1.391 1_655 S
C961 C960 1.386 . S
C961 C965 1.393 . S
C962 H954 0.950 . S
C962 C960 1.391 1_455 S
C962 C963 1.400 1_455 S
C963 C962 1.400 1_655 S
C963 C964 1.398 . S
C963 C969 1.491 1_654 S
C964 H955 0.950 . S
C964 C963 1.398 . S
C964 C965 1.391 . S
C965 H953 0.950 . S
C965 C961 1.393 . S
C965 C964 1.391 . S
C966 H956 0.950 1_455 S
C966 C967 1.386 . S
C966 C968 1.391 1_455 S
C967 C966 1.386 . S
C967 C971 1.393 . S
C968 H957 0.950 . S
C968 C966 1.391 1_655 S
C968 C969 1.400 1_655 S
C969 C963 1.491 1_456 S
C969 C968 1.400 1_455 S
C969 C970 1.398 . S
C970 H958 0.950 . S
C970 C969 1.398 . S
C970 C971 1.391 . S
C971 H959 0.950 . S
C971 C967 1.393 . S
C971 C970 1.391 . S
H972 C980 0.950 . S
H973 C985 0.950 . S
H974 C982 0.950 . S
H975 C984 0.950 1_545 S
H976 C986 0.950 . S
H977 C988 0.950 . S
H978 C990 0.950 1_565 S
H979 C991 0.950 . S
C980 H972 0.950 . S
C980 C981 1.386 . S
C980 C982 1.391 . S
C981 C980 1.386 . S
C981 C985 1.393 . S
C982 H974 0.950 . S
C982 C980 1.391 . S
C982 C983 1.400 . S
C983 C982 1.400 . S
C983 C984 1.398 . S
C983 C989 1.491 1_565 S
C984 H975 0.950 1_565 S
C984 C983 1.398 . S
C984 C985 1.391 . S
C985 H973 0.950 . S
C985 C981 1.393 . S
C985 C984 1.391 . S
C986 H976 0.950 . S
C986 C987 1.386 . S
C986 C988 1.391 . S
C987 C986 1.386 . S
C987 C991 1.393 . S
C988 H977 0.950 . S
C988 C986 1.391 . S
C988 C989 1.400 . S
C989 C983 1.491 1_545 S
C989 C988 1.400 . S
C989 C990 1.398 . S
C990 H978 0.950 1_545 S
C990 C989 1.398 . S
C990 C991 1.391 . S
C991 H979 0.950 . S
C991 C987 1.393 . S
C991 C990 1.391 . S
H992 C1000 0.950 . S
H993 C1005 0.950 . S
H994 C1002 0.950 . S
H995 C1004 0.950 . S
H996 C1006 0.950 . S
H997 C1008 0.950 . S
H998 C1010 0.950 . S
H999 C1011 0.950 . S
C1000 H992 0.950 . S
C1000 C1001 1.386 . S
C1000 C1002 1.391 . S
C1001 C1000 1.386 . S
C1001 C1005 1.393 . S
C1002 H994 0.950 . S
C1002 C1000 1.391 . S
C1002 C1003 1.400 . S
C1003 C1002 1.400 . S
C1003 C1004 1.398 . S
C1003 C1009 1.491 1_554 S
C1004 H995 0.950 . S
C1004 C1003 1.398 . S
C1004 C1005 1.391 . S
C1005 H993 0.950 . S
C1005 C1001 1.393 . S
C1005 C1004 1.391 . S
C1006 H996 0.950 . S
C1006 C1007 1.386 . S
C1006 C1008 1.391 . S
C1007 C1006 1.386 . S
C1007 C1011 1.393 . S
C1008 H997 0.950 . S
C1008 C1006 1.391 . S
C1008 C1009 1.400 . S
C1009 C1003 1.491 1_556 S
C1009 C1008 1.400 . S
C1009 C1010 1.398 . S
C1010 H998 0.950 . S
C1010 C1009 1.398 . S
C1010 C1011 1.391 . S
C1011 H999 0.950 . S
C1011 C1007 1.393 . S
C1011 C1010 1.391 . S
H1012 C1020 0.950 . S
H1013 C1025 0.950 . S
H1014 C1022 0.950 . S
H1015 C1024 0.950 . S
H1016 C1026 0.950 . S
H1017 C1028 0.950 . S
H1018 C1030 0.950 . S
H1019 C1031 0.950 . S
C1020 H1012 0.950 . S
C1020 C1021 1.386 . S
C1020 C1022 1.391 . S
C1021 C1020 1.386 . S
C1021 C1025 1.393 . S
C1022 H1014 0.950 . S
C1022 C1020 1.391 . S
C1022 C1023 1.400 . S
C1023 C1022 1.400 . S
C1023 C1024 1.398 1_455 S
C1023 C1029 1.491 1_455 S
C1024 H1015 0.950 . S
C1024 C1023 1.398 1_655 S
C1024 C1025 1.391 1_655 S
C1025 H1013 0.950 . S
C1025 C1021 1.393 . S
C1025 C1024 1.391 1_455 S
C1026 H1016 0.950 . S
C1026 C1027 1.386 . S
C1026 C1028 1.391 . S
C1027 C1026 1.386 . S
C1027 C1031 1.393 . S
C1028 H1017 0.950 . S
C1028 C1026 1.391 . S
C1028 C1029 1.400 . S
C1029 C1023 1.491 1_655 S
C1029 C1028 1.400 . S
C1029 C1030 1.398 1_655 S
C1030 H1018 0.950 . S
C1030 C1029 1.398 1_455 S
C1030 C1031 1.391 1_455 S
C1031 H1019 0.950 . S
C1031 C1027 1.393 . S
C1031 C1030 1.391 1_655 S
H1032 C1040 0.950 . S
H1033 C1045 0.950 . S
H1034 C1042 0.950 . S
H1035 C1044 0.950 . S
H1036 C1046 0.950 . S
H1037 C1048 0.950 . S
H1038 C1050 0.950 . S
H1039 C1051 0.950 . S
C1040 H1032 0.950 . S
C1040 C1041 1.386 . S
C1040 C1042 1.391 . S
C1041 C1040 1.386 . S
C1041 C1045 1.393 . S
C1042 H1034 0.950 . S
C1042 C1040 1.391 . S
C1042 C1043 1.400 . S
C1043 C1042 1.400 . S
C1043 C1044 1.398 . S
C1043 C1049 1.491 . S
C1044 H1035 0.950 . S
C1044 C1043 1.398 . S
C1044 C1045 1.391 . S
C1045 H1033 0.950 . S
C1045 C1041 1.393 . S
C1045 C1044 1.391 . S
C1046 H1036 0.950 . S
C1046 C1047 1.386 . S
C1046 C1048 1.391 . S
C1047 C1046 1.386 . S
C1047 C1051 1.393 . S
C1048 H1037 0.950 . S
C1048 C1046 1.391 . S
C1048 C1049 1.400 . S
C1049 C1043 1.491 . S
C1049 C1048 1.400 . S
C1049 C1050 1.398 . S
C1050 H1038 0.950 . S
C1050 C1049 1.398 . S
C1050 C1051 1.391 . S
C1051 H1039 0.950 . S
C1051 C1047 1.393 . S
C1051 C1050 1.391 . S
H1052 C1060 0.950 . S
H1053 C1065 0.950 . S
H1054 C1062 0.950 . S
H1055 C1064 0.950 . S
H1056 C1066 0.950 . S
H1057 C1068 0.950 . S
H1058 C1070 0.950 . S
H1059 C1071 0.950 . S
C1060 H1052 0.950 . S
C1060 C1061 1.386 . S
C1060 C1062 1.391 . S
C1061 C1060 1.386 . S
C1061 C1065 1.393 . S
C1062 H1054 0.950 . S
C1062 C1060 1.391 . S
C1062 C1063 1.400 . S
C1063 C1062 1.400 . S
C1063 C1064 1.398 . S
C1063 C1069 1.491 . S
C1064 H1055 0.950 . S
C1064 C1063 1.398 . S
C1064 C1065 1.391 . S
C1065 H1053 0.950 . S
C1065 C1061 1.393 . S
C1065 C1064 1.391 . S
C1066 H1056 0.950 . S
C1066 C1067 1.386 . S
C1066 C1068 1.391 . S
C1067 C1066 1.386 . S
C1067 C1071 1.393 . S
C1068 H1057 0.950 . S
C1068 C1066 1.391 . S
C1068 C1069 1.400 . S
C1069 C1063 1.491 . S
C1069 C1068 1.400 . S
C1069 C1070 1.398 . S
C1070 H1058 0.950 . S
C1070 C1069 1.398 . S
C1070 C1071 1.391 . S
C1071 H1059 0.950 . S
C1071 C1067 1.393 . S
C1071 C1070 1.391 . S
H1072 C1080 0.950 . S
H1073 C1085 0.950 . S
H1074 C1082 0.950 . S
H1075 C1084 0.950 . S
H1076 C1086 0.950 . S
H1077 C1088 0.950 . S
H1078 C1090 0.950 . S
H1079 C1091 0.950 . S
C1080 H1072 0.950 . S
C1080 C1081 1.386 . S
C1080 C1082 1.391 . S
C1081 C1080 1.386 . S
C1081 C1085 1.393 . S
C1082 H1074 0.950 . S
C1082 C1080 1.391 . S
C1082 C1083 1.400 . S
C1083 C1082 1.400 . S
C1083 C1084 1.398 . S
C1083 C1089 1.491 . S
C1084 H1075 0.950 . S
C1084 C1083 1.398 . S
C1084 C1085 1.391 . S
C1085 H1073 0.950 . S
C1085 C1081 1.393 . S
C1085 C1084 1.391 . S
C1086 H1076 0.950 . S
C1086 C1087 1.386 . S
C1086 C1088 1.391 . S
C1087 C1086 1.386 . S
C1087 C1091 1.393 . S
C1088 H1077 0.950 . S
C1088 C1086 1.391 . S
C1088 C1089 1.400 . S
C1089 C1083 1.491 . S
C1089 C1088 1.400 . S
C1089 C1090 1.398 . S
C1090 H1078 0.950 . S
C1090 C1089 1.398 . S
C1090 C1091 1.391 . S
C1091 H1079 0.950 . S
C1091 C1087 1.393 . S
C1091 C1090 1.391 . S
H1092 C1100 0.950 . S
H1093 C1105 0.950 . S
H1094 C1102 0.950 . S
H1095 C1104 0.950 . S
H1096 C1106 0.950 . S
H1097 C1108 0.950 . S
H1098 C1110 0.950 . S
H1099 C1111 0.950 . S
C1100 H1092 0.950 . S
C1100 C1101 1.386 . S
C1100 C1102 1.391 . S
C1101 C1100 1.386 . S
C1101 C1105 1.393 . S
C1102 H1094 0.950 . S
C1102 C1100 1.391 . S
C1102 C1103 1.400 . S
C1103 C1102 1.400 . S
C1103 C1104 1.398 . S
C1103 C1109 1.491 . S
C1104 H1095 0.950 . S
C1104 C1103 1.398 . S
C1104 C1105 1.391 . S
C1105 H1093 0.950 . S
C1105 C1101 1.393 . S
C1105 C1104 1.391 . S
C1106 H1096 0.950 . S
C1106 C1107 1.386 . S
C1106 C1108 1.391 . S
C1107 C1106 1.386 . S
C1107 C1111 1.393 . S
C1108 H1097 0.950 . S
C1108 C1106 1.391 . S
C1108 C1109 1.400 . S
C1109 C1103 1.491 . S
C1109 C1108 1.400 . S
C1109 C1110 1.398 . S
C1110 H1098 0.950 . S
C1110 C1109 1.398 . S
C1110 C1111 1.391 . S
C1111 H1099 0.950 . S
C1111 C1107 1.393 . S
C1111 C1110 1.391 . S
H1112 C1120 0.950 . S
H1113 C1125 0.950 . S
H1114 C1122 0.950 . S
H1115 C1124 0.950 . S
H1116 C1126 0.950 . S
H1117 C1128 0.950 . S
H1118 C1130 0.950 . S
H1119 C1131 0.950 . S
C1120 H1112 0.950 . S
C1120 C1121 1.386 . S
C1120 C1122 1.391 . S
C1121 C1120 1.386 . S
C1121 C1125 1.393 . S
C1122 H1114 0.950 . S
C1122 C1120 1.391 . S
C1122 C1123 1.400 . S
C1123 C1122 1.400 . S
C1123 C1124 1.398 . S
C1123 C1129 1.491 . S
C1124 H1115 0.950 . S
C1124 C1123 1.398 . S
C1124 C1125 1.391 . S
C1125 H1113 0.950 . S
C1125 C1121 1.393 . S
C1125 C1124 1.391 . S
C1126 H1116 0.950 . S
C1126 C1127 1.386 . S
C1126 C1128 1.391 . S
C1127 C1126 1.386 . S
C1127 C1131 1.393 . S
C1128 H1117 0.950 . S
C1128 C1126 1.391 . S
C1128 C1129 1.400 . S
C1129 C1123 1.491 . S
C1129 C1128 1.400 . S
C1129 C1130 1.398 . S
C1130 H1118 0.950 . S
C1130 C1129 1.398 . S
C1130 C1131 1.391 . S
C1131 H1119 0.950 . S
C1131 C1127 1.393 . S
C1131 C1130 1.391 . S
H1132 C1140 0.950 . S
H1133 C1145 0.950 . S
H1134 C1142 0.950 . S
H1135 C1144 0.950 . S
H1136 C1146 0.950 . S
H1137 C1148 0.950 . S
H1138 C1150 0.950 . S
H1139 C1151 0.950 . S
C1140 H1132 0.950 . S
C1140 C1141 1.386 . S
C1140 C1142 1.391 . S
C1141 C1140 1.386 . S
C1141 C1145 1.393 . S
C1142 H1134 0.950 . S
C1142 C1140 1.391 . S
C1142 C1143 1.400 . S
C1143 C1142 1.400 . S
C1143 C1144 1.398 . S
C1143 C1149 1.491 . S
C1144 H1135 0.950 . S
C1144 C1143 1.398 . S
C1144 C1145 1.391 . S
C1145 H1133 0.950 . S
C1145 C1141 1.393 . S
C1145 C1144 1.391 . S
C1146 H1136 0.950 . S
C1146 C1147 1.386 . S
C1146 C1148 1.391 . S
C1147 C1146 1.386 . S
C1147 C1151 1.393 . S
C1148 H1137 0.950 . S
C1148 C1146 1.391 . S
C1148 C1149 1.400 . S
C1149 C1143 1.491 . S
C1149 C1148 1.400 . S
C1149 C1150 1.398 . S
C1150 H1138 0.950 . S
C1150 C1149 1.398 . S
C1150 C1151 1.391 . S
C1151 H1139 0.950 . S
C1151 C1147 1.393 . S
C1151 C1150 1.391 . S
H1152 C1160 0.950 . S
H1153 C1165 0.950 . S
H1154 C1162 0.950 . S
H1155 C1164 0.950 . S
H1156 C1166 0.950 . S
H1157 C1168 0.950 . S
H1158 C1170 0.950 . S
H1159 C1171 0.950 . S
C1160 H1152 0.950 . S
C1160 C1161 1.386 . S
C1160 C1162 1.391 . S
C1161 C1160 1.386 . S
C1161 C1165 1.393 . S
C1162 H1154 0.950 . S
C1162 C1160 1.391 . S
C1162 C1163 1.400 . S
C1163 C1162 1.400 . S
C1163 C1164 1.398 . S
C1163 C1169 1.491 . S
C1164 H1155 0.950 . S
C1164 C1163 1.398 . S
C1164 C1165 1.391 . S
C1165 H1153 0.950 . S
C1165 C1161 1.393 . S
C1165 C1164 1.391 . S
C1166 H1156 0.950 . S
C1166 C1167 1.386 . S
C1166 C1168 1.391 . S
C1167 C1166 1.386 . S
C1167 C1171 1.393 . S
C1168 H1157 0.950 . S
C1168 C1166 1.391 . S
C1168 C1169 1.400 . S
C1169 C1163 1.491 . S
C1169 C1168 1.400 . S
C1169 C1170 1.398 . S
C1170 H1158 0.950 . S
C1170 C1169 1.398 . S
C1170 C1171 1.391 . S
C1171 H1159 0.950 . S
C1171 C1167 1.393 . S
C1171 C1170 1.391 . S
H1172 C1180 0.950 . S
H1173 C1185 0.950 . S
H1174 C1182 0.950 . S
H1175 C1184 0.950 . S
H1176 C1186 0.950 . S
H1177 C1188 0.950 . S
H1178 C1190 0.950 . S
H1179 C1191 0.950 . S
C1180 H1172 0.950 . S
C1180 C1181 1.386 . S
C1180 C1182 1.391 . S
C1181 C1180 1.386 . S
C1181 C1185 1.393 . S
C1182 H1174 0.950 . S
C1182 C1180 1.391 . S
C1182 C1183 1.400 . S
C1183 C1182 1.400 . S
C1183 C1184 1.398 . S
C1183 C1189 1.491 . S
C1184 H1175 0.950 . S
C1184 C1183 1.398 . S
C1184 C1185 1.391 . S
C1185 H1173 0.950 . S
C1185 C1181 1.393 . S
C1185 C1184 1.391 . S
C1186 H1176 0.950 . S
C1186 C1187 1.386 . S
C1186 C1188 1.391 . S
C1187 C1186 1.386 . S
C1187 C1191 1.393 . S
C1188 H1177 0.950 . S
C1188 C1186 1.391 . S
C1188 C1189 1.400 . S
C1189 C1183 1.491 . S
C1189 C1188 1.400 . S
C1189 C1190 1.398 . S
C1190 H1178 0.950 . S
C1190 C1189 1.398 . S
C1190 C1191 1.391 . S
C1191 H1179 0.950 . S
C1191 C1187 1.393 . S
C1191 C1190 1.391 . S
H1192 C1200 0.950 . S
H1193 C1205 0.950 . S
H1194 C1202 0.950 . S
H1195 C1204 0.950 . S
H1196 C1206 0.950 . S
H1197 C1208 0.950 . S
H1198 C1210 0.950 . S
H1199 C1211 0.950 . S
C1200 H1192 0.950 . S
C1200 C1201 1.386 . S
C1200 C1202 1.391 . S
C1201 C1200 1.386 . S
C1201 C1205 1.393 . S
C1202 H1194 0.950 . S
C1202 C1200 1.391 . S
C1202 C1203 1.400 . S
C1203 C1202 1.400 . S
C1203 C1204 1.398 . S
C1203 C1209 1.491 . S
C1204 H1195 0.950 . S
C1204 C1203 1.398 . S
C1204 C1205 1.391 . S
C1205 H1193 0.950 . S
C1205 C1201 1.393 . S
C1205 C1204 1.391 . S
C1206 H1196 0.950 . S
C1206 C1207 1.386 . S
C1206 C1208 1.391 . S
C1207 C1206 1.386 . S
C1207 C1211 1.393 . S
C1208 H1197 0.950 . S
C1208 C1206 1.391 . S
C1208 C1209 1.400 . S
C1209 C1203 1.491 . S
C1209 C1208 1.400 . S
C1209 C1210 1.398 . S
C1210 H1198 0.950 . S
C1210 C1209 1.398 . S
C1210 C1211 1.391 . S
C1211 H1199 0.950 . S
C1211 C1207 1.393 . S
C1211 C1210 1.391 . S
H1212 C1220 0.950 . S
H1213 C1225 0.950 . S
H1214 C1222 0.950 . S
H1215 C1224 0.950 . S
H1216 C1226 0.950 . S
H1217 C1228 0.950 . S
H1218 C1230 0.950 . S
H1219 C1231 0.950 . S
C1220 H1212 0.950 . S
C1220 C1221 1.386 . S
C1220 C1222 1.391 . S
C1221 C1220 1.386 . S
C1221 C1225 1.393 . S
C1222 H1214 0.950 . S
C1222 C1220 1.391 . S
C1222 C1223 1.400 . S
C1223 C1222 1.400 . S
C1223 C1224 1.398 . S
C1223 C1229 1.491 . S
C1224 H1215 0.950 . S
C1224 C1223 1.398 . S
C1224 C1225 1.391 . S
C1225 H1213 0.950 . S
C1225 C1221 1.393 . S
C1225 C1224 1.391 . S
C1226 H1216 0.950 . S
C1226 C1227 1.386 . S
C1226 C1228 1.391 . S
C1227 C1226 1.386 . S
C1227 C1231 1.393 . S
C1228 H1217 0.950 . S
C1228 C1226 1.391 . S
C1228 C1229 1.400 . S
C1229 C1223 1.491 . S
C1229 C1228 1.400 . S
C1229 C1230 1.398 . S
C1230 H1218 0.950 . S
C1230 C1229 1.398 . S
C1230 C1231 1.391 . S
C1231 H1219 0.950 . S
C1231 C1227 1.393 . S
C1231 C1230 1.391 . S
H1232 C1240 0.950 . S
H1233 C1245 0.950 . S
H1234 C1242 0.950 . S
H1235 C1244 0.950 . S
H1236 C1246 0.950 . S
H1237 C1248 0.950 . S
H1238 C1250 0.950 . S
H1239 C1251 0.950 . S
C1240 H1232 0.950 . S
C1240 C1241 1.386 . S
C1240 C1242 1.391 . S
C1241 C1240 1.386 . S
C1241 C1245 1.393 . S
C1242 H1234 0.950 . S
C1242 C1240 1.391 . S
C1242 C1243 1.400 . S
C1243 C1242 1.400 . S
C1243 C1244 1.398 . S
C1243 C1249 1.491 . S
C1244 H1235 0.950 . S
C1244 C1243 1.398 . S
C1244 C1245 1.391 . S
C1245 H1233 0.950 . S
C1245 C1241 1.393 . S
C1245 C1244 1.391 . S
C1246 H1236 0.950 . S
C1246 C1247 1.386 . S
C1246 C1248 1.391 . S
C1247 C1246 1.386 . S
C1247 C1251 1.393 . S
C1248 H1237 0.950 . S
C1248 C1246 1.391 . S
C1248 C1249 1.400 . S
C1249 C1243 1.491 . S
C1249 C1248 1.400 . S
C1249 C1250 1.398 . S
C1250 H1238 0.950 . S
C1250 C1249 1.398 . S
C1250 C1251 1.391 . S
C1251 H1239 0.950 . S
C1251 C1247 1.393 . S
C1251 C1250 1.391 . S
H1252 C1260 0.950 . S
H1253 C1265 0.950 . S
H1254 C1262 0.950 . S
H1255 C1264 0.950 . S
H1256 C1266 0.950 . S
H1257 C1268 0.950 . S
H1258 C1270 0.950 . S
H1259 C1271 0.950 . S
C1260 H1252 0.950 . S
C1260 C1261 1.386 . S
C1260 C1262 1.391 . S
C1261 C1260 1.386 . S
C1261 C1265 1.393 . S
C1262 H1254 0.950 . S
C1262 C1260 1.391 . S
C1262 C1263 1.400 . S
C1263 C1262 1.400 . S
C1263 C1264 1.398 . S
C1263 C1269 1.491 . S
C1264 H1255 0.950 . S
C1264 C1263 1.398 . S
C1264 C1265 1.391 . S
C1265 H1253 0.950 . S
C1265 C1261 1.393 . S
C1265 C1264 1.391 . S
C1266 H1256 0.950 . S
C1266 C1267 1.386 . S
C1266 C1268 1.391 . S
C1267 C1266 1.386 . S
C1267 C1271 1.393 . S
C1268 H1257 0.950 . S
C1268 C1266 1.391 . S
C1268 C1269 1.400 . S
C1269 C1263 1.491 . S
C1269 C1268 1.400 . S
C1269 C1270 1.398 . S
C1270 H1258 0.950 . S
C1270 C1269 1.398 . S
C1270 C1271 1.391 . S
C1271 H1259 0.950 . S
C1271 C1267 1.393 . S
C1271 C1270 1.391 . S
C321 C199 1.396 . S
C327 C10 1.387 . S
C341 C17 1.393 . S
C347 C212 1.390 . S
C361 C36 1.391 . S
C367 C231 1.391 . S
C381 C43 1.394 . S
C387 C166 1.389 . S
C401 C179 1.387 . S
C407 C62 1.395 . S
C421 C75 1.390 . S
C427 C186 1.393 . S
C441 C277 1.398 . S
C447 C88 1.385 . S
C461 C95 1.397 . S
C467 C296 1.385 . S
C481 C108 1.396 . S
C487 C309 1.386 . S
C501 C238 1.395 . S
C507 C121 1.388 . S
C521 C134 1.385 . S
C527 C257 1.397 . S
C541 C270 1.396 . S
C547 C153 1.386 . S
C561 C4 1.685 . S
C567 C303 1.689 . S
C581 C244 1.683 . S
C587 C23 1.691 . S
C601 C30 1.691 . S
C607 C251 1.683 . S
C621 C264 1.684 . S
C627 C49 1.691 . S
C641 C56 1.691 . S
C647 C283 1.684 . S
C661 C290 1.683 . S
C667 C69 1.691 . S
C681 C82 1.684 . S
C687 C173 1.690 . S
C701 C192 1.683 . S
C707 C101 1.691 . S
C721 C205 1.686 . S
C727 C114 1.689 . S
C741 C218 1.689 . S
C747 C127 1.686 . S
C761 C140 1.684 . S
C767 C225 1.690 . S
C781 C147 1.691 . S
C787 C160 1.683 . S
C801 C96 1.275 . S
C807 C3 1.283 . S
C821 C109 1.281 . S
C827 C18 1.287 . S
C841 C122 1.275 . S
C847 C29 1.284 . S
C861 C135 1.277 . S
C867 C44 1.272 . S
C881 C55 1.278 . S
C887 C146 1.286 . S
C901 C68 1.280 . S
C907 C81 1.287 . S
C921 C159 1.287 . S
C927 C250 1.280 . S
C941 C172 1.288 . S
C947 C263 1.283 . S
C961 C278 1.273 . S
C967 C187 1.279 . S
C981 C289 1.278 . S
C987 C200 1.272 . S
C1001 C302 1.273 . S
C1007 C213 1.278 . S
C1021 C239 1.279 . S
C1027 C224 1.273 . S
C1041 C5 1.734 . S
C1047 C252 1.731 . S
C1061 C265 1.732 . S
C1067 C16 1.732 . S
C1081 C31 1.734 . S
C1087 C276 1.730 . S
C1101 C291 1.735 . S
C1107 C42 1.729 . S
C1121 C57 1.735 . S
C1127 C304 1.729 . S
C1141 C237 1.731 . S
C1147 C70 1.733 . S
C1161 C83 1.732 . S
C1167 C226 1.732 . S
C1181 C161 1.735 . S
C1187 C94 1.729 . S
C1201 C107 1.733 . S
C1207 C174 1.731 . S
C1221 C120 1.731 . S
C1227 C185 1.734 . S
C1241 C133 1.734 . S
C1247 C198 1.731 . S
C1261 C148 1.734 . S
C1267 C211 1.730 . S
