# Generated by pormake.
# Topology rob, (6)-cn, num edge types: 1
# Building blocks:
#     Node 0, Type 0, BuildingBlock: KUMBUR_clean_sbu_1, # of connection points: 6
#     Node 1, Type 0, BuildingBlock: KUMBUR_clean_sbu_1, # of connection points: 6
#     Node 2, Type 0, BuildingBlock: KUMBUR_clean_sbu_1, # of connection points: 6
#     Node 3, Type 0, BuildingBlock: KUMBUR_clean_sbu_1, # of connection points: 6
#     Edge 4, Type (0, 0), BuildingBlock: EZIPEK_clean_linker_0, # of connection points: 2
#     Edge 5, Type (0, 0), BuildingBlock: EZIPEK_clean_linker_0, # of connection points: 2
#     Edge 6, Type (0, 0), BuildingBlock: EZIPEK_clean_linker_0, # of connection points: 2
#     Edge 7, Type (0, 0), BuildingBlock: EZIPEK_clean_linker_0, # of connection points: 2
#     Edge 8, Type (0, 0), BuildingBlock: EZIPEK_clean_linker_0, # of connection points: 2
#     Edge 9, Type (0, 0), BuildingBlock: EZIPEK_clean_linker_0, # of connection points: 2
#     Edge 10, Type (0, 0), BuildingBlock: EZIPEK_clean_linker_0, # of connection points: 2
#     Edge 11, Type (0, 0), BuildingBlock: EZIPEK_clean_linker_0, # of connection points: 2
#     Edge 12, Type (0, 0), BuildingBlock: EZIPEK_clean_linker_0, # of connection points: 2
#     Edge 13, Type (0, 0), BuildingBlock: EZIPEK_clean_linker_0, # of connection points: 2
#     Edge 14, Type (0, 0), BuildingBlock: EZIPEK_clean_linker_0, # of connection points: 2
#     Edge 15, Type (0, 0), BuildingBlock: EZIPEK_clean_linker_0, # of connection points: 2
# Relax obj value: 0.026
# Max RMSD: 0.136
# Mean RMSD: 0.136
data_MOF--net-rob--node1-KUMBUR_clean_sbu_1--edge1-EZIPEK_clean_linker_0
_symmetry_space_group_name_H-M    P1
_symmetry_Int_Tables_number       1
_symmetry_cell_setting            triclinic
loop_
_symmetry_equiv_pos_as_xyz
'x, y, z'
_cell_length_a     14.99576
_cell_length_b     17.709358
_cell_length_c     26.736551
_cell_angle_alpha  105.5545
_cell_angle_beta   91.478785
_cell_angle_gamma 90.955873
loop_
_atom_site_label
_atom_site_type_symbol
_atom_site_fract_x
_atom_site_fract_y
_atom_site_fract_z
_atom_type_partial_charge
Tb0 Tb 0.31593 0.10512 0.95486 0.0
C1 C 0.10894 0.42388 0.09739 0.0
N2 N 0.18637 0.39011 0.10422 0.0
C3 C 0.26047 0.51659 0.12889 0.0
C4 C 0.10542 0.5044 0.10146 0.0
C5 C 0.2601 0.43614 0.12464 0.0
C6 C 0.184 0.54989 0.11394 0.0
C7 C 0.94891 0.41173 0.08869 0.0
C8 C 0.03225 0.37793 0.08937 0.0
C9 C 0.94525 0.48949 0.08655 0.0
C10 C 0.02356 0.53637 0.09332 0.0
Tb11 Tb 0.17976 0.25597 0.08033 0.0
N12 N 0.03932 0.30056 0.08466 0.0
C13 C 0.87247 0.36609 0.08979 0.0
C14 C 0.96565 0.25533 0.08658 0.0
C15 C 0.88079 0.28746 0.08924 0.0
H16 H 0.32052 0.41047 0.1349 0.0
H17 H 0.82227 0.25201 0.09143 0.0
H18 H 0.18693 0.94423 0.90472 0.0
H19 H 0.6711 0.13 0.95404 0.0
H20 H 0.97203 0.19542 0.08796 0.0
H21 H 0.80776 0.39217 0.094 0.0
H22 H 0.51657 0.17417 0.94877 0.0
H23 H 0.32035 0.55213 0.14193 0.0
H24 H 0.88229 0.51206 0.07801 0.0
H25 H 0.02096 0.59703 0.09284 0.0
H26 H 0.20021 0.8018 0.89408 0.0
H27 H 0.18506 0.61146 0.11491 0.0
H28 H 0.69579 -0.00506 0.95905 0.0
N29 N 0.31753 -0.02751 0.93908 0.0
C30 C 0.39663 0.94458 0.95006 0.0
C31 C 0.25563 0.84142 0.9105 0.0
C32 C 0.40696 0.86444 0.94481 0.0
C33 C 0.24825 0.9221 0.91693 0.0
C34 C 0.33459 0.81265 0.92628 0.0
N35 N 0.45793 0.07105 0.96129 0.0
C36 C 0.52809 0.11841 0.95656 0.0
C37 C 0.55565 -0.03235 0.96325 0.0
C38 C 0.46999 -0.00443 0.96054 0.0
C39 C 0.62906 0.01693 0.96191 0.0
C40 C 0.61526 0.09279 0.95811 0.0
H41 H 0.34048 0.75025 0.92161 0.0
H42 H 0.49663 0.77833 0.95635 0.0
H43 H 0.63069 0.87247 0.97098 0.0
O44 O 0.34356 0.16314 0.89705 0.0
O45 O 0.38972 0.11457 0.03037 0.0
O46 O 0.2751 0.17876 0.04833 0.0
O47 O 0.30479 0.04238 0.87595 0.0
O48 O 0.37076 0.22977 0.97953 0.0
O49 O 0.3019 0.30926 0.05294 0.0
O50 O 0.13846 0.20204 0.13722 0.0
O51 O 0.13202 0.25809 1.00176 0.0
O52 O 0.18196 0.14198 0.95897 0.0
O53 O 0.24074 0.29205 0.15497 0.0
O54 O 0.11091 0.13711 0.05284 0.0
O55 O 0.19124 0.05433 0.98506 0.0
C56 C 0.34418 0.15463 0.06832 0.0
C57 C 0.42422 0.07827 0.83142 0.0
C58 C 0.54581 0.11299 0.78236 0.0
C59 C 0.60291 0.06638 0.8034 0.0
C60 C 0.47779 0.01957 0.84175 0.0
C61 C 0.56775 0.01712 0.83078 0.0
C62 C 0.4569 0.12229 0.79885 0.0
C63 C 0.36316 0.29785 0.01588 0.0
C64 C 0.34079 0.09824 0.85995 0.0
C65 C 0.49045 0.83858 0.95584 0.0
C66 C 0.565 0.89047 0.96433 0.0
C67 C 0.15365 0.20935 0.95702 0.0
C68 C 0.13589 0.29087 0.21955 0.0
C69 C 0.0347 0.28461 0.2883 0.0
C70 C 0.03095 0.36688 0.30228 0.0
C71 C 0.13176 0.37312 0.23454 0.0
C72 C 0.08648 0.24673 0.24631 0.0
C73 C 0.07904 0.41057 0.2755 0.0
C74 C 0.12387 0.06695 0.01926 0.0
C75 C 0.18566 0.25019 0.17384 0.0
H76 H 0.67284 0.06205 0.79399 0.0
H77 H 0.4517 -0.02177 0.861 0.0
H78 H 0.61 -0.02298 0.84367 0.0
H79 H 0.41376 0.16261 0.78629 0.0
H80 H 0.98944 0.3974 0.33348 0.0
H81 H 0.16767 0.40861 0.21413 0.0
H82 H 0.0876 0.1832 0.23426 0.0
H83 H 0.07422 0.47355 0.28604 0.0
Tb84 Tb 0.81944 0.60772 0.95803 0.0
C85 C 0.60027 0.92272 0.0971 0.0
N86 N 0.67773 0.89096 0.10642 0.0
C87 C 0.74528 0.01961 0.13856 0.0
C88 C 0.59385 0.00377 0.10425 0.0
C89 C 0.74911 0.93818 0.12939 0.0
C90 C 0.66797 0.0525 0.12433 0.0
C91 C 0.44192 0.90513 0.07926 0.0
C92 C 0.5256 0.87401 0.08382 0.0
C93 C 0.43715 -0.01657 0.07905 0.0
C94 C 0.51323 0.03318 0.0917 0.0
Tb95 Tb 0.67588 0.75743 0.08061 0.0
N96 N 0.53425 0.79685 0.07917 0.0
C97 C 0.36604 0.85684 0.07575 0.0
C98 C 0.46106 0.74965 0.07827 0.0
C99 C 0.37549 0.77879 0.0761 0.0
H100 H 0.81017 0.91322 0.13931 0.0
H101 H 0.31722 0.74163 0.07561 0.0
H102 H 0.68716 0.44649 0.90955 0.0
H103 H 0.17351 0.62445 0.95632 0.0
H104 H 0.46792 0.69065 0.08132 0.0
H105 H 0.30037 0.88058 0.07636 0.0
H106 H 0.02056 0.67375 0.9542 0.0
H107 H 0.80248 0.05661 0.15544 0.0
H108 H 0.37482 0.00409 0.06819 0.0
H109 H 0.51052 0.09407 0.09218 0.0
H110 H 0.69328 0.3068 0.90916 0.0
H111 H 0.66521 0.11543 0.1305 0.0
H112 H 0.19264 0.48785 0.95925 0.0
N113 N 0.8157 0.47588 0.94683 0.0
C114 C 0.89329 0.44814 0.9602 0.0
C115 C 0.74948 0.34612 0.9244 0.0
C116 C 0.90049 0.369 0.95916 0.0
C117 C 0.74616 0.42531 0.92508 0.0
C118 C 0.82609 0.31842 0.94366 0.0
N119 N 0.95927 0.57234 0.96751 0.0
C120 C 0.03075 0.61794 0.96218 0.0
C121 C 0.05318 0.46665 0.96936 0.0
C122 C 0.96858 0.49703 0.96803 0.0
C123 C 0.1277 0.51285 0.96502 0.0
C124 C 0.11674 0.58942 0.96197 0.0
H125 H 0.8294 0.25699 0.94275 0.0
H126 H 0.98742 0.28271 0.97245 0.0
H127 H 0.12593 0.37047 0.97755 0.0
O128 O 0.84825 0.66391 0.89928 0.0
O129 O 0.89595 0.626 0.03379 0.0
O130 O 0.77506 0.68088 0.05208 0.0
O131 O 0.81831 0.54207 0.87959 0.0
O132 O 0.86886 0.7336 0.98198 0.0
O133 O 0.79401 0.8145 0.05271 0.0
O134 O 0.62875 0.7072 0.13789 0.0
O135 O 0.6372 0.76423 1.00136 0.0
O136 O 0.68642 0.64647 0.96272 0.0
O137 O 0.7357 0.79306 0.1557 0.0
O138 O 0.61012 0.63758 0.0536 0.0
O139 O 0.69497 0.55624 0.98807 0.0
C140 C 0.84955 0.66518 0.0717 0.0
C141 C 0.93753 0.58286 0.83578 0.0
C142 C 0.05762 0.62009 0.78566 0.0
C143 C 0.11671 0.57588 0.80747 0.0
C144 C 0.99479 0.52769 0.8477 0.0
C145 C 0.08443 0.52692 0.83585 0.0
C146 C 0.96791 0.62633 0.80188 0.0
C147 C 0.85659 0.80283 0.01638 0.0
C148 C 0.85137 0.59858 0.86299 0.0
C149 C 0.98357 0.34181 0.96919 0.0
C150 C 0.0603 0.39029 0.9726 0.0
C151 C 0.66273 0.71392 0.95833 0.0
C152 C 0.62819 0.79643 0.22008 0.0
C153 C 0.5204 0.79368 0.28653 0.0
C154 C 0.52407 0.87623 0.30216 0.0
C155 C 0.63329 0.87867 0.2378 0.0
C156 C 0.57092 0.75429 0.24433 0.0
C157 C 0.58081 0.91819 0.27835 0.0
C158 C 0.62631 0.56743 0.02123 0.0
C159 C 0.67747 0.75379 0.17455 0.0
H160 H 0.1867 0.57331 0.79812 0.0
H161 H 0.9719 0.48796 0.86902 0.0
H162 H 0.1292 0.48842 0.84891 0.0
H163 H 0.92255 0.66398 0.78821 0.0
H164 H 0.48277 0.90853 0.33284 0.0
H165 H 0.6764 0.91271 0.21989 0.0
H166 H 0.56561 0.69091 0.23041 0.0
H167 H 0.58365 -0.0184 0.29116 0.0
Tb168 Tb 0.33387 0.78311 0.56806 0.0
C169 C 0.98193 0.5438 0.47956 0.0
N170 N 0.07033 0.53595 0.47045 0.0
C171 C 0.04885 0.39757 0.43535 0.0
C172 C 0.92287 0.47891 0.46602 0.0
C173 C 0.10512 0.46354 0.45003 0.0
C174 C 0.95772 0.40579 0.44352 0.0
C175 C 0.86273 0.6256 0.52108 0.0
C176 C 0.95264 0.61611 0.50678 0.0
C177 C 0.80209 0.56178 0.50526 0.0
C178 C 0.83225 0.48832 0.47785 0.0
Tb179 Tb 0.14699 0.65121 0.48095 0.0
N180 N 0.01439 0.67494 0.52328 0.0
C181 C 0.8375 0.69778 0.55277 0.0
C182 C 0.99007 0.74465 0.5559 0.0
C183 C 0.90177 0.75716 0.57098 0.0
H184 H 0.17516 0.45732 0.4424 0.0
H185 H 0.8834 0.81276 0.59662 0.0
H186 H 0.28661 -0.02984 0.61446 0.0
H187 H 0.61936 0.63706 0.46375 0.0
H188 H 0.03778 0.7908 0.57146 0.0
H189 H 0.76928 0.70751 0.56444 0.0
H190 H 0.46644 0.6431 0.48918 0.0
H191 H 0.07621 0.34058 0.41901 0.0
H192 H 0.73277 0.56783 0.51583 0.0
H193 H 0.78575 0.43875 0.46776 0.0
H194 H 0.36767 0.09652 0.62871 0.0
H195 H 0.9153 0.35531 0.43556 0.0
H196 H 0.71438 0.75694 0.4849 0.0
N197 N 0.39449 0.90309 0.57663 0.0
C198 C 0.48027 0.90325 0.56159 0.0
C199 C 0.39957 0.04244 0.60968 0.0
C200 C 0.52942 -0.02656 0.57046 0.0
C201 C 0.3533 -0.02888 0.60031 0.0
C202 C 0.48731 0.04353 0.59407 0.0
N203 N 0.46827 0.76599 0.52702 0.0
C204 C 0.50415 0.69648 0.50023 0.0
C205 C 0.6095 0.83072 0.52363 0.0
C206 C 0.51908 0.83257 0.53743 0.0
C207 C 0.64594 0.75983 0.4972 0.0
C208 C 0.59257 0.69244 0.48499 0.0
H209 H 0.5205 0.09925 0.59987 0.0
H210 H 0.65575 0.02221 0.55632 0.0
H211 H 0.72844 0.9007 0.5228 0.0
O212 O 0.35375 0.73336 0.63034 0.0
O213 O 0.33639 0.77291 0.48316 0.0
O214 O 0.27733 0.64999 0.4477 0.0
O215 O 0.40088 0.84935 0.63751 0.0
O216 O 0.36224 0.65574 0.55233 0.0
O217 O 0.26373 0.57494 0.49237 0.0
O218 O 0.07855 0.69933 0.42716 0.0
O219 O 0.1548 0.65437 0.56395 0.0
O220 O 0.20176 0.77911 0.59735 0.0
O221 O 0.11227 0.57797 0.40726 0.0
O222 O 0.13165 0.77972 0.48742 0.0
O223 O 0.21245 0.8552 0.55883 0.0
C224 C 0.31994 0.71193 0.4426 0.0
C225 C 0.48764 0.77229 0.6798 0.0
C226 C 0.58219 0.74972 0.75065 0.0
C227 C 0.65105 0.72686 0.7157 0.0
C228 C 0.55797 0.74817 0.646 0.0
C229 C 0.6389 0.72612 0.66386 0.0
C230 C 0.50017 0.77329 0.73265 0.0
C231 C 0.33782 0.58467 0.52338 0.0
C232 C 0.40062 0.79198 0.65904 0.0
C233 C 0.61819 -0.02914 0.55495 0.0
C234 C 0.65952 0.90025 0.53409 0.0
C235 C 0.17175 0.71384 0.60488 0.0
C236 C 0.09287 0.63462 0.33817 0.0
C237 C 0.0403 0.65371 0.25567 0.0
C238 C 0.12692 0.64046 0.23726 0.0
C239 C 0.17677 0.61423 0.31719 0.0
C240 C 0.02417 0.65341 0.3071 0.0
C241 C 0.19421 0.61895 0.26723 0.0
C242 C 0.14661 0.84802 0.52253 0.0
C243 C 0.07445 0.63278 0.39134 0.0
H244 H 0.71428 0.70889 0.7287 0.0
H245 H 0.55015 0.74464 0.60547 0.0
H246 H 0.69207 0.70695 0.63728 0.0
H247 H 0.44619 0.7903 0.75924 0.0
H248 H 0.14217 0.64775 0.19977 0.0
H249 H 0.22918 0.59624 0.33978 0.0
H250 H 0.95841 0.66682 0.32254 0.0
H251 H 0.26011 0.60669 0.25191 0.0
Tb252 Tb 0.81961 0.28653 0.56998 0.0
C253 C 0.50489 0.0152 0.46192 0.0
N254 N 0.59342 0.02036 0.45358 0.0
C255 C 0.59791 0.88165 0.41773 0.0
C256 C 0.45864 0.94297 0.44733 0.0
C257 C 0.64021 -0.04481 0.43081 0.0
C258 C 0.50743 0.87586 0.42739 0.0
C259 C 0.37028 0.07903 0.49782 0.0
C260 C 0.46234 0.08193 0.4883 0.0
C261 C 0.32211 0.00801 0.4798 0.0
C262 C 0.36665 0.9399 0.45548 0.0
Tb263 Tb 0.65432 0.14306 0.47541 0.0
N264 N 0.51286 0.1478 0.50828 0.0
C265 C 0.33061 0.14623 0.52782 0.0
C266 C 0.47492 0.21193 0.5407 0.0
C267 C 0.38368 0.21251 0.55021 0.0
H268 H 0.70971 -0.03987 0.42264 0.0
H269 H 0.35453 0.26406 0.57519 0.0
H270 H 0.71712 0.43712 0.64502 0.0
H271 H 0.15649 0.25078 0.50658 0.0
H272 H 0.51369 0.26328 0.55982 0.0
H273 H 0.26019 0.14627 0.53598 0.0
H274 H 0.00462 0.20588 0.51661 0.0
H275 H 0.63535 0.82959 0.40143 0.0
H276 H 0.25152 0.00435 0.48684 0.0
H277 H 0.32938 0.88536 0.44411 0.0
H278 H 0.7436 0.57944 0.67748 0.0
H279 H 0.47679 0.8194 0.42159 0.0
H280 H 0.19549 0.39231 0.53507 0.0
N281 N 0.8332 0.41821 0.59982 0.0
C282 C 0.91055 0.44915 0.5884 0.0
C283 C 0.79062 0.54396 0.65202 0.0
C284 C 0.93079 0.52915 0.60869 0.0
C285 C 0.7751 0.46337 0.63298 0.0
C286 C 0.86868 0.57745 0.63936 0.0
N287 N 0.95404 0.32072 0.54554 0.0
C288 C 0.01858 0.26777 0.52658 0.0
C289 C 0.06115 0.42593 0.55839 0.0
C290 C 0.97434 0.39832 0.5621 0.0
C291 C 0.12755 0.37255 0.53819 0.0
C292 C 0.10583 0.2929 0.52184 0.0
H293 H 0.88221 0.63972 0.6553 0.0
H294 H 0.02655 0.61979 0.61227 0.0
H295 H 0.14421 0.52613 0.56816 0.0
O296 O 0.90441 0.33246 0.63572 0.0
O297 O 0.83899 0.27135 0.48642 0.0
O298 O 0.78855 0.14555 0.44748 0.0
O299 O 0.8301 0.22586 0.62691 0.0
O300 O 0.87263 0.16414 0.54638 0.0
O301 O 0.77456 0.07302 0.49286 0.0
O302 O 0.64327 0.20645 0.42029 0.0
O303 O 0.6506 0.14965 0.55927 0.0
O304 O 0.68733 0.27589 0.59743 0.0
O305 O 0.60472 0.08449 0.39971 0.0
O306 O 0.60981 0.26661 0.49007 0.0
O307 O 0.69831 0.35326 0.55289 0.0
C308 C 0.83395 0.20865 0.44648 0.0
C309 C 0.88129 0.29376 0.71131 0.0
C310 C 0.94403 0.28711 0.79476 0.0
C311 C 0.88383 0.34378 0.81913 0.0
C312 C 0.82057 0.34927 0.73645 0.0
C313 C 0.82114 0.3734 0.79038 0.0
C314 C 0.94191 0.26138 0.74038 0.0
C315 C 0.85212 0.09001 0.52116 0.0
C316 C 0.88872 0.27442 0.6552 0.0
C317 C 0.01383 0.55769 0.59967 0.0
C318 C 0.07934 0.50587 0.57522 0.0
C319 C 0.65687 0.20877 0.60141 0.0
C320 C 0.52004 0.16781 0.36214 0.0
C321 C 0.42905 0.17823 0.28727 0.0
C322 C 0.36081 0.21082 0.32061 0.0
C323 C 0.4504 0.20027 0.39463 0.0
C324 C 0.50897 0.15648 0.3081 0.0
C325 C 0.37131 0.22134 0.37397 0.0
C326 C 0.62761 0.33855 0.51948 0.0
C327 C 0.60477 0.1488 0.38499 0.0
H328 H 0.8865 0.36561 0.86039 0.0
H329 H 0.77479 0.37539 0.71446 0.0
H330 H 0.774 0.41613 0.80975 0.0
H331 H 0.98896 0.21829 0.72089 0.0
H332 H 0.29982 0.22894 0.30513 0.0
H333 H 0.45761 0.21108 0.43614 0.0
H334 H 0.56227 0.13202 0.28253 0.0
H335 H 0.31852 0.24698 0.3995 0.0
C336 C 0.58896 0.42392 0.02519 0.0
C337 C 0.55929 0.49771 0.01957 0.0
C338 C 0.40306 0.44168 0.01395 0.0
C339 C 0.43203 0.36639 0.01666 0.0
N340 N 0.55691 0.29136 0.03235 0.0
N341 N 0.43441 0.56834 0.99842 0.0
C342 C 0.52663 0.35896 0.02338 0.0
C343 C 0.46531 0.50413 0.01179 0.0
N344 N 0.67804 0.41566 0.03268 0.0
N345 N 0.31435 0.45574 0.01516 0.0
H346 H 0.47542 0.61544 0.99696 0.0
H347 H 0.36954 0.57232 0.98458 0.0
H348 H 0.26565 0.41196 0.01144 0.0
H349 H 0.29039 0.51249 0.02497 0.0
H350 H 0.70769 0.36191 0.02841 0.0
H351 H 0.72393 0.46242 0.04008 0.0
H352 H 0.62204 0.282 0.04298 0.0
H353 H 0.51469 0.24448 0.03257 0.0
C354 C 0.46102 0.51345 0.56738 0.0
C355 C 0.40731 0.51649 0.52209 0.0
C356 C 0.50938 0.41045 0.47343 0.0
C357 C 0.55427 0.40224 0.51973 0.0
N358 N 0.54004 0.43175 0.61183 0.0
N359 N 0.37745 0.44664 0.4314 0.0
C360 C 0.5212 0.45038 0.56668 0.0
C361 C 0.43021 0.45821 0.47523 0.0
N362 N 0.45554 0.56969 0.61304 0.0
N363 N 0.54505 0.37617 0.4267 0.0
H364 H 0.32302 0.48025 0.42795 0.0
H365 H 0.38423 0.39902 0.39904 0.0
H366 H 0.60369 0.34531 0.42379 0.0
H367 H 0.52273 0.38619 0.39185 0.0
H368 H 0.50312 0.57693 0.64325 0.0
H369 H 0.40569 0.60956 0.62091 0.0
H370 H 0.51121 0.45872 0.64704 0.0
H371 H 0.57321 0.38118 0.61172 0.0
C372 C 0.08307 0.9227 0.01968 0.0
C373 C 0.05521 -0.00112 0.01792 0.0
C374 C 0.89738 0.94816 0.01726 0.0
C375 C 0.92504 0.87121 0.01728 0.0
N376 N 0.04886 0.79487 0.03285 0.0
N377 N 0.93108 0.07583 1.00345 0.0
C378 C 0.01933 0.86104 0.02144 0.0
C379 C 0.961 0.00936 0.01433 0.0
N380 N 0.17181 0.90781 0.01925 0.0
N381 N 0.80928 -0.03525 0.02173 0.0
H382 H 0.97356 0.12072 0.99939 0.0
H383 H 0.86497 0.08345 0.9933 0.0
H384 H 0.75947 0.92201 0.01825 0.0
H385 H 0.7866 0.02193 0.03286 0.0
H386 H 0.19624 0.85125 0.00987 0.0
H387 H 0.22141 0.95111 0.0244 0.0
H388 H 0.11431 0.78698 0.04397 0.0
H389 H 0.00604 0.75044 0.03703 0.0
C390 C 0.97494 0.02298 0.56886 0.0
C391 C 0.92584 0.02567 0.52195 0.0
C392 C 0.03723 0.92652 0.47652 0.0
C393 C 0.07625 0.91523 0.52348 0.0
N394 N 0.06403 0.95102 0.61645 0.0
N395 N 0.91145 -0.03674 0.42956 0.0
C396 C 0.04005 -0.03661 0.56991 0.0
C397 C 0.95648 -0.02871 0.47569 0.0
N398 N 0.96133 0.078 0.61412 0.0
N399 N 0.08369 0.90196 0.43239 0.0
H400 H 0.85894 -0.00157 0.42483 0.0
H401 H 0.92398 0.91838 0.39644 0.0
H402 H 0.14907 0.88448 0.43458 0.0
H403 H 0.06494 0.91263 0.39714 0.0
H404 H 0.00511 0.08857 0.64632 0.0
H405 H 0.9087 0.11496 0.61901 0.0
H406 H 0.03006 -0.026 0.65052 0.0
H407 H 0.11305 0.91274 0.62024 0.0
C408 C 0.35694 0.10903 0.20148 0.0
C409 C 0.41509 0.16928 0.23061 0.0
C410 C 0.42631 0.22283 0.1552 0.0
C411 C 0.36399 0.16459 0.12608 0.0
N412 N 0.25411 0.06451 0.12854 0.0
N413 N 0.49643 0.29024 0.23863 0.0
C414 C 0.32442 0.11169 0.15158 0.0
C415 C 0.4481 0.22764 0.20825 0.0
N416 N 0.33468 0.04751 0.22096 0.0
N417 N 0.46304 0.27547 0.13267 0.0
H418 H 0.5156 0.29482 0.27713 0.0
H419 H 0.51314 0.34017 0.22708 0.0
H420 H 0.43483 0.28429 0.09933 0.0
H421 H 0.51952 0.31023 0.14715 0.0
H422 H 0.30096 -0.00298 0.19916 0.0
H423 H 0.3577 0.04351 0.25732 0.0
H424 H 0.23174 0.06225 0.09134 0.0
H425 H 0.21495 0.03219 0.1474 0.0
C426 C 0.36924 0.77062 0.318 0.0
C427 C 0.46024 0.75047 0.31373 0.0
C428 C 0.43613 0.66904 0.37349 0.0
C429 C 0.35784 0.71065 0.39065 0.0
N430 N 0.23759 0.78542 0.36967 0.0
N431 N 0.58154 0.6776 0.33863 0.0
C432 C 0.32034 0.75637 0.35957 0.0
C433 C 0.49365 0.69672 0.34044 0.0
N434 N 0.33008 0.80242 0.28187 0.0
N435 N 0.4547 0.60266 0.38768 0.0
H436 H 0.62799 0.69954 0.31755 0.0
H437 H 0.60988 0.64546 0.36217 0.0
H438 H 0.41055 0.57945 0.40927 0.0
H439 H 0.50769 0.56681 0.37303 0.0
H440 H 0.26217 0.81289 0.27993 0.0
H441 H 0.36463 0.81086 0.25031 0.0
H442 H 0.20867 0.82513 0.35203 0.0
H443 H 0.1988 0.76933 0.39686 0.0
C444 C 0.68999 0.77707 0.88587 0.0
C445 C 0.64063 0.72238 0.9047 0.0
C446 C 0.55471 0.6827 0.82131 0.0
C447 C 0.59736 0.74398 0.80512 0.0
N448 N 0.70309 0.85257 0.82242 0.0
N449 N 0.52364 0.62298 0.89059 0.0
C450 C 0.66466 0.79206 0.8376 0.0
C451 C 0.57263 0.67486 0.87232 0.0
N452 N 0.76229 0.81261 0.9151 0.0
N453 N 0.50141 0.62855 0.78673 0.0
H454 H 0.53995 0.6097 0.92509 0.0
H455 H 0.46445 0.59592 0.87287 0.0
H456 H 0.48665 0.63144 0.74899 0.0
H457 H 0.4775 0.57689 0.79367 0.0
H458 H 0.80783 0.85008 0.90439 0.0
H459 H 0.80783 0.85008 0.90439 0.0
H460 H 0.74604 0.89491 0.84585 0.0
H461 H 0.68574 0.86518 0.78755 0.0
C462 C 0.66759 0.12077 0.66203 0.0
C463 C 0.64438 0.19434 0.65448 0.0
C464 C 0.57596 0.22391 0.74073 0.0
C465 C 0.57826 0.14329 0.73905 0.0
N466 N 0.61277 0.01141 0.69008 0.0
N467 N 0.59085 0.3238 0.69542 0.0
C468 C 0.62081 0.09081 0.69764 0.0
C469 C 0.60252 0.24841 0.6964 0.0
N470 N 0.73573 0.07959 0.63629 0.0
N471 N 0.55481 0.27765 0.78572 0.0
H472 H 0.63257 0.35051 0.67484 0.0
H473 H 0.54582 0.36079 0.71855 0.0
H474 H 0.53972 0.26205 0.81953 0.0
H475 H 0.56082 0.33802 0.79119 0.0
H476 H 0.76178 0.03062 0.64563 0.0
H477 H 0.76679 0.09591 0.60662 0.0
H478 H 0.64199 -0.02881 0.65945 0.0
H479 H 0.56851 -0.01452 0.71037 0.0
C480 C 0.8458 0.62731 0.15683 0.0
C481 C 0.87542 0.68076 0.12906 0.0
C482 C 0.98127 0.73817 0.20225 0.0
C483 C 0.96949 0.6712 0.22051 0.0
N484 N 0.8885 0.55055 0.21587 0.0
N485 N 0.96037 0.79925 0.1331 0.0
C486 C 0.89928 0.61649 0.19916 0.0
C487 C 0.93949 0.74021 0.15435 0.0
N488 N 0.76922 0.58393 0.14114 0.0
N489 N 0.0319 0.80017 0.2314 0.0
H490 H 0.92014 0.81075 0.10459 0.0
H491 H 0.01593 0.83668 0.1441 0.0
H492 H 0.06163 0.79995 0.26711 0.0
H493 H 0.03732 0.85424 0.22317 0.0
H494 H 0.73986 0.54936 0.16248 0.0
H495 H 0.73195 0.58746 0.10859 0.0
H496 H 0.84588 0.50388 0.19723 0.0
H497 H 0.92682 0.53975 0.24616 0.0
C498 C 0.84106 0.24953 0.36307 0.0
C499 C 0.8798 0.21003 0.39782 0.0
C500 C 0.01948 0.20046 0.35104 0.0
C501 C 0.9796 0.2402 0.31688 0.0
N502 N 0.84428 0.27295 0.2781 0.0
N503 N 0.99683 0.12753 0.41454 0.0
C504 C 0.88693 0.25289 0.31822 0.0
C505 C 0.9657 0.17783 0.38793 0.0
N506 N 0.76777 0.29401 0.37658 0.0
N507 N 0.10946 0.18999 0.3514 0.0
H508 H 0.95973 0.11211 0.44269 0.0
H509 H 0.05539 0.09654 0.40563 0.0
H510 H 0.15121 0.20576 0.32524 0.0
H511 H 0.14344 0.1707 0.37997 0.0
H512 H 0.74086 0.32855 0.35422 0.0
H513 H 0.74412 0.30673 0.414 0.0
H514 H 0.77516 0.27779 0.2758 0.0
H515 H 0.87746 0.27628 0.24485 0.0
C516 C 0.97515 0.19566 0.85016 0.0
C517 C 0.00664 0.25399 0.82721 0.0
C518 C 0.14489 0.26966 0.88079 0.0
C519 C 0.11055 0.2152 0.9066 0.0
N520 N 0.01088 0.10293 0.89885 0.0
N521 N 0.13003 0.33025 0.80943 0.0
C522 C 0.03158 0.17042 0.88582 0.0
C523 C 0.09471 0.28535 0.8387 0.0
N524 N 0.89 0.16585 0.83907 0.0
N525 N 0.22344 0.30923 0.89823 0.0
H526 H 0.09398 0.34461 0.77952 0.0
H527 H 0.19672 0.34846 0.81196 0.0
H528 H 0.26221 0.29802 0.92811 0.0
H529 H 0.24733 0.35642 0.8858 0.0
H530 H 0.85871 0.13167 0.86 0.0
H531 H 0.84831 0.17934 0.81098 0.0
H532 H 0.95868 0.0648 0.88113 0.0
H533 H 0.0513 0.07941 0.92258 0.0
C534 C 0.18411 0.62946 0.66619 0.0
C535 C 0.16191 0.70271 0.65895 0.0
C536 C 0.08762 0.73166 0.74345 0.0
C537 C 0.09063 0.65088 0.74216 0.0
N538 N 0.12854 0.51944 0.69428 0.0
N539 N 0.11094 0.8325 0.69876 0.0
C540 C 0.13651 0.59885 0.70168 0.0
C541 C 0.11877 0.75675 0.69999 0.0
N542 N 0.24978 0.58919 0.63744 0.0
N543 N 0.06089 0.78484 0.78731 0.0
H544 H 0.15405 0.85691 0.67737 0.0
H545 H 0.06725 0.87145 0.72147 0.0
H546 H 0.0421 0.76889 0.82041 0.0
H547 H 0.06447 0.84526 0.79276 0.0
H548 H 0.27424 0.53647 0.64189 0.0
H549 H 0.27424 0.53647 0.64189 0.0
H550 H 0.15739 0.47863 0.66388 0.0
H551 H 0.08363 0.49371 0.71432 0.0
loop_
_geom_bond_atom_site_label_1
_geom_bond_atom_site_label_2
_geom_bond_distance
_geom_bond_site_symmetry_2
_ccdc_geom_bond_type
Tb0 N29 2.617 1_545 S
Tb0 N35 2.572 . S
Tb0 O44 2.465 . S
Tb0 O45 2.387 1_556 S
Tb0 O47 2.428 . S
Tb0 O48 2.308 1_556 S
Tb0 O52 2.349 . S
Tb0 O55 2.393 . S
Tb0 C64 2.802 . S
C1 N2 1.379 . S
C1 C4 1.416 1_455 S
C1 C8 1.424 1_455 S
N2 C1 1.379 . S
N2 C5 1.334 . S
N2 Tb11 2.617 . S
C3 C5 1.390 . S
C3 C6 1.339 . S
C3 H23 0.930 . S
C4 C1 1.416 1_655 S
C4 C6 1.416 1_655 S
C4 C10 1.448 . S
C5 N2 1.334 . S
C5 C3 1.390 . S
C5 H16 0.930 . S
C6 C3 1.339 . S
C6 C4 1.416 1_455 S
C6 H27 0.930 . S
C7 C8 1.413 . S
C7 C9 1.427 . S
C7 C13 1.416 . S
C8 C1 1.424 1_655 S
C8 C7 1.413 . S
C8 N12 1.361 . S
C9 C7 1.427 . S
C9 C10 1.328 . S
C9 H24 0.929 . S
C10 C4 1.448 . S
C10 C9 1.328 . S
C10 H25 0.930 . S
Tb11 N2 2.617 . S
Tb11 N12 2.572 1_455 S
Tb11 O46 2.349 . S
Tb11 O49 2.393 . S
Tb11 O50 2.465 . S
Tb11 O51 2.387 1_554 S
Tb11 O53 2.428 . S
Tb11 O54 2.308 . S
Tb11 C75 2.802 . S
N12 C8 1.361 . S
N12 Tb11 2.572 1_655 S
N12 C14 1.340 . S
C13 C7 1.416 . S
C13 C15 1.332 . S
C13 H21 0.930 . S
C14 N12 1.340 . S
C14 C15 1.407 . S
C14 H20 0.930 . S
C15 C13 1.332 . S
C15 C14 1.407 . S
C15 H17 0.929 . S
H16 C5 0.930 . S
H17 C15 0.929 . S
H18 C33 0.930 . S
H19 C40 0.929 . S
H20 C14 0.930 . S
H21 C13 0.930 . S
H22 C36 0.930 . S
H23 C3 0.930 . S
H24 C9 0.929 . S
H25 C10 0.930 . S
H26 C31 0.930 . S
H27 C6 0.930 . S
H28 C39 0.931 . S
N29 Tb0 2.617 1_565 S
N29 C30 1.379 . S
N29 C33 1.334 . S
C30 N29 1.379 . S
C30 C32 1.416 . S
C30 C38 1.424 1_565 S
C31 H26 0.930 . S
C31 C33 1.390 . S
C31 C34 1.339 . S
C32 C30 1.416 . S
C32 C34 1.416 . S
C32 C65 1.448 . S
C33 H18 0.930 . S
C33 N29 1.334 . S
C33 C31 1.390 . S
C34 C31 1.339 . S
C34 C32 1.416 . S
C34 H41 0.930 . S
N35 Tb0 2.572 . S
N35 C36 1.340 . S
N35 C38 1.361 . S
C36 H22 0.930 . S
C36 N35 1.340 . S
C36 C40 1.407 1_556 S
C37 C38 1.413 1_554 S
C37 C39 1.416 . S
C37 C66 1.427 1_545 S
C38 C30 1.424 1_545 S
C38 N35 1.361 . S
C38 C37 1.413 1_556 S
C39 H28 0.931 . S
C39 C37 1.416 . S
C39 C40 1.332 . S
C40 H19 0.929 . S
C40 C36 1.407 1_554 S
C40 C39 1.332 . S
H41 C34 0.930 . S
H42 C65 0.923 1_554 S
H43 C66 0.929 . S
O44 Tb0 2.465 . S
O44 C64 1.264 . S
O45 Tb0 2.387 1_554 S
O45 C56 1.264 . S
O46 Tb11 2.349 . S
O46 C56 1.243 . S
O47 Tb0 2.428 . S
O47 C64 1.256 . S
O48 Tb0 2.308 1_554 S
O48 C63 1.266 . S
O49 Tb11 2.393 . S
O49 C63 1.248 . S
O50 Tb11 2.465 . S
O50 C75 1.264 . S
O51 Tb11 2.387 1_556 S
O51 C67 1.264 . S
O52 Tb0 2.349 . S
O52 C67 1.243 . S
O53 Tb11 2.428 . S
O53 C75 1.256 . S
O54 Tb11 2.308 . S
O54 C74 1.266 . S
O55 Tb0 2.393 . S
O55 C74 1.248 1_556 S
C56 O45 1.264 . S
C56 O46 1.243 . S
C57 C60 1.399 . S
C57 C62 1.383 . S
C57 C64 1.496 . S
C58 C59 1.399 . S
C58 C62 1.389 . S
C59 C58 1.399 . S
C59 C61 1.380 1_545 S
C59 H76 0.929 . S
C60 C57 1.399 . S
C60 C61 1.392 1_545 S
C60 H77 0.929 1_545 S
C61 C59 1.380 1_565 S
C61 C60 1.392 1_565 S
C61 H78 0.929 . S
C62 C57 1.383 . S
C62 C58 1.389 . S
C62 H79 0.931 . S
C63 O48 1.266 . S
C63 O49 1.248 . S
C64 Tb0 2.802 . S
C64 O44 1.264 . S
C64 O47 1.256 . S
C64 C57 1.496 . S
C65 C32 1.448 . S
C65 H42 0.923 1_556 S
C65 C66 1.328 1_556 S
C66 C37 1.427 1_565 S
C66 H43 0.929 . S
C66 C65 1.328 1_554 S
C67 O51 1.264 . S
C67 O52 1.243 . S
C68 C71 1.399 . S
C68 C72 1.383 . S
C68 C75 1.496 . S
C69 C70 1.399 . S
C69 C72 1.389 1_655 S
C70 C69 1.399 . S
C70 C73 1.380 1_655 S
C70 H80 0.929 . S
C71 C68 1.399 . S
C71 C73 1.392 . S
C71 H81 0.929 . S
C72 C68 1.383 . S
C72 C69 1.389 1_455 S
C72 H82 0.931 . S
C73 C70 1.380 1_455 S
C73 C71 1.392 . S
C73 H83 0.929 . S
C74 O54 1.266 . S
C74 O55 1.248 1_554 S
C75 Tb11 2.802 . S
C75 O50 1.264 . S
C75 O53 1.256 . S
C75 C68 1.496 . S
H76 C59 0.929 . S
H77 C60 0.929 1_565 S
H78 C61 0.929 . S
H79 C62 0.931 . S
H80 C70 0.929 . S
H81 C71 0.929 . S
H82 C72 0.931 . S
H83 C73 0.929 . S
Tb84 N113 2.617 . S
Tb84 N119 2.572 1_655 S
Tb84 O128 2.465 . S
Tb84 O129 2.387 1_556 S
Tb84 O131 2.428 . S
Tb84 O132 2.308 1_556 S
Tb84 O136 2.349 . S
Tb84 O139 2.393 . S
Tb84 C148 2.802 . S
C85 N86 1.379 . S
C85 C88 1.416 . S
C85 C92 1.424 1_545 S
N86 C85 1.379 . S
N86 C89 1.334 . S
N86 Tb95 2.617 1_545 S
C87 C89 1.390 . S
C87 C90 1.339 . S
C87 H107 0.930 . S
C88 C85 1.416 . S
C88 C90 1.416 . S
C88 C94 1.448 . S
C89 N86 1.334 . S
C89 C87 1.390 . S
C89 H100 0.930 . S
C90 C87 1.339 . S
C90 C88 1.416 . S
C90 H111 0.930 . S
C91 C92 1.413 . S
C91 C93 1.427 1_565 S
C91 C97 1.416 . S
C92 C85 1.424 1_565 S
C92 C91 1.413 . S
C92 N96 1.361 . S
C93 C91 1.427 1_545 S
C93 C94 1.328 . S
C93 H108 0.929 . S
C94 C88 1.448 . S
C94 C93 1.328 . S
C94 H109 0.930 . S
Tb95 N86 2.617 1_565 S
Tb95 N96 2.572 . S
Tb95 O130 2.349 . S
Tb95 O133 2.393 . S
Tb95 O134 2.465 . S
Tb95 O135 2.387 1_554 S
Tb95 O137 2.428 . S
Tb95 O138 2.308 . S
Tb95 C159 2.802 . S
N96 C92 1.361 . S
N96 Tb95 2.572 . S
N96 C98 1.340 . S
C97 C91 1.416 . S
C97 C99 1.332 . S
C97 H105 0.930 . S
C98 N96 1.340 . S
C98 C99 1.407 . S
C98 H104 0.930 . S
C99 C97 1.332 . S
C99 C98 1.407 . S
C99 H101 0.929 . S
H100 C89 0.930 . S
H101 C99 0.929 . S
H102 C117 0.930 . S
H103 C124 0.929 . S
H104 C98 0.930 . S
H105 C97 0.930 . S
H106 C120 0.930 . S
H107 C87 0.930 . S
H108 C93 0.929 . S
H109 C94 0.930 . S
H110 C115 0.930 . S
H111 C90 0.930 . S
H112 C123 0.931 . S
N113 Tb84 2.617 . S
N113 C114 1.379 . S
N113 C117 1.334 . S
C114 N113 1.379 . S
C114 C116 1.416 1_655 S
C114 C122 1.424 1_655 S
C115 H110 0.930 . S
C115 C117 1.390 . S
C115 C118 1.339 . S
C116 C114 1.416 1_455 S
C116 C118 1.416 1_455 S
C116 C149 1.448 . S
C117 H102 0.930 . S
C117 N113 1.334 . S
C117 C115 1.390 . S
C118 C115 1.339 . S
C118 C116 1.416 1_655 S
C118 H125 0.930 . S
N119 Tb84 2.572 1_455 S
N119 C120 1.340 . S
N119 C122 1.361 . S
C120 H106 0.930 . S
C120 N119 1.340 . S
C120 C124 1.407 1_556 S
C121 C122 1.413 1_554 S
C121 C123 1.416 . S
C121 C150 1.427 . S
C122 C114 1.424 1_455 S
C122 N119 1.361 . S
C122 C121 1.413 1_556 S
C123 H112 0.931 . S
C123 C121 1.416 . S
C123 C124 1.332 . S
C124 H103 0.929 . S
C124 C120 1.407 1_554 S
C124 C123 1.332 . S
H125 C118 0.930 . S
H126 C149 0.923 1_554 S
H127 C150 0.929 . S
O128 Tb84 2.465 . S
O128 C148 1.264 . S
O129 Tb84 2.387 1_554 S
O129 C140 1.264 . S
O130 Tb95 2.349 . S
O130 C140 1.243 . S
O131 Tb84 2.428 . S
O131 C148 1.256 . S
O132 Tb84 2.308 1_554 S
O132 C147 1.266 . S
O133 Tb95 2.393 . S
O133 C147 1.248 . S
O134 Tb95 2.465 . S
O134 C159 1.264 . S
O135 Tb95 2.387 1_556 S
O135 C151 1.264 . S
O136 Tb84 2.349 . S
O136 C151 1.243 . S
O137 Tb95 2.428 . S
O137 C159 1.256 . S
O138 Tb95 2.308 . S
O138 C158 1.266 . S
O139 Tb84 2.393 . S
O139 C158 1.248 1_556 S
C140 O129 1.264 . S
C140 O130 1.243 . S
C141 C144 1.399 . S
C141 C146 1.383 . S
C141 C148 1.496 . S
C142 C143 1.399 . S
C142 C146 1.389 1_455 S
C143 C142 1.399 . S
C143 C145 1.380 1_455 S
C143 H160 0.929 . S
C144 C141 1.399 . S
C144 C145 1.392 . S
C144 H161 0.929 . S
C145 C143 1.380 1_655 S
C145 C144 1.392 . S
C145 H162 0.929 . S
C146 C141 1.383 . S
C146 C142 1.389 1_655 S
C146 H163 0.931 . S
C147 O132 1.266 . S
C147 O133 1.248 . S
C148 Tb84 2.802 . S
C148 O128 1.264 . S
C148 O131 1.256 . S
C148 C141 1.496 . S
C149 C116 1.448 . S
C149 H126 0.923 1_556 S
C149 C150 1.328 1_556 S
C150 C121 1.427 . S
C150 H127 0.929 . S
C150 C149 1.328 1_554 S
C151 O135 1.264 . S
C151 O136 1.243 . S
C152 C155 1.399 . S
C152 C156 1.383 . S
C152 C159 1.496 . S
C153 C154 1.399 . S
C153 C156 1.389 . S
C154 C153 1.399 . S
C154 C157 1.380 1_565 S
C154 H164 0.929 . S
C155 C152 1.399 . S
C155 C157 1.392 1_565 S
C155 H165 0.929 1_565 S
C156 C152 1.383 . S
C156 C153 1.389 . S
C156 H166 0.931 . S
C157 C154 1.380 1_545 S
C157 C155 1.392 1_545 S
C157 H167 0.929 . S
C158 O138 1.266 . S
C158 O139 1.248 1_554 S
C159 Tb95 2.802 . S
C159 O134 1.264 . S
C159 O137 1.256 . S
C159 C152 1.496 . S
H160 C143 0.929 . S
H161 C144 0.929 . S
H162 C145 0.929 . S
H163 C146 0.931 . S
H164 C154 0.929 . S
H165 C155 0.929 1_545 S
H166 C156 0.931 . S
H167 C157 0.929 . S
Tb168 N197 2.617 1_565 S
Tb168 N203 2.572 . S
Tb168 O212 2.465 . S
Tb168 O213 2.387 . S
Tb168 O215 2.428 . S
Tb168 O216 2.308 . S
Tb168 O220 2.349 . S
Tb168 O223 2.393 . S
Tb168 C232 2.802 . S
C169 N170 1.379 . S
C169 C172 1.416 1_455 S
C169 C176 1.424 1_455 S
N170 C169 1.379 . S
N170 C173 1.334 . S
N170 Tb179 2.617 . S
C171 C173 1.390 . S
C171 C174 1.339 . S
C171 H191 0.930 . S
C172 C169 1.416 1_655 S
C172 C174 1.416 1_655 S
C172 C178 1.448 . S
C173 N170 1.334 . S
C173 C171 1.390 . S
C173 H184 0.930 . S
C174 C171 1.339 . S
C174 C172 1.416 1_455 S
C174 H195 0.930 . S
C175 C176 1.413 . S
C175 C177 1.427 . S
C175 C181 1.416 . S
C176 C169 1.424 1_655 S
C176 C175 1.413 . S
C176 N180 1.361 . S
C177 C175 1.427 . S
C177 C178 1.328 . S
C177 H192 0.929 . S
C178 C172 1.448 . S
C178 C177 1.328 . S
C178 H193 0.930 . S
Tb179 N170 2.617 . S
Tb179 N180 2.572 1_455 S
Tb179 O214 2.349 . S
Tb179 O217 2.393 . S
Tb179 O218 2.465 . S
Tb179 O219 2.387 . S
Tb179 O221 2.428 . S
Tb179 O222 2.308 . S
Tb179 C243 2.802 . S
N180 C176 1.361 . S
N180 Tb179 2.572 1_655 S
N180 C182 1.340 . S
C181 C175 1.416 . S
C181 C183 1.332 . S
C181 H189 0.931 . S
C182 N180 1.340 . S
C182 C183 1.407 . S
C182 H188 0.930 . S
C183 C181 1.332 . S
C183 C182 1.407 . S
C183 H185 0.929 . S
H184 C173 0.930 . S
H185 C183 0.929 . S
H186 C201 0.930 . S
H187 C208 0.929 . S
H188 C182 0.930 . S
H189 C181 0.931 . S
H190 C204 0.930 . S
H191 C171 0.930 . S
H192 C177 0.929 . S
H193 C178 0.930 . S
H194 C199 0.930 . S
H195 C174 0.930 . S
H196 C207 0.931 . S
N197 Tb168 2.617 1_545 S
N197 C198 1.379 . S
N197 C201 1.334 . S
C198 N197 1.379 . S
C198 C200 1.416 . S
C198 C206 1.424 1_545 S
C199 H194 0.930 . S
C199 C201 1.390 . S
C199 C202 1.339 . S
C200 C198 1.416 . S
C200 C202 1.416 . S
C200 C233 1.448 . S
C201 H186 0.930 . S
C201 N197 1.334 . S
C201 C199 1.390 . S
C202 C199 1.339 . S
C202 C200 1.416 . S
C202 H209 0.930 . S
N203 Tb168 2.572 . S
N203 C204 1.340 . S
N203 C206 1.361 . S
C204 H190 0.930 . S
C204 N203 1.340 . S
C204 C208 1.407 . S
C205 C206 1.413 . S
C205 C207 1.416 . S
C205 C234 1.427 1_565 S
C206 C198 1.424 1_565 S
C206 N203 1.361 . S
C206 C205 1.413 . S
C207 H196 0.931 . S
C207 C205 1.416 . S
C207 C208 1.332 . S
C208 H187 0.929 . S
C208 C204 1.407 . S
C208 C207 1.332 . S
H209 C202 0.930 . S
H210 C233 0.930 . S
H211 C234 0.929 . S
O212 Tb168 2.465 . S
O212 C232 1.264 . S
O213 Tb168 2.387 . S
O213 C224 1.264 . S
O214 Tb179 2.349 . S
O214 C224 1.243 . S
O215 Tb168 2.428 . S
O215 C232 1.256 . S
O216 Tb168 2.308 . S
O216 C231 1.266 . S
O217 Tb179 2.393 . S
O217 C231 1.248 . S
O218 Tb179 2.465 . S
O218 C243 1.264 . S
O219 Tb179 2.387 . S
O219 C235 1.264 . S
O220 Tb168 2.349 . S
O220 C235 1.243 . S
O221 Tb179 2.428 . S
O221 C243 1.256 . S
O222 Tb179 2.308 . S
O222 C242 1.266 . S
O223 Tb168 2.393 . S
O223 C242 1.248 . S
C224 O213 1.264 . S
C224 O214 1.243 . S
C225 C228 1.399 . S
C225 C230 1.383 . S
C225 C232 1.496 . S
C226 C227 1.399 . S
C226 C230 1.389 . S
C227 C226 1.399 . S
C227 C229 1.380 1_565 S
C227 H244 0.929 . S
C228 C225 1.399 . S
C228 C229 1.392 1_565 S
C228 H245 0.929 1_565 S
C229 C227 1.380 1_545 S
C229 C228 1.392 1_545 S
C229 H246 0.929 . S
C230 C225 1.383 . S
C230 C226 1.389 . S
C230 H247 0.931 . S
C231 O216 1.266 . S
C231 O217 1.248 . S
C232 Tb168 2.802 . S
C232 O212 1.264 . S
C232 O215 1.256 . S
C232 C225 1.496 . S
C233 C200 1.448 . S
C233 H210 0.930 . S
C233 C234 1.328 . S
C234 C205 1.427 1_545 S
C234 H211 0.929 . S
C234 C233 1.328 . S
C235 O219 1.264 . S
C235 O220 1.243 . S
C236 C239 1.399 . S
C236 C240 1.383 . S
C236 C243 1.496 . S
C237 C238 1.399 . S
C237 C240 1.389 1_655 S
C238 C237 1.399 . S
C238 C241 1.380 1_655 S
C238 H248 0.929 . S
C239 C236 1.399 . S
C239 C241 1.392 . S
C239 H249 0.929 . S
C240 C236 1.383 . S
C240 C237 1.389 1_455 S
C240 H250 0.931 . S
C241 C238 1.380 1_455 S
C241 C239 1.392 . S
C241 H251 0.929 . S
C242 O222 1.266 . S
C242 O223 1.248 . S
C243 Tb179 2.802 . S
C243 O218 1.264 . S
C243 O221 1.256 . S
C243 C236 1.496 . S
H244 C227 0.929 . S
H245 C228 0.929 1_545 S
H246 C229 0.929 . S
H247 C230 0.931 . S
H248 C238 0.929 . S
H249 C239 0.929 . S
H250 C240 0.931 . S
H251 C241 0.929 . S
Tb252 N281 2.617 . S
Tb252 N287 2.572 1_655 S
Tb252 O296 2.465 . S
Tb252 O297 2.387 . S
Tb252 O299 2.428 . S
Tb252 O300 2.308 . S
Tb252 O304 2.349 . S
Tb252 O307 2.393 . S
Tb252 C316 2.802 . S
C253 N254 1.379 . S
C253 C256 1.416 . S
C253 C260 1.424 1_565 S
N254 C253 1.379 . S
N254 C257 1.334 . S
N254 Tb263 2.617 1_565 S
C255 C257 1.390 . S
C255 C258 1.339 . S
C255 H275 0.930 . S
C256 C253 1.416 . S
C256 C258 1.416 . S
C256 C262 1.448 . S
C257 N254 1.334 . S
C257 C255 1.390 . S
C257 H268 0.930 . S
C258 C255 1.339 . S
C258 C256 1.416 . S
C258 H279 0.930 . S
C259 C260 1.413 . S
C259 C261 1.427 1_545 S
C259 C265 1.416 . S
C260 C253 1.424 1_545 S
C260 C259 1.413 . S
C260 N264 1.361 . S
C261 C259 1.427 1_565 S
C261 C262 1.328 . S
C261 H276 0.929 . S
C262 C256 1.448 . S
C262 C261 1.328 . S
C262 H277 0.930 . S
Tb263 N254 2.617 1_545 S
Tb263 N264 2.572 . S
Tb263 O298 2.349 . S
Tb263 O301 2.393 . S
Tb263 O302 2.465 . S
Tb263 O303 2.387 . S
Tb263 O305 2.428 . S
Tb263 O306 2.308 . S
Tb263 C327 2.802 . S
N264 C260 1.361 . S
N264 Tb263 2.572 . S
N264 C266 1.340 . S
C265 C259 1.416 . S
C265 C267 1.332 . S
C265 H273 0.931 . S
C266 N264 1.340 . S
C266 C267 1.407 . S
C266 H272 0.930 . S
C267 C265 1.332 . S
C267 C266 1.407 . S
C267 H269 0.929 . S
H268 C257 0.930 . S
H269 C267 0.929 . S
H270 C285 0.930 . S
H271 C292 0.929 . S
H272 C266 0.930 . S
H273 C265 0.931 . S
H274 C288 0.930 . S
H275 C255 0.930 . S
H276 C261 0.929 . S
H277 C262 0.930 . S
H278 C283 0.930 . S
H279 C258 0.930 . S
H280 C291 0.931 . S
N281 Tb252 2.617 . S
N281 C282 1.379 . S
N281 C285 1.334 . S
C282 N281 1.379 . S
C282 C284 1.416 1_655 S
C282 C290 1.424 1_655 S
C283 H278 0.930 . S
C283 C285 1.390 . S
C283 C286 1.339 . S
C284 C282 1.416 1_455 S
C284 C286 1.416 1_455 S
C284 C317 1.448 . S
C285 H270 0.930 . S
C285 N281 1.334 . S
C285 C283 1.390 . S
C286 C283 1.339 . S
C286 C284 1.416 1_655 S
C286 H293 0.930 . S
N287 Tb252 2.572 1_455 S
N287 C288 1.340 . S
N287 C290 1.361 . S
C288 H274 0.930 . S
C288 N287 1.340 . S
C288 C292 1.407 . S
C289 C290 1.413 . S
C289 C291 1.416 . S
C289 C318 1.427 . S
C290 C282 1.424 1_455 S
C290 N287 1.361 . S
C290 C289 1.413 . S
C291 H280 0.931 . S
C291 C289 1.416 . S
C291 C292 1.332 . S
C292 H271 0.929 . S
C292 C288 1.407 . S
C292 C291 1.332 . S
H293 C286 0.930 . S
H294 C317 0.930 . S
H295 C318 0.929 . S
O296 Tb252 2.465 . S
O296 C316 1.264 . S
O297 Tb252 2.387 . S
O297 C308 1.264 . S
O298 Tb263 2.349 . S
O298 C308 1.243 . S
O299 Tb252 2.428 . S
O299 C316 1.256 . S
O300 Tb252 2.308 . S
O300 C315 1.266 . S
O301 Tb263 2.393 . S
O301 C315 1.248 . S
O302 Tb263 2.465 . S
O302 C327 1.264 . S
O303 Tb263 2.387 . S
O303 C319 1.264 . S
O304 Tb252 2.349 . S
O304 C319 1.243 . S
O305 Tb263 2.428 . S
O305 C327 1.256 . S
O306 Tb263 2.308 . S
O306 C326 1.266 . S
O307 Tb252 2.393 . S
O307 C326 1.248 . S
C308 O297 1.264 . S
C308 O298 1.243 . S
C309 C312 1.399 . S
C309 C314 1.383 . S
C309 C316 1.496 . S
C310 C311 1.399 . S
C310 C314 1.389 1_455 S
C311 C310 1.399 . S
C311 C313 1.380 1_455 S
C311 H328 0.929 . S
C312 C309 1.399 . S
C312 C313 1.392 . S
C312 H329 0.929 . S
C313 C311 1.380 1_655 S
C313 C312 1.392 . S
C313 H330 0.929 . S
C314 C309 1.383 . S
C314 C310 1.389 1_655 S
C314 H331 0.931 . S
C315 O300 1.266 . S
C315 O301 1.248 . S
C316 Tb252 2.802 . S
C316 O296 1.264 . S
C316 O299 1.256 . S
C316 C309 1.496 . S
C317 C284 1.448 . S
C317 H294 0.930 . S
C317 C318 1.328 . S
C318 C289 1.427 . S
C318 H295 0.929 . S
C318 C317 1.328 . S
C319 O303 1.264 . S
C319 O304 1.243 . S
C320 C323 1.399 . S
C320 C324 1.383 . S
C320 C327 1.496 . S
C321 C322 1.399 . S
C321 C324 1.389 . S
C322 C321 1.399 . S
C322 C325 1.380 1_545 S
C322 H332 0.929 . S
C323 C320 1.399 . S
C323 C325 1.392 1_545 S
C323 H333 0.929 1_545 S
C324 C320 1.383 . S
C324 C321 1.389 . S
C324 H334 0.931 . S
C325 C322 1.380 1_565 S
C325 C323 1.392 1_565 S
C325 H335 0.929 . S
C326 O306 1.266 . S
C326 O307 1.248 . S
C327 Tb263 2.802 . S
C327 O302 1.264 . S
C327 O305 1.256 . S
C327 C320 1.496 . S
H328 C311 0.929 . S
H329 C312 0.929 . S
H330 C313 0.929 . S
H331 C314 0.931 . S
H332 C322 0.929 . S
H333 C323 0.929 1_565 S
H334 C324 0.931 . S
H335 C325 0.929 . S
C336 C337 1.363 . S
C336 C342 1.379 . S
C336 N344 1.355 1_554 S
C337 C336 1.363 . S
C337 C343 1.363 . S
C338 C339 1.363 . S
C338 C343 1.379 . S
C338 N345 1.356 . S
C339 C338 1.363 . S
C339 C342 1.363 . S
N340 C342 1.356 . S
N340 H352 0.984 1_554 S
N340 H353 0.985 . S
N341 C343 1.356 . S
N341 H346 0.984 . S
N341 H347 0.985 . S
C342 C336 1.379 . S
C342 C339 1.363 . S
C342 N340 1.356 . S
C343 C337 1.363 . S
C343 C338 1.379 . S
C343 N341 1.356 . S
N344 C336 1.355 1_556 S
N344 H350 0.982 . S
N344 H351 0.989 . S
N345 C338 1.356 . S
N345 H348 0.984 . S
N345 H349 0.985 . S
H346 N341 0.984 . S
H347 N341 0.985 . S
H348 N345 0.984 . S
H349 N345 0.985 . S
H350 N344 0.982 . S
H351 N344 0.989 . S
H352 N340 0.984 1_556 S
H353 N340 0.985 . S
C354 C355 1.363 . S
C354 C360 1.379 . S
C354 N362 1.356 . S
C355 C354 1.363 . S
C355 C361 1.363 . S
C356 C357 1.363 . S
C356 C361 1.379 . S
C356 N363 1.356 . S
C357 C356 1.363 . S
C357 C360 1.363 . S
N358 C360 1.356 . S
N358 H370 0.984 . S
N358 H371 0.985 . S
N359 C361 1.356 . S
N359 H364 0.984 . S
N359 H365 0.985 . S
C360 C354 1.379 . S
C360 C357 1.363 . S
C360 N358 1.356 . S
C361 C355 1.363 . S
C361 C356 1.379 . S
C361 N359 1.356 . S
N362 C354 1.356 . S
N362 H368 0.984 . S
N362 H369 0.984 . S
N363 C356 1.356 . S
N363 H366 0.984 . S
N363 H367 0.985 . S
H364 N359 0.984 . S
H365 N359 0.985 . S
H366 N363 0.984 . S
H367 N363 0.985 . S
H368 N362 0.984 . S
H369 N362 0.984 . S
H370 N358 0.984 . S
H371 N358 0.985 . S
C372 C373 1.363 1_565 S
C372 C378 1.379 . S
C372 N380 1.356 . S
C373 C372 1.363 1_545 S
C373 C379 1.363 1_455 S
C374 C375 1.363 1_545 S
C374 C379 1.379 . S
C374 N381 1.356 . S
C375 C374 1.363 1_565 S
C375 C378 1.363 1_655 S
N376 C378 1.356 1_655 S
N376 H388 0.984 1_655 S
N376 H389 0.985 . S
N377 C379 1.356 1_455 S
N377 H382 0.984 . S
N377 H383 0.985 1_455 S
C378 C372 1.379 . S
C378 C375 1.363 1_455 S
C378 N376 1.356 1_455 S
C379 C373 1.363 1_655 S
C379 C374 1.379 . S
C379 N377 1.356 1_655 S
N380 C372 1.356 . S
N380 H386 0.984 . S
N380 H387 0.984 1_565 S
N381 C374 1.356 . S
N381 H384 0.984 1_545 S
N381 H385 0.985 . S
H382 N377 0.984 . S
H383 N377 0.985 1_655 S
H384 N381 0.984 1_565 S
H385 N381 0.985 . S
H386 N380 0.984 . S
H387 N380 0.984 1_545 S
H388 N376 0.984 1_455 S
H389 N376 0.985 . S
C390 C391 1.363 . S
C390 C396 1.379 1_655 S
C390 N398 1.356 . S
C391 C390 1.363 . S
C391 C397 1.363 1_545 S
C392 C393 1.363 . S
C392 C397 1.379 1_455 S
C392 N399 1.356 . S
C393 C392 1.363 . S
C393 C396 1.363 1_565 S
N394 C396 1.356 . S
N394 H406 0.984 . S
N394 H407 0.985 1_545 S
N395 C397 1.356 . S
N395 H400 0.984 1_565 S
N395 H401 0.985 . S
C396 C390 1.379 1_455 S
C396 C393 1.363 1_545 S
C396 N394 1.356 . S
C397 C391 1.363 1_565 S
C397 C392 1.379 1_655 S
C397 N395 1.356 . S
N398 C390 1.356 . S
N398 H404 0.984 . S
N398 H405 0.984 . S
N399 C392 1.356 . S
N399 H402 0.984 . S
N399 H403 0.985 . S
H400 N395 0.984 1_545 S
H401 N395 0.985 . S
H402 N399 0.984 . S
H403 N399 0.985 . S
H404 N398 0.984 . S
H405 N398 0.984 . S
H406 N394 0.984 . S
H407 N394 0.985 1_565 S
C408 C409 1.363 . S
C408 C414 1.379 . S
C408 N416 1.356 . S
C409 C408 1.363 . S
C409 C415 1.363 . S
C410 C411 1.363 . S
C410 C415 1.379 . S
C410 N417 1.356 . S
C411 C410 1.363 . S
C411 C414 1.363 . S
N412 C414 1.356 . S
N412 H424 0.984 . S
N412 H425 0.985 . S
N413 C415 1.356 . S
N413 H418 0.984 . S
N413 H419 0.985 . S
C414 C408 1.379 . S
C414 C411 1.363 . S
C414 N412 1.356 . S
C415 C409 1.363 . S
C415 C410 1.379 . S
C415 N413 1.356 . S
N416 C408 1.356 . S
N416 H422 0.984 . S
N416 H423 0.984 . S
N417 C410 1.356 . S
N417 H420 0.984 . S
N417 H421 0.985 . S
H418 N413 0.984 . S
H419 N413 0.985 . S
H420 N417 0.984 . S
H421 N417 0.985 . S
H422 N416 0.984 . S
H423 N416 0.984 . S
H424 N412 0.984 . S
H425 N412 0.985 . S
C426 C427 1.363 . S
C426 C432 1.379 . S
C426 N434 1.356 . S
C427 C426 1.363 . S
C427 C433 1.363 . S
C428 C429 1.363 . S
C428 C433 1.379 . S
C428 N435 1.356 . S
C429 C428 1.363 . S
C429 C432 1.363 . S
N430 C432 1.356 . S
N430 H442 0.984 . S
N430 H443 0.985 . S
N431 C433 1.356 . S
N431 H436 0.984 . S
N431 H437 0.985 . S
C432 C426 1.379 . S
C432 C429 1.363 . S
C432 N430 1.356 . S
C433 C427 1.363 . S
C433 C428 1.379 . S
C433 N431 1.356 . S
N434 C426 1.356 . S
N434 H440 0.984 . S
N434 H441 0.984 . S
N435 C428 1.356 . S
N435 H438 0.984 . S
N435 H439 0.985 . S
H436 N431 0.984 . S
H437 N431 0.985 . S
H438 N435 0.984 . S
H439 N435 0.985 . S
H440 N434 0.984 . S
H441 N434 0.984 . S
H442 N430 0.984 . S
H443 N430 0.985 . S
C444 C445 1.363 . S
C444 C450 1.379 . S
C444 N452 1.356 . S
C445 C444 1.363 . S
C445 C451 1.363 . S
C446 C447 1.363 . S
C446 C451 1.379 . S
C446 N453 1.356 . S
C447 C446 1.363 . S
C447 C450 1.363 . S
N448 C450 1.356 . S
N448 H460 0.984 . S
N448 H461 0.985 . S
N449 C451 1.356 . S
N449 H454 0.984 . S
N449 H455 0.985 . S
C450 C444 1.379 . S
C450 C447 1.363 . S
C450 N448 1.356 . S
C451 C445 1.363 . S
C451 C446 1.379 . S
C451 N449 1.356 . S
N452 C444 1.356 . S
N452 H458 0.984 . S
N452 H459 0.984 . S
N453 C446 1.356 . S
N453 H456 0.984 . S
N453 H457 0.985 . S
H454 N449 0.984 . S
H455 N449 0.985 . S
H456 N453 0.984 . S
H457 N453 0.985 . S
H458 N452 0.984 . S
H459 N452 0.984 . S
H460 N448 0.984 . S
H461 N448 0.985 . S
C462 C463 1.363 . S
C462 C468 1.379 . S
C462 N470 1.356 . S
C463 C462 1.363 . S
C463 C469 1.363 . S
C464 C465 1.363 . S
C464 C469 1.379 . S
C464 N471 1.356 . S
C465 C464 1.363 . S
C465 C468 1.363 . S
N466 C468 1.356 . S
N466 H478 0.984 . S
N466 H479 0.985 . S
N467 C469 1.356 . S
N467 H472 0.984 . S
N467 H473 0.985 . S
C468 C462 1.379 . S
C468 C465 1.363 . S
C468 N466 1.356 . S
C469 C463 1.363 . S
C469 C464 1.379 . S
C469 N467 1.356 . S
N470 C462 1.356 . S
N470 H476 0.984 . S
N470 H477 0.984 . S
N471 C464 1.356 . S
N471 H474 0.984 . S
N471 H475 0.985 . S
H472 N467 0.984 . S
H473 N467 0.985 . S
H474 N471 0.984 . S
H475 N471 0.985 . S
H476 N470 0.984 . S
H477 N470 0.984 . S
H478 N466 0.984 . S
H479 N466 0.985 . S
C480 C481 1.363 . S
C480 C486 1.379 . S
C480 N488 1.356 . S
C481 C480 1.363 . S
C481 C487 1.363 . S
C482 C483 1.363 . S
C482 C487 1.379 . S
C482 N489 1.356 . S
C483 C482 1.363 . S
C483 C486 1.363 . S
N484 C486 1.356 . S
N484 H496 0.984 . S
N484 H497 0.985 . S
N485 C487 1.356 . S
N485 H490 0.984 . S
N485 H491 0.985 . S
C486 C480 1.379 . S
C486 C483 1.363 . S
C486 N484 1.356 . S
C487 C481 1.363 . S
C487 C482 1.379 . S
C487 N485 1.356 . S
N488 C480 1.356 . S
N488 H494 0.984 . S
N488 H495 0.984 . S
N489 C482 1.356 . S
N489 H492 0.984 . S
N489 H493 0.985 . S
H490 N485 0.984 . S
H491 N485 0.985 . S
H492 N489 0.984 . S
H493 N489 0.985 . S
H494 N488 0.984 . S
H495 N488 0.984 . S
H496 N484 0.984 . S
H497 N484 0.985 . S
C498 C499 1.363 . S
C498 C504 1.379 . S
C498 N506 1.356 . S
C499 C498 1.363 . S
C499 C505 1.363 . S
C500 C501 1.363 . S
C500 C505 1.379 . S
C500 N507 1.356 1_655 S
C501 C500 1.363 . S
C501 C504 1.363 . S
N502 C504 1.356 . S
N502 H514 0.984 . S
N502 H515 0.985 . S
N503 C505 1.356 . S
N503 H508 0.984 . S
N503 H509 0.985 . S
C504 C498 1.379 . S
C504 C501 1.363 . S
C504 N502 1.356 . S
C505 C499 1.363 . S
C505 C500 1.379 . S
C505 N503 1.356 . S
N506 C498 1.356 . S
N506 H512 0.984 . S
N506 H513 0.984 . S
N507 C500 1.356 1_455 S
N507 H510 0.984 . S
N507 H511 0.985 . S
H508 N503 0.984 . S
H509 N503 0.985 . S
H510 N507 0.984 . S
H511 N507 0.985 . S
H512 N506 0.984 . S
H513 N506 0.984 . S
H514 N502 0.984 . S
H515 N502 0.985 . S
C516 C517 1.363 . S
C516 C522 1.379 . S
C516 N524 1.356 1_455 S
C517 C516 1.363 . S
C517 C523 1.363 . S
C518 C519 1.363 . S
C518 C523 1.379 . S
C518 N525 1.356 . S
C519 C518 1.363 . S
C519 C522 1.363 . S
N520 C522 1.356 . S
N520 H532 0.984 . S
N520 H533 0.985 . S
N521 C523 1.356 . S
N521 H526 0.984 . S
N521 H527 0.985 . S
C522 C516 1.379 . S
C522 C519 1.363 . S
C522 N520 1.356 . S
C523 C517 1.363 . S
C523 C518 1.379 . S
C523 N521 1.356 . S
N524 C516 1.356 1_655 S
N524 H530 0.984 . S
N524 H531 0.984 . S
N525 C518 1.356 . S
N525 H528 0.984 . S
N525 H529 0.985 . S
H526 N521 0.984 . S
H527 N521 0.985 . S
H528 N525 0.984 . S
H529 N525 0.985 . S
H530 N524 0.984 . S
H531 N524 0.984 . S
H532 N520 0.984 . S
H533 N520 0.985 . S
C534 C535 1.363 . S
C534 C540 1.379 . S
C534 N542 1.356 . S
C535 C534 1.363 . S
C535 C541 1.363 . S
C536 C537 1.363 . S
C536 C541 1.379 . S
C536 N543 1.356 . S
C537 C536 1.363 . S
C537 C540 1.363 . S
N538 C540 1.356 1_655 S
N538 H550 0.984 . S
N538 H551 0.985 . S
N539 C541 1.356 . S
N539 H544 0.984 . S
N539 H545 0.985 . S
C540 C534 1.379 . S
C540 C537 1.363 . S
C540 N538 1.356 1_455 S
C541 C535 1.363 . S
C541 C536 1.379 . S
C541 N539 1.356 . S
N542 C534 1.356 . S
N542 H548 0.984 . S
N542 H549 0.984 . S
N543 C536 1.356 . S
N543 H546 0.984 . S
N543 H547 0.985 . S
H544 N539 0.984 . S
H545 N539 0.985 . S
H546 N543 0.984 . S
H547 N543 0.985 . S
H548 N542 0.984 . S
H549 N542 0.984 . S
H550 N538 0.984 . S
H551 N538 0.985 . S
C337 C158 1.539 . S
C339 C63 1.539 . S
C355 C231 1.539 . S
C357 C326 1.539 . S
C373 C74 1.539 . S
C375 C147 1.539 . S
C391 C315 1.539 . S
C393 C242 1.539 . S
C409 C321 1.337 . S
C411 C56 1.391 . S
C427 C153 1.337 . S
C429 C224 1.391 . S
C445 C151 1.391 . S
C447 C226 1.337 . S
C463 C319 1.391 . S
C465 C58 1.337 . S
C481 C140 1.391 . S
C483 C237 1.337 . S
C499 C308 1.391 . S
C501 C69 1.337 . S
C517 C310 1.337 . S
C519 C67 1.391 . S
C535 C235 1.391 . S
C537 C142 1.337 . S
