# Generated by pormake.
# Topology vmz, (8)-cn, num edge types: 1
# Building blocks:
#     Node 0, Type 0, BuildingBlock: TAGTUT_clean_sbu_3, # of connection points: 8
#     Node 1, Type 0, BuildingBlock: TAGTUT_clean_sbu_3, # of connection points: 8
#     Node 2, Type 0, BuildingBlock: TAGTUT_clean_sbu_3, # of connection points: 8
#     Node 3, Type 0, BuildingBlock: TAGTUT_clean_sbu_3, # of connection points: 8
#     Edge 4, Type (0, 0), BuildingBlock: KIFKEQ_clean_linker_1, # of connection points: 2
#     Edge 5, Type (0, 0), BuildingBlock: KIFKEQ_clean_linker_1, # of connection points: 2
#     Edge 6, Type (0, 0), BuildingBlock: KIFKEQ_clean_linker_1, # of connection points: 2
#     Edge 7, Type (0, 0), BuildingBlock: KIFKEQ_clean_linker_1, # of connection points: 2
#     Edge 8, Type (0, 0), BuildingBlock: KIFKEQ_clean_linker_1, # of connection points: 2
#     Edge 9, Type (0, 0), BuildingBlock: KIFKEQ_clean_linker_1, # of connection points: 2
#     Edge 10, Type (0, 0), BuildingBlock: KIFKEQ_clean_linker_1, # of connection points: 2
#     Edge 11, Type (0, 0), BuildingBlock: KIFKEQ_clean_linker_1, # of connection points: 2
#     Edge 12, Type (0, 0), BuildingBlock: KIFKEQ_clean_linker_1, # of connection points: 2
#     Edge 13, Type (0, 0), BuildingBlock: KIFKEQ_clean_linker_1, # of connection points: 2
#     Edge 14, Type (0, 0), BuildingBlock: KIFKEQ_clean_linker_1, # of connection points: 2
#     Edge 15, Type (0, 0), BuildingBlock: KIFKEQ_clean_linker_1, # of connection points: 2
#     Edge 16, Type (0, 0), BuildingBlock: KIFKEQ_clean_linker_1, # of connection points: 2
#     Edge 17, Type (0, 0), BuildingBlock: KIFKEQ_clean_linker_1, # of connection points: 2
#     Edge 18, Type (0, 0), BuildingBlock: KIFKEQ_clean_linker_1, # of connection points: 2
#     Edge 19, Type (0, 0), BuildingBlock: KIFKEQ_clean_linker_1, # of connection points: 2
# Relax obj value: 0.212
# Max RMSD: 0.273
# Mean RMSD: 0.270
data_MOF--net-vmz--node1-TAGTUT_clean_sbu_3--edge1-KIFKEQ_clean_linker_1
_symmetry_space_group_name_H-M    P1
_symmetry_Int_Tables_number       1
_symmetry_cell_setting            triclinic
loop_
_symmetry_equiv_pos_as_xyz
'x, y, z'
_cell_length_a     27.329539
_cell_length_b     19.563506
_cell_length_c     33.236194
_cell_angle_alpha  89.605399
_cell_angle_beta   99.426656
_cell_angle_gamma 89.350584
loop_
_atom_site_label
_atom_site_type_symbol
_atom_site_fract_x
_atom_site_fract_y
_atom_site_fract_z
_atom_type_partial_charge
C0 C 0.16108 0.15121 0.15943 0.0
C1 C 0.17841 0.35767 0.05438 0.0
C2 C 0.19073 0.19248 0.97131 0.0
Mg3 Mg 0.1987 -0.00461 0.15326 0.0
Mg4 Mg 0.30158 0.96211 0.11771 0.0
O5 O 0.23926 0.00356 0.10791 0.0
Mg6 Mg 0.23181 0.10357 0.09551 0.0
O7 O 0.2178 0.20246 0.08376 0.0
Mg8 Mg 0.14481 0.1966 0.06146 0.0
Mg9 Mg 0.2561 0.24127 0.04802 0.0
C10 C 0.31016 0.04935 0.03789 0.0
O11 O 0.30853 0.13642 0.12838 0.0
O12 O 0.20415 0.87925 0.14555 0.0
O13 O 0.32737 0.21982 0.08625 0.0
O14 O 0.26862 -0.01288 0.20421 0.0
O15 O 0.27392 0.86002 0.11921 0.0
O16 O 0.33816 -0.01215 0.17743 0.0
O17 O 0.15451 0.08072 0.06267 0.0
O18 O 0.12984 0.00206 0.10347 0.0
C19 C 0.12145 0.04065 0.0718 0.0
C20 C 0.23456 0.83893 0.13152 0.0
O21 O 0.2723 0.08766 0.04042 0.0
O22 O 0.14552 0.31441 0.06091 0.0
O23 O 0.32734 0.00395 0.06474 0.0
O24 O 0.15511 0.19579 0.9921 0.0
O25 O 0.22184 0.34015 0.04804 0.0
O26 O 0.23566 0.19969 0.98833 0.0
O27 O 0.19678 0.11345 0.15181 0.0
O28 O 0.13708 0.19094 0.13171 0.0
C29 C 0.31602 -0.01291 0.20828 0.0
C30 C 0.33854 0.18089 0.11785 0.0
C31 C 0.6004 0.61358 0.48235 0.0
C32 C 0.72483 0.79127 0.54276 0.0
C33 C 0.70474 0.88744 0.423 0.0
Mg34 Mg 0.58932 0.53102 0.40157 0.0
Mg35 Mg 0.67657 0.51456 0.3456 0.0
O36 O 0.63896 0.57511 0.37134 0.0
Mg37 Mg 0.67096 0.64219 0.41321 0.0
O38 O 0.69619 0.70913 0.45632 0.0
Mg39 Mg 0.63607 0.76509 0.46127 0.0
Mg40 Mg 0.75597 0.75626 0.45967 0.0
C41 C 0.73031 0.65485 0.33391 0.0
O42 O 0.74553 0.58253 0.43441 0.0
O43 O 0.55713 0.47578 0.34199 0.0
O44 O 0.80017 0.66986 0.44514 0.0
O45 O 0.63744 0.43019 0.41729 0.0
O46 O 0.61714 0.47042 0.30295 0.0
O47 O 0.70407 0.43331 0.3866 0.0
O48 O 0.60315 0.71338 0.39813 0.0
O49 O 0.54422 0.63364 0.38488 0.0
C50 C 0.55771 0.6967 0.38718 0.0
C51 C 0.57316 0.45763 0.30938 0.0
O52 O 0.71087 0.68646 0.36159 0.0
O53 O 0.67913 0.79538 0.52529 0.0
O54 O 0.72529 0.59049 0.32719 0.0
O55 O 0.6655 0.86118 0.43245 0.0
O56 O 0.76015 0.7769 0.52313 0.0
O57 O 0.74566 0.85387 0.42796 0.0
O58 O 0.62668 0.58799 0.45761 0.0
O59 O 0.60354 0.67664 0.49129 0.0
C60 C 0.67788 0.40304 0.40953 0.0
C61 C 0.79021 0.60582 0.442 0.0
C62 C 0.61392 0.90211 0.96968 0.0
C63 C 0.73047 0.71937 0.04378 0.0
C64 C 0.71654 0.61324 0.92747 0.0
Mg65 Mg 0.60363 0.96732 0.88217 0.0
Mg66 Mg 0.6967 0.97619 0.8322 0.0
O67 O 0.6569 0.91869 0.85828 0.0
Mg68 Mg 0.68574 0.85651 0.90479 0.0
O69 O 0.70896 0.7951 0.9528 0.0
Mg70 Mg 0.64736 0.74397 0.95809 0.0
Mg71 Mg 0.76856 0.74419 0.96128 0.0
C72 C 0.75172 0.83152 0.83205 0.0
O73 O 0.75854 0.91548 0.92278 0.0
O74 O 0.57435 0.00408 0.81716 0.0
O75 O 0.81284 0.82813 0.94293 0.0
O76 O 0.64746 0.06978 0.89271 0.0
O77 O 0.63844 0.00616 0.7824 0.0
O78 O 0.71788 0.06694 0.86741 0.0
O79 O 0.61799 0.78605 0.89166 0.0
O80 O 0.56041 0.86634 0.87126 0.0
C81 C 0.573 0.80336 0.87785 0.0
C82 C 0.59214 0.01392 0.7842 0.0
O83 O 0.72827 0.80344 0.85847 0.0
O84 O 0.68583 0.71813 0.02409 0.0
O85 O 0.74925 0.89592 0.8236 0.0
O86 O 0.6776 0.64308 0.93571 0.0
O87 O 0.76807 0.72911 0.0259 0.0
O88 O 0.75785 0.64454 0.9313 0.0
O89 O 0.64009 0.92095 0.9433 0.0
O90 O 0.61506 0.84004 0.98167 0.0
C91 C 0.68766 0.09813 0.88658 0.0
C92 C 0.80296 0.8912 0.9329 0.0
C93 C 0.33811 0.28726 0.6183 0.0
C94 C 0.32693 0.5035 0.71026 0.0
C95 C 0.21451 0.57531 0.61539 0.0
Mg96 Mg 0.26092 0.2175 0.5468 0.0
Mg97 Mg 0.14093 0.21752 0.5444 0.0
O98 O 0.19883 0.26851 0.55342 0.0
Mg99 Mg 0.22221 0.3342 0.59901 0.0
O100 O 0.25358 0.40005 0.64222 0.0
Mg101 Mg 0.30184 0.44886 0.61303 0.0
Mg102 Mg 0.22013 0.45493 0.6751 0.0
C103 C 0.1005 0.36179 0.57086 0.0
O104 O 0.18829 0.28147 0.65255 0.0
O105 O 0.22146 0.18294 0.4825 0.0
O106 O 0.17596 0.37155 0.69282 0.0
O107 O 0.23494 0.11751 0.5755 0.0
O108 O 0.13952 0.19803 0.48034 0.0
O109 O 0.15379 0.12174 0.57711 0.0
O110 O 0.26208 0.39713 0.55455 0.0
O111 O 0.28717 0.31302 0.51781 0.0
C112 C 0.28664 0.37619 0.52714 0.0
C113 C 0.17675 0.18348 0.46292 0.0
O114 O 0.14369 0.3888 0.58198 0.0
O115 O 0.33898 0.49254 0.67509 0.0
O116 O 0.0945 0.29873 0.56082 0.0
O117 O 0.25266 0.54804 0.60372 0.0
O118 O 0.28341 0.4907 0.71786 0.0
O119 O 0.19124 0.54434 0.64034 0.0
O120 O 0.29303 0.26804 0.60947 0.0
O121 O 0.34909 0.35059 0.62285 0.0
C122 C 0.19543 0.08997 0.58386 0.0
C123 C 0.17203 0.30774 0.68367 0.0
H124 H 0.20897 0.46017 0.01025 0.0
H125 H 0.12851 0.419 0.10913 0.0
H126 H 0.21525 0.57989 0.02961 0.0
H127 H 0.13594 0.53915 0.12932 0.0
H128 H 0.14429 0.7803 0.13291 0.0
H129 H 0.1194 0.66526 0.11028 0.0
H130 H 0.26956 0.62058 0.09265 0.0
H131 H 0.29438 0.73483 0.11462 0.0
C132 C 0.19154 0.47734 0.03549 0.0
C133 C 0.16898 0.43076 0.05866 0.0
C134 C 0.19544 0.5455 0.04675 0.0
C135 C 0.17747 0.56781 0.08169 0.0
C136 C 0.15035 0.52282 0.10241 0.0
C137 C 0.14595 0.45437 0.0908 0.0
C138 C 0.17212 0.74547 0.12479 0.0
C139 C 0.22116 0.76681 0.12493 0.0
C140 C 0.15775 0.67992 0.11173 0.0
C141 C 0.19226 0.63517 0.09866 0.0
C142 C 0.24187 0.65511 0.10132 0.0
C143 C 0.25618 0.72028 0.11425 0.0
H144 H 0.78377 0.97446 0.42942 0.0
H145 H 0.624 0.97105 0.39956 0.0
H146 H 0.78103 0.09902 0.43085 0.0
H147 H 0.62126 0.09543 0.39976 0.0
H148 H 0.75725 0.32664 0.39379 0.0
H149 H 0.76515 0.20287 0.39397 0.0
H150 H 0.63162 0.18679 0.44709 0.0
H151 H 0.62268 0.31094 0.44553 0.0
C152 C 0.74812 0.00024 0.422 0.0
C153 C 0.70411 0.9624 0.41447 0.0
C154 C 0.74649 0.07195 0.42304 0.0
C155 C 0.70081 0.10782 0.4163 0.0
C156 C 0.65706 0.06989 0.40641 0.0
C157 C 0.65867 -0.00166 0.40564 0.0
C158 C 0.72994 0.29696 0.40625 0.0
C159 C 0.68903 0.32932 0.41935 0.0
C160 C 0.73452 0.22555 0.40631 0.0
C161 C 0.6985 0.18419 0.41972 0.0
C162 C 0.65937 0.21667 0.43538 0.0
C163 C 0.65466 0.28817 0.43515 0.0
H164 H 0.64966 0.52522 0.94942 0.0
H165 H 0.77841 0.53008 0.88973 0.0
H166 H 0.64647 0.40294 0.94317 0.0
H167 H 0.77315 0.40594 0.88036 0.0
H168 H 0.77436 0.17224 0.89706 0.0
H169 H 0.78328 0.29567 0.90685 0.0
H170 H 0.62452 0.3149 0.90196 0.0
H171 H 0.61671 0.19266 0.89543 0.0
C172 C 0.67675 0.50024 0.93389 0.0
C173 C 0.71395 0.53815 0.91961 0.0
C174 C 0.67474 0.42928 0.93002 0.0
C175 C 0.70895 0.3931 0.91055 0.0
C176 C 0.74627 0.4311 0.89595 0.0
C177 C 0.74907 0.50262 0.90086 0.0
C178 C 0.74163 0.20304 0.89892 0.0
C179 C 0.69494 0.17213 0.89615 0.0
C180 C 0.74657 0.27421 0.90399 0.0
C181 C 0.70475 0.31664 0.90551 0.0
C182 C 0.65814 0.28501 0.90238 0.0
C183 C 0.65348 0.21417 0.89841 0.0
H184 H 0.1171 0.00727 0.59262 0.0
H185 H 0.27627 0.00355 0.59871 0.0
H186 H 0.11743 0.88288 0.59783 0.0
H187 H 0.2766 0.87944 0.60467 0.0
H188 H 0.25782 0.65986 0.56564 0.0
H189 H 0.25156 0.78391 0.56072 0.0
H190 H 0.1418 0.78357 0.64056 0.0
H191 H 0.14732 0.65915 0.64494 0.0
C192 C 0.15234 0.98019 0.59592 0.0
C193 C 0.19664 0.01585 0.59494 0.0
C194 C 0.15248 0.90861 0.59885 0.0
C195 C 0.19691 0.87072 0.60087 0.0
C196 C 0.24147 0.90665 0.60204 0.0
C197 C 0.24136 0.97812 0.59913 0.0
C198 C 0.23162 0.68593 0.5816 0.0
C199 C 0.20327 0.64904 0.60587 0.0
C200 C 0.22852 0.75738 0.5792 0.0
C201 C 0.19699 0.79418 0.60097 0.0
C202 C 0.16654 0.75715 0.62338 0.0
C203 C 0.16962 0.68554 0.6258 0.0
H204 H 0.46029 0.70924 0.39675 0.0
H205 H 0.57389 0.80649 0.3416 0.0
H206 H 0.40016 0.79535 0.36612 0.0
H207 H 0.51396 0.88795 0.30753 0.0
H208 H 0.40636 0.03431 0.24477 0.0
H209 H 0.46315 0.97725 0.29908 0.0
H210 H 0.35062 0.82668 0.30953 0.0
H211 H 0.2933 0.8885 0.25895 0.0
C212 C 0.47218 0.74905 0.37782 0.0
C213 C 0.52154 0.75108 0.37135 0.0
C214 C 0.43763 0.79835 0.35976 0.0
C215 C 0.45113 0.84921 0.33331 0.0
C216 C 0.5013 0.85155 0.32805 0.0
C217 C 0.53603 0.80398 0.34733 0.0
C218 C 0.39352 -0.00942 0.26011 0.0
C219 C 0.34552 0.96588 0.24774 0.0
C220 C 0.4264 0.95656 0.29074 0.0
C221 C 0.41289 0.8949 0.30823 0.0
C222 C 0.3633 0.87366 0.29765 0.0
C223 C 0.32995 0.90933 0.26832 0.0
H224 H 0.52954 0.34289 0.32998 0.0
H225 H 0.55047 0.46616 0.22634 0.0
H226 H 0.48362 0.26013 0.28506 0.0
H227 H 0.5003 0.38717 0.18094 0.0
H228 H 0.42673 0.22789 0.10101 0.0
H229 H 0.49032 0.2854 0.14834 0.0
H230 H 0.40987 0.23911 0.24699 0.0
H231 H 0.3495 0.17715 0.20029 0.0
C232 C 0.52313 0.35283 0.2974 0.0
C233 C 0.54261 0.41119 0.28147 0.0
C234 C 0.49663 0.30547 0.2715 0.0
C235 C 0.48741 0.31652 0.229 0.0
C236 C 0.50723 0.37547 0.21324 0.0
C237 C 0.53534 0.42162 0.2392 0.0
C238 C 0.42393 0.22816 0.13316 0.0
C239 C 0.38315 0.19849 0.14699 0.0
C240 C 0.45984 0.26225 0.16028 0.0
C241 C 0.45485 0.26933 0.2016 0.0
C242 C 0.41579 0.23489 0.21571 0.0
C243 C 0.38082 0.19905 0.18882 0.0
H244 H 0.43754 0.31003 0.63505 0.0
H245 H 0.33015 0.14771 0.61937 0.0
H246 H 0.50195 0.22861 0.66267 0.0
H247 H 0.39534 0.06552 0.64606 0.0
H248 H 0.49196 0.00285 0.77093 0.0
H249 H 0.4334 0.05563 0.71695 0.0
H250 H 0.55446 0.12792 0.65975 0.0
H251 H 0.61378 0.07564 0.71485 0.0
C252 C 0.42789 0.25663 0.63648 0.0
C253 C 0.37842 0.23565 0.62623 0.0
C254 C 0.46507 0.20969 0.65189 0.0
C255 C 0.45356 0.14078 0.65721 0.0
C256 C 0.40507 0.11861 0.64301 0.0
C257 C 0.36776 0.16569 0.6277 0.0
C258 C 0.50624 0.02912 0.74658 0.0
C259 C 0.55749 0.03658 0.74765 0.0
C260 C 0.47255 0.05858 0.7152 0.0
C261 C 0.48927 0.09636 0.68415 0.0
C262 C 0.54055 0.09964 0.68355 0.0
C263 C 0.57445 0.06972 0.71502 0.0
H264 H 0.47251 0.81909 0.85814 0.0
H265 H 0.5898 0.66737 0.8647 0.0
H266 H 0.41345 0.73743 0.82401 0.0
H267 H 0.53035 0.58542 0.83056 0.0
H268 H 0.42653 0.51728 0.7109 0.0
H269 H 0.48547 0.58104 0.75892 0.0
H270 H 0.37037 0.62717 0.82975 0.0
H271 H 0.31103 0.56343 0.78153 0.0
C272 C 0.48555 0.7679 0.85299 0.0
C273 C 0.53603 0.75008 0.86377 0.0
C274 C 0.45157 0.72092 0.8336 0.0
C275 C 0.46728 0.65512 0.82424 0.0
C276 C 0.51725 0.63604 0.83694 0.0
C277 C 0.55122 0.68288 0.85674 0.0
C278 C 0.41381 0.54024 0.73696 0.0
C279 C 0.36386 0.53564 0.74211 0.0
C280 C 0.44777 0.57639 0.7647 0.0
C281 C 0.43258 0.60935 0.7981 0.0
C282 C 0.38309 0.60277 0.80412 0.0
C283 C 0.34917 0.56598 0.77656 0.0
H284 H 0.03323 0.01431 0.09597 0.0
H285 H 0.09848 0.0665 0.99005 0.0
H286 H -0.04745 0.00234 0.05274 0.0
H287 H 0.0176 0.05237 0.94654 0.0
H288 H 0.89315 0.87021 0.91114 0.0
H289 H -0.03065 0.92967 0.93854 0.0
H290 H 0.88477 0.07379 0.99798 0.0
H291 H 0.80807 0.01544 0.96938 0.0
C292 C 0.03012 0.02401 0.06351 0.0
C293 C 0.07204 0.04056 0.04623 0.0
C294 C -0.01607 0.01795 0.03888 0.0
C295 C -0.02096 0.02692 0.99646 0.0
C296 C 0.02055 0.04583 0.97924 0.0
C297 C 0.06665 0.05364 0.00408 0.0
C298 C 0.89071 0.91634 0.9286 0.0
C299 C 0.84508 0.93811 0.93852 0.0
C300 C 0.93419 0.95044 0.94413 0.0
C301 C 0.9327 0.00577 0.97055 0.0
C302 C 0.8866 0.03119 0.9776 0.0
C303 C 0.84287 -0.00195 0.96116 0.0
H304 H 0.00696 0.31917 0.5718 0.0
H305 H 0.08976 0.49887 0.55063 0.0
H306 H 0.93135 0.37323 0.53865 0.0
H307 H 0.0125 0.55624 0.51984 0.0
H308 H 0.88266 0.61069 0.42226 0.0
H309 H -0.04269 0.5553 0.45889 0.0
H310 H 0.8679 0.44935 0.53506 0.0
H311 H 0.79348 0.5012 0.49622 0.0
C312 C 0.00873 0.37145 0.56119 0.0
C313 C 0.05463 0.40423 0.56317 0.0
C314 C -0.03504 0.40284 0.54219 0.0
C315 C -0.03459 0.46888 0.52543 0.0
C316 C 0.01077 0.50437 0.531 0.0
C317 C 0.05505 0.4722 0.54952 0.0
C318 C 0.87911 0.57354 0.44592 0.0
C319 C 0.83234 0.5592 0.45598 0.0
C320 C 0.92199 0.54302 0.46768 0.0
C321 C 0.91927 0.49874 0.5008 0.0
C322 C 0.87195 0.4824 0.50961 0.0
C323 C 0.82897 0.51166 0.48711 0.0
H324 H 0.31415 0.97088 0.97222 0.0
H325 H 0.37666 0.14935 0.0353 0.0
H326 H 0.39096 0.95222 0.94523 0.0
H327 H 0.45402 0.12995 0.00904 0.0
H328 H 0.58805 0.03443 0.94349 0.0
H329 H 0.50733 0.09123 0.94377 0.0
H330 H 0.46255 0.92191 0.01256 0.0
H331 H 0.54168 0.86568 0.01256 0.0
C332 C 0.34306 0.00871 0.97797 0.0
C333 C 0.33987 0.06125 0.00583 0.0
C334 C 0.38712 -0.00217 0.96283 0.0
C335 C 0.42844 0.0389 0.97594 0.0
C336 C 0.42255 0.09782 0.9985 0.0
C337 C 0.37817 0.10906 0.01336 0.0
C338 C 0.56103 0.0096 0.95876 0.0
C339 C 0.57092 0.94445 0.97685 0.0
C340 C 0.51496 0.04204 0.95878 0.0
C341 C 0.47839 0.00931 0.97668 0.0
C342 C 0.48966 0.94688 0.99723 0.0
C343 C 0.53535 0.91508 0.99757 0.0
H344 H 0.34673 0.34453 0.4716 0.0
H345 H 0.31707 0.50514 0.55314 0.0
H346 H 0.42158 0.40178 0.46044 0.0
H347 H 0.39409 0.55936 0.54492 0.0
H348 H 0.51585 0.67305 0.49909 0.0
H349 H 0.43817 0.62048 0.50503 0.0
H350 H 0.503 0.42116 0.49063 0.0
H351 H 0.58091 0.47529 0.48187 0.0
C352 C 0.35612 0.3921 0.48732 0.0
C353 C 0.32635 0.41889 0.51445 0.0
C354 C 0.39973 0.42448 0.48136 0.0
C355 C 0.41522 0.48434 0.50263 0.0
C356 C 0.38386 0.51332 0.52789 0.0
C357 C 0.33963 0.48163 0.53313 0.0
C358 C 0.51404 0.61782 0.49762 0.0
C359 C 0.55508 0.57829 0.4904 0.0
C360 C 0.46908 0.58746 0.50119 0.0
C361 C 0.46374 0.51626 0.49858 0.0
C362 C 0.50513 0.47632 0.4921 0.0
C363 C 0.55013 0.50709 0.48759 0.0
H364 H 0.10173 0.33539 0.73046 0.0
H365 H 0.21074 0.18306 0.71144 0.0
H366 H 0.09923 0.28846 0.7979 0.0
H367 H 0.20776 0.13471 0.77913 0.0
H368 H 0.25706 0.17324 0.91891 0.0
H369 H 0.24172 0.18006 0.84498 0.0
H370 H 0.08454 0.20228 0.84619 0.0
H371 H 0.10008 0.1968 0.92073 0.0
C372 C 0.12356 0.28981 0.74004 0.0
C373 C 0.15669 0.26332 0.71567 0.0
C374 C 0.1222 0.26277 0.7789 0.0
C375 C 0.15412 0.20858 0.79457 0.0
C376 C 0.1834 0.1774 0.76843 0.0
C377 C 0.18453 0.20435 0.72929 0.0
C378 C 0.21906 0.17861 0.90354 0.0
C379 C 0.17992 0.18567 0.92603 0.0
C380 C 0.21017 0.18181 0.86087 0.0
C381 C 0.16185 0.19221 0.8393 0.0
C382 C 0.12232 0.19519 0.8617 0.0
C383 C 0.13122 0.19178 0.90451 0.0
H384 H 0.70994 0.71778 0.79572 0.0
H385 H 0.83296 0.85437 0.79685 0.0
H386 H 0.71021 0.69514 0.72372 0.0
H387 H 0.83284 0.83293 0.72494 0.0
H388 H 0.8165 0.78297 0.59036 0.0
H389 H 0.8354 0.76606 0.66393 0.0
H390 H 0.67928 0.7819 0.67109 0.0
H391 H 0.66009 0.79734 0.59748 0.0
C392 C 0.73898 0.73976 0.78128 0.0
C393 C 0.77058 0.78925 0.80142 0.0
C394 C 0.73842 0.728 0.73978 0.0
C395 C 0.77002 0.76476 0.71833 0.0
C396 C 0.8075 0.80456 0.7404 0.0
C397 C 0.80795 0.81637 0.7818 0.0
C398 C 0.78613 0.78338 0.6076 0.0
C399 C 0.73668 0.79179 0.58789 0.0
C400 C 0.79705 0.77315 0.64976 0.0
C401 C 0.75882 0.77103 0.67323 0.0
C402 C 0.70952 0.78112 0.65371 0.0
C403 C 0.69856 0.79141 0.61156 0.0
H404 H 0.69241 0.77134 0.29519 0.0
H405 H 0.80953 0.62075 0.29837 0.0
H406 H 0.69959 0.79994 0.2247 0.0
H407 H 0.8165 0.64858 0.22807 0.0
H408 H 0.65947 0.7173 0.0929 0.0
H409 H 0.67101 0.72305 0.16677 0.0
H410 H 0.82987 0.72575 0.17184 0.0
H411 H 0.81849 0.71947 0.09746 0.0
C412 C 0.7215 0.74701 0.2816 0.0
C413 C 0.75005 0.69335 0.30198 0.0
C414 C 0.72502 0.76244 0.24098 0.0
C415 C 0.75752 0.72492 0.22046 0.0
C416 C 0.79089 0.67815 0.24285 0.0
C417 C 0.78712 0.66245 0.28326 0.0
C418 C 0.69695 0.71883 0.10959 0.0
C419 C 0.73803 0.71741 0.08906 0.0
C420 C 0.70354 0.72331 0.15202 0.0
C421 C 0.75136 0.72618 0.17518 0.0
C422 C 0.79256 0.72399 0.15482 0.0
C423 C 0.78598 0.71997 0.11222 0.0
H424 H 0.24251 0.13297 0.41641 0.0
H425 H 0.09247 0.21088 0.40763 0.0
H426 H 0.2311 0.12319 0.34248 0.0
H427 H 0.08119 0.20092 0.33335 0.0
H428 H 0.18305 0.04964 0.2158 0.0
H429 H 0.18163 0.0542 0.28833 0.0
H430 H 0.11521 0.25594 0.2736 0.0
H431 H 0.11673 0.25142 0.1999 0.0
C432 C 0.20694 0.14745 0.3988 0.0
C433 C 0.16841 0.17243 0.41811 0.0
C434 C 0.20033 0.14167 0.35637 0.0
C435 C 0.15516 0.16122 0.33205 0.0
C436 C 0.11647 0.18588 0.35125 0.0
C437 C 0.12288 0.19096 0.39384 0.0
C438 C 0.16764 0.09487 0.22766 0.0
C439 C 0.15076 0.15064 0.20195 0.0
C440 C 0.16699 0.09748 0.26943 0.0
C441 C 0.14929 0.15592 0.28686 0.0
C442 C 0.12918 0.21016 0.26099 0.0
C443 C 0.12993 0.20756 0.21881 0.0
loop_
_geom_bond_atom_site_label_1
_geom_bond_atom_site_label_2
_geom_bond_distance
_geom_bond_site_symmetry_2
_ccdc_geom_bond_type
C0 O27 1.312 . S
C0 O28 1.208 . S
C1 O22 1.331 . S
C1 O25 1.244 . S
C2 O24 1.264 . S
C2 O26 1.273 . S
Mg3 O5 1.936 1_565 S
Mg3 O12 2.081 . S
Mg3 O14 2.023 . S
Mg3 O18 2.031 . S
Mg3 O27 2.291 1_565 S
Mg4 O5 1.963 1_565 S
Mg4 O15 1.942 . S
Mg4 O16 1.955 . S
Mg4 O23 1.986 . S
O5 Mg3 1.936 1_545 S
O5 Mg4 1.963 1_545 S
O5 Mg6 1.915 . S
Mg6 O5 1.915 . S
Mg6 O7 1.915 . S
Mg6 O11 2.013 . S
Mg6 O17 2.114 . S
Mg6 O21 2.013 . S
Mg6 O27 2.114 . S
O7 Mg6 1.915 . S
O7 Mg8 1.936 . S
O7 Mg9 1.963 . S
Mg8 O7 1.936 . S
Mg8 O17 2.291 . S
Mg8 O22 2.081 . S
Mg8 O24 2.023 . S
Mg8 O28 2.031 . S
Mg9 O7 1.963 . S
Mg9 O13 1.986 . S
Mg9 O25 1.942 . S
Mg9 O26 1.955 . S
C10 O21 1.191 . S
C10 O23 1.307 1_545 S
O11 Mg6 2.013 . S
O11 C30 1.191 . S
O12 Mg3 2.081 . S
O12 C20 1.331 . S
O13 Mg9 1.986 . S
O13 C30 1.307 . S
O14 Mg3 2.023 . S
O14 C29 1.264 . S
O15 Mg4 1.942 . S
O15 C20 1.244 . S
O16 Mg4 1.955 . S
O16 C29 1.273 . S
O17 Mg6 2.114 . S
O17 Mg8 2.291 . S
O17 C19 1.312 . S
O18 Mg3 2.031 . S
O18 C19 1.208 1_565 S
C19 O17 1.312 . S
C19 O18 1.208 1_545 S
C20 O12 1.331 . S
C20 O15 1.244 . S
O21 Mg6 2.013 . S
O21 C10 1.191 . S
O22 C1 1.331 . S
O22 Mg8 2.081 . S
O23 Mg4 1.986 . S
O23 C10 1.307 1_565 S
O24 C2 1.264 . S
O24 Mg8 2.023 . S
O25 C1 1.244 . S
O25 Mg9 1.942 . S
O26 C2 1.273 . S
O26 Mg9 1.955 . S
O27 C0 1.312 . S
O27 Mg3 2.291 1_545 S
O27 Mg6 2.114 . S
O28 C0 1.208 . S
O28 Mg8 2.031 . S
C29 O14 1.264 . S
C29 O16 1.273 . S
C30 O11 1.191 . S
C30 O13 1.307 . S
C31 O58 1.312 . S
C31 O59 1.208 . S
C32 O53 1.331 . S
C32 O56 1.244 . S
C33 O55 1.264 . S
C33 O57 1.273 . S
Mg34 O36 1.936 . S
Mg34 O43 2.081 . S
Mg34 O45 2.023 . S
Mg34 O49 2.031 . S
Mg34 O58 2.291 . S
Mg35 O36 1.963 . S
Mg35 O46 1.942 . S
Mg35 O47 1.955 . S
Mg35 O54 1.986 . S
O36 Mg34 1.936 . S
O36 Mg35 1.963 . S
O36 Mg37 1.915 . S
Mg37 O36 1.915 . S
Mg37 O38 1.915 . S
Mg37 O42 2.013 . S
Mg37 O48 2.114 . S
Mg37 O52 2.013 . S
Mg37 O58 2.114 . S
O38 Mg37 1.915 . S
O38 Mg39 1.936 . S
O38 Mg40 1.963 . S
Mg39 O38 1.936 . S
Mg39 O48 2.291 . S
Mg39 O53 2.081 . S
Mg39 O55 2.023 . S
Mg39 O59 2.031 . S
Mg40 O38 1.963 . S
Mg40 O44 1.986 . S
Mg40 O56 1.942 . S
Mg40 O57 1.955 . S
C41 O52 1.191 . S
C41 O54 1.307 . S
O42 Mg37 2.013 . S
O42 C61 1.191 . S
O43 Mg34 2.081 . S
O43 C51 1.331 . S
O44 Mg40 1.986 . S
O44 C61 1.307 . S
O45 Mg34 2.023 . S
O45 C60 1.264 . S
O46 Mg35 1.942 . S
O46 C51 1.244 . S
O47 Mg35 1.955 . S
O47 C60 1.273 . S
O48 Mg37 2.114 . S
O48 Mg39 2.291 . S
O48 C50 1.312 . S
O49 Mg34 2.031 . S
O49 C50 1.208 . S
C50 O48 1.312 . S
C50 O49 1.208 . S
C51 O43 1.331 . S
C51 O46 1.244 . S
O52 Mg37 2.013 . S
O52 C41 1.191 . S
O53 C32 1.331 . S
O53 Mg39 2.081 . S
O54 Mg35 1.986 . S
O54 C41 1.307 . S
O55 C33 1.264 . S
O55 Mg39 2.023 . S
O56 C32 1.244 . S
O56 Mg40 1.942 . S
O57 C33 1.273 . S
O57 Mg40 1.955 . S
O58 C31 1.312 . S
O58 Mg34 2.291 . S
O58 Mg37 2.114 . S
O59 C31 1.208 . S
O59 Mg39 2.031 . S
C60 O45 1.264 . S
C60 O47 1.273 . S
C61 O42 1.191 . S
C61 O44 1.307 . S
C62 O89 1.312 . S
C62 O90 1.208 . S
C63 O84 1.331 1_554 S
C63 O87 1.244 1_554 S
C64 O86 1.264 . S
C64 O88 1.273 . S
Mg65 O67 1.936 1_545 S
Mg65 O74 2.081 . S
Mg65 O76 2.023 . S
Mg65 O80 2.031 1_545 S
Mg65 O89 2.291 1_545 S
Mg66 O67 1.963 1_545 S
Mg66 O77 1.942 . S
Mg66 O78 1.955 . S
Mg66 O85 1.986 1_545 S
O67 Mg65 1.936 1_565 S
O67 Mg66 1.963 1_565 S
O67 Mg68 1.915 . S
Mg68 O67 1.915 . S
Mg68 O69 1.915 . S
Mg68 O73 2.013 . S
Mg68 O79 2.114 . S
Mg68 O83 2.013 . S
Mg68 O89 2.114 . S
O69 Mg68 1.915 . S
O69 Mg70 1.936 . S
O69 Mg71 1.963 . S
Mg70 O69 1.936 . S
Mg70 O79 2.291 . S
Mg70 O84 2.081 . S
Mg70 O86 2.023 . S
Mg70 O90 2.031 . S
Mg71 O69 1.963 . S
Mg71 O75 1.986 . S
Mg71 O87 1.942 . S
Mg71 O88 1.955 . S
C72 O83 1.191 . S
C72 O85 1.307 . S
O73 Mg68 2.013 . S
O73 C92 1.191 . S
O74 Mg65 2.081 . S
O74 C82 1.331 . S
O75 Mg71 1.986 . S
O75 C92 1.307 . S
O76 Mg65 2.023 . S
O76 C91 1.264 . S
O77 Mg66 1.942 . S
O77 C82 1.244 . S
O78 Mg66 1.955 . S
O78 C91 1.273 . S
O79 Mg68 2.114 . S
O79 Mg70 2.291 . S
O79 C81 1.312 . S
O80 Mg65 2.031 1_565 S
O80 C81 1.208 . S
C81 O79 1.312 . S
C81 O80 1.208 . S
C82 O74 1.331 . S
C82 O77 1.244 . S
O83 Mg68 2.013 . S
O83 C72 1.191 . S
O84 C63 1.331 1_556 S
O84 Mg70 2.081 . S
O85 Mg66 1.986 1_565 S
O85 C72 1.307 . S
O86 C64 1.264 . S
O86 Mg70 2.023 . S
O87 C63 1.244 1_556 S
O87 Mg71 1.942 . S
O88 C64 1.273 . S
O88 Mg71 1.955 . S
O89 C62 1.312 . S
O89 Mg65 2.291 1_565 S
O89 Mg68 2.114 . S
O90 C62 1.208 . S
O90 Mg70 2.031 . S
C91 O76 1.264 . S
C91 O78 1.273 . S
C92 O73 1.191 . S
C92 O75 1.307 . S
C93 O120 1.312 . S
C93 O121 1.208 . S
C94 O115 1.331 . S
C94 O118 1.244 . S
C95 O117 1.264 . S
C95 O119 1.273 . S
Mg96 O98 1.936 . S
Mg96 O105 2.081 . S
Mg96 O107 2.023 . S
Mg96 O111 2.031 . S
Mg96 O120 2.291 . S
Mg97 O98 1.963 . S
Mg97 O108 1.942 . S
Mg97 O109 1.955 . S
Mg97 O116 1.986 . S
O98 Mg96 1.936 . S
O98 Mg97 1.963 . S
O98 Mg99 1.915 . S
Mg99 O98 1.915 . S
Mg99 O100 1.915 . S
Mg99 O104 2.013 . S
Mg99 O110 2.114 . S
Mg99 O114 2.013 . S
Mg99 O120 2.114 . S
O100 Mg99 1.915 . S
O100 Mg101 1.936 . S
O100 Mg102 1.963 . S
Mg101 O100 1.936 . S
Mg101 O110 2.291 . S
Mg101 O115 2.081 . S
Mg101 O117 2.023 . S
Mg101 O121 2.031 . S
Mg102 O100 1.963 . S
Mg102 O106 1.986 . S
Mg102 O118 1.942 . S
Mg102 O119 1.955 . S
C103 O114 1.191 . S
C103 O116 1.307 . S
O104 Mg99 2.013 . S
O104 C123 1.191 . S
O105 Mg96 2.081 . S
O105 C113 1.331 . S
O106 Mg102 1.986 . S
O106 C123 1.307 . S
O107 Mg96 2.023 . S
O107 C122 1.264 . S
O108 Mg97 1.942 . S
O108 C113 1.244 . S
O109 Mg97 1.955 . S
O109 C122 1.273 . S
O110 Mg99 2.114 . S
O110 Mg101 2.291 . S
O110 C112 1.312 . S
O111 Mg96 2.031 . S
O111 C112 1.208 . S
C112 O110 1.312 . S
C112 O111 1.208 . S
C113 O105 1.331 . S
C113 O108 1.244 . S
O114 Mg99 2.013 . S
O114 C103 1.191 . S
O115 C94 1.331 . S
O115 Mg101 2.081 . S
O116 Mg97 1.986 . S
O116 C103 1.307 . S
O117 C95 1.264 . S
O117 Mg101 2.023 . S
O118 C94 1.244 . S
O118 Mg102 1.942 . S
O119 C95 1.273 . S
O119 Mg102 1.955 . S
O120 C93 1.312 . S
O120 Mg96 2.291 . S
O120 Mg99 2.114 . S
O121 C93 1.208 . S
O121 Mg101 2.031 . S
C122 O107 1.264 . S
C122 O109 1.273 . S
C123 O104 1.191 . S
C123 O106 1.307 . S
H124 C132 0.950 . S
H125 C137 0.950 . S
H126 C134 0.950 . S
H127 C136 0.950 . S
H128 C138 0.950 . S
H129 C140 0.950 . S
H130 C142 0.950 . S
H131 C143 0.950 . S
C132 H124 0.950 . S
C132 C133 1.386 . S
C132 C134 1.391 . S
C133 C132 1.386 . S
C133 C137 1.393 . S
C134 H126 0.950 . S
C134 C132 1.391 . S
C134 C135 1.400 . S
C135 C134 1.400 . S
C135 C136 1.398 . S
C135 C141 1.491 . S
C136 H127 0.950 . S
C136 C135 1.398 . S
C136 C137 1.391 . S
C137 H125 0.950 . S
C137 C133 1.393 . S
C137 C136 1.391 . S
C138 H128 0.950 . S
C138 C139 1.386 . S
C138 C140 1.391 . S
C139 C138 1.386 . S
C139 C143 1.393 . S
C140 H129 0.950 . S
C140 C138 1.391 . S
C140 C141 1.400 . S
C141 C135 1.491 . S
C141 C140 1.400 . S
C141 C142 1.398 . S
C142 H130 0.950 . S
C142 C141 1.398 . S
C142 C143 1.391 . S
C143 H131 0.950 . S
C143 C139 1.393 . S
C143 C142 1.391 . S
H144 C152 0.950 . S
H145 C157 0.950 . S
H146 C154 0.950 . S
H147 C156 0.950 . S
H148 C158 0.950 . S
H149 C160 0.950 . S
H150 C162 0.950 . S
H151 C163 0.950 . S
C152 H144 0.950 . S
C152 C153 1.386 . S
C152 C154 1.391 1_565 S
C153 C152 1.386 . S
C153 C157 1.393 . S
C154 H146 0.950 . S
C154 C152 1.391 1_545 S
C154 C155 1.400 . S
C155 C154 1.400 . S
C155 C156 1.398 . S
C155 C161 1.491 . S
C156 H147 0.950 . S
C156 C155 1.398 . S
C156 C157 1.391 1_545 S
C157 H145 0.950 . S
C157 C153 1.393 . S
C157 C156 1.391 1_565 S
C158 H148 0.950 . S
C158 C159 1.386 . S
C158 C160 1.391 . S
C159 C158 1.386 . S
C159 C163 1.393 . S
C160 H149 0.950 . S
C160 C158 1.391 . S
C160 C161 1.400 . S
C161 C155 1.491 . S
C161 C160 1.400 . S
C161 C162 1.398 . S
C162 H150 0.950 . S
C162 C161 1.398 . S
C162 C163 1.391 . S
C163 H151 0.950 . S
C163 C159 1.393 . S
C163 C162 1.391 . S
H164 C172 0.950 . S
H165 C177 0.950 . S
H166 C174 0.950 . S
H167 C176 0.950 . S
H168 C178 0.950 . S
H169 C180 0.950 . S
H170 C182 0.950 . S
H171 C183 0.950 . S
C172 H164 0.950 . S
C172 C173 1.386 . S
C172 C174 1.391 . S
C173 C172 1.386 . S
C173 C177 1.393 . S
C174 H166 0.950 . S
C174 C172 1.391 . S
C174 C175 1.400 . S
C175 C174 1.400 . S
C175 C176 1.398 . S
C175 C181 1.491 . S
C176 H167 0.950 . S
C176 C175 1.398 . S
C176 C177 1.391 . S
C177 H165 0.950 . S
C177 C173 1.393 . S
C177 C176 1.391 . S
C178 H168 0.950 . S
C178 C179 1.386 . S
C178 C180 1.391 . S
C179 C178 1.386 . S
C179 C183 1.393 . S
C180 H169 0.950 . S
C180 C178 1.391 . S
C180 C181 1.400 . S
C181 C175 1.491 . S
C181 C180 1.400 . S
C181 C182 1.398 . S
C182 H170 0.950 . S
C182 C181 1.398 . S
C182 C183 1.391 . S
C183 H171 0.950 . S
C183 C179 1.393 . S
C183 C182 1.391 . S
H184 C192 0.950 . S
H185 C197 0.950 . S
H186 C194 0.950 . S
H187 C196 0.950 . S
H188 C198 0.950 . S
H189 C200 0.950 . S
H190 C202 0.950 . S
H191 C203 0.950 . S
C192 H184 0.950 . S
C192 C193 1.386 . S
C192 C194 1.391 1_545 S
C193 C192 1.386 . S
C193 C197 1.393 . S
C194 H186 0.950 . S
C194 C192 1.391 1_565 S
C194 C195 1.400 . S
C195 C194 1.400 . S
C195 C196 1.398 . S
C195 C201 1.491 . S
C196 H187 0.950 . S
C196 C195 1.398 . S
C196 C197 1.391 1_565 S
C197 H185 0.950 . S
C197 C193 1.393 . S
C197 C196 1.391 1_545 S
C198 H188 0.950 . S
C198 C199 1.386 . S
C198 C200 1.391 . S
C199 C198 1.386 . S
C199 C203 1.393 . S
C200 H189 0.950 . S
C200 C198 1.391 . S
C200 C201 1.400 . S
C201 C195 1.491 . S
C201 C200 1.400 . S
C201 C202 1.398 . S
C202 H190 0.950 . S
C202 C201 1.398 . S
C202 C203 1.391 . S
C203 H191 0.950 . S
C203 C199 1.393 . S
C203 C202 1.391 . S
H204 C212 0.950 . S
H205 C217 0.950 . S
H206 C214 0.950 . S
H207 C216 0.950 . S
H208 C218 0.950 . S
H209 C220 0.950 . S
H210 C222 0.950 . S
H211 C223 0.950 . S
C212 H204 0.950 . S
C212 C213 1.386 . S
C212 C214 1.391 . S
C213 C212 1.386 . S
C213 C217 1.393 . S
C214 H206 0.950 . S
C214 C212 1.391 . S
C214 C215 1.400 . S
C215 C214 1.400 . S
C215 C216 1.398 . S
C215 C221 1.491 . S
C216 H207 0.950 . S
C216 C215 1.398 . S
C216 C217 1.391 . S
C217 H205 0.950 . S
C217 C213 1.393 . S
C217 C216 1.391 . S
C218 H208 0.950 . S
C218 C219 1.386 . S
C218 C220 1.391 . S
C219 C218 1.386 . S
C219 C223 1.393 . S
C220 H209 0.950 . S
C220 C218 1.391 . S
C220 C221 1.400 . S
C221 C215 1.491 . S
C221 C220 1.400 . S
C221 C222 1.398 . S
C222 H210 0.950 . S
C222 C221 1.398 . S
C222 C223 1.391 . S
C223 H211 0.950 . S
C223 C219 1.393 . S
C223 C222 1.391 . S
H224 C232 0.950 . S
H225 C237 0.950 . S
H226 C234 0.950 . S
H227 C236 0.950 . S
H228 C238 0.950 . S
H229 C240 0.950 . S
H230 C242 0.950 . S
H231 C243 0.950 . S
C232 H224 0.950 . S
C232 C233 1.386 . S
C232 C234 1.391 . S
C233 C232 1.386 . S
C233 C237 1.393 . S
C234 H226 0.950 . S
C234 C232 1.391 . S
C234 C235 1.400 . S
C235 C234 1.400 . S
C235 C236 1.398 . S
C235 C241 1.491 . S
C236 H227 0.950 . S
C236 C235 1.398 . S
C236 C237 1.391 . S
C237 H225 0.950 . S
C237 C233 1.393 . S
C237 C236 1.391 . S
C238 H228 0.950 . S
C238 C239 1.386 . S
C238 C240 1.391 . S
C239 C238 1.386 . S
C239 C243 1.393 . S
C240 H229 0.950 . S
C240 C238 1.391 . S
C240 C241 1.400 . S
C241 C235 1.491 . S
C241 C240 1.400 . S
C241 C242 1.398 . S
C242 H230 0.950 . S
C242 C241 1.398 . S
C242 C243 1.391 . S
C243 H231 0.950 . S
C243 C239 1.393 . S
C243 C242 1.391 . S
H244 C252 0.950 . S
H245 C257 0.950 . S
H246 C254 0.950 . S
H247 C256 0.950 . S
H248 C258 0.950 . S
H249 C260 0.950 . S
H250 C262 0.950 . S
H251 C263 0.950 . S
C252 H244 0.950 . S
C252 C253 1.386 . S
C252 C254 1.391 . S
C253 C252 1.386 . S
C253 C257 1.393 . S
C254 H246 0.950 . S
C254 C252 1.391 . S
C254 C255 1.400 . S
C255 C254 1.400 . S
C255 C256 1.398 . S
C255 C261 1.491 . S
C256 H247 0.950 . S
C256 C255 1.398 . S
C256 C257 1.391 . S
C257 H245 0.950 . S
C257 C253 1.393 . S
C257 C256 1.391 . S
C258 H248 0.950 . S
C258 C259 1.386 . S
C258 C260 1.391 . S
C259 C258 1.386 . S
C259 C263 1.393 . S
C260 H249 0.950 . S
C260 C258 1.391 . S
C260 C261 1.400 . S
C261 C255 1.491 . S
C261 C260 1.400 . S
C261 C262 1.398 . S
C262 H250 0.950 . S
C262 C261 1.398 . S
C262 C263 1.391 . S
C263 H251 0.950 . S
C263 C259 1.393 . S
C263 C262 1.391 . S
H264 C272 0.950 . S
H265 C277 0.950 . S
H266 C274 0.950 . S
H267 C276 0.950 . S
H268 C278 0.950 . S
H269 C280 0.950 . S
H270 C282 0.950 . S
H271 C283 0.950 . S
C272 H264 0.950 . S
C272 C273 1.386 . S
C272 C274 1.391 . S
C273 C272 1.386 . S
C273 C277 1.393 . S
C274 H266 0.950 . S
C274 C272 1.391 . S
C274 C275 1.400 . S
C275 C274 1.400 . S
C275 C276 1.398 . S
C275 C281 1.491 . S
C276 H267 0.950 . S
C276 C275 1.398 . S
C276 C277 1.391 . S
C277 H265 0.950 . S
C277 C273 1.393 . S
C277 C276 1.391 . S
C278 H268 0.950 . S
C278 C279 1.386 . S
C278 C280 1.391 . S
C279 C278 1.386 . S
C279 C283 1.393 . S
C280 H269 0.950 . S
C280 C278 1.391 . S
C280 C281 1.400 . S
C281 C275 1.491 . S
C281 C280 1.400 . S
C281 C282 1.398 . S
C282 H270 0.950 . S
C282 C281 1.398 . S
C282 C283 1.391 . S
C283 H271 0.950 . S
C283 C279 1.393 . S
C283 C282 1.391 . S
H284 C292 0.950 . S
H285 C297 0.950 . S
H286 C294 0.950 . S
H287 C296 0.950 . S
H288 C298 0.950 . S
H289 C300 0.950 . S
H290 C302 0.950 . S
H291 C303 0.950 . S
C292 H284 0.950 . S
C292 C293 1.386 1_565 S
C292 C294 1.391 . S
C293 C292 1.386 1_545 S
C293 C297 1.393 . S
C294 H286 0.950 . S
C294 C292 1.391 . S
C294 C295 1.400 1_565 S
C295 C294 1.400 1_545 S
C295 C296 1.398 . S
C295 C301 1.491 1_444 S
C296 H287 0.950 . S
C296 C295 1.398 . S
C296 C297 1.391 . S
C297 H285 0.950 . S
C297 C293 1.393 . S
C297 C296 1.391 . S
C298 H288 0.950 . S
C298 C299 1.386 1_545 S
C298 C300 1.391 . S
C299 C298 1.386 1_565 S
C299 C303 1.393 . S
C300 H289 0.950 . S
C300 C298 1.391 . S
C300 C301 1.400 1_545 S
C301 C295 1.491 1_666 S
C301 C300 1.400 1_565 S
C301 C302 1.398 . S
C302 H290 0.950 . S
C302 C301 1.398 . S
C302 C303 1.391 . S
C303 H291 0.950 . S
C303 C299 1.393 . S
C303 C302 1.391 . S
H304 C312 0.950 . S
H305 C317 0.950 . S
H306 C314 0.950 . S
H307 C316 0.950 . S
H308 C318 0.950 . S
H309 C320 0.950 . S
H310 C322 0.950 . S
H311 C323 0.950 . S
C312 H304 0.950 . S
C312 C313 1.386 . S
C312 C314 1.391 . S
C313 C312 1.386 . S
C313 C317 1.393 . S
C314 H306 0.950 . S
C314 C312 1.391 . S
C314 C315 1.400 . S
C315 C314 1.400 . S
C315 C316 1.398 . S
C315 C321 1.491 1_455 S
C316 H307 0.950 . S
C316 C315 1.398 . S
C316 C317 1.391 . S
C317 H305 0.950 . S
C317 C313 1.393 . S
C317 C316 1.391 . S
C318 H308 0.950 . S
C318 C319 1.386 . S
C318 C320 1.391 . S
C319 C318 1.386 . S
C319 C323 1.393 . S
C320 H309 0.950 . S
C320 C318 1.391 . S
C320 C321 1.400 . S
C321 C315 1.491 1_655 S
C321 C320 1.400 . S
C321 C322 1.398 . S
C322 H310 0.950 . S
C322 C321 1.398 . S
C322 C323 1.391 . S
C323 H311 0.950 . S
C323 C319 1.393 . S
C323 C322 1.391 . S
H324 C332 0.950 . S
H325 C337 0.950 . S
H326 C334 0.950 . S
H327 C336 0.950 . S
H328 C338 0.950 . S
H329 C340 0.950 . S
H330 C342 0.950 . S
H331 C343 0.950 . S
C332 H324 0.950 . S
C332 C333 1.386 1_565 S
C332 C334 1.391 . S
C333 C332 1.386 1_545 S
C333 C337 1.393 1_554 S
C334 H326 0.950 . S
C334 C332 1.391 . S
C334 C335 1.400 1_565 S
C335 C334 1.400 1_545 S
C335 C336 1.398 1_554 S
C335 C341 1.491 1_544 S
C336 H327 0.950 . S
C336 C335 1.398 1_556 S
C336 C337 1.391 . S
C337 H325 0.950 . S
C337 C333 1.393 1_556 S
C337 C336 1.391 . S
C338 H328 0.950 . S
C338 C339 1.386 1_545 S
C338 C340 1.391 . S
C339 C338 1.386 1_565 S
C339 C343 1.393 1_556 S
C340 H329 0.950 . S
C340 C338 1.391 . S
C340 C341 1.400 1_545 S
C341 C335 1.491 1_566 S
C341 C340 1.400 1_565 S
C341 C342 1.398 1_556 S
C342 H330 0.950 . S
C342 C341 1.398 1_554 S
C342 C343 1.391 . S
C343 H331 0.950 . S
C343 C339 1.393 1_554 S
C343 C342 1.391 . S
H344 C352 0.950 . S
H345 C357 0.950 . S
H346 C354 0.950 . S
H347 C356 0.950 . S
H348 C358 0.950 . S
H349 C360 0.950 . S
H350 C362 0.950 . S
H351 C363 0.950 . S
C352 H344 0.950 . S
C352 C353 1.386 . S
C352 C354 1.391 . S
C353 C352 1.386 . S
C353 C357 1.393 . S
C354 H346 0.950 . S
C354 C352 1.391 . S
C354 C355 1.400 . S
C355 C354 1.400 . S
C355 C356 1.398 . S
C355 C361 1.491 . S
C356 H347 0.950 . S
C356 C355 1.398 . S
C356 C357 1.391 . S
C357 H345 0.950 . S
C357 C353 1.393 . S
C357 C356 1.391 . S
C358 H348 0.950 . S
C358 C359 1.386 . S
C358 C360 1.391 . S
C359 C358 1.386 . S
C359 C363 1.393 . S
C360 H349 0.950 . S
C360 C358 1.391 . S
C360 C361 1.400 . S
C361 C355 1.491 . S
C361 C360 1.400 . S
C361 C362 1.398 . S
C362 H350 0.950 . S
C362 C361 1.398 . S
C362 C363 1.391 . S
C363 H351 0.950 . S
C363 C359 1.393 . S
C363 C362 1.391 . S
H364 C372 0.950 . S
H365 C377 0.950 . S
H366 C374 0.950 . S
H367 C376 0.950 . S
H368 C378 0.950 . S
H369 C380 0.950 . S
H370 C382 0.950 . S
H371 C383 0.950 . S
C372 H364 0.950 . S
C372 C373 1.386 . S
C372 C374 1.391 . S
C373 C372 1.386 . S
C373 C377 1.393 . S
C374 H366 0.950 . S
C374 C372 1.391 . S
C374 C375 1.400 . S
C375 C374 1.400 . S
C375 C376 1.398 . S
C375 C381 1.491 . S
C376 H367 0.950 . S
C376 C375 1.398 . S
C376 C377 1.391 . S
C377 H365 0.950 . S
C377 C373 1.393 . S
C377 C376 1.391 . S
C378 H368 0.950 . S
C378 C379 1.386 . S
C378 C380 1.391 . S
C379 C378 1.386 . S
C379 C383 1.393 . S
C380 H369 0.950 . S
C380 C378 1.391 . S
C380 C381 1.400 . S
C381 C375 1.491 . S
C381 C380 1.400 . S
C381 C382 1.398 . S
C382 H370 0.950 . S
C382 C381 1.398 . S
C382 C383 1.391 . S
C383 H371 0.950 . S
C383 C379 1.393 . S
C383 C382 1.391 . S
H384 C392 0.950 . S
H385 C397 0.950 . S
H386 C394 0.950 . S
H387 C396 0.950 . S
H388 C398 0.950 . S
H389 C400 0.950 . S
H390 C402 0.950 . S
H391 C403 0.950 . S
C392 H384 0.950 . S
C392 C393 1.386 . S
C392 C394 1.391 . S
C393 C392 1.386 . S
C393 C397 1.393 . S
C394 H386 0.950 . S
C394 C392 1.391 . S
C394 C395 1.400 . S
C395 C394 1.400 . S
C395 C396 1.398 . S
C395 C401 1.491 . S
C396 H387 0.950 . S
C396 C395 1.398 . S
C396 C397 1.391 . S
C397 H385 0.950 . S
C397 C393 1.393 . S
C397 C396 1.391 . S
C398 H388 0.950 . S
C398 C399 1.386 . S
C398 C400 1.391 . S
C399 C398 1.386 . S
C399 C403 1.393 . S
C400 H389 0.950 . S
C400 C398 1.391 . S
C400 C401 1.400 . S
C401 C395 1.491 . S
C401 C400 1.400 . S
C401 C402 1.398 . S
C402 H390 0.950 . S
C402 C401 1.398 . S
C402 C403 1.391 . S
C403 H391 0.950 . S
C403 C399 1.393 . S
C403 C402 1.391 . S
H404 C412 0.950 . S
H405 C417 0.950 . S
H406 C414 0.950 . S
H407 C416 0.950 . S
H408 C418 0.950 . S
H409 C420 0.950 . S
H410 C422 0.950 . S
H411 C423 0.950 . S
C412 H404 0.950 . S
C412 C413 1.386 . S
C412 C414 1.391 . S
C413 C412 1.386 . S
C413 C417 1.393 . S
C414 H406 0.950 . S
C414 C412 1.391 . S
C414 C415 1.400 . S
C415 C414 1.400 . S
C415 C416 1.398 . S
C415 C421 1.491 . S
C416 H407 0.950 . S
C416 C415 1.398 . S
C416 C417 1.391 . S
C417 H405 0.950 . S
C417 C413 1.393 . S
C417 C416 1.391 . S
C418 H408 0.950 . S
C418 C419 1.386 . S
C418 C420 1.391 . S
C419 C418 1.386 . S
C419 C423 1.393 . S
C420 H409 0.950 . S
C420 C418 1.391 . S
C420 C421 1.400 . S
C421 C415 1.491 . S
C421 C420 1.400 . S
C421 C422 1.398 . S
C422 H410 0.950 . S
C422 C421 1.398 . S
C422 C423 1.391 . S
C423 H411 0.950 . S
C423 C419 1.393 . S
C423 C422 1.391 . S
H424 C432 0.950 . S
H425 C437 0.950 . S
H426 C434 0.950 . S
H427 C436 0.950 . S
H428 C438 0.950 . S
H429 C440 0.950 . S
H430 C442 0.950 . S
H431 C443 0.950 . S
C432 H424 0.950 . S
C432 C433 1.386 . S
C432 C434 1.391 . S
C433 C432 1.386 . S
C433 C437 1.393 . S
C434 H426 0.950 . S
C434 C432 1.391 . S
C434 C435 1.400 . S
C435 C434 1.400 . S
C435 C436 1.398 . S
C435 C441 1.491 . S
C436 H427 0.950 . S
C436 C435 1.398 . S
C436 C437 1.391 . S
C437 H425 0.950 . S
C437 C433 1.393 . S
C437 C436 1.391 . S
C438 H428 0.950 . S
C438 C439 1.386 . S
C438 C440 1.391 . S
C439 C438 1.386 . S
C439 C443 1.393 . S
C440 H429 0.950 . S
C440 C438 1.391 . S
C440 C441 1.400 . S
C441 C435 1.491 . S
C441 C440 1.400 . S
C441 C442 1.398 . S
C442 H430 0.950 . S
C442 C441 1.398 . S
C442 C443 1.391 . S
C443 H431 0.950 . S
C443 C439 1.393 . S
C443 C442 1.391 . S
C133 C1 1.114 . S
C139 C20 1.117 . S
C153 C33 1.636 . S
C159 C60 1.640 . S
C173 C64 1.643 . S
C179 C91 1.647 . S
C193 C122 1.626 . S
C199 C95 1.631 . S
C213 C50 1.201 . S
C219 C29 1.059 . S
C233 C51 0.922 . S
C239 C30 0.968 . S
C253 C93 1.040 . S
C259 C82 0.944 . S
C273 C81 1.064 . S
C279 C94 0.981 . S
C293 C19 1.197 . S
C299 C92 1.181 . S
C313 C103 1.156 . S
C319 C61 1.156 . S
C333 C10 1.035 . S
C339 C62 1.041 . S
C353 C112 1.050 . S
C359 C31 1.051 . S
C373 C123 1.948 . S
C379 C2 2.015 1_556 S
C393 C72 1.754 . S
C399 C32 1.833 . S
C413 C41 1.723 . S
C419 C63 1.793 . S
C433 C113 1.931 . S
C439 C0 1.952 . S
