# Generated by pormake.
# Topology smt, (6)-cn, num edge types: 1
# Building blocks:
#     Node 0, Type 0, BuildingBlock: CIFDUS_clean_sbu_1, # of connection points: 6
#     Node 1, Type 0, BuildingBlock: CIFDUS_clean_sbu_1, # of connection points: 6
#     Node 2, Type 0, BuildingBlock: CIFDUS_clean_sbu_1, # of connection points: 6
#     Node 3, Type 0, BuildingBlock: CIFDUS_clean_sbu_1, # of connection points: 6
#     Node 4, Type 0, BuildingBlock: CIFDUS_clean_sbu_1, # of connection points: 6
#     Node 5, Type 0, BuildingBlock: CIFDUS_clean_sbu_1, # of connection points: 6
#     Edge 6, Type (0, 0), BuildingBlock: EZIPEK_clean_linker_0, # of connection points: 2
#     Edge 7, Type (0, 0), BuildingBlock: EZIPEK_clean_linker_0, # of connection points: 2
#     Edge 8, Type (0, 0), BuildingBlock: EZIPEK_clean_linker_0, # of connection points: 2
#     Edge 9, Type (0, 0), BuildingBlock: EZIPEK_clean_linker_0, # of connection points: 2
#     Edge 10, Type (0, 0), BuildingBlock: EZIPEK_clean_linker_0, # of connection points: 2
#     Edge 11, Type (0, 0), BuildingBlock: EZIPEK_clean_linker_0, # of connection points: 2
#     Edge 12, Type (0, 0), BuildingBlock: EZIPEK_clean_linker_0, # of connection points: 2
#     Edge 13, Type (0, 0), BuildingBlock: EZIPEK_clean_linker_0, # of connection points: 2
#     Edge 14, Type (0, 0), BuildingBlock: EZIPEK_clean_linker_0, # of connection points: 2
#     Edge 15, Type (0, 0), BuildingBlock: EZIPEK_clean_linker_0, # of connection points: 2
#     Edge 16, Type (0, 0), BuildingBlock: EZIPEK_clean_linker_0, # of connection points: 2
#     Edge 17, Type (0, 0), BuildingBlock: EZIPEK_clean_linker_0, # of connection points: 2
#     Edge 18, Type (0, 0), BuildingBlock: EZIPEK_clean_linker_0, # of connection points: 2
#     Edge 19, Type (0, 0), BuildingBlock: EZIPEK_clean_linker_0, # of connection points: 2
#     Edge 20, Type (0, 0), BuildingBlock: EZIPEK_clean_linker_0, # of connection points: 2
#     Edge 21, Type (0, 0), BuildingBlock: EZIPEK_clean_linker_0, # of connection points: 2
#     Edge 22, Type (0, 0), BuildingBlock: EZIPEK_clean_linker_0, # of connection points: 2
#     Edge 23, Type (0, 0), BuildingBlock: EZIPEK_clean_linker_0, # of connection points: 2
# Relax obj value: 0.311
# Max RMSD: 0.271
# Mean RMSD: 0.271
data_MOF--net-smt--node1-CIFDUS_clean_sbu_1--edge1-EZIPEK_clean_linker_0
_symmetry_space_group_name_H-M    P1
_symmetry_Int_Tables_number       1
_symmetry_cell_setting            triclinic
loop_
_symmetry_equiv_pos_as_xyz
'x, y, z'
_cell_length_a     26.684401
_cell_length_b     26.627294
_cell_length_c     17.185405
_cell_angle_alpha  90.097012
_cell_angle_beta   89.953623
_cell_angle_gamma 120.05687
loop_
_atom_site_label
_atom_site_type_symbol
_atom_site_fract_x
_atom_site_fract_y
_atom_site_fract_z
_atom_type_partial_charge
O0 O 0.44426 0.16525 0.90695 0.0
Mn1 Mn 0.44847 0.11128 0.99396 0.0
O2 O 0.53035 0.22837 0.93481 0.0
Mn3 Mn 0.54428 0.16857 0.91639 0.0
O4 O 0.45026 0.05777 0.08352 0.0
O5 O 0.39582 0.13383 0.05465 0.0
Mn6 Mn 0.34844 0.07078 0.10748 0.0
O7 O 0.37462 0.03929 0.94479 0.0
O8 O 0.39491 0.06252 0.17805 0.0
O9 O 0.52725 0.17347 0.0553 0.0
O10 O 0.59893 0.17863 0.98197 0.0
O11 O 0.32384 0.12148 0.13078 0.0
O12 O 0.30823 0.00789 0.04062 0.0
C13 C 0.51183 0.09543 0.84937 0.0
C14 C 0.48357 0.21811 0.90687 0.0
C15 C 0.43337 0.05134 0.15501 0.0
C16 C 0.3668 0.15616 0.08688 0.0
C17 C 0.32575 0.00107 0.97452 0.0
C18 C 0.58023 0.18284 0.04776 0.0
O19 O 0.49832 0.09045 0.92382 0.0
O20 O 0.53434 0.14624 0.81761 0.0
O21 O 0.32612 0.38032 0.11683 0.0
Mn22 Mn 0.33488 0.45603 0.16799 0.0
O23 O 0.30392 0.32088 0.22033 0.0
Mn24 Mn 0.27834 0.35839 0.28913 0.0
O25 O 0.3545 0.53581 0.22614 0.0
O26 O 0.4024 0.50207 0.09177 0.0
Mn27 Mn 0.38425 0.55778 0.07466 0.0
O28 O 0.27225 0.45717 0.09603 0.0
O29 O 0.42968 0.59952 0.15449 0.0
O30 O 0.3932 0.45434 0.25071 0.0
O31 O 0.33474 0.41283 0.35212 0.0
O32 O 0.38192 0.52664 0.98007 0.0
O33 O 0.31406 0.5511 0.09357 0.0
C34 C 0.21127 0.37664 0.25715 0.0
C35 C 0.32178 0.33491 0.1502 0.0
C36 C 0.40166 0.586 0.21817 0.0
C37 C 0.40708 0.50329 0.01617 0.0
C38 C 0.26851 0.50298 0.09351 0.0
C39 C 0.38525 0.44424 0.32459 0.0
O40 O 0.26453 0.40503 0.2336 0.0
O41 O 0.20097 0.33482 0.30432 0.0
O42 O 0.818 0.29583 0.26037 0.0
Mn43 Mn 0.88936 0.34959 0.33066 0.0
O44 O 0.7999 0.35275 0.18239 0.0
Mn45 Mn 0.85109 0.42068 0.22981 0.0
O46 O 0.95562 0.40376 0.41101 0.0
O47 O 0.86218 0.27716 0.3999 0.0
Mn48 Mn 0.93155 0.29319 0.43664 0.0
O49 O 0.94619 0.33232 0.26788 0.0
O50 O 0.9355 0.344 0.51072 0.0
O51 O 0.84062 0.37748 0.3958 0.0
O52 O 0.82464 0.43622 0.31845 0.0
O53 O 0.88996 0.21494 0.42856 0.0
O54 O 0.99457 0.32654 0.36871 0.0
C55 C 0.94032 0.45775 0.20775 0.0
C56 C 0.78797 0.3034 0.20812 0.0
C57 C 0.95583 0.39525 0.48516 0.0
C58 C 0.85042 0.22311 0.39803 0.0
C59 C 0.99213 0.33619 0.29709 0.0
C60 C 0.82628 0.41676 0.38511 0.0
O61 O 0.91234 0.41626 0.25695 0.0
O62 O 0.91053 0.47842 0.17551 0.0
O63 O 0.62277 0.96098 0.45256 0.0
Mn64 Mn 0.54716 0.88906 0.49954 0.0
O65 O 0.69546 0.97791 0.53205 0.0
Mn66 Mn 0.64699 0.92514 0.60499 0.0
O67 O 0.46719 0.82647 0.55702 0.0
O68 O 0.50327 0.91843 0.42967 0.0
Mn69 Mn 0.4468 0.84408 0.41927 0.0
O70 O 0.54634 0.83282 0.41381 0.0
O71 O 0.40072 0.8394 0.49639 0.0
O72 O 0.54706 0.94273 0.58748 0.0
O73 O 0.61174 0.94984 0.67541 0.0
O74 O 0.45187 0.87072 0.32399 0.0
O75 O 0.45301 0.77872 0.41852 0.0
C76 C 0.62437 0.83944 0.60093 0.0
C77 C 0.67567 0.99282 0.4752 0.0
C78 C 0.41776 0.82561 0.55652 0.0
C79 C 0.48835 0.91938 0.3567 0.0
C80 C 0.50105 0.78367 0.40449 0.0
C81 C 0.56981 0.95645 0.65521 0.0
O82 O 0.59451 0.85855 0.56174 0.0
O83 O 0.66827 0.87641 0.64188 0.0
O84 O 0.72015 0.54474 0.59798 0.0
Mn85 Mn 0.6576 0.53959 0.67442 0.0
O86 O 0.67347 0.45953 0.53822 0.0
Mn87 Mn 0.60223 0.44652 0.56666 0.0
O88 O 0.59953 0.53529 0.76024 0.0
O89 O 0.72626 0.58132 0.74702 0.0
Mn90 Mn 0.721 0.63477 0.80042 0.0
O91 O 0.66597 0.61898 0.63852 0.0
O92 O 0.65514 0.59209 0.85929 0.0
O93 O 0.63975 0.45669 0.71901 0.0
O94 O 0.56902 0.39421 0.64286 0.0
O95 O 0.79174 0.64292 0.82601 0.0
O96 O 0.71687 0.68568 0.72967 0.0
C97 C 0.55679 0.48122 0.53006 0.0
C98 C 0.71974 0.50454 0.55725 0.0
C99 C 0.60657 0.55381 0.83123 0.0
C100 C 0.77796 0.60198 0.77553 0.0
C101 C 0.68518 0.66962 0.66889 0.0
C102 C 0.597 0.40498 0.70521 0.0
O103 O 0.59341 0.50687 0.58835 0.0
O104 O 0.55524 0.43835 0.49148 0.0
O105 O 0.04117 0.6461 0.78054 0.0
Mn106 Mn 0.11236 0.64772 0.83609 0.0
O107 O 0.00109 0.67178 0.87712 0.0
Mn108 Mn 0.06118 0.69754 0.94923 0.0
O109 O 0.17357 0.63616 0.90164 0.0
O110 O 0.09951 0.58016 0.76879 0.0
Mn111 Mn 0.17141 0.59137 0.7573 0.0
O112 O 0.17123 0.70492 0.75436 0.0
O113 O 0.17192 0.55858 0.84789 0.0
O114 O 0.05782 0.58898 0.91898 0.0
O115 O 0.05552 0.64175 0.0176 0.0
O116 O 0.13494 0.56388 0.6645 0.0
O117 O 0.22909 0.66767 0.7563 0.0
C118 C 0.14488 0.77086 0.93079 0.0
C119 C 0.9991 0.65102 0.80935 0.0
C120 C 0.17355 0.58731 0.90788 0.0
C121 C 0.09262 0.56725 0.69555 0.0
C122 C 0.21967 0.70813 0.73908 0.0
C123 C 0.05216 0.5955 0.99163 0.0
O124 O 0.12697 0.72021 0.89816 0.0
O125 O 0.10722 0.77414 0.97472 0.0
C126 C 0.2474 0.92854 0.88431 0.0
C127 C 0.29165 0.94156 0.93962 0.0
C128 C 0.2486 0.83743 0.96923 0.0
C129 C 0.20206 0.82465 0.91805 0.0
N130 N 0.16442 0.85436 0.81212 0.0
N131 N 0.34438 0.90807 0.01651 0.0
C132 C 0.20426 0.86923 0.87025 0.0
C133 C 0.29566 0.89561 0.97545 0.0
N134 N 0.2452 0.97306 0.8483 0.0
N135 N 0.2458 0.7945 0.01563 0.0
H136 H 0.3792 0.95025 0.02199 0.0
H137 H 0.3526 0.87661 0.0389 0.0
H138 H 0.21244 0.75153 0.01089 0.0
H139 H 0.27445 0.80169 0.06102 0.0
H140 H 0.21099 0.96762 0.81338 0.0
H141 H 0.27751 0.01628 0.85575 0.0
H142 H 0.16522 0.8835 0.7712 0.0
H143 H 0.13314 0.81122 0.8011 0.0
C144 C 0.32068 0.26441 0.04821 0.0
C145 C 0.34741 0.30178 0.11274 0.0
C146 C 0.4082 0.25743 0.13417 0.0
C147 C 0.37703 0.21603 0.07569 0.0
N148 N 0.3175 0.18971 0.96202 0.0
N149 N 0.42957 0.34698 0.19909 0.0
C150 C 0.33827 0.22339 0.0271 0.0
C151 C 0.39572 0.30267 0.14947 0.0
N152 N 0.27649 0.26588 0.01034 0.0
N153 N 0.44701 0.25086 0.17849 0.0
H154 H 0.42196 0.381 0.21036 0.0
H155 H 0.46809 0.3532 0.223 0.0
H156 H 0.45823 0.21938 0.16585 0.0
H157 H 0.46624 0.27462 0.22874 0.0
H158 H 0.25122 0.23635 0.96752 0.0
H159 H 0.26374 0.29604 0.02395 0.0
H160 H 0.29184 0.19442 0.92043 0.0
H161 H 0.33054 0.15996 0.94683 0.0
C162 C 0.09504 0.41416 0.28072 0.0
C163 C 0.04795 0.36115 0.2531 0.0
C164 C 0.11678 0.33902 0.1889 0.0
C165 C 0.16257 0.38476 0.2315 0.0
N166 N 0.19785 0.46991 0.31085 0.0
N167 N 0.01245 0.27994 0.16648 0.0
C168 C 0.1527 0.42483 0.27297 0.0
C169 C 0.05846 0.32636 0.20089 0.0
N170 N 0.0838 0.45326 0.3163 0.0
N171 N 0.12961 0.30643 0.14024 0.0
H172 H 0.97015 0.27167 0.17372 0.0
H173 H 0.01563 0.25036 0.13027 0.0
H174 H 0.17226 0.31608 0.13125 0.0
H175 H 0.09952 0.27263 0.1058 0.0
H176 H 0.11547 0.49457 0.33377 0.0
H177 H 0.04168 0.44556 0.32171 0.0
H178 H 0.19335 0.49709 0.35026 0.0
H179 H 0.24052 0.47924 0.30362 0.0
C180 C 0.77016 0.15887 0.48516 0.0
C181 C 0.79067 0.17269 0.40807 0.0
C182 C 0.72506 0.07058 0.36926 0.0
C183 C 0.71135 0.05519 0.44914 0.0
N184 N 0.72484 0.08669 0.58469 0.0
N185 N 0.782 0.14655 0.27385 0.0
C186 C 0.73443 0.1 0.50723 0.0
C187 C 0.76562 0.12988 0.34899 0.0
N188 N 0.78529 0.20268 0.53793 0.0
N189 N 0.7024 0.02803 0.31382 0.0
H190 H 0.81122 0.18968 0.25973 0.0
H191 H 0.76598 0.11939 0.22571 0.0
H192 H 0.67523 0.98439 0.32725 0.0
H193 H 0.70996 0.03512 0.25447 0.0
H194 H 0.76724 0.19656 0.59329 0.0
H195 H 0.81132 0.24632 0.52354 0.0
H196 H 0.74991 0.11514 0.6287 0.0
H197 H 0.69312 0.04699 0.60642 0.0
C198 C 0.63885 0.76069 0.54401 0.0
C199 C 0.61357 0.77894 0.60196 0.0
C200 C 0.63146 0.72348 0.70026 0.0
C201 C 0.65936 0.70614 0.64355 0.0
N202 N 0.68165 0.70169 0.50831 0.0
N203 N 0.56701 0.76136 0.72534 0.0
C204 C 0.65947 0.72174 0.56399 0.0
C205 C 0.60325 0.75407 0.6764 0.0
N206 N 0.64601 0.78356 0.47112 0.0
N207 N 0.63319 0.71305 0.77784 0.0
H208 H 0.54645 0.78418 0.70813 0.0
H209 H 0.55292 0.74012 0.77857 0.0
H210 H 0.64505 0.6844 0.80056 0.0
H211 H 0.6233 0.73419 0.82109 0.0
H212 H 0.66877 0.7773 0.42664 0.0
H213 H 0.62941 0.81031 0.45599 0.0
H214 H 0.67773 0.70613 0.44885 0.0
H215 H 0.70241 0.67843 0.52146 0.0
C216 C 0.89506 0.57217 0.81203 0.0
C217 C 0.94038 0.62073 0.77241 0.0
C218 C 0.86783 0.63209 0.69897 0.0
C219 C 0.82396 0.59028 0.74798 0.0
N220 N 0.7913 0.5076 0.82994 0.0
N221 N 0.97037 0.68563 0.6636 0.0
C222 C 0.83631 0.55531 0.79641 0.0
C223 C 0.92676 0.64636 0.70986 0.0
N224 N 0.90873 0.54485 0.86822 0.0
N225 N 0.853 0.66066 0.64621 0.0
H226 H 0.01337 0.69645 0.67201 0.0
H227 H 0.96401 0.70461 0.6146 0.0
H228 H 0.80991 0.64957 0.63766 0.0
H229 H 0.88238 0.6948 0.61165 0.0
H230 H 0.87889 0.51369 0.90595 0.0
H231 H 0.95119 0.55486 0.87823 0.0
H232 H 0.79574 0.47738 0.86305 0.0
H233 H 0.74848 0.49615 0.81844 0.0
C234 C 0.50937 0.04791 0.23909 0.0
C235 C 0.45132 0.02217 0.21223 0.0
C236 C 0.42262 0.95409 0.31881 0.0
C237 C 0.48066 0.96747 0.32852 0.0
N238 N 0.58137 0.03111 0.30091 0.0
N239 N 0.35207 0.9439 0.22382 0.0
C240 C 0.52504 0.01581 0.28957 0.0
C241 C 0.40753 0.97318 0.25146 0.0
N242 N 0.54757 0.10431 0.22289 0.0
N243 N 0.38215 0.92238 0.37353 0.0
H244 H 0.33966 0.95472 0.17182 0.0
H245 H 0.32018 0.90522 0.24851 0.0
H246 H 0.3943 0.91278 0.42641 0.0
H247 H 0.33948 0.91366 0.37071 0.0
H248 H 0.58887 0.12646 0.24731 0.0
H249 H 0.53407 0.13005 0.19466 0.0
H250 H 0.61523 0.06349 0.2686 0.0
H251 H 0.59297 0.00952 0.34125 0.0
C252 C 0.48704 0.51749 0.37675 0.0
C253 C 0.43381 0.46344 0.38187 0.0
C254 C 0.458 0.45369 0.51617 0.0
C255 C 0.51504 0.49797 0.50424 0.0
N256 N 0.58534 0.57543 0.4264 0.0
N257 N 0.38262 0.37117 0.4503 0.0
C258 C 0.52949 0.53207 0.4362 0.0
C259 C 0.42257 0.42913 0.45045 0.0
N260 N 0.49769 0.55477 0.31648 0.0
N261 N 0.44119 0.42963 0.5882 0.0
H262 H 0.36272 0.34839 0.39947 0.0
H263 H 0.37605 0.34434 0.49794 0.0
H264 H 0.4692 0.44609 0.63586 0.0
H265 H 0.39871 0.39767 0.60067 0.0
H266 H 0.53258 0.59706 0.31576 0.0
H267 H 0.47004 0.54557 0.26961 0.0
H268 H 0.60158 0.59796 0.37449 0.0
H269 H 0.6159 0.58644 0.47065 0.0
C270 C 0.01565 0.46915 0.67801 0.0
C271 C 0.03549 0.52772 0.66218 0.0
C272 C 0.9906 0.49957 0.53338 0.0
C273 C 0.98545 0.44375 0.54292 0.0
N274 N 0.01722 0.38828 0.62061 0.0
N275 N 0.03958 0.6004 0.57697 0.0
C276 C 0.00395 0.43149 0.61471 0.0
C277 C 0.02133 0.54332 0.59067 0.0
N278 N 0.01505 0.45134 0.75238 0.0
N279 N 0.96636 0.51124 0.47148 0.0
H280 H 0.05953 0.63174 0.62046 0.0
H281 H 0.03733 0.61666 0.52282 0.0
H282 H 0.94262 0.48113 0.42877 0.0
H283 H 0.96604 0.54997 0.46623 0.0
H284 H 0.99927 0.40788 0.76666 0.0
H285 H 0.02419 0.47947 0.79926 0.0
H286 H 0.0338 0.38085 0.6715 0.0
H287 H 0.021 0.36669 0.57225 0.0
C288 C 0.51431 0.9612 0.77111 0.0
C289 C 0.55301 0.98882 0.70801 0.0
C290 C 0.57885 0.08167 0.7632 0.0
C291 C 0.52901 0.05586 0.81165 0.0
N292 N 0.44878 0.96778 0.86337 0.0
N293 N 0.61215 0.07683 0.6356 0.0
C294 C 0.49661 0.99438 0.81709 0.0
C295 C 0.58205 0.04951 0.70112 0.0
N296 N 0.49415 0.90387 0.78607 0.0
N297 N 0.62479 0.13538 0.77903 0.0
H298 H 0.61141 0.05414 0.58569 0.0
H299 H 0.63192 0.1217 0.62857 0.0
H300 H 0.62771 0.15745 0.83061 0.0
H301 H 0.66292 0.15347 0.74645 0.0
H302 H 0.46982 0.8828 0.83521 0.0
H303 H 0.50483 0.87838 0.75136 0.0
H304 H 0.42218 0.92297 0.86623 0.0
H305 H 0.43377 0.9906 0.89566 0.0
C306 C 0.4895 0.56731 0.92902 0.0
C307 C 0.46375 0.51867 0.97995 0.0
C308 C 0.54385 0.50313 0.94837 0.0
C309 C 0.55573 0.53814 0.88054 0.0
N310 N 0.53134 0.59853 0.80263 0.0
N311 N 0.47422 0.44457 0.04634 0.0
C312 C 0.52538 0.56811 0.86905 0.0
C313 C 0.49281 0.4872 0.99178 0.0
N314 N 0.48428 0.61511 0.94214 0.0
N315 N 0.58149 0.48703 0.97531 0.0
H316 H 0.43723 0.43209 0.07961 0.0
H317 H 0.49591 0.42182 0.05719 0.0
H318 H 0.62228 0.50145 0.95098 0.0
H319 H 0.62228 0.50145 0.95098 0.0
H320 H 0.50625 0.65273 0.90874 0.0
H321 H 0.46535 0.61996 0.99265 0.0
H322 H 0.50727 0.619 0.79264 0.0
H323 H 0.556 0.59881 0.75539 0.0
C324 C 0.06795 0.56694 0.12382 0.0
C325 C 0.04246 0.54942 0.04855 0.0
C326 C 0.98923 0.45022 0.09711 0.0
C327 C 0.99586 0.47263 0.17286 0.0
N328 N 0.0497 0.55008 0.2622 0.0
N329 N 0.97767 0.46934 0.96368 0.0
C330 C 0.04034 0.52963 0.1877 0.0
C331 C 0.00429 0.4892 0.03391 0.0
N332 N 0.11688 0.6194 0.13436 0.0
N333 N 0.96064 0.39171 0.08636 0.0
H334 H 0.98552 0.49516 0.91508 0.0
H335 H 0.94454 0.42677 0.95482 0.0
H336 H 0.94483 0.36334 0.13342 0.0
H337 H 0.95724 0.37242 0.03229 0.0
H338 H 0.13921 0.6319 0.18702 0.0
H339 H 0.13828 0.64748 0.08822 0.0
H340 H 0.07692 0.59353 0.27662 0.0
H341 H 0.02683 0.52315 0.30882 0.0
C342 C 0.49739 0.25288 0.77214 0.0
C343 C 0.48963 0.26268 0.85087 0.0
C344 C 0.56832 0.36345 0.84003 0.0
C345 C 0.57445 0.35521 0.76058 0.0
N346 N 0.56084 0.28687 0.65955 0.0
N347 N 0.50692 0.33 0.95384 0.0
C348 C 0.54328 0.29811 0.72888 0.0
C349 C 0.52069 0.31954 0.88159 0.0
N350 N 0.46075 0.20035 0.73921 0.0
N351 N 0.61211 0.40873 0.87857 0.0
H352 H 0.47219 0.29771 0.98509 0.0
H353 H 0.52702 0.3711 0.9789 0.0
H354 H 0.64975 0.43951 0.85093 0.0
H355 H 0.61484 0.40947 0.93912 0.0
H356 H 0.46139 0.19117 0.68043 0.0
H357 H 0.42558 0.16799 0.76965 0.0
H358 H 0.54365 0.24554 0.63561 0.0
H359 H 0.59749 0.31854 0.63046 0.0
C360 C 0.20923 0.5912 0.04716 0.0
C361 C 0.17422 0.55995 0.98301 0.0
C362 C 0.17344 0.47191 0.02624 0.0
C363 C 0.21484 0.50583 0.08271 0.0
N364 N 0.24248 0.58329 0.17514 0.0
N365 N 0.09878 0.46528 0.94011 0.0
C366 C 0.21983 0.55962 0.10445 0.0
C367 C 0.14731 0.49808 0.98332 0.0
N368 N 0.23729 0.65029 0.05027 0.0
N369 N 0.16246 0.41736 0.00917 0.0
H370 H 0.07896 0.48411 0.90889 0.0
H371 H 0.0755 0.42008 0.94228 0.0
H372 H 0.17936 0.39655 0.04205 0.0
H373 H 0.1378 0.3938 0.96139 0.0
H374 H 0.26812 0.67414 0.09267 0.0
H375 H 0.23261 0.67572 0.00851 0.0
H376 H 0.24483 0.62141 0.19518 0.0
H377 H 0.25416 0.56149 0.21513 0.0
C378 C 0.63283 0.24379 0.16681 0.0
C379 C 0.62317 0.20036 0.11151 0.0
C380 C 0.7186 0.21214 0.13829 0.0
C381 C 0.72896 0.25684 0.19071 0.0
N382 N 0.689 0.29797 0.27895 0.0
N383 N 0.64516 0.12561 0.07461 0.0
C384 C 0.68315 0.26616 0.21372 0.0
C385 C 0.66218 0.17839 0.10779 0.0
N386 N 0.59715 0.26664 0.17144 0.0
N387 N 0.76288 0.20441 0.11359 0.0
H388 H 0.60285 0.09858 0.0551 0.0
H389 H 0.67093 0.10639 0.07495 0.0
H390 H 0.80497 0.22916 0.13496 0.0
H391 H 0.75825 0.17609 0.06858 0.0
H392 H 0.60661 0.30277 0.20542 0.0
H393 H 0.56023 0.25247 0.13766 0.0
H394 H 0.65538 0.30261 0.30189 0.0
H395 H 0.7256 0.3141 0.31442 0.0
C396 C 0.47136 0.68077 0.3963 0.0
C397 C 0.49764 0.73564 0.35872 0.0
C398 C 0.44396 0.69076 0.24087 0.0
C399 C 0.42143 0.63485 0.2744 0.0
N400 N 0.4068 0.57623 0.38795 0.0
N401 N 0.52142 0.79062 0.24068 0.0
C402 C 0.43325 0.62951 0.35353 0.0
C403 C 0.48882 0.7394 0.2789 0.0
N404 N 0.48105 0.67911 0.47406 0.0
N405 N 0.4202 0.69733 0.17396 0.0
H406 H 0.55473 0.8269 0.26842 0.0
H407 H 0.51926 0.79488 0.18067 0.0
H408 H 0.38408 0.66262 0.14789 0.0
H409 H 0.43178 0.73766 0.15008 0.0
H410 H 0.46078 0.6421 0.50844 0.0
H411 H 0.51015 0.71645 0.50449 0.0
H412 H 0.41635 0.568 0.44347 0.0
H413 H 0.37404 0.53959 0.36067 0.0
C414 C 0.83609 0.50879 0.4381 0.0
C415 C 0.81857 0.44881 0.45079 0.0
C416 C 0.77281 0.45301 0.57119 0.0
C417 C 0.77274 0.50264 0.54247 0.0
N418 N 0.81037 0.58352 0.45567 0.0
N419 N 0.77207 0.36489 0.53625 0.0
C420 C 0.80775 0.53336 0.47936 0.0
C421 C 0.78915 0.42152 0.52074 0.0
N422 N 0.8789 0.54176 0.38609 0.0
N423 N 0.75286 0.43423 0.64461 0.0
H424 H 0.78164 0.339 0.50121 0.0
H425 H 0.74468 0.34202 0.58227 0.0
H426 H 0.73955 0.45704 0.68051 0.0
H427 H 0.75509 0.40041 0.67165 0.0
H428 H 0.89566 0.58624 0.37958 0.0
H429 H 0.90252 0.52647 0.35597 0.0
H430 H 0.8291 0.60416 0.40337 0.0
H431 H 0.79141 0.60297 0.48777 0.0
C432 C 0.32503 0.74114 0.58951 0.0
C433 C 0.37143 0.79551 0.61377 0.0
C434 C 0.30796 0.8024 0.71111 0.0
C435 C 0.26174 0.74954 0.68376 0.0
N436 N 0.22081 0.68167 0.57859 0.0
N437 N 0.39914 0.88673 0.67772 0.0
C438 C 0.26859 0.72386 0.6158 0.0
C439 C 0.36084 0.82897 0.66913 0.0
N440 N 0.33491 0.70665 0.54044 0.0
N441 N 0.3015 0.82648 0.77753 0.0
H442 H 0.43775 0.9079 0.64645 0.0
H443 H 0.39017 0.91399 0.71116 0.0
H444 H 0.26207 0.80797 0.8068 0.0
H445 H 0.33538 0.86272 0.80413 0.0
H446 H 0.30286 0.665 0.52447 0.0
H447 H 0.37655 0.71767 0.52258 0.0
H448 H 0.22273 0.66359 0.52562 0.0
H449 H 0.17911 0.66994 0.59739 0.0
loop_
_geom_bond_atom_site_label_1
_geom_bond_atom_site_label_2
_geom_bond_distance
_geom_bond_site_symmetry_2
_ccdc_geom_bond_type
O0 Mn1 2.163 1_556 S
O0 C14 1.244 . S
Mn1 O0 2.163 1_554 S
Mn1 O4 2.160 . S
Mn1 O5 2.221 . S
Mn1 O7 2.163 1_554 S
Mn1 O9 2.160 . S
Mn1 O19 2.221 1_554 S
O2 Mn3 2.087 . S
O2 C14 1.256 . S
Mn3 O2 2.087 . S
Mn3 O10 2.089 . S
Mn3 O19 2.290 . S
Mn3 O20 2.251 . S
O4 Mn1 2.160 . S
O4 C15 1.239 . S
O5 Mn1 2.221 . S
O5 Mn6 2.290 . S
O5 C16 1.278 . S
Mn6 O5 2.290 . S
Mn6 O8 2.089 . S
Mn6 O11 2.251 . S
Mn6 O12 2.087 . S
O7 Mn1 2.163 1_556 S
O7 C17 1.244 . S
O8 Mn6 2.089 . S
O8 C15 1.256 . S
O9 Mn1 2.160 . S
O9 C18 1.239 . S
O10 Mn3 2.089 . S
O10 C18 1.256 1_556 S
O11 Mn6 2.251 . S
O11 C16 1.241 . S
O12 Mn6 2.087 . S
O12 C17 1.256 1_554 S
C13 O19 1.278 . S
C13 O20 1.241 . S
C14 O0 1.244 . S
C14 O2 1.256 . S
C15 O4 1.239 . S
C15 O8 1.256 . S
C16 O5 1.278 . S
C16 O11 1.241 . S
C17 O7 1.244 . S
C17 O12 1.256 1_556 S
C18 O9 1.239 . S
C18 O10 1.256 1_554 S
O19 Mn1 2.221 1_556 S
O19 Mn3 2.290 . S
O19 C13 1.278 . S
O20 Mn3 2.251 . S
O20 C13 1.241 . S
O21 Mn22 2.163 . S
O21 C35 1.244 . S
Mn22 O21 2.163 . S
Mn22 O25 2.160 . S
Mn22 O26 2.221 . S
Mn22 O28 2.163 . S
Mn22 O30 2.160 . S
Mn22 O40 2.221 . S
O23 Mn24 2.087 . S
O23 C35 1.256 . S
Mn24 O23 2.087 . S
Mn24 O31 2.089 . S
Mn24 O40 2.290 . S
Mn24 O41 2.251 . S
O25 Mn22 2.160 . S
O25 C36 1.239 . S
O26 Mn22 2.221 . S
O26 Mn27 2.290 . S
O26 C37 1.278 . S
Mn27 O26 2.290 . S
Mn27 O29 2.089 . S
Mn27 O32 2.251 1_554 S
Mn27 O33 2.087 . S
O28 Mn22 2.163 . S
O28 C38 1.244 . S
O29 Mn27 2.089 . S
O29 C36 1.256 . S
O30 Mn22 2.160 . S
O30 C39 1.239 . S
O31 Mn24 2.089 . S
O31 C39 1.256 . S
O32 Mn27 2.251 1_556 S
O32 C37 1.241 1_556 S
O33 Mn27 2.087 . S
O33 C38 1.256 . S
C34 O40 1.278 . S
C34 O41 1.241 . S
C35 O21 1.244 . S
C35 O23 1.256 . S
C36 O25 1.239 . S
C36 O29 1.256 . S
C37 O26 1.278 . S
C37 O32 1.241 1_554 S
C38 O28 1.244 . S
C38 O33 1.256 . S
C39 O30 1.239 . S
C39 O31 1.256 . S
O40 Mn22 2.221 . S
O40 Mn24 2.290 . S
O40 C34 1.278 . S
O41 Mn24 2.251 . S
O41 C34 1.241 . S
O42 Mn43 2.163 . S
O42 C56 1.244 . S
Mn43 O42 2.163 . S
Mn43 O46 2.160 . S
Mn43 O47 2.221 . S
Mn43 O49 2.163 . S
Mn43 O51 2.160 . S
Mn43 O61 2.221 . S
O44 Mn45 2.087 . S
O44 C56 1.256 . S
Mn45 O44 2.087 . S
Mn45 O52 2.089 . S
Mn45 O61 2.290 . S
Mn45 O62 2.251 . S
O46 Mn43 2.160 . S
O46 C57 1.239 . S
O47 Mn43 2.221 . S
O47 Mn48 2.290 . S
O47 C58 1.278 . S
Mn48 O47 2.290 . S
Mn48 O50 2.089 . S
Mn48 O53 2.251 . S
Mn48 O54 2.087 . S
O49 Mn43 2.163 . S
O49 C59 1.244 . S
O50 Mn48 2.089 . S
O50 C57 1.256 . S
O51 Mn43 2.160 . S
O51 C60 1.239 . S
O52 Mn45 2.089 . S
O52 C60 1.256 . S
O53 Mn48 2.251 . S
O53 C58 1.241 . S
O54 Mn48 2.087 . S
O54 C59 1.256 . S
C55 O61 1.278 . S
C55 O62 1.241 . S
C56 O42 1.244 . S
C56 O44 1.256 . S
C57 O46 1.239 . S
C57 O50 1.256 . S
C58 O47 1.278 . S
C58 O53 1.241 . S
C59 O49 1.244 . S
C59 O54 1.256 . S
C60 O51 1.239 . S
C60 O52 1.256 . S
O61 Mn43 2.221 . S
O61 Mn45 2.290 . S
O61 C55 1.278 . S
O62 Mn45 2.251 . S
O62 C55 1.241 . S
O63 Mn64 2.163 . S
O63 C77 1.244 . S
Mn64 O63 2.163 . S
Mn64 O67 2.160 . S
Mn64 O68 2.221 . S
Mn64 O70 2.163 . S
Mn64 O72 2.160 . S
Mn64 O82 2.221 . S
O65 Mn66 2.087 . S
O65 C77 1.256 . S
Mn66 O65 2.087 . S
Mn66 O73 2.089 . S
Mn66 O82 2.290 . S
Mn66 O83 2.251 . S
O67 Mn64 2.160 . S
O67 C78 1.239 . S
O68 Mn64 2.221 . S
O68 Mn69 2.290 . S
O68 C79 1.278 . S
Mn69 O68 2.290 . S
Mn69 O71 2.089 . S
Mn69 O74 2.251 . S
Mn69 O75 2.087 . S
O70 Mn64 2.163 . S
O70 C80 1.244 . S
O71 Mn69 2.089 . S
O71 C78 1.256 . S
O72 Mn64 2.160 . S
O72 C81 1.239 . S
O73 Mn66 2.089 . S
O73 C81 1.256 . S
O74 Mn69 2.251 . S
O74 C79 1.241 . S
O75 Mn69 2.087 . S
O75 C80 1.256 . S
C76 O82 1.278 . S
C76 O83 1.241 . S
C77 O63 1.244 . S
C77 O65 1.256 . S
C78 O67 1.239 . S
C78 O71 1.256 . S
C79 O68 1.278 . S
C79 O74 1.241 . S
C80 O70 1.244 . S
C80 O75 1.256 . S
C81 O72 1.239 . S
C81 O73 1.256 . S
O82 Mn64 2.221 . S
O82 Mn66 2.290 . S
O82 C76 1.278 . S
O83 Mn66 2.251 . S
O83 C76 1.241 . S
O84 Mn85 2.163 . S
O84 C98 1.244 . S
Mn85 O84 2.163 . S
Mn85 O88 2.160 . S
Mn85 O89 2.221 . S
Mn85 O91 2.163 . S
Mn85 O93 2.160 . S
Mn85 O103 2.221 . S
O86 Mn87 2.087 . S
O86 C98 1.256 . S
Mn87 O86 2.087 . S
Mn87 O94 2.089 . S
Mn87 O103 2.290 . S
Mn87 O104 2.251 . S
O88 Mn85 2.160 . S
O88 C99 1.239 . S
O89 Mn85 2.221 . S
O89 Mn90 2.290 . S
O89 C100 1.278 . S
Mn90 O89 2.290 . S
Mn90 O92 2.089 . S
Mn90 O95 2.251 . S
Mn90 O96 2.087 . S
O91 Mn85 2.163 . S
O91 C101 1.244 . S
O92 Mn90 2.089 . S
O92 C99 1.256 . S
O93 Mn85 2.160 . S
O93 C102 1.239 . S
O94 Mn87 2.089 . S
O94 C102 1.256 . S
O95 Mn90 2.251 . S
O95 C100 1.241 . S
O96 Mn90 2.087 . S
O96 C101 1.256 . S
C97 O103 1.278 . S
C97 O104 1.241 . S
C98 O84 1.244 . S
C98 O86 1.256 . S
C99 O88 1.239 . S
C99 O92 1.256 . S
C100 O89 1.278 . S
C100 O95 1.241 . S
C101 O91 1.244 . S
C101 O96 1.256 . S
C102 O93 1.239 . S
C102 O94 1.256 . S
O103 Mn85 2.221 . S
O103 Mn87 2.290 . S
O103 C97 1.278 . S
O104 Mn87 2.251 . S
O104 C97 1.241 . S
O105 Mn106 2.163 . S
O105 C119 1.244 . S
Mn106 O105 2.163 . S
Mn106 O109 2.160 . S
Mn106 O110 2.221 . S
Mn106 O112 2.163 . S
Mn106 O114 2.160 . S
Mn106 O124 2.221 . S
O107 Mn108 2.087 . S
O107 C119 1.256 . S
Mn108 O107 2.087 . S
Mn108 O115 2.089 . S
Mn108 O124 2.290 . S
Mn108 O125 2.251 . S
O109 Mn106 2.160 . S
O109 C120 1.239 . S
O110 Mn106 2.221 . S
O110 Mn111 2.290 . S
O110 C121 1.278 . S
Mn111 O110 2.290 . S
Mn111 O113 2.089 . S
Mn111 O116 2.251 . S
Mn111 O117 2.087 . S
O112 Mn106 2.163 . S
O112 C122 1.244 . S
O113 Mn111 2.089 . S
O113 C120 1.256 . S
O114 Mn106 2.160 . S
O114 C123 1.239 . S
O115 Mn108 2.089 . S
O115 C123 1.256 . S
O116 Mn111 2.251 . S
O116 C121 1.241 . S
O117 Mn111 2.087 . S
O117 C122 1.256 . S
C118 O124 1.278 . S
C118 O125 1.241 . S
C119 O105 1.244 . S
C119 O107 1.256 . S
C120 O109 1.239 . S
C120 O113 1.256 . S
C121 O110 1.278 . S
C121 O116 1.241 . S
C122 O112 1.244 . S
C122 O117 1.256 . S
C123 O114 1.239 . S
C123 O115 1.256 . S
O124 Mn106 2.221 . S
O124 Mn108 2.290 . S
O124 C118 1.278 . S
O125 Mn108 2.251 . S
O125 C118 1.241 . S
C126 C127 1.363 . S
C126 C132 1.379 . S
C126 N134 1.356 . S
C127 C126 1.363 . S
C127 C133 1.363 1_556 S
C128 C129 1.363 1_554 S
C128 C133 1.379 . S
C128 N135 1.356 . S
C129 C128 1.363 1_556 S
C129 C132 1.363 . S
N130 C132 1.356 . S
N130 H142 0.984 . S
N130 H143 0.985 . S
N131 C133 1.356 . S
N131 H136 0.965 1_565 S
N131 H137 0.985 . S
C132 C126 1.379 . S
C132 C129 1.363 . S
C132 N130 1.356 . S
C133 C127 1.363 1_554 S
C133 C128 1.379 . S
C133 N131 1.356 . S
N134 C126 1.356 . S
N134 H140 0.984 . S
N134 H141 0.984 1_565 S
N135 C128 1.356 . S
N135 H138 0.984 . S
N135 H139 0.985 . S
H136 N131 0.965 1_545 S
H137 N131 0.985 . S
H138 N135 0.984 . S
H139 N135 0.985 . S
H140 N134 0.984 . S
H141 N134 0.984 1_545 S
H142 N130 0.984 . S
H143 N130 0.985 . S
C144 C145 1.363 . S
C144 C150 1.379 . S
C144 N152 1.356 . S
C145 C144 1.363 . S
C145 C151 1.363 . S
C146 C147 1.363 . S
C146 C151 1.379 . S
C146 N153 1.356 . S
C147 C146 1.363 . S
C147 C150 1.363 . S
N148 C150 1.356 . S
N148 H160 0.984 1_554 S
N148 H161 0.985 . S
N149 C151 1.356 . S
N149 H154 0.984 . S
N149 H155 0.985 . S
C150 C144 1.379 . S
C150 C147 1.363 . S
C150 N148 1.356 . S
C151 C145 1.363 . S
C151 C146 1.379 . S
C151 N149 1.356 . S
N152 C144 1.356 . S
N152 H158 0.984 1_554 S
N152 H159 0.984 . S
N153 C146 1.356 . S
N153 H156 0.984 . S
N153 H157 0.985 . S
H154 N149 0.984 . S
H155 N149 0.985 . S
H156 N153 0.984 . S
H157 N153 0.985 . S
H158 N152 0.984 1_556 S
H159 N152 0.984 . S
H160 N148 0.984 1_556 S
H161 N148 0.985 . S
C162 C163 1.363 . S
C162 C168 1.379 . S
C162 N170 1.356 . S
C163 C162 1.363 . S
C163 C169 1.363 . S
C164 C165 1.363 . S
C164 C169 1.379 . S
C164 N171 1.356 . S
C165 C164 1.363 . S
C165 C168 1.363 . S
N166 C168 1.356 . S
N166 H178 0.984 . S
N166 H179 0.985 . S
N167 C169 1.356 . S
N167 H172 0.984 1_455 S
N167 H173 0.985 . S
C168 C162 1.379 . S
C168 C165 1.363 . S
C168 N166 1.356 . S
C169 C163 1.363 . S
C169 C164 1.379 . S
C169 N167 1.356 . S
N170 C162 1.356 . S
N170 H176 0.984 . S
N170 H177 0.971 1_455 S
N171 C164 1.356 . S
N171 H174 0.984 . S
N171 H175 0.985 . S
H172 N167 0.984 1_655 S
H173 N167 0.985 . S
H174 N171 0.984 . S
H175 N171 0.985 . S
H176 N170 0.984 . S
H177 N170 0.971 1_655 S
H178 N166 0.984 . S
H179 N166 0.985 . S
C180 C181 1.363 . S
C180 C186 1.379 . S
C180 N188 1.356 . S
C181 C180 1.363 . S
C181 C187 1.363 . S
C182 C183 1.363 . S
C182 C187 1.379 . S
C182 N189 1.356 . S
C183 C182 1.363 . S
C183 C186 1.363 . S
N184 C186 1.356 . S
N184 H196 0.984 . S
N184 H197 0.985 1_545 S
N185 C187 1.356 . S
N185 H190 0.984 . S
N185 H191 0.985 . S
C186 C180 1.379 . S
C186 C183 1.363 . S
C186 N184 1.356 . S
C187 C181 1.363 . S
C187 C182 1.379 . S
C187 N185 1.356 . S
N188 C180 1.356 . S
N188 H194 0.984 . S
N188 H195 0.984 . S
N189 C182 1.356 . S
N189 H192 0.984 1_545 S
N189 H193 0.985 . S
H190 N185 0.984 . S
H191 N185 0.985 . S
H192 N189 0.984 1_565 S
H193 N189 0.985 . S
H194 N188 0.984 . S
H195 N188 0.984 . S
H196 N184 0.984 . S
H197 N184 0.985 1_565 S
C198 C199 1.363 . S
C198 C204 1.379 . S
C198 N206 1.356 . S
C199 C198 1.363 . S
C199 C205 1.363 . S
C200 C201 1.363 . S
C200 C205 1.379 . S
C200 N207 1.356 . S
C201 C200 1.363 . S
C201 C204 1.363 . S
N202 C204 1.356 . S
N202 H214 0.984 . S
N202 H215 0.985 . S
N203 C205 1.356 . S
N203 H208 0.984 . S
N203 H209 0.985 . S
C204 C198 1.379 . S
C204 C201 1.363 . S
C204 N202 1.356 . S
C205 C199 1.363 . S
C205 C200 1.379 . S
C205 N203 1.356 . S
N206 C198 1.356 . S
N206 H212 0.984 . S
N206 H213 0.984 . S
N207 C200 1.356 . S
N207 H210 0.984 . S
N207 H211 0.985 . S
H208 N203 0.984 . S
H209 N203 0.985 . S
H210 N207 0.984 . S
H211 N207 0.985 . S
H212 N206 0.984 . S
H213 N206 0.984 . S
H214 N202 0.984 . S
H215 N202 0.985 . S
C216 C217 1.363 . S
C216 C222 1.379 . S
C216 N224 1.356 . S
C217 C216 1.363 . S
C217 C223 1.363 . S
C218 C219 1.363 . S
C218 C223 1.379 . S
C218 N225 1.356 . S
C219 C218 1.363 . S
C219 C222 1.363 . S
N220 C222 1.356 . S
N220 H232 0.984 . S
N220 H233 0.985 . S
N221 C223 1.356 . S
N221 H226 0.984 1_655 S
N221 H227 0.985 . S
C222 C216 1.379 . S
C222 C219 1.363 . S
C222 N220 1.356 . S
C223 C217 1.363 . S
C223 C218 1.379 . S
C223 N221 1.356 . S
N224 C216 1.356 . S
N224 H230 0.984 . S
N224 H231 0.984 1_655 S
N225 C218 1.356 . S
N225 H228 0.984 . S
N225 H229 0.985 . S
H226 N221 0.984 1_455 S
H227 N221 0.985 . S
H228 N225 0.984 . S
H229 N225 0.985 . S
H230 N224 0.984 . S
H231 N224 0.984 1_455 S
H232 N220 0.984 . S
H233 N220 0.985 . S
C234 C235 1.363 1_545 S
C234 C240 1.379 . S
C234 N242 1.356 . S
C235 C234 1.363 1_565 S
C235 C241 1.363 . S
C236 C237 1.363 . S
C236 C241 1.379 . S
C236 N243 1.356 . S
C237 C236 1.363 . S
C237 C240 1.363 1_565 S
N238 C240 1.356 . S
N238 H250 0.984 . S
N238 H251 0.985 . S
N239 C241 1.356 . S
N239 H244 0.984 . S
N239 H245 0.985 . S
C240 C234 1.379 . S
C240 C237 1.363 1_545 S
C240 N238 1.356 . S
C241 C235 1.363 . S
C241 C236 1.379 . S
C241 N239 1.356 . S
N242 C234 1.356 . S
N242 H248 0.984 . S
N242 H249 0.984 . S
N243 C236 1.356 . S
N243 H246 0.984 . S
N243 H247 0.985 . S
H244 N239 0.984 . S
H245 N239 0.985 . S
H246 N243 0.984 . S
H247 N243 0.985 . S
H248 N242 0.984 . S
H249 N242 0.984 . S
H250 N238 0.984 . S
H251 N238 0.985 . S
C252 C253 1.363 . S
C252 C258 1.379 . S
C252 N260 1.356 . S
C253 C252 1.363 . S
C253 C259 1.363 . S
C254 C255 1.363 . S
C254 C259 1.379 . S
C254 N261 1.356 . S
C255 C254 1.363 . S
C255 C258 1.363 . S
N256 C258 1.356 . S
N256 H268 0.984 . S
N256 H269 0.985 . S
N257 C259 1.356 . S
N257 H262 0.984 . S
N257 H263 0.985 . S
C258 C252 1.379 . S
C258 C255 1.363 . S
C258 N256 1.356 . S
C259 C253 1.363 . S
C259 C254 1.379 . S
C259 N257 1.356 . S
N260 C252 1.356 . S
N260 H266 0.984 . S
N260 H267 0.984 . S
N261 C254 1.356 . S
N261 H264 0.984 . S
N261 H265 0.985 . S
H262 N257 0.984 . S
H263 N257 0.985 . S
H264 N261 0.984 . S
H265 N261 0.985 . S
H266 N260 0.984 . S
H267 N260 0.984 . S
H268 N256 0.984 . S
H269 N256 0.985 . S
C270 C271 1.363 . S
C270 C276 1.379 . S
C270 N278 1.356 . S
C271 C270 1.363 . S
C271 C277 1.363 . S
C272 C273 1.363 . S
C272 C277 1.379 . S
C272 N279 1.356 1_455 S
C273 C272 1.363 . S
C273 C276 1.363 . S
N274 C276 1.356 . S
N274 H286 0.984 . S
N274 H287 0.985 . S
N275 C277 1.356 . S
N275 H280 0.984 . S
N275 H281 0.985 . S
C276 C270 1.379 . S
C276 C273 1.363 . S
C276 N274 1.356 . S
C277 C271 1.363 . S
C277 C272 1.379 . S
C277 N275 1.356 . S
N278 C270 1.356 . S
N278 H284 0.984 . S
N278 H285 0.984 . S
N279 C272 1.356 1_655 S
N279 H282 0.984 . S
N279 H283 0.985 . S
H280 N275 0.984 . S
H281 N275 0.985 . S
H282 N279 0.984 . S
H283 N279 0.985 . S
H284 N278 0.984 . S
H285 N278 0.984 . S
H286 N274 0.984 . S
H287 N274 0.985 . S
C288 C289 1.363 1_565 S
C288 C294 1.379 . S
C288 N296 1.356 . S
C289 C288 1.363 1_545 S
C289 C295 1.363 . S
C290 C291 1.363 . S
C290 C295 1.379 . S
C290 N297 1.356 . S
C291 C290 1.363 . S
C291 C294 1.363 1_545 S
N292 C294 1.356 . S
N292 H304 0.984 . S
N292 H305 0.985 . S
N293 C295 1.356 . S
N293 H298 0.984 . S
N293 H299 0.985 . S
C294 C288 1.379 . S
C294 C291 1.363 1_565 S
C294 N292 1.356 . S
C295 C289 1.363 . S
C295 C290 1.379 . S
C295 N293 1.356 . S
N296 C288 1.356 . S
N296 H302 0.984 . S
N296 H303 0.984 . S
N297 C290 1.356 . S
N297 H300 0.984 . S
N297 H301 0.985 . S
H298 N293 0.984 . S
H299 N293 0.985 . S
H300 N297 0.984 . S
H301 N297 0.985 . S
H302 N296 0.984 . S
H303 N296 0.984 . S
H304 N292 0.984 . S
H305 N292 0.985 . S
C306 C307 1.363 1_556 S
C306 C312 1.379 . S
C306 N314 1.356 1_556 S
C307 C306 1.363 1_554 S
C307 C313 1.363 1_554 S
C308 C309 1.363 . S
C308 C313 1.379 . S
C308 N315 1.356 . S
C309 C308 1.363 . S
C309 C312 1.363 . S
N310 C312 1.356 . S
N310 H322 0.984 . S
N310 H323 0.985 . S
N311 C313 1.356 1_554 S
N311 H316 0.984 . S
N311 H317 0.985 . S
C312 C306 1.379 . S
C312 C309 1.363 . S
C312 N310 1.356 . S
C313 C307 1.363 1_556 S
C313 C308 1.379 . S
C313 N311 1.356 1_556 S
N314 C306 1.356 1_554 S
N314 H320 0.984 . S
N314 H321 0.984 . S
N315 C308 1.356 . S
N315 H318 0.984 . S
N315 H319 0.985 . S
H316 N311 0.984 . S
H317 N311 0.985 . S
H318 N315 0.984 . S
H319 N315 0.985 . S
H320 N314 0.984 . S
H321 N314 0.984 . S
H322 N310 0.984 . S
H323 N310 0.985 . S
C324 C325 1.363 1_455 S
C324 C330 1.379 . S
C324 N332 1.356 . S
C325 C324 1.363 1_655 S
C325 C331 1.363 . S
C326 C327 1.363 . S
C326 C331 1.379 . S
C326 N333 1.356 . S
C327 C326 1.363 . S
C327 C330 1.363 1_655 S
N328 C330 1.356 . S
N328 H340 0.984 . S
N328 H341 0.985 . S
N329 C331 1.356 1_556 S
N329 H334 0.984 . S
N329 H335 0.985 . S
C330 C324 1.379 . S
C330 C327 1.363 1_455 S
C330 N328 1.356 . S
C331 C325 1.363 . S
C331 C326 1.379 . S
C331 N329 1.356 1_554 S
N332 C324 1.356 . S
N332 H338 0.984 . S
N332 H339 0.984 . S
N333 C326 1.356 . S
N333 H336 0.984 . S
N333 H337 0.985 . S
H334 N329 0.984 . S
H335 N329 0.985 . S
H336 N333 0.984 . S
H337 N333 0.985 . S
H338 N332 0.984 . S
H339 N332 0.984 . S
H340 N328 0.984 . S
H341 N328 0.985 . S
C342 C343 1.363 . S
C342 C348 1.379 . S
C342 N350 1.356 . S
C343 C342 1.363 . S
C343 C349 1.363 . S
C344 C345 1.363 . S
C344 C349 1.379 . S
C344 N351 1.356 . S
C345 C344 1.363 . S
C345 C348 1.363 . S
N346 C348 1.356 . S
N346 H358 0.984 . S
N346 H359 0.985 . S
N347 C349 1.356 . S
N347 H352 0.984 . S
N347 H353 0.985 . S
C348 C342 1.379 . S
C348 C345 1.363 . S
C348 N346 1.356 . S
C349 C343 1.363 . S
C349 C344 1.379 . S
C349 N347 1.356 . S
N350 C342 1.356 . S
N350 H356 0.984 . S
N350 H357 0.984 . S
N351 C344 1.356 . S
N351 H354 0.984 . S
N351 H355 0.985 . S
H352 N347 0.984 . S
H353 N347 0.985 . S
H354 N351 0.984 . S
H355 N351 0.985 . S
H356 N350 0.984 . S
H357 N350 0.984 . S
H358 N346 0.984 . S
H359 N346 0.985 . S
C360 C361 1.362 . S
C360 C366 1.380 1_556 S
C360 N368 1.356 1_556 S
C361 C360 1.362 . S
C361 C367 1.363 . S
C362 C363 1.363 1_556 S
C362 C367 1.379 . S
C362 N369 1.356 . S
C363 C362 1.363 1_554 S
C363 C366 1.363 . S
N364 C366 1.356 . S
N364 H376 0.984 . S
N364 H377 0.985 . S
N365 C367 1.356 . S
N365 H370 0.984 . S
N365 H371 0.985 . S
C366 C360 1.380 1_554 S
C366 C363 1.363 . S
C366 N364 1.356 . S
C367 C361 1.363 . S
C367 C362 1.379 . S
C367 N365 1.356 . S
N368 C360 1.356 1_554 S
N368 H374 0.986 . S
N368 H375 0.983 1_554 S
N369 C362 1.356 . S
N369 H372 0.984 1_556 S
N369 H373 0.985 . S
H370 N365 0.984 . S
H371 N365 0.985 . S
H372 N369 0.984 1_554 S
H373 N369 0.985 . S
H374 N368 0.986 . S
H375 N368 0.983 1_556 S
H376 N364 0.984 . S
H377 N364 0.985 . S
C378 C379 1.363 . S
C378 C384 1.379 . S
C378 N386 1.356 . S
C379 C378 1.363 . S
C379 C385 1.363 . S
C380 C381 1.363 . S
C380 C385 1.379 . S
C380 N387 1.356 . S
C381 C380 1.363 . S
C381 C384 1.363 . S
N382 C384 1.356 . S
N382 H394 0.984 . S
N382 H395 0.985 . S
N383 C385 1.356 . S
N383 H388 0.984 1_554 S
N383 H389 0.985 1_554 S
C384 C378 1.379 . S
C384 C381 1.363 . S
C384 N382 1.356 . S
C385 C379 1.363 . S
C385 C380 1.379 . S
C385 N383 1.356 . S
N386 C378 1.356 . S
N386 H392 0.984 . S
N386 H393 0.984 . S
N387 C380 1.356 . S
N387 H390 0.984 . S
N387 H391 0.985 . S
H388 N383 0.984 1_556 S
H389 N383 0.985 1_556 S
H390 N387 0.984 . S
H391 N387 0.985 . S
H392 N386 0.984 . S
H393 N386 0.984 . S
H394 N382 0.984 . S
H395 N382 0.985 . S
C396 C397 1.363 . S
C396 C402 1.379 . S
C396 N404 1.356 . S
C397 C396 1.363 . S
C397 C403 1.363 . S
C398 C399 1.363 . S
C398 C403 1.379 . S
C398 N405 1.356 . S
C399 C398 1.363 . S
C399 C402 1.363 . S
N400 C402 1.356 . S
N400 H412 0.984 . S
N400 H413 0.985 . S
N401 C403 1.356 . S
N401 H406 0.984 . S
N401 H407 0.985 . S
C402 C396 1.379 . S
C402 C399 1.363 . S
C402 N400 1.356 . S
C403 C397 1.363 . S
C403 C398 1.379 . S
C403 N401 1.356 . S
N404 C396 1.356 . S
N404 H410 0.984 . S
N404 H411 0.984 . S
N405 C398 1.356 . S
N405 H408 0.984 . S
N405 H409 0.985 . S
H406 N401 0.984 . S
H407 N401 0.985 . S
H408 N405 0.984 . S
H409 N405 0.985 . S
H410 N404 0.984 . S
H411 N404 0.984 . S
H412 N400 0.984 . S
H413 N400 0.985 . S
C414 C415 1.363 . S
C414 C420 1.379 . S
C414 N422 1.356 . S
C415 C414 1.363 . S
C415 C421 1.363 . S
C416 C417 1.363 . S
C416 C421 1.379 . S
C416 N423 1.356 . S
C417 C416 1.363 . S
C417 C420 1.363 . S
N418 C420 1.356 . S
N418 H430 0.984 . S
N418 H431 0.985 . S
N419 C421 1.356 . S
N419 H424 0.984 . S
N419 H425 0.985 . S
C420 C414 1.379 . S
C420 C417 1.363 . S
C420 N418 1.356 . S
C421 C415 1.363 . S
C421 C416 1.379 . S
C421 N419 1.356 . S
N422 C414 1.356 . S
N422 H428 0.984 . S
N422 H429 0.984 . S
N423 C416 1.356 . S
N423 H426 0.984 . S
N423 H427 0.985 . S
H424 N419 0.984 . S
H425 N419 0.985 . S
H426 N423 0.984 . S
H427 N423 0.985 . S
H428 N422 0.984 . S
H429 N422 0.984 . S
H430 N418 0.984 . S
H431 N418 0.985 . S
C432 C433 1.363 . S
C432 C438 1.379 . S
C432 N440 1.356 . S
C433 C432 1.363 . S
C433 C439 1.363 . S
C434 C435 1.363 . S
C434 C439 1.379 . S
C434 N441 1.356 . S
C435 C434 1.363 . S
C435 C438 1.363 . S
N436 C438 1.356 . S
N436 H448 0.984 . S
N436 H449 0.985 . S
N437 C439 1.356 . S
N437 H442 0.984 . S
N437 H443 0.985 . S
C438 C432 1.379 . S
C438 C435 1.363 . S
C438 N436 1.356 . S
C439 C433 1.363 . S
C439 C434 1.379 . S
C439 N437 1.356 . S
N440 C432 1.356 . S
N440 H446 0.984 . S
N440 H447 0.984 . S
N441 C434 1.356 . S
N441 H444 0.984 . S
N441 H445 0.985 . S
H442 N437 0.984 . S
H443 N437 0.985 . S
H444 N441 0.984 . S
H445 N441 0.985 . S
H446 N440 0.984 . S
H447 N440 0.984 . S
H448 N436 0.984 . S
H449 N436 0.985 . S
C127 C17 1.683 1_565 S
C129 C118 1.602 . S
C145 C35 1.683 . S
C147 C16 1.602 . S
C163 C59 1.683 1_455 S
C165 C34 1.602 . S
C181 C58 1.602 . S
C183 C77 1.683 1_545 S
C199 C76 1.602 . S
C201 C101 1.683 . S
C217 C119 1.683 1_655 S
C219 C100 1.602 . S
C235 C15 1.353 1_565 S
C237 C79 1.091 . S
C253 C39 1.353 . S
C255 C97 1.091 . S
C271 C121 1.091 . S
C273 C57 1.353 1_455 S
C289 C81 1.353 1_545 S
C291 C13 1.091 . S
C307 C37 1.091 . S
C309 C99 1.353 . S
C325 C123 1.353 1_654 S
C327 C55 1.091 . S
C343 C14 1.229 . S
C345 C102 1.277 . S
C361 C120 1.276 . S
C363 C38 1.228 . S
C379 C18 1.277 . S
C381 C56 1.229 . S
C397 C80 1.229 . S
C399 C36 1.277 . S
C415 C60 1.276 . S
C417 C98 1.228 . S
C433 C78 1.277 . S
C435 C122 1.229 . S
