# Generated by pormake.
# Topology vbk, (5)-cn, num edge types: 1
# Building blocks:
#     Node 0, Type 0, BuildingBlock: XOMCOT_clean_sbu_0, # of connection points: 5
#     Node 1, Type 0, BuildingBlock: XOMCOT_clean_sbu_0, # of connection points: 5
#     Node 2, Type 0, BuildingBlock: XOMCOT_clean_sbu_0, # of connection points: 5
#     Node 3, Type 0, BuildingBlock: XOMCOT_clean_sbu_0, # of connection points: 5
#     Node 4, Type 0, BuildingBlock: XOMCOT_clean_sbu_0, # of connection points: 5
#     Node 5, Type 0, BuildingBlock: XOMCOT_clean_sbu_0, # of connection points: 5
#     Node 6, Type 0, BuildingBlock: XOMCOT_clean_sbu_0, # of connection points: 5
#     Node 7, Type 0, BuildingBlock: XOMCOT_clean_sbu_0, # of connection points: 5
#     Node 8, Type 0, BuildingBlock: XOMCOT_clean_sbu_0, # of connection points: 5
#     Node 9, Type 0, BuildingBlock: XOMCOT_clean_sbu_0, # of connection points: 5
#     Node 10, Type 0, BuildingBlock: XOMCOT_clean_sbu_0, # of connection points: 5
#     Node 11, Type 0, BuildingBlock: XOMCOT_clean_sbu_0, # of connection points: 5
#     Node 12, Type 0, BuildingBlock: XOMCOT_clean_sbu_0, # of connection points: 5
#     Node 13, Type 0, BuildingBlock: XOMCOT_clean_sbu_0, # of connection points: 5
#     Node 14, Type 0, BuildingBlock: XOMCOT_clean_sbu_0, # of connection points: 5
#     Node 15, Type 0, BuildingBlock: XOMCOT_clean_sbu_0, # of connection points: 5
#     Edge 16, Type (0, 0), None
#     Edge 17, Type (0, 0), None
#     Edge 18, Type (0, 0), None
#     Edge 19, Type (0, 0), None
#     Edge 20, Type (0, 0), None
#     Edge 21, Type (0, 0), None
#     Edge 22, Type (0, 0), None
#     Edge 23, Type (0, 0), None
#     Edge 24, Type (0, 0), None
#     Edge 25, Type (0, 0), None
#     Edge 26, Type (0, 0), None
#     Edge 27, Type (0, 0), None
#     Edge 28, Type (0, 0), None
#     Edge 29, Type (0, 0), None
#     Edge 30, Type (0, 0), None
#     Edge 31, Type (0, 0), None
#     Edge 32, Type (0, 0), None
#     Edge 33, Type (0, 0), None
#     Edge 34, Type (0, 0), None
#     Edge 35, Type (0, 0), None
#     Edge 36, Type (0, 0), None
#     Edge 37, Type (0, 0), None
#     Edge 38, Type (0, 0), None
#     Edge 39, Type (0, 0), None
#     Edge 40, Type (0, 0), None
#     Edge 41, Type (0, 0), None
#     Edge 42, Type (0, 0), None
#     Edge 43, Type (0, 0), None
#     Edge 44, Type (0, 0), None
#     Edge 45, Type (0, 0), None
#     Edge 46, Type (0, 0), None
#     Edge 47, Type (0, 0), None
#     Edge 48, Type (0, 0), None
#     Edge 49, Type (0, 0), None
#     Edge 50, Type (0, 0), None
#     Edge 51, Type (0, 0), None
#     Edge 52, Type (0, 0), None
#     Edge 53, Type (0, 0), None
#     Edge 54, Type (0, 0), None
#     Edge 55, Type (0, 0), None
# Relax obj value: 0.106
# Max RMSD: 0.183
# Mean RMSD: 0.183
data_MOF--net-vbk--node1-XOMCOT_clean_sbu_0--edge1-none
_symmetry_space_group_name_H-M    P1
_symmetry_Int_Tables_number       1
_symmetry_cell_setting            triclinic
loop_
_symmetry_equiv_pos_as_xyz
'x, y, z'
_cell_length_a     35.677163
_cell_length_b     24.283729
_cell_length_c     12.11456
_cell_angle_alpha  89.65027
_cell_angle_beta   90.048487
_cell_angle_gamma 90.696646
loop_
_atom_site_label
_atom_site_type_symbol
_atom_site_fract_x
_atom_site_fract_y
_atom_site_fract_z
_atom_type_partial_charge
Co0 Co 0.17026 0.10798 0.11042 0.0
C1 C 0.08843 0.10262 0.14242 0.0
C2 C 0.10248 0.10976 0.97055 0.0
C3 C 0.06394 0.10712 0.97952 0.0
N4 N 0.11761 0.10728 0.07271 0.0
N5 N 0.05546 0.10253 0.0875 0.0
H6 H 0.0914 0.09946 0.23104 0.0
H7 H 0.11839 0.11329 0.89482 0.0
C8 C 0.18113 0.18988 0.28582 0.0
O9 O 0.2098 0.20679 0.22616 0.0
N10 N 0.22305 0.10572 0.15241 0.0
C11 C 0.25485 0.11329 0.09347 0.0
C12 C 0.28524 0.10869 0.16382 0.0
C13 C 0.23472 0.09455 0.25652 0.0
N14 N 0.27228 0.09751 0.26612 0.0
C15 C 0.19166 0.17558 0.92728 0.0
C16 C 0.14247 0.25985 0.97333 0.0
C17 C 0.15836 0.25684 0.86868 0.0
C18 C 0.18385 0.21494 0.84675 0.0
C19 C 0.15034 0.2188 1.05102 0.0
N20 N 0.1745 0.17685 1.02763 0.0
H21 H 0.20802 0.14065 0.90347 0.0
H22 H 0.13345 0.21753 0.12462 0.0
H23 H 0.25648 0.12225 1.00647 0.0
H24 H 0.21588 0.0866 0.32484 0.0
O25 O 0.17908 0.05807 0.99023 0.0
O26 O 0.16558 0.03234 0.16183 0.0
O27 O 0.16003 0.15016 0.25197 0.0
C28 C 0.1727 0.01854 1.06003 0.0
H29 H 0.04395 0.10825 0.9124 0.0
H30 H 0.31435 0.11497 0.14196 0.0
H31 H 0.12171 0.29067 0.99171 0.0
H32 H 0.19569 0.20983 0.76564 0.0
Co33 Co 0.40589 0.88182 0.65512 0.0
C34 C 0.48841 0.86805 0.60402 0.0
C35 C 0.47739 0.94524 0.68072 0.0
C36 C 0.51558 0.94078 0.66754 0.0
N37 N 0.45993 0.8994 0.64161 0.0
N38 N 0.52217 0.89195 0.62054 0.0
H39 H 0.48526 0.82687 0.57205 0.0
H40 H 0.46387 0.97898 0.72173 0.0
C41 C 0.43804 0.8029 0.82189 0.0
O42 O 0.46511 0.7923 0.75278 0.0
N43 N 0.35288 0.86669 0.67731 0.0
C44 C 0.3249 0.85821 0.60428 0.0
C45 C 0.29114 0.85632 0.66151 0.0
C46 C 0.33596 0.87015 0.77705 0.0
N47 N 0.29848 0.86392 0.76984 0.0
C48 C 0.42486 0.82995 0.45628 0.0
C49 C 0.41059 0.72132 0.51077 0.0
C50 C 0.4275 0.73401 0.40838 0.0
C51 C 0.4338 0.78924 0.38165 0.0
C52 C 0.40288 0.76412 0.58604 0.0
N53 N 0.41158 0.81763 0.55947 0.0
H54 H 0.43149 0.87184 0.43285 0.0
H55 H 0.39034 0.75424 0.66502 0.0
H56 H 0.32861 0.85503 0.51595 0.0
H57 H 0.35071 0.87918 0.85297 0.0
O58 O 0.39535 0.93228 0.53686 0.0
O59 O 0.39751 0.95531 0.71338 0.0
O60 O 0.41392 0.83921 0.79769 0.0
C61 C 0.39343 0.97024 0.61023 0.0
H62 H 0.53681 0.96921 0.69745 0.0
H63 H 0.26355 0.85027 0.62613 0.0
H64 H 0.40406 0.67902 0.53297 0.0
H65 H 0.44551 0.80139 0.30251 0.0
Co66 Co 0.16269 0.87369 0.96542 0.0
C67 C 0.081 0.86846 1.03656 0.0
C68 C 0.09156 0.90975 0.88198 0.0
C69 C 0.05363 0.90804 0.89867 0.0
N70 N 0.10889 0.88481 0.96722 0.0
N71 N 0.04697 0.8818 0.995 0.0
H72 H 0.08529 0.84552 0.11225 0.0
H73 H 0.10568 0.9265 0.81006 0.0
C74 C 0.17337 0.78996 0.7989 0.0
O75 O 0.19634 0.76784 0.87102 0.0
N76 N 0.21743 0.8666 0.94962 0.0
C77 C 0.24581 0.86238 1.02332 0.0
C78 C 0.27961 0.86086 0.96688 0.0
C79 C 0.23497 0.87105 0.85021 0.0
N80 N 0.2724 0.86567 0.85809 0.0
C81 C 0.1747 0.79594 0.14058 0.0
C82 C 0.12438 0.71546 0.07157 0.0
C83 C 0.14517 0.70619 0.16793 0.0
C84 C 0.1709 0.74725 0.2006 0.0
C85 C 0.13004 0.76454 1.01125 0.0
N86 N 0.15584 0.80351 1.04442 0.0
H87 H 0.19195 0.82832 0.1739 0.0
H88 H 0.11304 0.77168 0.93881 0.0
H89 H 0.2431 0.86242 0.11183 0.0
H90 H 0.22054 0.87839 0.77308 0.0
O91 O 0.16842 0.92089 0.09222 0.0
O92 O 0.16916 0.94935 0.91763 0.0
O93 O 0.15656 0.83478 0.8203 0.0
C94 C 0.17081 0.96141 1.02238 0.0
H95 H 1.03267 0.92346 0.8423 0.0
H96 H 0.30717 0.8568 1.00318 0.0
H97 H 0.10369 0.68564 1.04374 0.0
H98 H 0.18781 0.74277 0.27363 0.0
Co99 Co 0.39493 0.11646 0.52053 0.0
C100 C 0.47653 0.1078 0.4879 0.0
C101 C 0.46351 0.12458 0.6574 0.0
C102 C 0.50191 0.11991 0.64795 0.0
N103 N 0.44781 0.11752 0.55686 0.0
N104 N 0.50973 0.10933 0.54153 0.0
H105 H 0.47308 0.09915 0.40098 0.0
H106 H 0.44808 0.13182 0.73262 0.0
C107 C 0.38422 0.19673 0.34151 0.0
O108 O 0.35539 0.21294 0.39972 0.0
N109 N 0.34209 0.11203 0.4788 0.0
C110 C 0.31014 0.11609 0.53788 0.0
C111 C 0.27986 0.10855 0.46778 0.0
C112 C 0.33065 0.09985 0.37502 0.0
N113 N 0.29308 0.09901 0.36557 0.0
C114 C 0.37312 0.18417 0.69929 0.0
C115 C 0.42384 0.26848 0.65232 0.0
C116 C 0.40814 0.26464 0.75719 0.0
C117 C 0.38161 0.22313 0.77931 0.0
C118 C 0.41523 0.2278 0.57509 0.0
N119 N 0.39069 0.18551 0.59959 0.0
H120 H 0.35625 0.14915 0.72357 0.0
H121 H 0.43221 0.22661 0.50179 0.0
H122 H 0.30829 0.12378 0.62511 0.0
H123 H 0.34963 0.09314 0.30696 0.0
O124 O 0.38616 0.06685 0.64364 0.0
O125 O 0.39924 0.04146 0.47213 0.0
O126 O 0.40524 0.158 0.37745 0.0
C127 C 0.39204 0.02758 0.57431 0.0
H128 H 0.52221 0.12241 0.71417 0.0
H129 H 0.2506 0.11109 0.48994 0.0
H130 H 0.44527 0.29915 0.6339 0.0
H131 H 0.36974 0.21769 0.86057 0.0
Co132 Co 0.89712 0.86534 0.99646 0.0
C133 C 0.97848 0.87215 0.97997 0.0
C134 C 0.96355 0.83639 0.1362 0.0
C135 C 1.00221 0.84335 0.13296 0.0
N136 N 0.94896 0.85321 1.03872 0.0
N137 N 1.01113 0.86599 1.03451 0.0
H138 H 0.97575 0.89087 0.89924 0.0
H139 H 0.94725 0.82192 0.20606 0.0
C140 C 0.92524 0.79028 0.80898 0.0
O141 O 0.95806 0.77998 0.85275 0.0
N142 N 0.84597 0.88139 0.94666 0.0
C143 C 0.82099 0.91609 0.99236 0.0
C144 C 0.79338 0.92822 0.91597 0.0
C145 C 0.83303 0.87374 0.84234 0.0
N146 N 0.8016 0.90205 0.82155 0.0
C147 C 0.90193 0.75113 0.06734 0.0
C148 C 0.8436 0.75887 0.21559 0.0
C149 C 0.8672 0.71318 0.2212 0.0
C150 C 0.8957 0.70841 0.14293 0.0
C151 C 0.85134 0.80107 0.14053 0.0
N152 N 0.88096 0.79786 0.07006 0.0
H153 H 0.92592 0.74837 1.01465 0.0
H154 H 0.83517 0.83817 0.14517 0.0
H155 H 0.82338 0.93368 0.07388 0.0
H156 H 0.84645 0.84922 0.78049 0.0
O157 O 0.89263 0.91325 0.12195 0.0
O158 O 0.91064 0.94008 0.95431 0.0
O159 O 0.90266 0.82361 0.85372 0.0
C160 C 0.90346 0.95275 1.05691 0.0
H161 H 1.02183 0.83422 0.19852 0.0
H162 H 0.76977 0.95504 0.92826 0.0
H163 H 0.82107 0.76429 0.27427 0.0
H164 H 0.91449 0.67369 0.14427 0.0
Co165 Co 0.66252 0.09691 0.46999 0.0
C166 C 0.57926 0.11012 0.53966 0.0
C167 C 0.58947 0.06999 0.38598 0.0
C168 C 0.55145 0.07274 0.40004 0.0
N169 N 0.60747 0.0932 0.47277 0.0
N170 N 0.54521 0.09785 0.49639 0.0
H171 H 0.58243 0.13217 0.61569 0.0
H172 H 0.60334 0.05275 0.31502 0.0
C173 C 0.64155 0.18069 0.30801 0.0
O174 O 0.61852 0.19928 0.38328 0.0
N175 N 0.71644 0.09721 0.44846 0.0
C176 C 0.74552 0.10282 0.5188 0.0
C177 C 0.77857 0.10085 0.45818 0.0
C178 C 0.73202 0.09124 0.34733 0.0
N179 N 0.76964 0.09379 0.35062 0.0
C180 C 0.65001 0.16508 0.65621 0.0
C181 C 0.69532 0.25275 0.59542 0.0
C182 C 0.67716 0.25387 0.69814 0.0
C183 C 0.65329 0.21003 0.72615 0.0
C184 C 0.68875 0.20841 0.52339 0.0
N185 N 0.66568 0.16547 0.55364 0.0
H186 H 0.63651 0.12837 0.68795 0.0
H187 H 0.7039 0.20705 0.44627 0.0
H188 H 0.74293 0.1087 0.60689 0.0
H189 H 0.71609 0.08485 0.27242 0.0
O190 O 0.66598 0.04909 0.5963 0.0
O191 O 0.66214 0.02089 0.4225 0.0
O192 O 0.6595 0.13672 0.32544 0.0
C193 C 0.66466 0.00879 0.52749 0.0
H194 H 0.53017 0.05749 0.34398 0.0
H195 H 0.80672 0.10539 0.49047 0.0
H196 H 0.7153 0.28479 0.57268 0.0
H197 H 0.63959 0.20778 0.80545 0.0
Co198 Co 0.90225 0.09833 0.14997 0.0
C199 C 0.98585 0.10377 0.08354 0.0
C200 C 0.97397 0.08975 0.25464 0.0
C201 C 1.01203 0.09006 0.24206 0.0
N202 N 0.95707 0.09984 0.15664 0.0
N203 N 1.01941 0.09903 0.13489 0.0
H204 H 0.98313 0.10807 0.9956 0.0
H205 H 0.9593 0.08171 0.33125 0.0
C206 C 0.91814 0.18554 0.30928 0.0
O207 O 0.94204 0.20507 0.23599 0.0
N208 N 0.84809 0.09356 0.1633 0.0
C209 C 0.81973 0.10327 0.09242 0.0
C210 C 0.78631 0.10252 0.15177 0.0
C211 C 0.83167 0.08611 0.26309 0.0
N212 N 0.79434 0.09219 0.25898 0.0
C213 C 0.91695 0.16892 0.96441 0.0
C214 C 0.86894 0.25262 1.01847 0.0
C215 C 0.88889 0.25607 0.91885 0.0
C216 C 0.91387 0.21415 0.89392 0.0
C217 C 0.87475 0.20795 0.09059 0.0
N218 N 0.89895 0.16678 0.06363 0.0
H219 H 0.93151 0.13373 0.9343 0.0
H220 H 0.85835 0.20511 0.16542 0.0
H221 H 0.82316 0.11304 1.00575 0.0
H222 H 0.84703 0.07826 0.33843 0.0
O223 O 0.90277 0.04966 1.02543 0.0
O224 O 0.90415 0.02236 0.20057 0.0
O225 O 0.90123 0.13996 0.2927 0.0
C226 C 0.90415 0.00962 0.0958 0.0
H227 H 1.03252 0.08322 0.30638 0.0
H228 H 0.75875 0.11149 0.1195 0.0
H229 H 0.84823 0.28316 1.03877 0.0
H230 H 0.92854 0.21354 0.81597 0.0
Co231 Co 0.67301 0.86488 0.62617 0.0
C232 C 0.59116 0.88986 0.61135 0.0
C233 C 0.60114 0.80351 0.63403 0.0
C234 C 0.56299 0.81127 0.62957 0.0
N235 N 0.61893 0.85258 0.62073 0.0
N236 N 0.55707 0.86547 0.61543 0.0
H237 H 0.59533 0.93387 0.60423 0.0
H238 H 0.61495 0.7647 0.64828 0.0
C239 C 0.69877 0.80557 0.83875 0.0
O240 O 0.73426 0.81485 0.81904 0.0
N241 N 0.72658 0.87961 0.63559 0.0
C242 C 0.75512 0.85802 0.57808 0.0
C243 C 0.78811 0.86982 0.63325 0.0
C244 C 0.74281 0.90853 0.71825 0.0
N245 N 0.78002 0.89999 0.72344 0.0
C246 C 0.66051 0.79279 0.4482 0.0
C247 C 0.70529 0.70746 0.51781 0.0
C248 C 0.686 0.70319 0.41753 0.0
C249 C 0.66271 0.74581 0.38388 0.0
C250 C 0.70128 0.75454 0.58178 0.0
N251 N 0.67963 0.79695 0.54564 0.0
H252 H 0.64324 0.82623 0.41966 0.0
H253 H 0.71726 0.75766 0.65652 0.0
H254 H 0.75214 0.83175 0.50682 0.0
H255 H 0.72688 0.92659 0.78451 0.0
O256 O 0.67119 0.91247 0.49899 0.0
O257 O 0.66532 0.93995 0.67289 0.0
O258 O 0.67295 0.82289 0.77324 0.0
C259 C 0.66705 0.95238 0.56771 0.0
H260 H 0.54143 0.78005 0.64111 0.0
H261 H 0.81523 0.85292 0.61397 0.0
H262 H 0.72437 0.67564 0.54439 0.0
H263 H 0.64829 0.74449 0.30519 0.0
Co264 Co 0.67409 0.59847 0.12866 0.0
C265 C 0.59035 0.58283 0.11569 0.0
C266 C 0.60738 0.66782 0.11325 0.0
C267 C 0.56896 0.66564 0.11559 0.0
N268 N 0.6211 0.61609 0.11047 0.0
N269 N 0.55846 0.61236 0.11764 0.0
H270 H 0.59106 0.53845 0.12259 0.0
H271 H 0.62415 0.70505 0.11927 0.0
C272 C 0.69644 0.66124 0.33804 0.0
O273 O 0.73233 0.65656 0.31893 0.0
N274 N 0.72648 0.57974 0.15676 0.0
C275 C 0.75776 0.59672 0.10374 0.0
C276 C 0.78846 0.58508 0.16964 0.0
C277 C 0.7388 0.55511 0.25105 0.0
N278 N 0.77639 0.56016 0.26349 0.0
C279 C 0.66928 0.66723 0.94219 0.0
C280 C 0.70995 0.75672 1.01647 0.0
C281 C 0.69073 0.76039 0.91577 0.0
C282 C 0.67026 0.715 0.87872 0.0
C283 C 0.70704 0.70856 0.07995 0.0
N284 N 0.68638 0.66463 1.04328 0.0
H285 H 0.65279 0.63291 0.91214 0.0
H286 H 0.722 0.70703 0.15626 0.0
H287 H 0.75817 0.62032 1.02777 0.0
H288 H 0.72019 0.54148 0.31649 0.0
O289 O 0.6731 0.54971 1.00316 0.0
O290 O 0.66092 0.524 0.1753 0.0
O291 O 0.67158 0.64112 0.27252 0.0
C292 C 0.66432 0.51071 0.07113 0.0
H293 H 0.55038 0.70032 0.12279 0.0
H294 H 0.81687 0.59936 0.15479 0.0
H295 H 0.72751 0.79049 1.04494 0.0
H296 H 0.65641 0.71547 0.79908 0.0
Co297 Co 0.90117 0.36784 0.63549 0.0
C298 C 0.98356 0.38483 0.58693 0.0
C299 C 0.97066 0.30219 0.63674 0.0
C300 C 1.00876 0.30641 0.62222 0.0
N301 N 0.95434 0.35095 0.61297 0.0
N302 N 1.01674 0.35832 0.59136 0.0
H303 H 0.98119 0.42842 0.57041 0.0
H304 H 0.95674 0.26658 0.67118 0.0
C305 C 0.87821 0.29548 0.83119 0.0
O306 O 0.84459 0.28969 0.78843 0.0
N307 N 0.84862 0.38489 0.66354 0.0
C308 C 0.81833 0.37612 0.59891 0.0
C309 C 0.78632 0.38518 0.66019 0.0
C310 C 0.83456 0.40123 0.7619 0.0
N311 N 0.79665 0.40014 0.763 0.0
C312 C 0.88302 0.31388 0.43653 0.0
C313 C 0.9008 0.20871 0.5032 0.0
C314 C 0.90327 0.22301 0.39172 0.0
C315 C 0.89191 0.27504 0.35786 0.0
C316 C 0.89276 0.24977 0.58001 0.0
N317 N 0.88778 0.30319 0.54657 0.0
H318 H 0.87531 0.354 0.40682 0.0
H319 H 0.89473 0.23878 0.66518 0.0
H320 H 0.81899 0.36068 0.51562 0.0
H321 H 0.85172 0.40834 0.83425 0.0
O322 O 0.90239 0.42008 0.51374 0.0
O323 O 0.91414 0.44267 0.6859 0.0
O324 O 0.9036 0.32368 0.78006 0.0
C325 C 0.91034 0.45829 0.58291 0.0
H326 H 1.02918 0.27529 0.6422 0.0
H327 H 0.75785 0.37662 0.63391 0.0
H328 H 0.90793 0.16772 0.53137 0.0
H329 H 0.89135 0.2865 0.27129 0.0
Co330 Co 0.66803 0.36379 0.98171 0.0
C331 C 0.58662 0.38471 1.03422 0.0
C332 C 0.59563 0.30333 0.97363 0.0
C333 C 0.55781 0.30948 0.98985 0.0
N334 N 0.61415 0.35003 1.00273 0.0
N335 N 0.55226 0.36059 1.02747 0.0
H336 H 0.59114 0.42715 1.05742 0.0
H337 H 0.60806 0.26794 0.9359 0.0
C338 C 0.68895 0.29275 0.78522 0.0
O339 O 0.72257 0.28644 0.82698 0.0
N340 N 0.72122 0.37838 0.95502 0.0
C341 C 0.75131 0.36726 1.01859 0.0
C342 C 0.78353 0.37878 0.95859 0.0
C343 C 0.73557 0.39817 0.85887 0.0
N344 N 0.77344 0.39756 0.8579 0.0
C345 C 0.68223 0.30815 0.18177 0.0
C346 C 0.65964 0.20491 0.11415 0.0
C347 C 0.65648 0.21902 0.22529 0.0
C348 C 0.66989 0.27016 0.25969 0.0
C349 C 0.67064 0.24556 1.03788 0.0
N350 N 0.67816 0.29823 0.07143 0.0
H351 H 0.69222 0.34723 0.21195 0.0
H352 H 0.66974 0.23518 0.95267 0.0
H353 H 0.75023 0.34921 0.10021 0.0
H354 H 0.71853 0.40827 0.78781 0.0
O355 O 0.6687 0.4148 0.10317 0.0
O356 O 0.65845 0.43905 0.9302 0.0
O357 O 0.66428 0.32067 0.83719 0.0
C358 C 0.66278 0.45359 1.03335 0.0
H359 H 0.53599 0.28016 0.96802 0.0
H360 H 0.81191 0.37001 0.98411 0.0
H361 H 0.65139 0.16432 0.08577 0.0
H362 H 0.67011 0.28139 0.34606 0.0
Co363 Co 0.89869 0.6045 0.48841 0.0
C364 C 0.98224 0.59723 0.52263 0.0
C365 C 0.96669 0.66968 0.43353 0.0
C366 C 1.00504 0.66816 0.43675 0.0
N367 N 0.95187 0.62609 0.48971 0.0
N368 N 1.01466 0.62255 0.49189 0.0
H369 H 0.98096 0.55717 0.56193 0.0
H370 H 0.95134 0.69836 0.38332 0.0
C371 C 0.86484 0.67551 0.31682 0.0
O372 O 0.8374 0.68212 0.38758 0.0
N373 N 0.84628 0.58097 0.47214 0.0
C374 C 0.81474 0.59025 0.5302 0.0
C375 C 0.78399 0.57704 0.46394 0.0
C376 C 0.83415 0.56066 0.37403 0.0
N377 N 0.79651 0.55941 0.36497 0.0
C378 C 0.88221 0.66241 0.68543 0.0
C379 C 0.90972 0.76352 0.61505 0.0
C380 C 0.90944 0.75156 0.72766 0.0
C381 C 0.89338 0.70172 0.76315 0.0
C382 C 0.89844 0.72291 0.53996 0.0
N383 N 0.88791 0.67106 0.57502 0.0
H384 H 0.87223 0.62298 0.71547 0.0
H385 H 0.90156 0.73289 0.45415 0.0
H386 H 0.81377 0.61006 0.60974 0.0
H387 H 0.85274 0.55325 0.30529 0.0
O388 O 0.90531 0.55537 0.6143 0.0
O389 O 0.91137 0.53022 0.44071 0.0
O390 O 0.89274 0.64513 0.34272 0.0
C391 C 0.91076 0.51619 0.54522 0.0
H392 H 1.02421 0.69515 0.39235 0.0
H393 H 0.755 0.58519 0.48328 0.0
H394 H 0.92041 0.80276 0.58494 0.0
H395 H 0.89112 0.69208 0.85033 0.0
Co396 Co 0.40011 0.38436 1.00608 0.0
C397 C 0.48308 0.36156 1.04065 0.0
C398 C 0.47253 0.44703 1.01543 0.0
C399 C 0.51071 0.44018 1.02004 0.0
N400 N 0.45456 0.39786 1.02953 0.0
N401 N 0.51716 0.38652 1.03599 0.0
H402 H 0.47952 0.31777 1.051 0.0
H403 H 0.45948 0.48573 0.99618 0.0
C404 C 0.42317 0.29705 0.8489 0.0
O405 O 0.43913 0.27001 0.92967 0.0
N406 N 0.34721 0.37407 0.9678 0.0
C407 C 0.31634 0.36877 1.03141 0.0
C408 C 0.2851 0.36464 0.96301 0.0
C409 C 0.33423 0.37405 0.86222 0.0
N410 N 0.29669 0.36782 0.85691 0.0
C411 C 0.42028 0.31924 0.19105 0.0
C412 C 0.37423 0.22969 0.1499 0.0
C413 C 0.39518 0.23128 0.2476 0.0
C414 C 0.41886 0.2762 0.26695 0.0
C415 C 0.37737 0.27315 0.07394 0.0
N416 N 0.40077 0.31694 0.09403 0.0
H417 H 0.43573 0.35602 0.21344 0.0
H418 H 0.35969 0.27286 1.00192 0.0
H419 H 0.31646 0.36794 0.12069 0.0
H420 H 0.35179 0.37994 0.79035 0.0
O421 O 0.38806 0.43028 0.13005 0.0
O422 O 0.395 0.45995 0.95758 0.0
O423 O 0.41127 0.34581 0.86283 0.0
C424 C 0.38842 0.4711 0.06152 0.0
H425 H 0.53195 0.47156 1.0053 0.0
H426 H 0.2563 0.35965 0.98947 0.0
H427 H 0.35398 0.19698 0.13558 0.0
H428 H 0.43367 0.2806 0.34441 0.0
Co429 Co 0.16658 0.60885 0.46325 0.0
C430 C 0.08378 0.62666 0.48623 0.0
C431 C 0.09628 0.54167 0.4611 0.0
C432 C 0.05811 0.54617 0.47243 0.0
N433 N 0.11278 0.59183 0.47301 0.0
N434 N 0.05059 0.59931 0.48993 0.0
H435 H 0.08668 0.67097 0.49133 0.0
H436 H 0.11045 0.50399 0.44148 0.0
C437 C 0.13977 0.65645 0.23926 0.0
O438 O 0.11573 0.61701 0.21474 0.0
N439 N 0.21944 0.62444 0.44332 0.0
C440 C 0.24687 0.63412 0.51757 0.0
C441 C 0.28027 0.6421 0.46083 0.0
C442 C 0.23627 0.62639 0.34336 0.0
N443 N 0.27313 0.63751 0.35171 0.0
C444 C 0.1432 0.66605 0.65057 0.0
C445 C 0.1787 0.76521 0.60247 0.0
C446 C 0.16233 0.75649 0.70585 0.0
C447 C 0.14341 0.70724 0.72861 0.0
C448 C 0.17749 0.7227 0.52553 0.0
N449 N 0.16045 0.67369 0.55126 0.0
H450 H 0.13086 0.62658 0.6722 0.0
H451 H 0.19308 0.72737 0.45015 0.0
H452 H 0.24291 0.63511 0.60605 0.0
H453 H 0.22198 0.61841 0.2662 0.0
O454 O 0.17671 0.56084 0.58579 0.0
O455 O 0.17595 0.53427 0.41131 0.0
O456 O 0.15868 0.65476 0.32806 0.0
C457 C 0.18035 0.52164 0.51608 0.0
H458 H 0.03737 0.51368 0.46235 0.0
H459 H 0.3075 0.6505 0.49683 0.0
H460 H 0.19492 0.80226 0.5851 0.0
H461 H 0.13163 0.69876 0.80937 0.0
Co462 Co 0.4057 0.61399 0.15715 0.0
C463 C 0.48978 0.62025 0.1152 0.0
C464 C 0.47313 0.54681 0.20088 0.0
C465 C 0.51154 0.54647 0.18933 0.0
N466 N 0.45896 0.59269 0.1528 0.0
N467 N 0.52162 0.59253 0.135 0.0
H468 H 0.48974 0.66093 0.07911 0.0
H469 H 0.45706 0.51583 0.24504 0.0
C470 C 0.43711 0.69242 0.32397 0.0
O471 O 0.46386 0.70441 0.25337 0.0
N472 N 0.35352 0.63263 0.17357 0.0
C473 C 0.32636 0.64334 0.09927 0.0
C474 C 0.29258 0.64789 0.15556 0.0
C475 C 0.33619 0.63057 0.27263 0.0
N476 N 0.29935 0.64003 0.26424 0.0
C477 C 0.43072 0.66691 0.96497 0.0
C478 C 0.41131 0.77405 1.00908 0.0
C479 C 0.42982 0.76192 0.90955 0.0
C480 C 0.43906 0.70747 0.88842 0.0
C481 C 0.40431 0.73145 0.08671 0.0
N482 N 0.41547 0.67887 0.06526 0.0
H483 H 0.43842 0.62536 0.94468 0.0
H484 H 0.38977 0.74051 0.16263 0.0
H485 H 0.33055 0.64609 1.01098 0.0
H486 H 0.34996 0.6195 0.34903 0.0
O487 O 0.39447 0.56719 1.03347 0.0
O488 O 0.39269 0.53963 0.20752 0.0
O489 O 0.4139 0.65374 0.30238 0.0
C490 C 0.38953 0.52755 0.1027 0.0
H491 H 0.53057 0.51618 0.22248 0.0
H492 H 0.26536 0.65547 0.11947 0.0
H493 H 0.40257 0.81563 1.02662 0.0
H494 H 0.45204 0.69557 0.81143 0.0
Co495 Co 0.17014 0.37787 0.61709 0.0
C496 C 0.08608 0.35733 0.57922 0.0
C497 C 0.09905 0.43891 0.63285 0.0
C498 C 0.06083 0.43376 0.62638 0.0
N499 N 0.11567 0.39154 0.60099 0.0
N500 N 0.0528 0.38278 0.59188 0.0
H501 H 0.08828 0.31444 0.55784 0.0
H502 H 0.1131 0.47502 0.66471 0.0
C503 C 0.14493 0.29151 0.77758 0.0
O504 O 0.1257 0.26755 0.69883 0.0
N505 N 0.22325 0.36808 0.6503 0.0
C506 C 0.25376 0.36091 0.58645 0.0
C507 C 0.28531 0.35941 0.65437 0.0
C508 C 0.23672 0.37178 0.75489 0.0
N509 N 0.27416 0.36613 0.76004 0.0
C510 C 0.1485 0.31364 0.43267 0.0
C511 C 0.19101 0.22217 0.47785 0.0
C512 C 0.17066 0.22456 0.379 0.0
C513 C 0.14882 0.2706 0.35757 0.0
C514 C 0.18913 0.26584 0.55264 0.0
N515 N 0.1674 0.31051 0.53062 0.0
H516 H 0.13426 0.35097 0.40945 0.0
H517 H 0.20676 0.26533 0.62478 0.0
H518 H 0.25322 0.35728 0.49751 0.0
H519 H 0.21949 0.38014 0.82606 0.0
O520 O 0.18095 0.42424 0.49061 0.0
O521 O 0.17715 0.45356 0.66303 0.0
O522 O 0.16039 0.33852 0.76185 0.0
C523 C 0.18177 0.46504 0.55802 0.0
H524 H 0.04054 0.46385 0.65213 0.0
H525 H 0.31397 0.35386 0.62794 0.0
H526 H 0.21006 0.18872 0.49374 0.0
H527 H 0.13466 0.27565 0.27918 0.0
loop_
_geom_bond_atom_site_label_1
_geom_bond_atom_site_label_2
_geom_bond_distance
_geom_bond_site_symmetry_2
_ccdc_geom_bond_type
Co0 N4 2.148 . S
Co0 N10 2.128 . S
Co0 N20 2.194 1_554 S
Co0 O25 2.351 1_554 S
Co0 O26 2.155 . S
Co0 O27 2.096 . S
C1 N4 1.301 . S
C1 N5 1.328 . S
C1 H6 0.930 1_554 S
C2 C3 1.333 . S
C2 N4 1.317 . S
C2 H7 0.930 . S
C3 C2 1.333 . S
C3 N5 1.350 . S
C3 H29 0.931 . S
N4 Co0 2.148 . S
N4 C1 1.301 . S
N4 C2 1.317 . S
N5 C1 1.328 . S
N5 C3 1.350 . S
H6 C1 0.930 1_556 S
H7 C2 0.930 . S
C8 O9 1.224 . S
C8 O27 1.247 . S
O9 C8 1.224 . S
N10 Co0 2.128 . S
N10 C11 1.355 . S
N10 C13 1.311 . S
C11 N10 1.355 . S
C11 C12 1.363 . S
C11 H23 0.929 1_554 S
C12 C11 1.363 . S
C12 N14 1.375 . S
C12 H30 0.931 . S
C13 N10 1.311 . S
C13 N14 1.347 . S
C13 H24 0.929 . S
N14 C12 1.375 . S
N14 C13 1.347 . S
C15 C18 1.365 . S
C15 N20 1.328 . S
C15 H21 0.929 . S
C16 C17 1.362 . S
C16 C19 1.378 . S
C16 H31 0.929 . S
C17 C16 1.362 . S
C17 C18 1.366 . S
C18 C15 1.365 . S
C18 C17 1.366 . S
C18 H32 0.930 . S
C19 C16 1.378 . S
C19 N20 1.315 . S
C19 H22 0.930 1_556 S
N20 Co0 2.194 1_556 S
N20 C15 1.328 . S
N20 C19 1.315 . S
H21 C15 0.929 . S
H22 C19 0.930 1_554 S
H23 C11 0.929 1_556 S
H24 C13 0.929 . S
O25 Co0 2.351 1_556 S
O25 C28 1.244 1_556 S
O26 Co0 2.155 . S
O26 C28 1.240 . S
O27 Co0 2.096 . S
O27 C8 1.247 . S
C28 O25 1.244 1_554 S
C28 O26 1.240 . S
H29 C3 0.931 . S
H30 C12 0.931 . S
H31 C16 0.929 . S
H32 C18 0.930 . S
Co33 N37 2.148 . S
Co33 N43 2.128 . S
Co33 N53 2.194 . S
Co33 O58 2.351 . S
Co33 O59 2.155 . S
Co33 O60 2.096 . S
C34 N37 1.301 . S
C34 N38 1.328 . S
C34 H39 0.930 . S
C35 C36 1.333 . S
C35 N37 1.317 . S
C35 H40 0.930 . S
C36 C35 1.333 . S
C36 N38 1.350 . S
C36 H62 0.931 . S
N37 Co33 2.148 . S
N37 C34 1.301 . S
N37 C35 1.317 . S
N38 C34 1.328 . S
N38 C36 1.350 . S
H39 C34 0.930 . S
H40 C35 0.930 . S
C41 O42 1.224 . S
C41 O60 1.247 . S
O42 C41 1.224 . S
N43 Co33 2.128 . S
N43 C44 1.355 . S
N43 C46 1.311 . S
C44 N43 1.355 . S
C44 C45 1.363 . S
C44 H56 0.929 . S
C45 C44 1.363 . S
C45 N47 1.375 . S
C45 H63 0.931 . S
C46 N43 1.311 . S
C46 N47 1.347 . S
C46 H57 0.929 . S
N47 C45 1.375 . S
N47 C46 1.347 . S
C48 C51 1.365 . S
C48 N53 1.328 . S
C48 H54 0.929 . S
C49 C50 1.362 . S
C49 C52 1.378 . S
C49 H64 0.929 . S
C50 C49 1.362 . S
C50 C51 1.366 . S
C51 C48 1.365 . S
C51 C50 1.366 . S
C51 H65 0.930 . S
C52 C49 1.378 . S
C52 N53 1.315 . S
C52 H55 0.930 . S
N53 Co33 2.194 . S
N53 C48 1.328 . S
N53 C52 1.315 . S
H54 C48 0.929 . S
H55 C52 0.930 . S
H56 C44 0.929 . S
H57 C46 0.929 . S
O58 Co33 2.351 . S
O58 C61 1.244 . S
O59 Co33 2.155 . S
O59 C61 1.240 . S
O60 Co33 2.096 . S
O60 C41 1.247 . S
C61 O58 1.244 . S
C61 O59 1.240 . S
H62 C36 0.931 . S
H63 C45 0.931 . S
H64 C49 0.929 . S
H65 C51 0.930 . S
Co66 N70 2.148 . S
Co66 N76 2.128 . S
Co66 N86 2.194 1_556 S
Co66 O91 2.351 1_556 S
Co66 O92 2.155 . S
Co66 O93 2.096 . S
C67 N70 1.301 . S
C67 N71 1.328 . S
C67 H72 0.930 1_556 S
C68 C69 1.333 . S
C68 N70 1.317 . S
C68 H73 0.930 . S
C69 C68 1.333 . S
C69 N71 1.350 . S
C69 H95 0.931 . S
N70 Co66 2.148 . S
N70 C67 1.301 . S
N70 C68 1.317 . S
N71 C67 1.328 . S
N71 C69 1.350 . S
H72 C67 0.930 1_554 S
H73 C68 0.930 . S
C74 O75 1.224 . S
C74 O93 1.247 . S
O75 C74 1.224 . S
N76 Co66 2.128 . S
N76 C77 1.355 . S
N76 C79 1.311 . S
C77 N76 1.355 . S
C77 C78 1.363 . S
C77 H89 0.929 1_556 S
C78 C77 1.363 . S
C78 N80 1.375 . S
C78 H96 0.931 . S
C79 N76 1.311 . S
C79 N80 1.347 . S
C79 H90 0.929 . S
N80 C78 1.375 . S
N80 C79 1.347 . S
C81 C84 1.365 . S
C81 N86 1.328 . S
C81 H87 0.929 . S
C82 C83 1.362 . S
C82 C85 1.378 . S
C82 H97 0.929 . S
C83 C82 1.362 . S
C83 C84 1.366 . S
C84 C81 1.365 . S
C84 C83 1.366 . S
C84 H98 0.930 . S
C85 C82 1.378 . S
C85 N86 1.315 . S
C85 H88 0.930 1_554 S
N86 Co66 2.194 1_554 S
N86 C81 1.328 . S
N86 C85 1.315 . S
H87 C81 0.929 . S
H88 C85 0.930 1_556 S
H89 C77 0.929 1_554 S
H90 C79 0.929 . S
O91 Co66 2.351 1_554 S
O91 C94 1.244 1_554 S
O92 Co66 2.155 . S
O92 C94 1.240 . S
O93 Co66 2.096 . S
O93 C74 1.247 . S
C94 O91 1.244 1_556 S
C94 O92 1.240 . S
H95 C69 0.931 . S
H96 C78 0.931 . S
H97 C82 0.929 . S
H98 C84 0.930 . S
Co99 N103 2.148 . S
Co99 N109 2.128 . S
Co99 N119 2.194 . S
Co99 O124 2.351 . S
Co99 O125 2.155 . S
Co99 O126 2.096 . S
C100 N103 1.301 . S
C100 N104 1.328 . S
C100 H105 0.930 . S
C101 C102 1.333 . S
C101 N103 1.317 . S
C101 H106 0.930 . S
C102 C101 1.333 . S
C102 N104 1.350 . S
C102 H128 0.931 . S
N103 Co99 2.148 . S
N103 C100 1.301 . S
N103 C101 1.317 . S
N104 C100 1.328 . S
N104 C102 1.350 . S
H105 C100 0.930 . S
H106 C101 0.930 . S
C107 O108 1.224 . S
C107 O126 1.247 . S
O108 C107 1.224 . S
N109 Co99 2.128 . S
N109 C110 1.355 . S
N109 C112 1.311 . S
C110 N109 1.355 . S
C110 C111 1.363 . S
C110 H122 0.929 . S
C111 C110 1.363 . S
C111 N113 1.375 . S
C111 H129 0.931 . S
C112 N109 1.311 . S
C112 N113 1.347 . S
C112 H123 0.929 . S
N113 C111 1.375 . S
N113 C112 1.347 . S
C114 C117 1.365 . S
C114 N119 1.328 . S
C114 H120 0.929 . S
C115 C116 1.362 . S
C115 C118 1.378 . S
C115 H130 0.929 . S
C116 C115 1.362 . S
C116 C117 1.366 . S
C117 C114 1.365 . S
C117 C116 1.366 . S
C117 H131 0.930 . S
C118 C115 1.378 . S
C118 N119 1.315 . S
C118 H121 0.930 . S
N119 Co99 2.194 . S
N119 C114 1.328 . S
N119 C118 1.315 . S
H120 C114 0.929 . S
H121 C118 0.930 . S
H122 C110 0.929 . S
H123 C112 0.929 . S
O124 Co99 2.351 . S
O124 C127 1.244 . S
O125 Co99 2.155 . S
O125 C127 1.240 . S
O126 Co99 2.096 . S
O126 C107 1.247 . S
C127 O124 1.244 . S
C127 O125 1.240 . S
H128 C102 0.931 . S
H129 C111 0.931 . S
H130 C115 0.929 . S
H131 C117 0.930 . S
Co132 N136 2.148 . S
Co132 N142 2.128 . S
Co132 N152 2.194 1_556 S
Co132 O157 2.351 1_556 S
Co132 O158 2.155 . S
Co132 O159 2.096 . S
C133 N136 1.301 . S
C133 N137 1.328 . S
C133 H138 0.930 1_556 S
C134 C135 1.333 . S
C134 N136 1.317 . S
C134 H139 0.930 . S
C135 C134 1.333 . S
C135 N137 1.350 . S
C135 H161 0.931 . S
N136 Co132 2.148 . S
N136 C133 1.301 . S
N136 C134 1.317 . S
N137 C133 1.328 . S
N137 C135 1.350 . S
H138 C133 0.930 1_554 S
H139 C134 0.930 . S
C140 O141 1.224 . S
C140 O159 1.247 . S
O141 C140 1.224 . S
N142 Co132 2.128 . S
N142 C143 1.355 . S
N142 C145 1.311 . S
C143 N142 1.355 . S
C143 C144 1.363 . S
C143 H155 0.929 1_556 S
C144 C143 1.363 . S
C144 N146 1.375 . S
C144 H162 0.931 . S
C145 N142 1.311 . S
C145 N146 1.347 . S
C145 H156 0.929 . S
N146 C144 1.375 . S
N146 C145 1.347 . S
C147 C150 1.365 . S
C147 N152 1.328 . S
C147 H153 0.929 . S
C148 C149 1.362 . S
C148 C151 1.378 . S
C148 H163 0.929 . S
C149 C148 1.362 . S
C149 C150 1.366 . S
C150 C147 1.365 . S
C150 C149 1.366 . S
C150 H164 0.930 . S
C151 C148 1.378 . S
C151 N152 1.315 . S
C151 H154 0.930 1_554 S
N152 Co132 2.194 1_554 S
N152 C147 1.328 . S
N152 C151 1.315 . S
H153 C147 0.929 . S
H154 C151 0.930 1_556 S
H155 C143 0.929 1_554 S
H156 C145 0.929 . S
O157 Co132 2.351 1_554 S
O157 C160 1.244 1_554 S
O158 Co132 2.155 . S
O158 C160 1.240 . S
O159 Co132 2.096 . S
O159 C140 1.247 . S
C160 O157 1.244 1_556 S
C160 O158 1.240 . S
H161 C135 0.931 . S
H162 C144 0.931 . S
H163 C148 0.929 . S
H164 C150 0.930 . S
Co165 N169 2.148 . S
Co165 N175 2.128 . S
Co165 N185 2.194 . S
Co165 O190 2.351 . S
Co165 O191 2.155 . S
Co165 O192 2.096 . S
C166 N169 1.301 . S
C166 N170 1.328 . S
C166 H171 0.930 . S
C167 C168 1.333 . S
C167 N169 1.317 . S
C167 H172 0.930 . S
C168 C167 1.333 . S
C168 N170 1.350 . S
C168 H194 0.931 . S
N169 Co165 2.148 . S
N169 C166 1.301 . S
N169 C167 1.317 . S
N170 C166 1.328 . S
N170 C168 1.350 . S
H171 C166 0.930 . S
H172 C167 0.930 . S
C173 O174 1.224 . S
C173 O192 1.247 . S
O174 C173 1.224 . S
N175 Co165 2.128 . S
N175 C176 1.355 . S
N175 C178 1.311 . S
C176 N175 1.355 . S
C176 C177 1.363 . S
C176 H188 0.929 . S
C177 C176 1.363 . S
C177 N179 1.375 . S
C177 H195 0.931 . S
C178 N175 1.311 . S
C178 N179 1.347 . S
C178 H189 0.929 . S
N179 C177 1.375 . S
N179 C178 1.347 . S
C180 C183 1.365 . S
C180 N185 1.328 . S
C180 H186 0.929 . S
C181 C182 1.362 . S
C181 C184 1.378 . S
C181 H196 0.929 . S
C182 C181 1.362 . S
C182 C183 1.366 . S
C183 C180 1.365 . S
C183 C182 1.366 . S
C183 H197 0.930 . S
C184 C181 1.378 . S
C184 N185 1.315 . S
C184 H187 0.930 . S
N185 Co165 2.194 . S
N185 C180 1.328 . S
N185 C184 1.315 . S
H186 C180 0.929 . S
H187 C184 0.930 . S
H188 C176 0.929 . S
H189 C178 0.929 . S
O190 Co165 2.351 . S
O190 C193 1.244 . S
O191 Co165 2.155 . S
O191 C193 1.240 . S
O192 Co165 2.096 . S
O192 C173 1.247 . S
C193 O190 1.244 . S
C193 O191 1.240 . S
H194 C168 0.931 . S
H195 C177 0.931 . S
H196 C181 0.929 . S
H197 C183 0.930 . S
Co198 N202 2.148 . S
Co198 N208 2.128 . S
Co198 N218 2.194 1_554 S
Co198 O223 2.351 1_554 S
Co198 O224 2.155 . S
Co198 O225 2.096 . S
C199 N202 1.301 . S
C199 N203 1.328 . S
C199 H204 0.930 1_554 S
C200 C201 1.333 . S
C200 N202 1.317 . S
C200 H205 0.930 . S
C201 C200 1.333 . S
C201 N203 1.350 . S
C201 H227 0.931 . S
N202 Co198 2.148 . S
N202 C199 1.301 . S
N202 C200 1.317 . S
N203 C199 1.328 . S
N203 C201 1.350 . S
H204 C199 0.930 1_556 S
H205 C200 0.930 . S
C206 O207 1.224 . S
C206 O225 1.247 . S
O207 C206 1.224 . S
N208 Co198 2.128 . S
N208 C209 1.355 . S
N208 C211 1.311 . S
C209 N208 1.355 . S
C209 C210 1.363 . S
C209 H221 0.929 1_554 S
C210 C209 1.363 . S
C210 N212 1.375 . S
C210 H228 0.931 . S
C211 N208 1.311 . S
C211 N212 1.347 . S
C211 H222 0.929 . S
N212 C210 1.375 . S
N212 C211 1.347 . S
C213 C216 1.365 . S
C213 N218 1.328 . S
C213 H219 0.929 . S
C214 C215 1.362 . S
C214 C217 1.378 . S
C214 H229 0.929 . S
C215 C214 1.362 . S
C215 C216 1.366 . S
C216 C213 1.365 . S
C216 C215 1.366 . S
C216 H230 0.930 . S
C217 C214 1.378 . S
C217 N218 1.315 . S
C217 H220 0.930 1_556 S
N218 Co198 2.194 1_556 S
N218 C213 1.328 . S
N218 C217 1.315 . S
H219 C213 0.929 . S
H220 C217 0.930 1_554 S
H221 C209 0.929 1_556 S
H222 C211 0.929 . S
O223 Co198 2.351 1_556 S
O223 C226 1.244 1_556 S
O224 Co198 2.155 . S
O224 C226 1.240 . S
O225 Co198 2.096 . S
O225 C206 1.247 . S
C226 O223 1.244 1_554 S
C226 O224 1.240 . S
H227 C201 0.931 . S
H228 C210 0.931 . S
H229 C214 0.929 . S
H230 C216 0.930 . S
Co231 N235 2.148 . S
Co231 N241 2.128 . S
Co231 N251 2.194 . S
Co231 O256 2.351 . S
Co231 O257 2.155 . S
Co231 O258 2.096 . S
C232 N235 1.301 . S
C232 N236 1.328 . S
C232 H237 0.930 . S
C233 C234 1.333 . S
C233 N235 1.317 . S
C233 H238 0.930 . S
C234 C233 1.333 . S
C234 N236 1.350 . S
C234 H260 0.931 . S
N235 Co231 2.148 . S
N235 C232 1.301 . S
N235 C233 1.317 . S
N236 C232 1.328 . S
N236 C234 1.350 . S
H237 C232 0.930 . S
H238 C233 0.930 . S
C239 O240 1.224 . S
C239 O258 1.247 . S
O240 C239 1.224 . S
N241 Co231 2.128 . S
N241 C242 1.355 . S
N241 C244 1.311 . S
C242 N241 1.355 . S
C242 C243 1.363 . S
C242 H254 0.929 . S
C243 C242 1.363 . S
C243 N245 1.375 . S
C243 H261 0.931 . S
C244 N241 1.311 . S
C244 N245 1.347 . S
C244 H255 0.929 . S
N245 C243 1.375 . S
N245 C244 1.347 . S
C246 C249 1.365 . S
C246 N251 1.328 . S
C246 H252 0.929 . S
C247 C248 1.362 . S
C247 C250 1.378 . S
C247 H262 0.929 . S
C248 C247 1.362 . S
C248 C249 1.366 . S
C249 C246 1.365 . S
C249 C248 1.366 . S
C249 H263 0.930 . S
C250 C247 1.378 . S
C250 N251 1.315 . S
C250 H253 0.930 . S
N251 Co231 2.194 . S
N251 C246 1.328 . S
N251 C250 1.315 . S
H252 C246 0.929 . S
H253 C250 0.930 . S
H254 C242 0.929 . S
H255 C244 0.929 . S
O256 Co231 2.351 . S
O256 C259 1.244 . S
O257 Co231 2.155 . S
O257 C259 1.240 . S
O258 Co231 2.096 . S
O258 C239 1.247 . S
C259 O256 1.244 . S
C259 O257 1.240 . S
H260 C234 0.931 . S
H261 C243 0.931 . S
H262 C247 0.929 . S
H263 C249 0.930 . S
Co264 N268 2.148 . S
Co264 N274 2.128 . S
Co264 N284 2.194 1_554 S
Co264 O289 2.351 1_554 S
Co264 O290 2.155 . S
Co264 O291 2.096 . S
C265 N268 1.301 . S
C265 N269 1.328 . S
C265 H270 0.930 1_554 S
C266 C267 1.333 . S
C266 N268 1.317 . S
C266 H271 0.930 . S
C267 C266 1.333 . S
C267 N269 1.350 . S
C267 H293 0.931 . S
N268 Co264 2.148 . S
N268 C265 1.301 . S
N268 C266 1.317 . S
N269 C265 1.328 . S
N269 C267 1.350 . S
H270 C265 0.930 1_556 S
H271 C266 0.930 . S
C272 O273 1.224 . S
C272 O291 1.247 . S
O273 C272 1.224 . S
N274 Co264 2.128 . S
N274 C275 1.355 . S
N274 C277 1.311 . S
C275 N274 1.355 . S
C275 C276 1.363 . S
C275 H287 0.929 1_554 S
C276 C275 1.363 . S
C276 N278 1.375 . S
C276 H294 0.931 . S
C277 N274 1.311 . S
C277 N278 1.347 . S
C277 H288 0.929 . S
N278 C276 1.375 . S
N278 C277 1.347 . S
C279 C282 1.365 . S
C279 N284 1.328 . S
C279 H285 0.929 . S
C280 C281 1.362 . S
C280 C283 1.378 . S
C280 H295 0.929 . S
C281 C280 1.362 . S
C281 C282 1.366 . S
C282 C279 1.365 . S
C282 C281 1.366 . S
C282 H296 0.930 . S
C283 C280 1.378 . S
C283 N284 1.315 . S
C283 H286 0.930 1_556 S
N284 Co264 2.194 1_556 S
N284 C279 1.328 . S
N284 C283 1.315 . S
H285 C279 0.929 . S
H286 C283 0.930 1_554 S
H287 C275 0.929 1_556 S
H288 C277 0.929 . S
O289 Co264 2.351 1_556 S
O289 C292 1.244 1_556 S
O290 Co264 2.155 . S
O290 C292 1.240 . S
O291 Co264 2.096 . S
O291 C272 1.247 . S
C292 O289 1.244 1_554 S
C292 O290 1.240 . S
H293 C267 0.931 . S
H294 C276 0.931 . S
H295 C280 0.929 . S
H296 C282 0.930 . S
Co297 N301 2.148 . S
Co297 N307 2.128 . S
Co297 N317 2.194 . S
Co297 O322 2.351 . S
Co297 O323 2.155 . S
Co297 O324 2.096 . S
C298 N301 1.301 . S
C298 N302 1.328 . S
C298 H303 0.930 . S
C299 C300 1.333 . S
C299 N301 1.317 . S
C299 H304 0.930 . S
C300 C299 1.333 . S
C300 N302 1.350 . S
C300 H326 0.931 . S
N301 Co297 2.148 . S
N301 C298 1.301 . S
N301 C299 1.317 . S
N302 C298 1.328 . S
N302 C300 1.350 . S
H303 C298 0.930 . S
H304 C299 0.930 . S
C305 O306 1.224 . S
C305 O324 1.247 . S
O306 C305 1.224 . S
N307 Co297 2.128 . S
N307 C308 1.355 . S
N307 C310 1.311 . S
C308 N307 1.355 . S
C308 C309 1.363 . S
C308 H320 0.929 . S
C309 C308 1.363 . S
C309 N311 1.375 . S
C309 H327 0.931 . S
C310 N307 1.311 . S
C310 N311 1.347 . S
C310 H321 0.929 . S
N311 C309 1.375 . S
N311 C310 1.347 . S
C312 C315 1.365 . S
C312 N317 1.328 . S
C312 H318 0.929 . S
C313 C314 1.362 . S
C313 C316 1.378 . S
C313 H328 0.929 . S
C314 C313 1.362 . S
C314 C315 1.366 . S
C315 C312 1.365 . S
C315 C314 1.366 . S
C315 H329 0.930 . S
C316 C313 1.378 . S
C316 N317 1.315 . S
C316 H319 0.930 . S
N317 Co297 2.194 . S
N317 C312 1.328 . S
N317 C316 1.315 . S
H318 C312 0.929 . S
H319 C316 0.930 . S
H320 C308 0.929 . S
H321 C310 0.929 . S
O322 Co297 2.351 . S
O322 C325 1.244 . S
O323 Co297 2.155 . S
O323 C325 1.240 . S
O324 Co297 2.096 . S
O324 C305 1.247 . S
C325 O322 1.244 . S
C325 O323 1.240 . S
H326 C300 0.931 . S
H327 C309 0.931 . S
H328 C313 0.929 . S
H329 C315 0.930 . S
Co330 N334 2.148 . S
Co330 N340 2.128 . S
Co330 N350 2.194 1_556 S
Co330 O355 2.351 1_556 S
Co330 O356 2.155 . S
Co330 O357 2.096 . S
C331 N334 1.301 . S
C331 N335 1.328 . S
C331 H336 0.930 1_556 S
C332 C333 1.333 . S
C332 N334 1.317 . S
C332 H337 0.930 . S
C333 C332 1.333 . S
C333 N335 1.350 . S
C333 H359 0.931 . S
N334 Co330 2.148 . S
N334 C331 1.301 . S
N334 C332 1.317 . S
N335 C331 1.328 . S
N335 C333 1.350 . S
H336 C331 0.930 1_554 S
H337 C332 0.930 . S
C338 O339 1.224 . S
C338 O357 1.247 . S
O339 C338 1.224 . S
N340 Co330 2.128 . S
N340 C341 1.355 . S
N340 C343 1.311 . S
C341 N340 1.355 . S
C341 C342 1.363 . S
C341 H353 0.929 1_556 S
C342 C341 1.363 . S
C342 N344 1.375 . S
C342 H360 0.931 . S
C343 N340 1.311 . S
C343 N344 1.347 . S
C343 H354 0.929 . S
N344 C342 1.375 . S
N344 C343 1.347 . S
C345 C348 1.365 . S
C345 N350 1.328 . S
C345 H351 0.929 . S
C346 C347 1.362 . S
C346 C349 1.378 . S
C346 H361 0.929 . S
C347 C346 1.362 . S
C347 C348 1.366 . S
C348 C345 1.365 . S
C348 C347 1.366 . S
C348 H362 0.930 . S
C349 C346 1.378 . S
C349 N350 1.315 . S
C349 H352 0.930 1_554 S
N350 Co330 2.194 1_554 S
N350 C345 1.328 . S
N350 C349 1.315 . S
H351 C345 0.929 . S
H352 C349 0.930 1_556 S
H353 C341 0.929 1_554 S
H354 C343 0.929 . S
O355 Co330 2.351 1_554 S
O355 C358 1.244 1_554 S
O356 Co330 2.155 . S
O356 C358 1.240 . S
O357 Co330 2.096 . S
O357 C338 1.247 . S
C358 O355 1.244 1_556 S
C358 O356 1.240 . S
H359 C333 0.931 . S
H360 C342 0.931 . S
H361 C346 0.929 . S
H362 C348 0.930 . S
Co363 N367 2.148 . S
Co363 N373 2.128 . S
Co363 N383 2.194 . S
Co363 O388 2.351 . S
Co363 O389 2.155 . S
Co363 O390 2.096 . S
C364 N367 1.301 . S
C364 N368 1.328 . S
C364 H369 0.930 . S
C365 C366 1.333 . S
C365 N367 1.317 . S
C365 H370 0.930 . S
C366 C365 1.333 . S
C366 N368 1.350 . S
C366 H392 0.931 . S
N367 Co363 2.148 . S
N367 C364 1.301 . S
N367 C365 1.317 . S
N368 C364 1.328 . S
N368 C366 1.350 . S
H369 C364 0.930 . S
H370 C365 0.930 . S
C371 O372 1.224 . S
C371 O390 1.247 . S
O372 C371 1.224 . S
N373 Co363 2.128 . S
N373 C374 1.355 . S
N373 C376 1.311 . S
C374 N373 1.355 . S
C374 C375 1.363 . S
C374 H386 0.929 . S
C375 C374 1.363 . S
C375 N377 1.375 . S
C375 H393 0.931 . S
C376 N373 1.311 . S
C376 N377 1.347 . S
C376 H387 0.929 . S
N377 C375 1.375 . S
N377 C376 1.347 . S
C378 C381 1.365 . S
C378 N383 1.328 . S
C378 H384 0.929 . S
C379 C380 1.362 . S
C379 C382 1.378 . S
C379 H394 0.929 . S
C380 C379 1.362 . S
C380 C381 1.366 . S
C381 C378 1.365 . S
C381 C380 1.366 . S
C381 H395 0.930 . S
C382 C379 1.378 . S
C382 N383 1.315 . S
C382 H385 0.930 . S
N383 Co363 2.194 . S
N383 C378 1.328 . S
N383 C382 1.315 . S
H384 C378 0.929 . S
H385 C382 0.930 . S
H386 C374 0.929 . S
H387 C376 0.929 . S
O388 Co363 2.351 . S
O388 C391 1.244 . S
O389 Co363 2.155 . S
O389 C391 1.240 . S
O390 Co363 2.096 . S
O390 C371 1.247 . S
C391 O388 1.244 . S
C391 O389 1.240 . S
H392 C366 0.931 . S
H393 C375 0.931 . S
H394 C379 0.929 . S
H395 C381 0.930 . S
Co396 N400 2.148 . S
Co396 N406 2.128 . S
Co396 N416 2.194 1_556 S
Co396 O421 2.351 1_556 S
Co396 O422 2.155 . S
Co396 O423 2.096 . S
C397 N400 1.301 . S
C397 N401 1.328 . S
C397 H402 0.930 1_556 S
C398 C399 1.333 . S
C398 N400 1.317 . S
C398 H403 0.930 . S
C399 C398 1.333 . S
C399 N401 1.350 . S
C399 H425 0.931 . S
N400 Co396 2.148 . S
N400 C397 1.301 . S
N400 C398 1.317 . S
N401 C397 1.328 . S
N401 C399 1.350 . S
H402 C397 0.930 1_554 S
H403 C398 0.930 . S
C404 O405 1.224 . S
C404 O423 1.247 . S
O405 C404 1.224 . S
N406 Co396 2.128 . S
N406 C407 1.355 . S
N406 C409 1.311 . S
C407 N406 1.355 . S
C407 C408 1.363 . S
C407 H419 0.929 1_556 S
C408 C407 1.363 . S
C408 N410 1.375 . S
C408 H426 0.931 . S
C409 N406 1.311 . S
C409 N410 1.347 . S
C409 H420 0.929 . S
N410 C408 1.375 . S
N410 C409 1.347 . S
C411 C414 1.365 . S
C411 N416 1.328 . S
C411 H417 0.929 . S
C412 C413 1.362 . S
C412 C415 1.378 . S
C412 H427 0.929 . S
C413 C412 1.362 . S
C413 C414 1.366 . S
C414 C411 1.365 . S
C414 C413 1.366 . S
C414 H428 0.930 . S
C415 C412 1.378 . S
C415 N416 1.315 . S
C415 H418 0.930 1_554 S
N416 Co396 2.194 1_554 S
N416 C411 1.328 . S
N416 C415 1.315 . S
H417 C411 0.929 . S
H418 C415 0.930 1_556 S
H419 C407 0.929 1_554 S
H420 C409 0.929 . S
O421 Co396 2.351 1_554 S
O421 C424 1.244 1_554 S
O422 Co396 2.155 . S
O422 C424 1.240 . S
O423 Co396 2.096 . S
O423 C404 1.247 . S
C424 O421 1.244 1_556 S
C424 O422 1.240 . S
H425 C399 0.931 . S
H426 C408 0.931 . S
H427 C412 0.929 . S
H428 C414 0.930 . S
Co429 N433 2.148 . S
Co429 N439 2.128 . S
Co429 N449 2.194 . S
Co429 O454 2.351 . S
Co429 O455 2.155 . S
Co429 O456 2.096 . S
C430 N433 1.301 . S
C430 N434 1.328 . S
C430 H435 0.930 . S
C431 C432 1.333 . S
C431 N433 1.317 . S
C431 H436 0.930 . S
C432 C431 1.333 . S
C432 N434 1.350 . S
C432 H458 0.931 . S
N433 Co429 2.148 . S
N433 C430 1.301 . S
N433 C431 1.317 . S
N434 C430 1.328 . S
N434 C432 1.350 . S
H435 C430 0.930 . S
H436 C431 0.930 . S
C437 O438 1.224 . S
C437 O456 1.247 . S
O438 C437 1.224 . S
N439 Co429 2.128 . S
N439 C440 1.355 . S
N439 C442 1.311 . S
C440 N439 1.355 . S
C440 C441 1.363 . S
C440 H452 0.929 . S
C441 C440 1.363 . S
C441 N443 1.375 . S
C441 H459 0.931 . S
C442 N439 1.311 . S
C442 N443 1.347 . S
C442 H453 0.929 . S
N443 C441 1.375 . S
N443 C442 1.347 . S
C444 C447 1.365 . S
C444 N449 1.328 . S
C444 H450 0.929 . S
C445 C446 1.362 . S
C445 C448 1.378 . S
C445 H460 0.929 . S
C446 C445 1.362 . S
C446 C447 1.366 . S
C447 C444 1.365 . S
C447 C446 1.366 . S
C447 H461 0.930 . S
C448 C445 1.378 . S
C448 N449 1.315 . S
C448 H451 0.930 . S
N449 Co429 2.194 . S
N449 C444 1.328 . S
N449 C448 1.315 . S
H450 C444 0.929 . S
H451 C448 0.930 . S
H452 C440 0.929 . S
H453 C442 0.929 . S
O454 Co429 2.351 . S
O454 C457 1.244 . S
O455 Co429 2.155 . S
O455 C457 1.240 . S
O456 Co429 2.096 . S
O456 C437 1.247 . S
C457 O454 1.244 . S
C457 O455 1.240 . S
H458 C432 0.931 . S
H459 C441 0.931 . S
H460 C445 0.929 . S
H461 C447 0.930 . S
Co462 N466 2.148 . S
Co462 N472 2.128 . S
Co462 N482 2.194 1_554 S
Co462 O487 2.351 1_554 S
Co462 O488 2.155 . S
Co462 O489 2.096 . S
C463 N466 1.301 . S
C463 N467 1.328 . S
C463 H468 0.930 1_554 S
C464 C465 1.333 . S
C464 N466 1.317 . S
C464 H469 0.930 . S
C465 C464 1.333 . S
C465 N467 1.350 . S
C465 H491 0.931 . S
N466 Co462 2.148 . S
N466 C463 1.301 . S
N466 C464 1.317 . S
N467 C463 1.328 . S
N467 C465 1.350 . S
H468 C463 0.930 1_556 S
H469 C464 0.930 . S
C470 O471 1.224 . S
C470 O489 1.247 . S
O471 C470 1.224 . S
N472 Co462 2.128 . S
N472 C473 1.355 . S
N472 C475 1.311 . S
C473 N472 1.355 . S
C473 C474 1.363 . S
C473 H485 0.929 1_554 S
C474 C473 1.363 . S
C474 N476 1.375 . S
C474 H492 0.931 . S
C475 N472 1.311 . S
C475 N476 1.347 . S
C475 H486 0.929 . S
N476 C474 1.375 . S
N476 C475 1.347 . S
C477 C480 1.365 . S
C477 N482 1.328 . S
C477 H483 0.929 . S
C478 C479 1.362 . S
C478 C481 1.378 . S
C478 H493 0.929 . S
C479 C478 1.362 . S
C479 C480 1.366 . S
C480 C477 1.365 . S
C480 C479 1.366 . S
C480 H494 0.930 . S
C481 C478 1.378 . S
C481 N482 1.315 . S
C481 H484 0.930 1_556 S
N482 Co462 2.194 1_556 S
N482 C477 1.328 . S
N482 C481 1.315 . S
H483 C477 0.929 . S
H484 C481 0.930 1_554 S
H485 C473 0.929 1_556 S
H486 C475 0.929 . S
O487 Co462 2.351 1_556 S
O487 C490 1.244 1_556 S
O488 Co462 2.155 . S
O488 C490 1.240 . S
O489 Co462 2.096 . S
O489 C470 1.247 . S
C490 O487 1.244 1_554 S
C490 O488 1.240 . S
H491 C465 0.931 . S
H492 C474 0.931 . S
H493 C478 0.929 . S
H494 C480 0.930 . S
Co495 N499 2.148 . S
Co495 N505 2.128 . S
Co495 N515 2.194 . S
Co495 O520 2.351 . S
Co495 O521 2.155 . S
Co495 O522 2.096 . S
C496 N499 1.301 . S
C496 N500 1.328 . S
C496 H501 0.930 . S
C497 C498 1.333 . S
C497 N499 1.317 . S
C497 H502 0.930 . S
C498 C497 1.333 . S
C498 N500 1.350 . S
C498 H524 0.931 . S
N499 Co495 2.148 . S
N499 C496 1.301 . S
N499 C497 1.317 . S
N500 C496 1.328 . S
N500 C498 1.350 . S
H501 C496 0.930 . S
H502 C497 0.930 . S
C503 O504 1.224 . S
C503 O522 1.247 . S
O504 C503 1.224 . S
N505 Co495 2.128 . S
N505 C506 1.355 . S
N505 C508 1.311 . S
C506 N505 1.355 . S
C506 C507 1.363 . S
C506 H518 0.929 . S
C507 C506 1.363 . S
C507 N509 1.375 . S
C507 H525 0.931 . S
C508 N505 1.311 . S
C508 N509 1.347 . S
C508 H519 0.929 . S
N509 C507 1.375 . S
N509 C508 1.347 . S
C510 C513 1.365 . S
C510 N515 1.328 . S
C510 H516 0.929 . S
C511 C512 1.362 . S
C511 C514 1.378 . S
C511 H526 0.929 . S
C512 C511 1.362 . S
C512 C513 1.366 . S
C513 C510 1.365 . S
C513 C512 1.366 . S
C513 H527 0.930 . S
C514 C511 1.378 . S
C514 N515 1.315 . S
C514 H517 0.930 . S
N515 Co495 2.194 . S
N515 C510 1.328 . S
N515 C514 1.315 . S
H516 C510 0.929 . S
H517 C514 0.930 . S
H518 C506 0.929 . S
H519 C508 0.929 . S
O520 Co495 2.351 . S
O520 C523 1.244 . S
O521 Co495 2.155 . S
O521 C523 1.240 . S
O522 Co495 2.096 . S
O522 C503 1.247 . S
C523 O520 1.244 . S
C523 O521 1.240 . S
H524 C498 0.931 . S
H525 C507 0.931 . S
H526 C511 0.929 . S
H527 C513 0.930 . S
N14 N113 2.715 . S
N80 N47 2.715 . S
N245 N146 2.715 . S
N179 N212 2.715 . S
N278 N377 2.715 . S
N311 N344 2.715 . S
N509 N410 2.715 . S
N443 N476 2.715 . S
N203 N5 1.531 1_655 S
N236 N38 1.531 . S
N137 N71 1.531 1_655 S
N170 N104 1.531 . S
N467 N269 1.531 . S
N500 N302 1.531 1_455 S
N401 N335 1.531 . S
N368 N434 1.531 1_655 S
C28 C94 2.186 1_544 S
C61 C127 2.186 1_565 S
C160 C226 2.186 1_566 S
C193 C259 2.186 1_545 S
C292 C358 2.186 1_554 S
C325 C391 2.186 . S
C424 C490 2.186 1_556 S
C457 C523 2.186 . S
C503 C17 1.229 . S
C50 C470 1.229 . S
C83 C437 1.229 . S
C404 C116 1.229 . S
C371 C149 1.229 . S
C182 C338 1.229 . S
C215 C305 1.229 . S
C248 C272 1.229 . S
C281 C239 1.229 . S
C206 C314 1.229 . S
C173 C347 1.229 . S
C380 C140 1.229 . S
C413 C107 1.229 . S
C74 C446 1.229 . S
C41 C479 1.229 . S
C8 C512 1.229 . S
