# Generated by pormake.
# Topology osc, (6)-cn, num edge types: 1
# Building blocks:
#     Node 0, Type 0, BuildingBlock: IZENUY_clean_sbu_0, # of connection points: 6
#     Node 1, Type 0, BuildingBlock: IZENUY_clean_sbu_0, # of connection points: 6
#     Node 2, Type 0, BuildingBlock: IZENUY_clean_sbu_0, # of connection points: 6
#     Node 3, Type 0, BuildingBlock: IZENUY_clean_sbu_0, # of connection points: 6
#     Node 4, Type 0, BuildingBlock: IZENUY_clean_sbu_0, # of connection points: 6
#     Node 5, Type 0, BuildingBlock: IZENUY_clean_sbu_0, # of connection points: 6
#     Node 6, Type 0, BuildingBlock: IZENUY_clean_sbu_0, # of connection points: 6
#     Node 7, Type 0, BuildingBlock: IZENUY_clean_sbu_0, # of connection points: 6
#     Edge 8, Type (0, 0), BuildingBlock: UVAHIK_clean_linker_0, # of connection points: 2
#     Edge 9, Type (0, 0), BuildingBlock: UVAHIK_clean_linker_0, # of connection points: 2
#     Edge 10, Type (0, 0), BuildingBlock: UVAHIK_clean_linker_0, # of connection points: 2
#     Edge 11, Type (0, 0), BuildingBlock: UVAHIK_clean_linker_0, # of connection points: 2
#     Edge 12, Type (0, 0), BuildingBlock: UVAHIK_clean_linker_0, # of connection points: 2
#     Edge 13, Type (0, 0), BuildingBlock: UVAHIK_clean_linker_0, # of connection points: 2
#     Edge 14, Type (0, 0), BuildingBlock: UVAHIK_clean_linker_0, # of connection points: 2
#     Edge 15, Type (0, 0), BuildingBlock: UVAHIK_clean_linker_0, # of connection points: 2
#     Edge 16, Type (0, 0), BuildingBlock: UVAHIK_clean_linker_0, # of connection points: 2
#     Edge 17, Type (0, 0), BuildingBlock: UVAHIK_clean_linker_0, # of connection points: 2
#     Edge 18, Type (0, 0), BuildingBlock: UVAHIK_clean_linker_0, # of connection points: 2
#     Edge 19, Type (0, 0), BuildingBlock: UVAHIK_clean_linker_0, # of connection points: 2
#     Edge 20, Type (0, 0), BuildingBlock: UVAHIK_clean_linker_0, # of connection points: 2
#     Edge 21, Type (0, 0), BuildingBlock: UVAHIK_clean_linker_0, # of connection points: 2
#     Edge 22, Type (0, 0), BuildingBlock: UVAHIK_clean_linker_0, # of connection points: 2
#     Edge 23, Type (0, 0), BuildingBlock: UVAHIK_clean_linker_0, # of connection points: 2
#     Edge 24, Type (0, 0), BuildingBlock: UVAHIK_clean_linker_0, # of connection points: 2
#     Edge 25, Type (0, 0), BuildingBlock: UVAHIK_clean_linker_0, # of connection points: 2
#     Edge 26, Type (0, 0), BuildingBlock: UVAHIK_clean_linker_0, # of connection points: 2
#     Edge 27, Type (0, 0), BuildingBlock: UVAHIK_clean_linker_0, # of connection points: 2
#     Edge 28, Type (0, 0), BuildingBlock: UVAHIK_clean_linker_0, # of connection points: 2
#     Edge 29, Type (0, 0), BuildingBlock: UVAHIK_clean_linker_0, # of connection points: 2
#     Edge 30, Type (0, 0), BuildingBlock: UVAHIK_clean_linker_0, # of connection points: 2
#     Edge 31, Type (0, 0), BuildingBlock: UVAHIK_clean_linker_0, # of connection points: 2
# Relax obj value: 0.251
# Max RMSD: 0.249
# Mean RMSD: 0.249
data_MOF--net-osc--node1-IZENUY_clean_sbu_0--edge1-UVAHIK_clean_linker_0
_symmetry_space_group_name_H-M    P1
_symmetry_Int_Tables_number       1
_symmetry_cell_setting            triclinic
loop_
_symmetry_equiv_pos_as_xyz
'x, y, z'
_cell_length_a     36.315519
_cell_length_b     59.55909
_cell_length_c     33.841141
_cell_angle_alpha  90.108056
_cell_angle_beta   89.867595
_cell_angle_gamma 90.112884
loop_
_atom_site_label
_atom_site_type_symbol
_atom_site_fract_x
_atom_site_fract_y
_atom_site_fract_z
_atom_type_partial_charge
Fe0 Fe 0.26912 0.06187 0.38402 0.0
Fe1 Fe 0.28931 0.1016 0.33043 0.0
O2 O 0.29012 0.08843 0.37742 0.0
Fe3 Fe 0.31302 0.10144 0.41783 0.0
O4 O 0.3271 0.07522 0.44115 0.0
O5 O 0.31336 0.04921 0.39758 0.0
O6 O 0.27704 0.05185 0.33373 0.0
C7 C 0.29902 0.05788 0.30683 0.0
C8 C 0.2527 0.08465 0.45576 0.0
O9 O 0.31134 0.07772 0.30604 0.0
C10 C 0.28012 0.13843 0.37831 0.0
O11 O 0.22402 0.07292 0.37049 0.0
O12 O 0.24344 0.09125 0.31776 0.0
O13 O 0.27096 0.10221 0.44761 0.0
O14 O 0.25674 0.06691 0.43555 0.0
C15 C 0.36183 0.10802 0.35644 0.0
O16 O 0.2673 0.12665 0.35045 0.0
O17 O 0.30341 0.13028 0.40204 0.0
C18 C 0.21761 0.08296 0.33829 0.0
O19 O 0.33508 0.11408 0.33519 0.0
O20 O 0.35655 0.10079 0.39107 0.0
C21 C 0.3329 0.05618 0.426 0.0
Fe22 Fe 0.23061 0.96226 0.88397 0.0
Fe23 Fe 0.20821 0.92318 0.8298 0.0
O24 O 0.20848 0.93608 0.87714 0.0
Fe25 Fe 0.18552 0.92319 0.91762 0.0
O26 O 0.17273 0.94947 0.94174 0.0
O27 O 0.18712 0.97547 0.89849 0.0
O28 O 0.22242 0.97264 0.8341 0.0
C29 C 0.19948 0.96719 0.80781 0.0
C30 C 0.24685 0.9389 0.95491 0.0
O31 O 0.18664 0.94748 0.80647 0.0
C32 C 0.2169 0.88606 0.87667 0.0
O33 O 0.27499 0.95057 0.86947 0.0
O34 O 0.25423 0.93308 0.81645 0.0
O35 O 0.22775 0.92166 0.94682 0.0
O36 O 0.24338 0.95677 0.93514 0.0
C37 C 0.1358 0.91747 0.85704 0.0
O38 O 0.22974 0.89783 0.84885 0.0
O39 O 0.19396 0.89431 0.90088 0.0
C40 C 0.28063 0.94067 0.83691 0.0
O41 O 0.16208 0.91117 0.83515 0.0
O42 O 0.14178 0.92465 0.89157 0.0
C43 C 0.16757 0.96864 0.92701 0.0
Fe44 Fe 0.76788 0.45326 0.12233 0.0
Fe45 Fe 0.78406 0.41492 0.18097 0.0
O46 O 0.78881 0.42705 0.13329 0.0
Fe47 Fe 0.81545 0.41344 0.09623 0.0
O48 O 0.83069 0.43935 0.07298 0.0
O49 O 0.81304 0.46626 0.11297 0.0
O50 O 0.76965 0.46453 0.17249 0.0
C51 C 0.78784 0.45933 0.2028 0.0
C52 C 0.75898 0.42859 0.05109 0.0
O53 O 0.80135 0.43995 0.20614 0.0
C54 C 0.78131 0.37668 0.13526 0.0
O55 O 0.72219 0.44179 0.13135 0.0
O56 O 0.73613 0.42374 0.1865 0.0
O57 O 0.77629 0.4114 0.06274 0.0
O58 O 0.76108 0.44691 0.06998 0.0
C59 C 0.85927 0.40931 0.16219 0.0
O60 O 0.76607 0.38874 0.16112 0.0
O61 O 0.8057 0.38477 0.11273 0.0
C62 C 0.7127 0.43099 0.16192 0.0
O63 O 0.83134 0.40407 0.18272 0.0
O64 O 0.85621 0.41528 0.12663 0.0
C65 C 0.83604 0.45835 0.08842 0.0
Fe66 Fe 0.71722 0.60437 0.68967 0.0
Fe67 Fe 0.67564 0.60464 0.61119 0.0
O68 O 0.70637 0.59134 0.64418 0.0
Fe69 Fe 0.72607 0.56503 0.63225 0.0
O70 O 0.70658 0.55195 0.67587 0.0
O71 O 0.72516 0.57802 0.71693 0.0
O72 O 0.66991 0.60278 0.7055 0.0
C73 C 0.64319 0.61074 0.68645 0.0
C74 C 0.78482 0.58987 0.66721 0.0
O75 O 0.64709 0.6171 0.65083 0.0
C76 C 0.72902 0.58434 0.55963 0.0
O77 O 0.71159 0.63321 0.67146 0.0
O78 O 0.70477 0.62945 0.6074 0.0
O79 O 0.77043 0.57118 0.65727 0.0
O80 O 0.7649 0.60649 0.67575 0.0
C81 C 0.65206 0.56121 0.60521 0.0
O82 O 0.69801 0.59364 0.5657 0.0
O83 O 0.74683 0.57611 0.58795 0.0
C84 C 0.71361 0.64128 0.63692 0.0
O85 O 0.64439 0.58126 0.61323 0.0
O86 O 0.68525 0.55447 0.60493 0.0
C87 C 0.71356 0.55827 0.71055 0.0
Fe88 Fe 0.72989 0.95933 0.62713 0.0
Fe89 Fe 0.68431 0.9205 0.59297 0.0
O90 O 0.708 0.93297 0.63342 0.0
Fe91 Fe 0.70873 0.91945 0.68008 0.0
O92 O 0.68811 0.9435 0.70537 0.0
O93 O 0.72269 0.9692 0.67759 0.0
O94 O 0.68597 0.97259 0.61407 0.0
C95 C 0.66612 0.96604 0.5856 0.0
C96 C 0.78118 0.9367 0.6713 0.0
O97 O 0.67127 0.94702 0.5701 0.0
C98 C 0.71587 0.8828 0.63143 0.0
O99 O 0.74185 0.95428 0.57546 0.0
O100 O 0.72616 0.91923 0.56301 0.0
O101 O 0.75525 0.92878 0.69213 0.0
O102 O 0.77471 0.94776 0.64017 0.0
C103 C 0.63568 0.91433 0.65461 0.0
O104 O 0.69268 0.89141 0.60816 0.0
O105 O 0.72939 0.89422 0.65931 0.0
C106 C 0.74531 0.93648 0.55529 0.0
O107 O 0.64098 0.92166 0.62004 0.0
O108 O 0.66232 0.90787 0.67567 0.0
C109 C 0.70095 0.96321 0.70473 0.0
Fe110 Fe 0.78882 0.09878 0.18279 0.0
Fe111 Fe 0.76794 0.05946 0.12859 0.0
O112 O 0.78951 0.08582 0.13556 0.0
Fe113 Fe 0.81284 0.09883 0.09544 0.0
O114 O 0.85628 0.09784 0.12227 0.0
O115 O 0.83462 0.11124 0.17811 0.0
O116 O 0.81079 0.07475 0.20635 0.0
C117 C 0.79821 0.05498 0.20526 0.0
C118 C 0.77992 0.13572 0.13565 0.0
O119 O 0.77567 0.04925 0.17874 0.0
C120 C 0.75232 0.08257 0.05722 0.0
O121 O 0.74292 0.08847 0.19561 0.0
O122 O 0.72312 0.07087 0.14233 0.0
O123 O 0.80343 0.12764 0.11188 0.0
O124 O 0.76689 0.12388 0.16329 0.0
C125 C 0.83163 0.05341 0.08648 0.0
O126 O 0.75576 0.06476 0.07719 0.0
O127 O 0.77104 0.09993 0.06547 0.0
C128 C 0.7169 0.08071 0.17482 0.0
O129 O 0.81182 0.04651 0.11474 0.0
O130 O 0.82658 0.07261 0.07175 0.0
C131 C 0.86145 0.10502 0.15697 0.0
Fe132 Fe 0.21375 0.60738 0.83109 0.0
Fe133 Fe 0.22548 0.56764 0.88792 0.0
O134 O 0.20686 0.59463 0.87794 0.0
Fe135 Fe 0.1804 0.60834 0.91514 0.0
O136 O 0.14016 0.60842 0.88351 0.0
O137 O 0.1674 0.61931 0.82851 0.0
O138 O 0.1955 0.58324 0.80402 0.0
C139 C 0.20757 0.56348 0.80672 0.0
C140 C 0.21771 0.64491 0.87867 0.0
O141 O 0.22452 0.55733 0.83722 0.0
C142 C 0.235 0.5906 0.96042 0.0
O143 O 0.26117 0.59749 0.82666 0.0
O144 O 0.27225 0.57798 0.88106 0.0
O145 O 0.19277 0.63698 0.90067 0.0
O146 O 0.23278 0.63287 0.85266 0.0
C147 C 0.15613 0.56392 0.91939 0.0
O148 O 0.23112 0.57272 0.94066 0.0
O149 O 0.21903 0.60851 0.94986 0.0
C150 C 0.28335 0.58917 0.85153 0.0
O151 O 0.17915 0.55582 0.89505 0.0
O152 O 0.16249 0.58244 0.93622 0.0
C153 C 0.13853 0.61466 0.84793 0.0
Fe154 Fe 0.27116 0.45651 0.38101 0.0
Fe155 Fe 0.31917 0.41582 0.40209 0.0
O156 O 0.28992 0.42999 0.36861 0.0
Fe157 Fe 0.27941 0.41758 0.32248 0.0
O158 O 0.27422 0.44441 0.29571 0.0
O159 O 0.29209 0.46985 0.33859 0.0
O160 O 0.31175 0.46597 0.40993 0.0
C161 C 0.34464 0.45872 0.41001 0.0
C162 C 0.21217 0.43341 0.34373 0.0
O163 O 0.35159 0.43864 0.40145 0.0
C164 C 0.28007 0.38006 0.37441 0.0
O165 O 0.2487 0.44513 0.42405 0.0
O166 O 0.29631 0.42687 0.44731 0.0
O167 O 0.23115 0.41645 0.33491 0.0
O168 O 0.2274 0.45166 0.35438 0.0
C169 C 0.35292 0.40946 0.32752 0.0
O170 O 0.28878 0.39152 0.40443 0.0
O171 O 0.28273 0.38845 0.34013 0.0
C172 C 0.26541 0.43643 0.45267 0.0
O173 O 0.348 0.40311 0.36298 0.0
O174 O 0.32713 0.41812 0.30799 0.0
C175 C 0.28606 0.46399 0.30344 0.0
C176 C 0.62754 0.97745 0.5286 0.0
C177 C 0.63657 0.9801 0.56872 0.0
C178 C 0.59538 0.98671 0.51328 0.0
C179 C 0.50259 1.00343 0.54474 0.0
H180 H 0.49576 0.02675 0.43806 0.0
C181 C 0.37197 0.04562 0.48319 0.0
C182 C 0.36286 0.04255 0.44318 0.0
C183 C 0.40425 0.0366 0.4987 0.0
C184 C 0.4971 0.01994 0.46768 0.0
H185 H 0.61978 0.99539 0.62394 0.0
H186 H 0.56324 0.01193 0.59699 0.0
H187 H 0.5558 0.01697 0.46513 0.0
H188 H 0.37969 0.02682 0.38836 0.0
H189 H 0.43648 1.01076 0.41562 0.0
H190 H 0.44388 1.00643 0.54729 0.0
C191 C 0.5811 1.00246 0.57749 0.0
C192 C 0.53157 0.01448 0.48332 0.0
C193 C 0.61367 0.99328 0.59283 0.0
C194 C 0.38587 0.02926 0.41938 0.0
C195 C 0.41856 0.02035 0.43489 0.0
C196 C 0.46812 1.00892 0.5291 0.0
C197 C 0.57116 0.99879 0.53772 0.0
C198 C 0.53477 1.00611 0.52204 0.0
C199 C 0.42851 0.02438 0.47455 0.0
C200 C 0.46492 0.01723 0.49036 0.0
H201 H 0.64467 0.96735 0.50928 0.0
H202 H 0.5886 0.98336 0.48268 0.0
H203 H 0.50391 0.99659 0.57433 0.0
H204 H 0.35476 0.05581 0.50228 0.0
H205 H 0.41106 0.04021 0.5292 0.0
C206 C 0.87016 0.04234 0.02911 0.0
C207 C 0.86132 0.03962 0.06927 0.0
C208 C 0.90269 0.03357 0.01367 0.0
C209 C 0.99604 0.01946 0.04513 0.0
H210 H 0.00502 0.99527 0.93905 0.0
C211 C 0.12913 0.97972 0.98444 0.0
C212 C 0.13789 0.98242 0.94426 0.0
C213 C 0.09654 0.98842 0.99991 0.0
C214 C 0.00304 1.00235 0.96848 0.0
H215 H 0.87858 0.02464 0.1244 0.0
H216 H 0.93585 1.009 0.09723 0.0
H217 H 0.94418 1.00359 0.96596 0.0
H218 H 0.1204 0.99725 0.88909 0.0
H219 H 0.06307 0.01277 0.91629 0.0
H220 H 0.0549 0.01824 0.04765 0.0
C221 C 0.91756 0.01812 0.07782 0.0
C222 C 0.96815 1.00694 0.98403 0.0
C223 C 0.88462 0.02678 0.09326 0.0
C224 C 0.11444 0.99515 0.92025 0.0
C225 C 0.08146 1.00373 0.93572 0.0
C226 C 0.03093 0.01487 0.02958 0.0
C227 C 0.92738 0.02198 0.03807 0.0
C228 C 0.96423 0.01557 0.02253 0.0
C229 C 0.07173 0.9999 0.97549 0.0
C230 C 0.03485 1.00625 0.99107 0.0
H231 H 0.85264 0.0522 0.00995 0.0
H232 H 0.90943 0.037 0.98307 0.0
H233 H 0.99405 0.02654 0.07456 0.0
H234 H 0.14675 0.96993 1.00361 0.0
H235 H 0.08987 0.985 0.03053 0.0
C236 C 0.09193 0.56513 0.9439 0.0
C237 C 0.1219 0.5521 0.93094 0.0
C238 C 0.06054 0.55509 0.95956 0.0
C239 C 0.00897 0.50201 0.96779 0.0
H240 H 0.9691 0.53014 0.06225 0.0
C241 C 0.89941 0.45821 0.06147 0.0
C242 C 0.86922 0.47076 0.07528 0.0
C243 C 0.92991 0.4687 0.04482 0.0
C244 C 0.97957 0.52227 0.03564 0.0
H245 H 0.14172 0.51819 0.92241 0.0
H246 H 0.08636 0.50033 0.95047 0.0
H247 H 0.02304 0.54633 0.02991 0.0
H248 H 0.84816 0.50437 0.08417 0.0
H249 H 0.90204 0.52305 0.05435 0.0
H250 H 0.96556 0.47793 0.97357 0.0
C251 C 0.08739 0.51845 0.94827 0.0
C252 C 0.01054 0.53149 0.01709 0.0
C253 C 0.11904 0.52861 0.9322 0.0
C254 C 0.87099 0.49429 0.0737 0.0
C255 C 0.90178 0.50492 0.05663 0.0
C256 C 0.97799 0.4928 0.98633 0.0
C257 C 0.05818 0.53168 0.96301 0.0
C258 C 0.02563 0.52147 0.98293 0.0
C259 C 0.93119 0.49212 0.04117 0.0
C260 C 0.96304 0.50273 0.02062 0.0
H261 H 0.09296 0.5833 0.9426 0.0
H262 H 0.0382 0.56576 0.96943 0.0
H263 H 0.0195 0.49409 0.94125 0.0
H264 H 0.89931 0.44003 0.06301 0.0
H265 H 0.95248 0.45836 0.03446 0.0
C266 C 0.58525 0.5523 0.60102 0.0
C267 C 0.62167 0.54695 0.59044 0.0
C268 C 0.55557 0.54181 0.58253 0.0
C269 C 0.53171 0.51428 0.48896 0.0
H270 H 0.44071 0.49985 0.5436 0.0
C271 C 0.41174 0.46659 0.41547 0.0
C272 C 0.3754 0.4724 0.42562 0.0
C273 C 0.44156 0.47674 0.43428 0.0
C274 C 0.46574 0.50412 0.52783 0.0
H275 H 0.65556 0.52553 0.55358 0.0
H276 H 0.60338 0.50686 0.5213 0.0
H277 H 0.49392 0.51275 0.58125 0.0
H278 H 0.34184 0.49417 0.4622 0.0
H279 H 0.39429 0.51219 0.49512 0.0
H280 H 0.50353 0.50564 0.43555 0.0
C281 C 0.59794 0.51947 0.54365 0.0
C282 C 0.49632 0.51138 0.54943 0.0
C283 C 0.6278 0.52994 0.56241 0.0
C284 C 0.36953 0.48942 0.45369 0.0
C285 C 0.39954 0.49952 0.47281 0.0
C286 C 0.50114 0.50701 0.46737 0.0
C287 C 0.56149 0.52569 0.55288 0.0
C288 C 0.52968 0.51659 0.53026 0.0
C289 C 0.43587 0.49293 0.46386 0.0
C290 C 0.46777 0.50185 0.48654 0.0
H291 H 0.57962 0.56528 0.62269 0.0
H292 H 0.52798 0.54716 0.59022 0.0
H293 H 0.55671 0.51859 0.47316 0.0
H294 H 0.41717 0.4536 0.39378 0.0
H295 H 0.46907 0.47113 0.42683 0.0
C296 C 0.28746 0.02121 0.27284 0.0
C297 C 0.30538 0.04219 0.27323 0.0
C298 C 0.2897 1.00707 0.24 0.0
C299 C 0.30833 1.00893 0.13254 0.0
H300 H 0.29953 0.94419 0.14169 0.0
C301 C 0.29815 0.95495 0.99388 0.0
C302 C 0.2669 0.94102 0.99268 0.0
C303 C 0.31069 0.96375 0.02965 0.0
C304 C 0.30202 0.96223 0.1387 0.0
H305 H 0.34138 0.06418 0.23978 0.0
H306 H 0.34617 0.03915 0.18259 0.0
H307 H 0.30827 0.96703 0.20103 0.0
H308 H 0.22608 0.92385 0.02829 0.0
H309 H 0.24826 0.93912 0.09127 0.0
H310 H 0.30192 1.00414 0.07031 0.0
C311 C 0.32951 0.03391 0.20749 0.0
C312 C 0.30689 0.97539 0.1727 0.0
C313 C 0.32701 0.04822 0.24041 0.0
C314 C 0.25056 0.93428 0.02841 0.0
C315 C 0.26313 0.94317 0.06443 0.0
C316 C 0.30391 0.99578 0.09862 0.0
C317 C 0.31027 0.0133 0.20655 0.0
C318 C 0.3094 0.99899 0.17017 0.0
C319 C 0.29218 0.9589 0.0651 0.0
C320 C 0.30017 0.97231 0.10129 0.0
H321 H 0.27053 0.01589 0.2975 0.0
H322 H 0.27397 0.99161 0.2404 0.0
H323 H 0.30938 0.027 0.12923 0.0
H324 H 0.31127 0.96039 0.96672 0.0
H325 H 0.33361 0.97542 0.02928 0.0
C326 C 0.17642 0.97694 0.73949 0.0
C327 C 0.19267 0.98347 0.77542 0.0
C328 C 0.17516 0.99194 0.70754 0.0
C329 C 0.22709 0.03976 0.66837 0.0
H330 H 0.14531 0.0469 0.5962 0.0
C331 C 0.24572 0.09275 0.52836 0.0
C332 C 0.23299 0.0822 0.49385 0.0
C333 C 0.23387 0.08519 0.56556 0.0
C334 C 0.16851 0.04505 0.61596 0.0
H335 H 0.21787 0.01144 0.80668 0.0
H336 H 0.21569 0.03725 0.75133 0.0
H337 H 0.13795 0.02356 0.65508 0.0
H338 H 0.19525 0.05716 0.47097 0.0
H339 H 0.17512 0.04389 0.53504 0.0
H340 H 0.25835 0.06018 0.6288 0.0
C341 C 0.20453 0.0205 0.74753 0.0
C342 C 0.16421 0.03166 0.64968 0.0
C343 C 0.20566 1.00565 0.77931 0.0
C344 C 0.20571 0.06553 0.49711 0.0
C345 C 0.194 0.05797 0.53405 0.0
C346 C 0.23152 0.05291 0.63454 0.0
C347 C 0.1902 0.01367 0.71096 0.0
C348 C 0.1936 0.02869 0.67605 0.0
C349 C 0.20913 0.06697 0.56885 0.0
C350 C 0.20249 0.05552 0.6075 0.0
H351 H 0.16611 0.96001 0.73551 0.0
H352 H 0.16399 0.98619 0.67964 0.0
H353 H 0.25045 0.03758 0.68783 0.0
H354 H 0.26681 0.1056 0.52679 0.0
H355 H 0.24547 0.09291 0.59172 0.0
C356 C 0.7733 0.56557 0.51332 0.0
C357 C 0.7409 0.57815 0.51888 0.0
C358 C 0.78131 0.55566 0.47686 0.0
C359 C 0.73401 0.5368 0.38521 0.0
H360 H 0.83362 0.52308 0.35139 0.0
C361 C 0.76535 0.49443 0.23575 0.0
C362 C 0.78795 0.47524 0.23682 0.0
C363 C 0.76199 0.50845 0.26866 0.0
C364 C 0.80567 0.5267 0.36062 0.0
H365 H 0.69293 0.5915 0.48915 0.0
H366 H 0.70767 0.57503 0.42493 0.0
H367 H 0.82368 0.54676 0.40942 0.0
H368 H 0.82592 0.45638 0.27324 0.0
H369 H 0.82057 0.48135 0.3308 0.0
H370 H 0.71619 0.51707 0.33579 0.0
C371 C 0.72628 0.57211 0.44932 0.0
C372 C 0.79986 0.54025 0.39398 0.0
C373 C 0.71802 0.58187 0.48608 0.0
C374 C 0.80826 0.47096 0.27137 0.0
C375 C 0.80525 0.48528 0.30428 0.0
C376 C 0.73986 0.52357 0.35157 0.0
C377 C 0.75745 0.55825 0.44451 0.0
C378 C 0.7639 0.54533 0.40707 0.0
C379 C 0.78149 0.50392 0.30347 0.0
C380 C 0.77572 0.51822 0.33907 0.0
H381 H 0.79174 0.56233 0.53777 0.0
H382 H 0.80534 0.545 0.47482 0.0
H383 H 0.70593 0.53978 0.39461 0.0
H384 H 0.74927 0.49836 0.20976 0.0
H385 H 0.74382 0.52282 0.26697 0.0
C386 C 0.76745 0.42383 0.97841 0.0
C387 C 0.74492 0.43004 0.01036 0.0
C388 C 0.7605 0.43234 0.94056 0.0
C389 C 0.69366 0.46396 0.87881 0.0
H390 H 0.7805 0.49537 0.84102 0.0
C391 C 0.69643 0.52047 0.73807 0.0
C392 C 0.71365 0.54149 0.74291 0.0
C393 C 0.69846 0.50416 0.76777 0.0
C394 C 0.75603 0.48664 0.85113 0.0
H395 H 0.69584 0.44821 0.02744 0.0
H396 H 0.68301 0.46244 0.9614 0.0
H397 H 0.7858 0.4691 0.89593 0.0
H398 H 0.74609 0.5619 0.78307 0.0
H399 H 0.74987 0.5334 0.83457 0.0
H400 H 0.66378 0.48208 0.8345 0.0
C401 C 0.70611 0.45118 0.96532 0.0
C402 C 0.75914 0.47137 0.88224 0.0
C403 C 0.71337 0.44299 1.00315 0.0
C404 C 0.73248 0.54592 0.77834 0.0
C405 C 0.73492 0.52953 0.80774 0.0
C406 C 0.69063 0.47906 0.84728 0.0
C407 C 0.73063 0.4469 0.93405 0.0
C408 C 0.72788 0.4602 0.897 0.0
C409 C 0.71818 0.50842 0.80267 0.0
C410 C 0.72166 0.49095 0.83375 0.0
H411 H 0.79228 0.41418 0.9833 0.0
H412 H 0.77969 0.4286 0.9169 0.0
H413 H 0.6691 0.4556 0.88956 0.0
H414 H 0.68162 0.51653 0.71118 0.0
H415 H 0.68534 0.48804 0.76305 0.0
C416 C 0.70151 0.0663 0.0178 0.0
C417 C 0.73269 0.08027 0.01924 0.0
C418 C 0.68929 0.05743 0.98195 0.0
C419 C 0.69896 0.05885 0.87294 0.0
H420 H 0.69077 0.99413 0.88254 0.0
C421 C 0.71355 0.99967 0.73904 0.0
C422 C 0.69508 0.97886 0.73849 0.0
C423 C 0.71148 0.01381 0.77189 0.0
C424 C 0.69208 0.01219 0.8792 0.0
H425 H 0.77377 0.09742 0.98396 0.0
H426 H 0.75219 0.08202 0.92083 0.0
H427 H 0.69801 0.01701 0.94147 0.0
H428 H 0.65839 0.95718 0.77169 0.0
H429 H 0.65395 0.98221 0.82892 0.0
H430 H 0.69321 0.05401 0.81056 0.0
C431 C 0.73711 0.07799 0.94755 0.0
C432 C 0.69637 0.02536 0.91312 0.0
C433 C 0.74933 0.08696 0.98364 0.0
C434 C 0.67318 0.97299 0.77119 0.0
C435 C 0.67087 0.98731 0.80412 0.0
C436 C 0.69425 0.04568 0.83894 0.0
C437 C 0.70809 0.06224 0.94665 0.0
C438 C 0.70036 0.04881 0.91041 0.0
C439 C 0.69056 1.00776 0.80519 0.0
C440 C 0.69142 0.0221 0.84152 0.0
H441 H 0.68816 0.06089 0.04485 0.0
H442 H 0.66638 0.04575 0.98215 0.0
H443 H 0.70165 0.07688 0.86991 0.0
H444 H 0.73072 1.00485 0.71447 0.0
H445 H 0.72755 0.02914 0.7716 0.0
C446 C 0.79701 0.95246 0.51674 0.0
C447 C 0.76565 0.93863 0.51768 0.0
C448 C 0.81017 0.96098 0.48103 0.0
C449 C 0.80239 0.95909 0.3719 0.0
H450 H 0.81008 0.02386 0.38145 0.0
C451 C 0.78682 0.0182 0.2387 0.0
C452 C 0.80495 0.03912 0.23829 0.0
C453 C 0.78948 1.00395 0.27121 0.0
C454 C 0.80896 1.00578 0.37814 0.0
H455 H 0.72526 0.92131 0.48182 0.0
H456 H 0.74837 0.93621 0.41897 0.0
H457 H 0.80239 1.00115 0.44034 0.0
H458 H 0.84186 0.06082 0.27115 0.0
H459 H 0.84728 0.03561 0.32779 0.0
H460 H 0.8086 0.96379 0.30953 0.0
C461 C 0.76291 0.94036 0.44593 0.0
C462 C 0.80442 0.99272 0.41203 0.0
C463 C 0.74977 0.93171 0.48186 0.0
C464 C 0.82728 0.04493 0.27061 0.0
C465 C 0.83017 0.03052 0.30319 0.0
C466 C 0.80733 0.97217 0.33791 0.0
C467 C 0.79209 0.95599 0.44544 0.0
C468 C 0.80052 0.96926 0.40931 0.0
C469 C 0.81065 1.01002 0.30425 0.0
C470 C 0.80995 0.99576 0.34051 0.0
H471 H 0.8098 0.958 0.54399 0.0
H472 H 0.83319 0.97258 0.48154 0.0
H473 H 0.79975 0.94105 0.36889 0.0
H474 H 0.7694 0.01306 0.21436 0.0
H475 H 0.77357 0.98855 0.27098 0.0
C476 C 0.18537 0.55231 0.7386 0.0
C477 C 0.20702 0.54804 0.77211 0.0
C478 C 0.18712 0.53803 0.70556 0.0
C479 C 0.22296 0.48161 0.67279 0.0
H480 H 0.21624 0.5081 0.5686 0.0
C481 C 0.27585 0.44058 0.52608 0.0
C482 C 0.25265 0.44266 0.49305 0.0
C483 C 0.26664 0.45096 0.56205 0.0
C484 C 0.21787 0.50042 0.59754 0.0
H485 H 0.24755 0.52531 0.79692 0.0
H486 H 0.25159 0.50129 0.73958 0.0
H487 H 0.20676 0.53152 0.62675 0.0
H488 H 0.20015 0.45589 0.4731 0.0
H489 H 0.18461 0.47404 0.53535 0.0
H490 H 0.23578 0.45068 0.64305 0.0
C491 C 0.23226 0.51509 0.73884 0.0
C492 C 0.21219 0.51383 0.63099 0.0
C493 C 0.23011 0.52908 0.77187 0.0
C494 C 0.21895 0.45408 0.4977 0.0
C495 C 0.21004 0.46462 0.53332 0.0
C496 C 0.22928 0.46829 0.63929 0.0
C497 C 0.21094 0.51931 0.70505 0.0
C498 C 0.21484 0.50468 0.6692 0.0
C499 C 0.23425 0.46377 0.5655 0.0
C500 C 0.22685 0.47757 0.60132 0.0
H501 H 0.16721 0.5667 0.73785 0.0
H502 H 0.16977 0.54171 0.68043 0.0
H503 H 0.22447 0.47372 0.70153 0.0
H504 H 0.30203 0.43201 0.52359 0.0
H505 H 0.28581 0.45002 0.58647 0.0
C506 C 0.28006 0.57206 1.00405 0.0
C507 C 0.25214 0.58814 0.99976 0.0
C508 C 0.28962 0.56397 0.04122 0.0
C509 C 0.24724 0.55648 0.13988 0.0
H510 H 0.33988 0.5263 0.16001 0.0
C511 C 0.2808 0.50392 0.28096 0.0
C512 C 0.28736 0.48119 0.2719 0.0
C513 C 0.27964 0.52006 0.25099 0.0
C514 C 0.31395 0.53475 0.15479 0.0
H515 H 0.21455 0.6099 0.03138 0.0
H516 H 0.23233 0.59643 0.09707 0.0
H517 H 0.33485 0.55193 0.10412 0.0
H518 H 0.29879 0.45769 0.22454 0.0
H519 H 0.29822 0.48618 0.1722 0.0
H520 H 0.22689 0.53941 0.19136 0.0
C521 C 0.24611 0.58953 0.0714 0.0
C522 C 0.31088 0.54937 0.12266 0.0
C523 C 0.23634 0.59758 0.03383 0.0
C524 C 0.29366 0.47505 0.23236 0.0
C525 C 0.29344 0.49131 0.20251 0.0
C526 C 0.25063 0.54226 0.17258 0.0
C527 C 0.27177 0.57188 0.07544 0.0
C528 C 0.27709 0.55986 0.11384 0.0
C529 C 0.28598 0.51389 0.21155 0.0
C530 C 0.28368 0.53079 0.1796 0.0
H531 H 0.29272 0.56447 0.97825 0.0
H532 H 0.30915 0.55029 0.04253 0.0
H533 H 0.22061 0.56389 0.13403 0.0
H534 H 0.27556 0.50915 0.31112 0.0
H535 H 0.27381 0.53737 0.25859 0.0
C536 C 0.40383 0.11286 0.29854 0.0
C537 C 0.39928 0.10826 0.33906 0.0
C538 C 0.43809 0.11038 0.2804 0.0
C539 C 0.53698 0.10866 0.29841 0.0
H540 H 0.54087 0.07288 0.20251 0.0
C541 C 0.67507 0.08149 0.23285 0.0
C542 C 0.67942 0.08152 0.19161 0.0
C543 C 0.64044 0.08422 0.24986 0.0
C544 C 0.54025 0.08318 0.22889 0.0
H545 H 0.42757 0.09813 0.39251 0.0
H546 H 0.48787 0.09427 0.36074 0.0
H547 H 0.48172 0.07983 0.23469 0.0
H548 H 0.65092 0.08384 0.13567 0.0
H549 H 0.58998 0.08936 0.16547 0.0
H550 H 0.59514 0.11256 0.29241 0.0
C551 C 0.46465 0.09969 0.34317 0.0
C552 C 0.50639 0.08709 0.24739 0.0
C553 C 0.43017 0.10192 0.36131 0.0
C554 C 0.64821 0.08368 0.16756 0.0
C555 C 0.61339 0.0868 0.18469 0.0
C556 C 0.57074 0.10501 0.27969 0.0
C557 C 0.46871 0.10348 0.30238 0.0
C558 C 0.50451 0.09971 0.28247 0.0
C559 C 0.60924 0.08748 0.22612 0.0
C560 C 0.5729 0.09201 0.24493 0.0
H561 H 0.38066 0.11771 0.28039 0.0
H562 H 0.44059 0.11368 0.24903 0.0
H563 H 0.5362 0.11872 0.3251 0.0
H564 H 0.6986 0.07948 0.25215 0.0
H565 H 0.63825 0.08391 0.28177 0.0
C566 C 0.82617 0.91814 0.71586 0.0
C567 C 0.81915 0.93426 0.68652 0.0
C568 C 0.8607 0.91662 0.73339 0.0
C569 C 0.92634 0.92697 0.78421 0.0
H570 H 0.01737 0.93038 0.7246 0.0
C571 C 0.06965 0.92959 0.85909 0.0
C572 C 0.09804 0.91744 0.84062 0.0
C573 C 0.03544 0.932 0.84061 0.0
C574 C 0.99216 0.92925 0.74164 0.0
H575 H 0.84346 0.96088 0.65147 0.0
H576 H 0.90428 0.95834 0.68258 0.0
H577 H 0.9586 0.93391 0.6903 0.0
H578 H 0.11226 0.89758 0.78896 0.0
H579 H 0.05257 0.90134 0.75734 0.0
H580 H 0.95969 0.92171 0.83536 0.0
C581 C 0.8828 0.94684 0.69181 0.0
C582 C 0.95852 0.93156 0.72202 0.0
C583 C 0.84802 0.94832 0.67403 0.0
C584 C 0.09107 0.90713 0.80397 0.0
C585 C 0.05693 0.90948 0.78561 0.0
C586 C 0.95991 0.92466 0.80379 0.0
C587 C 0.88924 0.93123 0.72225 0.0
C588 C 0.9252 0.93015 0.74303 0.0
C589 C 0.02892 0.92226 0.80333 0.0
C590 C 0.99322 0.92553 0.78271 0.0
H591 H 0.80476 0.90675 0.72573 0.0
H592 H 0.86498 0.90399 0.7559 0.0
H593 H 0.90117 0.92617 0.8014 0.0
H594 H 0.07425 0.93797 0.88712 0.0
H595 H 0.01453 0.94208 0.85496 0.0
C596 C 0.15554 0.45145 0.31684 0.0
C597 C 0.17267 0.4328 0.33417 0.0
C598 C 0.11999 0.44947 0.30142 0.0
C599 C 0.0336 0.41995 0.30416 0.0
H600 H 0.03189 0.42513 0.18998 0.0
C601 C 0.90344 0.39719 0.21478 0.0
C602 C 0.8959 0.40993 0.18092 0.0
C603 C 0.93719 0.39947 0.23423 0.0
C604 C 0.03151 0.42403 0.22189 0.0
H605 H 0.16562 0.39802 0.35137 0.0
H606 H 0.10278 0.39489 0.32572 0.0
H607 H 0.08887 0.43227 0.22562 0.0
H608 H 0.91749 0.43523 0.14108 0.0
H609 H 0.97529 0.43998 0.17566 0.0
H610 H 0.9761 0.41254 0.301 0.0
C611 C 0.11708 0.41083 0.32358 0.0
C612 C 0.06426 0.42804 0.2422 0.0
C613 C 0.15291 0.41262 0.3381 0.0
C614 C 0.92277 0.42486 0.16671 0.0
C615 C 0.95609 0.42752 0.18658 0.0
C616 C 0.00053 0.41644 0.28395 0.0
C617 C 0.10085 0.42903 0.3041 0.0
C618 C 0.06555 0.42596 0.2834 0.0
C619 C 0.96378 0.41494 0.22075 0.0
C620 C -0.00096 0.41836 0.24247 0.0
H621 H 0.17035 0.46712 0.31316 0.0
H622 H 0.10782 0.46368 0.28641 0.0
H623 H 0.03417 0.41822 0.33602 0.0
H624 H 0.88319 0.38552 0.22632 0.0
H625 H 0.9423 0.38911 0.25988 0.0
C626 C 0.3356 0.61242 0.82802 0.0
C627 C 0.32297 0.592 0.84376 0.0
C628 C 0.3722 0.61487 0.81633 0.0
C629 C 0.44642 0.5835 0.774 0.0
H630 H 0.50746 0.63466 0.80194 0.0
C631 C 0.57443 0.61013 0.68385 0.0
C632 C 0.60692 0.61212 0.70603 0.0
C633 C 0.54036 0.60816 0.7029 0.0
C634 C 0.49069 0.62029 0.79399 0.0
H635 H 0.33857 0.55828 0.86057 0.0
H636 H 0.40294 0.56236 0.83875 0.0
H637 H 0.44763 0.6294 0.8344 0.0
H638 H 0.62922 0.61459 0.76528 0.0
H639 H 0.5695 0.61192 0.79843 0.0
H640 H 0.48891 0.57478 0.73268 0.0
C641 C 0.3844 0.5765 0.83607 0.0
C642 C 0.45661 0.61728 0.81251 0.0
C643 C 0.34781 0.57421 0.8487 0.0
C644 C 0.60459 0.6131 0.74747 0.0
C645 C 0.57049 0.61159 0.76644 0.0
C646 C 0.48018 0.58674 0.75494 0.0
C647 C 0.39671 0.5968 0.8194 0.0
C648 C 0.43415 0.5989 0.80257 0.0
C649 C 0.53819 0.60861 0.74436 0.0
C650 C 0.5025 0.60523 0.76463 0.0
H651 H 0.31692 0.6264 0.82407 0.0
H652 H 0.38096 0.63062 0.80333 0.0
H653 H 0.42937 0.56934 0.76554 0.0
H654 H 0.57548 0.60911 0.6519 0.0
H655 H 0.51573 0.60604 0.68527 0.0
C656 C 0.56726 0.92011 0.64966 0.0
C657 C 0.5983 0.91425 0.6721 0.0
C658 C 0.53274 0.92224 0.66776 0.0
C659 C 0.49068 0.93559 0.7629 0.0
H660 H 0.40291 0.90784 0.7198 0.0
C661 C 0.34942 0.93819 0.8436 0.0
C662 C 0.31795 0.93955 0.81975 0.0
C663 C 0.38419 0.93515 0.82634 0.0
C664 C 0.42702 0.91602 0.73196 0.0
H665 H 0.61719 0.90569 0.7311 0.0
H666 H 0.55722 0.90959 0.76237 0.0
H667 H 0.46196 0.9022 0.68701 0.0
H668 H 0.29824 0.94013 0.75928 0.0
H669 H 0.35847 0.9358 0.72938 0.0
H670 H 0.4558 0.94993 0.80726 0.0
C671 C 0.55962 0.91254 0.73088 0.0
C672 C 0.46083 0.91268 0.71319 0.0
C673 C 0.5939 0.91013 0.7128 0.0
C674 C 0.32197 0.93874 0.77848 0.0
C675 C 0.35654 0.93608 0.76131 0.0
C676 C 0.45676 0.9392 0.78142 0.0
C677 C 0.52882 0.91886 0.70867 0.0
C678 C 0.49295 0.92243 0.72847 0.0
C679 C 0.38804 0.93374 0.78494 0.0
C680 C 0.42445 0.92953 0.76608 0.0
H681 H 0.56975 0.92352 0.61832 0.0
H682 H 0.50936 0.92722 0.65003 0.0
H683 H 0.51508 0.94345 0.77507 0.0
H684 H 0.347 0.9387 0.87551 0.0
H685 H 0.40783 0.93327 0.84548 0.0
C686 C 0.17607 0.08403 0.28014 0.0
C687 C 0.18015 0.08337 0.32139 0.0
C688 C 0.1414 0.08613 0.26311 0.0
C689 C 0.04112 0.0818 0.28358 0.0
H690 H 0.03488 0.11829 0.18891 0.0
C691 C 0.90301 0.10916 0.21525 0.0
C692 C 0.89882 0.10522 0.17446 0.0
C693 C 0.93732 0.10697 0.23326 0.0
C694 C 0.03628 0.10794 0.21515 0.0
H695 H 0.15103 0.08389 0.37726 0.0
H696 H 0.08997 0.08832 0.34749 0.0
H697 H 0.09404 0.11347 0.22151 0.0
H698 H 0.92777 0.09642 0.1205 0.0
H699 H 0.98817 0.09313 0.15206 0.0
H700 H 0.98292 0.07686 0.27749 0.0
C701 C 0.11369 0.08677 0.32824 0.0
C702 C 0.07019 0.10506 0.23383 0.0
C703 C 0.1486 0.08428 0.34537 0.0
C704 C 0.93008 0.0997 0.1519 0.0
C705 C 0.96462 0.0978 0.16993 0.0
C706 C 0.00709 0.08494 0.26514 0.0
C707 C 0.10976 0.08806 0.28684 0.0
C708 C 0.07318 0.09175 0.26807 0.0
C709 C 0.96838 0.10105 0.21091 0.0
C710 C 0.00441 0.09791 0.2306 0.0
H711 H 0.19985 0.08296 0.26082 0.0
H712 H 0.1395 0.08631 0.23119 0.0
H713 H 0.04237 0.07122 0.30952 0.0
H714 H 0.87956 0.11332 0.23367 0.0
H715 H 0.93953 0.10982 0.2648 0.0
C716 C 0.10093 0.61881 0.78647 0.0
C717 C 0.10254 0.61499 0.82743 0.0
C718 C 0.06791 0.61614 0.76595 0.0
C719 C 0.97772 0.58756 0.77365 0.0
H720 H 0.95101 0.62729 0.68779 0.0
C721 C 0.84644 0.57248 0.68145 0.0
C722 C 0.82463 0.59167 0.67584 0.0
C723 C 0.88263 0.57458 0.69526 0.0
C724 C 0.95804 0.61605 0.71173 0.0
H725 H 0.07021 0.60617 0.87914 0.0
H726 H 0.01236 0.60209 0.84349 0.0
H727 H 0.00801 0.6338 0.72381 0.0
H728 H 0.82442 0.62811 0.67786 0.0
H729 H 0.88684 0.6317 0.70215 0.0
H730 H 0.92703 0.57035 0.76258 0.0
C731 C 0.0369 0.60665 0.82709 0.0
C732 C 0.99089 0.61967 0.73218 0.0
C733 C 0.07 0.60923 0.84763 0.0
C734 C 0.84037 0.61296 0.68217 0.0
C735 C 0.87636 0.61505 0.69584 0.0
C736 C 0.9448 0.58399 0.75329 0.0
C737 C 0.03561 0.60967 0.78589 0.0
C738 C 0.00095 0.60562 0.76367 0.0
C739 C 0.89767 0.5959 0.70344 0.0
C740 C 0.93436 0.59834 0.72238 0.0
H741 H 0.1255 0.6231 0.76986 0.0
H742 H 0.06802 0.6184 0.73421 0.0
H743 H 0.98495 0.57617 0.79728 0.0
H744 H 0.83513 0.55585 0.67676 0.0
H745 H 0.89857 0.55951 0.70029 0.0
C746 C 0.42159 0.40925 0.33145 0.0
C747 C 0.38942 0.40733 0.30873 0.0
C748 C 0.45599 0.41073 0.31299 0.0
C749 C 0.5074 0.39737 0.22387 0.0
H750 H 0.56648 0.44985 0.24896 0.0
C751 C 0.66247 0.40749 0.18963 0.0
C752 C 0.67349 0.42753 0.17123 0.0
C753 C 0.62617 0.40455 0.20206 0.0
C754 C 0.55009 0.43524 0.24151 0.0
H755 H 0.36799 0.40438 0.24918 0.0
H756 H 0.42833 0.40611 0.21706 0.0
H757 H 0.50686 0.44435 0.28168 0.0
H758 H 0.65533 0.46007 0.15062 0.0
H759 H 0.59154 0.4552 0.1738 0.0
H760 H 0.55121 0.38791 0.18461 0.0
C761 C 0.42681 0.4068 0.24902 0.0
C762 C 0.51629 0.43197 0.26047 0.0
C763 C 0.39238 0.40582 0.26739 0.0
C764 C 0.64737 0.44444 0.16459 0.0
C765 C 0.6111 0.44171 0.17795 0.0
C766 C 0.54156 0.40039 0.20552 0.0
C767 C 0.45878 0.4098 0.2716 0.0
C768 C 0.49474 0.41299 0.25186 0.0
C769 C 0.60039 0.4218 0.1971 0.0
C770 C 0.56315 0.41935 0.21421 0.0
H771 H 0.42004 0.41068 0.36334 0.0
H772 H 0.48038 0.41292 0.33097 0.0
H773 H 0.49117 0.38263 0.21678 0.0
H774 H 0.68214 0.39417 0.1949 0.0
H775 H 0.61858 0.38912 0.21695 0.0
C776 C 0.28393 0.17562 0.41318 0.0
C777 C 0.27199 0.1629 0.38048 0.0
C778 C 0.27964 0.19896 0.41399 0.0
C779 C 0.27089 0.24729 0.34713 0.0
H780 H 0.24562 0.27992 0.44266 0.0
C781 C 0.25761 0.34366 0.34593 0.0
C782 C 0.27216 0.35563 0.37819 0.0
C783 C 0.25348 0.32032 0.34749 0.0
C784 C 0.25308 0.27111 0.4158 0.0
H785 H 0.24499 0.1649 0.32351 0.0
H786 H 0.23751 0.20569 0.32496 0.0
H787 H 0.24535 0.23891 0.44291 0.0
H788 H 0.29271 0.35238 0.438 0.0
H789 H 0.28619 0.31158 0.44051 0.0
H790 H 0.27956 0.27929 0.32018 0.0
C791 C 0.25052 0.19753 0.34984 0.0
C792 C 0.25282 0.24756 0.41593 0.0
C793 C 0.25457 0.17412 0.34914 0.0
C794 C 0.2813 0.34372 0.41264 0.0
C795 C 0.27744 0.32028 0.41409 0.0
C796 C 0.27135 0.27079 0.34705 0.0
C797 C 0.26348 0.21029 0.38205 0.0
C798 C 0.26185 0.23534 0.38161 0.0
C799 C 0.26408 0.3082 0.38124 0.0
C800 C 0.26254 0.28308 0.38139 0.0
H801 H 0.29736 0.16759 0.43793 0.0
H802 H 0.29022 0.20821 0.43912 0.0
H803 H 0.27867 0.23847 0.32038 0.0
H804 H 0.24987 0.3523 0.31907 0.0
H805 H 0.24223 0.31177 0.32195 0.0
C806 C 0.24595 0.85084 0.849 0.0
C807 C 0.22496 0.86157 0.87848 0.0
C808 C 0.25106 0.8275 0.84967 0.0
C809 C 0.24345 0.77746 0.91541 0.0
H810 H 0.2323 0.74456 0.81719 0.0
C811 C 0.21029 0.68271 0.91063 0.0
C812 C 0.22613 0.66936 0.88078 0.0
C813 C 0.21534 0.70599 0.91098 0.0
C814 C 0.23608 0.75347 0.84481 0.0
H815 H 0.19372 0.85602 0.93237 0.0
H816 H 0.20228 0.81562 0.93329 0.0
H817 H 0.23184 0.78552 0.81653 0.0
H818 H 0.26073 0.67016 0.82845 0.0
H819 H 0.26962 0.71087 0.82917 0.0
H820 H 0.24687 0.74542 0.94378 0.0
C821 C 0.21518 0.82517 0.90981 0.0
C822 C 0.23584 0.777 0.84444 0.0
C823 C 0.21005 0.84842 0.90913 0.0
C824 C 0.24805 0.67989 0.85186 0.0
C825 C 0.25295 0.70326 0.8521 0.0
C826 C 0.24362 0.75396 0.91578 0.0
C827 C 0.23544 0.81432 0.87992 0.0
C828 C 0.23892 0.78932 0.87982 0.0
C829 C 0.23631 0.71664 0.88144 0.0
C830 C 0.23935 0.74164 0.88058 0.0
H831 H 0.25794 0.86041 0.82499 0.0
H832 H 0.26719 0.81976 0.82642 0.0
H833 H 0.24664 0.78634 0.94314 0.0
H834 H 0.19326 0.67524 0.93343 0.0
H835 H 0.20176 0.71574 0.93378 0.0
C836 C 0.75059 0.17081 0.16332 0.0
C837 C 0.77162 0.16016 0.13381 0.0
C838 C 0.7456 0.19416 0.16287 0.0
C839 C 0.75396 0.24445 0.0979 0.0
H840 H 0.76615 0.27677 0.19658 0.0
C841 C 0.78934 0.33879 0.10385 0.0
C842 C 0.77341 0.35218 0.1336 0.0
C843 C 0.78403 0.31554 0.1034 0.0
C844 C 0.76209 0.26801 0.16884 0.0
H845 H 0.80293 0.1658 0.08 0.0
H846 H 0.79457 0.2062 0.07944 0.0
H847 H 0.76563 0.23581 0.19662 0.0
H848 H 0.73855 0.35147 0.18573 0.0
H849 H 0.72926 0.3108 0.18489 0.0
H850 H 0.75129 0.27665 0.07001 0.0
C851 C 0.78156 0.1966 0.10279 0.0
C852 C 0.76176 0.24449 0.16886 0.0
C853 C 0.78659 0.17335 0.10326 0.0
C854 C 0.75132 0.34171 0.16244 0.0
C855 C 0.74617 0.31837 0.1621 0.0
C856 C 0.75438 0.26794 0.09787 0.0
C857 C 0.76138 0.20739 0.13279 0.0
C858 C 0.75831 0.23239 0.1333 0.0
C859 C 0.76271 0.30498 0.13273 0.0
C860 C 0.75905 0.28003 0.13325 0.0
H861 H 0.73856 0.1612 0.18727 0.0
H862 H 0.72951 0.20187 0.18619 0.0
H863 H 0.75051 0.23572 0.07004 0.0
H864 H 0.80649 0.34623 0.08111 0.0
H865 H 0.79756 0.30576 0.08062 0.0
C866 C 0.70971 0.8457 0.59664 0.0
C867 C 0.72319 0.85826 0.62881 0.0
C868 C 0.71347 0.82233 0.59556 0.0
C869 C 0.72372 0.77399 0.66198 0.0
H870 H 0.74544 0.74107 0.56575 0.0
C871 C 0.73699 0.67779 0.66373 0.0
C872 C 0.72118 0.66567 0.63235 0.0
C873 C 0.74108 0.7011 0.66161 0.0
C874 C 0.73897 0.74998 0.59281 0.0
H875 H 0.75243 0.85599 0.68448 0.0
H876 H 0.75898 0.81517 0.68256 0.0
H877 H 0.74609 0.7821 0.56522 0.0
H878 H 0.69834 0.66858 0.57346 0.0
H879 H 0.70475 0.70938 0.57001 0.0
H880 H 0.71566 0.74209 0.68946 0.0
C881 C 0.74515 0.82346 0.65833 0.0
C882 C 0.73945 0.77352 0.59252 0.0
C883 C 0.7416 0.84688 0.6593 0.0
C884 C 0.71071 0.67738 0.59814 0.0
C885 C 0.71451 0.70081 0.59614 0.0
C886 C 0.72303 0.75051 0.66223 0.0
C887 C 0.73065 0.81086 0.62672 0.0
C888 C 0.73177 0.78582 0.62711 0.0
C889 C 0.72914 0.71304 0.62819 0.0
C890 C 0.73063 0.73813 0.62767 0.0
H891 H 0.69548 0.85387 0.57255 0.0
H892 H 0.70173 0.81318 0.57092 0.0
H893 H 0.71694 0.78289 0.68896 0.0
H894 H 0.74583 0.66929 0.69033 0.0
H895 H 0.75334 0.70978 0.68646 0.0
loop_
_geom_bond_atom_site_label_1
_geom_bond_atom_site_label_2
_geom_bond_distance
_geom_bond_site_symmetry_2
_ccdc_geom_bond_type
Fe0 O2 1.918 . S
Fe0 O5 1.997 . S
Fe0 O6 2.002 . S
Fe0 O11 1.976 . S
Fe0 O14 1.996 . S
Fe1 O2 1.918 . S
Fe1 O9 1.997 . S
Fe1 O12 1.996 . S
Fe1 O16 1.976 . S
Fe1 O19 2.002 . S
O2 Fe0 1.918 . S
O2 Fe1 1.918 . S
O2 Fe3 1.918 . S
Fe3 O2 1.918 . S
Fe3 O4 2.002 . S
Fe3 O13 1.976 . S
Fe3 O17 1.996 . S
Fe3 O20 1.997 . S
O4 Fe3 2.002 . S
O4 C21 1.295 . S
O5 Fe0 1.997 . S
O5 C21 1.235 . S
O6 Fe0 2.002 . S
O6 C7 1.295 . S
C7 O6 1.295 . S
C7 O9 1.235 . S
C8 O13 1.287 . S
C8 O14 1.255 . S
O9 Fe1 1.997 . S
O9 C7 1.235 . S
C10 O16 1.287 . S
C10 O17 1.255 . S
O11 Fe0 1.976 . S
O11 C18 1.287 . S
O12 Fe1 1.996 . S
O12 C18 1.255 . S
O13 Fe3 1.976 . S
O13 C8 1.287 . S
O14 Fe0 1.996 . S
O14 C8 1.255 . S
C15 O19 1.295 . S
C15 O20 1.235 . S
O16 Fe1 1.976 . S
O16 C10 1.287 . S
O17 Fe3 1.996 . S
O17 C10 1.255 . S
C18 O11 1.287 . S
C18 O12 1.255 . S
O19 Fe1 2.002 . S
O19 C15 1.295 . S
O20 Fe3 1.997 . S
O20 C15 1.235 . S
C21 O4 1.295 . S
C21 O5 1.235 . S
Fe22 O24 1.918 . S
Fe22 O27 1.997 . S
Fe22 O28 2.002 . S
Fe22 O33 1.976 . S
Fe22 O36 1.996 . S
Fe23 O24 1.918 . S
Fe23 O31 1.997 . S
Fe23 O34 1.996 . S
Fe23 O38 1.976 . S
Fe23 O41 2.002 . S
O24 Fe22 1.918 . S
O24 Fe23 1.918 . S
O24 Fe25 1.918 . S
Fe25 O24 1.918 . S
Fe25 O26 2.002 . S
Fe25 O35 1.976 . S
Fe25 O39 1.996 . S
Fe25 O42 1.997 . S
O26 Fe25 2.002 . S
O26 C43 1.295 . S
O27 Fe22 1.997 . S
O27 C43 1.235 . S
O28 Fe22 2.002 . S
O28 C29 1.295 . S
C29 O28 1.295 . S
C29 O31 1.235 . S
C30 O35 1.287 . S
C30 O36 1.255 . S
O31 Fe23 1.997 . S
O31 C29 1.235 . S
C32 O38 1.287 . S
C32 O39 1.255 . S
O33 Fe22 1.976 . S
O33 C40 1.287 . S
O34 Fe23 1.996 . S
O34 C40 1.255 . S
O35 Fe25 1.976 . S
O35 C30 1.287 . S
O36 Fe22 1.996 . S
O36 C30 1.255 . S
C37 O41 1.295 . S
C37 O42 1.235 . S
O38 Fe23 1.976 . S
O38 C32 1.287 . S
O39 Fe25 1.996 . S
O39 C32 1.255 . S
C40 O33 1.287 . S
C40 O34 1.255 . S
O41 Fe23 2.002 . S
O41 C37 1.295 . S
O42 Fe25 1.997 . S
O42 C37 1.235 . S
C43 O26 1.295 . S
C43 O27 1.235 . S
Fe44 O46 1.918 . S
Fe44 O49 1.997 . S
Fe44 O50 2.002 . S
Fe44 O55 1.976 . S
Fe44 O58 1.996 . S
Fe45 O46 1.918 . S
Fe45 O53 1.997 . S
Fe45 O56 1.996 . S
Fe45 O60 1.976 . S
Fe45 O63 2.002 . S
O46 Fe44 1.918 . S
O46 Fe45 1.918 . S
O46 Fe47 1.918 . S
Fe47 O46 1.918 . S
Fe47 O48 2.002 . S
Fe47 O57 1.976 . S
Fe47 O61 1.996 . S
Fe47 O64 1.997 . S
O48 Fe47 2.002 . S
O48 C65 1.295 . S
O49 Fe44 1.997 . S
O49 C65 1.235 . S
O50 Fe44 2.002 . S
O50 C51 1.295 . S
C51 O50 1.295 . S
C51 O53 1.235 . S
C52 O57 1.287 . S
C52 O58 1.255 . S
O53 Fe45 1.997 . S
O53 C51 1.235 . S
C54 O60 1.287 . S
C54 O61 1.255 . S
O55 Fe44 1.976 . S
O55 C62 1.287 . S
O56 Fe45 1.996 . S
O56 C62 1.255 . S
O57 Fe47 1.976 . S
O57 C52 1.287 . S
O58 Fe44 1.996 . S
O58 C52 1.255 . S
C59 O63 1.295 . S
C59 O64 1.235 . S
O60 Fe45 1.976 . S
O60 C54 1.287 . S
O61 Fe47 1.996 . S
O61 C54 1.255 . S
C62 O55 1.287 . S
C62 O56 1.255 . S
O63 Fe45 2.002 . S
O63 C59 1.295 . S
O64 Fe47 1.997 . S
O64 C59 1.235 . S
C65 O48 1.295 . S
C65 O49 1.235 . S
Fe66 O68 1.918 . S
Fe66 O71 1.997 . S
Fe66 O72 2.002 . S
Fe66 O77 1.976 . S
Fe66 O80 1.996 . S
Fe67 O68 1.918 . S
Fe67 O75 1.997 . S
Fe67 O78 1.996 . S
Fe67 O82 1.976 . S
Fe67 O85 2.002 . S
O68 Fe66 1.918 . S
O68 Fe67 1.918 . S
O68 Fe69 1.918 . S
Fe69 O68 1.918 . S
Fe69 O70 2.002 . S
Fe69 O79 1.976 . S
Fe69 O83 1.996 . S
Fe69 O86 1.997 . S
O70 Fe69 2.002 . S
O70 C87 1.295 . S
O71 Fe66 1.997 . S
O71 C87 1.235 . S
O72 Fe66 2.002 . S
O72 C73 1.295 . S
C73 O72 1.295 . S
C73 O75 1.235 . S
C74 O79 1.287 . S
C74 O80 1.255 . S
O75 Fe67 1.997 . S
O75 C73 1.235 . S
C76 O82 1.287 . S
C76 O83 1.255 . S
O77 Fe66 1.976 . S
O77 C84 1.287 . S
O78 Fe67 1.996 . S
O78 C84 1.255 . S
O79 Fe69 1.976 . S
O79 C74 1.287 . S
O80 Fe66 1.996 . S
O80 C74 1.255 . S
C81 O85 1.295 . S
C81 O86 1.235 . S
O82 Fe67 1.976 . S
O82 C76 1.287 . S
O83 Fe69 1.996 . S
O83 C76 1.255 . S
C84 O77 1.287 . S
C84 O78 1.255 . S
O85 Fe67 2.002 . S
O85 C81 1.295 . S
O86 Fe69 1.997 . S
O86 C81 1.235 . S
C87 O70 1.295 . S
C87 O71 1.235 . S
Fe88 O90 1.918 . S
Fe88 O93 1.997 . S
Fe88 O94 2.002 . S
Fe88 O99 1.976 . S
Fe88 O102 1.996 . S
Fe89 O90 1.918 . S
Fe89 O97 1.997 . S
Fe89 O100 1.996 . S
Fe89 O104 1.976 . S
Fe89 O107 2.002 . S
O90 Fe88 1.918 . S
O90 Fe89 1.918 . S
O90 Fe91 1.918 . S
Fe91 O90 1.918 . S
Fe91 O92 2.002 . S
Fe91 O101 1.976 . S
Fe91 O105 1.996 . S
Fe91 O108 1.997 . S
O92 Fe91 2.002 . S
O92 C109 1.295 . S
O93 Fe88 1.997 . S
O93 C109 1.235 . S
O94 Fe88 2.002 . S
O94 C95 1.295 . S
C95 O94 1.295 . S
C95 O97 1.235 . S
C96 O101 1.287 . S
C96 O102 1.255 . S
O97 Fe89 1.997 . S
O97 C95 1.235 . S
C98 O104 1.287 . S
C98 O105 1.255 . S
O99 Fe88 1.976 . S
O99 C106 1.287 . S
O100 Fe89 1.996 . S
O100 C106 1.255 . S
O101 Fe91 1.976 . S
O101 C96 1.287 . S
O102 Fe88 1.996 . S
O102 C96 1.255 . S
C103 O107 1.295 . S
C103 O108 1.235 . S
O104 Fe89 1.976 . S
O104 C98 1.287 . S
O105 Fe91 1.996 . S
O105 C98 1.255 . S
C106 O99 1.287 . S
C106 O100 1.255 . S
O107 Fe89 2.002 . S
O107 C103 1.295 . S
O108 Fe91 1.997 . S
O108 C103 1.235 . S
C109 O92 1.295 . S
C109 O93 1.235 . S
Fe110 O112 1.918 . S
Fe110 O115 1.997 . S
Fe110 O116 2.002 . S
Fe110 O121 1.976 . S
Fe110 O124 1.996 . S
Fe111 O112 1.918 . S
Fe111 O119 1.997 . S
Fe111 O122 1.996 . S
Fe111 O126 1.976 . S
Fe111 O129 2.002 . S
O112 Fe110 1.918 . S
O112 Fe111 1.918 . S
O112 Fe113 1.918 . S
Fe113 O112 1.918 . S
Fe113 O114 2.002 . S
Fe113 O123 1.976 . S
Fe113 O127 1.996 . S
Fe113 O130 1.997 . S
O114 Fe113 2.002 . S
O114 C131 1.295 . S
O115 Fe110 1.997 . S
O115 C131 1.235 . S
O116 Fe110 2.002 . S
O116 C117 1.295 . S
C117 O116 1.295 . S
C117 O119 1.235 . S
C118 O123 1.287 . S
C118 O124 1.255 . S
O119 Fe111 1.997 . S
O119 C117 1.235 . S
C120 O126 1.287 . S
C120 O127 1.255 . S
O121 Fe110 1.976 . S
O121 C128 1.287 . S
O122 Fe111 1.996 . S
O122 C128 1.255 . S
O123 Fe113 1.976 . S
O123 C118 1.287 . S
O124 Fe110 1.996 . S
O124 C118 1.255 . S
C125 O129 1.295 . S
C125 O130 1.235 . S
O126 Fe111 1.976 . S
O126 C120 1.287 . S
O127 Fe113 1.996 . S
O127 C120 1.255 . S
C128 O121 1.287 . S
C128 O122 1.255 . S
O129 Fe111 2.002 . S
O129 C125 1.295 . S
O130 Fe113 1.997 . S
O130 C125 1.235 . S
C131 O114 1.295 . S
C131 O115 1.235 . S
Fe132 O134 1.918 . S
Fe132 O137 1.997 . S
Fe132 O138 2.002 . S
Fe132 O143 1.976 . S
Fe132 O146 1.996 . S
Fe133 O134 1.918 . S
Fe133 O141 1.997 . S
Fe133 O144 1.996 . S
Fe133 O148 1.976 . S
Fe133 O151 2.002 . S
O134 Fe132 1.918 . S
O134 Fe133 1.918 . S
O134 Fe135 1.918 . S
Fe135 O134 1.918 . S
Fe135 O136 2.002 . S
Fe135 O145 1.976 . S
Fe135 O149 1.996 . S
Fe135 O152 1.997 . S
O136 Fe135 2.002 . S
O136 C153 1.295 . S
O137 Fe132 1.997 . S
O137 C153 1.235 . S
O138 Fe132 2.002 . S
O138 C139 1.295 . S
C139 O138 1.295 . S
C139 O141 1.235 . S
C140 O145 1.287 . S
C140 O146 1.255 . S
O141 Fe133 1.997 . S
O141 C139 1.235 . S
C142 O148 1.287 . S
C142 O149 1.255 . S
O143 Fe132 1.976 . S
O143 C150 1.287 . S
O144 Fe133 1.996 . S
O144 C150 1.255 . S
O145 Fe135 1.976 . S
O145 C140 1.287 . S
O146 Fe132 1.996 . S
O146 C140 1.255 . S
C147 O151 1.295 . S
C147 O152 1.235 . S
O148 Fe133 1.976 . S
O148 C142 1.287 . S
O149 Fe135 1.996 . S
O149 C142 1.255 . S
C150 O143 1.287 . S
C150 O144 1.255 . S
O151 Fe133 2.002 . S
O151 C147 1.295 . S
O152 Fe135 1.997 . S
O152 C147 1.235 . S
C153 O136 1.295 . S
C153 O137 1.235 . S
Fe154 O156 1.918 . S
Fe154 O159 1.997 . S
Fe154 O160 2.002 . S
Fe154 O165 1.976 . S
Fe154 O168 1.996 . S
Fe155 O156 1.918 . S
Fe155 O163 1.997 . S
Fe155 O166 1.996 . S
Fe155 O170 1.976 . S
Fe155 O173 2.002 . S
O156 Fe154 1.918 . S
O156 Fe155 1.918 . S
O156 Fe157 1.918 . S
Fe157 O156 1.918 . S
Fe157 O158 2.002 . S
Fe157 O167 1.976 . S
Fe157 O171 1.996 . S
Fe157 O174 1.997 . S
O158 Fe157 2.002 . S
O158 C175 1.295 . S
O159 Fe154 1.997 . S
O159 C175 1.235 . S
O160 Fe154 2.002 . S
O160 C161 1.295 . S
C161 O160 1.295 . S
C161 O163 1.235 . S
C162 O167 1.287 . S
C162 O168 1.255 . S
O163 Fe155 1.997 . S
O163 C161 1.235 . S
C164 O170 1.287 . S
C164 O171 1.255 . S
O165 Fe154 1.976 . S
O165 C172 1.287 . S
O166 Fe155 1.996 . S
O166 C172 1.255 . S
O167 Fe157 1.976 . S
O167 C162 1.287 . S
O168 Fe154 1.996 . S
O168 C162 1.255 . S
C169 O173 1.295 . S
C169 O174 1.235 . S
O170 Fe155 1.976 . S
O170 C164 1.287 . S
O171 Fe157 1.996 . S
O171 C164 1.255 . S
C172 O165 1.287 . S
C172 O166 1.255 . S
O173 Fe155 2.002 . S
O173 C169 1.295 . S
O174 Fe157 1.997 . S
O174 C169 1.235 . S
C175 O158 1.295 . S
C175 O159 1.235 . S
C176 C177 1.349 . S
C176 C178 1.327 . S
C176 H201 0.950 . S
C177 C176 1.349 . S
C177 C193 1.349 . S
C178 C176 1.327 . S
C178 C197 1.429 . S
C178 H202 0.950 1_565 S
C179 C196 1.574 . S
C179 C198 1.368 . S
C179 H203 0.949 . S
H180 C184 0.949 . S
C181 C182 1.349 . S
C181 C183 1.327 . S
C181 H204 0.950 . S
C182 C181 1.349 . S
C182 C194 1.349 . S
C183 C181 1.327 . S
C183 C199 1.429 . S
C183 H205 0.950 1_545 S
C184 H180 0.949 . S
C184 C192 1.574 . S
C184 C200 1.368 . S
H185 C193 0.950 . S
H186 C191 0.950 . S
H187 C192 0.949 . S
H188 C194 0.950 . S
H189 C195 0.950 . S
H190 C196 0.949 . S
C191 H186 0.950 . S
C191 C193 1.327 . S
C191 C197 1.429 . S
C192 C184 1.574 . S
C192 H187 0.949 . S
C192 C198 1.368 1_545 S
C193 C177 1.349 . S
C193 H185 0.950 . S
C193 C191 1.327 . S
C194 C182 1.349 . S
C194 H188 0.950 . S
C194 C195 1.327 . S
C195 H189 0.950 . S
C195 C194 1.327 . S
C195 C199 1.429 . S
C196 C179 1.574 . S
C196 H190 0.949 . S
C196 C200 1.368 1_565 S
C197 C178 1.429 . S
C197 C191 1.429 . S
C197 C198 1.523 . S
C198 C179 1.368 . S
C198 C192 1.368 1_565 S
C198 C197 1.523 . S
C199 C183 1.429 . S
C199 C195 1.429 . S
C199 C200 1.523 . S
C200 C184 1.368 . S
C200 C196 1.368 1_545 S
C200 C199 1.523 . S
H201 C176 0.950 . S
H202 C178 0.950 1_545 S
H203 C179 0.949 . S
H204 C181 0.950 . S
H205 C183 0.950 1_565 S
C206 C207 1.349 . S
C206 C208 1.327 . S
C206 H231 0.950 . S
C207 C206 1.349 . S
C207 C223 1.349 . S
C208 C206 1.327 . S
C208 C227 1.429 . S
C208 H232 0.950 1_545 S
C209 C226 1.575 . S
C209 C228 1.368 1_455 S
C209 H233 0.949 . S
H210 C214 0.949 . S
C211 C212 1.349 . S
C211 C213 1.327 . S
C211 H234 0.950 . S
C212 C211 1.349 . S
C212 C224 1.349 . S
C213 C211 1.327 . S
C213 C229 1.429 . S
C213 H235 0.950 1_565 S
C214 H210 0.949 . S
C214 C222 1.574 . S
C214 C230 1.368 1_655 S
H215 C223 0.950 . S
H216 C221 0.950 . S
H217 C222 0.949 . S
H218 C224 0.950 . S
H219 C225 0.950 . S
H220 C226 0.949 . S
C221 H216 0.950 . S
C221 C223 1.327 . S
C221 C227 1.429 . S
C222 C214 1.574 . S
C222 H217 0.949 . S
C222 C228 1.368 1_566 S
C223 C207 1.349 . S
C223 H215 0.950 . S
C223 C221 1.327 . S
C224 C212 1.349 . S
C224 H218 0.950 . S
C224 C225 1.327 . S
C225 H219 0.950 . S
C225 C224 1.327 . S
C225 C229 1.429 . S
C226 C209 1.575 . S
C226 H220 0.949 . S
C226 C230 1.367 1_544 S
C227 C208 1.429 . S
C227 C221 1.429 . S
C227 C228 1.523 . S
C228 C209 1.368 1_655 S
C228 C222 1.368 1_544 S
C228 C227 1.523 . S
C229 C213 1.429 . S
C229 C225 1.429 . S
C229 C230 1.523 . S
C230 C214 1.368 1_455 S
C230 C226 1.367 1_566 S
C230 C229 1.523 . S
H231 C206 0.950 . S
H232 C208 0.950 1_565 S
H233 C209 0.949 . S
H234 C211 0.950 . S
H235 C213 0.950 1_545 S
C236 C237 1.349 . S
C236 C238 1.327 . S
C236 H261 0.950 . S
C237 C236 1.349 . S
C237 C253 1.349 . S
C238 C236 1.327 . S
C238 C257 1.429 . S
C238 H262 0.950 . S
C239 C256 1.555 1_456 S
C239 C258 1.368 . S
C239 H263 0.949 . S
H240 C244 0.949 . S
C241 C242 1.349 . S
C241 C243 1.327 . S
C241 H264 0.950 . S
C242 C241 1.349 . S
C242 C254 1.349 . S
C243 C241 1.327 . S
C243 C259 1.429 . S
C243 H265 0.950 . S
C244 H240 0.949 . S
C244 C252 1.574 1_654 S
C244 C260 1.368 . S
H245 C253 0.950 . S
H246 C251 0.950 . S
H247 C252 0.949 . S
H248 C254 0.950 . S
H249 C255 0.950 . S
H250 C256 0.951 . S
C251 H246 0.950 . S
C251 C253 1.327 . S
C251 C257 1.429 . S
C252 C244 1.574 1_456 S
C252 H247 0.949 . S
C252 C258 1.368 . S
C253 C237 1.349 . S
C253 H245 0.950 . S
C253 C251 1.327 . S
C254 C242 1.349 . S
C254 H248 0.950 . S
C254 C255 1.327 . S
C255 H249 0.950 . S
C255 C254 1.327 . S
C255 C259 1.429 . S
C256 C239 1.555 1_654 S
C256 H250 0.951 . S
C256 C260 1.385 . S
C257 C238 1.429 . S
C257 C251 1.429 . S
C257 C258 1.523 . S
C258 C239 1.368 . S
C258 C252 1.368 . S
C258 C257 1.523 . S
C259 C243 1.429 . S
C259 C255 1.429 . S
C259 C260 1.523 . S
C260 C244 1.368 . S
C260 C256 1.385 . S
C260 C259 1.523 . S
H261 C236 0.950 . S
H262 C238 0.950 . S
H263 C239 0.949 . S
H264 C241 0.950 . S
H265 C243 0.950 . S
C266 C267 1.349 . S
C266 C268 1.327 . S
C266 H291 0.950 . S
C267 C266 1.349 . S
C267 C283 1.349 . S
C268 C266 1.327 . S
C268 C287 1.429 . S
C268 H292 0.950 . S
C269 C286 1.574 . S
C269 C288 1.368 . S
C269 H293 0.949 . S
H270 C274 0.949 . S
C271 C272 1.349 . S
C271 C273 1.327 . S
C271 H294 0.950 . S
C272 C271 1.349 . S
C272 C284 1.349 . S
C273 C271 1.327 . S
C273 C289 1.429 . S
C273 H295 0.950 . S
C274 H270 0.949 . S
C274 C282 1.574 . S
C274 C290 1.368 . S
H275 C283 0.950 . S
H276 C281 0.950 . S
H277 C282 0.949 . S
H278 C284 0.950 . S
H279 C285 0.950 . S
H280 C286 0.949 . S
C281 H276 0.950 . S
C281 C283 1.327 . S
C281 C287 1.429 . S
C282 C274 1.574 . S
C282 H277 0.949 . S
C282 C288 1.368 . S
C283 C267 1.349 . S
C283 H275 0.950 . S
C283 C281 1.327 . S
C284 C272 1.349 . S
C284 H278 0.950 . S
C284 C285 1.327 . S
C285 H279 0.950 . S
C285 C284 1.327 . S
C285 C289 1.429 . S
C286 C269 1.574 . S
C286 H280 0.949 . S
C286 C290 1.368 . S
C287 C268 1.429 . S
C287 C281 1.429 . S
C287 C288 1.523 . S
C288 C269 1.368 . S
C288 C282 1.368 . S
C288 C287 1.523 . S
C289 C273 1.429 . S
C289 C285 1.429 . S
C289 C290 1.523 . S
C290 C274 1.368 . S
C290 C286 1.368 . S
C290 C289 1.523 . S
H291 C266 0.950 . S
H292 C268 0.950 . S
H293 C269 0.949 . S
H294 C271 0.950 . S
H295 C273 0.950 . S
C296 C297 1.349 . S
C296 C298 1.327 . S
C296 H321 0.950 . S
C297 C296 1.349 . S
C297 C313 1.349 . S
C298 C296 1.327 . S
C298 C317 1.429 . S
C298 H322 0.950 1_545 S
C299 C316 1.574 1_545 S
C299 C318 1.368 1_545 S
C299 H323 0.949 . S
H300 C304 0.949 . S
C301 C302 1.349 1_556 S
C301 C303 1.327 1_556 S
C301 H324 0.950 . S
C302 C301 1.349 1_554 S
C302 C314 1.349 . S
C303 C301 1.327 1_554 S
C303 C319 1.429 . S
C303 H325 0.950 . S
C304 H300 0.949 . S
C304 C312 1.574 . S
C304 C320 1.368 . S
H305 C313 0.950 . S
H306 C311 0.950 . S
H307 C312 0.949 . S
H308 C314 0.950 . S
H309 C315 0.950 . S
H310 C316 0.949 . S
C311 H306 0.950 . S
C311 C313 1.327 . S
C311 C317 1.429 . S
C312 C304 1.574 . S
C312 H307 0.949 . S
C312 C318 1.368 . S
C313 C297 1.349 . S
C313 H305 0.950 . S
C313 C311 1.327 . S
C314 C302 1.349 . S
C314 H308 0.950 . S
C314 C315 1.327 . S
C315 H309 0.950 . S
C315 C314 1.327 . S
C315 C319 1.429 . S
C316 C299 1.574 1_565 S
C316 H310 0.949 . S
C316 C320 1.368 . S
C317 C298 1.429 . S
C317 C311 1.429 . S
C317 C318 1.523 1_545 S
C318 C299 1.368 1_565 S
C318 C312 1.368 . S
C318 C317 1.523 1_565 S
C319 C303 1.429 . S
C319 C315 1.429 . S
C319 C320 1.523 . S
C320 C304 1.368 . S
C320 C316 1.368 . S
C320 C319 1.523 . S
H321 C296 0.950 . S
H322 C298 0.950 1_565 S
H323 C299 0.949 . S
H324 C301 0.950 . S
H325 C303 0.950 . S
C326 C327 1.349 . S
C326 C328 1.327 . S
C326 H351 0.950 . S
C327 C326 1.349 . S
C327 C343 1.349 . S
C328 C326 1.327 . S
C328 C347 1.429 . S
C328 H352 0.950 . S
C329 C346 1.574 . S
C329 C348 1.368 . S
C329 H353 0.949 . S
H330 C334 0.949 . S
C331 C332 1.349 . S
C331 C333 1.327 . S
C331 H354 0.950 . S
C332 C331 1.349 . S
C332 C344 1.349 . S
C333 C331 1.327 . S
C333 C349 1.429 . S
C333 H355 0.950 . S
C334 H330 0.949 . S
C334 C342 1.574 . S
C334 C350 1.368 . S
H335 C343 0.950 . S
H336 C341 0.950 . S
H337 C342 0.949 1_565 S
H338 C344 0.950 . S
H339 C345 0.950 . S
H340 C346 0.949 . S
C341 H336 0.950 . S
C341 C343 1.327 . S
C341 C347 1.429 . S
C342 C334 1.574 . S
C342 H337 0.949 1_545 S
C342 C348 1.368 . S
C343 C327 1.349 . S
C343 H335 0.950 . S
C343 C341 1.327 . S
C344 C332 1.349 . S
C344 H338 0.950 . S
C344 C345 1.327 . S
C345 H339 0.950 . S
C345 C344 1.327 . S
C345 C349 1.429 . S
C346 C329 1.574 . S
C346 H340 0.949 . S
C346 C350 1.368 . S
C347 C328 1.429 . S
C347 C341 1.429 . S
C347 C348 1.523 1_565 S
C348 C329 1.368 . S
C348 C342 1.368 . S
C348 C347 1.523 1_545 S
C349 C333 1.429 . S
C349 C345 1.429 . S
C349 C350 1.523 . S
C350 C334 1.368 . S
C350 C346 1.368 . S
C350 C349 1.523 . S
H351 C326 0.950 . S
H352 C328 0.950 . S
H353 C329 0.949 . S
H354 C331 0.950 . S
H355 C333 0.950 . S
C356 C357 1.349 . S
C356 C358 1.327 . S
C356 H381 0.950 . S
C357 C356 1.349 . S
C357 C373 1.349 . S
C358 C356 1.327 . S
C358 C377 1.429 . S
C358 H382 0.950 . S
C359 C376 1.574 . S
C359 C378 1.368 . S
C359 H383 0.949 . S
H360 C364 0.949 . S
C361 C362 1.349 . S
C361 C363 1.327 . S
C361 H384 0.950 . S
C362 C361 1.349 . S
C362 C374 1.349 . S
C363 C361 1.327 . S
C363 C379 1.429 . S
C363 H385 0.950 . S
C364 H360 0.949 . S
C364 C372 1.574 . S
C364 C380 1.368 . S
H365 C373 0.950 . S
H366 C371 0.950 . S
H367 C372 0.949 . S
H368 C374 0.950 . S
H369 C375 0.950 . S
H370 C376 0.949 . S
C371 H366 0.950 . S
C371 C373 1.327 . S
C371 C377 1.429 . S
C372 C364 1.574 . S
C372 H367 0.949 . S
C372 C378 1.368 . S
C373 C357 1.349 . S
C373 H365 0.950 . S
C373 C371 1.327 . S
C374 C362 1.349 . S
C374 H368 0.950 . S
C374 C375 1.327 . S
C375 H369 0.950 . S
C375 C374 1.327 . S
C375 C379 1.429 . S
C376 C359 1.574 . S
C376 H370 0.949 . S
C376 C380 1.368 . S
C377 C358 1.429 . S
C377 C371 1.429 . S
C377 C378 1.523 . S
C378 C359 1.368 . S
C378 C372 1.368 . S
C378 C377 1.523 . S
C379 C363 1.429 . S
C379 C375 1.429 . S
C379 C380 1.523 . S
C380 C364 1.368 . S
C380 C376 1.368 . S
C380 C379 1.523 . S
H381 C356 0.950 . S
H382 C358 0.950 . S
H383 C359 0.949 . S
H384 C361 0.950 . S
H385 C363 0.950 . S
C386 C387 1.349 . S
C386 C388 1.327 . S
C386 H411 0.950 . S
C387 C386 1.349 . S
C387 C403 1.349 . S
C388 C386 1.327 . S
C388 C407 1.429 . S
C388 H412 0.950 . S
C389 C406 1.574 . S
C389 C408 1.368 . S
C389 H413 0.949 . S
H390 C394 0.949 . S
C391 C392 1.349 . S
C391 C393 1.327 . S
C391 H414 0.950 . S
C392 C391 1.349 . S
C392 C404 1.349 . S
C393 C391 1.327 . S
C393 C409 1.429 . S
C393 H415 0.950 . S
C394 H390 0.949 . S
C394 C402 1.574 . S
C394 C410 1.368 . S
H395 C403 0.950 . S
H396 C401 0.950 . S
H397 C402 0.949 . S
H398 C404 0.950 . S
H399 C405 0.950 . S
H400 C406 0.949 . S
C401 H396 0.950 . S
C401 C403 1.327 . S
C401 C407 1.429 . S
C402 C394 1.574 . S
C402 H397 0.949 . S
C402 C408 1.368 . S
C403 C387 1.349 . S
C403 H395 0.950 . S
C403 C401 1.327 . S
C404 C392 1.349 . S
C404 H398 0.950 . S
C404 C405 1.327 . S
C405 H399 0.950 . S
C405 C404 1.327 . S
C405 C409 1.429 . S
C406 C389 1.574 . S
C406 H400 0.949 . S
C406 C410 1.368 . S
C407 C388 1.429 . S
C407 C401 1.429 . S
C407 C408 1.523 . S
C408 C389 1.368 . S
C408 C402 1.368 . S
C408 C407 1.523 . S
C409 C393 1.429 . S
C409 C405 1.429 . S
C409 C410 1.523 . S
C410 C394 1.368 . S
C410 C406 1.368 . S
C410 C409 1.523 . S
H411 C386 0.950 . S
H412 C388 0.950 . S
H413 C389 0.949 . S
H414 C391 0.950 . S
H415 C393 0.950 . S
C416 C417 1.350 . S
C416 C418 1.337 . S
C416 H441 0.938 1_556 S
C417 C416 1.350 . S
C417 C433 1.349 . S
C418 C416 1.337 . S
C418 C437 1.429 . S
C418 H442 0.950 . S
C419 C436 1.574 . S
C419 C438 1.368 . S
C419 H443 0.949 . S
H420 C424 0.949 . S
C421 C422 1.349 . S
C421 C423 1.327 . S
C421 H444 0.950 . S
C422 C421 1.349 . S
C422 C434 1.349 . S
C423 C421 1.327 . S
C423 C439 1.429 . S
C423 H445 0.950 1_565 S
C424 H420 0.949 . S
C424 C432 1.574 1_565 S
C424 C440 1.368 1_565 S
H425 C433 0.950 . S
H426 C431 0.950 . S
H427 C432 0.949 . S
H428 C434 0.950 . S
H429 C435 0.950 . S
H430 C436 0.949 . S
C431 H426 0.950 . S
C431 C433 1.327 . S
C431 C437 1.429 . S
C432 C424 1.574 1_545 S
C432 H427 0.949 . S
C432 C438 1.368 . S
C433 C417 1.349 . S
C433 H425 0.950 . S
C433 C431 1.327 . S
C434 C422 1.349 . S
C434 H428 0.950 . S
C434 C435 1.327 . S
C435 H429 0.950 . S
C435 C434 1.327 . S
C435 C439 1.429 . S
C436 C419 1.574 . S
C436 H430 0.949 . S
C436 C440 1.368 . S
C437 C418 1.429 . S
C437 C431 1.429 . S
C437 C438 1.523 . S
C438 C419 1.368 . S
C438 C432 1.368 . S
C438 C437 1.523 . S
C439 C423 1.429 . S
C439 C435 1.429 . S
C439 C440 1.523 1_565 S
C440 C424 1.368 1_545 S
C440 C436 1.368 . S
C440 C439 1.523 1_545 S
H441 C416 0.938 1_554 S
H442 C418 0.950 . S
H443 C419 0.949 . S
H444 C421 0.950 . S
H445 C423 0.950 1_545 S
C446 C447 1.349 . S
C446 C448 1.327 . S
C446 H471 0.950 . S
C447 C446 1.349 . S
C447 C463 1.349 . S
C448 C446 1.327 . S
C448 C467 1.429 . S
C448 H472 0.950 . S
C449 C466 1.574 . S
C449 C468 1.368 . S
C449 H473 0.949 . S
H450 C454 0.949 . S
C451 C452 1.349 . S
C451 C453 1.327 . S
C451 H474 0.950 . S
C452 C451 1.349 . S
C452 C464 1.349 . S
C453 C451 1.327 . S
C453 C469 1.429 . S
C453 H475 0.950 1_545 S
C454 H450 0.949 . S
C454 C462 1.574 1_545 S
C454 C470 1.368 1_545 S
H455 C463 0.950 . S
H456 C461 0.950 . S
H457 C462 0.949 . S
H458 C464 0.950 . S
H459 C465 0.950 . S
H460 C466 0.949 . S
C461 H456 0.950 . S
C461 C463 1.327 . S
C461 C467 1.429 . S
C462 C454 1.574 1_565 S
C462 H457 0.949 . S
C462 C468 1.368 . S
C463 C447 1.349 . S
C463 H455 0.950 . S
C463 C461 1.327 . S
C464 C452 1.349 . S
C464 H458 0.950 . S
C464 C465 1.327 . S
C465 H459 0.950 . S
C465 C464 1.327 . S
C465 C469 1.429 . S
C466 C449 1.574 . S
C466 H460 0.949 . S
C466 C470 1.368 . S
C467 C448 1.429 . S
C467 C461 1.429 . S
C467 C468 1.523 . S
C468 C449 1.368 . S
C468 C462 1.368 . S
C468 C467 1.523 . S
C469 C453 1.429 . S
C469 C465 1.429 . S
C469 C470 1.523 1_545 S
C470 C454 1.368 1_565 S
C470 C466 1.368 . S
C470 C469 1.523 1_565 S
H471 C446 0.950 . S
H472 C448 0.950 . S
H473 C449 0.949 . S
H474 C451 0.950 . S
H475 C453 0.950 1_565 S
C476 C477 1.349 . S
C476 C478 1.327 . S
C476 H501 0.950 . S
C477 C476 1.349 . S
C477 C493 1.349 . S
C478 C476 1.327 . S
C478 C497 1.429 . S
C478 H502 0.950 . S
C479 C496 1.574 . S
C479 C498 1.368 . S
C479 H503 0.949 . S
H480 C484 0.949 . S
C481 C482 1.349 . S
C481 C483 1.327 . S
C481 H504 0.950 . S
C482 C481 1.349 . S
C482 C494 1.349 . S
C483 C481 1.327 . S
C483 C499 1.429 . S
C483 H505 0.950 . S
C484 H480 0.949 . S
C484 C492 1.574 . S
C484 C500 1.368 . S
H485 C493 0.950 . S
H486 C491 0.950 . S
H487 C492 0.949 . S
H488 C494 0.950 . S
H489 C495 0.950 . S
H490 C496 0.949 . S
C491 H486 0.950 . S
C491 C493 1.327 . S
C491 C497 1.429 . S
C492 C484 1.574 . S
C492 H487 0.949 . S
C492 C498 1.368 . S
C493 C477 1.349 . S
C493 H485 0.950 . S
C493 C491 1.327 . S
C494 C482 1.349 . S
C494 H488 0.950 . S
C494 C495 1.327 . S
C495 H489 0.950 . S
C495 C494 1.327 . S
C495 C499 1.429 . S
C496 C479 1.574 . S
C496 H490 0.949 . S
C496 C500 1.368 . S
C497 C478 1.429 . S
C497 C491 1.429 . S
C497 C498 1.523 . S
C498 C479 1.368 . S
C498 C492 1.368 . S
C498 C497 1.523 . S
C499 C483 1.429 . S
C499 C495 1.429 . S
C499 C500 1.523 . S
C500 C484 1.368 . S
C500 C496 1.368 . S
C500 C499 1.523 . S
H501 C476 0.950 . S
H502 C478 0.950 . S
H503 C479 0.949 . S
H504 C481 0.950 . S
H505 C483 0.950 . S
C506 C507 1.349 . S
C506 C508 1.325 . S
C506 H531 0.952 1_554 S
C507 C506 1.349 . S
C507 C523 1.349 . S
C508 C506 1.325 . S
C508 C527 1.429 . S
C508 H532 0.950 . S
C509 C526 1.574 . S
C509 C528 1.368 . S
C509 H533 0.949 . S
H510 C514 0.949 . S
C511 C512 1.349 . S
C511 C513 1.327 . S
C511 H534 0.950 . S
C512 C511 1.349 . S
C512 C524 1.349 . S
C513 C511 1.327 . S
C513 C529 1.429 . S
C513 H535 0.950 . S
C514 H510 0.949 . S
C514 C522 1.574 . S
C514 C530 1.368 . S
H515 C523 0.950 . S
H516 C521 0.950 . S
H517 C522 0.949 . S
H518 C524 0.950 . S
H519 C525 0.950 . S
H520 C526 0.949 . S
C521 H516 0.950 . S
C521 C523 1.327 . S
C521 C527 1.429 . S
C522 C514 1.574 . S
C522 H517 0.949 . S
C522 C528 1.368 . S
C523 C507 1.349 . S
C523 H515 0.950 . S
C523 C521 1.327 . S
C524 C512 1.349 . S
C524 H518 0.950 . S
C524 C525 1.327 . S
C525 H519 0.950 . S
C525 C524 1.327 . S
C525 C529 1.429 . S
C526 C509 1.574 . S
C526 H520 0.949 . S
C526 C530 1.368 . S
C527 C508 1.429 . S
C527 C521 1.429 . S
C527 C528 1.523 . S
C528 C509 1.368 . S
C528 C522 1.368 . S
C528 C527 1.523 . S
C529 C513 1.429 . S
C529 C525 1.429 . S
C529 C530 1.523 . S
C530 C514 1.368 . S
C530 C526 1.368 . S
C530 C529 1.523 . S
H531 C506 0.952 1_556 S
H532 C508 0.950 . S
H533 C509 0.949 . S
H534 C511 0.950 . S
H535 C513 0.950 . S
C536 C537 1.349 . S
C536 C538 1.327 . S
C536 H561 0.950 . S
C537 C536 1.349 . S
C537 C553 1.349 . S
C538 C536 1.327 . S
C538 C557 1.429 . S
C538 H562 0.950 . S
C539 C556 1.574 . S
C539 C558 1.368 . S
C539 H563 0.949 . S
H540 C544 0.949 . S
C541 C542 1.349 . S
C541 C543 1.327 . S
C541 H564 0.950 . S
C542 C541 1.349 . S
C542 C554 1.349 . S
C543 C541 1.327 . S
C543 C559 1.429 . S
C543 H565 0.950 . S
C544 H540 0.949 . S
C544 C552 1.574 . S
C544 C560 1.368 . S
H545 C553 0.950 . S
H546 C551 0.950 . S
H547 C552 0.949 . S
H548 C554 0.950 . S
H549 C555 0.950 . S
H550 C556 0.949 . S
C551 H546 0.950 . S
C551 C553 1.327 . S
C551 C557 1.429 . S
C552 C544 1.574 . S
C552 H547 0.949 . S
C552 C558 1.368 . S
C553 C537 1.349 . S
C553 H545 0.950 . S
C553 C551 1.327 . S
C554 C542 1.349 . S
C554 H548 0.950 . S
C554 C555 1.327 . S
C555 H549 0.950 . S
C555 C554 1.327 . S
C555 C559 1.429 . S
C556 C539 1.574 . S
C556 H550 0.949 . S
C556 C560 1.368 . S
C557 C538 1.429 . S
C557 C551 1.429 . S
C557 C558 1.523 . S
C558 C539 1.368 . S
C558 C552 1.368 . S
C558 C557 1.523 . S
C559 C543 1.429 . S
C559 C555 1.429 . S
C559 C560 1.523 . S
C560 C544 1.368 . S
C560 C556 1.368 . S
C560 C559 1.523 . S
H561 C536 0.950 . S
H562 C538 0.950 . S
H563 C539 0.949 . S
H564 C541 0.950 . S
H565 C543 0.950 . S
C566 C567 1.349 . S
C566 C568 1.327 . S
C566 H591 0.950 . S
C567 C566 1.349 . S
C567 C583 1.349 . S
C568 C566 1.327 . S
C568 C587 1.429 . S
C568 H592 0.950 . S
C569 C586 1.574 . S
C569 C588 1.368 . S
C569 H593 0.949 . S
H570 C574 0.949 . S
C571 C572 1.349 . S
C571 C573 1.327 . S
C571 H594 0.950 . S
C572 C571 1.349 . S
C572 C584 1.349 . S
C573 C571 1.327 . S
C573 C589 1.429 . S
C573 H595 0.950 . S
C574 H570 0.949 . S
C574 C582 1.574 . S
C574 C590 1.368 . S
H575 C583 0.950 . S
H576 C581 0.950 . S
H577 C582 0.949 . S
H578 C584 0.950 . S
H579 C585 0.950 . S
H580 C586 0.949 . S
C581 H576 0.950 . S
C581 C583 1.327 . S
C581 C587 1.429 . S
C582 C574 1.574 . S
C582 H577 0.949 . S
C582 C588 1.368 . S
C583 C567 1.349 . S
C583 H575 0.950 . S
C583 C581 1.327 . S
C584 C572 1.349 . S
C584 H578 0.950 . S
C584 C585 1.327 . S
C585 H579 0.950 . S
C585 C584 1.327 . S
C585 C589 1.429 . S
C586 C569 1.574 . S
C586 H580 0.949 . S
C586 C590 1.368 . S
C587 C568 1.429 . S
C587 C581 1.429 . S
C587 C588 1.523 . S
C588 C569 1.368 . S
C588 C582 1.368 . S
C588 C587 1.523 . S
C589 C573 1.429 . S
C589 C585 1.429 . S
C589 C590 1.523 1_455 S
C590 C574 1.368 . S
C590 C586 1.368 . S
C590 C589 1.523 1_655 S
H591 C566 0.950 . S
H592 C568 0.950 . S
H593 C569 0.949 . S
H594 C571 0.950 . S
H595 C573 0.950 . S
C596 C597 1.349 . S
C596 C598 1.327 . S
C596 H621 0.950 . S
C597 C596 1.349 . S
C597 C613 1.349 . S
C598 C596 1.327 . S
C598 C617 1.429 . S
C598 H622 0.950 . S
C599 C616 1.574 . S
C599 C618 1.368 . S
C599 H623 0.949 . S
H600 C604 0.949 . S
C601 C602 1.349 . S
C601 C603 1.327 . S
C601 H624 0.950 . S
C602 C601 1.349 . S
C602 C614 1.349 . S
C603 C601 1.327 . S
C603 C619 1.429 . S
C603 H625 0.950 . S
C604 H600 0.949 . S
C604 C612 1.574 . S
C604 C620 1.368 . S
H605 C613 0.950 . S
H606 C611 0.950 . S
H607 C612 0.949 . S
H608 C614 0.950 . S
H609 C615 0.950 . S
H610 C616 0.949 . S
C611 H606 0.950 . S
C611 C613 1.327 . S
C611 C617 1.429 . S
C612 C604 1.574 . S
C612 H607 0.949 . S
C612 C618 1.368 . S
C613 C597 1.349 . S
C613 H605 0.950 . S
C613 C611 1.327 . S
C614 C602 1.349 . S
C614 H608 0.950 . S
C614 C615 1.327 . S
C615 H609 0.950 . S
C615 C614 1.327 . S
C615 C619 1.429 . S
C616 C599 1.574 . S
C616 H610 0.949 . S
C616 C620 1.368 . S
C617 C598 1.429 . S
C617 C611 1.429 . S
C617 C618 1.523 . S
C618 C599 1.368 . S
C618 C612 1.368 . S
C618 C617 1.523 . S
C619 C603 1.429 . S
C619 C615 1.429 . S
C619 C620 1.523 1_655 S
C620 C604 1.368 . S
C620 C616 1.368 . S
C620 C619 1.523 1_455 S
H621 C596 0.950 . S
H622 C598 0.950 . S
H623 C599 0.949 . S
H624 C601 0.950 . S
H625 C603 0.950 . S
C626 C627 1.349 . S
C626 C628 1.327 . S
C626 H651 0.950 . S
C627 C626 1.349 . S
C627 C643 1.349 . S
C628 C626 1.327 . S
C628 C647 1.429 . S
C628 H652 0.950 . S
C629 C646 1.574 . S
C629 C648 1.368 . S
C629 H653 0.949 . S
H630 C634 0.949 . S
C631 C632 1.349 . S
C631 C633 1.327 . S
C631 H654 0.950 . S
C632 C631 1.349 . S
C632 C644 1.349 . S
C633 C631 1.327 . S
C633 C649 1.429 . S
C633 H655 0.950 . S
C634 H630 0.949 . S
C634 C642 1.574 . S
C634 C650 1.368 . S
H635 C643 0.950 . S
H636 C641 0.950 . S
H637 C642 0.949 . S
H638 C644 0.950 . S
H639 C645 0.950 . S
H640 C646 0.949 . S
C641 H636 0.950 . S
C641 C643 1.327 . S
C641 C647 1.429 . S
C642 C634 1.574 . S
C642 H637 0.949 . S
C642 C648 1.368 . S
C643 C627 1.349 . S
C643 H635 0.950 . S
C643 C641 1.327 . S
C644 C632 1.349 . S
C644 H638 0.950 . S
C644 C645 1.327 . S
C645 H639 0.950 . S
C645 C644 1.327 . S
C645 C649 1.429 . S
C646 C629 1.574 . S
C646 H640 0.949 . S
C646 C650 1.368 . S
C647 C628 1.429 . S
C647 C641 1.429 . S
C647 C648 1.523 . S
C648 C629 1.368 . S
C648 C642 1.368 . S
C648 C647 1.523 . S
C649 C633 1.429 . S
C649 C645 1.429 . S
C649 C650 1.523 . S
C650 C634 1.368 . S
C650 C646 1.368 . S
C650 C649 1.523 . S
H651 C626 0.950 . S
H652 C628 0.950 . S
H653 C629 0.949 . S
H654 C631 0.950 . S
H655 C633 0.950 . S
C656 C657 1.349 . S
C656 C658 1.327 . S
C656 H681 0.950 . S
C657 C656 1.349 . S
C657 C673 1.349 . S
C658 C656 1.327 . S
C658 C677 1.429 . S
C658 H682 0.950 . S
C659 C676 1.574 . S
C659 C678 1.368 . S
C659 H683 0.949 . S
H660 C664 0.949 . S
C661 C662 1.349 . S
C661 C663 1.327 . S
C661 H684 0.950 . S
C662 C661 1.349 . S
C662 C674 1.349 . S
C663 C661 1.327 . S
C663 C679 1.429 . S
C663 H685 0.950 . S
C664 H660 0.949 . S
C664 C672 1.574 . S
C664 C680 1.368 . S
H665 C673 0.950 . S
H666 C671 0.950 . S
H667 C672 0.949 . S
H668 C674 0.950 . S
H669 C675 0.950 . S
H670 C676 0.949 . S
C671 H666 0.950 . S
C671 C673 1.327 . S
C671 C677 1.429 . S
C672 C664 1.574 . S
C672 H667 0.949 . S
C672 C678 1.368 . S
C673 C657 1.349 . S
C673 H665 0.950 . S
C673 C671 1.327 . S
C674 C662 1.349 . S
C674 H668 0.950 . S
C674 C675 1.327 . S
C675 H669 0.950 . S
C675 C674 1.327 . S
C675 C679 1.429 . S
C676 C659 1.574 . S
C676 H670 0.949 . S
C676 C680 1.368 . S
C677 C658 1.429 . S
C677 C671 1.429 . S
C677 C678 1.523 . S
C678 C659 1.368 . S
C678 C672 1.368 . S
C678 C677 1.523 . S
C679 C663 1.429 . S
C679 C675 1.429 . S
C679 C680 1.523 . S
C680 C664 1.368 . S
C680 C676 1.368 . S
C680 C679 1.523 . S
H681 C656 0.950 . S
H682 C658 0.950 . S
H683 C659 0.949 . S
H684 C661 0.950 . S
H685 C663 0.950 . S
C686 C687 1.349 . S
C686 C688 1.327 . S
C686 H711 0.950 . S
C687 C686 1.349 . S
C687 C703 1.349 . S
C688 C686 1.327 . S
C688 C707 1.429 . S
C688 H712 0.950 . S
C689 C706 1.574 . S
C689 C708 1.368 . S
C689 H713 0.949 . S
H690 C694 0.949 . S
C691 C692 1.349 . S
C691 C693 1.327 . S
C691 H714 0.950 . S
C692 C691 1.349 . S
C692 C704 1.349 . S
C693 C691 1.327 . S
C693 C709 1.429 . S
C693 H715 0.950 . S
C694 H690 0.949 . S
C694 C702 1.574 . S
C694 C710 1.368 . S
H695 C703 0.950 . S
H696 C701 0.950 . S
H697 C702 0.949 . S
H698 C704 0.950 . S
H699 C705 0.950 . S
H700 C706 0.949 . S
C701 H696 0.950 . S
C701 C703 1.327 . S
C701 C707 1.429 . S
C702 C694 1.574 . S
C702 H697 0.949 . S
C702 C708 1.368 . S
C703 C687 1.349 . S
C703 H695 0.950 . S
C703 C701 1.327 . S
C704 C692 1.349 . S
C704 H698 0.950 . S
C704 C705 1.327 . S
C705 H699 0.950 . S
C705 C704 1.327 . S
C705 C709 1.429 . S
C706 C689 1.574 . S
C706 H700 0.949 . S
C706 C710 1.368 . S
C707 C688 1.429 . S
C707 C701 1.429 . S
C707 C708 1.523 . S
C708 C689 1.368 . S
C708 C702 1.368 . S
C708 C707 1.523 . S
C709 C693 1.429 . S
C709 C705 1.429 . S
C709 C710 1.523 1_655 S
C710 C694 1.368 . S
C710 C706 1.368 . S
C710 C709 1.523 1_455 S
H711 C686 0.950 . S
H712 C688 0.950 . S
H713 C689 0.949 . S
H714 C691 0.950 . S
H715 C693 0.950 . S
C716 C717 1.349 . S
C716 C718 1.327 . S
C716 H741 0.950 . S
C717 C716 1.349 . S
C717 C733 1.349 . S
C718 C716 1.327 . S
C718 C737 1.429 . S
C718 H742 0.950 . S
C719 C736 1.574 . S
C719 C738 1.368 . S
C719 H743 0.949 . S
H720 C724 0.949 . S
C721 C722 1.349 . S
C721 C723 1.327 . S
C721 H744 0.950 . S
C722 C721 1.349 . S
C722 C734 1.349 . S
C723 C721 1.327 . S
C723 C739 1.429 . S
C723 H745 0.950 . S
C724 H720 0.949 . S
C724 C732 1.574 . S
C724 C740 1.368 . S
H725 C733 0.950 . S
H726 C731 0.950 . S
H727 C732 0.949 . S
H728 C734 0.950 . S
H729 C735 0.950 . S
H730 C736 0.949 . S
C731 H726 0.950 . S
C731 C733 1.327 . S
C731 C737 1.429 . S
C732 C724 1.574 . S
C732 H727 0.949 . S
C732 C738 1.368 . S
C733 C717 1.349 . S
C733 H725 0.950 . S
C733 C731 1.327 . S
C734 C722 1.349 . S
C734 H728 0.950 . S
C734 C735 1.327 . S
C735 H729 0.950 . S
C735 C734 1.327 . S
C735 C739 1.429 . S
C736 C719 1.574 . S
C736 H730 0.949 . S
C736 C740 1.368 . S
C737 C718 1.429 . S
C737 C731 1.429 . S
C737 C738 1.523 1_455 S
C738 C719 1.368 . S
C738 C732 1.368 . S
C738 C737 1.523 1_655 S
C739 C723 1.429 . S
C739 C735 1.429 . S
C739 C740 1.523 . S
C740 C724 1.368 . S
C740 C736 1.368 . S
C740 C739 1.523 . S
H741 C716 0.950 . S
H742 C718 0.950 . S
H743 C719 0.949 . S
H744 C721 0.950 . S
H745 C723 0.950 . S
C746 C747 1.349 . S
C746 C748 1.327 . S
C746 H771 0.950 . S
C747 C746 1.349 . S
C747 C763 1.349 . S
C748 C746 1.327 . S
C748 C767 1.429 . S
C748 H772 0.950 . S
C749 C766 1.574 . S
C749 C768 1.368 . S
C749 H773 0.949 . S
H750 C754 0.949 . S
C751 C752 1.349 . S
C751 C753 1.327 . S
C751 H774 0.950 . S
C752 C751 1.349 . S
C752 C764 1.349 . S
C753 C751 1.327 . S
C753 C769 1.429 . S
C753 H775 0.950 . S
C754 H750 0.949 . S
C754 C762 1.574 . S
C754 C770 1.368 . S
H755 C763 0.950 . S
H756 C761 0.950 . S
H757 C762 0.949 . S
H758 C764 0.950 . S
H759 C765 0.950 . S
H760 C766 0.949 . S
C761 H756 0.950 . S
C761 C763 1.327 . S
C761 C767 1.429 . S
C762 C754 1.574 . S
C762 H757 0.949 . S
C762 C768 1.368 . S
C763 C747 1.349 . S
C763 H755 0.950 . S
C763 C761 1.327 . S
C764 C752 1.349 . S
C764 H758 0.950 . S
C764 C765 1.327 . S
C765 H759 0.950 . S
C765 C764 1.327 . S
C765 C769 1.429 . S
C766 C749 1.574 . S
C766 H760 0.949 . S
C766 C770 1.368 . S
C767 C748 1.429 . S
C767 C761 1.429 . S
C767 C768 1.523 . S
C768 C749 1.368 . S
C768 C762 1.368 . S
C768 C767 1.523 . S
C769 C753 1.429 . S
C769 C765 1.429 . S
C769 C770 1.523 . S
C770 C754 1.368 . S
C770 C766 1.368 . S
C770 C769 1.523 . S
H771 C746 0.950 . S
H772 C748 0.950 . S
H773 C749 0.949 . S
H774 C751 0.950 . S
H775 C753 0.950 . S
C776 C777 1.349 . S
C776 C778 1.327 . S
C776 H801 0.950 . S
C777 C776 1.349 . S
C777 C793 1.349 . S
C778 C776 1.327 . S
C778 C797 1.429 . S
C778 H802 0.950 . S
C779 C796 1.574 . S
C779 C798 1.368 . S
C779 H803 0.949 . S
H780 C784 0.949 . S
C781 C782 1.349 . S
C781 C783 1.327 . S
C781 H804 0.950 . S
C782 C781 1.349 . S
C782 C794 1.349 . S
C783 C781 1.327 . S
C783 C799 1.429 . S
C783 H805 0.950 . S
C784 H780 0.949 . S
C784 C792 1.574 . S
C784 C800 1.368 . S
H785 C793 0.950 . S
H786 C791 0.950 . S
H787 C792 0.949 . S
H788 C794 0.950 . S
H789 C795 0.950 . S
H790 C796 0.949 . S
C791 H786 0.950 . S
C791 C793 1.327 . S
C791 C797 1.429 . S
C792 C784 1.574 . S
C792 H787 0.949 . S
C792 C798 1.368 . S
C793 C777 1.349 . S
C793 H785 0.950 . S
C793 C791 1.327 . S
C794 C782 1.349 . S
C794 H788 0.950 . S
C794 C795 1.327 . S
C795 H789 0.950 . S
C795 C794 1.327 . S
C795 C799 1.429 . S
C796 C779 1.574 . S
C796 H790 0.949 . S
C796 C800 1.368 . S
C797 C778 1.429 . S
C797 C791 1.429 . S
C797 C798 1.523 . S
C798 C779 1.368 . S
C798 C792 1.368 . S
C798 C797 1.523 . S
C799 C783 1.429 . S
C799 C795 1.429 . S
C799 C800 1.523 . S
C800 C784 1.368 . S
C800 C796 1.368 . S
C800 C799 1.523 . S
H801 C776 0.950 . S
H802 C778 0.950 . S
H803 C779 0.949 . S
H804 C781 0.950 . S
H805 C783 0.950 . S
C806 C807 1.349 . S
C806 C808 1.327 . S
C806 H831 0.950 . S
C807 C806 1.349 . S
C807 C823 1.349 . S
C808 C806 1.327 . S
C808 C827 1.429 . S
C808 H832 0.950 . S
C809 C826 1.574 . S
C809 C828 1.368 . S
C809 H833 0.949 . S
H810 C814 0.949 . S
C811 C812 1.349 . S
C811 C813 1.327 . S
C811 H834 0.950 . S
C812 C811 1.349 . S
C812 C824 1.349 . S
C813 C811 1.327 . S
C813 C829 1.429 . S
C813 H835 0.950 . S
C814 H810 0.949 . S
C814 C822 1.574 . S
C814 C830 1.368 . S
H815 C823 0.950 . S
H816 C821 0.950 . S
H817 C822 0.949 . S
H818 C824 0.950 . S
H819 C825 0.950 . S
H820 C826 0.949 . S
C821 H816 0.950 . S
C821 C823 1.327 . S
C821 C827 1.429 . S
C822 C814 1.574 . S
C822 H817 0.949 . S
C822 C828 1.368 . S
C823 C807 1.349 . S
C823 H815 0.950 . S
C823 C821 1.327 . S
C824 C812 1.349 . S
C824 H818 0.950 . S
C824 C825 1.327 . S
C825 H819 0.950 . S
C825 C824 1.327 . S
C825 C829 1.429 . S
C826 C809 1.574 . S
C826 H820 0.949 . S
C826 C830 1.368 . S
C827 C808 1.429 . S
C827 C821 1.429 . S
C827 C828 1.523 . S
C828 C809 1.368 . S
C828 C822 1.368 . S
C828 C827 1.523 . S
C829 C813 1.429 . S
C829 C825 1.429 . S
C829 C830 1.523 . S
C830 C814 1.368 . S
C830 C826 1.368 . S
C830 C829 1.523 . S
H831 C806 0.950 . S
H832 C808 0.950 . S
H833 C809 0.949 . S
H834 C811 0.950 . S
H835 C813 0.950 . S
C836 C837 1.349 . S
C836 C838 1.327 . S
C836 H861 0.950 . S
C837 C836 1.349 . S
C837 C853 1.349 . S
C838 C836 1.327 . S
C838 C857 1.429 . S
C838 H862 0.950 . S
C839 C856 1.574 . S
C839 C858 1.368 . S
C839 H863 0.949 . S
H840 C844 0.949 . S
C841 C842 1.349 . S
C841 C843 1.327 . S
C841 H864 0.950 . S
C842 C841 1.349 . S
C842 C854 1.349 . S
C843 C841 1.327 . S
C843 C859 1.429 . S
C843 H865 0.950 . S
C844 H840 0.949 . S
C844 C852 1.574 . S
C844 C860 1.368 . S
H845 C853 0.950 . S
H846 C851 0.950 . S
H847 C852 0.949 . S
H848 C854 0.950 . S
H849 C855 0.950 . S
H850 C856 0.949 . S
C851 H846 0.950 . S
C851 C853 1.327 . S
C851 C857 1.429 . S
C852 C844 1.574 . S
C852 H847 0.949 . S
C852 C858 1.368 . S
C853 C837 1.349 . S
C853 H845 0.950 . S
C853 C851 1.327 . S
C854 C842 1.349 . S
C854 H848 0.950 . S
C854 C855 1.327 . S
C855 H849 0.950 . S
C855 C854 1.327 . S
C855 C859 1.429 . S
C856 C839 1.574 . S
C856 H850 0.949 . S
C856 C860 1.368 . S
C857 C838 1.429 . S
C857 C851 1.429 . S
C857 C858 1.523 . S
C858 C839 1.368 . S
C858 C852 1.368 . S
C858 C857 1.523 . S
C859 C843 1.429 . S
C859 C855 1.429 . S
C859 C860 1.523 . S
C860 C844 1.368 . S
C860 C856 1.368 . S
C860 C859 1.523 . S
H861 C836 0.950 . S
H862 C838 0.950 . S
H863 C839 0.949 . S
H864 C841 0.950 . S
H865 C843 0.950 . S
C866 C867 1.349 . S
C866 C868 1.327 . S
C866 H891 0.950 . S
C867 C866 1.349 . S
C867 C883 1.349 . S
C868 C866 1.327 . S
C868 C887 1.429 . S
C868 H892 0.950 . S
C869 C886 1.574 . S
C869 C888 1.368 . S
C869 H893 0.949 . S
H870 C874 0.949 . S
C871 C872 1.349 . S
C871 C873 1.327 . S
C871 H894 0.950 . S
C872 C871 1.349 . S
C872 C884 1.349 . S
C873 C871 1.327 . S
C873 C889 1.429 . S
C873 H895 0.950 . S
C874 H870 0.949 . S
C874 C882 1.574 . S
C874 C890 1.368 . S
H875 C883 0.950 . S
H876 C881 0.950 . S
H877 C882 0.949 . S
H878 C884 0.950 . S
H879 C885 0.950 . S
H880 C886 0.949 . S
C881 H876 0.950 . S
C881 C883 1.327 . S
C881 C887 1.429 . S
C882 C874 1.574 . S
C882 H877 0.949 . S
C882 C888 1.368 . S
C883 C867 1.349 . S
C883 H875 0.950 . S
C883 C881 1.327 . S
C884 C872 1.349 . S
C884 H878 0.950 . S
C884 C885 1.327 . S
C885 H879 0.950 . S
C885 C884 1.327 . S
C885 C889 1.429 . S
C886 C869 1.574 . S
C886 H880 0.949 . S
C886 C890 1.368 . S
C887 C868 1.429 . S
C887 C881 1.429 . S
C887 C888 1.523 . S
C888 C869 1.368 . S
C888 C882 1.368 . S
C888 C887 1.523 . S
C889 C873 1.429 . S
C889 C885 1.429 . S
C889 C890 1.523 . S
C890 C874 1.368 . S
C890 C886 1.368 . S
C890 C889 1.523 . S
H891 C866 0.950 . S
H892 C868 0.950 . S
H893 C869 0.949 . S
H894 C871 0.950 . S
H895 C873 0.950 . S
C177 C95 0.818 . S
C182 C21 0.816 . S
C207 C125 0.818 . S
C212 C43 0.816 . S
C237 C147 0.818 . S
C242 C65 0.816 . S
C267 C81 0.816 . S
C272 C161 0.818 . S
C297 C7 1.563 . S
C302 C30 1.526 1_554 S
C327 C29 1.563 . S
C332 C8 1.526 . S
C357 C76 1.526 . S
C362 C51 1.563 . S
C387 C52 1.526 1_556 S
C392 C87 1.563 . S
C417 C120 1.535 1_556 S
C422 C109 1.566 . S
C447 C106 1.535 . S
C452 C117 1.566 . S
C477 C139 1.566 . S
C482 C172 1.535 . S
C507 C142 1.535 1_554 S
C512 C175 1.566 . S
C537 C15 1.339 . S
C542 C128 1.330 . S
C567 C96 1.330 . S
C572 C37 1.339 . S
C597 C162 1.330 . S
C602 C59 1.339 . S
C627 C150 1.330 . S
C632 C73 1.339 . S
C657 C103 1.342 . S
C662 C40 1.330 . S
C687 C18 1.330 . S
C692 C131 1.342 . S
C717 C153 1.342 . S
C722 C74 1.330 . S
C747 C169 1.342 . S
C752 C62 1.330 . S
C777 C10 1.410 . S
C782 C164 1.407 . S
C807 C32 1.410 . S
C812 C140 1.407 . S
C837 C118 1.407 . S
C842 C54 1.410 . S
C867 C98 1.407 . S
C872 C84 1.410 . S
