# Generated by pormake.
# Topology wjd, (6)-cn, num edge types: 1
# Building blocks:
#     Node 0, Type 0, BuildingBlock: VOLQOD_clean_sbu_1, # of connection points: 6
#     Node 1, Type 0, BuildingBlock: VOLQOD_clean_sbu_1, # of connection points: 6
#     Node 2, Type 0, BuildingBlock: VOLQOD_clean_sbu_1, # of connection points: 6
#     Node 3, Type 0, BuildingBlock: VOLQOD_clean_sbu_1, # of connection points: 6
#     Node 4, Type 0, BuildingBlock: VOLQOD_clean_sbu_1, # of connection points: 6
#     Node 5, Type 0, BuildingBlock: VOLQOD_clean_sbu_1, # of connection points: 6
#     Node 6, Type 0, BuildingBlock: VOLQOD_clean_sbu_1, # of connection points: 6
#     Node 7, Type 0, BuildingBlock: VOLQOD_clean_sbu_1, # of connection points: 6
#     Node 8, Type 0, BuildingBlock: VOLQOD_clean_sbu_1, # of connection points: 6
#     Node 9, Type 0, BuildingBlock: VOLQOD_clean_sbu_1, # of connection points: 6
#     Node 10, Type 0, BuildingBlock: VOLQOD_clean_sbu_1, # of connection points: 6
#     Node 11, Type 0, BuildingBlock: VOLQOD_clean_sbu_1, # of connection points: 6
#     Edge 12, Type (0, 0), BuildingBlock: KIFKEQ_clean_linker_1, # of connection points: 2
#     Edge 13, Type (0, 0), BuildingBlock: KIFKEQ_clean_linker_1, # of connection points: 2
#     Edge 14, Type (0, 0), BuildingBlock: KIFKEQ_clean_linker_1, # of connection points: 2
#     Edge 15, Type (0, 0), BuildingBlock: KIFKEQ_clean_linker_1, # of connection points: 2
#     Edge 16, Type (0, 0), BuildingBlock: KIFKEQ_clean_linker_1, # of connection points: 2
#     Edge 17, Type (0, 0), BuildingBlock: KIFKEQ_clean_linker_1, # of connection points: 2
#     Edge 18, Type (0, 0), BuildingBlock: KIFKEQ_clean_linker_1, # of connection points: 2
#     Edge 19, Type (0, 0), BuildingBlock: KIFKEQ_clean_linker_1, # of connection points: 2
#     Edge 20, Type (0, 0), BuildingBlock: KIFKEQ_clean_linker_1, # of connection points: 2
#     Edge 21, Type (0, 0), BuildingBlock: KIFKEQ_clean_linker_1, # of connection points: 2
#     Edge 22, Type (0, 0), BuildingBlock: KIFKEQ_clean_linker_1, # of connection points: 2
#     Edge 23, Type (0, 0), BuildingBlock: KIFKEQ_clean_linker_1, # of connection points: 2
#     Edge 24, Type (0, 0), BuildingBlock: KIFKEQ_clean_linker_1, # of connection points: 2
#     Edge 25, Type (0, 0), BuildingBlock: KIFKEQ_clean_linker_1, # of connection points: 2
#     Edge 26, Type (0, 0), BuildingBlock: KIFKEQ_clean_linker_1, # of connection points: 2
#     Edge 27, Type (0, 0), BuildingBlock: KIFKEQ_clean_linker_1, # of connection points: 2
#     Edge 28, Type (0, 0), BuildingBlock: KIFKEQ_clean_linker_1, # of connection points: 2
#     Edge 29, Type (0, 0), BuildingBlock: KIFKEQ_clean_linker_1, # of connection points: 2
#     Edge 30, Type (0, 0), BuildingBlock: KIFKEQ_clean_linker_1, # of connection points: 2
#     Edge 31, Type (0, 0), BuildingBlock: KIFKEQ_clean_linker_1, # of connection points: 2
#     Edge 32, Type (0, 0), BuildingBlock: KIFKEQ_clean_linker_1, # of connection points: 2
#     Edge 33, Type (0, 0), BuildingBlock: KIFKEQ_clean_linker_1, # of connection points: 2
#     Edge 34, Type (0, 0), BuildingBlock: KIFKEQ_clean_linker_1, # of connection points: 2
#     Edge 35, Type (0, 0), BuildingBlock: KIFKEQ_clean_linker_1, # of connection points: 2
#     Edge 36, Type (0, 0), BuildingBlock: KIFKEQ_clean_linker_1, # of connection points: 2
#     Edge 37, Type (0, 0), BuildingBlock: KIFKEQ_clean_linker_1, # of connection points: 2
#     Edge 38, Type (0, 0), BuildingBlock: KIFKEQ_clean_linker_1, # of connection points: 2
#     Edge 39, Type (0, 0), BuildingBlock: KIFKEQ_clean_linker_1, # of connection points: 2
#     Edge 40, Type (0, 0), BuildingBlock: KIFKEQ_clean_linker_1, # of connection points: 2
#     Edge 41, Type (0, 0), BuildingBlock: KIFKEQ_clean_linker_1, # of connection points: 2
#     Edge 42, Type (0, 0), BuildingBlock: KIFKEQ_clean_linker_1, # of connection points: 2
#     Edge 43, Type (0, 0), BuildingBlock: KIFKEQ_clean_linker_1, # of connection points: 2
#     Edge 44, Type (0, 0), BuildingBlock: KIFKEQ_clean_linker_1, # of connection points: 2
#     Edge 45, Type (0, 0), BuildingBlock: KIFKEQ_clean_linker_1, # of connection points: 2
#     Edge 46, Type (0, 0), BuildingBlock: KIFKEQ_clean_linker_1, # of connection points: 2
#     Edge 47, Type (0, 0), BuildingBlock: KIFKEQ_clean_linker_1, # of connection points: 2
# Relax obj value: 0.308
# Max RMSD: 0.232
# Mean RMSD: 0.231
data_MOF--net-wjd--node1-VOLQOD_clean_sbu_1--edge1-KIFKEQ_clean_linker_1
_symmetry_space_group_name_H-M    P1
_symmetry_Int_Tables_number       1
_symmetry_cell_setting            triclinic
loop_
_symmetry_equiv_pos_as_xyz
'x, y, z'
_cell_length_a     31.953943
_cell_length_b     31.981729
_cell_length_c     66.360655
_cell_angle_alpha  89.988619
_cell_angle_beta   90.005353
_cell_angle_gamma 119.8797
loop_
_atom_site_label
_atom_site_type_symbol
_atom_site_fract_x
_atom_site_fract_y
_atom_site_fract_z
_atom_type_partial_charge
O0 O 0.36541 0.17501 0.10311 0.0
Zn1 Zn 0.30689 0.10946 0.10456 0.0
O2 O 0.31262 0.07071 0.12606 0.0
Zn3 Zn 0.30508 0.01102 0.1146 0.0
Zn4 Zn 0.3748 0.10693 0.13887 0.0
Zn5 Zn 0.26465 0.0571 0.1467 0.0
O6 O 0.24657 0.95303 0.12632 0.0
O7 O 0.21642 0.98722 0.14646 0.0
O8 O 0.2935 0.07674 0.07737 0.0
O9 O 0.29136 0.0082 0.08508 0.0
O10 O 0.36691 0.00797 0.11682 0.0
O11 O 0.41526 0.07874 0.13144 0.0
O12 O 0.3713 0.10567 0.16911 0.0
O13 O 0.25533 0.12532 0.11119 0.0
O14 O 0.29285 0.0735 0.17452 0.0
O15 O 0.23051 0.09435 0.14174 0.0
C16 C 0.40035 0.19745 0.1153 0.0
C17 C 0.214 0.95009 0.1383 0.0
C18 C 0.40807 0.03955 0.12351 0.0
C19 C 0.28792 0.03587 0.07225 0.0
C20 C 0.33582 0.09192 0.18109 0.0
C21 C 0.22987 0.11908 0.12683 0.0
O22 O 0.40708 0.176 0.13005 0.0
O23 O 0.8246 0.60495 0.38051 0.0
Zn24 Zn 0.80776 0.65 0.3668 0.0
O25 O 0.77057 0.6676 0.38456 0.0
Zn26 Zn 0.70837 0.65008 0.37214 0.0
Zn27 Zn 0.76151 0.63545 0.41033 0.0
Zn28 Zn 0.8058 0.7362 0.38922 0.0
O29 O 0.69935 0.70763 0.36772 0.0
O30 O 0.77381 0.76649 0.37464 0.0
O31 O 0.77354 0.62261 0.34054 0.0
O32 O 0.70528 0.62422 0.34412 0.0
O33 O 0.65402 0.59938 0.38866 0.0
O34 O 0.69204 0.58721 0.41408 0.0
O35 O 0.78085 0.68176 0.43341 0.0
O36 O 0.87164 0.70695 0.36016 0.0
O37 O 0.80795 0.75289 0.41864 0.0
O38 O 0.87269 0.76588 0.37821 0.0
C39 C 0.82047 0.58994 0.39855 0.0
C40 C 0.73161 0.75196 0.36786 0.0
C41 C 0.65339 0.57738 0.40479 0.0
C42 C 0.73341 0.61556 0.33357 0.0
C43 C 0.79758 0.72706 0.43446 0.0
C44 C 0.89307 0.7503 0.36631 0.0
O45 O 0.79806 0.59961 0.41192 0.0
O46 O 0.77999 0.16943 0.10036 0.0
Zn47 Zn 0.84618 0.17761 0.10265 0.0
O48 O 0.8842 0.22367 0.12372 0.0
Zn49 Zn 0.94266 0.27644 0.11191 0.0
Zn50 Zn 0.84565 0.24726 0.13629 0.0
Zn51 Zn 0.90075 0.19222 0.14459 0.0
O52 O 0.00229 0.27762 0.12287 0.0
O53 O 0.97032 0.21285 0.14272 0.0
O54 O 0.87939 0.19513 0.07553 0.0
O55 O 0.94475 0.2651 0.08245 0.0
O56 O 0.94389 0.34022 0.11451 0.0
O57 O 0.87236 0.31581 0.12898 0.0
O58 O 0.84671 0.24528 0.16653 0.0
O59 O 0.83079 0.11136 0.11072 0.0
O60 O 0.8899 0.20979 0.17232 0.0
O61 O 0.86152 0.12022 0.14152 0.0
C62 C 0.75646 0.18095 0.11242 0.0
C63 C 0.00658 0.24795 0.13432 0.0
C64 C 0.91139 0.34856 0.12122 0.0
C65 C 0.91871 0.23195 0.07003 0.0
C66 C 0.86699 0.2302 0.17869 0.0
C67 C 0.83647 0.09359 0.12695 0.0
O68 O 0.77699 0.20905 0.12726 0.0
O69 O 0.39235 0.22892 0.37895 0.0
Zn70 Zn 0.33962 0.17045 0.36621 0.0
O71 O 0.32017 0.11562 0.38358 0.0
Zn72 Zn 0.3298 0.06747 0.36975 0.0
Zn73 Zn 0.35484 0.13553 0.40878 0.0
Zn74 Zn 0.25334 0.08925 0.38959 0.0
O75 O 0.26677 0.00498 0.36642 0.0
O76 O 0.21641 0.03323 0.37155 0.0
O77 O 0.3585 0.16023 0.33882 0.0
O78 O 0.3528 0.08842 0.34115 0.0
O79 O 0.38037 0.05914 0.38421 0.0
O80 O 0.40151 0.11111 0.40971 0.0
O81 O 0.31051 0.10658 0.43255 0.0
O82 O 0.2873 0.18669 0.36282 0.0
O83 O 0.23832 0.06599 0.41825 0.0
O84 O 0.23216 0.13773 0.38475 0.0
C85 C 0.40586 0.23997 0.39716 0.0
C86 C 0.22519 0.00103 0.36495 0.0
C87 C 0.40663 0.0802 0.39952 0.0
C88 C 0.36183 0.12575 0.33096 0.0
C89 C 0.26519 0.07796 0.43379 0.0
C90 C 0.2484 0.17309 0.37254 0.0
O91 O 0.39171 0.20808 0.41097 0.0
O92 O 0.78674 0.59744 0.10459 0.0
Zn93 Zn 0.77803 0.65506 0.10653 0.0
O94 O 0.73219 0.64735 0.1277 0.0
Zn95 Zn 0.67842 0.6511 0.11549 0.0
Zn96 Zn 0.71052 0.58645 0.14114 0.0
Zn97 Zn 0.76328 0.69643 0.14819 0.0
O98 O 0.67537 0.70883 0.12622 0.0
O99 O 0.74028 0.74339 0.14601 0.0
O100 O 0.75979 0.66911 0.07915 0.0
O101 O 0.6893 0.66385 0.0858 0.0
O102 O 0.61577 0.58745 0.11835 0.0
O103 O 0.6418 0.54353 0.1345 0.0
O104 O 0.71441 0.59116 0.1714 0.0
O105 O 0.84416 0.70659 0.11431 0.0
O106 O 0.74785 0.66978 0.17634 0.0
O107 O 0.83533 0.73076 0.14465 0.0
C108 C 0.77604 0.56298 0.11684 0.0
C109 C 0.70447 0.74328 0.13759 0.0
C110 C 0.6084 0.54785 0.1261 0.0
C111 C 0.72259 0.67082 0.07344 0.0
C112 C 0.72916 0.62706 0.1832 0.0
C113 C 0.86193 0.73155 0.13019 0.0
O114 O 0.74875 0.55596 0.13194 0.0
O115 O 0.75247 0.15916 0.37774 0.0
Zn116 Zn 0.81266 0.17277 0.36356 0.0
O117 O 0.86853 0.20875 0.38067 0.0
Zn118 Zn 0.91382 0.26858 0.36743 0.0
Zn119 Zn 0.84822 0.22207 0.40632 0.0
Zn120 Zn 0.90026 0.17157 0.38505 0.0
O121 O 0.98086 0.2778 0.36624 0.0
O122 O 0.96287 0.20159 0.37036 0.0
O123 O 0.81977 0.20478 0.33671 0.0
O124 O 0.89366 0.26808 0.33872 0.0
O125 O 0.91516 0.32453 0.38133 0.0
O126 O 0.86911 0.29239 0.40839 0.0
O127 O 0.8779 0.20534 0.42929 0.0
O128 O 0.80183 0.10699 0.35807 0.0
O129 O 0.9161 0.17145 0.41455 0.0
O130 O 0.86012 0.10375 0.37495 0.0
C131 C 0.74295 0.16292 0.39603 0.0
C132 C -0.00776 0.24499 0.36544 0.0
C133 C 0.89571 0.32869 0.39737 0.0
C134 C 0.85533 0.24158 0.32876 0.0
C135 C 0.90432 0.18598 0.43029 0.0
C136 C 0.82245 0.08402 0.36397 0.0
O137 O 0.77593 0.18474 0.40912 0.0
O138 O 0.2125 0.38965 0.61986 0.0
Zn139 Zn 0.15288 0.33781 0.63229 0.0
O140 O 0.09852 0.31942 0.61473 0.0
Zn141 Zn 0.05152 0.33126 0.62834 0.0
Zn142 Zn 0.12021 0.35427 0.58949 0.0
Zn143 Zn 0.06962 0.25197 0.60903 0.0
O144 O -0.01311 0.27044 0.63044 0.0
O145 O 0.01058 0.21631 0.62589 0.0
O146 O 0.14287 0.35735 0.65948 0.0
O147 O 0.07133 0.35238 0.65723 0.0
O148 O 0.0466 0.38368 0.614 0.0
O149 O 0.09697 0.40193 0.58805 0.0
O150 O 0.09203 0.30986 0.56567 0.0
O151 O 0.16692 0.28431 0.63611 0.0
O152 O 0.04964 0.23783 0.57994 0.0
O153 O 0.11535 0.22799 0.61519 0.0
C154 C 0.22446 0.40411 0.60182 0.0
C155 C 0.97948 0.22754 0.63168 0.0
C156 C 0.06747 0.4089 0.59845 0.0
C157 C 0.10857 0.36092 0.6674 0.0
C158 C 0.0631 0.26463 0.56436 0.0
C159 C 0.15113 0.24414 0.62719 0.0
O160 O 0.19311 0.39098 0.58781 0.0
O161 O 0.16966 0.78711 0.8969 0.0
Zn162 Zn 0.17946 0.85398 0.89497 0.0
O163 O 0.22538 0.89067 0.87366 0.0
Zn164 Zn 0.27883 0.94906 0.8852 0.0
Zn165 Zn 0.24786 0.85161 0.86073 0.0
Zn166 Zn 0.19324 0.90634 0.85292 0.0
O167 O 0.27845 0.00809 0.87452 0.0
O168 O 0.21242 0.97545 0.85532 0.0
O169 O 0.19925 0.88683 0.92206 0.0
O170 O 0.26963 0.95147 0.91496 0.0
O171 O 0.34263 0.95043 0.88146 0.0
O172 O 0.31686 0.87862 0.86714 0.0
O173 O 0.24443 0.8517 0.8304 0.0
O174 O 0.11328 0.84126 0.88789 0.0
O175 O 0.21138 0.8972 0.82504 0.0
O176 O 0.12134 0.86472 0.85589 0.0
C177 C 0.18176 0.76343 0.88519 0.0
C178 C 0.24775 0.01189 0.86354 0.0
C179 C 0.35042 0.91778 0.87448 0.0
C180 C 0.23672 0.92559 0.92752 0.0
C181 C 0.2305 0.87331 0.81841 0.0
C182 C 0.09504 0.84319 0.87111 0.0
O183 O 0.2103 0.78361 0.87043 0.0
O184 O 0.58597 0.81658 0.62495 0.0
Zn185 Zn 0.63601 0.80488 0.63721 0.0
O186 O 0.65489 0.77123 0.61843 0.0
Zn187 Zn 0.64009 0.70907 0.62927 0.0
Zn188 Zn 0.62409 0.76539 0.59282 0.0
Zn189 Zn 0.72279 0.80827 0.6143 0.0
O190 O 0.69983 0.70266 0.63045 0.0
O191 O 0.75493 0.78079 0.63099 0.0
O192 O 0.61319 0.7695 0.66332 0.0
O193 O 0.61778 0.70323 0.65826 0.0
O194 O 0.58726 0.65622 0.61278 0.0
O195 O 0.57327 0.69667 0.58892 0.0
O196 O 0.67076 0.78337 0.5698 0.0
O197 O 0.69036 0.87163 0.6428 0.0
O198 O 0.74034 0.80628 0.58534 0.0
O199 O 0.74682 0.87688 0.62173 0.0
C200 C 0.57616 0.82019 0.60666 0.0
C201 C 0.74244 0.73681 0.63407 0.0
C202 C 0.56357 0.65721 0.59748 0.0
C203 C 0.60866 0.72987 0.66962 0.0
C204 C 0.71565 0.79728 0.56924 0.0
C205 C 0.73082 0.89608 0.63403 0.0
O206 O 0.59178 0.80548 0.59223 0.0
O207 O 0.17376 0.37178 0.89609 0.0
Zn208 Zn 0.10858 0.31204 0.89426 0.0
O209 O 0.06914 0.3162 0.8727 0.0
Zn210 Zn 0.0099 0.3099 0.88388 0.0
Zn211 Zn 0.10589 0.37704 0.85947 0.0
Zn212 Zn 0.05544 0.26807 0.8524 0.0
O213 O 0.95108 0.2536 0.87125 0.0
O214 O -0.01428 0.22075 0.85299 0.0
O215 O 0.07443 0.29653 0.92112 0.0
O216 O 0.00549 0.29354 0.91319 0.0
O217 O 0.01033 0.37348 0.88238 0.0
O218 O 0.08264 0.42073 0.86855 0.0
O219 O 0.09938 0.37311 0.82938 0.0
O220 O 0.12598 0.2615 0.8875 0.0
O221 O 0.07008 0.29503 0.82436 0.0
O222 O 0.09286 0.23432 0.85744 0.0
C223 C 0.19692 0.40046 0.88176 0.0
C224 C 0.94828 0.21987 0.86004 0.0
C225 C 0.0438 0.41465 0.87653 0.0
C226 C 0.03292 0.28966 0.92604 0.0
C227 C 0.08587 0.33743 0.81756 0.0
C228 C 0.11885 0.23504 0.87211 0.0
O229 O 0.17569 0.4036 0.86607 0.0
O230 O 0.15181 0.757 0.61996 0.0
Zn231 Zn 0.16558 0.81771 0.63386 0.0
O232 O 0.20134 0.87212 0.61612 0.0
Zn233 Zn 0.26082 0.91923 0.62895 0.0
Zn234 Zn 0.21401 0.85129 0.59065 0.0
Zn235 Zn 0.16289 0.9015 0.611 0.0
O236 O 0.26494 0.98399 0.63072 0.0
O237 O 0.1868 0.96037 0.62798 0.0
O238 O 0.19872 0.82613 0.6605 0.0
O239 O 0.26267 0.89942 0.65769 0.0
O240 O 0.31785 0.92408 0.61414 0.0
O241 O 0.28401 0.87241 0.58881 0.0
O242 O 0.19864 0.88122 0.56727 0.0
O243 O 0.09943 0.80671 0.63937 0.0
O244 O 0.16845 0.92265 0.58207 0.0
O245 O 0.09351 0.85578 0.61734 0.0
C246 C 0.15523 0.74682 0.60171 0.0
C247 C 0.22979 -0.00824 0.63272 0.0
C248 C 0.32116 0.90225 0.59868 0.0
C249 C 0.23633 0.86162 0.66801 0.0
C250 C 0.18223 0.91018 0.56632 0.0
C251 C 0.07452 0.82147 0.63005 0.0
O252 O 0.17668 0.7792 0.58836 0.0
O253 O 0.60401 0.80183 0.89855 0.0
Zn254 Zn 0.65949 0.78894 0.89616 0.0
O255 O 0.64898 0.74303 0.87471 0.0
Zn256 Zn 0.65149 0.68773 0.88547 0.0
Zn257 Zn 0.58913 0.72538 0.86175 0.0
Zn258 Zn 0.69562 0.77375 0.85384 0.0
O259 O 0.70994 0.68588 0.8739 0.0
O260 O 0.74501 0.75475 0.85656 0.0
O261 O 0.67201 0.7673 0.92298 0.0
O262 O 0.66373 0.69588 0.91542 0.0
O263 O 0.58601 0.62675 0.88135 0.0
O264 O 0.54259 0.6592 0.87001 0.0
O265 O 0.59087 0.72241 0.8315 0.0
O266 O 0.71364 0.85466 0.88864 0.0
O267 O 0.66893 0.75385 0.82599 0.0
O268 O 0.72471 0.84502 0.85625 0.0
C269 C 0.57469 0.79801 0.88474 0.0
C270 C 0.7453 0.71796 0.86366 0.0
C271 C 0.54584 0.6232 0.87611 0.0
C272 C 0.6719 0.72886 0.92818 0.0
C273 C 0.6259 0.73418 0.81947 0.0
C274 C 0.73121 0.87203 0.87139 0.0
O275 O 0.56789 0.7723 0.86913 0.0
H276 H 0.06965 0.26559 0.10382 0.0
H277 H 0.04528 0.22868 0.16691 0.0
H278 H 0.12994 0.24039 0.10275 0.0
H279 H 0.10785 0.20631 0.16635 0.0
H280 H 0.24633 0.2006 0.10711 0.0
H281 H 0.20321 0.24499 0.11112 0.0
H282 H 0.10666 0.13764 0.15369 0.0
H283 H 0.15144 0.09501 0.15043 0.0
C284 C 0.07894 0.25421 0.11768 0.0
C285 C 0.05268 0.24849 0.13539 0.0
C286 C 0.11346 0.23962 0.1171 0.0
C287 C 0.12284 0.21997 0.13436 0.0
C288 C 0.10025 0.21957 0.15261 0.0
C289 C 0.06497 0.23304 0.15305 0.0
C290 C 0.21577 0.18655 0.11728 0.0
C291 C 0.20195 0.14421 0.12838 0.0
C292 C 0.19111 0.21202 0.11961 0.0
C293 C 0.15161 0.19523 0.13283 0.0
C294 C 0.13771 0.15255 0.14379 0.0
C295 C 0.16291 0.12762 0.14173 0.0
H296 H 0.19541 0.90715 0.37385 0.0
H297 H 0.16375 -0.00113 0.33683 0.0
H298 H 0.11417 0.83948 0.36748 0.0
H299 H 0.08344 0.93131 0.32993 0.0
H300 H 0.93955 0.84793 0.36605 0.0
H301 H 0.0237 0.90284 0.35825 0.0
H302 H 0.04416 0.78226 0.34428 0.0
H303 H 0.95901 0.72665 0.35211 0.0
C304 C 0.17183 0.91206 0.36359 0.0
C305 C 0.18488 0.95794 0.35612 0.0
C306 C 0.1255 0.87346 0.35989 0.0
C307 C 0.09241 0.88073 0.3486 0.0
C308 C 0.10809 0.92517 0.33899 0.0
C309 C 0.15389 0.96368 0.34291 0.0
C310 C 0.96175 0.83307 0.36109 0.0
C311 C 0.94295 0.78313 0.35985 0.0
C312 C 0.00981 0.8645 0.35637 0.0
C313 C 0.04023 0.84668 0.35048 0.0
C314 C 0.02127 0.79674 0.34871 0.0
C315 C 0.97273 0.76512 0.35318 0.0
H316 H 0.85822 0.03968 0.15209 0.0
H317 H 0.754 0.02882 0.10789 0.0
H318 H 0.81376 0.95263 0.15637 0.0
H319 H 0.70786 0.94198 0.11292 0.0
H320 H 0.68643 0.78752 0.10674 0.0
H321 H 0.71172 0.8728 0.10525 0.0
H322 H 0.74431 0.88597 0.16901 0.0
H323 H 0.72178 0.80114 0.17002 0.0
C324 C 0.82551 0.01862 0.14344 0.0
C325 C 0.80995 0.04084 0.12947 0.0
C326 C 0.79953 0.96873 0.14607 0.0
C327 C 0.75683 0.94009 0.13509 0.0
C328 C 0.74085 0.96268 0.12141 0.0
C329 C 0.76736 0.01247 0.1185 0.0
C330 C 0.69735 0.80836 0.12055 0.0
C331 C 0.70274 0.7882 0.13844 0.0
C332 C 0.71204 0.85739 0.11973 0.0
C333 C 0.73145 0.88671 0.13691 0.0
C334 C 0.73125 0.86488 0.15534 0.0
C335 C 0.71765 0.81618 0.15603 0.0
H336 H 0.1927 0.18537 0.40003 0.0
H337 H 0.24471 0.2197 0.33878 0.0
H338 H 0.14378 0.22348 0.39478 0.0
H339 H 0.19439 0.25679 0.33338 0.0
H340 H 0.07416 0.30975 0.38442 0.0
H341 H 0.15044 0.30874 0.38396 0.0
H342 H 0.09609 0.20465 0.33561 0.0
H343 H 0.01965 0.20454 0.33655 0.0
C344 C 0.19397 0.20151 0.38552 0.0
C345 C 0.22183 0.19913 0.36972 0.0
C346 C 0.16661 0.22389 0.38261 0.0
C347 C 0.16596 0.2434 0.36375 0.0
C348 C 0.19496 0.24244 0.3481 0.0
C349 C 0.22333 0.22103 0.35117 0.0
C350 C 0.07958 0.28844 0.37312 0.0
C351 C 0.04153 0.25705 0.36057 0.0
C352 C 0.12295 0.28778 0.3729 0.0
C353 C 0.12869 0.2565 0.3598 0.0
C354 C 0.09255 0.22939 0.34568 0.0
C355 C 0.0489 0.22918 0.34625 0.0
H356 H 0.16806 0.88348 0.10905 0.0
H357 H 0.15566 0.91621 0.1711 0.0
H358 H 0.08255 0.82448 0.10837 0.0
H359 H 0.07048 0.85489 0.17098 0.0
H360 H 0.92687 0.71166 0.11269 0.0
H361 H 0.01383 0.75337 0.11754 0.0
H362 H 0.00301 0.85463 0.15744 0.0
H363 H 0.91574 0.81093 0.15345 0.0
C364 C 0.1474 0.87633 0.12283 0.0
C365 C 0.16809 0.90462 0.14005 0.0
C366 C 0.09821 0.84251 0.12248 0.0
C367 C 0.06916 0.83577 0.13949 0.0
C368 C 0.09135 0.8604 0.15739 0.0
C369 C 0.14026 0.89498 0.15759 0.0
C370 C 0.94322 0.74292 0.12247 0.0
C371 C 0.91473 0.75847 0.13254 0.0
C372 C -0.00691 0.76682 0.12528 0.0
C373 C 0.01569 0.80741 0.1379 0.0
C374 C -0.01307 0.82282 0.14798 0.0
C375 C 0.93693 0.79826 0.1455 0.0
H376 H 0.67636 0.78668 0.38341 0.0
H377 H 0.76988 0.80113 0.33384 0.0
H378 H 0.68902 0.86739 0.37631 0.0
H379 H 0.78242 0.88143 0.32664 0.0
H380 H 0.86839 0.03234 0.36033 0.0
H381 H 0.83188 0.946 0.35437 0.0
H382 H 0.69108 0.93322 0.35038 0.0
H383 H 0.72784 0.02032 0.35597 0.0
C384 C 0.69729 0.80607 0.37031 0.0
C385 C 0.72231 0.78836 0.35914 0.0
C386 C 0.70464 0.85215 0.36626 0.0
C387 C 0.73729 0.88056 0.35114 0.0
C388 C 0.75738 0.86016 0.33845 0.0
C389 C 0.75005 0.81431 0.34249 0.0
C390 C 0.82978 0.01126 0.35788 0.0
C391 C 0.8009 0.03278 0.35869 0.0
C392 C 0.80895 0.96203 0.35426 0.0
C393 C 0.75877 0.93332 0.35173 0.0
C394 C 0.72986 0.95487 0.35213 0.0
C395 C 0.7509 0.00448 0.35532 0.0
H396 H 0.18182 0.01249 0.66077 0.0
H397 H 0.29542 0.07732 0.61645 0.0
H398 H 0.17868 0.08715 0.66278 0.0
H399 H 0.29103 0.15168 0.61792 0.0
H400 H 0.19574 0.23926 0.66137 0.0
H401 H 0.23278 0.18889 0.66701 0.0
H402 H 0.20091 0.13876 0.60553 0.0
H403 H 0.16259 0.18747 0.60005 0.0
C404 C 0.20739 0.04349 0.6521 0.0
C405 C 0.23862 0.03958 0.63839 0.0
C406 C 0.20577 0.08611 0.65331 0.0
C407 C 0.23448 0.12463 0.64042 0.0
C408 C 0.26888 0.12228 0.62806 0.0
C409 C 0.27139 0.07998 0.62724 0.0
C410 C 0.19722 0.21781 0.64905 0.0
C411 C 0.17587 0.21649 0.63037 0.0
C412 C 0.21861 0.18948 0.65225 0.0
C413 C 0.2202 0.16093 0.63659 0.0
C414 C 0.2008 0.16136 0.61768 0.0
C415 C 0.17833 0.18856 0.61465 0.0
H416 H 0.0434 0.80738 0.83656 0.0
H417 H 0.02745 0.81672 0.90077 0.0
H418 H 0.95608 0.76041 0.83295 0.0
H419 H 0.94008 0.77198 0.89711 0.0
H420 H 0.78384 0.67873 0.88932 0.0
H421 H 0.86829 0.69822 0.88981 0.0
H422 H 0.89311 0.77723 0.83403 0.0
H423 H 0.8093 0.75604 0.83318 0.0
C424 C 0.02114 0.79987 0.84987 0.0
C425 C 0.04213 0.81638 0.8689 0.0
C426 C 0.97109 0.77276 0.84783 0.0
C427 C 0.94089 0.76244 0.86472 0.0
C428 C 0.9621 0.77833 0.88382 0.0
C429 C 0.01219 0.80467 0.88589 0.0
C430 C 0.80709 0.69857 0.87681 0.0
C431 C 0.79043 0.71661 0.8614 0.0
C432 C 0.85557 0.71037 0.87722 0.0
C433 C 0.88785 0.74032 0.86222 0.0
C434 C 0.86958 0.75403 0.84581 0.0
C435 C 0.82141 0.74212 0.84538 0.0
H436 H 0.74148 0.94718 0.66853 0.0
H437 H 0.78028 0.96256 0.60552 0.0
H438 H 0.7914 0.03512 0.67284 0.0
H439 H 0.82815 0.0497 0.60965 0.0
H440 H 0.96513 0.16174 0.66016 0.0
H441 H 0.89156 0.08426 0.665 0.0
H442 H 0.81692 0.12647 0.62261 0.0
H443 H 0.89041 0.20497 0.61829 0.0
C444 C 0.75998 0.96948 0.65561 0.0
C445 C 0.75797 0.94847 0.63679 0.0
C446 C 0.78799 0.01945 0.65803 0.0
C447 C 0.81264 0.04874 0.64148 0.0
C448 C 0.80861 0.02775 0.62252 0.0
C449 C 0.78193 0.978 0.62023 0.0
C450 C 0.93231 0.15517 0.65262 0.0
C451 C 0.93302 0.18861 0.63876 0.0
C452 C 0.89029 0.11116 0.65549 0.0
C453 C 0.84902 0.09976 0.64411 0.0
C454 C 0.84845 0.13495 0.63162 0.0
C455 C 0.89028 0.17959 0.62914 0.0
H456 H 0.09365 0.1558 0.84901 0.0
H457 H 0.2013 0.25208 0.89137 0.0
H458 H 0.13613 0.111 0.84556 0.0
H459 H 0.24547 0.2087 0.88719 0.0
H460 H 0.26598 0.07474 0.89418 0.0
H461 H 0.24087 0.13511 0.8956 0.0
H462 H 0.20476 0.11285 0.83219 0.0
H463 H 0.22707 0.0503 0.83128 0.0
C464 C 0.12668 0.16758 0.85746 0.0
C465 C 0.14395 0.2071 0.87057 0.0
C466 C 0.1515 0.14234 0.85529 0.0
C467 C 0.19473 0.1566 0.86589 0.0
C468 C 0.21212 0.19643 0.87894 0.0
C469 C 0.18678 0.22122 0.88137 0.0
C470 C 0.25413 0.08399 0.88044 0.0
C471 C 0.24784 0.05773 0.86268 0.0
C472 C 0.23962 0.11855 0.88122 0.0
C473 C 0.21945 0.12789 0.86413 0.0
C474 C 0.21844 0.10526 0.84582 0.0
C475 C 0.23183 0.06997 0.84518 0.0
H476 H 0.0244 0.77489 0.66392 0.0
H477 H 0.00665 0.81012 0.60279 0.0
H478 H 0.93663 0.7349 0.66888 0.0
H479 H 0.91952 0.76925 0.60761 0.0
H480 H 0.8063 0.77738 0.6644 0.0
H481 H 0.8846 0.78169 0.66655 0.0
H482 H 0.8445 0.68071 0.61729 0.0
H483 H 0.76532 0.67534 0.61555 0.0
C484 C 0.00167 0.77346 0.65151 0.0
C485 C 0.02206 0.79613 0.63308 0.0
C486 C 0.95173 0.75035 0.65432 0.0
C487 C 0.92169 0.74843 0.63851 0.0
C488 C 0.94203 0.76946 0.61987 0.0
C489 C -0.00818 0.7935 0.61723 0.0
C490 C 0.81345 0.75432 0.65474 0.0
C491 C 0.78046 0.72636 0.63972 0.0
C492 C 0.85802 0.75661 0.65602 0.0
C493 C 0.87036 0.73186 0.64195 0.0
C494 C 0.83543 0.69996 0.62829 0.0
C495 C 0.7903 0.69682 0.62733 0.0
H496 H 0.92416 0.15446 0.83007 0.0
H497 H 0.86896 0.1831 0.88462 0.0
H498 H 0.86211 0.07056 0.8316 0.0
H499 H 0.80503 0.09869 0.88579 0.0
H500 H 0.77155 0.94247 0.90003 0.0
H501 H 0.81141 0.02931 0.89488 0.0
H502 H 0.78178 0.00665 0.831 0.0
H503 H 0.74393 0.92004 0.83607 0.0
C504 C 0.89754 0.14307 0.842 0.0
C505 C 0.90201 0.17493 0.85749 0.0
C506 C 0.86167 0.09488 0.84283 0.0
C507 C 0.82928 0.07764 0.85911 0.0
C508 C 0.83032 0.11075 0.87335 0.0
C509 C 0.86648 0.15918 0.87254 0.0
C510 C 0.77366 0.95614 0.8849 0.0
C511 C 0.75563 0.9246 0.86841 0.0
C512 C 0.7958 0.00586 0.88197 0.0
C513 C 0.7997 0.02497 0.86251 0.0
C514 C 0.78001 -0.00683 0.84613 0.0
C515 C 0.75858 0.94356 0.84903 0.0
H516 H 0.36368 0.19016 0.30356 0.0
H517 H 0.37762 0.06274 0.3085 0.0
H518 H 0.36258 0.18371 0.267 0.0
H519 H 0.37729 0.05712 0.27166 0.0
H520 H 0.4136 0.10064 0.20206 0.0
H521 H 0.42765 0.11195 0.23854 0.0
H522 H 0.29251 0.11004 0.24574 0.0
H523 H 0.27781 0.09777 0.20957 0.0
C524 C 0.36758 0.16137 0.2969 0.0
C525 C 0.37015 0.12658 0.30899 0.0
C526 C 0.36677 0.15769 0.27596 0.0
C527 C 0.36935 0.11969 0.26667 0.0
C528 C 0.37529 0.08676 0.27858 0.0
C529 C 0.37537 0.08997 0.29961 0.0
C530 C 0.38693 0.10261 0.21147 0.0
C531 C 0.34461 0.09836 0.203 0.0
C532 C 0.39494 0.1089 0.23226 0.0
C533 C 0.3613 0.11218 0.24476 0.0
C534 C 0.31915 0.10805 0.2363 0.0
C535 C 0.31066 0.10077 0.21566 0.0
H536 H 0.66629 0.62298 0.31071 0.0
H537 H 0.7771 0.5832 0.30726 0.0
H538 H 0.65961 0.61943 0.27408 0.0
H539 H 0.76987 0.5793 0.27055 0.0
H540 H 0.71621 0.54771 0.2042 0.0
H541 H 0.70988 0.536 0.2408 0.0
H542 H 0.72373 0.67639 0.2484 0.0
H543 H 0.73067 0.6885 0.21201 0.0
C544 C 0.6884 0.61234 0.30221 0.0
C545 C 0.72263 0.60388 0.31192 0.0
C546 C 0.68473 0.61062 0.28122 0.0
C547 C 0.71462 0.59966 0.26954 0.0
C548 C 0.74635 0.58776 0.27924 0.0
C549 C 0.75054 0.59013 0.30025 0.0
C550 C 0.7177 0.57596 0.2137 0.0
C551 C 0.72416 0.61913 0.20524 0.0
C552 C 0.71416 0.56925 0.2346 0.0
C553 C 0.71601 0.60516 0.24736 0.0
C554 C 0.72159 0.64788 0.23887 0.0
C555 C 0.72597 0.65495 0.21806 0.0
H556 H 0.80369 0.2493 0.19893 0.0
H557 H 0.9253 0.22717 0.20788 0.0
H558 H 0.79975 0.25964 0.23534 0.0
H559 H 0.9215 0.23797 0.24404 0.0
H560 H 0.93091 0.30296 0.30496 0.0
H561 H 0.93313 0.30597 0.26827 0.0
H562 H 0.78083 0.20221 0.26615 0.0
H563 H 0.77831 0.19874 0.30293 0.0
C564 C 0.8297 0.24692 0.20863 0.0
C565 C 0.86468 0.2372 0.20057 0.0
C566 C 0.82734 0.25276 0.22941 0.0
C567 C 0.86051 0.24991 0.2424 0.0
C568 C 0.89589 0.24095 0.2343 0.0
C569 C 0.89777 0.23435 0.21363 0.0
C570 C 0.89761 0.28147 0.29675 0.0
C571 C 0.85453 0.25009 0.30688 0.0
C572 C 0.89903 0.28308 0.27574 0.0
C573 C 0.8573 0.25388 0.26446 0.0
C574 C 0.81348 0.22513 0.27454 0.0
C575 C 0.81213 0.22305 0.29558 0.0
H576 H 0.04383 0.37296 0.69048 0.0
H577 H 0.17578 0.36664 0.69423 0.0
H578 H 0.03981 0.37285 0.72739 0.0
H579 H 0.17089 0.36572 0.7308 0.0
H580 H 0.09055 0.27957 0.78872 0.0
H581 H 0.09888 0.29326 0.75242 0.0
H582 H 0.09675 0.42613 0.76018 0.0
H583 H 0.08937 0.41312 0.79679 0.0
C584 C 0.07234 0.37242 0.6991 0.0
C585 C 0.1098 0.36923 0.68939 0.0
C586 C 0.07002 0.37245 0.72017 0.0
C587 C 0.10476 0.36869 0.73174 0.0
C588 C 0.1435 0.36818 0.7221 0.0
C589 C 0.14624 0.36884 0.70115 0.0
C590 C 0.09176 0.31167 0.78273 0.0
C591 C 0.0895 0.34537 0.79558 0.0
C592 C 0.09674 0.31956 0.762 0.0
C593 C 0.09869 0.36082 0.75368 0.0
C594 C 0.09534 0.39409 0.76637 0.0
C595 C 0.09131 0.38669 0.78723 0.0
H596 H 0.24859 0.80998 0.79757 0.0
H597 H 0.2278 0.93257 0.78958 0.0
H598 H 0.25794 0.8065 0.76107 0.0
H599 H 0.2375 0.92917 0.75332 0.0
H600 H 0.29811 0.93788 0.69147 0.0
H601 H 0.30285 0.9405 0.72816 0.0
H602 H 0.20064 0.78792 0.73079 0.0
H603 H 0.19556 0.78505 0.69405 0.0
C604 C 0.24631 0.83631 0.78806 0.0
C605 C 0.2372 0.8714 0.79644 0.0
C606 C 0.25159 0.83423 0.76721 0.0
C607 C 0.24873 0.86774 0.75443 0.0
C608 C 0.24051 0.90329 0.76285 0.0
C609 C 0.23451 0.90493 0.7836 0.0
C610 C 0.27737 0.90463 0.6998 0.0
C611 C 0.24599 0.86134 0.68982 0.0
C612 C 0.27992 0.90626 0.72082 0.0
C613 C 0.25168 0.86454 0.73227 0.0
C614 C 0.22289 0.82059 0.7223 0.0
C615 C 0.21987 0.81903 0.70127 0.0
H616 H 0.62586 0.66815 0.69199 0.0
H617 H 0.56915 0.76553 0.69621 0.0
H618 H 0.62303 0.66064 0.72868 0.0
H619 H 0.56632 0.75786 0.7328 0.0
H620 H 0.54312 0.71162 0.79876 0.0
H621 H 0.52975 0.70026 0.76239 0.0
H622 H 0.67422 0.72422 0.7546 0.0
H623 H 0.68778 0.73573 0.79079 0.0
C624 C 0.61171 0.68701 0.70068 0.0
C625 C 0.59823 0.71786 0.69122 0.0
C626 C 0.6104 0.68294 0.72168 0.0
C627 C 0.59494 0.70907 0.73355 0.0
C628 C 0.57821 0.73715 0.72401 0.0
C629 C 0.58007 0.74171 0.70307 0.0
C630 C 0.57188 0.71408 0.7893 0.0
C631 C 0.61666 0.725 0.79763 0.0
C632 C 0.56419 0.70761 0.76851 0.0
C633 C 0.60088 0.71119 0.75572 0.0
C634 C 0.64508 0.72063 0.76413 0.0
C635 C 0.65299 0.72771 0.78484 0.0
H636 H 0.306 0.01121 0.94331 0.0
H637 H 0.17952 0.87674 0.95978 0.0
H638 H 0.31557 0.03792 0.97819 0.0
H639 H 0.18906 0.90391 0.99473 0.0
H640 H 0.26234 0.94687 0.05727 0.0
H641 H 0.24777 0.92053 0.02233 0.0
H642 H 0.27468 0.06143 0.00407 0.0
H643 H 0.28979 0.08824 0.03915 0.0
C644 C 0.28014 0.98734 0.95435 0.0
C645 C 0.24208 0.94168 0.94875 0.0
C646 C 0.28545 0.00288 0.97431 0.0
C647 C 0.25302 0.97306 0.98916 0.0
C648 C 0.21483 0.9275 0.9836 0.0
C649 C 0.2093 0.91203 0.96358 0.0
C650 C 0.26507 0.97232 0.04585 0.0
C651 C 0.27747 0.01979 0.05101 0.0
C652 C 0.25635 0.95704 0.02584 0.0
C653 C 0.26007 -0.0111 0.01049 0.0
C654 C 0.27198 0.03623 0.0156 0.0
C655 C 0.28041 0.05149 0.03569 0.0
H656 H 0.79792 0.81096 0.44276 0.0
H657 H 0.80251 0.69171 0.47119 0.0
H658 H 0.78825 0.83897 0.47582 0.0
H659 H 0.79325 0.71996 0.5041 0.0
H660 H 0.79951 0.79647 0.56207 0.0
H661 H 0.8312 0.78995 0.5294 0.0
H662 H 0.71499 0.79711 0.49944 0.0
H663 H 0.68306 0.80326 0.53198 0.0
C664 C 0.79806 0.79143 0.45608 0.0
C665 C 0.80043 0.74884 0.4544 0.0
C666 C 0.79234 0.80736 0.47495 0.0
C667 C 0.78977 0.78146 0.49245 0.0
C668 C 0.79548 0.7408 0.49087 0.0
C669 C 0.80045 0.72447 0.47201 0.0
C670 C 0.78124 0.79753 0.5485 0.0
C671 C 0.7385 0.79986 0.54958 0.0
C672 C 0.79934 0.79369 0.52984 0.0
C673 C 0.77548 0.79297 0.51195 0.0
C674 C 0.73435 0.79806 0.513 0.0
C675 C 0.71586 0.80117 0.53163 0.0
H676 H 0.9433 0.26318 0.94073 0.0
H677 H 0.08362 0.28741 0.95896 0.0
H678 H 0.91564 0.24549 0.97546 0.0
H679 H 0.05549 0.26909 0.99376 0.0
H680 H 0.00554 0.29938 0.05465 0.0
H681 H 0.03271 0.30935 0.0199 0.0
H682 H 0.89737 0.18533 0.00266 0.0
H683 H 0.86962 0.17542 0.03759 0.0
C684 C 0.96821 0.26448 0.95211 0.0
C685 C 0.01584 0.27708 0.94707 0.0
C686 C 0.95215 0.25393 0.972 0.0
C687 C -0.01661 0.25594 0.98731 0.0
C688 C 0.03077 0.26772 0.98227 0.0
C689 C 0.0468 0.27805 0.96233 0.0
C690 C 0.98147 0.27408 0.04351 0.0
C691 C 0.93523 0.23672 0.0489 0.0
C692 C -0.00271 0.27961 0.02361 0.0
C693 C 0.96723 0.24807 0.00859 0.0
C694 C 0.92116 0.21039 0.01393 0.0
C695 C 0.90536 0.20464 0.03393 0.0
H696 H 0.30202 0.11162 0.47117 0.0
H697 H 0.18145 -0.00642 0.44075 0.0
H698 H 0.27236 0.07026 0.50337 0.0
H699 H 0.15232 0.95196 0.47302 0.0
H700 H 0.18211 0.87547 0.52879 0.0
H701 H 0.19362 0.91705 0.49665 0.0
H702 H 0.19722 0.0376 0.52749 0.0
H703 H 0.18491 -0.00423 0.55971 0.0
C704 C 0.26888 0.07715 0.4714 0.0
C705 C 0.24421 0.0557 0.45344 0.0
C706 C 0.25178 0.05368 0.48983 0.0
C707 C 0.21017 0.00797 0.4906 0.0
C708 C 0.18457 0.98716 0.47276 0.0
C709 C 0.20117 0.01106 0.45435 0.0
C710 C 0.18451 0.91048 0.52868 0.0
C711 C 0.18289 0.9325 0.54676 0.0
C712 C 0.1908 0.9341 0.51029 0.0
C713 C 0.19641 0.98049 0.50968 0.0
C714 C 0.1931 0.00187 0.52764 0.0
C715 C 0.18588 0.97785 0.54601 0.0
H716 H 0.77637 0.67229 0.04089 0.0
H717 H 0.6573 0.69318 0.05765 0.0
H718 H 0.76639 0.68833 0.00569 0.0
H719 H 0.64743 0.70896 0.0226 0.0
H720 H 0.67678 0.78311 0.961 0.0
H721 H 0.69168 0.77108 0.99604 0.0
H722 H 0.70405 0.64767 0.97853 0.0
H723 H 0.68936 0.65961 0.94351 0.0
C724 C 0.74821 0.68041 0.0371 0.0
C725 C 0.71758 0.68131 0.05209 0.0
C726 C 0.74237 0.68937 0.01694 0.0
C727 C 0.70616 0.69995 0.01141 0.0
C728 C 0.67598 0.70143 0.02643 0.0
C729 C 0.68147 0.69203 0.0465 0.0
C730 C 0.68282 0.7535 0.9646 0.0
C731 C 0.68167 0.72223 0.94944 0.0
C732 C 0.69116 0.74652 0.98468 0.0
C733 C 0.69901 0.70842 0.99001 0.0
C734 C 0.6986 0.67761 0.97484 0.0
C735 C 0.68981 0.68429 0.9548 0.0
H736 H 0.97937 0.18073 0.55672 0.0
H737 H 0.0993 0.30142 0.5272 0.0
H738 H 0.93993 0.15153 0.52405 0.0
H739 H 0.06009 0.2717 0.49461 0.0
H740 H 0.86693 0.18324 0.46744 0.0
H741 H 0.90641 0.19298 0.49998 0.0
H742 H 0.02857 0.19712 0.47026 0.0
H743 H -0.01129 0.18651 0.43761 0.0
C744 C -0.00225 0.20047 0.54324 0.0
C745 C 0.04225 0.2436 0.54452 0.0
C746 C 0.97511 0.1838 0.5246 0.0
C747 C -0.00297 0.20941 0.50689 0.0
C748 C 0.04267 0.25107 0.50804 0.0
C749 C 0.0649 0.26823 0.5267 0.0
C750 C 0.90177 0.18524 0.46789 0.0
C751 C 0.92488 0.1844 0.45001 0.0
C752 C 0.92422 0.19054 0.4865 0.0
C753 C 0.97054 0.19595 0.48755 0.0
C754 C -0.00712 0.19313 0.46978 0.0
C755 C 0.96998 0.18686 0.45116 0.0
H756 H 0.69495 0.1976 0.13484 0.0
H757 H 0.69752 0.10665 0.08716 0.0
H758 H 0.60778 0.14856 0.13651 0.0
H759 H 0.6095 0.05717 0.08901 0.0
H760 H 0.44782 0.03596 0.08799 0.0
H761 H 0.534 0.06455 0.08342 0.0
H762 H 0.55115 0.06418 0.14798 0.0
H763 H 0.46566 0.03712 0.15243 0.0
C764 C 0.67694 0.16739 0.12458 0.0
C765 C 0.70329 0.15587 0.11098 0.0
C766 C 0.627 0.13891 0.12572 0.0
C767 C 0.60215 0.09823 0.1133 0.0
C768 C 0.62796 0.08801 0.09891 0.0
C769 C 0.67823 0.11654 0.0978 0.0
C770 C 0.46968 0.0396 0.10108 0.0
C771 C 0.45064 0.03456 0.12055 0.0
C772 C 0.51898 0.05632 0.09849 0.0
C773 C 0.54926 0.06788 0.11539 0.0
C774 C 0.52867 0.05663 0.13473 0.0
C775 C 0.47975 0.0405 0.13729 0.0
H776 H 0.64216 0.50863 0.43201 0.0
H777 H 0.56191 0.54943 0.39187 0.0
H778 H 0.57307 0.42804 0.43461 0.0
H779 H 0.49194 0.469 0.39515 0.0
H780 H 0.43997 0.31558 0.37128 0.0
H781 H 0.48948 0.40017 0.37876 0.0
H782 H 0.48934 0.36715 0.44195 0.0
H783 H 0.43965 0.28105 0.43436 0.0
C784 C 0.60918 0.50097 0.42433 0.0
C785 C 0.60796 0.53475 0.41112 0.0
C786 C 0.56938 0.45476 0.42596 0.0
C787 C 0.52767 0.44189 0.41459 0.0
C788 C 0.52427 0.47768 0.40361 0.0
C789 C 0.56427 0.52372 0.40175 0.0
C790 C 0.45012 0.32604 0.38683 0.0
C791 C 0.43622 0.29146 0.4022 0.0
C792 C 0.47796 0.3748 0.39117 0.0
C793 C 0.49267 0.39042 0.411 0.0
C794 C 0.47834 0.35605 0.42652 0.0
C795 C 0.4502 0.30687 0.42216 0.0
H796 H 0.91076 0.39281 0.08656 0.0
H797 H 0.9173 0.40755 0.15123 0.0
H798 H 0.88389 0.45221 0.08399 0.0
H799 H 0.89209 0.46789 0.14878 0.0
H800 H 0.84701 0.57571 0.09011 0.0
H801 H 0.89457 0.53493 0.0904 0.0
H802 H 0.80829 0.44558 0.13979 0.0
H803 H 0.76131 0.48615 0.13971 0.0
C804 C 0.90905 0.41088 0.10009 0.0
C805 C 0.91596 0.39605 0.11908 0.0
C806 C 0.89338 0.44453 0.09866 0.0
C807 C 0.88466 0.46349 0.11624 0.0
C808 C 0.89741 0.45285 0.13503 0.0
C809 C 0.91248 0.41896 0.13644 0.0
C810 C 0.83791 0.547 0.10089 0.0
C811 C 0.80053 0.53434 0.11499 0.0
C812 C 0.86532 0.52392 0.10109 0.0
C813 C 0.85593 0.48809 0.11545 0.0
C814 C 0.81736 0.47421 0.12896 0.0
C815 C 0.79 0.49705 0.12874 0.0
H816 H 0.44931 0.04561 0.37431 0.0
H817 H 0.45888 0.10179 0.43439 0.0
H818 H 0.52876 0.05515 0.37797 0.0
H819 H 0.53799 0.10902 0.43859 0.0
H820 H 0.70029 0.19871 0.42068 0.0
H821 H 0.61393 0.16509 0.42597 0.0
H822 H 0.58587 0.03896 0.39135 0.0
H823 H 0.67199 0.07467 0.38495 0.0
C824 C 0.46771 0.05834 0.38861 0.0
C825 C 0.44841 0.07402 0.40388 0.0
C826 C 0.5134 0.06359 0.39081 0.0
C827 C 0.54042 0.08381 0.40848 0.0
C828 C 0.51882 0.0947 0.42456 0.0
C829 C 0.47336 0.09024 0.42222 0.0
C830 C 0.67545 0.16355 0.41449 0.0
C831 C 0.69218 0.13967 0.40204 0.0
C832 C 0.62597 0.14391 0.41765 0.0
C833 C 0.59266 0.09951 0.4088 0.0
C834 C 0.61025 0.07384 0.39787 0.0
C835 C 0.6595 0.09413 0.39424 0.0
H836 H 0.48003 0.25713 0.13731 0.0
H837 H 0.3855 0.258 0.09084 0.0
H838 H 0.52002 0.34442 0.1392 0.0
H839 H 0.42549 0.34588 0.09301 0.0
H840 H 0.55389 0.48825 0.15572 0.0
H841 H 0.49665 0.40255 0.15162 0.0
H842 H 0.50565 0.42034 0.08693 0.0
H843 H 0.5619 0.50677 0.0912 0.0
C844 C 0.468 0.27593 0.12738 0.0
C845 C 0.42935 0.25053 0.11405 0.0
C846 C 0.49051 0.32594 0.12864 0.0
C847 C 0.47486 0.35175 0.11665 0.0
C848 C 0.43792 0.32677 0.10255 0.0
C849 C 0.41528 0.27652 0.10127 0.0
C850 C 0.54173 0.47413 0.14069 0.0
C851 C 0.56198 0.50362 0.12377 0.0
C852 C 0.50965 0.42508 0.13831 0.0
C853 C 0.49811 0.40467 0.11895 0.0
C854 C 0.51418 0.43515 0.10202 0.0
C855 C 0.54598 0.48459 0.10444 0.0
H856 H 0.90734 0.60371 0.38669 0.0
H857 H 0.78205 0.51003 0.42221 0.0
H858 H 0.93931 0.54946 0.3917 0.0
H859 H 0.8118 0.45362 0.42606 0.0
H860 H 0.87165 0.35684 0.43244 0.0
H861 H 0.86531 0.42898 0.4376 0.0
H862 H 0.91924 0.47633 0.37718 0.0
H863 H 0.92793 0.40628 0.37256 0.0
C864 C 0.88683 0.57142 0.39565 0.0
C865 C 0.84202 0.56032 0.4038 0.0
C866 C 0.90493 0.54024 0.39846 0.0
C867 C 0.87769 0.49651 0.40888 0.0
C868 C 0.83412 0.48707 0.41811 0.0
C869 C 0.81672 0.51908 0.41577 0.0
C870 C 0.88318 0.38337 0.42048 0.0
C871 C 0.89957 0.37556 0.40199 0.0
C872 C 0.87928 0.42455 0.42338 0.0
C873 C 0.891 0.45824 0.40772 0.0
C874 C 0.91043 0.45175 0.38975 0.0
C875 C 0.91507 0.41114 0.38699 0.0
H876 H 0.06659 0.6765 0.61277 0.0
H877 H 0.1911 0.70345 0.57759 0.0
H878 H 0.03009 0.59039 0.60632 0.0
H879 H 0.15674 0.61707 0.57232 0.0
H880 H 0.0916 0.46193 0.5637 0.0
H881 H 0.10045 0.54166 0.55949 0.0
H882 H 0.04471 0.53251 0.61976 0.0
H883 H 0.0335 0.45256 0.6234 0.0
C884 C 0.08602 0.66369 0.60362 0.0
C885 C 0.13187 0.69596 0.59596 0.0
C886 C 0.06528 0.61447 0.59996 0.0
C887 C 0.09081 0.59649 0.58917 0.0
C888 C 0.13564 0.62942 0.58051 0.0
C889 C 0.15572 0.67888 0.58369 0.0
C890 C 0.08003 0.47661 0.57578 0.0
C891 C 0.06276 0.45149 0.59403 0.0
C892 C 0.08541 0.52241 0.57344 0.0
C893 C 0.07441 0.54415 0.58943 0.0
C894 C 0.05326 0.51707 0.60699 0.0
C895 C 0.04708 0.47107 0.60917 0.0
H896 H 0.41408 0.949 0.90602 0.0
H897 H 0.3932 0.89533 0.84507 0.0
H898 H 0.48223 0.93439 0.90988 0.0
H899 H 0.45946 0.8799 0.84881 0.0
H900 H 0.57999 0.85698 0.85496 0.0
H901 H 0.54186 0.90642 0.8533 0.0
H902 H 0.48402 0.85936 0.91321 0.0
H903 H 0.52536 0.81224 0.91523 0.0
C904 C 0.42528 0.93579 0.89327 0.0
C905 C 0.3986 0.92297 0.8753 0.0
C906 C 0.46373 0.92686 0.89552 0.0
C907 C 0.47599 0.90549 0.87975 0.0
C908 C 0.45165 0.89689 0.86123 0.0
C909 C 0.4134 0.9055 0.85907 0.0
C910 C 0.55956 0.8578 0.86785 0.0
C911 C 0.5542 0.83 0.885 0.0
C912 C 0.53788 0.88616 0.86694 0.0
C913 C 0.509 0.88603 0.88293 0.0
C914 C 0.50624 0.86051 0.90067 0.0
C915 C 0.52924 0.83304 0.90177 0.0
H916 H 0.53513 0.56464 0.60887 0.0
H917 H 0.4929 0.64882 0.5719 0.0
H918 H 0.45478 0.49481 0.60496 0.0
H919 H 0.41238 0.57974 0.56867 0.0
H920 H 0.26715 0.4446 0.56551 0.0
H921 H 0.35345 0.49735 0.55901 0.0
H922 H 0.38394 0.48621 0.62163 0.0
H923 H 0.29917 0.43355 0.62799 0.0
C924 C 0.50906 0.568 0.5996 0.0
C925 C 0.51988 0.61256 0.5912 0.0
C926 C 0.46304 0.52807 0.59739 0.0
C927 C 0.42694 0.53224 0.58699 0.0
C928 C 0.43934 0.57533 0.57679 0.0
C929 C 0.48552 0.61511 0.5788 0.0
C930 C 0.29247 0.45322 0.5778 0.0
C931 C 0.27624 0.43527 0.5973 0.0
C932 C 0.34179 0.48325 0.57406 0.0
C933 C 0.37553 0.49553 0.58975 0.0
C934 C 0.35915 0.47657 0.60907 0.0
C935 C 0.31024 0.44684 0.61279 0.0
H936 H 0.19883 0.70189 0.86308 0.0
H937 H 0.10893 0.7049 0.91118 0.0
H938 H 0.15135 0.61463 0.86232 0.0
H939 H 0.06107 0.61669 0.91028 0.0
H940 H 0.04478 0.45655 0.91213 0.0
H941 H 0.07242 0.54266 0.91625 0.0
H942 H 0.06565 0.55657 0.85175 0.0
H943 H 0.03941 0.4712 0.84773 0.0
C944 C 0.16919 0.68398 0.87361 0.0
C945 C 0.15744 0.71044 0.88705 0.0
C946 C 0.14163 0.63398 0.87301 0.0
C947 C 0.10174 0.60918 0.88585 0.0
C948 C 0.09134 0.63516 0.90007 0.0
C949 C 0.1189 0.68552 0.90062 0.0
C950 C 0.04696 0.47772 0.89901 0.0
C951 C 0.04013 0.45785 0.87963 0.0
C952 C 0.06303 0.52691 0.90133 0.0
C953 C 0.07229 0.55622 0.88425 0.0
C954 C 0.05972 0.53479 0.8651 0.0
C955 C 0.04417 0.48599 0.8628 0.0
H956 H 0.33906 0.8495 0.57128 0.0
H957 H 0.40952 0.96462 0.61481 0.0
H958 H 0.41053 0.84154 0.56964 0.0
H959 H 0.48188 0.95762 0.61261 0.0
H960 H 0.54657 0.83477 0.5698 0.0
H961 H 0.49544 0.87007 0.56321 0.0
H962 H 0.48885 0.892 0.62715 0.0
H963 H 0.54025 0.85809 0.63369 0.0
C964 C 0.37035 0.87421 0.58002 0.0
C965 C 0.36812 0.9066 0.59369 0.0
C966 C 0.41156 0.86988 0.57894 0.0
C967 C 0.45133 0.89817 0.59138 0.0
C968 C 0.45116 0.93449 0.60324 0.0
C969 C 0.40978 0.93854 0.60447 0.0
C970 C 0.53452 0.8476 0.5824 0.0
C971 C 0.5469 0.84303 0.60229 0.0
C972 C 0.50543 0.86791 0.57861 0.0
C973 C 0.48836 0.88404 0.59463 0.0
C974 C 0.5022 0.88091 0.61441 0.0
C975 C 0.53114 0.86072 0.61819 0.0
H976 H 0.50773 0.55544 0.90623 0.0
H977 H 0.48238 0.58828 0.84596 0.0
H978 H 0.42327 0.49006 0.90821 0.0
H979 H 0.3991 0.52548 0.84795 0.0
H980 H 0.25305 0.40614 0.85057 0.0
H981 H 0.34046 0.44493 0.84951 0.0
H982 H 0.3475 0.48845 0.91173 0.0
H983 H 0.25911 0.44597 0.91306 0.0
C984 C 0.48447 0.54754 0.89323 0.0
C985 C 0.50104 0.57662 0.87598 0.0
C986 C 0.4361 0.51075 0.89443 0.0
C987 C 0.40415 0.50277 0.87834 0.0
C988 C 0.42241 0.5298 0.86057 0.0
C989 C 0.47023 0.56613 0.85941 0.0
C990 C 0.2734 0.42396 0.86402 0.0
C991 C 0.24978 0.42451 0.88172 0.0
C992 C 0.32345 0.44604 0.86346 0.0
C993 C 0.35119 0.47072 0.88041 0.0
C994 C 0.32732 0.46947 0.89844 0.0
C995 C 0.27685 0.44591 0.89915 0.0
loop_
_geom_bond_atom_site_label_1
_geom_bond_atom_site_label_2
_geom_bond_distance
_geom_bond_site_symmetry_2
_ccdc_geom_bond_type
O0 Zn1 1.953 . S
O0 C16 1.225 . S
Zn1 O0 1.953 . S
Zn1 O2 1.949 . S
Zn1 O8 1.919 . S
Zn1 O13 1.924 . S
O2 Zn1 1.949 . S
O2 Zn3 1.923 . S
O2 Zn4 1.950 . S
O2 Zn5 1.945 . S
Zn3 O2 1.923 . S
Zn3 O6 1.933 1_545 S
Zn3 O9 1.941 . S
Zn3 O10 1.965 . S
Zn4 O2 1.950 . S
Zn4 O11 1.938 . S
Zn4 O12 1.906 . S
Zn4 O22 1.953 . S
Zn5 O2 1.945 . S
Zn5 O7 1.932 . S
Zn5 O14 1.977 . S
Zn5 O15 1.910 . S
O6 Zn3 1.933 1_565 S
O6 C17 1.226 . S
O7 Zn5 1.932 . S
O7 C17 1.307 1_545 S
O8 Zn1 1.919 . S
O8 C19 1.253 . S
O9 Zn3 1.941 . S
O9 C19 1.283 . S
O10 Zn3 1.965 . S
O10 C18 1.303 . S
O11 Zn4 1.938 . S
O11 C18 1.247 . S
O12 Zn4 1.906 . S
O12 C20 1.304 . S
O13 Zn1 1.924 . S
O13 C21 1.311 . S
O14 Zn5 1.977 . S
O14 C20 1.272 . S
O15 Zn5 1.910 . S
O15 C21 1.231 . S
C16 O0 1.225 . S
C16 O22 1.298 . S
C17 O6 1.226 . S
C17 O7 1.307 1_565 S
C18 O10 1.303 . S
C18 O11 1.247 . S
C19 O8 1.253 . S
C19 O9 1.283 . S
C20 O12 1.304 . S
C20 O14 1.272 . S
C21 O13 1.311 . S
C21 O15 1.231 . S
O22 Zn4 1.953 . S
O22 C16 1.298 . S
O23 Zn24 1.953 . S
O23 C39 1.225 . S
Zn24 O23 1.953 . S
Zn24 O25 1.949 . S
Zn24 O31 1.919 . S
Zn24 O36 1.924 . S
O25 Zn24 1.949 . S
O25 Zn26 1.923 . S
O25 Zn27 1.950 . S
O25 Zn28 1.945 . S
Zn26 O25 1.923 . S
Zn26 O29 1.933 . S
Zn26 O32 1.941 . S
Zn26 O33 1.965 . S
Zn27 O25 1.950 . S
Zn27 O34 1.938 . S
Zn27 O35 1.906 . S
Zn27 O45 1.953 . S
Zn28 O25 1.945 . S
Zn28 O30 1.932 . S
Zn28 O37 1.977 . S
Zn28 O38 1.910 . S
O29 Zn26 1.933 . S
O29 C40 1.226 . S
O30 Zn28 1.932 . S
O30 C40 1.307 . S
O31 Zn24 1.919 . S
O31 C42 1.253 . S
O32 Zn26 1.941 . S
O32 C42 1.283 . S
O33 Zn26 1.965 . S
O33 C41 1.303 . S
O34 Zn27 1.938 . S
O34 C41 1.247 . S
O35 Zn27 1.906 . S
O35 C43 1.304 . S
O36 Zn24 1.924 . S
O36 C44 1.311 . S
O37 Zn28 1.977 . S
O37 C43 1.272 . S
O38 Zn28 1.910 . S
O38 C44 1.231 . S
C39 O23 1.225 . S
C39 O45 1.298 . S
C40 O29 1.226 . S
C40 O30 1.307 . S
C41 O33 1.303 . S
C41 O34 1.247 . S
C42 O31 1.253 . S
C42 O32 1.283 . S
C43 O35 1.304 . S
C43 O37 1.272 . S
C44 O36 1.311 . S
C44 O38 1.231 . S
O45 Zn27 1.953 . S
O45 C39 1.298 . S
O46 Zn47 1.953 . S
O46 C62 1.225 . S
Zn47 O46 1.953 . S
Zn47 O48 1.949 . S
Zn47 O54 1.919 . S
Zn47 O59 1.924 . S
O48 Zn47 1.949 . S
O48 Zn49 1.923 . S
O48 Zn50 1.950 . S
O48 Zn51 1.945 . S
Zn49 O48 1.923 . S
Zn49 O52 1.933 1_655 S
Zn49 O55 1.941 . S
Zn49 O56 1.965 . S
Zn50 O48 1.950 . S
Zn50 O57 1.938 . S
Zn50 O58 1.906 . S
Zn50 O68 1.953 . S
Zn51 O48 1.945 . S
Zn51 O53 1.932 . S
Zn51 O60 1.977 . S
Zn51 O61 1.910 . S
O52 Zn49 1.933 1_455 S
O52 C63 1.226 . S
O53 Zn51 1.932 . S
O53 C63 1.307 1_655 S
O54 Zn47 1.919 . S
O54 C65 1.253 . S
O55 Zn49 1.941 . S
O55 C65 1.283 . S
O56 Zn49 1.965 . S
O56 C64 1.303 . S
O57 Zn50 1.938 . S
O57 C64 1.247 . S
O58 Zn50 1.906 . S
O58 C66 1.304 . S
O59 Zn47 1.924 . S
O59 C67 1.311 . S
O60 Zn51 1.977 . S
O60 C66 1.272 . S
O61 Zn51 1.910 . S
O61 C67 1.231 . S
C62 O46 1.225 . S
C62 O68 1.298 . S
C63 O52 1.226 . S
C63 O53 1.307 1_455 S
C64 O56 1.303 . S
C64 O57 1.247 . S
C65 O54 1.253 . S
C65 O55 1.283 . S
C66 O58 1.304 . S
C66 O60 1.272 . S
C67 O59 1.311 . S
C67 O61 1.231 . S
O68 Zn50 1.953 . S
O68 C62 1.298 . S
O69 Zn70 1.953 . S
O69 C85 1.225 . S
Zn70 O69 1.953 . S
Zn70 O71 1.949 . S
Zn70 O77 1.919 . S
Zn70 O82 1.924 . S
O71 Zn70 1.949 . S
O71 Zn72 1.923 . S
O71 Zn73 1.950 . S
O71 Zn74 1.945 . S
Zn72 O71 1.923 . S
Zn72 O75 1.933 1_545 S
Zn72 O78 1.941 . S
Zn72 O79 1.965 . S
Zn73 O71 1.950 . S
Zn73 O80 1.938 . S
Zn73 O81 1.906 . S
Zn73 O91 1.953 . S
Zn74 O71 1.945 . S
Zn74 O76 1.932 . S
Zn74 O83 1.977 . S
Zn74 O84 1.910 . S
O75 Zn72 1.933 1_565 S
O75 C86 1.226 . S
O76 Zn74 1.932 . S
O76 C86 1.307 1_545 S
O77 Zn70 1.919 . S
O77 C88 1.253 . S
O78 Zn72 1.941 . S
O78 C88 1.283 . S
O79 Zn72 1.965 . S
O79 C87 1.303 . S
O80 Zn73 1.938 . S
O80 C87 1.247 . S
O81 Zn73 1.906 . S
O81 C89 1.304 . S
O82 Zn70 1.924 . S
O82 C90 1.311 . S
O83 Zn74 1.977 . S
O83 C89 1.272 . S
O84 Zn74 1.910 . S
O84 C90 1.231 . S
C85 O69 1.225 . S
C85 O91 1.298 . S
C86 O75 1.226 . S
C86 O76 1.307 1_565 S
C87 O79 1.303 . S
C87 O80 1.247 . S
C88 O77 1.253 . S
C88 O78 1.283 . S
C89 O81 1.304 . S
C89 O83 1.272 . S
C90 O82 1.311 . S
C90 O84 1.231 . S
O91 Zn73 1.953 . S
O91 C85 1.298 . S
O92 Zn93 1.953 . S
O92 C108 1.225 . S
Zn93 O92 1.953 . S
Zn93 O94 1.949 . S
Zn93 O100 1.919 . S
Zn93 O105 1.924 . S
O94 Zn93 1.949 . S
O94 Zn95 1.923 . S
O94 Zn96 1.950 . S
O94 Zn97 1.945 . S
Zn95 O94 1.923 . S
Zn95 O98 1.933 . S
Zn95 O101 1.941 . S
Zn95 O102 1.965 . S
Zn96 O94 1.950 . S
Zn96 O103 1.938 . S
Zn96 O104 1.906 . S
Zn96 O114 1.953 . S
Zn97 O94 1.945 . S
Zn97 O99 1.932 . S
Zn97 O106 1.977 . S
Zn97 O107 1.910 . S
O98 Zn95 1.933 . S
O98 C109 1.226 . S
O99 Zn97 1.932 . S
O99 C109 1.307 . S
O100 Zn93 1.919 . S
O100 C111 1.253 . S
O101 Zn95 1.941 . S
O101 C111 1.283 . S
O102 Zn95 1.965 . S
O102 C110 1.303 . S
O103 Zn96 1.938 . S
O103 C110 1.247 . S
O104 Zn96 1.906 . S
O104 C112 1.304 . S
O105 Zn93 1.924 . S
O105 C113 1.311 . S
O106 Zn97 1.977 . S
O106 C112 1.272 . S
O107 Zn97 1.910 . S
O107 C113 1.231 . S
C108 O92 1.225 . S
C108 O114 1.298 . S
C109 O98 1.226 . S
C109 O99 1.307 . S
C110 O102 1.303 . S
C110 O103 1.247 . S
C111 O100 1.253 . S
C111 O101 1.283 . S
C112 O104 1.304 . S
C112 O106 1.272 . S
C113 O105 1.311 . S
C113 O107 1.231 . S
O114 Zn96 1.953 . S
O114 C108 1.298 . S
O115 Zn116 1.953 . S
O115 C131 1.225 . S
Zn116 O115 1.953 . S
Zn116 O117 1.949 . S
Zn116 O123 1.919 . S
Zn116 O128 1.924 . S
O117 Zn116 1.949 . S
O117 Zn118 1.923 . S
O117 Zn119 1.950 . S
O117 Zn120 1.945 . S
Zn118 O117 1.923 . S
Zn118 O121 1.933 1_655 S
Zn118 O124 1.941 . S
Zn118 O125 1.965 . S
Zn119 O117 1.950 . S
Zn119 O126 1.938 . S
Zn119 O127 1.906 . S
Zn119 O137 1.953 . S
Zn120 O117 1.945 . S
Zn120 O122 1.932 . S
Zn120 O129 1.977 . S
Zn120 O130 1.910 . S
O121 Zn118 1.933 1_455 S
O121 C132 1.226 . S
O122 Zn120 1.932 . S
O122 C132 1.307 1_655 S
O123 Zn116 1.919 . S
O123 C134 1.253 . S
O124 Zn118 1.941 . S
O124 C134 1.283 . S
O125 Zn118 1.965 . S
O125 C133 1.303 . S
O126 Zn119 1.938 . S
O126 C133 1.247 . S
O127 Zn119 1.906 . S
O127 C135 1.304 . S
O128 Zn116 1.924 . S
O128 C136 1.311 . S
O129 Zn120 1.977 . S
O129 C135 1.272 . S
O130 Zn120 1.910 . S
O130 C136 1.231 . S
C131 O115 1.225 . S
C131 O137 1.298 . S
C132 O121 1.226 . S
C132 O122 1.307 1_455 S
C133 O125 1.303 . S
C133 O126 1.247 . S
C134 O123 1.253 . S
C134 O124 1.283 . S
C135 O127 1.304 . S
C135 O129 1.272 . S
C136 O128 1.311 . S
C136 O130 1.231 . S
O137 Zn119 1.953 . S
O137 C131 1.298 . S
O138 Zn139 1.953 . S
O138 C154 1.225 . S
Zn139 O138 1.953 . S
Zn139 O140 1.949 . S
Zn139 O146 1.919 . S
Zn139 O151 1.924 . S
O140 Zn139 1.949 . S
O140 Zn141 1.923 . S
O140 Zn142 1.950 . S
O140 Zn143 1.945 . S
Zn141 O140 1.923 . S
Zn141 O144 1.933 1_455 S
Zn141 O147 1.941 . S
Zn141 O148 1.965 . S
Zn142 O140 1.950 . S
Zn142 O149 1.938 . S
Zn142 O150 1.906 . S
Zn142 O160 1.953 . S
Zn143 O140 1.945 . S
Zn143 O145 1.932 . S
Zn143 O152 1.977 . S
Zn143 O153 1.910 . S
O144 Zn141 1.933 1_655 S
O144 C155 1.226 . S
O145 Zn143 1.932 . S
O145 C155 1.307 1_455 S
O146 Zn139 1.919 . S
O146 C157 1.253 . S
O147 Zn141 1.941 . S
O147 C157 1.283 . S
O148 Zn141 1.965 . S
O148 C156 1.303 . S
O149 Zn142 1.938 . S
O149 C156 1.247 . S
O150 Zn142 1.906 . S
O150 C158 1.304 . S
O151 Zn139 1.924 . S
O151 C159 1.311 . S
O152 Zn143 1.977 . S
O152 C158 1.272 . S
O153 Zn143 1.910 . S
O153 C159 1.231 . S
C154 O138 1.225 . S
C154 O160 1.298 . S
C155 O144 1.226 . S
C155 O145 1.307 1_655 S
C156 O148 1.303 . S
C156 O149 1.247 . S
C157 O146 1.253 . S
C157 O147 1.283 . S
C158 O150 1.304 . S
C158 O152 1.272 . S
C159 O151 1.311 . S
C159 O153 1.231 . S
O160 Zn142 1.953 . S
O160 C154 1.298 . S
O161 Zn162 1.953 . S
O161 C177 1.225 . S
Zn162 O161 1.953 . S
Zn162 O163 1.949 . S
Zn162 O169 1.919 . S
Zn162 O174 1.924 . S
O163 Zn162 1.949 . S
O163 Zn164 1.923 . S
O163 Zn165 1.950 . S
O163 Zn166 1.945 . S
Zn164 O163 1.923 . S
Zn164 O167 1.933 1_565 S
Zn164 O170 1.941 . S
Zn164 O171 1.965 . S
Zn165 O163 1.950 . S
Zn165 O172 1.938 . S
Zn165 O173 1.906 . S
Zn165 O183 1.953 . S
Zn166 O163 1.945 . S
Zn166 O168 1.932 . S
Zn166 O175 1.977 . S
Zn166 O176 1.910 . S
O167 Zn164 1.933 1_545 S
O167 C178 1.226 . S
O168 Zn166 1.932 . S
O168 C178 1.307 1_565 S
O169 Zn162 1.919 . S
O169 C180 1.253 . S
O170 Zn164 1.941 . S
O170 C180 1.283 . S
O171 Zn164 1.965 . S
O171 C179 1.303 . S
O172 Zn165 1.938 . S
O172 C179 1.247 . S
O173 Zn165 1.906 . S
O173 C181 1.304 . S
O174 Zn162 1.924 . S
O174 C182 1.311 . S
O175 Zn166 1.977 . S
O175 C181 1.272 . S
O176 Zn166 1.910 . S
O176 C182 1.231 . S
C177 O161 1.225 . S
C177 O183 1.298 . S
C178 O167 1.226 . S
C178 O168 1.307 1_545 S
C179 O171 1.303 . S
C179 O172 1.247 . S
C180 O169 1.253 . S
C180 O170 1.283 . S
C181 O173 1.304 . S
C181 O175 1.272 . S
C182 O174 1.311 . S
C182 O176 1.231 . S
O183 Zn165 1.953 . S
O183 C177 1.298 . S
O184 Zn185 1.953 . S
O184 C200 1.225 . S
Zn185 O184 1.953 . S
Zn185 O186 1.949 . S
Zn185 O192 1.919 . S
Zn185 O197 1.924 . S
O186 Zn185 1.949 . S
O186 Zn187 1.923 . S
O186 Zn188 1.950 . S
O186 Zn189 1.945 . S
Zn187 O186 1.923 . S
Zn187 O190 1.933 . S
Zn187 O193 1.941 . S
Zn187 O194 1.965 . S
Zn188 O186 1.950 . S
Zn188 O195 1.938 . S
Zn188 O196 1.906 . S
Zn188 O206 1.953 . S
Zn189 O186 1.945 . S
Zn189 O191 1.932 . S
Zn189 O198 1.977 . S
Zn189 O199 1.910 . S
O190 Zn187 1.933 . S
O190 C201 1.226 . S
O191 Zn189 1.932 . S
O191 C201 1.307 . S
O192 Zn185 1.919 . S
O192 C203 1.253 . S
O193 Zn187 1.941 . S
O193 C203 1.283 . S
O194 Zn187 1.965 . S
O194 C202 1.303 . S
O195 Zn188 1.938 . S
O195 C202 1.247 . S
O196 Zn188 1.906 . S
O196 C204 1.304 . S
O197 Zn185 1.924 . S
O197 C205 1.311 . S
O198 Zn189 1.977 . S
O198 C204 1.272 . S
O199 Zn189 1.910 . S
O199 C205 1.231 . S
C200 O184 1.225 . S
C200 O206 1.298 . S
C201 O190 1.226 . S
C201 O191 1.307 . S
C202 O194 1.303 . S
C202 O195 1.247 . S
C203 O192 1.253 . S
C203 O193 1.283 . S
C204 O196 1.304 . S
C204 O198 1.272 . S
C205 O197 1.311 . S
C205 O199 1.231 . S
O206 Zn188 1.953 . S
O206 C200 1.298 . S
O207 Zn208 1.953 . S
O207 C223 1.225 . S
Zn208 O207 1.953 . S
Zn208 O209 1.949 . S
Zn208 O215 1.919 . S
Zn208 O220 1.924 . S
O209 Zn208 1.949 . S
O209 Zn210 1.923 . S
O209 Zn211 1.950 . S
O209 Zn212 1.945 . S
Zn210 O209 1.923 . S
Zn210 O213 1.933 1_455 S
Zn210 O216 1.941 . S
Zn210 O217 1.965 . S
Zn211 O209 1.950 . S
Zn211 O218 1.938 . S
Zn211 O219 1.906 . S
Zn211 O229 1.953 . S
Zn212 O209 1.945 . S
Zn212 O214 1.932 . S
Zn212 O221 1.977 . S
Zn212 O222 1.910 . S
O213 Zn210 1.933 1_655 S
O213 C224 1.226 . S
O214 Zn212 1.932 . S
O214 C224 1.307 1_455 S
O215 Zn208 1.919 . S
O215 C226 1.253 . S
O216 Zn210 1.941 . S
O216 C226 1.283 . S
O217 Zn210 1.965 . S
O217 C225 1.303 . S
O218 Zn211 1.938 . S
O218 C225 1.247 . S
O219 Zn211 1.906 . S
O219 C227 1.304 . S
O220 Zn208 1.924 . S
O220 C228 1.311 . S
O221 Zn212 1.977 . S
O221 C227 1.272 . S
O222 Zn212 1.910 . S
O222 C228 1.231 . S
C223 O207 1.225 . S
C223 O229 1.298 . S
C224 O213 1.226 . S
C224 O214 1.307 1_655 S
C225 O217 1.303 . S
C225 O218 1.247 . S
C226 O215 1.253 . S
C226 O216 1.283 . S
C227 O219 1.304 . S
C227 O221 1.272 . S
C228 O220 1.311 . S
C228 O222 1.231 . S
O229 Zn211 1.953 . S
O229 C223 1.298 . S
O230 Zn231 1.953 . S
O230 C246 1.225 . S
Zn231 O230 1.953 . S
Zn231 O232 1.949 . S
Zn231 O238 1.919 . S
Zn231 O243 1.924 . S
O232 Zn231 1.949 . S
O232 Zn233 1.923 . S
O232 Zn234 1.950 . S
O232 Zn235 1.945 . S
Zn233 O232 1.923 . S
Zn233 O236 1.933 1_565 S
Zn233 O239 1.941 . S
Zn233 O240 1.965 . S
Zn234 O232 1.950 . S
Zn234 O241 1.938 . S
Zn234 O242 1.906 . S
Zn234 O252 1.953 . S
Zn235 O232 1.945 . S
Zn235 O237 1.932 . S
Zn235 O244 1.977 . S
Zn235 O245 1.910 . S
O236 Zn233 1.933 1_545 S
O236 C247 1.226 . S
O237 Zn235 1.932 . S
O237 C247 1.307 1_565 S
O238 Zn231 1.919 . S
O238 C249 1.253 . S
O239 Zn233 1.941 . S
O239 C249 1.283 . S
O240 Zn233 1.965 . S
O240 C248 1.303 . S
O241 Zn234 1.938 . S
O241 C248 1.247 . S
O242 Zn234 1.906 . S
O242 C250 1.304 . S
O243 Zn231 1.924 . S
O243 C251 1.311 . S
O244 Zn235 1.977 . S
O244 C250 1.272 . S
O245 Zn235 1.910 . S
O245 C251 1.231 . S
C246 O230 1.225 . S
C246 O252 1.298 . S
C247 O236 1.226 . S
C247 O237 1.307 1_545 S
C248 O240 1.303 . S
C248 O241 1.247 . S
C249 O238 1.253 . S
C249 O239 1.283 . S
C250 O242 1.304 . S
C250 O244 1.272 . S
C251 O243 1.311 . S
C251 O245 1.231 . S
O252 Zn234 1.953 . S
O252 C246 1.298 . S
O253 Zn254 1.953 . S
O253 C269 1.225 . S
Zn254 O253 1.953 . S
Zn254 O255 1.949 . S
Zn254 O261 1.919 . S
Zn254 O266 1.924 . S
O255 Zn254 1.949 . S
O255 Zn256 1.923 . S
O255 Zn257 1.950 . S
O255 Zn258 1.945 . S
Zn256 O255 1.923 . S
Zn256 O259 1.933 . S
Zn256 O262 1.941 . S
Zn256 O263 1.965 . S
Zn257 O255 1.950 . S
Zn257 O264 1.938 . S
Zn257 O265 1.906 . S
Zn257 O275 1.953 . S
Zn258 O255 1.945 . S
Zn258 O260 1.932 . S
Zn258 O267 1.977 . S
Zn258 O268 1.910 . S
O259 Zn256 1.933 . S
O259 C270 1.226 . S
O260 Zn258 1.932 . S
O260 C270 1.307 . S
O261 Zn254 1.919 . S
O261 C272 1.253 . S
O262 Zn256 1.941 . S
O262 C272 1.283 . S
O263 Zn256 1.965 . S
O263 C271 1.303 . S
O264 Zn257 1.938 . S
O264 C271 1.247 . S
O265 Zn257 1.906 . S
O265 C273 1.304 . S
O266 Zn254 1.924 . S
O266 C274 1.311 . S
O267 Zn258 1.977 . S
O267 C273 1.272 . S
O268 Zn258 1.910 . S
O268 C274 1.231 . S
C269 O253 1.225 . S
C269 O275 1.298 . S
C270 O259 1.226 . S
C270 O260 1.307 . S
C271 O263 1.303 . S
C271 O264 1.247 . S
C272 O261 1.253 . S
C272 O262 1.283 . S
C273 O265 1.304 . S
C273 O267 1.272 . S
C274 O266 1.311 . S
C274 O268 1.231 . S
O275 Zn257 1.953 . S
O275 C269 1.298 . S
H276 C284 0.950 . S
H277 C289 0.950 . S
H278 C286 0.950 . S
H279 C288 0.950 . S
H280 C290 0.950 . S
H281 C292 0.950 . S
H282 C294 0.950 . S
H283 C295 0.950 . S
C284 H276 0.950 . S
C284 C285 1.386 . S
C284 C286 1.391 . S
C285 C284 1.386 . S
C285 C289 1.393 . S
C286 H278 0.950 . S
C286 C284 1.391 . S
C286 C287 1.400 . S
C287 C286 1.400 . S
C287 C288 1.398 . S
C287 C293 1.491 . S
C288 H279 0.950 . S
C288 C287 1.398 . S
C288 C289 1.391 . S
C289 H277 0.950 . S
C289 C285 1.393 . S
C289 C288 1.391 . S
C290 H280 0.950 . S
C290 C291 1.386 . S
C290 C292 1.391 . S
C291 C290 1.386 . S
C291 C295 1.393 . S
C292 H281 0.950 . S
C292 C290 1.391 . S
C292 C293 1.400 . S
C293 C287 1.491 . S
C293 C292 1.400 . S
C293 C294 1.398 . S
C294 H282 0.950 . S
C294 C293 1.398 . S
C294 C295 1.391 . S
C295 H283 0.950 . S
C295 C291 1.393 . S
C295 C294 1.391 . S
H296 C304 0.950 . S
H297 C309 0.953 . S
H298 C306 0.950 . S
H299 C308 0.950 . S
H300 C310 0.950 . S
H301 C312 0.950 . S
H302 C314 0.950 . S
H303 C315 0.950 . S
C304 H296 0.950 . S
C304 C305 1.386 . S
C304 C306 1.391 . S
C305 C304 1.386 . S
C305 C309 1.393 . S
C306 H298 0.950 . S
C306 C304 1.391 . S
C306 C307 1.400 . S
C307 C306 1.400 . S
C307 C308 1.398 . S
C307 C313 1.491 . S
C308 H299 0.950 . S
C308 C307 1.398 . S
C308 C309 1.391 . S
C309 H297 0.953 . S
C309 C305 1.393 . S
C309 C308 1.391 . S
C310 H300 0.950 . S
C310 C311 1.386 . S
C310 C312 1.391 1_655 S
C311 C310 1.386 . S
C311 C315 1.393 . S
C312 H301 0.950 . S
C312 C310 1.391 1_455 S
C312 C313 1.400 . S
C313 C307 1.491 . S
C313 C312 1.400 . S
C313 C314 1.398 . S
C314 H302 0.950 . S
C314 C313 1.398 . S
C314 C315 1.391 1_455 S
C315 H303 0.950 . S
C315 C311 1.393 . S
C315 C314 1.391 1_655 S
H316 C324 0.950 . S
H317 C329 0.950 . S
H318 C326 0.950 . S
H319 C328 0.950 . S
H320 C330 0.950 . S
H321 C332 0.950 . S
H322 C334 0.950 . S
H323 C335 0.950 . S
C324 H316 0.950 . S
C324 C325 1.386 . S
C324 C326 1.391 1_545 S
C325 C324 1.386 . S
C325 C329 1.393 . S
C326 H318 0.950 . S
C326 C324 1.391 1_565 S
C326 C327 1.400 . S
C327 C326 1.400 . S
C327 C328 1.398 . S
C327 C333 1.491 . S
C328 H319 0.950 . S
C328 C327 1.398 . S
C328 C329 1.391 1_565 S
C329 H317 0.950 . S
C329 C325 1.393 . S
C329 C328 1.391 1_545 S
C330 H320 0.950 . S
C330 C331 1.386 . S
C330 C332 1.391 . S
C331 C330 1.386 . S
C331 C335 1.393 . S
C332 H321 0.950 . S
C332 C330 1.391 . S
C332 C333 1.400 . S
C333 C327 1.491 . S
C333 C332 1.400 . S
C333 C334 1.398 . S
C334 H322 0.950 . S
C334 C333 1.398 . S
C334 C335 1.391 . S
C335 H323 0.950 . S
C335 C331 1.393 . S
C335 C334 1.391 . S
H336 C344 0.950 . S
H337 C349 0.950 . S
H338 C346 0.950 . S
H339 C348 0.950 . S
H340 C350 0.950 . S
H341 C352 0.950 . S
H342 C354 0.950 . S
H343 C355 0.950 . S
C344 H336 0.950 . S
C344 C345 1.386 . S
C344 C346 1.391 . S
C345 C344 1.386 . S
C345 C349 1.393 . S
C346 H338 0.950 . S
C346 C344 1.391 . S
C346 C347 1.400 . S
C347 C346 1.400 . S
C347 C348 1.398 . S
C347 C353 1.491 . S
C348 H339 0.950 . S
C348 C347 1.398 . S
C348 C349 1.391 . S
C349 H337 0.950 . S
C349 C345 1.393 . S
C349 C348 1.391 . S
C350 H340 0.950 . S
C350 C351 1.386 . S
C350 C352 1.391 . S
C351 C350 1.386 . S
C351 C355 1.393 . S
C352 H341 0.950 . S
C352 C350 1.391 . S
C352 C353 1.400 . S
C353 C347 1.491 . S
C353 C352 1.400 . S
C353 C354 1.398 . S
C354 H342 0.950 . S
C354 C353 1.398 . S
C354 C355 1.391 . S
C355 H343 0.950 . S
C355 C351 1.393 . S
C355 C354 1.391 . S
H356 C364 0.973 . S
H357 C369 0.950 . S
H358 C366 0.950 . S
H359 C368 0.950 . S
H360 C370 0.950 . S
H361 C372 0.950 . S
H362 C374 0.950 . S
H363 C375 0.950 . S
C364 H356 0.973 . S
C364 C365 1.386 . S
C364 C366 1.391 . S
C365 C364 1.386 . S
C365 C369 1.393 . S
C366 H358 0.950 . S
C366 C364 1.391 . S
C366 C367 1.400 . S
C367 C366 1.400 . S
C367 C368 1.398 . S
C367 C373 1.491 . S
C368 H359 0.950 . S
C368 C367 1.398 . S
C368 C369 1.391 . S
C369 H357 0.950 . S
C369 C365 1.393 . S
C369 C368 1.391 . S
C370 H360 0.950 . S
C370 C371 1.386 . S
C370 C372 1.391 1_655 S
C371 C370 1.386 . S
C371 C375 1.393 . S
C372 H361 0.950 . S
C372 C370 1.391 1_455 S
C372 C373 1.400 . S
C373 C367 1.491 . S
C373 C372 1.400 . S
C373 C374 1.398 . S
C374 H362 0.950 . S
C374 C373 1.398 . S
C374 C375 1.391 1_455 S
C375 H363 0.950 . S
C375 C371 1.393 . S
C375 C374 1.391 1_655 S
H376 C384 0.950 . S
H377 C389 0.950 . S
H378 C386 0.950 . S
H379 C388 0.950 . S
H380 C390 0.950 . S
H381 C392 0.950 . S
H382 C394 0.950 . S
H383 C395 0.950 . S
C384 H376 0.950 . S
C384 C385 1.386 . S
C384 C386 1.391 . S
C385 C384 1.386 . S
C385 C389 1.393 . S
C386 H378 0.950 . S
C386 C384 1.391 . S
C386 C387 1.400 . S
C387 C386 1.400 . S
C387 C388 1.398 . S
C387 C393 1.491 . S
C388 H379 0.950 . S
C388 C387 1.398 . S
C388 C389 1.391 . S
C389 H377 0.950 . S
C389 C385 1.393 . S
C389 C388 1.391 . S
C390 H380 0.950 . S
C390 C391 1.386 . S
C390 C392 1.391 1_545 S
C391 C390 1.386 . S
C391 C395 1.393 . S
C392 H381 0.950 . S
C392 C390 1.391 1_565 S
C392 C393 1.400 . S
C393 C387 1.491 . S
C393 C392 1.400 . S
C393 C394 1.398 . S
C394 H382 0.950 . S
C394 C393 1.398 . S
C394 C395 1.391 1_565 S
C395 H383 0.950 . S
C395 C391 1.393 . S
C395 C394 1.391 1_545 S
H396 C404 0.950 . S
H397 C409 0.950 . S
H398 C406 0.950 . S
H399 C408 0.950 . S
H400 C410 0.950 . S
H401 C412 0.950 . S
H402 C414 0.950 . S
H403 C415 0.950 . S
C404 H396 0.950 . S
C404 C405 1.386 . S
C404 C406 1.391 . S
C405 C404 1.386 . S
C405 C409 1.393 . S
C406 H398 0.950 . S
C406 C404 1.391 . S
C406 C407 1.400 . S
C407 C406 1.400 . S
C407 C408 1.398 . S
C407 C413 1.491 . S
C408 H399 0.950 . S
C408 C407 1.398 . S
C408 C409 1.391 . S
C409 H397 0.950 . S
C409 C405 1.393 . S
C409 C408 1.391 . S
C410 H400 0.950 . S
C410 C411 1.386 . S
C410 C412 1.391 . S
C411 C410 1.386 . S
C411 C415 1.393 . S
C412 H401 0.950 . S
C412 C410 1.391 . S
C412 C413 1.400 . S
C413 C407 1.491 . S
C413 C412 1.400 . S
C413 C414 1.398 . S
C414 H402 0.950 . S
C414 C413 1.398 . S
C414 C415 1.391 . S
C415 H403 0.950 . S
C415 C411 1.393 . S
C415 C414 1.391 . S
H416 C424 0.950 . S
H417 C429 0.950 . S
H418 C426 0.950 . S
H419 C428 0.950 . S
H420 C430 0.950 . S
H421 C432 0.950 . S
H422 C434 0.950 . S
H423 C435 0.950 . S
C424 H416 0.950 . S
C424 C425 1.386 . S
C424 C426 1.391 1_455 S
C425 C424 1.386 . S
C425 C429 1.393 . S
C426 H418 0.950 . S
C426 C424 1.391 1_655 S
C426 C427 1.400 . S
C427 C426 1.400 . S
C427 C428 1.398 . S
C427 C433 1.491 . S
C428 H419 0.950 . S
C428 C427 1.398 . S
C428 C429 1.391 1_655 S
C429 H417 0.950 . S
C429 C425 1.393 . S
C429 C428 1.391 1_455 S
C430 H420 0.950 . S
C430 C431 1.386 . S
C430 C432 1.391 . S
C431 C430 1.386 . S
C431 C435 1.393 . S
C432 H421 0.950 . S
C432 C430 1.391 . S
C432 C433 1.400 . S
C433 C427 1.491 . S
C433 C432 1.400 . S
C433 C434 1.398 . S
C434 H422 0.950 . S
C434 C433 1.398 . S
C434 C435 1.391 . S
C435 H423 0.950 . S
C435 C431 1.393 . S
C435 C434 1.391 . S
H436 C444 0.950 . S
H437 C449 0.950 . S
H438 C446 0.950 . S
H439 C448 0.950 . S
H440 C450 0.944 1_455 S
H441 C452 0.950 . S
H442 C454 0.950 . S
H443 C455 0.950 . S
C444 H436 0.950 . S
C444 C445 1.386 . S
C444 C446 1.391 1_565 S
C445 C444 1.386 . S
C445 C449 1.393 . S
C446 H438 0.950 . S
C446 C444 1.391 1_545 S
C446 C447 1.400 . S
C447 C446 1.400 . S
C447 C448 1.398 . S
C447 C453 1.491 . S
C448 H439 0.950 . S
C448 C447 1.398 . S
C448 C449 1.391 1_545 S
C449 H437 0.950 . S
C449 C445 1.393 . S
C449 C448 1.391 1_565 S
C450 H440 0.944 1_655 S
C450 C451 1.386 . S
C450 C452 1.391 . S
C451 C450 1.386 . S
C451 C455 1.393 . S
C452 H441 0.950 . S
C452 C450 1.391 . S
C452 C453 1.400 . S
C453 C447 1.491 . S
C453 C452 1.400 . S
C453 C454 1.398 . S
C454 H442 0.950 . S
C454 C453 1.398 . S
C454 C455 1.391 . S
C455 H443 0.950 . S
C455 C451 1.393 . S
C455 C454 1.391 . S
H456 C464 0.950 . S
H457 C469 0.950 . S
H458 C466 0.950 . S
H459 C468 0.950 . S
H460 C470 0.950 . S
H461 C472 0.950 . S
H462 C474 0.950 . S
H463 C475 0.950 . S
C464 H456 0.950 . S
C464 C465 1.386 . S
C464 C466 1.391 . S
C465 C464 1.386 . S
C465 C469 1.393 . S
C466 H458 0.950 . S
C466 C464 1.391 . S
C466 C467 1.400 . S
C467 C466 1.400 . S
C467 C468 1.398 . S
C467 C473 1.491 . S
C468 H459 0.950 . S
C468 C467 1.398 . S
C468 C469 1.391 . S
C469 H457 0.950 . S
C469 C465 1.393 . S
C469 C468 1.391 . S
C470 H460 0.950 . S
C470 C471 1.386 . S
C470 C472 1.391 . S
C471 C470 1.386 . S
C471 C475 1.393 . S
C472 H461 0.950 . S
C472 C470 1.391 . S
C472 C473 1.400 . S
C473 C467 1.491 . S
C473 C472 1.400 . S
C473 C474 1.398 . S
C474 H462 0.950 . S
C474 C473 1.398 . S
C474 C475 1.391 . S
C475 H463 0.950 . S
C475 C471 1.393 . S
C475 C474 1.391 . S
H476 C484 0.950 . S
H477 C489 0.950 . S
H478 C486 0.950 . S
H479 C488 0.950 . S
H480 C490 0.950 . S
H481 C492 0.950 . S
H482 C494 0.950 . S
H483 C495 0.950 . S
C484 H476 0.950 . S
C484 C485 1.386 . S
C484 C486 1.391 1_455 S
C485 C484 1.386 . S
C485 C489 1.393 . S
C486 H478 0.950 . S
C486 C484 1.391 1_655 S
C486 C487 1.400 . S
C487 C486 1.400 . S
C487 C488 1.398 . S
C487 C493 1.491 . S
C488 H479 0.950 . S
C488 C487 1.398 . S
C488 C489 1.391 1_655 S
C489 H477 0.950 . S
C489 C485 1.393 . S
C489 C488 1.391 1_455 S
C490 H480 0.950 . S
C490 C491 1.386 . S
C490 C492 1.391 . S
C491 C490 1.386 . S
C491 C495 1.393 . S
C492 H481 0.950 . S
C492 C490 1.391 . S
C492 C493 1.400 . S
C493 C487 1.491 . S
C493 C492 1.400 . S
C493 C494 1.398 . S
C494 H482 0.950 . S
C494 C493 1.398 . S
C494 C495 1.391 . S
C495 H483 0.950 . S
C495 C491 1.393 . S
C495 C494 1.391 . S
H496 C504 0.950 . S
H497 C509 0.950 . S
H498 C506 0.950 . S
H499 C508 0.950 . S
H500 C510 0.950 . S
H501 C512 0.950 . S
H502 C514 0.950 . S
H503 C515 0.950 . S
C504 H496 0.950 . S
C504 C505 1.386 . S
C504 C506 1.391 . S
C505 C504 1.386 . S
C505 C509 1.393 . S
C506 H498 0.950 . S
C506 C504 1.391 . S
C506 C507 1.400 . S
C507 C506 1.400 . S
C507 C508 1.398 . S
C507 C513 1.491 . S
C508 H499 0.950 . S
C508 C507 1.398 . S
C508 C509 1.391 . S
C509 H497 0.950 . S
C509 C505 1.393 . S
C509 C508 1.391 . S
C510 H500 0.950 . S
C510 C511 1.386 . S
C510 C512 1.391 1_565 S
C511 C510 1.386 . S
C511 C515 1.393 . S
C512 H501 0.950 . S
C512 C510 1.391 1_545 S
C512 C513 1.400 . S
C513 C507 1.491 . S
C513 C512 1.400 . S
C513 C514 1.398 . S
C514 H502 0.950 . S
C514 C513 1.398 . S
C514 C515 1.391 1_545 S
C515 H503 0.950 . S
C515 C511 1.393 . S
C515 C514 1.391 1_565 S
H516 C524 0.950 . S
H517 C529 0.950 . S
H518 C526 0.950 . S
H519 C528 0.950 . S
H520 C530 0.950 . S
H521 C532 0.950 . S
H522 C534 0.950 . S
H523 C535 0.950 . S
C524 H516 0.950 . S
C524 C525 1.386 . S
C524 C526 1.391 . S
C525 C524 1.386 . S
C525 C529 1.393 . S
C526 H518 0.950 . S
C526 C524 1.391 . S
C526 C527 1.400 . S
C527 C526 1.400 . S
C527 C528 1.398 . S
C527 C533 1.491 . S
C528 H519 0.950 . S
C528 C527 1.398 . S
C528 C529 1.391 . S
C529 H517 0.950 . S
C529 C525 1.393 . S
C529 C528 1.391 . S
C530 H520 0.950 . S
C530 C531 1.386 . S
C530 C532 1.391 . S
C531 C530 1.386 . S
C531 C535 1.393 . S
C532 H521 0.950 . S
C532 C530 1.391 . S
C532 C533 1.400 . S
C533 C527 1.491 . S
C533 C532 1.400 . S
C533 C534 1.398 . S
C534 H522 0.950 . S
C534 C533 1.398 . S
C534 C535 1.391 . S
C535 H523 0.950 . S
C535 C531 1.393 . S
C535 C534 1.391 . S
H536 C544 0.950 . S
H537 C549 0.950 . S
H538 C546 0.950 . S
H539 C548 0.950 . S
H540 C550 0.950 . S
H541 C552 0.950 . S
H542 C554 0.950 . S
H543 C555 0.950 . S
C544 H536 0.950 . S
C544 C545 1.386 . S
C544 C546 1.391 . S
C545 C544 1.386 . S
C545 C549 1.393 . S
C546 H538 0.950 . S
C546 C544 1.391 . S
C546 C547 1.400 . S
C547 C546 1.400 . S
C547 C548 1.398 . S
C547 C553 1.491 . S
C548 H539 0.950 . S
C548 C547 1.398 . S
C548 C549 1.391 . S
C549 H537 0.950 . S
C549 C545 1.393 . S
C549 C548 1.391 . S
C550 H540 0.950 . S
C550 C551 1.386 . S
C550 C552 1.391 . S
C551 C550 1.386 . S
C551 C555 1.393 . S
C552 H541 0.950 . S
C552 C550 1.391 . S
C552 C553 1.400 . S
C553 C547 1.491 . S
C553 C552 1.400 . S
C553 C554 1.398 . S
C554 H542 0.950 . S
C554 C553 1.398 . S
C554 C555 1.391 . S
C555 H543 0.950 . S
C555 C551 1.393 . S
C555 C554 1.391 . S
H556 C564 0.950 . S
H557 C569 0.950 . S
H558 C566 0.950 . S
H559 C568 0.950 . S
H560 C570 0.950 . S
H561 C572 0.950 . S
H562 C574 0.950 . S
H563 C575 0.950 . S
C564 H556 0.950 . S
C564 C565 1.386 . S
C564 C566 1.391 . S
C565 C564 1.386 . S
C565 C569 1.393 . S
C566 H558 0.950 . S
C566 C564 1.391 . S
C566 C567 1.400 . S
C567 C566 1.400 . S
C567 C568 1.398 . S
C567 C573 1.491 . S
C568 H559 0.950 . S
C568 C567 1.398 . S
C568 C569 1.391 . S
C569 H557 0.950 . S
C569 C565 1.393 . S
C569 C568 1.391 . S
C570 H560 0.950 . S
C570 C571 1.386 . S
C570 C572 1.391 . S
C571 C570 1.386 . S
C571 C575 1.393 . S
C572 H561 0.950 . S
C572 C570 1.391 . S
C572 C573 1.400 . S
C573 C567 1.491 . S
C573 C572 1.400 . S
C573 C574 1.398 . S
C574 H562 0.950 . S
C574 C573 1.398 . S
C574 C575 1.391 . S
C575 H563 0.950 . S
C575 C571 1.393 . S
C575 C574 1.391 . S
H576 C584 0.950 . S
H577 C589 0.950 . S
H578 C586 0.950 . S
H579 C588 0.950 . S
H580 C590 0.950 . S
H581 C592 0.950 . S
H582 C594 0.950 . S
H583 C595 0.950 . S
C584 H576 0.950 . S
C584 C585 1.386 . S
C584 C586 1.391 . S
C585 C584 1.386 . S
C585 C589 1.393 . S
C586 H578 0.950 . S
C586 C584 1.391 . S
C586 C587 1.400 . S
C587 C586 1.400 . S
C587 C588 1.398 . S
C587 C593 1.491 . S
C588 H579 0.950 . S
C588 C587 1.398 . S
C588 C589 1.391 . S
C589 H577 0.950 . S
C589 C585 1.393 . S
C589 C588 1.391 . S
C590 H580 0.950 . S
C590 C591 1.386 . S
C590 C592 1.391 . S
C591 C590 1.386 . S
C591 C595 1.393 . S
C592 H581 0.950 . S
C592 C590 1.391 . S
C592 C593 1.400 . S
C593 C587 1.491 . S
C593 C592 1.400 . S
C593 C594 1.398 . S
C594 H582 0.950 . S
C594 C593 1.398 . S
C594 C595 1.391 . S
C595 H583 0.950 . S
C595 C591 1.393 . S
C595 C594 1.391 . S
H596 C604 0.950 . S
H597 C609 0.950 . S
H598 C606 0.950 . S
H599 C608 0.950 . S
H600 C610 0.950 . S
H601 C612 0.950 . S
H602 C614 0.950 . S
H603 C615 0.950 . S
C604 H596 0.950 . S
C604 C605 1.386 . S
C604 C606 1.391 . S
C605 C604 1.386 . S
C605 C609 1.393 . S
C606 H598 0.950 . S
C606 C604 1.391 . S
C606 C607 1.400 . S
C607 C606 1.400 . S
C607 C608 1.398 . S
C607 C613 1.491 . S
C608 H599 0.950 . S
C608 C607 1.398 . S
C608 C609 1.391 . S
C609 H597 0.950 . S
C609 C605 1.393 . S
C609 C608 1.391 . S
C610 H600 0.950 . S
C610 C611 1.386 . S
C610 C612 1.391 . S
C611 C610 1.386 . S
C611 C615 1.393 . S
C612 H601 0.950 . S
C612 C610 1.391 . S
C612 C613 1.400 . S
C613 C607 1.491 . S
C613 C612 1.400 . S
C613 C614 1.398 . S
C614 H602 0.950 . S
C614 C613 1.398 . S
C614 C615 1.391 . S
C615 H603 0.950 . S
C615 C611 1.393 . S
C615 C614 1.391 . S
H616 C624 0.950 . S
H617 C629 0.950 . S
H618 C626 0.950 . S
H619 C628 0.950 . S
H620 C630 0.950 . S
H621 C632 0.950 . S
H622 C634 0.950 . S
H623 C635 0.950 . S
C624 H616 0.950 . S
C624 C625 1.386 . S
C624 C626 1.391 . S
C625 C624 1.386 . S
C625 C629 1.393 . S
C626 H618 0.950 . S
C626 C624 1.391 . S
C626 C627 1.400 . S
C627 C626 1.400 . S
C627 C628 1.398 . S
C627 C633 1.491 . S
C628 H619 0.950 . S
C628 C627 1.398 . S
C628 C629 1.391 . S
C629 H617 0.950 . S
C629 C625 1.393 . S
C629 C628 1.391 . S
C630 H620 0.950 . S
C630 C631 1.386 . S
C630 C632 1.391 . S
C631 C630 1.386 . S
C631 C635 1.393 . S
C632 H621 0.950 . S
C632 C630 1.391 . S
C632 C633 1.400 . S
C633 C627 1.491 . S
C633 C632 1.400 . S
C633 C634 1.398 . S
C634 H622 0.950 . S
C634 C633 1.398 . S
C634 C635 1.391 . S
C635 H623 0.950 . S
C635 C631 1.393 . S
C635 C634 1.391 . S
H636 C644 0.950 . S
H637 C649 0.950 . S
H638 C646 0.950 . S
H639 C648 0.950 . S
H640 C650 0.950 . S
H641 C652 0.950 . S
H642 C654 0.950 . S
H643 C655 0.950 . S
C644 H636 0.950 . S
C644 C645 1.386 . S
C644 C646 1.391 1_565 S
C645 C644 1.386 . S
C645 C649 1.393 . S
C646 H638 0.950 . S
C646 C644 1.391 1_545 S
C646 C647 1.400 1_545 S
C647 C646 1.400 1_565 S
C647 C648 1.398 . S
C647 C653 1.491 1_566 S
C648 H639 0.950 . S
C648 C647 1.398 . S
C648 C649 1.391 . S
C649 H637 0.950 . S
C649 C645 1.393 . S
C649 C648 1.391 . S
C650 H640 0.950 . S
C650 C651 1.386 . S
C650 C652 1.391 1_545 S
C651 C650 1.386 . S
C651 C655 1.393 . S
C652 H641 0.950 . S
C652 C650 1.391 1_565 S
C652 C653 1.400 1_565 S
C653 C647 1.491 1_544 S
C653 C652 1.400 1_545 S
C653 C654 1.398 . S
C654 H642 0.950 . S
C654 C653 1.398 . S
C654 C655 1.391 . S
C655 H643 0.950 . S
C655 C651 1.393 . S
C655 C654 1.391 . S
H656 C664 0.950 . S
H657 C669 0.950 . S
H658 C666 0.950 . S
H659 C668 0.950 . S
H660 C670 0.950 . S
H661 C672 0.950 . S
H662 C674 0.950 . S
H663 C675 0.950 . S
C664 H656 0.950 . S
C664 C665 1.386 . S
C664 C666 1.391 . S
C665 C664 1.386 . S
C665 C669 1.393 . S
C666 H658 0.950 . S
C666 C664 1.391 . S
C666 C667 1.400 . S
C667 C666 1.400 . S
C667 C668 1.398 . S
C667 C673 1.491 . S
C668 H659 0.950 . S
C668 C667 1.398 . S
C668 C669 1.391 . S
C669 H657 0.950 . S
C669 C665 1.393 . S
C669 C668 1.391 . S
C670 H660 0.950 . S
C670 C671 1.386 . S
C670 C672 1.391 . S
C671 C670 1.386 . S
C671 C675 1.393 . S
C672 H661 0.950 . S
C672 C670 1.391 . S
C672 C673 1.400 . S
C673 C667 1.491 . S
C673 C672 1.400 . S
C673 C674 1.398 . S
C674 H662 0.950 . S
C674 C673 1.398 . S
C674 C675 1.391 . S
C675 H663 0.950 . S
C675 C671 1.393 . S
C675 C674 1.391 . S
H676 C684 0.950 1_655 S
H677 C689 0.950 . S
H678 C686 0.950 . S
H679 C688 0.950 . S
H680 C690 0.950 1_455 S
H681 C692 0.950 . S
H682 C694 0.950 . S
H683 C695 0.950 . S
C684 H676 0.950 1_455 S
C684 C685 1.386 . S
C684 C686 1.391 1_455 S
C685 C684 1.386 . S
C685 C689 1.393 . S
C686 H678 0.950 . S
C686 C684 1.391 1_655 S
C686 C687 1.400 1_655 S
C687 C686 1.400 1_455 S
C687 C688 1.398 . S
C687 C693 1.491 1_456 S
C688 H679 0.950 . S
C688 C687 1.398 . S
C688 C689 1.391 . S
C689 H677 0.950 . S
C689 C685 1.393 . S
C689 C688 1.391 . S
C690 H680 0.950 1_655 S
C690 C691 1.386 . S
C690 C692 1.391 1_655 S
C691 C690 1.386 . S
C691 C695 1.393 . S
C692 H681 0.950 . S
C692 C690 1.391 1_455 S
C692 C693 1.400 1_455 S
C693 C687 1.491 1_654 S
C693 C692 1.400 1_655 S
C693 C694 1.398 . S
C694 H682 0.950 . S
C694 C693 1.398 . S
C694 C695 1.391 . S
C695 H683 0.950 . S
C695 C691 1.393 . S
C695 C694 1.391 . S
H696 C704 0.950 . S
H697 C709 0.950 1_565 S
H698 C706 0.950 . S
H699 C708 0.950 . S
H700 C710 0.950 . S
H701 C712 0.950 . S
H702 C714 0.950 . S
H703 C715 0.950 1_545 S
C704 H696 0.950 . S
C704 C705 1.386 . S
C704 C706 1.391 . S
C705 C704 1.386 . S
C705 C709 1.393 . S
C706 H698 0.950 . S
C706 C704 1.391 . S
C706 C707 1.400 . S
C707 C706 1.400 . S
C707 C708 1.398 1_545 S
C707 C713 1.491 1_545 S
C708 H699 0.950 . S
C708 C707 1.398 1_565 S
C708 C709 1.391 1_565 S
C709 H697 0.950 1_545 S
C709 C705 1.393 . S
C709 C708 1.391 1_545 S
C710 H700 0.950 . S
C710 C711 1.386 . S
C710 C712 1.391 . S
C711 C710 1.386 . S
C711 C715 1.393 . S
C712 H701 0.950 . S
C712 C710 1.391 . S
C712 C713 1.400 . S
C713 C707 1.491 1_565 S
C713 C712 1.400 . S
C713 C714 1.398 1_565 S
C714 H702 0.950 . S
C714 C713 1.398 1_545 S
C714 C715 1.391 1_545 S
C715 H703 0.950 1_565 S
C715 C711 1.393 . S
C715 C714 1.391 1_565 S
H716 C724 0.950 . S
H717 C729 0.950 . S
H718 C726 0.988 . S
H719 C728 0.950 . S
H720 C730 0.950 . S
H721 C732 0.988 . S
H722 C734 0.950 . S
H723 C735 0.950 . S
C724 H716 0.950 . S
C724 C725 1.386 . S
C724 C726 1.391 . S
C725 C724 1.386 . S
C725 C729 1.393 . S
C726 H718 0.988 . S
C726 C724 1.391 . S
C726 C727 1.400 . S
C727 C726 1.400 . S
C727 C728 1.398 . S
C727 C733 1.491 1_554 S
C728 H719 0.950 . S
C728 C727 1.398 . S
C728 C729 1.391 . S
C729 H717 0.950 . S
C729 C725 1.393 . S
C729 C728 1.391 . S
C730 H720 0.950 . S
C730 C731 1.386 . S
C730 C732 1.391 . S
C731 C730 1.386 . S
C731 C735 1.393 . S
C732 H721 0.988 . S
C732 C730 1.391 . S
C732 C733 1.400 . S
C733 C727 1.491 1_556 S
C733 C732 1.400 . S
C733 C734 1.398 . S
C734 H722 0.950 . S
C734 C733 1.398 . S
C734 C735 1.391 . S
C735 H723 0.950 . S
C735 C731 1.393 . S
C735 C734 1.391 . S
H736 C744 0.950 . S
H737 C749 0.950 . S
H738 C746 0.950 . S
H739 C748 0.950 . S
H740 C750 0.950 . S
H741 C752 0.950 . S
H742 C754 0.950 . S
H743 C755 0.950 . S
C744 H736 0.950 . S
C744 C745 1.386 . S
C744 C746 1.391 . S
C745 C744 1.386 . S
C745 C749 1.393 . S
C746 H738 0.950 . S
C746 C744 1.391 . S
C746 C747 1.400 . S
C747 C746 1.400 . S
C747 C748 1.398 . S
C747 C753 1.491 1_455 S
C748 H739 0.950 . S
C748 C747 1.398 . S
C748 C749 1.391 . S
C749 H737 0.950 . S
C749 C745 1.393 . S
C749 C748 1.391 . S
C750 H740 0.950 . S
C750 C751 1.386 . S
C750 C752 1.391 . S
C751 C750 1.386 . S
C751 C755 1.393 . S
C752 H741 0.950 . S
C752 C750 1.391 . S
C752 C753 1.400 . S
C753 C747 1.491 1_655 S
C753 C752 1.400 . S
C753 C754 1.398 . S
C754 H742 0.950 . S
C754 C753 1.398 . S
C754 C755 1.391 . S
C755 H743 0.950 . S
C755 C751 1.393 . S
C755 C754 1.391 . S
H756 C764 0.950 . S
H757 C769 0.950 . S
H758 C766 0.950 . S
H759 C768 0.950 . S
H760 C770 0.950 . S
H761 C772 0.950 . S
H762 C774 0.950 . S
H763 C775 0.950 . S
C764 H756 0.950 . S
C764 C765 1.386 . S
C764 C766 1.391 . S
C765 C764 1.386 . S
C765 C769 1.393 . S
C766 H758 0.950 . S
C766 C764 1.391 . S
C766 C767 1.400 . S
C767 C766 1.400 . S
C767 C768 1.398 . S
C767 C773 1.491 . S
C768 H759 0.950 . S
C768 C767 1.398 . S
C768 C769 1.391 . S
C769 H757 0.950 . S
C769 C765 1.393 . S
C769 C768 1.391 . S
C770 H760 0.950 . S
C770 C771 1.386 . S
C770 C772 1.391 . S
C771 C770 1.386 . S
C771 C775 1.393 . S
C772 H761 0.950 . S
C772 C770 1.391 . S
C772 C773 1.400 . S
C773 C767 1.491 . S
C773 C772 1.400 . S
C773 C774 1.398 . S
C774 H762 0.950 . S
C774 C773 1.398 . S
C774 C775 1.391 . S
C775 H763 0.950 . S
C775 C771 1.393 . S
C775 C774 1.391 . S
H776 C784 0.950 . S
H777 C789 0.950 . S
H778 C786 0.950 . S
H779 C788 0.950 . S
H780 C790 0.950 . S
H781 C792 0.950 . S
H782 C794 0.950 . S
H783 C795 0.950 . S
C784 H776 0.950 . S
C784 C785 1.386 . S
C784 C786 1.391 . S
C785 C784 1.386 . S
C785 C789 1.393 . S
C786 H778 0.950 . S
C786 C784 1.391 . S
C786 C787 1.400 . S
C787 C786 1.400 . S
C787 C788 1.398 . S
C787 C793 1.491 . S
C788 H779 0.950 . S
C788 C787 1.398 . S
C788 C789 1.391 . S
C789 H777 0.950 . S
C789 C785 1.393 . S
C789 C788 1.391 . S
C790 H780 0.950 . S
C790 C791 1.386 . S
C790 C792 1.391 . S
C791 C790 1.386 . S
C791 C795 1.393 . S
C792 H781 0.950 . S
C792 C790 1.391 . S
C792 C793 1.400 . S
C793 C787 1.491 . S
C793 C792 1.400 . S
C793 C794 1.398 . S
C794 H782 0.950 . S
C794 C793 1.398 . S
C794 C795 1.391 . S
C795 H783 0.950 . S
C795 C791 1.393 . S
C795 C794 1.391 . S
H796 C804 0.950 . S
H797 C809 0.950 . S
H798 C806 0.950 . S
H799 C808 0.950 . S
H800 C810 0.950 . S
H801 C812 0.950 . S
H802 C814 0.950 . S
H803 C815 0.950 . S
C804 H796 0.950 . S
C804 C805 1.386 . S
C804 C806 1.391 . S
C805 C804 1.386 . S
C805 C809 1.393 . S
C806 H798 0.950 . S
C806 C804 1.391 . S
C806 C807 1.400 . S
C807 C806 1.400 . S
C807 C808 1.398 . S
C807 C813 1.491 . S
C808 H799 0.950 . S
C808 C807 1.398 . S
C808 C809 1.391 . S
C809 H797 0.950 . S
C809 C805 1.393 . S
C809 C808 1.391 . S
C810 H800 0.950 . S
C810 C811 1.386 . S
C810 C812 1.391 . S
C811 C810 1.386 . S
C811 C815 1.393 . S
C812 H801 0.950 . S
C812 C810 1.391 . S
C812 C813 1.400 . S
C813 C807 1.491 . S
C813 C812 1.400 . S
C813 C814 1.398 . S
C814 H802 0.950 . S
C814 C813 1.398 . S
C814 C815 1.391 . S
C815 H803 0.950 . S
C815 C811 1.393 . S
C815 C814 1.391 . S
H816 C824 0.950 . S
H817 C829 0.950 . S
H818 C826 0.950 . S
H819 C828 0.950 . S
H820 C830 0.950 . S
H821 C832 0.950 . S
H822 C834 0.950 . S
H823 C835 0.950 . S
C824 H816 0.950 . S
C824 C825 1.386 . S
C824 C826 1.391 . S
C825 C824 1.386 . S
C825 C829 1.393 . S
C826 H818 0.950 . S
C826 C824 1.391 . S
C826 C827 1.400 . S
C827 C826 1.400 . S
C827 C828 1.398 . S
C827 C833 1.491 . S
C828 H819 0.950 . S
C828 C827 1.398 . S
C828 C829 1.391 . S
C829 H817 0.950 . S
C829 C825 1.393 . S
C829 C828 1.391 . S
C830 H820 0.950 . S
C830 C831 1.386 . S
C830 C832 1.391 . S
C831 C830 1.386 . S
C831 C835 1.393 . S
C832 H821 0.950 . S
C832 C830 1.391 . S
C832 C833 1.400 . S
C833 C827 1.491 . S
C833 C832 1.400 . S
C833 C834 1.398 . S
C834 H822 0.950 . S
C834 C833 1.398 . S
C834 C835 1.391 . S
C835 H823 0.950 . S
C835 C831 1.393 . S
C835 C834 1.391 . S
H836 C844 0.950 . S
H837 C849 0.950 . S
H838 C846 0.950 . S
H839 C848 0.950 . S
H840 C850 0.950 . S
H841 C852 0.950 . S
H842 C854 0.950 . S
H843 C855 0.950 . S
C844 H836 0.950 . S
C844 C845 1.386 . S
C844 C846 1.391 . S
C845 C844 1.386 . S
C845 C849 1.393 . S
C846 H838 0.950 . S
C846 C844 1.391 . S
C846 C847 1.400 . S
C847 C846 1.400 . S
C847 C848 1.398 . S
C847 C853 1.491 . S
C848 H839 0.950 . S
C848 C847 1.398 . S
C848 C849 1.391 . S
C849 H837 0.950 . S
C849 C845 1.393 . S
C849 C848 1.391 . S
C850 H840 0.950 . S
C850 C851 1.386 . S
C850 C852 1.391 . S
C851 C850 1.386 . S
C851 C855 1.393 . S
C852 H841 0.950 . S
C852 C850 1.391 . S
C852 C853 1.400 . S
C853 C847 1.491 . S
C853 C852 1.400 . S
C853 C854 1.398 . S
C854 H842 0.950 . S
C854 C853 1.398 . S
C854 C855 1.391 . S
C855 H843 0.950 . S
C855 C851 1.393 . S
C855 C854 1.391 . S
H856 C864 0.950 . S
H857 C869 0.950 . S
H858 C866 0.950 . S
H859 C868 0.950 . S
H860 C870 0.950 . S
H861 C872 0.950 . S
H862 C874 0.950 . S
H863 C875 0.950 . S
C864 H856 0.950 . S
C864 C865 1.386 . S
C864 C866 1.391 . S
C865 C864 1.386 . S
C865 C869 1.393 . S
C866 H858 0.950 . S
C866 C864 1.391 . S
C866 C867 1.400 . S
C867 C866 1.400 . S
C867 C868 1.398 . S
C867 C873 1.491 . S
C868 H859 0.950 . S
C868 C867 1.398 . S
C868 C869 1.391 . S
C869 H857 0.950 . S
C869 C865 1.393 . S
C869 C868 1.391 . S
C870 H860 0.950 . S
C870 C871 1.386 . S
C870 C872 1.391 . S
C871 C870 1.386 . S
C871 C875 1.393 . S
C872 H861 0.950 . S
C872 C870 1.391 . S
C872 C873 1.400 . S
C873 C867 1.491 . S
C873 C872 1.400 . S
C873 C874 1.398 . S
C874 H862 0.950 . S
C874 C873 1.398 . S
C874 C875 1.391 . S
C875 H863 0.950 . S
C875 C871 1.393 . S
C875 C874 1.391 . S
H876 C884 0.950 . S
H877 C889 0.950 . S
H878 C886 0.950 . S
H879 C888 0.950 . S
H880 C890 0.950 . S
H881 C892 0.950 . S
H882 C894 0.950 . S
H883 C895 0.950 . S
C884 H876 0.950 . S
C884 C885 1.386 . S
C884 C886 1.391 . S
C885 C884 1.386 . S
C885 C889 1.393 . S
C886 H878 0.950 . S
C886 C884 1.391 . S
C886 C887 1.400 . S
C887 C886 1.400 . S
C887 C888 1.398 . S
C887 C893 1.491 . S
C888 H879 0.950 . S
C888 C887 1.398 . S
C888 C889 1.391 . S
C889 H877 0.950 . S
C889 C885 1.393 . S
C889 C888 1.391 . S
C890 H880 0.950 . S
C890 C891 1.386 . S
C890 C892 1.391 . S
C891 C890 1.386 . S
C891 C895 1.393 . S
C892 H881 0.950 . S
C892 C890 1.391 . S
C892 C893 1.400 . S
C893 C887 1.491 . S
C893 C892 1.400 . S
C893 C894 1.398 . S
C894 H882 0.950 . S
C894 C893 1.398 . S
C894 C895 1.391 . S
C895 H883 0.950 . S
C895 C891 1.393 . S
C895 C894 1.391 . S
H896 C904 0.950 . S
H897 C909 0.950 . S
H898 C906 0.950 . S
H899 C908 0.950 . S
H900 C910 0.950 . S
H901 C912 0.950 . S
H902 C914 0.950 . S
H903 C915 0.950 . S
C904 H896 0.950 . S
C904 C905 1.386 . S
C904 C906 1.391 . S
C905 C904 1.386 . S
C905 C909 1.393 . S
C906 H898 0.950 . S
C906 C904 1.391 . S
C906 C907 1.400 . S
C907 C906 1.400 . S
C907 C908 1.398 . S
C907 C913 1.491 . S
C908 H899 0.950 . S
C908 C907 1.398 . S
C908 C909 1.391 . S
C909 H897 0.950 . S
C909 C905 1.393 . S
C909 C908 1.391 . S
C910 H900 0.950 . S
C910 C911 1.386 . S
C910 C912 1.391 . S
C911 C910 1.386 . S
C911 C915 1.393 . S
C912 H901 0.950 . S
C912 C910 1.391 . S
C912 C913 1.400 . S
C913 C907 1.491 . S
C913 C912 1.400 . S
C913 C914 1.398 . S
C914 H902 0.950 . S
C914 C913 1.398 . S
C914 C915 1.391 . S
C915 H903 0.950 . S
C915 C911 1.393 . S
C915 C914 1.391 . S
H916 C924 0.950 . S
H917 C929 0.950 . S
H918 C926 0.950 . S
H919 C928 0.950 . S
H920 C930 0.950 . S
H921 C932 0.950 . S
H922 C934 0.950 . S
H923 C935 0.950 . S
C924 H916 0.950 . S
C924 C925 1.386 . S
C924 C926 1.391 . S
C925 C924 1.386 . S
C925 C929 1.393 . S
C926 H918 0.950 . S
C926 C924 1.391 . S
C926 C927 1.400 . S
C927 C926 1.400 . S
C927 C928 1.398 . S
C927 C933 1.491 . S
C928 H919 0.950 . S
C928 C927 1.398 . S
C928 C929 1.391 . S
C929 H917 0.950 . S
C929 C925 1.393 . S
C929 C928 1.391 . S
C930 H920 0.950 . S
C930 C931 1.386 . S
C930 C932 1.391 . S
C931 C930 1.386 . S
C931 C935 1.393 . S
C932 H921 0.950 . S
C932 C930 1.391 . S
C932 C933 1.400 . S
C933 C927 1.491 . S
C933 C932 1.400 . S
C933 C934 1.398 . S
C934 H922 0.950 . S
C934 C933 1.398 . S
C934 C935 1.391 . S
C935 H923 0.950 . S
C935 C931 1.393 . S
C935 C934 1.391 . S
H936 C944 0.950 . S
H937 C949 0.950 . S
H938 C946 0.950 . S
H939 C948 0.950 . S
H940 C950 0.950 . S
H941 C952 0.950 . S
H942 C954 0.950 . S
H943 C955 0.950 . S
C944 H936 0.950 . S
C944 C945 1.386 . S
C944 C946 1.391 . S
C945 C944 1.386 . S
C945 C949 1.393 . S
C946 H938 0.950 . S
C946 C944 1.391 . S
C946 C947 1.400 . S
C947 C946 1.400 . S
C947 C948 1.398 . S
C947 C953 1.491 . S
C948 H939 0.950 . S
C948 C947 1.398 . S
C948 C949 1.391 . S
C949 H937 0.950 . S
C949 C945 1.393 . S
C949 C948 1.391 . S
C950 H940 0.950 . S
C950 C951 1.386 . S
C950 C952 1.391 . S
C951 C950 1.386 . S
C951 C955 1.393 . S
C952 H941 0.950 . S
C952 C950 1.391 . S
C952 C953 1.400 . S
C953 C947 1.491 . S
C953 C952 1.400 . S
C953 C954 1.398 . S
C954 H942 0.950 . S
C954 C953 1.398 . S
C954 C955 1.391 . S
C955 H943 0.950 . S
C955 C951 1.393 . S
C955 C954 1.391 . S
H956 C964 0.950 . S
H957 C969 0.950 . S
H958 C966 0.950 . S
H959 C968 0.950 . S
H960 C970 0.950 . S
H961 C972 0.950 . S
H962 C974 0.950 . S
H963 C975 0.950 . S
C964 H956 0.950 . S
C964 C965 1.386 . S
C964 C966 1.391 . S
C965 C964 1.386 . S
C965 C969 1.393 . S
C966 H958 0.950 . S
C966 C964 1.391 . S
C966 C967 1.400 . S
C967 C966 1.400 . S
C967 C968 1.398 . S
C967 C973 1.491 . S
C968 H959 0.950 . S
C968 C967 1.398 . S
C968 C969 1.391 . S
C969 H957 0.950 . S
C969 C965 1.393 . S
C969 C968 1.391 . S
C970 H960 0.950 . S
C970 C971 1.386 . S
C970 C972 1.391 . S
C971 C970 1.386 . S
C971 C975 1.393 . S
C972 H961 0.950 . S
C972 C970 1.391 . S
C972 C973 1.400 . S
C973 C967 1.491 . S
C973 C972 1.400 . S
C973 C974 1.398 . S
C974 H962 0.950 . S
C974 C973 1.398 . S
C974 C975 1.391 . S
C975 H963 0.950 . S
C975 C971 1.393 . S
C975 C974 1.391 . S
H976 C984 0.950 . S
H977 C989 0.950 . S
H978 C986 0.950 . S
H979 C988 0.950 . S
H980 C990 0.950 . S
H981 C992 0.950 . S
H982 C994 0.950 . S
H983 C995 0.950 . S
C984 H976 0.950 . S
C984 C985 1.386 . S
C984 C986 1.391 . S
C985 C984 1.386 . S
C985 C989 1.393 . S
C986 H978 0.950 . S
C986 C984 1.391 . S
C986 C987 1.400 . S
C987 C986 1.400 . S
C987 C988 1.398 . S
C987 C993 1.491 . S
C988 H979 0.950 . S
C988 C987 1.398 . S
C988 C989 1.391 . S
C989 H977 0.950 . S
C989 C985 1.393 . S
C989 C988 1.391 . S
C990 H980 0.950 . S
C990 C991 1.386 . S
C990 C992 1.391 . S
C991 C990 1.386 . S
C991 C995 1.393 . S
C992 H981 0.950 . S
C992 C990 1.391 . S
C992 C993 1.400 . S
C993 C987 1.491 . S
C993 C992 1.400 . S
C993 C994 1.398 . S
C994 H982 0.950 . S
C994 C993 1.398 . S
C994 C995 1.391 . S
C995 H983 0.950 . S
C995 C991 1.393 . S
C995 C994 1.391 . S
C285 C63 0.939 . S
C291 C21 0.930 . S
C305 C86 0.862 . S
C311 C44 0.872 . S
C325 C67 0.946 . S
C331 C109 0.919 . S
C345 C90 0.898 . S
C351 C132 0.870 . S
C365 C17 0.931 . S
C371 C113 0.936 . S
C385 C40 0.856 . S
C391 C136 0.885 . S
C405 C247 0.895 . S
C411 C159 0.880 . S
C425 C182 0.954 . S
C431 C270 0.913 . S
C445 C205 0.866 . S
C451 C155 0.867 . S
C465 C228 0.952 . S
C471 C178 0.913 . S
C485 C251 0.860 . S
C491 C201 0.878 . S
C505 C224 0.913 . S
C511 C274 0.954 . S
C525 C88 1.483 . S
C531 C20 1.503 . S
C545 C42 1.496 . S
C551 C112 1.504 . S
C565 C66 1.497 . S
C571 C134 1.488 . S
C585 C157 1.500 . S
C591 C227 1.500 . S
C605 C181 1.504 . S
C611 C249 1.482 . S
C625 C203 1.490 . S
C631 C273 1.508 . S
C645 C180 1.530 . S
C651 C19 1.523 . S
C665 C43 1.546 . S
C671 C204 1.542 . S
C685 C226 1.532 . S
C691 C65 1.522 . S
C705 C89 1.542 . S
C711 C250 1.546 . S
C725 C111 1.523 . S
C731 C272 1.534 . S
C745 C158 1.545 . S
C751 C135 1.546 . S
C765 C62 1.159 . S
C771 C18 1.154 . S
C785 C41 1.170 . S
C791 C85 1.188 . S
C805 C64 1.140 . S
C811 C108 1.162 . S
C825 C87 1.176 . S
C831 C131 1.193 . S
C845 C16 1.162 . S
C851 C110 1.138 . S
C865 C39 1.189 . S
C871 C133 1.168 . S
C885 C246 1.189 . S
C891 C156 1.168 . S
C905 C179 1.149 . S
C911 C269 1.157 . S
C925 C202 1.171 . S
C931 C154 1.190 . S
C945 C177 1.160 . S
C951 C225 1.153 . S
C965 C248 1.166 . S
C971 C200 1.187 . S
C985 C271 1.149 . S
C991 C223 1.156 . S
