# Generated by pormake.
# Topology qtz-e, (6)-cn, num edge types: 1
# Building blocks:
#     Node 0, Type 0, BuildingBlock: BETDAH_clean_sbu_0, # of connection points: 6
#     Node 1, Type 0, BuildingBlock: BETDAH_clean_sbu_0, # of connection points: 6
#     Node 2, Type 0, BuildingBlock: BETDAH_clean_sbu_0, # of connection points: 6
#     Node 3, Type 0, BuildingBlock: BETDAH_clean_sbu_0, # of connection points: 6
#     Node 4, Type 0, BuildingBlock: BETDAH_clean_sbu_0, # of connection points: 6
#     Node 5, Type 0, BuildingBlock: BETDAH_clean_sbu_0, # of connection points: 6
#     Edge 6, Type (0, 0), BuildingBlock: FUNLAD_clean_linker_0, # of connection points: 2
#     Edge 7, Type (0, 0), BuildingBlock: FUNLAD_clean_linker_0, # of connection points: 2
#     Edge 8, Type (0, 0), BuildingBlock: FUNLAD_clean_linker_0, # of connection points: 2
#     Edge 9, Type (0, 0), BuildingBlock: FUNLAD_clean_linker_0, # of connection points: 2
#     Edge 10, Type (0, 0), BuildingBlock: FUNLAD_clean_linker_0, # of connection points: 2
#     Edge 11, Type (0, 0), BuildingBlock: FUNLAD_clean_linker_0, # of connection points: 2
#     Edge 12, Type (0, 0), BuildingBlock: FUNLAD_clean_linker_0, # of connection points: 2
#     Edge 13, Type (0, 0), BuildingBlock: FUNLAD_clean_linker_0, # of connection points: 2
#     Edge 14, Type (0, 0), BuildingBlock: FUNLAD_clean_linker_0, # of connection points: 2
#     Edge 15, Type (0, 0), BuildingBlock: FUNLAD_clean_linker_0, # of connection points: 2
#     Edge 16, Type (0, 0), BuildingBlock: FUNLAD_clean_linker_0, # of connection points: 2
#     Edge 17, Type (0, 0), BuildingBlock: FUNLAD_clean_linker_0, # of connection points: 2
#     Edge 18, Type (0, 0), BuildingBlock: FUNLAD_clean_linker_0, # of connection points: 2
#     Edge 19, Type (0, 0), BuildingBlock: FUNLAD_clean_linker_0, # of connection points: 2
#     Edge 20, Type (0, 0), BuildingBlock: FUNLAD_clean_linker_0, # of connection points: 2
#     Edge 21, Type (0, 0), BuildingBlock: FUNLAD_clean_linker_0, # of connection points: 2
#     Edge 22, Type (0, 0), BuildingBlock: FUNLAD_clean_linker_0, # of connection points: 2
#     Edge 23, Type (0, 0), BuildingBlock: FUNLAD_clean_linker_0, # of connection points: 2
# Relax obj value: 0.102
# Max RMSD: 0.177
# Mean RMSD: 0.177
data_MOF--net-qtz-e--node1-BETDAH_clean_sbu_0--edge1-FUNLAD_clean_linker_0
_symmetry_space_group_name_H-M    P1
_symmetry_Int_Tables_number       1
_symmetry_cell_setting            triclinic
loop_
_symmetry_equiv_pos_as_xyz
'x, y, z'
_cell_length_a     29.943935
_cell_length_b     29.710495
_cell_length_c     57.786638
_cell_angle_alpha  90.013483
_cell_angle_beta   89.681086
_cell_angle_gamma 120.48879
loop_
_atom_site_label
_atom_site_type_symbol
_atom_site_fract_x
_atom_site_fract_y
_atom_site_fract_z
_atom_type_partial_charge
Ho0 Ho 0.21035 0.46386 0.05214 0.0
Ho1 Ho 0.15917 0.34818 0.03816 0.0
C2 C 0.14223 0.37001 0.09004 0.0
C3 C 0.23391 0.554 0.06894 0.0
C4 C 0.22713 0.57414 0.09116 0.0
C5 C 0.182 0.54582 0.10461 0.0
C6 C 0.17763 0.56476 0.12617 0.0
C7 C 0.2183 0.61239 0.13466 0.0
C8 C 0.26302 0.64089 0.1209 0.0
C9 C 0.26737 0.62189 0.0994 0.0
C10 C 0.27266 0.42381 0.05067 0.0
C11 C 0.22434 0.44205 1.00015 0.0
C12 C 0.14352 0.26295 0.01905 0.0
C13 C 0.16476 0.25434 0.99743 0.0
C14 C 0.21669 0.28834 0.99099 0.0
C15 C 0.23555 0.28274 0.96965 0.0
C16 C 0.20294 0.24313 0.9542 0.0
C17 C 0.15108 0.20879 0.9608 0.0
C18 C 0.13222 0.21437 0.98222 0.0
C19 C 0.0989 0.39109 0.03758 0.0
O20 O 0.16185 0.41947 0.08353 0.0
O21 O 0.14181 0.33445 0.07606 0.0
O22 O 0.26538 0.53564 0.06919 0.0
O23 O 0.19207 0.52491 0.05691 0.0
O24 O 0.28667 0.47105 0.04445 0.0
O25 O 0.22728 0.40085 0.05878 0.0
O26 O 0.20869 0.39364 1.00707 0.0
O27 O 0.22176 0.4761 1.01399 0.0
O28 O 0.11231 0.28127 1.01635 0.0
O29 O 0.17653 0.286 0.03591 0.0
O30 O 0.08195 0.34332 0.04436 0.0
O31 O 0.14496 0.41143 0.0309 0.0
H32 H 0.1504 0.50885 0.09856 0.0
H33 H 0.14288 0.54155 0.1364 0.0
H34 H 0.2947 0.67807 0.12671 0.0
H35 H 0.30243 0.64436 0.08925 0.0
H36 H 0.24255 0.32009 1.00221 0.0
H37 H 0.27539 0.31044 0.96501 0.0
H38 H 0.12505 0.17756 0.94941 0.0
H39 H 0.09198 0.18794 0.98675 0.0
Ho40 Ho 0.7133 0.19479 0.38668 0.0
Ho41 Ho 0.79758 0.1678 0.3729 0.0
C42 C 0.76003 0.15184 0.42523 0.0
C43 C 0.62975 0.19451 0.39786 0.0
C44 C 0.6096 0.19729 0.42081 0.0
C45 C 0.5567 0.17907 0.42408 0.0
C46 C 0.53711 0.17802 0.4463 0.0
C47 C 0.57014 0.19505 0.46563 0.0
C48 C 0.62318 0.21325 0.46216 0.0
C49 C 0.64263 0.2142 0.44001 0.0
C50 C 0.81133 0.2668 0.39825 0.0
C51 C 0.75351 0.21633 0.33415 0.0
C52 C 0.87432 0.16487 0.35375 0.0
C53 C 0.90329 0.1849 0.33171 0.0
C54 C 0.90983 0.23059 0.32125 0.0
C55 C 0.93409 0.24675 0.29954 0.0
C56 C 0.95224 0.21751 0.28775 0.0
C57 C 0.94578 0.17195 0.29846 0.0
C58 C 0.92163 0.15591 0.32016 0.0
C59 C 0.69845 0.08844 0.37523 0.0
O60 O 0.71833 0.15136 0.41737 0.0
O61 O 0.80097 0.16479 0.41181 0.0
O62 O 0.67214 0.23672 0.3909 0.0
O63 O 0.6313 0.15179 0.3943 0.0
O64 O 0.77082 0.25665 0.41045 0.0
O65 O 0.7974 0.24037 0.37993 0.0
O66 O 0.78629 0.20053 0.33967 0.0
O67 O 0.7202 0.21668 0.3492 0.0
O68 O 0.82598 0.1277 0.3516 0.0
O69 O 0.88036 0.19941 0.36946 0.0
O70 O 0.73688 0.08459 0.38316 0.0
O71 O 0.71504 0.13318 0.36708 0.0
H72 H 0.53047 0.16505 0.40952 0.0
H73 H 0.49613 0.16404 0.44831 0.0
H74 H 0.64956 0.22564 0.47665 0.0
H75 H 0.6834 0.22727 0.43795 0.0
H76 H 0.89561 0.25346 0.32972 0.0
H77 H 0.93873 0.28228 0.29204 0.0
H78 H 0.95826 0.14779 0.28985 0.0
H79 H 0.91641 0.12019 0.32774 0.0
Ho80 Ho 0.51344 0.71308 0.71609 0.0
Ho81 Ho 0.61115 0.81994 0.70771 0.0
C82 C 0.59778 0.77391 0.75793 0.0
C83 C 0.45115 0.61842 0.7299 0.0
C84 C 0.43166 0.59729 0.75321 0.0
C85 C 0.40579 0.54336 0.75743 0.0
C86 C 0.3869 0.52373 0.77966 0.0
C87 C 0.39347 0.55781 0.79799 0.0
C88 C 0.42025 0.61192 0.79366 0.0
C89 C 0.43915 0.63141 0.77153 0.0
C90 C 0.50053 0.7947 0.7234 0.0
C91 C 0.52565 0.76187 0.66643 0.0
C92 C 0.67765 0.91285 0.69318 0.0
C93 C 0.6926 0.93557 0.66977 0.0
C94 C 0.72183 0.98984 0.66674 0.0
C95 C 0.7356 0.01141 0.64446 0.0
C96 C 0.72022 0.97903 0.62478 0.0
C97 C 0.69081 0.92454 0.628 0.0
C98 C 0.67728 0.90308 0.65025 0.0
C99 C 0.61856 0.7344 0.69966 0.0
O100 O 0.56079 0.72944 0.74894 0.0
O101 O 0.61938 0.81812 0.74603 0.0
O102 O 0.43534 0.64888 0.72158 0.0
O103 O 0.50081 0.63749 0.72662 0.0
O104 O 0.46439 0.74983 0.7159 0.0
O105 O 0.54039 0.7929 0.72866 0.0
O106 O 0.5616 0.80616 0.67593 0.0
O107 O 0.50595 0.71683 0.67766 0.0
O108 O 0.68983 0.87753 0.69827 0.0
O109 O 0.63057 0.89919 0.69983 0.0
O110 O 0.65455 0.77551 0.70998 0.0
O111 O 0.58227 0.7416 0.69449 0.0
H112 H 0.39983 0.51646 0.74352 0.0
H113 H 0.36624 0.48186 0.78238 0.0
H114 H 0.42685 0.63931 0.80743 0.0
H115 H 0.45948 0.67326 0.76867 0.0
H116 H 0.73408 0.01554 0.6816 0.0
H117 H 0.75875 0.05347 0.64268 0.0
H118 H 0.6775 0.89839 0.61331 0.0
H119 H 0.65461 0.86103 0.65221 0.0
Ho120 Ho 0.76693 0.53439 0.05822 0.0
Ho121 Ho 0.79216 0.64292 0.04138 0.0
C122 C 0.82969 0.63317 0.09134 0.0
C123 C 0.75693 0.4459 0.06964 0.0
C124 C 0.74913 0.41948 0.09213 0.0
C125 C 0.77511 0.39242 0.09693 0.0
C126 C 0.77086 0.37036 0.11882 0.0
C127 C 0.74041 0.37492 0.13627 0.0
C128 C 0.714 0.40162 0.13127 0.0
C129 C 0.7185 0.42387 0.10947 0.0
C130 C 0.70404 0.56746 0.07523 0.0
C131 C 0.73036 0.54321 1.00693 0.0
C132 C 0.79161 0.72136 0.02239 0.0
C133 C 0.76593 0.726 1.00155 0.0
C134 C 0.71885 0.68366 0.99389 0.0
C135 C 0.69848 0.68579 0.97246 0.0
C136 C 0.72471 0.73034 0.95825 0.0
C137 C 0.77093 0.77336 0.96638 0.0
C138 C 0.7914 0.77109 0.98778 0.0
C139 C 0.86746 0.61868 0.03708 0.0
O140 O 0.82572 0.58917 0.08381 0.0
O141 O 0.81118 0.65806 0.07927 0.0
O142 O 0.71833 0.45087 0.06221 0.0
O143 O 0.80209 0.4885 0.06685 0.0
O144 O 0.72095 0.54215 0.08696 0.0
O145 O 0.7216 0.57379 0.05488 0.0
O146 O 0.74782 0.59328 1.0109 0.0
O147 O 0.73518 0.51282 0.02222 0.0
O148 O 0.82724 0.70932 1.01824 0.0
O149 O 0.7617 0.69528 0.03998 0.0
O150 O 0.87654 0.6641 0.04409 0.0
O151 O 0.82023 0.59029 0.03309 0.0
H152 H 0.79929 0.389 0.08385 0.0
H153 H 0.79138 0.34973 0.1221 0.0
H154 H 0.69092 0.40654 0.14443 0.0
H155 H 0.69868 0.44526 0.10633 0.0
H156 H 0.69851 0.64832 1.00416 0.0
H157 H 0.66248 0.65223 0.96688 0.0
H158 H 0.79239 0.80806 0.9558 0.0
H159 H 0.82805 0.80396 0.99325 0.0
Ho160 Ho 0.27069 0.80485 0.38228 0.0
Ho161 Ho 0.16766 0.80109 0.37414 0.0
C162 C 0.20572 0.81748 0.42584 0.0
C163 C 0.36107 0.82806 0.39731 0.0
C164 C 0.37874 0.82507 0.42068 0.0
C165 C 0.43153 0.85311 0.42617 0.0
C166 C 0.44792 0.85045 0.44854 0.0
C167 C 0.41167 0.81962 0.46576 0.0
C168 C 0.35873 0.79192 0.4601 0.0
C169 C 0.34248 0.7946 0.4378 0.0
C170 C 0.1872 0.70871 0.38048 0.0
C171 C 0.23256 0.78838 0.3312 0.0
C172 C 0.07823 0.77948 0.35847 0.0
C173 C 0.05249 0.76166 0.3358 0.0
C174 C 0.05635 0.72367 0.32289 0.0
C175 C 0.03469 0.7098 0.30079 0.0
C176 C 0.00881 0.73369 0.29107 0.0
C177 C 0.00468 0.77139 0.30415 0.0
C178 C 0.02627 0.78517 0.32628 0.0
C179 C 0.25315 0.89655 0.37575 0.0
O180 O 0.24921 0.82226 0.41739 0.0
O181 O 0.16458 0.80355 0.41277 0.0
O182 O 0.32865 0.78319 0.38787 0.0
O183 O 0.34679 0.86264 0.3946 0.0
O184 O 0.2326 0.72039 0.37286 0.0
O185 O 0.18882 0.74752 0.39019 0.0
O186 O 0.18676 0.77555 0.34023 0.0
O187 O 0.27504 0.81048 0.34383 0.0
O188 O 0.11859 0.8267 0.3587 0.0
O189 O 0.08556 0.74626 0.3704 0.0
O190 O 0.2095 0.88577 0.3853 0.0
O191 O 0.24866 0.85679 0.36592 0.0
H192 H 0.46006 0.87694 0.41318 0.0
H193 H 0.48899 0.872 0.45227 0.0
H194 H 0.32968 0.76866 0.473 0.0
H195 H 0.30145 0.77295 0.43395 0.0
H196 H 0.07686 0.70528 0.3297 0.0
H197 H 0.0393 0.68119 0.2911 0.0
H198 H -0.01546 0.79013 0.29732 0.0
H199 H 0.02303 0.81473 0.33588 0.0
Ho200 Ho 0.44859 0.25117 0.72072 0.0
Ho201 Ho 0.33998 0.16917 0.70382 0.0
C202 C 0.34693 0.20795 0.75542 0.0
C203 C 0.52652 0.33397 0.73809 0.0
C204 C 0.54418 0.35576 0.76148 0.0
C205 C 0.51042 0.35866 0.77761 0.0
C206 C 0.52783 0.3789 0.79975 0.0
C207 C 0.57948 0.39706 0.80616 0.0
C208 C 0.61321 0.39437 0.7899 0.0
C209 C 0.59569 0.37387 0.76782 0.0
C210 C 0.42626 0.1524 0.72601 0.0
C211 C 0.44048 0.20874 0.6697 0.0
C212 C 0.25992 0.0915 0.6847 0.0
C213 C 0.24961 0.06281 0.66266 0.0
C214 C 0.28587 0.0515 0.65289 0.0
C215 C 0.27592 0.02552 0.63166 0.0
C216 C 0.22951 0.01032 0.61972 0.0
C217 C 0.1933 0.02167 0.62965 0.0
C218 C 0.2033 0.04763 0.65088 0.0
C219 C 0.36919 0.27072 0.69862 0.0
O220 O 0.39552 0.24435 0.75052 0.0
O221 O 0.31818 0.17012 0.74074 0.0
O222 O 0.5277 0.29162 0.73317 0.0
O223 O 0.48465 0.33234 0.7305 0.0
O224 O 0.47234 0.19162 0.72206 0.0
O225 O 0.39441 0.16789 0.72908 0.0
O226 O 0.39404 0.16988 0.67591 0.0
O227 O 0.46689 0.25004 0.68312 0.0
O228 O 0.27067 0.13986 0.68306 0.0
O229 O 0.28961 0.0859 0.69955 0.0
O230 O 0.32307 0.23575 0.70554 0.0
O231 O 0.39557 0.2497 0.69502 0.0
H232 H 0.47063 0.34551 0.77311 0.0
H233 H 0.50102 0.38104 0.81173 0.0
H234 H 0.65306 0.4075 0.79435 0.0
H235 H 0.62241 0.37202 0.75567 0.0
H236 H 0.32197 0.06282 0.66162 0.0
H237 H 0.30443 0.01693 0.62471 0.0
H238 H 0.15755 0.01133 0.62083 0.0
H239 H 0.17496 0.05628 0.65803 0.0
C240 C 0.19077 0.75118 0.29295 0.0
C241 C 0.23553 0.7752 0.3067 0.0
C242 C 0.19282 0.73572 0.27029 0.0
C243 C 0.23979 0.7437 0.26087 0.0
C244 C 0.28477 0.76922 0.27439 0.0
C245 C 0.2827 0.78463 0.29704 0.0
C246 C 0.24393 0.7265 0.23713 0.0
C247 C 0.20346 0.68892 0.22524 0.0
C248 C 0.20859 0.67035 0.20197 0.0
C249 C 0.16505 0.64636 0.18753 0.0
C250 C 0.16806 0.62761 0.1657 0.0
C251 C 0.21469 0.63204 0.15789 0.0
H252 H 0.28897 0.69028 0.20518 0.0
C253 C 0.25803 0.65528 0.17251 0.0
C254 C 0.25506 0.67407 0.19429 0.0
H255 H 0.29418 0.65811 0.16729 0.0
H256 H 0.15391 0.74387 0.29971 0.0
H257 H 0.15752 0.71794 0.26031 0.0
H258 H 0.3216 0.77641 0.26755 0.0
H259 H 0.31801 0.80322 0.30707 0.0
H260 H 0.28245 0.74487 0.22952 0.0
H261 H 0.16474 0.67066 0.23261 0.0
H262 H 0.12863 0.6425 0.19306 0.0
H263 H 0.13401 0.61023 0.15484 0.0
C264 C 0.43191 0.16648 0.63097 0.0
C265 C 0.46123 0.20764 0.64641 0.0
C266 C 0.45027 0.16672 0.60861 0.0
C267 C 0.49849 0.20836 0.60107 0.0
C268 C 0.52825 0.24876 0.61672 0.0
C269 C 0.50983 0.24858 0.63905 0.0
C270 C 0.51976 0.21103 0.57734 0.0
C271 C 0.4907 0.1846 0.5589 0.0
C272 C 0.51218 0.18853 0.53511 0.0
C273 C 0.48351 0.14828 0.51922 0.0
C274 C 0.50199 0.15045 0.49669 0.0
C275 C 0.54956 0.19321 0.4894 0.0
H276 H 0.58189 0.2647 0.53893 0.0
C277 C 0.57783 0.23397 0.50515 0.0
C278 C 0.55937 0.23182 0.52767 0.0
H279 H 0.61405 0.26805 0.49998 0.0
H280 H 0.39445 0.13411 0.63606 0.0
H281 H 0.42665 0.13388 0.5975 0.0
H282 H 0.56572 0.28111 0.61155 0.0
H283 H 0.5336 0.28086 0.65046 0.0
H284 H 0.56119 0.23685 0.57511 0.0
H285 H 0.44931 0.15852 0.56108 0.0
H286 H 0.44686 0.11464 0.52433 0.0
H287 H 0.47938 0.11812 0.48512 0.0
C288 C 0.24345 0.42177 0.96027 0.0
C289 C 0.24519 0.45828 0.9763 0.0
C290 C 0.26269 0.4371 0.93771 0.0
C291 C 0.28455 0.48961 0.93067 0.0
C292 C 0.28616 0.5259 0.94677 0.0
C293 C 0.26681 0.51054 0.96925 0.0
C294 C 0.3046 0.50842 0.90675 0.0
C295 C 0.31294 0.48069 0.89051 0.0
C296 C 0.33288 0.50091 0.86672 0.0
C297 C 0.35644 0.47834 0.8538 0.0
C298 C 0.37579 0.49637 0.83148 0.0
C299 C 0.37191 0.5374 0.82149 0.0
H300 H 0.30812 0.55825 0.86523 0.0
C301 C 0.34735 0.55921 0.8342 0.0
C302 C 0.32783 0.54108 0.85644 0.0
H303 H 0.34251 0.58996 0.8268 0.0
H304 H 0.22662 0.38107 0.96503 0.0
H305 H 0.25939 0.40733 0.92593 0.0
H306 H 0.30244 0.56653 0.94194 0.0
H307 H 0.26887 0.53979 0.98108 0.0
H308 H 0.3144 0.54807 0.9027 0.0
H309 H 0.30711 0.44256 0.89484 0.0
H310 H 0.36044 0.44699 0.86111 0.0
H311 H 0.39462 0.47879 0.82221 0.0
C312 C 0.72388 0.25534 0.30351 0.0
C313 C 0.75479 0.23441 0.31009 0.0
C314 C 0.72585 0.27292 0.28084 0.0
C315 C 0.75852 0.26949 0.26416 0.0
C316 C 0.78957 0.24888 0.27085 0.0
C317 C 0.78766 0.23143 0.29346 0.0
C318 C 0.76293 0.28846 0.23991 0.0
C319 C 0.72714 0.29629 0.22957 0.0
C320 C 0.73179 0.31544 0.20532 0.0
C321 C 0.6871 0.30861 0.19427 0.0
C322 C 0.68972 0.32722 0.1718 0.0
C323 C 0.73723 0.35329 0.15981 0.0
H324 H 0.81525 0.3496 0.20131 0.0
C325 C 0.78201 0.36015 0.17078 0.0
C326 C 0.77947 0.34177 0.19332 0.0
H327 H 0.81937 0.38105 0.16218 0.0
H328 H 0.69849 0.2587 0.31592 0.0
H329 H 0.70243 0.28999 0.27675 0.0
H330 H 0.81544 0.24611 0.2585 0.0
H331 H 0.81209 0.21557 0.29784 0.0
H332 H 0.79627 0.29404 0.23002 0.0
H333 H 0.69171 0.28653 0.23882 0.0
H334 H 0.6499 0.28878 0.20307 0.0
H335 H 0.65444 0.32102 0.16376 0.0
C336 C 0.53356 0.81062 0.62982 0.0
C337 C 0.50991 0.76331 0.64226 0.0
C338 C 0.51986 0.8125 0.60692 0.0
C339 C 0.48147 0.76707 0.59588 0.0
C340 C 0.45812 0.71971 0.60827 0.0
C341 C 0.47205 0.7178 0.6312 0.0
C342 C 0.46568 0.76704 0.5714 0.0
C343 C 0.47441 0.81038 0.55987 0.0
C344 C 0.4586 0.81075 0.53546 0.0
C345 C 0.48227 0.85839 0.5233 0.0
C346 C 0.46769 0.86121 0.50063 0.0
C347 C 0.42865 0.81641 0.48959 0.0
H348 H 0.39925 0.72852 0.53314 0.0
C349 C 0.40496 0.76867 0.50171 0.0
C350 C 0.41958 0.76582 0.52437 0.0
H351 H 0.37498 0.7333 0.49367 0.0
H352 H 0.56317 0.84647 0.63767 0.0
H353 H 0.54036 0.84958 0.59798 0.0
H354 H 0.42876 0.68396 0.60022 0.0
H355 H 0.45317 0.68064 0.64021 0.0
H356 H 0.44568 0.72947 0.56281 0.0
H357 H 0.49429 0.84792 0.56848 0.0
H358 H 0.51212 0.89377 0.53141 0.0
H359 H 0.48625 0.89876 0.49196 0.0
C360 C 0.7058 0.55368 0.96663 0.0
C361 C 0.70631 0.52113 0.98419 0.0
C362 C 0.68448 0.53329 0.94497 0.0
C363 C 0.66332 0.47977 0.94029 0.0
C364 C 0.66273 0.4471 0.95801 0.0
C365 C 0.68422 0.46751 0.97965 0.0
C366 C 0.64074 0.45651 0.91739 0.0
C367 C 0.65545 0.48382 0.89739 0.0
C368 C 0.63476 0.46037 0.87429 0.0
C369 C 0.66489 0.48473 0.8545 0.0
C370 C 0.64706 0.46416 0.83246 0.0
C371 C 0.59826 0.41898 0.82964 0.0
H372 H 0.56049 0.39631 0.88619 0.0
C373 C 0.5676 0.39504 0.8494 0.0
C374 C 0.58558 0.41546 0.87148 0.0
H375 H 0.52986 0.36012 0.84784 0.0
H376 H 0.72221 0.59512 0.9695 0.0
H377 H 0.68423 0.55957 0.93209 0.0
H378 H 0.64622 0.40565 0.955 0.0
H379 H 0.68361 0.44119 0.99278 0.0
H380 H 0.61351 0.41474 0.91695 0.0
H381 H 0.68626 0.52447 0.89762 0.0
H382 H 0.70263 0.51968 0.85608 0.0
H383 H 0.6713 0.48408 0.81759 0.0
C384 C 0.32326 0.40445 0.07825 0.0
C385 C 0.3111 0.40894 0.05531 0.0
C386 C 0.37139 0.41013 0.08332 0.0
C387 C 0.407 0.41963 0.06535 0.0
C388 C 0.39158 0.41694 0.04229 0.0
C389 C 0.34414 0.41256 0.03729 0.0
C390 C 0.46251 0.44092 0.06977 0.0
C391 C 0.48774 0.47663 0.08636 0.0
C392 C 0.54445 0.50992 0.08519 0.0
C393 C 0.57483 0.51425 0.10431 0.0
C394 C 0.62854 0.53821 0.10176 0.0
C395 C 0.65204 0.55855 0.08014 0.0
H396 H 0.54549 0.53372 0.04963 0.0
C397 C 0.622 0.55977 0.0619 0.0
C398 C 0.56844 0.53523 0.06436 0.0
H399 H 0.63922 0.57577 0.04515 0.0
H400 H 0.29805 0.40196 0.09234 0.0
H401 H 0.38203 0.41072 0.10124 0.0
H402 H 0.41831 0.42368 0.02819 0.0
H403 H 0.33511 0.41625 0.0195 0.0
H404 H 0.48487 0.4348 0.05653 0.0
H405 H 0.46704 0.48436 0.09979 0.0
H406 H 0.55684 0.49588 0.12063 0.0
H407 H 0.65113 0.53736 0.11615 0.0
C408 C 0.09979 0.641 0.39504 0.0
C409 C 0.1421 0.6556 0.38012 0.0
C410 C 0.05895 0.58921 0.39562 0.0
C411 C 0.05976 0.55162 0.38106 0.0
C412 C 0.10106 0.56698 0.36549 0.0
C413 C 0.14219 0.6184 0.3652 0.0
C414 C 0.01775 0.49635 0.38132 0.0
C415 C -0.00737 0.47142 0.40082 0.0
C416 C 0.94956 0.41634 0.40115 0.0
C417 C 0.91275 0.39998 0.41908 0.0
C418 C 0.86888 0.35008 0.41881 0.0
C419 C 0.86125 0.31562 0.40063 0.0
H420 H 0.97229 0.39048 0.3703 0.0
C421 C 0.89969 0.3305 0.38354 0.0
C422 C 0.94364 0.38034 0.38383 0.0
H423 H 0.89501 0.3043 0.3695 0.0
H424 H 0.0988 0.66926 0.40656 0.0
H425 H 0.02673 0.5788 0.4073 0.0
H426 H 0.1021 0.53884 0.3539 0.0
H427 H 0.17423 0.62898 0.35336 0.0
H428 H 0.00855 0.47576 0.36494 0.0
H429 H 0.00249 0.49269 0.41706 0.0
H430 H 0.91685 0.42657 0.43284 0.0
H431 H 0.83997 0.3393 0.43233 0.0
C432 C 0.45745 0.10343 0.74849 0.0
C433 C 0.41881 0.10283 0.7347 0.0
C434 C 0.45619 0.05714 0.75372 0.0
C435 C 0.41694 0.0096 0.74464 0.0
C436 C 0.37587 0.00855 0.73254 0.0
C437 C 0.37678 0.05508 0.72758 0.0
C438 C 0.42081 0.96196 0.74541 0.0
C439 C 0.46707 0.96463 0.74417 0.0
C440 C 0.47343 0.91905 0.74012 0.0
C441 C 0.52135 0.92352 0.7452 0.0
C442 C 0.53044 0.88302 0.73987 0.0
C443 C 0.49176 0.83761 0.72921 0.0
H444 H 0.39807 0.869 0.72439 0.0
C445 C 0.4439 0.83302 0.72409 0.0
C446 C 0.43478 0.87336 0.72942 0.0
H447 H 0.41359 0.79843 0.71569 0.0
H448 H 0.48967 0.13996 0.75461 0.0
H449 H 0.48713 0.05904 0.76407 0.0
H450 H 0.34487 0.97222 0.72561 0.0
H451 H 0.34667 0.05392 0.71694 0.0
H452 H 0.38504 0.92458 0.74452 0.0
H453 H 0.50255 0.00238 0.7448 0.0
H454 H 0.552 0.95864 0.75314 0.0
H455 H 0.56771 0.88738 0.74393 0.0
C456 C 0.62347 0.66369 0.72084 0.0
C457 C 0.61005 0.68153 0.70104 0.0
C458 C 0.60055 0.60986 0.72485 0.0
C459 C 0.56383 0.57428 0.70925 0.0
C460 C 0.55427 0.59246 0.68858 0.0
C461 C 0.57732 0.64564 0.68449 0.0
C462 C 0.53387 0.51805 0.71429 0.0
C463 C 0.48184 0.49209 0.71275 0.0
C464 C 0.45161 0.43521 0.70918 0.0
C465 C 0.40202 0.40492 0.71904 0.0
C466 C 0.37315 0.35098 0.71498 0.0
C467 C 0.39343 0.32754 0.70059 0.0
H468 H 0.50767 0.43463 0.68542 0.0
C469 C 0.44153 0.35865 0.68964 0.0
C470 C 0.47054 0.41179 0.69405 0.0
H471 H 0.45767 0.34152 0.67822 0.0
H472 H 0.64817 0.69092 0.73394 0.0
H473 H 0.60886 0.59617 0.74072 0.0
H474 H 0.52716 0.56544 0.67602 0.0
H475 H 0.56659 0.65874 0.6691 0.0
H476 H 0.55467 0.49731 0.71689 0.0
H477 H 0.46142 0.51362 0.71177 0.0
H478 H 0.38629 0.42273 0.73029 0.0
H479 H 0.3361 0.32759 0.72359 0.0
C480 C 0.03839 0.40847 0.06069 0.0
C481 C 0.07538 0.42268 0.04298 0.0
C482 C 0.02103 0.44248 0.06705 0.0
C483 C 0.04082 0.49102 0.05579 0.0
C484 C 0.07791 0.50499 0.03823 0.0
C485 C 0.09443 0.47079 0.03164 0.0
C486 C 0.01997 0.52577 0.06011 0.0
C487 C 0.96872 0.50613 0.06099 0.0
C488 C 0.94616 0.53827 0.05466 0.0
C489 C 0.90705 0.51837 0.03805 0.0
C490 C 0.88476 0.54719 0.03111 0.0
C491 C 0.89999 0.59578 0.04121 0.0
H492 H -0.00578 0.60428 0.07677 0.0
C493 C 0.94038 0.61684 0.05736 0.0
C494 C 0.96374 0.58824 0.06397 0.0
H495 H 0.95222 0.65402 0.06554 0.0
H496 H 0.02384 0.37183 0.06989 0.0
H497 H -0.00763 0.43101 0.08072 0.0
H498 H 0.0931 0.54186 0.02914 0.0
H499 H 0.12308 0.48252 1.01792 0.0
H500 H 0.04556 0.56745 0.05726 0.0
H501 H 0.94285 0.46399 0.06116 0.0
H502 H 0.89363 0.48031 0.03042 0.0
H503 H 0.85368 0.5302 1.01859 0.0
C504 C 0.32141 0.94937 0.40451 0.0
C505 C 0.30376 0.94114 0.38157 0.0
C506 C 0.37444 0.98067 0.40904 0.0
C507 C 0.40945 0.00553 0.3907 0.0
C508 C 0.39079 0.00145 0.36815 0.0
C509 C 0.33842 0.96849 0.36354 0.0
C510 C 0.46582 0.03073 0.39364 0.0
C511 C 0.48746 0.00377 0.40178 0.0
C512 C 0.54052 0.01803 0.39452 0.0
C513 C 0.57521 0.01569 0.41006 0.0
C514 C 0.62682 0.03422 0.40332 0.0
C515 C 0.64348 0.0546 0.38094 0.0
H516 H 0.52991 0.03361 0.35885 0.0
C517 C 0.60749 0.05225 0.36492 0.0
C518 C 0.55648 0.03382 0.37156 0.0
H519 H 0.61958 0.06757 0.34754 0.0
H520 H 0.29509 0.92822 0.41863 0.0
H521 H 0.38829 0.98363 0.42657 0.0
H522 H 0.41736 0.02037 0.35381 0.0
H523 H 0.32542 0.96214 0.34574 0.0
H524 H 0.48958 0.06654 0.38389 0.0
H525 H 0.46437 0.96775 0.41146 0.0
H526 H 0.56321 0.00231 0.42767 0.0
H527 H 0.65427 0.03615 0.41598 0.0
C528 C 0.3552 0.24675 0.79495 0.0
C529 C 0.32472 0.20912 0.77834 0.0
C530 C 0.33443 0.24797 0.81654 0.0
C531 C 0.28257 0.21116 0.82217 0.0
C532 C 0.25199 0.17395 0.80547 0.0
C533 C 0.27278 0.17275 0.78387 0.0
C534 C 0.25852 0.21126 0.84487 0.0
C535 C 0.28596 0.23298 0.8643 0.0
C536 C 0.26247 0.23334 0.88712 0.0
C537 C 0.29245 0.24349 0.90715 0.0
C538 C 0.27295 0.24593 0.92887 0.0
C539 C 0.22288 0.23854 0.93114 0.0
H540 H 0.18828 0.2196 0.8744 0.0
C541 C 0.19271 0.22829 0.91113 0.0
C542 C 0.21227 0.22593 0.88936 0.0
H543 H 0.15439 0.22346 0.91219 0.0
H544 H 0.39524 0.2755 0.79133 0.0
H545 H 0.35906 0.27842 0.82851 0.0
H546 H 0.21182 0.1454 0.80917 0.0
H547 H 0.24799 0.14332 0.77151 0.0
H548 H 0.21651 0.19056 0.84564 0.0
H549 H 0.32767 0.24969 0.8639 0.0
H550 H 0.33128 0.24959 0.90603 0.0
H551 H 0.29711 0.25341 0.94392 0.0
C552 C 0.95904 0.25568 0.24782 0.0
C553 C 0.97711 0.23383 0.26431 0.0
C554 C -0.01842 0.26966 0.22569 0.0
C555 C 0.02295 0.26222 0.21945 0.0
C556 C 0.04081 0.24025 0.23587 0.0
C557 C 0.01853 0.22658 0.258 0.0
C558 C 0.04721 0.27498 0.19586 0.0
C559 C 0.04728 0.31118 0.18169 0.0
C560 C 0.07272 0.32512 0.15836 0.0
C561 C 0.08777 0.37452 0.14906 0.0
C562 C 0.11075 0.38908 0.12711 0.0
C563 C 0.11875 0.35434 0.11361 0.0
H564 H 0.06838 0.25121 0.1511 0.0
C565 C 0.10328 0.3046 0.12277 0.0
C566 C 0.08061 0.29014 0.14489 0.0
H567 H 0.10851 0.27667 0.11284 0.0
H568 H 0.92654 0.26087 0.25179 0.0
H569 H 0.96552 0.285 0.21339 0.0
H570 H 0.07245 0.23386 0.23162 0.0
H571 H 0.03412 0.21058 0.27023 0.0
H572 H 0.06812 0.25562 0.19057 0.0
H573 H 0.03041 0.33386 0.18784 0.0
H574 H 0.08188 0.4022 0.15887 0.0
H575 H 0.12169 0.42754 0.12067 0.0
C576 C 0.73299 0.04724 0.59533 0.0
C577 C 0.73417 0.00181 0.60098 0.0
C578 C 0.74445 0.06766 0.57283 0.0
C579 C 0.75697 0.04286 0.55529 0.0
C580 C 0.75959 -0.00163 0.56111 0.0
C581 C 0.74816 0.97795 0.58362 0.0
C582 C 0.76732 0.06203 0.53084 0.0
C583 C 0.7477 0.08993 0.52152 0.0
C584 C 0.75323 0.10589 0.4967 0.0
C585 C 0.71722 0.11807 0.4877 0.0
C586 C 0.71986 0.13294 0.46463 0.0
C587 C 0.7591 0.13676 0.44982 0.0
H588 H 0.82239 0.10244 0.48844 0.0
C589 C 0.79602 0.12565 0.45882 0.0
C590 C 0.79309 0.11023 0.48205 0.0
H591 H 0.82688 0.12848 0.44791 0.0
H592 H 0.72229 0.06665 0.6082 0.0
H593 H 0.74363 0.10301 0.56939 0.0
H594 H 0.76974 0.97876 0.5481 0.0
H595 H 0.7505 0.94352 0.58742 0.0
H596 H 0.78836 0.04932 0.51987 0.0
H597 H 0.72293 0.09855 0.53211 0.0
H598 H 0.68636 0.11558 0.49853 0.0
H599 H 0.69094 0.14164 0.45847 0.0
C600 C 0.58811 0.72833 0.79582 0.0
C601 C 0.61402 0.7738 0.78217 0.0
C602 C 0.60334 0.72789 0.81863 0.0
C603 C 0.64541 0.77288 0.82833 0.0
C604 C 0.67079 0.81845 0.81474 0.0
C605 C 0.65541 0.81895 0.79195 0.0
C606 C 0.66331 0.7745 0.85258 0.0
C607 C 0.65206 0.73161 0.86514 0.0
C608 C 0.67082 0.73293 0.88918 0.0
C609 C 0.6688 0.68781 0.89795 0.0
C610 C 0.68582 0.68687 0.92034 0.0
C611 C 0.70518 0.73107 0.93465 0.0
H612 H 0.69022 0.81207 0.89802 0.0
C613 C 0.70664 0.77608 0.92605 0.0
C614 C 0.68943 0.77699 0.90365 0.0
H615 H 0.72051 0.8105 0.93677 0.0
H616 H 0.55568 0.69294 0.78897 0.0
H617 H 0.58137 0.69235 0.82856 0.0
H618 H 0.70298 0.85386 0.82172 0.0
H619 H 0.67618 0.85472 0.78199 0.0
H620 H 0.68875 0.81288 0.85979 0.0
H621 H 0.63003 0.6934 0.85723 0.0
H622 H 0.65446 0.65315 0.88735 0.0
H623 H 0.6847 0.65172 0.92627 0.0
C624 C -0.00834 0.75825 0.25171 0.0
C625 C -0.01333 0.71959 0.26733 0.0
C626 C 0.97181 0.74502 0.22924 0.0
C627 C 0.94603 0.69258 0.22189 0.0
C628 C 0.94108 0.65411 0.23757 0.0
C629 C 0.96103 0.66734 0.25996 0.0
C630 C 0.9253 0.67604 0.19798 0.0
C631 C 0.91834 0.70606 0.18252 0.0
C632 C 0.89724 0.68782 0.15879 0.0
C633 C 0.8736 0.71173 0.14709 0.0
C634 C 0.85241 0.69484 0.12502 0.0
C635 C 0.85463 0.65373 0.11409 0.0
H636 H 0.92071 0.62978 0.15531 0.0
C637 C 0.87973 0.63094 0.12549 0.0
C638 C 0.90099 0.64789 0.14746 0.0
H639 H 0.88298 0.59976 0.11747 0.0
H640 H 0.01199 0.799 0.25668 0.0
H641 H 0.97787 0.77627 0.2177 0.0
H642 H 0.92164 0.61341 0.23249 0.0
H643 H 0.95597 0.63647 0.27157 0.0
H644 H 0.91355 0.63617 0.19332 0.0
H645 H 0.92589 0.74445 0.18756 0.0
H646 H 0.87072 0.74304 0.15521 0.0
H647 H 0.83354 0.71341 0.11672 0.0
C648 C 0.25912 -0.00211 0.58059 0.0
C649 C 0.2191 0.9831 0.59697 0.0
C650 C 0.24947 0.97244 0.55924 0.0
C651 C 0.19948 0.93125 0.55376 0.0
C652 C 0.15934 0.91709 0.56994 0.0
C653 C 0.16901 0.94244 0.59133 0.0
C654 C 0.18765 0.90354 0.53109 0.0
C655 C 0.22344 0.89915 0.5186 0.0
C656 C 0.21411 0.87315 0.49558 0.0
C657 C 0.25177 0.86266 0.4869 0.0
C658 C 0.24769 0.84256 0.46469 0.0
C659 C 0.20573 0.83233 0.45039 0.0
H660 H 0.14159 0.86972 0.48728 0.0
C661 C 0.16696 0.84112 0.45923 0.0
C662 C 0.17115 0.86151 0.48156 0.0
H663 H 0.13438 0.83416 0.44862 0.0
H664 H 0.29786 0.02988 0.58406 0.0
H665 H 0.28112 0.98601 0.54695 0.0
H666 H 0.12039 0.88585 0.56615 0.0
H667 H 0.13729 0.92967 0.60356 0.0
H668 H 0.14785 0.8846 0.5252 0.0
H669 H 0.26193 0.91458 0.52578 0.0
H670 H 0.2853 0.87112 0.49718 0.0
H671 H 0.27838 0.83637 0.45855 0.0
loop_
_geom_bond_atom_site_label_1
_geom_bond_atom_site_label_2
_geom_bond_distance
_geom_bond_site_symmetry_2
_ccdc_geom_bond_type
Ho0 C3 2.811 . S
Ho0 O20 2.322 . S
Ho0 O22 2.378 . S
Ho0 O23 2.524 . S
Ho0 O24 2.381 . S
Ho0 O25 2.669 . S
Ho0 O27 2.346 . S
Ho0 O31 2.305 . S
Ho1 C12 2.811 1_554 S
Ho1 O21 2.346 . S
Ho1 O25 2.305 . S
Ho1 O26 2.322 1_554 S
Ho1 O28 2.378 1_554 S
Ho1 O29 2.524 1_554 S
Ho1 O30 2.381 . S
Ho1 O31 2.669 . S
C2 O20 1.259 . S
C2 O21 1.268 . S
C3 Ho0 2.811 . S
C3 C4 1.488 . S
C3 O22 1.215 . S
C3 O23 1.289 . S
C4 C3 1.488 . S
C4 C5 1.348 . S
C4 C9 1.413 . S
C5 C4 1.348 . S
C5 C6 1.442 . S
C5 H32 0.930 . S
C6 C5 1.442 . S
C6 C7 1.381 . S
C6 H33 0.931 . S
C7 C6 1.381 . S
C7 C8 1.321 . S
C8 C7 1.321 . S
C8 C9 1.403 . S
C8 H34 0.934 . S
C9 C4 1.413 . S
C9 C8 1.403 . S
C9 H35 0.930 . S
C10 O24 1.275 . S
C10 O25 1.256 . S
C11 O26 1.259 . S
C11 O27 1.268 1_556 S
C12 Ho1 2.811 1_556 S
C12 C13 1.488 . S
C12 O28 1.215 . S
C12 O29 1.289 . S
C13 C12 1.488 . S
C13 C14 1.348 . S
C13 C18 1.413 . S
C14 C13 1.348 . S
C14 C15 1.442 . S
C14 H36 0.930 . S
C15 C14 1.442 . S
C15 C16 1.381 . S
C15 H37 0.931 . S
C16 C15 1.381 . S
C16 C17 1.321 . S
C17 C16 1.321 . S
C17 C18 1.403 . S
C17 H38 0.934 . S
C18 C13 1.413 . S
C18 C17 1.403 . S
C18 H39 0.930 . S
C19 O30 1.275 . S
C19 O31 1.256 . S
O20 Ho0 2.322 . S
O20 C2 1.259 . S
O21 Ho1 2.346 . S
O21 C2 1.268 . S
O22 Ho0 2.378 . S
O22 C3 1.215 . S
O23 Ho0 2.524 . S
O23 C3 1.289 . S
O24 Ho0 2.381 . S
O24 C10 1.275 . S
O25 Ho0 2.669 . S
O25 Ho1 2.305 . S
O25 C10 1.256 . S
O26 Ho1 2.322 1_556 S
O26 C11 1.259 . S
O27 Ho0 2.346 . S
O27 C11 1.268 1_554 S
O28 Ho1 2.378 1_556 S
O28 C12 1.215 . S
O29 Ho1 2.524 1_556 S
O29 C12 1.289 . S
O30 Ho1 2.381 . S
O30 C19 1.275 . S
O31 Ho0 2.305 . S
O31 Ho1 2.669 . S
O31 C19 1.256 . S
H32 C5 0.930 . S
H33 C6 0.931 . S
H34 C8 0.934 . S
H35 C9 0.930 . S
H36 C14 0.930 . S
H37 C15 0.931 . S
H38 C17 0.934 . S
H39 C18 0.930 . S
Ho40 C43 2.811 . S
Ho40 O60 2.322 . S
Ho40 O62 2.378 . S
Ho40 O63 2.524 . S
Ho40 O64 2.381 . S
Ho40 O65 2.669 . S
Ho40 O67 2.346 . S
Ho40 O71 2.305 . S
Ho41 C52 2.811 . S
Ho41 O61 2.346 . S
Ho41 O65 2.305 . S
Ho41 O66 2.322 . S
Ho41 O68 2.378 . S
Ho41 O69 2.524 . S
Ho41 O70 2.381 . S
Ho41 O71 2.669 . S
C42 O60 1.259 . S
C42 O61 1.268 . S
C43 Ho40 2.811 . S
C43 C44 1.488 . S
C43 O62 1.215 . S
C43 O63 1.289 . S
C44 C43 1.488 . S
C44 C45 1.348 . S
C44 C49 1.413 . S
C45 C44 1.348 . S
C45 C46 1.442 . S
C45 H72 0.930 . S
C46 C45 1.442 . S
C46 C47 1.381 . S
C46 H73 0.931 . S
C47 C46 1.381 . S
C47 C48 1.321 . S
C48 C47 1.321 . S
C48 C49 1.403 . S
C48 H74 0.934 . S
C49 C44 1.413 . S
C49 C48 1.403 . S
C49 H75 0.930 . S
C50 O64 1.275 . S
C50 O65 1.256 . S
C51 O66 1.259 . S
C51 O67 1.268 . S
C52 Ho41 2.811 . S
C52 C53 1.488 . S
C52 O68 1.215 . S
C52 O69 1.289 . S
C53 C52 1.488 . S
C53 C54 1.348 . S
C53 C58 1.413 . S
C54 C53 1.348 . S
C54 C55 1.442 . S
C54 H76 0.930 . S
C55 C54 1.442 . S
C55 C56 1.381 . S
C55 H77 0.931 . S
C56 C55 1.381 . S
C56 C57 1.321 . S
C57 C56 1.321 . S
C57 C58 1.403 . S
C57 H78 0.934 . S
C58 C53 1.413 . S
C58 C57 1.403 . S
C58 H79 0.930 . S
C59 O70 1.275 . S
C59 O71 1.256 . S
O60 Ho40 2.322 . S
O60 C42 1.259 . S
O61 Ho41 2.346 . S
O61 C42 1.268 . S
O62 Ho40 2.378 . S
O62 C43 1.215 . S
O63 Ho40 2.524 . S
O63 C43 1.289 . S
O64 Ho40 2.381 . S
O64 C50 1.275 . S
O65 Ho40 2.669 . S
O65 Ho41 2.305 . S
O65 C50 1.256 . S
O66 Ho41 2.322 . S
O66 C51 1.259 . S
O67 Ho40 2.346 . S
O67 C51 1.268 . S
O68 Ho41 2.378 . S
O68 C52 1.215 . S
O69 Ho41 2.524 . S
O69 C52 1.289 . S
O70 Ho41 2.381 . S
O70 C59 1.275 . S
O71 Ho40 2.305 . S
O71 Ho41 2.669 . S
O71 C59 1.256 . S
H72 C45 0.930 . S
H73 C46 0.931 . S
H74 C48 0.934 . S
H75 C49 0.930 . S
H76 C54 0.930 . S
H77 C55 0.931 . S
H78 C57 0.934 . S
H79 C58 0.930 . S
Ho80 C83 2.811 . S
Ho80 O100 2.322 . S
Ho80 O102 2.378 . S
Ho80 O103 2.524 . S
Ho80 O104 2.381 . S
Ho80 O105 2.669 . S
Ho80 O107 2.346 . S
Ho80 O111 2.305 . S
Ho81 C92 2.811 . S
Ho81 O101 2.346 . S
Ho81 O105 2.305 . S
Ho81 O106 2.322 . S
Ho81 O108 2.378 . S
Ho81 O109 2.524 . S
Ho81 O110 2.381 . S
Ho81 O111 2.669 . S
C82 O100 1.259 . S
C82 O101 1.268 . S
C83 Ho80 2.811 . S
C83 C84 1.488 . S
C83 O102 1.215 . S
C83 O103 1.289 . S
C84 C83 1.488 . S
C84 C85 1.348 . S
C84 C89 1.413 . S
C85 C84 1.348 . S
C85 C86 1.442 . S
C85 H112 0.930 . S
C86 C85 1.442 . S
C86 C87 1.381 . S
C86 H113 0.931 . S
C87 C86 1.381 . S
C87 C88 1.321 . S
C88 C87 1.321 . S
C88 C89 1.403 . S
C88 H114 0.934 . S
C89 C84 1.413 . S
C89 C88 1.403 . S
C89 H115 0.930 . S
C90 O104 1.275 . S
C90 O105 1.256 . S
C91 O106 1.259 . S
C91 O107 1.268 . S
C92 Ho81 2.811 . S
C92 C93 1.488 . S
C92 O108 1.215 . S
C92 O109 1.289 . S
C93 C92 1.488 . S
C93 C94 1.348 . S
C93 C98 1.413 . S
C94 C93 1.348 . S
C94 C95 1.442 . S
C94 H116 0.930 . S
C95 C94 1.442 . S
C95 C96 1.381 . S
C95 H117 0.931 . S
C96 C95 1.381 . S
C96 C97 1.321 . S
C97 C96 1.321 . S
C97 C98 1.403 . S
C97 H118 0.934 . S
C98 C93 1.413 . S
C98 C97 1.403 . S
C98 H119 0.930 . S
C99 O110 1.275 . S
C99 O111 1.256 . S
O100 Ho80 2.322 . S
O100 C82 1.259 . S
O101 Ho81 2.346 . S
O101 C82 1.268 . S
O102 Ho80 2.378 . S
O102 C83 1.215 . S
O103 Ho80 2.524 . S
O103 C83 1.289 . S
O104 Ho80 2.381 . S
O104 C90 1.275 . S
O105 Ho80 2.669 . S
O105 Ho81 2.305 . S
O105 C90 1.256 . S
O106 Ho81 2.322 . S
O106 C91 1.259 . S
O107 Ho80 2.346 . S
O107 C91 1.268 . S
O108 Ho81 2.378 . S
O108 C92 1.215 . S
O109 Ho81 2.524 . S
O109 C92 1.289 . S
O110 Ho81 2.381 . S
O110 C99 1.275 . S
O111 Ho80 2.305 . S
O111 Ho81 2.669 . S
O111 C99 1.256 . S
H112 C85 0.930 . S
H113 C86 0.931 . S
H114 C88 0.934 . S
H115 C89 0.930 . S
H116 C94 0.930 . S
H117 C95 0.931 . S
H118 C97 0.934 . S
H119 C98 0.930 . S
Ho120 C123 2.811 . S
Ho120 O140 2.322 . S
Ho120 O142 2.378 . S
Ho120 O143 2.524 . S
Ho120 O144 2.381 . S
Ho120 O145 2.669 . S
Ho120 O147 2.346 . S
Ho120 O151 2.305 . S
Ho121 C132 2.811 1_554 S
Ho121 O141 2.346 . S
Ho121 O145 2.305 . S
Ho121 O146 2.322 1_554 S
Ho121 O148 2.378 1_554 S
Ho121 O149 2.524 1_554 S
Ho121 O150 2.381 . S
Ho121 O151 2.669 . S
C122 O140 1.259 . S
C122 O141 1.268 . S
C123 Ho120 2.811 . S
C123 C124 1.488 . S
C123 O142 1.215 . S
C123 O143 1.289 . S
C124 C123 1.488 . S
C124 C125 1.348 . S
C124 C129 1.413 . S
C125 C124 1.348 . S
C125 C126 1.442 . S
C125 H152 0.930 . S
C126 C125 1.442 . S
C126 C127 1.381 . S
C126 H153 0.931 . S
C127 C126 1.381 . S
C127 C128 1.321 . S
C128 C127 1.321 . S
C128 C129 1.403 . S
C128 H154 0.934 . S
C129 C124 1.413 . S
C129 C128 1.403 . S
C129 H155 0.930 . S
C130 O144 1.275 . S
C130 O145 1.256 . S
C131 O146 1.259 . S
C131 O147 1.268 1_556 S
C132 Ho121 2.811 1_556 S
C132 C133 1.488 . S
C132 O148 1.215 . S
C132 O149 1.289 . S
C133 C132 1.488 . S
C133 C134 1.348 . S
C133 C138 1.413 . S
C134 C133 1.348 . S
C134 C135 1.442 . S
C134 H156 0.930 . S
C135 C134 1.442 . S
C135 C136 1.381 . S
C135 H157 0.931 . S
C136 C135 1.381 . S
C136 C137 1.321 . S
C137 C136 1.321 . S
C137 C138 1.403 . S
C137 H158 0.934 . S
C138 C133 1.413 . S
C138 C137 1.403 . S
C138 H159 0.930 . S
C139 O150 1.275 . S
C139 O151 1.256 . S
O140 Ho120 2.322 . S
O140 C122 1.259 . S
O141 Ho121 2.346 . S
O141 C122 1.268 . S
O142 Ho120 2.378 . S
O142 C123 1.215 . S
O143 Ho120 2.524 . S
O143 C123 1.289 . S
O144 Ho120 2.381 . S
O144 C130 1.275 . S
O145 Ho120 2.669 . S
O145 Ho121 2.305 . S
O145 C130 1.256 . S
O146 Ho121 2.322 1_556 S
O146 C131 1.259 . S
O147 Ho120 2.346 . S
O147 C131 1.268 1_554 S
O148 Ho121 2.378 1_556 S
O148 C132 1.215 . S
O149 Ho121 2.524 1_556 S
O149 C132 1.289 . S
O150 Ho121 2.381 . S
O150 C139 1.275 . S
O151 Ho120 2.305 . S
O151 Ho121 2.669 . S
O151 C139 1.256 . S
H152 C125 0.930 . S
H153 C126 0.931 . S
H154 C128 0.934 . S
H155 C129 0.930 . S
H156 C134 0.930 . S
H157 C135 0.931 . S
H158 C137 0.934 . S
H159 C138 0.930 . S
Ho160 C163 2.811 . S
Ho160 O180 2.322 . S
Ho160 O182 2.378 . S
Ho160 O183 2.524 . S
Ho160 O184 2.381 . S
Ho160 O185 2.669 . S
Ho160 O187 2.346 . S
Ho160 O191 2.305 . S
Ho161 C172 2.811 . S
Ho161 O181 2.346 . S
Ho161 O185 2.305 . S
Ho161 O186 2.322 . S
Ho161 O188 2.378 . S
Ho161 O189 2.524 . S
Ho161 O190 2.381 . S
Ho161 O191 2.669 . S
C162 O180 1.259 . S
C162 O181 1.268 . S
C163 Ho160 2.811 . S
C163 C164 1.488 . S
C163 O182 1.215 . S
C163 O183 1.289 . S
C164 C163 1.488 . S
C164 C165 1.348 . S
C164 C169 1.413 . S
C165 C164 1.348 . S
C165 C166 1.442 . S
C165 H192 0.930 . S
C166 C165 1.442 . S
C166 C167 1.381 . S
C166 H193 0.931 . S
C167 C166 1.381 . S
C167 C168 1.321 . S
C168 C167 1.321 . S
C168 C169 1.403 . S
C168 H194 0.934 . S
C169 C164 1.413 . S
C169 C168 1.403 . S
C169 H195 0.930 . S
C170 O184 1.275 . S
C170 O185 1.256 . S
C171 O186 1.259 . S
C171 O187 1.268 . S
C172 Ho161 2.811 . S
C172 C173 1.488 . S
C172 O188 1.215 . S
C172 O189 1.289 . S
C173 C172 1.488 . S
C173 C174 1.348 . S
C173 C178 1.413 . S
C174 C173 1.348 . S
C174 C175 1.442 . S
C174 H196 0.930 . S
C175 C174 1.442 . S
C175 C176 1.381 . S
C175 H197 0.931 . S
C176 C175 1.381 . S
C176 C177 1.321 . S
C177 C176 1.321 . S
C177 C178 1.403 . S
C177 H198 0.934 . S
C178 C173 1.413 . S
C178 C177 1.403 . S
C178 H199 0.930 . S
C179 O190 1.275 . S
C179 O191 1.256 . S
O180 Ho160 2.322 . S
O180 C162 1.259 . S
O181 Ho161 2.346 . S
O181 C162 1.268 . S
O182 Ho160 2.378 . S
O182 C163 1.215 . S
O183 Ho160 2.524 . S
O183 C163 1.289 . S
O184 Ho160 2.381 . S
O184 C170 1.275 . S
O185 Ho160 2.669 . S
O185 Ho161 2.305 . S
O185 C170 1.256 . S
O186 Ho161 2.322 . S
O186 C171 1.259 . S
O187 Ho160 2.346 . S
O187 C171 1.268 . S
O188 Ho161 2.378 . S
O188 C172 1.215 . S
O189 Ho161 2.524 . S
O189 C172 1.289 . S
O190 Ho161 2.381 . S
O190 C179 1.275 . S
O191 Ho160 2.305 . S
O191 Ho161 2.669 . S
O191 C179 1.256 . S
H192 C165 0.930 . S
H193 C166 0.931 . S
H194 C168 0.934 . S
H195 C169 0.930 . S
H196 C174 0.930 . S
H197 C175 0.931 . S
H198 C177 0.934 . S
H199 C178 0.930 . S
Ho200 C203 2.811 . S
Ho200 O220 2.322 . S
Ho200 O222 2.378 . S
Ho200 O223 2.524 . S
Ho200 O224 2.381 . S
Ho200 O225 2.669 . S
Ho200 O227 2.346 . S
Ho200 O231 2.305 . S
Ho201 C212 2.811 . S
Ho201 O221 2.346 . S
Ho201 O225 2.305 . S
Ho201 O226 2.322 . S
Ho201 O228 2.378 . S
Ho201 O229 2.524 . S
Ho201 O230 2.381 . S
Ho201 O231 2.669 . S
C202 O220 1.259 . S
C202 O221 1.268 . S
C203 Ho200 2.811 . S
C203 C204 1.488 . S
C203 O222 1.215 . S
C203 O223 1.289 . S
C204 C203 1.488 . S
C204 C205 1.348 . S
C204 C209 1.413 . S
C205 C204 1.348 . S
C205 C206 1.442 . S
C205 H232 0.930 . S
C206 C205 1.442 . S
C206 C207 1.381 . S
C206 H233 0.931 . S
C207 C206 1.381 . S
C207 C208 1.321 . S
C208 C207 1.321 . S
C208 C209 1.403 . S
C208 H234 0.934 . S
C209 C204 1.413 . S
C209 C208 1.403 . S
C209 H235 0.930 . S
C210 O224 1.275 . S
C210 O225 1.256 . S
C211 O226 1.259 . S
C211 O227 1.268 . S
C212 Ho201 2.811 . S
C212 C213 1.488 . S
C212 O228 1.215 . S
C212 O229 1.289 . S
C213 C212 1.488 . S
C213 C214 1.348 . S
C213 C218 1.413 . S
C214 C213 1.348 . S
C214 C215 1.442 . S
C214 H236 0.930 . S
C215 C214 1.442 . S
C215 C216 1.381 . S
C215 H237 0.931 . S
C216 C215 1.381 . S
C216 C217 1.321 . S
C217 C216 1.321 . S
C217 C218 1.403 . S
C217 H238 0.934 . S
C218 C213 1.413 . S
C218 C217 1.403 . S
C218 H239 0.930 . S
C219 O230 1.275 . S
C219 O231 1.256 . S
O220 Ho200 2.322 . S
O220 C202 1.259 . S
O221 Ho201 2.346 . S
O221 C202 1.268 . S
O222 Ho200 2.378 . S
O222 C203 1.215 . S
O223 Ho200 2.524 . S
O223 C203 1.289 . S
O224 Ho200 2.381 . S
O224 C210 1.275 . S
O225 Ho200 2.669 . S
O225 Ho201 2.305 . S
O225 C210 1.256 . S
O226 Ho201 2.322 . S
O226 C211 1.259 . S
O227 Ho200 2.346 . S
O227 C211 1.268 . S
O228 Ho201 2.378 . S
O228 C212 1.215 . S
O229 Ho201 2.524 . S
O229 C212 1.289 . S
O230 Ho201 2.381 . S
O230 C219 1.275 . S
O231 Ho200 2.305 . S
O231 Ho201 2.669 . S
O231 C219 1.256 . S
H232 C205 0.930 . S
H233 C206 0.931 . S
H234 C208 0.934 . S
H235 C209 0.930 . S
H236 C214 0.930 . S
H237 C215 0.931 . S
H238 C217 0.934 . S
H239 C218 0.930 . S
C240 C241 1.386 . S
C240 C242 1.383 . S
C240 H256 0.951 . S
C241 C240 1.386 . S
C241 C245 1.383 . S
C242 C240 1.383 . S
C242 C243 1.402 . S
C242 H257 0.951 . S
C243 C242 1.402 . S
C243 C244 1.375 . S
C243 C246 1.481 . S
C244 C243 1.375 . S
C244 C245 1.367 . S
C244 H258 0.951 . S
C245 C241 1.383 . S
C245 C244 1.367 . S
C245 H259 0.950 . S
C246 C243 1.481 . S
C246 C247 1.297 . S
C246 H260 0.950 . S
C247 C246 1.297 . S
C247 C248 1.479 . S
C247 H261 0.950 . S
C248 C247 1.479 . S
C248 C249 1.375 . S
C248 C254 1.404 . S
C249 C248 1.375 . S
C249 C250 1.369 . S
C249 H262 0.950 . S
C250 C249 1.369 . S
C250 C251 1.392 . S
C250 H263 0.951 . S
C251 C250 1.392 . S
C251 C253 1.384 . S
H252 C254 0.949 . S
C253 C251 1.384 . S
C253 C254 1.385 . S
C253 H255 0.950 . S
C254 C248 1.404 . S
C254 H252 0.949 . S
C254 C253 1.385 . S
H255 C253 0.950 . S
H256 C240 0.951 . S
H257 C242 0.951 . S
H258 C244 0.951 . S
H259 C245 0.950 . S
H260 C246 0.950 . S
H261 C247 0.950 . S
H262 C249 0.950 . S
H263 C250 0.951 . S
C264 C265 1.386 . S
C264 C266 1.383 . S
C264 H280 0.951 . S
C265 C264 1.386 . S
C265 C269 1.383 . S
C266 C264 1.383 . S
C266 C267 1.402 . S
C266 H281 0.951 . S
C267 C266 1.402 . S
C267 C268 1.375 . S
C267 C270 1.481 . S
C268 C267 1.375 . S
C268 C269 1.367 . S
C268 H282 0.951 . S
C269 C265 1.383 . S
C269 C268 1.367 . S
C269 H283 0.950 . S
C270 C267 1.481 . S
C270 C271 1.297 . S
C270 H284 0.950 . S
C271 C270 1.297 . S
C271 C272 1.479 . S
C271 H285 0.950 . S
C272 C271 1.479 . S
C272 C273 1.375 . S
C272 C278 1.404 . S
C273 C272 1.375 . S
C273 C274 1.369 . S
C273 H286 0.950 . S
C274 C273 1.369 . S
C274 C275 1.392 . S
C274 H287 0.951 . S
C275 C274 1.392 . S
C275 C277 1.384 . S
H276 C278 0.949 . S
C277 C275 1.384 . S
C277 C278 1.385 . S
C277 H279 0.950 . S
C278 C272 1.404 . S
C278 H276 0.949 . S
C278 C277 1.385 . S
H279 C277 0.950 . S
H280 C264 0.951 . S
H281 C266 0.951 . S
H282 C268 0.951 . S
H283 C269 0.950 . S
H284 C270 0.950 . S
H285 C271 0.950 . S
H286 C273 0.950 . S
H287 C274 0.951 . S
C288 C289 1.386 . S
C288 C290 1.383 . S
C288 H304 0.951 . S
C289 C288 1.386 . S
C289 C293 1.383 . S
C290 C288 1.383 . S
C290 C291 1.402 . S
C290 H305 0.951 . S
C291 C290 1.402 . S
C291 C292 1.375 . S
C291 C294 1.481 . S
C292 C291 1.375 . S
C292 C293 1.367 . S
C292 H306 0.951 . S
C293 C289 1.383 . S
C293 C292 1.367 . S
C293 H307 0.950 . S
C294 C291 1.481 . S
C294 C295 1.297 . S
C294 H308 0.950 . S
C295 C294 1.297 . S
C295 C296 1.479 . S
C295 H309 0.950 . S
C296 C295 1.479 . S
C296 C297 1.375 . S
C296 C302 1.404 . S
C297 C296 1.375 . S
C297 C298 1.369 . S
C297 H310 0.950 . S
C298 C297 1.369 . S
C298 C299 1.392 . S
C298 H311 0.951 . S
C299 C298 1.392 . S
C299 C301 1.384 . S
H300 C302 0.949 . S
C301 C299 1.384 . S
C301 C302 1.385 . S
C301 H303 0.950 . S
C302 C296 1.404 . S
C302 H300 0.949 . S
C302 C301 1.385 . S
H303 C301 0.950 . S
H304 C288 0.951 . S
H305 C290 0.951 . S
H306 C292 0.951 . S
H307 C293 0.950 . S
H308 C294 0.950 . S
H309 C295 0.950 . S
H310 C297 0.950 . S
H311 C298 0.951 . S
C312 C313 1.386 . S
C312 C314 1.383 . S
C312 H328 0.951 . S
C313 C312 1.386 . S
C313 C317 1.383 . S
C314 C312 1.383 . S
C314 C315 1.402 . S
C314 H329 0.951 . S
C315 C314 1.402 . S
C315 C316 1.375 . S
C315 C318 1.481 . S
C316 C315 1.375 . S
C316 C317 1.367 . S
C316 H330 0.951 . S
C317 C313 1.383 . S
C317 C316 1.367 . S
C317 H331 0.950 . S
C318 C315 1.481 . S
C318 C319 1.297 . S
C318 H332 0.950 . S
C319 C318 1.297 . S
C319 C320 1.479 . S
C319 H333 0.950 . S
C320 C319 1.479 . S
C320 C321 1.375 . S
C320 C326 1.404 . S
C321 C320 1.375 . S
C321 C322 1.369 . S
C321 H334 0.950 . S
C322 C321 1.369 . S
C322 C323 1.392 . S
C322 H335 0.951 . S
C323 C322 1.392 . S
C323 C325 1.384 . S
H324 C326 0.949 . S
C325 C323 1.384 . S
C325 C326 1.385 . S
C325 H327 0.950 . S
C326 C320 1.404 . S
C326 H324 0.949 . S
C326 C325 1.385 . S
H327 C325 0.950 . S
H328 C312 0.951 . S
H329 C314 0.951 . S
H330 C316 0.951 . S
H331 C317 0.950 . S
H332 C318 0.950 . S
H333 C319 0.950 . S
H334 C321 0.950 . S
H335 C322 0.951 . S
C336 C337 1.386 . S
C336 C338 1.383 . S
C336 H352 0.951 . S
C337 C336 1.386 . S
C337 C341 1.383 . S
C338 C336 1.383 . S
C338 C339 1.402 . S
C338 H353 0.951 . S
C339 C338 1.402 . S
C339 C340 1.375 . S
C339 C342 1.481 . S
C340 C339 1.375 . S
C340 C341 1.367 . S
C340 H354 0.951 . S
C341 C337 1.383 . S
C341 C340 1.367 . S
C341 H355 0.950 . S
C342 C339 1.481 . S
C342 C343 1.297 . S
C342 H356 0.950 . S
C343 C342 1.297 . S
C343 C344 1.479 . S
C343 H357 0.950 . S
C344 C343 1.479 . S
C344 C345 1.375 . S
C344 C350 1.404 . S
C345 C344 1.375 . S
C345 C346 1.369 . S
C345 H358 0.950 . S
C346 C345 1.369 . S
C346 C347 1.392 . S
C346 H359 0.951 . S
C347 C346 1.392 . S
C347 C349 1.384 . S
H348 C350 0.949 . S
C349 C347 1.384 . S
C349 C350 1.385 . S
C349 H351 0.950 . S
C350 C344 1.404 . S
C350 H348 0.949 . S
C350 C349 1.385 . S
H351 C349 0.950 . S
H352 C336 0.951 . S
H353 C338 0.951 . S
H354 C340 0.951 . S
H355 C341 0.950 . S
H356 C342 0.950 . S
H357 C343 0.950 . S
H358 C345 0.950 . S
H359 C346 0.951 . S
C360 C361 1.386 . S
C360 C362 1.383 . S
C360 H376 0.951 . S
C361 C360 1.386 . S
C361 C365 1.383 . S
C362 C360 1.383 . S
C362 C363 1.402 . S
C362 H377 0.951 . S
C363 C362 1.402 . S
C363 C364 1.375 . S
C363 C366 1.481 . S
C364 C363 1.375 . S
C364 C365 1.367 . S
C364 H378 0.951 . S
C365 C361 1.383 . S
C365 C364 1.367 . S
C365 H379 0.950 . S
C366 C363 1.481 . S
C366 C367 1.297 . S
C366 H380 0.950 . S
C367 C366 1.297 . S
C367 C368 1.479 . S
C367 H381 0.950 . S
C368 C367 1.479 . S
C368 C369 1.375 . S
C368 C374 1.404 . S
C369 C368 1.375 . S
C369 C370 1.369 . S
C369 H382 0.950 . S
C370 C369 1.369 . S
C370 C371 1.392 . S
C370 H383 0.951 . S
C371 C370 1.392 . S
C371 C373 1.384 . S
H372 C374 0.949 . S
C373 C371 1.384 . S
C373 C374 1.385 . S
C373 H375 0.950 . S
C374 C368 1.404 . S
C374 H372 0.949 . S
C374 C373 1.385 . S
H375 C373 0.950 . S
H376 C360 0.951 . S
H377 C362 0.951 . S
H378 C364 0.951 . S
H379 C365 0.950 . S
H380 C366 0.950 . S
H381 C367 0.950 . S
H382 C369 0.950 . S
H383 C370 0.951 . S
C384 C385 1.386 . S
C384 C386 1.383 . S
C384 H400 0.951 . S
C385 C384 1.386 . S
C385 C389 1.383 . S
C386 C384 1.383 . S
C386 C387 1.402 . S
C386 H401 0.951 . S
C387 C386 1.402 . S
C387 C388 1.375 . S
C387 C390 1.481 . S
C388 C387 1.375 . S
C388 C389 1.367 . S
C388 H402 0.951 . S
C389 C385 1.383 . S
C389 C388 1.367 . S
C389 H403 0.950 . S
C390 C387 1.481 . S
C390 C391 1.297 . S
C390 H404 0.950 . S
C391 C390 1.297 . S
C391 C392 1.479 . S
C391 H405 0.950 . S
C392 C391 1.479 . S
C392 C393 1.375 . S
C392 C398 1.404 . S
C393 C392 1.375 . S
C393 C394 1.369 . S
C393 H406 0.950 . S
C394 C393 1.369 . S
C394 C395 1.392 . S
C394 H407 0.951 . S
C395 C394 1.392 . S
C395 C397 1.384 . S
H396 C398 0.949 . S
C397 C395 1.384 . S
C397 C398 1.385 . S
C397 H399 0.950 . S
C398 C392 1.404 . S
C398 H396 0.949 . S
C398 C397 1.385 . S
H399 C397 0.950 . S
H400 C384 0.951 . S
H401 C386 0.951 . S
H402 C388 0.951 . S
H403 C389 0.950 . S
H404 C390 0.950 . S
H405 C391 0.950 . S
H406 C393 0.950 . S
H407 C394 0.951 . S
C408 C409 1.386 . S
C408 C410 1.383 . S
C408 H424 0.951 . S
C409 C408 1.386 . S
C409 C413 1.383 . S
C410 C408 1.383 . S
C410 C411 1.402 . S
C410 H425 0.951 1_455 S
C411 C410 1.402 . S
C411 C412 1.375 . S
C411 C414 1.481 . S
C412 C411 1.375 . S
C412 C413 1.367 . S
C412 H426 0.951 . S
C413 C409 1.383 . S
C413 C412 1.367 . S
C413 H427 0.950 . S
C414 C411 1.481 . S
C414 C415 1.297 1_455 S
C414 H428 0.950 . S
C415 C414 1.297 1_655 S
C415 C416 1.479 . S
C415 H429 0.950 . S
C416 C415 1.479 . S
C416 C417 1.375 . S
C416 C422 1.404 . S
C417 C416 1.375 . S
C417 C418 1.369 . S
C417 H430 0.950 . S
C418 C417 1.369 . S
C418 C419 1.392 . S
C418 H431 0.951 . S
C419 C418 1.392 . S
C419 C421 1.384 . S
H420 C422 0.949 1_455 S
C421 C419 1.384 . S
C421 C422 1.385 . S
C421 H423 0.950 . S
C422 C416 1.404 . S
C422 H420 0.949 1_655 S
C422 C421 1.385 . S
H423 C421 0.950 . S
H424 C408 0.951 . S
H425 C410 0.951 1_655 S
H426 C412 0.951 . S
H427 C413 0.950 . S
H428 C414 0.950 . S
H429 C415 0.950 . S
H430 C417 0.950 . S
H431 C418 0.951 . S
C432 C433 1.386 . S
C432 C434 1.383 . S
C432 H448 0.951 . S
C433 C432 1.386 . S
C433 C437 1.383 . S
C434 C432 1.383 . S
C434 C435 1.402 . S
C434 H449 0.951 . S
C435 C434 1.402 . S
C435 C436 1.375 . S
C435 C438 1.481 . S
C436 C435 1.375 . S
C436 C437 1.367 . S
C436 H450 0.951 . S
C437 C433 1.383 . S
C437 C436 1.367 . S
C437 H451 0.950 . S
C438 C435 1.481 . S
C438 C439 1.297 1_545 S
C438 H452 0.950 . S
C439 C438 1.297 1_565 S
C439 C440 1.479 . S
C439 H453 0.950 . S
C440 C439 1.479 . S
C440 C441 1.375 . S
C440 C446 1.404 . S
C441 C440 1.375 . S
C441 C442 1.369 . S
C441 H454 0.950 . S
C442 C441 1.369 . S
C442 C443 1.392 . S
C442 H455 0.951 . S
C443 C442 1.392 . S
C443 C445 1.384 . S
H444 C446 0.949 . S
C445 C443 1.384 . S
C445 C446 1.385 . S
C445 H447 0.950 . S
C446 C440 1.404 . S
C446 H444 0.949 . S
C446 C445 1.385 . S
H447 C445 0.950 . S
H448 C432 0.951 . S
H449 C434 0.951 . S
H450 C436 0.951 . S
H451 C437 0.950 . S
H452 C438 0.950 . S
H453 C439 0.950 . S
H454 C441 0.950 . S
H455 C442 0.951 . S
C456 C457 1.386 . S
C456 C458 1.383 . S
C456 H472 0.951 . S
C457 C456 1.386 . S
C457 C461 1.383 . S
C458 C456 1.383 . S
C458 C459 1.402 . S
C458 H473 0.951 . S
C459 C458 1.402 . S
C459 C460 1.375 . S
C459 C462 1.481 . S
C460 C459 1.375 . S
C460 C461 1.367 . S
C460 H474 0.951 . S
C461 C457 1.383 . S
C461 C460 1.367 . S
C461 H475 0.950 . S
C462 C459 1.481 . S
C462 C463 1.297 . S
C462 H476 0.950 . S
C463 C462 1.297 . S
C463 C464 1.479 . S
C463 H477 0.950 . S
C464 C463 1.479 . S
C464 C465 1.375 . S
C464 C470 1.404 . S
C465 C464 1.375 . S
C465 C466 1.369 . S
C465 H478 0.950 . S
C466 C465 1.369 . S
C466 C467 1.392 . S
C466 H479 0.951 . S
C467 C466 1.392 . S
C467 C469 1.384 . S
H468 C470 0.949 . S
C469 C467 1.384 . S
C469 C470 1.385 . S
C469 H471 0.950 . S
C470 C464 1.404 . S
C470 H468 0.949 . S
C470 C469 1.385 . S
H471 C469 0.950 . S
H472 C456 0.951 . S
H473 C458 0.951 . S
H474 C460 0.951 . S
H475 C461 0.950 . S
H476 C462 0.950 . S
H477 C463 0.950 . S
H478 C465 0.950 . S
H479 C466 0.951 . S
C480 C481 1.386 . S
C480 C482 1.383 . S
C480 H496 0.951 . S
C481 C480 1.386 . S
C481 C485 1.383 . S
C482 C480 1.383 . S
C482 C483 1.402 . S
C482 H497 0.951 1_455 S
C483 C482 1.402 . S
C483 C484 1.375 . S
C483 C486 1.481 . S
C484 C483 1.375 . S
C484 C485 1.367 . S
C484 H498 0.951 . S
C485 C481 1.383 . S
C485 C484 1.367 . S
C485 H499 0.950 . S
C486 C483 1.481 . S
C486 C487 1.297 1_455 S
C486 H500 0.950 . S
C487 C486 1.297 1_655 S
C487 C488 1.479 . S
C487 H501 0.950 . S
C488 C487 1.479 . S
C488 C489 1.375 . S
C488 C494 1.404 . S
C489 C488 1.375 . S
C489 C490 1.369 . S
C489 H502 0.950 . S
C490 C489 1.369 . S
C490 C491 1.392 . S
C490 H503 0.951 . S
C491 C490 1.392 . S
C491 C493 1.384 . S
H492 C494 0.949 1_455 S
C493 C491 1.384 . S
C493 C494 1.385 . S
C493 H495 0.950 . S
C494 C488 1.404 . S
C494 H492 0.949 1_655 S
C494 C493 1.385 . S
H495 C493 0.950 . S
H496 C480 0.951 . S
H497 C482 0.951 1_655 S
H498 C484 0.951 . S
H499 C485 0.950 . S
H500 C486 0.950 . S
H501 C487 0.950 . S
H502 C489 0.950 . S
H503 C490 0.951 . S
C504 C505 1.386 . S
C504 C506 1.383 . S
C504 H520 0.951 . S
C505 C504 1.386 . S
C505 C509 1.383 . S
C506 C504 1.383 . S
C506 C507 1.402 . S
C506 H521 0.951 . S
C507 C506 1.402 . S
C507 C508 1.375 . S
C507 C510 1.481 . S
C508 C507 1.375 . S
C508 C509 1.367 . S
C508 H522 0.951 . S
C509 C505 1.383 . S
C509 C508 1.367 . S
C509 H523 0.950 . S
C510 C507 1.481 . S
C510 C511 1.297 . S
C510 H524 0.950 1_565 S
C511 C510 1.297 . S
C511 C512 1.479 1_565 S
C511 H525 0.950 . S
C512 C511 1.479 1_545 S
C512 C513 1.375 . S
C512 C518 1.404 . S
C513 C512 1.375 . S
C513 C514 1.369 . S
C513 H526 0.950 1_545 S
C514 C513 1.369 . S
C514 C515 1.392 . S
C514 H527 0.951 . S
C515 C514 1.392 . S
C515 C517 1.384 . S
H516 C518 0.949 . S
C517 C515 1.384 . S
C517 C518 1.385 . S
C517 H519 0.950 . S
C518 C512 1.404 . S
C518 H516 0.949 . S
C518 C517 1.385 . S
H519 C517 0.950 . S
H520 C504 0.951 . S
H521 C506 0.951 . S
H522 C508 0.951 . S
H523 C509 0.950 . S
H524 C510 0.950 1_545 S
H525 C511 0.950 . S
H526 C513 0.950 1_565 S
H527 C514 0.951 . S
C528 C529 1.386 . S
C528 C530 1.383 . S
C528 H544 0.951 . S
C529 C528 1.386 . S
C529 C533 1.383 . S
C530 C528 1.383 . S
C530 C531 1.402 . S
C530 H545 0.951 . S
C531 C530 1.402 . S
C531 C532 1.375 . S
C531 C534 1.481 . S
C532 C531 1.375 . S
C532 C533 1.367 . S
C532 H546 0.951 . S
C533 C529 1.383 . S
C533 C532 1.367 . S
C533 H547 0.950 . S
C534 C531 1.481 . S
C534 C535 1.297 . S
C534 H548 0.950 . S
C535 C534 1.297 . S
C535 C536 1.479 . S
C535 H549 0.950 . S
C536 C535 1.479 . S
C536 C537 1.375 . S
C536 C542 1.404 . S
C537 C536 1.375 . S
C537 C538 1.369 . S
C537 H550 0.950 . S
C538 C537 1.369 . S
C538 C539 1.392 . S
C538 H551 0.951 . S
C539 C538 1.392 . S
C539 C541 1.384 . S
H540 C542 0.949 . S
C541 C539 1.384 . S
C541 C542 1.385 . S
C541 H543 0.950 . S
C542 C536 1.404 . S
C542 H540 0.949 . S
C542 C541 1.385 . S
H543 C541 0.950 . S
H544 C528 0.951 . S
H545 C530 0.951 . S
H546 C532 0.951 . S
H547 C533 0.950 . S
H548 C534 0.950 . S
H549 C535 0.950 . S
H550 C537 0.950 . S
H551 C538 0.951 . S
C552 C553 1.386 . S
C552 C554 1.383 1_655 S
C552 H568 0.951 . S
C553 C552 1.386 . S
C553 C557 1.383 . S
C554 C552 1.383 1_455 S
C554 C555 1.402 . S
C554 H569 0.951 . S
C555 C554 1.402 . S
C555 C556 1.375 . S
C555 C558 1.481 . S
C556 C555 1.375 . S
C556 C557 1.367 1_455 S
C556 H570 0.951 . S
C557 C553 1.383 . S
C557 C556 1.367 1_655 S
C557 H571 0.950 . S
C558 C555 1.481 . S
C558 C559 1.297 . S
C558 H572 0.950 . S
C559 C558 1.297 . S
C559 C560 1.479 . S
C559 H573 0.950 . S
C560 C559 1.479 . S
C560 C561 1.375 . S
C560 C566 1.404 . S
C561 C560 1.375 . S
C561 C562 1.369 . S
C561 H574 0.950 . S
C562 C561 1.369 . S
C562 C563 1.392 . S
C562 H575 0.951 . S
C563 C562 1.392 . S
C563 C565 1.384 . S
H564 C566 0.949 . S
C565 C563 1.384 . S
C565 C566 1.385 . S
C565 H567 0.950 . S
C566 C560 1.404 . S
C566 H564 0.949 . S
C566 C565 1.385 . S
H567 C565 0.950 . S
H568 C552 0.951 . S
H569 C554 0.951 . S
H570 C556 0.951 . S
H571 C557 0.950 . S
H572 C558 0.950 . S
H573 C559 0.950 . S
H574 C561 0.950 . S
H575 C562 0.951 . S
C576 C577 1.386 . S
C576 C578 1.383 1_565 S
C576 H592 0.951 . S
C577 C576 1.386 . S
C577 C581 1.383 . S
C578 C576 1.383 1_545 S
C578 C579 1.402 . S
C578 H593 0.951 . S
C579 C578 1.402 . S
C579 C580 1.375 1_545 S
C579 C582 1.481 . S
C580 C579 1.375 1_565 S
C580 C581 1.367 . S
C580 H594 0.951 . S
C581 C577 1.383 . S
C581 C580 1.367 . S
C581 H595 0.950 . S
C582 C579 1.481 . S
C582 C583 1.297 . S
C582 H596 0.950 . S
C583 C582 1.297 . S
C583 C584 1.479 . S
C583 H597 0.950 . S
C584 C583 1.479 . S
C584 C585 1.375 . S
C584 C590 1.404 . S
C585 C584 1.375 . S
C585 C586 1.369 . S
C585 H598 0.950 . S
C586 C585 1.369 . S
C586 C587 1.392 . S
C586 H599 0.951 . S
C587 C586 1.392 . S
C587 C589 1.384 . S
H588 C590 0.949 . S
C589 C587 1.384 . S
C589 C590 1.385 . S
C589 H591 0.950 . S
C590 C584 1.404 . S
C590 H588 0.949 . S
C590 C589 1.385 . S
H591 C589 0.950 . S
H592 C576 0.951 . S
H593 C578 0.951 . S
H594 C580 0.951 . S
H595 C581 0.950 . S
H596 C582 0.950 . S
H597 C583 0.950 . S
H598 C585 0.950 . S
H599 C586 0.951 . S
C600 C601 1.386 . S
C600 C602 1.383 . S
C600 H616 0.951 . S
C601 C600 1.386 . S
C601 C605 1.383 . S
C602 C600 1.383 . S
C602 C603 1.402 . S
C602 H617 0.951 . S
C603 C602 1.402 . S
C603 C604 1.375 . S
C603 C606 1.481 . S
C604 C603 1.375 . S
C604 C605 1.367 . S
C604 H618 0.951 . S
C605 C601 1.383 . S
C605 C604 1.367 . S
C605 H619 0.950 . S
C606 C603 1.481 . S
C606 C607 1.297 . S
C606 H620 0.950 . S
C607 C606 1.297 . S
C607 C608 1.479 . S
C607 H621 0.950 . S
C608 C607 1.479 . S
C608 C609 1.375 . S
C608 C614 1.404 . S
C609 C608 1.375 . S
C609 C610 1.369 . S
C609 H622 0.950 . S
C610 C609 1.369 . S
C610 C611 1.392 . S
C610 H623 0.951 . S
C611 C610 1.392 . S
C611 C613 1.384 . S
H612 C614 0.949 . S
C613 C611 1.384 . S
C613 C614 1.385 . S
C613 H615 0.950 . S
C614 C608 1.404 . S
C614 H612 0.949 . S
C614 C613 1.385 . S
H615 C613 0.950 . S
H616 C600 0.951 . S
H617 C602 0.951 . S
H618 C604 0.951 . S
H619 C605 0.950 . S
H620 C606 0.950 . S
H621 C607 0.950 . S
H622 C609 0.950 . S
H623 C610 0.951 . S
C624 C625 1.386 . S
C624 C626 1.383 . S
C624 H640 0.951 . S
C625 C624 1.386 . S
C625 C629 1.383 1_455 S
C626 C624 1.383 . S
C626 C627 1.402 1_455 S
C626 H641 0.951 . S
C627 C626 1.402 1_655 S
C627 C628 1.375 . S
C627 C630 1.481 . S
C628 C627 1.375 . S
C628 C629 1.367 . S
C628 H642 0.951 . S
C629 C625 1.383 1_655 S
C629 C628 1.367 . S
C629 H643 0.950 . S
C630 C627 1.481 . S
C630 C631 1.297 . S
C630 H644 0.950 . S
C631 C630 1.297 . S
C631 C632 1.479 . S
C631 H645 0.950 . S
C632 C631 1.479 . S
C632 C633 1.375 . S
C632 C638 1.404 . S
C633 C632 1.375 . S
C633 C634 1.369 . S
C633 H646 0.950 . S
C634 C633 1.369 . S
C634 C635 1.392 . S
C634 H647 0.951 . S
C635 C634 1.392 . S
C635 C637 1.384 . S
H636 C638 0.949 . S
C637 C635 1.384 . S
C637 C638 1.385 . S
C637 H639 0.950 . S
C638 C632 1.404 . S
C638 H636 0.949 . S
C638 C637 1.385 . S
H639 C637 0.950 . S
H640 C624 0.951 . S
H641 C626 0.951 . S
H642 C628 0.951 . S
H643 C629 0.950 . S
H644 C630 0.950 . S
H645 C631 0.950 . S
H646 C633 0.950 . S
H647 C634 0.951 . S
C648 C649 1.386 . S
C648 C650 1.383 . S
C648 H664 0.951 . S
C649 C648 1.386 . S
C649 C653 1.383 1_545 S
C650 C648 1.383 . S
C650 C651 1.402 1_545 S
C650 H665 0.951 . S
C651 C650 1.402 1_565 S
C651 C652 1.375 . S
C651 C654 1.481 . S
C652 C651 1.375 . S
C652 C653 1.367 . S
C652 H666 0.951 . S
C653 C649 1.383 1_565 S
C653 C652 1.367 . S
C653 H667 0.950 . S
C654 C651 1.481 . S
C654 C655 1.297 . S
C654 H668 0.950 . S
C655 C654 1.297 . S
C655 C656 1.479 . S
C655 H669 0.950 . S
C656 C655 1.479 . S
C656 C657 1.375 . S
C656 C662 1.404 . S
C657 C656 1.375 . S
C657 C658 1.369 . S
C657 H670 0.950 . S
C658 C657 1.369 . S
C658 C659 1.392 . S
C658 H671 0.951 . S
C659 C658 1.392 . S
C659 C661 1.384 . S
H660 C662 0.949 . S
C661 C659 1.384 . S
C661 C662 1.385 . S
C661 H663 0.950 . S
C662 C656 1.404 . S
C662 H660 0.949 . S
C662 C661 1.385 . S
H663 C661 0.950 . S
H664 C648 0.951 . S
H665 C650 0.951 . S
H666 C652 0.951 . S
H667 C653 0.950 . S
H668 C654 0.950 . S
H669 C655 0.950 . S
H670 C657 0.950 . S
H671 C658 0.951 . S
C241 C171 1.156 . S
C251 C7 1.165 . S
C265 C211 1.154 . S
C275 C47 1.168 . S
C289 C11 1.153 . S
C299 C87 1.168 . S
C313 C51 1.178 . S
C323 C127 1.163 . S
C337 C91 1.161 . S
C347 C167 1.169 . S
C361 C131 1.170 . S
C371 C207 1.163 . S
C385 C10 0.846 . S
C395 C130 0.659 . S
C409 C170 0.729 . S
C419 C50 0.719 . S
C433 C210 0.785 . S
C443 C90 0.634 . S
C457 C99 0.777 . S
C467 C219 0.796 . S
C481 C19 0.789 . S
C491 C139 0.794 . S
C505 C179 0.779 . S
C515 C59 0.795 . S
C529 C202 1.277 . S
C539 C16 1.217 . S
C553 C56 1.271 . S
C563 C2 1.259 . S
C577 C96 1.274 . S
C587 C42 1.258 . S
C601 C82 1.269 . S
C611 C136 1.277 . S
C625 C176 1.236 . S
C635 C122 1.272 . S
C649 C216 1.254 . S
C659 C162 1.265 . S
