# Generated by pormake.
# Topology wkj, (6)-cn, num edge types: 1
# Building blocks:
#     Node 0, Type 0, BuildingBlock: BETGAK_clean_sbu_0, # of connection points: 6
#     Node 1, Type 0, BuildingBlock: BETGAK_clean_sbu_0, # of connection points: 6
#     Node 2, Type 0, BuildingBlock: BETGAK_clean_sbu_0, # of connection points: 6
#     Node 3, Type 0, BuildingBlock: BETGAK_clean_sbu_0, # of connection points: 6
#     Node 4, Type 0, BuildingBlock: BETGAK_clean_sbu_0, # of connection points: 6
#     Node 5, Type 0, BuildingBlock: BETGAK_clean_sbu_0, # of connection points: 6
#     Node 6, Type 0, BuildingBlock: BETGAK_clean_sbu_0, # of connection points: 6
#     Node 7, Type 0, BuildingBlock: BETGAK_clean_sbu_0, # of connection points: 6
#     Node 8, Type 0, BuildingBlock: BETGAK_clean_sbu_0, # of connection points: 6
#     Node 9, Type 0, BuildingBlock: BETGAK_clean_sbu_0, # of connection points: 6
#     Node 10, Type 0, BuildingBlock: BETGAK_clean_sbu_0, # of connection points: 6
#     Node 11, Type 0, BuildingBlock: BETGAK_clean_sbu_0, # of connection points: 6
#     Edge 12, Type (0, 0), BuildingBlock: MIFKUJ_clean_linker_0, # of connection points: 2
#     Edge 13, Type (0, 0), BuildingBlock: MIFKUJ_clean_linker_0, # of connection points: 2
#     Edge 14, Type (0, 0), BuildingBlock: MIFKUJ_clean_linker_0, # of connection points: 2
#     Edge 15, Type (0, 0), BuildingBlock: MIFKUJ_clean_linker_0, # of connection points: 2
#     Edge 16, Type (0, 0), BuildingBlock: MIFKUJ_clean_linker_0, # of connection points: 2
#     Edge 17, Type (0, 0), BuildingBlock: MIFKUJ_clean_linker_0, # of connection points: 2
#     Edge 18, Type (0, 0), BuildingBlock: MIFKUJ_clean_linker_0, # of connection points: 2
#     Edge 19, Type (0, 0), BuildingBlock: MIFKUJ_clean_linker_0, # of connection points: 2
#     Edge 20, Type (0, 0), BuildingBlock: MIFKUJ_clean_linker_0, # of connection points: 2
#     Edge 21, Type (0, 0), BuildingBlock: MIFKUJ_clean_linker_0, # of connection points: 2
#     Edge 22, Type (0, 0), BuildingBlock: MIFKUJ_clean_linker_0, # of connection points: 2
#     Edge 23, Type (0, 0), BuildingBlock: MIFKUJ_clean_linker_0, # of connection points: 2
#     Edge 24, Type (0, 0), BuildingBlock: MIFKUJ_clean_linker_0, # of connection points: 2
#     Edge 25, Type (0, 0), BuildingBlock: MIFKUJ_clean_linker_0, # of connection points: 2
#     Edge 26, Type (0, 0), BuildingBlock: MIFKUJ_clean_linker_0, # of connection points: 2
#     Edge 27, Type (0, 0), BuildingBlock: MIFKUJ_clean_linker_0, # of connection points: 2
#     Edge 28, Type (0, 0), BuildingBlock: MIFKUJ_clean_linker_0, # of connection points: 2
#     Edge 29, Type (0, 0), BuildingBlock: MIFKUJ_clean_linker_0, # of connection points: 2
#     Edge 30, Type (0, 0), BuildingBlock: MIFKUJ_clean_linker_0, # of connection points: 2
#     Edge 31, Type (0, 0), BuildingBlock: MIFKUJ_clean_linker_0, # of connection points: 2
#     Edge 32, Type (0, 0), BuildingBlock: MIFKUJ_clean_linker_0, # of connection points: 2
#     Edge 33, Type (0, 0), BuildingBlock: MIFKUJ_clean_linker_0, # of connection points: 2
#     Edge 34, Type (0, 0), BuildingBlock: MIFKUJ_clean_linker_0, # of connection points: 2
#     Edge 35, Type (0, 0), BuildingBlock: MIFKUJ_clean_linker_0, # of connection points: 2
#     Edge 36, Type (0, 0), BuildingBlock: MIFKUJ_clean_linker_0, # of connection points: 2
#     Edge 37, Type (0, 0), BuildingBlock: MIFKUJ_clean_linker_0, # of connection points: 2
#     Edge 38, Type (0, 0), BuildingBlock: MIFKUJ_clean_linker_0, # of connection points: 2
#     Edge 39, Type (0, 0), BuildingBlock: MIFKUJ_clean_linker_0, # of connection points: 2
#     Edge 40, Type (0, 0), BuildingBlock: MIFKUJ_clean_linker_0, # of connection points: 2
#     Edge 41, Type (0, 0), BuildingBlock: MIFKUJ_clean_linker_0, # of connection points: 2
#     Edge 42, Type (0, 0), BuildingBlock: MIFKUJ_clean_linker_0, # of connection points: 2
#     Edge 43, Type (0, 0), BuildingBlock: MIFKUJ_clean_linker_0, # of connection points: 2
#     Edge 44, Type (0, 0), BuildingBlock: MIFKUJ_clean_linker_0, # of connection points: 2
#     Edge 45, Type (0, 0), BuildingBlock: MIFKUJ_clean_linker_0, # of connection points: 2
#     Edge 46, Type (0, 0), BuildingBlock: MIFKUJ_clean_linker_0, # of connection points: 2
#     Edge 47, Type (0, 0), BuildingBlock: MIFKUJ_clean_linker_0, # of connection points: 2
# Relax obj value: 0.590
# Max RMSD: 0.176
# Mean RMSD: 0.176
data_MOF--net-wkj--node1-BETGAK_clean_sbu_0--edge1-MIFKUJ_clean_linker_0
_symmetry_space_group_name_H-M    P1
_symmetry_Int_Tables_number       1
_symmetry_cell_setting            triclinic
loop_
_symmetry_equiv_pos_as_xyz
'x, y, z'
_cell_length_a     62.916996
_cell_length_b     62.866482
_cell_length_c     39.456895
_cell_angle_alpha  90.097534
_cell_angle_beta   89.999981
_cell_angle_gamma 119.94572
loop_
_atom_site_label
_atom_site_type_symbol
_atom_site_fract_x
_atom_site_fract_y
_atom_site_fract_z
_atom_type_partial_charge
La0 La 0.47253 0.09244 0.33212 0.0
La1 La 0.51819 0.09873 0.32049 0.0
C2 C 0.42707 0.07723 0.33659 0.0
C3 C 0.40884 0.06739 0.36369 0.0
C4 C 0.38469 0.04936 0.35607 0.0
C5 C 0.36777 0.03777 0.38211 0.0
C6 C 0.37483 0.04429 0.41602 0.0
C7 C 0.3988 0.06309 0.4234 0.0
C8 C 0.41573 0.07446 0.39744 0.0
C9 C 0.50263 0.13929 0.31425 0.0
C10 C 0.50584 0.10078 0.40168 0.0
C11 C 0.56446 0.12282 0.31848 0.0
C12 C 0.58256 0.1438 0.29888 0.0
C13 C 0.60763 0.15179 0.30207 0.0
C14 C 0.625 0.17318 0.2856 0.0
C15 C 0.61741 0.18696 0.26628 0.0
C16 C 0.59219 0.17882 0.26342 0.0
C17 C 0.57495 0.15742 0.27948 0.0
C18 C 0.48577 0.05374 0.34049 0.0
C19 C 0.48334 0.07127 0.25868 0.0
O20 O 0.44404 0.10021 0.33937 0.0
O21 O 0.43621 0.06344 0.32785 0.0
O22 O 0.48814 0.13167 0.34002 0.0
O23 O 0.50162 0.12023 0.30035 0.0
O24 O 0.48348 0.09488 0.38913 0.0
O25 O 0.5224 0.10343 0.37819 0.0
O26 O 0.55129 0.1021 0.30223 0.0
O27 O 0.551 0.12808 0.33808 0.0
O28 O 0.50426 0.05842 0.32102 0.0
O29 O 0.48877 0.07371 0.35072 0.0
O30 O 0.50669 0.08305 0.26846 0.0
O31 O 0.46725 0.07281 0.27994 0.0
H32 H 0.37919 0.04365 0.33009 0.0
H33 H 0.34942 0.02325 0.37588 0.0
H34 H 0.40485 0.06808 0.44938 0.0
H35 H 0.43441 0.08815 0.40383 0.0
H36 H 0.61375 0.14158 0.3174 0.0
H37 H 0.64428 0.17888 0.28778 0.0
H38 H 0.58567 0.18856 0.24784 0.0
H39 H 0.55563 0.15159 0.277 0.0
La40 La 0.39309 0.49014 0.64917 0.0
La41 La 0.42309 0.53945 0.63417 0.0
C42 C 0.36854 0.44788 0.67447 0.0
C43 C 0.36161 0.43983 0.70977 0.0
C44 C 0.33689 0.429 0.71949 0.0
C45 C 0.33031 0.42408 0.75357 0.0
C46 C 0.34841 0.43009 0.77841 0.0
C47 C 0.37303 0.44031 0.76859 0.0
C48 C 0.37956 0.44497 0.73457 0.0
C49 C 0.36781 0.5095 0.61928 0.0
C50 C 0.41546 0.52837 0.71521 0.0
C51 C 0.43863 0.58274 0.61334 0.0
C52 C 0.43559 0.59673 0.586 0.0
C53 C 0.45457 0.62067 0.57939 0.0
C54 C 0.4515 0.63508 0.55513 0.0
C55 C 0.42926 0.62578 0.53739 0.0
C56 C 0.41033 0.60166 0.54404 0.0
C57 C 0.41347 0.58723 0.5681 0.0
C58 C 0.44882 0.52264 0.66266 0.0
C59 C 0.41768 0.49906 0.57489 0.0
O60 O 0.35881 0.46022 0.66199 0.0
O61 O 0.39177 0.45793 0.66669 0.0
O62 O 0.36746 0.48951 0.61044 0.0
O63 O 0.38374 0.51904 0.64291 0.0
O64 O 0.40155 0.50528 0.70374 0.0
O65 O 0.42503 0.54587 0.69142 0.0
O66 O 0.44897 0.56976 0.60574 0.0
O67 O 0.4198 0.57091 0.63342 0.0
O68 O 0.45356 0.54509 0.66508 0.0
O69 O 0.43154 0.51068 0.64191 0.0
O70 O 0.42358 0.52243 0.58211 0.0
O71 O 0.40633 0.48264 0.59959 0.0
H72 H 0.32273 0.42485 0.70079 0.0
H73 H 0.31117 0.41593 0.76058 0.0
H74 H 0.38724 0.44441 0.78721 0.0
H75 H 0.39868 0.45286 0.72788 0.0
H76 H 0.47171 0.6283 0.59325 0.0
H77 H 0.46642 0.6535 0.55034 0.0
H78 H 0.39324 0.59371 0.53009 0.0
H79 H 0.3986 0.56876 0.57286 0.0
La80 La 0.90364 0.39109 0.98755 0.0
La81 La 0.8856 0.42297 0.97449 0.0
C82 C 0.92042 0.36393 1.00657 0.0
C83 C 0.92824 0.35699 1.03755 0.0
C84 C 0.94539 0.34905 1.03515 0.0
C85 C 0.952 0.3408 1.06391 0.0
C86 C 0.94135 0.34021 0.09541 0.0
C87 C 0.92438 0.34851 0.09781 0.0
C88 C 0.91792 0.35693 1.06909 0.0
C89 C 0.85912 0.36784 0.95668 0.0
C90 C 0.88458 0.40948 1.05396 0.0
C91 C 0.85826 0.43767 0.9496 0.0
C92 C 0.83171 0.42782 0.9491 0.0
C93 C 0.82207 0.4403 0.93127 0.0
C94 C 0.79716 0.42834 0.92302 0.0
C95 C 0.78176 0.40362 0.93209 0.0
C96 C 0.79102 0.39216 0.95326 0.0
C97 C 0.81589 0.40425 0.96176 0.0
C98 C 0.92797 0.44695 1.00565 0.0
C99 C 0.92342 0.4216 0.91646 0.0
O100 O 0.89713 0.35679 1.00434 0.0
O101 O 0.93412 0.3864 0.99598 0.0
O102 O 0.87857 0.36732 0.94751 0.0
O103 O 0.86571 0.38324 0.98111 0.0
O104 O 0.89768 0.39938 1.04243 0.0
O105 O 0.87467 0.41718 1.03023 0.0
O106 O 0.86558 0.42443 0.9331 0.0
O107 O 0.86908 0.44484 0.97895 0.0
O108 O 0.9123 0.45452 1.00301 0.0
O109 O 0.92167 0.42968 0.98448 0.0
O110 O 0.90816 0.42987 0.9255 0.0
O111 O 0.92516 0.40619 0.93835 0.0
H112 H 0.95346 0.34894 1.01092 0.0
H113 H 0.96518 0.33458 1.06146 0.0
H114 H 0.91633 0.34875 0.12198 0.0
H115 H 0.90469 0.36309 1.07144 0.0
H116 H 0.83408 0.45855 0.92142 0.0
H117 H 0.79064 0.43756 0.90637 0.0
H118 H 0.77956 0.37312 0.96053 0.0
H119 H 0.82316 0.39452 0.97584 0.0
La120 La 0.52088 0.90452 0.33467 0.0
La121 La 0.47579 0.89862 0.32292 0.0
C122 C 0.56623 0.91922 0.33986 0.0
C123 C 0.58546 0.93014 0.36595 0.0
C124 C 0.59622 0.91675 0.37825 0.0
C125 C 0.61349 0.92622 0.40435 0.0
C126 C 0.62051 0.94939 0.41815 0.0
C127 C 0.61048 0.96319 0.40484 0.0
C128 C 0.59307 0.95365 0.37904 0.0
C129 C 0.49137 0.85778 0.31563 0.0
C130 C 0.48639 0.89473 0.40391 0.0
C131 C 0.42982 0.87492 0.31695 0.0
C132 C 0.41358 0.85658 0.29232 0.0
C133 C 0.42269 0.85528 0.26047 0.0
C134 C 0.40904 0.83515 0.23944 0.0
C135 C 0.38618 0.81577 0.25009 0.0
C136 C 0.37669 0.81758 0.28153 0.0
C137 C 0.39038 0.83786 0.30256 0.0
C138 C 0.50796 0.94321 0.34723 0.0
C139 C 0.51094 0.92662 0.26163 0.0
O140 O 0.54901 0.89664 0.34502 0.0
O141 O 0.55732 0.93268 0.32854 0.0
O142 O 0.50558 0.8655 0.34166 0.0
O143 O 0.49207 0.87684 0.30211 0.0
O144 O 0.5091 0.90158 0.39162 0.0
O145 O 0.4699 0.89163 0.38008 0.0
O146 O 0.44347 0.89745 0.30605 0.0
O147 O 0.44236 0.86762 0.33503 0.0
O148 O 0.48988 0.93898 0.32713 0.0
O149 O 0.5048 0.92276 0.35497 0.0
O150 O 0.48764 0.91504 0.27139 0.0
O151 O 0.52681 0.92472 0.28285 0.0
H152 H 0.5908 0.89869 0.36821 0.0
H153 H 0.62096 0.91525 0.41426 0.0
H154 H 0.61521 0.98091 0.41549 0.0
H155 H 0.58519 0.96447 0.37003 0.0
H156 H 0.44076 0.86936 0.25238 0.0
H157 H 0.4166 0.83461 0.21501 0.0
H158 H 0.35918 0.80294 0.29042 0.0
H159 H 0.38334 0.83843 0.32741 0.0
La160 La 0.60464 0.51557 0.65526 0.0
La161 La 0.57203 0.46595 0.63891 0.0
C162 C 0.63203 0.55751 0.68099 0.0
C163 C 0.63705 0.5667 0.71594 0.0
C164 C 0.65974 0.58714 0.72421 0.0
C165 C 0.6657 0.59426 0.75807 0.0
C166 C 0.649 0.58096 0.78407 0.0
C167 C 0.62608 0.56084 0.77546 0.0
C168 C 0.62033 0.55368 0.74179 0.0
C169 C 0.62768 0.49521 0.62165 0.0
C170 C 0.58061 0.47555 0.71956 0.0
C171 C 0.55811 0.42382 0.6152 0.0
C172 C 0.5694 0.4153 0.59012 0.0
C173 C 0.58242 0.43026 0.56267 0.0
C174 C 0.59653 0.42408 0.54216 0.0
C175 C 0.59832 0.40304 0.549 0.0
C176 C 0.58502 0.38794 0.57635 0.0
C177 C 0.57066 0.39404 0.59673 0.0
C178 C 0.54891 0.48594 0.66965 0.0
C179 C 0.57867 0.5074 0.58127 0.0
O180 O 0.63917 0.54182 0.6739 0.0
O181 O 0.61006 0.55028 0.66925 0.0
O182 O 0.62938 0.51619 0.61559 0.0
O183 O 0.61176 0.48542 0.64529 0.0
O184 O 0.59462 0.49889 0.70903 0.0
O185 O 0.57045 0.45849 0.69531 0.0
O186 O 0.54965 0.43792 0.60453 0.0
O187 O 0.57121 0.43241 0.64266 0.0
O188 O 0.54147 0.46261 0.66953 0.0
O189 O 0.56633 0.49592 0.64875 0.0
O190 O 0.57187 0.48377 0.58787 0.0
O191 O 0.59091 0.52368 0.60611 0.0
H192 H 0.67306 0.59718 0.70459 0.0
H193 H 0.68357 0.60976 0.76394 0.0
H194 H 0.61256 0.55051 0.79474 0.0
H195 H 0.603 0.53765 0.73611 0.0
H196 H 0.58218 0.44707 0.55753 0.0
H197 H 0.60596 0.4358 0.52078 0.0
H198 H 0.58605 0.37169 0.58242 0.0
H199 H 0.56121 0.38262 0.61836 0.0
La200 La 0.08349 0.60608 0.98933 0.0
La201 La 0.10106 0.57384 0.97779 0.0
C202 C 0.0648 0.63228 1.00488 0.0
C203 C 0.06022 0.64418 1.0335 0.0
C204 C 0.04295 0.65186 1.02969 0.0
C205 C 0.038 0.66318 1.05652 0.0
C206 C 0.05039 0.66707 0.0875 0.0
C207 C 0.06819 0.65987 0.09091 0.0
C208 C 0.07302 0.6484 1.06409 0.0
C209 C 0.12767 0.62884 0.95785 0.0
C210 C 0.10037 0.58623 1.05749 0.0
C211 C 0.12849 0.5573 0.95938 0.0
C212 C 0.14733 0.56273 0.93371 0.0
C213 C 0.14653 0.5723 0.90201 0.0
C214 C 0.16624 0.58009 0.87967 0.0
C215 C 0.18723 0.57882 0.8889 0.0
C216 C 0.18766 0.56877 0.92049 0.0
C217 C 0.16784 0.56077 0.94265 0.0
C218 C 0.05848 0.55141 1.00796 0.0
C219 C 0.06629 0.5768 0.91696 0.0
O220 O 0.08766 0.641 0.99636 0.0
O221 O 0.05254 0.60834 1.00414 0.0
O222 O 0.10825 0.6295 0.94898 0.0
O223 O 0.12121 0.61373 0.98252 0.0
O224 O 0.09207 0.60072 1.04486 0.0
O225 O 0.10632 0.5743 1.03472 0.0
O226 O 0.10574 0.54809 0.94927 0.0
O227 O 0.13458 0.57471 0.98173 0.0
O228 O 0.07508 0.54514 1.01094 0.0
O229 O 0.06464 0.56762 0.9854 0.0
O230 O 0.08349 0.57087 0.92525 0.0
O231 O 0.06204 0.58975 0.94036 0.0
H232 H 0.03308 0.64885 1.00603 0.0
H233 H 0.02422 0.66854 1.05326 0.0
H234 H 0.07772 0.66227 0.1147 0.0
H235 H 0.08646 0.64259 1.06734 0.0
H236 H 0.13095 0.57421 0.89481 0.0
H237 H 0.16505 0.58722 0.85521 0.0
H238 H 0.20357 0.56772 0.92853 0.0
H239 H 0.16886 0.55373 0.96729 0.0
La240 La 0.90135 0.50677 0.50455 0.0
La241 La 0.87649 0.45627 0.52069 0.0
C242 C 0.92384 0.55081 0.48489 0.0
C243 C 0.93593 0.56652 0.45571 0.0
C244 C 0.95329 0.59119 0.46156 0.0
C245 C 0.96373 0.60731 0.43445 0.0
C246 C 0.95691 0.59898 0.401 0.0
C247 C 0.93958 0.57408 0.39527 0.0
C248 C 0.92925 0.55793 0.42245 0.0
C249 C 0.85731 0.49155 0.53576 0.0
C250 C 0.88158 0.46879 0.43904 0.0
C251 C 0.84388 0.41561 0.54416 0.0
C252 C 0.82681 0.40697 0.57327 0.0
C253 C 0.83397 0.40206 0.60465 0.0
C254 C 0.81795 0.39458 0.63222 0.0
C255 C 0.79442 0.3918 0.629 0.0
C256 C 0.78696 0.39591 0.59733 0.0
C257 C 0.80295 0.4033 0.56972 0.0
C258 C 0.91712 0.46731 0.48917 0.0
C259 C 0.91459 0.49547 0.57918 0.0
O260 O 0.90012 0.53642 0.48269 0.0
O261 O 0.93468 0.53993 0.49891 0.0
O262 O 0.87784 0.5111 0.5426 0.0
O263 O 0.86227 0.48068 0.51253 0.0
O264 O 0.89542 0.49194 0.45026 0.0
O265 O 0.87029 0.45135 0.46296 0.0
O266 O 0.86732 0.42513 0.55053 0.0
O267 O 0.83984 0.42817 0.52125 0.0
O268 O 0.89816 0.44546 0.49088 0.0
O269 O 0.91413 0.48131 0.50958 0.0
O270 O 0.89531 0.47292 0.5724 0.0
O271 O 0.92145 0.51183 0.55408 0.0
H272 H 0.95842 0.5981 0.48719 0.0
H273 H 0.97675 0.6264 0.43977 0.0
H274 H 0.93401 0.56702 0.36984 0.0
H275 H 0.91578 0.53891 0.41753 0.0
H276 H 0.85203 0.40423 0.60805 0.0
H277 H 0.82406 0.39112 0.65618 0.0
H278 H 0.76904 0.39411 0.5941 0.0
H279 H 0.7967 0.4065 0.5457 0.0
La280 La 0.3897 0.9039 0.84937 0.0
La281 La 0.41651 0.88079 0.86678 0.0
C282 C 0.3683 0.9262 0.82773 0.0
C283 C 0.36277 0.93364 0.79546 0.0
C284 C 0.34671 0.943 0.79484 0.0
C285 C 0.34005 0.94885 0.76401 0.0
C286 C 0.34926 0.94518 0.7335 0.0
C287 C 0.36566 0.93614 0.73433 0.0
C288 C 0.3724 0.93045 0.76514 0.0
C289 C 0.3615 0.85937 0.87883 0.0
C290 C 0.41342 0.88761 0.7854 0.0
C291 C 0.42463 0.84799 0.88955 0.0
C292 C 0.41091 0.82704 0.91209 0.0
C293 C 0.38882 0.82292 0.9265 0.0
C294 C 0.37491 0.80217 0.94633 0.0
C295 C 0.38301 0.78532 0.95239 0.0
C296 C 0.40495 0.78931 0.93727 0.0
C297 C 0.41875 0.81 0.91712 0.0
C298 C 0.44585 0.92404 0.84241 0.0
C299 C 0.41258 0.9171 0.92504 0.0
O300 O 0.35743 0.90259 0.83278 0.0
O301 O 0.39135 0.93714 0.83667 0.0
O302 O 0.36188 0.87953 0.88658 0.0
O303 O 0.37782 0.86498 0.85608 0.0
O304 O 0.40019 0.89789 0.79569 0.0
O305 O 0.42087 0.87797 0.80977 0.0
O306 O 0.43375 0.86986 0.90303 0.0
O307 O 0.41346 0.84632 0.86102 0.0
O308 O 0.45029 0.90602 0.84156 0.0
O309 O 0.42727 0.91857 0.86042 0.0
O310 O 0.41684 0.8984 0.91861 0.0
O311 O 0.4031 0.92366 0.89952 0.0
H312 H 0.33909 0.94547 0.81816 0.0
H313 H 0.32735 0.95576 0.76396 0.0
H314 H 0.37336 0.93358 0.71115 0.0
H315 H 0.38491 0.92339 0.76527 0.0
H316 H 0.38244 0.83584 0.92256 0.0
H317 H 0.3583 0.79987 0.95797 0.0
H318 H 0.4116 0.77661 0.94142 0.0
H319 H 0.43556 0.81273 0.90557 0.0
La320 La 0.4733 0.38087 0.16673 0.0
La321 La 0.51922 0.41895 0.17939 0.0
C322 C 0.42755 0.35258 0.1606 0.0
C323 C 0.40965 0.34761 0.13378 0.0
C324 C 0.38576 0.34187 0.14241 0.0
C325 C 0.36946 0.34038 0.11725 0.0
C326 C 0.3769 0.34445 1.0832 0.0
C327 C 0.40058 0.34923 1.07461 0.0
C328 C 0.41687 0.35093 0.09973 0.0
C329 C 0.50151 0.36202 0.18533 0.0
C330 C 0.50858 0.40543 0.09818 0.0
C331 C 0.56511 0.43915 0.18603 0.0
C332 C 0.58042 0.43429 0.20912 0.0
C333 C 0.56972 0.41246 0.22787 0.0
C334 C 0.58428 0.40627 0.24731 0.0
C335 C 0.60982 0.42193 0.24872 0.0
C336 C 0.6205 0.44409 0.2305 0.0
C337 C 0.60586 0.45013 0.21052 0.0
C338 C 0.48874 0.43354 0.15492 0.0
C339 C 0.48388 0.41284 0.23999 0.0
O340 O 0.44382 0.34598 0.15465 0.0
O341 O 0.43754 0.3746 0.17343 0.0
O342 O 0.48673 0.35543 0.15993 0.0
O343 O 0.50145 0.38063 0.19918 0.0
O344 O 0.48582 0.3895 0.11016 0.0
O345 O 0.52499 0.4188 0.12211 0.0
O346 O 0.55204 0.44789 0.19956 0.0
O347 O 0.55217 0.42106 0.16517 0.0
O348 O 0.50698 0.44665 0.17528 0.0
O349 O 0.4908 0.41552 0.14729 0.0
O350 O 0.50725 0.42384 0.23066 0.0
O351 O 0.46776 0.39546 0.21853 0.0
H352 H 0.38004 0.33947 0.1687 0.0
H353 H 0.35133 0.33676 0.12443 0.0
H354 H 0.40698 0.35299 1.04864 0.0
H355 H 0.43539 0.35576 0.09265 0.0
H356 H 0.55009 0.4 0.22705 0.0
H357 H 0.57545 0.38935 0.26168 0.0
H358 H 0.64012 0.45655 0.23145 0.0
H359 H 0.61439 0.46696 0.19593 0.0
La360 La 0.09109 0.49164 0.50753 0.0
La361 La 0.11411 0.54208 0.52299 0.0
C362 C 0.07097 0.44718 0.48949 0.0
C363 C 0.06013 0.43066 0.46062 0.0
C364 C 0.04848 0.40534 0.46629 0.0
C365 C 0.0389 0.38895 0.4392 0.0
C366 C 0.04085 0.39768 0.40593 0.0
C367 C 0.05284 0.42324 0.40044 0.0
C368 C 0.06229 0.43962 0.42762 0.0
C369 C 0.1354 0.50917 0.53894 0.0
C370 C 0.10806 0.52897 0.44157 0.0
C371 C 0.14676 0.58371 0.54416 0.0
C372 C 0.16927 0.59227 0.56391 0.0
C373 C 0.18638 0.61739 0.56583 0.0
C374 C 0.20844 0.62552 0.5833 0.0
C375 C 0.21374 0.60855 0.59876 0.0
C376 C 0.19668 0.58332 0.59603 0.0
C377 C 0.1746 0.57528 0.57884 0.0
C378 C 0.072 0.52944 0.49453 0.0
C379 C 0.07684 0.50287 0.5815 0.0
O380 O 0.0945 0.46256 0.48781 0.0
O381 O 0.05893 0.45742 0.50168 0.0
O382 O 0.11518 0.4898 0.54725 0.0
O383 O 0.12987 0.51886 0.51481 0.0
O384 O 0.09614 0.50576 0.45297 0.0
O385 O 0.11833 0.54674 0.46522 0.0
O386 O 0.12606 0.56995 0.55995 0.0
O387 O 0.14723 0.57459 0.5147 0.0
O388 O 0.08964 0.55185 0.4983 0.0
O389 O 0.07672 0.51577 0.513 0.0
O390 O 0.09575 0.5256 0.57479 0.0
O391 O 0.07041 0.48641 0.5565 0.0
H392 H 0.04698 0.39822 0.49171 0.0
H393 H 0.03023 0.36947 0.44434 0.0
H394 H 0.05475 0.43069 0.37526 0.0
H395 H 0.07138 0.45918 0.42288 0.0
H396 H 0.18263 0.6307 0.55391 0.0
H397 H 0.22123 0.64505 0.58511 0.0
H398 H 0.19994 0.56981 0.60831 0.0
H399 H 0.16156 0.55582 0.57742 0.0
La400 La 0.60256 0.09128 0.84817 0.0
La401 La 0.5702 0.10852 0.86272 0.0
C402 C 0.62875 0.07418 0.82655 0.0
C403 C 0.63006 0.06178 0.79588 0.0
C404 C 0.63616 0.04325 0.79867 0.0
C405 C 0.63936 0.03251 0.76957 0.0
C406 C 0.63668 0.04041 0.73744 0.0
C407 C 0.62949 0.05819 0.73475 0.0
C408 C 0.62614 0.06877 0.76378 0.0
C409 C 0.62617 0.13547 0.87992 0.0
C410 C 0.57858 0.10582 0.78213 0.0
C411 C 0.55433 0.13561 0.88501 0.0
C412 C 0.56323 0.15417 0.91181 0.0
C413 C 0.58499 0.15995 0.92886 0.0
C414 C 0.59484 0.17893 0.95248 0.0
C415 C 0.58309 0.19248 0.95955 0.0
C416 C 0.56114 0.18652 0.9426 0.0
C417 C 0.55135 0.16754 0.91863 0.0
C418 C 0.54727 0.06481 0.83289 0.0
C419 C 0.57714 0.07538 0.92248 0.0
O420 O 0.63435 0.09705 0.82316 0.0
O421 O 0.60943 0.06183 0.84545 0.0
O422 O 0.62774 0.11629 0.88696 0.0
O423 O 0.6101 0.12894 0.85641 0.0
O424 O 0.59192 0.09582 0.7934 0.0
O425 O 0.56916 0.11389 0.80597 0.0
O426 O 0.54581 0.11288 0.89467 0.0
O427 O 0.56945 0.14132 0.85957 0.0
O428 O 0.54006 0.08087 0.83168 0.0
O429 O 0.56435 0.07259 0.85433 0.0
O430 O 0.57081 0.09243 0.91509 0.0
O431 O 0.58864 0.07038 0.89778 0.0
H432 H 0.63905 0.03754 0.82331 0.0
H433 H 0.64486 0.01878 0.77213 0.0
H434 H 0.62689 0.0642 0.71015 0.0
H435 H 0.6211 0.08281 0.76107 0.0
H436 H 0.59445 0.14986 0.92369 0.0
H437 H 0.61138 0.18259 0.96581 0.0
H438 H 0.55165 0.19655 0.94781 0.0
H439 H 0.53466 0.16341 0.90531 0.0
La440 La 0.51854 0.61683 0.16795 0.0
La441 La 0.47293 0.57656 0.17993 0.0
C442 C 0.56416 0.64598 0.16333 0.0
C443 C 0.58421 0.64404 0.14715 0.0
C444 C 0.58918 0.62526 0.15591 0.0
C445 C 0.60614 0.62187 0.13733 0.0
C446 C 0.61838 0.63713 0.10963 0.0
C447 C 0.61413 0.65656 0.10195 0.0
C448 C 0.59733 0.66004 0.12066 0.0
C449 C 0.48757 0.63304 0.18615 0.0
C450 C 0.48522 0.59009 0.09861 0.0
C451 C 0.42664 0.5538 0.18159 0.0
C452 C 0.40789 0.55704 0.19964 0.0
C453 C 0.40277 0.55109 0.23405 0.0
C454 C 0.38881 0.55893 0.25205 0.0
C455 C 0.38005 0.57302 0.236 0.0
C456 C 0.38339 0.57715 0.20109 0.0
C457 C 0.39686 0.56886 0.18293 0.0
C458 C 0.50668 0.56525 0.16139 0.0
C459 C 0.50827 0.58521 0.2416 0.0
O460 O 0.54805 0.64621 0.14279 0.0
O461 O 0.55367 0.63181 0.18932 0.0
O462 O 0.50405 0.64182 0.16293 0.0
O463 O 0.48874 0.61487 0.19896 0.0
O464 O 0.50756 0.60655 0.11118 0.0
O465 O 0.46858 0.57659 0.12217 0.0
O466 O 0.43999 0.54688 0.1988 0.0
O467 O 0.44001 0.5717 0.16083 0.0
O468 O 0.48802 0.55095 0.18031 0.0
O469 O 0.50301 0.58162 0.15067 0.0
O470 O 0.4847 0.57491 0.23303 0.0
O471 O 0.52446 0.60092 0.2185 0.0
H472 H 0.57933 0.61259 0.17627 0.0
H473 H 0.60911 0.60685 0.144 0.0
H474 H 0.62278 0.66835 1.08033 0.0
H475 H 0.59377 0.6746 0.11344 0.0
H476 H 0.41075 0.54176 0.24752 0.0
H477 H 0.38667 0.55579 0.27915 0.0
H478 H 0.37686 0.58806 0.18832 0.0
H479 H 0.40011 0.57326 0.15621 0.0
H480 H 0.50343 0.15311 0.24541 0.0
H481 H 0.50569 0.19098 0.22367 0.0
H482 H 0.51606 0.21942 0.32545 0.0
H483 H 0.51292 0.18158 0.34688 0.0
H484 H 0.4887 0.23258 0.30057 0.0
H485 H 0.56182 0.23944 0.25319 0.0
H486 H 0.58674 0.22704 0.21949 0.0
H487 H 0.54869 0.22669 0.12909 0.0
H488 H 0.52278 0.23822 0.16246 0.0
H489 H 0.51293 0.35445 0.25305 0.0
H490 H 0.51662 0.31944 0.27441 0.0
H491 H 0.50505 0.28956 0.17354 0.0
H492 H 0.5021 0.3243 0.15234 0.0
H493 H 0.53418 0.27793 0.19833 0.0
H494 H 0.45925 0.26798 0.24677 0.0
H495 H 0.43444 0.28062 0.28065 0.0
H496 H 0.47761 0.28794 0.36883 0.0
H497 H 0.50276 0.27548 0.33541 0.0
C498 C 0.50673 0.16762 0.26312 0.0
C499 C 0.50832 0.16389 0.29819 0.0
C500 C 0.50801 0.18962 0.2506 0.0
C501 C 0.51127 0.20911 0.27246 0.0
C502 C 0.51337 0.20533 0.30732 0.0
C503 C 0.51184 0.18343 0.31973 0.0
C504 C 0.51181 0.23289 0.26003 0.0
C505 C 0.49906 0.24248 0.27839 0.0
C506 C 0.52467 0.24647 0.23061 0.0
C507 C 0.54014 0.23944 0.21045 0.0
C508 C 0.55857 0.2365 0.22618 0.0
C509 C 0.57292 0.22965 0.20711 0.0
C510 C 0.56941 0.22616 0.17215 0.0
C511 C 0.5514 0.22939 0.15619 0.0
C512 C 0.5368 0.236 0.1752 0.0
C513 C 0.51152 0.34065 0.23529 0.0
C514 C 0.50712 0.34275 0.20061 0.0
C515 C 0.51334 0.32017 0.24768 0.0
C516 C 0.51068 0.30075 0.22613 0.0
C517 C 0.5072 0.30357 0.19146 0.0
C518 C 0.50544 0.32382 0.17918 0.0
C519 C 0.51106 0.27749 0.23886 0.0
C520 C 0.52391 0.26799 0.22054 0.0
C521 C 0.49835 0.26398 0.26831 0.0
C522 C 0.48304 0.27108 0.28852 0.0
C523 C 0.4635 0.27238 0.27336 0.0
C524 C 0.44937 0.27949 0.29248 0.0
C525 C 0.45449 0.28515 0.32685 0.0
C526 C 0.47369 0.28359 0.3422 0.0
C527 C 0.48786 0.27648 0.3232 0.0
H528 H 0.44355 0.29068 0.34159 0.0
H529 H 0.58066 0.221 0.15744 0.0
H530 H 0.341 0.49982 0.56042 0.0
H531 H 0.30406 0.50247 0.54841 0.0
H532 H 0.30606 0.52881 0.64971 0.0
H533 H 0.3438 0.52711 0.66136 0.0
H534 H 0.25639 0.48898 0.62737 0.0
H535 H 0.31942 0.5679 0.58988 0.0
H536 H 0.35602 0.59683 0.55755 0.0
H537 H 0.31885 0.56391 0.46425 0.0
H538 H 0.28212 0.53445 0.49612 0.0
H539 H 0.15369 0.50709 0.60159 0.0
H540 H 0.19299 0.51069 0.61682 0.0
H541 H 0.21374 0.52017 0.51141 0.0
H542 H 0.17521 0.51907 0.49686 0.0
H543 H 0.2531 0.54252 0.53799 0.0
H544 H 0.19178 0.46127 0.57265 0.0
H545 H 0.15512 0.43013 0.60303 0.0
H546 H 0.18811 0.4636 0.69819 0.0
H547 H 0.22488 0.49504 0.66833 0.0
C548 C 0.3339 0.50656 0.58015 0.0
C549 C 0.34604 0.51348 0.61187 0.0
C550 C 0.31246 0.508 0.57321 0.0
C551 C 0.30154 0.51577 0.59796 0.0
C552 C 0.31359 0.52266 0.62981 0.0
C553 C 0.33552 0.52187 0.63647 0.0
C554 C 0.27775 0.51647 0.59045 0.0
C555 C 0.25586 0.50097 0.60808 0.0
C556 C 0.27606 0.53134 0.56461 0.0
C557 C 0.29812 0.54883 0.5454 0.0
C558 C 0.31914 0.56665 0.56249 0.0
C559 C 0.33989 0.58318 0.54424 0.0
C560 C 0.33975 0.58218 0.50887 0.0
C561 C 0.31891 0.56463 0.49166 0.0
C562 C 0.29812 0.54802 0.5098 0.0
C563 C 0.16668 0.51014 0.58156 0.0
C564 C 0.16077 0.51275 0.54784 0.0
C565 C 0.18939 0.51175 0.59028 0.0
C566 C 0.207 0.51465 0.56552 0.0
C567 C 0.20117 0.51774 0.53172 0.0
C568 C 0.17878 0.51708 0.52317 0.0
C569 C 0.23116 0.51467 0.57458 0.0
C570 C 0.2533 0.53034 0.55723 0.0
C571 C 0.23294 0.49951 0.60026 0.0
C572 C 0.21095 0.48061 0.61824 0.0
C573 C 0.19115 0.46202 0.60004 0.0
C574 C 0.17037 0.44433 0.61717 0.0
C575 C 0.16926 0.44492 0.65251 0.0
C576 C 0.18898 0.46317 0.67082 0.0
C577 C 0.2098 0.48092 0.65381 0.0
H578 H 0.15314 0.43121 0.66571 0.0
H579 H 0.35574 0.59505 0.49479 0.0
H580 H 0.84558 0.33321 0.90624 0.0
H581 H 0.80588 0.29732 0.89332 0.0
H582 H 0.77286 0.31666 0.97441 0.0
H583 H 0.81317 0.35248 0.98811 0.0
H584 H 0.75126 0.27028 0.97626 0.0
H585 H 0.76387 0.3211 0.88249 0.0
H586 H 0.78444 0.34771 0.8333 0.0
H587 H 0.78476 0.28762 0.782 0.0
H588 H 0.76497 0.26089 0.8313 0.0
H589 H 0.63935 0.18186 0.85143 0.0
H590 H 0.67592 0.22204 0.86351 0.0
H591 H 0.69958 0.18809 0.93768 0.0
H592 H 0.6633 0.14849 0.92605 0.0
H593 H 0.72246 0.24504 0.85833 0.0
H594 H 0.73676 0.2267 0.99967 0.0
H595 H 0.71123 0.2039 1.04872 0.0
H596 H 0.64945 0.20491 1.00442 0.0
H597 H 0.67467 0.22849 0.95603 0.0
C598 C 0.82993 0.33013 0.92135 0.0
C599 C 0.8332 0.34652 0.94818 0.0
C600 C 0.80678 0.30931 0.91366 0.0
C601 C 0.78532 0.3036 0.93218 0.0
C602 C 0.78852 0.31999 0.95915 0.0
C603 C 0.81185 0.34093 0.96692 0.0
C604 C 0.76021 0.28043 0.92399 0.0
C605 C 0.74528 0.26492 0.95032 0.0
C606 C 0.75088 0.27297 0.89033 0.0
C607 C 0.76321 0.28908 0.86083 0.0
C608 C 0.76862 0.31366 0.8609 0.0
C609 C 0.78009 0.32874 0.83298 0.0
C610 C 0.78587 0.31935 0.80455 0.0
C611 C 0.78029 0.29488 0.80406 0.0
C612 C 0.76901 0.27977 0.83203 0.0
C613 C 0.65214 0.18296 0.87066 0.0
C614 C 0.6477 0.16137 0.88781 0.0
C615 C 0.67341 0.20623 0.87761 0.0
C616 C 0.69112 0.20916 0.90237 0.0
C617 C 0.68655 0.18742 0.91919 0.0
C618 C 0.66548 0.16433 0.91226 0.0
C619 C 0.71424 0.23432 0.9105 0.0
C620 C 0.72866 0.25028 0.88421 0.0
C621 C 0.72269 0.24265 0.94423 0.0
C622 C 0.70758 0.22911 0.97396 0.0
C623 C 0.71777 0.22225 1.00059 0.0
C624 C 0.70334 0.20924 1.02837 0.0
C625 C 0.67869 0.20298 1.02979 0.0
C626 C 0.6685 0.20985 1.00353 0.0
C627 C 0.68287 0.22308 0.97592 0.0
H628 H 0.6675 0.19279 1.0512 0.0
H629 H 0.79464 0.33103 0.7829 0.0
H630 H 0.50778 0.66068 0.24484 0.0
H631 H 0.50507 0.69616 0.26526 0.0
H632 H 0.45226 0.68379 0.1871 0.0
H633 H 0.45609 0.64914 0.16585 0.0
H634 H 0.47527 0.72841 0.18984 0.0
H635 H 0.44248 0.67444 0.28006 0.0
H636 H 0.43711 0.64565 0.32609 0.0
H637 H 0.49865 0.70321 0.37892 0.0
H638 H 0.50453 0.73223 0.33299 0.0
H639 H 0.45871 0.82746 0.26286 0.0
H640 H 0.4526 0.78772 0.24166 0.0
H641 H 0.50938 0.79384 0.30882 0.0
H642 H 0.51464 0.83212 0.33055 0.0
H643 H 0.47827 0.74959 0.31123 0.0
H644 H 0.51044 0.80145 0.20785 0.0
H645 H 0.50676 0.82677 0.16295 0.0
H646 H 0.43479 0.76774 0.13796 0.0
H647 H 0.43809 0.74216 0.18272 0.0
C648 C 0.49497 0.66496 0.23261 0.0
C649 C 0.48147 0.65098 0.20422 0.0
C650 C 0.49345 0.68567 0.2443 0.0
C651 C 0.4781 0.69337 0.22852 0.0
C652 C 0.46438 0.67905 0.20038 0.0
C653 C 0.46623 0.65864 0.18839 0.0
C654 C 0.4769 0.7164 0.24046 0.0
C655 C 0.47579 0.73266 0.21656 0.0
C656 C 0.47702 0.72281 0.27528 0.0
C657 C 0.47402 0.70544 0.30285 0.0
C658 C 0.45493 0.68088 0.3014 0.0
C659 C 0.45178 0.66454 0.32748 0.0
C660 C 0.46756 0.67258 0.35535 0.0
C661 C 0.48646 0.697 0.35726 0.0
C662 C 0.48969 0.71341 0.33119 0.0
C663 C 0.47006 0.82049 0.27291 0.0
C664 C 0.48737 0.83384 0.29866 0.0
C665 C 0.46666 0.79746 0.26054 0.0
C666 C 0.4807 0.78694 0.27289 0.0
C667 C 0.49793 0.80056 0.29836 0.0
C668 C 0.50106 0.82305 0.31085 0.0
C669 C 0.47802 0.76214 0.26063 0.0
C670 C 0.47816 0.7454 0.28456 0.0
C671 C 0.47607 0.75482 0.22599 0.0
C672 C 0.47448 0.77 0.19863 0.0
C673 C 0.49388 0.79391 0.19271 0.0
C674 C 0.49184 0.8083 0.16732 0.0
C675 C 0.47055 0.79888 0.14763 0.0
C676 C 0.45129 0.77501 0.15318 0.0
C677 C 0.45325 0.76055 0.17849 0.0
H678 H 0.469 0.81007 0.12806 0.0
H679 H 0.46517 0.65987 0.3754 0.0
H680 H 0.63011 0.4516 0.61423 0.0
H681 H 0.66575 0.44736 0.59848 0.0
H682 H 0.71134 0.52616 0.59771 0.0
H683 H 0.67579 0.53021 0.61111 0.0
H684 H 0.72856 0.51478 0.55186 0.0
H685 H 0.70936 0.47789 0.66274 0.0
H686 H 0.68458 0.44852 0.70743 0.0
H687 H 0.67552 0.38852 0.64504 0.0
H688 H 0.69999 0.41752 0.59979 0.0
H689 H 0.84734 0.52569 0.56435 0.0
H690 H 0.80804 0.52298 0.57754 0.0
H691 H 0.76978 0.44842 0.54144 0.0
H692 H 0.80944 0.45138 0.52705 0.0
H693 H 0.7476 0.45418 0.60253 0.0
H694 H 0.76962 0.49278 0.49356 0.0
H695 H 0.79704 0.52329 0.45176 0.0
H696 H 0.80254 0.58167 0.51463 0.0
H697 H 0.77539 0.5515 0.55702 0.0
C698 C 0.64776 0.46804 0.61097 0.0
C699 C 0.64957 0.49131 0.6144 0.0
C700 C 0.66855 0.46565 0.60205 0.0
C701 C 0.69233 0.48641 0.59706 0.0
C702 C 0.69385 0.50952 0.60085 0.0
C703 C 0.67315 0.51187 0.60892 0.0
C704 C 0.71546 0.48474 0.58727 0.0
C705 C 0.73254 0.5016 0.56367 0.0
C706 C 0.72146 0.46733 0.60101 0.0
C707 C 0.7062 0.44984 0.62772 0.0
C708 C 0.70183 0.45841 0.65841 0.0
C709 C 0.68789 0.44184 0.68386 0.0
C710 C 0.67838 0.41666 0.67901 0.0
C711 C 0.6828 0.40801 0.6487 0.0
C712 C 0.6967 0.4245 0.62314 0.0
C713 C 0.83067 0.50861 0.55898 0.0
C714 C 0.83216 0.48883 0.54424 0.0
C715 C 0.80788 0.50708 0.56663 0.0
C716 C 0.78519 0.48553 0.56054 0.0
C717 C 0.78656 0.46543 0.54656 0.0
C718 C 0.80949 0.46715 0.53818 0.0
C719 C 0.76057 0.48457 0.56806 0.0
C720 C 0.74336 0.46727 0.59099 0.0
C721 C 0.75451 0.50175 0.55411 0.0
C722 C 0.77065 0.5199 0.52858 0.0
C723 C 0.77681 0.51214 0.49857 0.0
C724 C 0.79228 0.52936 0.47475 0.0
C725 C 0.80158 0.5544 0.48057 0.0
C726 C 0.79535 0.56226 0.51017 0.0
C727 C 0.7799 0.54511 0.53408 0.0
H728 H 0.81356 0.56772 0.46212 0.0
H729 H 0.66768 0.40387 0.6988 0.0
H730 H 0.34714 0.81273 0.8509 0.0
H731 H 0.31067 0.77286 0.86425 0.0
H732 H 0.28961 0.80771 0.94071 0.0
H733 H 0.32584 0.84727 0.92745 0.0
H734 H 0.27825 0.76443 0.96494 0.0
H735 H 0.26149 0.78887 0.85589 0.0
H736 H 0.26984 0.80055 0.79563 0.0
H737 H 0.26787 0.73271 0.77323 0.0
H738 H 0.25972 0.72075 0.83343 0.0
H739 H 0.14065 0.66703 0.91331 0.0
H740 H 0.18058 0.70287 0.90134 0.0
H741 H 0.21468 0.67609 0.97069 0.0
H742 H 0.17424 0.64035 0.98358 0.0
H743 H 0.22093 0.71433 0.87358 0.0
H744 H 0.26905 0.71853 0.99574 0.0
H745 H 0.25948 0.7058 1.05554 0.0
H746 H 0.19788 0.71754 1.05159 0.0
H747 H 0.20688 0.7299 0.99156 0.0
C748 C 0.33482 0.81198 0.87062 0.0
C749 C 0.33982 0.83383 0.88768 0.0
C750 C 0.3136 0.78892 0.87826 0.0
C751 C 0.29636 0.78653 0.9034 0.0
C752 C 0.30195 0.80828 0.92113 0.0
C753 C 0.32294 0.83125 0.91333 0.0
C754 C 0.27249 0.762 0.91094 0.0
C755 C 0.26592 0.7536 0.94468 0.0
C756 C 0.2556 0.74697 0.88533 0.0
C757 C 0.26021 0.75403 0.84916 0.0
C758 C 0.26294 0.77651 0.83812 0.0
C759 C 0.26762 0.78317 0.80398 0.0
C760 C 0.26943 0.76741 0.78063 0.0
C761 C 0.26648 0.74491 0.79134 0.0
C762 C 0.26181 0.73817 0.82545 0.0
C763 C 0.15655 0.6686 0.92625 0.0
C764 C 0.15355 0.6503 0.94979 0.0
C765 C 0.17979 0.68943 0.91918 0.0
C766 C 0.20156 0.69336 0.93523 0.0
C767 C 0.19871 0.67469 0.95824 0.0
C768 C 0.17529 0.65377 0.96549 0.0
C769 C 0.22658 0.71675 0.92761 0.0
C770 C 0.23333 0.72504 0.89385 0.0
C771 C 0.2437 0.73161 0.95314 0.0
C772 C 0.2386 0.72504 0.98931 0.0
C773 C 0.25353 0.71845 1.00773 0.0
C774 C 0.2481 0.71115 1.04155 0.0
C775 C 0.2281 0.7109 1.05737 0.0
C776 C 0.21337 0.71777 1.03932 0.0
C777 C 0.21854 0.72479 1.00536 0.0
H778 H 0.22402 0.70537 1.08362 0.0
H779 H 0.27308 0.7726 0.75422 0.0
H780 H 0.63061 0.22809 0.97077 0.0
H781 H 0.6476 0.24633 1.02595 0.0
H782 H 0.57442 0.21719 1.06563 0.0
H783 H 0.55733 0.19806 1.01099 0.0
H784 H 0.64453 0.27278 1.08497 0.0
H785 H 0.56946 0.17849 0.12646 0.0
H786 H 0.54033 0.13764 0.10297 0.0
H787 H 0.59111 0.14821 1.02319 0.0
H788 H 0.62062 0.18881 1.04681 0.0
H789 H 0.62071 0.23172 0.25797 0.0
H790 H 0.63228 0.25382 0.20425 0.0
H791 H 0.66534 0.21134 0.17241 0.0
H792 H 0.653 0.18859 0.22533 0.0
H793 H 0.61872 0.19526 0.14748 0.0
H794 H 0.69461 0.27121 0.15664 0.0
H795 H 0.72374 0.31131 0.18177 0.0
H796 H 0.67309 0.33705 0.1636 0.0
H797 H 0.64349 0.29698 0.13878 0.0
C798 C 0.61817 0.22635 0.99095 0.0
C799 C 0.59271 0.21089 0.98713 0.0
C800 C 0.6279 0.23707 1.02232 0.0
C801 C 0.61222 0.23249 1.04993 0.0
C802 C 0.58677 0.22065 1.04454 0.0
C803 C 0.57702 0.20969 1.01329 0.0
C804 C 0.62171 0.23341 1.08439 0.0
C805 C 0.63892 0.25595 0.0989 0.0
C806 C 0.61466 0.21133 0.10207 0.0
C807 C 0.59707 0.18681 0.08798 0.0
C808 C 0.57438 0.17204 0.10394 0.0
C809 C 0.55782 0.14893 0.09067 0.0
C810 C 0.5638 0.14038 1.06151 0.0
C811 C 0.58642 0.15487 1.04569 0.0
C812 C 0.60307 0.17792 1.05898 0.0
C813 C 0.63154 0.22798 0.24014 0.0
C814 C 0.63481 0.20762 0.24482 0.0
C815 C 0.63843 0.24085 0.2096 0.0
C816 C 0.64876 0.23347 0.18395 0.0
C817 C 0.65698 0.21698 0.19182 0.0
C818 C 0.64982 0.20389 0.22214 0.0
C819 C 0.6419 0.23469 0.14853 0.0
C820 C 0.62472 0.21229 0.13379 0.0
C821 C 0.64898 0.25688 0.13115 0.0
C822 C 0.66675 0.28101 0.14603 0.0
C823 C 0.68958 0.28534 0.15826 0.0
C824 C 0.7062 0.30809 0.17239 0.0
C825 C 0.70026 0.32671 0.17433 0.0
C826 C 0.67768 0.32262 0.16208 0.0
C827 C 0.66099 0.2999 0.14791 0.0
H828 H 0.71315 0.34431 0.18528 0.0
H829 H 0.55096 0.1225 1.05126 0.0
H830 H 0.34282 0.55642 0.28215 0.0
H831 H 0.34257 0.58001 0.33125 0.0
H832 H 0.40221 0.64558 0.28781 0.0
H833 H 0.4017 0.62241 0.23831 0.0
H834 H 0.38089 0.59106 0.36364 0.0
H835 H 0.42404 0.69557 0.33976 0.0
H836 H 0.41922 0.72338 0.30064 0.0
H837 H 0.34335 0.66947 0.28615 0.0
H838 H 0.34771 0.64129 0.3251 0.0
H839 H 0.46212 0.65232 0.48765 0.0
H840 H 0.45148 0.66189 0.43257 0.0
H841 H 0.37868 0.63949 0.46854 0.0
H842 H 0.38966 0.6313 0.52445 0.0
H843 H 0.40574 0.6763 0.39804 0.0
H844 H 0.36293 0.58082 0.44024 0.0
H845 H 0.36951 0.5533 0.47804 0.0
H846 H 0.44557 0.58958 0.44984 0.0
H847 H 0.43926 0.61722 0.41197 0.0
C848 C 0.35487 0.57614 0.28235 0.0
C849 C 0.37266 0.58756 0.25709 0.0
C850 C 0.35477 0.58967 0.31035 0.0
C851 C 0.37318 0.61443 0.31398 0.0
C852 C 0.38817 0.62654 0.28608 0.0
C853 C 0.38786 0.61318 0.25766 0.0
C854 C 0.38165 0.62454 0.34854 0.0
C855 C 0.38563 0.60956 0.371 0.0
C856 C 0.38934 0.64916 0.35803 0.0
C857 C 0.38627 0.66619 0.33517 0.0
C858 C 0.4063 0.68964 0.3283 0.0
C859 C 0.40367 0.70547 0.30608 0.0
C860 C 0.381 0.69819 0.29086 0.0
C861 C 0.36093 0.67506 0.29783 0.0
C862 C 0.3635 0.6591 0.31988 0.0
C863 C 0.44433 0.65085 0.48453 0.0
C864 C 0.42625 0.63993 0.50971 0.0
C865 C 0.43832 0.65649 0.45301 0.0
C866 C 0.41412 0.65069 0.44635 0.0
C867 C 0.39742 0.64388 0.47319 0.0
C868 C 0.40354 0.63869 0.50487 0.0
C869 C 0.40415 0.64251 0.41204 0.0
C870 C 0.40031 0.65776 0.39007 0.0
C871 C 0.39689 0.61825 0.40219 0.0
C872 C 0.40075 0.6014 0.42416 0.0
C873 C 0.38104 0.58295 0.4424 0.0
C874 C 0.3847 0.5673 0.46367 0.0
C875 C 0.40799 0.56979 0.46651 0.0
C876 C 0.42758 0.58777 0.4478 0.0
C877 C 0.42396 0.60343 0.42646 0.0
H878 H 0.41083 0.55774 0.48311 0.0
H879 H 0.37898 0.7105 0.27372 0.0
H880 H 0.74355 0.41191 0.91801 0.0
H881 H 0.71694 0.39603 0.86812 0.0
H882 H 0.74678 0.34856 0.84744 0.0
H883 H 0.77102 0.36254 0.89785 0.0
H884 H 0.73344 0.40775 0.81349 0.0
H885 H 0.72974 0.31268 0.78907 0.0
H886 H 0.71317 0.27334 0.81919 0.0
H887 H 0.66322 0.28868 0.87356 0.0
H888 H 0.67919 0.32802 0.84342 0.0
H889 H 0.80795 0.41095 0.69226 0.0
H890 H 0.78211 0.40271 0.74182 0.0
H891 H 0.71845 0.35242 0.68379 0.0
H892 H 0.74461 0.36013 0.63369 0.0
H893 H 0.71956 0.33448 0.74814 0.0
H894 H 0.72132 0.40316 0.70316 0.0
H895 H 0.73883 0.4429 0.67378 0.0
H896 H 0.78656 0.4787 0.75817 0.0
H897 H 0.77035 0.43908 0.78747 0.0
C898 C 0.74314 0.39699 0.90371 0.0
C899 C 0.75949 0.3886 0.91157 0.0
C900 C 0.72807 0.388 0.87501 0.0
C901 C 0.72985 0.37119 0.85317 0.0
C902 C 0.74413 0.36088 0.86364 0.0
C903 C 0.7584 0.36915 0.89276 0.0
C904 C 0.72291 0.36939 0.8166 0.0
C905 C 0.72971 0.39146 0.79937 0.0
C906 C 0.7164 0.3479 0.79729 0.0
C907 C 0.70558 0.32335 0.81369 0.0
C908 C 0.71487 0.30752 0.80689 0.0
C909 C 0.70571 0.28526 0.8242 0.0
C910 C 0.68717 0.27854 0.84828 0.0
C911 C 0.6776 0.29394 0.85491 0.0
C912 C 0.68672 0.31623 0.83774 0.0
C913 C 0.78853 0.39789 0.69 0.0
C914 C 0.77836 0.38612 0.65909 0.0
C915 C 0.7737 0.39341 0.71826 0.0
C916 C 0.74831 0.37727 0.71627 0.0
C917 C 0.73799 0.36509 0.68568 0.0
C918 C 0.75292 0.36961 0.65715 0.0
C919 C 0.7333 0.37339 0.74697 0.0
C920 C 0.72205 0.35028 0.76252 0.0
C921 C 0.73496 0.39374 0.76462 0.0
C922 C 0.74441 0.41799 0.7477 0.0
C923 C 0.7356 0.41946 0.71549 0.0
C924 C 0.74534 0.44199 0.69879 0.0
C925 C 0.76358 0.46334 0.71422 0.0
C926 C 0.7723 0.46217 0.74632 0.0
C927 C 0.76286 0.43963 0.76299 0.0
H928 H 0.77105 0.48076 0.70123 0.0
H929 H 0.68025 0.26146 0.86192 0.0
H930 H 0.33342 0.75459 0.96147 0.0
H931 H 0.31389 0.73309 1.01412 0.0
H932 H 0.38488 0.75173 1.05447 0.0
H933 H 0.40423 0.77268 1.00235 0.0
H934 H 0.3497 0.7118 0.08609 0.0
H935 H 0.36348 0.79422 1.05081 0.0
H936 H 0.35416 0.81986 1.01319 0.0
H937 H 0.27765 0.77634 1.03765 0.0
H938 H 0.28674 0.75081 1.07591 0.0
H939 H 0.40499 0.79193 0.21425 0.0
H940 H 0.38512 0.76241 0.16914 0.0
H941 H 0.31628 0.75874 0.19256 0.0
H942 H 0.33677 0.78994 0.23655 0.0
H943 H 0.32631 0.77077 0.13173 0.0
H944 H 0.32207 0.70369 0.18983 0.0
H945 H 0.33515 0.68157 0.22835 0.0
H946 H 0.39663 0.69864 0.16399 0.0
H947 H 0.38408 0.72102 0.12516 0.0
C948 C 0.34469 0.75324 0.98115 0.0
C949 C 0.37042 0.76591 0.97823 0.0
C950 C 0.33349 0.7408 1.0111 0.0
C951 C 0.348 0.74147 1.03857 0.0
C952 C 0.37327 0.75107 1.03372 0.0
C953 C 0.3844 0.76321 1.0038 0.0
C954 C 0.33898 0.73846 1.07389 0.0
C955 C 0.34412 0.72428 0.09631 0.0
C956 C 0.33076 0.75408 0.0871 0.0
C957 C 0.32561 0.77015 1.06528 0.0
C958 C 0.34468 0.79012 1.04805 0.0
C959 C 0.33946 0.80467 1.02671 0.0
C960 C 0.31529 0.79956 1.02271 0.0
C961 C 0.29634 0.78016 1.04052 0.0
C962 C 0.3015 0.76565 1.06201 0.0
C963 C 0.38554 0.78464 0.21011 0.0
C964 C 0.37263 0.79385 0.22818 0.0
C965 C 0.37396 0.76718 0.18475 0.0
C966 C 0.34902 0.75804 0.17743 0.0
C967 C 0.33551 0.76545 0.19776 0.0
C968 C 0.34724 0.78329 0.2229 0.0
C969 C 0.33924 0.74576 0.14431 0.0
C970 C 0.33041 0.75703 0.12215 0.0
C971 C 0.34446 0.72779 0.13153 0.0
C972 C 0.35196 0.71391 0.15439 0.0
C973 C 0.33838 0.70273 0.18385 0.0
C974 C 0.34572 0.69014 0.20577 0.0
C975 C 0.36668 0.68864 0.19859 0.0
C976 C 0.38033 0.6997 0.16943 0.0
C977 C 0.37302 0.71224 0.14735 0.0
H978 H 0.37236 0.67893 0.21563 0.0
H979 H 0.31127 0.81074 1.006 0.0
H980 H 0.60849 0.378 0.25428 0.0
H981 H 0.62214 0.36428 0.30336 0.0
H982 H 0.65733 0.43775 0.34419 0.0
H983 H 0.6438 0.45156 0.29523 0.0
H984 H 0.6781 0.40866 0.36893 0.0
H985 H 0.59896 0.40679 0.35873 0.0
H986 H 0.55975 0.39533 0.33025 0.0
H987 H 0.54109 0.31964 0.33002 0.0
H988 H 0.58031 0.33075 0.35844 0.0
H989 H 0.64248 0.43382 0.51923 0.0
H990 H 0.65858 0.42497 0.4688 0.0
H991 H 0.60501 0.34795 0.4783 0.0
H992 H 0.58729 0.35715 0.5271 0.0
H993 H 0.59685 0.36303 0.42471 0.0
H994 H 0.67021 0.3706 0.46552 0.0
H995 H 0.70804 0.38697 0.49953 0.0
H996 H 0.73822 0.45571 0.44694 0.0
H997 H 0.70049 0.43995 0.41289 0.0
C998 C 0.61999 0.39141 0.27309 0.0
C999 C 0.62454 0.41568 0.27155 0.0
C1000 C 0.62799 0.3836 0.30091 0.0
C1001 C 0.64034 0.39992 0.32762 0.0
C1002 C 0.64786 0.42489 0.32378 0.0
C1003 C 0.63997 0.43275 0.29586 0.0
C1004 C 0.63898 0.39037 0.36222 0.0
C1005 C 0.66046 0.39837 0.38137 0.0
C1006 C 0.61589 0.37639 0.378 0.0
C1007 C 0.59259 0.3696 0.36027 0.0
C1008 C 0.58654 0.38773 0.35236 0.0
C1009 C 0.56432 0.3813 0.33636 0.0
C1010 C 0.54794 0.35678 0.32837 0.0
C1011 C 0.5538 0.33863 0.33625 0.0
C1012 C 0.57601 0.34497 0.35231 0.0
C1013 C 0.63435 0.41491 0.51092 0.0
C1014 C 0.61286 0.3964 0.52615 0.0
C1015 C 0.64403 0.40971 0.48242 0.0
C1016 C 0.63286 0.38574 0.46923 0.0
C1017 C 0.6138 0.36664 0.48772 0.0
C1018 C 0.60367 0.37194 0.51574 0.0
C1019 C 0.63607 0.38231 0.43269 0.0
C1020 C 0.61475 0.37197 0.41271 0.0
C1021 C 0.65933 0.39444 0.41663 0.0
C1022 C 0.68243 0.40399 0.43649 0.0
C1023 C 0.68487 0.38923 0.46121 0.0
C1024 C 0.70632 0.39842 0.48053 0.0
C1025 C 0.72552 0.42235 0.47536 0.0
C1026 C 0.72335 0.43714 0.45082 0.0
C1027 C 0.70196 0.42804 0.4314 0.0
H1028 H 0.74209 0.42943 0.49036 0.0
H1029 H 0.53066 0.35187 0.31624 0.0
H1030 H 0.20617 0.61975 0.84919 0.0
H1031 H 0.23617 0.63104 0.80413 0.0
H1032 H 0.24837 0.57168 0.8324 0.0
H1033 H 0.21696 0.55918 0.87629 0.0
H1034 H 0.28234 0.64373 0.79098 0.0
H1035 H 0.25399 0.54601 0.75942 0.0
H1036 H 0.222 0.50324 0.77138 0.0
H1037 H 0.16873 0.52631 0.78428 0.0
H1038 H 0.20036 0.56912 0.77198 0.0
H1039 H 0.24579 0.59101 0.60345 0.0
H1040 H 0.27126 0.59543 0.65274 0.0
H1041 H 0.25385 0.64818 0.69558 0.0
H1042 H 0.22932 0.64434 0.6465 0.0
H1043 H 0.24659 0.5774 0.70502 0.0
H1044 H 0.28193 0.67686 0.76094 0.0
H1045 H 0.31011 0.7195 0.74372 0.0
H1046 H 0.34595 0.69488 0.67442 0.0
H1047 H 0.31825 0.65202 0.69156 0.0
C1048 C 0.21521 0.60905 0.84589 0.0
C1049 C 0.20851 0.58804 0.86555 0.0
C1050 C 0.23279 0.61586 0.82052 0.0
C1051 C 0.24425 0.60195 0.81445 0.0
C1052 C 0.23949 0.58246 0.83631 0.0
C1053 C 0.22154 0.57537 0.86145 0.0
C1054 C 0.25725 0.60541 0.78182 0.0
C1055 C 0.27487 0.6293 0.77202 0.0
C1056 C 0.24864 0.58625 0.7576 0.0
C1057 C 0.22958 0.56071 0.76543 0.0
C1058 C 0.23545 0.5419 0.76492 0.0
C1059 C 0.21739 0.51768 0.77168 0.0
C1060 C 0.19338 0.51208 0.77877 0.0
C1061 C 0.18735 0.53068 0.77894 0.0
C1062 C 0.20532 0.55491 0.77206 0.0
C1063 C 0.24837 0.60434 0.62281 0.0
C1064 C 0.23511 0.61688 0.62163 0.0
C1065 C 0.26309 0.60701 0.65084 0.0
C1066 C 0.26435 0.6219 0.67828 0.0
C1067 C 0.25369 0.63684 0.6748 0.0
C1068 C 0.23931 0.63444 0.64665 0.0
C1069 C 0.26937 0.61645 0.71304 0.0
C1070 C 0.25542 0.59195 0.72369 0.0
C1071 C 0.281 0.63518 0.7377 0.0
C1072 C 0.29802 0.66109 0.72775 0.0
C1073 C 0.29601 0.68047 0.74236 0.0
C1074 C 0.31185 0.70472 0.73249 0.0
C1075 C 0.32984 0.7099 0.70804 0.0
C1076 C 0.33201 0.69083 0.69337 0.0
C1077 C 0.3162 0.66654 0.70312 0.0
H1078 H 0.34207 0.72869 0.70041 0.0
H1079 H 0.17943 0.49333 0.78402 0.0
H1080 H 0.42397 0.90622 0.99123 0.0
H1081 H 0.43383 0.9294 1.04459 0.0
H1082 H 0.42872 0.98725 0.99414 0.0
H1083 H 0.41723 0.96321 0.94148 0.0
H1084 H 0.41877 0.99437 1.05079 0.0
H1085 H 0.45909 0.94452 0.12623 0.0
H1086 H 0.47955 0.92038 0.11556 0.0
H1087 H 0.50689 0.95739 1.02065 0.0
H1088 H 0.48634 0.98136 1.03044 0.0
H1089 H 0.4371 0.04522 0.22337 0.0
H1090 H 0.42553 0.02027 0.17136 0.0
H1091 H 0.49933 0.03413 0.16145 0.0
H1092 H 0.51088 0.05915 0.21327 0.0
H1093 H 0.47699 0.99294 0.13365 0.0
H1094 H 0.46227 0.05842 0.10629 0.0
H1095 H 0.44453 0.08547 0.11161 0.0
H1096 H 0.37199 0.02305 0.10383 0.0
H1097 H 0.38935 0.99561 0.09872 0.0
C1098 C 0.42489 0.92388 0.99101 0.0
C1099 C 0.41952 0.93203 0.9601 0.0
C1100 C 0.43107 0.93782 1.02244 0.0
C1101 C 0.43333 0.96164 1.02567 0.0
C1102 C 0.42768 0.96955 0.99469 0.0
C1103 C 0.421 0.95539 0.96351 0.0
C1104 C 0.44108 0.97789 1.06009 0.0
C1105 C 0.43146 0.99356 1.06858 0.0
C1106 C 0.45825 0.97877 1.08511 0.0
C1107 C 0.47135 0.96498 1.07933 0.0
C1108 C 0.46966 0.94767 0.10324 0.0
C1109 C 0.4811 0.93384 0.09718 0.0
C1110 C 0.49438 0.93725 1.06733 0.0
C1111 C 0.49653 0.95471 1.0437 0.0
C1112 C 0.48505 0.96849 1.04957 0.0
C1113 C 0.45123 0.04343 0.21024 0.0
C1114 C 0.47543 0.05542 0.22423 0.0
C1115 C 0.44448 0.02883 0.17932 0.0
C1116 C 0.46126 0.02477 0.15944 0.0
C1117 C 0.48528 0.03632 0.17402 0.0
C1118 C 0.49209 0.05112 0.20466 0.0
C1119 C 0.45413 0.00887 0.12473 0.0
C1120 C 0.4641 0.9935 0.11601 0.0
C1121 C 0.43762 0.0086 0.09914 0.0
C1122 C 0.42712 0.02496 0.10241 0.0
C1123 C 0.44255 0.05047 0.10584 0.0
C1124 C 0.43256 0.06587 0.10882 0.0
C1125 C 0.40714 0.05598 0.10814 0.0
C1126 C 0.39167 0.03068 0.10441 0.0
C1127 C 0.40158 0.0152 0.10145 0.0
H1128 H 0.39943 0.06793 0.11045 0.0
H1129 H 0.503 0.92636 1.06246 0.0
H1130 H 0.51277 0.45008 0.28749 0.0
H1131 H 0.50227 0.4645 0.33886 0.0
H1132 H 0.42646 0.40996 0.32579 0.0
H1133 H 0.43702 0.39593 0.27311 0.0
H1134 H 0.42278 0.44478 0.35668 0.0
H1135 H 0.47185 0.41141 0.40224 0.0
H1136 H 0.50825 0.40626 0.3995 0.0
H1137 H 0.55538 0.48443 0.40369 0.0
H1138 H 0.51906 0.48987 0.4076 0.0
H1139 H 0.41177 0.4531 0.55339 0.0
H1140 H 0.42232 0.44004 0.50011 0.0
H1141 H 0.45048 0.51254 0.45989 0.0
H1142 H 0.43967 0.52564 0.51313 0.0
H1143 H 0.47731 0.46776 0.45692 0.0
H1144 H 0.42413 0.49922 0.40928 0.0
H1145 H 0.38553 0.50046 0.41074 0.0
H1146 H 0.34407 0.42165 0.40893 0.0
H1147 H 0.38251 0.42004 0.40806 0.0
C1148 C 0.49372 0.44067 0.29518 0.0
C1149 C 0.47621 0.42109 0.27438 0.0
C1150 C 0.48751 0.44904 0.3259 0.0
C1151 C 0.46318 0.4385 0.3393 0.0
C1152 C 0.44551 0.41913 0.31816 0.0
C1153 C 0.45174 0.41076 0.28717 0.0
C1154 C 0.45654 0.44757 0.37417 0.0
C1155 C 0.43509 0.44973 0.37816 0.0
C1156 C 0.47133 0.45437 0.40448 0.0
C1157 C 0.49294 0.45108 0.40539 0.0
C1158 C 0.49001 0.42745 0.40312 0.0
C1159 C 0.51057 0.42448 0.4014 0.0
C1160 C 0.53412 0.44502 0.40165 0.0
C1161 C 0.53713 0.46856 0.40392 0.0
C1162 C 0.51662 0.4716 0.40629 0.0
C1163 C 0.42009 0.46659 0.53345 0.0
C1164 C 0.42437 0.49089 0.53955 0.0
C1165 C 0.42636 0.45887 0.50208 0.0
C1166 C 0.43742 0.47466 0.47368 0.0
C1167 C 0.44179 0.49901 0.47969 0.0
C1168 C 0.4355 0.50677 0.51113 0.0
C1169 C 0.44408 0.4658 0.43885 0.0
C1170 C 0.46527 0.4632 0.43518 0.0
C1171 C 0.42905 0.45858 0.40887 0.0
C1172 C 0.40609 0.45952 0.4091 0.0
C1173 C 0.40676 0.48219 0.4096 0.0
C1174 C 0.38494 0.48295 0.41022 0.0
C1175 C 0.36236 0.46114 0.41005 0.0
C1176 C 0.36157 0.43853 0.40915 0.0
C1177 C 0.38336 0.43768 0.40861 0.0
H1178 H 0.34547 0.46176 0.41052 0.0
H1179 H 0.55002 0.44272 0.39994 0.0
H1180 H 0.03042 0.46203 0.59817 0.0
H1181 H 0.00676 0.4496 0.65091 0.0
H1182 H 0.06462 0.51218 0.70165 0.0
H1183 H 0.08807 0.52518 0.64821 0.0
H1184 H 0.04653 0.48368 0.75122 0.0
H1185 H -0.00094 0.49814 0.67245 0.0
H1186 H 0.97711 0.49395 0.61895 0.0
H1187 H 0.92667 0.41828 0.6413 0.0
H1188 H 0.94903 0.42165 0.6942 0.0
H1189 H 0.96482 0.41774 0.89454 0.0
H1190 H 0.98957 0.43136 0.84248 0.0
H1191 H 0.94433 0.45914 0.80447 0.0
H1192 H 0.91982 0.44605 0.857 0.0
H1193 H 0.9563 0.44686 0.74916 0.0
H1194 H 0.04768 0.45653 0.80057 0.0
H1195 H 0.07194 0.46838 0.85339 0.0
H1196 H 0.03506 0.50644 0.88732 0.0
H1197 H 0.01091 0.49522 0.8345 0.0
C1198 C 0.03836 0.47369 0.62017 0.0
C1199 C 0.06189 0.4953 0.61671 0.0
C1200 C 0.02425 0.46644 0.65136 0.0
C1201 C 0.03227 0.47999 0.68247 0.0
C1202 C 0.05632 0.50107 0.67936 0.0
C1203 C 0.07026 0.50868 0.64785 0.0
C1204 C 0.0161 0.47228 0.71704 0.0
C1205 C 0.02676 0.47527 0.74997 0.0
C1206 C 0.98981 0.46208 0.71854 0.0
C1207 C 0.97596 0.46008 0.68715 0.0
C1208 C 0.98344 0.48053 0.66583 0.0
C1209 C 0.971 0.47826 0.6355 0.0
C1210 C 0.95054 0.45585 0.62668 0.0
C1211 C 0.94256 0.43561 0.64812 0.0
C1212 C 0.95521 0.43765 0.67819 0.0
C1213 C 0.95987 0.42688 0.8755 0.0
C1214 C 0.93943 0.43037 0.8821 0.0
C1215 C 0.9746 0.43508 0.84478 0.0
C1216 C 0.97019 0.44735 0.81736 0.0
C1217 C 0.94942 0.45033 0.82372 0.0
C1218 C 0.93496 0.44257 0.85473 0.0
C1219 C 0.98657 0.45662 0.78307 0.0
C1220 C 0.97599 0.45449 0.75027 0.0
C1221 C 0.01297 0.46814 0.78175 0.0
C1222 C 0.02726 0.47475 0.8137 0.0
C1223 C 0.04477 0.46746 0.81927 0.0
C1224 C 0.05853 0.4741 0.84921 0.0
C1225 C 0.055 0.4881 0.87373 0.0
C1226 C 0.03772 0.49552 0.86836 0.0
C1227 C 0.02399 0.48902 0.83843 0.0
H1228 H 0.06568 0.49323 0.89687 0.0
H1229 H 0.9408 0.45421 0.60334 0.0
H1230 H 0.55648 0.95028 0.22396 0.0
H1231 H 0.56776 0.97466 0.1714 0.0
H1232 H 0.49553 0.96556 0.1662 0.0
H1233 H 0.48419 0.94093 0.21823 0.0
H1234 H 0.52147 0.0082 0.13948 0.0
H1235 H 0.6004 0.99601 0.08913 0.0
H1236 H 0.61633 0.96734 0.09233 0.0
H1237 H 0.54447 0.90842 0.11733 0.0
H1238 H 0.52811 0.93663 0.11423 0.0
H1239 H 0.56909 0.08866 0.98909 0.0
H1240 H 0.56074 0.06729 1.04339 0.0
H1241 H 0.55966 0.00573 0.99395 0.0
H1242 H 0.57044 0.02838 0.94024 0.0
H1243 H 0.56902 0.99728 1.04832 0.0
H1244 H 0.50514 0.02158 1.04383 0.0
H1245 H 0.49031 0.05114 1.0427 0.0
H1246 H 0.53537 0.08864 0.12877 0.0
H1247 H 0.54995 0.0588 0.13091 0.0
C1248 C 0.54262 0.95302 0.21179 0.0
C1249 C 0.51889 0.94241 0.22711 0.0
C1250 C 0.5492 0.96731 0.18059 0.0
C1251 C 0.53273 0.97247 0.16179 0.0
C1252 C 0.50928 0.9624 0.1778 0.0
C1253 C 0.50259 0.94785 0.2086 0.0
C1254 C 0.53947 0.98786 0.12665 0.0
C1255 C 0.53188 0.00542 0.11985 0.0
C1256 C 0.55343 0.98584 0.09903 0.0
C1257 C 0.56297 0.96854 0.10133 0.0
C1258 C 0.58794 0.97691 0.09513 0.0
C1259 C 0.59708 0.96073 0.09702 0.0
C1260 C 0.58142 0.93607 0.105 0.0
C1261 C 0.55658 0.92753 0.11109 0.0
C1262 C 0.54736 0.94363 0.1092 0.0
C1263 C 0.56708 0.07053 0.98925 0.0
C1264 C 0.57071 0.06106 0.95816 0.0
C1265 C 0.5616 0.05751 1.02142 0.0
C1266 C 0.55803 0.03319 1.02552 0.0
C1267 C 0.56179 0.0239 0.9942 0.0
C1268 C 0.56805 0.03724 0.96228 0.0
C1269 C 0.55118 0.01788 1.06097 0.0
C1270 C 0.55859 0.00013 1.06782 0.0
C1271 C 0.5375 0.02008 0.08896 0.0
C1272 C 0.52855 0.03783 0.08757 0.0
C1273 C 0.51164 0.03587 1.06276 0.0
C1274 C 0.50334 0.05276 1.06188 0.0
C1275 C 0.51198 0.07182 0.08557 0.0
C1276 C 0.52874 0.0739 0.11038 0.0
C1277 C 0.53694 0.05693 0.11152 0.0
H1278 H 0.50571 0.08502 1.08468 0.0
H1279 H 0.58853 0.92358 0.10648 0.0
H1280 H 0.57789 0.55109 0.56279 0.0
H1281 H 0.56659 0.56342 0.50953 0.0
H1282 H 0.55242 0.49575 0.46341 0.0
H1283 H 0.56305 0.48311 0.51684 0.0
H1284 H 0.57134 0.52895 0.41224 0.0
H1285 H 0.50609 0.51154 0.48684 0.0
H1286 H 0.48581 0.51429 0.53873 0.0
H1287 H 0.51118 0.59035 0.51861 0.0
H1288 H 0.53236 0.58828 0.46714 0.0
H1289 H 0.55467 0.59211 0.26576 0.0
H1290 H 0.56582 0.57959 0.31902 0.0
H1291 H 0.49158 0.54857 0.35392 0.0
H1292 H 0.4804 0.5607 0.30049 0.0
H1293 H 0.51534 0.56289 0.41067 0.0
H1294 H 0.59946 0.5572 0.36095 0.0
H1295 H 0.6124 0.54454 0.30926 0.0
H1296 H 0.53716 0.50054 0.27852 0.0
H1297 H 0.52381 0.51281 0.33007 0.0
C1298 C 0.57239 0.53851 0.54156 0.0
C1299 C 0.57182 0.51563 0.54615 0.0
C1300 C 0.56562 0.54574 0.51015 0.0
C1301 C 0.55808 0.53102 0.48001 0.0
C1302 C 0.55792 0.50833 0.48451 0.0
C1303 C 0.56414 0.50084 0.51614 0.0
C1304 C 0.55042 0.53893 0.44501 0.0
C1305 C 0.55932 0.53666 0.41264 0.0
C1306 C 0.53384 0.54847 0.44252 0.0
C1307 C 0.52114 0.54985 0.47336 0.0
C1308 C 0.50765 0.52895 0.4937 0.0
C1309 C 0.49602 0.5304 0.52308 0.0
C1310 C 0.49728 0.55251 0.53204 0.0
C1311 C 0.51027 0.57325 0.51168 0.0
C1312 C 0.52217 0.57197 0.48245 0.0
C1313 C 0.54042 0.58265 0.28446 0.0
C1314 C 0.51621 0.57798 0.27677 0.0
C1315 C 0.54693 0.57506 0.31587 0.0
C1316 C 0.52998 0.56235 0.34288 0.0
C1317 C 0.5059 0.55809 0.33532 0.0
C1318 C 0.49929 0.56524 0.3037 0.0
C1319 C 0.53707 0.55385 0.37793 0.0
C1320 C 0.52787 0.55578 0.41031 0.0
C1321 C 0.55268 0.54317 0.38037 0.0
C1322 C 0.5607 0.53624 0.34908 0.0
C1323 C 0.58571 0.54488 0.3431 0.0
C1324 C 0.5931 0.53776 0.31384 0.0
C1325 C 0.57562 0.52184 0.29054 0.0
C1326 C 0.5507 0.51298 0.29647 0.0
C1327 C 0.54322 0.52008 0.32564 0.0
H1328 H 0.58139 0.51632 0.26795 0.0
H1329 H 0.48809 0.55353 0.55466 0.0
H1330 H 0.07222 0.55496 0.85584 0.0
H1331 H 0.0481 0.54167 0.80306 0.0
H1332 H -0.00085 0.56451 0.84295 0.0
H1333 H 0.02337 0.5779 0.89562 0.0
H1334 H 0.96956 0.52879 0.80499 0.0
H1335 H 0.04718 0.59335 0.77155 0.0
H1336 H 0.092 0.61674 0.76346 0.0
H1337 H 0.08847 0.55789 0.70384 0.0
H1338 H 0.0435 0.53393 0.71221 0.0
H1339 H 0.95967 0.53768 0.59795 0.0
H1340 H 0.98299 0.54994 0.65127 0.0
H1341 H 0.92801 0.48344 0.69801 0.0
H1342 H 0.90467 0.47113 0.64442 0.0
H1343 H 0.0093 0.54273 0.69276 0.0
H1344 H 0.93161 0.48624 0.78995 0.0
H1345 H 0.88722 0.47025 0.79639 0.0
H1346 H 0.89131 0.52463 0.72685 0.0
H1347 H 0.93576 0.54102 0.72028 0.0
C1348 C 0.05647 0.5575 0.85384 0.0
C1349 C 0.05083 0.56822 0.882 0.0
C1350 C 0.04225 0.54977 0.82252 0.0
C1351 C 0.02081 0.55178 0.81632 0.0
C1352 C 0.01499 0.56212 0.84477 0.0
C1353 C 0.0294 0.57015 0.87587 0.0
C1354 C 0.00495 0.54347 0.78137 0.0
C1355 C 0.97872 0.53174 0.78078 0.0
C1356 C 0.01519 0.54736 0.74768 0.0
C1357 C 0.04211 0.56161 0.74304 0.0
C1358 C 0.05599 0.58525 0.75708 0.0
C1359 C 0.0814 0.59863 0.75242 0.0
C1360 C 0.09309 0.58871 0.73336 0.0
C1361 C 0.07939 0.56543 0.71883 0.0
C1362 C 0.05398 0.55193 0.72357 0.0
C1363 C 0.95209 0.52537 0.61933 0.0
C1364 C 0.9293 0.50299 0.61477 0.0
C1365 C 0.96595 0.5326 0.65086 0.0
C1366 C 0.95823 0.51843 0.68135 0.0
C1367 C 0.93537 0.49595 0.67683 0.0
C1368 C 0.92161 0.48856 0.64507 0.0
C1369 C 0.97388 0.52696 0.71644 0.0
C1370 C 9e-05 0.53911 0.71703 0.0
C1371 C 0.96364 0.52404 0.75003 0.0
C1372 C 0.93696 0.51445 0.75406 0.0
C1373 C 0.92303 0.49468 0.77593 0.0
C1374 C 0.89785 0.48559 0.77966 0.0
C1375 C 0.8864 0.4963 0.76184 0.0
C1376 C 0.90016 0.51623 0.74046 0.0
C1377 C 0.92535 0.52539 0.73669 0.0
H1378 H 0.8669 0.48924 0.76474 0.0
H1379 H 0.11275 0.59912 0.7297 0.0
H1380 H 0.48128 0.00811 0.33292 0.0
H1381 H 0.46685 0.97684 0.37696 0.0
H1382 H 0.44285 0.01831 0.43704 0.0
H1383 H 0.45425 0.0478 0.39129 0.0
H1384 H 0.48366 0.0248 0.46314 0.0
H1385 H 0.41146 0.95479 0.44265 0.0
H1386 H 0.37568 0.92012 0.41567 0.0
H1387 H 0.42071 0.89089 0.38156 0.0
H1388 H 0.45695 0.92573 0.40696 0.0
H1389 H 0.53529 0.94562 0.40241 0.0
H1390 H 0.53069 0.96161 0.45636 0.0
H1391 H 0.5101 0.00823 0.40275 0.0
H1392 H 0.50842 0.98746 0.34961 0.0
H1393 H 0.47694 0.94335 0.45595 0.0
H1394 H 0.52845 0.04909 0.44285 0.0
H1395 H 0.5692 0.08207 0.46118 0.0
H1396 H 0.56752 0.0385 0.54586 0.0
H1397 H 0.52728 0.00479 0.52716 0.0
C1398 C 0.47182 0.00986 0.35473 0.0
C1399 C 0.47047 0.03114 0.35986 0.0
C1400 C 0.46337 0.99193 0.38001 0.0
C1401 C 0.45532 0.99616 0.41141 0.0
C1402 C 0.44972 0.01502 0.41359 0.0
C1403 C 0.45689 0.03222 0.38761 0.0
C1404 C 0.46228 0.98791 0.44257 0.0
C1405 C 0.48162 0.00665 0.46167 0.0
C1406 C 0.45872 0.96385 0.44421 0.0
C1407 C 0.43703 0.94279 0.42781 0.0
C1408 C 0.41387 0.94108 0.42928 0.0
C1409 C 0.39344 0.92137 0.41409 0.0
C1410 C 0.39588 0.90322 0.39707 0.0
C1411 C 0.4188 0.90488 0.39493 0.0
C1412 C 0.43931 0.92459 0.40994 0.0
C1413 C 0.52943 0.9591 0.40212 0.0
C1414 C 0.51923 0.96317 0.37261 0.0
C1415 C 0.52773 0.96888 0.43308 0.0
C1416 C 0.51813 0.98466 0.4339 0.0
C1417 C 0.51576 0.99458 0.40292 0.0
C1418 C 0.51492 0.98289 0.37234 0.0
C1419 C 0.50108 0.98211 0.46162 0.0
C1420 C 0.47796 0.96104 0.45744 0.0
C1421 C 0.5014 0.00367 0.47167 0.0
C1422 C 0.52467 0.02461 0.48398 0.0
C1423 C 0.53661 0.04667 0.46564 0.0
C1424 C 0.55974 0.0654 0.47591 0.0
C1425 C 0.57075 0.06259 0.50502 0.0
C1426 C 0.55893 0.04077 0.52346 0.0
C1427 C 0.53607 0.02175 0.51286 0.0
H1428 H 0.58854 0.07723 0.51311 0.0
H1429 H 0.38004 0.88794 0.3854 0.0
H1430 H 0.43052 0.49199 0.71749 0.0
H1431 H 0.45489 0.5018 0.76928 0.0
H1432 H 0.52056 0.54296 0.70951 0.0
H1433 H 0.49596 0.53516 0.65903 0.0
H1434 H 0.48579 0.49934 0.80378 0.0
H1435 H 0.56348 0.59197 0.73503 0.0
H1436 H 0.56414 0.62775 0.70905 0.0
H1437 H 0.49352 0.60637 0.75158 0.0
H1438 H 0.49246 0.5704 0.77822 0.0
H1439 H 0.52736 0.46495 0.72951 0.0
H1440 H 0.53052 0.48516 0.78283 0.0
H1441 H 0.56879 0.55566 0.73205 0.0
H1442 H 0.56553 0.5348 0.67901 0.0
H1443 H 0.566 0.57351 0.78512 0.0
H1444 H 0.56518 0.5187 0.84041 0.0
H1445 H 0.56831 0.50333 0.89598 0.0
H1446 H 0.4922 0.47766 0.91488 0.0
H1447 H 0.48831 0.49323 0.85992 0.0
C1448 C 0.45016 0.50274 0.7155 0.0
C1449 C 0.4613 0.51369 0.68459 0.0
C1450 C 0.4641 0.50862 0.74524 0.0
C1451 C 0.48949 0.52473 0.74386 0.0
C1452 C 0.50085 0.53192 0.71189 0.0
C1453 C 0.48686 0.5266 0.6826 0.0
C1454 C 0.50491 0.53319 0.77479 0.0
C1455 C 0.50313 0.51574 0.79875 0.0
C1456 C 0.52688 0.55646 0.77485 0.0
C1457 C 0.5279 0.5784 0.75896 0.0
C1458 C 0.54816 0.59491 0.73932 0.0
C1459 C 0.54857 0.61522 0.72424 0.0
C1460 C 0.52888 0.61932 0.72864 0.0
C1461 C 0.50871 0.6031 0.74808 0.0
C1462 C 0.50817 0.58272 0.7631 0.0
C1463 C 0.53628 0.4848 0.72981 0.0
C1464 C 0.5467 0.49838 0.70021 0.0
C1465 C 0.53844 0.49657 0.76069 0.0
C1466 C 0.54968 0.5224 0.76268 0.0
C1467 C 0.55979 0.53585 0.73243 0.0
C1468 C 0.55797 0.52395 0.70167 0.0
C1469 C 0.54647 0.53448 0.79409 0.0
C1470 C 0.54816 0.55722 0.78772 0.0
C1471 C 0.52516 0.51901 0.81293 0.0
C1472 C 0.52637 0.50709 0.84502 0.0
C1473 C 0.54888 0.5096 0.85597 0.0
C1474 C 0.55086 0.50095 0.88772 0.0
C1475 C 0.5305 0.48953 0.90895 0.0
C1476 C 0.50798 0.48645 0.89833 0.0
C1477 C 0.50586 0.4952 0.86668 0.0
H1478 H 0.53225 0.48314 0.93367 0.0
H1479 H 0.52925 0.63507 0.71697 0.0
H1480 H 0.92376 0.46941 1.06096 0.0
H1481 H 0.93656 0.46902 0.11709 0.0
H1482 H 0.97221 0.42864 1.08391 0.0
H1483 H 0.95701 0.4276 1.02663 0.0
H1484 H 0.95463 0.47273 0.16941 0.0
H1485 H 0.9736 0.42185 0.17776 0.0
H1486 H 0.98417 0.38946 0.18644 0.0
H1487 H 0.04019 0.42179 0.11048 0.0
H1488 H 0.02977 0.45394 0.10051 0.0
H1489 H 0.05065 0.57545 1.0614 0.0
H1490 H 0.03239 0.55407 0.11453 0.0
H1491 H -0.00148 0.48526 1.06019 0.0
H1492 H 0.01973 0.50614 1.00883 0.0
H1493 H 0.03143 0.48888 0.11639 0.0
H1494 H 0.97815 0.52729 0.09517 0.0
H1495 H 0.96819 0.5598 0.10597 0.0
H1496 H 0.96566 0.54645 0.21293 0.0
H1497 H 0.97715 0.51482 0.20298 0.0
C1498 C 0.9345 0.46054 1.06532 0.0
C1499 C 0.93972 0.4489 1.03894 0.0
C1500 C 0.94188 0.46009 0.09822 0.0
C1501 C 0.95688 0.44989 0.10601 0.0
C1502 C 0.96136 0.43733 1.07956 0.0
C1503 C 0.95293 0.43694 1.0464 0.0
C1504 C 0.97166 0.45717 0.13868 0.0
C1505 C 0.97118 0.4765 0.15602 0.0
C1506 C 0.99574 0.46127 0.13539 0.0
C1507 C 0.00119 0.44091 0.13899 0.0
C1508 C 0.98808 0.42206 0.16265 0.0
C1509 C 0.99408 0.40368 0.16784 0.0
C1510 C 0.0131 0.40384 0.14939 0.0
C1511 C 0.02572 0.42194 0.12511 0.0
C1512 C 0.01982 0.44036 0.11981 0.0
C1513 C 0.03936 0.55578 1.06083 0.0
C1514 C 0.03762 0.54227 1.03136 0.0
C1515 C 0.02872 0.54363 0.09127 0.0
C1516 C 0.01478 0.51798 0.09164 0.0
C1517 C 0.00973 0.50504 1.06078 0.0
C1518 C 0.02141 0.51701 1.03109 0.0
C1519 C 0.0071 0.50349 0.12329 0.0
C1520 C 0.01374 0.48516 0.12579 0.0
C1521 C 0.98675 0.50026 0.14305 0.0
C1522 C 0.97994 0.5195 0.14839 0.0
C1523 C 0.9766 0.53192 0.1211 0.0
C1524 C 0.97047 0.55014 0.12707 0.0
C1525 C 0.96673 0.55551 0.16015 0.0
C1526 C 0.96885 0.54249 0.18732 0.0
C1527 C 0.97529 0.52449 0.18152 0.0
H1528 H 0.96183 0.56951 0.16468 0.0
H1529 H 0.0181 0.38994 0.15383 0.0
H1530 H 0.07248 0.56061 0.44756 0.0
H1531 H 0.05731 0.5519 0.39067 0.0
H1532 H 0.02501 0.47396 0.41087 0.0
H1533 H 0.04208 0.48334 0.46756 0.0
H1534 H 0.03094 0.54235 0.34784 0.0
H1535 H 0.04585 0.49344 0.31131 0.0
H1536 H 0.05914 0.46584 0.28753 0.0
H1537 H 0.00486 0.40623 0.34664 0.0
H1538 H 0.99103 0.43329 0.37089 0.0
H1539 H 0.95566 0.51287 0.47177 0.0
H1540 H 0.97965 0.5235 0.41956 0.0
H1541 H 0.93412 0.44925 0.3828 0.0
H1542 H 0.91205 0.43833 0.43571 0.0
H1543 H 0.9706 0.45487 0.3638 0.0
H1544 H 0.01519 0.56619 0.36912 0.0
H1545 H 0.00208 0.59447 0.3475 0.0
H1546 H 0.93686 0.53388 0.30597 0.0
H1547 H 0.94986 0.50513 0.32636 0.0
C1548 C 0.06195 0.54153 0.43994 0.0
C1549 C 0.0582 0.52257 0.4623 0.0
C1550 C 0.05335 0.53648 0.40682 0.0
C1551 C 0.03948 0.51216 0.39519 0.0
C1552 C 0.0357 0.49308 0.41793 0.0
C1553 C 0.04493 0.49826 0.45106 0.0
C1554 C 0.0254 0.50685 0.36251 0.0
C1555 C 0.01759 0.52348 0.35354 0.0
C1556 C 0.00846 0.48217 0.35518 0.0
C1557 C 0.01711 0.46549 0.34266 0.0
C1558 C 0.03672 0.47446 0.31946 0.0
C1559 C 0.04426 0.45884 0.30566 0.0
C1560 C 0.03247 0.43417 0.315 0.0
C1561 C 0.01348 0.4252 0.33872 0.0
C1562 C 0.00571 0.44069 0.35244 0.0
C1563 C 0.95106 0.49891 0.45257 0.0
C1564 C 0.93249 0.47472 0.45831 0.0
C1565 C 0.96431 0.50504 0.42215 0.0
C1566 C 0.95885 0.48718 0.3966 0.0
C1567 C 0.93926 0.46338 0.40187 0.0
C1568 C 0.92671 0.45711 0.43253 0.0
C1569 C 0.97671 0.49201 0.36878 0.0
C1570 C 0.98367 0.47426 0.36182 0.0
C1571 C 0.99271 0.51627 0.35761 0.0
C1572 C 0.98361 0.53337 0.34918 0.0
C1573 C -0.00194 0.55877 0.35534 0.0
C1574 C 0.99066 0.57495 0.34323 0.0
C1575 C 0.96877 0.56598 0.32511 0.0
C1576 C 0.95387 0.54077 0.31989 0.0
C1577 C 0.96121 0.52452 0.33185 0.0
H1578 H 0.96329 0.57853 0.31515 0.0
H1579 H 0.03825 0.42209 0.30406 0.0
H1580 H 0.42945 0.94049 0.78912 0.0
H1581 H 0.45451 0.95641 0.73816 0.0
H1582 H 0.51923 0.97682 0.79864 0.0
H1583 H 0.49369 0.95665 0.84738 0.0
H1584 H 0.48492 0.98675 0.70281 0.0
H1585 H 0.48933 0.92337 0.7367 0.0
H1586 H 0.49024 0.88889 0.76433 0.0
H1587 H 0.56496 0.93651 0.79447 0.0
H1588 H 0.56452 0.97154 0.76803 0.0
H1589 H 0.52431 0.06158 0.77331 0.0
H1590 H 0.52785 0.04427 0.72065 0.0
H1591 H 0.57148 0.01782 0.77115 0.0
H1592 H 0.56762 0.03559 0.8238 0.0
H1593 H 0.56513 0.99269 0.72105 0.0
H1594 H 0.56291 0.04686 0.66467 0.0
H1595 H 0.56467 0.06545 0.60953 0.0
H1596 H 0.4893 0.01232 0.59089 0.0
H1597 H 0.48678 0.99278 0.64547 0.0
C1598 C 0.449 0.94805 0.79124 0.0
C1599 C 0.45958 0.9458 0.82138 0.0
C1600 C 0.46337 0.9573 0.76206 0.0
C1601 C 0.48863 0.96581 0.76371 0.0
C1602 C 0.49953 0.9683 0.79577 0.0
C1603 C 0.48507 0.9577 0.82415 0.0
C1604 C 0.50432 0.97285 0.73303 0.0
C1605 C 0.50223 0.98761 0.70785 0.0
C1606 C 0.52613 0.97123 0.73315 0.0
C1607 C 0.52694 0.95032 0.74977 0.0
C1608 C 0.50596 0.9267 0.74945 0.0
C1609 C 0.50639 0.90696 0.76497 0.0
C1610 C 0.52767 0.91048 0.78104 0.0
C1611 C 0.54854 0.93379 0.78177 0.0
C1612 C 0.54823 0.95363 0.76634 0.0
C1613 C 0.53439 0.05178 0.7732 0.0
C1614 C 0.54582 0.05007 0.80273 0.0
C1615 C 0.53684 0.04205 0.74263 0.0
C1616 C 0.54944 0.0287 0.7409 0.0
C1617 C 0.56129 0.0275 0.77076 0.0
C1618 C 0.55905 0.0376 0.80127 0.0
C1619 C 0.54565 0.01208 0.7108 0.0
C1620 C 0.5473 0.99123 0.71906 0.0
C1621 C 0.52404 0.00555 0.69222 0.0
C1622 C 0.52455 0.01838 0.66017 0.0
C1623 C 0.54649 0.03906 0.64924 0.0
C1624 C 0.54772 0.04972 0.61776 0.0
C1625 C 0.52716 0.04008 0.5968 0.0
C1626 C 0.50521 0.01984 0.6073 0.0
C1627 C 0.50386 0.00895 0.6387 0.0
H1628 H 0.52833 0.04836 0.5724 0.0
H1629 H 0.52799 0.89516 0.793 0.0
H1630 H 0.51371 0.52553 0.16934 0.0
H1631 H 0.53209 0.51163 0.12661 0.0
H1632 H 0.55641 0.57864 1.07046 0.0
H1633 H 0.54081 0.59375 0.11504 0.0
H1634 H 0.51536 0.54394 1.04265 0.0
H1635 H 0.58889 0.54572 1.05279 0.0
H1636 H 0.62582 0.54837 1.07878 0.0
H1637 H 0.58149 0.47818 0.12587 0.0
H1638 H 0.54435 0.47535 0.10085 0.0
H1639 H 0.46407 0.41124 0.09653 0.0
H1640 H 0.47026 0.43382 1.04411 0.0
H1641 H 0.48899 0.49882 0.10239 0.0
H1642 H 0.48941 0.47787 0.15431 0.0
H1643 H 0.5239 0.47017 1.0486 0.0
H1644 H 0.46741 0.51649 1.06708 0.0
H1645 H 0.42745 0.51001 1.04695 0.0
H1646 H 0.43794 0.48375 0.9515 0.0
H1647 H 0.47716 0.48838 0.97196 0.0
C1648 C 0.52406 0.53774 0.1488 0.0
C1649 C 0.52419 0.5598 0.14404 0.0
C1650 C 0.53485 0.52999 0.12433 0.0
C1651 C 0.5439 0.54333 0.09388 0.0
C1652 C 0.54864 0.56755 0.09295 0.0
C1653 C 0.53901 0.57583 0.11817 0.0
C1654 C 0.5376 0.52903 1.06183 0.0
C1655 C 0.5179 0.52811 1.04339 0.0
C1656 C 0.5417 0.50895 1.05903 0.0
C1657 C 0.56387 0.51016 1.07425 0.0
C1658 C 0.58706 0.53085 1.06865 0.0
C1659 C 0.60802 0.53241 1.0833 0.0
C1660 C 0.60602 0.51338 0.10378 0.0
C1661 C 0.58304 0.49282 0.10977 0.0
C1662 C 0.56203 0.4912 0.0952 0.0
C1663 C 0.47002 0.43054 0.09825 0.0
C1664 C 0.47916 0.44361 0.12898 0.0
C1665 C 0.47255 0.44316 1.0681 0.0
C1666 C 0.48184 0.46847 1.06912 0.0
C1667 C 0.48351 0.4796 0.10092 0.0
C1668 C 0.48361 0.46766 0.13076 0.0
C1669 C 0.49917 0.48413 1.04243 0.0
C1670 C 0.52248 0.4866 1.04658 0.0
C1671 C 0.49839 0.50527 1.03321 0.0
C1672 C 0.47521 0.50296 1.0209 0.0
C1673 C 0.46114 0.50926 1.04184 0.0
C1674 C 0.4385 0.50562 1.03052 0.0
C1675 C 0.43022 0.49657 0.99789 0.0
C1676 C 0.44432 0.49062 0.97678 0.0
C1677 C 0.46658 0.49342 0.98839 0.0
H1678 H 0.41289 0.49419 0.98897 0.0
H1679 H 0.62226 0.51462 0.11513 0.0
H1680 H 0.33432 0.91661 0.67699 0.0
H1681 H 0.327 0.92794 0.62076 0.0
H1682 H 0.3407 0.99781 0.6599 0.0
H1683 H 0.34791 0.9865 0.71639 0.0
H1684 H 0.30324 0.97807 0.61065 0.0
H1685 H 0.38893 0.00052 0.62126 0.0
H1686 H 0.42183 0.99222 0.63847 0.0
H1687 H 0.39106 0.92822 0.57496 0.0
H1688 H 0.35844 0.93664 0.55637 0.0
H1689 H 0.36437 0.06085 0.47407 0.0
H1690 H 0.34688 0.03708 0.52583 0.0
H1691 H 0.33231 0.97096 0.47311 0.0
H1692 H 0.34989 0.99464 0.42138 0.0
H1693 H 0.36498 0.98391 0.5272 0.0
H1694 H 0.28541 0.97356 0.50548 0.0
H1695 H 0.25585 0.98705 0.49104 0.0
H1696 H 0.27735 0.03306 0.57948 0.0
H1697 H 0.3073 0.02014 0.59423 0.0
C1698 C 0.33551 0.93427 0.67363 0.0
C1699 C 0.34203 0.95087 0.70075 0.0
C1700 C 0.33119 0.94064 0.64166 0.0
C1701 C 0.3336 0.96378 0.6363 0.0
C1702 C 0.33868 0.97983 0.66372 0.0
C1703 C 0.34286 0.9734 0.69583 0.0
C1704 C 0.33371 0.97227 0.60153 0.0
C1705 C 0.31667 0.9794 0.59227 0.0
C1706 C 0.35122 0.97382 0.5778 0.0
C1707 C 0.37127 0.96915 0.58757 0.0
C1708 C 0.3893 0.98476 0.61082 0.0
C1709 C 0.40795 0.98011 0.62064 0.0
C1710 C 0.40861 0.95977 0.60759 0.0
C1711 C 0.39071 0.94415 0.58455 0.0
C1712 C 0.37224 0.94894 0.57419 0.0
C1713 C 0.35669 0.04113 0.47332 0.0
C1714 C 0.35865 0.02956 0.44397 0.0
C1715 C 0.34657 0.02756 0.50276 0.0
C1716 C 0.33838 0.00233 0.50314 0.0
C1717 C 0.33845 0.99043 0.47311 0.0
C1718 C 0.3484 0.00394 0.44361 0.0
C1719 C 0.3343 0.98962 0.53584 0.0
C1720 C 0.35097 0.98196 0.54503 0.0
C1721 C 0.31681 0.98822 0.55956 0.0
C1722 C 0.29873 0.99598 0.55085 0.0
C1723 C 0.28398 0.98671 0.52172 0.0
C1724 C 0.26712 0.99422 0.51351 0.0
C1725 C 0.26475 0.01093 0.5343 0.0
C1726 C 0.2792 0.02012 0.5634 0.0
C1727 C 0.2961 0.01267 0.57173 0.0
H1728 H 0.25169 0.01673 0.52789 0.0
H1729 H 0.42293 0.95606 0.61542 0.0
H1730 H 0.35304 0.37052 0.08707 0.0
H1731 H 0.33765 0.38362 1.03916 0.0
H1732 H 0.35189 0.33789 0.97215 0.0
H1733 H 0.36705 0.32453 1.01991 0.0
H1734 H 0.37932 0.38874 0.95946 0.0
H1735 H 0.29589 0.32515 0.98047 0.0
H1736 H 0.25851 0.3023 1.01495 0.0
H1737 H 0.25397 0.36777 1.0276 0.0
H1738 H 0.29155 0.39111 0.99358 0.0
H1739 H 0.3127 0.38698 0.80433 0.0
H1740 H 0.3085 0.37392 0.86332 0.0
H1741 H 0.365 0.44667 0.89249 0.0
H1742 H 0.36943 0.45981 0.83326 0.0
H1743 H 0.30136 0.38544 0.92808 0.0
H1744 H 0.40607 0.43821 0.94195 0.0
H1745 H 0.44368 0.45873 0.90712 0.0
H1746 H 0.40535 0.41097 0.82362 0.0
H1747 H 0.36775 0.38985 0.85814 0.0
C1748 C 0.3519 0.36247 1.06237 0.0
C1749 C 0.36154 0.34681 1.05695 0.0
C1750 C 0.34317 0.37001 1.03507 0.0
C1751 C 0.34393 0.36186 1.00228 0.0
C1752 C 0.35132 0.34441 0.99739 0.0
C1753 C 0.36 0.33686 1.02458 0.0
C1754 C 0.34138 0.37458 0.97264 0.0
C1755 C 0.36229 0.38811 0.95266 0.0
C1756 C 0.31926 0.37396 0.96433 0.0
C1757 C 0.2967 0.35995 0.98481 0.0
C1758 C 0.28708 0.33474 0.9909 0.0
C1759 C 0.26581 0.32168 1.01029 0.0
C1760 C 0.25392 0.33359 1.02355 0.0
C1761 C 0.26323 0.35858 1.01736 0.0
C1762 C 0.2845 0.37173 0.99801 0.0
C1763 C 0.32359 0.4004 0.82349 0.0
C1764 C 0.34176 0.42419 0.81434 0.0
C1765 C 0.32112 0.39296 0.85718 0.0
C1766 C 0.33678 0.40922 0.882 0.0
C1767 C 0.353 0.4338 0.8735 0.0
C1768 C 0.35561 0.44121 0.83975 0.0
C1769 C 0.33921 0.39921 0.91458 0.0
C1770 C 0.31845 0.38637 0.93526 0.0
C1771 C 0.3615 0.40025 0.92356 0.0
C1772 C 0.38398 0.41279 0.90243 0.0
C1773 C 0.40568 0.43217 0.91612 0.0
C1774 C 0.427 0.44386 0.89647 0.0
C1775 C 0.42684 0.43628 0.86313 0.0
C1776 C 0.40542 0.4169 0.84941 0.0
C1777 C 0.3841 0.40505 0.869 0.0
H1778 H 0.44336 0.44537 0.84799 0.0
H1779 H 0.23745 0.32345 1.03854 0.0
H1780 H 0.98761 0.35402 0.11601 0.0
H1781 H 0.00016 0.34687 0.1711 0.0
H1782 H 0.9242 0.29984 0.1986 0.0
H1783 H 0.91164 0.30821 0.14386 0.0
H1784 H 0.94281 0.33041 0.24375 0.0
H1785 H 0.96983 0.27984 0.19504 0.0
H1786 H 0.98952 0.26561 0.15387 0.0
H1787 H 0.05973 0.32831 0.17621 0.0
H1788 H 0.04047 0.34314 0.21715 0.0
H1789 H -0.00244 0.35379 0.40535 0.0
H1790 H 0.97748 0.32717 0.3569 0.0
H1791 H 0.03747 0.37625 0.29261 0.0
H1792 H 0.05884 0.40172 0.34156 0.0
H1793 H 0.01881 0.32903 0.27263 0.0
H1794 H 0.97759 0.38273 0.29197 0.0
H1795 H 0.9574 0.39645 0.33347 0.0
H1796 H 0.91273 0.3223 0.36799 0.0
H1797 H 0.93219 0.30814 0.32608 0.0
C1798 C 0.97364 0.34174 0.13356 0.0
C1799 C 0.94871 0.33209 0.1261 0.0
C1800 C 0.98081 0.33738 0.165 0.0
C1801 C 0.96317 0.32271 0.18922 0.0
C1802 C 0.93819 0.31139 0.18054 0.0
C1803 C 0.93101 0.31623 0.14936 0.0
C1804 C 0.97074 0.32299 0.22495 0.0
C1805 C 0.95893 0.32916 0.25007 0.0
C1806 C 0.99182 0.32149 0.23369 0.0
C1807 C 0.00364 0.3126 0.20924 0.0
C1808 C 0.98945 0.29066 0.19109 0.0
C1809 C 0.00055 0.28249 0.16778 0.0
C1810 C 0.02586 0.29604 0.16243 0.0
C1811 C 0.04013 0.3178 0.18043 0.0
C1812 C 0.02913 0.32606 0.20377 0.0
C1813 C 0.00686 0.35861 0.38113 0.0
C1814 C 0.02965 0.38023 0.37724 0.0
C1815 C 0.99512 0.34352 0.35331 0.0
C1816 C 0.00554 0.35017 0.32092 0.0
C1817 C 0.02895 0.37085 0.31734 0.0
C1818 C 0.041 0.38562 0.34528 0.0
C1819 C 0.9914 0.33735 0.29018 0.0
C1820 C 0.00205 0.32902 0.26617 0.0
C1821 C 0.96893 0.33623 0.28248 0.0
C1822 C 0.95661 0.34453 0.30656 0.0
C1823 C 0.96344 0.36943 0.30845 0.0
C1824 C 0.95212 0.37725 0.33195 0.0
C1825 C 0.93416 0.36032 0.35375 0.0
C1826 C 0.92683 0.33542 0.35133 0.0
C1827 C 0.93785 0.32747 0.32758 0.0
H1828 H 0.92591 0.3665 0.37253 0.0
H1829 H 0.03441 0.28969 0.14435 0.0
H1830 H 0.66718 0.06767 0.68699 0.0
H1831 H 0.67535 0.05303 0.63388 0.0
H1832 H 0.62803 0.97809 0.66549 0.0
H1833 H 0.62007 0.99276 0.71914 0.0
H1834 H 0.66925 0.98441 0.63007 0.0
H1835 H 0.60471 0.00378 0.61789 0.0
H1836 H 0.58598 0.02996 0.62305 0.0
H1837 H 0.64155 0.08383 0.55827 0.0
H1838 H 0.66086 0.05807 0.55312 0.0
H1839 H 0.61494 0.92348 0.47568 0.0
H1840 H 0.63087 0.94071 0.53147 0.0
H1841 H 0.67547 0.01222 0.48678 0.0
H1842 H 0.65937 0.99502 0.43074 0.0
H1843 H 0.64165 0.01084 0.52889 0.0
H1844 H 0.70173 0.98582 0.53411 0.0
H1845 H 0.71783 0.95735 0.52914 0.0
H1846 H 0.66764 0.91118 0.60584 0.0
H1847 H 0.65097 0.93917 0.61095 0.0
C1848 C 0.65867 0.04808 0.68264 0.0
C1849 C 0.64271 0.03127 0.70668 0.0
C1850 C 0.66347 0.03977 0.65251 0.0
C1851 C 0.65206 0.01453 0.64576 0.0
C1852 C 0.63703 0.99765 0.67042 0.0
C1853 C 0.6324 0.00599 0.70083 0.0
C1854 C 0.65379 0.006 0.61163 0.0
C1855 C 0.66317 0.99003 0.60783 0.0
C1856 C 0.64617 0.01376 0.5828 0.0
C1857 C 0.63441 0.02915 0.58548 0.0
C1858 C 0.61305 0.02129 0.60496 0.0
C1859 C 0.60232 0.03605 0.60786 0.0
C1860 C 0.61266 0.05861 0.59115 0.0
C1861 C 0.63364 0.06638 0.5713 0.0
C1862 C 0.64447 0.05171 0.56837 0.0
C1863 C 0.62898 0.94264 0.47754 0.0
C1864 C 0.63565 0.95806 0.44911 0.0
C1865 C 0.63814 0.95247 0.50947 0.0
C1866 C 0.65422 0.97777 0.51324 0.0
C1867 C 0.663 0.99265 0.48433 0.0
C1868 C 0.65374 0.98286 0.45243 0.0
C1869 C 0.65724 0.98919 0.54692 0.0
C1870 C 0.6484 0.00559 0.55081 0.0
C1871 C 0.66498 0.98145 0.57568 0.0
C1872 C 0.675 0.96457 0.57277 0.0
C1873 C 0.69399 0.96951 0.54974 0.0
C1874 C 0.70324 0.95346 0.54694 0.0
C1875 C 0.69374 0.93245 0.56712 0.0
C1876 C 0.67499 0.92746 0.59022 0.0
C1877 C 0.66566 0.94344 0.59312 0.0
H1878 H 0.70093 0.92005 0.56491 0.0
H1879 H 0.60438 0.07004 0.59346 0.0
H1880 H 0.66102 0.6692 1.0773 0.0
H1881 H 0.67745 0.66027 1.02657 0.0
H1882 H 0.62627 0.5831 1.03841 0.0
H1883 H 0.60879 0.59174 0.08816 0.0
H1884 H 0.67663 0.59849 1.00536 0.0
H1885 H 0.60186 0.60338 0.99836 0.0
H1886 H 0.57701 0.62266 1.01167 0.0
H1887 H 0.63108 0.68965 0.96483 0.0
H1888 H 0.65646 0.67081 0.95176 0.0
H1889 H 0.63907 0.55055 0.83854 0.0
H1890 H 0.6444 0.5619 0.89836 0.0
H1891 H 0.67887 0.63845 0.87103 0.0
H1892 H 0.67258 0.6272 0.81109 0.0
H1893 H 0.64171 0.62573 0.91352 0.0
H1894 H 0.71124 0.61387 0.90843 0.0
H1895 H 0.73307 0.59141 0.89549 0.0
H1896 H 0.68647 0.53424 0.96446 0.0
H1897 H 0.66404 0.55612 0.97738 0.0
C1898 C 0.65363 0.65024 1.06962 0.0
C1899 C 0.63314 0.63127 0.08617 0.0
C1900 C 0.66327 0.64518 1.04095 0.0
C1901 C 0.65281 0.62106 1.02884 0.0
C1902 C 0.63456 0.60176 1.04773 0.0
C1903 C 0.6246 0.60681 1.07614 0.0
C1904 C 0.65644 0.61677 0.99319 0.0
C1905 C 0.66908 0.60438 0.98511 0.0
C1906 C 0.64648 0.62452 0.96712 0.0
C1907 C 0.6312 0.63583 0.97454 0.0
C1908 C 0.60858 0.62231 0.99126 0.0
C1909 C 0.59437 0.63313 0.99869 0.0
C1910 C 0.60251 0.6574 0.98923 0.0
C1911 C 0.62483 0.67087 0.97222 0.0
C1912 C 0.63913 0.66013 0.96478 0.0
C1913 C 0.64789 0.56983 0.84525 0.0
C1914 C 0.65513 0.58799 0.8201 0.0
C1915 C 0.65126 0.57629 0.87945 0.0
C1916 C 0.66223 0.60103 0.88909 0.0
C1917 C 0.67048 0.61925 0.86404 0.0
C1918 C 0.66698 0.61281 0.82982 0.0
C1919 C 0.66233 0.60764 0.92506 0.0
C1920 C 0.64992 0.62027 0.93341 0.0
C1921 C 0.67219 0.59967 0.95116 0.0
C1922 C 0.68583 0.58658 0.94369 0.0
C1923 C 0.70551 0.59642 0.92066 0.0
C1924 C 0.71801 0.5838 0.91335 0.0
C1925 C 0.71114 0.56139 0.9291 0.0
C1926 C 0.6918 0.55161 0.95231 0.0
C1927 C 0.6792 0.56413 0.95965 0.0
H1928 H 0.72081 0.55163 0.92336 0.0
H1929 H 0.59148 0.66575 0.99498 0.0
H1930 H 0.07967 0.70135 0.13448 0.0
H1931 H 0.06703 0.70616 0.19137 0.0
H1932 H 0.99144 0.65645 0.16505 0.0
H1933 H 0.00384 0.65176 0.10843 0.0
H1934 H 0.99615 0.6894 0.21602 0.0
H1935 H 0.02772 0.63498 0.18508 0.0
H1936 H 0.06016 0.62787 0.16237 0.0
H1937 H 0.1088 0.67205 0.24198 0.0
H1938 H 0.07691 0.6802 0.26442 0.0
H1939 H 0.93449 0.60152 0.34293 0.0
H1940 H 0.95395 0.62669 0.29314 0.0
H1941 H 0.02379 0.66138 0.34477 0.0
H1942 H 0.00473 0.63516 0.39388 0.0
H1943 H 0.02839 0.64626 0.28614 0.0
H1944 H 0.99271 0.69337 0.32421 0.0
H1945 H 0.96003 0.70071 0.34529 0.0
H1946 H 0.91864 0.66962 0.25412 0.0
H1947 H 0.9509 0.66177 0.23266 0.0
C1948 C 0.0603 0.69217 0.14055 0.0
C1949 C 0.04277 0.6757 0.11747 0.0
C1950 C 0.0531 0.6951 0.17287 0.0
C1951 C 0.02839 0.68118 0.18251 0.0
C1952 C 0.01061 0.6673 0.15808 0.0
C1953 C 0.01776 0.66453 0.12573 0.0
C1954 C 0.02165 0.67608 0.2186 0.0
C1955 C 0.00328 0.68018 0.23163 0.0
C1956 C 0.03126 0.66428 0.23887 0.0
C1957 C 0.05008 0.65858 0.22607 0.0
C1958 C 0.04544 0.64347 0.19748 0.0
C1959 C 0.06377 0.63935 0.18454 0.0
C1960 C 0.0866 0.64968 0.20055 0.0
C1961 C 0.09114 0.66416 0.22951 0.0
C1962 C 0.07299 0.66863 0.24226 0.0
C1963 C 0.95398 0.61456 0.34373 0.0
C1964 C 0.96811 0.61614 0.37222 0.0
C1965 C 0.96502 0.62924 0.31543 0.0
C1966 C 0.99029 0.64619 0.31538 0.0
C1967 C 0.00424 0.64853 0.34434 0.0
C1968 C 0.99327 0.63364 0.37248 0.0
C1969 C 0.00253 0.6593 0.28383 0.0
C1970 C 0.0218 0.65635 0.27136 0.0
C1971 C 0.99364 0.67206 0.26418 0.0
C1972 C 0.97423 0.67689 0.27688 0.0
C1973 C 0.97658 0.68796 0.30873 0.0
C1974 C 0.95813 0.69223 0.32073 0.0
C1975 C 0.93726 0.68562 0.30107 0.0
C1976 C 0.93483 0.67475 0.26932 0.0
C1977 C 0.95321 0.67043 0.25719 0.0
H1978 H 0.923 0.68893 0.31042 0.0
H1979 H 0.10069 0.64629 0.19067 0.0
H1980 H 0.4774 0.09396 0.46253 0.0
H1981 H 0.48818 0.09518 0.52261 0.0
H1982 H 0.56015 0.1098 0.49418 0.0
H1983 H 0.54955 0.1093 0.43445 0.0
H1984 H 0.57164 0.12474 0.5483 0.0
H1985 H 0.47445 0.08354 0.61221 0.0
H1986 H 0.43156 0.05193 0.6005 0.0
H1987 H 0.45583 0.01926 0.52545 0.0
H1988 H 0.49875 0.0504 0.53679 0.0
H1989 H 0.54193 0.11315 0.75061 0.0
H1990 H 0.52969 0.1114 0.69091 0.0
H1991 H 0.58614 0.09586 0.66092 0.0
H1992 H 0.59788 0.0969 0.7207 0.0
H1993 H 0.51011 0.07959 0.63721 0.0
H1994 H 0.6003 0.10689 0.57428 0.0
H1995 H 0.64471 0.12904 0.58638 0.0
H1996 H 0.63526 0.17622 0.65609 0.0
H1997 H 0.59078 0.15437 0.64429 0.0
C1998 C 0.4956 0.09732 0.4686 0.0
C1999 C 0.51215 0.10137 0.44132 0.0
C2000 C 0.50194 0.09766 0.50422 0.0
C2001 C 0.52526 0.10151 0.51604 0.0
C2002 C 0.54183 0.10613 0.48852 0.0
C2003 C 0.53556 0.1059 0.45306 0.0
C2004 C 0.53268 0.10134 0.55553 0.0
C2005 C 0.55762 0.11444 0.56696 0.0
C2006 C 0.51586 0.08808 0.58283 0.0
C2007 C 0.48994 0.0696 0.5752 0.0
C2008 C 0.47067 0.06963 0.59321 0.0
C2009 C 0.44631 0.05176 0.58662 0.0
C2010 C 0.44097 0.03368 0.56214 0.0
C2011 C 0.45997 0.03333 0.54431 0.0
C2012 C 0.48433 0.05111 0.55083 0.0
C2013 C 0.55212 0.10948 0.73164 0.0
C2014 C 0.57161 0.10561 0.74274 0.0
C2015 C 0.54478 0.10829 0.69642 0.0
C2016 C 0.55661 0.10376 0.66866 0.0
C2017 C 0.57614 0.09986 0.67976 0.0
C2018 C 0.58312 0.10048 0.71511 0.0
C2019 C 0.54874 0.10331 0.62942 0.0
C2020 C 0.52379 0.09006 0.61819 0.0
C2021 C 0.56558 0.11519 0.60189 0.0
C2022 C 0.59225 0.12889 0.60861 0.0
C2023 C 0.60774 0.12206 0.5921 0.0
C2024 C 0.6329 0.13452 0.59894 0.0
C2025 C 0.6428 0.154 0.62204 0.0
C2026 C 0.62756 0.1611 0.63827 0.0
C2027 C 0.60237 0.14866 0.63155 0.0
H2028 H 0.66228 0.16362 0.62733 0.0
H2029 H 0.42211 0.01992 0.55701 0.0
H2030 H 0.39775 0.49808 0.77478 0.0
H2031 H 0.40892 0.50726 0.83509 0.0
H2032 H 0.46102 0.58184 0.80955 0.0
H2033 H 0.4495 0.57273 0.74928 0.0
H2034 H 0.48235 0.56711 0.86215 0.0
H2035 H 0.40098 0.56064 0.85531 0.0
H2036 H 0.35682 0.53712 0.84154 0.0
H2037 H 0.34813 0.47878 0.90696 0.0
H2038 H 0.39226 0.50189 0.92092 0.0
H2039 H 0.51429 0.61061 1.03794 0.0
H2040 H 0.5038 0.60145 0.97783 0.0
H2041 H 0.43068 0.54606 1.00521 0.0
H2042 H 0.44105 0.55606 1.06508 0.0
H2043 H 0.41969 0.54871 0.95032 0.0
H2044 H 0.49083 0.54394 0.95806 0.0
H2045 H 0.5333 0.5541 0.97031 0.0
H2046 H 0.56059 0.61678 0.90478 0.0
H2047 H 0.51819 0.60705 0.89228 0.0
C2048 C 0.41148 0.51666 0.78147 0.0
C2049 C 0.4221 0.53441 0.75487 0.0
C2050 C 0.41809 0.5221 0.81711 0.0
C2051 C 0.43624 0.54574 0.8296 0.0
C2052 C 0.44705 0.56335 0.80292 0.0
C2053 C 0.44018 0.558 0.76736 0.0
C2054 C 0.44362 0.55208 0.86922 0.0
C2055 C 0.4684 0.56343 0.881 0.0
C2056 C 0.42644 0.54635 0.89655 0.0
C2057 C 0.39987 0.53297 0.88909 0.0
C2058 C 0.38962 0.54281 0.86676 0.0
C2059 C 0.36462 0.52954 0.8589 0.0
C2060 C 0.34969 0.50646 0.87334 0.0
C2061 C 0.35971 0.49666 0.89581 0.0
C2062 C 0.38469 0.50986 0.90377 0.0
C2063 C 0.49587 0.59631 1.03166 0.0
C2064 C 0.47898 0.58436 1.0588 0.0
C2065 C 0.48967 0.5905 0.99593 0.0
C2066 C 0.46607 0.57177 0.98364 0.0
C2067 C 0.44918 0.5603 1.01104 0.0
C2068 C 0.45533 0.56619 1.04666 0.0
C2069 C 0.45882 0.56464 0.94384 0.0
C2070 C 0.43397 0.55294 0.93185 0.0
C2071 C 0.47583 0.56848 0.91663 0.0
C2072 C 0.50136 0.57497 0.92461 0.0
C2073 C 0.50589 0.56001 0.94648 0.0
C2074 C 0.52994 0.56566 0.95341 0.0
C2075 C 0.54963 0.58611 0.93838 0.0
C2076 C 0.5453 0.60097 0.91643 0.0
C2077 C 0.52126 0.5954 0.9094 0.0
H2078 H 0.56823 0.59038 0.9436 0.0
H2079 H 0.33036 0.49618 0.86714 0.0
H2080 H 0.86124 0.43206 0.08947 0.0
H2081 H 0.86 0.44078 0.14985 0.0
H2082 H 0.9043 0.40832 0.17303 0.0
H2083 H 0.90457 0.39863 0.11257 0.0
H2084 H 0.88193 0.40057 0.22802 0.0
H2085 H 0.91919 0.4777 0.17294 0.0
H2086 H 0.92252 0.50843 0.13148 0.0
H2087 H 0.86066 0.50881 0.17662 0.0
H2088 H 0.85601 0.47691 0.21712 0.0
H2089 H 0.85724 0.42295 0.40284 0.0
H2090 H 0.85702 0.41323 0.34253 0.0
H2091 H 0.90488 0.48963 0.321 0.0
H2092 H 0.9048 0.49937 0.3814 0.0
H2093 H 0.88445 0.47697 0.26528 0.0
H2094 H 0.84977 0.37349 0.27712 0.0
H2095 H 0.85094 0.34453 0.31819 0.0
H2096 H 0.91779 0.40258 0.36049 0.0
H2097 H 0.91721 0.43178 0.31934 0.0
C2098 C 0.87071 0.42644 0.10704 0.0
C2099 C 0.88292 0.41419 0.09381 0.0
C2100 C 0.87032 0.43194 0.14278 0.0
C2101 C 0.88256 0.42621 0.1689 0.0
C2102 C 0.89444 0.41356 0.15563 0.0
C2103 C 0.8946 0.40783 0.11987 0.0
C2104 C 0.88289 0.43304 0.20873 0.0
C2105 C 0.88224 0.41733 0.2354 0.0
C2106 C 0.8841 0.45517 0.22164 0.0
C2107 C 0.88711 0.47469 0.19784 0.0
C2108 C 0.9062 0.4842 0.1739 0.0
C2109 C 0.90831 0.50181 0.15053 0.0
C2110 C 0.89197 0.51075 0.15158 0.0
C2111 C 0.87332 0.50189 0.17584 0.0
C2112 C 0.87083 0.48389 0.19886 0.0
C2113 C 0.86786 0.438 0.38568 0.0
C2114 C 0.88088 0.46232 0.39933 0.0
C2115 C 0.86806 0.43225 0.34997 0.0
C2116 C 0.88156 0.4502 0.32434 0.0
C2117 C 0.89425 0.47455 0.33807 0.0
C2118 C 0.89411 0.48032 0.37378 0.0
C2119 C 0.88234 0.44396 0.28449 0.0
C2120 C 0.88361 0.45997 0.25784 0.0
C2121 C 0.88221 0.42238 0.27157 0.0
C2122 C 0.88325 0.40483 0.29546 0.0
C2123 C 0.86479 0.38002 0.29505 0.0
C2124 C 0.86534 0.36357 0.31835 0.0
C2125 C 0.88432 0.37173 0.34205 0.0
C2126 C 0.90302 0.39629 0.34222 0.0
C2127 C 0.90261 0.41279 0.31889 0.0
H2128 H 0.8845 0.35899 0.36028 0.0
H2129 H 0.89373 0.52449 0.13355 0.0
H2130 H 0.44054 0.87793 0.43657 0.0
H2131 H 0.42923 0.87688 0.49594 0.0
H2132 H 0.50513 0.91007 0.52457 0.0
H2133 H 0.51629 0.91024 0.46462 0.0
H2134 H 0.48844 0.89033 0.57782 0.0
H2135 H 0.45286 0.9384 0.53673 0.0
H2136 H 0.4273 0.94983 0.50253 0.0
H2137 H 0.36506 0.87783 0.5164 0.0
H2138 H 0.38999 0.86645 0.55236 0.0
H2139 H 0.43998 0.86749 0.75207 0.0
H2140 H 0.45205 0.86853 0.69293 0.0
H2141 H 0.41896 0.91192 0.66729 0.0
H2142 H 0.40601 0.90987 0.7264 0.0
H2143 H 0.41573 0.89559 0.61251 0.0
H2144 H 0.47427 0.85364 0.63882 0.0
H2145 H 0.50803 0.85667 0.67439 0.0
H2146 H 0.53626 0.93407 0.68659 0.0
H2147 H 0.50176 0.93115 0.65303 0.0
C2148 C 0.45518 0.88516 0.45511 0.0
C2149 C 0.47973 0.89407 0.44347 0.0
C2150 C 0.44853 0.88491 0.4904 0.0
C2151 C 0.46579 0.8939 0.51784 0.0
C2152 C 0.49043 0.90274 0.50613 0.0
C2153 C 0.49709 0.90286 0.47068 0.0
C2154 C 0.4584 0.89348 0.55746 0.0
C2155 C 0.47228 0.89133 0.58458 0.0
C2156 C 0.43787 0.89549 0.56992 0.0
C2157 C 0.42333 0.90145 0.54655 0.0
C2158 C 0.43379 0.92494 0.5321 0.0
C2159 C 0.4194 0.93144 0.51259 0.0
C2160 C 0.39469 0.91441 0.5067 0.0
C2161 C 0.38424 0.89092 0.52074 0.0
C2162 C 0.39841 0.88452 0.54099 0.0
C2163 C 0.43501 0.87732 0.73418 0.0
C2164 C 0.4213 0.88831 0.74633 0.0
C2165 C 0.44256 0.87834 0.69906 0.0
C2166 C 0.43751 0.89079 0.6725 0.0
C2167 C 0.42378 0.90182 0.68488 0.0
C2168 C 0.41609 0.90066 0.71996 0.0
C2169 C 0.44539 0.89177 0.63297 0.0
C2170 C 0.43167 0.89418 0.60581 0.0
C2171 C 0.46659 0.89093 0.62055 0.0
C2172 C 0.48522 0.89204 0.6442 0.0
C2173 C 0.48738 0.87115 0.64985 0.0
C2174 C 0.50655 0.87284 0.66978 0.0
C2175 C 0.52407 0.8955 0.68319 0.0
C2176 C 0.52236 0.91646 0.67686 0.0
C2177 C 0.50279 0.91472 0.65789 0.0
H2178 H 0.53909 0.89686 0.69823 0.0
H2179 H 0.38353 0.91952 0.49173 0.0
H2180 H 0.60005 0.50372 0.78064 0.0
H2181 H 0.58846 0.49321 0.84036 0.0
H2182 H 0.53279 0.42074 0.81072 0.0
H2183 H 0.54463 0.43124 0.75096 0.0
H2184 H 0.51294 0.43161 0.86358 0.0
H2185 H 0.59538 0.44104 0.85856 0.0
H2186 H 0.63974 0.46538 0.84649 0.0
H2187 H 0.64618 0.52225 0.91337 0.0
H2188 H 0.60195 0.49824 0.92594 0.0
H2189 H 0.48164 0.38279 1.03685 0.0
H2190 H 0.49273 0.39326 0.97706 0.0
H2191 H 0.56162 0.45512 1.00745 0.0
H2192 H 0.55121 0.44332 1.06681 0.0
H2193 H 0.57484 0.45118 0.95337 0.0
H2194 H 0.49935 0.4481 0.96321 0.0
H2195 H 0.4557 0.43365 0.97386 0.0
H2196 H 0.43525 0.37677 0.89946 0.0
H2197 H 0.47887 0.39077 0.88842 0.0
C2198 C 0.58547 0.48534 0.78632 0.0
C2199 C 0.57398 0.4686 0.75882 0.0
C2200 C 0.57863 0.47906 0.82162 0.0
C2201 C 0.55943 0.45553 0.83275 0.0
C2202 C 0.54766 0.43901 0.80512 0.0
C2203 C 0.55476 0.44515 0.7699 0.0
C2204 C 0.55173 0.44818 0.87189 0.0
C2205 C 0.52673 0.43554 0.88279 0.0
C2206 C 0.56868 0.454 0.89957 0.0
C2207 C 0.59537 0.46791 0.89301 0.0
C2208 C 0.6063 0.45872 0.87073 0.0
C2209 C 0.63142 0.47246 0.86383 0.0
C2210 C 0.64579 0.49536 0.87917 0.0
C2211 C 0.63508 0.5045 0.9016 0.0
C2212 C 0.61 0.49081 0.90869 0.0
C2213 C 0.49929 0.39864 1.03123 0.0
C2214 C 0.51512 0.41183 1.05885 0.0
C2215 C 0.50576 0.40516 0.99585 0.0
C2216 C 0.52833 0.42599 0.98472 0.0
C2217 C 0.54408 0.43901 1.01261 0.0
C2218 C 0.53785 0.43216 1.04782 0.0
C2219 C 0.53576 0.43385 0.94547 0.0
C2220 C 0.56077 0.44673 0.93444 0.0
C2221 C 0.51879 0.42934 0.91799 0.0
C2222 C 0.49249 0.42034 0.92522 0.0
C2223 C 0.48561 0.4324 0.94923 0.0
C2224 C 0.46084 0.42429 0.95535 0.0
C2225 C 0.44272 0.4042 0.93751 0.0
C2226 C 0.44933 0.39226 0.91337 0.0
C2227 C 0.47408 0.40029 0.90716 0.0
H2228 H 0.42355 0.39792 0.94228 0.0
H2229 H 0.66521 0.50602 0.87371 0.0
H2230 H 0.0962 0.49865 0.38225 0.0
H2231 H 0.09519 0.50781 0.32171 0.0
H2232 H 0.11637 0.5822 0.34702 0.0
H2233 H 0.11856 0.57338 0.40745 0.0
H2234 H 0.07958 0.5652 0.29406 0.0
H2235 H 0.15645 0.56544 0.30466 0.0
H2236 H 0.18153 0.5466 0.31913 0.0
H2237 H 0.13927 0.48715 0.25039 0.0
H2238 H 0.11376 0.5055 0.23581 0.0
H2239 H 0.09535 0.61015 0.11726 0.0
H2240 H 0.09706 0.60212 0.17793 0.0
H2241 H 0.1078 0.54163 0.15265 0.0
H2242 H 0.10746 0.5506 0.09226 0.0
H2243 H 0.12717 0.55009 0.20722 0.0
H2244 H 0.05308 0.54837 0.19031 0.0
H2245 H 0.02245 0.56033 0.17713 0.0
H2246 H 0.04697 0.61033 0.26118 0.0
H2247 H 0.0804 0.60159 0.27184 0.0
C2248 C 0.10105 0.51721 0.37545 0.0
C2249 C 0.10791 0.53505 0.40196 0.0
C2250 C 0.10037 0.52258 0.33975 0.0
C2251 C 0.10573 0.54612 0.32723 0.0
C2252 C 0.11205 0.5638 0.3538 0.0
C2253 C 0.11348 0.55863 0.3894 0.0
C2254 C 0.10491 0.55222 0.28762 0.0
C2255 C 0.09056 0.56239 0.27538 0.0
C2256 C 0.11764 0.54761 0.2609 0.0
C2257 C 0.13312 0.53676 0.26932 0.0
C2258 C 0.15244 0.54828 0.29277 0.0
C2259 C 0.16674 0.5377 0.30097 0.0
C2260 C 0.16197 0.51567 0.28573 0.0
C2261 C 0.14294 0.50421 0.26218 0.0
C2262 C 0.12858 0.51471 0.25391 0.0
C2263 C 0.09822 0.59511 0.12412 0.0
C2264 C 0.1014 0.58146 0.09748 0.0
C2265 C 0.09892 0.5901 0.16007 0.0
C2266 C 0.10208 0.57044 0.17297 0.0
C2267 C 0.10532 0.55695 0.14611 0.0
C2268 C 0.10504 0.56222 0.11029 0.0
C2269 C 0.10223 0.56404 0.21294 0.0
C2270 C 0.11636 0.55353 0.22544 0.0
C2271 C 0.08847 0.56756 0.23973 0.0
C2272 C 0.06964 0.57448 0.23163 0.0
C2273 C 0.05252 0.56245 0.20547 0.0
C2274 C 0.03454 0.56864 0.19846 0.0
C2275 C 0.03219 0.58546 0.21893 0.0
C2276 C 0.04864 0.59708 0.24552 0.0
C2277 C 0.06755 0.59199 0.25151 0.0
H2278 H 0.01782 0.58973 0.21388 0.0
H2279 H 0.17305 0.5075 0.29212 0.0
loop_
_geom_bond_atom_site_label_1
_geom_bond_atom_site_label_2
_geom_bond_distance
_geom_bond_site_symmetry_2
_ccdc_geom_bond_type
La0 C2 2.928 . S
La0 O20 2.521 . S
La0 O21 2.628 . S
La0 O22 2.554 . S
La0 O23 2.757 . S
La0 O24 2.470 . S
La0 O29 2.482 . S
La0 O31 2.503 . S
La1 C11 2.928 . S
La1 O23 2.482 . S
La1 O25 2.503 . S
La1 O26 2.521 . S
La1 O27 2.628 . S
La1 O28 2.554 . S
La1 O29 2.757 . S
La1 O30 2.470 . S
C2 La0 2.928 . S
C2 C3 1.503 . S
C2 O20 1.261 . S
C2 O21 1.243 . S
C3 C2 1.503 . S
C3 C4 1.394 . S
C3 C8 1.373 . S
C4 C3 1.394 . S
C4 C5 1.380 . S
C4 H32 0.930 . S
C5 C4 1.380 . S
C5 C6 1.376 . S
C5 H33 0.930 . S
C6 C5 1.376 . S
C6 C7 1.370 . S
C7 C6 1.370 . S
C7 C8 1.396 . S
C7 H34 0.929 . S
C8 C3 1.373 . S
C8 C7 1.396 . S
C8 H35 0.929 . S
C9 O22 1.240 . S
C9 O23 1.289 . S
C10 O24 1.258 . S
C10 O25 1.256 . S
C11 La1 2.928 . S
C11 C12 1.503 . S
C11 O26 1.261 . S
C11 O27 1.243 . S
C12 C11 1.503 . S
C12 C13 1.394 . S
C12 C17 1.373 . S
C13 C12 1.394 . S
C13 C14 1.380 . S
C13 H36 0.930 . S
C14 C13 1.380 . S
C14 C15 1.376 . S
C14 H37 0.930 . S
C15 C14 1.376 . S
C15 C16 1.370 . S
C16 C15 1.370 . S
C16 C17 1.396 . S
C16 H38 0.929 . S
C17 C12 1.373 . S
C17 C16 1.396 . S
C17 H39 0.929 . S
C18 O28 1.240 . S
C18 O29 1.289 . S
C19 O30 1.258 . S
C19 O31 1.256 . S
O20 La0 2.521 . S
O20 C2 1.261 . S
O21 La0 2.628 . S
O21 C2 1.243 . S
O22 La0 2.554 . S
O22 C9 1.240 . S
O23 La0 2.757 . S
O23 La1 2.482 . S
O23 C9 1.289 . S
O24 La0 2.470 . S
O24 C10 1.258 . S
O25 La1 2.503 . S
O25 C10 1.256 . S
O26 La1 2.521 . S
O26 C11 1.261 . S
O27 La1 2.628 . S
O27 C11 1.243 . S
O28 La1 2.554 . S
O28 C18 1.240 . S
O29 La0 2.482 . S
O29 La1 2.757 . S
O29 C18 1.289 . S
O30 La1 2.470 . S
O30 C19 1.258 . S
O31 La0 2.503 . S
O31 C19 1.256 . S
H32 C4 0.930 . S
H33 C5 0.930 . S
H34 C7 0.929 . S
H35 C8 0.929 . S
H36 C13 0.930 . S
H37 C14 0.930 . S
H38 C16 0.929 . S
H39 C17 0.929 . S
La40 C42 2.928 . S
La40 O60 2.521 . S
La40 O61 2.628 . S
La40 O62 2.554 . S
La40 O63 2.757 . S
La40 O64 2.470 . S
La40 O69 2.482 . S
La40 O71 2.503 . S
La41 C51 2.928 . S
La41 O63 2.482 . S
La41 O65 2.503 . S
La41 O66 2.521 . S
La41 O67 2.628 . S
La41 O68 2.554 . S
La41 O69 2.757 . S
La41 O70 2.470 . S
C42 La40 2.928 . S
C42 C43 1.503 . S
C42 O60 1.261 . S
C42 O61 1.243 . S
C43 C42 1.503 . S
C43 C44 1.394 . S
C43 C48 1.373 . S
C44 C43 1.394 . S
C44 C45 1.380 . S
C44 H72 0.930 . S
C45 C44 1.380 . S
C45 C46 1.376 . S
C45 H73 0.930 . S
C46 C45 1.376 . S
C46 C47 1.370 . S
C47 C46 1.370 . S
C47 C48 1.396 . S
C47 H74 0.929 . S
C48 C43 1.373 . S
C48 C47 1.396 . S
C48 H75 0.929 . S
C49 O62 1.240 . S
C49 O63 1.289 . S
C50 O64 1.258 . S
C50 O65 1.256 . S
C51 La41 2.928 . S
C51 C52 1.503 . S
C51 O66 1.261 . S
C51 O67 1.243 . S
C52 C51 1.503 . S
C52 C53 1.394 . S
C52 C57 1.373 . S
C53 C52 1.394 . S
C53 C54 1.380 . S
C53 H76 0.930 . S
C54 C53 1.380 . S
C54 C55 1.376 . S
C54 H77 0.930 . S
C55 C54 1.376 . S
C55 C56 1.370 . S
C56 C55 1.370 . S
C56 C57 1.396 . S
C56 H78 0.929 . S
C57 C52 1.373 . S
C57 C56 1.396 . S
C57 H79 0.929 . S
C58 O68 1.240 . S
C58 O69 1.289 . S
C59 O70 1.258 . S
C59 O71 1.256 . S
O60 La40 2.521 . S
O60 C42 1.261 . S
O61 La40 2.628 . S
O61 C42 1.243 . S
O62 La40 2.554 . S
O62 C49 1.240 . S
O63 La40 2.757 . S
O63 La41 2.482 . S
O63 C49 1.289 . S
O64 La40 2.470 . S
O64 C50 1.258 . S
O65 La41 2.503 . S
O65 C50 1.256 . S
O66 La41 2.521 . S
O66 C51 1.261 . S
O67 La41 2.628 . S
O67 C51 1.243 . S
O68 La41 2.554 . S
O68 C58 1.240 . S
O69 La40 2.482 . S
O69 La41 2.757 . S
O69 C58 1.289 . S
O70 La41 2.470 . S
O70 C59 1.258 . S
O71 La40 2.503 . S
O71 C59 1.256 . S
H72 C44 0.930 . S
H73 C45 0.930 . S
H74 C47 0.929 . S
H75 C48 0.929 . S
H76 C53 0.930 . S
H77 C54 0.930 . S
H78 C56 0.929 . S
H79 C57 0.929 . S
La80 C82 2.928 . S
La80 O100 2.521 . S
La80 O101 2.628 . S
La80 O102 2.554 . S
La80 O103 2.757 . S
La80 O104 2.470 . S
La80 O109 2.482 . S
La80 O111 2.503 . S
La81 C91 2.928 . S
La81 O103 2.482 . S
La81 O105 2.503 . S
La81 O106 2.521 . S
La81 O107 2.628 . S
La81 O108 2.554 . S
La81 O109 2.757 . S
La81 O110 2.470 . S
C82 La80 2.928 . S
C82 C83 1.503 1_556 S
C82 O100 1.261 . S
C82 O101 1.243 . S
C83 C82 1.503 1_554 S
C83 C84 1.394 . S
C83 C88 1.373 . S
C84 C83 1.394 . S
C84 C85 1.380 . S
C84 H112 0.930 . S
C85 C84 1.380 . S
C85 C86 1.376 . S
C85 H113 0.930 . S
C86 C85 1.376 . S
C86 C87 1.370 . S
C87 C86 1.370 . S
C87 C88 1.396 . S
C87 H114 0.929 . S
C88 C83 1.373 . S
C88 C87 1.396 . S
C88 H115 0.929 . S
C89 O102 1.240 . S
C89 O103 1.289 . S
C90 O104 1.258 . S
C90 O105 1.256 . S
C91 La81 2.928 . S
C91 C92 1.503 . S
C91 O106 1.261 . S
C91 O107 1.243 . S
C92 C91 1.503 . S
C92 C93 1.394 . S
C92 C97 1.373 . S
C93 C92 1.394 . S
C93 C94 1.380 . S
C93 H116 0.930 . S
C94 C93 1.380 . S
C94 C95 1.376 . S
C94 H117 0.930 . S
C95 C94 1.376 . S
C95 C96 1.370 . S
C96 C95 1.370 . S
C96 C97 1.396 . S
C96 H118 0.929 . S
C97 C92 1.373 . S
C97 C96 1.396 . S
C97 H119 0.929 . S
C98 O108 1.240 . S
C98 O109 1.289 . S
C99 O110 1.258 . S
C99 O111 1.256 . S
O100 La80 2.521 . S
O100 C82 1.261 . S
O101 La80 2.628 . S
O101 C82 1.243 . S
O102 La80 2.554 . S
O102 C89 1.240 . S
O103 La80 2.757 . S
O103 La81 2.482 . S
O103 C89 1.289 . S
O104 La80 2.470 . S
O104 C90 1.258 . S
O105 La81 2.503 . S
O105 C90 1.256 . S
O106 La81 2.521 . S
O106 C91 1.261 . S
O107 La81 2.628 . S
O107 C91 1.243 . S
O108 La81 2.554 . S
O108 C98 1.240 . S
O109 La80 2.482 . S
O109 La81 2.757 . S
O109 C98 1.289 . S
O110 La81 2.470 . S
O110 C99 1.258 . S
O111 La80 2.503 . S
O111 C99 1.256 . S
H112 C84 0.930 . S
H113 C85 0.930 . S
H114 C87 0.929 . S
H115 C88 0.929 . S
H116 C93 0.930 . S
H117 C94 0.930 . S
H118 C96 0.929 . S
H119 C97 0.929 . S
La120 C122 2.928 . S
La120 O140 2.521 . S
La120 O141 2.628 . S
La120 O142 2.554 . S
La120 O143 2.757 . S
La120 O144 2.470 . S
La120 O149 2.482 . S
La120 O151 2.503 . S
La121 C131 2.928 . S
La121 O143 2.482 . S
La121 O145 2.503 . S
La121 O146 2.521 . S
La121 O147 2.628 . S
La121 O148 2.554 . S
La121 O149 2.757 . S
La121 O150 2.470 . S
C122 La120 2.928 . S
C122 C123 1.503 . S
C122 O140 1.261 . S
C122 O141 1.243 . S
C123 C122 1.503 . S
C123 C124 1.394 . S
C123 C128 1.373 . S
C124 C123 1.394 . S
C124 C125 1.380 . S
C124 H152 0.930 . S
C125 C124 1.380 . S
C125 C126 1.376 . S
C125 H153 0.930 . S
C126 C125 1.376 . S
C126 C127 1.370 . S
C127 C126 1.370 . S
C127 C128 1.396 . S
C127 H154 0.929 . S
C128 C123 1.373 . S
C128 C127 1.396 . S
C128 H155 0.929 . S
C129 O142 1.240 . S
C129 O143 1.289 . S
C130 O144 1.258 . S
C130 O145 1.256 . S
C131 La121 2.928 . S
C131 C132 1.503 . S
C131 O146 1.261 . S
C131 O147 1.243 . S
C132 C131 1.503 . S
C132 C133 1.394 . S
C132 C137 1.373 . S
C133 C132 1.394 . S
C133 C134 1.380 . S
C133 H156 0.930 . S
C134 C133 1.380 . S
C134 C135 1.376 . S
C134 H157 0.930 . S
C135 C134 1.376 . S
C135 C136 1.370 . S
C136 C135 1.370 . S
C136 C137 1.396 . S
C136 H158 0.929 . S
C137 C132 1.373 . S
C137 C136 1.396 . S
C137 H159 0.929 . S
C138 O148 1.240 . S
C138 O149 1.289 . S
C139 O150 1.258 . S
C139 O151 1.256 . S
O140 La120 2.521 . S
O140 C122 1.261 . S
O141 La120 2.628 . S
O141 C122 1.243 . S
O142 La120 2.554 . S
O142 C129 1.240 . S
O143 La120 2.757 . S
O143 La121 2.482 . S
O143 C129 1.289 . S
O144 La120 2.470 . S
O144 C130 1.258 . S
O145 La121 2.503 . S
O145 C130 1.256 . S
O146 La121 2.521 . S
O146 C131 1.261 . S
O147 La121 2.628 . S
O147 C131 1.243 . S
O148 La121 2.554 . S
O148 C138 1.240 . S
O149 La120 2.482 . S
O149 La121 2.757 . S
O149 C138 1.289 . S
O150 La121 2.470 . S
O150 C139 1.258 . S
O151 La120 2.503 . S
O151 C139 1.256 . S
H152 C124 0.930 . S
H153 C125 0.930 . S
H154 C127 0.929 . S
H155 C128 0.929 . S
H156 C133 0.930 . S
H157 C134 0.930 . S
H158 C136 0.929 . S
H159 C137 0.929 . S
La160 C162 2.928 . S
La160 O180 2.521 . S
La160 O181 2.628 . S
La160 O182 2.554 . S
La160 O183 2.757 . S
La160 O184 2.470 . S
La160 O189 2.482 . S
La160 O191 2.503 . S
La161 C171 2.928 . S
La161 O183 2.482 . S
La161 O185 2.503 . S
La161 O186 2.521 . S
La161 O187 2.628 . S
La161 O188 2.554 . S
La161 O189 2.757 . S
La161 O190 2.470 . S
C162 La160 2.928 . S
C162 C163 1.503 . S
C162 O180 1.261 . S
C162 O181 1.243 . S
C163 C162 1.503 . S
C163 C164 1.394 . S
C163 C168 1.373 . S
C164 C163 1.394 . S
C164 C165 1.380 . S
C164 H192 0.930 . S
C165 C164 1.380 . S
C165 C166 1.376 . S
C165 H193 0.930 . S
C166 C165 1.376 . S
C166 C167 1.370 . S
C167 C166 1.370 . S
C167 C168 1.396 . S
C167 H194 0.929 . S
C168 C163 1.373 . S
C168 C167 1.396 . S
C168 H195 0.929 . S
C169 O182 1.240 . S
C169 O183 1.289 . S
C170 O184 1.258 . S
C170 O185 1.256 . S
C171 La161 2.928 . S
C171 C172 1.503 . S
C171 O186 1.261 . S
C171 O187 1.243 . S
C172 C171 1.503 . S
C172 C173 1.394 . S
C172 C177 1.373 . S
C173 C172 1.394 . S
C173 C174 1.380 . S
C173 H196 0.930 . S
C174 C173 1.380 . S
C174 C175 1.376 . S
C174 H197 0.930 . S
C175 C174 1.376 . S
C175 C176 1.370 . S
C176 C175 1.370 . S
C176 C177 1.396 . S
C176 H198 0.929 . S
C177 C172 1.373 . S
C177 C176 1.396 . S
C177 H199 0.929 . S
C178 O188 1.240 . S
C178 O189 1.289 . S
C179 O190 1.258 . S
C179 O191 1.256 . S
O180 La160 2.521 . S
O180 C162 1.261 . S
O181 La160 2.628 . S
O181 C162 1.243 . S
O182 La160 2.554 . S
O182 C169 1.240 . S
O183 La160 2.757 . S
O183 La161 2.482 . S
O183 C169 1.289 . S
O184 La160 2.470 . S
O184 C170 1.258 . S
O185 La161 2.503 . S
O185 C170 1.256 . S
O186 La161 2.521 . S
O186 C171 1.261 . S
O187 La161 2.628 . S
O187 C171 1.243 . S
O188 La161 2.554 . S
O188 C178 1.240 . S
O189 La160 2.482 . S
O189 La161 2.757 . S
O189 C178 1.289 . S
O190 La161 2.470 . S
O190 C179 1.258 . S
O191 La160 2.503 . S
O191 C179 1.256 . S
H192 C164 0.930 . S
H193 C165 0.930 . S
H194 C167 0.929 . S
H195 C168 0.929 . S
H196 C173 0.930 . S
H197 C174 0.930 . S
H198 C176 0.929 . S
H199 C177 0.929 . S
La200 C202 2.928 . S
La200 O220 2.521 . S
La200 O221 2.628 . S
La200 O222 2.554 . S
La200 O223 2.757 . S
La200 O224 2.470 . S
La200 O229 2.482 . S
La200 O231 2.503 . S
La201 C211 2.928 . S
La201 O223 2.482 . S
La201 O225 2.503 . S
La201 O226 2.521 . S
La201 O227 2.628 . S
La201 O228 2.554 . S
La201 O229 2.757 . S
La201 O230 2.470 . S
C202 La200 2.928 . S
C202 C203 1.503 1_556 S
C202 O220 1.261 . S
C202 O221 1.243 . S
C203 C202 1.503 1_554 S
C203 C204 1.394 . S
C203 C208 1.373 . S
C204 C203 1.394 . S
C204 C205 1.380 . S
C204 H232 0.930 . S
C205 C204 1.380 . S
C205 C206 1.376 . S
C205 H233 0.930 . S
C206 C205 1.376 . S
C206 C207 1.370 . S
C207 C206 1.370 . S
C207 C208 1.396 . S
C207 H234 0.929 . S
C208 C203 1.373 . S
C208 C207 1.396 . S
C208 H235 0.929 . S
C209 O222 1.240 . S
C209 O223 1.289 . S
C210 O224 1.258 . S
C210 O225 1.256 . S
C211 La201 2.928 . S
C211 C212 1.503 . S
C211 O226 1.261 . S
C211 O227 1.243 . S
C212 C211 1.503 . S
C212 C213 1.394 . S
C212 C217 1.373 . S
C213 C212 1.394 . S
C213 C214 1.380 . S
C213 H236 0.930 . S
C214 C213 1.380 . S
C214 C215 1.376 . S
C214 H237 0.930 . S
C215 C214 1.376 . S
C215 C216 1.370 . S
C216 C215 1.370 . S
C216 C217 1.396 . S
C216 H238 0.929 . S
C217 C212 1.373 . S
C217 C216 1.396 . S
C217 H239 0.929 . S
C218 O228 1.240 . S
C218 O229 1.289 . S
C219 O230 1.258 . S
C219 O231 1.256 . S
O220 La200 2.521 . S
O220 C202 1.261 . S
O221 La200 2.628 . S
O221 C202 1.243 . S
O222 La200 2.554 . S
O222 C209 1.240 . S
O223 La200 2.757 . S
O223 La201 2.482 . S
O223 C209 1.289 . S
O224 La200 2.470 . S
O224 C210 1.258 . S
O225 La201 2.503 . S
O225 C210 1.256 . S
O226 La201 2.521 . S
O226 C211 1.261 . S
O227 La201 2.628 . S
O227 C211 1.243 . S
O228 La201 2.554 . S
O228 C218 1.240 . S
O229 La200 2.482 . S
O229 La201 2.757 . S
O229 C218 1.289 . S
O230 La201 2.470 . S
O230 C219 1.258 . S
O231 La200 2.503 . S
O231 C219 1.256 . S
H232 C204 0.930 . S
H233 C205 0.930 . S
H234 C207 0.929 . S
H235 C208 0.929 . S
H236 C213 0.930 . S
H237 C214 0.930 . S
H238 C216 0.929 . S
H239 C217 0.929 . S
La240 C242 2.928 . S
La240 O260 2.521 . S
La240 O261 2.628 . S
La240 O262 2.554 . S
La240 O263 2.757 . S
La240 O264 2.470 . S
La240 O269 2.482 . S
La240 O271 2.503 . S
La241 C251 2.928 . S
La241 O263 2.482 . S
La241 O265 2.503 . S
La241 O266 2.521 . S
La241 O267 2.628 . S
La241 O268 2.554 . S
La241 O269 2.757 . S
La241 O270 2.470 . S
C242 La240 2.928 . S
C242 C243 1.503 . S
C242 O260 1.261 . S
C242 O261 1.243 . S
C243 C242 1.503 . S
C243 C244 1.394 . S
C243 C248 1.373 . S
C244 C243 1.394 . S
C244 C245 1.380 . S
C244 H272 0.930 . S
C245 C244 1.380 . S
C245 C246 1.376 . S
C245 H273 0.930 . S
C246 C245 1.376 . S
C246 C247 1.370 . S
C247 C246 1.370 . S
C247 C248 1.396 . S
C247 H274 0.929 . S
C248 C243 1.373 . S
C248 C247 1.396 . S
C248 H275 0.929 . S
C249 O262 1.240 . S
C249 O263 1.289 . S
C250 O264 1.258 . S
C250 O265 1.256 . S
C251 La241 2.928 . S
C251 C252 1.503 . S
C251 O266 1.261 . S
C251 O267 1.243 . S
C252 C251 1.503 . S
C252 C253 1.394 . S
C252 C257 1.373 . S
C253 C252 1.394 . S
C253 C254 1.380 . S
C253 H276 0.930 . S
C254 C253 1.380 . S
C254 C255 1.376 . S
C254 H277 0.930 . S
C255 C254 1.376 . S
C255 C256 1.370 . S
C256 C255 1.370 . S
C256 C257 1.396 . S
C256 H278 0.929 . S
C257 C252 1.373 . S
C257 C256 1.396 . S
C257 H279 0.929 . S
C258 O268 1.240 . S
C258 O269 1.289 . S
C259 O270 1.258 . S
C259 O271 1.256 . S
O260 La240 2.521 . S
O260 C242 1.261 . S
O261 La240 2.628 . S
O261 C242 1.243 . S
O262 La240 2.554 . S
O262 C249 1.240 . S
O263 La240 2.757 . S
O263 La241 2.482 . S
O263 C249 1.289 . S
O264 La240 2.470 . S
O264 C250 1.258 . S
O265 La241 2.503 . S
O265 C250 1.256 . S
O266 La241 2.521 . S
O266 C251 1.261 . S
O267 La241 2.628 . S
O267 C251 1.243 . S
O268 La241 2.554 . S
O268 C258 1.240 . S
O269 La240 2.482 . S
O269 La241 2.757 . S
O269 C258 1.289 . S
O270 La241 2.470 . S
O270 C259 1.258 . S
O271 La240 2.503 . S
O271 C259 1.256 . S
H272 C244 0.930 . S
H273 C245 0.930 . S
H274 C247 0.929 . S
H275 C248 0.929 . S
H276 C253 0.930 . S
H277 C254 0.930 . S
H278 C256 0.929 . S
H279 C257 0.929 . S
La280 C282 2.928 . S
La280 O300 2.521 . S
La280 O301 2.628 . S
La280 O302 2.554 . S
La280 O303 2.757 . S
La280 O304 2.470 . S
La280 O309 2.482 . S
La280 O311 2.503 . S
La281 C291 2.928 . S
La281 O303 2.482 . S
La281 O305 2.503 . S
La281 O306 2.521 . S
La281 O307 2.628 . S
La281 O308 2.554 . S
La281 O309 2.757 . S
La281 O310 2.470 . S
C282 La280 2.928 . S
C282 C283 1.503 . S
C282 O300 1.261 . S
C282 O301 1.243 . S
C283 C282 1.503 . S
C283 C284 1.394 . S
C283 C288 1.373 . S
C284 C283 1.394 . S
C284 C285 1.380 . S
C284 H312 0.930 . S
C285 C284 1.380 . S
C285 C286 1.376 . S
C285 H313 0.930 . S
C286 C285 1.376 . S
C286 C287 1.370 . S
C287 C286 1.370 . S
C287 C288 1.396 . S
C287 H314 0.929 . S
C288 C283 1.373 . S
C288 C287 1.396 . S
C288 H315 0.929 . S
C289 O302 1.240 . S
C289 O303 1.289 . S
C290 O304 1.258 . S
C290 O305 1.256 . S
C291 La281 2.928 . S
C291 C292 1.503 . S
C291 O306 1.261 . S
C291 O307 1.243 . S
C292 C291 1.503 . S
C292 C293 1.394 . S
C292 C297 1.373 . S
C293 C292 1.394 . S
C293 C294 1.380 . S
C293 H316 0.930 . S
C294 C293 1.380 . S
C294 C295 1.376 . S
C294 H317 0.930 . S
C295 C294 1.376 . S
C295 C296 1.370 . S
C296 C295 1.370 . S
C296 C297 1.396 . S
C296 H318 0.929 . S
C297 C292 1.373 . S
C297 C296 1.396 . S
C297 H319 0.929 . S
C298 O308 1.240 . S
C298 O309 1.289 . S
C299 O310 1.258 . S
C299 O311 1.256 . S
O300 La280 2.521 . S
O300 C282 1.261 . S
O301 La280 2.628 . S
O301 C282 1.243 . S
O302 La280 2.554 . S
O302 C289 1.240 . S
O303 La280 2.757 . S
O303 La281 2.482 . S
O303 C289 1.289 . S
O304 La280 2.470 . S
O304 C290 1.258 . S
O305 La281 2.503 . S
O305 C290 1.256 . S
O306 La281 2.521 . S
O306 C291 1.261 . S
O307 La281 2.628 . S
O307 C291 1.243 . S
O308 La281 2.554 . S
O308 C298 1.240 . S
O309 La280 2.482 . S
O309 La281 2.757 . S
O309 C298 1.289 . S
O310 La281 2.470 . S
O310 C299 1.258 . S
O311 La280 2.503 . S
O311 C299 1.256 . S
H312 C284 0.930 . S
H313 C285 0.930 . S
H314 C287 0.929 . S
H315 C288 0.929 . S
H316 C293 0.930 . S
H317 C294 0.930 . S
H318 C296 0.929 . S
H319 C297 0.929 . S
La320 C322 2.928 . S
La320 O340 2.521 . S
La320 O341 2.628 . S
La320 O342 2.554 . S
La320 O343 2.757 . S
La320 O344 2.470 . S
La320 O349 2.482 . S
La320 O351 2.503 . S
La321 C331 2.928 . S
La321 O343 2.482 . S
La321 O345 2.503 . S
La321 O346 2.521 . S
La321 O347 2.628 . S
La321 O348 2.554 . S
La321 O349 2.757 . S
La321 O350 2.470 . S
C322 La320 2.928 . S
C322 C323 1.503 1_554 S
C322 O340 1.261 . S
C322 O341 1.243 . S
C323 C322 1.503 1_556 S
C323 C324 1.394 . S
C323 C328 1.373 . S
C324 C323 1.394 . S
C324 C325 1.380 . S
C324 H352 0.930 . S
C325 C324 1.380 . S
C325 C326 1.376 . S
C325 H353 0.930 . S
C326 C325 1.376 . S
C326 C327 1.370 . S
C327 C326 1.370 . S
C327 C328 1.396 . S
C327 H354 0.929 . S
C328 C323 1.373 . S
C328 C327 1.396 . S
C328 H355 0.929 . S
C329 O342 1.240 . S
C329 O343 1.289 . S
C330 O344 1.258 . S
C330 O345 1.256 . S
C331 La321 2.928 . S
C331 C332 1.503 . S
C331 O346 1.261 . S
C331 O347 1.243 . S
C332 C331 1.503 . S
C332 C333 1.394 . S
C332 C337 1.373 . S
C333 C332 1.394 . S
C333 C334 1.380 . S
C333 H356 0.930 . S
C334 C333 1.380 . S
C334 C335 1.376 . S
C334 H357 0.930 . S
C335 C334 1.376 . S
C335 C336 1.370 . S
C336 C335 1.370 . S
C336 C337 1.396 . S
C336 H358 0.929 . S
C337 C332 1.373 . S
C337 C336 1.396 . S
C337 H359 0.929 . S
C338 O348 1.240 . S
C338 O349 1.289 . S
C339 O350 1.258 . S
C339 O351 1.256 . S
O340 La320 2.521 . S
O340 C322 1.261 . S
O341 La320 2.628 . S
O341 C322 1.243 . S
O342 La320 2.554 . S
O342 C329 1.240 . S
O343 La320 2.757 . S
O343 La321 2.482 . S
O343 C329 1.289 . S
O344 La320 2.470 . S
O344 C330 1.258 . S
O345 La321 2.503 . S
O345 C330 1.256 . S
O346 La321 2.521 . S
O346 C331 1.261 . S
O347 La321 2.628 . S
O347 C331 1.243 . S
O348 La321 2.554 . S
O348 C338 1.240 . S
O349 La320 2.482 . S
O349 La321 2.757 . S
O349 C338 1.289 . S
O350 La321 2.470 . S
O350 C339 1.258 . S
O351 La320 2.503 . S
O351 C339 1.256 . S
H352 C324 0.930 . S
H353 C325 0.930 . S
H354 C327 0.929 . S
H355 C328 0.929 . S
H356 C333 0.930 . S
H357 C334 0.930 . S
H358 C336 0.929 . S
H359 C337 0.929 . S
La360 C362 2.928 . S
La360 O380 2.521 . S
La360 O381 2.628 . S
La360 O382 2.554 . S
La360 O383 2.757 . S
La360 O384 2.470 . S
La360 O389 2.482 . S
La360 O391 2.503 . S
La361 C371 2.928 . S
La361 O383 2.482 . S
La361 O385 2.503 . S
La361 O386 2.521 . S
La361 O387 2.628 . S
La361 O388 2.554 . S
La361 O389 2.757 . S
La361 O390 2.470 . S
C362 La360 2.928 . S
C362 C363 1.503 . S
C362 O380 1.261 . S
C362 O381 1.243 . S
C363 C362 1.503 . S
C363 C364 1.394 . S
C363 C368 1.373 . S
C364 C363 1.394 . S
C364 C365 1.380 . S
C364 H392 0.930 . S
C365 C364 1.380 . S
C365 C366 1.376 . S
C365 H393 0.930 . S
C366 C365 1.376 . S
C366 C367 1.370 . S
C367 C366 1.370 . S
C367 C368 1.396 . S
C367 H394 0.929 . S
C368 C363 1.373 . S
C368 C367 1.396 . S
C368 H395 0.929 . S
C369 O382 1.240 . S
C369 O383 1.289 . S
C370 O384 1.258 . S
C370 O385 1.256 . S
C371 La361 2.928 . S
C371 C372 1.503 . S
C371 O386 1.261 . S
C371 O387 1.243 . S
C372 C371 1.503 . S
C372 C373 1.394 . S
C372 C377 1.373 . S
C373 C372 1.394 . S
C373 C374 1.380 . S
C373 H396 0.930 . S
C374 C373 1.380 . S
C374 C375 1.376 . S
C374 H397 0.930 . S
C375 C374 1.376 . S
C375 C376 1.370 . S
C376 C375 1.370 . S
C376 C377 1.396 . S
C376 H398 0.929 . S
C377 C372 1.373 . S
C377 C376 1.396 . S
C377 H399 0.929 . S
C378 O388 1.240 . S
C378 O389 1.289 . S
C379 O390 1.258 . S
C379 O391 1.256 . S
O380 La360 2.521 . S
O380 C362 1.261 . S
O381 La360 2.628 . S
O381 C362 1.243 . S
O382 La360 2.554 . S
O382 C369 1.240 . S
O383 La360 2.757 . S
O383 La361 2.482 . S
O383 C369 1.289 . S
O384 La360 2.470 . S
O384 C370 1.258 . S
O385 La361 2.503 . S
O385 C370 1.256 . S
O386 La361 2.521 . S
O386 C371 1.261 . S
O387 La361 2.628 . S
O387 C371 1.243 . S
O388 La361 2.554 . S
O388 C378 1.240 . S
O389 La360 2.482 . S
O389 La361 2.757 . S
O389 C378 1.289 . S
O390 La361 2.470 . S
O390 C379 1.258 . S
O391 La360 2.503 . S
O391 C379 1.256 . S
H392 C364 0.930 . S
H393 C365 0.930 . S
H394 C367 0.929 . S
H395 C368 0.929 . S
H396 C373 0.930 . S
H397 C374 0.930 . S
H398 C376 0.929 . S
H399 C377 0.929 . S
La400 C402 2.928 . S
La400 O420 2.521 . S
La400 O421 2.628 . S
La400 O422 2.554 . S
La400 O423 2.757 . S
La400 O424 2.470 . S
La400 O429 2.482 . S
La400 O431 2.503 . S
La401 C411 2.928 . S
La401 O423 2.482 . S
La401 O425 2.503 . S
La401 O426 2.521 . S
La401 O427 2.628 . S
La401 O428 2.554 . S
La401 O429 2.757 . S
La401 O430 2.470 . S
C402 La400 2.928 . S
C402 C403 1.503 . S
C402 O420 1.261 . S
C402 O421 1.243 . S
C403 C402 1.503 . S
C403 C404 1.394 . S
C403 C408 1.373 . S
C404 C403 1.394 . S
C404 C405 1.380 . S
C404 H432 0.930 . S
C405 C404 1.380 . S
C405 C406 1.376 . S
C405 H433 0.930 . S
C406 C405 1.376 . S
C406 C407 1.370 . S
C407 C406 1.370 . S
C407 C408 1.396 . S
C407 H434 0.929 . S
C408 C403 1.373 . S
C408 C407 1.396 . S
C408 H435 0.929 . S
C409 O422 1.240 . S
C409 O423 1.289 . S
C410 O424 1.258 . S
C410 O425 1.256 . S
C411 La401 2.928 . S
C411 C412 1.503 . S
C411 O426 1.261 . S
C411 O427 1.243 . S
C412 C411 1.503 . S
C412 C413 1.394 . S
C412 C417 1.373 . S
C413 C412 1.394 . S
C413 C414 1.380 . S
C413 H436 0.930 . S
C414 C413 1.380 . S
C414 C415 1.376 . S
C414 H437 0.930 . S
C415 C414 1.376 . S
C415 C416 1.370 . S
C416 C415 1.370 . S
C416 C417 1.396 . S
C416 H438 0.929 . S
C417 C412 1.373 . S
C417 C416 1.396 . S
C417 H439 0.929 . S
C418 O428 1.240 . S
C418 O429 1.289 . S
C419 O430 1.258 . S
C419 O431 1.256 . S
O420 La400 2.521 . S
O420 C402 1.261 . S
O421 La400 2.628 . S
O421 C402 1.243 . S
O422 La400 2.554 . S
O422 C409 1.240 . S
O423 La400 2.757 . S
O423 La401 2.482 . S
O423 C409 1.289 . S
O424 La400 2.470 . S
O424 C410 1.258 . S
O425 La401 2.503 . S
O425 C410 1.256 . S
O426 La401 2.521 . S
O426 C411 1.261 . S
O427 La401 2.628 . S
O427 C411 1.243 . S
O428 La401 2.554 . S
O428 C418 1.240 . S
O429 La400 2.482 . S
O429 La401 2.757 . S
O429 C418 1.289 . S
O430 La401 2.470 . S
O430 C419 1.258 . S
O431 La400 2.503 . S
O431 C419 1.256 . S
H432 C404 0.930 . S
H433 C405 0.930 . S
H434 C407 0.929 . S
H435 C408 0.929 . S
H436 C413 0.930 . S
H437 C414 0.930 . S
H438 C416 0.929 . S
H439 C417 0.929 . S
La440 C442 2.928 . S
La440 O460 2.521 . S
La440 O461 2.628 . S
La440 O462 2.554 . S
La440 O463 2.757 . S
La440 O464 2.470 . S
La440 O469 2.482 . S
La440 O471 2.503 . S
La441 C451 2.928 . S
La441 O463 2.482 . S
La441 O465 2.503 . S
La441 O466 2.521 . S
La441 O467 2.628 . S
La441 O468 2.554 . S
La441 O469 2.757 . S
La441 O470 2.470 . S
C442 La440 2.928 . S
C442 C443 1.503 1_554 S
C442 O460 1.261 . S
C442 O461 1.243 . S
C443 C442 1.503 1_556 S
C443 C444 1.394 . S
C443 C448 1.373 . S
C444 C443 1.394 . S
C444 C445 1.380 . S
C444 H472 0.930 . S
C445 C444 1.380 . S
C445 C446 1.376 . S
C445 H473 0.930 . S
C446 C445 1.376 . S
C446 C447 1.370 . S
C447 C446 1.370 . S
C447 C448 1.396 . S
C447 H474 0.929 . S
C448 C443 1.373 . S
C448 C447 1.396 . S
C448 H475 0.929 . S
C449 O462 1.240 . S
C449 O463 1.289 . S
C450 O464 1.258 . S
C450 O465 1.256 . S
C451 La441 2.928 . S
C451 C452 1.503 . S
C451 O466 1.261 . S
C451 O467 1.243 . S
C452 C451 1.503 . S
C452 C453 1.394 . S
C452 C457 1.373 . S
C453 C452 1.394 . S
C453 C454 1.380 . S
C453 H476 0.930 . S
C454 C453 1.380 . S
C454 C455 1.376 . S
C454 H477 0.930 . S
C455 C454 1.376 . S
C455 C456 1.370 . S
C456 C455 1.370 . S
C456 C457 1.396 . S
C456 H478 0.929 . S
C457 C452 1.373 . S
C457 C456 1.396 . S
C457 H479 0.929 . S
C458 O468 1.240 . S
C458 O469 1.289 . S
C459 O470 1.258 . S
C459 O471 1.256 . S
O460 La440 2.521 . S
O460 C442 1.261 . S
O461 La440 2.628 . S
O461 C442 1.243 . S
O462 La440 2.554 . S
O462 C449 1.240 . S
O463 La440 2.757 . S
O463 La441 2.482 . S
O463 C449 1.289 . S
O464 La440 2.470 . S
O464 C450 1.258 . S
O465 La441 2.503 . S
O465 C450 1.256 . S
O466 La441 2.521 . S
O466 C451 1.261 . S
O467 La441 2.628 . S
O467 C451 1.243 . S
O468 La441 2.554 . S
O468 C458 1.240 . S
O469 La440 2.482 . S
O469 La441 2.757 . S
O469 C458 1.289 . S
O470 La441 2.470 . S
O470 C459 1.258 . S
O471 La440 2.503 . S
O471 C459 1.256 . S
H472 C444 0.930 . S
H473 C445 0.930 . S
H474 C447 0.929 . S
H475 C448 0.929 . S
H476 C453 0.930 . S
H477 C454 0.930 . S
H478 C456 0.929 . S
H479 C457 0.929 . S
H480 C498 0.951 . S
H481 C500 0.951 . S
H482 C502 0.950 . S
H483 C503 0.950 . S
H484 C505 0.950 . S
H485 C508 0.950 . S
H486 C509 0.950 . S
H487 C511 0.950 . S
H488 C512 0.950 . S
H489 C513 0.951 . S
H490 C515 0.951 . S
H491 C517 0.950 . S
H492 C518 0.950 . S
H493 C520 0.950 . S
H494 C523 0.950 . S
H495 C524 0.950 . S
H496 C526 0.950 . S
H497 C527 0.950 . S
C498 H480 0.951 . S
C498 C499 1.366 . S
C498 C500 1.388 . S
C499 C498 1.366 . S
C499 C503 1.385 . S
C500 H481 0.951 . S
C500 C498 1.388 . S
C500 C501 1.366 . S
C501 C500 1.366 . S
C501 C502 1.414 . S
C501 C504 1.499 . S
C502 H482 0.950 . S
C502 C501 1.414 . S
C502 C503 1.374 . S
C503 H483 0.950 . S
C503 C499 1.385 . S
C503 C502 1.374 . S
C504 C501 1.499 . S
C504 C505 1.373 . S
C504 C506 1.389 . S
C505 H484 0.950 . S
C505 C504 1.373 . S
C505 C521 1.377 . S
C506 C504 1.389 . S
C506 C507 1.524 . S
C506 C520 1.377 . S
C507 C506 1.524 . S
C507 C508 1.397 . S
C507 C512 1.363 . S
C508 H485 0.950 . S
C508 C507 1.397 . S
C508 C509 1.334 . S
C509 H486 0.950 . S
C509 C508 1.334 . S
C509 C510 1.287 . S
C510 C509 1.287 . S
C510 C511 1.524 . S
C510 H529 0.913 . S
C511 H487 0.950 . S
C511 C510 1.524 . S
C511 C512 1.415 . S
C512 H488 0.950 . S
C512 C507 1.363 . S
C512 C511 1.415 . S
C513 H489 0.951 . S
C513 C514 1.366 . S
C513 C515 1.388 . S
C514 C513 1.366 . S
C514 C518 1.385 . S
C515 H490 0.951 . S
C515 C513 1.388 . S
C515 C516 1.366 . S
C516 C515 1.366 . S
C516 C517 1.414 . S
C516 C519 1.499 . S
C517 H491 0.950 . S
C517 C516 1.414 . S
C517 C518 1.374 . S
C518 H492 0.950 . S
C518 C514 1.385 . S
C518 C517 1.374 . S
C519 C516 1.499 . S
C519 C520 1.373 . S
C519 C521 1.389 . S
C520 H493 0.950 . S
C520 C506 1.377 . S
C520 C519 1.373 . S
C521 C505 1.377 . S
C521 C519 1.389 . S
C521 C522 1.524 . S
C522 C521 1.524 . S
C522 C523 1.397 . S
C522 C527 1.363 . S
C523 H494 0.950 . S
C523 C522 1.397 . S
C523 C524 1.334 . S
C524 H495 0.950 . S
C524 C523 1.334 . S
C524 C525 1.287 . S
C525 C524 1.287 . S
C525 C526 1.524 . S
C525 H528 0.999 . S
C526 H496 0.950 . S
C526 C525 1.524 . S
C526 C527 1.415 . S
C527 H497 0.950 . S
C527 C522 1.363 . S
C527 C526 1.415 . S
H528 C525 0.999 . S
H529 C510 0.913 . S
H530 C548 0.951 . S
H531 C550 0.951 . S
H532 C552 0.950 . S
H533 C553 0.950 . S
H534 C555 0.950 . S
H535 C558 0.950 . S
H536 C559 0.950 . S
H537 C561 0.950 . S
H538 C562 0.950 . S
H539 C563 0.951 . S
H540 C565 0.951 . S
H541 C567 0.950 . S
H542 C568 0.950 . S
H543 C570 0.950 . S
H544 C573 0.950 . S
H545 C574 0.950 . S
H546 C576 0.950 . S
H547 C577 0.950 . S
C548 H530 0.951 . S
C548 C549 1.366 . S
C548 C550 1.388 . S
C549 C548 1.366 . S
C549 C553 1.385 . S
C550 H531 0.951 . S
C550 C548 1.388 . S
C550 C551 1.366 . S
C551 C550 1.366 . S
C551 C552 1.414 . S
C551 C554 1.499 . S
C552 H532 0.950 . S
C552 C551 1.414 . S
C552 C553 1.374 . S
C553 H533 0.950 . S
C553 C549 1.385 . S
C553 C552 1.374 . S
C554 C551 1.499 . S
C554 C555 1.373 . S
C554 C556 1.389 . S
C555 H534 0.950 . S
C555 C554 1.373 . S
C555 C571 1.377 . S
C556 C554 1.389 . S
C556 C557 1.524 . S
C556 C570 1.377 . S
C557 C556 1.524 . S
C557 C558 1.397 . S
C557 C562 1.363 . S
C558 H535 0.950 . S
C558 C557 1.397 . S
C558 C559 1.334 . S
C559 H536 0.950 . S
C559 C558 1.334 . S
C559 C560 1.287 . S
C560 C559 1.287 . S
C560 C561 1.524 . S
C560 H579 0.913 . S
C561 H537 0.950 . S
C561 C560 1.524 . S
C561 C562 1.415 . S
C562 H538 0.950 . S
C562 C557 1.363 . S
C562 C561 1.415 . S
C563 H539 0.951 . S
C563 C564 1.366 . S
C563 C565 1.388 . S
C564 C563 1.366 . S
C564 C568 1.385 . S
C565 H540 0.951 . S
C565 C563 1.388 . S
C565 C566 1.366 . S
C566 C565 1.366 . S
C566 C567 1.414 . S
C566 C569 1.499 . S
C567 H541 0.950 . S
C567 C566 1.414 . S
C567 C568 1.374 . S
C568 H542 0.950 . S
C568 C564 1.385 . S
C568 C567 1.374 . S
C569 C566 1.499 . S
C569 C570 1.373 . S
C569 C571 1.389 . S
C570 H543 0.950 . S
C570 C556 1.377 . S
C570 C569 1.373 . S
C571 C555 1.377 . S
C571 C569 1.389 . S
C571 C572 1.524 . S
C572 C571 1.524 . S
C572 C573 1.397 . S
C572 C577 1.363 . S
C573 H544 0.950 . S
C573 C572 1.397 . S
C573 C574 1.334 . S
C574 H545 0.950 . S
C574 C573 1.334 . S
C574 C575 1.287 . S
C575 C574 1.287 . S
C575 C576 1.524 . S
C575 H578 0.999 . S
C576 H546 0.950 . S
C576 C575 1.524 . S
C576 C577 1.415 . S
C577 H547 0.950 . S
C577 C572 1.363 . S
C577 C576 1.415 . S
H578 C575 0.999 . S
H579 C560 0.913 . S
H580 C598 0.951 . S
H581 C600 0.951 . S
H582 C602 0.950 . S
H583 C603 0.950 . S
H584 C605 0.950 . S
H585 C608 0.950 . S
H586 C609 0.950 . S
H587 C611 0.950 . S
H588 C612 0.950 . S
H589 C613 0.951 . S
H590 C615 0.951 . S
H591 C617 0.950 . S
H592 C618 0.950 . S
H593 C620 0.950 . S
H594 C623 0.950 . S
H595 C624 0.950 . S
H596 C626 0.950 . S
H597 C627 0.950 . S
C598 H580 0.951 . S
C598 C599 1.366 . S
C598 C600 1.388 . S
C599 C598 1.366 . S
C599 C603 1.385 . S
C600 H581 0.951 . S
C600 C598 1.388 . S
C600 C601 1.366 . S
C601 C600 1.366 . S
C601 C602 1.414 . S
C601 C604 1.499 . S
C602 H582 0.950 . S
C602 C601 1.414 . S
C602 C603 1.374 . S
C603 H583 0.950 . S
C603 C599 1.385 . S
C603 C602 1.374 . S
C604 C601 1.499 . S
C604 C605 1.373 . S
C604 C606 1.389 . S
C605 H584 0.950 . S
C605 C604 1.373 . S
C605 C621 1.377 . S
C606 C604 1.389 . S
C606 C607 1.524 . S
C606 C620 1.377 . S
C607 C606 1.524 . S
C607 C608 1.397 . S
C607 C612 1.363 . S
C608 H585 0.950 . S
C608 C607 1.397 . S
C608 C609 1.334 . S
C609 H586 0.950 . S
C609 C608 1.334 . S
C609 C610 1.287 . S
C610 C609 1.287 . S
C610 C611 1.524 . S
C610 H629 0.913 . S
C611 H587 0.950 . S
C611 C610 1.524 . S
C611 C612 1.415 . S
C612 H588 0.950 . S
C612 C607 1.363 . S
C612 C611 1.415 . S
C613 H589 0.951 . S
C613 C614 1.366 . S
C613 C615 1.388 . S
C614 C613 1.366 . S
C614 C618 1.385 . S
C615 H590 0.951 . S
C615 C613 1.388 . S
C615 C616 1.366 . S
C616 C615 1.366 . S
C616 C617 1.414 . S
C616 C619 1.499 . S
C617 H591 0.950 . S
C617 C616 1.414 . S
C617 C618 1.374 . S
C618 H592 0.950 . S
C618 C614 1.385 . S
C618 C617 1.374 . S
C619 C616 1.499 . S
C619 C620 1.373 . S
C619 C621 1.389 . S
C620 H593 0.950 . S
C620 C606 1.377 . S
C620 C619 1.373 . S
C621 C605 1.377 . S
C621 C619 1.389 . S
C621 C622 1.524 . S
C622 C621 1.524 . S
C622 C623 1.397 . S
C622 C627 1.363 . S
C623 H594 0.950 . S
C623 C622 1.397 . S
C623 C624 1.334 . S
C624 H595 0.950 . S
C624 C623 1.334 . S
C624 C625 1.287 . S
C625 C624 1.287 . S
C625 C626 1.524 . S
C625 H628 0.999 . S
C626 H596 0.950 . S
C626 C625 1.524 . S
C626 C627 1.415 . S
C627 H597 0.950 . S
C627 C622 1.363 . S
C627 C626 1.415 . S
H628 C625 0.999 . S
H629 C610 0.913 . S
H630 C648 0.951 . S
H631 C650 0.951 . S
H632 C652 0.950 . S
H633 C653 0.950 . S
H634 C655 0.950 . S
H635 C658 0.950 . S
H636 C659 0.950 . S
H637 C661 0.950 . S
H638 C662 0.950 . S
H639 C663 0.951 . S
H640 C665 0.951 . S
H641 C667 0.950 . S
H642 C668 0.950 . S
H643 C670 0.950 . S
H644 C673 0.950 . S
H645 C674 0.950 . S
H646 C676 0.950 . S
H647 C677 0.950 . S
C648 H630 0.951 . S
C648 C649 1.366 . S
C648 C650 1.388 . S
C649 C648 1.366 . S
C649 C653 1.385 . S
C650 H631 0.951 . S
C650 C648 1.388 . S
C650 C651 1.366 . S
C651 C650 1.366 . S
C651 C652 1.414 . S
C651 C654 1.499 . S
C652 H632 0.950 . S
C652 C651 1.414 . S
C652 C653 1.374 . S
C653 H633 0.950 . S
C653 C649 1.385 . S
C653 C652 1.374 . S
C654 C651 1.499 . S
C654 C655 1.373 . S
C654 C656 1.389 . S
C655 H634 0.950 . S
C655 C654 1.373 . S
C655 C671 1.377 . S
C656 C654 1.389 . S
C656 C657 1.524 . S
C656 C670 1.377 . S
C657 C656 1.524 . S
C657 C658 1.397 . S
C657 C662 1.363 . S
C658 H635 0.950 . S
C658 C657 1.397 . S
C658 C659 1.334 . S
C659 H636 0.950 . S
C659 C658 1.334 . S
C659 C660 1.287 . S
C660 C659 1.287 . S
C660 C661 1.524 . S
C660 H679 0.913 . S
C661 H637 0.950 . S
C661 C660 1.524 . S
C661 C662 1.415 . S
C662 H638 0.950 . S
C662 C657 1.363 . S
C662 C661 1.415 . S
C663 H639 0.951 . S
C663 C664 1.366 . S
C663 C665 1.388 . S
C664 C663 1.366 . S
C664 C668 1.385 . S
C665 H640 0.951 . S
C665 C663 1.388 . S
C665 C666 1.366 . S
C666 C665 1.366 . S
C666 C667 1.414 . S
C666 C669 1.499 . S
C667 H641 0.950 . S
C667 C666 1.414 . S
C667 C668 1.374 . S
C668 H642 0.950 . S
C668 C664 1.385 . S
C668 C667 1.374 . S
C669 C666 1.499 . S
C669 C670 1.373 . S
C669 C671 1.389 . S
C670 H643 0.950 . S
C670 C656 1.377 . S
C670 C669 1.373 . S
C671 C655 1.377 . S
C671 C669 1.389 . S
C671 C672 1.524 . S
C672 C671 1.524 . S
C672 C673 1.397 . S
C672 C677 1.363 . S
C673 H644 0.950 . S
C673 C672 1.397 . S
C673 C674 1.334 . S
C674 H645 0.950 . S
C674 C673 1.334 . S
C674 C675 1.287 . S
C675 C674 1.287 . S
C675 C676 1.524 . S
C675 H678 0.999 . S
C676 H646 0.950 . S
C676 C675 1.524 . S
C676 C677 1.415 . S
C677 H647 0.950 . S
C677 C672 1.363 . S
C677 C676 1.415 . S
H678 C675 0.999 . S
H679 C660 0.913 . S
H680 C698 0.951 . S
H681 C700 0.951 . S
H682 C702 0.950 . S
H683 C703 0.950 . S
H684 C705 0.950 . S
H685 C708 0.950 . S
H686 C709 0.950 . S
H687 C711 0.950 . S
H688 C712 0.950 . S
H689 C713 0.951 . S
H690 C715 0.951 . S
H691 C717 0.950 . S
H692 C718 0.950 . S
H693 C720 0.950 . S
H694 C723 0.950 . S
H695 C724 0.950 . S
H696 C726 0.950 . S
H697 C727 0.950 . S
C698 H680 0.951 . S
C698 C699 1.366 . S
C698 C700 1.388 . S
C699 C698 1.366 . S
C699 C703 1.385 . S
C700 H681 0.951 . S
C700 C698 1.388 . S
C700 C701 1.366 . S
C701 C700 1.366 . S
C701 C702 1.414 . S
C701 C704 1.499 . S
C702 H682 0.950 . S
C702 C701 1.414 . S
C702 C703 1.374 . S
C703 H683 0.950 . S
C703 C699 1.385 . S
C703 C702 1.374 . S
C704 C701 1.499 . S
C704 C705 1.373 . S
C704 C706 1.389 . S
C705 H684 0.950 . S
C705 C704 1.373 . S
C705 C721 1.377 . S
C706 C704 1.389 . S
C706 C707 1.524 . S
C706 C720 1.377 . S
C707 C706 1.524 . S
C707 C708 1.397 . S
C707 C712 1.363 . S
C708 H685 0.950 . S
C708 C707 1.397 . S
C708 C709 1.334 . S
C709 H686 0.950 . S
C709 C708 1.334 . S
C709 C710 1.287 . S
C710 C709 1.287 . S
C710 C711 1.524 . S
C710 H729 0.913 . S
C711 H687 0.950 . S
C711 C710 1.524 . S
C711 C712 1.415 . S
C712 H688 0.950 . S
C712 C707 1.363 . S
C712 C711 1.415 . S
C713 H689 0.951 . S
C713 C714 1.366 . S
C713 C715 1.388 . S
C714 C713 1.366 . S
C714 C718 1.385 . S
C715 H690 0.951 . S
C715 C713 1.388 . S
C715 C716 1.366 . S
C716 C715 1.366 . S
C716 C717 1.414 . S
C716 C719 1.499 . S
C717 H691 0.950 . S
C717 C716 1.414 . S
C717 C718 1.374 . S
C718 H692 0.950 . S
C718 C714 1.385 . S
C718 C717 1.374 . S
C719 C716 1.499 . S
C719 C720 1.373 . S
C719 C721 1.389 . S
C720 H693 0.950 . S
C720 C706 1.377 . S
C720 C719 1.373 . S
C721 C705 1.377 . S
C721 C719 1.389 . S
C721 C722 1.524 . S
C722 C721 1.524 . S
C722 C723 1.397 . S
C722 C727 1.363 . S
C723 H694 0.950 . S
C723 C722 1.397 . S
C723 C724 1.334 . S
C724 H695 0.950 . S
C724 C723 1.334 . S
C724 C725 1.287 . S
C725 C724 1.287 . S
C725 C726 1.524 . S
C725 H728 0.999 . S
C726 H696 0.950 . S
C726 C725 1.524 . S
C726 C727 1.415 . S
C727 H697 0.950 . S
C727 C722 1.363 . S
C727 C726 1.415 . S
H728 C725 0.999 . S
H729 C710 0.913 . S
H730 C748 0.951 . S
H731 C750 0.951 . S
H732 C752 0.950 . S
H733 C753 0.950 . S
H734 C755 0.950 . S
H735 C758 0.950 . S
H736 C759 0.950 . S
H737 C761 0.950 . S
H738 C762 0.950 . S
H739 C763 0.951 . S
H740 C765 0.951 . S
H741 C767 0.950 . S
H742 C768 0.950 . S
H743 C770 0.950 . S
H744 C773 0.950 . S
H745 C774 0.950 . S
H746 C776 0.950 . S
H747 C777 0.950 . S
C748 H730 0.951 . S
C748 C749 1.366 . S
C748 C750 1.388 . S
C749 C748 1.366 . S
C749 C753 1.385 . S
C750 H731 0.951 . S
C750 C748 1.388 . S
C750 C751 1.366 . S
C751 C750 1.366 . S
C751 C752 1.414 . S
C751 C754 1.499 . S
C752 H732 0.950 . S
C752 C751 1.414 . S
C752 C753 1.374 . S
C753 H733 0.950 . S
C753 C749 1.385 . S
C753 C752 1.374 . S
C754 C751 1.499 . S
C754 C755 1.373 . S
C754 C756 1.389 . S
C755 H734 0.950 . S
C755 C754 1.373 . S
C755 C771 1.377 . S
C756 C754 1.389 . S
C756 C757 1.524 . S
C756 C770 1.377 . S
C757 C756 1.524 . S
C757 C758 1.397 . S
C757 C762 1.363 . S
C758 H735 0.950 . S
C758 C757 1.397 . S
C758 C759 1.334 . S
C759 H736 0.950 . S
C759 C758 1.334 . S
C759 C760 1.287 . S
C760 C759 1.287 . S
C760 C761 1.524 . S
C760 H779 0.913 . S
C761 H737 0.950 . S
C761 C760 1.524 . S
C761 C762 1.415 . S
C762 H738 0.950 . S
C762 C757 1.363 . S
C762 C761 1.415 . S
C763 H739 0.951 . S
C763 C764 1.366 . S
C763 C765 1.388 . S
C764 C763 1.366 . S
C764 C768 1.385 . S
C765 H740 0.951 . S
C765 C763 1.388 . S
C765 C766 1.366 . S
C766 C765 1.366 . S
C766 C767 1.414 . S
C766 C769 1.499 . S
C767 H741 0.950 . S
C767 C766 1.414 . S
C767 C768 1.374 . S
C768 H742 0.950 . S
C768 C764 1.385 . S
C768 C767 1.374 . S
C769 C766 1.499 . S
C769 C770 1.373 . S
C769 C771 1.389 . S
C770 H743 0.950 . S
C770 C756 1.377 . S
C770 C769 1.373 . S
C771 C755 1.377 . S
C771 C769 1.389 . S
C771 C772 1.524 . S
C772 C771 1.524 . S
C772 C773 1.397 . S
C772 C777 1.363 . S
C773 H744 0.950 . S
C773 C772 1.397 . S
C773 C774 1.334 . S
C774 H745 0.950 . S
C774 C773 1.334 . S
C774 C775 1.287 . S
C775 C774 1.287 . S
C775 C776 1.524 . S
C775 H778 0.999 . S
C776 H746 0.950 . S
C776 C775 1.524 . S
C776 C777 1.415 . S
C777 H747 0.950 . S
C777 C772 1.363 . S
C777 C776 1.415 . S
H778 C775 0.999 . S
H779 C760 0.913 . S
H780 C798 0.951 . S
H781 C800 0.951 . S
H782 C802 0.950 . S
H783 C803 0.950 . S
H784 C805 0.950 . S
H785 C808 0.950 . S
H786 C809 0.950 . S
H787 C811 0.950 . S
H788 C812 0.950 1_554 S
H789 C813 0.951 . S
H790 C815 0.951 . S
H791 C817 0.950 . S
H792 C818 0.950 . S
H793 C820 0.950 . S
H794 C823 0.950 . S
H795 C824 0.950 . S
H796 C826 0.950 . S
H797 C827 0.950 1_556 S
C798 H780 0.951 . S
C798 C799 1.366 . S
C798 C800 1.388 . S
C799 C798 1.366 . S
C799 C803 1.385 . S
C800 H781 0.951 . S
C800 C798 1.388 . S
C800 C801 1.366 . S
C801 C800 1.366 . S
C801 C802 1.414 . S
C801 C804 1.499 . S
C802 H782 0.950 . S
C802 C801 1.414 . S
C802 C803 1.374 . S
C803 H783 0.950 . S
C803 C799 1.385 . S
C803 C802 1.374 . S
C804 C801 1.499 . S
C804 C805 1.373 . S
C804 C806 1.389 . S
C805 H784 0.950 . S
C805 C804 1.373 . S
C805 C821 1.377 1_556 S
C806 C804 1.389 . S
C806 C807 1.524 . S
C806 C820 1.377 1_556 S
C807 C806 1.524 . S
C807 C808 1.397 . S
C807 C812 1.363 . S
C808 H785 0.950 . S
C808 C807 1.397 . S
C808 C809 1.334 . S
C809 H786 0.950 . S
C809 C808 1.334 . S
C809 C810 1.287 . S
C810 C809 1.287 . S
C810 C811 1.524 . S
C810 H829 0.913 . S
C811 H787 0.950 . S
C811 C810 1.524 . S
C811 C812 1.415 . S
C812 H788 0.950 1_556 S
C812 C807 1.363 . S
C812 C811 1.415 . S
C813 H789 0.951 . S
C813 C814 1.366 . S
C813 C815 1.388 . S
C814 C813 1.366 . S
C814 C818 1.385 . S
C815 H790 0.951 . S
C815 C813 1.388 . S
C815 C816 1.366 . S
C816 C815 1.366 . S
C816 C817 1.414 . S
C816 C819 1.499 . S
C817 H791 0.950 . S
C817 C816 1.414 . S
C817 C818 1.374 . S
C818 H792 0.950 . S
C818 C814 1.385 . S
C818 C817 1.374 . S
C819 C816 1.499 . S
C819 C820 1.373 . S
C819 C821 1.389 . S
C820 H793 0.950 . S
C820 C806 1.377 1_554 S
C820 C819 1.373 . S
C821 C805 1.377 1_554 S
C821 C819 1.389 . S
C821 C822 1.524 . S
C822 C821 1.524 . S
C822 C823 1.397 . S
C822 C827 1.363 . S
C823 H794 0.950 . S
C823 C822 1.397 . S
C823 C824 1.334 . S
C824 H795 0.950 . S
C824 C823 1.334 . S
C824 C825 1.287 . S
C825 C824 1.287 . S
C825 C826 1.524 . S
C825 H828 0.999 . S
C826 H796 0.950 . S
C826 C825 1.524 . S
C826 C827 1.415 . S
C827 H797 0.950 1_554 S
C827 C822 1.363 . S
C827 C826 1.415 . S
H828 C825 0.999 . S
H829 C810 0.913 . S
H830 C848 0.951 . S
H831 C850 0.951 . S
H832 C852 0.950 . S
H833 C853 0.950 . S
H834 C855 0.950 . S
H835 C858 0.950 . S
H836 C859 0.950 . S
H837 C861 0.950 . S
H838 C862 0.950 . S
H839 C863 0.951 . S
H840 C865 0.951 . S
H841 C867 0.950 . S
H842 C868 0.950 . S
H843 C870 0.950 . S
H844 C873 0.950 . S
H845 C874 0.950 . S
H846 C876 0.950 . S
H847 C877 0.950 . S
C848 H830 0.951 . S
C848 C849 1.366 . S
C848 C850 1.388 . S
C849 C848 1.366 . S
C849 C853 1.385 . S
C850 H831 0.951 . S
C850 C848 1.388 . S
C850 C851 1.366 . S
C851 C850 1.366 . S
C851 C852 1.414 . S
C851 C854 1.499 . S
C852 H832 0.950 . S
C852 C851 1.414 . S
C852 C853 1.374 . S
C853 H833 0.950 . S
C853 C849 1.385 . S
C853 C852 1.374 . S
C854 C851 1.499 . S
C854 C855 1.373 . S
C854 C856 1.389 . S
C855 H834 0.950 . S
C855 C854 1.373 . S
C855 C871 1.377 . S
C856 C854 1.389 . S
C856 C857 1.524 . S
C856 C870 1.377 . S
C857 C856 1.524 . S
C857 C858 1.397 . S
C857 C862 1.363 . S
C858 H835 0.950 . S
C858 C857 1.397 . S
C858 C859 1.334 . S
C859 H836 0.950 . S
C859 C858 1.334 . S
C859 C860 1.287 . S
C860 C859 1.287 . S
C860 C861 1.524 . S
C860 H879 0.913 . S
C861 H837 0.950 . S
C861 C860 1.524 . S
C861 C862 1.415 . S
C862 H838 0.950 . S
C862 C857 1.363 . S
C862 C861 1.415 . S
C863 H839 0.951 . S
C863 C864 1.366 . S
C863 C865 1.388 . S
C864 C863 1.366 . S
C864 C868 1.385 . S
C865 H840 0.951 . S
C865 C863 1.388 . S
C865 C866 1.366 . S
C866 C865 1.366 . S
C866 C867 1.414 . S
C866 C869 1.499 . S
C867 H841 0.950 . S
C867 C866 1.414 . S
C867 C868 1.374 . S
C868 H842 0.950 . S
C868 C864 1.385 . S
C868 C867 1.374 . S
C869 C866 1.499 . S
C869 C870 1.373 . S
C869 C871 1.389 . S
C870 H843 0.950 . S
C870 C856 1.377 . S
C870 C869 1.373 . S
C871 C855 1.377 . S
C871 C869 1.389 . S
C871 C872 1.524 . S
C872 C871 1.524 . S
C872 C873 1.397 . S
C872 C877 1.363 . S
C873 H844 0.950 . S
C873 C872 1.397 . S
C873 C874 1.334 . S
C874 H845 0.950 . S
C874 C873 1.334 . S
C874 C875 1.287 . S
C875 C874 1.287 . S
C875 C876 1.524 . S
C875 H878 0.999 . S
C876 H846 0.950 . S
C876 C875 1.524 . S
C876 C877 1.415 . S
C877 H847 0.950 . S
C877 C872 1.363 . S
C877 C876 1.415 . S
H878 C875 0.999 . S
H879 C860 0.913 . S
H880 C898 0.951 . S
H881 C900 0.951 . S
H882 C902 0.950 . S
H883 C903 0.950 . S
H884 C905 0.950 . S
H885 C908 0.950 . S
H886 C909 0.950 . S
H887 C911 0.950 . S
H888 C912 0.950 . S
H889 C913 0.951 . S
H890 C915 0.951 . S
H891 C917 0.950 . S
H892 C918 0.950 . S
H893 C920 0.950 . S
H894 C923 0.950 . S
H895 C924 0.950 . S
H896 C926 0.950 . S
H897 C927 0.950 . S
C898 H880 0.951 . S
C898 C899 1.366 . S
C898 C900 1.388 . S
C899 C898 1.366 . S
C899 C903 1.385 . S
C900 H881 0.951 . S
C900 C898 1.388 . S
C900 C901 1.366 . S
C901 C900 1.366 . S
C901 C902 1.414 . S
C901 C904 1.499 . S
C902 H882 0.950 . S
C902 C901 1.414 . S
C902 C903 1.374 . S
C903 H883 0.950 . S
C903 C899 1.385 . S
C903 C902 1.374 . S
C904 C901 1.499 . S
C904 C905 1.373 . S
C904 C906 1.389 . S
C905 H884 0.950 . S
C905 C904 1.373 . S
C905 C921 1.377 . S
C906 C904 1.389 . S
C906 C907 1.524 . S
C906 C920 1.377 . S
C907 C906 1.524 . S
C907 C908 1.397 . S
C907 C912 1.363 . S
C908 H885 0.950 . S
C908 C907 1.397 . S
C908 C909 1.334 . S
C909 H886 0.950 . S
C909 C908 1.334 . S
C909 C910 1.287 . S
C910 C909 1.287 . S
C910 C911 1.524 . S
C910 H929 0.913 . S
C911 H887 0.950 . S
C911 C910 1.524 . S
C911 C912 1.415 . S
C912 H888 0.950 . S
C912 C907 1.363 . S
C912 C911 1.415 . S
C913 H889 0.951 . S
C913 C914 1.366 . S
C913 C915 1.388 . S
C914 C913 1.366 . S
C914 C918 1.385 . S
C915 H890 0.951 . S
C915 C913 1.388 . S
C915 C916 1.366 . S
C916 C915 1.366 . S
C916 C917 1.414 . S
C916 C919 1.499 . S
C917 H891 0.950 . S
C917 C916 1.414 . S
C917 C918 1.374 . S
C918 H892 0.950 . S
C918 C914 1.385 . S
C918 C917 1.374 . S
C919 C916 1.499 . S
C919 C920 1.373 . S
C919 C921 1.389 . S
C920 H893 0.950 . S
C920 C906 1.377 . S
C920 C919 1.373 . S
C921 C905 1.377 . S
C921 C919 1.389 . S
C921 C922 1.524 . S
C922 C921 1.524 . S
C922 C923 1.397 . S
C922 C927 1.363 . S
C923 H894 0.950 . S
C923 C922 1.397 . S
C923 C924 1.334 . S
C924 H895 0.950 . S
C924 C923 1.334 . S
C924 C925 1.287 . S
C925 C924 1.287 . S
C925 C926 1.524 . S
C925 H928 0.999 . S
C926 H896 0.950 . S
C926 C925 1.524 . S
C926 C927 1.415 . S
C927 H897 0.950 . S
C927 C922 1.363 . S
C927 C926 1.415 . S
H928 C925 0.999 . S
H929 C910 0.913 . S
H930 C948 0.951 . S
H931 C950 0.951 . S
H932 C952 0.950 . S
H933 C953 0.950 . S
H934 C955 0.950 . S
H935 C958 0.950 . S
H936 C959 0.950 . S
H937 C961 0.950 . S
H938 C962 0.950 . S
H939 C963 0.951 . S
H940 C965 0.951 . S
H941 C967 0.950 . S
H942 C968 0.950 . S
H943 C970 0.950 . S
H944 C973 0.950 . S
H945 C974 0.950 . S
H946 C976 0.950 . S
H947 C977 0.950 . S
C948 H930 0.951 . S
C948 C949 1.366 . S
C948 C950 1.388 . S
C949 C948 1.366 . S
C949 C953 1.385 . S
C950 H931 0.951 . S
C950 C948 1.388 . S
C950 C951 1.366 . S
C951 C950 1.366 . S
C951 C952 1.414 . S
C951 C954 1.499 . S
C952 H932 0.950 . S
C952 C951 1.414 . S
C952 C953 1.374 . S
C953 H933 0.950 . S
C953 C949 1.385 . S
C953 C952 1.374 . S
C954 C951 1.499 . S
C954 C955 1.373 . S
C954 C956 1.357 1_556 S
C955 H934 0.950 . S
C955 C954 1.373 . S
C955 C971 1.408 . S
C956 C954 1.357 1_554 S
C956 C957 1.528 . S
C956 C970 1.408 . S
C957 C956 1.528 . S
C957 C958 1.397 1_554 S
C957 C962 1.363 . S
C958 H935 0.950 . S
C958 C957 1.397 1_556 S
C958 C959 1.334 . S
C959 H936 0.950 . S
C959 C958 1.334 . S
C959 C960 1.287 1_556 S
C960 C959 1.287 1_554 S
C960 C961 1.524 . S
C960 H979 0.913 . S
C961 H937 0.950 . S
C961 C960 1.524 . S
C961 C962 1.415 . S
C962 H938 0.950 . S
C962 C957 1.363 . S
C962 C961 1.415 . S
C963 H939 0.951 . S
C963 C964 1.366 . S
C963 C965 1.388 . S
C964 C963 1.366 . S
C964 C968 1.385 . S
C965 H940 0.951 . S
C965 C963 1.388 . S
C965 C966 1.366 . S
C966 C965 1.366 . S
C966 C967 1.414 . S
C966 C969 1.499 . S
C967 H941 0.950 . S
C967 C966 1.414 . S
C967 C968 1.374 . S
C968 H942 0.950 . S
C968 C964 1.385 . S
C968 C967 1.374 . S
C969 C966 1.499 . S
C969 C970 1.373 . S
C969 C971 1.357 1_554 S
C970 H943 0.950 . S
C970 C956 1.408 . S
C970 C969 1.373 . S
C971 C955 1.408 . S
C971 C969 1.357 1_556 S
C971 C972 1.528 . S
C972 C971 1.528 . S
C972 C973 1.397 1_556 S
C972 C977 1.363 . S
C973 H944 0.950 . S
C973 C972 1.397 1_554 S
C973 C974 1.334 . S
C974 H945 0.950 . S
C974 C973 1.334 . S
C974 C975 1.287 1_554 S
C975 C974 1.287 1_556 S
C975 C976 1.524 . S
C975 H978 0.999 . S
C976 H946 0.950 . S
C976 C975 1.524 . S
C976 C977 1.415 . S
C977 H947 0.950 . S
C977 C972 1.363 . S
C977 C976 1.415 . S
H978 C975 0.999 . S
H979 C960 0.913 . S
H980 C998 0.951 . S
H981 C1000 0.951 . S
H982 C1002 0.950 . S
H983 C1003 0.950 . S
H984 C1005 0.950 . S
H985 C1008 0.950 . S
H986 C1009 0.950 . S
H987 C1011 0.950 . S
H988 C1012 0.950 . S
H989 C1013 0.951 . S
H990 C1015 0.951 . S
H991 C1017 0.950 . S
H992 C1018 0.950 . S
H993 C1020 0.950 . S
H994 C1023 0.950 . S
H995 C1024 0.950 . S
H996 C1026 0.950 . S
H997 C1027 0.950 . S
C998 H980 0.951 . S
C998 C999 1.366 . S
C998 C1000 1.388 . S
C999 C998 1.366 . S
C999 C1003 1.385 . S
C1000 H981 0.951 . S
C1000 C998 1.388 . S
C1000 C1001 1.366 . S
C1001 C1000 1.366 . S
C1001 C1002 1.414 . S
C1001 C1004 1.499 . S
C1002 H982 0.950 . S
C1002 C1001 1.414 . S
C1002 C1003 1.374 . S
C1003 H983 0.950 . S
C1003 C999 1.385 . S
C1003 C1002 1.374 . S
C1004 C1001 1.499 . S
C1004 C1005 1.373 . S
C1004 C1006 1.389 . S
C1005 H984 0.950 . S
C1005 C1004 1.373 . S
C1005 C1021 1.377 . S
C1006 C1004 1.389 . S
C1006 C1007 1.524 . S
C1006 C1020 1.377 . S
C1007 C1006 1.524 . S
C1007 C1008 1.397 . S
C1007 C1012 1.363 . S
C1008 H985 0.950 . S
C1008 C1007 1.397 . S
C1008 C1009 1.334 . S
C1009 H986 0.950 . S
C1009 C1008 1.334 . S
C1009 C1010 1.287 . S
C1010 C1009 1.287 . S
C1010 C1011 1.524 . S
C1010 H1029 0.913 . S
C1011 H987 0.950 . S
C1011 C1010 1.524 . S
C1011 C1012 1.415 . S
C1012 H988 0.950 . S
C1012 C1007 1.363 . S
C1012 C1011 1.415 . S
C1013 H989 0.951 . S
C1013 C1014 1.366 . S
C1013 C1015 1.388 . S
C1014 C1013 1.366 . S
C1014 C1018 1.385 . S
C1015 H990 0.951 . S
C1015 C1013 1.388 . S
C1015 C1016 1.366 . S
C1016 C1015 1.366 . S
C1016 C1017 1.414 . S
C1016 C1019 1.499 . S
C1017 H991 0.950 . S
C1017 C1016 1.414 . S
C1017 C1018 1.374 . S
C1018 H992 0.950 . S
C1018 C1014 1.385 . S
C1018 C1017 1.374 . S
C1019 C1016 1.499 . S
C1019 C1020 1.373 . S
C1019 C1021 1.389 . S
C1020 H993 0.950 . S
C1020 C1006 1.377 . S
C1020 C1019 1.373 . S
C1021 C1005 1.377 . S
C1021 C1019 1.389 . S
C1021 C1022 1.524 . S
C1022 C1021 1.524 . S
C1022 C1023 1.397 . S
C1022 C1027 1.363 . S
C1023 H994 0.950 . S
C1023 C1022 1.397 . S
C1023 C1024 1.334 . S
C1024 H995 0.950 . S
C1024 C1023 1.334 . S
C1024 C1025 1.287 . S
C1025 C1024 1.287 . S
C1025 C1026 1.524 . S
C1025 H1028 0.999 . S
C1026 H996 0.950 . S
C1026 C1025 1.524 . S
C1026 C1027 1.415 . S
C1027 H997 0.950 . S
C1027 C1022 1.363 . S
C1027 C1026 1.415 . S
H1028 C1025 0.999 . S
H1029 C1010 0.913 . S
H1030 C1048 0.951 . S
H1031 C1050 0.951 . S
H1032 C1052 0.950 . S
H1033 C1053 0.950 . S
H1034 C1055 0.950 . S
H1035 C1058 0.950 . S
H1036 C1059 0.950 . S
H1037 C1061 0.950 . S
H1038 C1062 0.950 . S
H1039 C1063 0.951 . S
H1040 C1065 0.951 . S
H1041 C1067 0.950 . S
H1042 C1068 0.950 . S
H1043 C1070 0.950 . S
H1044 C1073 0.950 . S
H1045 C1074 0.950 . S
H1046 C1076 0.950 . S
H1047 C1077 0.950 . S
C1048 H1030 0.951 . S
C1048 C1049 1.366 . S
C1048 C1050 1.388 . S
C1049 C1048 1.366 . S
C1049 C1053 1.385 . S
C1050 H1031 0.951 . S
C1050 C1048 1.388 . S
C1050 C1051 1.366 . S
C1051 C1050 1.366 . S
C1051 C1052 1.414 . S
C1051 C1054 1.499 . S
C1052 H1032 0.950 . S
C1052 C1051 1.414 . S
C1052 C1053 1.374 . S
C1053 H1033 0.950 . S
C1053 C1049 1.385 . S
C1053 C1052 1.374 . S
C1054 C1051 1.499 . S
C1054 C1055 1.373 . S
C1054 C1056 1.389 . S
C1055 H1034 0.950 . S
C1055 C1054 1.373 . S
C1055 C1071 1.377 . S
C1056 C1054 1.389 . S
C1056 C1057 1.524 . S
C1056 C1070 1.377 . S
C1057 C1056 1.524 . S
C1057 C1058 1.397 . S
C1057 C1062 1.363 . S
C1058 H1035 0.950 . S
C1058 C1057 1.397 . S
C1058 C1059 1.334 . S
C1059 H1036 0.950 . S
C1059 C1058 1.334 . S
C1059 C1060 1.287 . S
C1060 C1059 1.287 . S
C1060 C1061 1.524 . S
C1060 H1079 0.913 . S
C1061 H1037 0.950 . S
C1061 C1060 1.524 . S
C1061 C1062 1.415 . S
C1062 H1038 0.950 . S
C1062 C1057 1.363 . S
C1062 C1061 1.415 . S
C1063 H1039 0.951 . S
C1063 C1064 1.366 . S
C1063 C1065 1.388 . S
C1064 C1063 1.366 . S
C1064 C1068 1.385 . S
C1065 H1040 0.951 . S
C1065 C1063 1.388 . S
C1065 C1066 1.366 . S
C1066 C1065 1.366 . S
C1066 C1067 1.414 . S
C1066 C1069 1.499 . S
C1067 H1041 0.950 . S
C1067 C1066 1.414 . S
C1067 C1068 1.374 . S
C1068 H1042 0.950 . S
C1068 C1064 1.385 . S
C1068 C1067 1.374 . S
C1069 C1066 1.499 . S
C1069 C1070 1.373 . S
C1069 C1071 1.389 . S
C1070 H1043 0.950 . S
C1070 C1056 1.377 . S
C1070 C1069 1.373 . S
C1071 C1055 1.377 . S
C1071 C1069 1.389 . S
C1071 C1072 1.524 . S
C1072 C1071 1.524 . S
C1072 C1073 1.397 . S
C1072 C1077 1.363 . S
C1073 H1044 0.950 . S
C1073 C1072 1.397 . S
C1073 C1074 1.334 . S
C1074 H1045 0.950 . S
C1074 C1073 1.334 . S
C1074 C1075 1.287 . S
C1075 C1074 1.287 . S
C1075 C1076 1.524 . S
C1075 H1078 0.999 . S
C1076 H1046 0.950 . S
C1076 C1075 1.524 . S
C1076 C1077 1.415 . S
C1077 H1047 0.950 . S
C1077 C1072 1.363 . S
C1077 C1076 1.415 . S
H1078 C1075 0.999 . S
H1079 C1060 0.913 . S
H1080 C1098 0.951 . S
H1081 C1100 0.951 . S
H1082 C1102 0.950 . S
H1083 C1103 0.950 . S
H1084 C1105 0.950 . S
H1085 C1108 0.950 . S
H1086 C1109 0.950 . S
H1087 C1111 0.950 1_545 S
H1088 C1112 0.950 . S
H1089 C1113 0.951 . S
H1090 C1115 0.951 . S
H1091 C1117 0.950 . S
H1092 C1118 0.950 . S
H1093 C1120 0.950 . S
H1094 C1123 0.950 . S
H1095 C1124 0.950 . S
H1096 C1126 0.950 1_565 S
H1097 C1127 0.950 . S
C1098 H1080 0.951 . S
C1098 C1099 1.366 . S
C1098 C1100 1.388 . S
C1099 C1098 1.366 . S
C1099 C1103 1.385 . S
C1100 H1081 0.951 . S
C1100 C1098 1.388 . S
C1100 C1101 1.366 . S
C1101 C1100 1.366 . S
C1101 C1102 1.414 . S
C1101 C1104 1.499 . S
C1102 H1082 0.950 . S
C1102 C1101 1.414 . S
C1102 C1103 1.374 . S
C1103 H1083 0.950 . S
C1103 C1099 1.385 . S
C1103 C1102 1.374 . S
C1104 C1101 1.499 . S
C1104 C1105 1.373 . S
C1104 C1106 1.389 . S
C1105 H1084 0.950 . S
C1105 C1104 1.373 . S
C1105 C1121 1.377 1_566 S
C1106 C1104 1.389 . S
C1106 C1107 1.524 . S
C1106 C1120 1.377 1_566 S
C1107 C1106 1.524 . S
C1107 C1108 1.397 . S
C1107 C1112 1.363 1_565 S
C1108 H1085 0.950 . S
C1108 C1107 1.397 . S
C1108 C1109 1.334 . S
C1109 H1086 0.950 . S
C1109 C1108 1.334 . S
C1109 C1110 1.287 . S
C1110 C1109 1.287 . S
C1110 C1111 1.524 . S
C1110 H1129 0.913 . S
C1111 H1087 0.950 1_565 S
C1111 C1110 1.524 . S
C1111 C1112 1.415 1_565 S
C1112 H1088 0.950 . S
C1112 C1107 1.363 1_545 S
C1112 C1111 1.415 1_545 S
C1113 H1089 0.951 . S
C1113 C1114 1.366 . S
C1113 C1115 1.388 . S
C1114 C1113 1.366 . S
C1114 C1118 1.385 . S
C1115 H1090 0.951 . S
C1115 C1113 1.388 . S
C1115 C1116 1.366 . S
C1116 C1115 1.366 . S
C1116 C1117 1.414 . S
C1116 C1119 1.499 . S
C1117 H1091 0.950 . S
C1117 C1116 1.414 . S
C1117 C1118 1.374 . S
C1118 H1092 0.950 . S
C1118 C1114 1.385 . S
C1118 C1117 1.374 . S
C1119 C1116 1.499 . S
C1119 C1120 1.373 . S
C1119 C1121 1.389 . S
C1120 H1093 0.950 . S
C1120 C1106 1.377 1_544 S
C1120 C1119 1.373 . S
C1121 C1105 1.377 1_544 S
C1121 C1119 1.389 . S
C1121 C1122 1.524 . S
C1122 C1121 1.524 . S
C1122 C1123 1.397 . S
C1122 C1127 1.363 1_545 S
C1123 H1094 0.950 . S
C1123 C1122 1.397 . S
C1123 C1124 1.334 . S
C1124 H1095 0.950 . S
C1124 C1123 1.334 . S
C1124 C1125 1.287 . S
C1125 C1124 1.287 . S
C1125 C1126 1.524 . S
C1125 H1128 0.999 . S
C1126 H1096 0.950 1_545 S
C1126 C1125 1.524 . S
C1126 C1127 1.415 1_545 S
C1127 H1097 0.950 . S
C1127 C1122 1.363 1_565 S
C1127 C1126 1.415 1_565 S
H1128 C1125 0.999 . S
H1129 C1110 0.913 . S
H1130 C1148 0.951 . S
H1131 C1150 0.951 . S
H1132 C1152 0.950 . S
H1133 C1153 0.950 . S
H1134 C1155 0.950 . S
H1135 C1158 0.950 . S
H1136 C1159 0.950 . S
H1137 C1161 0.950 . S
H1138 C1162 0.950 . S
H1139 C1163 0.951 . S
H1140 C1165 0.951 . S
H1141 C1167 0.950 . S
H1142 C1168 0.950 . S
H1143 C1170 0.950 . S
H1144 C1173 0.950 . S
H1145 C1174 0.950 . S
H1146 C1176 0.950 . S
H1147 C1177 0.950 . S
C1148 H1130 0.951 . S
C1148 C1149 1.366 . S
C1148 C1150 1.388 . S
C1149 C1148 1.366 . S
C1149 C1153 1.385 . S
C1150 H1131 0.951 . S
C1150 C1148 1.388 . S
C1150 C1151 1.366 . S
C1151 C1150 1.366 . S
C1151 C1152 1.414 . S
C1151 C1154 1.499 . S
C1152 H1132 0.950 . S
C1152 C1151 1.414 . S
C1152 C1153 1.374 . S
C1153 H1133 0.950 . S
C1153 C1149 1.385 . S
C1153 C1152 1.374 . S
C1154 C1151 1.499 . S
C1154 C1155 1.373 . S
C1154 C1156 1.389 . S
C1155 H1134 0.950 . S
C1155 C1154 1.373 . S
C1155 C1171 1.377 . S
C1156 C1154 1.389 . S
C1156 C1157 1.524 . S
C1156 C1170 1.377 . S
C1157 C1156 1.524 . S
C1157 C1158 1.397 . S
C1157 C1162 1.363 . S
C1158 H1135 0.950 . S
C1158 C1157 1.397 . S
C1158 C1159 1.334 . S
C1159 H1136 0.950 . S
C1159 C1158 1.334 . S
C1159 C1160 1.287 . S
C1160 C1159 1.287 . S
C1160 C1161 1.524 . S
C1160 H1179 0.913 . S
C1161 H1137 0.950 . S
C1161 C1160 1.524 . S
C1161 C1162 1.415 . S
C1162 H1138 0.950 . S
C1162 C1157 1.363 . S
C1162 C1161 1.415 . S
C1163 H1139 0.951 . S
C1163 C1164 1.366 . S
C1163 C1165 1.388 . S
C1164 C1163 1.366 . S
C1164 C1168 1.385 . S
C1165 H1140 0.951 . S
C1165 C1163 1.388 . S
C1165 C1166 1.366 . S
C1166 C1165 1.366 . S
C1166 C1167 1.414 . S
C1166 C1169 1.499 . S
C1167 H1141 0.950 . S
C1167 C1166 1.414 . S
C1167 C1168 1.374 . S
C1168 H1142 0.950 . S
C1168 C1164 1.385 . S
C1168 C1167 1.374 . S
C1169 C1166 1.499 . S
C1169 C1170 1.373 . S
C1169 C1171 1.389 . S
C1170 H1143 0.950 . S
C1170 C1156 1.377 . S
C1170 C1169 1.373 . S
C1171 C1155 1.377 . S
C1171 C1169 1.389 . S
C1171 C1172 1.524 . S
C1172 C1171 1.524 . S
C1172 C1173 1.397 . S
C1172 C1177 1.363 . S
C1173 H1144 0.950 . S
C1173 C1172 1.397 . S
C1173 C1174 1.334 . S
C1174 H1145 0.950 . S
C1174 C1173 1.334 . S
C1174 C1175 1.287 . S
C1175 C1174 1.287 . S
C1175 C1176 1.524 . S
C1175 H1178 0.999 . S
C1176 H1146 0.950 . S
C1176 C1175 1.524 . S
C1176 C1177 1.415 . S
C1177 H1147 0.950 . S
C1177 C1172 1.363 . S
C1177 C1176 1.415 . S
H1178 C1175 0.999 . S
H1179 C1160 0.913 . S
H1180 C1198 0.951 . S
H1181 C1200 0.951 1_655 S
H1182 C1202 0.950 . S
H1183 C1203 0.950 . S
H1184 C1205 0.950 . S
H1185 C1208 0.950 . S
H1186 C1209 0.950 1_455 S
H1187 C1211 0.950 . S
H1188 C1212 0.950 . S
H1189 C1213 0.951 . S
H1190 C1215 0.951 1_455 S
H1191 C1217 0.950 . S
H1192 C1218 0.950 . S
H1193 C1220 0.950 . S
H1194 C1223 0.950 . S
H1195 C1224 0.950 1_655 S
H1196 C1226 0.950 . S
H1197 C1227 0.950 . S
C1198 H1180 0.951 . S
C1198 C1199 1.366 . S
C1198 C1200 1.388 . S
C1199 C1198 1.366 . S
C1199 C1203 1.385 . S
C1200 H1181 0.951 1_455 S
C1200 C1198 1.388 . S
C1200 C1201 1.366 . S
C1201 C1200 1.366 . S
C1201 C1202 1.414 . S
C1201 C1204 1.499 . S
C1202 H1182 0.950 . S
C1202 C1201 1.414 . S
C1202 C1203 1.374 . S
C1203 H1183 0.950 . S
C1203 C1199 1.385 . S
C1203 C1202 1.374 . S
C1204 C1201 1.499 . S
C1204 C1205 1.373 . S
C1204 C1206 1.389 1_455 S
C1205 H1184 0.950 . S
C1205 C1204 1.373 . S
C1205 C1221 1.377 . S
C1206 C1204 1.389 1_655 S
C1206 C1207 1.524 . S
C1206 C1220 1.377 . S
C1207 C1206 1.524 . S
C1207 C1208 1.397 1_655 S
C1207 C1212 1.363 . S
C1208 H1185 0.950 . S
C1208 C1207 1.397 1_455 S
C1208 C1209 1.334 1_455 S
C1209 H1186 0.950 1_655 S
C1209 C1208 1.334 1_655 S
C1209 C1210 1.287 . S
C1210 C1209 1.287 . S
C1210 C1211 1.524 . S
C1210 H1229 0.913 . S
C1211 H1187 0.950 . S
C1211 C1210 1.524 . S
C1211 C1212 1.415 . S
C1212 H1188 0.950 . S
C1212 C1207 1.363 . S
C1212 C1211 1.415 . S
C1213 H1189 0.951 . S
C1213 C1214 1.366 . S
C1213 C1215 1.388 . S
C1214 C1213 1.366 . S
C1214 C1218 1.385 . S
C1215 H1190 0.951 1_655 S
C1215 C1213 1.388 . S
C1215 C1216 1.366 . S
C1216 C1215 1.366 . S
C1216 C1217 1.414 . S
C1216 C1219 1.499 . S
C1217 H1191 0.950 . S
C1217 C1216 1.414 . S
C1217 C1218 1.374 . S
C1218 H1192 0.950 . S
C1218 C1214 1.385 . S
C1218 C1217 1.374 . S
C1219 C1216 1.499 . S
C1219 C1220 1.373 . S
C1219 C1221 1.389 1_655 S
C1220 H1193 0.950 . S
C1220 C1206 1.377 . S
C1220 C1219 1.373 . S
C1221 C1205 1.377 . S
C1221 C1219 1.389 1_455 S
C1221 C1222 1.524 . S
C1222 C1221 1.524 . S
C1222 C1223 1.397 1_455 S
C1222 C1227 1.363 . S
C1223 H1194 0.950 . S
C1223 C1222 1.397 1_655 S
C1223 C1224 1.334 1_655 S
C1224 H1195 0.950 1_455 S
C1224 C1223 1.334 1_455 S
C1224 C1225 1.287 . S
C1225 C1224 1.287 . S
C1225 C1226 1.524 . S
C1225 H1228 0.999 . S
C1226 H1196 0.950 . S
C1226 C1225 1.524 . S
C1226 C1227 1.415 . S
C1227 H1197 0.950 . S
C1227 C1222 1.363 . S
C1227 C1226 1.415 . S
H1228 C1225 0.999 . S
H1229 C1210 0.913 . S
H1230 C1248 0.951 . S
H1231 C1250 0.951 . S
H1232 C1252 0.950 1_545 S
H1233 C1253 0.950 . S
H1234 C1255 0.950 . S
H1235 C1258 0.950 . S
H1236 C1259 0.950 . S
H1237 C1261 0.950 . S
H1238 C1262 0.950 . S
H1239 C1263 0.951 . S
H1240 C1265 0.951 . S
H1241 C1267 0.950 1_565 S
H1242 C1268 0.950 . S
H1243 C1270 0.950 . S
H1244 C1273 0.950 . S
H1245 C1274 0.950 . S
H1246 C1276 0.950 . S
H1247 C1277 0.950 . S
C1248 H1230 0.951 . S
C1248 C1249 1.366 . S
C1248 C1250 1.388 . S
C1249 C1248 1.366 . S
C1249 C1253 1.385 . S
C1250 H1231 0.951 . S
C1250 C1248 1.388 . S
C1250 C1251 1.366 . S
C1251 C1250 1.366 . S
C1251 C1252 1.414 . S
C1251 C1254 1.499 . S
C1252 H1232 0.950 1_565 S
C1252 C1251 1.414 . S
C1252 C1253 1.374 . S
C1253 H1233 0.950 . S
C1253 C1249 1.385 . S
C1253 C1252 1.374 . S
C1254 C1251 1.499 . S
C1254 C1255 1.373 1_565 S
C1254 C1256 1.389 . S
C1255 H1234 0.950 . S
C1255 C1254 1.373 1_545 S
C1255 C1271 1.377 1_554 S
C1256 C1254 1.389 . S
C1256 C1257 1.524 . S
C1256 C1270 1.377 1_554 S
C1257 C1256 1.524 . S
C1257 C1258 1.397 . S
C1257 C1262 1.363 1_554 S
C1258 H1235 0.950 . S
C1258 C1257 1.397 . S
C1258 C1259 1.334 . S
C1259 H1236 0.950 . S
C1259 C1258 1.334 . S
C1259 C1260 1.287 . S
C1260 C1259 1.287 . S
C1260 C1261 1.524 1_554 S
C1260 H1279 0.913 . S
C1261 H1237 0.950 . S
C1261 C1260 1.524 1_556 S
C1261 C1262 1.415 . S
C1262 H1238 0.950 . S
C1262 C1257 1.363 1_556 S
C1262 C1261 1.415 . S
C1263 H1239 0.951 . S
C1263 C1264 1.366 . S
C1263 C1265 1.388 . S
C1264 C1263 1.366 . S
C1264 C1268 1.385 . S
C1265 H1240 0.951 . S
C1265 C1263 1.388 . S
C1265 C1266 1.366 . S
C1266 C1265 1.366 . S
C1266 C1267 1.414 . S
C1266 C1269 1.499 . S
C1267 H1241 0.950 1_545 S
C1267 C1266 1.414 . S
C1267 C1268 1.374 . S
C1268 H1242 0.950 . S
C1268 C1264 1.385 . S
C1268 C1267 1.374 . S
C1269 C1266 1.499 . S
C1269 C1270 1.373 1_545 S
C1269 C1271 1.389 . S
C1270 H1243 0.950 . S
C1270 C1256 1.377 1_556 S
C1270 C1269 1.373 1_565 S
C1271 C1255 1.377 1_556 S
C1271 C1269 1.389 . S
C1271 C1272 1.524 . S
C1272 C1271 1.524 . S
C1272 C1273 1.397 . S
C1272 C1277 1.363 1_556 S
C1273 H1244 0.950 . S
C1273 C1272 1.397 . S
C1273 C1274 1.334 . S
C1274 H1245 0.950 . S
C1274 C1273 1.334 . S
C1274 C1275 1.287 . S
C1275 C1274 1.287 . S
C1275 C1276 1.524 1_556 S
C1275 H1278 0.999 . S
C1276 H1246 0.950 . S
C1276 C1275 1.524 1_554 S
C1276 C1277 1.415 . S
C1277 H1247 0.950 . S
C1277 C1272 1.363 1_554 S
C1277 C1276 1.415 . S
H1278 C1275 0.999 . S
H1279 C1260 0.913 . S
H1280 C1298 0.951 . S
H1281 C1300 0.951 . S
H1282 C1302 0.950 . S
H1283 C1303 0.950 . S
H1284 C1305 0.950 . S
H1285 C1308 0.950 . S
H1286 C1309 0.950 . S
H1287 C1311 0.950 . S
H1288 C1312 0.950 . S
H1289 C1313 0.951 . S
H1290 C1315 0.951 . S
H1291 C1317 0.950 . S
H1292 C1318 0.950 . S
H1293 C1320 0.950 . S
H1294 C1323 0.950 . S
H1295 C1324 0.950 . S
H1296 C1326 0.950 . S
H1297 C1327 0.950 . S
C1298 H1280 0.951 . S
C1298 C1299 1.366 . S
C1298 C1300 1.388 . S
C1299 C1298 1.366 . S
C1299 C1303 1.385 . S
C1300 H1281 0.951 . S
C1300 C1298 1.388 . S
C1300 C1301 1.366 . S
C1301 C1300 1.366 . S
C1301 C1302 1.414 . S
C1301 C1304 1.499 . S
C1302 H1282 0.950 . S
C1302 C1301 1.414 . S
C1302 C1303 1.374 . S
C1303 H1283 0.950 . S
C1303 C1299 1.385 . S
C1303 C1302 1.374 . S
C1304 C1301 1.499 . S
C1304 C1305 1.373 . S
C1304 C1306 1.389 . S
C1305 H1284 0.950 . S
C1305 C1304 1.373 . S
C1305 C1321 1.377 . S
C1306 C1304 1.389 . S
C1306 C1307 1.524 . S
C1306 C1320 1.377 . S
C1307 C1306 1.524 . S
C1307 C1308 1.397 . S
C1307 C1312 1.363 . S
C1308 H1285 0.950 . S
C1308 C1307 1.397 . S
C1308 C1309 1.334 . S
C1309 H1286 0.950 . S
C1309 C1308 1.334 . S
C1309 C1310 1.287 . S
C1310 C1309 1.287 . S
C1310 C1311 1.524 . S
C1310 H1329 0.913 . S
C1311 H1287 0.950 . S
C1311 C1310 1.524 . S
C1311 C1312 1.415 . S
C1312 H1288 0.950 . S
C1312 C1307 1.363 . S
C1312 C1311 1.415 . S
C1313 H1289 0.951 . S
C1313 C1314 1.366 . S
C1313 C1315 1.388 . S
C1314 C1313 1.366 . S
C1314 C1318 1.385 . S
C1315 H1290 0.951 . S
C1315 C1313 1.388 . S
C1315 C1316 1.366 . S
C1316 C1315 1.366 . S
C1316 C1317 1.414 . S
C1316 C1319 1.499 . S
C1317 H1291 0.950 . S
C1317 C1316 1.414 . S
C1317 C1318 1.374 . S
C1318 H1292 0.950 . S
C1318 C1314 1.385 . S
C1318 C1317 1.374 . S
C1319 C1316 1.499 . S
C1319 C1320 1.373 . S
C1319 C1321 1.389 . S
C1320 H1293 0.950 . S
C1320 C1306 1.377 . S
C1320 C1319 1.373 . S
C1321 C1305 1.377 . S
C1321 C1319 1.389 . S
C1321 C1322 1.524 . S
C1322 C1321 1.524 . S
C1322 C1323 1.397 . S
C1322 C1327 1.363 . S
C1323 H1294 0.950 . S
C1323 C1322 1.397 . S
C1323 C1324 1.334 . S
C1324 H1295 0.950 . S
C1324 C1323 1.334 . S
C1324 C1325 1.287 . S
C1325 C1324 1.287 . S
C1325 C1326 1.524 . S
C1325 H1328 0.999 . S
C1326 H1296 0.950 . S
C1326 C1325 1.524 . S
C1326 C1327 1.415 . S
C1327 H1297 0.950 . S
C1327 C1322 1.363 . S
C1327 C1326 1.415 . S
H1328 C1325 0.999 . S
H1329 C1310 0.913 . S
H1330 C1348 0.951 . S
H1331 C1350 0.951 . S
H1332 C1352 0.950 . S
H1333 C1353 0.950 . S
H1334 C1355 0.950 . S
H1335 C1358 0.950 . S
H1336 C1359 0.950 . S
H1337 C1361 0.950 . S
H1338 C1362 0.950 . S
H1339 C1363 0.951 . S
H1340 C1365 0.951 . S
H1341 C1367 0.950 . S
H1342 C1368 0.950 . S
H1343 C1370 0.950 . S
H1344 C1373 0.950 . S
H1345 C1374 0.950 . S
H1346 C1376 0.950 . S
H1347 C1377 0.950 . S
C1348 H1330 0.951 . S
C1348 C1349 1.366 . S
C1348 C1350 1.388 . S
C1349 C1348 1.366 . S
C1349 C1353 1.385 . S
C1350 H1331 0.951 . S
C1350 C1348 1.388 . S
C1350 C1351 1.366 . S
C1351 C1350 1.366 . S
C1351 C1352 1.414 . S
C1351 C1354 1.499 . S
C1352 H1332 0.950 . S
C1352 C1351 1.414 . S
C1352 C1353 1.374 . S
C1353 H1333 0.950 . S
C1353 C1349 1.385 . S
C1353 C1352 1.374 . S
C1354 C1351 1.499 . S
C1354 C1355 1.373 1_455 S
C1354 C1356 1.389 . S
C1355 H1334 0.950 . S
C1355 C1354 1.373 1_655 S
C1355 C1371 1.377 . S
C1356 C1354 1.389 . S
C1356 C1357 1.524 . S
C1356 C1370 1.377 . S
C1357 C1356 1.524 . S
C1357 C1358 1.397 . S
C1357 C1362 1.363 . S
C1358 H1335 0.950 . S
C1358 C1357 1.397 . S
C1358 C1359 1.334 . S
C1359 H1336 0.950 . S
C1359 C1358 1.334 . S
C1359 C1360 1.287 . S
C1360 C1359 1.287 . S
C1360 C1361 1.524 . S
C1360 H1379 0.913 . S
C1361 H1337 0.950 . S
C1361 C1360 1.524 . S
C1361 C1362 1.415 . S
C1362 H1338 0.950 . S
C1362 C1357 1.363 . S
C1362 C1361 1.415 . S
C1363 H1339 0.951 . S
C1363 C1364 1.366 . S
C1363 C1365 1.388 . S
C1364 C1363 1.366 . S
C1364 C1368 1.385 . S
C1365 H1340 0.951 . S
C1365 C1363 1.388 . S
C1365 C1366 1.366 . S
C1366 C1365 1.366 . S
C1366 C1367 1.414 . S
C1366 C1369 1.499 . S
C1367 H1341 0.950 . S
C1367 C1366 1.414 . S
C1367 C1368 1.374 . S
C1368 H1342 0.950 . S
C1368 C1364 1.385 . S
C1368 C1367 1.374 . S
C1369 C1366 1.499 . S
C1369 C1370 1.373 1_655 S
C1369 C1371 1.389 . S
C1370 H1343 0.950 . S
C1370 C1356 1.377 . S
C1370 C1369 1.373 1_455 S
C1371 C1355 1.377 . S
C1371 C1369 1.389 . S
C1371 C1372 1.524 . S
C1372 C1371 1.524 . S
C1372 C1373 1.397 . S
C1372 C1377 1.363 . S
C1373 H1344 0.950 . S
C1373 C1372 1.397 . S
C1373 C1374 1.334 . S
C1374 H1345 0.950 . S
C1374 C1373 1.334 . S
C1374 C1375 1.287 . S
C1375 C1374 1.287 . S
C1375 C1376 1.524 . S
C1375 H1378 0.999 . S
C1376 H1346 0.950 . S
C1376 C1375 1.524 . S
C1376 C1377 1.415 . S
C1377 H1347 0.950 . S
C1377 C1372 1.363 . S
C1377 C1376 1.415 . S
H1378 C1375 0.999 . S
H1379 C1360 0.913 . S
H1380 C1398 0.951 . S
H1381 C1400 0.951 . S
H1382 C1402 0.950 . S
H1383 C1403 0.950 . S
H1384 C1405 0.950 . S
H1385 C1408 0.950 . S
H1386 C1409 0.950 . S
H1387 C1411 0.950 . S
H1388 C1412 0.950 . S
H1389 C1413 0.951 . S
H1390 C1415 0.951 . S
H1391 C1417 0.950 . S
H1392 C1418 0.950 . S
H1393 C1420 0.950 . S
H1394 C1423 0.950 . S
H1395 C1424 0.950 . S
H1396 C1426 0.950 . S
H1397 C1427 0.950 . S
C1398 H1380 0.951 . S
C1398 C1399 1.366 . S
C1398 C1400 1.388 . S
C1399 C1398 1.366 . S
C1399 C1403 1.385 . S
C1400 H1381 0.951 . S
C1400 C1398 1.388 . S
C1400 C1401 1.366 . S
C1401 C1400 1.366 . S
C1401 C1402 1.414 . S
C1401 C1404 1.499 . S
C1402 H1382 0.950 . S
C1402 C1401 1.414 . S
C1402 C1403 1.374 . S
C1403 H1383 0.950 . S
C1403 C1399 1.385 . S
C1403 C1402 1.374 . S
C1404 C1401 1.499 . S
C1404 C1405 1.373 . S
C1404 C1406 1.389 1_545 S
C1405 H1384 0.950 . S
C1405 C1404 1.373 . S
C1405 C1421 1.377 . S
C1406 C1404 1.389 1_565 S
C1406 C1407 1.524 . S
C1406 C1420 1.377 . S
C1407 C1406 1.524 . S
C1407 C1408 1.397 . S
C1407 C1412 1.363 . S
C1408 H1385 0.950 . S
C1408 C1407 1.397 . S
C1408 C1409 1.334 . S
C1409 H1386 0.950 . S
C1409 C1408 1.334 . S
C1409 C1410 1.287 . S
C1410 C1409 1.287 . S
C1410 C1411 1.524 . S
C1410 H1429 0.913 . S
C1411 H1387 0.950 . S
C1411 C1410 1.524 . S
C1411 C1412 1.415 . S
C1412 H1388 0.950 . S
C1412 C1407 1.363 . S
C1412 C1411 1.415 . S
C1413 H1389 0.951 . S
C1413 C1414 1.366 . S
C1413 C1415 1.388 . S
C1414 C1413 1.366 . S
C1414 C1418 1.385 . S
C1415 H1390 0.951 . S
C1415 C1413 1.388 . S
C1415 C1416 1.366 . S
C1416 C1415 1.366 . S
C1416 C1417 1.414 . S
C1416 C1419 1.499 . S
C1417 H1391 0.950 . S
C1417 C1416 1.414 . S
C1417 C1418 1.374 . S
C1418 H1392 0.950 . S
C1418 C1414 1.385 . S
C1418 C1417 1.374 . S
C1419 C1416 1.499 . S
C1419 C1420 1.373 . S
C1419 C1421 1.389 1_565 S
C1420 H1393 0.950 . S
C1420 C1406 1.377 . S
C1420 C1419 1.373 . S
C1421 C1405 1.377 . S
C1421 C1419 1.389 1_545 S
C1421 C1422 1.524 . S
C1422 C1421 1.524 . S
C1422 C1423 1.397 . S
C1422 C1427 1.363 . S
C1423 H1394 0.950 . S
C1423 C1422 1.397 . S
C1423 C1424 1.334 . S
C1424 H1395 0.950 . S
C1424 C1423 1.334 . S
C1424 C1425 1.287 . S
C1425 C1424 1.287 . S
C1425 C1426 1.524 . S
C1425 H1428 0.999 . S
C1426 H1396 0.950 . S
C1426 C1425 1.524 . S
C1426 C1427 1.415 . S
C1427 H1397 0.950 . S
C1427 C1422 1.363 . S
C1427 C1426 1.415 . S
H1428 C1425 0.999 . S
H1429 C1410 0.913 . S
H1430 C1448 0.951 . S
H1431 C1450 0.951 . S
H1432 C1452 0.950 . S
H1433 C1453 0.950 . S
H1434 C1455 0.950 . S
H1435 C1458 0.950 . S
H1436 C1459 0.950 . S
H1437 C1461 0.950 . S
H1438 C1462 0.950 . S
H1439 C1463 0.951 . S
H1440 C1465 0.951 . S
H1441 C1467 0.950 . S
H1442 C1468 0.950 . S
H1443 C1470 0.950 . S
H1444 C1473 0.950 . S
H1445 C1474 0.950 . S
H1446 C1476 0.950 . S
H1447 C1477 0.950 . S
C1448 H1430 0.951 . S
C1448 C1449 1.366 . S
C1448 C1450 1.388 . S
C1449 C1448 1.366 . S
C1449 C1453 1.385 . S
C1450 H1431 0.951 . S
C1450 C1448 1.388 . S
C1450 C1451 1.366 . S
C1451 C1450 1.366 . S
C1451 C1452 1.414 . S
C1451 C1454 1.499 . S
C1452 H1432 0.950 . S
C1452 C1451 1.414 . S
C1452 C1453 1.374 . S
C1453 H1433 0.950 . S
C1453 C1449 1.385 . S
C1453 C1452 1.374 . S
C1454 C1451 1.499 . S
C1454 C1455 1.373 . S
C1454 C1456 1.389 . S
C1455 H1434 0.950 . S
C1455 C1454 1.373 . S
C1455 C1471 1.377 . S
C1456 C1454 1.389 . S
C1456 C1457 1.524 . S
C1456 C1470 1.377 . S
C1457 C1456 1.524 . S
C1457 C1458 1.397 . S
C1457 C1462 1.363 . S
C1458 H1435 0.950 . S
C1458 C1457 1.397 . S
C1458 C1459 1.334 . S
C1459 H1436 0.950 . S
C1459 C1458 1.334 . S
C1459 C1460 1.287 . S
C1460 C1459 1.287 . S
C1460 C1461 1.524 . S
C1460 H1479 0.913 . S
C1461 H1437 0.950 . S
C1461 C1460 1.524 . S
C1461 C1462 1.415 . S
C1462 H1438 0.950 . S
C1462 C1457 1.363 . S
C1462 C1461 1.415 . S
C1463 H1439 0.951 . S
C1463 C1464 1.366 . S
C1463 C1465 1.388 . S
C1464 C1463 1.366 . S
C1464 C1468 1.385 . S
C1465 H1440 0.951 . S
C1465 C1463 1.388 . S
C1465 C1466 1.366 . S
C1466 C1465 1.366 . S
C1466 C1467 1.414 . S
C1466 C1469 1.499 . S
C1467 H1441 0.950 . S
C1467 C1466 1.414 . S
C1467 C1468 1.374 . S
C1468 H1442 0.950 . S
C1468 C1464 1.385 . S
C1468 C1467 1.374 . S
C1469 C1466 1.499 . S
C1469 C1470 1.373 . S
C1469 C1471 1.389 . S
C1470 H1443 0.950 . S
C1470 C1456 1.377 . S
C1470 C1469 1.373 . S
C1471 C1455 1.377 . S
C1471 C1469 1.389 . S
C1471 C1472 1.524 . S
C1472 C1471 1.524 . S
C1472 C1473 1.397 . S
C1472 C1477 1.363 . S
C1473 H1444 0.950 . S
C1473 C1472 1.397 . S
C1473 C1474 1.334 . S
C1474 H1445 0.950 . S
C1474 C1473 1.334 . S
C1474 C1475 1.287 . S
C1475 C1474 1.287 . S
C1475 C1476 1.524 . S
C1475 H1478 0.999 . S
C1476 H1446 0.950 . S
C1476 C1475 1.524 . S
C1476 C1477 1.415 . S
C1477 H1447 0.950 . S
C1477 C1472 1.363 . S
C1477 C1476 1.415 . S
H1478 C1475 0.999 . S
H1479 C1460 0.913 . S
H1480 C1498 0.951 . S
H1481 C1500 0.951 . S
H1482 C1502 0.950 . S
H1483 C1503 0.950 . S
H1484 C1505 0.951 . S
H1485 C1508 0.950 . S
H1486 C1509 0.950 . S
H1487 C1511 0.950 . S
H1488 C1512 0.950 . S
H1489 C1513 0.951 . S
H1490 C1515 0.951 . S
H1491 C1517 0.950 . S
H1492 C1518 0.950 . S
H1493 C1520 0.951 . S
H1494 C1523 0.950 . S
H1495 C1524 0.950 . S
H1496 C1526 0.950 . S
H1497 C1527 0.950 . S
C1498 H1480 0.951 . S
C1498 C1499 1.366 . S
C1498 C1500 1.388 . S
C1499 C1498 1.366 . S
C1499 C1503 1.385 . S
C1500 H1481 0.951 . S
C1500 C1498 1.388 . S
C1500 C1501 1.366 . S
C1501 C1500 1.366 . S
C1501 C1502 1.414 . S
C1501 C1504 1.499 . S
C1502 H1482 0.950 . S
C1502 C1501 1.414 . S
C1502 C1503 1.374 . S
C1503 H1483 0.950 . S
C1503 C1499 1.385 . S
C1503 C1502 1.374 . S
C1504 C1501 1.499 . S
C1504 C1505 1.384 . S
C1504 C1506 1.389 . S
C1505 H1484 0.951 . S
C1505 C1504 1.384 . S
C1505 C1521 1.373 1_655 S
C1506 C1504 1.389 . S
C1506 C1507 1.524 . S
C1506 C1520 1.373 1_655 S
C1507 C1506 1.524 . S
C1507 C1508 1.397 . S
C1507 C1512 1.363 . S
C1508 H1485 0.950 . S
C1508 C1507 1.397 . S
C1508 C1509 1.334 . S
C1509 H1486 0.950 . S
C1509 C1508 1.334 . S
C1509 C1510 1.287 . S
C1510 C1509 1.287 . S
C1510 C1511 1.524 . S
C1510 H1529 0.913 . S
C1511 H1487 0.950 . S
C1511 C1510 1.524 . S
C1511 C1512 1.415 . S
C1512 H1488 0.950 . S
C1512 C1507 1.363 . S
C1512 C1511 1.415 . S
C1513 H1489 0.951 . S
C1513 C1514 1.366 . S
C1513 C1515 1.388 . S
C1514 C1513 1.366 . S
C1514 C1518 1.385 . S
C1515 H1490 0.951 . S
C1515 C1513 1.388 . S
C1515 C1516 1.366 . S
C1516 C1515 1.366 . S
C1516 C1517 1.414 . S
C1516 C1519 1.499 . S
C1517 H1491 0.950 . S
C1517 C1516 1.414 . S
C1517 C1518 1.374 . S
C1518 H1492 0.950 . S
C1518 C1514 1.385 . S
C1518 C1517 1.374 . S
C1519 C1516 1.499 . S
C1519 C1520 1.384 . S
C1519 C1521 1.389 . S
C1520 H1493 0.951 . S
C1520 C1506 1.373 1_455 S
C1520 C1519 1.384 . S
C1521 C1505 1.373 1_455 S
C1521 C1519 1.389 . S
C1521 C1522 1.524 . S
C1522 C1521 1.524 . S
C1522 C1523 1.397 . S
C1522 C1527 1.363 . S
C1523 H1494 0.950 . S
C1523 C1522 1.397 . S
C1523 C1524 1.334 1_556 S
C1524 H1495 0.950 . S
C1524 C1523 1.334 1_554 S
C1524 C1525 1.287 . S
C1525 C1524 1.287 . S
C1525 C1526 1.524 . S
C1525 H1528 0.999 . S
C1526 H1496 0.950 . S
C1526 C1525 1.524 . S
C1526 C1527 1.415 1_554 S
C1527 H1497 0.950 . S
C1527 C1522 1.363 . S
C1527 C1526 1.415 1_556 S
H1528 C1525 0.999 . S
H1529 C1510 0.913 . S
H1530 C1548 0.951 . S
H1531 C1550 0.951 . S
H1532 C1552 0.950 . S
H1533 C1553 0.950 . S
H1534 C1555 0.950 . S
H1535 C1558 0.950 . S
H1536 C1559 0.950 . S
H1537 C1561 0.950 . S
H1538 C1562 0.950 . S
H1539 C1563 0.951 . S
H1540 C1565 0.951 . S
H1541 C1567 0.950 . S
H1542 C1568 0.950 . S
H1543 C1570 0.950 . S
H1544 C1573 0.950 . S
H1545 C1574 0.950 . S
H1546 C1576 0.950 . S
H1547 C1577 0.950 . S
C1548 H1530 0.951 . S
C1548 C1549 1.366 . S
C1548 C1550 1.388 . S
C1549 C1548 1.366 . S
C1549 C1553 1.385 . S
C1550 H1531 0.951 . S
C1550 C1548 1.388 . S
C1550 C1551 1.366 . S
C1551 C1550 1.366 . S
C1551 C1552 1.414 . S
C1551 C1554 1.499 . S
C1552 H1532 0.950 . S
C1552 C1551 1.414 . S
C1552 C1553 1.374 . S
C1553 H1533 0.950 . S
C1553 C1549 1.385 . S
C1553 C1552 1.374 . S
C1554 C1551 1.499 . S
C1554 C1555 1.373 . S
C1554 C1556 1.389 . S
C1555 H1534 0.950 . S
C1555 C1554 1.373 . S
C1555 C1571 1.377 1_455 S
C1556 C1554 1.389 . S
C1556 C1557 1.524 . S
C1556 C1570 1.377 1_455 S
C1557 C1556 1.524 . S
C1557 C1558 1.397 . S
C1557 C1562 1.363 1_455 S
C1558 H1535 0.950 . S
C1558 C1557 1.397 . S
C1558 C1559 1.334 . S
C1559 H1536 0.950 . S
C1559 C1558 1.334 . S
C1559 C1560 1.287 . S
C1560 C1559 1.287 . S
C1560 C1561 1.524 1_455 S
C1560 H1579 0.913 . S
C1561 H1537 0.950 . S
C1561 C1560 1.524 1_655 S
C1561 C1562 1.415 . S
C1562 H1538 0.950 . S
C1562 C1557 1.363 1_655 S
C1562 C1561 1.415 . S
C1563 H1539 0.951 . S
C1563 C1564 1.366 . S
C1563 C1565 1.388 . S
C1564 C1563 1.366 . S
C1564 C1568 1.385 . S
C1565 H1540 0.951 . S
C1565 C1563 1.388 . S
C1565 C1566 1.366 . S
C1566 C1565 1.366 . S
C1566 C1567 1.414 . S
C1566 C1569 1.499 . S
C1567 H1541 0.950 . S
C1567 C1566 1.414 . S
C1567 C1568 1.374 . S
C1568 H1542 0.950 . S
C1568 C1564 1.385 . S
C1568 C1567 1.374 . S
C1569 C1566 1.499 . S
C1569 C1570 1.373 . S
C1569 C1571 1.389 . S
C1570 H1543 0.950 . S
C1570 C1556 1.377 1_655 S
C1570 C1569 1.373 . S
C1571 C1555 1.377 1_655 S
C1571 C1569 1.389 . S
C1571 C1572 1.524 . S
C1572 C1571 1.524 . S
C1572 C1573 1.397 . S
C1572 C1577 1.363 1_655 S
C1573 H1544 0.950 . S
C1573 C1572 1.397 . S
C1573 C1574 1.334 . S
C1574 H1545 0.950 . S
C1574 C1573 1.334 . S
C1574 C1575 1.287 . S
C1575 C1574 1.287 . S
C1575 C1576 1.524 1_655 S
C1575 H1578 0.999 . S
C1576 H1546 0.950 . S
C1576 C1575 1.524 1_455 S
C1576 C1577 1.415 . S
C1577 H1547 0.950 . S
C1577 C1572 1.363 1_455 S
C1577 C1576 1.415 . S
H1578 C1575 0.999 . S
H1579 C1560 0.913 . S
H1580 C1598 0.951 . S
H1581 C1600 0.951 . S
H1582 C1602 0.950 . S
H1583 C1603 0.950 . S
H1584 C1605 0.950 . S
H1585 C1608 0.950 . S
H1586 C1609 0.950 . S
H1587 C1611 0.950 . S
H1588 C1612 0.950 . S
H1589 C1613 0.951 . S
H1590 C1615 0.951 . S
H1591 C1617 0.950 . S
H1592 C1618 0.950 . S
H1593 C1620 0.950 . S
H1594 C1623 0.950 . S
H1595 C1624 0.950 . S
H1596 C1626 0.950 . S
H1597 C1627 0.950 . S
C1598 H1580 0.951 . S
C1598 C1599 1.366 . S
C1598 C1600 1.388 . S
C1599 C1598 1.366 . S
C1599 C1603 1.385 . S
C1600 H1581 0.951 . S
C1600 C1598 1.388 . S
C1600 C1601 1.366 . S
C1601 C1600 1.366 . S
C1601 C1602 1.414 . S
C1601 C1604 1.499 . S
C1602 H1582 0.950 . S
C1602 C1601 1.414 . S
C1602 C1603 1.374 . S
C1603 H1583 0.950 . S
C1603 C1599 1.385 . S
C1603 C1602 1.374 . S
C1604 C1601 1.499 . S
C1604 C1605 1.373 1_565 S
C1604 C1606 1.389 . S
C1605 H1584 0.950 . S
C1605 C1604 1.373 1_545 S
C1605 C1621 1.377 . S
C1606 C1604 1.389 . S
C1606 C1607 1.524 . S
C1606 C1620 1.377 . S
C1607 C1606 1.524 . S
C1607 C1608 1.397 . S
C1607 C1612 1.363 . S
C1608 H1585 0.950 . S
C1608 C1607 1.397 . S
C1608 C1609 1.334 . S
C1609 H1586 0.950 . S
C1609 C1608 1.334 . S
C1609 C1610 1.287 . S
C1610 C1609 1.287 . S
C1610 C1611 1.524 . S
C1610 H1629 0.913 . S
C1611 H1587 0.950 . S
C1611 C1610 1.524 . S
C1611 C1612 1.415 . S
C1612 H1588 0.950 . S
C1612 C1607 1.363 . S
C1612 C1611 1.415 . S
C1613 H1589 0.951 . S
C1613 C1614 1.366 . S
C1613 C1615 1.388 . S
C1614 C1613 1.366 . S
C1614 C1618 1.385 . S
C1615 H1590 0.951 . S
C1615 C1613 1.388 . S
C1615 C1616 1.366 . S
C1616 C1615 1.366 . S
C1616 C1617 1.414 . S
C1616 C1619 1.499 . S
C1617 H1591 0.950 . S
C1617 C1616 1.414 . S
C1617 C1618 1.374 . S
C1618 H1592 0.950 . S
C1618 C1614 1.385 . S
C1618 C1617 1.374 . S
C1619 C1616 1.499 . S
C1619 C1620 1.373 1_545 S
C1619 C1621 1.389 . S
C1620 H1593 0.950 . S
C1620 C1606 1.377 . S
C1620 C1619 1.373 1_565 S
C1621 C1605 1.377 . S
C1621 C1619 1.389 . S
C1621 C1622 1.524 . S
C1622 C1621 1.524 . S
C1622 C1623 1.397 . S
C1622 C1627 1.363 . S
C1623 H1594 0.950 . S
C1623 C1622 1.397 . S
C1623 C1624 1.334 . S
C1624 H1595 0.950 . S
C1624 C1623 1.334 . S
C1624 C1625 1.287 . S
C1625 C1624 1.287 . S
C1625 C1626 1.524 . S
C1625 H1628 0.999 . S
C1626 H1596 0.950 . S
C1626 C1625 1.524 . S
C1626 C1627 1.415 . S
C1627 H1597 0.950 . S
C1627 C1622 1.363 . S
C1627 C1626 1.415 . S
H1628 C1625 0.999 . S
H1629 C1610 0.913 . S
H1630 C1648 0.951 . S
H1631 C1650 0.951 . S
H1632 C1652 0.950 . S
H1633 C1653 0.950 . S
H1634 C1655 0.950 . S
H1635 C1658 0.950 . S
H1636 C1659 0.950 . S
H1637 C1661 0.950 . S
H1638 C1662 0.950 . S
H1639 C1663 0.951 . S
H1640 C1665 0.951 . S
H1641 C1667 0.950 . S
H1642 C1668 0.950 . S
H1643 C1670 0.950 . S
H1644 C1673 0.950 . S
H1645 C1674 0.950 . S
H1646 C1676 0.950 . S
H1647 C1677 0.950 . S
C1648 H1630 0.951 . S
C1648 C1649 1.366 . S
C1648 C1650 1.388 . S
C1649 C1648 1.366 . S
C1649 C1653 1.385 . S
C1650 H1631 0.951 . S
C1650 C1648 1.388 . S
C1650 C1651 1.366 . S
C1651 C1650 1.366 . S
C1651 C1652 1.414 . S
C1651 C1654 1.499 . S
C1652 H1632 0.950 . S
C1652 C1651 1.414 . S
C1652 C1653 1.374 . S
C1653 H1633 0.950 . S
C1653 C1649 1.385 . S
C1653 C1652 1.374 . S
C1654 C1651 1.499 . S
C1654 C1655 1.373 . S
C1654 C1656 1.389 . S
C1655 H1634 0.950 . S
C1655 C1654 1.373 . S
C1655 C1671 1.377 . S
C1656 C1654 1.389 . S
C1656 C1657 1.524 . S
C1656 C1670 1.377 . S
C1657 C1656 1.524 . S
C1657 C1658 1.397 . S
C1657 C1662 1.363 . S
C1658 H1635 0.950 . S
C1658 C1657 1.397 . S
C1658 C1659 1.334 . S
C1659 H1636 0.950 . S
C1659 C1658 1.334 . S
C1659 C1660 1.287 . S
C1660 C1659 1.287 . S
C1660 C1661 1.524 . S
C1660 H1679 0.913 . S
C1661 H1637 0.950 . S
C1661 C1660 1.524 . S
C1661 C1662 1.415 . S
C1662 H1638 0.950 . S
C1662 C1657 1.363 . S
C1662 C1661 1.415 . S
C1663 H1639 0.951 . S
C1663 C1664 1.366 . S
C1663 C1665 1.388 . S
C1664 C1663 1.366 . S
C1664 C1668 1.385 . S
C1665 H1640 0.951 . S
C1665 C1663 1.388 . S
C1665 C1666 1.366 . S
C1666 C1665 1.366 . S
C1666 C1667 1.414 . S
C1666 C1669 1.499 . S
C1667 H1641 0.950 . S
C1667 C1666 1.414 . S
C1667 C1668 1.374 . S
C1668 H1642 0.950 . S
C1668 C1664 1.385 . S
C1668 C1667 1.374 . S
C1669 C1666 1.499 . S
C1669 C1670 1.373 . S
C1669 C1671 1.389 . S
C1670 H1643 0.950 . S
C1670 C1656 1.377 . S
C1670 C1669 1.373 . S
C1671 C1655 1.377 . S
C1671 C1669 1.389 . S
C1671 C1672 1.524 . S
C1672 C1671 1.524 . S
C1672 C1673 1.397 . S
C1672 C1677 1.363 . S
C1673 H1644 0.950 . S
C1673 C1672 1.397 . S
C1673 C1674 1.334 . S
C1674 H1645 0.950 . S
C1674 C1673 1.334 . S
C1674 C1675 1.287 . S
C1675 C1674 1.287 . S
C1675 C1676 1.524 1_554 S
C1675 H1678 0.999 1_554 S
C1676 H1646 0.950 . S
C1676 C1675 1.524 1_556 S
C1676 C1677 1.415 1_556 S
C1677 H1647 0.950 . S
C1677 C1672 1.363 . S
C1677 C1676 1.415 1_554 S
H1678 C1675 0.999 1_556 S
H1679 C1660 0.913 . S
H1680 C1698 0.951 . S
H1681 C1700 0.951 . S
H1682 C1702 0.950 . S
H1683 C1703 0.950 . S
H1684 C1705 0.950 . S
H1685 C1708 0.950 . S
H1686 C1709 0.950 . S
H1687 C1711 0.950 . S
H1688 C1712 0.950 . S
H1689 C1713 0.951 . S
H1690 C1715 0.951 . S
H1691 C1717 0.950 . S
H1692 C1718 0.950 . S
H1693 C1720 0.950 . S
H1694 C1723 0.950 . S
H1695 C1724 0.950 . S
H1696 C1726 0.950 . S
H1697 C1727 0.950 . S
C1698 H1680 0.951 . S
C1698 C1699 1.366 . S
C1698 C1700 1.388 . S
C1699 C1698 1.366 . S
C1699 C1703 1.385 . S
C1700 H1681 0.951 . S
C1700 C1698 1.388 . S
C1700 C1701 1.366 . S
C1701 C1700 1.366 . S
C1701 C1702 1.414 . S
C1701 C1704 1.499 . S
C1702 H1682 0.950 . S
C1702 C1701 1.414 . S
C1702 C1703 1.374 . S
C1703 H1683 0.950 . S
C1703 C1699 1.385 . S
C1703 C1702 1.374 . S
C1704 C1701 1.499 . S
C1704 C1705 1.373 . S
C1704 C1706 1.389 . S
C1705 H1684 0.950 . S
C1705 C1704 1.373 . S
C1705 C1721 1.377 1_565 S
C1706 C1704 1.389 . S
C1706 C1707 1.524 . S
C1706 C1720 1.377 1_565 S
C1707 C1706 1.524 . S
C1707 C1708 1.397 . S
C1707 C1712 1.363 . S
C1708 H1685 0.950 . S
C1708 C1707 1.397 . S
C1708 C1709 1.334 . S
C1709 H1686 0.950 . S
C1709 C1708 1.334 . S
C1709 C1710 1.287 . S
C1710 C1709 1.287 . S
C1710 C1711 1.524 . S
C1710 H1729 0.913 . S
C1711 H1687 0.950 . S
C1711 C1710 1.524 . S
C1711 C1712 1.415 . S
C1712 H1688 0.950 . S
C1712 C1707 1.363 . S
C1712 C1711 1.415 . S
C1713 H1689 0.951 . S
C1713 C1714 1.366 . S
C1713 C1715 1.388 . S
C1714 C1713 1.366 . S
C1714 C1718 1.385 . S
C1715 H1690 0.951 . S
C1715 C1713 1.388 . S
C1715 C1716 1.366 . S
C1716 C1715 1.366 . S
C1716 C1717 1.414 . S
C1716 C1719 1.499 . S
C1717 H1691 0.950 . S
C1717 C1716 1.414 . S
C1717 C1718 1.374 . S
C1718 H1692 0.950 . S
C1718 C1714 1.385 . S
C1718 C1717 1.374 . S
C1719 C1716 1.499 . S
C1719 C1720 1.373 . S
C1719 C1721 1.389 . S
C1720 H1693 0.950 . S
C1720 C1706 1.377 1_545 S
C1720 C1719 1.373 . S
C1721 C1705 1.377 1_545 S
C1721 C1719 1.389 . S
C1721 C1722 1.524 . S
C1722 C1721 1.524 . S
C1722 C1723 1.397 . S
C1722 C1727 1.363 . S
C1723 H1694 0.950 . S
C1723 C1722 1.397 . S
C1723 C1724 1.334 . S
C1724 H1695 0.950 . S
C1724 C1723 1.334 . S
C1724 C1725 1.287 . S
C1725 C1724 1.287 . S
C1725 C1726 1.524 . S
C1725 H1728 0.999 . S
C1726 H1696 0.950 . S
C1726 C1725 1.524 . S
C1726 C1727 1.415 . S
C1727 H1697 0.950 . S
C1727 C1722 1.363 . S
C1727 C1726 1.415 . S
H1728 C1725 0.999 . S
H1729 C1710 0.913 . S
H1730 C1748 0.951 . S
H1731 C1750 0.951 . S
H1732 C1752 0.950 . S
H1733 C1753 0.950 . S
H1734 C1755 0.950 . S
H1735 C1758 0.950 . S
H1736 C1759 0.950 . S
H1737 C1761 0.950 . S
H1738 C1762 0.950 . S
H1739 C1763 0.951 . S
H1740 C1765 0.951 . S
H1741 C1767 0.950 . S
H1742 C1768 0.950 . S
H1743 C1770 0.950 . S
H1744 C1773 0.950 . S
H1745 C1774 0.950 . S
H1746 C1776 0.950 . S
H1747 C1777 0.950 . S
C1748 H1730 0.951 . S
C1748 C1749 1.366 . S
C1748 C1750 1.388 . S
C1749 C1748 1.366 . S
C1749 C1753 1.385 . S
C1750 H1731 0.951 . S
C1750 C1748 1.388 . S
C1750 C1751 1.366 . S
C1751 C1750 1.366 . S
C1751 C1752 1.414 . S
C1751 C1754 1.499 . S
C1752 H1732 0.950 . S
C1752 C1751 1.414 . S
C1752 C1753 1.374 . S
C1753 H1733 0.950 . S
C1753 C1749 1.385 . S
C1753 C1752 1.374 . S
C1754 C1751 1.499 . S
C1754 C1755 1.373 . S
C1754 C1756 1.389 . S
C1755 H1734 0.950 . S
C1755 C1754 1.373 . S
C1755 C1771 1.377 . S
C1756 C1754 1.389 . S
C1756 C1757 1.524 . S
C1756 C1770 1.377 . S
C1757 C1756 1.524 . S
C1757 C1758 1.397 . S
C1757 C1762 1.363 . S
C1758 H1735 0.950 . S
C1758 C1757 1.397 . S
C1758 C1759 1.334 . S
C1759 H1736 0.950 . S
C1759 C1758 1.334 . S
C1759 C1760 1.287 . S
C1760 C1759 1.287 . S
C1760 C1761 1.524 . S
C1760 H1779 0.913 . S
C1761 H1737 0.950 . S
C1761 C1760 1.524 . S
C1761 C1762 1.415 . S
C1762 H1738 0.950 . S
C1762 C1757 1.363 . S
C1762 C1761 1.415 . S
C1763 H1739 0.951 . S
C1763 C1764 1.366 . S
C1763 C1765 1.388 . S
C1764 C1763 1.366 . S
C1764 C1768 1.385 . S
C1765 H1740 0.951 . S
C1765 C1763 1.388 . S
C1765 C1766 1.366 . S
C1766 C1765 1.366 . S
C1766 C1767 1.414 . S
C1766 C1769 1.499 . S
C1767 H1741 0.950 . S
C1767 C1766 1.414 . S
C1767 C1768 1.374 . S
C1768 H1742 0.950 . S
C1768 C1764 1.385 . S
C1768 C1767 1.374 . S
C1769 C1766 1.499 . S
C1769 C1770 1.373 . S
C1769 C1771 1.389 . S
C1770 H1743 0.950 . S
C1770 C1756 1.377 . S
C1770 C1769 1.373 . S
C1771 C1755 1.377 . S
C1771 C1769 1.389 . S
C1771 C1772 1.524 . S
C1772 C1771 1.524 . S
C1772 C1773 1.397 . S
C1772 C1777 1.363 . S
C1773 H1744 0.950 . S
C1773 C1772 1.397 . S
C1773 C1774 1.334 . S
C1774 H1745 0.950 . S
C1774 C1773 1.334 . S
C1774 C1775 1.287 . S
C1775 C1774 1.287 . S
C1775 C1776 1.524 . S
C1775 H1778 0.999 . S
C1776 H1746 0.950 . S
C1776 C1775 1.524 . S
C1776 C1777 1.415 . S
C1777 H1747 0.950 . S
C1777 C1772 1.363 . S
C1777 C1776 1.415 . S
H1778 C1775 0.999 . S
H1779 C1760 0.913 . S
H1780 C1798 0.951 . S
H1781 C1800 0.951 . S
H1782 C1802 0.950 . S
H1783 C1803 0.950 . S
H1784 C1805 0.950 . S
H1785 C1808 0.950 . S
H1786 C1809 0.950 . S
H1787 C1811 0.950 . S
H1788 C1812 0.950 . S
H1789 C1813 0.951 . S
H1790 C1815 0.951 . S
H1791 C1817 0.950 . S
H1792 C1818 0.950 . S
H1793 C1820 0.950 . S
H1794 C1823 0.950 . S
H1795 C1824 0.950 . S
H1796 C1826 0.950 . S
H1797 C1827 0.950 . S
C1798 H1780 0.951 . S
C1798 C1799 1.366 . S
C1798 C1800 1.388 . S
C1799 C1798 1.366 . S
C1799 C1803 1.385 . S
C1800 H1781 0.951 . S
C1800 C1798 1.388 . S
C1800 C1801 1.366 . S
C1801 C1800 1.366 . S
C1801 C1802 1.414 . S
C1801 C1804 1.499 . S
C1802 H1782 0.950 . S
C1802 C1801 1.414 . S
C1802 C1803 1.374 . S
C1803 H1783 0.950 . S
C1803 C1799 1.385 . S
C1803 C1802 1.374 . S
C1804 C1801 1.499 . S
C1804 C1805 1.373 . S
C1804 C1806 1.389 1_655 S
C1805 H1784 0.950 . S
C1805 C1804 1.373 . S
C1805 C1821 1.377 . S
C1806 C1804 1.389 1_455 S
C1806 C1807 1.524 . S
C1806 C1820 1.377 . S
C1807 C1806 1.524 . S
C1807 C1808 1.397 1_455 S
C1807 C1812 1.363 . S
C1808 H1785 0.950 . S
C1808 C1807 1.397 1_655 S
C1808 C1809 1.334 . S
C1809 H1786 0.950 . S
C1809 C1808 1.334 . S
C1809 C1810 1.287 1_655 S
C1810 C1809 1.287 1_455 S
C1810 C1811 1.524 . S
C1810 H1829 0.913 . S
C1811 H1787 0.950 . S
C1811 C1810 1.524 . S
C1811 C1812 1.415 . S
C1812 H1788 0.950 . S
C1812 C1807 1.363 . S
C1812 C1811 1.415 . S
C1813 H1789 0.951 . S
C1813 C1814 1.366 . S
C1813 C1815 1.388 . S
C1814 C1813 1.366 . S
C1814 C1818 1.385 . S
C1815 H1790 0.951 . S
C1815 C1813 1.388 . S
C1815 C1816 1.366 . S
C1816 C1815 1.366 . S
C1816 C1817 1.414 . S
C1816 C1819 1.499 . S
C1817 H1791 0.950 . S
C1817 C1816 1.414 . S
C1817 C1818 1.374 . S
C1818 H1792 0.950 . S
C1818 C1814 1.385 . S
C1818 C1817 1.374 . S
C1819 C1816 1.499 . S
C1819 C1820 1.373 . S
C1819 C1821 1.389 1_455 S
C1820 H1793 0.950 . S
C1820 C1806 1.377 . S
C1820 C1819 1.373 . S
C1821 C1805 1.377 . S
C1821 C1819 1.389 1_655 S
C1821 C1822 1.524 . S
C1822 C1821 1.524 . S
C1822 C1823 1.397 1_655 S
C1822 C1827 1.363 . S
C1823 H1794 0.950 . S
C1823 C1822 1.397 1_455 S
C1823 C1824 1.334 . S
C1824 H1795 0.950 . S
C1824 C1823 1.334 . S
C1824 C1825 1.287 1_455 S
C1825 C1824 1.287 1_655 S
C1825 C1826 1.524 . S
C1825 H1828 0.999 . S
C1826 H1796 0.950 . S
C1826 C1825 1.524 . S
C1826 C1827 1.415 . S
C1827 H1797 0.950 . S
C1827 C1822 1.363 . S
C1827 C1826 1.415 . S
H1828 C1825 0.999 . S
H1829 C1810 0.913 . S
H1830 C1848 0.951 . S
H1831 C1850 0.951 . S
H1832 C1852 0.950 . S
H1833 C1853 0.950 . S
H1834 C1855 0.950 . S
H1835 C1858 0.930 1_565 S
H1836 C1859 0.950 . S
H1837 C1861 0.950 . S
H1838 C1862 0.950 . S
H1839 C1863 0.951 . S
H1840 C1865 0.951 . S
H1841 C1867 0.950 . S
H1842 C1868 0.950 . S
H1843 C1870 0.950 . S
H1844 C1873 0.929 1_545 S
H1845 C1874 0.950 . S
H1846 C1876 0.950 . S
H1847 C1877 0.950 . S
C1848 H1830 0.951 . S
C1848 C1849 1.366 . S
C1848 C1850 1.388 . S
C1849 C1848 1.366 . S
C1849 C1853 1.385 . S
C1850 H1831 0.951 . S
C1850 C1848 1.388 . S
C1850 C1851 1.366 . S
C1851 C1850 1.366 . S
C1851 C1852 1.414 . S
C1851 C1854 1.499 . S
C1852 H1832 0.950 . S
C1852 C1851 1.414 . S
C1852 C1853 1.374 . S
C1853 H1833 0.950 . S
C1853 C1849 1.385 . S
C1853 C1852 1.374 . S
C1854 C1851 1.499 . S
C1854 C1855 1.373 . S
C1854 C1856 1.389 . S
C1855 H1834 0.950 . S
C1855 C1854 1.373 . S
C1855 C1871 1.377 1_545 S
C1856 C1854 1.389 . S
C1856 C1857 1.524 . S
C1856 C1870 1.377 1_545 S
C1857 C1856 1.524 . S
C1857 C1858 1.397 . S
C1857 C1862 1.363 . S
C1858 H1835 0.930 1_545 S
C1858 C1857 1.397 . S
C1858 C1859 1.334 . S
C1859 H1836 0.950 . S
C1859 C1858 1.334 . S
C1859 C1860 1.287 . S
C1860 C1859 1.287 . S
C1860 C1861 1.524 . S
C1860 H1879 0.913 . S
C1861 H1837 0.950 . S
C1861 C1860 1.524 . S
C1861 C1862 1.415 . S
C1862 H1838 0.950 . S
C1862 C1857 1.363 . S
C1862 C1861 1.415 . S
C1863 H1839 0.951 . S
C1863 C1864 1.366 . S
C1863 C1865 1.388 . S
C1864 C1863 1.366 . S
C1864 C1868 1.385 . S
C1865 H1840 0.951 . S
C1865 C1863 1.388 . S
C1865 C1866 1.366 . S
C1866 C1865 1.366 . S
C1866 C1867 1.414 . S
C1866 C1869 1.499 . S
C1867 H1841 0.950 . S
C1867 C1866 1.414 . S
C1867 C1868 1.374 . S
C1868 H1842 0.950 . S
C1868 C1864 1.385 . S
C1868 C1867 1.374 . S
C1869 C1866 1.499 . S
C1869 C1870 1.373 . S
C1869 C1871 1.389 . S
C1870 H1843 0.950 . S
C1870 C1856 1.377 1_565 S
C1870 C1869 1.373 . S
C1871 C1855 1.377 1_565 S
C1871 C1869 1.389 . S
C1871 C1872 1.524 . S
C1872 C1871 1.524 . S
C1872 C1873 1.397 . S
C1872 C1877 1.363 . S
C1873 H1844 0.929 1_565 S
C1873 C1872 1.397 . S
C1873 C1874 1.334 . S
C1874 H1845 0.950 . S
C1874 C1873 1.334 . S
C1874 C1875 1.287 . S
C1875 C1874 1.287 . S
C1875 C1876 1.524 . S
C1875 H1878 0.999 . S
C1876 H1846 0.950 . S
C1876 C1875 1.524 . S
C1876 C1877 1.415 . S
C1877 H1847 0.950 . S
C1877 C1872 1.363 . S
C1877 C1876 1.415 . S
H1878 C1875 0.999 . S
H1879 C1860 0.913 . S
H1880 C1898 0.951 . S
H1881 C1900 0.951 . S
H1882 C1902 0.950 . S
H1883 C1903 0.950 . S
H1884 C1905 0.950 . S
H1885 C1908 0.950 . S
H1886 C1909 0.950 . S
H1887 C1911 0.950 . S
H1888 C1912 0.950 . S
H1889 C1913 0.951 . S
H1890 C1915 0.951 . S
H1891 C1917 0.950 . S
H1892 C1918 0.950 . S
H1893 C1920 0.950 . S
H1894 C1923 0.950 . S
H1895 C1924 0.950 . S
H1896 C1926 0.950 . S
H1897 C1927 0.950 . S
C1898 H1880 0.951 . S
C1898 C1899 1.366 . S
C1898 C1900 1.388 . S
C1899 C1898 1.366 . S
C1899 C1903 1.385 . S
C1900 H1881 0.951 . S
C1900 C1898 1.388 . S
C1900 C1901 1.366 . S
C1901 C1900 1.366 . S
C1901 C1902 1.414 . S
C1901 C1904 1.499 . S
C1902 H1882 0.950 . S
C1902 C1901 1.414 . S
C1902 C1903 1.374 . S
C1903 H1883 0.950 . S
C1903 C1899 1.385 . S
C1903 C1902 1.374 . S
C1904 C1901 1.499 . S
C1904 C1905 1.373 . S
C1904 C1906 1.389 . S
C1905 H1884 0.950 . S
C1905 C1904 1.373 . S
C1905 C1921 1.377 . S
C1906 C1904 1.389 . S
C1906 C1907 1.524 . S
C1906 C1920 1.377 . S
C1907 C1906 1.524 . S
C1907 C1908 1.397 . S
C1907 C1912 1.363 . S
C1908 H1885 0.950 . S
C1908 C1907 1.397 . S
C1908 C1909 1.334 . S
C1909 H1886 0.950 . S
C1909 C1908 1.334 . S
C1909 C1910 1.287 . S
C1910 C1909 1.287 . S
C1910 C1911 1.524 . S
C1910 H1929 0.913 . S
C1911 H1887 0.950 . S
C1911 C1910 1.524 . S
C1911 C1912 1.415 . S
C1912 H1888 0.950 . S
C1912 C1907 1.363 . S
C1912 C1911 1.415 . S
C1913 H1889 0.951 . S
C1913 C1914 1.366 . S
C1913 C1915 1.388 . S
C1914 C1913 1.366 . S
C1914 C1918 1.385 . S
C1915 H1890 0.951 . S
C1915 C1913 1.388 . S
C1915 C1916 1.366 . S
C1916 C1915 1.366 . S
C1916 C1917 1.414 . S
C1916 C1919 1.499 . S
C1917 H1891 0.950 . S
C1917 C1916 1.414 . S
C1917 C1918 1.374 . S
C1918 H1892 0.950 . S
C1918 C1914 1.385 . S
C1918 C1917 1.374 . S
C1919 C1916 1.499 . S
C1919 C1920 1.373 . S
C1919 C1921 1.389 . S
C1920 H1893 0.950 . S
C1920 C1906 1.377 . S
C1920 C1919 1.373 . S
C1921 C1905 1.377 . S
C1921 C1919 1.389 . S
C1921 C1922 1.524 . S
C1922 C1921 1.524 . S
C1922 C1923 1.397 . S
C1922 C1927 1.363 . S
C1923 H1894 0.950 . S
C1923 C1922 1.397 . S
C1923 C1924 1.334 . S
C1924 H1895 0.950 . S
C1924 C1923 1.334 . S
C1924 C1925 1.287 . S
C1925 C1924 1.287 . S
C1925 C1926 1.524 . S
C1925 H1928 0.999 . S
C1926 H1896 0.950 . S
C1926 C1925 1.524 . S
C1926 C1927 1.415 . S
C1927 H1897 0.950 . S
C1927 C1922 1.363 . S
C1927 C1926 1.415 . S
H1928 C1925 0.999 . S
H1929 C1910 0.913 . S
H1930 C1948 0.951 . S
H1931 C1950 0.951 . S
H1932 C1952 0.950 . S
H1933 C1953 0.950 . S
H1934 C1955 0.970 . S
H1935 C1958 0.950 . S
H1936 C1959 0.950 . S
H1937 C1961 0.950 . S
H1938 C1962 0.950 . S
H1939 C1963 0.951 . S
H1940 C1965 0.951 . S
H1941 C1967 0.950 . S
H1942 C1968 0.950 . S
H1943 C1970 0.971 . S
H1944 C1973 0.950 . S
H1945 C1974 0.950 . S
H1946 C1976 0.950 . S
H1947 C1977 0.950 . S
C1948 H1930 0.951 . S
C1948 C1949 1.366 . S
C1948 C1950 1.388 . S
C1949 C1948 1.366 . S
C1949 C1953 1.385 . S
C1950 H1931 0.951 . S
C1950 C1948 1.388 . S
C1950 C1951 1.366 . S
C1951 C1950 1.366 . S
C1951 C1952 1.414 . S
C1951 C1954 1.499 . S
C1952 H1932 0.950 . S
C1952 C1951 1.414 . S
C1952 C1953 1.374 . S
C1953 H1933 0.950 . S
C1953 C1949 1.385 . S
C1953 C1952 1.374 . S
C1954 C1951 1.499 . S
C1954 C1955 1.328 1_455 S
C1954 C1956 1.389 . S
C1955 H1934 0.970 . S
C1955 C1954 1.328 1_655 S
C1955 C1971 1.403 . S
C1956 C1954 1.389 . S
C1956 C1957 1.524 . S
C1956 C1970 1.405 . S
C1957 C1956 1.524 . S
C1957 C1958 1.397 . S
C1957 C1962 1.363 . S
C1958 H1935 0.950 . S
C1958 C1957 1.397 . S
C1958 C1959 1.334 . S
C1959 H1936 0.950 . S
C1959 C1958 1.334 . S
C1959 C1960 1.287 . S
C1960 C1959 1.287 . S
C1960 C1961 1.524 . S
C1960 H1979 0.913 . S
C1961 H1937 0.950 . S
C1961 C1960 1.524 . S
C1961 C1962 1.415 . S
C1962 H1938 0.950 . S
C1962 C1957 1.363 . S
C1962 C1961 1.415 . S
C1963 H1939 0.951 . S
C1963 C1964 1.366 . S
C1963 C1965 1.388 . S
C1964 C1963 1.366 . S
C1964 C1968 1.385 . S
C1965 H1940 0.951 . S
C1965 C1963 1.388 . S
C1965 C1966 1.366 . S
C1966 C1965 1.366 . S
C1966 C1967 1.414 . S
C1966 C1969 1.499 . S
C1967 H1941 0.950 . S
C1967 C1966 1.414 . S
C1967 C1968 1.374 . S
C1968 H1942 0.950 . S
C1968 C1964 1.385 . S
C1968 C1967 1.374 . S
C1969 C1966 1.499 . S
C1969 C1970 1.327 1_655 S
C1969 C1971 1.389 . S
C1970 H1943 0.971 . S
C1970 C1956 1.405 . S
C1970 C1969 1.327 1_455 S
C1971 C1955 1.403 . S
C1971 C1969 1.389 . S
C1971 C1972 1.524 . S
C1972 C1971 1.524 . S
C1972 C1973 1.397 . S
C1972 C1977 1.363 . S
C1973 H1944 0.950 . S
C1973 C1972 1.397 . S
C1973 C1974 1.334 . S
C1974 H1945 0.950 . S
C1974 C1973 1.334 . S
C1974 C1975 1.287 . S
C1975 C1974 1.287 . S
C1975 C1976 1.524 . S
C1975 H1978 0.999 . S
C1976 H1946 0.950 . S
C1976 C1975 1.524 . S
C1976 C1977 1.415 . S
C1977 H1947 0.950 . S
C1977 C1972 1.363 . S
C1977 C1976 1.415 . S
H1978 C1975 0.999 . S
H1979 C1960 0.913 . S
H1980 C1998 0.951 . S
H1981 C2000 0.951 . S
H1982 C2002 0.950 . S
H1983 C2003 0.950 . S
H1984 C2005 0.950 . S
H1985 C2008 0.950 . S
H1986 C2009 0.950 . S
H1987 C2011 0.950 . S
H1988 C2012 0.950 . S
H1989 C2013 0.951 . S
H1990 C2015 0.951 . S
H1991 C2017 0.950 . S
H1992 C2018 0.950 . S
H1993 C2020 0.950 . S
H1994 C2023 0.950 . S
H1995 C2024 0.950 . S
H1996 C2026 0.950 . S
H1997 C2027 0.950 . S
C1998 H1980 0.951 . S
C1998 C1999 1.366 . S
C1998 C2000 1.388 . S
C1999 C1998 1.366 . S
C1999 C2003 1.385 . S
C2000 H1981 0.951 . S
C2000 C1998 1.388 . S
C2000 C2001 1.366 . S
C2001 C2000 1.366 . S
C2001 C2002 1.414 . S
C2001 C2004 1.499 . S
C2002 H1982 0.950 . S
C2002 C2001 1.414 . S
C2002 C2003 1.374 . S
C2003 H1983 0.950 . S
C2003 C1999 1.385 . S
C2003 C2002 1.374 . S
C2004 C2001 1.499 . S
C2004 C2005 1.373 . S
C2004 C2006 1.389 . S
C2005 H1984 0.950 . S
C2005 C2004 1.373 . S
C2005 C2021 1.377 . S
C2006 C2004 1.389 . S
C2006 C2007 1.524 . S
C2006 C2020 1.377 . S
C2007 C2006 1.524 . S
C2007 C2008 1.397 . S
C2007 C2012 1.363 . S
C2008 H1985 0.950 . S
C2008 C2007 1.397 . S
C2008 C2009 1.334 . S
C2009 H1986 0.950 . S
C2009 C2008 1.334 . S
C2009 C2010 1.287 . S
C2010 C2009 1.287 . S
C2010 C2011 1.524 . S
C2010 H2029 0.913 . S
C2011 H1987 0.950 . S
C2011 C2010 1.524 . S
C2011 C2012 1.415 . S
C2012 H1988 0.950 . S
C2012 C2007 1.363 . S
C2012 C2011 1.415 . S
C2013 H1989 0.951 . S
C2013 C2014 1.366 . S
C2013 C2015 1.388 . S
C2014 C2013 1.366 . S
C2014 C2018 1.385 . S
C2015 H1990 0.951 . S
C2015 C2013 1.388 . S
C2015 C2016 1.366 . S
C2016 C2015 1.366 . S
C2016 C2017 1.414 . S
C2016 C2019 1.499 . S
C2017 H1991 0.950 . S
C2017 C2016 1.414 . S
C2017 C2018 1.374 . S
C2018 H1992 0.950 . S
C2018 C2014 1.385 . S
C2018 C2017 1.374 . S
C2019 C2016 1.499 . S
C2019 C2020 1.373 . S
C2019 C2021 1.389 . S
C2020 H1993 0.950 . S
C2020 C2006 1.377 . S
C2020 C2019 1.373 . S
C2021 C2005 1.377 . S
C2021 C2019 1.389 . S
C2021 C2022 1.524 . S
C2022 C2021 1.524 . S
C2022 C2023 1.397 . S
C2022 C2027 1.363 . S
C2023 H1994 0.950 . S
C2023 C2022 1.397 . S
C2023 C2024 1.334 . S
C2024 H1995 0.950 . S
C2024 C2023 1.334 . S
C2024 C2025 1.287 . S
C2025 C2024 1.287 . S
C2025 C2026 1.524 . S
C2025 H2028 0.999 . S
C2026 H1996 0.950 . S
C2026 C2025 1.524 . S
C2026 C2027 1.415 . S
C2027 H1997 0.950 . S
C2027 C2022 1.363 . S
C2027 C2026 1.415 . S
H2028 C2025 0.999 . S
H2029 C2010 0.913 . S
H2030 C2048 0.951 . S
H2031 C2050 0.951 . S
H2032 C2052 0.950 . S
H2033 C2053 0.950 . S
H2034 C2055 0.950 . S
H2035 C2058 0.950 . S
H2036 C2059 0.950 . S
H2037 C2061 0.950 . S
H2038 C2062 0.950 . S
H2039 C2063 0.951 . S
H2040 C2065 0.951 . S
H2041 C2067 0.950 . S
H2042 C2068 0.950 . S
H2043 C2070 0.950 . S
H2044 C2073 0.950 . S
H2045 C2074 0.950 . S
H2046 C2076 0.950 . S
H2047 C2077 0.950 . S
C2048 H2030 0.951 . S
C2048 C2049 1.366 . S
C2048 C2050 1.388 . S
C2049 C2048 1.366 . S
C2049 C2053 1.385 . S
C2050 H2031 0.951 . S
C2050 C2048 1.388 . S
C2050 C2051 1.366 . S
C2051 C2050 1.366 . S
C2051 C2052 1.414 . S
C2051 C2054 1.499 . S
C2052 H2032 0.950 . S
C2052 C2051 1.414 . S
C2052 C2053 1.374 . S
C2053 H2033 0.950 . S
C2053 C2049 1.385 . S
C2053 C2052 1.374 . S
C2054 C2051 1.499 . S
C2054 C2055 1.373 . S
C2054 C2056 1.389 . S
C2055 H2034 0.950 . S
C2055 C2054 1.373 . S
C2055 C2071 1.377 . S
C2056 C2054 1.389 . S
C2056 C2057 1.524 . S
C2056 C2070 1.377 . S
C2057 C2056 1.524 . S
C2057 C2058 1.397 . S
C2057 C2062 1.363 . S
C2058 H2035 0.950 . S
C2058 C2057 1.397 . S
C2058 C2059 1.334 . S
C2059 H2036 0.950 . S
C2059 C2058 1.334 . S
C2059 C2060 1.287 . S
C2060 C2059 1.287 . S
C2060 C2061 1.524 . S
C2060 H2079 0.913 . S
C2061 H2037 0.950 . S
C2061 C2060 1.524 . S
C2061 C2062 1.415 . S
C2062 H2038 0.950 . S
C2062 C2057 1.363 . S
C2062 C2061 1.415 . S
C2063 H2039 0.951 . S
C2063 C2064 1.366 . S
C2063 C2065 1.388 . S
C2064 C2063 1.366 . S
C2064 C2068 1.385 . S
C2065 H2040 0.951 . S
C2065 C2063 1.388 . S
C2065 C2066 1.366 . S
C2066 C2065 1.366 . S
C2066 C2067 1.414 . S
C2066 C2069 1.499 . S
C2067 H2041 0.950 . S
C2067 C2066 1.414 . S
C2067 C2068 1.374 . S
C2068 H2042 0.950 . S
C2068 C2064 1.385 . S
C2068 C2067 1.374 . S
C2069 C2066 1.499 . S
C2069 C2070 1.373 . S
C2069 C2071 1.389 . S
C2070 H2043 0.950 . S
C2070 C2056 1.377 . S
C2070 C2069 1.373 . S
C2071 C2055 1.377 . S
C2071 C2069 1.389 . S
C2071 C2072 1.524 . S
C2072 C2071 1.524 . S
C2072 C2073 1.397 . S
C2072 C2077 1.363 . S
C2073 H2044 0.950 . S
C2073 C2072 1.397 . S
C2073 C2074 1.334 . S
C2074 H2045 0.950 . S
C2074 C2073 1.334 . S
C2074 C2075 1.287 . S
C2075 C2074 1.287 . S
C2075 C2076 1.524 . S
C2075 H2078 0.999 . S
C2076 H2046 0.950 . S
C2076 C2075 1.524 . S
C2076 C2077 1.415 . S
C2077 H2047 0.950 . S
C2077 C2072 1.363 . S
C2077 C2076 1.415 . S
H2078 C2075 0.999 . S
H2079 C2060 0.913 . S
H2080 C2098 0.951 . S
H2081 C2100 0.951 . S
H2082 C2102 0.950 . S
H2083 C2103 0.950 . S
H2084 C2105 0.950 . S
H2085 C2108 0.950 . S
H2086 C2109 0.950 . S
H2087 C2111 0.950 . S
H2088 C2112 0.950 . S
H2089 C2113 0.951 . S
H2090 C2115 0.951 . S
H2091 C2117 0.950 . S
H2092 C2118 0.950 . S
H2093 C2120 0.950 . S
H2094 C2123 0.950 . S
H2095 C2124 0.950 . S
H2096 C2126 0.950 . S
H2097 C2127 0.950 . S
C2098 H2080 0.951 . S
C2098 C2099 1.366 . S
C2098 C2100 1.388 . S
C2099 C2098 1.366 . S
C2099 C2103 1.385 . S
C2100 H2081 0.951 . S
C2100 C2098 1.388 . S
C2100 C2101 1.366 . S
C2101 C2100 1.366 . S
C2101 C2102 1.414 . S
C2101 C2104 1.499 . S
C2102 H2082 0.950 . S
C2102 C2101 1.414 . S
C2102 C2103 1.374 . S
C2103 H2083 0.950 . S
C2103 C2099 1.385 . S
C2103 C2102 1.374 . S
C2104 C2101 1.499 . S
C2104 C2105 1.373 . S
C2104 C2106 1.389 . S
C2105 H2084 0.950 . S
C2105 C2104 1.373 . S
C2105 C2121 1.377 . S
C2106 C2104 1.389 . S
C2106 C2107 1.524 . S
C2106 C2120 1.377 . S
C2107 C2106 1.524 . S
C2107 C2108 1.397 . S
C2107 C2112 1.363 . S
C2108 H2085 0.950 . S
C2108 C2107 1.397 . S
C2108 C2109 1.334 . S
C2109 H2086 0.950 . S
C2109 C2108 1.334 . S
C2109 C2110 1.287 . S
C2110 C2109 1.287 . S
C2110 C2111 1.524 . S
C2110 H2129 0.913 . S
C2111 H2087 0.950 . S
C2111 C2110 1.524 . S
C2111 C2112 1.415 . S
C2112 H2088 0.950 . S
C2112 C2107 1.363 . S
C2112 C2111 1.415 . S
C2113 H2089 0.951 . S
C2113 C2114 1.366 . S
C2113 C2115 1.388 . S
C2114 C2113 1.366 . S
C2114 C2118 1.385 . S
C2115 H2090 0.951 . S
C2115 C2113 1.388 . S
C2115 C2116 1.366 . S
C2116 C2115 1.366 . S
C2116 C2117 1.414 . S
C2116 C2119 1.499 . S
C2117 H2091 0.950 . S
C2117 C2116 1.414 . S
C2117 C2118 1.374 . S
C2118 H2092 0.950 . S
C2118 C2114 1.385 . S
C2118 C2117 1.374 . S
C2119 C2116 1.499 . S
C2119 C2120 1.373 . S
C2119 C2121 1.389 . S
C2120 H2093 0.950 . S
C2120 C2106 1.377 . S
C2120 C2119 1.373 . S
C2121 C2105 1.377 . S
C2121 C2119 1.389 . S
C2121 C2122 1.524 . S
C2122 C2121 1.524 . S
C2122 C2123 1.397 . S
C2122 C2127 1.363 . S
C2123 H2094 0.950 . S
C2123 C2122 1.397 . S
C2123 C2124 1.334 . S
C2124 H2095 0.950 . S
C2124 C2123 1.334 . S
C2124 C2125 1.287 . S
C2125 C2124 1.287 . S
C2125 C2126 1.524 . S
C2125 H2128 0.999 . S
C2126 H2096 0.950 . S
C2126 C2125 1.524 . S
C2126 C2127 1.415 . S
C2127 H2097 0.950 . S
C2127 C2122 1.363 . S
C2127 C2126 1.415 . S
H2128 C2125 0.999 . S
H2129 C2110 0.913 . S
H2130 C2148 0.951 . S
H2131 C2150 0.951 . S
H2132 C2152 0.950 . S
H2133 C2153 0.950 . S
H2134 C2155 0.950 . S
H2135 C2158 0.950 . S
H2136 C2159 0.950 . S
H2137 C2161 0.950 . S
H2138 C2162 0.950 . S
H2139 C2163 0.951 . S
H2140 C2165 0.951 . S
H2141 C2167 0.950 . S
H2142 C2168 0.950 . S
H2143 C2170 0.950 . S
H2144 C2173 0.950 . S
H2145 C2174 0.950 . S
H2146 C2176 0.950 . S
H2147 C2177 0.950 . S
C2148 H2130 0.951 . S
C2148 C2149 1.366 . S
C2148 C2150 1.388 . S
C2149 C2148 1.366 . S
C2149 C2153 1.385 . S
C2150 H2131 0.951 . S
C2150 C2148 1.388 . S
C2150 C2151 1.366 . S
C2151 C2150 1.366 . S
C2151 C2152 1.414 . S
C2151 C2154 1.499 . S
C2152 H2132 0.950 . S
C2152 C2151 1.414 . S
C2152 C2153 1.374 . S
C2153 H2133 0.950 . S
C2153 C2149 1.385 . S
C2153 C2152 1.374 . S
C2154 C2151 1.499 . S
C2154 C2155 1.373 . S
C2154 C2156 1.389 . S
C2155 H2134 0.950 . S
C2155 C2154 1.373 . S
C2155 C2171 1.377 . S
C2156 C2154 1.389 . S
C2156 C2157 1.524 . S
C2156 C2170 1.377 . S
C2157 C2156 1.524 . S
C2157 C2158 1.397 . S
C2157 C2162 1.363 . S
C2158 H2135 0.950 . S
C2158 C2157 1.397 . S
C2158 C2159 1.334 . S
C2159 H2136 0.950 . S
C2159 C2158 1.334 . S
C2159 C2160 1.287 . S
C2160 C2159 1.287 . S
C2160 C2161 1.524 . S
C2160 H2179 0.913 . S
C2161 H2137 0.950 . S
C2161 C2160 1.524 . S
C2161 C2162 1.415 . S
C2162 H2138 0.950 . S
C2162 C2157 1.363 . S
C2162 C2161 1.415 . S
C2163 H2139 0.951 . S
C2163 C2164 1.366 . S
C2163 C2165 1.388 . S
C2164 C2163 1.366 . S
C2164 C2168 1.385 . S
C2165 H2140 0.951 . S
C2165 C2163 1.388 . S
C2165 C2166 1.366 . S
C2166 C2165 1.366 . S
C2166 C2167 1.414 . S
C2166 C2169 1.499 . S
C2167 H2141 0.950 . S
C2167 C2166 1.414 . S
C2167 C2168 1.374 . S
C2168 H2142 0.950 . S
C2168 C2164 1.385 . S
C2168 C2167 1.374 . S
C2169 C2166 1.499 . S
C2169 C2170 1.373 . S
C2169 C2171 1.389 . S
C2170 H2143 0.950 . S
C2170 C2156 1.377 . S
C2170 C2169 1.373 . S
C2171 C2155 1.377 . S
C2171 C2169 1.389 . S
C2171 C2172 1.524 . S
C2172 C2171 1.524 . S
C2172 C2173 1.397 . S
C2172 C2177 1.363 . S
C2173 H2144 0.950 . S
C2173 C2172 1.397 . S
C2173 C2174 1.334 . S
C2174 H2145 0.950 . S
C2174 C2173 1.334 . S
C2174 C2175 1.287 . S
C2175 C2174 1.287 . S
C2175 C2176 1.524 . S
C2175 H2178 0.999 . S
C2176 H2146 0.950 . S
C2176 C2175 1.524 . S
C2176 C2177 1.415 . S
C2177 H2147 0.950 . S
C2177 C2172 1.363 . S
C2177 C2176 1.415 . S
H2178 C2175 0.999 . S
H2179 C2160 0.913 . S
H2180 C2198 0.951 . S
H2181 C2200 0.951 . S
H2182 C2202 0.950 . S
H2183 C2203 0.950 . S
H2184 C2205 0.950 . S
H2185 C2208 0.950 . S
H2186 C2209 0.950 . S
H2187 C2211 0.950 . S
H2188 C2212 0.950 . S
H2189 C2213 0.951 . S
H2190 C2215 0.951 . S
H2191 C2217 0.950 . S
H2192 C2218 0.950 . S
H2193 C2220 0.950 . S
H2194 C2223 0.950 . S
H2195 C2224 0.950 . S
H2196 C2226 0.950 . S
H2197 C2227 0.950 . S
C2198 H2180 0.951 . S
C2198 C2199 1.366 . S
C2198 C2200 1.388 . S
C2199 C2198 1.366 . S
C2199 C2203 1.385 . S
C2200 H2181 0.951 . S
C2200 C2198 1.388 . S
C2200 C2201 1.366 . S
C2201 C2200 1.366 . S
C2201 C2202 1.414 . S
C2201 C2204 1.499 . S
C2202 H2182 0.950 . S
C2202 C2201 1.414 . S
C2202 C2203 1.374 . S
C2203 H2183 0.950 . S
C2203 C2199 1.385 . S
C2203 C2202 1.374 . S
C2204 C2201 1.499 . S
C2204 C2205 1.373 . S
C2204 C2206 1.389 . S
C2205 H2184 0.950 . S
C2205 C2204 1.373 . S
C2205 C2221 1.377 . S
C2206 C2204 1.389 . S
C2206 C2207 1.524 . S
C2206 C2220 1.377 . S
C2207 C2206 1.524 . S
C2207 C2208 1.397 . S
C2207 C2212 1.363 . S
C2208 H2185 0.950 . S
C2208 C2207 1.397 . S
C2208 C2209 1.334 . S
C2209 H2186 0.950 . S
C2209 C2208 1.334 . S
C2209 C2210 1.287 . S
C2210 C2209 1.287 . S
C2210 C2211 1.524 . S
C2210 H2229 0.913 . S
C2211 H2187 0.950 . S
C2211 C2210 1.524 . S
C2211 C2212 1.415 . S
C2212 H2188 0.950 . S
C2212 C2207 1.363 . S
C2212 C2211 1.415 . S
C2213 H2189 0.951 . S
C2213 C2214 1.366 . S
C2213 C2215 1.388 . S
C2214 C2213 1.366 . S
C2214 C2218 1.385 . S
C2215 H2190 0.951 . S
C2215 C2213 1.388 . S
C2215 C2216 1.366 . S
C2216 C2215 1.366 . S
C2216 C2217 1.414 . S
C2216 C2219 1.499 . S
C2217 H2191 0.950 . S
C2217 C2216 1.414 . S
C2217 C2218 1.374 . S
C2218 H2192 0.950 . S
C2218 C2214 1.385 . S
C2218 C2217 1.374 . S
C2219 C2216 1.499 . S
C2219 C2220 1.373 . S
C2219 C2221 1.389 . S
C2220 H2193 0.950 . S
C2220 C2206 1.377 . S
C2220 C2219 1.373 . S
C2221 C2205 1.377 . S
C2221 C2219 1.389 . S
C2221 C2222 1.524 . S
C2222 C2221 1.524 . S
C2222 C2223 1.397 . S
C2222 C2227 1.363 . S
C2223 H2194 0.950 . S
C2223 C2222 1.397 . S
C2223 C2224 1.334 . S
C2224 H2195 0.950 . S
C2224 C2223 1.334 . S
C2224 C2225 1.287 . S
C2225 C2224 1.287 . S
C2225 C2226 1.524 . S
C2225 H2228 0.999 . S
C2226 H2196 0.950 . S
C2226 C2225 1.524 . S
C2226 C2227 1.415 . S
C2227 H2197 0.950 . S
C2227 C2222 1.363 . S
C2227 C2226 1.415 . S
H2228 C2225 0.999 . S
H2229 C2210 0.913 . S
H2230 C2248 0.951 . S
H2231 C2250 0.951 . S
H2232 C2252 0.950 . S
H2233 C2253 0.950 . S
H2234 C2255 0.950 . S
H2235 C2258 0.950 . S
H2236 C2259 0.950 . S
H2237 C2261 0.950 . S
H2238 C2262 0.950 . S
H2239 C2263 0.951 . S
H2240 C2265 0.951 . S
H2241 C2267 0.950 . S
H2242 C2268 0.950 . S
H2243 C2270 0.950 . S
H2244 C2273 0.950 . S
H2245 C2274 0.950 . S
H2246 C2276 0.950 . S
H2247 C2277 0.950 . S
C2248 H2230 0.951 . S
C2248 C2249 1.366 . S
C2248 C2250 1.388 . S
C2249 C2248 1.366 . S
C2249 C2253 1.385 . S
C2250 H2231 0.951 . S
C2250 C2248 1.388 . S
C2250 C2251 1.366 . S
C2251 C2250 1.366 . S
C2251 C2252 1.414 . S
C2251 C2254 1.499 . S
C2252 H2232 0.950 . S
C2252 C2251 1.414 . S
C2252 C2253 1.374 . S
C2253 H2233 0.950 . S
C2253 C2249 1.385 . S
C2253 C2252 1.374 . S
C2254 C2251 1.499 . S
C2254 C2255 1.373 . S
C2254 C2256 1.389 . S
C2255 H2234 0.950 . S
C2255 C2254 1.373 . S
C2255 C2271 1.377 . S
C2256 C2254 1.389 . S
C2256 C2257 1.524 . S
C2256 C2270 1.377 . S
C2257 C2256 1.524 . S
C2257 C2258 1.397 . S
C2257 C2262 1.363 . S
C2258 H2235 0.950 . S
C2258 C2257 1.397 . S
C2258 C2259 1.334 . S
C2259 H2236 0.950 . S
C2259 C2258 1.334 . S
C2259 C2260 1.287 . S
C2260 C2259 1.287 . S
C2260 C2261 1.524 . S
C2260 H2279 0.913 . S
C2261 H2237 0.950 . S
C2261 C2260 1.524 . S
C2261 C2262 1.415 . S
C2262 H2238 0.950 . S
C2262 C2257 1.363 . S
C2262 C2261 1.415 . S
C2263 H2239 0.951 . S
C2263 C2264 1.366 . S
C2263 C2265 1.388 . S
C2264 C2263 1.366 . S
C2264 C2268 1.385 . S
C2265 H2240 0.951 . S
C2265 C2263 1.388 . S
C2265 C2266 1.366 . S
C2266 C2265 1.366 . S
C2266 C2267 1.414 . S
C2266 C2269 1.499 . S
C2267 H2241 0.950 . S
C2267 C2266 1.414 . S
C2267 C2268 1.374 . S
C2268 H2242 0.950 . S
C2268 C2264 1.385 . S
C2268 C2267 1.374 . S
C2269 C2266 1.499 . S
C2269 C2270 1.373 . S
C2269 C2271 1.389 . S
C2270 H2243 0.950 . S
C2270 C2256 1.377 . S
C2270 C2269 1.373 . S
C2271 C2255 1.377 . S
C2271 C2269 1.389 . S
C2271 C2272 1.524 . S
C2272 C2271 1.524 . S
C2272 C2273 1.397 . S
C2272 C2277 1.363 . S
C2273 H2244 0.950 . S
C2273 C2272 1.397 . S
C2273 C2274 1.334 . S
C2274 H2245 0.950 . S
C2274 C2273 1.334 . S
C2274 C2275 1.287 . S
C2275 C2274 1.287 . S
C2275 C2276 1.524 . S
C2275 H2278 0.999 . S
C2276 H2246 0.950 . S
C2276 C2275 1.524 . S
C2276 C2277 1.415 . S
C2277 H2247 0.950 . S
C2277 C2272 1.363 . S
C2277 C2276 1.415 . S
H2278 C2275 0.999 . S
H2279 C2260 0.913 . S
C499 C9 0.963 . S
C514 C329 0.963 . S
C549 C49 0.963 . S
C564 C369 0.964 . S
C599 C89 0.962 . S
C614 C409 0.963 . S
C649 C449 0.963 . S
C664 C129 0.963 . S
C699 C169 0.962 . S
C714 C249 0.963 . S
C749 C289 0.962 . S
C764 C209 0.962 . S
C799 C415 1.612 . S
C814 C15 1.611 . S
C849 C455 1.611 . S
C864 C55 1.611 . S
C899 C95 1.611 . S
C914 C255 1.611 . S
C949 C295 1.611 . S
C964 C135 1.611 . S
C999 C335 1.612 . S
C1014 C175 1.611 . S
C1049 C215 1.611 . S
C1064 C375 1.611 . S
C1099 C299 4.176 . S
C1114 C19 4.176 . S
C1149 C339 4.176 . S
C1164 C59 4.176 . S
C1199 C379 4.177 . S
C1214 C99 4.176 . S
C1249 C139 4.176 . S
C1264 C419 4.177 . S
C1299 C179 4.177 . S
C1314 C459 4.176 . S
C1349 C219 4.176 . S
C1364 C259 4.176 . S
C1399 C18 0.840 . S
C1414 C138 0.839 . S
C1449 C58 0.842 . S
C1464 C178 0.841 . S
C1499 C98 0.841 . S
C1514 C218 0.840 . S
C1549 C378 0.840 . S
C1564 C258 0.841 . S
C1599 C298 0.841 . S
C1614 C418 0.840 . S
C1649 C458 0.840 . S
C1664 C338 0.839 . S
C1699 C286 0.774 . S
C1714 C6 0.773 . S
C1749 C326 0.773 . S
C1764 C46 0.774 . S
C1799 C86 0.773 . S
C1814 C366 0.774 . S
C1849 C406 0.774 . S
C1864 C126 0.773 . S
C1899 C446 0.774 . S
C1914 C166 0.772 . S
C1949 C206 0.774 . S
C1964 C246 0.773 . S
C1999 C10 4.760 . S
C2014 C410 4.760 . S
C2049 C50 4.760 . S
C2064 C450 4.760 1_556 S
C2099 C90 4.760 1_554 S
C2114 C250 4.760 . S
C2149 C130 4.760 . S
C2164 C290 4.760 . S
C2199 C170 4.760 . S
C2214 C330 4.760 1_556 S
C2249 C370 4.760 . S
C2264 C210 4.760 1_554 S
