# Generated by pormake.
# Topology snk, (6)-cn, num edge types: 1
# Building blocks:
#     Node 0, Type 0, BuildingBlock: LEVNOQ01_clean_sbu_1, # of connection points: 6
#     Node 1, Type 0, BuildingBlock: LEVNOQ01_clean_sbu_1, # of connection points: 6
#     Node 2, Type 0, BuildingBlock: LEVNOQ01_clean_sbu_1, # of connection points: 6
#     Node 3, Type 0, BuildingBlock: LEVNOQ01_clean_sbu_1, # of connection points: 6
#     Node 4, Type 0, BuildingBlock: LEVNOQ01_clean_sbu_1, # of connection points: 6
#     Node 5, Type 0, BuildingBlock: LEVNOQ01_clean_sbu_1, # of connection points: 6
#     Node 6, Type 0, BuildingBlock: LEVNOQ01_clean_sbu_1, # of connection points: 6
#     Node 7, Type 0, BuildingBlock: LEVNOQ01_clean_sbu_1, # of connection points: 6
#     Edge 8, Type (0, 0), BuildingBlock: XIVTED_clean_linker_0, # of connection points: 2
#     Edge 9, Type (0, 0), BuildingBlock: XIVTED_clean_linker_0, # of connection points: 2
#     Edge 10, Type (0, 0), BuildingBlock: XIVTED_clean_linker_0, # of connection points: 2
#     Edge 11, Type (0, 0), BuildingBlock: XIVTED_clean_linker_0, # of connection points: 2
#     Edge 12, Type (0, 0), BuildingBlock: XIVTED_clean_linker_0, # of connection points: 2
#     Edge 13, Type (0, 0), BuildingBlock: XIVTED_clean_linker_0, # of connection points: 2
#     Edge 14, Type (0, 0), BuildingBlock: XIVTED_clean_linker_0, # of connection points: 2
#     Edge 15, Type (0, 0), BuildingBlock: XIVTED_clean_linker_0, # of connection points: 2
#     Edge 16, Type (0, 0), BuildingBlock: XIVTED_clean_linker_0, # of connection points: 2
#     Edge 17, Type (0, 0), BuildingBlock: XIVTED_clean_linker_0, # of connection points: 2
#     Edge 18, Type (0, 0), BuildingBlock: XIVTED_clean_linker_0, # of connection points: 2
#     Edge 19, Type (0, 0), BuildingBlock: XIVTED_clean_linker_0, # of connection points: 2
#     Edge 20, Type (0, 0), BuildingBlock: XIVTED_clean_linker_0, # of connection points: 2
#     Edge 21, Type (0, 0), BuildingBlock: XIVTED_clean_linker_0, # of connection points: 2
#     Edge 22, Type (0, 0), BuildingBlock: XIVTED_clean_linker_0, # of connection points: 2
#     Edge 23, Type (0, 0), BuildingBlock: XIVTED_clean_linker_0, # of connection points: 2
#     Edge 24, Type (0, 0), BuildingBlock: XIVTED_clean_linker_0, # of connection points: 2
#     Edge 25, Type (0, 0), BuildingBlock: XIVTED_clean_linker_0, # of connection points: 2
#     Edge 26, Type (0, 0), BuildingBlock: XIVTED_clean_linker_0, # of connection points: 2
#     Edge 27, Type (0, 0), BuildingBlock: XIVTED_clean_linker_0, # of connection points: 2
#     Edge 28, Type (0, 0), BuildingBlock: XIVTED_clean_linker_0, # of connection points: 2
#     Edge 29, Type (0, 0), BuildingBlock: XIVTED_clean_linker_0, # of connection points: 2
#     Edge 30, Type (0, 0), BuildingBlock: XIVTED_clean_linker_0, # of connection points: 2
#     Edge 31, Type (0, 0), BuildingBlock: XIVTED_clean_linker_0, # of connection points: 2
# Relax obj value: 0.027
# Max RMSD: 0.082
# Mean RMSD: 0.077
data_MOF--net-snk--node1-LEVNOQ01_clean_sbu_1--edge1-XIVTED_clean_linker_0
_symmetry_space_group_name_H-M    P1
_symmetry_Int_Tables_number       1
_symmetry_cell_setting            triclinic
loop_
_symmetry_equiv_pos_as_xyz
'x, y, z'
_cell_length_a     42.820477
_cell_length_b     42.895317
_cell_length_c     15.949995
_cell_angle_alpha  90.957699
_cell_angle_beta   91.190538
_cell_angle_gamma 89.631167
loop_
_atom_site_label
_atom_site_type_symbol
_atom_site_fract_x
_atom_site_fract_y
_atom_site_fract_z
_atom_type_partial_charge
O0 O 0.05882 0.00252 0.34742 0.0
Mg1 Mg 0.07839 0.00058 0.47101 0.0
O2 O 0.00899 0.99457 0.37598 0.0
Mg3 Mg 0.0049 0.00197 0.51753 0.0
O4 O 0.05047 0.97672 0.54937 0.0
O5 O 0.09287 0.95527 0.49844 0.0
O6 O 0.00046 0.01066 0.65971 0.0
O7 O 0.98067 0.95363 0.5277 0.0
Mg8 Mg 0.93218 0.00932 0.57339 0.0
O9 O 0.95998 0.02869 0.48728 0.0
O10 O 0.95127 0.02072 0.69349 0.0
O11 O 0.9297 0.96123 0.5456 0.0
O12 O 0.91028 0.04244 0.49872 0.0
C13 C 0.05631 0.06191 0.51997 0.0
C14 C 0.03072 0.998 0.32363 0.0
C15 C 0.06703 0.95192 0.53695 0.0
C16 C 0.97997 0.01781 0.71387 0.0
C17 C 0.95298 0.9433 0.53449 0.0
C18 C 0.93671 0.04587 0.46294 0.0
O19 O 0.08017 0.0447 0.53261 0.0
O20 O 0.02944 0.04997 0.50529 0.0
O21 O 0.23738 0.80022 0.57737 0.0
Mg22 Mg 0.24863 0.80992 0.70586 0.0
O23 O 0.25294 0.75194 0.5967 0.0
Mg24 Mg 0.25105 0.75254 0.7388 0.0
O25 O 0.29003 0.79253 0.7525 0.0
O26 O 0.28285 0.84125 0.70482 0.0
O27 O 0.24915 0.75113 0.88176 0.0
O28 O 0.2978 0.72275 0.74369 0.0
Mg29 Mg 0.24662 0.68476 0.78015 0.0
O30 O 0.21486 0.71328 0.7249 0.0
O31 O 0.25281 0.7004 0.90693 0.0
O32 O 0.28489 0.67553 0.70292 0.0
O33 O 0.20577 0.66299 0.74896 0.0
C34 C 0.19318 0.80521 0.7692 0.0
C35 C 0.24432 0.77355 0.54787 0.0
C36 C 0.30083 0.82014 0.73661 0.0
C37 C 0.25128 0.72859 0.93279 0.0
C38 C 0.30576 0.69554 0.71804 0.0
C39 C 0.19645 0.68947 0.72027 0.0
O40 O 0.21389 0.82472 0.78976 0.0
O41 O 0.20191 0.77949 0.73585 0.0
O42 O 0.44973 0.994 0.1864 0.0
Mg43 Mg 0.43293 0.99467 0.06134 0.0
O44 O 0.49857 0.00447 0.15321 0.0
Mg45 Mg 0.50289 0.00511 0.00926 0.0
O46 O 0.46299 0.97013 0.98765 0.0
O47 O 0.41427 0.95476 0.01033 0.0
O48 O 0.50907 0.00475 0.8677 0.0
O49 O 0.53313 0.95937 0.0181 0.0
Mg50 Mg 0.5734 0.01091 0.97611 0.0
O51 O 0.54216 0.04099 0.02818 0.0
O52 O 0.56027 0.00506 0.84677 0.0
O53 O 0.58174 0.97145 0.05004 0.0
O54 O 0.5926 0.05225 0.01546 0.0
C55 C 0.44289 0.05752 -0.00809 0.0
C56 C 0.47793 -0.00073 0.20767 0.0
C57 C 0.44073 0.95019 0.97484 0.0
C58 C 0.53225 0.00396 0.81876 0.0
C59 C 0.56064 0.95115 0.0411 0.0
C60 C 0.56496 0.06048 0.03798 0.0
O61 O 0.42195 0.03776 0.00682 0.0
O62 O 0.47184 0.05028 -0.00311 0.0
O63 O 0.27611 0.20324 0.43186 0.0
Mg64 Mg 0.26916 0.17665 0.32056 0.0
O65 O 0.25981 0.24952 0.38546 0.0
Mg66 Mg 0.25252 0.24567 0.24327 0.0
O67 O 0.28553 0.20461 0.23163 0.0
O68 O 0.30731 0.15875 0.25611 0.0
O69 O 0.24755 0.23721 0.09884 0.0
O70 O 0.2962 0.27532 0.22722 0.0
Mg71 Mg 0.23238 0.29038 0.14388 0.0
O72 O 0.21789 0.28861 0.26426 0.0
O73 O 0.20556 0.26263 0.06174 0.0
O74 O 0.27973 0.2996 0.11436 0.0
O75 O 0.20858 0.32864 0.17732 0.0
C76 C 0.20132 0.18743 0.27378 0.0
C77 C 0.26962 0.23189 0.44403 0.0
C78 C 0.30684 0.18427 0.21465 0.0
C79 C 0.22631 0.24286 0.04423 0.0
C80 C 0.30171 0.29208 0.16444 0.0
C81 C 0.20386 0.31491 0.2473 0.0
O82 O 0.22175 0.16647 0.28825 0.0
O83 O 0.20883 0.21568 0.26196 0.0
O84 O 0.74968 0.30068 0.08584 0.0
Mg85 Mg 0.75339 0.3137 0.21514 0.0
O86 O 0.75197 0.24992 0.11034 0.0
Mg87 Mg 0.75165 0.24497 0.25258 0.0
O88 O 0.78612 0.28621 0.27288 0.0
O89 O 0.79204 0.33745 0.2538 0.0
O90 O 0.75029 0.23978 0.39536 0.0
O91 O 0.79825 0.21517 0.24589 0.0
Mg92 Mg 0.74258 0.17161 0.30088 0.0
O93 O 0.71941 0.20403 0.23304 0.0
O94 O 0.74214 0.19001 0.42584 0.0
O95 O 0.78655 0.16474 0.24628 0.0
O96 O 0.70138 0.15616 0.24273 0.0
C97 C 0.69374 0.2996 0.27654 0.0
C98 C 0.75033 0.27255 0.05964 0.0
C99 C 0.80291 0.31125 0.28062 0.0
C100 C 0.74605 0.21834 0.44843 0.0
C101 C 0.80617 0.18645 0.23811 0.0
C102 C 0.69771 0.18414 0.21595 0.0
O103 O 0.71262 0.32201 0.28327 0.0
O104 O 0.70382 0.27244 0.25722 0.0
O105 O 0.78552 0.7165 0.93767 0.0
Mg106 Mg 0.77607 0.68751 0.8328 0.0
O107 O 0.76047 0.75814 0.8881 0.0
Mg108 Mg 0.75232 0.75154 0.74457 0.0
O109 O 0.78788 0.71239 0.73238 0.0
O110 O 0.81231 0.6684 0.76541 0.0
O111 O 0.74711 0.74144 0.59911 0.0
O112 O 0.79397 0.78373 0.72244 0.0
Mg113 Mg 0.72787 0.79314 0.64271 0.0
O114 O 0.7148 0.79227 0.76443 0.0
O115 O 0.70252 0.76246 0.56457 0.0
O116 O 0.77427 0.80479 0.60826 0.0
O117 O 0.70124 0.82985 0.67309 0.0
C118 C 0.70667 0.69066 0.79196 0.0
C119 C 0.77449 0.74381 0.94763 0.0
C120 C 0.80941 0.69203 0.71692 0.0
C121 C 0.7251 0.74511 0.54517 0.0
C122 C 0.79748 0.7994 0.65646 0.0
C123 C 0.69844 0.81701 0.74518 0.0
O124 O 0.72913 0.6731 0.81489 0.0
O125 O 0.71096 0.71857 0.76871 0.0
O126 O 0.55328 0.50173 0.84341 0.0
Mg127 Mg 0.57016 0.49015 0.96441 0.0
O128 O 0.50493 0.48646 0.8628 0.0
Mg129 Mg 0.5049 0.49413 0.0049 0.0
O130 O 0.54537 0.46029 0.03721 0.0
O131 O 0.58707 0.44531 0.96499 0.0
O132 O 0.5092 0.4998 0.15169 0.0
O133 O 0.47566 0.44964 0.013 0.0
Mg134 Mg 0.45948 0.51254 0.08885 0.0
O135 O 0.46195 0.52812 0.96897 0.0
O136 O 0.48158 0.54145 0.17839 0.0
O137 O 0.45049 0.46577 0.12361 0.0
O138 O 0.41983 0.5328 0.05054 0.0
C139 C 0.56143 0.54937 0.01646 0.0
C140 C 0.52622 0.49559 0.81498 0.0
C141 C 0.56435 0.43847 0.013 0.0
C142 C 0.50142 0.52159 0.20221 0.0
C143 C 0.4586 0.44384 0.07478 0.0
C144 C 0.43421 0.53963 0.98308 0.0
O145 O 0.58258 0.52989 0.03637 0.0
O146 O 0.53436 0.53964 -0.00596 0.0
O147 O 0.94799 0.49012 0.68568 0.0
Mg148 Mg 0.93114 0.49119 0.55961 0.0
O149 O 0.99778 0.49624 0.65418 0.0
Mg150 Mg 0.0014 0.49978 0.51117 0.0
O151 O 0.96082 0.46573 0.48669 0.0
O152 O 0.91131 0.45223 0.50571 0.0
O153 O 0.0067 0.50324 0.36967 0.0
O154 O 0.03071 0.45331 0.50997 0.0
Mg155 Mg 0.07137 0.50416 0.47861 0.0
O156 O 0.04124 0.53465 0.53315 0.0
O157 O 0.05781 0.49987 0.34881 0.0
O158 O 0.0785 0.46433 0.55181 0.0
O159 O 0.09195 0.5446 0.51989 0.0
C160 C 0.94295 0.55442 0.50289 0.0
C161 C 0.97652 0.49277 0.70794 0.0
C162 C 0.93803 0.44649 0.47275 0.0
C163 C 0.02984 0.50179 0.3206 0.0
C164 C 0.05764 0.44434 0.53575 0.0
C165 C 0.06465 0.55329 0.54413 0.0
O166 O 0.92101 0.53499 0.50828 0.0
O167 O 0.97147 0.54588 0.51018 0.0
H168 H 0.09234 0.10665 0.59673 0.0
H169 H 0.16786 0.13841 0.21011 0.0
H170 H 0.03596 0.0874 0.37505 0.0
H171 H 0.16183 0.21844 0.3762 0.0
H172 H 0.11895 0.11895 0.26658 0.0
H173 H 0.1172 0.14943 0.5234 0.0
C174 C 0.08427 0.11237 0.53398 0.0
C175 C 0.06221 0.09364 0.49166 0.0
C176 C 0.12778 0.14134 0.28839 0.0
C177 C 0.0914 0.14101 0.40681 0.0
C178 C 0.1556 0.15232 0.25641 0.0
C179 C 0.16859 0.17995 0.2887 0.0
C180 C 0.1139 0.15744 0.35545 0.0
C181 C 0.15224 0.19708 0.34955 0.0
C182 C 0.09844 0.13664 0.49216 0.0
C183 C 0.05282 0.10153 0.4098 0.0
N184 N 0.12619 0.18497 0.38336 0.0
N185 N 0.0684 0.12389 0.36861 0.0
H186 H 0.06598 0.89304 0.47462 0.0
H187 H 0.16395 0.8497 0.86417 0.0
H188 H 0.06265 0.94578 0.70626 0.0
H189 H 0.1481 0.78599 0.65591 0.0
H190 H 0.1165 0.8781 0.82418 0.0
H191 H 0.0835 0.84736 0.55195 0.0
C192 C 0.06757 0.89451 0.54248 0.0
C193 C 0.06315 0.92314 0.58425 0.0
C194 C 0.12283 0.85744 0.78836 0.0
C195 C 0.08489 0.87155 0.67294 0.0
C196 C 0.14996 0.84119 0.81132 0.0
C197 C 0.16037 0.81597 0.76204 0.0
C198 C 0.10652 0.84892 0.71419 0.0
C199 C 0.14116 0.80563 0.69497 0.0
C200 C 0.07789 0.86849 0.58673 0.0
C201 C 0.06585 0.92404 0.67191 0.0
N202 N 0.11565 0.8227 0.67149 0.0
N203 N 0.07754 0.89887 0.71323 0.0
H204 H 0.34191 0.79662 0.8555 0.0
H205 H 0.4428 0.94674 0.80513 0.0
H206 H 0.33508 0.8615 0.65214 0.0
H207 H 0.44296 0.89064 0.02623 0.0
H208 H 0.42077 0.90301 0.72406 0.0
H209 H 0.39326 0.81844 0.8945 0.0
C210 C 0.35152 0.81495 0.81811 0.0
C211 C 0.33389 0.82808 0.75251 0.0
C212 C 0.42676 0.89972 0.78964 0.0
C213 C 0.39229 0.85286 0.79582 0.0
C214 C 0.43984 0.92459 0.83548 0.0
C215 C 0.4442 0.92219 0.92224 0.0
C216 C 0.41745 0.87285 0.83191 0.0
C217 C 0.43951 0.89326 0.95925 0.0
C218 C 0.3808 0.82735 0.84011 0.0
C219 C 0.34752 0.85144 0.70506 0.0
N220 N 0.42547 0.86991 0.91443 0.0
N221 N 0.37563 0.86341 0.72843 0.0
H222 H 0.469 0.1102 0.06136 0.0
H223 H 0.29941 0.17805 0.04652 0.0
H224 H 0.39297 0.07848 0.90124 0.0
H225 H 0.36802 0.19691 0.24128 0.0
H226 H 0.34118 0.16157 0.95306 0.0
H227 H 0.44075 0.15937 0.08534 0.0
C228 C 0.44699 0.11416 0.02836 0.0
C229 C 0.43279 0.09011 0.98109 0.0
C230 C 0.34733 0.17056 0.01505 0.0
C231 C 0.40034 0.14576 0.00885 0.0
C232 C 0.32348 0.18043 0.06782 0.0
C233 C 0.33048 0.18877 0.15114 0.0
C234 C 0.37809 0.16815 0.04729 0.0
C235 C 0.36187 0.19049 0.1771 0.0
C236 C 0.43078 0.14213 0.04242 0.0
C237 C 0.40431 0.0963 0.93969 0.0
N238 N 0.38455 0.17944 0.12606 0.0
N239 N 0.38869 0.12326 0.95591 0.0
H240 H 0.96188 0.90692 0.66955 0.0
H241 H 0.81809 0.80957 0.49975 0.0
H242 H 0.9279 0.90562 0.41366 0.0
H243 H 0.84799 0.81281 0.75965 0.0
H244 H 0.86761 0.83225 0.46104 0.0
H245 H 0.93143 0.86007 0.69597 0.0
C246 C 0.94922 0.89574 0.61788 0.0
C247 C 0.94717 0.90988 0.53941 0.0
C248 C 0.86358 0.82779 0.52656 0.0
C249 C 0.91154 0.85739 0.56953 0.0
C250 C 0.83518 0.81509 0.54873 0.0
C251 C 0.82861 0.81035 0.63326 0.0
C252 C 0.88536 0.83654 0.5895 0.0
C253 C 0.85196 0.81679 0.69389 0.0
C254 C 0.93153 0.86927 0.63317 0.0
C255 C 0.93 0.89518 0.47488 0.0
N256 N 0.87911 0.83025 0.67102 0.0
N257 N 0.91233 0.87001 0.49176 0.0
H258 H 0.95281 0.10605 0.49097 0.0
H259 H 0.83127 0.14312 0.13327 0.0
H260 H 0.92263 0.04157 0.29676 0.0
H261 H 0.85524 0.20653 0.33633 0.0
H262 H 0.87937 0.11387 0.16108 0.0
H263 H 0.93313 0.14937 0.40637 0.0
C264 C 0.9435 0.10121 0.42844 0.0
C265 C 0.93927 0.07036 0.40044 0.0
C266 C 0.87471 0.13469 0.19818 0.0
C267 C 0.9155 0.11943 0.30502 0.0
C268 C 0.84735 0.15153 0.18178 0.0
C269 C 0.83923 0.17699 0.23319 0.0
C270 C 0.89354 0.1428 0.26829 0.0
C271 C 0.86073 0.18696 0.29534 0.0
C272 C 0.93189 0.12589 0.38056 0.0
C273 C 0.92642 0.06512 0.32012 0.0
N274 N 0.88651 0.16928 0.31286 0.0
N275 N 0.91436 0.08937 0.27592 0.0
H276 H 0.64598 0.20077 0.29861 0.0
H277 H 0.56063 0.10893 0.93388 0.0
H278 H 0.68052 0.18315 0.05077 0.0
H279 H 0.56174 0.08578 0.19541 0.0
H280 H 0.58062 0.16079 0.97085 0.0
H281 H 0.59369 0.18532 0.24958 0.0
C282 C 0.64208 0.19554 0.23252 0.0
C283 C 0.66743 0.19272 0.17865 0.0
C284 C 0.57489 0.14498 0.02045 0.0
C285 C 0.60824 0.17462 0.12299 0.0
C286 C 0.56329 0.1155 -0.00046 0.0
C287 C 0.56001 0.09318 0.06185 0.0
C288 C 0.5833 0.15183 0.1041 0.0
C289 C 0.56413 0.10246 0.14576 0.0
C290 C 0.61232 0.18649 0.20485 0.0
C291 C 0.66146 0.18545 0.09409 0.0
N292 N 0.57639 0.13096 0.16451 0.0
N293 N 0.63251 0.17582 0.06911 0.0
H294 H 0.64581 0.84769 0.69814 0.0
H295 H 0.60894 0.92111 0.1209 0.0
H296 H 0.69421 0.81237 0.91716 0.0
H297 H 0.53711 0.90792 0.93031 0.0
H298 H 0.63845 0.87771 0.05922 0.0
H299 H 0.60503 0.86848 0.7869 0.0
C300 C 0.64786 0.8443 0.76521 0.0
C301 C 0.67374 0.8288 0.80065 0.0
C302 C 0.6157 0.88358 0.0328 0.0
C303 C 0.62682 0.85252 0.90291 0.0
C304 C 0.59879 0.90824 0.06817 0.0
C305 C 0.57095 0.91855 0.02939 0.0
C306 C 0.60497 0.86992 0.95718 0.0
C307 C 0.55868 0.90099 0.96159 0.0
C308 C 0.62427 0.85578 0.81575 0.0
C309 C 0.67479 0.82455 0.8877 0.0
N310 N 0.57632 0.87819 0.92574 0.0
N311 N 0.65192 0.83701 0.9364 0.0
H312 H 0.5969 0.59306 0.10089 0.0
H313 H 0.676 0.64313 0.71246 0.0
H314 H 0.54981 0.57376 0.86437 0.0
H315 H 0.66755 0.71204 0.91041 0.0
H316 H 0.62991 0.61655 0.76496 0.0
H317 H 0.62328 0.6372 0.03658 0.0
C318 C 0.59153 0.59872 0.03622 0.0
C319 C 0.57128 0.58 0.98767 0.0
C320 C 0.63754 0.63807 0.79517 0.0
C321 C 0.60205 0.62898 0.91346 0.0
C322 C 0.66368 0.65316 0.76518 0.0
C323 C 0.67504 0.6798 0.80692 0.0
C324 C 0.62379 0.64906 0.86928 0.0
C325 C 0.65898 0.69168 0.87626 0.0
C326 C 0.60646 0.62378 -0.00036 0.0
C327 C 0.56519 0.5879 0.90382 0.0
N328 N 0.63457 0.67569 0.907 0.0
N329 N 0.58127 0.61125 0.86845 0.0
H330 H 0.66071 0.34396 0.36179 0.0
H331 H 0.57914 0.38093 0.95089 0.0
H332 H 0.65142 0.27424 0.16523 0.0
H333 H 0.55454 0.42934 0.17929 0.0
H334 H 0.59636 0.3362 0.03317 0.0
H335 H 0.61346 0.36959 0.30868 0.0
C336 C 0.648 0.3334 0.3093 0.0
C337 C 0.66027 0.30737 0.26681 0.0
C338 C 0.58641 0.35621 0.06543 0.0
C339 C 0.607 0.33725 0.20338 0.0
C340 C 0.57669 0.38175 0.01837 0.0
C341 C 0.56623 0.40898 0.05875 0.0
C342 C 0.58677 0.35852 0.15347 0.0
C343 C 0.56295 0.40884 0.14602 0.0
C344 C 0.62104 0.34809 0.27868 0.0
C345 C 0.64288 0.29451 0.1993 0.0
N346 N 0.57416 0.38436 0.19087 0.0
N347 N 0.61768 0.31021 0.16777 0.0
H348 H 0.93088 0.43463 0.30578 0.0
H349 H 0.8529 0.30683 0.18155 0.0
H350 H 0.94978 0.39085 0.54235 0.0
H351 H 0.8266 0.31724 0.43957 0.0
H352 H 0.90406 0.32942 0.2174 0.0
H353 H 0.9105 0.38529 0.24983 0.0
C354 C 0.93254 0.41406 0.34418 0.0
C355 C 0.94195 0.41658 0.42853 0.0
C356 C 0.88755 0.3256 0.26668 0.0
C357 C 0.91749 0.36058 0.36681 0.0
C358 C 0.85859 0.3124 0.24659 0.0
C359 C 0.83574 0.31034 0.30791 0.0
C360 C 0.89332 0.33691 0.3485 0.0
C361 C 0.84379 0.31835 0.39085 0.0
C362 C 0.92072 0.38585 0.31251 0.0
C363 C 0.94271 0.38959 0.47679 0.0
N364 N 0.87183 0.33187 0.40859 0.0
N365 N 0.92942 0.36294 0.44635 0.0
H366 H 0.86687 0.71776 0.7202 0.0
H367 H 0.9594 0.59789 0.61998 0.0
H368 H 0.80132 0.66823 0.56013 0.0
H369 H 0.90501 0.58483 0.39218 0.0
H370 H 0.93209 0.64695 0.64608 0.0
H371 H 0.90986 0.6956 0.63935 0.0
C372 C 0.86154 0.7034 0.66526 0.0
C373 C 0.83076 0.6943 0.64713 0.0
C374 C 0.92722 0.63448 0.58778 0.0
C375 C 0.87945 0.66723 0.55865 0.0
C376 C 0.94288 0.60634 0.57308 0.0
C377 C 0.93447 0.58762 0.50362 0.0
C378 C 0.90302 0.64384 0.53235 0.0
C379 C 0.91204 0.59882 0.44638 0.0
C380 C 0.88608 0.69015 0.62039 0.0
C381 C 0.8249 0.67555 0.57607 0.0
N382 N 0.89666 0.62598 0.46276 0.0
N383 N 0.84912 0.66187 0.53562 0.0
H384 H 0.34904 0.30081 0.28026 0.0
H385 H 0.44821 0.39738 0.95798 0.0
H386 H 0.32637 0.30931 0.01667 0.0
H387 H 0.44264 0.4186 0.22265 0.0
H388 H 0.41882 0.34933 0.9797 0.0
H389 H 0.3982 0.32825 0.25808 0.0
C390 C 0.3547 0.30793 0.21755 0.0
C391 C 0.33333 0.30378 0.15061 0.0
C392 C 0.42471 0.36423 0.03313 0.0
C393 C 0.38928 0.33445 0.12484 0.0
C394 C 0.4414 0.39155 0.02082 0.0
C395 C 0.44679 0.4123 0.08825 0.0
C396 C 0.41387 0.35771 0.11344 0.0
C397 C 0.43799 0.40357 0.16866 0.0
C398 C 0.38269 0.32347 0.20497 0.0
C399 C 0.34189 0.31296 0.07036 0.0
N400 N 0.42154 0.37708 0.17894 0.0
N401 N 0.3691 0.32824 0.05982 0.0
H402 H 0.45362 0.56034 0.82876 0.0
H403 H 0.34198 0.70769 0.85586 0.0
H404 H 0.38374 0.57572 0.01705 0.0
H405 H 0.33948 0.65353 0.62566 0.0
H406 H 0.38121 0.67168 0.91276 0.0
H407 H 0.4316 0.60514 0.75088 0.0
C408 C 0.43371 0.57291 0.85346 0.0
C409 C 0.42043 0.56414 0.92937 0.0
C410 C 0.37305 0.66857 0.84841 0.0
C411 C 0.3966 0.61562 0.84358 0.0
C412 C 0.35094 0.68927 0.81555 0.0
C413 C 0.33735 0.68333 0.73624 0.0
C414 C 0.38194 0.64227 0.80096 0.0
C415 C 0.34936 0.65866 0.68735 0.0
C416 C 0.42144 0.59846 0.8095 0.0
C417 C 0.3948 0.5814 0.95888 0.0
N418 N 0.37068 0.63855 0.72108 0.0
N419 N 0.38398 0.60641 0.91642 0.0
H420 H 0.17497 0.69147 0.55898 0.0
H421 H 0.06084 0.57581 0.70401 0.0
H422 H 0.14519 0.69076 0.81497 0.0
H423 H 0.06246 0.60364 0.44618 0.0
H424 H 0.07885 0.62768 0.74712 0.0
H425 H 0.12381 0.67185 0.51354 0.0
C426 C 0.15699 0.68868 0.60507 0.0
C427 C 0.16408 0.69217 0.69059 0.0
C428 C 0.074 0.62307 0.68119 0.0
C429 C 0.10633 0.66843 0.64038 0.0
C430 C 0.06346 0.59347 0.65689 0.0
C431 C 0.06063 0.58568 0.57171 0.0
C432 C 0.08278 0.64422 0.61937 0.0
C433 C 0.06473 0.60899 0.51263 0.0
C434 C 0.1278 0.67726 0.57944 0.0
C435 C 0.1404 0.68789 0.74835 0.0
N436 N 0.07658 0.63701 0.53729 0.0
N437 N 0.11278 0.67533 0.72252 0.0
H438 H 0.19191 0.30074 0.412 0.0
H439 H 0.03857 0.40629 0.40713 0.0
H440 H 0.15925 0.3573 0.20606 0.0
H441 H 0.10265 0.41087 0.61924 0.0
H442 H 0.07113 0.36559 0.34422 0.0
H443 H 0.14899 0.32208 0.49738 0.0
C444 C 0.17581 0.31751 0.38485 0.0
C445 C 0.17941 0.32761 0.30232 0.0
C446 C 0.0773 0.37466 0.40615 0.0
C447 C 0.13003 0.35053 0.39722 0.0
C448 C 0.05859 0.39763 0.44255 0.0
C449 C 0.06837 0.41231 0.51769 0.0
C450 C 0.10552 0.36609 0.44602 0.0
C451 C 0.0947 0.40035 0.56049 0.0
C452 C 0.15134 0.32938 0.43316 0.0
C453 C 0.1577 0.3491 0.26966 0.0
N454 N 0.11286 0.37825 0.52318 0.0
N455 N 0.13393 0.35971 0.31705 0.0
H456 H 0.03765 0.00648 0.78463 0.0
H457 H 0.97315 0.00716 0.25063 0.0
H458 H 0.94309 0.03218 0.84718 0.0
H459 H 0.07042 0.99384 0.19219 0.0
H460 H 0.96144 0.01507 0.10209 0.0
H461 H 0.05034 0.00209 0.9337 0.0
C462 C 0.01965 0.01161 0.82967 0.0
C463 C 0.98917 0.01943 0.80335 0.0
C464 C 0.98533 0.01033 0.12176 0.0
C465 C 0.00345 0.01403 0.97382 0.0
C466 C 0.99198 0.00553 0.20642 0.0
C467 C 0.02279 -0.00023 0.23364 0.0
C468 C 0.00964 0.00912 0.06401 0.0
C469 C 0.04634 0.99829 0.17383 0.0
C470 C 0.02689 0.00895 0.91477 0.0
C471 C 0.96682 0.02581 0.86456 0.0
N472 N 0.03926 0.00291 0.09172 0.0
N473 N 0.97436 0.02271 0.94699 0.0
H474 H 0.24878 0.8163 0.42409 0.0
H475 H 0.24317 0.68696 0.0578 0.0
H476 H 0.23893 0.71771 0.46579 0.0
H477 H 0.25759 0.78492 0.01436 0.0
H478 H 0.24043 0.69816 0.20752 0.0
H479 H 0.25063 0.80568 0.27319 0.0
C480 C 0.24668 0.79247 0.40125 0.0
C481 C 0.2437 0.76781 0.457 0.0
C482 C 0.24431 0.71721 0.16534 0.0
C483 C 0.24582 0.7555 0.28534 0.0
C484 C 0.24599 0.71083 0.07982 0.0
C485 C 0.2507 0.73506 0.0236 0.0
C486 C 0.24747 0.74804 0.19495 0.0
C487 C 0.25386 0.76556 0.05558 0.0
C488 C 0.24789 0.7864 0.31534 0.0
C489 C 0.24146 0.73733 0.42467 0.0
N490 N 0.25222 0.77119 0.13934 0.0
N491 N 0.24252 0.73203 0.34079 0.0
H492 H 0.572 0.01716 0.69177 0.0
H493 H 0.44487 0.97501 0.33477 0.0
H494 H 0.4787 0.98518 0.73922 0.0
H495 H 0.53181 0.02083 0.28359 0.0
H496 H 0.45965 0.97382 0.48264 0.0
H497 H 0.56023 0.01424 0.5409 0.0
C498 C 0.54914 0.00935 0.67041 0.0
C499 C 0.5262 0.00154 0.72786 0.0
C500 C 0.47549 0.98424 0.43922 0.0
C501 C 0.51272 0.99804 0.55636 0.0
C502 C 0.46702 0.985 0.35476 0.0
C503 C 0.48701 0.99835 0.29703 0.0
C504 C 0.50408 0.99708 0.46639 0.0
C505 C 0.51569 0.01041 0.32622 0.0
C506 C 0.54243 0.00777 0.5845 0.0
C507 C 0.49695 0.99167 0.69709 0.0
N508 N 0.52334 0.00964 0.40923 0.0
N509 N 0.49107 0.99019 0.61342 0.0
H510 H 0.28131 0.22459 0.97652 0.0
H511 H 0.22358 0.2663 0.5142 0.0
H512 H 0.18603 0.24919 0.91089 0.0
H513 H 0.31123 0.22024 0.56978 0.0
H514 H 0.21303 0.26913 0.66418 0.0
H515 H 0.29487 0.2277 0.82991 0.0
C516 C 0.26298 0.22961 0.93092 0.0
C517 C 0.23244 0.23645 0.95569 0.0
C518 C 0.23485 0.25895 0.64361 0.0
C519 C 0.24811 0.24135 0.78857 0.0
C520 C 0.24109 0.25787 0.55843 0.0
C521 C 0.26815 0.2428 0.53067 0.0
C522 C 0.256 0.24505 0.7003 0.0
C523 C 0.28998 0.23176 0.58957 0.0
C524 C 0.2709 0.23199 0.84741 0.0
C525 C 0.20986 0.24377 0.89417 0.0
N526 N 0.28327 0.23279 0.67205 0.0
N527 N 0.21823 0.24631 0.81317 0.0
H528 H 0.76384 0.31149 0.93148 0.0
H529 H 0.7259 0.18265 0.57655 0.0
H530 H 0.7329 0.21819 0.98224 0.0
H531 H 0.76408 0.27313 0.52461 0.0
H532 H 0.72536 0.19664 0.72516 0.0
H533 H 0.76144 0.29908 0.78129 0.0
C534 C 0.75641 0.28846 0.91091 0.0
C535 C 0.7487 0.26576 0.9691 0.0
C536 C 0.73392 0.21342 0.6813 0.0
C537 C 0.74576 0.25149 0.79811 0.0
C538 C 0.7343 0.20542 0.59645 0.0
C539 C 0.7453 0.22667 0.53826 0.0
C540 C 0.74475 0.24281 0.70821 0.0
C541 C 0.75546 0.25602 0.56742 0.0
C542 C 0.7551 0.28137 0.82534 0.0
C543 C 0.73937 0.23625 0.93939 0.0
N544 N 0.75506 0.26318 0.65056 0.0
N545 N 0.73812 0.22998 0.85586 0.0
H546 H 0.68471 0.75287 0.41247 0.0
H547 H 0.81778 0.73832 0.07329 0.0
H548 H 0.78056 0.72895 0.47384 0.0
H549 H 0.72503 0.77319 0.01859 0.0
H550 H 0.80611 0.7391 0.22246 0.0
H551 H 0.69919 0.75996 0.2671 0.0
C552 C 0.70867 0.74847 0.39502 0.0
C553 C 0.73149 0.74053 0.4555 0.0
C554 C 0.78847 0.74714 0.1781 0.0
C555 C 0.74836 0.74945 0.2899 0.0
C556 C 0.79529 0.74709 0.09323 0.0
C557 C 0.77216 0.75533 0.03413 0.0
C558 C 0.75816 0.75493 0.20328 0.0
C559 C 0.74345 0.76663 0.06253 0.0
C560 C 0.71702 0.75302 0.31231 0.0
C561 C 0.76217 0.73507 0.42936 0.0
N562 N 0.73695 0.76542 0.1453 0.0
N563 N 0.76977 0.73992 0.3485 0.0
H564 H 0.54541 0.5445 0.72643 0.0
H565 H 0.51048 0.46803 0.28719 0.0
H566 H 0.49199 0.45971 0.70427 0.0
H567 H 0.5052 0.56803 0.32039 0.0
H568 H 0.51277 0.46257 0.43958 0.0
H569 H 0.53826 0.55234 0.57587 0.0
C570 C 0.53204 0.52764 0.68956 0.0
C571 C 0.51945 0.5013 0.72666 0.0
C572 C 0.51125 0.48566 0.41317 0.0
C573 C 0.51191 0.50973 0.55578 0.0
C574 C 0.51049 0.48885 0.32665 0.0
C575 C 0.50798 0.51858 0.29188 0.0
C576 C 0.51026 0.5124 0.46456 0.0
C577 C 0.50734 0.54478 0.34535 0.0
C578 C 0.52791 0.53219 0.6042 0.0
C579 C 0.50206 0.48023 0.67716 0.0
N580 N 0.50872 0.5411 0.42959 0.0
N581 N 0.49922 0.4846 0.59324 0.0
H582 H 0.9371 0.49489 0.8399 0.0
H583 H 0.07096 0.4894 0.19416 0.0
H584 H 0.03514 0.49199 0.78109 0.0
H585 H 0.97493 0.51497 0.23926 0.0
H586 H 0.05897 0.48744 0.04329 0.0
H587 H 0.95111 0.4983 0.98812 0.0
C588 C 0.96161 0.49484 0.85814 0.0
C589 C 0.98498 0.49328 0.79797 0.0
C590 C 0.04064 0.49362 0.08642 0.0
C591 C 0.0012 0.49727 0.96797 0.0
C592 C 0.04743 0.49475 0.17238 0.0
C593 C 0.02379 0.50198 0.22937 0.0
C594 C 0.01002 0.49968 0.05774 0.0
C595 C 0.99377 0.50881 0.19779 0.0
C596 C 0.9696 0.49697 0.94288 0.0
C597 C 0.01637 0.49331 0.82547 0.0
N598 N 0.98774 0.50735 0.11417 0.0
N599 N 0.0236 0.49524 0.90874 0.0
loop_
_geom_bond_atom_site_label_1
_geom_bond_atom_site_label_2
_geom_bond_distance
_geom_bond_site_symmetry_2
_ccdc_geom_bond_type
O0 Mg1 1.990 . S
O0 C14 1.253 . S
Mg1 O0 1.990 . S
Mg1 O4 2.180 . S
Mg1 O5 2.117 . S
Mg1 O19 2.030 1_565 S
O2 Mg3 2.072 1_655 S
O2 C14 1.260 1_645 S
Mg3 O2 2.072 1_455 S
Mg3 O4 2.099 1_545 S
Mg3 O6 2.079 . S
Mg3 O7 2.072 1_445 S
Mg3 O9 2.099 1_455 S
Mg3 O20 2.079 . S
O4 Mg1 2.180 . S
O4 Mg3 2.099 1_565 S
O4 C15 1.279 . S
O5 Mg1 2.117 . S
O5 C15 1.250 . S
O6 Mg3 2.079 . S
O6 C16 1.264 1_455 S
O7 Mg3 2.072 1_665 S
O7 C17 1.260 . S
Mg8 O9 2.180 . S
Mg8 O10 2.030 . S
Mg8 O11 1.990 1_545 S
Mg8 O12 2.117 . S
O9 Mg3 2.099 1_655 S
O9 Mg8 2.180 . S
O9 C18 1.279 . S
O10 Mg8 2.030 . S
O10 C16 1.248 . S
O11 Mg8 1.990 1_565 S
O11 C17 1.253 . S
O12 Mg8 2.117 . S
O12 C18 1.250 . S
C13 O19 1.248 . S
C13 O20 1.264 . S
C14 O0 1.253 . S
C14 O2 1.260 1_465 S
C15 O4 1.279 . S
C15 O5 1.250 . S
C16 O6 1.264 1_655 S
C16 O10 1.248 . S
C17 O7 1.260 . S
C17 O11 1.253 . S
C18 O9 1.279 . S
C18 O12 1.250 . S
O19 Mg1 2.030 1_545 S
O19 C13 1.248 . S
O20 Mg3 2.079 . S
O20 C13 1.264 . S
O21 Mg22 1.990 . S
O21 C35 1.253 . S
Mg22 O21 1.990 . S
Mg22 O25 2.180 . S
Mg22 O26 2.117 . S
Mg22 O40 2.030 . S
O23 Mg24 2.072 . S
O23 C35 1.260 . S
Mg24 O23 2.072 . S
Mg24 O25 2.099 . S
Mg24 O27 2.079 . S
Mg24 O28 2.072 . S
Mg24 O30 2.099 . S
Mg24 O41 2.079 . S
O25 Mg22 2.180 . S
O25 Mg24 2.099 . S
O25 C36 1.279 . S
O26 Mg22 2.117 . S
O26 C36 1.250 . S
O27 Mg24 2.079 . S
O27 C37 1.264 . S
O28 Mg24 2.072 . S
O28 C38 1.260 . S
Mg29 O30 2.180 . S
Mg29 O31 2.030 . S
Mg29 O32 1.990 . S
Mg29 O33 2.117 . S
O30 Mg24 2.099 . S
O30 Mg29 2.180 . S
O30 C39 1.279 . S
O31 Mg29 2.030 . S
O31 C37 1.248 . S
O32 Mg29 1.990 . S
O32 C38 1.253 . S
O33 Mg29 2.117 . S
O33 C39 1.250 . S
C34 O40 1.248 . S
C34 O41 1.264 . S
C35 O21 1.253 . S
C35 O23 1.260 . S
C36 O25 1.279 . S
C36 O26 1.250 . S
C37 O27 1.264 . S
C37 O31 1.248 . S
C38 O28 1.260 . S
C38 O32 1.253 . S
C39 O30 1.279 . S
C39 O33 1.250 . S
O40 Mg22 2.030 . S
O40 C34 1.248 . S
O41 Mg24 2.079 . S
O41 C34 1.264 . S
O42 Mg43 1.990 . S
O42 C56 1.253 . S
Mg43 O42 1.990 . S
Mg43 O46 2.180 1_554 S
Mg43 O47 2.117 . S
Mg43 O61 2.030 1_565 S
O44 Mg45 2.072 1_554 S
O44 C56 1.260 1_545 S
Mg45 O44 2.072 1_556 S
Mg45 O46 2.099 1_545 S
Mg45 O48 2.079 . S
Mg45 O49 2.072 1_545 S
Mg45 O51 2.099 . S
Mg45 O62 2.079 1_556 S
O46 Mg43 2.180 1_556 S
O46 Mg45 2.099 1_565 S
O46 C57 1.279 . S
O47 Mg43 2.117 . S
O47 C57 1.250 1_554 S
O48 Mg45 2.079 . S
O48 C58 1.264 . S
O49 Mg45 2.072 1_565 S
O49 C59 1.260 . S
Mg50 O51 2.180 . S
Mg50 O52 2.030 . S
Mg50 O53 1.990 1_545 S
Mg50 O54 2.117 1_556 S
O51 Mg45 2.099 . S
O51 Mg50 2.180 . S
O51 C60 1.279 1_556 S
O52 Mg50 2.030 . S
O52 C58 1.248 . S
O53 Mg50 1.990 1_565 S
O53 C59 1.253 . S
O54 Mg50 2.117 1_554 S
O54 C60 1.250 . S
C55 O61 1.248 . S
C55 O62 1.264 . S
C56 O42 1.253 . S
C56 O44 1.260 1_565 S
C57 O46 1.279 . S
C57 O47 1.250 1_556 S
C58 O48 1.264 . S
C58 O52 1.248 . S
C59 O49 1.260 . S
C59 O53 1.253 . S
C60 O51 1.279 1_554 S
C60 O54 1.250 . S
O61 Mg43 2.030 1_545 S
O61 C55 1.248 . S
O62 Mg45 2.079 1_554 S
O62 C55 1.264 . S
O63 Mg64 1.990 . S
O63 C77 1.253 . S
Mg64 O63 1.990 . S
Mg64 O67 2.180 . S
Mg64 O68 2.117 . S
Mg64 O82 2.030 . S
O65 Mg66 2.072 . S
O65 C77 1.260 . S
Mg66 O65 2.072 . S
Mg66 O67 2.099 . S
Mg66 O69 2.079 . S
Mg66 O70 2.072 . S
Mg66 O72 2.099 . S
Mg66 O83 2.079 . S
O67 Mg64 2.180 . S
O67 Mg66 2.099 . S
O67 C78 1.279 . S
O68 Mg64 2.117 . S
O68 C78 1.250 . S
O69 Mg66 2.079 . S
O69 C79 1.264 . S
O70 Mg66 2.072 . S
O70 C80 1.260 . S
Mg71 O72 2.180 . S
Mg71 O73 2.030 . S
Mg71 O74 1.990 . S
Mg71 O75 2.117 . S
O72 Mg66 2.099 . S
O72 Mg71 2.180 . S
O72 C81 1.279 . S
O73 Mg71 2.030 . S
O73 C79 1.248 . S
O74 Mg71 1.990 . S
O74 C80 1.253 . S
O75 Mg71 2.117 . S
O75 C81 1.250 . S
C76 O82 1.248 . S
C76 O83 1.264 . S
C77 O63 1.253 . S
C77 O65 1.260 . S
C78 O67 1.279 . S
C78 O68 1.250 . S
C79 O69 1.264 . S
C79 O73 1.248 . S
C80 O70 1.260 . S
C80 O74 1.253 . S
C81 O72 1.279 . S
C81 O75 1.250 . S
O82 Mg64 2.030 . S
O82 C76 1.248 . S
O83 Mg66 2.079 . S
O83 C76 1.264 . S
O84 Mg85 1.990 . S
O84 C98 1.253 . S
Mg85 O84 1.990 . S
Mg85 O88 2.180 . S
Mg85 O89 2.117 . S
Mg85 O103 2.030 . S
O86 Mg87 2.072 . S
O86 C98 1.260 . S
Mg87 O86 2.072 . S
Mg87 O88 2.099 . S
Mg87 O90 2.079 . S
Mg87 O91 2.072 . S
Mg87 O93 2.099 . S
Mg87 O104 2.079 . S
O88 Mg85 2.180 . S
O88 Mg87 2.099 . S
O88 C99 1.279 . S
O89 Mg85 2.117 . S
O89 C99 1.250 . S
O90 Mg87 2.079 . S
O90 C100 1.264 . S
O91 Mg87 2.072 . S
O91 C101 1.260 . S
Mg92 O93 2.180 . S
Mg92 O94 2.030 . S
Mg92 O95 1.990 . S
Mg92 O96 2.117 . S
O93 Mg87 2.099 . S
O93 Mg92 2.180 . S
O93 C102 1.279 . S
O94 Mg92 2.030 . S
O94 C100 1.248 . S
O95 Mg92 1.990 . S
O95 C101 1.253 . S
O96 Mg92 2.117 . S
O96 C102 1.250 . S
C97 O103 1.248 . S
C97 O104 1.264 . S
C98 O84 1.253 . S
C98 O86 1.260 . S
C99 O88 1.279 . S
C99 O89 1.250 . S
C100 O90 1.264 . S
C100 O94 1.248 . S
C101 O91 1.260 . S
C101 O95 1.253 . S
C102 O93 1.279 . S
C102 O96 1.250 . S
O103 Mg85 2.030 . S
O103 C97 1.248 . S
O104 Mg87 2.079 . S
O104 C97 1.264 . S
O105 Mg106 1.990 . S
O105 C119 1.253 . S
Mg106 O105 1.990 . S
Mg106 O109 2.180 . S
Mg106 O110 2.117 . S
Mg106 O124 2.030 . S
O107 Mg108 2.072 . S
O107 C119 1.260 . S
Mg108 O107 2.072 . S
Mg108 O109 2.099 . S
Mg108 O111 2.079 . S
Mg108 O112 2.072 . S
Mg108 O114 2.099 . S
Mg108 O125 2.079 . S
O109 Mg106 2.180 . S
O109 Mg108 2.099 . S
O109 C120 1.279 . S
O110 Mg106 2.117 . S
O110 C120 1.250 . S
O111 Mg108 2.079 . S
O111 C121 1.264 . S
O112 Mg108 2.072 . S
O112 C122 1.260 . S
Mg113 O114 2.180 . S
Mg113 O115 2.030 . S
Mg113 O116 1.990 . S
Mg113 O117 2.117 . S
O114 Mg108 2.099 . S
O114 Mg113 2.180 . S
O114 C123 1.279 . S
O115 Mg113 2.030 . S
O115 C121 1.248 . S
O116 Mg113 1.990 . S
O116 C122 1.253 . S
O117 Mg113 2.117 . S
O117 C123 1.250 . S
C118 O124 1.248 . S
C118 O125 1.264 . S
C119 O105 1.253 . S
C119 O107 1.260 . S
C120 O109 1.279 . S
C120 O110 1.250 . S
C121 O111 1.264 . S
C121 O115 1.248 . S
C122 O112 1.260 . S
C122 O116 1.253 . S
C123 O114 1.279 . S
C123 O117 1.250 . S
O124 Mg106 2.030 . S
O124 C118 1.248 . S
O125 Mg108 2.079 . S
O125 C118 1.264 . S
O126 Mg127 1.990 . S
O126 C140 1.253 . S
Mg127 O126 1.990 . S
Mg127 O130 2.180 1_556 S
Mg127 O131 2.117 . S
Mg127 O145 2.030 . S
O128 Mg129 2.072 1_556 S
O128 C140 1.260 . S
Mg129 O128 2.072 1_554 S
Mg129 O130 2.099 . S
Mg129 O132 2.079 . S
Mg129 O133 2.072 . S
Mg129 O135 2.099 . S
Mg129 O146 2.079 . S
O130 Mg127 2.180 1_554 S
O130 Mg129 2.099 . S
O130 C141 1.279 . S
O131 Mg127 2.117 . S
O131 C141 1.250 1_556 S
O132 Mg129 2.079 . S
O132 C142 1.264 . S
O133 Mg129 2.072 . S
O133 C143 1.260 . S
Mg134 O135 2.180 . S
Mg134 O136 2.030 . S
Mg134 O137 1.990 . S
Mg134 O138 2.117 . S
O135 Mg129 2.099 . S
O135 Mg134 2.180 . S
O135 C144 1.279 1_554 S
O136 Mg134 2.030 . S
O136 C142 1.248 . S
O137 Mg134 1.990 . S
O137 C143 1.253 . S
O138 Mg134 2.117 . S
O138 C144 1.250 1_554 S
C139 O145 1.248 . S
C139 O146 1.264 1_556 S
C140 O126 1.253 . S
C140 O128 1.260 . S
C141 O130 1.279 . S
C141 O131 1.250 1_554 S
C142 O132 1.264 . S
C142 O136 1.248 . S
C143 O133 1.260 . S
C143 O137 1.253 . S
C144 O135 1.279 1_556 S
C144 O138 1.250 1_556 S
O145 Mg127 2.030 . S
O145 C139 1.248 . S
O146 Mg129 2.079 . S
O146 C139 1.264 1_554 S
O147 Mg148 1.990 . S
O147 C161 1.253 . S
Mg148 O147 1.990 . S
Mg148 O151 2.180 . S
Mg148 O152 2.117 . S
Mg148 O166 2.030 . S
O149 Mg150 2.072 . S
O149 C161 1.260 1_455 S
Mg150 O149 2.072 . S
Mg150 O151 2.099 1_455 S
Mg150 O153 2.079 1_455 S
Mg150 O154 2.072 . S
Mg150 O156 2.099 . S
Mg150 O167 2.079 1_455 S
O151 Mg148 2.180 . S
O151 Mg150 2.099 1_655 S
O151 C162 1.279 . S
O152 Mg148 2.117 . S
O152 C162 1.250 . S
O153 Mg150 2.079 1_655 S
O153 C163 1.264 1_655 S
O154 Mg150 2.072 . S
O154 C164 1.260 . S
Mg155 O156 2.180 . S
Mg155 O157 2.030 . S
Mg155 O158 1.990 . S
Mg155 O159 2.117 . S
O156 Mg150 2.099 . S
O156 Mg155 2.180 . S
O156 C165 1.279 . S
O157 Mg155 2.030 . S
O157 C163 1.248 . S
O158 Mg155 1.990 . S
O158 C164 1.253 . S
O159 Mg155 2.117 . S
O159 C165 1.250 . S
C160 O166 1.248 . S
C160 O167 1.264 . S
C161 O147 1.253 . S
C161 O149 1.260 1_655 S
C162 O151 1.279 . S
C162 O152 1.250 . S
C163 O153 1.264 1_455 S
C163 O157 1.248 . S
C164 O154 1.260 . S
C164 O158 1.253 . S
C165 O156 1.279 . S
C165 O159 1.250 . S
O166 Mg148 2.030 . S
O166 C160 1.248 . S
O167 Mg150 2.079 1_655 S
O167 C160 1.264 . S
H168 C174 0.930 . S
H169 C178 0.930 . S
H170 C183 0.929 . S
H171 C181 0.929 . S
H172 C176 0.929 . S
H173 C182 0.929 . S
C174 H168 0.930 . S
C174 C175 1.367 . S
C174 C182 1.378 . S
C175 C174 1.367 . S
C175 C183 1.433 . S
C176 H172 0.929 . S
C176 C178 1.378 . S
C176 C180 1.350 . S
C177 C180 1.463 . S
C177 C182 1.350 . S
C177 N185 1.427 . S
C178 H169 0.930 . S
C178 C176 1.378 . S
C178 C179 1.367 . S
C179 C178 1.367 . S
C179 C181 1.433 . S
C180 C176 1.350 . S
C180 C177 1.463 . S
C180 N184 1.427 . S
C181 H171 0.929 . S
C181 C179 1.433 . S
C181 N184 1.384 . S
C182 H173 0.929 . S
C182 C174 1.378 . S
C182 C177 1.350 . S
C183 H170 0.929 . S
C183 C175 1.433 . S
C183 N185 1.384 . S
N184 C180 1.427 . S
N184 C181 1.384 . S
N185 C177 1.427 . S
N185 C183 1.384 . S
H186 C192 0.930 . S
H187 C196 0.930 . S
H188 C201 0.929 . S
H189 C199 0.929 . S
H190 C194 0.929 . S
H191 C200 0.929 . S
C192 H186 0.930 . S
C192 C193 1.367 . S
C192 C200 1.378 . S
C193 C192 1.367 . S
C193 C201 1.433 . S
C194 H190 0.929 . S
C194 C196 1.378 . S
C194 C198 1.350 . S
C195 C198 1.463 . S
C195 C200 1.350 . S
C195 N203 1.427 . S
C196 H187 0.930 . S
C196 C194 1.378 . S
C196 C197 1.367 . S
C197 C196 1.367 . S
C197 C199 1.433 . S
C198 C194 1.350 . S
C198 C195 1.463 . S
C198 N202 1.427 . S
C199 H189 0.929 . S
C199 C197 1.433 . S
C199 N202 1.384 . S
C200 H191 0.929 . S
C200 C192 1.378 . S
C200 C195 1.350 . S
C201 H188 0.929 . S
C201 C193 1.433 . S
C201 N203 1.384 . S
N202 C198 1.427 . S
N202 C199 1.384 . S
N203 C195 1.427 . S
N203 C201 1.384 . S
H204 C210 0.930 . S
H205 C214 0.930 . S
H206 C219 0.929 . S
H207 C217 0.929 1_554 S
H208 C212 0.929 . S
H209 C218 0.929 . S
C210 H204 0.930 . S
C210 C211 1.367 . S
C210 C218 1.378 . S
C211 C210 1.367 . S
C211 C219 1.433 . S
C212 H208 0.929 . S
C212 C214 1.378 . S
C212 C216 1.350 . S
C213 C216 1.463 . S
C213 C218 1.350 . S
C213 N221 1.427 . S
C214 H205 0.930 . S
C214 C212 1.378 . S
C214 C215 1.367 . S
C215 C214 1.367 . S
C215 C217 1.433 . S
C216 C212 1.350 . S
C216 C213 1.463 . S
C216 N220 1.427 . S
C217 H207 0.929 1_556 S
C217 C215 1.433 . S
C217 N220 1.384 . S
C218 H209 0.929 . S
C218 C210 1.378 . S
C218 C213 1.350 . S
C219 H206 0.929 . S
C219 C211 1.433 . S
C219 N221 1.384 . S
N220 C216 1.427 . S
N220 C217 1.384 . S
N221 C213 1.427 . S
N221 C219 1.384 . S
H222 C228 0.930 . S
H223 C232 0.930 . S
H224 C237 0.929 . S
H225 C235 0.929 . S
H226 C230 0.929 . S
H227 C236 0.929 . S
C228 H222 0.930 . S
C228 C229 1.367 . S
C228 C236 1.378 . S
C229 C228 1.367 . S
C229 C237 1.433 . S
C230 H226 0.929 . S
C230 C232 1.378 . S
C230 C234 1.350 . S
C231 C234 1.463 . S
C231 C236 1.350 . S
C231 N239 1.427 . S
C232 H223 0.930 . S
C232 C230 1.378 . S
C232 C233 1.367 . S
C233 C232 1.367 . S
C233 C235 1.433 . S
C234 C230 1.350 . S
C234 C231 1.463 . S
C234 N238 1.427 . S
C235 H225 0.929 . S
C235 C233 1.433 . S
C235 N238 1.384 . S
C236 H227 0.929 . S
C236 C228 1.378 . S
C236 C231 1.350 . S
C237 H224 0.929 . S
C237 C229 1.433 . S
C237 N239 1.384 . S
N238 C234 1.427 . S
N238 C235 1.384 . S
N239 C231 1.427 . S
N239 C237 1.384 . S
H240 C246 0.930 . S
H241 C250 0.930 . S
H242 C255 0.929 . S
H243 C253 0.929 . S
H244 C248 0.929 . S
H245 C254 0.929 . S
C246 H240 0.930 . S
C246 C247 1.367 . S
C246 C254 1.378 . S
C247 C246 1.367 . S
C247 C255 1.433 . S
C248 H244 0.929 . S
C248 C250 1.378 . S
C248 C252 1.350 . S
C249 C252 1.463 . S
C249 C254 1.350 . S
C249 N257 1.427 . S
C250 H241 0.930 . S
C250 C248 1.378 . S
C250 C251 1.367 . S
C251 C250 1.367 . S
C251 C253 1.433 . S
C252 C248 1.350 . S
C252 C249 1.463 . S
C252 N256 1.427 . S
C253 H243 0.929 . S
C253 C251 1.433 . S
C253 N256 1.384 . S
C254 H245 0.929 . S
C254 C246 1.378 . S
C254 C249 1.350 . S
C255 H242 0.929 . S
C255 C247 1.433 . S
C255 N257 1.384 . S
N256 C252 1.427 . S
N256 C253 1.384 . S
N257 C249 1.427 . S
N257 C255 1.384 . S
H258 C264 0.930 . S
H259 C268 0.930 . S
H260 C273 0.929 . S
H261 C271 0.929 . S
H262 C266 0.929 . S
H263 C272 0.929 . S
C264 H258 0.930 . S
C264 C265 1.367 . S
C264 C272 1.378 . S
C265 C264 1.367 . S
C265 C273 1.433 . S
C266 H262 0.929 . S
C266 C268 1.378 . S
C266 C270 1.350 . S
C267 C270 1.463 . S
C267 C272 1.350 . S
C267 N275 1.427 . S
C268 H259 0.930 . S
C268 C266 1.378 . S
C268 C269 1.367 . S
C269 C268 1.367 . S
C269 C271 1.433 . S
C270 C266 1.350 . S
C270 C267 1.463 . S
C270 N274 1.427 . S
C271 H261 0.929 . S
C271 C269 1.433 . S
C271 N274 1.384 . S
C272 H263 0.929 . S
C272 C264 1.378 . S
C272 C267 1.350 . S
C273 H260 0.929 . S
C273 C265 1.433 . S
C273 N275 1.384 . S
N274 C270 1.427 . S
N274 C271 1.384 . S
N275 C267 1.427 . S
N275 C273 1.384 . S
H276 C282 0.930 . S
H277 C286 0.930 1_556 S
H278 C291 0.929 . S
H279 C289 0.929 . S
H280 C284 0.929 1_556 S
H281 C290 0.929 . S
C282 H276 0.930 . S
C282 C283 1.367 . S
C282 C290 1.378 . S
C283 C282 1.367 . S
C283 C291 1.433 . S
C284 H280 0.929 1_554 S
C284 C286 1.378 . S
C284 C288 1.350 . S
C285 C288 1.463 . S
C285 C290 1.350 . S
C285 N293 1.427 . S
C286 H277 0.930 1_554 S
C286 C284 1.378 . S
C286 C287 1.367 . S
C287 C286 1.367 . S
C287 C289 1.433 . S
C288 C284 1.350 . S
C288 C285 1.463 . S
C288 N292 1.427 . S
C289 H279 0.929 . S
C289 C287 1.433 . S
C289 N292 1.384 . S
C290 H281 0.929 . S
C290 C282 1.378 . S
C290 C285 1.350 . S
C291 H278 0.929 . S
C291 C283 1.433 . S
C291 N293 1.384 . S
N292 C288 1.427 . S
N292 C289 1.384 . S
N293 C285 1.427 . S
N293 C291 1.384 . S
H294 C300 0.930 . S
H295 C304 0.930 1_554 S
H296 C309 0.929 . S
H297 C307 0.929 . S
H298 C302 0.929 . S
H299 C308 0.929 . S
C300 H294 0.930 . S
C300 C301 1.367 . S
C300 C308 1.378 . S
C301 C300 1.367 . S
C301 C309 1.433 . S
C302 H298 0.929 . S
C302 C304 1.378 . S
C302 C306 1.350 . S
C303 C306 1.463 . S
C303 C308 1.350 . S
C303 N311 1.427 . S
C304 H295 0.930 1_556 S
C304 C302 1.378 . S
C304 C305 1.367 . S
C305 C304 1.367 . S
C305 C307 1.433 . S
C306 C302 1.350 . S
C306 C303 1.463 . S
C306 N310 1.427 . S
C307 H297 0.929 . S
C307 C305 1.433 . S
C307 N310 1.384 . S
C308 H299 0.929 . S
C308 C300 1.378 . S
C308 C303 1.350 . S
C309 H296 0.929 . S
C309 C301 1.433 . S
C309 N311 1.384 . S
N310 C306 1.427 . S
N310 C307 1.384 . S
N311 C303 1.427 . S
N311 C309 1.384 . S
H312 C318 0.930 1_554 S
H313 C322 0.930 . S
H314 C327 0.929 . S
H315 C325 0.929 . S
H316 C320 0.929 . S
H317 C326 0.929 . S
C318 H312 0.930 1_556 S
C318 C319 1.367 . S
C318 C326 1.378 . S
C319 C318 1.367 . S
C319 C327 1.433 . S
C320 H316 0.929 . S
C320 C322 1.378 . S
C320 C324 1.350 . S
C321 C324 1.463 . S
C321 C326 1.350 . S
C321 N329 1.427 . S
C322 H313 0.930 . S
C322 C320 1.378 . S
C322 C323 1.367 . S
C323 C322 1.367 . S
C323 C325 1.433 . S
C324 C320 1.350 . S
C324 C321 1.463 . S
C324 N328 1.427 . S
C325 H315 0.929 . S
C325 C323 1.433 . S
C325 N328 1.384 . S
C326 H317 0.929 . S
C326 C318 1.378 . S
C326 C321 1.350 . S
C327 H314 0.929 . S
C327 C319 1.433 . S
C327 N329 1.384 . S
N328 C324 1.427 . S
N328 C325 1.384 . S
N329 C321 1.427 . S
N329 C327 1.384 . S
H330 C336 0.930 . S
H331 C340 0.930 1_556 S
H332 C345 0.929 . S
H333 C343 0.929 . S
H334 C338 0.929 1_556 S
H335 C344 0.929 . S
C336 H330 0.930 . S
C336 C337 1.367 . S
C336 C344 1.378 . S
C337 C336 1.367 . S
C337 C345 1.433 . S
C338 H334 0.929 1_554 S
C338 C340 1.378 . S
C338 C342 1.350 . S
C339 C342 1.463 . S
C339 C344 1.350 . S
C339 N347 1.427 . S
C340 H331 0.930 1_554 S
C340 C338 1.378 . S
C340 C341 1.367 . S
C341 C340 1.367 . S
C341 C343 1.433 . S
C342 C338 1.350 . S
C342 C339 1.463 . S
C342 N346 1.427 . S
C343 H333 0.929 . S
C343 C341 1.433 . S
C343 N346 1.384 . S
C344 H335 0.929 . S
C344 C336 1.378 . S
C344 C339 1.350 . S
C345 H332 0.929 . S
C345 C337 1.433 . S
C345 N347 1.384 . S
N346 C342 1.427 . S
N346 C343 1.384 . S
N347 C339 1.427 . S
N347 C345 1.384 . S
H348 C354 0.930 . S
H349 C358 0.930 . S
H350 C363 0.929 . S
H351 C361 0.929 . S
H352 C356 0.929 . S
H353 C362 0.929 . S
C354 H348 0.930 . S
C354 C355 1.367 . S
C354 C362 1.378 . S
C355 C354 1.367 . S
C355 C363 1.433 . S
C356 H352 0.929 . S
C356 C358 1.378 . S
C356 C360 1.350 . S
C357 C360 1.463 . S
C357 C362 1.350 . S
C357 N365 1.427 . S
C358 H349 0.930 . S
C358 C356 1.378 . S
C358 C359 1.367 . S
C359 C358 1.367 . S
C359 C361 1.433 . S
C360 C356 1.350 . S
C360 C357 1.463 . S
C360 N364 1.427 . S
C361 H351 0.929 . S
C361 C359 1.433 . S
C361 N364 1.384 . S
C362 H353 0.929 . S
C362 C354 1.378 . S
C362 C357 1.350 . S
C363 H350 0.929 . S
C363 C355 1.433 . S
C363 N365 1.384 . S
N364 C360 1.427 . S
N364 C361 1.384 . S
N365 C357 1.427 . S
N365 C363 1.384 . S
H366 C372 0.930 . S
H367 C376 0.930 . S
H368 C381 0.929 . S
H369 C379 0.929 . S
H370 C374 0.929 . S
H371 C380 0.929 . S
C372 H366 0.930 . S
C372 C373 1.367 . S
C372 C380 1.378 . S
C373 C372 1.367 . S
C373 C381 1.433 . S
C374 H370 0.929 . S
C374 C376 1.378 . S
C374 C378 1.350 . S
C375 C378 1.463 . S
C375 C380 1.350 . S
C375 N383 1.427 . S
C376 H367 0.930 . S
C376 C374 1.378 . S
C376 C377 1.367 . S
C377 C376 1.367 . S
C377 C379 1.433 . S
C378 C374 1.350 . S
C378 C375 1.463 . S
C378 N382 1.427 . S
C379 H369 0.929 . S
C379 C377 1.433 . S
C379 N382 1.384 . S
C380 H371 0.929 . S
C380 C372 1.378 . S
C380 C375 1.350 . S
C381 H368 0.929 . S
C381 C373 1.433 . S
C381 N383 1.384 . S
N382 C378 1.427 . S
N382 C379 1.384 . S
N383 C375 1.427 . S
N383 C381 1.384 . S
H384 C390 0.930 . S
H385 C394 0.930 1_556 S
H386 C399 0.929 . S
H387 C397 0.929 . S
H388 C392 0.929 . S
H389 C398 0.929 . S
C390 H384 0.930 . S
C390 C391 1.367 . S
C390 C398 1.378 . S
C391 C390 1.367 . S
C391 C399 1.433 . S
C392 H388 0.929 . S
C392 C394 1.378 . S
C392 C396 1.350 . S
C393 C396 1.463 . S
C393 C398 1.350 . S
C393 N401 1.427 . S
C394 H385 0.930 1_554 S
C394 C392 1.378 . S
C394 C395 1.367 . S
C395 C394 1.367 . S
C395 C397 1.433 . S
C396 C392 1.350 . S
C396 C393 1.463 . S
C396 N400 1.427 . S
C397 H387 0.929 . S
C397 C395 1.433 . S
C397 N400 1.384 . S
C398 H389 0.929 . S
C398 C390 1.378 . S
C398 C393 1.350 . S
C399 H386 0.929 . S
C399 C391 1.433 . S
C399 N401 1.384 . S
N400 C396 1.427 . S
N400 C397 1.384 . S
N401 C393 1.427 . S
N401 C399 1.384 . S
H402 C408 0.930 . S
H403 C412 0.930 . S
H404 C417 0.929 1_554 S
H405 C415 0.929 . S
H406 C410 0.929 . S
H407 C416 0.929 . S
C408 H402 0.930 . S
C408 C409 1.367 . S
C408 C416 1.378 . S
C409 C408 1.367 . S
C409 C417 1.433 . S
C410 H406 0.929 . S
C410 C412 1.378 . S
C410 C414 1.350 . S
C411 C414 1.463 . S
C411 C416 1.350 . S
C411 N419 1.427 . S
C412 H403 0.930 . S
C412 C410 1.378 . S
C412 C413 1.367 . S
C413 C412 1.367 . S
C413 C415 1.433 . S
C414 C410 1.350 . S
C414 C411 1.463 . S
C414 N418 1.427 . S
C415 H405 0.929 . S
C415 C413 1.433 . S
C415 N418 1.384 . S
C416 H407 0.929 . S
C416 C408 1.378 . S
C416 C411 1.350 . S
C417 H404 0.929 1_556 S
C417 C409 1.433 . S
C417 N419 1.384 . S
N418 C414 1.427 . S
N418 C415 1.384 . S
N419 C411 1.427 . S
N419 C417 1.384 . S
H420 C426 0.930 . S
H421 C430 0.930 . S
H422 C435 0.929 . S
H423 C433 0.929 . S
H424 C428 0.929 . S
H425 C434 0.929 . S
C426 H420 0.930 . S
C426 C427 1.367 . S
C426 C434 1.378 . S
C427 C426 1.367 . S
C427 C435 1.433 . S
C428 H424 0.929 . S
C428 C430 1.378 . S
C428 C432 1.350 . S
C429 C432 1.463 . S
C429 C434 1.350 . S
C429 N437 1.427 . S
C430 H421 0.930 . S
C430 C428 1.378 . S
C430 C431 1.367 . S
C431 C430 1.367 . S
C431 C433 1.433 . S
C432 C428 1.350 . S
C432 C429 1.463 . S
C432 N436 1.427 . S
C433 H423 0.929 . S
C433 C431 1.433 . S
C433 N436 1.384 . S
C434 H425 0.929 . S
C434 C426 1.378 . S
C434 C429 1.350 . S
C435 H422 0.929 . S
C435 C427 1.433 . S
C435 N437 1.384 . S
N436 C432 1.427 . S
N436 C433 1.384 . S
N437 C429 1.427 . S
N437 C435 1.384 . S
H438 C444 0.930 . S
H439 C448 0.930 . S
H440 C453 0.929 . S
H441 C451 0.929 . S
H442 C446 0.929 . S
H443 C452 0.929 . S
C444 H438 0.930 . S
C444 C445 1.367 . S
C444 C452 1.378 . S
C445 C444 1.367 . S
C445 C453 1.433 . S
C446 H442 0.929 . S
C446 C448 1.378 . S
C446 C450 1.350 . S
C447 C450 1.463 . S
C447 C452 1.350 . S
C447 N455 1.427 . S
C448 H439 0.930 . S
C448 C446 1.378 . S
C448 C449 1.367 . S
C449 C448 1.367 . S
C449 C451 1.433 . S
C450 C446 1.350 . S
C450 C447 1.463 . S
C450 N454 1.427 . S
C451 H441 0.929 . S
C451 C449 1.433 . S
C451 N454 1.384 . S
C452 H443 0.929 . S
C452 C444 1.378 . S
C452 C447 1.350 . S
C453 H440 0.929 . S
C453 C445 1.433 . S
C453 N455 1.384 . S
N454 C450 1.427 . S
N454 C451 1.384 . S
N455 C447 1.427 . S
N455 C453 1.384 . S
H456 C462 0.930 . S
H457 C466 0.930 . S
H458 C471 0.929 . S
H459 C469 0.929 . S
H460 C464 0.929 . S
H461 C470 0.929 . S
C462 H456 0.930 . S
C462 C463 1.367 1_565 S
C462 C470 1.378 . S
C463 C462 1.367 1_545 S
C463 C471 1.433 1_455 S
C464 H460 0.929 . S
C464 C466 1.378 . S
C464 C468 1.337 1_655 S
C465 C468 1.464 1_556 S
C465 C470 1.350 1_545 S
C465 N473 1.427 1_455 S
C466 H457 0.930 . S
C466 C464 1.378 . S
C466 C467 1.367 1_645 S
C467 C466 1.367 1_465 S
C467 C469 1.433 . S
C468 C464 1.337 1_455 S
C468 C465 1.464 1_554 S
C468 N472 1.440 1_545 S
C469 H459 0.929 . S
C469 C467 1.433 . S
C469 N472 1.384 . S
C470 H461 0.929 . S
C470 C462 1.378 . S
C470 C465 1.350 1_565 S
C471 H458 0.929 . S
C471 C463 1.433 1_655 S
C471 N473 1.384 . S
N472 C468 1.440 1_565 S
N472 C469 1.384 . S
N473 C465 1.427 1_655 S
N473 C471 1.384 . S
H474 C480 0.930 . S
H475 C484 0.930 . S
H476 C489 0.929 . S
H477 C487 0.929 . S
H478 C482 0.929 . S
H479 C488 0.929 . S
C480 H474 0.930 . S
C480 C481 1.367 . S
C480 C488 1.378 . S
C481 C480 1.367 . S
C481 C489 1.433 . S
C482 H478 0.929 . S
C482 C484 1.378 . S
C482 C486 1.350 . S
C483 C486 1.463 . S
C483 C488 1.350 . S
C483 N491 1.427 . S
C484 H475 0.930 . S
C484 C482 1.378 . S
C484 C485 1.367 . S
C485 C484 1.367 . S
C485 C487 1.433 . S
C486 C482 1.350 . S
C486 C483 1.463 . S
C486 N490 1.427 . S
C487 H477 0.929 . S
C487 C485 1.433 . S
C487 N490 1.384 . S
C488 H479 0.929 . S
C488 C480 1.378 . S
C488 C483 1.350 . S
C489 H476 0.929 . S
C489 C481 1.433 . S
C489 N491 1.384 . S
N490 C486 1.427 . S
N490 C487 1.384 . S
N491 C483 1.427 . S
N491 C489 1.384 . S
H492 C498 0.930 . S
H493 C502 0.930 . S
H494 C507 0.929 . S
H495 C505 0.929 . S
H496 C500 0.929 . S
H497 C506 0.929 . S
C498 H492 0.930 . S
C498 C499 1.367 . S
C498 C506 1.378 . S
C499 C498 1.367 . S
C499 C507 1.433 1_545 S
C500 H496 0.929 . S
C500 C502 1.378 . S
C500 C504 1.350 1_565 S
C501 C504 1.463 . S
C501 C506 1.350 . S
C501 N509 1.427 1_545 S
C502 H493 0.930 . S
C502 C500 1.378 . S
C502 C503 1.362 1_565 S
C503 C502 1.362 1_545 S
C503 C505 1.439 . S
C504 C500 1.350 1_545 S
C504 C501 1.463 . S
C504 N508 1.427 . S
C505 H495 0.929 . S
C505 C503 1.439 . S
C505 N508 1.384 . S
C506 H497 0.929 . S
C506 C498 1.378 . S
C506 C501 1.350 . S
C507 H494 0.929 . S
C507 C499 1.433 1_565 S
C507 N509 1.384 . S
N508 C504 1.427 . S
N508 C505 1.384 . S
N509 C501 1.427 1_565 S
N509 C507 1.384 . S
H510 C516 0.930 . S
H511 C520 0.930 . S
H512 C525 0.929 . S
H513 C523 0.929 . S
H514 C518 0.929 . S
H515 C524 0.929 . S
C516 H510 0.930 . S
C516 C517 1.367 . S
C516 C524 1.378 . S
C517 C516 1.367 . S
C517 C525 1.433 . S
C518 H514 0.929 . S
C518 C520 1.378 . S
C518 C522 1.350 . S
C519 C522 1.463 . S
C519 C524 1.350 . S
C519 N527 1.427 . S
C520 H511 0.930 . S
C520 C518 1.378 . S
C520 C521 1.367 . S
C521 C520 1.367 . S
C521 C523 1.433 . S
C522 C518 1.350 . S
C522 C519 1.463 . S
C522 N526 1.427 . S
C523 H513 0.929 . S
C523 C521 1.433 . S
C523 N526 1.384 . S
C524 H515 0.929 . S
C524 C516 1.378 . S
C524 C519 1.350 . S
C525 H512 0.929 . S
C525 C517 1.433 . S
C525 N527 1.384 . S
N526 C522 1.427 . S
N526 C523 1.384 . S
N527 C519 1.427 . S
N527 C525 1.384 . S
H528 C534 0.930 . S
H529 C538 0.930 . S
H530 C543 0.929 . S
H531 C541 0.929 . S
H532 C536 0.929 . S
H533 C542 0.929 . S
C534 H528 0.930 . S
C534 C535 1.367 . S
C534 C542 1.378 . S
C535 C534 1.367 . S
C535 C543 1.433 . S
C536 H532 0.929 . S
C536 C538 1.378 . S
C536 C540 1.350 . S
C537 C540 1.463 . S
C537 C542 1.350 . S
C537 N545 1.427 . S
C538 H529 0.930 . S
C538 C536 1.378 . S
C538 C539 1.367 . S
C539 C538 1.367 . S
C539 C541 1.433 . S
C540 C536 1.350 . S
C540 C537 1.463 . S
C540 N544 1.427 . S
C541 H531 0.929 . S
C541 C539 1.433 . S
C541 N544 1.384 . S
C542 H533 0.929 . S
C542 C534 1.378 . S
C542 C537 1.350 . S
C543 H530 0.929 . S
C543 C535 1.433 . S
C543 N545 1.384 . S
N544 C540 1.427 . S
N544 C541 1.384 . S
N545 C537 1.427 . S
N545 C543 1.384 . S
H546 C552 0.930 . S
H547 C556 0.930 . S
H548 C561 0.929 . S
H549 C559 0.929 . S
H550 C554 0.929 . S
H551 C560 0.929 . S
C552 H546 0.930 . S
C552 C553 1.367 . S
C552 C560 1.378 . S
C553 C552 1.367 . S
C553 C561 1.433 . S
C554 H550 0.929 . S
C554 C556 1.378 . S
C554 C558 1.350 . S
C555 C558 1.463 . S
C555 C560 1.350 . S
C555 N563 1.427 . S
C556 H547 0.930 . S
C556 C554 1.378 . S
C556 C557 1.367 . S
C557 C556 1.367 . S
C557 C559 1.433 . S
C558 C554 1.350 . S
C558 C555 1.463 . S
C558 N562 1.427 . S
C559 H549 0.929 . S
C559 C557 1.433 . S
C559 N562 1.384 . S
C560 H551 0.929 . S
C560 C552 1.378 . S
C560 C555 1.350 . S
C561 H548 0.929 . S
C561 C553 1.433 . S
C561 N563 1.384 . S
N562 C558 1.427 . S
N562 C559 1.384 . S
N563 C555 1.427 . S
N563 C561 1.384 . S
H564 C570 0.930 . S
H565 C574 0.930 . S
H566 C579 0.929 . S
H567 C577 0.929 . S
H568 C572 0.929 . S
H569 C578 0.929 . S
C570 H564 0.930 . S
C570 C571 1.367 . S
C570 C578 1.378 . S
C571 C570 1.367 . S
C571 C579 1.433 . S
C572 H568 0.929 . S
C572 C574 1.378 . S
C572 C576 1.350 . S
C573 C576 1.463 . S
C573 C578 1.350 . S
C573 N581 1.427 . S
C574 H565 0.930 . S
C574 C572 1.378 . S
C574 C575 1.367 . S
C575 C574 1.367 . S
C575 C577 1.433 . S
C576 C572 1.350 . S
C576 C573 1.463 . S
C576 N580 1.427 . S
C577 H567 0.929 . S
C577 C575 1.433 . S
C577 N580 1.384 . S
C578 H569 0.929 . S
C578 C570 1.378 . S
C578 C573 1.350 . S
C579 H566 0.929 . S
C579 C571 1.433 . S
C579 N581 1.384 . S
N580 C576 1.427 . S
N580 C577 1.384 . S
N581 C573 1.427 . S
N581 C579 1.384 . S
H582 C588 0.930 . S
H583 C592 0.930 . S
H584 C597 0.929 . S
H585 C595 0.929 . S
H586 C590 0.929 . S
H587 C596 0.929 . S
C588 H582 0.930 . S
C588 C589 1.367 1_655 S
C588 C596 1.378 . S
C589 C588 1.367 1_455 S
C589 C597 1.433 . S
C590 H586 0.929 . S
C590 C592 1.378 . S
C590 C594 1.350 . S
C591 C594 1.463 1_556 S
C591 C596 1.350 1_455 S
C591 N599 1.427 . S
C592 H583 0.930 . S
C592 C590 1.378 . S
C592 C593 1.367 . S
C593 C592 1.367 . S
C593 C595 1.433 1_455 S
C594 C590 1.350 . S
C594 C591 1.463 1_554 S
C594 N598 1.427 1_455 S
C595 H585 0.929 . S
C595 C593 1.433 1_655 S
C595 N598 1.384 . S
C596 H587 0.929 . S
C596 C588 1.378 . S
C596 C591 1.350 1_655 S
C597 H584 0.929 . S
C597 C589 1.433 . S
C597 N599 1.384 . S
N598 C594 1.427 1_655 S
N598 C595 1.384 . S
N599 C591 1.427 . S
N599 C597 1.384 . S
C175 C13 1.301 . S
C179 C76 1.297 . S
C193 C15 1.320 . S
C197 C34 1.457 . S
C211 C36 1.480 . S
C215 C57 1.469 . S
C229 C55 1.460 . S
C233 C78 1.321 . S
C247 C17 1.477 . S
C251 C122 1.479 . S
C265 C18 1.302 . S
C269 C101 1.420 . S
C283 C102 1.247 . S
C287 C60 1.241 . S
C301 C123 1.290 . S
C305 C59 1.431 . S
C319 C139 1.303 . S
C323 C118 1.292 . S
C337 C97 1.458 . S
C341 C141 1.319 . S
C355 C162 1.463 . S
C359 C99 1.478 . S
C373 C120 1.342 . S
C377 C160 1.446 . S
C391 C80 1.483 . S
C395 C143 1.476 . S
C409 C144 1.318 . S
C413 C38 1.417 . S
C427 C39 1.263 . S
C431 C165 1.268 . S
C445 C81 1.318 . S
C449 C164 1.417 . S
C463 C16 1.350 1_455 S
C467 C14 1.355 . S
C481 C35 1.332 . S
C485 C37 1.333 1_554 S
C499 C58 1.333 . S
C503 C56 1.331 1_545 S
C517 C79 1.339 1_556 S
C521 C77 1.345 . S
C535 C98 1.332 1_556 S
C539 C100 1.333 . S
C553 C121 1.349 . S
C557 C119 1.349 1_554 S
C571 C140 1.346 . S
C575 C142 1.339 . S
C589 C161 1.332 1_455 S
C593 C163 1.330 . S
