# Generated by pormake.
# Topology ske, (6)-cn, num edge types: 1
# Building blocks:
#     Node 0, Type 0, BuildingBlock: PAMTUU_clean_sbu_0, # of connection points: 6
#     Node 1, Type 0, BuildingBlock: PAMTUU_clean_sbu_0, # of connection points: 6
#     Node 2, Type 0, BuildingBlock: PAMTUU_clean_sbu_0, # of connection points: 6
#     Node 3, Type 0, BuildingBlock: PAMTUU_clean_sbu_0, # of connection points: 6
#     Node 4, Type 0, BuildingBlock: PAMTUU_clean_sbu_0, # of connection points: 6
#     Node 5, Type 0, BuildingBlock: PAMTUU_clean_sbu_0, # of connection points: 6
#     Node 6, Type 0, BuildingBlock: PAMTUU_clean_sbu_0, # of connection points: 6
#     Node 7, Type 0, BuildingBlock: PAMTUU_clean_sbu_0, # of connection points: 6
#     Edge 8, Type (0, 0), BuildingBlock: AJUNOK_clean_linker_0, # of connection points: 2
#     Edge 9, Type (0, 0), BuildingBlock: AJUNOK_clean_linker_0, # of connection points: 2
#     Edge 10, Type (0, 0), BuildingBlock: AJUNOK_clean_linker_0, # of connection points: 2
#     Edge 11, Type (0, 0), BuildingBlock: AJUNOK_clean_linker_0, # of connection points: 2
#     Edge 12, Type (0, 0), BuildingBlock: AJUNOK_clean_linker_0, # of connection points: 2
#     Edge 13, Type (0, 0), BuildingBlock: AJUNOK_clean_linker_0, # of connection points: 2
#     Edge 14, Type (0, 0), BuildingBlock: AJUNOK_clean_linker_0, # of connection points: 2
#     Edge 15, Type (0, 0), BuildingBlock: AJUNOK_clean_linker_0, # of connection points: 2
#     Edge 16, Type (0, 0), BuildingBlock: AJUNOK_clean_linker_0, # of connection points: 2
#     Edge 17, Type (0, 0), BuildingBlock: AJUNOK_clean_linker_0, # of connection points: 2
#     Edge 18, Type (0, 0), BuildingBlock: AJUNOK_clean_linker_0, # of connection points: 2
#     Edge 19, Type (0, 0), BuildingBlock: AJUNOK_clean_linker_0, # of connection points: 2
#     Edge 20, Type (0, 0), BuildingBlock: AJUNOK_clean_linker_0, # of connection points: 2
#     Edge 21, Type (0, 0), BuildingBlock: AJUNOK_clean_linker_0, # of connection points: 2
#     Edge 22, Type (0, 0), BuildingBlock: AJUNOK_clean_linker_0, # of connection points: 2
#     Edge 23, Type (0, 0), BuildingBlock: AJUNOK_clean_linker_0, # of connection points: 2
#     Edge 24, Type (0, 0), BuildingBlock: AJUNOK_clean_linker_0, # of connection points: 2
#     Edge 25, Type (0, 0), BuildingBlock: AJUNOK_clean_linker_0, # of connection points: 2
#     Edge 26, Type (0, 0), BuildingBlock: AJUNOK_clean_linker_0, # of connection points: 2
#     Edge 27, Type (0, 0), BuildingBlock: AJUNOK_clean_linker_0, # of connection points: 2
#     Edge 28, Type (0, 0), BuildingBlock: AJUNOK_clean_linker_0, # of connection points: 2
#     Edge 29, Type (0, 0), BuildingBlock: AJUNOK_clean_linker_0, # of connection points: 2
#     Edge 30, Type (0, 0), BuildingBlock: AJUNOK_clean_linker_0, # of connection points: 2
#     Edge 31, Type (0, 0), BuildingBlock: AJUNOK_clean_linker_0, # of connection points: 2
# Relax obj value: 0.137
# Max RMSD: 0.176
# Mean RMSD: 0.169
data_MOF--net-ske--node1-PAMTUU_clean_sbu_0--edge1-AJUNOK_clean_linker_0
_symmetry_space_group_name_H-M    P1
_symmetry_Int_Tables_number       1
_symmetry_cell_setting            triclinic
loop_
_symmetry_equiv_pos_as_xyz
'x, y, z'
_cell_length_a     88.536281
_cell_length_b     22.026716
_cell_length_c     11.268909
_cell_angle_alpha  90.046215
_cell_angle_beta   89.968948
_cell_angle_gamma 98.587908
loop_
_atom_site_label
_atom_site_type_symbol
_atom_site_fract_x
_atom_site_fract_y
_atom_site_fract_z
_atom_type_partial_charge
Tb0 Tb 0.16571 0.23964 0.53363 0.0
Tb1 Tb 0.12717 0.2213 0.53738 0.0
C2 C 0.14736 0.34971 0.52402 0.0
C3 C 0.20923 0.25908 0.59455 0.0
C4 C 0.23922 0.26497 0.68752 0.0
C5 C 0.23617 0.30381 0.5943 0.0
C6 C 0.22137 0.30068 0.54814 0.0
C7 C 0.21208 0.22267 0.69226 0.0
C8 C 0.2269 0.22576 0.73839 0.0
C9 C 0.19461 0.24764 0.52777 0.0
O10 O 0.15936 0.22072 0.71763 0.0
O11 O 0.1347 0.24308 0.71904 0.0
O12 O 0.13471 0.13627 0.59009 0.0
O13 O 0.15621 0.14812 0.4764 0.0
O14 O 0.10708 0.25205 0.59506 0.0
O15 O 0.10604 0.16656 0.49788 0.0
O16 O 0.13335 0.21203 0.35036 0.0
O17 O 0.15902 0.25332 0.35156 0.0
O18 O 0.15867 0.32745 0.57564 0.0
O19 O 0.13537 0.31418 0.48113 0.0
C20 C 0.14712 0.2323 0.77458 0.0
O21 O 0.18529 0.19754 0.5512 0.0
O22 O 0.18731 0.2935 0.50464 0.0
C23 C 0.14551 0.113 0.53479 0.0
C24 C 0.08298 0.21224 0.50667 0.0
C25 C 0.05224 0.22867 0.4649 0.0
C26 C 0.05587 0.17118 0.4991 0.0
C27 C 0.07103 0.16314 0.51962 0.0
C28 C 0.07956 0.2691 0.46692 0.0
C29 C 0.06434 0.27707 0.44533 0.0
C30 C 0.09828 0.20433 0.55188 0.0
C31 C 0.14629 0.23249 0.29493 0.0
H32 H 0.24531 0.33562 0.55495 0.0
H33 H 0.21954 0.32902 0.47247 0.0
H34 H 0.20302 0.18986 0.7299 0.0
H35 H 0.22884 0.19531 0.8104 0.0
H36 H 0.04691 0.13293 0.51556 0.0
H37 H 0.07335 0.11902 0.55132 0.0
H38 H 0.08856 0.30781 0.45626 0.0
H39 H 0.06203 0.32154 0.41582 0.0
Tb40 Tb 0.87353 0.2369 0.53221 0.0
Tb41 Tb 0.91201 0.25811 0.53311 0.0
C42 C 0.89227 0.12815 0.50446 0.0
C43 C 0.83044 0.23023 0.59264 0.0
C44 C 0.80128 0.24447 0.68491 0.0
C45 C 0.80596 0.18626 0.67938 0.0
C46 C 0.82033 0.17926 0.6338 0.0
C47 C 0.82592 0.28873 0.60028 0.0
C48 C 0.81152 0.29573 0.64593 0.0
C49 C 0.84453 0.22005 0.52836 0.0
O50 O 0.88049 0.2194 0.71348 0.0
O51 O 0.90481 0.27391 0.71509 0.0
O52 O 0.90414 0.34509 0.50509 0.0
O53 O 0.88075 0.32918 0.59671 0.0
O54 O 0.93263 0.24062 0.60932 0.0
O55 O 0.93269 0.30644 0.46734 0.0
O56 O 0.90551 0.23404 0.34972 0.0
O57 O 0.88128 0.26092 0.35135 0.0
O58 O 0.88057 0.15305 0.46758 0.0
O59 O 0.90443 0.16069 0.55172 0.0
C60 C 0.89264 0.24608 0.77125 0.0
O61 O 0.85308 0.26724 0.48094 0.0
O62 O 0.85271 0.18111 0.5733 0.0
C63 C 0.89278 0.3658 0.55815 0.0
C64 C 0.95609 0.26596 0.49965 0.0
C65 C 0.98717 0.25301 0.46308 0.0
C66 C 0.98162 0.30685 0.42846 0.0
C67 C 0.9663 0.31325 0.44676 0.0
C68 C 0.96143 0.21076 0.52883 0.0
C69 C 0.97679 0.20425 0.50994 0.0
C70 C 0.94099 0.27964 0.54043 0.0
C71 C 0.89329 0.24696 0.29369 0.0
H72 H 0.7984 0.14587 0.70902 0.0
H73 H 0.82336 0.1335 0.62742 0.0
H74 H 0.83329 0.32894 0.56765 0.0
H75 H 0.8082 0.34109 0.64669 0.0
H76 H 0.98927 0.34483 0.39033 0.0
H77 H 0.96258 0.35653 0.42445 0.0
H78 H 0.95392 0.1736 0.57076 0.0
H79 H 0.98073 0.16218 0.53747 0.0
Tb80 Tb 0.12605 0.7165 0.51413 0.0
Tb81 Tb 0.16453 0.74426 0.51578 0.0
C82 C 0.14691 0.61207 0.49855 0.0
C83 C 0.08181 0.7023 0.53964 0.0
C84 C 0.05112 0.72118 0.57611 0.0
C85 C 0.05487 0.66156 0.56578 0.0
C86 C 0.07001 0.65234 0.54842 0.0
C87 C 0.07825 0.76205 0.55207 0.0
C88 C 0.06305 0.77136 0.57035 0.0
C89 C 0.09716 0.6898 0.50432 0.0
O90 O 0.13228 0.74203 0.69759 0.0
O91 O 0.15698 0.72013 0.6967 0.0
O92 O 0.15644 0.82676 0.57627 0.0
O93 O 0.13236 0.81501 0.49427 0.0
O94 O 0.18541 0.71915 0.57081 0.0
O95 O 0.18486 0.80284 0.47215 0.0
O96 O 0.15748 0.75883 0.33376 0.0
O97 O 0.1336 0.70069 0.33307 0.0
O98 O 0.13469 0.63068 0.54319 0.0
O99 O 0.15849 0.65033 0.45743 0.0
C100 C 0.14472 0.73163 0.75398 0.0
O101 O 0.10529 0.72818 0.43299 0.0
O102 O 0.10559 0.66734 0.58287 0.0
C103 C 0.14455 0.84953 0.53666 0.0
C104 C 0.20785 0.75825 0.45955 0.0
C105 C 0.23738 0.74547 0.37414 0.0
C106 C 0.23322 0.80392 0.39248 0.0
C107 C 0.21867 0.81016 0.43505 0.0
C108 C 0.21176 0.6997 0.43702 0.0
C109 C 0.22635 0.69343 0.39442 0.0
C110 C 0.19348 0.76678 0.52112 0.0
C111 C 0.14552 0.73021 0.27648 0.0
H112 H 0.04603 0.62187 0.56611 0.0
H113 H 0.07243 0.60588 0.5372 0.0
H114 H 0.08713 0.80143 0.54473 0.0
H115 H 0.06058 0.81791 0.57809 0.0
H116 H 0.24142 0.84491 0.37802 0.0
H117 H 0.21603 0.8558 0.45273 0.0
H118 H 0.2037 0.65872 0.45502 0.0
H119 H 0.22907 0.64777 0.37866 0.0
Tb120 Tb 0.9117 0.76002 0.51403 0.0
Tb121 Tb 0.87326 0.73333 0.51547 0.0
C122 C 0.89138 0.86451 0.49695 0.0
C123 C 0.95581 0.77159 0.54115 0.0
C124 C 0.98654 0.75323 0.57558 0.0
C125 C 0.98238 0.81217 0.58439 0.0
C126 C 0.96721 0.82116 0.56773 0.0
C127 C 0.95978 0.71214 0.53604 0.0
C128 C 0.97501 0.70304 0.55358 0.0
C129 C 0.9406 0.78528 0.50441 0.0
O130 O 0.90549 0.73352 0.69607 0.0
O131 O 0.88083 0.75584 0.69815 0.0
O132 O 0.88093 0.65007 0.57652 0.0
O133 O 0.90508 0.66207 0.49541 0.0
O134 O 0.85262 0.76113 0.56949 0.0
O135 O 0.85266 0.67635 0.4728 0.0
O136 O 0.88029 0.7183 0.33247 0.0
O137 O 0.90414 0.77665 0.33426 0.0
O138 O 0.90304 0.84497 0.54806 0.0
O139 O 0.87989 0.82647 0.45409 0.0
C140 C 0.89326 0.74475 0.75399 0.0
O141 O 0.93237 0.74736 0.43271 0.0
O142 O 0.93223 0.80879 0.58212 0.0
C143 C 0.8932 0.62789 0.54272 0.0
C144 C 0.82996 0.72325 0.45901 0.0
C145 C 0.8003 0.73562 0.37571 0.0
C146 C 0.8052 0.6778 0.37937 0.0
C147 C 0.81981 0.6717 0.42102 0.0
C148 C 0.82531 0.78152 0.45099 0.0
C149 C 0.81067 0.78761 0.40929 0.0
C150 C 0.84428 0.71383 0.52061 0.0
C151 C 0.89246 0.74631 0.27644 0.0
H152 H 0.99095 0.85166 0.6018 0.0
H153 H 0.96448 0.86748 0.57111 0.0
H154 H 0.95126 0.67312 0.51457 0.0
H155 H 0.97788 0.65713 0.54492 0.0
H156 H 0.79766 0.637 0.35146 0.0
H157 H 0.82299 0.62618 0.42698 0.0
H158 H 0.83278 0.82222 0.48032 0.0
H159 H 0.80727 0.83283 0.40732 0.0
Tb160 Tb 0.66628 0.77555 0.06903 0.0
Tb161 Tb 0.62805 0.75984 0.0723 0.0
C162 C 0.64843 0.88572 0.06322 0.0
C163 C 0.70917 0.7781 0.13321 0.0
C164 C 0.73813 0.76199 0.22628 0.0
C165 C 0.73376 0.82069 0.21971 0.0
C166 C 0.71948 0.82861 0.17376 0.0
C167 C 0.71336 0.71909 0.14233 0.0
C168 C 0.72766 0.71115 0.18848 0.0
C169 C 0.69526 0.78922 0.06759 0.0
O170 O 0.65992 0.78755 0.25301 0.0
O171 O 0.63476 0.74152 0.25338 0.0
O172 O 0.63432 0.67277 1.01484 0.0
O173 O 0.65742 0.68033 0.11038 0.0
O174 O 0.60888 0.80363 0.04613 0.0
O175 O 0.6063 0.71094 0.11607 0.0
O176 O 0.63411 0.77427 0.88495 0.0
O177 O 0.65936 0.7581 0.8861 0.0
O178 O 0.65919 0.86102 1.00983 0.0
O179 O 0.63815 0.85132 0.1267 0.0
C180 C 0.64742 0.76372 0.30951 0.0
O181 O 0.6865 0.74242 1.02083 0.0
O182 O 0.68733 0.82952 0.11065 0.0
C183 C 0.64577 0.64739 0.05652 0.0
C184 C 0.58362 0.74608 0.03802 0.0
C185 C 0.55218 0.74533 0.98728 0.0
C186 C 0.55679 0.70796 0.07748 0.0
C187 C 0.5723 0.70848 0.10261 0.0
C188 C 0.57909 0.78074 0.94306 0.0
C189 C 0.56354 0.78007 0.91758 0.0
C190 C 0.5994 0.75707 0.08603 0.0
C191 C 0.64682 0.76616 0.82948 0.0
H192 H 0.7415 0.86076 0.24853 0.0
H193 H 0.7167 0.87473 0.16632 0.0
H194 H 0.70582 0.67919 0.11027 0.0
H195 H 0.73075 0.66541 0.19029 0.0
H196 H 0.54838 0.68074 0.13311 0.0
H197 H 0.57541 0.68201 0.17736 0.0
H198 H 0.58751 0.81047 0.89177 0.0
H199 H 0.56041 0.80817 0.84547 0.0
Tb200 Tb 0.37229 0.72025 0.06773 0.0
Tb201 Tb 0.41072 0.73743 0.07078 0.0
C202 C 0.39045 0.61129 0.05313 0.0
C203 C 0.32915 0.71384 0.13051 0.0
C204 C 0.29993 0.72523 0.22453 0.0
C205 C 0.30417 0.66711 0.20379 0.0
C206 C 0.31857 0.66156 0.15754 0.0
C207 C 0.32507 0.77214 0.15282 0.0
C208 C 0.31061 0.77772 0.19934 0.0
C209 C 0.34332 0.7058 0.06526 0.0
O210 O 0.37869 0.70673 0.25235 0.0
O211 O 0.40367 0.75473 0.25042 0.0
O212 O 0.40432 0.8249 1.01753 0.0
O213 O 0.38116 0.81447 0.11362 0.0
O214 O 0.43014 0.6953 0.04356 0.0
O215 O 0.43228 0.787 0.11718 0.0
O216 O 0.40472 0.72447 0.88439 0.0
O217 O 0.37921 0.73756 0.88327 0.0
O218 O 0.37946 0.63624 1.00438 0.0
O219 O 0.40094 0.64429 0.11739 0.0
C220 C 0.39131 0.73058 0.30781 0.0
O221 O 0.35202 0.75427 1.02391 0.0
O222 O 0.35131 0.66484 0.10466 0.0
C223 C 0.39269 0.84856 0.061 0.0
C224 C 0.45517 0.75494 0.03619 0.0
C225 C 0.48679 0.76141 0.98507 0.0
C226 C 0.48167 0.8 0.07107 0.0
C227 C 0.46608 0.79682 0.09612 0.0
C228 C 0.46019 0.7182 0.94634 0.0
C229 C 0.47582 0.72145 0.92112 0.0
C230 C 0.43944 0.74193 0.08515 0.0
C231 C 0.39206 0.73166 0.82798 0.0
H232 H 0.29614 0.62575 0.21922 0.0
H233 H 0.32125 0.61608 0.13888 0.0
H234 H 0.33286 0.81344 0.13164 0.0
H235 H 0.30771 0.82317 0.21439 0.0
H236 H 0.48977 0.83024 0.1242 0.0
H237 H 0.46262 0.82466 0.16765 0.0
H238 H 0.45213 0.6848 0.89941 0.0
H239 H 0.47937 0.69118 0.85421 0.0
Tb240 Tb 0.62798 0.25859 0.97991 0.0
Tb241 Tb 0.66629 0.27635 0.98355 0.0
C242 C 0.64611 0.14759 0.99906 0.0
C243 C 0.5835 0.24063 1.01586 0.0
C244 C 0.55155 0.2276 0.06077 0.0
C245 C 0.55816 0.17894 1.01174 0.0
C246 C 0.57392 0.18542 0.9893 0.0
C247 C 0.57699 0.2882 0.07006 0.0
C248 C 0.56124 0.28179 0.09215 0.0
C249 C 0.59921 0.25323 0.96534 0.0
O250 O 0.63386 0.27361 0.16634 0.0
O251 O 0.65942 0.26131 0.16849 0.0
O252 O 0.65893 0.36132 0.04233 0.0
O253 O 0.63774 0.35083 0.92679 0.0
O254 O 0.68664 0.24418 0.03186 0.0
O255 O 0.68722 0.33104 0.94166 0.0
O256 O 0.65983 0.28763 0.79842 0.0
O257 O 0.63499 0.23838 0.80143 0.0
O258 O 0.63459 0.17269 0.04038 0.0
O259 O 0.65769 0.18062 0.94461 0.0
C260 C 0.64653 0.26694 0.22329 0.0
O261 O 0.60847 0.30099 1.00311 0.0
O262 O 0.60647 0.20789 0.93679 0.0
C263 C 0.64804 0.38551 0.98985 0.0
C264 C 0.70945 0.28141 0.92176 0.0
C265 C 0.73901 0.26876 0.83615 0.0
C266 C 0.7339 0.32622 0.83584 0.0
C267 C 0.71935 0.33247 0.87855 0.0
C268 C 0.7143 0.2234 0.91775 0.0
C269 C 0.72889 0.21714 0.87475 0.0
C270 C 0.69528 0.29139 0.98546 0.0
C271 C 0.64727 0.26286 0.74337 0.0
H272 H 0.55105 0.13649 0.9868 0.0
H273 H 0.57846 0.14824 0.9455 0.0
H274 H 0.5839 0.33193 0.08923 0.0
H275 H 0.55657 0.32079 0.12739 0.0
H276 H 0.74127 0.36668 0.80429 0.0
H277 H 0.71604 0.37786 0.88151 0.0
H278 H 0.70706 0.18312 0.95146 0.0
H279 H 0.73247 0.17222 0.87599 0.0
Tb280 Tb 0.41087 0.24287 0.98203 0.0
Tb281 Tb 0.37237 0.21712 0.98266 0.0
C282 C 0.39112 0.3506 0.98212 0.0
C283 C 0.45473 0.24859 1.01428 0.0
C284 C 0.48551 0.23257 0.05829 0.0
C285 C 0.48035 0.28834 0.08573 0.0
C286 C 0.46517 0.29623 0.0638 0.0
C287 C 0.45972 0.19191 0.99138 0.0
C288 C 0.47492 0.18407 1.01308 0.0
C289 C 0.43984 0.26236 0.96848 0.0
O290 O 0.40419 0.25231 0.16774 0.0
O291 O 0.37932 0.20202 0.16495 0.0
O292 O 0.38072 0.13001 0.95928 0.0
O293 O 0.40469 0.14914 0.04242 0.0
O294 O 0.35125 0.22741 0.06066 0.0
O295 O 0.35224 0.17132 0.90484 0.0
O296 O 0.37908 0.24864 0.80429 0.0
O297 O 0.40297 0.22008 0.80083 0.0
O298 O 0.40327 0.32979 0.94101 0.0
O299 O 0.37871 0.31435 1.0156 0.0
C300 C 0.39153 0.2282 0.22281 0.0
O301 O 0.43111 0.21959 0.91018 0.0
O302 O 0.43188 0.29526 0.03298 0.0
C303 C 0.39264 0.11108 1.00838 0.0
C304 C 0.32901 0.21088 0.93897 0.0
C305 C 0.30061 0.23854 0.8553 0.0
C306 C 0.30121 0.19517 0.94604 0.0
C307 C 0.31522 0.18159 0.98718 0.0
C308 C 0.32859 0.25494 0.84947 0.0
C309 C 0.3145 0.26879 0.8082 0.0
C310 C 0.3434 0.19241 0.98232 0.0
C311 C 0.39092 0.23466 0.74533 0.0
H312 H 0.48824 0.32709 0.11827 0.0
H313 H 0.4618 0.3408 0.08009 0.0
H314 H 0.45207 0.15434 0.95197 0.0
H315 H 0.4785 0.14049 0.99128 0.0
H316 H 0.2908 0.17061 0.9837 0.0
H317 H 0.31528 0.14729 0.05604 0.0
H318 H 0.33911 0.27821 0.81118 0.0
H319 H 0.31448 0.30324 0.73976 0.0
C320 C 0.25876 0.26308 0.84974 0.0
C321 C 0.25525 0.26285 0.72789 0.0
C322 C 0.27352 0.25715 0.88974 0.0
C323 C 0.28542 0.25044 0.80976 0.0
H324 H 0.25 0.26758 0.91494 0.0
H325 H 0.27558 0.2573 0.98449 0.0
S326 S 0.28207 0.24429 0.48146 0.0
N327 N 0.26489 0.25406 0.52745 0.0
N328 N 0.2925 0.24265 0.6025 0.0
C329 C 0.2821 0.25079 0.68759 0.0
C330 C 0.26708 0.25697 0.64681 0.0
C331 C 0.75781 0.21707 0.71912 0.0
C332 C 0.75499 0.26305 0.79954 0.0
C333 C 0.77275 0.21128 0.68316 0.0
C334 C 0.78554 0.25107 0.72636 0.0
H335 H 0.74836 0.18585 0.68224 0.0
H336 H 0.77428 0.17584 0.61947 0.0
S337 S 0.78451 0.37515 0.94788 0.0
N338 N 0.76638 0.34651 0.92728 0.0
N339 N 0.79436 0.33551 0.86007 0.0
C340 C 0.78289 0.29644 0.80859 0.0
C341 C 0.76768 0.30241 0.84507 0.0
C342 C 0.27556 0.77112 0.20934 0.0
C343 C 0.28415 0.73082 0.2666 0.0
C344 C 0.26048 0.77531 0.244 0.0
C345 C 0.25332 0.7393 0.33726 0.0
H346 H 0.28043 0.79891 0.13557 0.0
H347 H 0.25431 0.80652 0.1963 0.0
S348 S 0.27128 0.63088 0.52352 0.0
N349 N 0.28464 0.65706 0.42636 0.0
N350 N 0.25639 0.66486 0.49115 0.0
C351 C 0.26188 0.69962 0.3966 0.0
C352 C 0.27723 0.69543 0.36146 0.0
C353 C 0.76669 0.79303 0.22146 0.0
C354 C 0.75384 0.75454 0.26693 0.0
C355 C 0.7816 0.78672 0.25697 0.0
C356 C 0.78433 0.74156 0.33934 0.0
H357 H 0.76523 0.82788 0.15643 0.0
H358 H 0.7911 0.81697 0.21829 0.0
S359 S 0.7546 0.6327 0.4931 0.0
N360 N 0.74484 0.67195 0.40403 0.0
N361 N 0.77277 0.66011 0.47085 0.0
C362 C 0.77156 0.70339 0.3869 0.0
C363 C 0.75638 0.70982 0.35071 0.0
C364 C 0.13144 0.94217 0.54868 0.0
C365 C 0.14503 0.91669 0.53905 0.0
C366 C 0.1317 0.00592 0.54901 0.0
C367 C 0.14552 0.04616 0.53703 0.0
H368 H 0.12054 0.91272 0.55685 0.0
H369 H 0.12097 0.02372 0.55662 0.0
S370 S 0.18425 0.00252 0.50848 0.0
N371 N 0.17269 0.93658 0.5177 0.0
N372 N 0.17313 0.05621 0.51663 0.0
C373 C 0.15918 0.02126 0.52712 0.0
C374 C 0.15895 0.95653 0.52869 0.0
C375 C 0.87955 0.45764 0.57269 0.0
C376 C 0.89322 0.43265 0.56619 0.0
C377 C 0.87968 0.52112 0.56793 0.0
C378 C 0.89348 0.56164 0.55666 0.0
H379 H 0.86864 0.42801 0.57724 0.0
H380 H 0.86884 0.53829 0.56942 0.0
S381 S 0.93253 0.51935 0.5539 0.0
N382 N 0.92102 0.45322 0.56047 0.0
N383 N 0.92126 0.57259 0.55157 0.0
C384 C 0.90728 0.53731 0.55606 0.0
C385 C 0.90715 0.47275 0.5609 0.0
C386 C 0.90403 0.97115 0.53444 0.0
C387 C 0.8913 0.93141 0.49126 0.0
C388 C 0.90427 0.03448 0.53594 0.0
C389 C 0.89181 0.06104 0.49439 0.0
H390 H 0.91392 0.95345 0.56884 0.0
H391 H 0.91434 0.06263 0.57175 0.0
S392 S 0.85591 0.97752 0.3662 0.0
N393 N 0.86606 0.92312 0.40149 0.0
N394 N 0.86651 0.04277 0.40406 0.0
C395 C 0.87909 0.02207 0.44804 0.0
C396 C 0.87885 0.95716 0.44656 0.0
C397 C 0.13392 0.50406 0.49976 0.0
C398 C 0.1476 0.54562 0.49898 0.0
C399 C 0.13402 0.44085 0.50688 0.0
C400 C 0.14781 0.41675 0.51534 0.0
H401 H 0.12298 0.52042 0.49496 0.0
H402 H 0.12315 0.41076 0.50778 0.0
S403 S 0.18684 0.50592 0.51452 0.0
N404 N 0.17538 0.55836 0.50496 0.0
N405 N 0.17557 0.43909 0.51956 0.0
C406 C 0.16162 0.45765 0.51375 0.0
C407 C 0.16152 0.52221 0.50491 0.0
C408 C 0.65785 0.55241 0.08669 0.0
C409 C 0.64586 0.58035 0.0394 0.0
C410 C 0.6585 0.48976 0.06952 0.0
C411 C 0.64722 0.45217 1.00392 0.0
H412 H 0.66689 0.57906 0.1376 0.0
H413 H 0.66796 0.4708 0.1083 0.0
S414 S 0.61333 0.5023 0.86069 0.0
N415 N 0.62237 0.56503 0.9236 0.0
N416 N 0.6236 0.4477 0.89139 0.0
C417 C 0.63515 0.47941 0.95594 0.0
C418 C 0.63446 0.54325 0.97369 0.0
C419 C 0.4062 0.9561 0.03633 0.0
C420 C 0.39247 0.91539 0.05017 0.0
C421 C 0.4062 0.01952 1.02474 0.0
C422 C 0.39245 0.04433 1.02419 0.0
H423 H 0.41705 0.93897 0.03521 0.0
H424 H 0.41704 0.04914 1.01408 0.0
S425 S 0.35339 0.95757 0.05823 0.0
N426 N 0.36475 0.90467 0.06361 0.0
N427 N 0.36476 0.02346 0.04071 0.0
C428 C 0.37865 0.00416 0.03813 0.0
C429 C 0.37865 0.93981 0.0515 0.0
C430 C 0.37768 0.44243 0.98977 0.0
C431 C 0.39141 0.41757 0.99437 0.0
C432 C 0.3775 0.50521 1.00812 0.0
C433 C 0.391 0.54525 0.03434 0.0
H434 H 0.36697 0.41317 0.97172 0.0
H435 H 0.36666 0.52227 1.00356 0.0
S436 S 0.42998 0.50324 0.05589 0.0
N437 N 0.4189 0.43798 1.02549 0.0
N438 N 0.41852 0.5558 0.06189 0.0
C439 C 0.40482 0.52105 0.03895 0.0
C440 C 0.40504 0.45728 1.01824 0.0
C441 C 0.65819 0.05267 0.96709 0.0
C442 C 0.6463 0.08064 1.01622 0.0
C443 C 0.65884 0.98998 0.98346 0.0
C444 C 0.64767 0.95244 0.05005 0.0
H445 H 0.66712 0.07929 0.91519 0.0
H446 H 0.66821 0.9709 0.94316 0.0
S447 S 0.61413 0.00282 0.19881 0.0
N448 N 0.62307 0.0655 0.13526 0.0
N449 N 0.6243 0.94813 0.166 0.0
C450 C 0.63572 0.97978 0.10011 0.0
C451 C 0.63503 0.04363 0.08318 0.0
C452 C 0.13317 0.22873 0.09593 0.0
C453 C 0.14673 0.23222 0.16242 0.0
C454 C 0.13342 0.22933 0.97109 0.0
C455 C 0.14722 0.23268 0.90712 0.0
H456 H 0.12225 0.22612 0.1405 0.0
H457 H 0.12264 0.22659 0.92452 0.0
S458 S 0.18599 0.2415 0.03849 0.0
N459 N 0.17443 0.23838 0.15393 0.0
N460 N 0.17485 0.23942 0.9208 0.0
C461 C 0.16087 0.23581 0.97257 0.0
C462 C 0.16064 0.23565 0.09953 0.0
C463 C 0.90652 0.25491 0.09404 0.0
C464 C 0.89289 0.24583 0.16066 0.0
C465 C 0.90634 0.25543 0.96885 0.0
C466 C 0.89253 0.24572 0.90439 0.0
H467 H 0.91746 0.2626 0.13888 0.0
H468 H 0.91716 0.26297 0.92229 0.0
S469 S 0.85359 0.21805 0.03591 0.0
N470 N 0.86513 0.22601 0.15166 0.0
N471 N 0.8648 0.22622 0.91815 0.0
C472 C 0.87881 0.23584 0.97003 0.0
C473 C 0.87899 0.23614 0.09734 0.0
C474 C 0.13174 0.71974 0.07909 0.0
C475 C 0.14556 0.73081 0.14334 0.0
C476 C 0.13151 0.72107 0.95388 0.0
C477 C 0.1451 0.73242 0.88707 0.0
H478 H 0.12095 0.71054 0.12585 0.0
H479 H 0.12057 0.71221 0.90916 0.0
S480 S 0.1844 0.76436 1.01142 0.0
N481 N 0.17324 0.75393 0.12924 0.0
N482 N 0.17283 0.75576 0.89585 0.0
C483 C 0.159 0.74348 0.95028 0.0
C484 C 0.15922 0.74289 0.07753 0.0
C485 C 0.87952 0.73652 0.95151 0.0
C486 C 0.89336 0.74472 0.88717 0.0
C487 C 0.8793 0.73627 0.07667 0.0
C488 C 0.89291 0.74539 0.14345 0.0
H489 H 0.86871 0.72969 0.90489 0.0
H490 H 0.86835 0.72974 0.12135 0.0
S491 S 0.93226 0.76868 1.01924 0.0
N492 N 0.92109 0.76162 0.90128 0.0
N493 N 0.92068 0.76201 0.13486 0.0
C494 C 0.90683 0.7537 0.08031 0.0
C495 C 0.90706 0.75309 0.95298 0.0
C496 C 0.63369 0.75701 0.50606 0.0
C497 C 0.64751 0.76338 0.44185 0.0
C498 C 0.63353 0.75846 0.63088 0.0
C499 C 0.64719 0.76563 0.69697 0.0
H500 H 0.62286 0.75163 0.45965 0.0
H501 H 0.6226 0.75346 0.67572 0.0
S502 S 0.68651 0.78308 0.57161 0.0
N503 N 0.67523 0.77628 0.45443 0.0
N504 N 0.675 0.77911 0.68741 0.0
C505 C 0.6611 0.77164 0.63362 0.0
C506 C 0.66125 0.77051 0.50675 0.0
C507 C 0.37833 0.72256 0.6315 0.0
C508 C 0.39217 0.73215 0.69549 0.0
C509 C 0.37812 0.72161 0.5067 0.0
C510 C 0.39175 0.73093 0.44027 0.0
H511 H 0.3675 0.71504 0.67803 0.0
H512 H 0.36717 0.714 0.46212 0.0
S513 S 0.43112 0.75841 0.5643 0.0
N514 N 0.41991 0.75148 0.68193 0.0
N515 N 0.41956 0.74974 0.44883 0.0
C516 C 0.40568 0.74079 0.50318 0.0
C517 C 0.40589 0.74135 0.63012 0.0
C518 C 0.66018 0.27628 0.41984 0.0
C519 C 0.64636 0.26557 0.35571 0.0
C520 C 0.66038 0.27544 0.54457 0.0
C521 C 0.64678 0.26309 0.61089 0.0
H522 H 0.67099 0.28603 0.37348 0.0
H523 H 0.67132 0.28422 0.58916 0.0
S524 S 0.60748 0.23106 0.48623 0.0
N525 N 0.61869 0.24162 0.36872 0.0
N526 N 0.61901 0.23987 0.60195 0.0
C527 C 0.63287 0.25192 0.5478 0.0
C528 C 0.63267 0.25327 0.42082 0.0
C529 C 0.40465 0.2354 0.42259 0.0
C530 C 0.39105 0.22986 0.35587 0.0
C531 C 0.40448 0.23684 0.54765 0.0
C532 C 0.39072 0.234 0.61214 0.0
H533 H 0.41557 0.2379 0.37796 0.0
H534 H 0.41529 0.24064 0.59408 0.0
S535 S 0.35189 0.22119 0.48052 0.0
N536 N 0.36338 0.22249 0.36478 0.0
N537 N 0.36308 0.22609 0.59834 0.0
C538 C 0.37704 0.22929 0.54649 0.0
C539 C 0.3772 0.22691 0.41914 0.0
C540 C 0.02485 0.19327 0.40413 0.0
C541 C 0.03584 0.23818 0.45701 0.0
C542 C 1.0092 0.19858 0.40495 0.0
C543 C 1.00388 0.2493 0.45775 0.0
H544 H 0.02836 0.15329 0.36245 0.0
H545 H 1.0012 0.16263 0.36409 0.0
S546 S 0.02764 0.37807 0.61385 0.0
N547 N 0.04001 0.33405 0.56783 0.0
N548 N 1.01077 0.34443 0.56728 0.0
C549 C 1.01471 0.29477 0.51 0.0
C550 C 0.03062 0.28918 0.51 0.0
C551 C 1.01383 0.78239 0.51101 0.0
C552 C 1.00299 0.74529 0.58147 0.0
C553 C 0.02934 0.77521 0.51198 0.0
C554 C 0.03474 0.73079 0.58397 0.0
H555 H 1.01023 0.81646 0.45236 0.0
H556 H 0.03708 0.80367 0.45325 0.0
S557 S 1.01127 0.62634 0.79445 0.0
N558 N 0.9989 0.66514 0.73076 0.0
N559 N 0.02803 0.65221 0.73456 0.0
C560 C 0.02407 0.69456 0.65753 0.0
C561 C 1.00823 0.70162 0.65574 0.0
C562 C 0.52452 0.69751 0.9741 0.0
C563 C 0.53561 0.75053 0.97248 0.0
C564 C 0.50882 0.70146 0.97298 0.0
C565 C 0.50349 0.75863 0.97104 0.0
H566 H 0.52801 0.65248 0.9785 0.0
H567 H 0.50079 0.65933 0.97841 0.0
S568 S 0.5277 0.91136 0.95962 0.0
N569 N 0.54005 0.86216 0.965 0.0
N570 N 0.51062 0.86939 0.96022 0.0
C571 C 0.51444 0.81194 0.96524 0.0
C572 C 0.53044 0.80795 0.96632 0.0
C573 C 0.50955 0.2039 0.96925 0.0
C574 C 0.50213 0.22694 0.0664 0.0
C575 C 0.52537 0.20265 0.96991 0.0
C576 C 0.53453 0.22427 0.06785 0.0
H577 H 0.50315 0.18861 0.89006 0.0
H578 H 0.53055 0.18655 0.89104 0.0
S579 S 0.52047 0.28237 0.35038 0.0
N580 N 0.50501 0.2673 0.26719 0.0
N581 N 0.5347 0.26463 0.26881 0.0
C582 C 0.52718 0.24533 0.16739 0.0
C583 C 0.51104 0.24674 0.16657 0.0
loop_
_geom_bond_atom_site_label_1
_geom_bond_atom_site_label_2
_geom_bond_distance
_geom_bond_site_symmetry_2
_ccdc_geom_bond_type
Tb0 C9 2.764 . S
Tb0 O10 2.325 . S
Tb0 O13 2.303 . S
Tb0 O17 2.322 . S
Tb0 O18 2.349 . S
Tb0 O21 2.415 . S
Tb0 O22 2.399 . S
Tb1 O11 2.322 . S
Tb1 O12 2.349 . S
Tb1 O14 2.415 . S
Tb1 O15 2.399 . S
Tb1 O16 2.325 . S
Tb1 O19 2.303 . S
Tb1 C30 2.764 . S
C2 O18 1.261 . S
C2 O19 1.257 . S
C3 C6 1.358 . S
C3 C7 1.332 . S
C3 C9 1.504 . S
C4 C5 1.373 . S
C4 C8 1.308 . S
C5 C4 1.373 . S
C5 C6 1.429 . S
C5 H32 0.932 . S
C6 C3 1.358 . S
C6 C5 1.429 . S
C6 H33 0.930 . S
C7 C3 1.332 . S
C7 C8 1.394 . S
C7 H34 0.932 . S
C8 C4 1.308 . S
C8 C7 1.394 . S
C8 H35 0.929 . S
C9 Tb0 2.764 . S
C9 C3 1.504 . S
C9 O21 1.239 . S
C9 O22 1.263 . S
O10 Tb0 2.325 . S
O10 C20 1.236 . S
O11 Tb1 2.322 . S
O11 C20 1.257 . S
O12 Tb1 2.349 . S
O12 C23 1.261 . S
O13 Tb0 2.303 . S
O13 C23 1.257 . S
O14 Tb1 2.415 . S
O14 C30 1.239 . S
O15 Tb1 2.399 . S
O15 C30 1.263 . S
O16 Tb1 2.325 . S
O16 C31 1.236 . S
O17 Tb0 2.322 . S
O17 C31 1.257 . S
O18 Tb0 2.349 . S
O18 C2 1.261 . S
O19 Tb1 2.303 . S
O19 C2 1.257 . S
C20 O10 1.236 . S
C20 O11 1.257 . S
O21 Tb0 2.415 . S
O21 C9 1.239 . S
O22 Tb0 2.399 . S
O22 C9 1.263 . S
C23 O12 1.261 . S
C23 O13 1.257 . S
C24 C27 1.358 . S
C24 C28 1.332 . S
C24 C30 1.504 . S
C25 C26 1.373 . S
C25 C29 1.308 . S
C26 C25 1.373 . S
C26 C27 1.429 . S
C26 H36 0.932 . S
C27 C24 1.358 . S
C27 C26 1.429 . S
C27 H37 0.930 . S
C28 C24 1.332 . S
C28 C29 1.394 . S
C28 H38 0.932 . S
C29 C25 1.308 . S
C29 C28 1.394 . S
C29 H39 0.929 . S
C30 Tb1 2.764 . S
C30 O14 1.239 . S
C30 O15 1.263 . S
C30 C24 1.504 . S
C31 O16 1.236 . S
C31 O17 1.257 . S
H32 C5 0.932 . S
H33 C6 0.930 . S
H34 C7 0.932 . S
H35 C8 0.929 . S
H36 C26 0.932 . S
H37 C27 0.930 . S
H38 C28 0.932 . S
H39 C29 0.929 . S
Tb40 C49 2.764 . S
Tb40 O50 2.325 . S
Tb40 O53 2.303 . S
Tb40 O57 2.322 . S
Tb40 O58 2.349 . S
Tb40 O61 2.415 . S
Tb40 O62 2.399 . S
Tb41 O51 2.322 . S
Tb41 O52 2.349 . S
Tb41 O54 2.415 . S
Tb41 O55 2.399 . S
Tb41 O56 2.325 . S
Tb41 O59 2.303 . S
Tb41 C70 2.764 . S
C42 O58 1.261 . S
C42 O59 1.257 . S
C43 C46 1.358 . S
C43 C47 1.332 . S
C43 C49 1.504 . S
C44 C45 1.373 . S
C44 C48 1.308 . S
C45 C44 1.373 . S
C45 C46 1.429 . S
C45 H72 0.932 . S
C46 C43 1.358 . S
C46 C45 1.429 . S
C46 H73 0.930 . S
C47 C43 1.332 . S
C47 C48 1.394 . S
C47 H74 0.932 . S
C48 C44 1.308 . S
C48 C47 1.394 . S
C48 H75 0.929 . S
C49 Tb40 2.764 . S
C49 C43 1.504 . S
C49 O61 1.239 . S
C49 O62 1.263 . S
O50 Tb40 2.325 . S
O50 C60 1.236 . S
O51 Tb41 2.322 . S
O51 C60 1.257 . S
O52 Tb41 2.349 . S
O52 C63 1.261 . S
O53 Tb40 2.303 . S
O53 C63 1.257 . S
O54 Tb41 2.415 . S
O54 C70 1.239 . S
O55 Tb41 2.399 . S
O55 C70 1.263 . S
O56 Tb41 2.325 . S
O56 C71 1.236 . S
O57 Tb40 2.322 . S
O57 C71 1.257 . S
O58 Tb40 2.349 . S
O58 C42 1.261 . S
O59 Tb41 2.303 . S
O59 C42 1.257 . S
C60 O50 1.236 . S
C60 O51 1.257 . S
O61 Tb40 2.415 . S
O61 C49 1.239 . S
O62 Tb40 2.399 . S
O62 C49 1.263 . S
C63 O52 1.261 . S
C63 O53 1.257 . S
C64 C67 1.358 . S
C64 C68 1.332 . S
C64 C70 1.504 . S
C65 C66 1.373 . S
C65 C69 1.308 . S
C66 C65 1.373 . S
C66 C67 1.429 . S
C66 H76 0.932 . S
C67 C64 1.358 . S
C67 C66 1.429 . S
C67 H77 0.930 . S
C68 C64 1.332 . S
C68 C69 1.394 . S
C68 H78 0.932 . S
C69 C65 1.308 . S
C69 C68 1.394 . S
C69 H79 0.929 . S
C70 Tb41 2.764 . S
C70 O54 1.239 . S
C70 O55 1.263 . S
C70 C64 1.504 . S
C71 O56 1.236 . S
C71 O57 1.257 . S
H72 C45 0.932 . S
H73 C46 0.930 . S
H74 C47 0.932 . S
H75 C48 0.929 . S
H76 C66 0.932 . S
H77 C67 0.930 . S
H78 C68 0.932 . S
H79 C69 0.929 . S
Tb80 C89 2.764 . S
Tb80 O90 2.325 . S
Tb80 O93 2.303 . S
Tb80 O97 2.322 . S
Tb80 O98 2.349 . S
Tb80 O101 2.415 . S
Tb80 O102 2.399 . S
Tb81 O91 2.322 . S
Tb81 O92 2.349 . S
Tb81 O94 2.415 . S
Tb81 O95 2.399 . S
Tb81 O96 2.325 . S
Tb81 O99 2.303 . S
Tb81 C110 2.764 . S
C82 O98 1.261 . S
C82 O99 1.257 . S
C83 C86 1.358 . S
C83 C87 1.332 . S
C83 C89 1.504 . S
C84 C85 1.373 . S
C84 C88 1.308 . S
C85 C84 1.373 . S
C85 C86 1.429 . S
C85 H112 0.932 . S
C86 C83 1.358 . S
C86 C85 1.429 . S
C86 H113 0.930 . S
C87 C83 1.332 . S
C87 C88 1.394 . S
C87 H114 0.932 . S
C88 C84 1.308 . S
C88 C87 1.394 . S
C88 H115 0.929 . S
C89 Tb80 2.764 . S
C89 C83 1.504 . S
C89 O101 1.239 . S
C89 O102 1.263 . S
O90 Tb80 2.325 . S
O90 C100 1.236 . S
O91 Tb81 2.322 . S
O91 C100 1.257 . S
O92 Tb81 2.349 . S
O92 C103 1.261 . S
O93 Tb80 2.303 . S
O93 C103 1.257 . S
O94 Tb81 2.415 . S
O94 C110 1.239 . S
O95 Tb81 2.399 . S
O95 C110 1.263 . S
O96 Tb81 2.325 . S
O96 C111 1.236 . S
O97 Tb80 2.322 . S
O97 C111 1.257 . S
O98 Tb80 2.349 . S
O98 C82 1.261 . S
O99 Tb81 2.303 . S
O99 C82 1.257 . S
C100 O90 1.236 . S
C100 O91 1.257 . S
O101 Tb80 2.415 . S
O101 C89 1.239 . S
O102 Tb80 2.399 . S
O102 C89 1.263 . S
C103 O92 1.261 . S
C103 O93 1.257 . S
C104 C107 1.358 . S
C104 C108 1.332 . S
C104 C110 1.504 . S
C105 C106 1.373 . S
C105 C109 1.308 . S
C106 C105 1.373 . S
C106 C107 1.429 . S
C106 H116 0.932 . S
C107 C104 1.358 . S
C107 C106 1.429 . S
C107 H117 0.930 . S
C108 C104 1.332 . S
C108 C109 1.394 . S
C108 H118 0.932 . S
C109 C105 1.308 . S
C109 C108 1.394 . S
C109 H119 0.929 . S
C110 Tb81 2.764 . S
C110 O94 1.239 . S
C110 O95 1.263 . S
C110 C104 1.504 . S
C111 O96 1.236 . S
C111 O97 1.257 . S
H112 C85 0.932 . S
H113 C86 0.930 . S
H114 C87 0.932 . S
H115 C88 0.929 . S
H116 C106 0.932 . S
H117 C107 0.930 . S
H118 C108 0.932 . S
H119 C109 0.929 . S
Tb120 C129 2.764 . S
Tb120 O130 2.325 . S
Tb120 O133 2.303 . S
Tb120 O137 2.322 . S
Tb120 O138 2.349 . S
Tb120 O141 2.415 . S
Tb120 O142 2.399 . S
Tb121 O131 2.322 . S
Tb121 O132 2.349 . S
Tb121 O134 2.415 . S
Tb121 O135 2.399 . S
Tb121 O136 2.325 . S
Tb121 O139 2.303 . S
Tb121 C150 2.764 . S
C122 O138 1.261 . S
C122 O139 1.257 . S
C123 C126 1.358 . S
C123 C127 1.332 . S
C123 C129 1.504 . S
C124 C125 1.373 . S
C124 C128 1.308 . S
C125 C124 1.373 . S
C125 C126 1.429 . S
C125 H152 0.932 . S
C126 C123 1.358 . S
C126 C125 1.429 . S
C126 H153 0.930 . S
C127 C123 1.332 . S
C127 C128 1.394 . S
C127 H154 0.932 . S
C128 C124 1.308 . S
C128 C127 1.394 . S
C128 H155 0.929 . S
C129 Tb120 2.764 . S
C129 C123 1.504 . S
C129 O141 1.239 . S
C129 O142 1.263 . S
O130 Tb120 2.325 . S
O130 C140 1.236 . S
O131 Tb121 2.322 . S
O131 C140 1.257 . S
O132 Tb121 2.349 . S
O132 C143 1.261 . S
O133 Tb120 2.303 . S
O133 C143 1.257 . S
O134 Tb121 2.415 . S
O134 C150 1.239 . S
O135 Tb121 2.399 . S
O135 C150 1.263 . S
O136 Tb121 2.325 . S
O136 C151 1.236 . S
O137 Tb120 2.322 . S
O137 C151 1.257 . S
O138 Tb120 2.349 . S
O138 C122 1.261 . S
O139 Tb121 2.303 . S
O139 C122 1.257 . S
C140 O130 1.236 . S
C140 O131 1.257 . S
O141 Tb120 2.415 . S
O141 C129 1.239 . S
O142 Tb120 2.399 . S
O142 C129 1.263 . S
C143 O132 1.261 . S
C143 O133 1.257 . S
C144 C147 1.358 . S
C144 C148 1.332 . S
C144 C150 1.504 . S
C145 C146 1.373 . S
C145 C149 1.308 . S
C146 C145 1.373 . S
C146 C147 1.429 . S
C146 H156 0.932 . S
C147 C144 1.358 . S
C147 C146 1.429 . S
C147 H157 0.930 . S
C148 C144 1.332 . S
C148 C149 1.394 . S
C148 H158 0.932 . S
C149 C145 1.308 . S
C149 C148 1.394 . S
C149 H159 0.929 . S
C150 Tb121 2.764 . S
C150 O134 1.239 . S
C150 O135 1.263 . S
C150 C144 1.504 . S
C151 O136 1.236 . S
C151 O137 1.257 . S
H152 C125 0.932 . S
H153 C126 0.930 . S
H154 C127 0.932 . S
H155 C128 0.929 . S
H156 C146 0.932 . S
H157 C147 0.930 . S
H158 C148 0.932 . S
H159 C149 0.929 . S
Tb160 C169 2.764 1_556 S
Tb160 O170 2.325 1_556 S
Tb160 O173 2.303 . S
Tb160 O177 2.322 . S
Tb160 O178 2.349 . S
Tb160 O181 2.415 1_556 S
Tb160 O182 2.399 1_556 S
Tb161 O171 2.322 . S
Tb161 O172 2.349 . S
Tb161 O174 2.415 1_554 S
Tb161 O175 2.399 1_554 S
Tb161 O176 2.325 1_554 S
Tb161 O179 2.303 . S
Tb161 C190 2.764 1_554 S
C162 O178 1.261 . S
C162 O179 1.257 1_556 S
C163 C166 1.358 . S
C163 C167 1.332 . S
C163 C169 1.504 . S
C164 C165 1.373 . S
C164 C168 1.308 . S
C165 C164 1.373 . S
C165 C166 1.429 . S
C165 H192 0.932 . S
C166 C163 1.358 . S
C166 C165 1.429 . S
C166 H193 0.930 . S
C167 C163 1.332 . S
C167 C168 1.394 . S
C167 H194 0.932 . S
C168 C164 1.308 . S
C168 C167 1.394 . S
C168 H195 0.929 . S
C169 Tb160 2.764 1_554 S
C169 C163 1.504 . S
C169 O181 1.239 . S
C169 O182 1.263 . S
O170 Tb160 2.325 1_554 S
O170 C180 1.236 . S
O171 Tb161 2.322 . S
O171 C180 1.257 . S
O172 Tb161 2.349 . S
O172 C183 1.261 . S
O173 Tb160 2.303 . S
O173 C183 1.257 1_556 S
O174 Tb161 2.415 1_556 S
O174 C190 1.239 . S
O175 Tb161 2.399 1_556 S
O175 C190 1.263 . S
O176 Tb161 2.325 1_556 S
O176 C191 1.236 . S
O177 Tb160 2.322 . S
O177 C191 1.257 . S
O178 Tb160 2.349 . S
O178 C162 1.261 . S
O179 Tb161 2.303 . S
O179 C162 1.257 1_554 S
C180 O170 1.236 . S
C180 O171 1.257 . S
O181 Tb160 2.415 1_554 S
O181 C169 1.239 . S
O182 Tb160 2.399 1_554 S
O182 C169 1.263 . S
C183 O172 1.261 . S
C183 O173 1.257 1_554 S
C184 C187 1.358 . S
C184 C188 1.332 . S
C184 C190 1.504 . S
C185 C186 1.373 . S
C185 C189 1.308 . S
C186 C185 1.373 . S
C186 C187 1.429 . S
C186 H196 0.932 . S
C187 C184 1.358 . S
C187 C186 1.429 . S
C187 H197 0.930 . S
C188 C184 1.332 . S
C188 C189 1.394 . S
C188 H198 0.932 . S
C189 C185 1.308 . S
C189 C188 1.394 . S
C189 H199 0.929 . S
C190 Tb161 2.764 1_556 S
C190 O174 1.239 . S
C190 O175 1.263 . S
C190 C184 1.504 . S
C191 O176 1.236 . S
C191 O177 1.257 . S
H192 C165 0.932 . S
H193 C166 0.930 . S
H194 C167 0.932 . S
H195 C168 0.929 . S
H196 C186 0.932 . S
H197 C187 0.930 . S
H198 C188 0.932 . S
H199 C189 0.929 . S
Tb200 C209 2.764 1_556 S
Tb200 O210 2.325 1_556 S
Tb200 O213 2.303 . S
Tb200 O217 2.322 . S
Tb200 O218 2.349 . S
Tb200 O221 2.415 1_556 S
Tb200 O222 2.399 1_556 S
Tb201 O211 2.322 . S
Tb201 O212 2.349 . S
Tb201 O214 2.415 1_554 S
Tb201 O215 2.399 1_554 S
Tb201 O216 2.325 1_554 S
Tb201 O219 2.303 . S
Tb201 C230 2.764 1_554 S
C202 O218 1.261 . S
C202 O219 1.257 1_556 S
C203 C206 1.358 . S
C203 C207 1.332 . S
C203 C209 1.504 . S
C204 C205 1.373 . S
C204 C208 1.308 . S
C205 C204 1.373 . S
C205 C206 1.429 . S
C205 H232 0.932 . S
C206 C203 1.358 . S
C206 C205 1.429 . S
C206 H233 0.930 . S
C207 C203 1.332 . S
C207 C208 1.394 . S
C207 H234 0.932 . S
C208 C204 1.308 . S
C208 C207 1.394 . S
C208 H235 0.929 . S
C209 Tb200 2.764 1_554 S
C209 C203 1.504 . S
C209 O221 1.239 . S
C209 O222 1.263 . S
O210 Tb200 2.325 1_554 S
O210 C220 1.236 . S
O211 Tb201 2.322 . S
O211 C220 1.257 . S
O212 Tb201 2.349 . S
O212 C223 1.261 . S
O213 Tb200 2.303 . S
O213 C223 1.257 1_556 S
O214 Tb201 2.415 1_556 S
O214 C230 1.239 . S
O215 Tb201 2.399 1_556 S
O215 C230 1.263 . S
O216 Tb201 2.325 1_556 S
O216 C231 1.236 . S
O217 Tb200 2.322 . S
O217 C231 1.257 . S
O218 Tb200 2.349 . S
O218 C202 1.261 . S
O219 Tb201 2.303 . S
O219 C202 1.257 1_554 S
C220 O210 1.236 . S
C220 O211 1.257 . S
O221 Tb200 2.415 1_554 S
O221 C209 1.239 . S
O222 Tb200 2.399 1_554 S
O222 C209 1.263 . S
C223 O212 1.261 . S
C223 O213 1.257 1_554 S
C224 C227 1.358 . S
C224 C228 1.332 . S
C224 C230 1.504 . S
C225 C226 1.373 . S
C225 C229 1.308 . S
C226 C225 1.373 . S
C226 C227 1.429 . S
C226 H236 0.932 . S
C227 C224 1.358 . S
C227 C226 1.429 . S
C227 H237 0.930 . S
C228 C224 1.332 . S
C228 C229 1.394 . S
C228 H238 0.932 . S
C229 C225 1.308 . S
C229 C228 1.394 . S
C229 H239 0.929 . S
C230 Tb201 2.764 1_556 S
C230 O214 1.239 . S
C230 O215 1.263 . S
C230 C224 1.504 . S
C231 O216 1.236 . S
C231 O217 1.257 . S
H232 C205 0.932 . S
H233 C206 0.930 . S
H234 C207 0.932 . S
H235 C208 0.929 . S
H236 C226 0.932 . S
H237 C227 0.930 . S
H238 C228 0.932 . S
H239 C229 0.929 . S
Tb240 C249 2.764 1_556 S
Tb240 O250 2.325 1_556 S
Tb240 O253 2.303 . S
Tb240 O257 2.322 . S
Tb240 O258 2.349 . S
Tb240 O261 2.415 1_556 S
Tb240 O262 2.399 1_556 S
Tb241 O251 2.322 . S
Tb241 O252 2.349 . S
Tb241 O254 2.415 1_554 S
Tb241 O255 2.399 1_554 S
Tb241 O256 2.325 1_554 S
Tb241 O259 2.303 . S
Tb241 C270 2.764 1_554 S
C242 O258 1.261 . S
C242 O259 1.257 1_556 S
C243 C246 1.358 . S
C243 C247 1.332 . S
C243 C249 1.504 . S
C244 C245 1.373 . S
C244 C248 1.308 . S
C245 C244 1.373 . S
C245 C246 1.429 . S
C245 H272 0.932 . S
C246 C243 1.358 . S
C246 C245 1.429 . S
C246 H273 0.930 . S
C247 C243 1.332 . S
C247 C248 1.394 . S
C247 H274 0.932 . S
C248 C244 1.308 . S
C248 C247 1.394 . S
C248 H275 0.929 . S
C249 Tb240 2.764 1_554 S
C249 C243 1.504 . S
C249 O261 1.239 . S
C249 O262 1.263 . S
O250 Tb240 2.325 1_554 S
O250 C260 1.236 . S
O251 Tb241 2.322 . S
O251 C260 1.257 . S
O252 Tb241 2.349 . S
O252 C263 1.261 . S
O253 Tb240 2.303 . S
O253 C263 1.257 1_556 S
O254 Tb241 2.415 1_556 S
O254 C270 1.239 . S
O255 Tb241 2.399 1_556 S
O255 C270 1.263 . S
O256 Tb241 2.325 1_556 S
O256 C271 1.236 . S
O257 Tb240 2.322 . S
O257 C271 1.257 . S
O258 Tb240 2.349 . S
O258 C242 1.261 . S
O259 Tb241 2.303 . S
O259 C242 1.257 1_554 S
C260 O250 1.236 . S
C260 O251 1.257 . S
O261 Tb240 2.415 1_554 S
O261 C249 1.239 . S
O262 Tb240 2.399 1_554 S
O262 C249 1.263 . S
C263 O252 1.261 . S
C263 O253 1.257 1_554 S
C264 C267 1.358 . S
C264 C268 1.332 . S
C264 C270 1.504 . S
C265 C266 1.373 . S
C265 C269 1.308 . S
C266 C265 1.373 . S
C266 C267 1.429 . S
C266 H276 0.932 . S
C267 C264 1.358 . S
C267 C266 1.429 . S
C267 H277 0.930 . S
C268 C264 1.332 . S
C268 C269 1.394 . S
C268 H278 0.932 . S
C269 C265 1.308 . S
C269 C268 1.394 . S
C269 H279 0.929 . S
C270 Tb241 2.764 1_556 S
C270 O254 1.239 . S
C270 O255 1.263 . S
C270 C264 1.504 . S
C271 O256 1.236 . S
C271 O257 1.257 . S
H272 C245 0.932 . S
H273 C246 0.930 . S
H274 C247 0.932 . S
H275 C248 0.929 . S
H276 C266 0.932 . S
H277 C267 0.930 . S
H278 C268 0.932 . S
H279 C269 0.929 . S
Tb280 C289 2.764 1_556 S
Tb280 O290 2.325 1_556 S
Tb280 O293 2.303 . S
Tb280 O297 2.322 . S
Tb280 O298 2.349 . S
Tb280 O301 2.415 1_556 S
Tb280 O302 2.399 1_556 S
Tb281 O291 2.322 . S
Tb281 O292 2.349 . S
Tb281 O294 2.415 1_554 S
Tb281 O295 2.399 1_554 S
Tb281 O296 2.325 1_554 S
Tb281 O299 2.303 . S
Tb281 C310 2.764 1_554 S
C282 O298 1.261 . S
C282 O299 1.257 1_556 S
C283 C286 1.358 . S
C283 C287 1.332 . S
C283 C289 1.504 . S
C284 C285 1.373 . S
C284 C288 1.308 . S
C285 C284 1.373 . S
C285 C286 1.429 . S
C285 H312 0.932 . S
C286 C283 1.358 . S
C286 C285 1.429 . S
C286 H313 0.930 . S
C287 C283 1.332 . S
C287 C288 1.394 . S
C287 H314 0.932 . S
C288 C284 1.308 . S
C288 C287 1.394 . S
C288 H315 0.929 . S
C289 Tb280 2.764 1_554 S
C289 C283 1.504 . S
C289 O301 1.239 . S
C289 O302 1.263 . S
O290 Tb280 2.325 1_554 S
O290 C300 1.236 . S
O291 Tb281 2.322 . S
O291 C300 1.257 . S
O292 Tb281 2.349 . S
O292 C303 1.261 . S
O293 Tb280 2.303 . S
O293 C303 1.257 1_556 S
O294 Tb281 2.415 1_556 S
O294 C310 1.239 . S
O295 Tb281 2.399 1_556 S
O295 C310 1.263 . S
O296 Tb281 2.325 1_556 S
O296 C311 1.236 . S
O297 Tb280 2.322 . S
O297 C311 1.257 . S
O298 Tb280 2.349 . S
O298 C282 1.261 . S
O299 Tb281 2.303 . S
O299 C282 1.257 1_554 S
C300 O290 1.236 . S
C300 O291 1.257 . S
O301 Tb280 2.415 1_554 S
O301 C289 1.239 . S
O302 Tb280 2.399 1_554 S
O302 C289 1.263 . S
C303 O292 1.261 . S
C303 O293 1.257 1_554 S
C304 C307 1.358 . S
C304 C308 1.332 . S
C304 C310 1.504 . S
C305 C306 1.373 . S
C305 C309 1.308 . S
C306 C305 1.373 . S
C306 C307 1.429 . S
C306 H316 0.932 . S
C307 C304 1.358 . S
C307 C306 1.429 . S
C307 H317 0.930 . S
C308 C304 1.332 . S
C308 C309 1.394 . S
C308 H318 0.932 . S
C309 C305 1.308 . S
C309 C308 1.394 . S
C309 H319 0.929 . S
C310 Tb281 2.764 1_556 S
C310 O294 1.239 . S
C310 O295 1.263 . S
C310 C304 1.504 . S
C311 O296 1.236 . S
C311 O297 1.257 . S
H312 C285 0.932 . S
H313 C286 0.930 . S
H314 C287 0.932 . S
H315 C288 0.929 . S
H316 C306 0.932 . S
H317 C307 0.930 . S
H318 C308 0.932 . S
H319 C309 0.929 . S
C320 C321 1.369 . S
C320 C322 1.419 . S
C320 H324 0.930 . S
C321 C320 1.369 . S
C321 C330 1.429 . S
C322 C320 1.419 . S
C322 C323 1.363 . S
C322 H325 0.929 . S
C323 C322 1.363 . S
C323 C329 1.428 . S
H324 C320 0.930 . S
H325 C322 0.929 . S
S326 N327 1.613 . S
S326 N328 1.610 . S
N327 S326 1.613 . S
N327 C330 1.350 . S
N328 S326 1.610 . S
N328 C329 1.351 . S
C329 C323 1.428 . S
C329 N328 1.351 . S
C329 C330 1.434 . S
C330 C321 1.429 . S
C330 N327 1.350 . S
C330 C329 1.434 . S
C331 C332 1.369 . S
C331 C333 1.419 . S
C331 H335 0.930 . S
C332 C331 1.369 . S
C332 C341 1.429 . S
C333 C331 1.419 . S
C333 C334 1.363 . S
C333 H336 0.929 . S
C334 C333 1.363 . S
C334 C340 1.428 . S
H335 C331 0.930 . S
H336 C333 0.929 . S
S337 N338 1.613 . S
S337 N339 1.610 . S
N338 S337 1.613 . S
N338 C341 1.350 . S
N339 S337 1.610 . S
N339 C340 1.351 . S
C340 C334 1.428 . S
C340 N339 1.351 . S
C340 C341 1.434 . S
C341 C332 1.429 . S
C341 N338 1.350 . S
C341 C340 1.434 . S
C342 C343 1.369 . S
C342 C344 1.419 . S
C342 H346 0.930 . S
C343 C342 1.369 . S
C343 C352 1.429 . S
C344 C342 1.419 . S
C344 C345 1.363 . S
C344 H347 0.929 . S
C345 C344 1.363 . S
C345 C351 1.428 . S
H346 C342 0.930 . S
H347 C344 0.929 . S
S348 N349 1.613 . S
S348 N350 1.610 . S
N349 S348 1.613 . S
N349 C352 1.350 . S
N350 S348 1.610 . S
N350 C351 1.351 . S
C351 C345 1.428 . S
C351 N350 1.351 . S
C351 C352 1.434 . S
C352 C343 1.429 . S
C352 N349 1.350 . S
C352 C351 1.434 . S
C353 C354 1.369 . S
C353 C355 1.419 . S
C353 H357 0.930 . S
C354 C353 1.369 . S
C354 C363 1.429 . S
C355 C353 1.419 . S
C355 C356 1.363 . S
C355 H358 0.929 . S
C356 C355 1.363 . S
C356 C362 1.428 . S
H357 C353 0.930 . S
H358 C355 0.929 . S
S359 N360 1.613 . S
S359 N361 1.610 . S
N360 S359 1.613 . S
N360 C363 1.350 . S
N361 S359 1.610 . S
N361 C362 1.351 . S
C362 C356 1.428 . S
C362 N361 1.351 . S
C362 C363 1.434 . S
C363 C354 1.429 . S
C363 N360 1.350 . S
C363 C362 1.434 . S
C364 C365 1.369 . S
C364 C366 1.419 1_565 S
C364 H368 0.930 . S
C365 C364 1.369 . S
C365 C374 1.429 . S
C366 C364 1.419 1_545 S
C366 C367 1.363 . S
C366 H369 0.929 . S
C367 C366 1.363 . S
C367 C373 1.428 . S
H368 C364 0.930 . S
H369 C366 0.929 . S
S370 N371 1.613 1_545 S
S370 N372 1.610 . S
N371 S370 1.613 1_565 S
N371 C374 1.350 . S
N372 S370 1.610 . S
N372 C373 1.351 . S
C373 C367 1.428 . S
C373 N372 1.351 . S
C373 C374 1.434 1_545 S
C374 C365 1.429 . S
C374 N371 1.350 . S
C374 C373 1.434 1_565 S
C375 C376 1.369 . S
C375 C377 1.419 . S
C375 H379 0.930 . S
C376 C375 1.369 . S
C376 C385 1.429 . S
C377 C375 1.419 . S
C377 C378 1.363 . S
C377 H380 0.929 . S
C378 C377 1.363 . S
C378 C384 1.428 . S
H379 C375 0.930 . S
H380 C377 0.929 . S
S381 N382 1.613 . S
S381 N383 1.610 . S
N382 S381 1.613 . S
N382 C385 1.350 . S
N383 S381 1.610 . S
N383 C384 1.351 . S
C384 C378 1.428 . S
C384 N383 1.351 . S
C384 C385 1.434 . S
C385 C376 1.429 . S
C385 N382 1.350 . S
C385 C384 1.434 . S
C386 C387 1.369 . S
C386 C388 1.419 1_565 S
C386 H390 0.930 . S
C387 C386 1.369 . S
C387 C396 1.429 . S
C388 C386 1.419 1_545 S
C388 C389 1.363 . S
C388 H391 0.929 . S
C389 C388 1.363 . S
C389 C395 1.428 . S
H390 C386 0.930 . S
H391 C388 0.929 . S
S392 N393 1.613 . S
S392 N394 1.610 1_565 S
N393 S392 1.613 . S
N393 C396 1.350 . S
N394 S392 1.610 1_545 S
N394 C395 1.351 . S
C395 C389 1.428 . S
C395 N394 1.351 . S
C395 C396 1.434 1_545 S
C396 C387 1.429 . S
C396 N393 1.350 . S
C396 C395 1.434 1_565 S
C397 C398 1.369 . S
C397 C399 1.419 . S
C397 H401 0.930 . S
C398 C397 1.369 . S
C398 C407 1.429 . S
C399 C397 1.419 . S
C399 C400 1.363 . S
C399 H402 0.929 . S
C400 C399 1.363 . S
C400 C406 1.428 . S
H401 C397 0.930 . S
H402 C399 0.929 . S
S403 N404 1.613 . S
S403 N405 1.610 . S
N404 S403 1.613 . S
N404 C407 1.350 . S
N405 S403 1.610 . S
N405 C406 1.351 . S
C406 C400 1.428 . S
C406 N405 1.351 . S
C406 C407 1.434 . S
C407 C398 1.429 . S
C407 N404 1.350 . S
C407 C406 1.434 . S
C408 C409 1.369 . S
C408 C410 1.419 . S
C408 H412 0.930 . S
C409 C408 1.369 . S
C409 C418 1.429 1_554 S
C410 C408 1.419 . S
C410 C411 1.363 . S
C410 H413 0.929 . S
C411 C410 1.363 . S
C411 C417 1.428 1_554 S
H412 C408 0.930 . S
H413 C410 0.929 . S
S414 N415 1.613 . S
S414 N416 1.610 . S
N415 S414 1.613 . S
N415 C418 1.350 . S
N416 S414 1.610 . S
N416 C417 1.351 . S
C417 C411 1.428 1_556 S
C417 N416 1.351 . S
C417 C418 1.434 . S
C418 C409 1.429 1_556 S
C418 N415 1.350 . S
C418 C417 1.434 . S
C419 C420 1.369 . S
C419 C421 1.419 1_565 S
C419 H423 0.930 . S
C420 C419 1.369 . S
C420 C429 1.429 1_554 S
C421 C419 1.419 1_545 S
C421 C422 1.363 . S
C421 H424 0.929 . S
C422 C421 1.363 . S
C422 C428 1.428 1_554 S
H423 C419 0.930 . S
H424 C421 0.929 . S
S425 N426 1.613 . S
S425 N427 1.610 1_565 S
N426 S425 1.613 . S
N426 C429 1.350 . S
N427 S425 1.610 1_545 S
N427 C428 1.351 . S
C428 C422 1.428 1_556 S
C428 N427 1.351 . S
C428 C429 1.434 1_545 S
C429 C420 1.429 1_556 S
C429 N426 1.350 . S
C429 C428 1.434 1_565 S
C430 C431 1.369 . S
C430 C432 1.419 . S
C430 H434 0.930 1_556 S
C431 C430 1.369 . S
C431 C440 1.429 . S
C432 C430 1.419 . S
C432 C433 1.363 . S
C432 H435 0.929 1_556 S
C433 C432 1.363 . S
C433 C439 1.428 . S
H434 C430 0.930 1_554 S
H435 C432 0.929 1_554 S
S436 N437 1.613 . S
S436 N438 1.610 . S
N437 S436 1.613 . S
N437 C440 1.350 . S
N438 S436 1.610 . S
N438 C439 1.351 . S
C439 C433 1.428 . S
C439 N438 1.351 . S
C439 C440 1.434 . S
C440 C431 1.429 . S
C440 N437 1.350 . S
C440 C439 1.434 . S
C441 C442 1.369 . S
C441 C443 1.419 1_545 S
C441 H445 0.930 . S
C442 C441 1.369 . S
C442 C451 1.429 1_556 S
C443 C441 1.419 1_565 S
C443 C444 1.363 . S
C443 H446 0.929 . S
C444 C443 1.363 . S
C444 C450 1.428 1_556 S
H445 C441 0.930 . S
H446 C443 0.929 . S
S447 N448 1.613 1_565 S
S447 N449 1.610 . S
N448 S447 1.613 1_545 S
N448 C451 1.350 . S
N449 S447 1.610 . S
N449 C450 1.351 . S
C450 C444 1.428 1_554 S
C450 N449 1.351 . S
C450 C451 1.434 1_565 S
C451 C442 1.429 1_554 S
C451 N448 1.350 . S
C451 C450 1.434 1_545 S
C452 C453 1.369 1_556 S
C452 C454 1.419 . S
C452 H456 0.930 1_556 S
C453 C452 1.369 1_554 S
C453 C462 1.429 1_554 S
C454 C452 1.419 . S
C454 C455 1.363 . S
C454 H457 0.929 . S
C455 C454 1.363 . S
C455 C461 1.428 . S
H456 C452 0.930 1_554 S
H457 C454 0.929 . S
S458 N459 1.613 1_556 S
S458 N460 1.610 . S
N459 S458 1.613 1_554 S
N459 C462 1.350 1_554 S
N460 S458 1.610 . S
N460 C461 1.351 . S
C461 C455 1.428 . S
C461 N460 1.351 . S
C461 C462 1.434 . S
C462 C453 1.429 1_556 S
C462 N459 1.350 1_556 S
C462 C461 1.434 . S
C463 C464 1.369 1_556 S
C463 C465 1.419 . S
C463 H467 0.930 1_556 S
C464 C463 1.369 1_554 S
C464 C473 1.429 1_554 S
C465 C463 1.419 . S
C465 C466 1.363 . S
C465 H468 0.929 . S
C466 C465 1.363 . S
C466 C472 1.428 . S
H467 C463 0.930 1_554 S
H468 C465 0.929 . S
S469 N470 1.613 1_556 S
S469 N471 1.610 . S
N470 S469 1.613 1_554 S
N470 C473 1.350 1_554 S
N471 S469 1.610 . S
N471 C472 1.351 . S
C472 C466 1.428 . S
C472 N471 1.351 . S
C472 C473 1.434 . S
C473 C464 1.429 1_556 S
C473 N470 1.350 1_556 S
C473 C472 1.434 . S
C474 C475 1.369 . S
C474 C476 1.419 . S
C474 H478 0.930 . S
C475 C474 1.369 . S
C475 C484 1.429 . S
C476 C474 1.419 . S
C476 C477 1.363 1_554 S
C476 H479 0.929 1_554 S
C477 C476 1.363 1_556 S
C477 C483 1.428 . S
H478 C474 0.930 . S
H479 C476 0.929 1_556 S
S480 N481 1.613 . S
S480 N482 1.610 1_554 S
N481 S480 1.613 . S
N481 C484 1.350 . S
N482 S480 1.610 1_556 S
N482 C483 1.351 . S
C483 C477 1.428 . S
C483 N482 1.351 . S
C483 C484 1.434 1_556 S
C484 C475 1.429 . S
C484 N481 1.350 . S
C484 C483 1.434 1_554 S
C485 C486 1.369 . S
C485 C487 1.419 1_556 S
C485 H489 0.930 . S
C486 C485 1.369 . S
C486 C495 1.429 1_556 S
C487 C485 1.419 1_554 S
C487 C488 1.363 . S
C487 H490 0.929 . S
C488 C487 1.363 . S
C488 C494 1.428 . S
H489 C485 0.930 . S
H490 C487 0.929 . S
S491 N492 1.613 . S
S491 N493 1.610 . S
N492 S491 1.613 . S
N492 C495 1.350 . S
N493 S491 1.610 . S
N493 C494 1.351 . S
C494 C488 1.428 . S
C494 N493 1.351 . S
C494 C495 1.434 . S
C495 C486 1.429 1_554 S
C495 N492 1.350 . S
C495 C494 1.434 . S
C496 C497 1.369 . S
C496 C498 1.419 . S
C496 H500 0.930 . S
C497 C496 1.369 . S
C497 C506 1.429 . S
C498 C496 1.419 . S
C498 C499 1.363 . S
C498 H501 0.929 . S
C499 C498 1.363 . S
C499 C505 1.428 . S
H500 C496 0.930 . S
H501 C498 0.929 . S
S502 N503 1.613 . S
S502 N504 1.610 . S
N503 S502 1.613 . S
N503 C506 1.350 . S
N504 S502 1.610 . S
N504 C505 1.351 . S
C505 C499 1.428 . S
C505 N504 1.351 . S
C505 C506 1.434 . S
C506 C497 1.429 . S
C506 N503 1.350 . S
C506 C505 1.434 . S
C507 C508 1.369 . S
C507 C509 1.419 . S
C507 H511 0.930 . S
C508 C507 1.369 . S
C508 C517 1.429 . S
C509 C507 1.419 . S
C509 C510 1.363 . S
C509 H512 0.929 . S
C510 C509 1.363 . S
C510 C516 1.428 . S
H511 C507 0.930 . S
H512 C509 0.929 . S
S513 N514 1.613 . S
S513 N515 1.610 . S
N514 S513 1.613 . S
N514 C517 1.350 . S
N515 S513 1.610 . S
N515 C516 1.351 . S
C516 C510 1.428 . S
C516 N515 1.351 . S
C516 C517 1.434 . S
C517 C508 1.429 . S
C517 N514 1.350 . S
C517 C516 1.434 . S
C518 C519 1.369 . S
C518 C520 1.419 . S
C518 H522 0.930 . S
C519 C518 1.369 . S
C519 C528 1.429 . S
C520 C518 1.419 . S
C520 C521 1.363 . S
C520 H523 0.929 . S
C521 C520 1.363 . S
C521 C527 1.428 . S
H522 C518 0.930 . S
H523 C520 0.929 . S
S524 N525 1.613 . S
S524 N526 1.610 . S
N525 S524 1.613 . S
N525 C528 1.350 . S
N526 S524 1.610 . S
N526 C527 1.351 . S
C527 C521 1.428 . S
C527 N526 1.351 . S
C527 C528 1.434 . S
C528 C519 1.429 . S
C528 N525 1.350 . S
C528 C527 1.434 . S
C529 C530 1.369 . S
C529 C531 1.419 . S
C529 H533 0.930 . S
C530 C529 1.369 . S
C530 C539 1.429 . S
C531 C529 1.419 . S
C531 C532 1.363 . S
C531 H534 0.929 . S
C532 C531 1.363 . S
C532 C538 1.428 . S
H533 C529 0.930 . S
H534 C531 0.929 . S
S535 N536 1.613 . S
S535 N537 1.610 . S
N536 S535 1.613 . S
N536 C539 1.350 . S
N537 S535 1.610 . S
N537 C538 1.351 . S
C538 C532 1.428 . S
C538 N537 1.351 . S
C538 C539 1.434 . S
C539 C530 1.429 . S
C539 N536 1.350 . S
C539 C538 1.434 . S
C540 C541 1.369 . S
C540 C542 1.419 1_455 S
C540 H544 0.930 . S
C541 C540 1.369 . S
C541 C550 1.429 . S
C542 C540 1.419 1_655 S
C542 C543 1.363 . S
C542 H545 0.929 . S
C543 C542 1.363 . S
C543 C549 1.428 . S
H544 C540 0.930 . S
H545 C542 0.929 . S
S546 N547 1.613 . S
S546 N548 1.610 1_455 S
N547 S546 1.613 . S
N547 C550 1.350 . S
N548 S546 1.610 1_655 S
N548 C549 1.351 . S
C549 C543 1.428 . S
C549 N548 1.351 . S
C549 C550 1.434 1_655 S
C550 C541 1.429 . S
C550 N547 1.350 . S
C550 C549 1.434 1_455 S
C551 C552 1.369 . S
C551 C553 1.419 1_655 S
C551 H555 0.930 . S
C552 C551 1.369 . S
C552 C561 1.429 . S
C553 C551 1.419 1_455 S
C553 C554 1.363 . S
C553 H556 0.929 . S
C554 C553 1.363 . S
C554 C560 1.428 . S
H555 C551 0.930 . S
H556 C553 0.929 . S
S557 N558 1.613 . S
S557 N559 1.610 1_655 S
N558 S557 1.613 . S
N558 C561 1.350 . S
N559 S557 1.610 1_455 S
N559 C560 1.351 . S
C560 C554 1.428 . S
C560 N559 1.351 . S
C560 C561 1.434 1_455 S
C561 C552 1.429 . S
C561 N558 1.350 . S
C561 C560 1.434 1_655 S
C562 C563 1.369 . S
C562 C564 1.419 . S
C562 H566 0.930 . S
C563 C562 1.369 . S
C563 C572 1.429 . S
C564 C562 1.419 . S
C564 C565 1.363 . S
C564 H567 0.929 . S
C565 C564 1.363 . S
C565 C571 1.428 . S
H566 C562 0.930 . S
H567 C564 0.929 . S
S568 N569 1.613 . S
S568 N570 1.610 . S
N569 S568 1.613 . S
N569 C572 1.350 . S
N570 S568 1.610 . S
N570 C571 1.351 . S
C571 C565 1.428 . S
C571 N570 1.351 . S
C571 C572 1.434 . S
C572 C563 1.429 . S
C572 N569 1.350 . S
C572 C571 1.434 . S
C573 C574 1.369 . S
C573 C575 1.419 . S
C573 H577 0.930 . S
C574 C573 1.369 . S
C574 C583 1.429 . S
C575 C573 1.419 . S
C575 C576 1.363 . S
C575 H578 0.929 . S
C576 C575 1.363 . S
C576 C582 1.428 . S
H577 C573 0.930 . S
H578 C575 0.929 . S
S579 N580 1.613 . S
S579 N581 1.610 . S
N580 S579 1.613 . S
N580 C583 1.350 . S
N581 S579 1.610 . S
N581 C582 1.351 . S
C582 C576 1.428 . S
C582 N581 1.351 . S
C582 C583 1.434 . S
C583 C574 1.429 . S
C583 N580 1.350 . S
C583 C582 1.434 . S
C321 C4 1.611 . S
C323 C305 1.613 . S
C332 C265 1.612 . S
C334 C44 1.612 . S
C343 C204 1.613 . S
C345 C105 1.611 . S
C354 C164 1.613 . S
C356 C145 1.612 . S
C365 C103 1.557 . S
C367 C23 1.581 . S
C376 C63 1.575 . S
C378 C143 1.562 . S
C387 C122 1.575 . S
C389 C42 1.561 . S
C398 C82 1.580 . S
C400 C2 1.557 . S
C409 C183 1.458 . S
C411 C263 1.461 . S
C420 C223 1.459 . S
C422 C303 1.460 . S
C431 C282 1.457 . S
C433 C202 1.464 . S
C442 C242 1.459 . S
C444 C162 1.462 . S
C453 C31 1.926 . S
C455 C20 1.924 . S
C464 C71 1.928 . S
C466 C60 1.923 . S
C475 C111 1.925 . S
C477 C100 1.924 . S
C486 C140 1.928 . S
C488 C151 1.922 . S
C497 C180 1.927 . S
C499 C191 1.922 . S
C508 C231 1.923 . S
C510 C220 1.926 . S
C519 C260 1.928 . S
C521 C271 1.922 . S
C530 C300 1.924 . S
C532 C311 1.925 . S
C541 C25 2.054 . S
C543 C65 2.055 . S
C552 C124 2.057 . S
C554 C84 2.057 . S
C563 C185 2.055 . S
C565 C225 2.056 . S
C574 C284 2.057 . S
C576 C244 2.057 . S
