# Generated by pormake.
# Topology sxe, (6)-cn, num edge types: 1
# Building blocks:
#     Node 0, Type 0, BuildingBlock: IZENUY_clean_sbu_0, # of connection points: 6
#     Node 1, Type 0, BuildingBlock: IZENUY_clean_sbu_0, # of connection points: 6
#     Node 2, Type 0, BuildingBlock: IZENUY_clean_sbu_0, # of connection points: 6
#     Node 3, Type 0, BuildingBlock: IZENUY_clean_sbu_0, # of connection points: 6
#     Node 4, Type 0, BuildingBlock: IZENUY_clean_sbu_0, # of connection points: 6
#     Node 5, Type 0, BuildingBlock: IZENUY_clean_sbu_0, # of connection points: 6
#     Node 6, Type 0, BuildingBlock: IZENUY_clean_sbu_0, # of connection points: 6
#     Node 7, Type 0, BuildingBlock: IZENUY_clean_sbu_0, # of connection points: 6
#     Node 8, Type 0, BuildingBlock: IZENUY_clean_sbu_0, # of connection points: 6
#     Node 9, Type 0, BuildingBlock: IZENUY_clean_sbu_0, # of connection points: 6
#     Node 10, Type 0, BuildingBlock: IZENUY_clean_sbu_0, # of connection points: 6
#     Node 11, Type 0, BuildingBlock: IZENUY_clean_sbu_0, # of connection points: 6
#     Node 12, Type 0, BuildingBlock: IZENUY_clean_sbu_0, # of connection points: 6
#     Node 13, Type 0, BuildingBlock: IZENUY_clean_sbu_0, # of connection points: 6
#     Node 14, Type 0, BuildingBlock: IZENUY_clean_sbu_0, # of connection points: 6
#     Node 15, Type 0, BuildingBlock: IZENUY_clean_sbu_0, # of connection points: 6
#     Node 16, Type 0, BuildingBlock: IZENUY_clean_sbu_0, # of connection points: 6
#     Node 17, Type 0, BuildingBlock: IZENUY_clean_sbu_0, # of connection points: 6
#     Node 18, Type 0, BuildingBlock: IZENUY_clean_sbu_0, # of connection points: 6
#     Node 19, Type 0, BuildingBlock: IZENUY_clean_sbu_0, # of connection points: 6
#     Node 20, Type 0, BuildingBlock: IZENUY_clean_sbu_0, # of connection points: 6
#     Node 21, Type 0, BuildingBlock: IZENUY_clean_sbu_0, # of connection points: 6
#     Node 22, Type 0, BuildingBlock: IZENUY_clean_sbu_0, # of connection points: 6
#     Node 23, Type 0, BuildingBlock: IZENUY_clean_sbu_0, # of connection points: 6
#     Edge 24, Type (0, 0), BuildingBlock: AJUNOK_clean_linker_0, # of connection points: 2
#     Edge 25, Type (0, 0), BuildingBlock: AJUNOK_clean_linker_0, # of connection points: 2
#     Edge 26, Type (0, 0), BuildingBlock: AJUNOK_clean_linker_0, # of connection points: 2
#     Edge 27, Type (0, 0), BuildingBlock: AJUNOK_clean_linker_0, # of connection points: 2
#     Edge 28, Type (0, 0), BuildingBlock: AJUNOK_clean_linker_0, # of connection points: 2
#     Edge 29, Type (0, 0), BuildingBlock: AJUNOK_clean_linker_0, # of connection points: 2
#     Edge 30, Type (0, 0), BuildingBlock: AJUNOK_clean_linker_0, # of connection points: 2
#     Edge 31, Type (0, 0), BuildingBlock: AJUNOK_clean_linker_0, # of connection points: 2
#     Edge 32, Type (0, 0), BuildingBlock: AJUNOK_clean_linker_0, # of connection points: 2
#     Edge 33, Type (0, 0), BuildingBlock: AJUNOK_clean_linker_0, # of connection points: 2
#     Edge 34, Type (0, 0), BuildingBlock: AJUNOK_clean_linker_0, # of connection points: 2
#     Edge 35, Type (0, 0), BuildingBlock: AJUNOK_clean_linker_0, # of connection points: 2
#     Edge 36, Type (0, 0), BuildingBlock: AJUNOK_clean_linker_0, # of connection points: 2
#     Edge 37, Type (0, 0), BuildingBlock: AJUNOK_clean_linker_0, # of connection points: 2
#     Edge 38, Type (0, 0), BuildingBlock: AJUNOK_clean_linker_0, # of connection points: 2
#     Edge 39, Type (0, 0), BuildingBlock: AJUNOK_clean_linker_0, # of connection points: 2
#     Edge 40, Type (0, 0), BuildingBlock: AJUNOK_clean_linker_0, # of connection points: 2
#     Edge 41, Type (0, 0), BuildingBlock: AJUNOK_clean_linker_0, # of connection points: 2
#     Edge 42, Type (0, 0), BuildingBlock: AJUNOK_clean_linker_0, # of connection points: 2
#     Edge 43, Type (0, 0), BuildingBlock: AJUNOK_clean_linker_0, # of connection points: 2
#     Edge 44, Type (0, 0), BuildingBlock: AJUNOK_clean_linker_0, # of connection points: 2
#     Edge 45, Type (0, 0), BuildingBlock: AJUNOK_clean_linker_0, # of connection points: 2
#     Edge 46, Type (0, 0), BuildingBlock: AJUNOK_clean_linker_0, # of connection points: 2
#     Edge 47, Type (0, 0), BuildingBlock: AJUNOK_clean_linker_0, # of connection points: 2
#     Edge 48, Type (0, 0), BuildingBlock: AJUNOK_clean_linker_0, # of connection points: 2
#     Edge 49, Type (0, 0), BuildingBlock: AJUNOK_clean_linker_0, # of connection points: 2
#     Edge 50, Type (0, 0), BuildingBlock: AJUNOK_clean_linker_0, # of connection points: 2
#     Edge 51, Type (0, 0), BuildingBlock: AJUNOK_clean_linker_0, # of connection points: 2
#     Edge 52, Type (0, 0), BuildingBlock: AJUNOK_clean_linker_0, # of connection points: 2
#     Edge 53, Type (0, 0), BuildingBlock: AJUNOK_clean_linker_0, # of connection points: 2
#     Edge 54, Type (0, 0), BuildingBlock: AJUNOK_clean_linker_0, # of connection points: 2
#     Edge 55, Type (0, 0), BuildingBlock: AJUNOK_clean_linker_0, # of connection points: 2
#     Edge 56, Type (0, 0), BuildingBlock: AJUNOK_clean_linker_0, # of connection points: 2
#     Edge 57, Type (0, 0), BuildingBlock: AJUNOK_clean_linker_0, # of connection points: 2
#     Edge 58, Type (0, 0), BuildingBlock: AJUNOK_clean_linker_0, # of connection points: 2
#     Edge 59, Type (0, 0), BuildingBlock: AJUNOK_clean_linker_0, # of connection points: 2
#     Edge 60, Type (0, 0), BuildingBlock: AJUNOK_clean_linker_0, # of connection points: 2
#     Edge 61, Type (0, 0), BuildingBlock: AJUNOK_clean_linker_0, # of connection points: 2
#     Edge 62, Type (0, 0), BuildingBlock: AJUNOK_clean_linker_0, # of connection points: 2
#     Edge 63, Type (0, 0), BuildingBlock: AJUNOK_clean_linker_0, # of connection points: 2
#     Edge 64, Type (0, 0), BuildingBlock: AJUNOK_clean_linker_0, # of connection points: 2
#     Edge 65, Type (0, 0), BuildingBlock: AJUNOK_clean_linker_0, # of connection points: 2
#     Edge 66, Type (0, 0), BuildingBlock: AJUNOK_clean_linker_0, # of connection points: 2
#     Edge 67, Type (0, 0), BuildingBlock: AJUNOK_clean_linker_0, # of connection points: 2
#     Edge 68, Type (0, 0), BuildingBlock: AJUNOK_clean_linker_0, # of connection points: 2
#     Edge 69, Type (0, 0), BuildingBlock: AJUNOK_clean_linker_0, # of connection points: 2
#     Edge 70, Type (0, 0), BuildingBlock: AJUNOK_clean_linker_0, # of connection points: 2
#     Edge 71, Type (0, 0), BuildingBlock: AJUNOK_clean_linker_0, # of connection points: 2
#     Edge 72, Type (0, 0), BuildingBlock: AJUNOK_clean_linker_0, # of connection points: 2
#     Edge 73, Type (0, 0), BuildingBlock: AJUNOK_clean_linker_0, # of connection points: 2
#     Edge 74, Type (0, 0), BuildingBlock: AJUNOK_clean_linker_0, # of connection points: 2
#     Edge 75, Type (0, 0), BuildingBlock: AJUNOK_clean_linker_0, # of connection points: 2
#     Edge 76, Type (0, 0), BuildingBlock: AJUNOK_clean_linker_0, # of connection points: 2
#     Edge 77, Type (0, 0), BuildingBlock: AJUNOK_clean_linker_0, # of connection points: 2
#     Edge 78, Type (0, 0), BuildingBlock: AJUNOK_clean_linker_0, # of connection points: 2
#     Edge 79, Type (0, 0), BuildingBlock: AJUNOK_clean_linker_0, # of connection points: 2
#     Edge 80, Type (0, 0), BuildingBlock: AJUNOK_clean_linker_0, # of connection points: 2
#     Edge 81, Type (0, 0), BuildingBlock: AJUNOK_clean_linker_0, # of connection points: 2
#     Edge 82, Type (0, 0), BuildingBlock: AJUNOK_clean_linker_0, # of connection points: 2
#     Edge 83, Type (0, 0), BuildingBlock: AJUNOK_clean_linker_0, # of connection points: 2
#     Edge 84, Type (0, 0), BuildingBlock: AJUNOK_clean_linker_0, # of connection points: 2
#     Edge 85, Type (0, 0), BuildingBlock: AJUNOK_clean_linker_0, # of connection points: 2
#     Edge 86, Type (0, 0), BuildingBlock: AJUNOK_clean_linker_0, # of connection points: 2
#     Edge 87, Type (0, 0), BuildingBlock: AJUNOK_clean_linker_0, # of connection points: 2
#     Edge 88, Type (0, 0), BuildingBlock: AJUNOK_clean_linker_0, # of connection points: 2
#     Edge 89, Type (0, 0), BuildingBlock: AJUNOK_clean_linker_0, # of connection points: 2
#     Edge 90, Type (0, 0), BuildingBlock: AJUNOK_clean_linker_0, # of connection points: 2
#     Edge 91, Type (0, 0), BuildingBlock: AJUNOK_clean_linker_0, # of connection points: 2
#     Edge 92, Type (0, 0), BuildingBlock: AJUNOK_clean_linker_0, # of connection points: 2
#     Edge 93, Type (0, 0), BuildingBlock: AJUNOK_clean_linker_0, # of connection points: 2
#     Edge 94, Type (0, 0), BuildingBlock: AJUNOK_clean_linker_0, # of connection points: 2
#     Edge 95, Type (0, 0), BuildingBlock: AJUNOK_clean_linker_0, # of connection points: 2
# Relax obj value: 0.306
# Max RMSD: 0.231
# Mean RMSD: 0.230
data_MOF--net-sxe--node1-IZENUY_clean_sbu_0--edge1-AJUNOK_clean_linker_0
_symmetry_space_group_name_H-M    P1
_symmetry_Int_Tables_number       1
_symmetry_cell_setting            triclinic
loop_
_symmetry_equiv_pos_as_xyz
'x, y, z'
_cell_length_a     35.438481
_cell_length_b     35.418803
_cell_length_c     35.296068
_cell_angle_alpha  89.915782
_cell_angle_beta   90.007167
_cell_angle_gamma 89.904037
loop_
_atom_site_label
_atom_site_type_symbol
_atom_site_fract_x
_atom_site_fract_y
_atom_site_fract_z
_atom_type_partial_charge
Fe0 Fe 0.16231 0.45205 0.28307 0.0
Fe1 Fe 0.19626 0.39172 0.23081 0.0
O2 O 0.19335 0.43938 0.24547 0.0
Fe3 Fe 0.22199 0.4734 0.22232 0.0
O4 O 0.23 0.50247 0.2648 0.0
O5 O 0.19987 0.4732 0.31059 0.0
O6 O 0.17141 0.40842 0.3101 0.0
C7 C 0.19802 0.38446 0.30761 0.0
C8 C 0.15516 0.51319 0.2301 0.0
O9 O 0.21459 0.37821 0.27654 0.0
C10 C 0.19537 0.42612 0.16225 0.0
O11 O 0.12099 0.43154 0.25994 0.0
O12 O 0.14852 0.37851 0.24488 0.0
O13 O 0.18125 0.50126 0.20889 0.0
O14 O 0.1489 0.498 0.26215 0.0
C15 C 0.27198 0.41476 0.22294 0.0
O16 O 0.17829 0.40376 0.18432 0.0
O17 O 0.2184 0.45035 0.17542 0.0
C18 C 0.11884 0.3971 0.25108 0.0
O19 O 0.24484 0.39381 0.21375 0.0
O20 O 0.26585 0.44813 0.23384 0.0
C21 C 0.22364 0.49728 0.29977 0.0
Fe22 Fe 0.35974 0.55918 0.78533 0.0
Fe23 Fe 0.3302 0.62672 0.74012 0.0
O24 O 0.32892 0.57782 0.75024 0.0
Fe25 Fe 0.29668 0.54757 0.72655 0.0
O26 O 0.27525 0.53241 0.77128 0.0
O27 O 0.32885 0.52048 0.79969 0.0
O28 O 0.33704 0.58761 0.82175 0.0
C29 C 0.3333 0.62297 0.81939 0.0
C30 C 0.36559 0.50601 0.72978 0.0
O31 O 0.34027 0.6405 0.78898 0.0
C32 C 0.319 0.59327 0.6677 0.0
O33 O 0.39711 0.59461 0.7786 0.0
O34 O 0.37984 0.62524 0.72778 0.0
O35 O 0.32988 0.5076 0.72629 0.0
O36 O 0.38308 0.52944 0.75043 0.0
C37 C 0.2539 0.61508 0.7369 0.0
O38 O 0.31984 0.62133 0.68977 0.0
O39 O 0.31476 0.56006 0.67996 0.0
C40 C 0.40494 0.61672 0.75154 0.0
O41 O 0.28101 0.63248 0.75179 0.0
O42 O 0.25868 0.58292 0.72199 0.0
C43 C 0.29341 0.51749 0.79826 0.0
Fe44 Fe 0.71569 0.04998 0.80065 0.0
Fe45 Fe 0.65667 0.06658 0.73845 0.0
O46 O 0.68686 0.08254 0.77517 0.0
Fe47 Fe 0.68858 0.13148 0.7855 0.0
O48 O 0.73828 0.13308 0.77422 0.0
O49 O 0.75551 0.08249 0.80626 0.0
O50 O 0.73832 0.03251 0.75735 0.0
C51 C 0.72102 0.01982 0.72876 0.0
C52 C 0.69548 0.09784 0.85848 0.0
O53 O 0.6864 0.02693 0.72401 0.0
C54 C 0.61334 0.12527 0.77315 0.0
O55 O 0.68037 0.01234 0.79963 0.0
O56 O 0.63051 0.0369 0.77127 0.0
O57 O 0.69816 0.12548 0.836 0.0
O58 O 0.69628 0.06428 0.84637 0.0
C59 C 0.68506 0.1305 0.70584 0.0
O60 O 0.62082 0.10337 0.74578 0.0
O61 O 0.63859 0.13348 0.79697 0.0
C62 C 0.64526 0.01218 0.79257 0.0
O63 O 0.68138 0.09516 0.70304 0.0
O64 O 0.6796 0.14699 0.73701 0.0
C65 C 0.76349 0.11282 0.78913 0.0
Fe66 Fe 0.85861 0.958 0.23978 0.0
Fe67 Fe 0.82625 0.89148 0.28436 0.0
O68 O 0.82702 0.94047 0.27465 0.0
Fe69 Fe 0.79577 0.97188 0.29852 0.0
O70 O 0.77481 0.98785 0.25378 0.0
O71 O 0.82875 0.99738 0.22505 0.0
O72 O 0.83592 0.9302 0.20277 0.0
C73 C 0.83114 0.89495 0.20458 0.0
C74 C 0.86552 0.0115 0.295 0.0
O75 O 0.83615 0.87717 0.23532 0.0
C76 C 0.8155 0.92497 0.35746 0.0
O77 O 0.89483 0.92152 0.24725 0.0
O78 O 0.87582 0.89042 0.29718 0.0
O79 O 0.82989 0.0108 0.29885 0.0
O80 O 0.8824 0.98727 0.27472 0.0
C81 C 0.75072 0.90672 0.28708 0.0
O82 O 0.81561 0.89711 0.33496 0.0
O83 O 0.81345 0.95848 0.3452 0.0
C84 C 0.90151 0.89853 0.27396 0.0
O85 O 0.77712 0.88841 0.27197 0.0
O86 O 0.75677 0.93806 0.30301 0.0
C87 C 0.79337 1.00108 0.22621 0.0
Fe88 Fe 0.21802 0.21822 0.47627 0.0
Fe89 Fe 0.27878 0.15745 0.46168 0.0
O90 O 0.24207 0.18729 0.44469 0.0
Fe91 Fe 0.23059 0.18673 0.39597 0.0
O92 O 0.24092 0.23641 0.39117 0.0
O93 O 0.21078 0.25625 0.44175 0.0
O94 O 0.26204 0.24144 0.48998 0.0
C95 C 0.29093 0.22444 0.50225 0.0
C96 C 0.1591 0.19463 0.43169 0.0
O97 O 0.29359 0.18901 0.49962 0.0
C98 C 0.24425 0.11204 0.40456 0.0
O99 O 0.22074 0.18513 0.51606 0.0
O100 O 0.24617 0.13296 0.49328 0.0
O101 O 0.18049 0.19581 0.4031 0.0
O102 O 0.17195 0.19822 0.46491 0.0
C103 C 0.30956 0.18557 0.39625 0.0
O104 O 0.27141 0.12011 0.42641 0.0
O105 O 0.21976 0.13669 0.39682 0.0
C106 C 0.22602 0.14972 0.51776 0.0
O107 O 0.31352 0.18101 0.43152 0.0
O108 O 0.27873 0.17801 0.38008 0.0
C109 C 0.22626 0.26261 0.41017 0.0
Fe110 Fe 0.27998 0.81769 0.89356 0.0
Fe111 Fe 0.29611 0.79278 0.97564 0.0
O112 O 0.27092 0.82164 0.9428 0.0
Fe113 Fe 0.23611 0.85369 0.95955 0.0
O114 O 0.19884 0.83113 0.93193 0.0
O115 O 0.23119 0.8258 0.87893 0.0
O116 O 0.26913 0.76747 0.89384 0.0
C117 C 0.28617 0.74339 0.91383 0.0
C118 C 0.2696 0.89424 0.89806 0.0
O119 O 0.30304 0.75308 0.94363 0.0
C120 C 0.29073 0.86267 0.01386 0.0
O121 O 0.33054 0.80909 0.89969 0.0
O122 O 0.34134 0.8126 0.96125 0.0
O123 O 0.2439 0.88903 0.9224 0.0
O124 O 0.29127 0.86756 0.88861 0.0
C125 C 0.22429 0.78867 1.0043 0.0
O126 O 0.29472 0.82723 0.01396 0.0
O127 O 0.27059 0.87863 0.98888 0.0
C128 C 0.35294 0.81332 0.92733 0.0
O129 O 0.25252 0.77055 0.99195 0.0
O130 O 0.22162 0.82394 0.99922 0.0
C131 C 0.20038 0.82444 0.89684 0.0
Fe132 Fe 0.71986 0.30089 0.54455 0.0
Fe133 Fe 0.78158 0.35953 0.56231 0.0
O134 O 0.7449 0.32881 0.57806 0.0
Fe135 Fe 0.73453 0.3252 0.62696 0.0
O136 O 0.74236 0.27454 0.62748 0.0
O137 O 0.71132 0.26051 0.57587 0.0
O138 O 0.7636 0.27789 0.52914 0.0
C139 C 0.79231 0.29544 0.51716 0.0
C140 C 0.66191 0.32263 0.59161 0.0
O141 O 0.79481 0.3307 0.52163 0.0
C142 C 0.75083 0.40046 0.62513 0.0
O143 O 0.7229 0.33654 0.50711 0.0
O144 O 0.74833 0.38692 0.53337 0.0
O145 O 0.68375 0.31962 0.61989 0.0
O146 O 0.67437 0.32116 0.55798 0.0
C147 C 0.81421 0.32475 0.62381 0.0
O148 O 0.77641 0.39395 0.601 0.0
O149 O 0.72608 0.37583 0.63181 0.0
C150 C 0.72853 0.37191 0.50743 0.0
O151 O 0.81716 0.33356 0.58926 0.0
O152 O 0.78359 0.32944 0.6417 0.0
C153 C 0.72623 0.25069 0.60674 0.0
Fe154 Fe 0.79578 0.72596 0.04704 0.0
Fe155 Fe 0.73504 0.66589 0.06618 0.0
O156 O 0.7713 0.69756 0.08049 0.0
Fe157 Fe 0.78299 0.70107 0.12917 0.0
O158 O 0.7991 0.74972 0.12754 0.0
O159 O 0.78351 0.77013 0.07121 0.0
O160 O 0.75455 0.73368 0.01619 0.0
C161 C 0.71955 0.72726 0.02007 0.0
C162 C 0.85345 0.70066 0.09808 0.0
O163 O 0.70794 0.70323 0.04373 0.0
C164 C 0.76603 0.62315 0.12269 0.0
O165 O 0.81061 0.68511 0.01992 0.0
O166 O 0.75754 0.65294 0.02108 0.0
O167 O 0.83063 0.68416 0.12027 0.0
O168 O 0.84129 0.72259 0.07224 0.0
C169 C 0.70584 0.70149 0.13156 0.0
O170 O 0.75854 0.6252 0.08777 0.0
O171 O 0.76953 0.65295 0.14184 0.0
C172 C 0.79001 0.65894 1.00733 0.0
O173 O 0.70604 0.67398 0.10859 0.0
O174 O 0.73598 0.71869 0.13985 0.0
C175 C 0.79217 0.77654 0.10526 0.0
Fe176 Fe 0.46987 0.21818 0.22691 0.0
Fe177 Fe 0.4569 0.28008 0.16635 0.0
O178 O 0.43875 0.24466 0.19719 0.0
Fe179 Fe 0.3894 0.23673 0.19877 0.0
O180 O 0.38771 0.24683 0.2489 0.0
O181 O 0.43692 0.2137 0.26681 0.0
O182 O 0.48859 0.26102 0.24934 0.0
C183 C 0.50348 0.28785 0.23105 0.0
C184 C 0.42004 0.16241 0.20535 0.0
O185 O 0.49678 0.29223 0.19625 0.0
C186 C 0.39561 0.25 0.12314 0.0
O187 O 0.50821 0.21749 0.19195 0.0
O188 O 0.48568 0.24558 0.14081 0.0
O189 O 0.39321 0.18591 0.20718 0.0
O190 O 0.45406 0.17297 0.2077 0.0
C191 C 0.39473 0.31634 0.19541 0.0
O192 O 0.42007 0.27505 0.13007 0.0
O193 O 0.38678 0.22639 0.1484 0.0
C194 C 0.50988 0.22432 0.15668 0.0
O195 O 0.43003 0.31728 0.19034 0.0
O196 O 0.37642 0.2861 0.19097 0.0
C197 C 0.40626 0.23028 0.27447 0.0
Fe198 Fe 0.97267 0.30005 0.79467 0.0
Fe199 Fe 0.95221 0.23789 0.85309 0.0
O200 O 0.9388 0.27531 0.82236 0.0
Fe201 Fe 0.89073 0.28807 0.81863 0.0
O202 O 0.89356 0.30492 0.77004 0.0
O203 O 0.94934 0.28723 0.75014 0.0
O204 O 1.00443 0.25927 0.78772 0.0
C205 C 1.00033 0.22412 0.79315 0.0
C206 C 0.92224 0.35776 0.82018 0.0
O207 O 0.97499 0.21211 0.81508 0.0
C208 C 0.8955 0.26735 0.89637 0.0
O209 O 0.99825 0.31457 0.83653 0.0
O210 O 0.9967 0.26028 0.86726 0.0
O211 O 0.9004 0.33491 0.83687 0.0
O212 O 0.94726 0.34557 0.79737 0.0
C213 C 0.8869 0.21103 0.81592 0.0
O214 O 0.93024 0.2597 0.89453 0.0
O215 O 0.87718 0.27345 0.86636 0.0
C216 C 0.00998 0.29323 0.8627 0.0
O217 O 0.90996 0.20934 0.84335 0.0
O218 O 0.87934 0.242 0.79982 0.0
C219 C 0.91524 0.29525 0.74354 0.0
Fe220 Fe 0.62486 0.72377 0.32411 0.0
Fe221 Fe 0.54266 0.71833 0.29956 0.0
O222 O 0.57779 0.73998 0.32803 0.0
Fe223 Fe 0.56646 0.77736 0.35957 0.0
O224 O 0.61013 0.80389 0.34966 0.0
O225 O 0.63975 0.76921 0.30696 0.0
O226 O 0.62091 0.70919 0.27479 0.0
C227 C 0.6001 0.72196 0.24884 0.0
C228 C 0.62152 0.74301 0.40213 0.0
O229 O 0.56668 0.73207 0.2558 0.0
C230 C 0.50611 0.72422 0.36795 0.0
O231 O 0.61164 0.67717 0.34083 0.0
O232 O 0.56534 0.67131 0.29998 0.0
O233 O 0.58756 0.75365 0.40044 0.0
O234 O 0.63934 0.73575 0.37217 0.0
C235 C 0.51876 0.79541 0.3003 0.0
O236 O 0.51673 0.70348 0.3409 0.0
O237 O 0.5209 0.75644 0.37368 0.0
C238 C 0.58911 0.65641 0.32247 0.0
O239 O 0.51299 0.76068 0.29425 0.0
O240 O 0.54459 0.80562 0.3225 0.0
C241 C 0.634 0.80055 0.32299 0.0
Fe242 Fe 0.0433 0.80503 0.7225 0.0
Fe243 Fe 0.06642 0.74317 0.66504 0.0
O244 O 0.07811 0.78188 0.69476 0.0
Fe245 Fe 0.12535 0.79757 0.69762 0.0
O246 O 0.12226 0.81504 0.74624 0.0
O247 O 0.068 0.79388 0.76674 0.0
O248 O 0.01425 0.76284 0.73067 0.0
C249 C 0.02095 0.72799 0.72655 0.0
C250 C 0.0902 0.86526 0.69601 0.0
O251 O 0.04595 0.71691 0.70386 0.0
C252 C 0.12064 0.77487 0.62042 0.0
O253 O 0.01625 0.81756 0.68085 0.0
O254 O 0.02003 0.76305 0.65072 0.0
O255 O 0.11241 0.84331 0.67864 0.0
O256 O 0.06597 0.85189 0.71898 0.0
C257 C 0.13457 0.721 0.70188 0.0
O258 O 0.08651 0.76515 0.62288 0.0
O259 O 0.13897 0.78286 0.64994 0.0
C260 C 1.0047 0.79528 0.65545 0.0
O261 O 0.11061 0.71706 0.67529 0.0
O262 O 0.14001 0.75279 0.71706 0.0
C263 C 0.10126 0.80478 0.77315 0.0
Fe264 Fe 0.83273 0.63085 0.78404 0.0
Fe265 Fe 0.86158 0.56271 0.74036 0.0
O266 O 0.83095 0.58188 0.77508 0.0
Fe267 Fe 0.7984 0.55239 0.79954 0.0
O268 O 0.76072 0.58837 0.80308 0.0
O269 O 0.78404 0.63622 0.77118 0.0
O270 O 0.84359 0.64393 0.73515 0.0
C271 C 0.83594 0.62633 0.70506 0.0
C272 C 0.82027 0.59962 0.85743 0.0
O273 O 0.839 0.59085 0.70331 0.0
C274 C 0.86691 0.50966 0.7963 0.0
O275 O 0.88209 0.62891 0.79715 0.0
O276 O 0.89921 0.59803 0.74661 0.0
O277 O 0.81658 0.56606 0.84592 0.0
O278 O 0.82154 0.62691 0.83438 0.0
C279 C 0.7955 0.51903 0.72965 0.0
O280 O 0.88458 0.53315 0.7757 0.0
O281 O 0.83138 0.51221 0.801 0.0
C282 C 0.90712 0.6205 0.77335 0.0
O283 O 0.83063 0.524 0.72706 0.0
O284 O 0.7768 0.53562 0.75522 0.0
C285 C 0.75691 0.62049 0.78768 0.0
Fe286 Fe 0.72203 0.47413 0.29638 0.0
Fe287 Fe 0.69762 0.39168 0.28349 0.0
O288 O 0.69364 0.44018 0.27249 0.0
Fe289 Fe 0.66168 0.45489 0.23638 0.0
O290 O 0.68908 0.49611 0.22191 0.0
O291 O 0.74301 0.49008 0.25168 0.0
O292 O 0.76326 0.44328 0.30325 0.0
C293 C 0.77193 0.41203 0.28843 0.0
C294 C 0.64982 0.50884 0.29029 0.0
O295 O 0.74736 0.39148 0.27342 0.0
C296 C 0.62229 0.39273 0.26966 0.0
O297 O 0.70397 0.46092 0.34289 0.0
O298 O 0.70522 0.39919 0.33429 0.0
O299 O 0.63493 0.48297 0.27044 0.0
O300 O 0.68536 0.51057 0.29462 0.0
C301 C 0.6961 0.39393 0.20348 0.0
O302 O 0.64754 0.38707 0.29406 0.0
O303 O 0.62817 0.41568 0.24282 0.0
C304 C 0.70304 0.42766 0.35591 0.0
O305 O 0.69177 0.37632 0.23445 0.0
O306 O 0.68723 0.42833 0.20036 0.0
C307 C 0.72421 0.50174 0.2235 0.0
Fe308 Fe 0.29353 0.97107 0.22211 0.0
Fe309 Fe 0.31892 0.88918 0.23427 0.0
O310 O 0.32205 0.93756 0.24655 0.0
Fe311 Fe 0.35312 0.95167 0.28355 0.0
O312 O 0.31504 0.97293 0.3102 0.0
O313 O 0.28549 1.0015 0.26353 0.0
O314 O 0.24962 0.94669 0.23434 0.0
C315 C 0.24324 0.9127 0.2259 0.0
C316 C 0.35969 0.01161 0.22906 0.0
O317 O 0.27002 0.89066 0.21818 0.0
C318 C 0.39687 0.89592 0.25346 0.0
O319 O 0.29685 0.94643 0.17623 0.0
O320 O 0.33572 0.89887 0.18657 0.0
O321 O 0.36578 0.99724 0.26148 0.0
O322 O 0.33436 0.99844 0.20769 0.0
C323 C 0.31868 0.88503 0.31173 0.0
O324 O 0.36725 0.87694 0.2479 0.0
O325 O 0.39447 0.93076 0.26074 0.0
C326 C 0.31894 0.92097 0.16383 0.0
O327 O 0.30147 0.87744 0.28128 0.0
O328 O 0.34522 0.90901 0.31228 0.0
C329 C 0.29104 0.99655 0.29864 0.0
Fe330 Fe 0.20131 0.1276 0.74255 0.0
Fe331 Fe 0.1666 0.06165 0.78722 0.0
O332 O 0.19784 0.07849 0.75157 0.0
Fe333 Fe 0.22594 0.04574 0.72544 0.0
O334 O 0.26606 0.07751 0.71792 0.0
O335 O 0.25179 0.1276 0.75132 0.0
O336 O 0.1955 0.14135 0.79213 0.0
C337 C 0.19816 0.12278 0.82265 0.0
C338 C 0.20361 0.09413 0.66903 0.0
O339 O 0.19088 0.08796 0.8241 0.0
C340 C 0.15519 0.00951 0.73132 0.0
O341 O 0.15104 0.13274 0.73326 0.0
O342 O 0.13141 0.09934 0.78166 0.0
O343 O 0.20542 0.06041 0.6806 0.0
O344 O 0.20777 0.12182 0.69138 0.0
C345 C 0.23115 0.0158 0.79687 0.0
O346 O 0.14028 0.03402 0.75266 0.0
O347 O 0.19063 1.00816 0.72708 0.0
C348 C 0.12531 0.12376 0.75622 0.0
O349 O 0.19601 0.02116 0.80016 0.0
O350 O 0.24891 0.02853 0.76854 0.0
C351 C 0.27555 0.10818 0.73335 0.0
Fe352 Fe 0.78035 0.82248 0.63057 0.0
Fe353 Fe 0.7344 0.85726 0.56476 0.0
O354 O 0.77066 0.82625 0.58127 0.0
Fe355 Fe 0.79639 0.79811 0.54812 0.0
O356 O 0.80454 0.75797 0.57965 0.0
O357 O 0.77241 0.77173 0.63073 0.0
O358 O 0.73126 0.82736 0.64543 0.0
C359 C 0.70045 0.82518 0.62757 0.0
C360 C 0.85364 0.81955 0.59624 0.0
O361 O 0.69825 0.83331 0.59277 0.0
C362 C 0.78744 0.86817 0.50912 0.0
O363 O 0.78882 0.87297 0.63594 0.0
O364 O 0.74096 0.89278 0.6019 0.0
O365 O 0.8417 0.81838 0.56237 0.0
O366 O 0.83126 0.81657 0.6241 0.0
C367 C 0.72415 0.79233 0.51951 0.0
O368 O 0.76753 0.88352 0.53469 0.0
O369 O 0.79398 0.83303 0.51002 0.0
C370 C 0.76559 0.8986 0.62718 0.0
O371 O 0.7203 0.82736 0.52509 0.0
O372 O 0.75304 0.77505 0.53175 0.0
C373 C 0.78977 0.74815 0.61054 0.0
Fe374 Fe 0.73255 0.19923 0.13008 0.0
Fe375 Fe 0.78024 0.16238 0.06776 0.0
O376 O 0.74426 0.19462 0.08154 0.0
Fe377 Fe 0.7201 0.22269 0.0474 0.0
O378 O 0.73436 0.26683 0.07003 0.0
O379 O 0.71851 0.24854 0.1272 0.0
O380 O 0.77988 0.21549 0.14106 0.0
C381 C 0.80982 0.19758 0.13353 0.0
C382 C 0.66192 0.20084 0.09941 0.0
O383 O 0.8096 0.1704 0.11015 0.0
C384 C 0.7246 0.15502 1.0093 0.0
O385 O 0.74454 0.15076 0.14341 0.0
O386 O 0.75635 0.12235 0.08976 0.0
O387 O 0.67455 0.22204 0.07319 0.0
O388 O 0.68446 0.18374 0.1214 0.0
C389 C 0.79621 0.22191 0.02003 0.0
O390 O 0.75736 0.1493 0.02272 0.0
O391 O 0.70398 0.18125 0.02196 0.0
C392 C 0.74858 0.12075 0.12464 0.0
O393 O 0.80762 0.19921 0.04505 0.0
O394 O 0.76116 0.22805 0.01565 0.0
C395 C 0.72776 0.2742 0.10433 0.0
Fe396 Fe 0.29842 0.71923 0.47861 0.0
Fe397 Fe 0.29069 0.69291 0.39694 0.0
O398 O 0.27555 0.69037 0.44461 0.0
Fe399 Fe 0.23782 0.65983 0.45749 0.0
O400 O 0.21068 0.69786 0.47876 0.0
O401 O 0.25665 0.72672 0.50842 0.0
O402 O 0.28573 0.76262 0.45327 0.0
C403 C 0.29543 0.7684 0.41937 0.0
C404 C 0.29141 0.65231 0.51795 0.0
O405 O 0.30681 0.74161 0.39901 0.0
C406 C 0.27024 0.61569 0.40269 0.0
O407 O 0.34489 0.71666 0.45522 0.0
O408 O 0.33712 0.67537 0.40954 0.0
O409 O 0.25907 0.64649 0.5034 0.0
O410 O 0.31245 0.67846 0.50596 0.0
C411 C 0.21397 0.69566 0.3897 0.0
O412 O 0.27713 0.64513 0.38399 0.0
O413 O 0.26036 0.61809 0.43696 0.0
C414 C 0.35872 0.69367 0.43134 0.0
O415 O 0.24537 0.71095 0.3828 0.0
O416 O 0.21084 0.66918 0.41382 0.0
C417 C 0.22179 0.72142 0.50295 0.0
Fe418 Fe 0.22714 0.3195 0.89378 0.0
Fe419 Fe 0.27773 0.35479 0.95469 0.0
O420 O 0.24055 0.32387 0.94178 0.0
Fe421 Fe 0.21644 0.29677 0.97644 0.0
O422 O 0.23018 0.25238 0.95418 0.0
O423 O 0.21182 0.27035 0.89763 0.0
O424 O 0.2732 0.30175 0.88149 0.0
C425 C 0.30389 0.31867 0.88764 0.0
C426 C 0.1579 0.31982 0.92601 0.0
O427 O 0.30591 0.34527 0.91168 0.0
C428 C 0.22237 0.36459 0.01309 0.0
O429 O 0.24022 0.36747 0.87979 0.0
O430 O 0.25506 0.39567 0.93282 0.0
O431 O 0.17085 0.29775 0.95125 0.0
O432 O 0.18017 0.33691 0.90398 0.0
C433 C 0.2923 0.29526 1.00296 0.0
O434 O 0.25552 0.36895 0.99992 0.0
O435 O 0.20118 0.33883 1.0008 0.0
C436 C 0.24588 0.39737 0.89829 0.0
O437 O 0.30421 0.31701 0.97732 0.0
O438 O 0.25723 0.29109 1.00821 0.0
C439 C 0.22181 0.2447 0.92036 0.0
Fe440 Fe 0.56511 0.74202 0.85588 0.0
Fe441 Fe 0.53927 0.80258 0.79806 0.0
O442 O 0.57516 0.78096 0.82578 0.0
Fe443 Fe 0.62161 0.79866 0.82263 0.0
O444 O 0.6384 0.7544 0.80432 0.0
O445 O 0.61007 0.71759 0.84611 0.0
O446 O 0.54556 0.71481 0.81725 0.0
C447 C 0.51941 0.7247 0.7953 0.0
C448 C 0.61815 0.77642 0.90016 0.0
O449 O 0.51139 0.75931 0.79109 0.0
C450 C 0.58384 0.86487 0.8231 0.0
O451 O 0.51829 0.76029 0.87 0.0
O452 O 0.51265 0.81478 0.83999 0.0
O453 O 0.63584 0.78545 0.87055 0.0
O454 O 0.58451 0.76497 0.89789 0.0
C455 C 0.59691 0.80282 0.74711 0.0
O456 O 0.56033 0.85027 0.80023 0.0
O457 O 0.60672 0.84399 0.84086 0.0
C458 C 0.50233 0.79224 0.86576 0.0
O459 O 0.56386 0.79148 0.75387 0.0
O460 O 0.61767 0.8148 0.7735 0.0
C461 C 0.63451 0.7228 0.82035 0.0
Fe462 Fe 0.04546 0.71974 0.22558 0.0
Fe463 Fe 0.1258 0.73567 0.1963 0.0
O464 O 0.07669 0.74469 0.19495 0.0
Fe465 Fe 0.0589 0.77964 0.1636 0.0
O466 O 0.01998 0.79392 0.19422 0.0
O467 O 0.02919 0.76355 0.24769 0.0
O468 O 0.0792 0.71459 0.26453 0.0
C469 C 0.10966 0.73156 0.27168 0.0
C470 C 1.00452 0.72539 0.15624 0.0
O471 O 0.12803 0.74771 0.24586 0.0
C472 C 0.11853 0.74599 0.12054 0.0
O473 O 0.05955 0.67395 0.20647 0.0
O474 O 0.12074 0.6853 0.20653 0.0
O475 O 0.02924 0.74514 0.13949 0.0
O476 O 1.00625 0.72005 0.19174 0.0
C477 C 0.12206 0.815 0.1913 0.0
O478 O 0.12743 0.72327 0.14652 0.0
O479 O 0.09509 0.77227 0.12705 0.0
C480 C 0.09335 0.66253 0.20447 0.0
O481 O 0.13992 0.78447 0.18665 0.0
O482 O 0.08683 0.81664 0.18628 0.0
C483 C 0.01588 0.79143 0.22968 0.0
Fe484 Fe 0.39063 0.2859 0.6884 0.0
Fe485 Fe 0.45754 0.24032 0.65809 0.0
O486 O 0.43967 0.27634 0.68808 0.0
Fe487 Fe 0.47071 0.30179 0.71836 0.0
O488 O 0.43643 0.30814 0.75704 0.0
O489 O 0.38739 0.2753 0.73832 0.0
O490 O 0.37627 0.23705 0.68008 0.0
C491 C 0.39391 0.2067 0.68641 0.0
C492 C 0.42382 0.35876 0.69497 0.0
O493 O 0.42915 0.20452 0.68192 0.0
C494 C 0.51205 0.29426 0.64925 0.0
O495 O 0.38984 0.29686 0.63818 0.0
O496 O 0.42167 0.24673 0.62096 0.0
O497 O 0.45739 0.34702 0.69772 0.0
O498 O 0.39615 0.33637 0.69725 0.0
C499 C 0.49941 0.23001 0.72511 0.0
O500 O 0.48761 0.27384 0.63298 0.0
O501 O 0.51024 0.30034 0.68469 0.0
C502 C 0.39876 0.27314 0.61316 0.0
O503 O 0.49613 0.2267 0.68963 0.0
O504 O 0.48637 0.2586 0.74199 0.0
C505 C 0.40569 0.29147 0.76413 0.0
Fe506 Fe 0.97413 0.21905 0.30088 0.0
Fe507 Fe 0.89224 0.22932 0.32548 0.0
O508 O 0.9402 0.2426 0.32934 0.0
Fe509 Fe 0.95334 0.27922 0.36118 0.0
O510 O 0.97578 0.30672 0.32408 0.0
O511 O 1.00462 0.2606 0.2942 0.0
O512 O 0.95013 0.23229 0.25677 0.0
C513 C 0.91625 0.22364 0.25016 0.0
C514 C 0.01227 0.22437 0.36899 0.0
O515 O 0.89477 0.21359 0.27658 0.0
C516 C 0.89742 0.2466 0.40341 0.0
O517 O 0.9497 0.173 0.30299 0.0
O518 O 0.90266 0.18222 0.34263 0.0
O519 O 0.99839 0.25693 0.37488 0.0
O520 O 1.00049 0.20402 0.34217 0.0
C521 C 0.8874 0.30629 0.32465 0.0
O522 O 0.87881 0.24243 0.37339 0.0
O523 O 0.9318 0.25568 0.40187 0.0
C524 C 0.92474 0.16002 0.32541 0.0
O525 O 0.88024 0.27567 0.30783 0.0
O526 O 0.91059 0.30757 0.35207 0.0
C527 C 1.0 0.29554 0.30049 0.0
C528 C 0.22418 0.52675 0.36477 0.0
C529 C 0.24066 0.52311 0.3285 0.0
C530 C 0.23604 0.55476 0.39037 0.0
C531 C 0.26496 0.58019 0.38078 0.0
H532 H 0.20051 0.50917 0.3728 0.0
H533 H 0.22074 0.55805 0.41673 0.0
S534 S 0.32208 0.57838 0.29256 0.0
N535 N 0.29089 0.54432 0.28669 0.0
N536 N 0.3132 0.59661 0.33465 0.0
C537 C 0.28369 0.57485 0.34595 0.0
C538 C 0.27154 0.5465 0.31987 0.0
C539 C 0.27959 0.45845 0.88696 0.0
C540 C 0.25104 0.433 0.87649 0.0
C541 C 0.2915 0.48706 0.86214 0.0
C542 C 0.27498 0.49186 0.82609 0.0
H543 H 0.29472 0.45468 0.91338 0.0
H544 H 0.31501 0.50463 0.87068 0.0
S545 S 0.19547 0.43606 0.78731 0.0
N546 N 0.20389 0.41685 0.82915 0.0
N547 N 0.2259 0.47107 0.78288 0.0
C548 C 0.24437 0.46858 0.81651 0.0
C549 C 0.23256 0.43904 0.84159 0.0
C550 C 0.73594 0.96159 0.63991 0.0
C551 C 0.76166 0.93331 0.65114 0.0
C552 C 0.7249 0.99053 0.6646 0.0
C553 C 0.73921 0.99299 0.70173 0.0
H554 H 0.72265 0.96047 0.61229 0.0
H555 H 0.70374 0.01044 0.65488 0.0
S556 S 0.81094 0.92924 0.74406 0.0
N557 N 0.80397 0.91193 0.70119 0.0
N558 N 0.78331 0.9667 0.74743 0.0
C559 C 0.76711 0.96676 0.71255 0.0
C560 C 0.77829 0.9369 0.68734 0.0
C561 C 0.74816 0.0528 0.20803 0.0
C562 C 0.77551 0.02606 0.19749 0.0
C563 C 0.73738 0.08183 0.183 0.0
C564 C 0.75309 0.08489 0.14633 0.0
H565 H 0.73696 0.05288 0.23658 0.0
H566 H 0.71799 0.10322 0.1932 0.0
S567 S 0.82143 0.01805 0.1033 0.0
N568 N 0.81483 1.00174 0.14663 0.0
N569 N 0.79427 0.05579 0.0996 0.0
C570 C 0.778 0.05632 0.13446 0.0
C571 C 0.78933 0.02712 0.16008 0.0
C572 C 0.33717 0.28324 0.57904 0.0
C573 C 0.37446 0.26903 0.57902 0.0
C574 C 0.31049 0.27109 0.55213 0.0
C575 C 0.32025 0.24432 0.52445 0.0
H576 H 0.32768 0.30168 0.60157 0.0
H577 H 0.28154 0.28057 0.55477 0.0
S578 S 0.41572 0.20494 0.50692 0.0
N579 N 0.42091 0.23166 0.54485 0.0
N580 N 0.37088 0.20872 0.49481 0.0
C581 C 0.35816 0.23281 0.52193 0.0
C582 C 0.38525 0.24525 0.54903 0.0
C583 C 0.1334 0.77617 0.05847 0.0
C584 C 0.14249 0.74882 0.08597 0.0
C585 C 0.15941 0.78692 0.03073 0.0
C586 C 0.19559 0.77061 0.02892 0.0
H587 H 0.10675 0.79115 0.05961 0.0
H588 H 0.15162 0.80953 0.01153 0.0
S589 S 0.23141 0.69305 0.08978 0.0
N590 N 0.18877 0.70201 0.10642 0.0
N591 N 0.23759 0.72232 0.05384 0.0
C592 C 0.20394 0.74074 0.05381 0.0
C593 C 0.17739 0.72981 0.08241 0.0
C594 C 0.8838 0.28148 0.46323 0.0
C595 C 0.87545 0.2514 0.43881 0.0
C596 C 0.85733 0.29398 0.48997 0.0
C597 C 0.82163 0.2767 0.49361 0.0
H598 H 0.90964 0.29741 0.45972 0.0
H599 H 0.8643 0.3186 0.50675 0.0
S600 S 0.78889 0.19252 0.44075 0.0
N601 N 0.83111 0.2015 0.4231 0.0
N602 N 0.78155 0.22474 0.47374 0.0
C603 C 0.81439 0.24438 0.47179 0.0
C604 C 0.84125 0.23184 0.44428 0.0
C605 C 0.62976 0.74297 0.96212 0.0
C606 C 0.6407 0.77036 0.93538 0.0
C607 C 0.65478 0.7305 0.99049 0.0
C608 C 0.69185 0.74483 0.99331 0.0
H609 H 0.6025 0.72936 0.95983 0.0
H610 H 0.64545 0.70813 1.00921 0.0
S611 S 0.73208 0.82169 0.93418 0.0
N612 N 0.68947 0.81491 0.91663 0.0
N613 N 0.7363 0.79146 0.96956 0.0
C614 C 0.70208 0.77422 0.96846 0.0
C615 C 0.67659 0.78698 0.9397 0.0
C616 C 0.53242 0.33343 0.27792 0.0
C617 C 0.53584 0.3093 0.24639 0.0
C618 C 0.56107 0.35985 0.2866 0.0
C619 C 0.59347 0.36301 0.26366 0.0
H620 H 0.50683 0.33321 0.29467 0.0
H621 H 0.55716 0.37886 0.31029 0.0
S622 S 0.61726 0.30318 0.18065 0.0
N623 N 0.57566 0.28782 0.19476 0.0
N624 N 0.62823 0.33758 0.2101 0.0
C625 C 0.59766 0.33772 0.23331 0.0
C626 C 0.56917 0.3108 0.22495 0.0
C627 C 0.06127 0.21016 0.75875 0.0
C628 C 0.02899 0.19688 0.77799 0.0
C629 C 0.09128 0.18583 0.74929 0.0
C630 C 0.09045 0.14723 0.75893 0.0
H631 H 0.06422 0.23991 0.75231 0.0
H632 H 0.11621 0.19786 0.73629 0.0
S633 S 0.01039 0.09675 0.80385 0.0
N634 N 0.99643 0.14119 0.80201 0.0
N635 N 0.05293 0.09604 0.78483 0.0
C636 C 0.05742 0.1331 0.77586 0.0
C637 C 0.02673 0.15771 0.7852 0.0
C638 C 0.46421 0.81255 0.25808 0.0
C639 C 0.49186 0.82401 0.2843 0.0
C640 C 0.43538 0.83707 0.24621 0.0
C641 C 0.43262 0.87434 0.25993 0.0
H642 H 0.46393 0.78386 0.24749 0.0
H643 H 0.41405 0.82606 0.22722 0.0
S644 S 0.49991 0.92 0.32611 0.0
N645 N 0.51633 0.87662 0.32125 0.0
N646 N 0.46195 0.92246 0.29908 0.0
C647 C 0.46135 0.88706 0.28433 0.0
C648 C 0.4909 0.86199 0.29649 0.0
C649 C 0.9686 0.63581 0.74231 0.0
C650 C 0.94059 0.64549 0.76885 0.0
C651 C 0.99564 0.66207 0.7304 0.0
C652 C 0.99573 0.69937 0.74426 0.0
H653 H 0.96856 0.6082 0.72912 0.0
H654 H 0.01541 0.65344 0.70866 0.0
S655 S 0.93231 0.73755 0.81869 0.0
N656 N 0.91756 0.69386 0.81215 0.0
N657 N 0.96824 0.74324 0.78949 0.0
C658 C 0.9697 0.70866 0.7729 0.0
C659 C 0.94226 0.68173 0.78533 0.0
C660 C 0.73595 0.4617 0.65973 0.0
C661 C 0.75879 0.42947 0.65449 0.0
C662 C 0.74633 0.49027 0.68582 0.0
C663 C 0.7796 0.48706 0.70754 0.0
H664 H 0.71085 0.46549 0.64264 0.0
H665 H 0.72926 0.51559 0.68774 0.0
S666 S 0.84576 0.40566 0.70827 0.0
N667 N 0.81413 0.39492 0.67575 0.0
N668 N 0.83265 0.4471 0.72497 0.0
C669 C 0.80107 0.45383 0.70405 0.0
C670 C 0.79095 0.42544 0.67746 0.0
C671 C 0.76771 0.5548 0.20564 0.0
C672 C 0.74113 0.52748 0.1949 0.0
C673 C 0.77782 0.58415 0.18079 0.0
C674 C 0.76216 0.58704 0.14407 0.0
H675 H 0.77887 0.55502 0.23421 0.0
H676 H 0.79663 0.60588 0.19118 0.0
S677 S 0.69616 0.51859 0.1003 0.0
N678 N 0.70288 0.50232 0.14365 0.0
N679 N 0.72218 0.55709 0.09693 0.0
C680 C 0.73812 0.55794 0.13193 0.0
C681 C 0.72747 0.52834 0.15739 0.0
C682 C 0.27435 0.04989 0.39041 0.0
C683 C 0.24828 0.07809 0.38006 0.0
C684 C 0.28634 0.02249 0.36449 0.0
C685 C 0.27303 0.02216 0.32687 0.0
H686 H 0.28718 0.05008 0.41828 0.0
H687 H 0.30773 1.0026 0.37369 0.0
S688 S 0.19952 0.08577 0.28714 0.0
N689 N 0.20574 0.10096 0.33089 0.0
N690 N 0.22845 0.04953 0.28209 0.0
C691 C 0.24465 0.04829 0.31698 0.0
C692 C 0.23217 0.07614 0.34358 0.0
C693 C 0.28074 0.92942 0.8369 0.0
C694 C 0.2683 0.92944 0.87492 0.0
C695 C 0.27138 0.95914 0.81198 0.0
C696 C 0.24924 0.98974 0.8243 0.0
H697 H 0.29551 0.90515 0.82556 0.0
H698 H 0.27916 0.95678 0.7824 0.0
S699 S 0.21623 1.00714 0.92243 0.0
N700 N 0.23773 0.96581 0.92467 0.0
N701 N 0.2199 0.021 0.87791 0.0
C702 C 0.23958 0.99165 0.86285 0.0
C703 C 0.24921 0.96171 0.88815 0.0
C704 C 0.65967 0.78964 0.49066 0.0
C705 C 0.69599 0.77359 0.49441 0.0
C706 C 0.63415 0.77721 0.46294 0.0
C707 C 0.64399 0.7484 0.43741 0.0
H708 H 0.65136 0.81321 0.50835 0.0
H709 H 0.6076 0.79211 0.45988 0.0
S710 S 0.73328 0.69326 0.43844 0.0
N711 N 0.73865 0.72435 0.47285 0.0
N712 N 0.69096 0.70116 0.42047 0.0
C713 C 0.67909 0.73019 0.44263 0.0
C714 C 0.70498 0.74267 0.47118 0.0
C715 C 0.83503 0.27205 0.93283 0.0
C716 C 0.87341 0.26136 0.93197 0.0
C717 C 0.81089 0.26062 0.96216 0.0
C718 C 0.82386 0.23794 0.99224 0.0
H719 H 0.82295 0.28823 0.90974 0.0
H720 H 0.78142 0.26859 0.96035 0.0
S721 S 0.9231 0.20638 1.00647 0.0
N722 N 0.9241 0.22979 0.96601 0.0
N723 N 0.87898 0.20852 0.02135 0.0
C724 C 0.86281 0.22916 0.99319 0.0
C725 C 0.88747 0.24084 0.96312 0.0
C726 C 0.1322 0.73795 0.56071 0.0
C727 C 0.14258 0.7675 0.58522 0.0
C728 C 0.15724 0.7244 0.5329 0.0
C729 C 0.1937 0.7398 0.52855 0.0
H730 H 0.10553 0.72353 0.56456 0.0
H731 H 0.14861 0.70039 0.51606 0.0
S732 S 0.23175 0.82221 0.58102 0.0
N733 N 0.18974 0.81502 0.59988 0.0
N734 N 0.23666 0.7897 0.54791 0.0
C735 C 0.20319 0.77124 0.55097 0.0
C736 C 0.17769 0.78505 0.57914 0.0
C737 C 0.35692 0.29255 0.03217 0.0
C738 C 0.31975 0.27865 0.0305 0.0
C739 C 0.38199 0.28111 0.06076 0.0
C740 C 0.37123 0.25502 0.08895 0.0
H741 H 0.3664 0.31377 0.01222 0.0
H742 H 0.40961 0.29412 0.0616 0.0
S743 S 0.27879 0.20592 0.0943 0.0
N744 N 0.2747 0.23427 0.05735 0.0
N745 N 0.32178 0.21268 0.11093 0.0
C746 C 0.33499 0.23889 0.08611 0.0
C747 C 0.30929 0.25077 0.05705 0.0
C748 C 0.46385 0.70583 0.75526 0.0
C749 C 0.49444 0.69521 0.77849 0.0
C750 C 0.4366 0.67947 0.74378 0.0
C751 C 0.43858 0.64143 0.75536 0.0
H752 H 0.45991 0.73508 0.74716 0.0
H753 H 0.41252 0.68962 0.7278 0.0
S754 S 0.51596 0.59748 0.8108 0.0
N755 N 0.5275 0.64255 0.80836 0.0
N756 N 0.47587 0.5935 0.78735 0.0
C757 C 0.47037 0.62984 0.77615 0.0
C758 C 0.49837 0.65654 0.78755 0.0
C759 C 0.9905 0.85673 0.23256 0.0
C760 C 0.99172 0.82021 0.24824 0.0
C761 C 0.96322 0.88302 0.24371 0.0
C762 C 0.93555 0.87391 0.27082 0.0
H763 H 0.00984 0.8646 0.21013 0.0
H764 H 0.96256 0.91001 0.22922 0.0
S765 S 0.92976 0.78366 0.32446 0.0
N766 N 0.96576 0.77754 0.29538 0.0
N767 N 0.91399 0.82685 0.3164 0.0
C768 C 0.93838 0.83848 0.28909 0.0
C769 C 0.96654 0.81165 0.27777 0.0
C770 C 0.55171 0.21299 0.77017 0.0
C771 C 0.52287 0.2018 0.74525 0.0
C772 C 0.57941 0.18708 0.7823 0.0
C773 C 0.57896 0.14918 0.76997 0.0
H774 H 0.55451 0.2424 0.77807 0.0
H775 H 0.60278 0.19753 0.79903 0.0
S776 S 0.50453 0.10451 0.71131 0.0
N777 N 0.49218 0.14942 0.71346 0.0
N778 N 0.54361 0.1008 0.73652 0.0
C779 C 0.54804 0.1371 0.74817 0.0
C780 C 0.5202 0.16341 0.73568 0.0
C781 C 0.0585 0.38515 0.28673 0.0
C782 C 0.08354 0.37519 0.25745 0.0
C783 C 0.03047 0.35993 0.29932 0.0
C784 C 0.02638 0.32366 0.28322 0.0
H785 H 0.06205 0.4116 0.30167 0.0
H786 H 0.01311 0.36832 0.32313 0.0
S787 S 0.08084 0.28659 0.2014 0.0
N788 N 0.09939 0.32852 0.2096 0.0
N789 N 0.04703 0.2813 0.23313 0.0
C790 C 0.04956 0.31455 0.25214 0.0
C791 C 0.07796 0.34023 0.23931 0.0
C792 C 0.23399 0.41384 0.06287 0.0
C793 C 0.21051 0.38567 0.04764 0.0
C794 C 0.22695 0.42937 0.09874 0.0
C795 C 0.19654 0.41684 0.12118 0.0
H796 H 0.25907 0.4228 0.04782 0.0
H797 H 0.24705 0.44951 0.10987 0.0
S798 S 0.1221 0.34951 0.09147 0.0
N799 N 0.15189 0.35045 0.05555 0.0
N800 N 0.13937 0.37907 0.12308 0.0
C801 C 0.17091 0.39129 0.10491 0.0
C802 C 0.17775 0.37581 0.06819 0.0
C803 C 0.27854 0.60461 0.56938 0.0
C804 C 0.30275 0.63177 0.55311 0.0
C805 C 0.28568 0.58947 0.60553 0.0
C806 C 0.31709 0.60119 0.62675 0.0
H807 H 0.25292 0.59624 0.55495 0.0
H808 H 0.26517 0.57047 0.61795 0.0
S809 S 0.392 0.66711 0.59586 0.0
N810 N 0.36212 0.66604 0.56 0.0
N811 N 0.37438 0.63833 0.62811 0.0
C812 C 0.3427 0.62629 0.61009 0.0
C813 C 0.33589 0.64133 0.5732 0.0
C814 C 0.68545 0.15197 0.95017 0.0
C815 C 0.71283 0.13526 0.97386 0.0
C816 C 0.67828 0.138 0.91371 0.0
C817 C 0.69745 0.10619 0.89961 0.0
H818 H 0.67087 0.17742 0.95887 0.0
H819 H 0.65861 0.1532 0.89576 0.0
S820 S 0.76868 0.04931 0.9514 0.0
N821 N 0.75705 0.08312 0.98142 0.0
N822 N 0.74291 0.05659 0.91307 0.0
C823 C 0.72296 0.08757 0.92378 0.0
C824 C 0.73082 0.10218 0.96081 0.0
C825 C 0.82606 0.87203 0.45001 0.0
C826 C 0.79888 0.88882 0.47393 0.0
C827 C 0.83276 0.88547 0.41328 0.0
C828 C 0.81315 0.91679 0.39877 0.0
H829 H 0.84123 0.84701 0.45905 0.0
H830 H 0.85255 0.87025 0.39553 0.0
S831 S 0.74155 0.97346 0.4503 0.0
N832 N 0.75396 0.94035 0.48092 0.0
N833 N 0.7672 0.96606 0.41191 0.0
C834 C 0.78777 0.93561 0.42303 0.0
C835 C 0.78054 0.92158 0.46058 0.0
C836 C 0.09661 0.22692 0.43617 0.0
C837 C 0.11818 0.19586 0.42412 0.0
C838 C 0.06133 0.23488 0.41967 0.0
C839 C 0.04627 0.21189 0.39073 0.0
H840 H 0.1083 0.24679 0.45629 0.0
H841 H 0.04673 0.26032 0.42836 0.0
S842 S 0.0901 0.1238 0.35368 0.0
N843 N 0.12087 0.13998 0.38473 0.0
N844 N 0.05445 0.15385 0.35439 0.0
C845 C 0.06648 0.17892 0.38089 0.0
C846 C 0.10247 0.17123 0.39738 0.0
C847 C 0.40678 0.83515 0.88836 0.0
C848 C 0.39366 0.81301 0.91861 0.0
C849 C 0.44286 0.82971 0.87316 0.0
C850 C 0.46705 0.80118 0.88695 0.0
H851 H 0.38834 0.85582 0.87524 0.0
H852 H 0.45087 0.84676 0.84897 0.0
S853 S 0.44675 0.73743 0.96807 0.0
N854 N 0.4082 0.76338 0.96379 0.0
N855 N 0.47601 0.75242 0.93488 0.0
C856 C 0.4549 0.78009 0.9186 0.0
C857 C 0.41822 0.78618 0.93451 0.0
C858 C 0.57138 0.33224 0.64685 0.0
C859 C 0.54686 0.3066 0.62886 0.0
C860 C 0.60753 0.33954 0.63266 0.0
C861 C 0.62078 0.32195 0.59956 0.0
H862 H 0.56338 0.34556 0.67327 0.0
H863 H 0.62601 0.35777 0.64886 0.0
S864 S 0.56665 0.25596 0.53891 0.0
N865 N 0.53743 0.2662 0.5739 0.0
N866 N 0.60554 0.28026 0.54718 0.0
C867 C 0.59572 0.29855 0.57953 0.0
C868 C 0.55874 0.29081 0.59417 0.0
C869 C 0.94347 0.69008 0.15541 0.0
C870 C 0.9692 0.71385 0.13646 0.0
C871 C 0.907 0.68392 0.14146 0.0
C872 C 0.89444 0.70126 0.10785 0.0
H873 H 0.95091 0.67727 0.18229 0.0
H874 H 0.88797 0.66687 0.15831 0.0
S875 S 0.95265 0.76118 0.04403 0.0
N876 N 0.98093 0.75126 0.07986 0.0
N877 N 0.91253 0.73943 0.0533 0.0
C878 C 0.92088 0.72259 0.08691 0.0
C879 C 0.95816 0.72895 0.10126 0.0
C880 C 0.41038 0.06085 0.23908 0.0
C881 C 0.37904 0.04766 0.2182 0.0
C882 C 0.42571 0.09705 0.23279 0.0
C883 C 0.40998 0.12169 0.20575 0.0
H884 H 0.4224 0.04361 0.2614 0.0
H885 H 0.4485 0.10663 0.25082 0.0
S886 S 0.33037 0.10045 0.14109 0.0
N887 N 0.33507 0.06185 0.16694 0.0
N888 N 0.36333 0.12968 0.15613 0.0
C889 C 0.37998 0.10833 0.18349 0.0
C890 C 0.36472 0.07142 0.18939 0.0
C891 C 0.9293 0.42273 0.79267 0.0
C892 C 0.91271 0.39874 0.8199 0.0
C893 C 0.91613 0.45968 0.78693 0.0
C894 C 0.88578 0.47411 0.80814 0.0
H895 H 0.95135 0.41237 0.77414 0.0
H896 H 0.92835 0.47612 0.76414 0.0
S897 S 0.83715 0.42572 0.88764 0.0
N898 N 0.86772 0.39424 0.87184 0.0
N899 N 0.84293 0.46352 0.86086 0.0
C900 C 0.87094 0.45158 0.83742 0.0
C901 C 0.88441 0.41399 0.84338 0.0
C902 C 0.64174 0.5639 0.33323 0.0
C903 C 0.62752 0.54187 0.30328 0.0
C904 C 0.6271 0.59974 0.34118 0.0
C905 C 0.59768 0.61531 0.31936 0.0
H906 H 0.66577 0.55416 0.34955 0.0
H907 H 0.64049 0.61615 0.36328 0.0
S908 S 0.54646 0.56655 0.24157 0.0
N909 N 0.57934 0.53615 0.25468 0.0
N910 N 0.55151 0.60354 0.26951 0.0
C911 C 0.58092 0.59215 0.29147 0.0
C912 C 0.5959 0.55544 0.28346 0.0
C913 C 0.10235 0.96302 0.73791 0.0
C914 C 0.13271 0.97744 0.71682 0.0
C915 C 0.08643 0.92786 0.729 0.0
C916 C 0.10025 0.90593 0.69862 0.0
H917 H 0.09257 0.97763 0.76301 0.0
H918 H 0.06488 0.91678 0.7477 0.0
S919 S 0.17366 0.93552 0.62969 0.0
N920 N 0.17185 0.97031 0.66072 0.0
N921 N 0.14185 0.90452 0.64376 0.0
C922 C 0.12801 0.92199 0.6751 0.0
C923 C 0.14429 0.95763 0.68429 0.0
C924 C 0.83609 0.64145 0.91183 0.0
C925 C 0.81764 0.60899 0.89834 0.0
C926 C 0.82864 0.65594 0.94799 0.0
C927 C 0.80181 0.63904 0.97206 0.0
H928 H 0.85546 0.6567 0.89366 0.0
H929 H 0.84263 0.68184 0.9562 0.0
S930 S 0.74842 0.55123 0.95169 0.0
N931 N 0.77371 0.55845 0.91305 0.0
N932 N 0.75916 0.58597 0.98093 0.0
C933 C 0.78464 0.60533 0.95974 0.0
C934 C 0.79273 0.59021 0.92297 0.0
C935 C 0.68959 0.37677 0.44882 0.0
C936 C 0.71698 0.39312 0.47271 0.0
C937 C 0.6835 0.38996 0.41193 0.0
C938 C 0.70388 0.42065 0.39737 0.0
H939 H 0.67401 0.35207 0.45792 0.0
H940 H 0.66379 0.37488 0.39403 0.0
S941 S 0.77553 0.4767 0.44917 0.0
N942 N 0.76245 0.44399 0.4799 0.0
N943 N 0.75017 0.46943 0.41058 0.0
C944 C 0.72911 0.4394 0.42174 0.0
C945 C 0.73581 0.42555 0.45942 0.0
C946 C 0.29018 0.92798 0.09897 0.0
C947 C 0.31797 0.91163 0.12263 0.0
C948 C 0.28318 0.91406 0.06236 0.0
C949 C 0.30388 0.88343 0.04792 0.0
H950 H 0.27202 0.95021 0.10955 0.0
H951 H 0.25979 0.92572 0.04639 0.0
S952 S 0.3854 0.83641 0.0945 0.0
N953 N 0.37033 0.86725 0.1261 0.0
N954 N 0.35743 0.84143 0.05743 0.0
C955 C 0.33415 0.8694 0.06972 0.0
C956 C 0.34117 0.88342 0.10697 0.0
C957 C 0.22794 0.08419 0.6032 0.0
C958 C 0.20266 0.10225 0.62804 0.0
C959 C 0.23372 0.09797 0.56624 0.0
C960 C 0.21415 0.13005 0.55301 0.0
H961 H 0.2453 0.06104 0.61324 0.0
H962 H 0.25531 0.08489 0.54894 0.0
S963 S 0.13932 0.18228 0.605 0.0
N964 N 0.15442 0.15026 0.63548 0.0
N965 N 0.16413 0.17554 0.566 0.0
C966 C 0.18626 0.14596 0.57663 0.0
C967 C 0.18084 0.13225 0.61418 0.0
C968 C 0.94353 0.83074 0.65273 0.0
C969 C 0.96872 0.8051 0.63554 0.0
C970 C 0.9073 0.83712 0.6381 0.0
C971 C 0.8947 0.81891 0.60508 0.0
H972 H 0.95098 0.84465 0.67899 0.0
H973 H 0.88837 0.85543 0.65374 0.0
S974 S 0.9509 0.75278 0.54625 0.0
N975 N 0.97937 0.76369 0.58166 0.0
N976 N 0.91144 0.7766 0.55359 0.0
C977 C 0.92035 0.79526 0.58596 0.0
C978 C 0.95721 0.78805 0.60137 0.0
C979 C 0.56065 0.23692 0.10831 0.0
C980 C 0.54523 0.21341 0.13651 0.0
C981 C 0.5977 0.23145 0.09495 0.0
C982 C 0.62087 0.20219 0.10919 0.0
H983 H 0.5449 0.26113 0.09813 0.0
H984 H 0.60885 0.25157 0.07472 0.0
S985 S 0.59151 0.1291 0.1787 0.0
N986 N 0.5544 0.15707 0.17486 0.0
N987 N 0.62362 0.14671 0.14981 0.0
C988 C 0.60472 0.17693 0.1354 0.0
C989 C 0.5671 0.18254 0.149 0.0
C990 C 0.41374 0.67538 0.39091 0.0
C991 C 0.39939 0.69663 0.42132 0.0
C992 C 0.44917 0.68319 0.37531 0.0
C993 C 0.47182 0.71274 0.38929 0.0
H994 H 0.39674 0.65369 0.37767 0.0
H995 H 0.4579 0.66702 0.3508 0.0
S996 S 0.45072 0.77204 0.47328 0.0
N997 N 0.41323 0.74488 0.46853 0.0
N998 N 0.47963 0.75981 0.43874 0.0
C999 C 0.45925 0.73219 0.42164 0.0
C1000 C 0.42318 0.72401 0.43781 0.0
C1001 C 0.10369 0.33945 0.88498 0.0
C1002 C 0.11726 0.31797 0.91571 0.0
C1003 C 0.06791 0.3329 0.86954 0.0
C1004 C 0.04423 0.30447 0.88406 0.0
H1005 H 0.1215 0.3603 0.87141 0.0
H1006 H 0.05974 0.34891 0.84467 0.0
S1007 S 0.06319 0.24524 0.96882 0.0
N1008 N 0.10177 0.27076 0.96355 0.0
N1009 N 0.03463 0.25839 0.93429 0.0
C1010 C 0.05608 0.28496 0.91673 0.0
C1011 C 0.0925 0.29177 0.93264 0.0
C1012 C 0.63727 0.95634 0.83474 0.0
C1013 C 0.62317 0.97887 0.80505 0.0
C1014 C 0.6221 0.92075 0.84254 0.0
C1015 C 0.59231 0.90595 0.82078 0.0
H1016 H 0.66151 0.96546 0.85102 0.0
H1017 H 0.63544 0.90389 0.8644 0.0
S1018 S 0.54075 0.95655 0.74426 0.0
N1019 N 0.57428 0.98614 0.7572 0.0
N1020 N 0.54568 0.91908 0.77171 0.0
C1021 C 0.57557 0.92966 0.79333 0.0
C1022 C 0.59103 0.96615 0.78549 0.0
C1023 C 0.10532 0.56296 0.24202 0.0
C1024 C 0.13473 0.54861 0.21914 0.0
C1025 C 0.08939 0.59881 0.23521 0.0
C1026 C 0.10254 0.62178 0.20551 0.0
H1027 H 0.0955 0.54708 0.26634 0.0
H1028 H 0.06844 0.60958 0.25478 0.0
S1029 S 0.17566 0.59682 0.13484 0.0
N1030 N 0.17352 0.55968 0.16307 0.0
N1031 N 0.14422 0.62699 0.1514 0.0
C1032 C 0.13029 0.60717 0.18129 0.0
C1033 C 0.14617 0.57062 0.18775 0.0
C1034 C 0.43317 0.42269 0.72354 0.0
C1035 C 0.41534 0.39955 0.6966 0.0
C1036 C 0.41844 0.45847 0.73258 0.0
C1037 C 0.38542 0.47214 0.71494 0.0
H1038 H 0.45688 0.412 0.73972 0.0
H1039 H 0.43159 0.47435 0.7552 0.0
S1040 S 0.3328 0.42498 0.63733 0.0
N1041 N 0.36629 0.39464 0.64892 0.0
N1042 N 0.33892 0.46183 0.66525 0.0
C1043 C 0.36949 0.45048 0.68561 0.0
C1044 C 0.38435 0.41418 0.67662 0.0
C1045 C 0.93051 0.09633 0.29481 0.0
C1046 C 0.91503 0.11918 0.32364 0.0
C1047 C 0.91619 0.06019 0.28729 0.0
C1048 C 0.88582 0.04555 0.30828 0.0
H1049 H 0.95238 0.10718 0.27636 0.0
H1050 H 0.9274 0.04471 0.26334 0.0
S1051 S 0.84033 0.09043 0.39158 0.0
N1052 N 0.87143 0.12186 0.37689 0.0
N1053 N 0.84447 0.05416 0.36254 0.0
C1054 C 0.8723 0.06665 0.33919 0.0
C1055 C 0.88694 0.10336 0.34696 0.0
C1056 C 0.24234 0.3432 0.34297 0.0
C1057 C 0.20603 0.35882 0.33944 0.0
C1058 C 0.24946 0.31386 0.36847 0.0
C1059 C 0.22049 0.29902 0.3911 0.0
H1060 H 0.26511 0.35273 0.32483 0.0
H1061 H 0.27748 0.30175 0.36943 0.0
S1062 S 0.12105 0.33155 0.39434 0.0
N1063 N 0.14126 0.35897 0.36239 0.0
N1064 N 0.15473 0.30339 0.41023 0.0
C1065 C 0.18464 0.31596 0.3897 0.0
C1066 C 0.17736 0.346 0.36379 0.0
C1067 C 0.33575 0.69954 0.8917 0.0
C1068 C 0.2971 0.70745 0.89636 0.0
C1069 C 0.34771 0.66929 0.86927 0.0
C1070 C 0.32138 0.64544 0.85191 0.0
H1071 H 0.35688 0.71843 0.90321 0.0
H1072 H 0.37758 0.66596 0.86353 0.0
S1073 S 0.21733 0.65074 0.86018 0.0
N1074 N 0.23273 0.68721 0.8849 0.0
N1075 N 0.25534 0.62911 0.84379 0.0
C1076 C 0.2828 0.65122 0.85883 0.0
C1077 C 0.27057 0.68264 0.88084 0.0
C1078 C 0.67855 0.2159 0.64352 0.0
C1079 C 0.71347 0.21557 0.62479 0.0
C1080 C 0.66799 0.18609 0.66724 0.0
C1081 C 0.69172 0.15467 0.67256 0.0
H1082 H 0.66028 0.24041 0.64163 0.0
H1083 H 0.64203 0.18864 0.68329 0.0
S1084 S 0.78372 0.13813 0.62562 0.0
N1085 N 0.77027 0.18013 0.61009 0.0
N1086 N 0.74991 0.12327 0.65426 0.0
C1087 C 0.72538 0.15265 0.65166 0.0
C1088 C 0.73647 0.18344 0.62789 0.0
C1089 C 0.77592 0.83962 0.13212 0.0
C1090 C 0.80339 0.81441 0.11841 0.0
C1091 C 0.78575 0.8686 0.15758 0.0
C1092 C 0.8232 0.87288 0.17017 0.0
H1093 H 0.74638 0.83488 0.12585 0.0
H1094 H 0.76351 0.8857 0.16983 0.0
S1095 S 0.9057 0.81594 0.14057 0.0
N1096 N 0.86983 0.7975 0.11717 0.0
N1097 N 0.88796 0.85132 0.16532 0.0
C1098 C 0.85111 0.84948 0.15475 0.0
C1099 C 0.84127 0.82042 0.12869 0.0
C1100 C 0.35324 0.24284 0.31871 0.0
C1101 C 0.38753 0.22413 0.31162 0.0
C1102 C 0.32957 0.23141 0.34805 0.0
C1103 C 0.33953 0.20168 0.3724 0.0
H1104 H 0.34318 0.26488 0.29991 0.0
H1105 H 0.30214 0.24455 0.35023 0.0
S1106 S 0.42843 0.14691 0.37023 0.0
N1107 N 0.43213 0.17657 0.33423 0.0
N1108 N 0.3874 0.15614 0.39048 0.0
C1109 C 0.37509 0.18491 0.36819 0.0
C1110 C 0.39923 0.19602 0.3376 0.0
C1111 C 0.15396 0.85155 0.8522 0.0
C1112 C 0.16568 0.82065 0.87424 0.0
C1113 C 0.12933 0.84665 0.82153 0.0
C1114 C 0.11552 0.81069 0.81192 0.0
H1115 H 0.16625 0.87917 0.85684 0.0
H1116 H 0.12332 0.87069 0.80344 0.0
S1117 S 0.13594 0.7212 0.86221 0.0
N1118 N 0.16017 0.75333 0.88584 0.0
N1119 N 0.1135 0.74415 0.82816 0.0
C1120 C 0.12487 0.78003 0.83535 0.0
C1121 C 0.15017 0.78501 0.86654 0.0
C1122 C 0.83923 0.28196 0.67247 0.0
C1123 C 0.84661 0.31041 0.64582 0.0
C1124 C 0.86433 0.27452 0.70188 0.0
C1125 C 0.89839 0.29433 0.70543 0.0
H1126 H 0.81227 0.26752 0.67257 0.0
H1127 H 0.8551 0.25586 0.72424 0.0
S1128 S 0.93294 0.36902 0.64072 0.0
N1129 N 0.89171 0.35662 0.62267 0.0
N1130 N 0.93969 0.34181 0.67824 0.0
C1131 C 0.90789 0.32054 0.67708 0.0
C1132 C 0.88184 0.32861 0.647 0.0
C1133 C 0.6234 0.68283 0.19642 0.0
C1134 C 0.6148 0.71907 0.21015 0.0
C1135 C 0.65115 0.6776 0.16868 0.0
C1136 C 0.67183 0.70841 0.15458 0.0
H1137 H 0.61091 0.65814 0.20955 0.0
H1138 H 0.65854 0.64903 0.16057 0.0
S1139 S 0.65508 0.80937 0.17624 0.0
N1140 N 0.62487 0.7865 0.20359 0.0
N1141 N 0.67812 0.77667 0.15215 0.0
C1142 C 0.66125 0.74498 0.16569 0.0
C1143 C 0.63234 0.75032 0.19331 0.0
C1144 C 0.36661 0.36707 0.23591 0.0
C1145 C 0.37247 0.35132 0.19975 0.0
C1146 C 0.33599 0.39169 0.24282 0.0
C1147 C 0.31035 0.40092 0.21378 0.0
H1148 H 0.38378 0.35785 0.25958 0.0
H1149 H 0.33046 0.40072 0.2716 0.0
S1150 S 0.31545 0.36937 0.11371 0.0
N1151 N 0.35199 0.3489 0.1343 0.0
N1152 N 0.29477 0.39466 0.14709 0.0
C1153 C 0.31775 0.38742 0.17706 0.0
C1154 C 0.34873 0.36269 0.17009 0.0
C1155 C 0.84599 0.15824 0.83759 0.0
C1156 C 0.86244 0.17862 0.80767 0.0
C1157 C 0.81559 0.13389 0.83087 0.0
C1158 C 0.80083 0.12968 0.79415 0.0
H1159 H 0.85469 0.16325 0.86659 0.0
H1160 H 0.80172 0.12075 0.85486 0.0
S1161 S 0.8399 0.16975 0.70566 0.0
N1162 N 0.86689 0.18707 0.73957 0.0
N1163 N 0.80828 0.143 0.72713 0.0
C1164 C 0.81923 0.14719 0.76377 0.0
C1165 C 0.85054 0.17126 0.77052 0.0
C1166 C 0.70566 0.85704 0.26818 0.0
C1167 C 0.71488 0.8865 0.29305 0.0
C1168 C 0.67835 0.83045 0.27772 0.0
C1169 C 0.65856 0.83249 0.31218 0.0
H1170 H 0.72133 0.85308 0.24209 0.0
H1171 H 0.67408 0.80702 0.25862 0.0
S1172 S 0.66964 0.90638 0.38576 0.0
N1173 N 0.70043 0.91794 0.35261 0.0
N1174 N 0.64803 0.86817 0.37013 0.0
C1175 C 0.66544 0.86342 0.33617 0.0
C1176 C 0.69377 0.89048 0.32661 0.0
C1177 C 0.2104 0.66726 0.75476 0.0
C1178 C 0.21838 0.63647 0.73098 0.0
C1179 C 0.1818 0.69302 0.74607 0.0
C1180 C 0.16023 0.6896 0.71275 0.0
H1181 H 0.22763 0.67263 0.77948 0.0
H1182 H 0.17771 0.71675 0.76499 0.0
S1183 S 0.16828 0.61271 0.64179 0.0
N1184 N 0.20086 0.60261 0.67369 0.0
N1185 N 0.14728 0.65154 0.65688 0.0
C1186 C 0.16644 0.65781 0.68961 0.0
C1187 C 0.1955 0.63117 0.69879 0.0
C1188 C 0.78557 0.65888 0.66942 0.0
C1189 C 0.82387 0.64893 0.67245 0.0
C1190 C 0.77419 0.68984 0.64732 0.0
C1191 C 0.80076 0.71161 0.62749 0.0
H1192 H 0.76463 0.64434 0.68638 0.0
H1193 H 0.7447 0.69771 0.64696 0.0
S1194 S 0.90437 0.69624 0.62576 0.0
N1195 N 0.88814 0.66238 0.65351 0.0
N1196 N 0.86694 0.72003 0.61118 0.0
C1197 C 0.83892 0.70048 0.62864 0.0
C1198 C 0.85046 0.66929 0.65146 0.0
C1199 C 0.75043 0.32007 0.15085 0.0
C1200 C 0.72749 0.31291 0.11926 0.0
C1201 C 0.74172 0.349 0.17622 0.0
C1202 C 0.70992 0.37208 0.1708 0.0
H1203 H 0.7732 0.30089 0.15798 0.0
H1204 H 0.75839 0.3515 0.20181 0.0
S1205 S 0.643 0.3675 0.09041 0.0
N1206 N 0.67333 0.33295 0.08216 0.0
N1207 N 0.65741 0.3884 0.12968 0.0
C1208 C 0.68873 0.36765 0.13748 0.0
C1209 C 0.69742 0.33771 0.11168 0.0
C1210 C 0.26906 0.8211 0.38206 0.0
C1211 C 0.29921 0.80642 0.40332 0.0
C1212 C 0.27527 0.84794 0.35343 0.0
C1213 C 0.31182 0.8613 0.34556 0.0
H1214 H 0.24101 0.80956 0.38551 0.0
H1215 H 0.25159 0.85707 0.33627 0.0
S1216 S 0.39988 0.8331 0.39506 0.0
N1217 N 0.36644 0.80814 0.41589 0.0
N1218 N 0.37823 0.85945 0.36307 0.0
C1219 C 0.34179 0.84881 0.36857 0.0
C1220 C 0.33545 0.82113 0.39725 0.0
C1221 C 0.1806 0.19247 0.90004 0.0
C1222 C 0.21727 0.20556 0.90767 0.0
C1223 C 0.17462 0.16211 0.87535 0.0
C1224 C 0.20514 0.14418 0.85747 0.0
H1225 H 0.15634 0.20789 0.9106 0.0
H1226 H 0.14593 0.15485 0.86761 0.0
S1227 S 0.30646 0.16575 0.87049 0.0
N1228 N 0.28442 0.19648 0.89793 0.0
N1229 N 0.27314 0.13958 0.85101 0.0
C1230 C 0.24193 0.15514 0.86704 0.0
C1231 C 0.24803 0.18585 0.8924 0.0
C1232 C 0.63816 0.84137 0.65694 0.0
C1233 C 0.66662 0.81462 0.64957 0.0
C1234 C 0.61199 0.8356 0.68645 0.0
C1235 C 0.61316 0.80263 0.70875 0.0
H1236 H 0.6382 0.86819 0.64215 0.0
H1237 H 0.59282 0.85829 0.69382 0.0
S1238 S 0.67978 0.72275 0.6983 0.0
N1239 N 0.69261 0.75308 0.66513 0.0
N1240 N 0.64298 0.74195 0.71957 0.0
C1241 C 0.63952 0.77459 0.69954 0.0
C1242 C 0.6664 0.78066 0.67016 0.0
C1243 C 0.87917 0.24899 0.19684 0.0
C1244 C 0.90119 0.21946 0.21163 0.0
C1245 C 0.85101 0.24199 0.16979 0.0
C1246 C 0.84399 0.20519 0.15653 0.0
H1247 H 0.8815 0.27711 0.20862 0.0
H1248 H 0.83336 0.26525 0.16064 0.0
S1249 S 0.89584 0.11853 0.18483 0.0
N1250 N 0.91565 0.15256 0.20982 0.0
N1251 N 0.86336 0.13927 0.1584 0.0
C1252 C 0.86782 0.17587 0.16901 0.0
C1253 C 0.89625 0.18305 0.19676 0.0
C1254 C 0.18186 0.7422 0.34833 0.0
C1255 C 0.18185 0.70634 0.36549 0.0
C1256 C 0.15598 0.75137 0.32004 0.0
C1257 C 0.12909 0.72501 0.30789 0.0
H1258 H 0.20322 0.76278 0.35548 0.0
H1259 H 0.15841 0.77856 0.3061 0.0
S1260 S 0.11486 0.6284 0.34617 0.0
N1261 N 0.15078 0.64535 0.37058 0.0
N1262 N 0.10184 0.66258 0.31709 0.0
C1263 C 0.12679 0.69004 0.32676 0.0
C1264 C 0.15331 0.68067 0.35569 0.0
C1265 C 0.33716 0.2752 0.84379 0.0
C1266 C 0.33573 0.31053 0.86184 0.0
C1267 C 0.36205 0.26843 0.81392 0.0
C1268 C 0.38668 0.29664 0.80095 0.0
H1269 H 0.31755 0.25309 0.85154 0.0
H1270 H 0.36067 0.24144 0.7997 0.0
S1271 S 0.39597 0.39336 0.84002 0.0
N1272 N 0.36273 0.37353 0.86609 0.0
N1273 N 0.40981 0.36065 0.80971 0.0
C1274 C 0.38743 0.33135 0.82028 0.0
C1275 C 0.36187 0.33834 0.85082 0.0
C1276 C 0.68742 0.63256 0.79677 0.0
C1277 C 0.72505 0.64504 0.79813 0.0
C1278 C 0.65756 0.65751 0.80508 0.0
C1279 C 0.66491 0.69526 0.81499 0.0
H1280 H 0.68108 0.6039 0.78828 0.0
H1281 H 0.62874 0.64766 0.80266 0.0
S1282 S 0.75849 0.73946 0.82919 0.0
N1283 N 0.76788 0.69615 0.81485 0.0
N1284 N 0.71206 0.74251 0.83011 0.0
C1285 C 0.70237 0.70723 0.81841 0.0
C1286 C 0.73243 0.68221 0.81008 0.0
C1287 C 0.18305 0.88258 0.24621 0.0
C1288 C 0.20482 0.89915 0.21736 0.0
C1289 C 0.15316 0.85794 0.23744 0.0
C1290 C 0.14424 0.84917 0.1996 0.0
H1291 H 0.19115 0.88613 0.2756 0.0
H1292 H 0.13892 0.84338 0.26036 0.0
S1293 S 0.1915 0.88659 0.11397 0.0
N1294 N 0.2141 0.90656 0.14963 0.0
N1295 N 0.15823 0.86022 0.1333 0.0
C1296 C 0.16431 0.8673 0.17064 0.0
C1297 C 0.19454 0.89236 0.17951 0.0
C1298 C 0.33057 0.14931 0.74888 0.0
C1299 C 0.31172 0.1261 0.72275 0.0
C1300 C 0.36034 0.17269 0.73732 0.0
C1301 C 0.3718 0.1741 0.69926 0.0
H1302 H 0.3211 0.1507 0.77803 0.0
H1303 H 0.37297 0.19153 0.7578 0.0
S1304 S 0.33248 0.11856 0.6199 0.0
N1305 N 0.308 0.1048 0.65727 0.0
N1306 N 0.36318 0.14986 0.6357 0.0
C1307 C 0.35452 0.1499 0.67321 0.0
C1308 C 0.32465 0.12554 0.68497 0.0
C1309 C 0.82426 0.37068 0.26813 0.0
C1310 C 0.80867 0.39425 0.29599 0.0
C1311 C 0.85164 0.34382 0.27739 0.0
C1312 C 0.86446 0.33964 0.31484 0.0
H1313 H 0.81342 0.37131 0.23944 0.0
H1314 H 0.86147 0.32492 0.2554 0.0
S1315 S 0.83484 0.39676 0.39766 0.0
N1316 N 0.80986 0.41379 0.36199 0.0
N1317 N 0.8618 0.36329 0.37946 0.0
C1318 C 0.85136 0.36507 0.34245 0.0
C1319 C 0.82332 0.39249 0.33297 0.0
loop_
_geom_bond_atom_site_label_1
_geom_bond_atom_site_label_2
_geom_bond_distance
_geom_bond_site_symmetry_2
_ccdc_geom_bond_type
Fe0 O2 1.918 . S
Fe0 O5 1.997 . S
Fe0 O6 2.002 . S
Fe0 O11 1.976 . S
Fe0 O14 1.996 . S
Fe1 O2 1.918 . S
Fe1 O9 1.997 . S
Fe1 O12 1.996 . S
Fe1 O16 1.976 . S
Fe1 O19 2.002 . S
O2 Fe0 1.918 . S
O2 Fe1 1.918 . S
O2 Fe3 1.918 . S
Fe3 O2 1.918 . S
Fe3 O4 2.002 . S
Fe3 O13 1.976 . S
Fe3 O17 1.996 . S
Fe3 O20 1.997 . S
O4 Fe3 2.002 . S
O4 C21 1.295 . S
O5 Fe0 1.997 . S
O5 C21 1.235 . S
O6 Fe0 2.002 . S
O6 C7 1.295 . S
C7 O6 1.295 . S
C7 O9 1.235 . S
C8 O13 1.287 . S
C8 O14 1.255 . S
O9 Fe1 1.997 . S
O9 C7 1.235 . S
C10 O16 1.287 . S
C10 O17 1.255 . S
O11 Fe0 1.976 . S
O11 C18 1.287 . S
O12 Fe1 1.996 . S
O12 C18 1.255 . S
O13 Fe3 1.976 . S
O13 C8 1.287 . S
O14 Fe0 1.996 . S
O14 C8 1.255 . S
C15 O19 1.295 . S
C15 O20 1.235 . S
O16 Fe1 1.976 . S
O16 C10 1.287 . S
O17 Fe3 1.996 . S
O17 C10 1.255 . S
C18 O11 1.287 . S
C18 O12 1.255 . S
O19 Fe1 2.002 . S
O19 C15 1.295 . S
O20 Fe3 1.997 . S
O20 C15 1.235 . S
C21 O4 1.295 . S
C21 O5 1.235 . S
Fe22 O24 1.918 . S
Fe22 O27 1.997 . S
Fe22 O28 2.002 . S
Fe22 O33 1.976 . S
Fe22 O36 1.996 . S
Fe23 O24 1.918 . S
Fe23 O31 1.997 . S
Fe23 O34 1.996 . S
Fe23 O38 1.976 . S
Fe23 O41 2.002 . S
O24 Fe22 1.918 . S
O24 Fe23 1.918 . S
O24 Fe25 1.918 . S
Fe25 O24 1.918 . S
Fe25 O26 2.002 . S
Fe25 O35 1.976 . S
Fe25 O39 1.996 . S
Fe25 O42 1.997 . S
O26 Fe25 2.002 . S
O26 C43 1.295 . S
O27 Fe22 1.997 . S
O27 C43 1.235 . S
O28 Fe22 2.002 . S
O28 C29 1.295 . S
C29 O28 1.295 . S
C29 O31 1.235 . S
C30 O35 1.287 . S
C30 O36 1.255 . S
O31 Fe23 1.997 . S
O31 C29 1.235 . S
C32 O38 1.287 . S
C32 O39 1.255 . S
O33 Fe22 1.976 . S
O33 C40 1.287 . S
O34 Fe23 1.996 . S
O34 C40 1.255 . S
O35 Fe25 1.976 . S
O35 C30 1.287 . S
O36 Fe22 1.996 . S
O36 C30 1.255 . S
C37 O41 1.295 . S
C37 O42 1.235 . S
O38 Fe23 1.976 . S
O38 C32 1.287 . S
O39 Fe25 1.996 . S
O39 C32 1.255 . S
C40 O33 1.287 . S
C40 O34 1.255 . S
O41 Fe23 2.002 . S
O41 C37 1.295 . S
O42 Fe25 1.997 . S
O42 C37 1.235 . S
C43 O26 1.295 . S
C43 O27 1.235 . S
Fe44 O46 1.918 . S
Fe44 O49 1.997 . S
Fe44 O50 2.002 . S
Fe44 O55 1.976 . S
Fe44 O58 1.996 . S
Fe45 O46 1.918 . S
Fe45 O53 1.997 . S
Fe45 O56 1.996 . S
Fe45 O60 1.976 . S
Fe45 O63 2.002 . S
O46 Fe44 1.918 . S
O46 Fe45 1.918 . S
O46 Fe47 1.918 . S
Fe47 O46 1.918 . S
Fe47 O48 2.002 . S
Fe47 O57 1.976 . S
Fe47 O61 1.996 . S
Fe47 O64 1.997 . S
O48 Fe47 2.002 . S
O48 C65 1.295 . S
O49 Fe44 1.997 . S
O49 C65 1.235 . S
O50 Fe44 2.002 . S
O50 C51 1.295 . S
C51 O50 1.295 . S
C51 O53 1.235 . S
C52 O57 1.287 . S
C52 O58 1.255 . S
O53 Fe45 1.997 . S
O53 C51 1.235 . S
C54 O60 1.287 . S
C54 O61 1.255 . S
O55 Fe44 1.976 . S
O55 C62 1.287 . S
O56 Fe45 1.996 . S
O56 C62 1.255 . S
O57 Fe47 1.976 . S
O57 C52 1.287 . S
O58 Fe44 1.996 . S
O58 C52 1.255 . S
C59 O63 1.295 . S
C59 O64 1.235 . S
O60 Fe45 1.976 . S
O60 C54 1.287 . S
O61 Fe47 1.996 . S
O61 C54 1.255 . S
C62 O55 1.287 . S
C62 O56 1.255 . S
O63 Fe45 2.002 . S
O63 C59 1.295 . S
O64 Fe47 1.997 . S
O64 C59 1.235 . S
C65 O48 1.295 . S
C65 O49 1.235 . S
Fe66 O68 1.918 . S
Fe66 O71 1.997 . S
Fe66 O72 2.002 . S
Fe66 O77 1.976 . S
Fe66 O80 1.996 . S
Fe67 O68 1.918 . S
Fe67 O75 1.997 . S
Fe67 O78 1.996 . S
Fe67 O82 1.976 . S
Fe67 O85 2.002 . S
O68 Fe66 1.918 . S
O68 Fe67 1.918 . S
O68 Fe69 1.918 . S
Fe69 O68 1.918 . S
Fe69 O70 2.002 . S
Fe69 O79 1.976 . S
Fe69 O83 1.996 . S
Fe69 O86 1.997 . S
O70 Fe69 2.002 . S
O70 C87 1.295 . S
O71 Fe66 1.997 . S
O71 C87 1.235 . S
O72 Fe66 2.002 . S
O72 C73 1.295 . S
C73 O72 1.295 . S
C73 O75 1.235 . S
C74 O79 1.287 . S
C74 O80 1.255 . S
O75 Fe67 1.997 . S
O75 C73 1.235 . S
C76 O82 1.287 . S
C76 O83 1.255 . S
O77 Fe66 1.976 . S
O77 C84 1.287 . S
O78 Fe67 1.996 . S
O78 C84 1.255 . S
O79 Fe69 1.976 . S
O79 C74 1.287 . S
O80 Fe66 1.996 . S
O80 C74 1.255 . S
C81 O85 1.295 . S
C81 O86 1.235 . S
O82 Fe67 1.976 . S
O82 C76 1.287 . S
O83 Fe69 1.996 . S
O83 C76 1.255 . S
C84 O77 1.287 . S
C84 O78 1.255 . S
O85 Fe67 2.002 . S
O85 C81 1.295 . S
O86 Fe69 1.997 . S
O86 C81 1.235 . S
C87 O70 1.295 . S
C87 O71 1.235 . S
Fe88 O90 1.918 . S
Fe88 O93 1.997 . S
Fe88 O94 2.002 . S
Fe88 O99 1.976 . S
Fe88 O102 1.996 . S
Fe89 O90 1.918 . S
Fe89 O97 1.997 . S
Fe89 O100 1.996 . S
Fe89 O104 1.976 . S
Fe89 O107 2.002 . S
O90 Fe88 1.918 . S
O90 Fe89 1.918 . S
O90 Fe91 1.918 . S
Fe91 O90 1.918 . S
Fe91 O92 2.002 . S
Fe91 O101 1.976 . S
Fe91 O105 1.996 . S
Fe91 O108 1.997 . S
O92 Fe91 2.002 . S
O92 C109 1.295 . S
O93 Fe88 1.997 . S
O93 C109 1.235 . S
O94 Fe88 2.002 . S
O94 C95 1.295 . S
C95 O94 1.295 . S
C95 O97 1.235 . S
C96 O101 1.287 . S
C96 O102 1.255 . S
O97 Fe89 1.997 . S
O97 C95 1.235 . S
C98 O104 1.287 . S
C98 O105 1.255 . S
O99 Fe88 1.976 . S
O99 C106 1.287 . S
O100 Fe89 1.996 . S
O100 C106 1.255 . S
O101 Fe91 1.976 . S
O101 C96 1.287 . S
O102 Fe88 1.996 . S
O102 C96 1.255 . S
C103 O107 1.295 . S
C103 O108 1.235 . S
O104 Fe89 1.976 . S
O104 C98 1.287 . S
O105 Fe91 1.996 . S
O105 C98 1.255 . S
C106 O99 1.287 . S
C106 O100 1.255 . S
O107 Fe89 2.002 . S
O107 C103 1.295 . S
O108 Fe91 1.997 . S
O108 C103 1.235 . S
C109 O92 1.295 . S
C109 O93 1.235 . S
Fe110 O112 1.918 . S
Fe110 O115 1.997 . S
Fe110 O116 2.002 . S
Fe110 O121 1.976 . S
Fe110 O124 1.996 . S
Fe111 O112 1.918 . S
Fe111 O119 1.997 . S
Fe111 O122 1.996 . S
Fe111 O126 1.976 . S
Fe111 O129 2.002 . S
O112 Fe110 1.918 . S
O112 Fe111 1.918 . S
O112 Fe113 1.918 . S
Fe113 O112 1.918 . S
Fe113 O114 2.002 . S
Fe113 O123 1.976 . S
Fe113 O127 1.996 . S
Fe113 O130 1.997 . S
O114 Fe113 2.002 . S
O114 C131 1.295 . S
O115 Fe110 1.997 . S
O115 C131 1.235 . S
O116 Fe110 2.002 . S
O116 C117 1.295 . S
C117 O116 1.295 . S
C117 O119 1.235 . S
C118 O123 1.287 . S
C118 O124 1.255 . S
O119 Fe111 1.997 . S
O119 C117 1.235 . S
C120 O126 1.287 . S
C120 O127 1.255 . S
O121 Fe110 1.976 . S
O121 C128 1.287 . S
O122 Fe111 1.996 . S
O122 C128 1.255 . S
O123 Fe113 1.976 . S
O123 C118 1.287 . S
O124 Fe110 1.996 . S
O124 C118 1.255 . S
C125 O129 1.295 . S
C125 O130 1.235 . S
O126 Fe111 1.976 . S
O126 C120 1.287 . S
O127 Fe113 1.996 . S
O127 C120 1.255 . S
C128 O121 1.287 . S
C128 O122 1.255 . S
O129 Fe111 2.002 . S
O129 C125 1.295 . S
O130 Fe113 1.997 . S
O130 C125 1.235 . S
C131 O114 1.295 . S
C131 O115 1.235 . S
Fe132 O134 1.918 . S
Fe132 O137 1.997 . S
Fe132 O138 2.002 . S
Fe132 O143 1.976 . S
Fe132 O146 1.996 . S
Fe133 O134 1.918 . S
Fe133 O141 1.997 . S
Fe133 O144 1.996 . S
Fe133 O148 1.976 . S
Fe133 O151 2.002 . S
O134 Fe132 1.918 . S
O134 Fe133 1.918 . S
O134 Fe135 1.918 . S
Fe135 O134 1.918 . S
Fe135 O136 2.002 . S
Fe135 O145 1.976 . S
Fe135 O149 1.996 . S
Fe135 O152 1.997 . S
O136 Fe135 2.002 . S
O136 C153 1.295 . S
O137 Fe132 1.997 . S
O137 C153 1.235 . S
O138 Fe132 2.002 . S
O138 C139 1.295 . S
C139 O138 1.295 . S
C139 O141 1.235 . S
C140 O145 1.287 . S
C140 O146 1.255 . S
O141 Fe133 1.997 . S
O141 C139 1.235 . S
C142 O148 1.287 . S
C142 O149 1.255 . S
O143 Fe132 1.976 . S
O143 C150 1.287 . S
O144 Fe133 1.996 . S
O144 C150 1.255 . S
O145 Fe135 1.976 . S
O145 C140 1.287 . S
O146 Fe132 1.996 . S
O146 C140 1.255 . S
C147 O151 1.295 . S
C147 O152 1.235 . S
O148 Fe133 1.976 . S
O148 C142 1.287 . S
O149 Fe135 1.996 . S
O149 C142 1.255 . S
C150 O143 1.287 . S
C150 O144 1.255 . S
O151 Fe133 2.002 . S
O151 C147 1.295 . S
O152 Fe135 1.997 . S
O152 C147 1.235 . S
C153 O136 1.295 . S
C153 O137 1.235 . S
Fe154 O156 1.918 . S
Fe154 O159 1.997 . S
Fe154 O160 2.002 . S
Fe154 O165 1.976 . S
Fe154 O168 1.996 . S
Fe155 O156 1.918 . S
Fe155 O163 1.997 . S
Fe155 O166 1.996 . S
Fe155 O170 1.976 . S
Fe155 O173 2.002 . S
O156 Fe154 1.918 . S
O156 Fe155 1.918 . S
O156 Fe157 1.918 . S
Fe157 O156 1.918 . S
Fe157 O158 2.002 . S
Fe157 O167 1.976 . S
Fe157 O171 1.996 . S
Fe157 O174 1.997 . S
O158 Fe157 2.002 . S
O158 C175 1.295 . S
O159 Fe154 1.997 . S
O159 C175 1.235 . S
O160 Fe154 2.002 . S
O160 C161 1.295 . S
C161 O160 1.295 . S
C161 O163 1.235 . S
C162 O167 1.287 . S
C162 O168 1.255 . S
O163 Fe155 1.997 . S
O163 C161 1.235 . S
C164 O170 1.287 . S
C164 O171 1.255 . S
O165 Fe154 1.976 . S
O165 C172 1.287 . S
O166 Fe155 1.996 . S
O166 C172 1.255 . S
O167 Fe157 1.976 . S
O167 C162 1.287 . S
O168 Fe154 1.996 . S
O168 C162 1.255 . S
C169 O173 1.295 . S
C169 O174 1.235 . S
O170 Fe155 1.976 . S
O170 C164 1.287 . S
O171 Fe157 1.996 . S
O171 C164 1.255 . S
C172 O165 1.287 . S
C172 O166 1.255 . S
O173 Fe155 2.002 . S
O173 C169 1.295 . S
O174 Fe157 1.997 . S
O174 C169 1.235 . S
C175 O158 1.295 . S
C175 O159 1.235 . S
Fe176 O178 1.918 . S
Fe176 O181 1.997 . S
Fe176 O182 2.002 . S
Fe176 O187 1.976 . S
Fe176 O190 1.996 . S
Fe177 O178 1.918 . S
Fe177 O185 1.997 . S
Fe177 O188 1.996 . S
Fe177 O192 1.976 . S
Fe177 O195 2.002 . S
O178 Fe176 1.918 . S
O178 Fe177 1.918 . S
O178 Fe179 1.918 . S
Fe179 O178 1.918 . S
Fe179 O180 2.002 . S
Fe179 O189 1.976 . S
Fe179 O193 1.996 . S
Fe179 O196 1.997 . S
O180 Fe179 2.002 . S
O180 C197 1.295 . S
O181 Fe176 1.997 . S
O181 C197 1.235 . S
O182 Fe176 2.002 . S
O182 C183 1.295 . S
C183 O182 1.295 . S
C183 O185 1.235 . S
C184 O189 1.287 . S
C184 O190 1.255 . S
O185 Fe177 1.997 . S
O185 C183 1.235 . S
C186 O192 1.287 . S
C186 O193 1.255 . S
O187 Fe176 1.976 . S
O187 C194 1.287 . S
O188 Fe177 1.996 . S
O188 C194 1.255 . S
O189 Fe179 1.976 . S
O189 C184 1.287 . S
O190 Fe176 1.996 . S
O190 C184 1.255 . S
C191 O195 1.295 . S
C191 O196 1.235 . S
O192 Fe177 1.976 . S
O192 C186 1.287 . S
O193 Fe179 1.996 . S
O193 C186 1.255 . S
C194 O187 1.287 . S
C194 O188 1.255 . S
O195 Fe177 2.002 . S
O195 C191 1.295 . S
O196 Fe179 1.997 . S
O196 C191 1.235 . S
C197 O180 1.295 . S
C197 O181 1.235 . S
Fe198 O200 1.918 . S
Fe198 O203 1.997 . S
Fe198 O204 2.002 . S
Fe198 O209 1.976 . S
Fe198 O212 1.996 . S
Fe199 O200 1.918 . S
Fe199 O207 1.997 . S
Fe199 O210 1.996 . S
Fe199 O214 1.976 . S
Fe199 O217 2.002 . S
O200 Fe198 1.918 . S
O200 Fe199 1.918 . S
O200 Fe201 1.918 . S
Fe201 O200 1.918 . S
Fe201 O202 2.002 . S
Fe201 O211 1.976 . S
Fe201 O215 1.996 . S
Fe201 O218 1.997 . S
O202 Fe201 2.002 . S
O202 C219 1.295 . S
O203 Fe198 1.997 . S
O203 C219 1.235 . S
O204 Fe198 2.002 . S
O204 C205 1.295 . S
C205 O204 1.295 . S
C205 O207 1.235 . S
C206 O211 1.287 . S
C206 O212 1.255 . S
O207 Fe199 1.997 . S
O207 C205 1.235 . S
C208 O214 1.287 . S
C208 O215 1.255 . S
O209 Fe198 1.976 . S
O209 C216 1.287 . S
O210 Fe199 1.996 . S
O210 C216 1.255 . S
O211 Fe201 1.976 . S
O211 C206 1.287 . S
O212 Fe198 1.996 . S
O212 C206 1.255 . S
C213 O217 1.295 . S
C213 O218 1.235 . S
O214 Fe199 1.976 . S
O214 C208 1.287 . S
O215 Fe201 1.996 . S
O215 C208 1.255 . S
C216 O209 1.287 . S
C216 O210 1.255 . S
O217 Fe199 2.002 . S
O217 C213 1.295 . S
O218 Fe201 1.997 . S
O218 C213 1.235 . S
C219 O202 1.295 . S
C219 O203 1.235 . S
Fe220 O222 1.918 . S
Fe220 O225 1.997 . S
Fe220 O226 2.002 . S
Fe220 O231 1.976 . S
Fe220 O234 1.996 . S
Fe221 O222 1.918 . S
Fe221 O229 1.997 . S
Fe221 O232 1.996 . S
Fe221 O236 1.976 . S
Fe221 O239 2.002 . S
O222 Fe220 1.918 . S
O222 Fe221 1.918 . S
O222 Fe223 1.918 . S
Fe223 O222 1.918 . S
Fe223 O224 2.002 . S
Fe223 O233 1.976 . S
Fe223 O237 1.996 . S
Fe223 O240 1.997 . S
O224 Fe223 2.002 . S
O224 C241 1.295 . S
O225 Fe220 1.997 . S
O225 C241 1.235 . S
O226 Fe220 2.002 . S
O226 C227 1.295 . S
C227 O226 1.295 . S
C227 O229 1.235 . S
C228 O233 1.287 . S
C228 O234 1.255 . S
O229 Fe221 1.997 . S
O229 C227 1.235 . S
C230 O236 1.287 . S
C230 O237 1.255 . S
O231 Fe220 1.976 . S
O231 C238 1.287 . S
O232 Fe221 1.996 . S
O232 C238 1.255 . S
O233 Fe223 1.976 . S
O233 C228 1.287 . S
O234 Fe220 1.996 . S
O234 C228 1.255 . S
C235 O239 1.295 . S
C235 O240 1.235 . S
O236 Fe221 1.976 . S
O236 C230 1.287 . S
O237 Fe223 1.996 . S
O237 C230 1.255 . S
C238 O231 1.287 . S
C238 O232 1.255 . S
O239 Fe221 2.002 . S
O239 C235 1.295 . S
O240 Fe223 1.997 . S
O240 C235 1.235 . S
C241 O224 1.295 . S
C241 O225 1.235 . S
Fe242 O244 1.918 . S
Fe242 O247 1.997 . S
Fe242 O248 2.002 . S
Fe242 O253 1.976 . S
Fe242 O256 1.996 . S
Fe243 O244 1.918 . S
Fe243 O251 1.997 . S
Fe243 O254 1.996 . S
Fe243 O258 1.976 . S
Fe243 O261 2.002 . S
O244 Fe242 1.918 . S
O244 Fe243 1.918 . S
O244 Fe245 1.918 . S
Fe245 O244 1.918 . S
Fe245 O246 2.002 . S
Fe245 O255 1.976 . S
Fe245 O259 1.996 . S
Fe245 O262 1.997 . S
O246 Fe245 2.002 . S
O246 C263 1.295 . S
O247 Fe242 1.997 . S
O247 C263 1.235 . S
O248 Fe242 2.002 . S
O248 C249 1.295 . S
C249 O248 1.295 . S
C249 O251 1.235 . S
C250 O255 1.287 . S
C250 O256 1.255 . S
O251 Fe243 1.997 . S
O251 C249 1.235 . S
C252 O258 1.287 . S
C252 O259 1.255 . S
O253 Fe242 1.976 . S
O253 C260 1.287 . S
O254 Fe243 1.996 . S
O254 C260 1.255 . S
O255 Fe245 1.976 . S
O255 C250 1.287 . S
O256 Fe242 1.996 . S
O256 C250 1.255 . S
C257 O261 1.295 . S
C257 O262 1.235 . S
O258 Fe243 1.976 . S
O258 C252 1.287 . S
O259 Fe245 1.996 . S
O259 C252 1.255 . S
C260 O253 1.287 . S
C260 O254 1.255 . S
O261 Fe243 2.002 . S
O261 C257 1.295 . S
O262 Fe245 1.997 . S
O262 C257 1.235 . S
C263 O246 1.295 . S
C263 O247 1.235 . S
Fe264 O266 1.918 . S
Fe264 O269 1.997 . S
Fe264 O270 2.002 . S
Fe264 O275 1.976 . S
Fe264 O278 1.996 . S
Fe265 O266 1.918 . S
Fe265 O273 1.997 . S
Fe265 O276 1.996 . S
Fe265 O280 1.976 . S
Fe265 O283 2.002 . S
O266 Fe264 1.918 . S
O266 Fe265 1.918 . S
O266 Fe267 1.918 . S
Fe267 O266 1.918 . S
Fe267 O268 2.002 . S
Fe267 O277 1.976 . S
Fe267 O281 1.996 . S
Fe267 O284 1.997 . S
O268 Fe267 2.002 . S
O268 C285 1.295 . S
O269 Fe264 1.997 . S
O269 C285 1.235 . S
O270 Fe264 2.002 . S
O270 C271 1.295 . S
C271 O270 1.295 . S
C271 O273 1.235 . S
C272 O277 1.287 . S
C272 O278 1.255 . S
O273 Fe265 1.997 . S
O273 C271 1.235 . S
C274 O280 1.287 . S
C274 O281 1.255 . S
O275 Fe264 1.976 . S
O275 C282 1.287 . S
O276 Fe265 1.996 . S
O276 C282 1.255 . S
O277 Fe267 1.976 . S
O277 C272 1.287 . S
O278 Fe264 1.996 . S
O278 C272 1.255 . S
C279 O283 1.295 . S
C279 O284 1.235 . S
O280 Fe265 1.976 . S
O280 C274 1.287 . S
O281 Fe267 1.996 . S
O281 C274 1.255 . S
C282 O275 1.287 . S
C282 O276 1.255 . S
O283 Fe265 2.002 . S
O283 C279 1.295 . S
O284 Fe267 1.997 . S
O284 C279 1.235 . S
C285 O268 1.295 . S
C285 O269 1.235 . S
Fe286 O288 1.918 . S
Fe286 O291 1.997 . S
Fe286 O292 2.002 . S
Fe286 O297 1.976 . S
Fe286 O300 1.996 . S
Fe287 O288 1.918 . S
Fe287 O295 1.997 . S
Fe287 O298 1.996 . S
Fe287 O302 1.976 . S
Fe287 O305 2.002 . S
O288 Fe286 1.918 . S
O288 Fe287 1.918 . S
O288 Fe289 1.918 . S
Fe289 O288 1.918 . S
Fe289 O290 2.002 . S
Fe289 O299 1.976 . S
Fe289 O303 1.996 . S
Fe289 O306 1.997 . S
O290 Fe289 2.002 . S
O290 C307 1.295 . S
O291 Fe286 1.997 . S
O291 C307 1.235 . S
O292 Fe286 2.002 . S
O292 C293 1.295 . S
C293 O292 1.295 . S
C293 O295 1.235 . S
C294 O299 1.287 . S
C294 O300 1.255 . S
O295 Fe287 1.997 . S
O295 C293 1.235 . S
C296 O302 1.287 . S
C296 O303 1.255 . S
O297 Fe286 1.976 . S
O297 C304 1.287 . S
O298 Fe287 1.996 . S
O298 C304 1.255 . S
O299 Fe289 1.976 . S
O299 C294 1.287 . S
O300 Fe286 1.996 . S
O300 C294 1.255 . S
C301 O305 1.295 . S
C301 O306 1.235 . S
O302 Fe287 1.976 . S
O302 C296 1.287 . S
O303 Fe289 1.996 . S
O303 C296 1.255 . S
C304 O297 1.287 . S
C304 O298 1.255 . S
O305 Fe287 2.002 . S
O305 C301 1.295 . S
O306 Fe289 1.997 . S
O306 C301 1.235 . S
C307 O290 1.295 . S
C307 O291 1.235 . S
Fe308 O310 1.918 . S
Fe308 O313 1.997 . S
Fe308 O314 2.002 . S
Fe308 O319 1.976 . S
Fe308 O322 1.996 . S
Fe309 O310 1.918 . S
Fe309 O317 1.997 . S
Fe309 O320 1.996 . S
Fe309 O324 1.976 . S
Fe309 O327 2.002 . S
O310 Fe308 1.918 . S
O310 Fe309 1.918 . S
O310 Fe311 1.918 . S
Fe311 O310 1.918 . S
Fe311 O312 2.002 . S
Fe311 O321 1.976 . S
Fe311 O325 1.996 . S
Fe311 O328 1.997 . S
O312 Fe311 2.002 . S
O312 C329 1.295 . S
O313 Fe308 1.997 . S
O313 C329 1.235 . S
O314 Fe308 2.002 . S
O314 C315 1.295 . S
C315 O314 1.295 . S
C315 O317 1.235 . S
C316 O321 1.287 . S
C316 O322 1.255 . S
O317 Fe309 1.997 . S
O317 C315 1.235 . S
C318 O324 1.287 . S
C318 O325 1.255 . S
O319 Fe308 1.976 . S
O319 C326 1.287 . S
O320 Fe309 1.996 . S
O320 C326 1.255 . S
O321 Fe311 1.976 . S
O321 C316 1.287 . S
O322 Fe308 1.996 . S
O322 C316 1.255 . S
C323 O327 1.295 . S
C323 O328 1.235 . S
O324 Fe309 1.976 . S
O324 C318 1.287 . S
O325 Fe311 1.996 . S
O325 C318 1.255 . S
C326 O319 1.287 . S
C326 O320 1.255 . S
O327 Fe309 2.002 . S
O327 C323 1.295 . S
O328 Fe311 1.997 . S
O328 C323 1.235 . S
C329 O312 1.295 . S
C329 O313 1.235 . S
Fe330 O332 1.918 . S
Fe330 O335 1.997 . S
Fe330 O336 2.002 . S
Fe330 O341 1.976 . S
Fe330 O344 1.996 . S
Fe331 O332 1.918 . S
Fe331 O339 1.997 . S
Fe331 O342 1.996 . S
Fe331 O346 1.976 . S
Fe331 O349 2.002 . S
O332 Fe330 1.918 . S
O332 Fe331 1.918 . S
O332 Fe333 1.918 . S
Fe333 O332 1.918 . S
Fe333 O334 2.002 . S
Fe333 O343 1.976 . S
Fe333 O347 1.996 . S
Fe333 O350 1.997 . S
O334 Fe333 2.002 . S
O334 C351 1.295 . S
O335 Fe330 1.997 . S
O335 C351 1.235 . S
O336 Fe330 2.002 . S
O336 C337 1.295 . S
C337 O336 1.295 . S
C337 O339 1.235 . S
C338 O343 1.287 . S
C338 O344 1.255 . S
O339 Fe331 1.997 . S
O339 C337 1.235 . S
C340 O346 1.287 . S
C340 O347 1.255 . S
O341 Fe330 1.976 . S
O341 C348 1.287 . S
O342 Fe331 1.996 . S
O342 C348 1.255 . S
O343 Fe333 1.976 . S
O343 C338 1.287 . S
O344 Fe330 1.996 . S
O344 C338 1.255 . S
C345 O349 1.295 . S
C345 O350 1.235 . S
O346 Fe331 1.976 . S
O346 C340 1.287 . S
O347 Fe333 1.996 . S
O347 C340 1.255 . S
C348 O341 1.287 . S
C348 O342 1.255 . S
O349 Fe331 2.002 . S
O349 C345 1.295 . S
O350 Fe333 1.997 . S
O350 C345 1.235 . S
C351 O334 1.295 . S
C351 O335 1.235 . S
Fe352 O354 1.918 . S
Fe352 O357 1.997 . S
Fe352 O358 2.002 . S
Fe352 O363 1.976 . S
Fe352 O366 1.996 . S
Fe353 O354 1.918 . S
Fe353 O361 1.997 . S
Fe353 O364 1.996 . S
Fe353 O368 1.976 . S
Fe353 O371 2.002 . S
O354 Fe352 1.918 . S
O354 Fe353 1.918 . S
O354 Fe355 1.918 . S
Fe355 O354 1.918 . S
Fe355 O356 2.002 . S
Fe355 O365 1.976 . S
Fe355 O369 1.996 . S
Fe355 O372 1.997 . S
O356 Fe355 2.002 . S
O356 C373 1.295 . S
O357 Fe352 1.997 . S
O357 C373 1.235 . S
O358 Fe352 2.002 . S
O358 C359 1.295 . S
C359 O358 1.295 . S
C359 O361 1.235 . S
C360 O365 1.287 . S
C360 O366 1.255 . S
O361 Fe353 1.997 . S
O361 C359 1.235 . S
C362 O368 1.287 . S
C362 O369 1.255 . S
O363 Fe352 1.976 . S
O363 C370 1.287 . S
O364 Fe353 1.996 . S
O364 C370 1.255 . S
O365 Fe355 1.976 . S
O365 C360 1.287 . S
O366 Fe352 1.996 . S
O366 C360 1.255 . S
C367 O371 1.295 . S
C367 O372 1.235 . S
O368 Fe353 1.976 . S
O368 C362 1.287 . S
O369 Fe355 1.996 . S
O369 C362 1.255 . S
C370 O363 1.287 . S
C370 O364 1.255 . S
O371 Fe353 2.002 . S
O371 C367 1.295 . S
O372 Fe355 1.997 . S
O372 C367 1.235 . S
C373 O356 1.295 . S
C373 O357 1.235 . S
Fe374 O376 1.918 . S
Fe374 O379 1.997 . S
Fe374 O380 2.002 . S
Fe374 O385 1.976 . S
Fe374 O388 1.996 . S
Fe375 O376 1.918 . S
Fe375 O383 1.997 . S
Fe375 O386 1.996 . S
Fe375 O390 1.976 . S
Fe375 O393 2.002 . S
O376 Fe374 1.918 . S
O376 Fe375 1.918 . S
O376 Fe377 1.918 . S
Fe377 O376 1.918 . S
Fe377 O378 2.002 . S
Fe377 O387 1.976 . S
Fe377 O391 1.996 . S
Fe377 O394 1.997 . S
O378 Fe377 2.002 . S
O378 C395 1.295 . S
O379 Fe374 1.997 . S
O379 C395 1.235 . S
O380 Fe374 2.002 . S
O380 C381 1.295 . S
C381 O380 1.295 . S
C381 O383 1.235 . S
C382 O387 1.287 . S
C382 O388 1.255 . S
O383 Fe375 1.997 . S
O383 C381 1.235 . S
C384 O390 1.287 . S
C384 O391 1.255 . S
O385 Fe374 1.976 . S
O385 C392 1.287 . S
O386 Fe375 1.996 . S
O386 C392 1.255 . S
O387 Fe377 1.976 . S
O387 C382 1.287 . S
O388 Fe374 1.996 . S
O388 C382 1.255 . S
C389 O393 1.295 . S
C389 O394 1.235 . S
O390 Fe375 1.976 . S
O390 C384 1.287 . S
O391 Fe377 1.996 . S
O391 C384 1.255 . S
C392 O385 1.287 . S
C392 O386 1.255 . S
O393 Fe375 2.002 . S
O393 C389 1.295 . S
O394 Fe377 1.997 . S
O394 C389 1.235 . S
C395 O378 1.295 . S
C395 O379 1.235 . S
Fe396 O398 1.918 . S
Fe396 O401 1.997 . S
Fe396 O402 2.002 . S
Fe396 O407 1.976 . S
Fe396 O410 1.996 . S
Fe397 O398 1.918 . S
Fe397 O405 1.997 . S
Fe397 O408 1.996 . S
Fe397 O412 1.976 . S
Fe397 O415 2.002 . S
O398 Fe396 1.918 . S
O398 Fe397 1.918 . S
O398 Fe399 1.918 . S
Fe399 O398 1.918 . S
Fe399 O400 2.002 . S
Fe399 O409 1.976 . S
Fe399 O413 1.996 . S
Fe399 O416 1.997 . S
O400 Fe399 2.002 . S
O400 C417 1.295 . S
O401 Fe396 1.997 . S
O401 C417 1.235 . S
O402 Fe396 2.002 . S
O402 C403 1.295 . S
C403 O402 1.295 . S
C403 O405 1.235 . S
C404 O409 1.287 . S
C404 O410 1.255 . S
O405 Fe397 1.997 . S
O405 C403 1.235 . S
C406 O412 1.287 . S
C406 O413 1.255 . S
O407 Fe396 1.976 . S
O407 C414 1.287 . S
O408 Fe397 1.996 . S
O408 C414 1.255 . S
O409 Fe399 1.976 . S
O409 C404 1.287 . S
O410 Fe396 1.996 . S
O410 C404 1.255 . S
C411 O415 1.295 . S
C411 O416 1.235 . S
O412 Fe397 1.976 . S
O412 C406 1.287 . S
O413 Fe399 1.996 . S
O413 C406 1.255 . S
C414 O407 1.287 . S
C414 O408 1.255 . S
O415 Fe397 2.002 . S
O415 C411 1.295 . S
O416 Fe399 1.997 . S
O416 C411 1.235 . S
C417 O400 1.295 . S
C417 O401 1.235 . S
Fe418 O420 1.918 . S
Fe418 O423 1.997 . S
Fe418 O424 2.002 . S
Fe418 O429 1.976 . S
Fe418 O432 1.996 . S
Fe419 O420 1.918 . S
Fe419 O427 1.997 . S
Fe419 O430 1.996 . S
Fe419 O434 1.976 . S
Fe419 O437 2.002 . S
O420 Fe418 1.918 . S
O420 Fe419 1.918 . S
O420 Fe421 1.918 . S
Fe421 O420 1.918 . S
Fe421 O422 2.002 . S
Fe421 O431 1.976 . S
Fe421 O435 1.996 . S
Fe421 O438 1.997 . S
O422 Fe421 2.002 . S
O422 C439 1.295 . S
O423 Fe418 1.997 . S
O423 C439 1.235 . S
O424 Fe418 2.002 . S
O424 C425 1.295 . S
C425 O424 1.295 . S
C425 O427 1.235 . S
C426 O431 1.287 . S
C426 O432 1.255 . S
O427 Fe419 1.997 . S
O427 C425 1.235 . S
C428 O434 1.287 . S
C428 O435 1.255 . S
O429 Fe418 1.976 . S
O429 C436 1.287 . S
O430 Fe419 1.996 . S
O430 C436 1.255 . S
O431 Fe421 1.976 . S
O431 C426 1.287 . S
O432 Fe418 1.996 . S
O432 C426 1.255 . S
C433 O437 1.295 . S
C433 O438 1.235 . S
O434 Fe419 1.976 . S
O434 C428 1.287 . S
O435 Fe421 1.996 . S
O435 C428 1.255 . S
C436 O429 1.287 . S
C436 O430 1.255 . S
O437 Fe419 2.002 . S
O437 C433 1.295 . S
O438 Fe421 1.997 . S
O438 C433 1.235 . S
C439 O422 1.295 . S
C439 O423 1.235 . S
Fe440 O442 1.918 . S
Fe440 O445 1.997 . S
Fe440 O446 2.002 . S
Fe440 O451 1.976 . S
Fe440 O454 1.996 . S
Fe441 O442 1.918 . S
Fe441 O449 1.997 . S
Fe441 O452 1.996 . S
Fe441 O456 1.976 . S
Fe441 O459 2.002 . S
O442 Fe440 1.918 . S
O442 Fe441 1.918 . S
O442 Fe443 1.918 . S
Fe443 O442 1.918 . S
Fe443 O444 2.002 . S
Fe443 O453 1.976 . S
Fe443 O457 1.996 . S
Fe443 O460 1.997 . S
O444 Fe443 2.002 . S
O444 C461 1.295 . S
O445 Fe440 1.997 . S
O445 C461 1.235 . S
O446 Fe440 2.002 . S
O446 C447 1.295 . S
C447 O446 1.295 . S
C447 O449 1.235 . S
C448 O453 1.287 . S
C448 O454 1.255 . S
O449 Fe441 1.997 . S
O449 C447 1.235 . S
C450 O456 1.287 . S
C450 O457 1.255 . S
O451 Fe440 1.976 . S
O451 C458 1.287 . S
O452 Fe441 1.996 . S
O452 C458 1.255 . S
O453 Fe443 1.976 . S
O453 C448 1.287 . S
O454 Fe440 1.996 . S
O454 C448 1.255 . S
C455 O459 1.295 . S
C455 O460 1.235 . S
O456 Fe441 1.976 . S
O456 C450 1.287 . S
O457 Fe443 1.996 . S
O457 C450 1.255 . S
C458 O451 1.287 . S
C458 O452 1.255 . S
O459 Fe441 2.002 . S
O459 C455 1.295 . S
O460 Fe443 1.997 . S
O460 C455 1.235 . S
C461 O444 1.295 . S
C461 O445 1.235 . S
Fe462 O464 1.918 . S
Fe462 O467 1.997 . S
Fe462 O468 2.002 . S
Fe462 O473 1.976 . S
Fe462 O476 1.996 . S
Fe463 O464 1.918 . S
Fe463 O471 1.997 . S
Fe463 O474 1.996 . S
Fe463 O478 1.976 . S
Fe463 O481 2.002 . S
O464 Fe462 1.918 . S
O464 Fe463 1.918 . S
O464 Fe465 1.918 . S
Fe465 O464 1.918 . S
Fe465 O466 2.002 . S
Fe465 O475 1.976 . S
Fe465 O479 1.996 . S
Fe465 O482 1.997 . S
O466 Fe465 2.002 . S
O466 C483 1.295 . S
O467 Fe462 1.997 . S
O467 C483 1.235 . S
O468 Fe462 2.002 . S
O468 C469 1.295 . S
C469 O468 1.295 . S
C469 O471 1.235 . S
C470 O475 1.287 . S
C470 O476 1.255 . S
O471 Fe463 1.997 . S
O471 C469 1.235 . S
C472 O478 1.287 . S
C472 O479 1.255 . S
O473 Fe462 1.976 . S
O473 C480 1.287 . S
O474 Fe463 1.996 . S
O474 C480 1.255 . S
O475 Fe465 1.976 . S
O475 C470 1.287 . S
O476 Fe462 1.996 . S
O476 C470 1.255 . S
C477 O481 1.295 . S
C477 O482 1.235 . S
O478 Fe463 1.976 . S
O478 C472 1.287 . S
O479 Fe465 1.996 . S
O479 C472 1.255 . S
C480 O473 1.287 . S
C480 O474 1.255 . S
O481 Fe463 2.002 . S
O481 C477 1.295 . S
O482 Fe465 1.997 . S
O482 C477 1.235 . S
C483 O466 1.295 . S
C483 O467 1.235 . S
Fe484 O486 1.918 . S
Fe484 O489 1.997 . S
Fe484 O490 2.002 . S
Fe484 O495 1.976 . S
Fe484 O498 1.996 . S
Fe485 O486 1.918 . S
Fe485 O493 1.997 . S
Fe485 O496 1.996 . S
Fe485 O500 1.976 . S
Fe485 O503 2.002 . S
O486 Fe484 1.918 . S
O486 Fe485 1.918 . S
O486 Fe487 1.918 . S
Fe487 O486 1.918 . S
Fe487 O488 2.002 . S
Fe487 O497 1.976 . S
Fe487 O501 1.996 . S
Fe487 O504 1.997 . S
O488 Fe487 2.002 . S
O488 C505 1.295 . S
O489 Fe484 1.997 . S
O489 C505 1.235 . S
O490 Fe484 2.002 . S
O490 C491 1.295 . S
C491 O490 1.295 . S
C491 O493 1.235 . S
C492 O497 1.287 . S
C492 O498 1.255 . S
O493 Fe485 1.997 . S
O493 C491 1.235 . S
C494 O500 1.287 . S
C494 O501 1.255 . S
O495 Fe484 1.976 . S
O495 C502 1.287 . S
O496 Fe485 1.996 . S
O496 C502 1.255 . S
O497 Fe487 1.976 . S
O497 C492 1.287 . S
O498 Fe484 1.996 . S
O498 C492 1.255 . S
C499 O503 1.295 . S
C499 O504 1.235 . S
O500 Fe485 1.976 . S
O500 C494 1.287 . S
O501 Fe487 1.996 . S
O501 C494 1.255 . S
C502 O495 1.287 . S
C502 O496 1.255 . S
O503 Fe485 2.002 . S
O503 C499 1.295 . S
O504 Fe487 1.997 . S
O504 C499 1.235 . S
C505 O488 1.295 . S
C505 O489 1.235 . S
Fe506 O508 1.918 . S
Fe506 O511 1.997 . S
Fe506 O512 2.002 . S
Fe506 O517 1.976 . S
Fe506 O520 1.996 . S
Fe507 O508 1.918 . S
Fe507 O515 1.997 . S
Fe507 O518 1.996 . S
Fe507 O522 1.976 . S
Fe507 O525 2.002 . S
O508 Fe506 1.918 . S
O508 Fe507 1.918 . S
O508 Fe509 1.918 . S
Fe509 O508 1.918 . S
Fe509 O510 2.002 . S
Fe509 O519 1.976 . S
Fe509 O523 1.996 . S
Fe509 O526 1.997 . S
O510 Fe509 2.002 . S
O510 C527 1.295 . S
O511 Fe506 1.997 . S
O511 C527 1.235 . S
O512 Fe506 2.002 . S
O512 C513 1.295 . S
C513 O512 1.295 . S
C513 O515 1.235 . S
C514 O519 1.287 . S
C514 O520 1.255 . S
O515 Fe507 1.997 . S
O515 C513 1.235 . S
C516 O522 1.287 . S
C516 O523 1.255 . S
O517 Fe506 1.976 . S
O517 C524 1.287 . S
O518 Fe507 1.996 . S
O518 C524 1.255 . S
O519 Fe509 1.976 . S
O519 C514 1.287 . S
O520 Fe506 1.996 . S
O520 C514 1.255 . S
C521 O525 1.295 . S
C521 O526 1.235 . S
O522 Fe507 1.976 . S
O522 C516 1.287 . S
O523 Fe509 1.996 . S
O523 C516 1.255 . S
C524 O517 1.287 . S
C524 O518 1.255 . S
O525 Fe507 2.002 . S
O525 C521 1.295 . S
O526 Fe509 1.997 . S
O526 C521 1.235 . S
C527 O510 1.295 . S
C527 O511 1.235 . S
C528 C529 1.369 . S
C528 C530 1.419 . S
C528 H532 0.930 . S
C529 C528 1.369 . S
C529 C538 1.429 . S
C530 C528 1.419 . S
C530 C531 1.363 . S
C530 H533 0.929 . S
C531 C530 1.363 . S
C531 C537 1.428 . S
H532 C528 0.930 . S
H533 C530 0.929 . S
S534 N535 1.613 . S
S534 N536 1.610 . S
N535 S534 1.613 . S
N535 C538 1.350 . S
N536 S534 1.610 . S
N536 C537 1.351 . S
C537 C531 1.428 . S
C537 N536 1.351 . S
C537 C538 1.434 . S
C538 C529 1.429 . S
C538 N535 1.350 . S
C538 C537 1.434 . S
C539 C540 1.369 . S
C539 C541 1.419 . S
C539 H543 0.930 . S
C540 C539 1.369 . S
C540 C549 1.429 . S
C541 C539 1.419 . S
C541 C542 1.363 . S
C541 H544 0.929 . S
C542 C541 1.363 . S
C542 C548 1.428 . S
H543 C539 0.930 . S
H544 C541 0.929 . S
S545 N546 1.613 . S
S545 N547 1.610 . S
N546 S545 1.613 . S
N546 C549 1.350 . S
N547 S545 1.610 . S
N547 C548 1.351 . S
C548 C542 1.428 . S
C548 N547 1.351 . S
C548 C549 1.434 . S
C549 C540 1.429 . S
C549 N546 1.350 . S
C549 C548 1.434 . S
C550 C551 1.369 . S
C550 C552 1.419 . S
C550 H554 0.930 . S
C551 C550 1.369 . S
C551 C560 1.429 . S
C552 C550 1.419 . S
C552 C553 1.363 . S
C552 H555 0.929 1_565 S
C553 C552 1.363 . S
C553 C559 1.428 . S
H554 C550 0.930 . S
H555 C552 0.929 1_545 S
S556 N557 1.613 . S
S556 N558 1.610 . S
N557 S556 1.613 . S
N557 C560 1.350 . S
N558 S556 1.610 . S
N558 C559 1.351 . S
C559 C553 1.428 . S
C559 N558 1.351 . S
C559 C560 1.434 . S
C560 C551 1.429 . S
C560 N557 1.350 . S
C560 C559 1.434 . S
C561 C562 1.368 1_565 S
C561 C563 1.411 1_565 S
C561 H565 0.939 . S
C562 C561 1.368 1_545 S
C562 C571 1.429 . S
C563 C561 1.411 1_545 S
C563 C564 1.363 . S
C563 H566 0.929 . S
C564 C563 1.363 . S
C564 C570 1.428 . S
H565 C561 0.939 . S
H566 C563 0.929 . S
S567 N568 1.613 . S
S567 N569 1.610 . S
N568 S567 1.613 . S
N568 C571 1.350 . S
N569 S567 1.610 . S
N569 C570 1.351 . S
C570 C564 1.428 . S
C570 N569 1.351 . S
C570 C571 1.434 . S
C571 C562 1.429 . S
C571 N568 1.350 . S
C571 C570 1.434 . S
C572 C573 1.369 . S
C572 C574 1.419 . S
C572 H576 0.930 . S
C573 C572 1.369 . S
C573 C582 1.429 . S
C574 C572 1.419 . S
C574 C575 1.363 . S
C574 H577 0.929 . S
C575 C574 1.363 . S
C575 C581 1.428 . S
H576 C572 0.930 . S
H577 C574 0.929 . S
S578 N579 1.613 . S
S578 N580 1.610 . S
N579 S578 1.613 . S
N579 C582 1.350 . S
N580 S578 1.610 . S
N580 C581 1.351 . S
C581 C575 1.428 . S
C581 N580 1.351 . S
C581 C582 1.434 . S
C582 C573 1.429 . S
C582 N579 1.350 . S
C582 C581 1.434 . S
C583 C584 1.369 . S
C583 C585 1.419 . S
C583 H587 0.930 . S
C584 C583 1.369 . S
C584 C593 1.429 . S
C585 C583 1.419 . S
C585 C586 1.363 . S
C585 H588 0.929 . S
C586 C585 1.363 . S
C586 C592 1.428 . S
H587 C583 0.930 . S
H588 C585 0.929 . S
S589 N590 1.613 . S
S589 N591 1.610 1_554 S
N590 S589 1.613 . S
N590 C593 1.350 . S
N591 S589 1.610 1_556 S
N591 C592 1.351 1_556 S
C592 C586 1.428 . S
C592 N591 1.351 1_554 S
C592 C593 1.434 . S
C593 C584 1.429 . S
C593 N590 1.350 . S
C593 C592 1.434 . S
C594 C595 1.369 . S
C594 C596 1.419 . S
C594 H598 0.930 . S
C595 C594 1.369 . S
C595 C604 1.429 . S
C596 C594 1.419 . S
C596 C597 1.363 . S
C596 H599 0.929 . S
C597 C596 1.363 . S
C597 C603 1.428 . S
H598 C594 0.930 . S
H599 C596 0.929 . S
S600 N601 1.613 . S
S600 N602 1.610 . S
N601 S600 1.613 . S
N601 C604 1.350 . S
N602 S600 1.610 . S
N602 C603 1.351 . S
C603 C597 1.428 . S
C603 N602 1.351 . S
C603 C604 1.434 . S
C604 C595 1.429 . S
C604 N601 1.350 . S
C604 C603 1.434 . S
C605 C606 1.369 . S
C605 C607 1.402 1_556 S
C605 H609 0.930 . S
C606 C605 1.369 . S
C606 C615 1.429 . S
C607 C605 1.402 1_554 S
C607 C608 1.360 1_554 S
C607 H610 0.950 . S
C608 C607 1.360 1_556 S
C608 C614 1.428 . S
H609 C605 0.930 . S
H610 C607 0.950 . S
S611 N612 1.613 . S
S611 N613 1.610 . S
N612 S611 1.613 . S
N612 C615 1.350 . S
N613 S611 1.610 . S
N613 C614 1.351 . S
C614 C608 1.428 . S
C614 N613 1.351 . S
C614 C615 1.434 . S
C615 C606 1.429 . S
C615 N612 1.350 . S
C615 C614 1.434 . S
C616 C617 1.369 . S
C616 C618 1.419 . S
C616 H620 0.930 . S
C617 C616 1.369 . S
C617 C626 1.429 . S
C618 C616 1.419 . S
C618 C619 1.363 . S
C618 H621 0.929 . S
C619 C618 1.363 . S
C619 C625 1.428 . S
H620 C616 0.930 . S
H621 C618 0.929 . S
S622 N623 1.613 . S
S622 N624 1.610 . S
N623 S622 1.613 . S
N623 C626 1.350 . S
N624 S622 1.610 . S
N624 C625 1.351 . S
C625 C619 1.428 . S
C625 N624 1.351 . S
C625 C626 1.434 . S
C626 C617 1.429 . S
C626 N623 1.350 . S
C626 C625 1.434 . S
C627 C628 1.369 . S
C627 C629 1.419 . S
C627 H631 0.930 . S
C628 C627 1.369 . S
C628 C637 1.429 . S
C629 C627 1.419 . S
C629 C630 1.363 . S
C629 H632 0.929 . S
C630 C629 1.363 . S
C630 C636 1.428 . S
H631 C627 0.930 . S
H632 C629 0.929 . S
S633 N634 1.613 1_455 S
S633 N635 1.610 . S
N634 S633 1.613 1_655 S
N634 C637 1.350 1_655 S
N635 S633 1.610 . S
N635 C636 1.351 . S
C636 C630 1.428 . S
C636 N635 1.351 . S
C636 C637 1.434 . S
C637 C628 1.429 . S
C637 N634 1.350 1_455 S
C637 C636 1.434 . S
C638 C639 1.369 . S
C638 C640 1.419 . S
C638 H642 0.930 . S
C639 C638 1.369 . S
C639 C648 1.429 . S
C640 C638 1.419 . S
C640 C641 1.363 . S
C640 H643 0.929 . S
C641 C640 1.363 . S
C641 C647 1.428 . S
H642 C638 0.930 . S
H643 C640 0.929 . S
S644 N645 1.613 . S
S644 N646 1.610 . S
N645 S644 1.613 . S
N645 C648 1.350 . S
N646 S644 1.610 . S
N646 C647 1.351 . S
C647 C641 1.428 . S
C647 N646 1.351 . S
C647 C648 1.434 . S
C648 C639 1.429 . S
C648 N645 1.350 . S
C648 C647 1.434 . S
C649 C650 1.369 . S
C649 C651 1.419 1_655 S
C649 H653 0.930 . S
C650 C649 1.369 . S
C650 C659 1.429 . S
C651 C649 1.419 1_455 S
C651 C652 1.363 1_455 S
C651 H654 0.929 . S
C652 C651 1.363 1_655 S
C652 C658 1.428 . S
H653 C649 0.930 . S
H654 C651 0.929 . S
S655 N656 1.613 . S
S655 N657 1.610 . S
N656 S655 1.613 . S
N656 C659 1.350 . S
N657 S655 1.610 . S
N657 C658 1.351 . S
C658 C652 1.428 . S
C658 N657 1.351 . S
C658 C659 1.434 . S
C659 C650 1.429 . S
C659 N656 1.350 . S
C659 C658 1.434 . S
C660 C661 1.369 . S
C660 C662 1.419 . S
C660 H664 0.930 . S
C661 C660 1.369 . S
C661 C670 1.429 . S
C662 C660 1.419 . S
C662 C663 1.363 . S
C662 H665 0.929 . S
C663 C662 1.363 . S
C663 C669 1.428 . S
H664 C660 0.930 . S
H665 C662 0.929 . S
S666 N667 1.613 . S
S666 N668 1.610 . S
N667 S666 1.613 . S
N667 C670 1.350 . S
N668 S666 1.610 . S
N668 C669 1.351 . S
C669 C663 1.428 . S
C669 N668 1.351 . S
C669 C670 1.434 . S
C670 C661 1.429 . S
C670 N667 1.350 . S
C670 C669 1.434 . S
C671 C672 1.369 . S
C671 C673 1.419 . S
C671 H675 0.930 . S
C672 C671 1.369 . S
C672 C681 1.429 . S
C673 C671 1.419 . S
C673 C674 1.363 . S
C673 H676 0.929 . S
C674 C673 1.363 . S
C674 C680 1.428 . S
H675 C671 0.930 . S
H676 C673 0.929 . S
S677 N678 1.613 . S
S677 N679 1.610 . S
N678 S677 1.613 . S
N678 C681 1.350 . S
N679 S677 1.610 . S
N679 C680 1.351 . S
C680 C674 1.428 . S
C680 N679 1.351 . S
C680 C681 1.434 . S
C681 C672 1.429 . S
C681 N678 1.350 . S
C681 C680 1.434 . S
C682 C683 1.369 . S
C682 C684 1.437 . S
C682 H686 0.930 . S
C683 C682 1.369 . S
C683 C692 1.429 . S
C684 C682 1.437 . S
C684 C685 1.366 . S
C684 H687 0.908 1_545 S
C685 C684 1.366 . S
C685 C691 1.428 . S
H686 C682 0.930 . S
H687 C684 0.908 1_565 S
S688 N689 1.613 . S
S688 N690 1.610 . S
N689 S688 1.613 . S
N689 C692 1.350 . S
N690 S688 1.610 . S
N690 C691 1.351 . S
C691 C685 1.428 . S
C691 N690 1.351 . S
C691 C692 1.434 . S
C692 C683 1.429 . S
C692 N689 1.350 . S
C692 C691 1.434 . S
C693 C694 1.369 . S
C693 C695 1.419 . S
C693 H697 0.930 . S
C694 C693 1.369 . S
C694 C703 1.429 . S
C695 C693 1.419 . S
C695 C696 1.363 . S
C695 H698 0.929 1_565 S
C696 C695 1.363 . S
C696 C702 1.428 . S
H697 C693 0.930 . S
H698 C695 0.929 1_545 S
S699 N700 1.613 . S
S699 N701 1.610 . S
N700 S699 1.613 . S
N700 C703 1.350 . S
N701 S699 1.610 . S
N701 C702 1.351 . S
C702 C696 1.428 . S
C702 N701 1.351 . S
C702 C703 1.434 . S
C703 C694 1.429 . S
C703 N700 1.350 . S
C703 C702 1.434 . S
C704 C705 1.369 . S
C704 C706 1.419 . S
C704 H708 0.930 . S
C705 C704 1.369 . S
C705 C714 1.429 . S
C706 C704 1.419 . S
C706 C707 1.363 . S
C706 H709 0.929 . S
C707 C706 1.363 . S
C707 C713 1.428 . S
H708 C704 0.930 . S
H709 C706 0.929 . S
S710 N711 1.613 . S
S710 N712 1.610 . S
N711 S710 1.613 . S
N711 C714 1.350 . S
N712 S710 1.610 . S
N712 C713 1.351 . S
C713 C707 1.428 . S
C713 N712 1.351 . S
C713 C714 1.434 . S
C714 C705 1.429 . S
C714 N711 1.350 . S
C714 C713 1.434 . S
C715 C716 1.369 . S
C715 C717 1.419 . S
C715 H719 0.930 . S
C716 C715 1.369 . S
C716 C725 1.429 . S
C717 C715 1.419 . S
C717 C718 1.363 . S
C717 H720 0.929 . S
C718 C717 1.363 . S
C718 C724 1.428 . S
H719 C715 0.930 . S
H720 C717 0.929 . S
S721 N722 1.613 . S
S721 N723 1.610 . S
N722 S721 1.613 . S
N722 C725 1.350 . S
N723 S721 1.610 . S
N723 C724 1.351 . S
C724 C718 1.428 . S
C724 N723 1.351 . S
C724 C725 1.434 . S
C725 C716 1.429 . S
C725 N722 1.350 . S
C725 C724 1.434 . S
C726 C727 1.369 . S
C726 C728 1.419 . S
C726 H730 0.930 . S
C727 C726 1.369 . S
C727 C736 1.429 . S
C728 C726 1.419 . S
C728 C729 1.363 . S
C728 H731 0.929 . S
C729 C728 1.363 . S
C729 C735 1.428 . S
H730 C726 0.930 . S
H731 C728 0.929 . S
S732 N733 1.613 . S
S732 N734 1.610 . S
N733 S732 1.613 . S
N733 C736 1.350 . S
N734 S732 1.610 . S
N734 C735 1.351 . S
C735 C729 1.428 . S
C735 N734 1.351 . S
C735 C736 1.434 . S
C736 C727 1.429 . S
C736 N733 1.350 . S
C736 C735 1.434 . S
C737 C738 1.369 1_556 S
C737 C739 1.419 1_556 S
C737 H741 0.930 . S
C738 C737 1.369 1_554 S
C738 C747 1.429 . S
C739 C737 1.419 1_554 S
C739 C740 1.363 . S
C739 H742 0.929 . S
C740 C739 1.363 . S
C740 C746 1.428 . S
H741 C737 0.930 . S
H742 C739 0.929 . S
S743 N744 1.613 . S
S743 N745 1.610 . S
N744 S743 1.613 . S
N744 C747 1.350 . S
N745 S743 1.610 . S
N745 C746 1.351 . S
C746 C740 1.428 . S
C746 N745 1.351 . S
C746 C747 1.434 . S
C747 C738 1.429 . S
C747 N744 1.350 . S
C747 C746 1.434 . S
C748 C749 1.369 . S
C748 C750 1.419 . S
C748 H752 0.930 . S
C749 C748 1.369 . S
C749 C758 1.429 . S
C750 C748 1.419 . S
C750 C751 1.363 . S
C750 H753 0.929 . S
C751 C750 1.363 . S
C751 C757 1.428 . S
H752 C748 0.930 . S
H753 C750 0.929 . S
S754 N755 1.613 . S
S754 N756 1.610 . S
N755 S754 1.613 . S
N755 C758 1.350 . S
N756 S754 1.610 . S
N756 C757 1.351 . S
C757 C751 1.428 . S
C757 N756 1.351 . S
C757 C758 1.434 . S
C758 C749 1.429 . S
C758 N755 1.350 . S
C758 C757 1.434 . S
C759 C760 1.365 1_455 S
C759 C761 1.397 1_455 S
C759 H763 0.957 . S
C760 C759 1.365 1_655 S
C760 C769 1.429 . S
C761 C759 1.397 1_655 S
C761 C762 1.363 . S
C761 H764 0.929 . S
C762 C761 1.363 . S
C762 C768 1.428 . S
H763 C759 0.957 . S
H764 C761 0.929 . S
S765 N766 1.613 . S
S765 N767 1.610 . S
N766 S765 1.613 . S
N766 C769 1.350 . S
N767 S765 1.610 . S
N767 C768 1.351 . S
C768 C762 1.428 . S
C768 N767 1.351 . S
C768 C769 1.434 . S
C769 C760 1.429 . S
C769 N766 1.350 . S
C769 C768 1.434 . S
C770 C771 1.369 . S
C770 C772 1.419 . S
C770 H774 0.930 . S
C771 C770 1.369 . S
C771 C780 1.429 . S
C772 C770 1.419 . S
C772 C773 1.363 . S
C772 H775 0.929 . S
C773 C772 1.363 . S
C773 C779 1.428 . S
H774 C770 0.930 . S
H775 C772 0.929 . S
S776 N777 1.613 . S
S776 N778 1.610 . S
N777 S776 1.613 . S
N777 C780 1.350 . S
N778 S776 1.610 . S
N778 C779 1.351 . S
C779 C773 1.428 . S
C779 N778 1.351 . S
C779 C780 1.434 . S
C780 C771 1.429 . S
C780 N777 1.350 . S
C780 C779 1.434 . S
C781 C782 1.369 . S
C781 C783 1.419 . S
C781 H785 0.930 . S
C782 C781 1.369 . S
C782 C791 1.429 . S
C783 C781 1.419 . S
C783 C784 1.363 . S
C783 H786 0.929 . S
C784 C783 1.363 . S
C784 C790 1.428 . S
H785 C781 0.930 . S
H786 C783 0.929 . S
S787 N788 1.613 . S
S787 N789 1.610 . S
N788 S787 1.613 . S
N788 C791 1.350 . S
N789 S787 1.610 . S
N789 C790 1.351 . S
C790 C784 1.428 . S
C790 N789 1.351 . S
C790 C791 1.434 . S
C791 C782 1.429 . S
C791 N788 1.350 . S
C791 C790 1.434 . S
C792 C793 1.369 . S
C792 C794 1.419 . S
C792 H796 0.930 . S
C793 C792 1.369 . S
C793 C802 1.429 . S
C794 C792 1.419 . S
C794 C795 1.363 . S
C794 H797 0.929 . S
C795 C794 1.363 . S
C795 C801 1.428 . S
H796 C792 0.930 . S
H797 C794 0.929 . S
S798 N799 1.613 . S
S798 N800 1.610 . S
N799 S798 1.613 . S
N799 C802 1.350 . S
N800 S798 1.610 . S
N800 C801 1.351 . S
C801 C795 1.428 . S
C801 N800 1.351 . S
C801 C802 1.434 . S
C802 C793 1.429 . S
C802 N799 1.350 . S
C802 C801 1.434 . S
C803 C804 1.369 . S
C803 C805 1.419 . S
C803 H807 0.930 . S
C804 C803 1.369 . S
C804 C813 1.429 . S
C805 C803 1.419 . S
C805 C806 1.363 . S
C805 H808 0.929 . S
C806 C805 1.363 . S
C806 C812 1.428 . S
H807 C803 0.930 . S
H808 C805 0.929 . S
S809 N810 1.613 . S
S809 N811 1.610 . S
N810 S809 1.613 . S
N810 C813 1.350 . S
N811 S809 1.610 . S
N811 C812 1.351 . S
C812 C806 1.428 . S
C812 N811 1.351 . S
C812 C813 1.434 . S
C813 C804 1.429 . S
C813 N810 1.350 . S
C813 C812 1.434 . S
C814 C815 1.369 . S
C814 C816 1.419 . S
C814 H818 0.930 . S
C815 C814 1.369 . S
C815 C824 1.429 . S
C816 C814 1.419 . S
C816 C817 1.363 . S
C816 H819 0.929 . S
C817 C816 1.363 . S
C817 C823 1.428 . S
H818 C814 0.930 . S
H819 C816 0.929 . S
S820 N821 1.613 . S
S820 N822 1.610 . S
N821 S820 1.613 . S
N821 C824 1.350 . S
N822 S820 1.610 . S
N822 C823 1.351 . S
C823 C817 1.428 . S
C823 N822 1.351 . S
C823 C824 1.434 . S
C824 C815 1.429 . S
C824 N821 1.350 . S
C824 C823 1.434 . S
C825 C826 1.369 . S
C825 C827 1.419 . S
C825 H829 0.930 . S
C826 C825 1.369 . S
C826 C835 1.429 . S
C827 C825 1.419 . S
C827 C828 1.363 . S
C827 H830 0.929 . S
C828 C827 1.363 . S
C828 C834 1.428 . S
H829 C825 0.930 . S
H830 C827 0.929 . S
S831 N832 1.613 . S
S831 N833 1.610 . S
N832 S831 1.613 . S
N832 C835 1.350 . S
N833 S831 1.610 . S
N833 C834 1.351 . S
C834 C828 1.428 . S
C834 N833 1.351 . S
C834 C835 1.434 . S
C835 C826 1.429 . S
C835 N832 1.350 . S
C835 C834 1.434 . S
C836 C837 1.369 . S
C836 C838 1.419 . S
C836 H840 0.930 . S
C837 C836 1.369 . S
C837 C846 1.429 . S
C838 C836 1.419 . S
C838 C839 1.363 . S
C838 H841 0.929 . S
C839 C838 1.363 . S
C839 C845 1.428 . S
H840 C836 0.930 . S
H841 C838 0.929 . S
S842 N843 1.613 . S
S842 N844 1.610 . S
N843 S842 1.613 . S
N843 C846 1.350 . S
N844 S842 1.610 . S
N844 C845 1.351 . S
C845 C839 1.428 . S
C845 N844 1.351 . S
C845 C846 1.434 . S
C846 C837 1.429 . S
C846 N843 1.350 . S
C846 C845 1.434 . S
C847 C848 1.369 . S
C847 C849 1.419 . S
C847 H851 0.930 . S
C848 C847 1.369 . S
C848 C857 1.429 . S
C849 C847 1.419 . S
C849 C850 1.363 . S
C849 H852 0.929 . S
C850 C849 1.363 . S
C850 C856 1.428 . S
H851 C847 0.930 . S
H852 C849 0.929 . S
S853 N854 1.613 . S
S853 N855 1.610 . S
N854 S853 1.613 . S
N854 C857 1.350 . S
N855 S853 1.610 . S
N855 C856 1.351 . S
C856 C850 1.428 . S
C856 N855 1.351 . S
C856 C857 1.434 . S
C857 C848 1.429 . S
C857 N854 1.350 . S
C857 C856 1.434 . S
C858 C859 1.369 . S
C858 C860 1.419 . S
C858 H862 0.930 . S
C859 C858 1.369 . S
C859 C868 1.429 . S
C860 C858 1.419 . S
C860 C861 1.363 . S
C860 H863 0.929 . S
C861 C860 1.363 . S
C861 C867 1.428 . S
H862 C858 0.930 . S
H863 C860 0.929 . S
S864 N865 1.613 . S
S864 N866 1.610 . S
N865 S864 1.613 . S
N865 C868 1.350 . S
N866 S864 1.610 . S
N866 C867 1.351 . S
C867 C861 1.428 . S
C867 N866 1.351 . S
C867 C868 1.434 . S
C868 C859 1.429 . S
C868 N865 1.350 . S
C868 C867 1.434 . S
C869 C870 1.369 . S
C869 C871 1.419 . S
C869 H873 0.930 . S
C870 C869 1.369 . S
C870 C879 1.429 . S
C871 C869 1.419 . S
C871 C872 1.363 . S
C871 H874 0.929 . S
C872 C871 1.363 . S
C872 C878 1.428 . S
H873 C869 0.930 . S
H874 C871 0.929 . S
S875 N876 1.613 . S
S875 N877 1.610 . S
N876 S875 1.613 . S
N876 C879 1.350 . S
N877 S875 1.610 . S
N877 C878 1.351 . S
C878 C872 1.428 . S
C878 N877 1.351 . S
C878 C879 1.434 . S
C879 C870 1.429 . S
C879 N876 1.350 . S
C879 C878 1.434 . S
C880 C881 1.369 . S
C880 C882 1.419 . S
C880 H884 0.930 . S
C881 C880 1.369 . S
C881 C890 1.429 . S
C882 C880 1.419 . S
C882 C883 1.363 . S
C882 H885 0.929 . S
C883 C882 1.363 . S
C883 C889 1.428 . S
H884 C880 0.930 . S
H885 C882 0.929 . S
S886 N887 1.613 . S
S886 N888 1.610 . S
N887 S886 1.613 . S
N887 C890 1.350 . S
N888 S886 1.610 . S
N888 C889 1.351 . S
C889 C883 1.428 . S
C889 N888 1.351 . S
C889 C890 1.434 . S
C890 C881 1.429 . S
C890 N887 1.350 . S
C890 C889 1.434 . S
C891 C892 1.369 . S
C891 C893 1.419 . S
C891 H895 0.930 . S
C892 C891 1.369 . S
C892 C901 1.429 . S
C893 C891 1.419 . S
C893 C894 1.363 . S
C893 H896 0.929 . S
C894 C893 1.363 . S
C894 C900 1.428 . S
H895 C891 0.930 . S
H896 C893 0.929 . S
S897 N898 1.613 . S
S897 N899 1.610 . S
N898 S897 1.613 . S
N898 C901 1.350 . S
N899 S897 1.610 . S
N899 C900 1.351 . S
C900 C894 1.428 . S
C900 N899 1.351 . S
C900 C901 1.434 . S
C901 C892 1.429 . S
C901 N898 1.350 . S
C901 C900 1.434 . S
C902 C903 1.369 . S
C902 C904 1.419 . S
C902 H906 0.930 . S
C903 C902 1.369 . S
C903 C912 1.429 . S
C904 C902 1.419 . S
C904 C905 1.363 . S
C904 H907 0.929 . S
C905 C904 1.363 . S
C905 C911 1.428 . S
H906 C902 0.930 . S
H907 C904 0.929 . S
S908 N909 1.613 . S
S908 N910 1.610 . S
N909 S908 1.613 . S
N909 C912 1.350 . S
N910 S908 1.610 . S
N910 C911 1.351 . S
C911 C905 1.428 . S
C911 N910 1.351 . S
C911 C912 1.434 . S
C912 C903 1.429 . S
C912 N909 1.350 . S
C912 C911 1.434 . S
C913 C914 1.369 . S
C913 C915 1.419 . S
C913 H917 0.930 . S
C914 C913 1.369 . S
C914 C923 1.429 . S
C915 C913 1.419 . S
C915 C916 1.363 . S
C915 H918 0.929 . S
C916 C915 1.363 . S
C916 C922 1.428 . S
H917 C913 0.930 . S
H918 C915 0.929 . S
S919 N920 1.613 . S
S919 N921 1.610 . S
N920 S919 1.613 . S
N920 C923 1.350 . S
N921 S919 1.610 . S
N921 C922 1.351 . S
C922 C916 1.428 . S
C922 N921 1.351 . S
C922 C923 1.434 . S
C923 C914 1.429 . S
C923 N920 1.350 . S
C923 C922 1.434 . S
C924 C925 1.369 . S
C924 C926 1.419 . S
C924 H928 0.930 . S
C925 C924 1.369 . S
C925 C934 1.429 . S
C926 C924 1.419 . S
C926 C927 1.363 . S
C926 H929 0.929 . S
C927 C926 1.363 . S
C927 C933 1.428 . S
H928 C924 0.930 . S
H929 C926 0.929 . S
S930 N931 1.613 . S
S930 N932 1.610 . S
N931 S930 1.613 . S
N931 C934 1.350 . S
N932 S930 1.610 . S
N932 C933 1.351 . S
C933 C927 1.428 . S
C933 N932 1.351 . S
C933 C934 1.434 . S
C934 C925 1.429 . S
C934 N931 1.350 . S
C934 C933 1.434 . S
C935 C936 1.369 . S
C935 C937 1.419 . S
C935 H939 0.930 . S
C936 C935 1.369 . S
C936 C945 1.429 . S
C937 C935 1.419 . S
C937 C938 1.363 . S
C937 H940 0.929 . S
C938 C937 1.363 . S
C938 C944 1.428 . S
H939 C935 0.930 . S
H940 C937 0.929 . S
S941 N942 1.613 . S
S941 N943 1.610 . S
N942 S941 1.613 . S
N942 C945 1.350 . S
N943 S941 1.610 . S
N943 C944 1.351 . S
C944 C938 1.428 . S
C944 N943 1.351 . S
C944 C945 1.434 . S
C945 C936 1.429 . S
C945 N942 1.350 . S
C945 C944 1.434 . S
C946 C947 1.369 . S
C946 C948 1.419 . S
C946 H950 0.930 . S
C947 C946 1.369 . S
C947 C956 1.429 . S
C948 C946 1.419 . S
C948 C949 1.363 . S
C948 H951 0.929 . S
C949 C948 1.363 . S
C949 C955 1.428 . S
H950 C946 0.930 . S
H951 C948 0.929 . S
S952 N953 1.613 . S
S952 N954 1.610 . S
N953 S952 1.613 . S
N953 C956 1.350 . S
N954 S952 1.610 . S
N954 C955 1.351 . S
C955 C949 1.428 . S
C955 N954 1.351 . S
C955 C956 1.434 . S
C956 C947 1.429 . S
C956 N953 1.350 . S
C956 C955 1.434 . S
C957 C958 1.369 . S
C957 C959 1.419 . S
C957 H961 0.930 . S
C958 C957 1.369 . S
C958 C967 1.429 . S
C959 C957 1.419 . S
C959 C960 1.363 . S
C959 H962 0.929 . S
C960 C959 1.363 . S
C960 C966 1.428 . S
H961 C957 0.930 . S
H962 C959 0.929 . S
S963 N964 1.613 . S
S963 N965 1.610 . S
N964 S963 1.613 . S
N964 C967 1.350 . S
N965 S963 1.610 . S
N965 C966 1.351 . S
C966 C960 1.428 . S
C966 N965 1.351 . S
C966 C967 1.434 . S
C967 C958 1.429 . S
C967 N964 1.350 . S
C967 C966 1.434 . S
C968 C969 1.369 . S
C968 C970 1.419 . S
C968 H972 0.930 . S
C969 C968 1.369 . S
C969 C978 1.429 . S
C970 C968 1.419 . S
C970 C971 1.363 . S
C970 H973 0.929 . S
C971 C970 1.363 . S
C971 C977 1.428 . S
H972 C968 0.930 . S
H973 C970 0.929 . S
S974 N975 1.613 . S
S974 N976 1.610 . S
N975 S974 1.613 . S
N975 C978 1.350 . S
N976 S974 1.610 . S
N976 C977 1.351 . S
C977 C971 1.428 . S
C977 N976 1.351 . S
C977 C978 1.434 . S
C978 C969 1.429 . S
C978 N975 1.350 . S
C978 C977 1.434 . S
C979 C980 1.369 . S
C979 C981 1.419 . S
C979 H983 0.930 . S
C980 C979 1.369 . S
C980 C989 1.429 . S
C981 C979 1.419 . S
C981 C982 1.363 . S
C981 H984 0.929 . S
C982 C981 1.363 . S
C982 C988 1.428 . S
H983 C979 0.930 . S
H984 C981 0.929 . S
S985 N986 1.613 . S
S985 N987 1.610 . S
N986 S985 1.613 . S
N986 C989 1.350 . S
N987 S985 1.610 . S
N987 C988 1.351 . S
C988 C982 1.428 . S
C988 N987 1.351 . S
C988 C989 1.434 . S
C989 C980 1.429 . S
C989 N986 1.350 . S
C989 C988 1.434 . S
C990 C991 1.369 . S
C990 C992 1.419 . S
C990 H994 0.930 . S
C991 C990 1.369 . S
C991 C1000 1.429 . S
C992 C990 1.419 . S
C992 C993 1.363 . S
C992 H995 0.929 . S
C993 C992 1.363 . S
C993 C999 1.428 . S
H994 C990 0.930 . S
H995 C992 0.929 . S
S996 N997 1.613 . S
S996 N998 1.610 . S
N997 S996 1.613 . S
N997 C1000 1.350 . S
N998 S996 1.610 . S
N998 C999 1.351 . S
C999 C993 1.428 . S
C999 N998 1.351 . S
C999 C1000 1.434 . S
C1000 C991 1.429 . S
C1000 N997 1.350 . S
C1000 C999 1.434 . S
C1001 C1002 1.369 . S
C1001 C1003 1.419 . S
C1001 H1005 0.930 . S
C1002 C1001 1.369 . S
C1002 C1011 1.429 . S
C1003 C1001 1.419 . S
C1003 C1004 1.363 . S
C1003 H1006 0.929 . S
C1004 C1003 1.363 . S
C1004 C1010 1.428 . S
H1005 C1001 0.930 . S
H1006 C1003 0.929 . S
S1007 N1008 1.613 . S
S1007 N1009 1.610 . S
N1008 S1007 1.613 . S
N1008 C1011 1.350 . S
N1009 S1007 1.610 . S
N1009 C1010 1.351 . S
C1010 C1004 1.428 . S
C1010 N1009 1.351 . S
C1010 C1011 1.434 . S
C1011 C1002 1.429 . S
C1011 N1008 1.350 . S
C1011 C1010 1.434 . S
C1012 C1013 1.369 . S
C1012 C1014 1.419 . S
C1012 H1016 0.930 . S
C1013 C1012 1.369 . S
C1013 C1022 1.429 . S
C1014 C1012 1.419 . S
C1014 C1015 1.363 . S
C1014 H1017 0.929 . S
C1015 C1014 1.363 . S
C1015 C1021 1.428 . S
H1016 C1012 0.930 . S
H1017 C1014 0.929 . S
S1018 N1019 1.613 . S
S1018 N1020 1.610 . S
N1019 S1018 1.613 . S
N1019 C1022 1.350 . S
N1020 S1018 1.610 . S
N1020 C1021 1.351 . S
C1021 C1015 1.428 . S
C1021 N1020 1.351 . S
C1021 C1022 1.434 . S
C1022 C1013 1.429 . S
C1022 N1019 1.350 . S
C1022 C1021 1.434 . S
C1023 C1024 1.369 . S
C1023 C1025 1.419 . S
C1023 H1027 0.930 . S
C1024 C1023 1.369 . S
C1024 C1033 1.429 . S
C1025 C1023 1.419 . S
C1025 C1026 1.363 . S
C1025 H1028 0.929 . S
C1026 C1025 1.363 . S
C1026 C1032 1.428 . S
H1027 C1023 0.930 . S
H1028 C1025 0.929 . S
S1029 N1030 1.613 . S
S1029 N1031 1.610 . S
N1030 S1029 1.613 . S
N1030 C1033 1.350 . S
N1031 S1029 1.610 . S
N1031 C1032 1.351 . S
C1032 C1026 1.428 . S
C1032 N1031 1.351 . S
C1032 C1033 1.434 . S
C1033 C1024 1.429 . S
C1033 N1030 1.350 . S
C1033 C1032 1.434 . S
C1034 C1035 1.369 . S
C1034 C1036 1.419 . S
C1034 H1038 0.930 . S
C1035 C1034 1.369 . S
C1035 C1044 1.429 . S
C1036 C1034 1.419 . S
C1036 C1037 1.363 . S
C1036 H1039 0.929 . S
C1037 C1036 1.363 . S
C1037 C1043 1.428 . S
H1038 C1034 0.930 . S
H1039 C1036 0.929 . S
S1040 N1041 1.613 . S
S1040 N1042 1.610 . S
N1041 S1040 1.613 . S
N1041 C1044 1.350 . S
N1042 S1040 1.610 . S
N1042 C1043 1.351 . S
C1043 C1037 1.428 . S
C1043 N1042 1.351 . S
C1043 C1044 1.434 . S
C1044 C1035 1.429 . S
C1044 N1041 1.350 . S
C1044 C1043 1.434 . S
C1045 C1046 1.369 . S
C1045 C1047 1.419 . S
C1045 H1049 0.930 . S
C1046 C1045 1.369 . S
C1046 C1055 1.429 . S
C1047 C1045 1.419 . S
C1047 C1048 1.363 . S
C1047 H1050 0.929 . S
C1048 C1047 1.363 . S
C1048 C1054 1.428 . S
H1049 C1045 0.930 . S
H1050 C1047 0.929 . S
S1051 N1052 1.613 . S
S1051 N1053 1.610 . S
N1052 S1051 1.613 . S
N1052 C1055 1.350 . S
N1053 S1051 1.610 . S
N1053 C1054 1.351 . S
C1054 C1048 1.428 . S
C1054 N1053 1.351 . S
C1054 C1055 1.434 . S
C1055 C1046 1.429 . S
C1055 N1052 1.350 . S
C1055 C1054 1.434 . S
C1056 C1057 1.369 . S
C1056 C1058 1.419 . S
C1056 H1060 0.930 . S
C1057 C1056 1.369 . S
C1057 C1066 1.429 . S
C1058 C1056 1.419 . S
C1058 C1059 1.363 . S
C1058 H1061 0.929 . S
C1059 C1058 1.363 . S
C1059 C1065 1.428 . S
H1060 C1056 0.930 . S
H1061 C1058 0.929 . S
S1062 N1063 1.613 . S
S1062 N1064 1.610 . S
N1063 S1062 1.613 . S
N1063 C1066 1.350 . S
N1064 S1062 1.610 . S
N1064 C1065 1.351 . S
C1065 C1059 1.428 . S
C1065 N1064 1.351 . S
C1065 C1066 1.434 . S
C1066 C1057 1.429 . S
C1066 N1063 1.350 . S
C1066 C1065 1.434 . S
C1067 C1068 1.369 . S
C1067 C1069 1.419 . S
C1067 H1071 0.930 . S
C1068 C1067 1.369 . S
C1068 C1077 1.429 . S
C1069 C1067 1.419 . S
C1069 C1070 1.363 . S
C1069 H1072 0.929 . S
C1070 C1069 1.363 . S
C1070 C1076 1.428 . S
H1071 C1067 0.930 . S
H1072 C1069 0.929 . S
S1073 N1074 1.613 . S
S1073 N1075 1.610 . S
N1074 S1073 1.613 . S
N1074 C1077 1.350 . S
N1075 S1073 1.610 . S
N1075 C1076 1.351 . S
C1076 C1070 1.428 . S
C1076 N1075 1.351 . S
C1076 C1077 1.434 . S
C1077 C1068 1.429 . S
C1077 N1074 1.350 . S
C1077 C1076 1.434 . S
C1078 C1079 1.369 . S
C1078 C1080 1.419 . S
C1078 H1082 0.930 . S
C1079 C1078 1.369 . S
C1079 C1088 1.429 . S
C1080 C1078 1.419 . S
C1080 C1081 1.363 . S
C1080 H1083 0.929 . S
C1081 C1080 1.363 . S
C1081 C1087 1.428 . S
H1082 C1078 0.930 . S
H1083 C1080 0.929 . S
S1084 N1085 1.613 . S
S1084 N1086 1.610 . S
N1085 S1084 1.613 . S
N1085 C1088 1.350 . S
N1086 S1084 1.610 . S
N1086 C1087 1.351 . S
C1087 C1081 1.428 . S
C1087 N1086 1.351 . S
C1087 C1088 1.434 . S
C1088 C1079 1.429 . S
C1088 N1085 1.350 . S
C1088 C1087 1.434 . S
C1089 C1090 1.369 . S
C1089 C1091 1.419 . S
C1089 H1093 0.930 . S
C1090 C1089 1.369 . S
C1090 C1099 1.429 . S
C1091 C1089 1.419 . S
C1091 C1092 1.363 . S
C1091 H1094 0.929 . S
C1092 C1091 1.363 . S
C1092 C1098 1.428 . S
H1093 C1089 0.930 . S
H1094 C1091 0.929 . S
S1095 N1096 1.613 . S
S1095 N1097 1.610 . S
N1096 S1095 1.613 . S
N1096 C1099 1.350 . S
N1097 S1095 1.610 . S
N1097 C1098 1.351 . S
C1098 C1092 1.428 . S
C1098 N1097 1.351 . S
C1098 C1099 1.434 . S
C1099 C1090 1.429 . S
C1099 N1096 1.350 . S
C1099 C1098 1.434 . S
C1100 C1101 1.369 . S
C1100 C1102 1.419 . S
C1100 H1104 0.930 . S
C1101 C1100 1.369 . S
C1101 C1110 1.429 . S
C1102 C1100 1.419 . S
C1102 C1103 1.363 . S
C1102 H1105 0.929 . S
C1103 C1102 1.363 . S
C1103 C1109 1.428 . S
H1104 C1100 0.930 . S
H1105 C1102 0.929 . S
S1106 N1107 1.613 . S
S1106 N1108 1.610 . S
N1107 S1106 1.613 . S
N1107 C1110 1.350 . S
N1108 S1106 1.610 . S
N1108 C1109 1.351 . S
C1109 C1103 1.428 . S
C1109 N1108 1.351 . S
C1109 C1110 1.434 . S
C1110 C1101 1.429 . S
C1110 N1107 1.350 . S
C1110 C1109 1.434 . S
C1111 C1112 1.369 . S
C1111 C1113 1.419 . S
C1111 H1115 0.930 . S
C1112 C1111 1.369 . S
C1112 C1121 1.429 . S
C1113 C1111 1.419 . S
C1113 C1114 1.363 . S
C1113 H1116 0.929 . S
C1114 C1113 1.363 . S
C1114 C1120 1.428 . S
H1115 C1111 0.930 . S
H1116 C1113 0.929 . S
S1117 N1118 1.613 . S
S1117 N1119 1.610 . S
N1118 S1117 1.613 . S
N1118 C1121 1.350 . S
N1119 S1117 1.610 . S
N1119 C1120 1.351 . S
C1120 C1114 1.428 . S
C1120 N1119 1.351 . S
C1120 C1121 1.434 . S
C1121 C1112 1.429 . S
C1121 N1118 1.350 . S
C1121 C1120 1.434 . S
C1122 C1123 1.369 . S
C1122 C1124 1.419 . S
C1122 H1126 0.930 . S
C1123 C1122 1.369 . S
C1123 C1132 1.429 . S
C1124 C1122 1.419 . S
C1124 C1125 1.363 . S
C1124 H1127 0.929 . S
C1125 C1124 1.363 . S
C1125 C1131 1.428 . S
H1126 C1122 0.930 . S
H1127 C1124 0.929 . S
S1128 N1129 1.613 . S
S1128 N1130 1.610 . S
N1129 S1128 1.613 . S
N1129 C1132 1.350 . S
N1130 S1128 1.610 . S
N1130 C1131 1.351 . S
C1131 C1125 1.428 . S
C1131 N1130 1.351 . S
C1131 C1132 1.434 . S
C1132 C1123 1.429 . S
C1132 N1129 1.350 . S
C1132 C1131 1.434 . S
C1133 C1134 1.369 . S
C1133 C1135 1.419 . S
C1133 H1137 0.930 . S
C1134 C1133 1.369 . S
C1134 C1143 1.429 . S
C1135 C1133 1.419 . S
C1135 C1136 1.363 . S
C1135 H1138 0.929 . S
C1136 C1135 1.363 . S
C1136 C1142 1.428 . S
H1137 C1133 0.930 . S
H1138 C1135 0.929 . S
S1139 N1140 1.613 . S
S1139 N1141 1.610 . S
N1140 S1139 1.613 . S
N1140 C1143 1.350 . S
N1141 S1139 1.610 . S
N1141 C1142 1.351 . S
C1142 C1136 1.428 . S
C1142 N1141 1.351 . S
C1142 C1143 1.434 . S
C1143 C1134 1.429 . S
C1143 N1140 1.350 . S
C1143 C1142 1.434 . S
C1144 C1145 1.369 . S
C1144 C1146 1.419 . S
C1144 H1148 0.930 . S
C1145 C1144 1.369 . S
C1145 C1154 1.429 . S
C1146 C1144 1.419 . S
C1146 C1147 1.363 . S
C1146 H1149 0.929 . S
C1147 C1146 1.363 . S
C1147 C1153 1.428 . S
H1148 C1144 0.930 . S
H1149 C1146 0.929 . S
S1150 N1151 1.613 . S
S1150 N1152 1.610 . S
N1151 S1150 1.613 . S
N1151 C1154 1.350 . S
N1152 S1150 1.610 . S
N1152 C1153 1.351 . S
C1153 C1147 1.428 . S
C1153 N1152 1.351 . S
C1153 C1154 1.434 . S
C1154 C1145 1.429 . S
C1154 N1151 1.350 . S
C1154 C1153 1.434 . S
C1155 C1156 1.369 . S
C1155 C1157 1.419 . S
C1155 H1159 0.930 . S
C1156 C1155 1.369 . S
C1156 C1165 1.429 . S
C1157 C1155 1.419 . S
C1157 C1158 1.363 . S
C1157 H1160 0.929 . S
C1158 C1157 1.363 . S
C1158 C1164 1.428 . S
H1159 C1155 0.930 . S
H1160 C1157 0.929 . S
S1161 N1162 1.613 . S
S1161 N1163 1.610 . S
N1162 S1161 1.613 . S
N1162 C1165 1.350 . S
N1163 S1161 1.610 . S
N1163 C1164 1.351 . S
C1164 C1158 1.428 . S
C1164 N1163 1.351 . S
C1164 C1165 1.434 . S
C1165 C1156 1.429 . S
C1165 N1162 1.350 . S
C1165 C1164 1.434 . S
C1166 C1167 1.369 . S
C1166 C1168 1.419 . S
C1166 H1170 0.930 . S
C1167 C1166 1.369 . S
C1167 C1176 1.429 . S
C1168 C1166 1.419 . S
C1168 C1169 1.363 . S
C1168 H1171 0.929 . S
C1169 C1168 1.363 . S
C1169 C1175 1.428 . S
H1170 C1166 0.930 . S
H1171 C1168 0.929 . S
S1172 N1173 1.613 . S
S1172 N1174 1.610 . S
N1173 S1172 1.613 . S
N1173 C1176 1.350 . S
N1174 S1172 1.610 . S
N1174 C1175 1.351 . S
C1175 C1169 1.428 . S
C1175 N1174 1.351 . S
C1175 C1176 1.434 . S
C1176 C1167 1.429 . S
C1176 N1173 1.350 . S
C1176 C1175 1.434 . S
C1177 C1178 1.369 . S
C1177 C1179 1.419 . S
C1177 H1181 0.930 . S
C1178 C1177 1.369 . S
C1178 C1187 1.429 . S
C1179 C1177 1.419 . S
C1179 C1180 1.363 . S
C1179 H1182 0.929 . S
C1180 C1179 1.363 . S
C1180 C1186 1.428 . S
H1181 C1177 0.930 . S
H1182 C1179 0.929 . S
S1183 N1184 1.613 . S
S1183 N1185 1.610 . S
N1184 S1183 1.613 . S
N1184 C1187 1.350 . S
N1185 S1183 1.610 . S
N1185 C1186 1.351 . S
C1186 C1180 1.428 . S
C1186 N1185 1.351 . S
C1186 C1187 1.434 . S
C1187 C1178 1.429 . S
C1187 N1184 1.350 . S
C1187 C1186 1.434 . S
C1188 C1189 1.369 . S
C1188 C1190 1.419 . S
C1188 H1192 0.930 . S
C1189 C1188 1.369 . S
C1189 C1198 1.429 . S
C1190 C1188 1.419 . S
C1190 C1191 1.363 . S
C1190 H1193 0.929 . S
C1191 C1190 1.363 . S
C1191 C1197 1.428 . S
H1192 C1188 0.930 . S
H1193 C1190 0.929 . S
S1194 N1195 1.613 . S
S1194 N1196 1.610 . S
N1195 S1194 1.613 . S
N1195 C1198 1.350 . S
N1196 S1194 1.610 . S
N1196 C1197 1.351 . S
C1197 C1191 1.428 . S
C1197 N1196 1.351 . S
C1197 C1198 1.434 . S
C1198 C1189 1.429 . S
C1198 N1195 1.350 . S
C1198 C1197 1.434 . S
C1199 C1200 1.369 . S
C1199 C1201 1.419 . S
C1199 H1203 0.930 . S
C1200 C1199 1.369 . S
C1200 C1209 1.429 . S
C1201 C1199 1.419 . S
C1201 C1202 1.363 . S
C1201 H1204 0.929 . S
C1202 C1201 1.363 . S
C1202 C1208 1.428 . S
H1203 C1199 0.930 . S
H1204 C1201 0.929 . S
S1205 N1206 1.613 . S
S1205 N1207 1.610 . S
N1206 S1205 1.613 . S
N1206 C1209 1.350 . S
N1207 S1205 1.610 . S
N1207 C1208 1.351 . S
C1208 C1202 1.428 . S
C1208 N1207 1.351 . S
C1208 C1209 1.434 . S
C1209 C1200 1.429 . S
C1209 N1206 1.350 . S
C1209 C1208 1.434 . S
C1210 C1211 1.369 . S
C1210 C1212 1.419 . S
C1210 H1214 0.930 . S
C1211 C1210 1.369 . S
C1211 C1220 1.429 . S
C1212 C1210 1.419 . S
C1212 C1213 1.363 . S
C1212 H1215 0.929 . S
C1213 C1212 1.363 . S
C1213 C1219 1.428 . S
H1214 C1210 0.930 . S
H1215 C1212 0.929 . S
S1216 N1217 1.613 . S
S1216 N1218 1.610 . S
N1217 S1216 1.613 . S
N1217 C1220 1.350 . S
N1218 S1216 1.610 . S
N1218 C1219 1.351 . S
C1219 C1213 1.428 . S
C1219 N1218 1.351 . S
C1219 C1220 1.434 . S
C1220 C1211 1.429 . S
C1220 N1217 1.350 . S
C1220 C1219 1.434 . S
C1221 C1222 1.369 . S
C1221 C1223 1.419 . S
C1221 H1225 0.930 . S
C1222 C1221 1.369 . S
C1222 C1231 1.429 . S
C1223 C1221 1.419 . S
C1223 C1224 1.363 . S
C1223 H1226 0.929 . S
C1224 C1223 1.363 . S
C1224 C1230 1.428 . S
H1225 C1221 0.930 . S
H1226 C1223 0.929 . S
S1227 N1228 1.613 . S
S1227 N1229 1.610 . S
N1228 S1227 1.613 . S
N1228 C1231 1.350 . S
N1229 S1227 1.610 . S
N1229 C1230 1.351 . S
C1230 C1224 1.428 . S
C1230 N1229 1.351 . S
C1230 C1231 1.434 . S
C1231 C1222 1.429 . S
C1231 N1228 1.350 . S
C1231 C1230 1.434 . S
C1232 C1233 1.369 . S
C1232 C1234 1.419 . S
C1232 H1236 0.930 . S
C1233 C1232 1.369 . S
C1233 C1242 1.429 . S
C1234 C1232 1.419 . S
C1234 C1235 1.363 . S
C1234 H1237 0.929 . S
C1235 C1234 1.363 . S
C1235 C1241 1.428 . S
H1236 C1232 0.930 . S
H1237 C1234 0.929 . S
S1238 N1239 1.613 . S
S1238 N1240 1.610 . S
N1239 S1238 1.613 . S
N1239 C1242 1.350 . S
N1240 S1238 1.610 . S
N1240 C1241 1.351 . S
C1241 C1235 1.428 . S
C1241 N1240 1.351 . S
C1241 C1242 1.434 . S
C1242 C1233 1.429 . S
C1242 N1239 1.350 . S
C1242 C1241 1.434 . S
C1243 C1244 1.369 . S
C1243 C1245 1.419 . S
C1243 H1247 0.930 . S
C1244 C1243 1.369 . S
C1244 C1253 1.429 . S
C1245 C1243 1.419 . S
C1245 C1246 1.363 . S
C1245 H1248 0.929 . S
C1246 C1245 1.363 . S
C1246 C1252 1.428 . S
H1247 C1243 0.930 . S
H1248 C1245 0.929 . S
S1249 N1250 1.613 . S
S1249 N1251 1.610 . S
N1250 S1249 1.613 . S
N1250 C1253 1.350 . S
N1251 S1249 1.610 . S
N1251 C1252 1.351 . S
C1252 C1246 1.428 . S
C1252 N1251 1.351 . S
C1252 C1253 1.434 . S
C1253 C1244 1.429 . S
C1253 N1250 1.350 . S
C1253 C1252 1.434 . S
C1254 C1255 1.369 . S
C1254 C1256 1.419 . S
C1254 H1258 0.930 . S
C1255 C1254 1.369 . S
C1255 C1264 1.429 . S
C1256 C1254 1.419 . S
C1256 C1257 1.363 . S
C1256 H1259 0.929 . S
C1257 C1256 1.363 . S
C1257 C1263 1.428 . S
H1258 C1254 0.930 . S
H1259 C1256 0.929 . S
S1260 N1261 1.613 . S
S1260 N1262 1.610 . S
N1261 S1260 1.613 . S
N1261 C1264 1.350 . S
N1262 S1260 1.610 . S
N1262 C1263 1.351 . S
C1263 C1257 1.428 . S
C1263 N1262 1.351 . S
C1263 C1264 1.434 . S
C1264 C1255 1.429 . S
C1264 N1261 1.350 . S
C1264 C1263 1.434 . S
C1265 C1266 1.369 . S
C1265 C1267 1.419 . S
C1265 H1269 0.930 . S
C1266 C1265 1.369 . S
C1266 C1275 1.429 . S
C1267 C1265 1.419 . S
C1267 C1268 1.363 . S
C1267 H1270 0.929 . S
C1268 C1267 1.363 . S
C1268 C1274 1.428 . S
H1269 C1265 0.930 . S
H1270 C1267 0.929 . S
S1271 N1272 1.613 . S
S1271 N1273 1.610 . S
N1272 S1271 1.613 . S
N1272 C1275 1.350 . S
N1273 S1271 1.610 . S
N1273 C1274 1.351 . S
C1274 C1268 1.428 . S
C1274 N1273 1.351 . S
C1274 C1275 1.434 . S
C1275 C1266 1.429 . S
C1275 N1272 1.350 . S
C1275 C1274 1.434 . S
C1276 C1277 1.369 . S
C1276 C1278 1.419 . S
C1276 H1280 0.930 . S
C1277 C1276 1.369 . S
C1277 C1286 1.429 . S
C1278 C1276 1.419 . S
C1278 C1279 1.363 . S
C1278 H1281 0.929 . S
C1279 C1278 1.363 . S
C1279 C1285 1.428 . S
H1280 C1276 0.930 . S
H1281 C1278 0.929 . S
S1282 N1283 1.613 . S
S1282 N1284 1.610 . S
N1283 S1282 1.613 . S
N1283 C1286 1.350 . S
N1284 S1282 1.610 . S
N1284 C1285 1.351 . S
C1285 C1279 1.428 . S
C1285 N1284 1.351 . S
C1285 C1286 1.434 . S
C1286 C1277 1.429 . S
C1286 N1283 1.350 . S
C1286 C1285 1.434 . S
C1287 C1288 1.369 . S
C1287 C1289 1.419 . S
C1287 H1291 0.930 . S
C1288 C1287 1.369 . S
C1288 C1297 1.429 . S
C1289 C1287 1.419 . S
C1289 C1290 1.363 . S
C1289 H1292 0.929 . S
C1290 C1289 1.363 . S
C1290 C1296 1.428 . S
H1291 C1287 0.930 . S
H1292 C1289 0.929 . S
S1293 N1294 1.613 . S
S1293 N1295 1.610 . S
N1294 S1293 1.613 . S
N1294 C1297 1.350 . S
N1295 S1293 1.610 . S
N1295 C1296 1.351 . S
C1296 C1290 1.428 . S
C1296 N1295 1.351 . S
C1296 C1297 1.434 . S
C1297 C1288 1.429 . S
C1297 N1294 1.350 . S
C1297 C1296 1.434 . S
C1298 C1299 1.369 . S
C1298 C1300 1.419 . S
C1298 H1302 0.930 . S
C1299 C1298 1.369 . S
C1299 C1308 1.429 . S
C1300 C1298 1.419 . S
C1300 C1301 1.363 . S
C1300 H1303 0.929 . S
C1301 C1300 1.363 . S
C1301 C1307 1.428 . S
H1302 C1298 0.930 . S
H1303 C1300 0.929 . S
S1304 N1305 1.613 . S
S1304 N1306 1.610 . S
N1305 S1304 1.613 . S
N1305 C1308 1.350 . S
N1306 S1304 1.610 . S
N1306 C1307 1.351 . S
C1307 C1301 1.428 . S
C1307 N1306 1.351 . S
C1307 C1308 1.434 . S
C1308 C1299 1.429 . S
C1308 N1305 1.350 . S
C1308 C1307 1.434 . S
C1309 C1310 1.369 . S
C1309 C1311 1.419 . S
C1309 H1313 0.930 . S
C1310 C1309 1.369 . S
C1310 C1319 1.429 . S
C1311 C1309 1.419 . S
C1311 C1312 1.363 . S
C1311 H1314 0.929 . S
C1312 C1311 1.363 . S
C1312 C1318 1.428 . S
H1313 C1309 0.930 . S
H1314 C1311 0.929 . S
S1315 N1316 1.613 . S
S1315 N1317 1.610 . S
N1316 S1315 1.613 . S
N1316 C1319 1.350 . S
N1317 S1315 1.610 . S
N1317 C1318 1.351 . S
C1318 C1312 1.428 . S
C1318 N1317 1.351 . S
C1318 C1319 1.434 . S
C1319 C1310 1.429 . S
C1319 N1316 1.350 . S
C1319 C1318 1.434 . S
C529 C21 1.559 . S
C531 C406 1.534 . S
C540 C436 1.539 . S
C542 C43 1.561 . S
C551 C370 1.534 . S
C553 C51 1.560 1_565 S
C562 C87 1.556 1_545 S
C564 C392 1.532 . S
C573 C502 1.534 . S
C575 C95 1.557 . S
C584 C472 1.537 . S
C586 C125 1.561 1_554 S
C595 C516 1.531 . S
C597 C139 1.557 . S
C606 C448 1.532 . S
C608 C161 1.558 1_556 S
C617 C183 1.556 . S
C619 C296 1.532 . S
C628 C205 1.557 1_455 S
C630 C348 1.534 . S
C639 C235 1.560 . S
C641 C318 1.538 . S
C650 C282 1.531 . S
C652 C249 1.557 1_655 S
C661 C142 1.528 . S
C663 C279 1.552 . S
C672 C307 1.552 . S
C674 C164 1.531 . S
C683 C98 1.528 . S
C685 C329 1.552 1_545 S
C694 C118 1.528 . S
C696 C345 1.552 1_565 S
C705 C367 1.551 . S
C707 C228 1.529 . S
C716 C208 1.529 . S
C718 C389 1.552 1_556 S
C727 C252 1.533 . S
C729 C417 1.556 . S
C738 C433 1.551 1_554 S
C740 C186 1.529 . S
C749 C447 1.551 . S
C751 C40 1.530 . S
C760 C483 1.553 1_655 S
C762 C84 1.529 . S
C771 C499 1.556 . S
C773 C54 1.535 . S
C782 C18 1.535 . S
C784 C527 1.557 1_455 S
C793 C428 1.262 1_554 S
C795 C10 1.259 . S
C804 C404 1.267 . S
C806 C32 1.263 . S
C815 C384 1.269 1_556 S
C817 C52 1.261 . S
C826 C362 1.269 . S
C828 C76 1.258 . S
C837 C96 1.264 . S
C839 C514 1.266 1_455 S
C848 C128 1.255 . S
C850 C458 1.266 . S
C859 C494 1.269 . S
C861 C140 1.261 . S
C870 C470 1.270 1_655 S
C872 C162 1.259 . S
C881 C316 1.268 1_545 S
C883 C184 1.262 . S
C892 C206 1.260 . S
C894 C274 1.263 . S
C903 C294 1.269 . S
C905 C238 1.258 . S
C914 C340 1.262 1_565 S
C916 C250 1.258 . S
C925 C272 1.266 . S
C927 C172 1.277 1_556 S
C936 C150 1.278 . S
C938 C304 1.264 . S
C947 C326 1.267 . S
C949 C120 1.272 1_554 S
C958 C338 1.267 . S
C960 C106 1.277 . S
C969 C260 1.278 1_655 S
C971 C360 1.265 . S
C980 C194 1.272 . S
C982 C382 1.262 . S
C991 C414 1.264 . S
C993 C230 1.277 . S
C1002 C426 1.262 . S
C1004 C216 1.272 1_455 S
C1013 C62 1.276 1_565 S
C1015 C450 1.268 . S
C1024 C8 1.272 . S
C1026 C480 1.262 . S
C1035 C492 1.267 . S
C1037 C30 1.276 . S
C1046 C524 1.269 . S
C1048 C74 1.275 1_545 S
C1057 C7 1.125 . S
C1059 C109 1.113 . S
C1068 C117 1.117 . S
C1070 C29 1.126 . S
C1079 C153 1.117 . S
C1081 C59 1.126 . S
C1090 C175 1.115 . S
C1092 C73 1.126 . S
C1101 C197 1.112 . S
C1103 C103 1.124 . S
C1112 C131 1.125 . S
C1114 C263 1.115 . S
C1123 C147 1.127 . S
C1125 C219 1.116 . S
C1134 C227 1.110 . S
C1136 C169 1.122 . S
C1145 C191 1.122 . S
C1147 C15 1.110 . S
C1156 C213 1.124 . S
C1158 C65 1.113 . S
C1167 C81 1.110 . S
C1169 C241 1.123 . S
C1178 C37 1.116 . S
C1180 C257 1.126 . S
C1189 C271 1.118 . S
C1191 C373 1.114 . S
C1200 C395 1.120 . S
C1202 C301 1.125 . S
C1211 C403 1.121 . S
C1213 C323 1.125 . S
C1222 C439 1.113 . S
C1224 C337 1.119 . S
C1233 C359 1.122 . S
C1235 C455 1.118 . S
C1244 C513 1.122 . S
C1246 C381 1.125 . S
C1255 C411 1.118 . S
C1257 C469 1.114 . S
C1266 C425 1.118 . S
C1268 C505 1.114 . S
C1277 C285 1.113 . S
C1279 C461 1.119 . S
C1288 C315 1.121 . S
C1290 C477 1.125 . S
C1299 C351 1.113 . S
C1301 C491 1.120 . S
C1310 C293 1.113 . S
C1312 C521 1.120 . S
