# Generated by pormake.
# Topology sxb, (6)-cn, num edge types: 1
# Building blocks:
#     Node 0, Type 0, BuildingBlock: LEVNOQ01_clean_sbu_1, # of connection points: 6
#     Node 1, Type 0, BuildingBlock: LEVNOQ01_clean_sbu_1, # of connection points: 6
#     Node 2, Type 0, BuildingBlock: LEVNOQ01_clean_sbu_1, # of connection points: 6
#     Node 3, Type 0, BuildingBlock: LEVNOQ01_clean_sbu_1, # of connection points: 6
#     Edge 4, Type (0, 0), BuildingBlock: KIFKEQ_clean_linker_1, # of connection points: 2
#     Edge 5, Type (0, 0), BuildingBlock: KIFKEQ_clean_linker_1, # of connection points: 2
#     Edge 6, Type (0, 0), BuildingBlock: KIFKEQ_clean_linker_1, # of connection points: 2
#     Edge 7, Type (0, 0), BuildingBlock: KIFKEQ_clean_linker_1, # of connection points: 2
#     Edge 8, Type (0, 0), BuildingBlock: KIFKEQ_clean_linker_1, # of connection points: 2
#     Edge 9, Type (0, 0), BuildingBlock: KIFKEQ_clean_linker_1, # of connection points: 2
#     Edge 10, Type (0, 0), BuildingBlock: KIFKEQ_clean_linker_1, # of connection points: 2
#     Edge 11, Type (0, 0), BuildingBlock: KIFKEQ_clean_linker_1, # of connection points: 2
#     Edge 12, Type (0, 0), BuildingBlock: KIFKEQ_clean_linker_1, # of connection points: 2
#     Edge 13, Type (0, 0), BuildingBlock: KIFKEQ_clean_linker_1, # of connection points: 2
#     Edge 14, Type (0, 0), BuildingBlock: KIFKEQ_clean_linker_1, # of connection points: 2
#     Edge 15, Type (0, 0), BuildingBlock: KIFKEQ_clean_linker_1, # of connection points: 2
# Relax obj value: 0.085
# Max RMSD: 0.127
# Mean RMSD: 0.127
data_MOF--net-sxb--node1-LEVNOQ01_clean_sbu_1--edge1-KIFKEQ_clean_linker_1
_symmetry_space_group_name_H-M    P1
_symmetry_Int_Tables_number       1
_symmetry_cell_setting            triclinic
loop_
_symmetry_equiv_pos_as_xyz
'x, y, z'
_cell_length_a     15.746534
_cell_length_b     28.672509
_cell_length_c     32.321019
_cell_angle_alpha  89.978461
_cell_angle_beta   104.66799
_cell_angle_gamma 90.151127
loop_
_atom_site_label
_atom_site_type_symbol
_atom_site_fract_x
_atom_site_fract_y
_atom_site_fract_z
_atom_type_partial_charge
O0 O 0.79496 0.93234 0.98113 0.0
Mg1 Mg 0.84087 0.98783 0.94964 0.0
O2 O 0.86114 0.9844 0.02629 0.0
Mg3 Mg -0.00806 0.00179 0.0057 0.0
O4 O 0.95431 0.98164 0.93089 0.0
O5 O 0.81794 0.9714 0.88819 0.0
O6 O 0.12437 0.02023 0.98602 0.0
O7 O 0.05105 0.92587 0.01933 0.0
Mg8 Mg 0.13909 0.01895 0.06231 0.0
O9 O 0.02605 0.02044 0.08063 0.0
O10 O 0.16904 0.07759 0.02917 0.0
O11 O 0.18371 0.94998 0.05356 0.0
O12 O 0.16003 0.0345 0.12419 0.0
C13 C 0.85491 0.08921 0.97462 0.0
C14 C 0.79767 0.9558 0.01429 0.0
C15 C 0.90188 0.97202 0.8935 0.0
C16 C 0.17936 0.05313 -0.00143 0.0
C17 C 0.13217 0.91715 0.03667 0.0
C18 C 0.07619 0.03061 0.11835 0.0
O19 O 0.80103 0.05782 0.95682 0.0
O20 O 0.93473 0.07836 -0.00744 0.0
O21 O 0.78804 0.93789 0.46725 0.0
Mg22 Mg 0.8269 0.00543 0.45003 0.0
O23 O 0.92495 0.91824 0.49709 0.0
Mg24 Mg -0.02591 0.99635 0.50308 0.0
O25 O 0.93325 0.00791 0.42646 0.0
O26 O 0.79344 0.01247 0.38665 0.0
O27 O 0.02153 0.07488 0.5086 0.0
O28 O 0.10363 0.97941 0.48072 0.0
Mg29 Mg 0.1255 0.99004 0.55567 0.0
O30 O 0.01864 0.98373 0.57961 0.0
O31 O 0.15954 0.05874 0.53969 0.0
O32 O 0.17043 0.93065 0.52887 0.0
O33 O 0.15947 0.98264 0.61869 0.0
C34 C 0.78711 0.04622 0.50998 0.0
C35 C 0.84365 0.90706 0.48434 0.0
C36 C 0.87659 0.01276 0.38943 0.0
C37 C 0.10163 0.08805 0.52181 0.0
C38 C 0.16744 0.95153 0.49433 0.0
C39 C 0.0767 0.97977 0.6164 0.0
O40 O 0.79681 0.06794 0.47772 0.0
O41 O 0.84279 0.01432 0.52459 0.0
O42 O 0.31608 0.54502 0.96139 0.0
Mg43 Mg 0.44086 0.55627 0.95197 0.0
O44 O 0.35908 0.48118 -0.00199 0.0
Mg45 Mg 0.50219 0.50544 0.00942 0.0
O46 O 0.50041 0.5003 0.93408 0.0
O47 O 0.41852 0.55219 0.88858 0.0
O48 O 0.64277 0.53103 0.0189 0.0
O49 O 0.54827 0.42559 -0.00249 0.0
Mg50 Mg 0.57477 0.45658 0.06798 0.0
O51 O 0.50581 0.50966 0.08523 0.0
O52 O 0.69836 0.47022 0.05738 0.0
O53 O 0.52466 0.38928 0.05256 0.0
O54 O 0.59836 0.46231 0.13091 0.0
C55 C 0.46601 0.62394 0.00371 0.0
C56 C 0.29789 0.50857 0.97933 0.0
C57 C 0.46577 0.51509 0.89535 0.0
C58 C 0.70857 0.50659 0.03722 0.0
C59 C 0.54467 0.38715 0.01727 0.0
C60 C 0.54411 0.49661 0.12421 0.0
O61 O 0.4948 0.62246 0.97068 0.0
O62 O 0.45601 0.58511 0.02155 0.0
O63 O 0.2662 0.44456 0.45963 0.0
Mg64 Mg 0.30075 0.51455 0.44706 0.0
O65 O 0.40401 0.42436 0.48687 0.0
Mg66 Mg 0.45722 0.5014 0.49975 0.0
O67 O 0.41067 0.52292 0.42577 0.0
O68 O 0.27205 0.52877 0.38469 0.0
O69 O 0.51231 0.57773 0.51313 0.0
O70 O 0.58593 0.48583 0.47486 0.0
Mg71 Mg 0.60531 0.48398 0.54935 0.0
O72 O 0.50112 0.48081 0.57474 0.0
O73 O 0.64823 0.55293 0.53708 0.0
O74 O 0.62697 0.42516 0.51389 0.0
O75 O 0.64149 0.4677 0.61123 0.0
C76 C 0.26597 0.54579 0.51319 0.0
C77 C 0.32263 0.41329 0.47447 0.0
C78 C 0.35562 0.53135 0.38888 0.0
C79 C 0.59491 0.58621 0.52422 0.0
C80 C 0.63933 0.45197 0.48518 0.0
C81 C 0.55911 0.46987 0.61006 0.0
O82 O 0.26383 0.57071 0.48091 0.0
O83 O 0.32847 0.51643 0.52383 0.0
H84 H 0.40271 0.64395 0.07409 0.0
H85 H 0.42825 0.70243 0.95462 0.0
H86 H 0.31559 0.71208 0.08438 0.0
H87 H 0.33963 0.76904 0.96439 0.0
H88 H 0.09103 0.85103 0.973 0.0
H89 H 0.17261 0.77921 0.96759 0.0
H90 H 0.34234 0.80492 0.09288 0.0
H91 H 0.26281 0.8771 0.09779 0.0
C92 C 0.39076 0.67142 0.05031 0.0
C93 C 0.42337 0.66763 0.01369 0.0
C94 C 0.34038 0.71027 0.05607 0.0
C95 C 0.31953 0.74558 0.02482 0.0
C96 C 0.35333 0.74213 -0.0113 0.0
C97 C 0.40516 0.70405 0.98343 0.0
C98 C 0.14457 0.84082 -0.00031 0.0
C99 C 0.17024 0.86973 0.03584 0.0
C100 C 0.19176 0.79994 -0.00351 0.0
C101 C 0.2642 0.78649 0.02979 0.0
C102 C 0.28677 0.81415 0.06681 0.0
C103 C 0.24114 0.85552 0.06955 0.0
H104 H 0.58373 0.30809 0.06527 0.0
H105 H 0.59889 0.36672 0.94417 0.0
H106 H 0.66687 0.24054 0.05271 0.0
H107 H 0.68077 0.29757 0.93115 0.0
H108 H 0.72501 0.1322 0.91514 0.0
H109 H 0.6514 0.20576 0.92209 0.0
H110 H 0.82887 0.22755 0.04616 0.0
H111 H 0.90425 0.15427 0.03877 0.0
C112 C 0.6035 0.30638 0.03556 0.0
C113 C 0.58401 0.34314 0.00567 0.0
C114 C 0.6522 0.26771 0.02866 0.0
C115 C 0.68163 0.26396 -0.00871 0.0
C116 C 0.65937 0.2996 0.96041 0.0
C117 C 0.61199 0.33905 0.96775 0.0
C118 C 0.74966 0.15319 0.94353 0.0
C119 C 0.82079 0.13741 0.97637 0.0
C120 C 0.70744 0.19538 0.94743 0.0
C121 C 0.73383 0.22235 0.98475 0.0
C122 C 0.80675 0.20738 0.01707 0.0
C123 C 0.85041 0.16564 0.01272 0.0
H124 H 0.25699 0.12976 0.56095 0.0
H125 H 0.01249 0.15625 0.46765 0.0
H126 H 0.3096 0.20688 0.54887 0.0
H127 H 0.06659 0.23326 0.454 0.0
H128 H 0.41834 0.33178 0.49259 0.0
H129 H 0.36363 0.25371 0.50235 0.0
H130 H 0.10043 0.30849 0.48033 0.0
H131 H 0.15439 0.38536 0.46879 0.0
C132 C 0.21429 0.15207 0.53766 0.0
C133 C 0.13011 0.13666 0.5154 0.0
C134 C 0.24508 0.19639 0.53035 0.0
C135 C 0.1932 0.22677 0.50011 0.0
C136 C 0.10847 0.21143 0.478 0.0
C137 C 0.0772 0.16709 0.48572 0.0
C138 C 0.34877 0.32698 0.48953 0.0
C139 C 0.29102 0.36498 0.4796 0.0
C140 C 0.31716 0.28218 0.49547 0.0
C141 C 0.22707 0.27424 0.49226 0.0
C142 C 0.16971 0.31248 0.48228 0.0
C143 C 0.20104 0.35694 0.47585 0.0
H144 H 0.68381 0.86987 0.44567 0.0
H145 H 0.92829 0.83558 0.53595 0.0
H146 H 0.62503 0.79378 0.45604 0.0
H147 H 0.86805 0.75944 0.54783 0.0
H148 H 0.76504 0.60972 0.52859 0.0
H149 H 0.82585 0.68559 0.51911 0.0
H150 H 0.56919 0.74733 0.50225 0.0
H151 H 0.50754 0.67047 0.51003 0.0
C152 C 0.72518 0.84608 0.46797 0.0
C153 C 0.81116 0.85905 0.48991 0.0
C154 C 0.69087 0.80233 0.47428 0.0
C155 C 0.74089 0.77003 0.50315 0.0
C156 C 0.82742 0.78286 0.52491 0.0
C157 C 0.86221 0.82668 0.51821 0.0
C158 C 0.72132 0.63946 0.52309 0.0
C159 C 0.63105 0.63376 0.52019 0.0
C160 C 0.75662 0.68332 0.51786 0.0
C161 C 0.70307 0.7232 0.5099 0.0
C162 C 0.61275 0.71757 0.50755 0.0
C163 C 0.57717 0.67344 0.51234 0.0
H164 H 0.23911 0.99354 0.94554 0.0
H165 H 0.32695 0.09783 0.04363 0.0
H166 H 0.3908 0.96983 0.9532 0.0
H167 H 0.47613 0.07195 0.05383 0.0
H168 H 0.74972 0.03871 0.04242 0.0
H169 H 0.60187 0.06648 0.03348 0.0
H170 H 0.50188 0.92758 -0.00257 0.0
H171 H 0.65117 0.90076 0.00299 0.0
C172 C 0.29079 0.01192 0.96824 0.0
C173 C 0.27036 0.04737 -0.00588 0.0
C174 C 0.3779 0.99761 0.97342 0.0
C175 C 0.44657 0.01785 0.00511 0.0
C176 C 0.42621 0.05539 0.02891 0.0
C177 C 0.33976 0.07038 0.02301 0.0
C178 C 0.69655 0.01365 0.03368 0.0
C179 C 0.71249 0.96741 0.02329 0.0
C180 C 0.61086 0.02975 0.02832 0.0
C181 C 0.53852 -0.00028 0.01377 0.0
C182 C 0.55518 0.95236 0.0071 0.0
C183 C 0.64104 0.93655 0.01131 0.0
H184 H 0.21633 0.03304 0.46381 0.0
H185 H 0.31292 0.8961 0.50709 0.0
H186 H 0.36457 0.06065 0.47317 0.0
H187 H 0.4627 0.92246 0.51272 0.0
H188 H 0.6409 0.09144 0.46485 0.0
H189 H 0.49133 0.06596 0.45442 0.0
H190 H 0.57381 0.96497 0.55619 0.0
H191 H 0.726 0.98807 0.56389 0.0
C192 C 0.26923 0.0081 0.47346 0.0
C193 C 0.25262 0.96231 0.48493 0.0
C194 C 0.35519 0.0241 0.47904 0.0
C195 C 0.42713 0.99428 0.49473 0.0
C196 C 0.40978 0.94717 0.50225 0.0
C197 C 0.32365 0.93156 0.49795 0.0
C198 C 0.62737 0.06431 0.48565 0.0
C199 C 0.69616 0.04131 0.51476 0.0
C200 C 0.54064 0.04955 0.47964 0.0
C201 C 0.51934 0.01237 0.50364 0.0
C202 C 0.58739 0.99239 0.53574 0.0
C203 C 0.67482 0.0064 0.54098 0.0
H204 H 0.86682 0.49636 0.0931 0.0
H205 H 0.74009 0.53143 0.96214 0.0
H206 H 0.00833 0.49324 0.07549 0.0
H207 H 0.87991 0.52532 0.94355 0.0
H208 H 0.15787 0.55916 0.9378 0.0
H209 H 0.01516 0.56128 0.95188 0.0
H210 H 0.08571 0.44433 0.0384 0.0
H211 H 0.23276 0.44428 0.0263 0.0
C212 C 0.87 0.50406 0.06069 0.0
C213 C 0.79387 0.51477 0.02901 0.0
C214 C 0.9503 0.50133 0.05038 0.0
C215 C 0.95497 0.50812 0.00797 0.0
C216 C 0.8787 0.52038 0.97661 0.0
C217 C 0.79881 0.52426 0.98722 0.0
C218 C 0.14306 0.53351 0.9596 0.0
C219 C 0.20697 0.50207 0.98167 0.0
C220 C 0.06064 0.53454 0.9674 0.0
C221 C 0.03954 0.50347 -0.00327 0.0
C222 C 0.1012 0.4696 0.01648 0.0
C223 C 0.18478 0.46906 0.00916 0.0
H224 H 0.21218 0.46106 0.53548 0.0
H225 H 0.12315 0.6023 0.50585 0.0
H226 H 0.06235 0.4348 0.52332 0.0
H227 H -0.02804 0.5769 0.49752 0.0
H228 H 0.78353 0.40256 0.52677 0.0
H229 H 0.93442 0.42705 0.54064 0.0
H230 H 0.85843 0.54023 0.45029 0.0
H231 H 0.7051 0.51766 0.43926 0.0
C232 C 0.16065 0.48701 0.52823 0.0
C233 C 0.17993 0.53385 0.52135 0.0
C234 C 0.07372 0.47183 0.52105 0.0
C235 C 0.00335 0.50334 0.50831 0.0
C236 C 0.02344 0.55103 0.50552 0.0
C237 C 0.11049 0.56597 0.51141 0.0
C238 C 0.79876 0.43225 0.50917 0.0
C239 C 0.73141 0.45841 0.48222 0.0
C240 C 0.88629 0.44645 0.51719 0.0
C241 C 0.90998 0.48647 0.49744 0.0
C242 C 0.84323 0.5103 0.46754 0.0
C243 C 0.75505 0.49671 0.46032 0.0
H244 H 0.04282 0.00352 0.37831 0.0
H245 H 0.77552 0.03578 0.31075 0.0
H246 H 0.08722 0.01101 0.31147 0.0
H247 H 0.82019 0.04449 0.24466 0.0
H248 H 0.91663 2e-05 0.12713 0.0
H249 H 0.86787 0.99747 0.1931 0.0
H250 H 0.10518 0.06873 0.26004 0.0
H251 H 0.15466 0.07016 0.19476 0.0
C252 C -0.00619 0.01254 0.34935 0.0
C253 C 0.90572 0.01876 0.3498 0.0
C254 C 0.01919 0.01709 0.3111 0.0
C255 C 0.95703 0.02825 0.27272 0.0
C256 C 0.86931 0.03509 0.27345 0.0
C257 C 0.84393 0.03031 0.31149 0.0
C258 C 0.95764 0.01565 0.15583 0.0
C259 C 0.03975 0.03482 0.15592 0.0
C260 C 0.92984 0.01423 0.19362 0.0
C261 C -0.01659 0.0323 0.23197 0.0
C262 C 0.0635 0.05345 0.23136 0.0
C263 C 0.09143 0.05458 0.19381 0.0
H264 H 0.06055 -0.00097 0.88071 0.0
H265 H 0.81808 0.92848 0.82013 0.0
H266 H 0.10307 0.99723 0.813 0.0
H267 H 0.86107 0.9258 0.75316 0.0
H268 H 0.1817 0.9543 0.69328 0.0
H269 H 0.14342 0.94674 0.76104 0.0
H270 H 0.87461 0.98216 0.69918 0.0
H271 H 0.91268 0.98878 0.63059 0.0
C272 C 0.01737 0.98229 0.85324 0.0
C273 C 0.9357 0.96443 0.85552 0.0
C274 C 0.0415 0.98126 0.81446 0.0
C275 C -0.01543 0.96203 0.77755 0.0
C276 C 0.90523 0.94192 0.78068 0.0
C277 C 0.88103 0.94317 0.81918 0.0
C278 C 0.11419 0.96034 0.69394 0.0
C279 C 0.05017 0.97251 0.65657 0.0
C280 C 0.09252 0.95621 0.73293 0.0
C281 C 0.00635 0.96423 0.73559 0.0
C282 C 0.9416 0.97531 0.69805 0.0
C283 C 0.96328 0.97928 0.65881 0.0
H284 H 0.52248 0.55461 0.38453 0.0
H285 H 0.2589 0.53239 0.30645 0.0
H286 H 0.57385 0.56507 0.31986 0.0
H287 H 0.31024 0.54021 0.24249 0.0
H288 H 0.40819 0.55572 0.12798 0.0
H289 H 0.36856 0.58133 0.19296 0.0
H290 H 0.59847 0.51191 0.26989 0.0
H291 H 0.63926 0.48876 0.20611 0.0
C292 C 0.47558 0.55216 0.35364 0.0
C293 C 0.38708 0.54185 0.35059 0.0
C294 C 0.50483 0.55811 0.31655 0.0
C295 C 0.44642 0.5529 0.27578 0.0
C296 C 0.3571 0.54519 0.27307 0.0
C297 C 0.32778 0.54003 0.30998 0.0
C298 C 0.45096 0.54705 0.1589 0.0
C299 C 0.52536 0.51917 0.16195 0.0
C300 C 0.42823 0.56145 0.19612 0.0
C301 C 0.47948 0.54801 0.23681 0.0
C302 C 0.55753 0.52339 0.23944 0.0
C303 C 0.58028 0.50938 0.20257 0.0
H304 H 0.64579 0.41818 0.67787 0.0
H305 H 0.41504 0.50333 0.6328 0.0
H306 H 0.61764 0.41412 0.74839 0.0
H307 H 0.38862 0.50114 0.70383 0.0
H308 H 0.3368 0.48527 0.82946 0.0
H309 H 0.35101 0.45997 0.75959 0.0
H310 H 0.6338 0.46701 0.80591 0.0
H311 H 0.61849 0.48984 0.87652 0.0
C312 C 0.58848 0.43573 0.68303 0.0
C313 C 0.53312 0.46164 0.65012 0.0
C314 C 0.57266 0.43358 0.72351 0.0
C315 C 0.50177 0.45785 0.73213 0.0
C316 C 0.44341 0.48152 0.69836 0.0
C317 C 0.45859 0.48307 0.65761 0.0
C318 C 0.40188 0.47986 0.82483 0.0
C319 C 0.47668 0.48954 0.85787 0.0
C320 C 0.41009 0.4659 0.78478 0.0
C321 C 0.49339 0.46253 0.77672 0.0
C322 C 0.56851 0.46892 0.81095 0.0
C323 C 0.56011 0.48204 0.85142 0.0
loop_
_geom_bond_atom_site_label_1
_geom_bond_atom_site_label_2
_geom_bond_distance
_geom_bond_site_symmetry_2
_ccdc_geom_bond_type
O0 Mg1 1.990 . S
O0 C14 1.253 1_546 S
Mg1 O0 1.990 . S
Mg1 O4 2.180 . S
Mg1 O5 2.117 . S
Mg1 O19 2.030 . S
O2 Mg3 2.072 1_665 S
O2 C14 1.260 . S
Mg3 O2 2.072 1_445 S
Mg3 O4 2.099 1_454 S
Mg3 O6 2.079 . S
Mg3 O7 2.072 1_545 S
Mg3 O9 2.099 . S
Mg3 O20 2.079 . S
O4 Mg1 2.180 . S
O4 Mg3 2.099 1_656 S
O4 C15 1.279 . S
O5 Mg1 2.117 . S
O5 C15 1.250 . S
O6 Mg3 2.079 . S
O6 C16 1.264 . S
O7 Mg3 2.072 1_565 S
O7 C17 1.260 . S
Mg8 O9 2.180 1_565 S
Mg8 O10 2.030 . S
Mg8 O11 1.990 . S
Mg8 O12 2.117 . S
O9 Mg3 2.099 . S
O9 Mg8 2.180 1_545 S
O9 C18 1.279 1_545 S
O10 Mg8 2.030 . S
O10 C16 1.248 1_565 S
O11 Mg8 1.990 . S
O11 C17 1.253 . S
O12 Mg8 2.117 . S
O12 C18 1.250 . S
C13 O19 1.248 1_554 S
C13 O20 1.264 1_655 S
C14 O0 1.253 1_564 S
C14 O2 1.260 . S
C15 O4 1.279 . S
C15 O5 1.250 . S
C16 O6 1.264 . S
C16 O10 1.248 1_545 S
C17 O7 1.260 . S
C17 O11 1.253 . S
C18 O9 1.279 1_565 S
C18 O12 1.250 . S
O19 Mg1 2.030 . S
O19 C13 1.248 1_556 S
O20 Mg3 2.079 . S
O20 C13 1.264 1_455 S
O21 Mg22 1.990 . S
O21 C35 1.253 . S
Mg22 O21 1.990 . S
Mg22 O25 2.180 1_565 S
Mg22 O26 2.117 . S
Mg22 O40 2.030 . S
O23 Mg24 2.072 1_565 S
O23 C35 1.260 . S
Mg24 O23 2.072 1_545 S
Mg24 O25 2.099 . S
Mg24 O27 2.079 1_655 S
Mg24 O28 2.072 1_645 S
Mg24 O30 2.099 1_655 S
Mg24 O41 2.079 . S
O25 Mg22 2.180 1_545 S
O25 Mg24 2.099 . S
O25 C36 1.279 1_545 S
O26 Mg22 2.117 . S
O26 C36 1.250 . S
O27 Mg24 2.079 1_455 S
O27 C37 1.264 . S
O28 Mg24 2.072 1_465 S
O28 C38 1.260 . S
Mg29 O30 2.180 . S
Mg29 O31 2.030 . S
Mg29 O32 1.990 . S
Mg29 O33 2.117 . S
O30 Mg24 2.099 1_455 S
O30 Mg29 2.180 . S
O30 C39 1.279 . S
O31 Mg29 2.030 . S
O31 C37 1.248 . S
O32 Mg29 1.990 . S
O32 C38 1.253 1_545 S
O33 Mg29 2.117 . S
O33 C39 1.250 . S
C34 O40 1.248 1_545 S
C34 O41 1.264 . S
C35 O21 1.253 . S
C35 O23 1.260 . S
C36 O25 1.279 1_565 S
C36 O26 1.250 . S
C37 O27 1.264 . S
C37 O31 1.248 . S
C38 O28 1.260 . S
C38 O32 1.253 1_565 S
C39 O30 1.279 . S
C39 O33 1.250 . S
O40 Mg22 2.030 . S
O40 C34 1.248 1_565 S
O41 Mg24 2.079 . S
O41 C34 1.264 . S
O42 Mg43 1.990 . S
O42 C56 1.253 1_556 S
Mg43 O42 1.990 . S
Mg43 O46 2.180 . S
Mg43 O47 2.117 . S
Mg43 O61 2.030 . S
O44 Mg45 2.072 . S
O44 C56 1.260 . S
Mg45 O44 2.072 . S
Mg45 O46 2.099 1_554 S
Mg45 O48 2.079 . S
Mg45 O49 2.072 . S
Mg45 O51 2.099 . S
Mg45 O62 2.079 . S
O46 Mg43 2.180 . S
O46 Mg45 2.099 1_556 S
O46 C57 1.279 . S
O47 Mg43 2.117 . S
O47 C57 1.250 . S
O48 Mg45 2.079 . S
O48 C58 1.264 . S
O49 Mg45 2.072 . S
O49 C59 1.260 . S
Mg50 O51 2.180 . S
Mg50 O52 2.030 . S
Mg50 O53 1.990 . S
Mg50 O54 2.117 . S
O51 Mg45 2.099 . S
O51 Mg50 2.180 . S
O51 C60 1.279 . S
O52 Mg50 2.030 . S
O52 C58 1.248 . S
O53 Mg50 1.990 . S
O53 C59 1.253 . S
O54 Mg50 2.117 . S
O54 C60 1.250 . S
C55 O61 1.248 1_554 S
C55 O62 1.264 . S
C56 O42 1.253 1_554 S
C56 O44 1.260 . S
C57 O46 1.279 . S
C57 O47 1.250 . S
C58 O48 1.264 . S
C58 O52 1.248 . S
C59 O49 1.260 . S
C59 O53 1.253 . S
C60 O51 1.279 . S
C60 O54 1.250 . S
O61 Mg43 2.030 . S
O61 C55 1.248 1_556 S
O62 Mg45 2.079 . S
O62 C55 1.264 . S
O63 Mg64 1.990 . S
O63 C77 1.253 . S
Mg64 O63 1.990 . S
Mg64 O67 2.180 . S
Mg64 O68 2.117 . S
Mg64 O82 2.030 . S
O65 Mg66 2.072 . S
O65 C77 1.260 . S
Mg66 O65 2.072 . S
Mg66 O67 2.099 . S
Mg66 O69 2.079 . S
Mg66 O70 2.072 . S
Mg66 O72 2.099 . S
Mg66 O83 2.079 . S
O67 Mg64 2.180 . S
O67 Mg66 2.099 . S
O67 C78 1.279 . S
O68 Mg64 2.117 . S
O68 C78 1.250 . S
O69 Mg66 2.079 . S
O69 C79 1.264 . S
O70 Mg66 2.072 . S
O70 C80 1.260 . S
Mg71 O72 2.180 . S
Mg71 O73 2.030 . S
Mg71 O74 1.990 . S
Mg71 O75 2.117 . S
O72 Mg66 2.099 . S
O72 Mg71 2.180 . S
O72 C81 1.279 . S
O73 Mg71 2.030 . S
O73 C79 1.248 . S
O74 Mg71 1.990 . S
O74 C80 1.253 . S
O75 Mg71 2.117 . S
O75 C81 1.250 . S
C76 O82 1.248 . S
C76 O83 1.264 . S
C77 O63 1.253 . S
C77 O65 1.260 . S
C78 O67 1.279 . S
C78 O68 1.250 . S
C79 O69 1.264 . S
C79 O73 1.248 . S
C80 O70 1.260 . S
C80 O74 1.253 . S
C81 O72 1.279 . S
C81 O75 1.250 . S
O82 Mg64 2.030 . S
O82 C76 1.248 . S
O83 Mg66 2.079 . S
O83 C76 1.264 . S
H84 C92 0.950 . S
H85 C97 0.950 . S
H86 C94 0.950 . S
H87 C96 0.950 . S
H88 C98 0.950 . S
H89 C100 0.950 . S
H90 C102 0.950 . S
H91 C103 0.950 . S
C92 H84 0.950 . S
C92 C93 1.386 . S
C92 C94 1.391 . S
C93 C92 1.386 . S
C93 C97 1.393 1_554 S
C94 H86 0.950 . S
C94 C92 1.391 . S
C94 C95 1.400 . S
C95 C94 1.400 . S
C95 C96 1.398 1_554 S
C95 C101 1.491 . S
C96 H87 0.950 . S
C96 C95 1.398 1_556 S
C96 C97 1.391 . S
C97 H85 0.950 . S
C97 C93 1.393 1_556 S
C97 C96 1.391 . S
C98 H88 0.950 . S
C98 C99 1.386 1_556 S
C98 C100 1.391 . S
C99 C98 1.386 1_554 S
C99 C103 1.393 . S
C100 H89 0.950 . S
C100 C98 1.391 . S
C100 C101 1.400 1_556 S
C101 C95 1.491 . S
C101 C100 1.400 1_554 S
C101 C102 1.398 . S
C102 H90 0.950 . S
C102 C101 1.398 . S
C102 C103 1.391 . S
C103 H91 0.950 . S
C103 C99 1.393 . S
C103 C102 1.391 . S
H104 C112 0.950 . S
H105 C117 0.950 . S
H106 C114 0.950 . S
H107 C116 0.950 . S
H108 C118 0.950 1_455 S
H109 C120 0.950 . S
H110 C122 0.950 . S
H111 C123 0.949 1_556 S
C112 H104 0.950 . S
C112 C113 1.386 1_556 S
C112 C114 1.391 . S
C113 C112 1.386 1_554 S
C113 C117 1.393 . S
C114 H106 0.950 . S
C114 C112 1.391 . S
C114 C115 1.400 1_556 S
C115 C114 1.400 1_554 S
C115 C116 1.398 . S
C115 C121 1.491 . S
C116 H107 0.950 . S
C116 C115 1.398 . S
C116 C117 1.391 . S
C117 H105 0.950 . S
C117 C113 1.393 . S
C117 C116 1.391 . S
C118 H108 0.950 1_655 S
C118 C119 1.386 . S
C118 C120 1.391 . S
C119 C118 1.386 . S
C119 C123 1.393 . S
C120 H109 0.950 . S
C120 C118 1.391 . S
C120 C121 1.400 . S
C121 C115 1.491 . S
C121 C120 1.400 . S
C121 C122 1.398 1_554 S
C122 H110 0.950 . S
C122 C121 1.398 1_556 S
C122 C123 1.391 1_556 S
C123 H111 0.949 1_554 S
C123 C119 1.393 . S
C123 C122 1.391 1_554 S
H124 C132 0.950 . S
H125 C137 0.950 . S
H126 C134 0.950 . S
H127 C136 0.950 . S
H128 C138 0.950 . S
H129 C140 0.950 . S
H130 C142 0.950 . S
H131 C143 0.950 . S
C132 H124 0.950 . S
C132 C133 1.386 . S
C132 C134 1.391 . S
C133 C132 1.386 . S
C133 C137 1.393 . S
C134 H126 0.950 . S
C134 C132 1.391 . S
C134 C135 1.400 . S
C135 C134 1.400 . S
C135 C136 1.398 . S
C135 C141 1.491 . S
C136 H127 0.950 . S
C136 C135 1.398 . S
C136 C137 1.391 . S
C137 H125 0.950 . S
C137 C133 1.393 . S
C137 C136 1.391 . S
C138 H128 0.950 . S
C138 C139 1.386 . S
C138 C140 1.391 . S
C139 C138 1.386 . S
C139 C143 1.393 . S
C140 H129 0.950 . S
C140 C138 1.391 . S
C140 C141 1.400 . S
C141 C135 1.491 . S
C141 C140 1.400 . S
C141 C142 1.398 . S
C142 H130 0.950 . S
C142 C141 1.398 . S
C142 C143 1.391 . S
C143 H131 0.950 . S
C143 C139 1.393 . S
C143 C142 1.391 . S
H144 C152 0.950 . S
H145 C157 0.950 . S
H146 C154 0.950 . S
H147 C156 0.950 . S
H148 C158 0.950 . S
H149 C160 0.950 . S
H150 C162 0.950 . S
H151 C163 0.950 . S
C152 H144 0.950 . S
C152 C153 1.386 . S
C152 C154 1.391 . S
C153 C152 1.386 . S
C153 C157 1.393 . S
C154 H146 0.950 . S
C154 C152 1.391 . S
C154 C155 1.400 . S
C155 C154 1.400 . S
C155 C156 1.398 . S
C155 C161 1.491 . S
C156 H147 0.950 . S
C156 C155 1.398 . S
C156 C157 1.391 . S
C157 H145 0.950 . S
C157 C153 1.393 . S
C157 C156 1.391 . S
C158 H148 0.950 . S
C158 C159 1.386 . S
C158 C160 1.391 . S
C159 C158 1.386 . S
C159 C163 1.393 . S
C160 H149 0.950 . S
C160 C158 1.391 . S
C160 C161 1.400 . S
C161 C155 1.491 . S
C161 C160 1.400 . S
C161 C162 1.398 . S
C162 H150 0.950 . S
C162 C161 1.398 . S
C162 C163 1.391 . S
C163 H151 0.950 . S
C163 C159 1.393 . S
C163 C162 1.391 . S
H164 C172 0.950 1_565 S
H165 C177 0.950 . S
H166 C174 0.950 . S
H167 C176 0.950 . S
H168 C178 0.950 . S
H169 C180 0.950 . S
H170 C182 0.950 . S
H171 C183 0.950 . S
C172 H164 0.950 1_545 S
C172 C173 1.386 1_556 S
C172 C174 1.391 1_545 S
C173 C172 1.386 1_554 S
C173 C177 1.393 . S
C174 H166 0.950 . S
C174 C172 1.391 1_565 S
C174 C175 1.400 1_566 S
C175 C174 1.400 1_544 S
C175 C176 1.398 . S
C175 C181 1.491 . S
C176 H167 0.950 . S
C176 C175 1.398 . S
C176 C177 1.391 . S
C177 H165 0.950 . S
C177 C173 1.393 . S
C177 C176 1.391 . S
C178 H168 0.950 . S
C178 C179 1.386 1_545 S
C178 C180 1.391 . S
C179 C178 1.386 1_565 S
C179 C183 1.393 1_554 S
C180 H169 0.950 . S
C180 C178 1.391 . S
C180 C181 1.400 . S
C181 C175 1.491 . S
C181 C180 1.400 . S
C181 C182 1.398 1_544 S
C182 H170 0.950 . S
C182 C181 1.398 1_566 S
C182 C183 1.391 . S
C183 H171 0.950 . S
C183 C179 1.393 1_556 S
C183 C182 1.391 . S
H184 C192 0.950 . S
H185 C197 0.950 . S
H186 C194 0.950 . S
H187 C196 0.950 . S
H188 C198 0.950 . S
H189 C200 0.950 . S
H190 C202 0.950 . S
H191 C203 0.950 . S
C192 H184 0.950 . S
C192 C193 1.386 1_545 S
C192 C194 1.391 . S
C193 C192 1.386 1_565 S
C193 C197 1.393 . S
C194 H186 0.950 . S
C194 C192 1.391 . S
C194 C195 1.400 . S
C195 C194 1.400 . S
C195 C196 1.398 1_545 S
C195 C201 1.491 . S
C196 H187 0.950 . S
C196 C195 1.398 1_565 S
C196 C197 1.391 . S
C197 H185 0.950 . S
C197 C193 1.393 . S
C197 C196 1.391 . S
C198 H188 0.950 . S
C198 C199 1.386 1_565 S
C198 C200 1.391 . S
C199 C198 1.386 1_545 S
C199 C203 1.393 . S
C200 H189 0.950 . S
C200 C198 1.391 . S
C200 C201 1.400 1_565 S
C201 C195 1.491 . S
C201 C200 1.400 1_545 S
C201 C202 1.398 . S
C202 H190 0.950 . S
C202 C201 1.398 . S
C202 C203 1.391 . S
C203 H191 0.950 . S
C203 C199 1.393 . S
C203 C202 1.391 . S
H204 C212 0.950 . S
H205 C217 0.950 . S
H206 C214 0.950 1_455 S
H207 C216 0.950 . S
H208 C218 0.950 . S
H209 C220 0.950 . S
H210 C222 0.950 . S
H211 C223 0.950 . S
C212 H204 0.950 . S
C212 C213 1.386 . S
C212 C214 1.391 . S
C213 C212 1.386 . S
C213 C217 1.393 1_554 S
C214 H206 0.950 1_655 S
C214 C212 1.391 . S
C214 C215 1.400 . S
C215 C214 1.400 . S
C215 C216 1.398 1_554 S
C215 C221 1.491 1_655 S
C216 H207 0.950 . S
C216 C215 1.398 1_556 S
C216 C217 1.391 . S
C217 H205 0.950 . S
C217 C213 1.393 1_556 S
C217 C216 1.391 . S
C218 H208 0.950 . S
C218 C219 1.386 1_556 S
C218 C220 1.391 . S
C219 C218 1.386 1_554 S
C219 C223 1.393 . S
C220 H209 0.950 . S
C220 C218 1.391 . S
C220 C221 1.400 1_556 S
C221 C215 1.491 1_455 S
C221 C220 1.400 1_554 S
C221 C222 1.398 . S
C222 H210 0.950 . S
C222 C221 1.398 . S
C222 C223 1.391 . S
C223 H211 0.950 . S
C223 C219 1.393 . S
C223 C222 1.391 . S
H224 C232 0.950 . S
H225 C237 0.950 . S
H226 C234 0.950 . S
H227 C236 0.950 . S
H228 C238 0.950 . S
H229 C240 0.950 . S
H230 C242 0.950 . S
H231 C243 0.950 . S
C232 H224 0.950 . S
C232 C233 1.386 . S
C232 C234 1.391 . S
C233 C232 1.386 . S
C233 C237 1.393 . S
C234 H226 0.950 . S
C234 C232 1.391 . S
C234 C235 1.400 . S
C235 C234 1.400 . S
C235 C236 1.398 . S
C235 C241 1.491 1_455 S
C236 H227 0.950 . S
C236 C235 1.398 . S
C236 C237 1.391 . S
C237 H225 0.950 . S
C237 C233 1.393 . S
C237 C236 1.391 . S
C238 H228 0.950 . S
C238 C239 1.386 . S
C238 C240 1.391 . S
C239 C238 1.386 . S
C239 C243 1.393 . S
C240 H229 0.950 . S
C240 C238 1.391 . S
C240 C241 1.400 . S
C241 C235 1.491 1_655 S
C241 C240 1.400 . S
C241 C242 1.398 . S
C242 H230 0.950 . S
C242 C241 1.398 . S
C242 C243 1.391 . S
C243 H231 0.950 . S
C243 C239 1.393 . S
C243 C242 1.391 . S
H244 C252 0.950 . S
H245 C257 0.950 . S
H246 C254 0.950 . S
H247 C256 0.950 . S
H248 C258 0.950 . S
H249 C260 0.950 . S
H250 C262 0.950 . S
H251 C263 0.950 . S
C252 H244 0.950 . S
C252 C253 1.394 . S
C252 C254 1.391 . S
C253 C252 1.394 . S
C253 C257 1.385 1_465 S
C254 H246 0.950 . S
C254 C252 1.391 . S
C254 C255 1.400 . S
C255 C254 1.400 . S
C255 C256 1.399 1_465 S
C255 C261 1.491 1_565 S
C256 H247 0.950 . S
C256 C255 1.399 1_645 S
C256 C257 1.391 . S
C257 H245 0.950 . S
C257 C253 1.385 1_645 S
C257 C256 1.391 . S
C258 H248 0.950 . S
C258 C259 1.386 1_655 S
C258 C260 1.391 . S
C259 C258 1.386 1_455 S
C259 C263 1.393 1_545 S
C260 H249 0.950 . S
C260 C258 1.391 . S
C260 C261 1.400 1_655 S
C261 C255 1.491 1_545 S
C261 C260 1.400 1_455 S
C261 C262 1.398 1_545 S
C262 H250 0.950 . S
C262 C261 1.398 1_565 S
C262 C263 1.391 . S
C263 H251 0.950 . S
C263 C259 1.393 1_565 S
C263 C262 1.391 . S
H264 C272 0.950 . S
H265 C277 0.950 . S
H266 C274 0.950 . S
H267 C276 0.950 . S
H268 C278 0.950 . S
H269 C280 0.950 . S
H270 C282 0.950 . S
H271 C283 0.950 . S
C272 H264 0.950 . S
C272 C273 1.386 1_545 S
C272 C274 1.391 . S
C273 C272 1.386 1_565 S
C273 C277 1.393 1_455 S
C274 H266 0.950 . S
C274 C272 1.391 . S
C274 C275 1.400 1_545 S
C275 C274 1.400 1_565 S
C275 C276 1.398 1_455 S
C275 C281 1.491 . S
C276 H267 0.950 . S
C276 C275 1.398 1_655 S
C276 C277 1.391 . S
C277 H265 0.950 . S
C277 C273 1.393 1_655 S
C277 C276 1.391 . S
C278 H268 0.950 . S
C278 C279 1.386 1_655 S
C278 C280 1.391 . S
C279 C278 1.386 1_455 S
C279 C283 1.393 1_565 S
C280 H269 0.950 . S
C280 C278 1.391 . S
C280 C281 1.400 1_655 S
C281 C275 1.491 . S
C281 C280 1.400 1_455 S
C281 C282 1.398 1_565 S
C282 H270 0.950 . S
C282 C281 1.398 1_545 S
C282 C283 1.391 . S
C283 H271 0.950 . S
C283 C279 1.393 1_545 S
C283 C282 1.391 . S
H284 C292 0.950 . S
H285 C297 0.950 . S
H286 C294 0.950 . S
H287 C296 0.950 . S
H288 C298 0.950 . S
H289 C300 0.950 . S
H290 C302 0.950 . S
H291 C303 0.950 . S
C292 H284 0.950 . S
C292 C293 1.386 . S
C292 C294 1.391 . S
C293 C292 1.386 . S
C293 C297 1.393 . S
C294 H286 0.950 . S
C294 C292 1.391 . S
C294 C295 1.400 . S
C295 C294 1.400 . S
C295 C296 1.398 . S
C295 C301 1.491 . S
C296 H287 0.950 . S
C296 C295 1.398 . S
C296 C297 1.391 . S
C297 H285 0.950 . S
C297 C293 1.393 . S
C297 C296 1.391 . S
C298 H288 0.950 . S
C298 C299 1.386 . S
C298 C300 1.391 . S
C299 C298 1.386 . S
C299 C303 1.393 . S
C300 H289 0.950 . S
C300 C298 1.391 . S
C300 C301 1.400 . S
C301 C295 1.491 . S
C301 C300 1.400 . S
C301 C302 1.398 . S
C302 H290 0.950 . S
C302 C301 1.398 . S
C302 C303 1.391 . S
C303 H291 0.950 . S
C303 C299 1.393 . S
C303 C302 1.391 . S
H304 C312 0.950 . S
H305 C317 0.950 . S
H306 C314 0.950 . S
H307 C316 0.950 . S
H308 C318 0.950 . S
H309 C320 0.950 . S
H310 C322 0.950 . S
H311 C323 0.950 . S
C312 H304 0.950 . S
C312 C313 1.386 . S
C312 C314 1.391 . S
C313 C312 1.386 . S
C313 C317 1.393 . S
C314 H306 0.950 . S
C314 C312 1.391 . S
C314 C315 1.400 . S
C315 C314 1.400 . S
C315 C316 1.398 . S
C315 C321 1.491 . S
C316 H307 0.950 . S
C316 C315 1.398 . S
C316 C317 1.391 . S
C317 H305 0.950 . S
C317 C313 1.393 . S
C317 C316 1.391 . S
C318 H308 0.950 . S
C318 C319 1.386 . S
C318 C320 1.391 . S
C319 C318 1.386 . S
C319 C323 1.393 . S
C320 H309 0.950 . S
C320 C318 1.391 . S
C320 C321 1.400 . S
C321 C315 1.491 . S
C321 C320 1.400 . S
C321 C322 1.398 . S
C322 H310 0.950 . S
C322 C321 1.398 . S
C322 C323 1.391 . S
C323 H311 0.950 . S
C323 C319 1.393 . S
C323 C322 1.391 . S
C93 C55 1.480 . S
C99 C17 1.488 . S
C113 C59 1.479 . S
C119 C13 1.466 . S
C133 C37 1.448 . S
C139 C77 1.461 . S
C153 C35 1.456 . S
C159 C79 1.448 . S
C173 C16 0.950 . S
C179 C14 0.952 . S
C193 C38 0.931 . S
C199 C34 0.932 . S
C213 C58 0.908 . S
C219 C56 0.923 . S
C233 C76 0.932 . S
C239 C80 0.945 . S
C253 C36 1.271 1_455 S
C259 C18 1.287 1_545 S
C273 C15 1.332 1_465 S
C279 C39 1.322 1_565 S
C293 C78 1.298 . S
C299 C60 1.315 . S
C313 C81 1.295 . S
C319 C57 1.322 . S
