# Generated by pormake.
# Topology unb, (4)-cn, num edge types: 1
# Building blocks:
#     Node 0, Type 0, BuildingBlock: QUQFOY_clean_sbu_1, # of connection points: 4
#     Node 1, Type 0, BuildingBlock: QUQFOY_clean_sbu_1, # of connection points: 4
#     Node 2, Type 0, BuildingBlock: QUQFOY_clean_sbu_1, # of connection points: 4
#     Node 3, Type 0, BuildingBlock: QUQFOY_clean_sbu_1, # of connection points: 4
#     Node 4, Type 0, BuildingBlock: QUQFOY_clean_sbu_1, # of connection points: 4
#     Node 5, Type 0, BuildingBlock: QUQFOY_clean_sbu_1, # of connection points: 4
#     Node 6, Type 0, BuildingBlock: QUQFOY_clean_sbu_1, # of connection points: 4
#     Node 7, Type 0, BuildingBlock: QUQFOY_clean_sbu_1, # of connection points: 4
#     Node 8, Type 0, BuildingBlock: QUQFOY_clean_sbu_1, # of connection points: 4
#     Node 9, Type 0, BuildingBlock: QUQFOY_clean_sbu_1, # of connection points: 4
#     Node 10, Type 0, BuildingBlock: QUQFOY_clean_sbu_1, # of connection points: 4
#     Node 11, Type 0, BuildingBlock: QUQFOY_clean_sbu_1, # of connection points: 4
#     Node 12, Type 0, BuildingBlock: QUQFOY_clean_sbu_1, # of connection points: 4
#     Node 13, Type 0, BuildingBlock: QUQFOY_clean_sbu_1, # of connection points: 4
#     Node 14, Type 0, BuildingBlock: QUQFOY_clean_sbu_1, # of connection points: 4
#     Node 15, Type 0, BuildingBlock: QUQFOY_clean_sbu_1, # of connection points: 4
#     Node 16, Type 0, BuildingBlock: QUQFOY_clean_sbu_1, # of connection points: 4
#     Node 17, Type 0, BuildingBlock: QUQFOY_clean_sbu_1, # of connection points: 4
#     Edge 18, Type (0, 0), BuildingBlock: AJUNOK_clean_linker_0, # of connection points: 2
#     Edge 19, Type (0, 0), BuildingBlock: AJUNOK_clean_linker_0, # of connection points: 2
#     Edge 20, Type (0, 0), BuildingBlock: AJUNOK_clean_linker_0, # of connection points: 2
#     Edge 21, Type (0, 0), BuildingBlock: AJUNOK_clean_linker_0, # of connection points: 2
#     Edge 22, Type (0, 0), BuildingBlock: AJUNOK_clean_linker_0, # of connection points: 2
#     Edge 23, Type (0, 0), BuildingBlock: AJUNOK_clean_linker_0, # of connection points: 2
#     Edge 24, Type (0, 0), BuildingBlock: AJUNOK_clean_linker_0, # of connection points: 2
#     Edge 25, Type (0, 0), BuildingBlock: AJUNOK_clean_linker_0, # of connection points: 2
#     Edge 26, Type (0, 0), BuildingBlock: AJUNOK_clean_linker_0, # of connection points: 2
#     Edge 27, Type (0, 0), BuildingBlock: AJUNOK_clean_linker_0, # of connection points: 2
#     Edge 28, Type (0, 0), BuildingBlock: AJUNOK_clean_linker_0, # of connection points: 2
#     Edge 29, Type (0, 0), BuildingBlock: AJUNOK_clean_linker_0, # of connection points: 2
#     Edge 30, Type (0, 0), BuildingBlock: AJUNOK_clean_linker_0, # of connection points: 2
#     Edge 31, Type (0, 0), BuildingBlock: AJUNOK_clean_linker_0, # of connection points: 2
#     Edge 32, Type (0, 0), BuildingBlock: AJUNOK_clean_linker_0, # of connection points: 2
#     Edge 33, Type (0, 0), BuildingBlock: AJUNOK_clean_linker_0, # of connection points: 2
#     Edge 34, Type (0, 0), BuildingBlock: AJUNOK_clean_linker_0, # of connection points: 2
#     Edge 35, Type (0, 0), BuildingBlock: AJUNOK_clean_linker_0, # of connection points: 2
#     Edge 36, Type (0, 0), BuildingBlock: AJUNOK_clean_linker_0, # of connection points: 2
#     Edge 37, Type (0, 0), BuildingBlock: AJUNOK_clean_linker_0, # of connection points: 2
#     Edge 38, Type (0, 0), BuildingBlock: AJUNOK_clean_linker_0, # of connection points: 2
#     Edge 39, Type (0, 0), BuildingBlock: AJUNOK_clean_linker_0, # of connection points: 2
#     Edge 40, Type (0, 0), BuildingBlock: AJUNOK_clean_linker_0, # of connection points: 2
#     Edge 41, Type (0, 0), BuildingBlock: AJUNOK_clean_linker_0, # of connection points: 2
#     Edge 42, Type (0, 0), BuildingBlock: AJUNOK_clean_linker_0, # of connection points: 2
#     Edge 43, Type (0, 0), BuildingBlock: AJUNOK_clean_linker_0, # of connection points: 2
#     Edge 44, Type (0, 0), BuildingBlock: AJUNOK_clean_linker_0, # of connection points: 2
#     Edge 45, Type (0, 0), BuildingBlock: AJUNOK_clean_linker_0, # of connection points: 2
#     Edge 46, Type (0, 0), BuildingBlock: AJUNOK_clean_linker_0, # of connection points: 2
#     Edge 47, Type (0, 0), BuildingBlock: AJUNOK_clean_linker_0, # of connection points: 2
#     Edge 48, Type (0, 0), BuildingBlock: AJUNOK_clean_linker_0, # of connection points: 2
#     Edge 49, Type (0, 0), BuildingBlock: AJUNOK_clean_linker_0, # of connection points: 2
#     Edge 50, Type (0, 0), BuildingBlock: AJUNOK_clean_linker_0, # of connection points: 2
#     Edge 51, Type (0, 0), BuildingBlock: AJUNOK_clean_linker_0, # of connection points: 2
#     Edge 52, Type (0, 0), BuildingBlock: AJUNOK_clean_linker_0, # of connection points: 2
#     Edge 53, Type (0, 0), BuildingBlock: AJUNOK_clean_linker_0, # of connection points: 2
# Relax obj value: 0.075
# Max RMSD: 0.094
# Mean RMSD: 0.094
data_MOF--net-unb--node1-QUQFOY_clean_sbu_1--edge1-AJUNOK_clean_linker_0
_symmetry_space_group_name_H-M    P1
_symmetry_Int_Tables_number       1
_symmetry_cell_setting            triclinic
loop_
_symmetry_equiv_pos_as_xyz
'x, y, z'
_cell_length_a     50.094531
_cell_length_b     49.8558
_cell_length_c     20.305818
_cell_angle_alpha  90.481562
_cell_angle_beta   89.531707
_cell_angle_gamma 120.93071
loop_
_atom_site_label
_atom_site_type_symbol
_atom_site_fract_x
_atom_site_fract_y
_atom_site_fract_z
_atom_type_partial_charge
O0 O 0.15179 0.24132 0.11318 0.0
Cd1 Cd 0.13517 0.27072 0.13512 0.0
Cd2 Cd 0.08396 0.2216 0.06989 0.0
O3 O 0.10832 0.19941 0.08079 0.0
O4 O 0.16427 0.29956 0.20404 0.0
O5 O 0.11357 0.26954 0.22066 0.0
C6 C 0.14069 0.28996 0.24304 0.0
C7 C 0.03006 0.19062 0.05593 0.0
C8 C 0.13721 0.21314 0.09289 0.0
C9 C 0.12199 0.28515 1.00364 0.0
O10 O 0.10179 0.25624 1.00135 0.0
O11 O 0.13704 0.29745 0.05633 0.0
O12 O 0.04929 0.19006 1.01473 0.0
O13 O 0.0414 0.20756 0.10822 0.0
O14 O 0.72478 0.91958 0.14869 0.0
Cd15 Cd 0.68883 0.87533 0.17077 0.0
Cd16 Cd 0.72069 0.85432 0.09424 0.0
O17 O 0.73952 0.90031 0.06747 0.0
O18 O 0.66236 0.87703 0.24292 0.0
O19 O 0.68884 0.85277 0.25274 0.0
C20 C 0.67021 0.8608 0.27822 0.0
C21 C 0.75443 0.83568 0.07546 0.0
C22 C 0.74029 0.92343 0.09608 0.0
C23 C 0.65864 0.8341 0.05319 0.0
O24 O 0.67666 0.82378 0.06261 0.0
O25 O 0.66044 0.85567 0.08993 0.0
O26 O 0.74259 0.84288 1.02799 0.0
O27 O 0.74726 0.83921 0.13475 0.0
O28 O 0.04647 0.80005 0.11092 0.0
Cd29 Cd 0.09091 0.81009 0.12998 0.0
Cd30 Cd 0.10687 0.86759 0.07172 0.0
O31 O 0.05941 0.84474 0.06312 0.0
O32 O 0.08662 0.77956 0.19864 0.0
O33 O 0.11423 0.83079 0.2138 0.0
C34 C 0.10377 0.803 0.23671 0.0
C35 C 0.13147 0.92206 0.06664 0.0
C36 C 0.03891 0.81729 0.08038 0.0
C37 C 0.12636 0.82614 1.0041 0.0
O38 O 0.12853 0.85248 1.00954 0.0
O39 O 0.11194 0.80495 0.04697 0.0
O40 O 0.11648 0.90447 1.01773 0.0
O41 O 0.13186 0.90872 0.12045 0.0
O42 O 0.23547 0.1766 0.97186 0.0
Cd43 Cd 0.26967 0.16641 0.94883 0.0
Cd44 Cd 0.22575 0.11036 1.0142 0.0
O45 O 0.19945 0.13071 1.01051 0.0
O46 O 0.2955 0.19722 0.87906 0.0
O47 O 0.27108 0.1461 0.86301 0.0
C48 C 0.28845 0.174 0.84003 0.0
C49 C 0.19765 0.05614 1.0273 0.0
C50 C 0.20848 0.1588 0.99603 0.0
C51 C 0.28885 0.15436 0.07733 0.0
O52 O 0.26186 0.13024 0.07853 0.0
O53 O 0.29823 0.17204 1.02716 0.0
O54 O 0.19808 0.07465 0.07196 0.0
O55 O 0.21238 0.06829 0.97305 0.0
O56 O 0.78985 0.04857 0.91651 0.0
Cd57 Cd 0.79262 0.09043 0.89703 0.0
Cd58 Cd 0.84604 0.11455 0.97531 0.0
O59 O 0.81914 0.06879 1.00459 0.0
O60 O 0.76231 0.08229 0.8248 0.0
O61 O 0.81275 0.1163 0.81544 0.0
C62 C 0.78535 0.10247 0.78938 0.0
C63 C 0.89898 0.13533 0.99488 0.0
C64 C 0.79965 0.04512 0.97153 0.0
C65 C 0.80189 0.13135 1.01253 0.0
O66 O 0.83035 0.14404 0.99716 0.0
O67 O 0.78188 0.10759 0.98024 0.0
O68 O 0.87957 0.12939 0.04215 0.0
O69 O 0.88837 0.12978 0.93552 0.0
O70 O 0.90107 0.73227 0.95283 0.0
Cd71 Cd 0.85465 0.70163 0.93135 0.0
Cd72 Cd 0.85209 0.75015 0.99761 0.0
O73 O 0.89907 0.77365 0.98432 0.0
O74 O 0.85559 0.67312 0.86255 0.0
O75 O 0.8341 0.70165 0.84581 0.0
C76 C 0.84133 0.68183 0.82353 0.0
C77 C 0.82905 0.78028 1.01376 0.0
C78 C 0.9146 0.76056 0.97236 0.0
C79 C 0.82695 0.6869 0.06409 0.0
O80 O 0.83564 0.71565 0.06647 0.0
O81 O 0.82956 0.67474 1.01095 0.0
O82 O 0.84902 0.78113 0.05411 0.0
O83 O 0.82324 0.76343 0.96128 0.0
O84 O 0.8298 0.58304 0.43115 0.0
Cd85 Cd 0.81327 0.61302 0.44804 0.0
Cd86 Cd 0.76235 0.56289 0.39495 0.0
O87 O 0.78514 0.53972 0.41274 0.0
O88 O 0.84236 0.644 0.51428 0.0
O89 O 0.79193 0.61304 0.53304 0.0
C90 C 0.81899 0.63448 0.55391 0.0
C91 C 0.70825 0.5358 0.39573 0.0
C92 C 0.81444 0.55382 0.41929 0.0
C93 C 0.79778 0.62142 0.31367 0.0
O94 O 0.7787 0.59229 0.31641 0.0
O95 O 0.8126 0.6364 0.36489 0.0
O96 O 0.72361 0.52966 0.35347 0.0
O97 O 0.72367 0.55613 0.44115 0.0
O98 O 0.38524 0.25983 0.44568 0.0
Cd99 Cd 0.35766 0.21243 0.46458 0.0
Cd100 Cd 0.40874 0.21757 0.41293 0.0
O101 O 0.43035 0.26251 0.44617 0.0
O102 O 0.32482 0.20884 0.52678 0.0
O103 O 0.35783 0.19364 0.55247 0.0
C104 C 0.33523 0.19765 0.56986 0.0
C105 C 0.43392 0.18963 0.40726 0.0
C106 C 0.41479 0.27602 0.44357 0.0
C107 C 0.35305 0.19298 0.32794 0.0
O108 O 0.38245 0.2091 0.33065 0.0
O109 O 0.33695 0.18624 0.38065 0.0
O110 O 0.444 0.21515 0.37499 0.0
O111 O 0.41076 0.18104 0.44721 0.0
O112 O 0.69923 0.11467 0.39937 0.0
Cd113 Cd 0.74491 0.1271 0.41287 0.0
Cd114 Cd 0.75687 0.18524 0.36739 0.0
O115 O 0.70935 0.16115 0.36771 0.0
O116 O 0.74517 0.09821 0.48046 0.0
O117 O 0.76834 0.14936 0.49553 0.0
C118 C 0.76084 0.12221 0.51836 0.0
C119 C 0.77988 0.23966 0.3706 0.0
C120 C 0.68996 0.13257 0.37914 0.0
C121 C 0.77752 0.14826 0.28402 0.0
O122 O 0.77666 0.17285 0.29469 0.0
O123 O 0.76652 0.12621 0.32592 0.0
O124 O 0.76339 0.22323 0.32177 0.0
O125 O 0.78275 0.22513 0.41973 0.0
O126 O 0.90149 0.49878 0.31278 0.0
Cd127 Cd 0.92874 0.48001 0.28836 0.0
Cd128 Cd 0.87841 0.42866 0.34703 0.0
O129 O 0.85888 0.45584 0.34455 0.0
O130 O 0.9576 0.50799 0.21829 0.0
O131 O 0.9247 0.45734 0.20275 0.0
C132 C 0.94599 0.484 0.17958 0.0
C133 C 0.84571 0.3746 0.3494 0.0
C134 C 0.87367 0.48507 0.33424 0.0
C135 C 0.94143 0.46103 0.41512 0.0
O136 O 0.91247 0.44159 0.41495 0.0
O137 O 0.95444 0.47853 0.36559 0.0
O138 O 0.84609 0.39206 0.39659 0.0
O139 O 0.86249 0.38798 0.29792 0.0
O140 O 0.46165 0.40334 0.27563 0.0
Cd141 Cd 0.46914 0.44697 0.2556 0.0
Cd142 Cd 0.52446 0.46797 0.32888 0.0
O143 O 0.49768 0.42148 0.35272 0.0
O144 O 0.43911 0.44137 0.18472 0.0
O145 O 0.49009 0.47189 0.17351 0.0
C146 C 0.46261 0.46015 0.14858 0.0
C147 C 0.57728 0.48761 0.34844 0.0
C148 C 0.47451 0.39875 0.32449 0.0
C149 C 0.4817 0.48688 0.375 0.0
O150 O 0.51017 0.49719 0.36297 0.0
O151 O 0.46085 0.46562 0.33891 0.0
O152 O 0.55751 0.47958 0.39561 0.0
O153 O 0.56712 0.48448 0.28902 0.0
O154 O 0.54279 0.04872 0.3019 0.0
Cd155 Cd 0.49565 0.02626 0.28176 0.0
Cd156 Cd 0.50496 0.07997 0.33077 0.0
O157 O 0.54914 0.09566 0.29848 0.0
O158 O 0.48539 -0.00817 0.21749 0.0
O159 O 0.4826 0.03364 0.19374 0.0
C160 C 0.47991 0.0075 0.17501 0.0
C161 C 0.48643 0.11399 0.3369 0.0
C162 C 0.56068 0.07827 0.30166 0.0
C163 C 0.47303 0.02367 0.41498 0.0
O164 O 0.49164 0.05295 0.4131 0.0
O165 O 0.46668 0.00754 0.36246 0.0
O166 O 0.51036 0.11901 0.36979 0.0
O167 O 0.47402 0.09062 0.29645 0.0
O168 O 0.4933 0.93169 0.77063 0.0
Cd169 Cd 0.46882 0.95381 0.79276 0.0
Cd170 Cd 0.4204 0.89968 0.73593 0.0
O171 O 0.45206 0.88598 0.74607 0.0
O172 O 0.49076 -0.01465 0.86386 0.0
O173 O 0.44407 0.94307 0.87687 0.0
C174 C 0.4671 0.96838 0.90137 0.0
C175 C 0.36829 0.86074 0.72615 0.0
C176 C 0.48121 0.90306 0.75448 0.0
C177 C 0.44559 0.96179 0.66612 0.0
O178 O 0.42953 0.93225 0.66599 0.0
O179 O 0.46217 0.97636 0.7157 0.0
O180 O 0.38861 0.86403 0.68311 0.0
O181 O 0.37788 0.87813 0.77822 0.0
O182 O 0.033 0.56479 0.77727 0.0
Cd183 Cd 0.00744 0.51769 0.80025 0.0
Cd184 Cd 0.05884 0.52353 0.75211 0.0
O185 O 0.07864 0.5689 0.78116 0.0
O186 O -0.02456 0.51324 0.86548 0.0
O187 O 0.01114 0.50096 0.88752 0.0
C188 C -0.01213 0.50345 0.90704 0.0
C189 C 0.08802 0.49969 0.74917 0.0
C190 C 0.06249 0.58165 0.77544 0.0
C191 C 0.00286 0.49458 0.66736 0.0
O192 O 0.0322 0.51184 0.66945 0.0
O193 O -0.01323 0.489 0.7197 0.0
O194 O 0.09568 0.52411 0.71476 0.0
O195 O 0.06475 0.48973 0.78927 0.0
O196 O 0.37905 0.47405 0.75549 0.0
Cd197 Cd 0.4251 0.48909 0.7729 0.0
Cd198 Cd 0.43265 0.54411 0.71499 0.0
O199 O 0.38512 0.51757 0.71366 0.0
O200 O 0.42449 0.45951 0.83995 0.0
O201 O 0.44718 0.5104 0.85759 0.0
C202 C 0.4396 0.48304 0.87916 0.0
C203 C 0.45456 0.59829 0.71211 0.0
C204 C 0.36769 0.48908 0.72938 0.0
C205 C 0.457 0.50739 0.6429 0.0
O206 O 0.45408 0.53107 0.64757 0.0
O207 O 0.44775 0.48732 0.68887 0.0
O208 O 0.43849 0.58064 0.66413 0.0
O209 O 0.45704 0.5851 0.76419 0.0
O210 O 0.58145 0.86015 0.67001 0.0
Cd211 Cd 0.60873 0.84073 0.65525 0.0
Cd212 Cd 0.55729 0.78721 0.70171 0.0
O213 O 0.53891 0.81545 0.69421 0.0
O214 O 0.64137 0.86499 0.58734 0.0
O215 O 0.60268 0.8162 0.57191 0.0
C216 C 0.62702 0.84089 0.54914 0.0
C217 C 0.52312 0.73335 0.69385 0.0
C218 C 0.55276 0.84482 0.68543 0.0
C219 C 0.61498 0.81823 0.78564 0.0
O220 O 0.58684 0.79691 0.77846 0.0
O221 O 0.62953 0.83789 0.74013 0.0
O222 O 0.52147 0.74952 0.74147 0.0
O223 O 0.54331 0.74802 0.64788 0.0
O224 O 0.11142 0.71751 0.63424 0.0
Cd225 Cd 0.12783 0.76376 0.61407 0.0
Cd226 Cd 0.18243 0.7716 0.67243 0.0
O227 O 0.15415 0.72416 0.68029 0.0
O228 O 0.09949 0.76385 0.54534 0.0
O229 O 0.15018 0.7852 0.52983 0.0
C230 C 0.12337 0.77838 0.50702 0.0
C231 C 0.23578 0.79022 0.67881 0.0
C232 C 0.12581 0.70657 0.66454 0.0
C233 C 0.14789 0.79922 0.74001 0.0
O234 O 0.17177 0.79683 0.73513 0.0
O235 O 0.12669 0.7876 0.69654 0.0
O236 O 0.21719 0.7759 0.7268 0.0
O237 O 0.22394 0.79291 0.62492 0.0
O238 O 0.22629 0.38961 0.63412 0.0
Cd239 Cd 0.17939 0.35861 0.61809 0.0
Cd240 Cd 0.17839 0.40797 0.67168 0.0
O241 O 0.2236 0.43212 0.64167 0.0
O242 O 0.17777 0.32782 0.55228 0.0
O243 O 0.15804 0.35786 0.53355 0.0
C244 C 0.16389 0.33681 0.51276 0.0
C245 C 0.15287 0.43559 0.68269 0.0
C246 C 0.23969 0.41917 0.63928 0.0
C247 C 0.1574 0.35077 0.75408 0.0
O248 O 0.16897 0.38006 0.75177 0.0
O249 O 0.15498 0.33545 0.70177 0.0
O250 O 0.17735 0.44293 0.71601 0.0
O251 O 0.14343 0.41334 0.63981 0.0
C252 C 0.1773 0.31762 0.41135 0.0
C253 C 0.15671 0.32446 0.44447 0.0
C254 C 0.17194 0.30675 0.3461 0.0
C255 C 0.14527 0.30134 0.31203 0.0
H256 H 0.19812 0.3213 0.4356 0.0
H257 H 0.18868 0.3022 0.32239 0.0
S258 S 0.08367 0.31475 0.37693 0.0
N259 N 0.1086 0.32509 0.4383 0.0
N260 N 0.09781 0.30329 0.31636 0.0
C261 C 0.12415 0.3075 0.34484 0.0
C262 C 0.13008 0.31947 0.41084 0.0
C263 C 0.66925 0.8571 0.46477 0.0
C264 C 0.63733 0.84253 0.48 0.0
C265 C 0.6797 0.86149 0.39906 0.0
C266 C 0.65864 0.85249 0.34655 0.0
H267 H 0.68628 0.86544 0.50394 0.0
H268 H 0.70448 0.8732 0.38932 0.0
S269 S 0.5728 0.81316 0.35992 0.0
N270 N 0.58476 0.81814 0.43706 0.0
N271 N 0.60453 0.82788 0.31381 0.0
C272 C 0.62671 0.83764 0.36107 0.0
C273 C 0.61601 0.83224 0.42779 0.0
C274 C 0.09171 0.76538 0.40462 0.0
C275 C 0.11949 0.78561 0.4382 0.0
C276 C 0.08718 0.77106 0.33932 0.0
C277 C 0.10986 0.7977 0.30543 0.0
H278 H 0.07342 0.74465 0.42867 0.0
H279 H 0.06545 0.75465 0.31554 0.0
S280 S 0.18652 0.85836 0.37134 0.0
N281 N 0.17017 0.83331 0.4325 0.0
N282 N 0.16113 0.84466 0.31046 0.0
C283 C 0.13762 0.81838 0.33858 0.0
C284 C 0.14259 0.81214 0.40471 0.0
C285 C 0.32061 0.16634 0.67455 0.0
C286 C 0.32256 0.19119 0.63805 0.0
C287 C 0.30878 0.16029 0.73941 0.0
C288 C 0.29951 0.17954 0.77067 0.0
H289 H 0.32797 0.15129 0.65264 0.0
H290 H 0.30757 0.14088 0.76574 0.0
S291 S 0.30027 0.24774 0.69683 0.0
N292 N 0.31386 0.23488 0.63797 0.0
N293 N 0.29288 0.22427 0.76003 0.0
C294 C 0.30155 0.20452 0.73479 0.0
C295 C 0.31273 0.21014 0.66845 0.0
C296 C 0.74954 0.08938 0.61905 0.0
C297 C 0.76838 0.11812 0.587 0.0
C298 C 0.75512 0.0848 0.68444 0.0
C299 C 0.78024 0.10849 0.72028 0.0
H300 H 0.72988 0.07031 0.5938 0.0
H301 H 0.73974 0.06229 0.70685 0.0
S302 S 0.83696 0.18799 0.65914 0.0
N303 N 0.81325 0.17077 0.5964 0.0
N304 N 0.82432 0.16181 0.71865 0.0
C305 C 0.79958 0.13724 0.68869 0.0
C306 C 0.79347 0.14216 0.62236 0.0
C307 C 0.85658 0.66541 0.72049 0.0
C308 C 0.83481 0.67018 0.75464 0.0
C309 C 0.85139 0.65442 0.6553 0.0
C310 C 0.82377 0.64679 0.62228 0.0
H311 H 0.87806 0.67061 0.74408 0.0
H312 H 0.86895 0.6513 0.63099 0.0
S313 S 0.75905 0.65452 0.69006 0.0
N314 N 0.78466 0.66671 0.75046 0.0
N315 N 0.77425 0.64468 0.6287 0.0
C316 C 0.80159 0.65109 0.65602 0.0
C317 C 0.80731 0.66319 0.72194 0.0
C318 C 0.95981 0.51339 0.07414 0.0
C319 C 0.95607 0.48766 0.10993 0.0
C320 C -0.03053 0.51782 1.0081 0.0
C321 C -0.02321 0.49728 0.97609 0.0
H322 H 0.95486 0.53007 0.09716 0.0
H323 H -0.02814 0.53789 0.98231 0.0
S324 S -0.02866 0.42658 0.04832 0.0
N325 N 0.96002 0.4411 0.10848 0.0
N326 N -0.02025 0.45032 0.98505 0.0
C327 C -0.02649 0.47164 1.01147 0.0
C328 C 0.96268 0.46656 0.07822 0.0
C329 C 0.43191 0.44428 0.04429 0.0
C330 C 0.45783 0.46694 0.07995 0.0
C331 C 0.42663 0.44962 0.97925 0.0
C332 C 0.44657 0.47818 0.9476 0.0
H333 H 0.4157 0.42197 0.06651 0.0
H334 H 0.40639 0.43133 0.95393 0.0
S335 S 0.51754 0.54548 1.01949 0.0
N336 N 0.50384 0.51906 0.07859 0.0
N337 N 0.49329 0.52953 0.95705 0.0
C338 C 0.47243 0.50122 0.98283 0.0
C339 C 0.47824 0.49547 0.04871 0.0
C340 C 0.48531 0.01892 0.05452 0.0
C341 C 0.47315 -0.00314 0.10561 0.0
C342 C 0.48274 0.00944 0.98844 0.0
C343 C 0.46714 0.97757 0.97091 0.0
H344 H 0.49809 0.04371 0.06578 0.0
H345 H 0.49336 0.02724 0.9508 0.0
S346 S 0.42922 0.91058 0.0859 0.0
N347 N 0.44392 0.94175 0.1342 0.0
N348 N 0.43808 0.92395 1.00984 0.0
C349 C 0.45365 0.95528 1.02132 0.0
C350 C 0.45695 0.96493 0.08872 0.0
C351 C 0.11879 0.28688 0.8815 0.0
C352 C 0.12971 0.30316 0.94174 0.0
C353 C 0.1277 0.30244 0.8212 0.0
C354 C 0.14759 0.33497 0.81857 0.0
H355 H 0.10378 0.26167 0.88047 0.0
H356 H 0.11901 0.28878 0.77635 0.0
S357 S 0.1816 0.38884 0.962 0.0
N358 N 0.16072 0.3538 0.99497 0.0
N359 N 0.17736 0.3833 0.88161 0.0
C360 C 0.15807 0.35175 0.87843 0.0
C361 C 0.14918 0.3358 0.93997 0.0
C362 C 0.62154 0.79666 0.89045 0.0
C363 C 0.62839 0.82277 0.85179 0.0
C364 C 0.63045 0.80018 0.95673 0.0
C365 C 0.64524 0.82976 0.98706 0.0
H366 H 0.60924 0.77337 0.86921 0.0
H367 H 0.62574 0.77971 0.98444 0.0
S368 S 0.66801 0.9054 0.90729 0.0
N369 N 0.65099 0.87907 0.84831 0.0
N370 N 0.66691 0.8857 0.97322 0.0
C371 C 0.65196 0.856 0.94897 0.0
C372 C 0.64375 0.8525 0.88119 0.0
C373 C 0.11061 0.79253 0.9049 0.0
C374 C 0.13397 0.81842 0.9395 0.0
C375 C 0.11445 0.78787 0.83826 0.0
C376 C 0.14201 0.80863 0.80452 0.0
H377 H 0.08879 0.77635 0.92888 0.0
H378 H 0.09617 0.76729 0.81364 0.0
S379 S 0.2102 0.87969 0.87322 0.0
N380 N 0.18521 0.86536 0.9352 0.0
N381 N 0.19321 0.85556 0.81054 0.0
C382 C 0.16567 0.83437 0.83875 0.0
C383 C 0.16144 0.83955 0.90612 0.0
C384 C 0.30751 0.15715 0.25847 0.0
C385 C 0.33796 0.18276 0.26293 0.0
C386 C 0.29254 0.14745 0.1977 0.0
C387 C 0.30722 0.16325 0.13887 0.0
H388 H 0.29505 0.14451 0.30227 0.0
H389 H 0.26882 0.12784 0.19747 0.0
S390 S 0.38748 0.23134 0.12375 0.0
N391 N 0.38288 0.22337 0.2032 0.0
N392 N 0.35441 0.20525 0.08894 0.0
C393 C 0.33795 0.18856 0.14243 0.0
C394 C 0.35338 0.19828 0.20442 0.0
C395 C 0.7723 0.11149 0.1177 0.0
C396 C 0.79437 0.13697 0.07984 0.0
C397 C 0.76846 0.11481 0.18515 0.0
C398 C 0.78622 0.14384 0.21699 0.0
H399 H 0.75847 0.08853 0.09556 0.0
H400 H 0.75075 0.09475 0.21201 0.0
S401 S 0.84714 0.21776 0.1404 0.0
N402 N 0.83453 0.19202 0.07951 0.0
N403 N 0.82671 0.19851 0.20591 0.0
C404 C 0.8083 0.1695 0.17975 0.0
C405 C 0.8125 0.16602 0.11134 0.0
C406 C 0.82336 0.68534 0.18671 0.0
C407 C 0.81693 0.66899 0.12628 0.0
C408 C 0.81694 0.66982 0.24701 0.0
C409 C 0.8034 0.63728 0.24944 0.0
H410 H 0.83427 0.71056 0.18779 0.0
H411 H 0.82277 0.6835 0.29199 0.0
S412 S 0.78071 0.58327 0.10559 0.0
N413 N 0.79544 0.61829 0.07279 0.0
N414 N 0.78295 0.58888 0.18606 0.0
C415 C 0.79605 0.62045 0.18944 0.0
C416 C 0.80292 0.63635 0.12793 0.0
C417 C -0.01118 0.49192 0.48421 0.0
C418 C 0.95861 0.46594 0.4773 0.0
C419 C 0.00326 0.50032 0.54574 0.0
C420 C -0.01207 0.48324 0.60275 0.0
H421 H 0.00094 0.50671 0.44245 0.0
H422 H 0.02614 0.52117 0.54898 0.0
S423 S 0.91074 0.41047 0.61004 0.0
N424 N 0.91539 0.42083 0.53188 0.0
N425 N 0.94254 0.43734 0.64762 0.0
C426 C 0.95854 0.45623 0.59616 0.0
C427 C 0.94393 0.44735 0.53337 0.0
C428 C 0.48688 0.52618 0.53815 0.0
C429 C 0.46563 0.50101 0.5777 0.0
C430 C 0.49124 0.52173 0.47161 0.0
C431 C 0.47369 0.49219 0.44179 0.0
H432 H 0.49998 0.54957 0.55868 0.0
H433 H 0.50838 0.54153 0.44322 0.0
S434 S 0.41552 0.41855 0.52411 0.0
N435 N 0.42742 0.4454 0.58268 0.0
N436 N 0.43511 0.43709 0.45728 0.0
C437 C 0.45246 0.46679 0.48085 0.0
C438 C 0.44862 0.47117 0.54895 0.0
C439 C 0.47087 0.01024 0.59827 0.0
C440 C 0.44792 0.97851 0.60451 0.0
C441 C 0.47764 0.02499 0.53708 0.0
C442 C 0.46189 0.00856 0.47971 0.0
H443 H 0.48482 0.02344 0.64015 0.0
H444 H 0.49653 0.04911 0.53446 0.0
S445 S 0.39583 0.92672 0.47143 0.0
N446 N 0.40627 0.93228 0.54955 0.0
N447 N 0.41959 0.96012 0.43436 0.0
C448 C 0.43733 0.97752 0.48595 0.0
C449 C 0.43017 0.96251 0.54845 0.0
C450 C 0.18686 0.21697 0.05787 0.0
C451 C 0.1549 0.19813 0.07231 0.0
C452 C 0.20362 0.2042 1.03044 0.0
C453 C 0.18923 0.17199 1.01711 0.0
H454 H 0.199 0.24199 0.0664 0.0
H455 H 0.22824 0.21969 1.02099 0.0
S456 S 0.1061 0.11235 0.04619 0.0
N457 N 0.10946 0.14554 0.07122 0.0
N458 N 0.14109 0.12144 1.02035 0.0
C459 C 0.15731 0.1528 1.03156 0.0
C460 C 0.14015 0.16587 0.05903 0.0
C461 C 0.78385 0.01111 0.07071 0.0
C462 C 0.78601 0.01388 1.00155 0.0
C463 C 0.76923 0.98181 0.10117 0.0
C464 C 0.75691 0.95425 0.06363 0.0
H465 H 0.79276 0.03173 0.10168 0.0
H466 H 0.76754 0.98074 0.15442 0.0
S467 S 0.75726 0.94878 0.88093 0.0
N468 N 0.77488 -0.01335 0.89652 0.0
N469 N 0.74807 0.9315 0.95346 0.0
C470 C 0.75949 0.9567 0.99441 0.0
C471 C 0.77383 -0.01347 0.96343 0.0
C472 C 0.95971 0.75781 1.01383 0.0
C473 C 0.94733 0.7762 0.99415 0.0
C474 C -0.01122 0.77124 0.0442 0.0
C475 C 0.00688 0.80368 0.05524 0.0
H476 H 0.94649 0.73264 1.00759 0.0
H477 H -0.00268 0.75605 0.058 0.0
S478 S -0.01448 0.86237 1.01137 0.0
N479 N 0.95557 0.82863 0.98715 0.0
N480 N 0.01061 0.85402 0.04321 0.0
C481 C -0.00496 0.82246 0.03495 0.0
C482 C 0.96521 0.80871 1.00464 0.0
C483 C 0.7933 0.79887 0.98181 0.0
C484 C 0.81196 0.79641 1.02974 0.0
C485 C 0.77523 0.81209 0.99706 0.0
C486 C 0.7748 0.82302 0.06104 0.0
H487 H 0.79238 0.79026 0.93222 0.0
H488 H 0.76099 0.81316 0.95849 0.0
S489 S 0.82029 0.82295 0.20408 0.0
N490 N 0.82965 0.8069 0.1437 0.0
N491 N 0.79533 0.83144 0.17216 0.0
C492 C 0.79368 0.82116 0.10926 0.0
C493 C 0.81237 0.80798 0.09363 0.0
C494 C 0.15523 0.96907 0.99511 0.0
C495 C 0.14844 0.95632 0.05897 0.0
C496 C 0.17145 0.00139 0.98526 0.0
C497 C 0.18105 0.02215 0.03888 0.0
H498 H 0.14821 0.95399 0.95211 0.0
H499 H 0.17616 0.01012 0.93525 0.0
S500 S 0.16942 0.00078 0.21607 0.0
N501 N 0.15294 0.96694 0.17663 0.0
N502 N 0.18313 0.02784 0.15837 0.0
C503 C 0.17446 0.00977 0.1031 0.0
C504 C 0.15825 0.97681 0.1131 0.0
C505 C 0.9439 0.16113 0.07202 0.0
C506 C 0.93227 0.14822 1.00939 0.0
C507 C -0.0246 0.17409 0.08726 0.0
C508 C -0.00357 0.17436 0.0407 0.0
H509 H 0.92869 0.16176 0.10942 0.0
H510 H -0.01667 0.18433 0.13566 0.0
S511 S -0.02272 0.1418 0.87064 0.0
N512 N 0.94391 0.13541 0.90131 0.0
N513 N 0.00306 0.15944 0.92977 0.0
C514 C -0.01509 0.16077 0.97833 0.0
C515 C 0.95287 0.14783 0.96268 0.0
C516 C 0.81343 0.50427 0.39359 0.0
C517 C 0.8308 0.53689 0.40288 0.0
C518 C 0.82739 0.48792 0.37007 0.0
C519 C 0.8593 0.50348 0.35439 0.0
H520 H 0.78866 0.49116 0.40373 0.0
H521 H 0.81291 0.46281 0.364 0.0
S522 S 0.91554 0.58875 0.37149 0.0
N523 N 0.88194 0.58419 0.39576 0.0
N524 N 0.90817 0.55344 0.35147 0.0
C525 C 0.8771 0.5361 0.36401 0.0
C526 C 0.86289 0.55276 0.3885 0.0
C527 C 0.42787 0.34698 0.35012 0.0
C528 C 0.46017 0.3675 0.35471 0.0
C529 C 0.41317 0.31828 0.38281 0.0
C530 C 0.43026 0.30871 0.42052 0.0
H531 H 0.4137 0.35328 0.32172 0.0
H532 H 0.38831 0.30302 0.37637 0.0
S533 S 0.51541 0.35428 0.44954 0.0
N534 N 0.50881 0.3768 0.40149 0.0
N535 N 0.48118 0.3224 0.46183 0.0
C536 C 0.46255 0.32917 0.42622 0.0
C537 C 0.47749 0.35864 0.39358 0.0
C538 C 0.60562 0.07365 0.33877 0.0
C539 C 0.59424 0.09252 0.31623 0.0
C540 C 0.63629 0.08684 0.36085 0.0
C541 C 0.65688 0.11943 0.3611 0.0
H542 H 0.59059 0.04848 0.34075 0.0
H543 H 0.6439 0.07124 0.37732 0.0
S544 S 0.63883 0.17923 0.30534 0.0
N545 N 0.60626 0.14553 0.29404 0.0
N546 N 0.66369 0.17032 0.33595 0.0
C547 C 0.64587 0.13859 0.33813 0.0
C548 C 0.61467 0.12514 0.31546 0.0
C549 C 0.49162 0.16521 0.36246 0.0
C550 C 0.47235 0.13298 0.35077 0.0
C551 C 0.479 0.18339 0.38203 0.0
C552 C 0.44687 0.16966 0.39303 0.0
H553 H 0.5166 0.17646 0.35612 0.0
H554 H 0.49449 0.20832 0.38901 0.0
S555 S 0.38664 0.08609 0.37066 0.0
N556 N 0.41969 0.08801 0.35143 0.0
N557 N 0.39601 0.12208 0.3906 0.0
C558 C 0.4274 0.13739 0.38238 0.0
C559 C 0.44014 0.11905 0.36051 0.0
C560 C 0.80148 0.28862 0.30568 0.0
C561 C 0.79597 0.27405 0.36756 0.0
C562 C 0.8175 0.32119 0.3001 0.0
C563 C 0.82801 0.34034 0.35629 0.0
H564 H 0.79387 0.27479 0.26087 0.0
H565 H 0.82159 0.33141 0.25149 0.0
S566 S 0.81943 0.31392 0.52979 0.0
N567 N 0.80236 0.28126 0.48609 0.0
N568 N 0.83202 0.3426 0.47594 0.0
C569 C 0.82236 0.32613 0.4186 0.0
C570 C 0.80648 0.29294 0.42417 0.0
C571 C 0.62956 0.49815 0.31361 0.0
C572 C 0.61038 0.49956 0.36254 0.0
C573 C 0.66091 0.50897 0.32593 0.0
C574 C 0.67442 0.52208 0.38733 0.0
H575 H 0.62028 0.48847 0.26545 0.0
H576 H 0.6748 0.50768 0.28623 0.0
S577 S 0.63408 0.53095 0.5323 0.0
N578 N 0.6069 0.51463 0.47531 0.0
N579 N 0.66612 0.53548 0.49793 0.0
C580 C 0.65548 0.52348 0.43691 0.0
C581 C 0.62339 0.51208 0.42465 0.0
C582 C 0.50326 0.84304 0.71125 0.0
C583 C 0.53553 0.86104 0.69985 0.0
C584 C 0.48633 0.8569 0.73061 0.0
C585 C 0.50082 0.88945 0.7395 0.0
H586 H 0.49079 0.81784 0.70564 0.0
H587 H 0.46152 0.84178 0.73841 0.0
S588 S 0.58485 0.9474 0.71572 0.0
N589 N 0.58151 0.91336 0.69885 0.0
N590 N 0.54945 0.93954 0.73492 0.0
C591 C 0.53311 0.9079 0.7283 0.0
C592 C 0.55047 0.8937 0.70831 0.0
C593 C 0.12556 0.66116 0.71568 0.0
C594 C 0.10875 0.67423 0.69017 0.0
C595 C 0.11045 0.63193 0.74614 0.0
C596 C 0.07783 0.61447 0.75262 0.0
H597 H 0.15072 0.67361 0.71221 0.0
H598 H 0.12455 0.62276 0.76365 0.0
S599 S 0.02296 0.63885 0.69704 0.0
N600 N 0.05765 0.66796 0.67548 0.0
N601 N 0.02917 0.61293 0.73271 0.0
C602 C 0.06069 0.6275 0.72846 0.0
C603 C 0.07613 0.65728 0.69699 0.0
C604 C 0.3183 0.43922 0.70492 0.0
C605 C 0.33475 0.4721 0.7082 0.0
C606 C 0.28821 0.42244 0.67913 0.0
C607 C 0.27315 0.43778 0.65607 0.0
H608 H 0.32883 0.4262 0.72164 0.0
H609 H 0.27643 0.39714 0.67901 0.0
S610 S 0.30617 0.52366 0.65233 0.0
N611 N 0.33386 0.51948 0.68507 0.0
N612 N 0.27721 0.48788 0.63681 0.0
C613 C 0.2894 0.47068 0.65836 0.0
C614 C 0.32015 0.48782 0.68447 0.0
C615 C 0.15209 0.48362 0.71054 0.0
C616 C 0.13559 0.45138 0.69706 0.0
C617 C 0.13648 0.49903 0.7292 0.0
C618 C 0.10403 0.48244 0.73739 0.0
H619 H 0.17722 0.49708 0.70595 0.0
H620 H 0.14986 0.52409 0.73727 0.0
S621 S 0.05031 0.3976 0.70994 0.0
N622 N 0.0852 0.40327 0.69337 0.0
N623 N 0.05583 0.43218 0.73086 0.0
C624 C 0.08729 0.4501 0.72529 0.0
C625 C 0.10311 0.43456 0.70436 0.0
C626 C 0.47752 0.65137 0.76218 0.0
C627 C 0.47075 0.63256 0.70582 0.0
C628 C 0.49363 0.68398 0.75724 0.0
C629 C 0.50417 0.69894 0.69591 0.0
H630 H 0.4703 0.64086 0.81044 0.0
H631 H 0.49859 0.69757 0.80218 0.0
S632 S 0.49241 0.66012 0.53345 0.0
N633 N 0.47541 0.63107 0.5865 0.0
N634 N 0.50642 0.6925 0.57767 0.0
C635 C 0.49748 0.6804 0.63912 0.0
C636 C 0.48054 0.64716 0.64397 0.0
C637 C 0.28147 0.81127 0.75324 0.0
C638 C 0.26967 0.80535 0.68858 0.0
C639 C 0.31348 0.82852 0.76514 0.0
C640 C 0.33487 0.83989 0.71282 0.0
H641 H 0.26587 0.80356 0.79531 0.0
H642 H 0.32149 0.83338 0.81564 0.0
S643 S 0.31611 0.82929 0.53433 0.0
N644 N 0.2819 0.81121 0.57163 0.0
N645 N 0.34222 0.84316 0.59373 0.0
C646 C 0.32347 0.83309 0.64784 0.0
C647 C 0.29082 0.81595 0.63577 0.0
loop_
_geom_bond_atom_site_label_1
_geom_bond_atom_site_label_2
_geom_bond_distance
_geom_bond_site_symmetry_2
_ccdc_geom_bond_type
O0 Cd1 2.223 . S
O0 C8 1.315 . S
Cd1 O0 2.223 . S
Cd1 O4 2.297 . S
Cd1 O5 2.439 . S
Cd1 O11 2.240 1_554 S
Cd2 O3 2.240 . S
Cd2 O10 2.223 1_554 S
Cd2 O12 2.297 1_554 S
Cd2 O13 2.439 . S
O3 Cd2 2.240 . S
O3 C8 1.279 . S
O4 Cd1 2.297 . S
O4 C6 1.247 . S
O5 Cd1 2.439 . S
O5 C6 1.208 . S
C6 O4 1.247 . S
C6 O5 1.208 . S
C7 O12 1.247 1_554 S
C7 O13 1.208 . S
C8 O0 1.315 . S
C8 O3 1.279 . S
C9 O10 1.315 . S
C9 O11 1.279 . S
O10 Cd2 2.223 1_556 S
O10 C9 1.315 . S
O11 Cd1 2.240 1_556 S
O11 C9 1.279 . S
O12 Cd2 2.297 1_556 S
O12 C7 1.247 1_556 S
O13 Cd2 2.439 . S
O13 C7 1.208 . S
O14 Cd15 2.223 . S
O14 C22 1.315 . S
Cd15 O14 2.223 . S
Cd15 O18 2.297 . S
Cd15 O19 2.439 . S
Cd15 O25 2.240 1_554 S
Cd16 O17 2.240 . S
Cd16 O24 2.223 1_554 S
Cd16 O26 2.297 1_554 S
Cd16 O27 2.439 . S
O17 Cd16 2.240 . S
O17 C22 1.279 . S
O18 Cd15 2.297 . S
O18 C20 1.247 . S
O19 Cd15 2.439 . S
O19 C20 1.208 . S
C20 O18 1.247 . S
C20 O19 1.208 . S
C21 O26 1.247 1_554 S
C21 O27 1.208 . S
C22 O14 1.315 . S
C22 O17 1.279 . S
C23 O24 1.315 . S
C23 O25 1.279 . S
O24 Cd16 2.223 1_556 S
O24 C23 1.315 . S
O25 Cd15 2.240 1_556 S
O25 C23 1.279 . S
O26 Cd16 2.297 1_556 S
O26 C21 1.247 1_556 S
O27 Cd16 2.439 . S
O27 C21 1.208 . S
O28 Cd29 2.223 . S
O28 C36 1.315 . S
Cd29 O28 2.223 . S
Cd29 O32 2.297 . S
Cd29 O33 2.439 . S
Cd29 O39 2.240 1_554 S
Cd30 O31 2.240 . S
Cd30 O38 2.223 1_554 S
Cd30 O40 2.297 1_554 S
Cd30 O41 2.439 . S
O31 Cd30 2.240 . S
O31 C36 1.279 . S
O32 Cd29 2.297 . S
O32 C34 1.247 . S
O33 Cd29 2.439 . S
O33 C34 1.208 . S
C34 O32 1.247 . S
C34 O33 1.208 . S
C35 O40 1.247 1_554 S
C35 O41 1.208 . S
C36 O28 1.315 . S
C36 O31 1.279 . S
C37 O38 1.315 . S
C37 O39 1.279 . S
O38 Cd30 2.223 1_556 S
O38 C37 1.315 . S
O39 Cd29 2.240 1_556 S
O39 C37 1.279 . S
O40 Cd30 2.297 1_556 S
O40 C35 1.247 1_556 S
O41 Cd30 2.439 . S
O41 C35 1.208 . S
O42 Cd43 2.223 . S
O42 C50 1.315 . S
Cd43 O42 2.223 . S
Cd43 O46 2.297 . S
Cd43 O47 2.439 . S
Cd43 O53 2.240 1_556 S
Cd44 O45 2.240 . S
Cd44 O52 2.223 1_556 S
Cd44 O54 2.297 1_556 S
Cd44 O55 2.439 . S
O45 Cd44 2.240 . S
O45 C50 1.279 . S
O46 Cd43 2.297 . S
O46 C48 1.247 . S
O47 Cd43 2.439 . S
O47 C48 1.208 . S
C48 O46 1.247 . S
C48 O47 1.208 . S
C49 O54 1.247 1_556 S
C49 O55 1.208 . S
C50 O42 1.315 . S
C50 O45 1.279 . S
C51 O52 1.315 . S
C51 O53 1.279 . S
O52 Cd44 2.223 1_554 S
O52 C51 1.315 . S
O53 Cd43 2.240 1_554 S
O53 C51 1.279 . S
O54 Cd44 2.297 1_554 S
O54 C49 1.247 1_554 S
O55 Cd44 2.439 . S
O55 C49 1.208 . S
O56 Cd57 2.223 . S
O56 C64 1.315 . S
Cd57 O56 2.223 . S
Cd57 O60 2.297 . S
Cd57 O61 2.439 . S
Cd57 O67 2.240 1_556 S
Cd58 O59 2.240 . S
Cd58 O66 2.223 1_556 S
Cd58 O68 2.297 1_556 S
Cd58 O69 2.439 . S
O59 Cd58 2.240 . S
O59 C64 1.279 . S
O60 Cd57 2.297 . S
O60 C62 1.247 . S
O61 Cd57 2.439 . S
O61 C62 1.208 . S
C62 O60 1.247 . S
C62 O61 1.208 . S
C63 O68 1.247 1_556 S
C63 O69 1.208 . S
C64 O56 1.315 . S
C64 O59 1.279 . S
C65 O66 1.315 . S
C65 O67 1.279 . S
O66 Cd58 2.223 1_554 S
O66 C65 1.315 . S
O67 Cd57 2.240 1_554 S
O67 C65 1.279 . S
O68 Cd58 2.297 1_554 S
O68 C63 1.247 1_554 S
O69 Cd58 2.439 . S
O69 C63 1.208 . S
O70 Cd71 2.223 . S
O70 C78 1.315 . S
Cd71 O70 2.223 . S
Cd71 O74 2.297 . S
Cd71 O75 2.439 . S
Cd71 O81 2.240 1_556 S
Cd72 O73 2.240 . S
Cd72 O80 2.223 1_556 S
Cd72 O82 2.297 1_556 S
Cd72 O83 2.439 . S
O73 Cd72 2.240 . S
O73 C78 1.279 . S
O74 Cd71 2.297 . S
O74 C76 1.247 . S
O75 Cd71 2.439 . S
O75 C76 1.208 . S
C76 O74 1.247 . S
C76 O75 1.208 . S
C77 O82 1.247 1_556 S
C77 O83 1.208 . S
C78 O70 1.315 . S
C78 O73 1.279 . S
C79 O80 1.315 . S
C79 O81 1.279 . S
O80 Cd72 2.223 1_554 S
O80 C79 1.315 . S
O81 Cd71 2.240 1_554 S
O81 C79 1.279 . S
O82 Cd72 2.297 1_554 S
O82 C77 1.247 1_554 S
O83 Cd72 2.439 . S
O83 C77 1.208 . S
O84 Cd85 2.223 . S
O84 C92 1.315 . S
Cd85 O84 2.223 . S
Cd85 O88 2.297 . S
Cd85 O89 2.439 . S
Cd85 O95 2.240 . S
Cd86 O87 2.240 . S
Cd86 O94 2.223 . S
Cd86 O96 2.297 . S
Cd86 O97 2.439 . S
O87 Cd86 2.240 . S
O87 C92 1.279 . S
O88 Cd85 2.297 . S
O88 C90 1.247 . S
O89 Cd85 2.439 . S
O89 C90 1.208 . S
C90 O88 1.247 . S
C90 O89 1.208 . S
C91 O96 1.247 . S
C91 O97 1.208 . S
C92 O84 1.315 . S
C92 O87 1.279 . S
C93 O94 1.315 . S
C93 O95 1.279 . S
O94 Cd86 2.223 . S
O94 C93 1.315 . S
O95 Cd85 2.240 . S
O95 C93 1.279 . S
O96 Cd86 2.297 . S
O96 C91 1.247 . S
O97 Cd86 2.439 . S
O97 C91 1.208 . S
O98 Cd99 2.223 . S
O98 C106 1.315 . S
Cd99 O98 2.223 . S
Cd99 O102 2.297 . S
Cd99 O103 2.439 . S
Cd99 O109 2.240 . S
Cd100 O101 2.240 . S
Cd100 O108 2.223 . S
Cd100 O110 2.297 . S
Cd100 O111 2.439 . S
O101 Cd100 2.240 . S
O101 C106 1.279 . S
O102 Cd99 2.297 . S
O102 C104 1.247 . S
O103 Cd99 2.439 . S
O103 C104 1.208 . S
C104 O102 1.247 . S
C104 O103 1.208 . S
C105 O110 1.247 . S
C105 O111 1.208 . S
C106 O98 1.315 . S
C106 O101 1.279 . S
C107 O108 1.315 . S
C107 O109 1.279 . S
O108 Cd100 2.223 . S
O108 C107 1.315 . S
O109 Cd99 2.240 . S
O109 C107 1.279 . S
O110 Cd100 2.297 . S
O110 C105 1.247 . S
O111 Cd100 2.439 . S
O111 C105 1.208 . S
O112 Cd113 2.223 . S
O112 C120 1.315 . S
Cd113 O112 2.223 . S
Cd113 O116 2.297 . S
Cd113 O117 2.439 . S
Cd113 O123 2.240 . S
Cd114 O115 2.240 . S
Cd114 O122 2.223 . S
Cd114 O124 2.297 . S
Cd114 O125 2.439 . S
O115 Cd114 2.240 . S
O115 C120 1.279 . S
O116 Cd113 2.297 . S
O116 C118 1.247 . S
O117 Cd113 2.439 . S
O117 C118 1.208 . S
C118 O116 1.247 . S
C118 O117 1.208 . S
C119 O124 1.247 . S
C119 O125 1.208 . S
C120 O112 1.315 . S
C120 O115 1.279 . S
C121 O122 1.315 . S
C121 O123 1.279 . S
O122 Cd114 2.223 . S
O122 C121 1.315 . S
O123 Cd113 2.240 . S
O123 C121 1.279 . S
O124 Cd114 2.297 . S
O124 C119 1.247 . S
O125 Cd114 2.439 . S
O125 C119 1.208 . S
O126 Cd127 2.223 1_655 S
O126 C134 1.315 . S
Cd127 O126 2.223 1_455 S
Cd127 O130 2.297 . S
Cd127 O131 2.439 1_455 S
Cd127 O137 2.240 1_455 S
Cd128 O129 2.240 . S
Cd128 O136 2.223 . S
Cd128 O138 2.297 . S
Cd128 O139 2.439 . S
O129 Cd128 2.240 . S
O129 C134 1.279 . S
O130 Cd127 2.297 . S
O130 C132 1.247 1_455 S
O131 Cd127 2.439 1_655 S
O131 C132 1.208 . S
C132 O130 1.247 1_655 S
C132 O131 1.208 . S
C133 O138 1.247 . S
C133 O139 1.208 . S
C134 O126 1.315 . S
C134 O129 1.279 . S
C135 O136 1.315 . S
C135 O137 1.279 . S
O136 Cd128 2.223 . S
O136 C135 1.315 . S
O137 Cd127 2.240 1_655 S
O137 C135 1.279 . S
O138 Cd128 2.297 . S
O138 C133 1.247 . S
O139 Cd128 2.439 . S
O139 C133 1.208 . S
O140 Cd141 2.223 . S
O140 C148 1.315 . S
Cd141 O140 2.223 . S
Cd141 O144 2.297 . S
Cd141 O145 2.439 . S
Cd141 O151 2.240 . S
Cd142 O143 2.240 . S
Cd142 O150 2.223 . S
Cd142 O152 2.297 . S
Cd142 O153 2.439 . S
O143 Cd142 2.240 . S
O143 C148 1.279 . S
O144 Cd141 2.297 . S
O144 C146 1.247 . S
O145 Cd141 2.439 . S
O145 C146 1.208 . S
C146 O144 1.247 . S
C146 O145 1.208 . S
C147 O152 1.247 . S
C147 O153 1.208 . S
C148 O140 1.315 . S
C148 O143 1.279 . S
C149 O150 1.315 . S
C149 O151 1.279 . S
O150 Cd142 2.223 . S
O150 C149 1.315 . S
O151 Cd141 2.240 . S
O151 C149 1.279 . S
O152 Cd142 2.297 . S
O152 C147 1.247 . S
O153 Cd142 2.439 . S
O153 C147 1.208 . S
O154 Cd155 2.223 . S
O154 C162 1.315 . S
Cd155 O154 2.223 . S
Cd155 O158 2.297 . S
Cd155 O159 2.439 . S
Cd155 O165 2.240 . S
Cd156 O157 2.240 . S
Cd156 O164 2.223 . S
Cd156 O166 2.297 . S
Cd156 O167 2.439 . S
O157 Cd156 2.240 . S
O157 C162 1.279 . S
O158 Cd155 2.297 . S
O158 C160 1.247 . S
O159 Cd155 2.439 . S
O159 C160 1.208 . S
C160 O158 1.247 . S
C160 O159 1.208 . S
C161 O166 1.247 . S
C161 O167 1.208 . S
C162 O154 1.315 . S
C162 O157 1.279 . S
C163 O164 1.315 . S
C163 O165 1.279 . S
O164 Cd156 2.223 . S
O164 C163 1.315 . S
O165 Cd155 2.240 . S
O165 C163 1.279 . S
O166 Cd156 2.297 . S
O166 C161 1.247 . S
O167 Cd156 2.439 . S
O167 C161 1.208 . S
O168 Cd169 2.223 1_565 S
O168 C176 1.315 . S
Cd169 O168 2.223 1_545 S
Cd169 O172 2.297 . S
Cd169 O173 2.439 1_545 S
Cd169 O179 2.240 1_545 S
Cd170 O171 2.240 . S
Cd170 O178 2.223 . S
Cd170 O180 2.297 . S
Cd170 O181 2.439 . S
O171 Cd170 2.240 . S
O171 C176 1.279 . S
O172 Cd169 2.297 . S
O172 C174 1.247 1_545 S
O173 Cd169 2.439 1_565 S
O173 C174 1.208 . S
C174 O172 1.247 1_565 S
C174 O173 1.208 . S
C175 O180 1.247 . S
C175 O181 1.208 . S
C176 O168 1.315 . S
C176 O171 1.279 . S
C177 O178 1.315 . S
C177 O179 1.279 . S
O178 Cd170 2.223 . S
O178 C177 1.315 . S
O179 Cd169 2.240 1_565 S
O179 C177 1.279 . S
O180 Cd170 2.297 . S
O180 C175 1.247 . S
O181 Cd170 2.439 . S
O181 C175 1.208 . S
O182 Cd183 2.223 . S
O182 C190 1.315 . S
Cd183 O182 2.223 . S
Cd183 O186 2.297 . S
Cd183 O187 2.439 . S
Cd183 O193 2.240 . S
Cd184 O185 2.240 . S
Cd184 O192 2.223 . S
Cd184 O194 2.297 . S
Cd184 O195 2.439 . S
O185 Cd184 2.240 . S
O185 C190 1.279 . S
O186 Cd183 2.297 . S
O186 C188 1.247 . S
O187 Cd183 2.439 . S
O187 C188 1.208 . S
C188 O186 1.247 . S
C188 O187 1.208 . S
C189 O194 1.247 . S
C189 O195 1.208 . S
C190 O182 1.315 . S
C190 O185 1.279 . S
C191 O192 1.315 . S
C191 O193 1.279 . S
O192 Cd184 2.223 . S
O192 C191 1.315 . S
O193 Cd183 2.240 . S
O193 C191 1.279 . S
O194 Cd184 2.297 . S
O194 C189 1.247 . S
O195 Cd184 2.439 . S
O195 C189 1.208 . S
O196 Cd197 2.223 . S
O196 C204 1.315 . S
Cd197 O196 2.223 . S
Cd197 O200 2.297 . S
Cd197 O201 2.439 . S
Cd197 O207 2.240 . S
Cd198 O199 2.240 . S
Cd198 O206 2.223 . S
Cd198 O208 2.297 . S
Cd198 O209 2.439 . S
O199 Cd198 2.240 . S
O199 C204 1.279 . S
O200 Cd197 2.297 . S
O200 C202 1.247 . S
O201 Cd197 2.439 . S
O201 C202 1.208 . S
C202 O200 1.247 . S
C202 O201 1.208 . S
C203 O208 1.247 . S
C203 O209 1.208 . S
C204 O196 1.315 . S
C204 O199 1.279 . S
C205 O206 1.315 . S
C205 O207 1.279 . S
O206 Cd198 2.223 . S
O206 C205 1.315 . S
O207 Cd197 2.240 . S
O207 C205 1.279 . S
O208 Cd198 2.297 . S
O208 C203 1.247 . S
O209 Cd198 2.439 . S
O209 C203 1.208 . S
O210 Cd211 2.223 . S
O210 C218 1.315 . S
Cd211 O210 2.223 . S
Cd211 O214 2.297 . S
Cd211 O215 2.439 . S
Cd211 O221 2.240 . S
Cd212 O213 2.240 . S
Cd212 O220 2.223 . S
Cd212 O222 2.297 . S
Cd212 O223 2.439 . S
O213 Cd212 2.240 . S
O213 C218 1.279 . S
O214 Cd211 2.297 . S
O214 C216 1.247 . S
O215 Cd211 2.439 . S
O215 C216 1.208 . S
C216 O214 1.247 . S
C216 O215 1.208 . S
C217 O222 1.247 . S
C217 O223 1.208 . S
C218 O210 1.315 . S
C218 O213 1.279 . S
C219 O220 1.315 . S
C219 O221 1.279 . S
O220 Cd212 2.223 . S
O220 C219 1.315 . S
O221 Cd211 2.240 . S
O221 C219 1.279 . S
O222 Cd212 2.297 . S
O222 C217 1.247 . S
O223 Cd212 2.439 . S
O223 C217 1.208 . S
O224 Cd225 2.223 . S
O224 C232 1.315 . S
Cd225 O224 2.223 . S
Cd225 O228 2.297 . S
Cd225 O229 2.439 . S
Cd225 O235 2.240 . S
Cd226 O227 2.240 . S
Cd226 O234 2.223 . S
Cd226 O236 2.297 . S
Cd226 O237 2.439 . S
O227 Cd226 2.240 . S
O227 C232 1.279 . S
O228 Cd225 2.297 . S
O228 C230 1.247 . S
O229 Cd225 2.439 . S
O229 C230 1.208 . S
C230 O228 1.247 . S
C230 O229 1.208 . S
C231 O236 1.247 . S
C231 O237 1.208 . S
C232 O224 1.315 . S
C232 O227 1.279 . S
C233 O234 1.315 . S
C233 O235 1.279 . S
O234 Cd226 2.223 . S
O234 C233 1.315 . S
O235 Cd225 2.240 . S
O235 C233 1.279 . S
O236 Cd226 2.297 . S
O236 C231 1.247 . S
O237 Cd226 2.439 . S
O237 C231 1.208 . S
O238 Cd239 2.223 . S
O238 C246 1.315 . S
Cd239 O238 2.223 . S
Cd239 O242 2.297 . S
Cd239 O243 2.439 . S
Cd239 O249 2.240 . S
Cd240 O241 2.240 . S
Cd240 O248 2.223 . S
Cd240 O250 2.297 . S
Cd240 O251 2.439 . S
O241 Cd240 2.240 . S
O241 C246 1.279 . S
O242 Cd239 2.297 . S
O242 C244 1.247 . S
O243 Cd239 2.439 . S
O243 C244 1.208 . S
C244 O242 1.247 . S
C244 O243 1.208 . S
C245 O250 1.247 . S
C245 O251 1.208 . S
C246 O238 1.315 . S
C246 O241 1.279 . S
C247 O248 1.315 . S
C247 O249 1.279 . S
O248 Cd240 2.223 . S
O248 C247 1.315 . S
O249 Cd239 2.240 . S
O249 C247 1.279 . S
O250 Cd240 2.297 . S
O250 C245 1.247 . S
O251 Cd240 2.439 . S
O251 C245 1.208 . S
C252 C253 1.369 . S
C252 C254 1.419 . S
C252 H256 0.930 . S
C253 C252 1.369 . S
C253 C262 1.429 . S
C254 C252 1.419 . S
C254 C255 1.363 . S
C254 H257 0.929 . S
C255 C254 1.363 . S
C255 C261 1.428 . S
H256 C252 0.930 . S
H257 C254 0.929 . S
S258 N259 1.613 . S
S258 N260 1.610 . S
N259 S258 1.613 . S
N259 C262 1.350 . S
N260 S258 1.610 . S
N260 C261 1.351 . S
C261 C255 1.428 . S
C261 N260 1.351 . S
C261 C262 1.434 . S
C262 C253 1.429 . S
C262 N259 1.350 . S
C262 C261 1.434 . S
C263 C264 1.369 . S
C263 C265 1.419 . S
C263 H267 0.930 . S
C264 C263 1.369 . S
C264 C273 1.429 . S
C265 C263 1.419 . S
C265 C266 1.363 . S
C265 H268 0.929 . S
C266 C265 1.363 . S
C266 C272 1.428 . S
H267 C263 0.930 . S
H268 C265 0.929 . S
S269 N270 1.613 . S
S269 N271 1.610 . S
N270 S269 1.613 . S
N270 C273 1.350 . S
N271 S269 1.610 . S
N271 C272 1.351 . S
C272 C266 1.428 . S
C272 N271 1.351 . S
C272 C273 1.434 . S
C273 C264 1.429 . S
C273 N270 1.350 . S
C273 C272 1.434 . S
C274 C275 1.369 . S
C274 C276 1.419 . S
C274 H278 0.930 . S
C275 C274 1.369 . S
C275 C284 1.429 . S
C276 C274 1.419 . S
C276 C277 1.363 . S
C276 H279 0.929 . S
C277 C276 1.363 . S
C277 C283 1.428 . S
H278 C274 0.930 . S
H279 C276 0.929 . S
S280 N281 1.613 . S
S280 N282 1.610 . S
N281 S280 1.613 . S
N281 C284 1.350 . S
N282 S280 1.610 . S
N282 C283 1.351 . S
C283 C277 1.428 . S
C283 N282 1.351 . S
C283 C284 1.434 . S
C284 C275 1.429 . S
C284 N281 1.350 . S
C284 C283 1.434 . S
C285 C286 1.369 . S
C285 C287 1.419 . S
C285 H289 0.930 . S
C286 C285 1.369 . S
C286 C295 1.429 . S
C287 C285 1.419 . S
C287 C288 1.363 . S
C287 H290 0.929 . S
C288 C287 1.363 . S
C288 C294 1.428 . S
H289 C285 0.930 . S
H290 C287 0.929 . S
S291 N292 1.613 . S
S291 N293 1.610 . S
N292 S291 1.613 . S
N292 C295 1.350 . S
N293 S291 1.610 . S
N293 C294 1.351 . S
C294 C288 1.428 . S
C294 N293 1.351 . S
C294 C295 1.434 . S
C295 C286 1.429 . S
C295 N292 1.350 . S
C295 C294 1.434 . S
C296 C297 1.369 . S
C296 C298 1.419 . S
C296 H300 0.930 . S
C297 C296 1.369 . S
C297 C306 1.429 . S
C298 C296 1.419 . S
C298 C299 1.363 . S
C298 H301 0.929 . S
C299 C298 1.363 . S
C299 C305 1.428 . S
H300 C296 0.930 . S
H301 C298 0.929 . S
S302 N303 1.613 . S
S302 N304 1.610 . S
N303 S302 1.613 . S
N303 C306 1.350 . S
N304 S302 1.610 . S
N304 C305 1.351 . S
C305 C299 1.428 . S
C305 N304 1.351 . S
C305 C306 1.434 . S
C306 C297 1.429 . S
C306 N303 1.350 . S
C306 C305 1.434 . S
C307 C308 1.369 . S
C307 C309 1.419 . S
C307 H311 0.930 . S
C308 C307 1.369 . S
C308 C317 1.429 . S
C309 C307 1.419 . S
C309 C310 1.363 . S
C309 H312 0.929 . S
C310 C309 1.363 . S
C310 C316 1.428 . S
H311 C307 0.930 . S
H312 C309 0.929 . S
S313 N314 1.613 . S
S313 N315 1.610 . S
N314 S313 1.613 . S
N314 C317 1.350 . S
N315 S313 1.610 . S
N315 C316 1.351 . S
C316 C310 1.428 . S
C316 N315 1.351 . S
C316 C317 1.434 . S
C317 C308 1.429 . S
C317 N314 1.350 . S
C317 C316 1.434 . S
C318 C319 1.369 1_455 S
C318 C320 1.419 1_554 S
C318 H322 0.930 . S
C319 C318 1.369 1_655 S
C319 C328 1.429 . S
C320 C318 1.419 1_556 S
C320 C321 1.363 . S
C320 H323 0.929 . S
C321 C320 1.363 . S
C321 C327 1.428 1_455 S
H322 C318 0.930 . S
H323 C320 0.929 . S
S324 N325 1.613 1_556 S
S324 N326 1.610 . S
N325 S324 1.613 1_554 S
N325 C328 1.350 . S
N326 S324 1.610 . S
N326 C327 1.351 . S
C327 C321 1.428 1_655 S
C327 N326 1.351 . S
C327 C328 1.434 1_556 S
C328 C319 1.429 . S
C328 N325 1.350 . S
C328 C327 1.434 1_554 S
C329 C330 1.369 . S
C329 C331 1.419 1_554 S
C329 H333 0.930 . S
C330 C329 1.369 . S
C330 C339 1.429 . S
C331 C329 1.419 1_556 S
C331 C332 1.363 . S
C331 H334 0.929 . S
C332 C331 1.363 . S
C332 C338 1.428 . S
H333 C329 0.930 . S
H334 C331 0.929 . S
S335 N336 1.613 1_556 S
S335 N337 1.610 . S
N336 S335 1.613 1_554 S
N336 C339 1.350 . S
N337 S335 1.610 . S
N337 C338 1.351 . S
C338 C332 1.428 . S
C338 N337 1.351 . S
C338 C339 1.434 1_556 S
C339 C330 1.429 . S
C339 N336 1.350 . S
C339 C338 1.434 1_554 S
C340 C341 1.369 . S
C340 C342 1.419 1_554 S
C340 H344 0.930 . S
C341 C340 1.369 . S
C341 C350 1.429 1_545 S
C342 C340 1.419 1_556 S
C342 C343 1.363 1_545 S
C342 H345 0.929 . S
C343 C342 1.363 1_565 S
C343 C349 1.428 . S
H344 C340 0.930 . S
H345 C342 0.929 . S
S346 N347 1.613 . S
S346 N348 1.610 1_554 S
N347 S346 1.613 . S
N347 C350 1.350 . S
N348 S346 1.610 1_556 S
N348 C349 1.351 . S
C349 C343 1.428 . S
C349 N348 1.351 . S
C349 C350 1.434 1_556 S
C350 C341 1.429 1_565 S
C350 N347 1.350 . S
C350 C349 1.434 1_554 S
C351 C352 1.369 . S
C351 C353 1.419 . S
C351 H355 0.930 . S
C352 C351 1.369 . S
C352 C361 1.429 . S
C353 C351 1.419 . S
C353 C354 1.363 . S
C353 H356 0.929 . S
C354 C353 1.363 . S
C354 C360 1.428 . S
H355 C351 0.930 . S
H356 C353 0.929 . S
S357 N358 1.613 . S
S357 N359 1.610 . S
N358 S357 1.613 . S
N358 C361 1.350 . S
N359 S357 1.610 . S
N359 C360 1.351 . S
C360 C354 1.428 . S
C360 N359 1.351 . S
C360 C361 1.434 . S
C361 C352 1.429 . S
C361 N358 1.350 . S
C361 C360 1.434 . S
C362 C363 1.369 . S
C362 C364 1.419 . S
C362 H366 0.930 . S
C363 C362 1.369 . S
C363 C372 1.429 . S
C364 C362 1.419 . S
C364 C365 1.363 . S
C364 H367 0.929 . S
C365 C364 1.363 . S
C365 C371 1.428 . S
H366 C362 0.930 . S
H367 C364 0.929 . S
S368 N369 1.613 . S
S368 N370 1.610 . S
N369 S368 1.613 . S
N369 C372 1.350 . S
N370 S368 1.610 . S
N370 C371 1.351 . S
C371 C365 1.428 . S
C371 N370 1.351 . S
C371 C372 1.434 . S
C372 C363 1.429 . S
C372 N369 1.350 . S
C372 C371 1.434 . S
C373 C374 1.369 . S
C373 C375 1.419 . S
C373 H377 0.930 . S
C374 C373 1.369 . S
C374 C383 1.429 . S
C375 C373 1.419 . S
C375 C376 1.363 . S
C375 H378 0.929 . S
C376 C375 1.363 . S
C376 C382 1.428 . S
H377 C373 0.930 . S
H378 C375 0.929 . S
S379 N380 1.613 . S
S379 N381 1.610 . S
N380 S379 1.613 . S
N380 C383 1.350 . S
N381 S379 1.610 . S
N381 C382 1.351 . S
C382 C376 1.428 . S
C382 N381 1.351 . S
C382 C383 1.434 . S
C383 C374 1.429 . S
C383 N380 1.350 . S
C383 C382 1.434 . S
C384 C385 1.369 . S
C384 C386 1.419 . S
C384 H388 0.930 . S
C385 C384 1.369 . S
C385 C394 1.429 . S
C386 C384 1.419 . S
C386 C387 1.363 . S
C386 H389 0.929 . S
C387 C386 1.363 . S
C387 C393 1.428 . S
H388 C384 0.930 . S
H389 C386 0.929 . S
S390 N391 1.613 . S
S390 N392 1.610 . S
N391 S390 1.613 . S
N391 C394 1.350 . S
N392 S390 1.610 . S
N392 C393 1.351 . S
C393 C387 1.428 . S
C393 N392 1.351 . S
C393 C394 1.434 . S
C394 C385 1.429 . S
C394 N391 1.350 . S
C394 C393 1.434 . S
C395 C396 1.369 . S
C395 C397 1.419 . S
C395 H399 0.930 . S
C396 C395 1.369 . S
C396 C405 1.429 . S
C397 C395 1.419 . S
C397 C398 1.363 . S
C397 H400 0.929 . S
C398 C397 1.363 . S
C398 C404 1.428 . S
H399 C395 0.930 . S
H400 C397 0.929 . S
S401 N402 1.613 . S
S401 N403 1.610 . S
N402 S401 1.613 . S
N402 C405 1.350 . S
N403 S401 1.610 . S
N403 C404 1.351 . S
C404 C398 1.428 . S
C404 N403 1.351 . S
C404 C405 1.434 . S
C405 C396 1.429 . S
C405 N402 1.350 . S
C405 C404 1.434 . S
C406 C407 1.369 . S
C406 C408 1.419 . S
C406 H410 0.930 . S
C407 C406 1.369 . S
C407 C416 1.429 . S
C408 C406 1.419 . S
C408 C409 1.363 . S
C408 H411 0.929 . S
C409 C408 1.363 . S
C409 C415 1.428 . S
H410 C406 0.930 . S
H411 C408 0.929 . S
S412 N413 1.613 . S
S412 N414 1.610 . S
N413 S412 1.613 . S
N413 C416 1.350 . S
N414 S412 1.610 . S
N414 C415 1.351 . S
C415 C409 1.428 . S
C415 N414 1.351 . S
C415 C416 1.434 . S
C416 C407 1.429 . S
C416 N413 1.350 . S
C416 C415 1.434 . S
C417 C418 1.369 1_455 S
C417 C419 1.419 . S
C417 H421 0.930 . S
C418 C417 1.369 1_655 S
C418 C427 1.429 . S
C419 C417 1.419 . S
C419 C420 1.363 . S
C419 H422 0.929 . S
C420 C419 1.363 . S
C420 C426 1.428 1_455 S
H421 C417 0.930 . S
H422 C419 0.929 . S
S423 N424 1.613 . S
S423 N425 1.610 . S
N424 S423 1.613 . S
N424 C427 1.350 . S
N425 S423 1.610 . S
N425 C426 1.351 . S
C426 C420 1.428 1_655 S
C426 N425 1.351 . S
C426 C427 1.434 . S
C427 C418 1.429 . S
C427 N424 1.350 . S
C427 C426 1.434 . S
C428 C429 1.369 . S
C428 C430 1.419 . S
C428 H432 0.930 . S
C429 C428 1.369 . S
C429 C438 1.429 . S
C430 C428 1.419 . S
C430 C431 1.363 . S
C430 H433 0.929 . S
C431 C430 1.363 . S
C431 C437 1.428 . S
H432 C428 0.930 . S
H433 C430 0.929 . S
S434 N435 1.613 . S
S434 N436 1.610 . S
N435 S434 1.613 . S
N435 C438 1.350 . S
N436 S434 1.610 . S
N436 C437 1.351 . S
C437 C431 1.428 . S
C437 N436 1.351 . S
C437 C438 1.434 . S
C438 C429 1.429 . S
C438 N435 1.350 . S
C438 C437 1.434 . S
C439 C440 1.369 1_545 S
C439 C441 1.419 . S
C439 H443 0.930 . S
C440 C439 1.369 1_565 S
C440 C449 1.429 . S
C441 C439 1.419 . S
C441 C442 1.363 . S
C441 H444 0.929 . S
C442 C441 1.363 . S
C442 C448 1.428 1_545 S
H443 C439 0.930 . S
H444 C441 0.929 . S
S445 N446 1.613 . S
S445 N447 1.610 . S
N446 S445 1.613 . S
N446 C449 1.350 . S
N447 S445 1.610 . S
N447 C448 1.351 . S
C448 C442 1.428 1_565 S
C448 N447 1.351 . S
C448 C449 1.434 . S
C449 C440 1.429 . S
C449 N446 1.350 . S
C449 C448 1.434 . S
C450 C451 1.369 1_556 S
C450 C452 1.419 . S
C450 H454 0.930 . S
C451 C450 1.369 1_554 S
C451 C460 1.429 . S
C452 C450 1.419 . S
C452 C453 1.363 . S
C452 H455 0.929 . S
C453 C452 1.363 . S
C453 C459 1.428 1_556 S
H454 C450 0.930 . S
H455 C452 0.929 . S
S456 N457 1.613 . S
S456 N458 1.610 . S
N457 S456 1.613 . S
N457 C460 1.350 . S
N458 S456 1.610 . S
N458 C459 1.351 . S
C459 C453 1.428 1_554 S
C459 N458 1.351 . S
C459 C460 1.434 . S
C460 C451 1.429 . S
C460 N457 1.350 . S
C460 C459 1.434 . S
C461 C462 1.369 1_554 S
C461 C463 1.419 1_545 S
C461 H465 0.930 . S
C462 C461 1.369 1_556 S
C462 C471 1.429 . S
C463 C461 1.419 1_565 S
C463 C464 1.363 . S
C463 H466 0.929 . S
C464 C463 1.363 . S
C464 C470 1.428 1_554 S
H465 C461 0.930 . S
H466 C463 0.929 . S
S467 N468 1.613 1_565 S
S467 N469 1.610 . S
N468 S467 1.613 1_545 S
N468 C471 1.350 . S
N469 S467 1.610 . S
N469 C470 1.351 . S
C470 C464 1.428 1_556 S
C470 N469 1.351 . S
C470 C471 1.434 1_565 S
C471 C462 1.429 . S
C471 N468 1.350 . S
C471 C470 1.434 1_545 S
C472 C473 1.369 1_554 S
C472 C474 1.419 1_655 S
C472 H476 0.930 . S
C473 C472 1.369 1_556 S
C473 C482 1.429 . S
C474 C472 1.419 1_455 S
C474 C475 1.363 . S
C474 H477 0.929 . S
C475 C474 1.363 . S
C475 C481 1.428 1_554 S
H476 C472 0.930 . S
H477 C474 0.929 . S
S478 N479 1.613 1_455 S
S478 N480 1.610 . S
N479 S478 1.613 1_655 S
N479 C482 1.350 . S
N480 S478 1.610 . S
N480 C481 1.351 . S
C481 C475 1.428 1_556 S
C481 N480 1.351 . S
C481 C482 1.434 1_455 S
C482 C473 1.429 . S
C482 N479 1.350 . S
C482 C481 1.434 1_655 S
C483 C484 1.369 . S
C483 C485 1.419 . S
C483 H487 0.930 . S
C484 C483 1.369 . S
C484 C493 1.429 1_556 S
C485 C483 1.419 . S
C485 C486 1.363 1_556 S
C485 H488 0.929 . S
C486 C485 1.363 1_554 S
C486 C492 1.428 . S
H487 C483 0.930 . S
H488 C485 0.929 . S
S489 N490 1.613 . S
S489 N491 1.610 . S
N490 S489 1.613 . S
N490 C493 1.350 . S
N491 S489 1.610 . S
N491 C492 1.351 . S
C492 C486 1.428 . S
C492 N491 1.351 . S
C492 C493 1.434 . S
C493 C484 1.429 1_554 S
C493 N490 1.350 . S
C493 C492 1.434 . S
C494 C495 1.369 1_556 S
C494 C496 1.419 1_565 S
C494 H498 0.930 . S
C495 C494 1.369 1_554 S
C495 C504 1.429 . S
C496 C494 1.419 1_545 S
C496 C497 1.363 . S
C496 H499 0.929 . S
C497 C496 1.363 . S
C497 C503 1.428 1_556 S
H498 C494 0.930 . S
H499 C496 0.929 . S
S500 N501 1.613 1_545 S
S500 N502 1.610 . S
N501 S500 1.613 1_565 S
N501 C504 1.350 . S
N502 S500 1.610 . S
N502 C503 1.351 . S
C503 C497 1.428 1_554 S
C503 N502 1.351 . S
C503 C504 1.434 1_545 S
C504 C495 1.429 . S
C504 N501 1.350 . S
C504 C503 1.434 1_565 S
C505 C506 1.369 1_554 S
C505 C507 1.419 1_655 S
C505 H509 0.930 . S
C506 C505 1.369 1_556 S
C506 C515 1.429 . S
C507 C505 1.419 1_455 S
C507 C508 1.363 . S
C507 H510 0.929 . S
C508 C507 1.363 . S
C508 C514 1.428 1_554 S
H509 C505 0.930 . S
H510 C507 0.929 . S
S511 N512 1.613 1_455 S
S511 N513 1.610 . S
N512 S511 1.613 1_655 S
N512 C515 1.350 . S
N513 S511 1.610 . S
N513 C514 1.351 . S
C514 C508 1.428 1_556 S
C514 N513 1.351 . S
C514 C515 1.434 1_455 S
C515 C506 1.429 . S
C515 N512 1.350 . S
C515 C514 1.434 1_655 S
C516 C517 1.369 . S
C516 C518 1.419 . S
C516 H520 0.930 . S
C517 C516 1.369 . S
C517 C526 1.429 . S
C518 C516 1.419 . S
C518 C519 1.363 . S
C518 H521 0.929 . S
C519 C518 1.363 . S
C519 C525 1.428 . S
H520 C516 0.930 . S
H521 C518 0.929 . S
S522 N523 1.613 . S
S522 N524 1.610 . S
N523 S522 1.613 . S
N523 C526 1.350 . S
N524 S522 1.610 . S
N524 C525 1.351 . S
C525 C519 1.428 . S
C525 N524 1.351 . S
C525 C526 1.434 . S
C526 C517 1.429 . S
C526 N523 1.350 . S
C526 C525 1.434 . S
C527 C528 1.369 . S
C527 C529 1.419 . S
C527 H531 0.930 . S
C528 C527 1.369 . S
C528 C537 1.429 . S
C529 C527 1.419 . S
C529 C530 1.363 . S
C529 H532 0.929 . S
C530 C529 1.363 . S
C530 C536 1.428 . S
H531 C527 0.930 . S
H532 C529 0.929 . S
S533 N534 1.613 . S
S533 N535 1.610 . S
N534 S533 1.613 . S
N534 C537 1.350 . S
N535 S533 1.610 . S
N535 C536 1.351 . S
C536 C530 1.428 . S
C536 N535 1.351 . S
C536 C537 1.434 . S
C537 C528 1.429 . S
C537 N534 1.350 . S
C537 C536 1.434 . S
C538 C539 1.369 . S
C538 C540 1.419 . S
C538 H542 0.930 . S
C539 C538 1.369 . S
C539 C548 1.429 . S
C540 C538 1.419 . S
C540 C541 1.363 . S
C540 H543 0.929 . S
C541 C540 1.363 . S
C541 C547 1.428 . S
H542 C538 0.930 . S
H543 C540 0.929 . S
S544 N545 1.613 . S
S544 N546 1.610 . S
N545 S544 1.613 . S
N545 C548 1.350 . S
N546 S544 1.610 . S
N546 C547 1.351 . S
C547 C541 1.428 . S
C547 N546 1.351 . S
C547 C548 1.434 . S
C548 C539 1.429 . S
C548 N545 1.350 . S
C548 C547 1.434 . S
C549 C550 1.369 . S
C549 C551 1.419 . S
C549 H553 0.930 . S
C550 C549 1.369 . S
C550 C559 1.429 . S
C551 C549 1.419 . S
C551 C552 1.363 . S
C551 H554 0.929 . S
C552 C551 1.363 . S
C552 C558 1.428 . S
H553 C549 0.930 . S
H554 C551 0.929 . S
S555 N556 1.613 . S
S555 N557 1.610 . S
N556 S555 1.613 . S
N556 C559 1.350 . S
N557 S555 1.610 . S
N557 C558 1.351 . S
C558 C552 1.428 . S
C558 N557 1.351 . S
C558 C559 1.434 . S
C559 C550 1.429 . S
C559 N556 1.350 . S
C559 C558 1.434 . S
C560 C561 1.369 . S
C560 C562 1.419 . S
C560 H564 0.930 . S
C561 C560 1.369 . S
C561 C570 1.429 . S
C562 C560 1.419 . S
C562 C563 1.363 . S
C562 H565 0.929 . S
C563 C562 1.363 . S
C563 C569 1.428 . S
H564 C560 0.930 . S
H565 C562 0.929 . S
S566 N567 1.613 . S
S566 N568 1.610 . S
N567 S566 1.613 . S
N567 C570 1.350 . S
N568 S566 1.610 . S
N568 C569 1.351 . S
C569 C563 1.428 . S
C569 N568 1.351 . S
C569 C570 1.434 . S
C570 C561 1.429 . S
C570 N567 1.350 . S
C570 C569 1.434 . S
C571 C572 1.369 . S
C571 C573 1.419 . S
C571 H575 0.930 . S
C572 C571 1.369 . S
C572 C581 1.429 . S
C573 C571 1.419 . S
C573 C574 1.363 . S
C573 H576 0.929 . S
C574 C573 1.363 . S
C574 C580 1.428 . S
H575 C571 0.930 . S
H576 C573 0.929 . S
S577 N578 1.613 . S
S577 N579 1.610 . S
N578 S577 1.613 . S
N578 C581 1.350 . S
N579 S577 1.610 . S
N579 C580 1.351 . S
C580 C574 1.428 . S
C580 N579 1.351 . S
C580 C581 1.434 . S
C581 C572 1.429 . S
C581 N578 1.350 . S
C581 C580 1.434 . S
C582 C583 1.369 . S
C582 C584 1.419 . S
C582 H586 0.930 . S
C583 C582 1.369 . S
C583 C592 1.429 . S
C584 C582 1.419 . S
C584 C585 1.363 . S
C584 H587 0.929 . S
C585 C584 1.363 . S
C585 C591 1.428 . S
H586 C582 0.930 . S
H587 C584 0.929 . S
S588 N589 1.613 . S
S588 N590 1.610 . S
N589 S588 1.613 . S
N589 C592 1.350 . S
N590 S588 1.610 . S
N590 C591 1.351 . S
C591 C585 1.428 . S
C591 N590 1.351 . S
C591 C592 1.434 . S
C592 C583 1.429 . S
C592 N589 1.350 . S
C592 C591 1.434 . S
C593 C594 1.369 . S
C593 C595 1.419 . S
C593 H597 0.930 . S
C594 C593 1.369 . S
C594 C603 1.429 . S
C595 C593 1.419 . S
C595 C596 1.363 . S
C595 H598 0.929 . S
C596 C595 1.363 . S
C596 C602 1.428 . S
H597 C593 0.930 . S
H598 C595 0.929 . S
S599 N600 1.613 . S
S599 N601 1.610 . S
N600 S599 1.613 . S
N600 C603 1.350 . S
N601 S599 1.610 . S
N601 C602 1.351 . S
C602 C596 1.428 . S
C602 N601 1.351 . S
C602 C603 1.434 . S
C603 C594 1.429 . S
C603 N600 1.350 . S
C603 C602 1.434 . S
C604 C605 1.369 . S
C604 C606 1.419 . S
C604 H608 0.930 . S
C605 C604 1.369 . S
C605 C614 1.429 . S
C606 C604 1.419 . S
C606 C607 1.363 . S
C606 H609 0.929 . S
C607 C606 1.363 . S
C607 C613 1.428 . S
H608 C604 0.930 . S
H609 C606 0.929 . S
S610 N611 1.613 . S
S610 N612 1.610 . S
N611 S610 1.613 . S
N611 C614 1.350 . S
N612 S610 1.610 . S
N612 C613 1.351 . S
C613 C607 1.428 . S
C613 N612 1.351 . S
C613 C614 1.434 . S
C614 C605 1.429 . S
C614 N611 1.350 . S
C614 C613 1.434 . S
C615 C616 1.369 . S
C615 C617 1.419 . S
C615 H619 0.930 . S
C616 C615 1.369 . S
C616 C625 1.429 . S
C617 C615 1.419 . S
C617 C618 1.363 . S
C617 H620 0.929 . S
C618 C617 1.363 . S
C618 C624 1.428 . S
H619 C615 0.930 . S
H620 C617 0.929 . S
S621 N622 1.613 . S
S621 N623 1.610 . S
N622 S621 1.613 . S
N622 C625 1.350 . S
N623 S621 1.610 . S
N623 C624 1.351 . S
C624 C618 1.428 . S
C624 N623 1.351 . S
C624 C625 1.434 . S
C625 C616 1.429 . S
C625 N622 1.350 . S
C625 C624 1.434 . S
C626 C627 1.369 . S
C626 C628 1.419 . S
C626 H630 0.930 . S
C627 C626 1.369 . S
C627 C636 1.429 . S
C628 C626 1.419 . S
C628 C629 1.363 . S
C628 H631 0.929 . S
C629 C628 1.363 . S
C629 C635 1.428 . S
H630 C626 0.930 . S
H631 C628 0.929 . S
S632 N633 1.613 . S
S632 N634 1.610 . S
N633 S632 1.613 . S
N633 C636 1.350 . S
N634 S632 1.610 . S
N634 C635 1.351 . S
C635 C629 1.428 . S
C635 N634 1.351 . S
C635 C636 1.434 . S
C636 C627 1.429 . S
C636 N633 1.350 . S
C636 C635 1.434 . S
C637 C638 1.369 . S
C637 C639 1.419 . S
C637 H641 0.930 . S
C638 C637 1.369 . S
C638 C647 1.429 . S
C639 C637 1.419 . S
C639 C640 1.363 . S
C639 H642 0.929 . S
C640 C639 1.363 . S
C640 C646 1.428 . S
H641 C637 0.930 . S
H642 C639 0.929 . S
S643 N644 1.613 . S
S643 N645 1.610 . S
N644 S643 1.613 . S
N644 C647 1.350 . S
N645 S643 1.610 . S
N645 C646 1.351 . S
C646 C640 1.428 . S
C646 N645 1.351 . S
C646 C647 1.434 . S
C647 C638 1.429 . S
C647 N644 1.350 . S
C647 C646 1.434 . S
C253 C244 1.596 . S
C255 C6 1.597 . S
C264 C216 1.598 . S
C266 C20 1.595 . S
C275 C230 1.597 . S
C277 C34 1.597 . S
C286 C104 1.595 . S
C288 C48 1.596 . S
C297 C118 1.596 . S
C299 C62 1.597 . S
C308 C76 1.597 . S
C310 C90 1.596 . S
C319 C132 1.597 . S
C321 C188 1.596 . S
C330 C146 1.596 . S
C332 C202 1.597 . S
C341 C160 1.594 . S
C343 C174 1.598 . S
C352 C9 1.077 . S
C354 C247 1.074 . S
C363 C219 1.082 . S
C365 C23 1.077 . S
C374 C37 1.073 . S
C376 C233 1.077 . S
C385 C107 1.079 . S
C387 C51 1.080 . S
C396 C65 1.073 . S
C398 C121 1.077 . S
C407 C79 1.083 . S
C409 C93 1.075 . S
C418 C135 1.072 . S
C420 C191 1.082 . S
C429 C205 1.081 . S
C431 C149 1.079 . S
C440 C177 1.073 . S
C442 C163 1.082 . S
C451 C8 1.746 . S
C453 C50 1.746 . S
C462 C64 1.745 . S
C464 C22 1.745 . S
C473 C78 1.746 . S
C475 C36 1.745 . S
C484 C77 1.649 . S
C486 C21 1.652 . S
C495 C35 1.650 . S
C497 C49 1.648 . S
C506 C63 1.647 . S
C508 C7 1.647 . S
C517 C92 1.744 . S
C519 C134 1.745 . S
C528 C148 1.746 . S
C530 C106 1.745 . S
C539 C162 1.746 . S
C541 C120 1.746 . S
C550 C161 1.654 . S
C552 C105 1.652 . S
C561 C119 1.650 . S
C563 C133 1.648 . S
C572 C147 1.650 . S
C574 C91 1.652 . S
C583 C218 1.744 . S
C585 C176 1.745 . S
C594 C232 1.744 . S
C596 C190 1.745 . S
C605 C204 1.746 . S
C607 C246 1.746 . S
C616 C245 1.653 . S
C618 C189 1.653 . S
C627 C203 1.649 . S
C629 C217 1.651 . S
C638 C231 1.647 . S
C640 C175 1.647 . S
