# Generated by pormake.
# Topology wlp, (5)-cn, num edge types: 1
# Building blocks:
#     Node 0, Type 0, BuildingBlock: XOMCOT_clean_sbu_1, # of connection points: 5
#     Node 1, Type 0, BuildingBlock: XOMCOT_clean_sbu_1, # of connection points: 5
#     Node 2, Type 0, BuildingBlock: XOMCOT_clean_sbu_1, # of connection points: 5
#     Node 3, Type 0, BuildingBlock: XOMCOT_clean_sbu_1, # of connection points: 5
#     Node 4, Type 0, BuildingBlock: XOMCOT_clean_sbu_1, # of connection points: 5
#     Node 5, Type 0, BuildingBlock: XOMCOT_clean_sbu_1, # of connection points: 5
#     Node 6, Type 0, BuildingBlock: XOMCOT_clean_sbu_1, # of connection points: 5
#     Node 7, Type 0, BuildingBlock: XOMCOT_clean_sbu_1, # of connection points: 5
#     Node 8, Type 0, BuildingBlock: XOMCOT_clean_sbu_1, # of connection points: 5
#     Node 9, Type 0, BuildingBlock: XOMCOT_clean_sbu_1, # of connection points: 5
#     Node 10, Type 0, BuildingBlock: XOMCOT_clean_sbu_1, # of connection points: 5
#     Node 11, Type 0, BuildingBlock: XOMCOT_clean_sbu_1, # of connection points: 5
#     Node 12, Type 0, BuildingBlock: XOMCOT_clean_sbu_1, # of connection points: 5
#     Node 13, Type 0, BuildingBlock: XOMCOT_clean_sbu_1, # of connection points: 5
#     Node 14, Type 0, BuildingBlock: XOMCOT_clean_sbu_1, # of connection points: 5
#     Node 15, Type 0, BuildingBlock: XOMCOT_clean_sbu_1, # of connection points: 5
#     Node 16, Type 0, BuildingBlock: XOMCOT_clean_sbu_1, # of connection points: 5
#     Node 17, Type 0, BuildingBlock: XOMCOT_clean_sbu_1, # of connection points: 5
#     Node 18, Type 0, BuildingBlock: XOMCOT_clean_sbu_1, # of connection points: 5
#     Node 19, Type 0, BuildingBlock: XOMCOT_clean_sbu_1, # of connection points: 5
#     Node 20, Type 0, BuildingBlock: XOMCOT_clean_sbu_1, # of connection points: 5
#     Node 21, Type 0, BuildingBlock: XOMCOT_clean_sbu_1, # of connection points: 5
#     Node 22, Type 0, BuildingBlock: XOMCOT_clean_sbu_1, # of connection points: 5
#     Node 23, Type 0, BuildingBlock: XOMCOT_clean_sbu_1, # of connection points: 5
#     Node 24, Type 0, BuildingBlock: XOMCOT_clean_sbu_1, # of connection points: 5
#     Node 25, Type 0, BuildingBlock: XOMCOT_clean_sbu_1, # of connection points: 5
#     Node 26, Type 0, BuildingBlock: XOMCOT_clean_sbu_1, # of connection points: 5
#     Node 27, Type 0, BuildingBlock: XOMCOT_clean_sbu_1, # of connection points: 5
#     Node 28, Type 0, BuildingBlock: XOMCOT_clean_sbu_1, # of connection points: 5
#     Node 29, Type 0, BuildingBlock: XOMCOT_clean_sbu_1, # of connection points: 5
#     Node 30, Type 0, BuildingBlock: XOMCOT_clean_sbu_1, # of connection points: 5
#     Node 31, Type 0, BuildingBlock: XOMCOT_clean_sbu_1, # of connection points: 5
#     Node 32, Type 0, BuildingBlock: XOMCOT_clean_sbu_1, # of connection points: 5
#     Node 33, Type 0, BuildingBlock: XOMCOT_clean_sbu_1, # of connection points: 5
#     Node 34, Type 0, BuildingBlock: XOMCOT_clean_sbu_1, # of connection points: 5
#     Node 35, Type 0, BuildingBlock: XOMCOT_clean_sbu_1, # of connection points: 5
#     Edge 36, Type (0, 0), BuildingBlock: OJICUG_clean_linker_0, # of connection points: 2
#     Edge 37, Type (0, 0), BuildingBlock: OJICUG_clean_linker_0, # of connection points: 2
#     Edge 38, Type (0, 0), BuildingBlock: OJICUG_clean_linker_0, # of connection points: 2
#     Edge 39, Type (0, 0), BuildingBlock: OJICUG_clean_linker_0, # of connection points: 2
#     Edge 40, Type (0, 0), BuildingBlock: OJICUG_clean_linker_0, # of connection points: 2
#     Edge 41, Type (0, 0), BuildingBlock: OJICUG_clean_linker_0, # of connection points: 2
#     Edge 42, Type (0, 0), BuildingBlock: OJICUG_clean_linker_0, # of connection points: 2
#     Edge 43, Type (0, 0), BuildingBlock: OJICUG_clean_linker_0, # of connection points: 2
#     Edge 44, Type (0, 0), BuildingBlock: OJICUG_clean_linker_0, # of connection points: 2
#     Edge 45, Type (0, 0), BuildingBlock: OJICUG_clean_linker_0, # of connection points: 2
#     Edge 46, Type (0, 0), BuildingBlock: OJICUG_clean_linker_0, # of connection points: 2
#     Edge 47, Type (0, 0), BuildingBlock: OJICUG_clean_linker_0, # of connection points: 2
#     Edge 48, Type (0, 0), BuildingBlock: OJICUG_clean_linker_0, # of connection points: 2
#     Edge 49, Type (0, 0), BuildingBlock: OJICUG_clean_linker_0, # of connection points: 2
#     Edge 50, Type (0, 0), BuildingBlock: OJICUG_clean_linker_0, # of connection points: 2
#     Edge 51, Type (0, 0), BuildingBlock: OJICUG_clean_linker_0, # of connection points: 2
#     Edge 52, Type (0, 0), BuildingBlock: OJICUG_clean_linker_0, # of connection points: 2
#     Edge 53, Type (0, 0), BuildingBlock: OJICUG_clean_linker_0, # of connection points: 2
#     Edge 54, Type (0, 0), BuildingBlock: OJICUG_clean_linker_0, # of connection points: 2
#     Edge 55, Type (0, 0), BuildingBlock: OJICUG_clean_linker_0, # of connection points: 2
#     Edge 56, Type (0, 0), BuildingBlock: OJICUG_clean_linker_0, # of connection points: 2
#     Edge 57, Type (0, 0), BuildingBlock: OJICUG_clean_linker_0, # of connection points: 2
#     Edge 58, Type (0, 0), BuildingBlock: OJICUG_clean_linker_0, # of connection points: 2
#     Edge 59, Type (0, 0), BuildingBlock: OJICUG_clean_linker_0, # of connection points: 2
#     Edge 60, Type (0, 0), BuildingBlock: OJICUG_clean_linker_0, # of connection points: 2
#     Edge 61, Type (0, 0), BuildingBlock: OJICUG_clean_linker_0, # of connection points: 2
#     Edge 62, Type (0, 0), BuildingBlock: OJICUG_clean_linker_0, # of connection points: 2
#     Edge 63, Type (0, 0), BuildingBlock: OJICUG_clean_linker_0, # of connection points: 2
#     Edge 64, Type (0, 0), BuildingBlock: OJICUG_clean_linker_0, # of connection points: 2
#     Edge 65, Type (0, 0), BuildingBlock: OJICUG_clean_linker_0, # of connection points: 2
#     Edge 66, Type (0, 0), BuildingBlock: OJICUG_clean_linker_0, # of connection points: 2
#     Edge 67, Type (0, 0), BuildingBlock: OJICUG_clean_linker_0, # of connection points: 2
#     Edge 68, Type (0, 0), BuildingBlock: OJICUG_clean_linker_0, # of connection points: 2
#     Edge 69, Type (0, 0), BuildingBlock: OJICUG_clean_linker_0, # of connection points: 2
#     Edge 70, Type (0, 0), BuildingBlock: OJICUG_clean_linker_0, # of connection points: 2
#     Edge 71, Type (0, 0), BuildingBlock: OJICUG_clean_linker_0, # of connection points: 2
#     Edge 72, Type (0, 0), BuildingBlock: OJICUG_clean_linker_0, # of connection points: 2
#     Edge 73, Type (0, 0), BuildingBlock: OJICUG_clean_linker_0, # of connection points: 2
#     Edge 74, Type (0, 0), BuildingBlock: OJICUG_clean_linker_0, # of connection points: 2
#     Edge 75, Type (0, 0), BuildingBlock: OJICUG_clean_linker_0, # of connection points: 2
#     Edge 76, Type (0, 0), BuildingBlock: OJICUG_clean_linker_0, # of connection points: 2
#     Edge 77, Type (0, 0), BuildingBlock: OJICUG_clean_linker_0, # of connection points: 2
#     Edge 78, Type (0, 0), BuildingBlock: OJICUG_clean_linker_0, # of connection points: 2
#     Edge 79, Type (0, 0), BuildingBlock: OJICUG_clean_linker_0, # of connection points: 2
#     Edge 80, Type (0, 0), BuildingBlock: OJICUG_clean_linker_0, # of connection points: 2
#     Edge 81, Type (0, 0), BuildingBlock: OJICUG_clean_linker_0, # of connection points: 2
#     Edge 82, Type (0, 0), BuildingBlock: OJICUG_clean_linker_0, # of connection points: 2
#     Edge 83, Type (0, 0), BuildingBlock: OJICUG_clean_linker_0, # of connection points: 2
#     Edge 84, Type (0, 0), BuildingBlock: OJICUG_clean_linker_0, # of connection points: 2
#     Edge 85, Type (0, 0), BuildingBlock: OJICUG_clean_linker_0, # of connection points: 2
#     Edge 86, Type (0, 0), BuildingBlock: OJICUG_clean_linker_0, # of connection points: 2
#     Edge 87, Type (0, 0), BuildingBlock: OJICUG_clean_linker_0, # of connection points: 2
#     Edge 88, Type (0, 0), BuildingBlock: OJICUG_clean_linker_0, # of connection points: 2
#     Edge 89, Type (0, 0), BuildingBlock: OJICUG_clean_linker_0, # of connection points: 2
#     Edge 90, Type (0, 0), BuildingBlock: OJICUG_clean_linker_0, # of connection points: 2
#     Edge 91, Type (0, 0), BuildingBlock: OJICUG_clean_linker_0, # of connection points: 2
#     Edge 92, Type (0, 0), BuildingBlock: OJICUG_clean_linker_0, # of connection points: 2
#     Edge 93, Type (0, 0), BuildingBlock: OJICUG_clean_linker_0, # of connection points: 2
#     Edge 94, Type (0, 0), BuildingBlock: OJICUG_clean_linker_0, # of connection points: 2
#     Edge 95, Type (0, 0), BuildingBlock: OJICUG_clean_linker_0, # of connection points: 2
#     Edge 96, Type (0, 0), BuildingBlock: OJICUG_clean_linker_0, # of connection points: 2
#     Edge 97, Type (0, 0), BuildingBlock: OJICUG_clean_linker_0, # of connection points: 2
#     Edge 98, Type (0, 0), BuildingBlock: OJICUG_clean_linker_0, # of connection points: 2
#     Edge 99, Type (0, 0), BuildingBlock: OJICUG_clean_linker_0, # of connection points: 2
#     Edge 100, Type (0, 0), BuildingBlock: OJICUG_clean_linker_0, # of connection points: 2
#     Edge 101, Type (0, 0), BuildingBlock: OJICUG_clean_linker_0, # of connection points: 2
#     Edge 102, Type (0, 0), BuildingBlock: OJICUG_clean_linker_0, # of connection points: 2
#     Edge 103, Type (0, 0), BuildingBlock: OJICUG_clean_linker_0, # of connection points: 2
#     Edge 104, Type (0, 0), BuildingBlock: OJICUG_clean_linker_0, # of connection points: 2
#     Edge 105, Type (0, 0), BuildingBlock: OJICUG_clean_linker_0, # of connection points: 2
#     Edge 106, Type (0, 0), BuildingBlock: OJICUG_clean_linker_0, # of connection points: 2
#     Edge 107, Type (0, 0), BuildingBlock: OJICUG_clean_linker_0, # of connection points: 2
#     Edge 108, Type (0, 0), BuildingBlock: OJICUG_clean_linker_0, # of connection points: 2
#     Edge 109, Type (0, 0), BuildingBlock: OJICUG_clean_linker_0, # of connection points: 2
#     Edge 110, Type (0, 0), BuildingBlock: OJICUG_clean_linker_0, # of connection points: 2
#     Edge 111, Type (0, 0), BuildingBlock: OJICUG_clean_linker_0, # of connection points: 2
#     Edge 112, Type (0, 0), BuildingBlock: OJICUG_clean_linker_0, # of connection points: 2
#     Edge 113, Type (0, 0), BuildingBlock: OJICUG_clean_linker_0, # of connection points: 2
#     Edge 114, Type (0, 0), BuildingBlock: OJICUG_clean_linker_0, # of connection points: 2
#     Edge 115, Type (0, 0), BuildingBlock: OJICUG_clean_linker_0, # of connection points: 2
#     Edge 116, Type (0, 0), BuildingBlock: OJICUG_clean_linker_0, # of connection points: 2
#     Edge 117, Type (0, 0), BuildingBlock: OJICUG_clean_linker_0, # of connection points: 2
#     Edge 118, Type (0, 0), BuildingBlock: OJICUG_clean_linker_0, # of connection points: 2
#     Edge 119, Type (0, 0), BuildingBlock: OJICUG_clean_linker_0, # of connection points: 2
#     Edge 120, Type (0, 0), BuildingBlock: OJICUG_clean_linker_0, # of connection points: 2
#     Edge 121, Type (0, 0), BuildingBlock: OJICUG_clean_linker_0, # of connection points: 2
#     Edge 122, Type (0, 0), BuildingBlock: OJICUG_clean_linker_0, # of connection points: 2
#     Edge 123, Type (0, 0), BuildingBlock: OJICUG_clean_linker_0, # of connection points: 2
#     Edge 124, Type (0, 0), BuildingBlock: OJICUG_clean_linker_0, # of connection points: 2
#     Edge 125, Type (0, 0), BuildingBlock: OJICUG_clean_linker_0, # of connection points: 2
# Relax obj value: 0.248
# Max RMSD: 0.193
# Mean RMSD: 0.190
data_MOF--net-wlp--node1-XOMCOT_clean_sbu_1--edge1-OJICUG_clean_linker_0
_symmetry_space_group_name_H-M    P1
_symmetry_Int_Tables_number       1
_symmetry_cell_setting            triclinic
loop_
_symmetry_equiv_pos_as_xyz
'x, y, z'
_cell_length_a     85.723875
_cell_length_b     85.554813
_cell_length_c     15.075967
_cell_angle_alpha  89.67186
_cell_angle_beta   90.239333
_cell_angle_gamma 120.18093
loop_
_atom_site_label
_atom_site_type_symbol
_atom_site_fract_x
_atom_site_fract_y
_atom_site_fract_z
_atom_type_partial_charge
C0 C 0.25531 0.17356 0.23325 0.0
C1 C 0.24319 0.15997 0.28739 0.0
N2 N 0.22909 0.14803 0.23755 0.0
N3 N 0.24895 0.17 0.14972 0.0
C4 C 0.23303 0.15457 0.15417 0.0
H5 H 0.2676 0.18553 0.2537 0.0
Co6 Co 0.25587 0.18509 0.05621 0.0
C7 C 0.24631 0.1562 0.90438 0.0
O8 O 0.23426 0.16034 0.877 0.0
N9 N 0.26292 0.20057 0.96104 0.0
C10 C 0.27954 0.21741 0.84821 0.0
C11 C 0.27418 0.20177 0.89536 0.0
C12 C 0.26152 0.2154 0.95231 0.0
N13 N 0.27174 0.22604 0.88525 0.0
O14 O 0.25337 0.20389 0.14293 0.0
H15 H 0.27907 0.19247 0.88546 0.0
H16 H 0.25325 0.21842 0.99482 0.0
O17 O 0.256 0.16482 0.97355 0.0
C18 C 0.2383 0.20122 0.17903 0.0
O19 O 0.22343 0.18662 0.15436 0.0
N20 N 0.28152 0.19537 0.08243 0.0
C21 C 0.31928 0.21322 0.04932 0.0
C22 C 0.30865 0.19418 0.05202 0.0
C23 C 0.28993 0.18557 0.06902 0.0
C24 C 0.29192 0.21376 0.0902 0.0
C25 C 0.31057 0.22287 0.07279 0.0
H26 H 0.28206 0.17099 0.06552 0.0
H27 H 0.28561 0.22181 0.10038 0.0
H28 H 0.22442 0.14837 0.09715 0.0
H29 H 0.24506 0.15856 0.35744 0.0
H30 H 0.28862 0.22218 0.79204 0.0
H31 H 0.31456 0.18586 0.03829 0.0
H32 H 0.31774 0.23749 0.07207 0.0
C33 C 0.86587 0.08998 0.2152 0.0
C34 C 0.88057 0.0931 0.26494 0.0
N35 N 0.89289 0.0927 0.21075 0.0
N36 N 0.86911 0.08793 0.13013 0.0
C37 C 0.88547 0.08947 0.12929 0.0
H38 H 0.85349 0.08885 0.2395 0.0
Co39 Co 0.85322 0.0789 0.04064 0.0
C40 C 0.88195 0.09872 0.88896 0.0
O41 O 0.88 0.08285 0.87063 0.0
N42 N 0.83708 0.06952 0.94908 0.0
C43 C 0.81856 0.06724 0.84017 0.0
C44 C 0.83392 0.07889 0.88595 0.0
C45 C 0.82402 0.05233 0.93879 0.0
N46 N 0.81224 0.05064 0.87516 0.0
O47 O 0.83616 0.05706 0.13331 0.0
H48 H 0.84171 0.09339 0.87695 0.0
H49 H 0.82325 0.0412 0.97669 0.0
O50 O 0.87213 0.09944 0.95306 0.0
C51 C 0.82078 0.04353 0.16217 0.0
O52 O 0.80598 0.03971 0.11903 0.0
N53 N 0.84271 0.09399 0.06897 0.0
C54 C 0.82586 0.11469 0.03378 0.0
C55 C 0.84475 0.12294 0.0412 0.0
C56 C 0.85288 0.11239 0.05893 0.0
C57 C 0.82433 0.08619 0.07347 0.0
C58 C 0.8157 0.09616 0.05453 0.0
H59 H 0.86743 0.11891 0.0575 0.0
H60 H 0.81606 0.07178 0.08119 0.0
H61 H 0.8918 0.08822 0.06988 0.0
H62 H 0.88243 0.09637 0.33488 0.0
H63 H 0.81238 0.07069 0.78656 0.0
H64 H 0.85328 0.13722 1.02736 0.0
H65 H 0.8011 0.08915 0.05212 0.0
C66 C 0.95301 0.78309 0.19377 0.0
C67 C 0.94209 0.788 0.23704 0.0
N68 N 0.93796 0.79757 0.18006 0.0
N69 N 0.95534 0.7894 0.10999 0.0
C70 C 0.94632 0.79838 0.10412 0.0
H71 H 0.9579 0.77452 0.21953 0.0
Co72 Co 0.96692 0.78597 1.01969 0.0
C73 C 0.93914 0.77879 0.85268 0.0
O74 O 0.94183 0.7663 0.81791 0.0
N75 N 0.97915 0.78305 0.92722 0.0
C76 C 0.99089 0.78488 0.79442 0.0
C77 C 0.98052 0.78952 0.84419 0.0
C78 C 0.98961 0.77545 0.92752 0.0
N79 N 0.99658 0.77598 0.84716 0.0
O80 O 0.98714 0.78836 0.11411 0.0
H81 H 0.97521 0.79797 0.82217 0.0
H82 H 0.99339 0.77098 0.98651 0.0
O83 O 0.94758 0.78635 0.92661 0.0
C84 C 0.9992 0.80349 0.1517 0.0
O85 O 0.99928 0.81824 0.12634 0.0
N86 N 0.95189 0.75952 0.03358 0.0
C87 C 0.93122 0.72139 1.01351 0.0
C88 C 0.92331 0.73225 1.0041 0.0
C89 C 0.93377 0.75114 1.01522 0.0
C90 C 0.95908 0.74886 0.05504 0.0
C91 C 0.94924 0.72998 0.04264 0.0
H92 H 0.92721 0.759 1.00689 0.0
H93 H 0.97263 0.75481 0.08023 0.0
H94 H 0.94461 0.80418 0.04353 0.0
H95 H 0.93606 0.78328 0.30179 0.0
H96 H 0.99543 0.78938 0.72726 0.0
H97 H 0.90928 0.72631 0.98486 0.0
H98 H 0.95577 0.72215 0.0556 0.0
C99 C 0.18052 0.24038 0.43492 0.0
C100 C 0.16332 0.23234 0.40123 0.0
N101 N 0.15164 0.22617 0.46963 0.0
N102 N 0.17953 0.23928 0.52404 0.0
C103 C 0.16183 0.23027 0.54296 0.0
H104 H 0.19289 0.24748 0.39724 0.0
Co105 Co 0.19796 0.24812 0.60354 0.0
C106 C 0.17223 0.24148 0.76704 0.0
O107 O 0.17378 0.22731 0.78576 0.0
N108 N 0.21637 0.25697 0.68491 0.0
C109 C 0.23669 0.27481 0.78425 0.0
C110 C 0.22087 0.27073 0.74206 0.0
C111 C 0.22921 0.25257 0.69503 0.0
N112 N 0.242 0.26356 0.75289 0.0
O113 O 0.21306 0.24187 0.50516 0.0
H114 H 0.21341 0.27773 0.75049 0.0
H115 H 0.22896 0.24125 0.66219 0.0
O116 O 0.18136 0.25143 0.69922 0.0
C117 C 0.22837 0.24423 0.47305 0.0
O118 O 0.24339 0.25621 0.51174 0.0
N119 N 0.2073 0.27299 0.56236 0.0
C120 C 0.22446 0.31135 0.57426 0.0
C121 C 0.2055 0.30021 0.57944 0.0
C122 C 0.19724 0.2812 0.57324 0.0
C123 C 0.22536 0.28363 0.54617 0.0
C124 C 0.23416 0.30257 0.55332 0.0
H125 H 0.18284 0.27307 0.58359 0.0
H126 H 0.23358 0.27757 0.53845 0.0
H127 H 0.15633 0.22784 0.60917 0.0
H128 H 0.15975 0.23281 0.33266 0.0
H129 H 0.24369 0.28511 0.83398 0.0
H130 H 0.197 0.30597 0.59141 0.0
H131 H 0.2487 0.30997 0.54855 0.0
C132 C 0.79343 0.94472 0.40864 0.0
C133 C 0.80516 0.9416 0.36103 0.0
N134 N 0.81731 0.94134 0.41763 0.0
N135 N 0.79806 0.94617 0.49476 0.0
C136 C 0.81266 0.94428 0.49838 0.0
H137 H 0.78248 0.94619 0.38228 0.0
Co138 Co 0.79051 0.95469 0.5831 0.0
C139 C 0.79872 0.93459 0.73732 0.0
O140 O 0.81238 0.95049 0.75859 0.0
N141 N 0.78306 0.96355 0.67355 0.0
C142 C 0.76649 0.96548 0.78112 0.0
C143 C 0.77007 0.95393 0.73414 0.0
C144 C 0.7876 0.98076 0.68669 0.0
N145 N 0.7773 0.98224 0.74923 0.0
O146 O 0.79567 0.97692 0.49093 0.0
H147 H 0.76309 0.93937 0.74102 0.0
H148 H 0.79842 0.99206 0.65172 0.0
O149 O 0.78862 0.93398 0.67076 0.0
C150 C 0.79304 0.99022 0.46656 0.0
O151 O 0.78146 0.99262 0.51249 0.0
N152 N 0.76508 0.93931 0.55051 0.0
C153 C 0.72721 0.91798 0.57897 0.0
C154 C 0.73826 0.91013 0.57579 0.0
C155 C 0.75702 0.92094 0.56073 0.0
C156 C 0.75428 0.94678 0.54284 0.0
C157 C 0.73557 0.93653 0.55784 0.0
H158 H 0.7652 0.91462 0.5639 0.0
H159 H 0.76024 0.96113 0.5357 0.0
H160 H 0.81969 0.94496 0.55933 0.0
H161 H 0.80415 0.93867 0.29078 0.0
H162 H 0.75665 0.96189 0.83349 0.0
H163 H 0.73264 0.89581 0.58784 0.0
H164 H 0.72804 0.94357 0.55911 0.0
C165 C 0.09624 0.86065 0.3982 0.0
C166 C 0.09834 0.87524 0.3504 0.0
N167 N 0.09791 0.88724 0.40692 0.0
N168 N 0.09472 0.86355 0.48442 0.0
C169 C 0.09557 0.87963 0.48791 0.0
H170 H 0.09549 0.84855 0.37185 0.0
Co171 Co 0.08706 0.84716 0.57273 0.0
C172 C 0.10642 0.87504 0.72863 0.0
O173 O 0.09023 0.87109 0.75452 0.0
N174 N 0.07918 0.83035 0.66325 0.0
C175 C 0.07965 0.81259 0.77037 0.0
C176 C 0.0897 0.82854 0.72487 0.0
C177 C 0.06286 0.81566 0.67341 0.0
N178 N 0.06291 0.8044 0.73616 0.0
O179 O 0.06517 0.82967 0.48132 0.0
H180 H 0.10398 0.83779 0.73367 0.0
H181 H 0.05103 0.8134 0.63691 0.0
O182 O 0.10748 0.86656 0.65921 0.0
C183 C 0.05246 0.81424 0.44822 0.0
O184 O 0.05001 0.79926 0.48539 0.0
N185 N 0.10309 0.83814 0.53818 0.0
C186 C 0.12419 0.82182 0.574 0.0
C187 C 0.13209 0.84075 0.56992 0.0
C188 C 0.12134 0.84863 0.5514 0.0
C189 C 0.09587 0.81987 0.5292 0.0
C190 C 0.10602 0.81148 0.54825 0.0
H191 H 0.12749 0.86315 0.55571 0.0
H192 H 0.08164 0.81134 0.51886 0.0
H193 H 0.0946 0.88569 0.54895 0.0
H194 H 0.10107 0.87731 0.27997 0.0
H195 H 0.08419 0.80743 0.82419 0.0
H196 H 0.14614 0.84943 0.58734 0.0
H197 H 0.09933 0.79686 0.54763 0.0
C198 C 0.78556 0.85734 0.29044 0.0
C199 C 0.79635 0.8706 0.34934 0.0
N200 N 0.81109 0.88322 0.30561 0.0
N201 N 0.79335 0.86183 0.20996 0.0
C202 C 0.8088 0.87757 0.221 0.0
H203 H 0.77331 0.84488 0.30606 0.0
Co204 Co 0.78857 0.84685 0.11703 0.0
C205 C 0.78825 0.86981 0.95203 0.0
O206 O 0.77454 0.85455 0.92469 0.0
N207 N 0.78375 0.83062 1.02232 0.0
C208 C 0.7708 0.80881 0.92067 0.0
C209 C 0.76849 0.82036 0.97461 0.0
C210 C 0.79506 0.82498 0.99516 0.0
N211 N 0.78746 0.81163 0.93504 0.0
O212 O 0.81331 0.8487 0.14307 0.0
H213 H 0.75622 0.82096 0.97825 0.0
H214 H 0.80876 0.83054 1.01813 0.0
O215 O 0.79642 0.86926 1.02498 0.0
C216 C 0.81164 0.83819 0.21024 0.0
O217 O 0.79543 0.82844 0.24414 0.0
N218 N 0.76432 0.84171 0.11642 0.0
C219 C 0.72706 0.82716 0.13618 0.0
C220 C 0.73816 0.84526 0.10922 0.0
C221 C 0.75695 0.85241 0.10072 0.0
C222 C 0.75385 0.82473 0.15027 0.0
C223 C 0.73527 0.81709 0.15867 0.0
H224 H 0.76544 0.86645 0.08259 0.0
H225 H 0.76002 0.81682 0.1686 0.0
H226 H 0.81852 0.88433 0.16851 0.0
H227 H 0.79331 0.8711 0.41851 0.0
H228 H 0.76093 0.79893 0.87572 0.0
H229 H 0.73238 0.85366 0.09386 0.0
H230 H 0.72734 0.80332 0.18271 0.0
C231 C 0.17991 0.93702 0.28345 0.0
C232 C 0.16665 0.93507 0.34058 0.0
N233 N 0.15494 0.93833 0.29535 0.0
N234 N 0.17637 0.94119 0.20243 0.0
C235 C 0.16111 0.94183 0.21149 0.0
H236 H 0.19181 0.9364 0.30113 0.0
Co237 Co 0.19212 0.9515 0.11139 0.0
C238 C 0.17012 0.93195 0.93806 0.0
O239 O 0.18578 0.93583 0.90476 0.0
N240 N 0.20885 0.96295 1.01897 0.0
C241 C 0.23104 0.97165 0.92055 0.0
C242 C 0.22063 0.95873 0.98188 0.0
C243 C 0.21241 0.9785 0.97805 0.0
N244 N 0.22594 0.98416 0.91863 0.0
O245 O 0.19205 0.97525 0.14019 0.0
H246 H 0.22165 0.94692 0.99627 0.0
H247 H 0.20553 0.98583 0.99297 0.0
O248 O 0.17017 0.93848 1.01681 0.0
C249 C 0.20186 0.98259 0.21123 0.0
O250 O 0.2102 0.97459 0.24496 0.0
N251 N 0.19556 0.93116 0.10844 0.0
C252 C 0.2068 0.90569 0.1292 0.0
C253 C 0.19072 0.9012 0.08401 0.0
C254 C 0.18499 0.91398 0.07678 0.0
C255 C 0.21079 0.93534 0.15568 0.0
C256 C 0.21665 0.9229 0.16668 0.0
H257 H 0.17202 0.90981 0.04736 0.0
H258 H 0.21868 0.94869 0.18384 0.0
H259 H 0.15508 0.94555 0.15831 0.0
H260 H 0.16549 0.93113 0.40966 0.0
H261 H 0.24149 0.97174 0.88018 0.0
H262 H 0.18248 0.88783 0.05623 0.0
H263 H 0.22907 0.92689 0.20256 0.0
C264 C 0.09662 0.26209 0.28154 0.0
C265 C 0.10029 0.25618 0.35974 0.0
N266 N 0.10334 0.24257 0.34057 0.0
N267 N 0.09776 0.25242 0.21427 0.0
C268 C 0.10194 0.2408 0.25182 0.0
H269 H 0.09231 0.27195 0.27458 0.0
Co270 Co 0.08807 0.24922 0.10418 0.0
C271 C 0.11744 0.25137 0.97481 0.0
O272 O 0.11413 0.2632 0.9361 0.0
N273 N 0.07691 0.24472 0.99361 0.0
C274 C 0.06556 0.23107 0.86496 0.0
C275 C 0.07699 0.23317 0.93294 0.0
C276 C 0.06407 0.2482 0.96406 0.0
N277 N 0.05745 0.24055 0.88457 0.0
O278 O 0.06777 0.2242 0.14875 0.0
H279 H 0.08378 0.22549 0.94005 0.0
H280 H 0.05873 0.25508 1.00251 0.0
O281 O 0.10783 0.24309 0.04611 0.0
C282 C 0.05643 0.22655 0.19699 0.0
O283 O 0.0589 0.24298 0.19953 0.0
N284 N 0.10467 0.27443 0.07922 0.0
C285 C 0.12529 0.31234 0.10408 0.0
C286 C 0.13256 0.3011 0.12209 0.0
C287 C 0.12219 0.28235 0.10825 0.0
C288 C 0.09775 0.28522 0.05726 0.0
C289 C 0.10791 0.30403 0.0662 0.0
H290 H 0.12775 0.27403 0.12899 0.0
H291 H 0.08384 0.27946 0.03916 0.0
H292 H 0.10331 0.23083 0.21425 0.0
H293 H 0.10027 0.26121 0.42541 0.0
H294 H 0.06225 0.22199 0.80928 0.0
H295 H 0.14573 0.30636 0.15205 0.0
H296 H 0.10161 0.31177 0.04717 0.0
C297 C 0.8465 0.76758 0.35899 0.0
C298 C 0.8559 0.7714 0.28064 0.0
N299 N 0.87286 0.78497 0.296 0.0
N300 N 0.85773 0.77848 0.42261 0.0
C301 C 0.87355 0.78884 0.38269 0.0
H302 H 0.83227 0.7581 0.36817 0.0
Co303 Co 0.85214 0.78339 0.53004 0.0
C304 C 0.88066 0.78489 0.6656 0.0
O305 O 0.8664 0.77551 0.7158 0.0
N306 N 0.8463 0.78923 0.63771 0.0
C307 C 0.84967 0.80602 0.7558 0.0
C308 C 0.85818 0.80389 0.68442 0.0
C309 C 0.8304 0.78326 0.67937 0.0
N310 N 0.83221 0.79307 0.75217 0.0
O311 O 0.85743 0.80814 0.47892 0.0
H312 H 0.87202 0.81302 0.66531 0.0
H313 H 0.81753 0.77285 0.65452 0.0
O314 O 0.87817 0.79005 0.58675 0.0
C315 C 0.84387 0.80594 0.42962 0.0
O316 O 0.82966 0.78963 0.42721 0.0
N317 N 0.8432 0.75868 0.56193 0.0
C318 C 0.826 0.72089 0.53778 0.0
C319 C 0.84489 0.73148 0.54412 0.0
C320 C 0.85322 0.75031 0.55478 0.0
C321 C 0.82484 0.74848 0.55759 0.0
C322 C 0.81601 0.72969 0.54721 0.0
H323 H 0.8677 0.75815 0.54805 0.0
H324 H 0.81695 0.75502 0.55093 0.0
H325 H 0.8853 0.79917 0.41701 0.0
H326 H 0.85068 0.76483 0.21753 0.0
H327 H 0.85547 0.81712 0.80241 0.0
H328 H 0.85327 0.72544 0.53626 0.0
H329 H 0.80149 0.72237 0.53909 0.0
C330 C 0.25505 0.09397 0.34836 0.0
C331 C 0.24323 0.09628 0.29618 0.0
N332 N 0.2292 0.09378 0.34691 0.0
N333 N 0.24859 0.0903 0.4317 0.0
C334 C 0.23289 0.09025 0.42889 0.0
H335 H 0.26714 0.09421 0.32615 0.0
Co336 Co 0.25522 0.0805 0.52054 0.0
C337 C 0.25283 0.09928 0.69645 0.0
O338 O 0.2648 0.09555 0.72913 0.0
N339 N 0.26159 0.06959 0.61092 0.0
C340 C 0.27593 0.06112 0.70585 0.0
C341 C 0.27798 0.07366 0.64299 0.0
C342 C 0.24986 0.05458 0.6562 0.0
N343 N 0.25822 0.04906 0.7137 0.0
O344 O 0.23173 0.05624 0.49348 0.0
H345 H 0.29078 0.08503 0.62358 0.0
H346 H 0.23543 0.04753 0.64565 0.0
O347 O 0.24627 0.09287 0.61752 0.0
C348 C 0.23432 0.0491 0.42235 0.0
O349 O 0.25059 0.0576 0.38802 0.0
N350 N 0.27874 0.10144 0.52145 0.0
C351 C 0.31528 0.12761 0.49954 0.0
C352 C 0.30373 0.13142 0.54892 0.0
C353 C 0.2853 0.11832 0.55675 0.0
C354 C 0.2897 0.09798 0.4698 0.0
C355 C 0.30791 0.11077 0.45811 0.0
H356 H 0.27654 0.12202 0.58995 0.0
H357 H 0.28429 0.08486 0.43921 0.0
H358 H 0.2241 0.08724 0.4855 0.0
H359 H 0.24518 0.10022 0.22693 0.0
H360 H 0.28668 0.06095 0.74288 0.0
H361 H 0.30884 0.1445 0.5799 0.0
H362 H 0.31629 0.10728 0.41905 0.0
C363 C 0.94704 0.17588 0.33728 0.0
C364 C 0.94445 0.16253 0.279 0.0
N365 N 0.94636 0.14985 0.32368 0.0
N366 N 0.95022 0.1714 0.41824 0.0
C367 C 0.94977 0.1556 0.40815 0.0
H368 H 0.94731 0.18835 0.32118 0.0
Co369 Co 0.96013 0.18634 0.51146 0.0
C370 C 0.93674 0.16318 0.67482 0.0
O371 O 0.93784 0.17832 0.70011 0.0
N372 N 0.97129 0.20256 0.60704 0.0
C373 C 0.97937 0.22339 0.71339 0.0
C374 C 0.96593 0.21236 0.65562 0.0
C375 C 0.98811 0.2081 0.63696 0.0
N376 N 0.99334 0.22079 0.70028 0.0
O377 O 0.98342 0.18509 0.48606 0.0
H378 H 0.95301 0.21163 0.65094 0.0
H379 H 0.99654 0.20292 0.61392 0.0
O380 O 0.94581 0.16381 0.6034 0.0
C381 C 0.9922 0.19552 0.41857 0.0
O382 O 0.98567 0.20519 0.38417 0.0
N383 N 0.94046 0.19069 0.51146 0.0
C384 C 0.9158 0.20288 0.49283 0.0
C385 C 0.90981 0.18474 0.5148 0.0
C386 C 0.92242 0.1788 0.5226 0.0
C387 C 0.94607 0.2078 0.48161 0.0
C388 C 0.93413 0.2143 0.47441 0.0
H389 H 0.91763 0.16471 0.53653 0.0
H390 H 0.96017 0.21669 0.46595 0.0
H391 H 0.9525 0.14877 0.46138 0.0
H392 H 0.94085 0.16194 0.20971 0.0
H393 H 0.97902 0.23274 0.76029 0.0
H394 H 0.89564 0.17537 0.5268 0.0
H395 H 0.93921 0.22823 0.45458 0.0
C396 C 0.92074 0.50507 0.54307 0.0
C397 C 0.90868 0.49052 0.59262 0.0
N398 N 0.89456 0.47951 0.54044 0.0
N399 N 0.91432 0.50306 0.45988 0.0
C400 C 0.89831 0.48762 0.46042 0.0
H401 H 0.93321 0.51648 0.56633 0.0
Co402 Co 0.9223 0.51979 0.37242 0.0
C403 C 0.91887 0.48408 0.2733 0.0
O404 O 0.91778 0.47592 0.34896 0.0
N405 N 0.9306 0.53693 0.28376 0.0
C406 C 0.94844 0.55468 0.17614 0.0
C407 C 0.94182 0.53825 0.21759 0.0
C408 C 0.93056 0.55258 0.2811 0.0
N409 N 0.94148 0.56373 0.21693 0.0
O410 O 0.92006 0.53782 0.46723 0.0
H411 H 0.94569 0.52832 0.20291 0.0
H412 H 0.9225 0.55566 0.32487 0.0
O413 O 0.92123 0.50044 0.27615 0.0
C414 C 0.90542 0.53404 0.5121 0.0
O415 O 0.89098 0.51834 0.49615 0.0
N416 N 0.94783 0.52878 0.40009 0.0
C417 C 0.98554 0.54639 0.36805 0.0
C418 C 0.97473 0.52743 0.36493 0.0
C419 C 0.95598 0.51892 0.3813 0.0
C420 C 0.95857 0.54697 0.41484 0.0
C421 C 0.97723 0.55599 0.39759 0.0
H422 H 0.94799 0.50453 0.37286 0.0
H423 H 0.95256 0.55507 0.43055 0.0
H424 H 0.88975 0.48221 0.40251 0.0
H425 H 0.91074 0.48766 0.66034 0.0
H426 H 0.95744 0.55948 0.11969 0.0
H427 H 0.98045 0.51927 0.34431 0.0
H428 H 0.98496 0.57057 0.40376 0.0
C429 C 0.53143 0.42343 0.55282 0.0
C430 C 0.54515 0.42518 0.60652 0.0
N431 N 0.55717 0.42335 0.55635 0.0
N432 N 0.53499 0.42081 0.46923 0.0
C433 C 0.55055 0.42067 0.47322 0.0
H434 H 0.51939 0.42348 0.57358 0.0
Co435 Co 0.51982 0.41244 0.37642 0.0
C436 C 0.54838 0.43198 0.22249 0.0
O437 O 0.54423 0.41582 0.19462 0.0
N438 N 0.50428 0.40368 0.2821 0.0
C439 C 0.48699 0.40212 0.16868 0.0
C440 C 0.50241 0.41325 0.21547 0.0
C441 C 0.49014 0.38693 0.27431 0.0
N442 N 0.47921 0.38567 0.207 0.0
O443 O 0.50108 0.39118 0.46451 0.0
H444 H 0.51116 0.42759 0.20432 0.0
H445 H 0.48791 0.37582 0.31719 0.0
O446 O 0.53989 0.43286 0.29225 0.0
C447 C 0.50368 0.37865 0.50037 0.0
O448 O 0.5182 0.3784 0.47525 0.0
N449 N 0.50979 0.42798 0.40123 0.0
C450 C 0.49321 0.44879 0.3646 0.0
C451 C 0.51209 0.45694 0.37169 0.0
C452 C 0.5201 0.44633 0.39018 0.0
C453 C 0.49142 0.42027 0.40586 0.0
C454 C 0.48292 0.43031 0.38624 0.0
H455 H 0.53464 0.45276 0.38902 0.0
H456 H 0.48305 0.40584 0.41517 0.0
H457 H 0.55681 0.4185 0.41604 0.0
H458 H 0.54659 0.42844 0.67644 0.0
H459 H 0.48183 0.40585 0.11167 0.0
H460 H 0.52069 0.47119 0.35718 0.0
H461 H 0.46832 0.42342 0.38426 0.0
C462 C 0.61713 0.11498 0.5289 0.0
C463 C 0.60547 0.11853 0.5745 0.0
N464 N 0.60088 0.12825 0.5211 0.0
N465 N 0.61946 0.12225 0.44716 0.0
C466 C 0.60967 0.13047 0.44487 0.0
H467 H 0.62243 0.10653 0.55123 0.0
Co468 Co 0.63138 0.11985 0.35513 0.0
C469 C 0.60415 0.11386 0.18778 0.0
O470 O 0.6072 0.10178 0.15084 0.0
N471 N 0.64391 0.11785 0.26146 0.0
C472 C 0.6557 0.12018 0.12826 0.0
C473 C 0.64565 0.12498 0.17968 0.0
C474 C 0.65389 0.10975 0.25963 0.0
N475 N 0.66076 0.11047 0.17891 0.0
O476 O 0.65144 0.12152 0.44867 0.0
H477 H 0.64057 0.13373 0.15944 0.0
H478 H 0.65726 0.10455 0.31728 0.0
O479 O 0.61227 0.12095 0.26303 0.0
C480 C 0.66353 0.13643 0.48783 0.0
O481 O 0.66368 0.15133 0.46478 0.0
N482 N 0.61628 0.0933 0.36317 0.0
C483 C 0.59544 0.0555 0.33304 0.0
C484 C 0.58771 0.06656 0.32718 0.0
C485 C 0.59823 0.08526 0.3436 0.0
C486 C 0.62319 0.08229 0.38206 0.0
C487 C 0.61329 0.06358 0.36455 0.0
H488 H 0.59177 0.09326 0.33832 0.0
H489 H 0.63657 0.08785 0.40918 0.0
H490 H 0.60766 0.1366 0.38624 0.0
H491 H 0.59931 0.1128 0.63795 0.0
H492 H 0.66026 0.1248 0.06127 0.0
H493 H 0.57379 0.06098 0.30667 0.0
H494 H 0.61962 0.05551 0.37542 0.0
C495 C 0.84852 0.58064 0.75577 0.0
C496 C 0.83205 0.5743 0.7156 0.0
N497 N 0.81912 0.5641 0.77485 0.0
N498 N 0.84575 0.57447 0.83982 0.0
C499 C 0.82781 0.56427 0.84903 0.0
H500 H 0.86145 0.59015 0.72775 0.0
Co501 Co 0.86134 0.57842 0.92904 0.0
C502 C 0.84185 0.58848 0.09111 0.0
O503 O 0.85713 0.60179 0.12162 0.0
N504 N 0.87684 0.58161 1.02178 0.0
C505 C 0.8876 0.58283 0.15705 0.0
C506 C 0.87233 0.57768 0.10789 0.0
C507 C 0.89471 0.58787 1.01975 0.0
N508 N 0.90177 0.58947 0.10134 0.0
O509 O 0.87755 0.57289 0.83512 0.0
H510 H 0.85874 0.57066 0.13352 0.0
H511 H 0.90225 0.59011 0.95949 0.0
O512 O 0.84252 0.57984 1.02112 0.0
C513 C 0.88799 0.57845 0.76454 0.0
O514 O 0.89285 0.59462 0.73331 0.0
N515 N 0.87374 0.60487 0.90937 0.0
C516 C 0.89176 0.6433 0.92774 0.0
C517 C 0.87277 0.63255 0.92968 0.0
C518 C 0.86413 0.61358 0.91982 0.0
C519 C 0.89198 0.61531 0.8968 0.0
C520 C 0.90117 0.6342 0.90772 0.0
H521 H 0.84958 0.60587 0.9235 0.0
H522 H 0.89992 0.60926 0.88101 0.0
H523 H 0.8211 0.55824 0.91103 0.0
H524 H 0.8297 0.57856 0.6516 0.0
H525 H 0.88798 0.58039 0.22735 0.0
H526 H 0.86446 0.63858 0.93982 0.0
H527 H 0.91573 0.64135 0.90342 0.0
C528 C 0.45983 0.27895 0.74119 0.0
C529 C 0.47182 0.27651 0.69191 0.0
N530 N 0.48459 0.27705 0.74683 0.0
N531 N 0.4649 0.28073 0.82674 0.0
C532 C 0.48001 0.27971 0.82833 0.0
H533 H 0.44848 0.2799 0.71621 0.0
Co534 Co 0.45767 0.28943 0.91563 0.0
C535 C 0.46534 0.26937 0.07169 0.0
O536 O 0.47831 0.28538 0.09663 0.0
N537 N 0.45057 0.29859 1.0065 0.0
C538 C 0.43441 0.30079 0.11533 0.0
C539 C 0.43811 0.28918 0.0696 0.0
C540 C 0.45457 0.31574 1.01632 0.0
N541 N 0.44457 0.31739 0.08018 0.0
O542 O 0.46274 0.31146 0.82366 0.0
H543 H 0.4315 0.2747 0.0789 0.0
H544 H 0.46477 0.32688 0.97791 0.0
O545 O 0.45577 0.2687 1.00274 0.0
C546 C 0.46019 0.32434 0.79159 0.0
O547 O 0.44786 0.32684 0.8294 0.0
N548 N 0.43213 0.2742 0.88471 0.0
C549 C 0.39454 0.25288 0.91774 0.0
C550 C 0.40541 0.24494 0.90987 0.0
C551 C 0.42409 0.25579 0.89302 0.0
C552 C 0.42132 0.28172 0.88067 0.0
C553 C 0.40271 0.27144 0.89824 0.0
H554 H 0.43229 0.24947 0.89403 0.0
H555 H 0.42727 0.29611 0.87483 0.0
H556 H 0.48753 0.28096 0.88831 0.0
H557 H 0.47066 0.27361 0.62161 0.0
H558 H 0.42489 0.2973 0.16918 0.0
H559 H 0.39982 0.23064 0.92273 0.0
H560 H 0.39494 0.27824 0.90088 0.0
C561 C 0.75934 0.19341 0.74022 0.0
C562 C 0.76387 0.20965 0.70117 0.0
N563 N 0.76593 0.22151 0.76534 0.0
N564 N 0.75867 0.19514 0.82844 0.0
C565 C 0.76245 0.21219 0.84186 0.0
H566 H 0.75689 0.18122 0.70682 0.0
Co567 Co 0.75092 0.17766 0.91159 0.0
C568 C 0.77014 0.20188 0.08162 0.0
O569 O 0.75442 0.19378 0.12169 0.0
N570 N 0.74298 0.15983 0.99691 0.0
C571 C 0.74265 0.14061 0.09791 0.0
C572 C 0.75322 0.15686 0.05557 0.0
C573 C 0.72638 0.14552 1.00552 0.0
N574 N 0.72589 0.1334 0.06448 0.0
O575 O 0.72932 0.16092 0.817 0.0
H576 H 0.76757 0.16567 0.06506 0.0
H577 H 0.7147 0.14427 0.97131 0.0
O578 O 0.77094 0.19648 1.00176 0.0
C579 C 0.71669 0.14565 0.78224 0.0
O580 O 0.71419 0.1305 0.8176 0.0
N581 N 0.76737 0.16942 0.87271 0.0
C582 C 0.78879 0.15297 0.90086 0.0
C583 C 0.79635 0.17193 0.90353 0.0
C584 C 0.78551 0.17984 0.88871 0.0
C585 C 0.76041 0.15135 0.85772 0.0
C586 C 0.77066 0.1429 0.87283 0.0
H587 H 0.79151 0.19427 0.89738 0.0
H588 H 0.74624 0.14284 0.84565 0.0
H589 H 0.76324 0.21785 0.90686 0.0
H590 H 0.7669 0.21287 0.63153 0.0
H591 H 0.74682 0.13469 0.14982 0.0
H592 H 0.81041 0.18067 0.92044 0.0
H593 H 0.76378 0.12832 0.86897 0.0
C594 C 0.45244 0.19466 0.62786 0.0
C595 C 0.46411 0.20807 0.68383 0.0
N596 N 0.47868 0.22 0.63667 0.0
N597 N 0.45951 0.19835 0.54571 0.0
C598 C 0.47541 0.21379 0.55294 0.0
H599 H 0.44013 0.18257 0.64688 0.0
Co600 Co 0.45361 0.18252 0.45543 0.0
C601 C 0.45593 0.20457 0.28179 0.0
O602 O 0.44379 0.18898 0.24868 0.0
N603 N 0.44774 0.16557 0.36425 0.0
C604 C 0.43419 0.14235 0.27044 0.0
C605 C 0.43176 0.15363 0.32623 0.0
C606 C 0.45957 0.16134 0.32934 0.0
N607 N 0.45167 0.14713 0.27425 0.0
O608 O 0.47768 0.18294 0.4819 0.0
H609 H 0.41898 0.15287 0.33793 0.0
H610 H 0.47384 0.16845 0.34381 0.0
O611 O 0.46246 0.20438 0.36042 0.0
C612 C 0.47586 0.17276 0.55071 0.0
O613 O 0.4598 0.16396 0.58706 0.0
N614 N 0.42984 0.17902 0.45344 0.0
C615 C 0.39307 0.16741 0.47382 0.0
C616 C 0.40459 0.18356 0.42837 0.0
C617 C 0.42313 0.18945 0.42124 0.0
C618 C 0.41887 0.16371 0.50075 0.0
C619 C 0.40055 0.15768 0.51166 0.0
H620 H 0.43188 0.20242 0.39115 0.0
H621 H 0.42443 0.15591 0.52905 0.0
H622 H 0.48477 0.21993 0.49846 0.0
H623 H 0.46181 0.20917 0.75348 0.0
H624 H 0.42389 0.13123 0.23237 0.0
H625 H 0.39937 0.19168 0.40014 0.0
H626 H 0.39218 0.14522 0.54765 0.0
C627 C 0.85142 0.27071 0.61401 0.0
C628 C 0.83973 0.26849 0.6813 0.0
N629 N 0.82652 0.27104 0.6478 0.0
N630 N 0.84537 0.2743 0.53854 0.0
C631 C 0.83029 0.27439 0.56082 0.0
H632 H 0.86389 0.27051 0.62041 0.0
Co633 Co 0.85764 0.28392 0.43638 0.0
C634 C 0.8293 0.26634 0.27576 0.0
O635 O 0.83925 0.28038 0.22498 0.0
N636 N 0.87067 0.29415 0.33244 0.0
C637 C 0.88449 0.29806 0.20282 0.0
C638 C 0.87393 0.28564 0.26582 0.0
C639 C 0.87955 0.31172 0.30871 0.0
N640 N 0.888 0.31447 0.22998 0.0
O641 O 0.85563 0.30671 0.46475 0.0
H642 H 0.86871 0.27123 0.26209 0.0
H643 H 0.87959 0.32231 0.34763 0.0
O644 O 0.83371 0.26733 0.3596 0.0
C645 C 0.8667 0.31553 0.53026 0.0
O646 O 0.87732 0.30952 0.55731 0.0
N647 N 0.86327 0.26523 0.4303 0.0
C648 C 0.87708 0.24185 0.45275 0.0
C649 C 0.8587 0.23503 0.43252 0.0
C650 C 0.85198 0.24698 0.42232 0.0
C651 C 0.8811 0.27199 0.44865 0.0
C652 C 0.88828 0.26067 0.45882 0.0
H653 H 0.83771 0.24153 0.41136 0.0
H654 H 0.88979 0.28641 0.45719 0.0
H655 H 0.82271 0.27764 0.51419 0.0
H656 H 0.84074 0.26489 0.74911 0.0
H657 H 0.88921 0.29521 0.14193 0.0
H658 H 0.8495 0.2206 0.42798 0.0
H659 H 0.90257 0.26672 0.47246 0.0
C660 C 0.7614 0.59749 0.59611 0.0
C661 C 0.76593 0.59231 0.67407 0.0
N662 N 0.76882 0.57855 0.65578 0.0
N663 N 0.76183 0.58722 0.52982 0.0
C664 C 0.76647 0.57599 0.5677 0.0
H665 H 0.75694 0.60723 0.58916 0.0
Co666 Co 0.75104 0.58291 0.42248 0.0
C667 C 0.77782 0.58178 0.28448 0.0
O668 O 0.77296 0.59135 0.23536 0.0
N669 N 0.73906 0.57758 0.31482 0.0
C670 C 0.7254 0.5611 0.19593 0.0
C671 C 0.73616 0.56306 0.26699 0.0
C672 C 0.72904 0.58364 0.27407 0.0
N673 N 0.72091 0.57401 0.20069 0.0
O674 O 0.73142 0.55806 0.47197 0.0
H675 H 0.74087 0.55389 0.28505 0.0
H676 H 0.72672 0.59405 0.29963 0.0
O677 O 0.77022 0.57638 0.36314 0.0
C678 C 0.72037 0.56037 0.52265 0.0
O679 O 0.7228 0.57678 0.5264 0.0
N680 N 0.76687 0.60771 0.39296 0.0
C681 C 0.78734 0.64522 0.42471 0.0
C682 C 0.79576 0.63488 0.41392 0.0
C683 C 0.7853 0.61613 0.39971 0.0
C684 C 0.75863 0.61775 0.40015 0.0
C685 C 0.76854 0.63642 0.41436 0.0
H686 H 0.79199 0.60832 0.40402 0.0
H687 H 0.74416 0.61107 0.40599 0.0
H688 H 0.76749 0.56573 0.53099 0.0
H689 H 0.76663 0.59793 0.73905 0.0
H690 H 0.72007 0.55015 0.14845 0.0
H691 H 0.81017 0.6409 0.42376 0.0
H692 H 0.76133 0.6437 0.42261 0.0
C693 C 0.50969 0.10048 0.70327 0.0
C694 C 0.51873 0.10321 0.62449 0.0
N695 N 0.53578 0.11684 0.63641 0.0
N696 N 0.52126 0.11209 0.76388 0.0
C697 C 0.53691 0.12186 0.72155 0.0
H698 H 0.49554 0.09106 0.71498 0.0
Co699 Co 0.51609 0.11754 0.8711 0.0
C700 C 0.54504 0.11963 1.00528 0.0
O701 O 0.53092 0.11045 0.0566 0.0
N702 N 0.51053 0.12388 0.97827 0.0
C703 C 0.51412 0.14135 0.09379 0.0
C704 C 0.52256 0.13863 1.02389 0.0
C705 C 0.4946 0.11848 1.01884 0.0
N706 N 0.49655 0.1287 0.09021 0.0
O707 O 0.52127 0.14207 0.81782 0.0
H708 H 0.53645 0.14749 1.00477 0.0
H709 H 0.48168 0.10817 0.994 0.0
O710 O 0.54233 0.12453 0.92619 0.0
C711 C 0.50776 0.1398 0.768 0.0
O712 O 0.49358 0.12348 0.76547 0.0
N713 N 0.50744 0.09295 0.90576 0.0
C714 C 0.49085 0.05515 0.8827 0.0
C715 C 0.50971 0.06609 0.88699 0.0
C716 C 0.51772 0.08489 0.89712 0.0
C717 C 0.48908 0.0824 0.90454 0.0
C718 C 0.48056 0.06359 0.89452 0.0
H719 H 0.53212 0.09292 0.88815 0.0
H720 H 0.48087 0.08862 0.89986 0.0
H721 H 0.54893 0.13244 0.75316 0.0
H722 H 0.51326 0.09575 0.56362 0.0
H723 H 0.52011 0.15262 0.13937 0.0
H724 H 0.51832 0.06035 0.87764 0.0
H725 H 0.466 0.05598 0.88844 0.0
C726 C 0.92428 0.42821 0.67351 0.0
C727 C 0.91386 0.43074 0.61222 0.0
N728 N 0.89788 0.42621 0.65011 0.0
N729 N 0.91499 0.42247 0.74993 0.0
C730 C 0.89897 0.42118 0.73346 0.0
H731 H 0.93752 0.42995 0.66238 0.0
Co732 Co 0.91961 0.41217 0.84458 0.0
C733 C 0.91134 0.44085 0.94241 0.0
O734 O 0.9124 0.44909 0.86701 0.0
N735 N 0.92401 0.40141 0.94112 0.0
C736 C 0.93306 0.3979 0.0741 0.0
C737 C 0.9342 0.41024 1.01231 0.0
C738 C 0.91677 0.38374 0.96118 0.0
N739 N 0.92195 0.38122 0.0422 0.0
O740 O 0.89528 0.38865 0.81676 0.0
H741 H 0.94152 0.42475 1.02042 0.0
H742 H 0.90711 0.37295 0.91943 0.0
O743 O 0.91199 0.42589 0.93957 0.0
C744 C 0.89771 0.38109 0.7466 0.0
O745 O 0.9141 0.38898 0.71366 0.0
N746 N 0.94401 0.43148 0.84843 0.0
C747 C 0.98135 0.45443 0.82402 0.0
C748 C 0.97044 0.46124 0.85455 0.0
C749 C 0.95175 0.44957 0.86578 0.0
C750 C 0.95451 0.42473 0.81976 0.0
C751 C 0.97305 0.4358 0.80802 0.0
H752 H 0.9438 0.45534 0.88635 0.0
H753 H 0.94829 0.41049 0.80461 0.0
H754 H 0.88824 0.41654 0.7819 0.0
H755 H 0.91805 0.43629 0.54617 0.0
H756 H 0.9395 0.40104 0.13855 0.0
H757 H 0.97618 0.47554 0.86717 0.0
H758 H 0.98079 0.4297 0.78625 0.0
C759 C 0.61048 0.50445 0.66744 0.0
C760 C 0.6082 0.49042 0.61491 0.0
N761 N 0.61056 0.47868 0.66547 0.0
N762 N 0.61394 0.50134 0.75077 0.0
C763 C 0.61392 0.48564 0.74769 0.0
H764 H 0.61044 0.51648 0.64556 0.0
Co765 Co 0.62401 0.51779 0.83834 0.0
C766 C 0.60505 0.49637 1.01505 0.0
O767 O 0.6088 0.51203 0.04805 0.0
N768 N 0.63527 0.53544 0.92696 0.0
C769 C 0.64426 0.55873 1.01971 0.0
C770 C 0.63046 0.54666 0.966 0.0
C771 C 0.65195 0.54101 0.95869 0.0
N772 N 0.65781 0.55525 1.01333 0.0
O773 O 0.64785 0.51771 0.81219 0.0
H774 H 0.61776 0.54626 0.95706 0.0
H775 H 0.65983 0.53475 0.94299 0.0
O776 O 0.61149 0.49641 0.93619 0.0
C777 C 0.65585 0.52755 0.74196 0.0
O778 O 0.64823 0.53593 0.70442 0.0
N779 N 0.60343 0.52077 0.83957 0.0
C780 C 0.57759 0.53156 0.82147 0.0
C781 C 0.5735 0.51558 0.86717 0.0
C782 C 0.58645 0.5101 0.87318 0.0
C783 C 0.60722 0.53584 0.7915 0.0
C784 C 0.59459 0.54148 0.78178 0.0
H785 H 0.58261 0.49726 0.90375 0.0
H786 H 0.62044 0.54383 0.76205 0.0
H787 H 0.61692 0.47972 0.80414 0.0
H788 H 0.60448 0.4887 0.54543 0.0
H789 H 0.64446 0.56939 0.0589 0.0
H790 H 0.56032 0.50727 0.89668 0.0
H791 H 0.5983 0.55384 0.7455 0.0
C792 C 0.5859 0.84016 0.88054 0.0
C793 C 0.57546 0.82422 0.925 0.0
N794 N 0.56418 0.81175 0.86621 0.0
N795 N 0.58117 0.8376 0.79441 0.0
C796 C 0.56789 0.82034 0.78764 0.0
H797 H 0.59638 0.85271 0.90856 0.0
Co798 Co 0.58873 0.85382 0.70532 0.0
C799 C 0.59664 0.82788 0.56503 0.0
O800 O 0.61432 0.83749 0.56486 0.0
N801 N 0.59647 0.8704 0.61348 0.0
C802 C 0.61388 0.8887 0.506 0.0
C803 C 0.60876 0.87293 0.55071 0.0
C804 C 0.59421 0.88476 0.60516 0.0
N805 N 0.60488 0.8962 0.54128 0.0
O806 O 0.58617 0.87234 0.79631 0.0
H807 H 0.61485 0.86478 0.54179 0.0
H808 H 0.58504 0.88687 0.64566 0.0
O809 O 0.58765 0.83334 0.61417 0.0
C810 C 0.57174 0.8685 0.8434 0.0
O811 O 0.55762 0.85232 0.83257 0.0
N812 N 0.61413 0.86343 0.73576 0.0
C813 C 0.65178 0.88018 0.70774 0.0
C814 C 0.64106 0.86128 0.71854 0.0
C815 C 0.62227 0.85319 0.73376 0.0
C816 C 0.62481 0.88185 0.74064 0.0
C817 C 0.64346 0.89043 0.7248 0.0
H818 H 0.61407 0.83861 0.73573 0.0
H819 H 0.61874 0.89021 0.74647 0.0
H820 H 0.56153 0.81397 0.72561 0.0
H821 H 0.57707 0.82159 0.99379 0.0
H822 H 0.62365 0.89437 0.45281 0.0
H823 H 0.64681 0.85269 0.70899 0.0
H824 H 0.65115 0.90505 0.72166 0.0
C825 C 0.19865 0.756 0.89257 0.0
C826 C 0.21262 0.75783 0.9445 0.0
N827 N 0.22499 0.75713 0.89189 0.0
N828 N 0.20235 0.75442 0.80765 0.0
C829 C 0.21824 0.75492 0.80907 0.0
H830 H 0.18642 0.75544 0.91524 0.0
Co831 Co 0.18703 0.74696 0.71521 0.0
C832 C 0.21542 0.76698 0.56275 0.0
O833 O 0.21114 0.75079 0.53481 0.0
N834 N 0.17149 0.73936 0.62024 0.0
C835 C 0.15528 0.74 0.50607 0.0
C836 C 0.16986 0.75023 0.55974 0.0
C837 C 0.15822 0.72268 0.6008 0.0
N838 N 0.14785 0.72281 0.53388 0.0
O839 O 0.16877 0.72438 0.80303 0.0
H840 H 0.17829 0.76478 0.55693 0.0
H841 H 0.15629 0.71062 0.63413 0.0
O842 O 0.20703 0.7679 0.63288 0.0
C843 C 0.15248 0.71121 0.82312 0.0
O844 O 0.13918 0.70926 0.77209 0.0
N845 N 0.17733 0.76262 0.74674 0.0
C846 C 0.1611 0.7841 0.71417 0.0
C847 C 0.18001 0.79189 0.72024 0.0
C848 C 0.1878 0.781 0.73721 0.0
C849 C 0.15903 0.75524 0.75191 0.0
C850 C 0.15072 0.76554 0.73473 0.0
H851 H 0.20233 0.78727 0.73591 0.0
H852 H 0.1505 0.74092 0.75852 0.0
H853 H 0.22472 0.75372 0.75015 0.0
H854 H 0.21399 0.7605 1.01504 0.0
H855 H 0.15037 0.74475 0.45202 0.0
H856 H 0.18886 0.80621 0.70885 0.0
H857 H 0.13615 0.7585 0.73127 0.0
C858 C 0.28548 0.44998 0.85767 0.0
C859 C 0.27471 0.45501 0.90154 0.0
N860 N 0.27087 0.46492 0.84539 0.0
N861 N 0.288 0.45655 0.77433 0.0
C862 C 0.27918 0.46575 0.76923 0.0
H863 H 0.29023 0.44125 0.88283 0.0
Co864 Co 0.29979 0.4534 0.68405 0.0
C865 C 0.27249 0.44671 0.51639 0.0
O866 O 0.27513 0.43413 0.48228 0.0
N867 N 0.31225 0.45078 0.59172 0.0
C868 C 0.32413 0.45268 0.4592 0.0
C869 C 0.31376 0.45735 0.50881 0.0
C870 C 0.32266 0.44313 0.59221 0.0
N871 N 0.32966 0.44365 0.51199 0.0
O872 O 0.31974 0.45539 0.77897 0.0
H873 H 0.30851 0.46585 0.4867 0.0
H874 H 0.32635 0.43858 0.65121 0.0
O875 O 0.28079 0.45422 0.59061 0.0
C876 C 0.33199 0.47048 0.81609 0.0
O877 O 0.33239 0.48534 0.79 0.0
N878 N 0.28459 0.42691 0.69536 0.0
C879 C 0.26374 0.38895 0.66954 0.0
C880 C 0.25595 0.39995 0.66263 0.0
C881 C 0.2665 0.41875 0.67661 0.0
C882 C 0.29162 0.41602 0.71484 0.0
C883 C 0.2817 0.39723 0.69945 0.0
H884 H 0.26006 0.42676 0.66988 0.0
H885 H 0.3051 0.42172 0.74071 0.0
H886 H 0.2777 0.47187 0.70919 0.0
H887 H 0.26868 0.45028 0.96628 0.0
H888 H 0.32872 0.45716 0.39209 0.0
H889 H 0.24196 0.39421 0.64305 0.0
H890 H 0.28811 0.38924 0.71067 0.0
C891 C 0.51172 0.90902 0.08676 0.0
C892 C 0.4945 0.90104 0.05352 0.0
N893 N 0.48284 0.89384 0.12167 0.0
N894 N 0.51079 0.90682 0.17539 0.0
C895 C 0.4931 0.89721 0.19432 0.0
H896 H 0.52396 0.91704 0.04953 0.0
Co897 Co 0.52877 0.9152 0.2572 0.0
C898 C 0.50639 0.92708 0.4022 0.0
O899 O 0.51634 0.94474 0.39642 0.0
N900 N 0.5468 0.92352 0.34172 0.0
C901 C 0.56679 0.94148 0.44205 0.0
C902 C 0.55073 0.93671 0.40166 0.0
C903 C 0.56059 0.92037 0.34743 0.0
N904 N 0.57305 0.93133 0.40694 0.0
O905 O 0.54443 0.9089 0.16229 0.0
H906 H 0.54322 0.94346 0.41164 0.0
H907 H 0.5615 0.91024 0.30872 0.0
O908 O 0.51081 0.91715 0.35402 0.0
C909 C 0.55439 0.91403 0.08994 0.0
O910 O 0.5587 0.92986 0.05594 0.0
N911 N 0.53891 0.94024 0.21742 0.0
C912 C 0.55639 0.97853 0.22849 0.0
C913 C 0.53739 0.96773 0.2233 0.0
C914 C 0.52896 0.94868 0.21704 0.0
C915 C 0.55729 0.95064 0.21011 0.0
C916 C 0.56619 0.96953 0.21718 0.0
H917 H 0.51439 0.94068 0.21943 0.0
H918 H 0.56546 0.94432 0.20955 0.0
H919 H 0.48767 0.89399 0.2608 0.0
H920 H 0.49086 0.90242 0.98624 0.0
H921 H 0.57343 0.95166 0.49274 0.0
H922 H 0.52896 0.97378 0.22767 0.0
H923 H 0.58077 0.97675 0.22027 0.0
C924 C 0.12877 0.61174 0.08968 0.0
C925 C 0.13925 0.60557 0.05301 0.0
N926 N 0.14987 0.60479 0.11713 0.0
N927 N 0.13281 0.61481 0.17641 0.0
C928 C 0.14573 0.61059 0.19114 0.0
H929 H 0.11833 0.613 0.05615 0.0
Co930 Co 0.12491 0.6244 0.25919 0.0
C931 C 0.11447 0.59147 0.40976 0.0
O932 O 0.09699 0.58503 0.4117 0.0
N933 N 0.11738 0.63456 0.34417 0.0
C934 C 0.10056 0.63893 0.44139 0.0
C935 C 0.104 0.62638 0.40455 0.0
C936 C 0.12208 0.65204 0.34674 0.0
N937 N 0.11182 0.65501 0.40387 0.0
O938 O 0.12992 0.6459 0.1633 0.0
H939 H 0.09612 0.6121 0.41622 0.0
H940 H 0.13284 0.66242 0.30721 0.0
O941 O 0.12426 0.60508 0.35626 0.0
C942 C 0.12391 0.64902 0.08903 0.0
O943 O 0.10868 0.63585 0.05737 0.0
N944 N 0.09954 0.60871 0.22596 0.0
C945 C 0.06153 0.58669 0.24673 0.0
C946 C 0.0728 0.5791 0.23975 0.0
C947 C 0.09166 0.59029 0.22865 0.0
C948 C 0.0886 0.61607 0.22019 0.0
C949 C 0.06982 0.60548 0.23209 0.0
H950 H 0.10006 0.58419 0.22997 0.0
H951 H 0.09448 0.63058 0.21688 0.0
H952 H 0.15136 0.61087 0.25591 0.0
H953 H 0.13786 0.60032 0.98645 0.0
H954 H 0.09038 0.63638 0.49059 0.0
H955 H 0.06728 0.56467 0.24638 0.0
H956 H 0.06221 0.61239 0.236 0.0
C957 C 0.42944 0.52688 0.06232 0.0
C958 C 0.43043 0.54084 1.01296 0.0
N959 N 0.42885 0.5524 0.06794 0.0
N960 N 0.42751 0.52977 0.14807 0.0
C961 C 0.42702 0.54521 0.14968 0.0
H962 H 0.42949 0.51509 0.03714 0.0
Co963 Co 0.41991 0.5134 0.23655 0.0
C964 C 0.43928 0.54101 0.39296 0.0
O965 O 0.42303 0.53692 0.41852 0.0
N966 N 0.41205 0.49659 0.32694 0.0
C967 C 0.41248 0.47873 0.43362 0.0
C968 C 0.4226 0.49463 0.38791 0.0
C969 C 0.39568 0.48203 0.33765 0.0
N970 N 0.39569 0.4707 0.40009 0.0
O971 O 0.39789 0.49603 0.14551 0.0
H972 H 0.43691 0.50378 0.39622 0.0
H973 H 0.38383 0.47992 0.30185 0.0
O974 O 0.44046 0.53272 0.32296 0.0
C975 C 0.385 0.48067 0.11283 0.0
O976 O 0.38229 0.46563 0.15054 0.0
N977 N 0.43572 0.50418 0.20115 0.0
C978 C 0.45668 0.48733 0.23031 0.0
C979 C 0.46461 0.50634 0.22924 0.0
C980 C 0.45398 0.51445 0.21397 0.0
C981 C 0.42829 0.48593 0.19061 0.0
C982 C 0.43834 0.4773 0.20611 0.0
H983 H 0.46029 0.52897 0.21941 0.0
H984 H 0.41402 0.47755 0.18147 0.0
H985 H 0.42524 0.55098 0.20982 0.0
H986 H 0.43304 0.54276 0.9424 0.0
H987 H 0.417 0.4735 0.48721 0.0
H988 H 0.47882 0.51498 0.24344 0.0
H989 H 0.43121 0.46269 0.20558 0.0
C990 C 0.11345 0.51738 0.96227 0.0
C991 C 0.12233 0.52838 0.033 0.0
N992 N 0.13756 0.54298 1.00288 0.0
N993 N 0.12288 0.5252 0.8881 0.0
C994 C 0.13737 0.54062 0.91443 0.0
H995 H 0.10141 0.50418 0.96512 0.0
Co996 Co 0.12115 0.51454 0.78222 0.0
C997 C 0.13536 0.54647 0.63621 0.0
O998 O 0.14502 0.54072 0.59539 0.0
N999 N 0.11937 0.50333 0.67536 0.0
C1000 C 0.11134 0.49219 0.5396 0.0
C1001 C 0.11025 0.50324 0.6019 0.0
C1002 C 0.12573 0.49224 0.65672 0.0
N1003 N 0.12108 0.48526 0.57444 0.0
O1004 O 0.14635 0.51758 0.80992 0.0
H1005 H 0.10314 0.51062 0.59439 0.0
H1006 H 0.13394 0.48965 0.70218 0.0
O1007 O 0.12772 0.5387 0.71106 0.0
C1008 C 0.14453 0.50556 0.86966 0.0
O1009 O 0.12798 0.49348 0.89238 0.0
N1010 N 0.09661 0.50812 0.77341 0.0
C1011 C 0.05922 0.494 0.78033 0.0
C1012 C 0.07119 0.51277 0.78388 0.0
C1013 C 0.08993 0.5196 0.7802 0.0
C1014 C 0.08514 0.48988 0.7728 0.0
C1015 C 0.06649 0.48258 0.77451 0.0
H1016 H 0.09904 0.53398 0.78614 0.0
H1017 H 0.09054 0.48086 0.77225 0.0
H1018 H 0.14785 0.5495 0.86899 0.0
H1019 H 0.11771 0.52577 0.10097 0.0
H1020 H 0.10548 0.48957 0.47386 0.0
H1021 H 0.06612 0.52204 0.78977 0.0
H1022 H 0.0578 0.46802 0.77397 0.0
C1023 C 0.50873 0.60143 0.95977 0.0
C1024 C 0.49512 0.60014 1.01229 0.0
N1025 N 0.48405 0.60343 0.9617 0.0
N1026 N 0.50606 0.60522 0.8762 0.0
C1027 C 0.49094 0.60628 0.87926 0.0
H1028 H 0.52033 0.60073 0.98249 0.0
Co1029 Co 0.52283 0.6152 0.78891 0.0
C1030 C 0.50226 0.59711 0.60968 0.0
O1031 O 0.51814 0.60115 0.57844 0.0
N1032 N 0.54039 0.62628 0.70147 0.0
C1033 C 0.56552 0.63773 0.6213 0.0
C1034 C 0.55524 0.62509 0.68417 0.0
C1035 C 0.54189 0.63958 0.64745 0.0
N1036 N 0.55708 0.6468 0.59861 0.0
O1037 O 0.52346 0.63947 0.81434 0.0
H1038 H 0.55901 0.61623 0.71658 0.0
H1039 H 0.53252 0.64457 0.64742 0.0
O1040 O 0.50181 0.60301 0.68934 0.0
C1041 C 0.53282 0.64676 0.88664 0.0
O1042 O 0.54051 0.63844 0.92398 0.0
N1043 N 0.52552 0.59428 0.78827 0.0
C1044 C 0.53698 0.56888 0.80621 0.0
C1045 C 0.52213 0.56528 0.75229 0.0
C1046 C 0.51623 0.57794 0.74639 0.0
C1047 C 0.53923 0.59734 0.84501 0.0
C1048 C 0.54517 0.58494 0.85486 0.0
H1049 H 0.50422 0.57432 0.70872 0.0
H1050 H 0.5462 0.61003 0.88028 0.0
H1051 H 0.48554 0.60989 0.82281 0.0
H1052 H 0.49331 0.59662 0.08206 0.0
H1053 H 0.5785 0.64048 0.5964 0.0
H1054 H 0.51508 0.55274 0.71566 0.0
H1055 H 0.55661 0.58827 0.8976 0.0
C1056 C 0.42892 0.93145 0.93845 0.0
C1057 C 0.43308 0.92583 1.01622 0.0
N1058 N 0.43563 0.9119 0.99715 0.0
N1059 N 0.42924 0.92125 0.87145 0.0
C1060 C 0.43352 0.90969 0.90878 0.0
H1061 H 0.42463 0.94133 0.93222 0.0
Co1062 Co 0.41826 0.91712 0.76423 0.0
C1063 C 0.44501 0.9165 0.62444 0.0
O1064 O 0.4402 0.92627 0.57669 0.0
N1065 N 0.40619 0.91192 0.65678 0.0
C1066 C 0.39264 0.8955 0.53755 0.0
C1067 C 0.40332 0.89742 0.60887 0.0
C1068 C 0.39624 0.91804 0.61565 0.0
N1069 N 0.38818 0.90843 0.54209 0.0
O1070 O 0.39878 0.89218 0.81284 0.0
H1071 H 0.40803 0.88824 0.62698 0.0
H1072 H 0.39398 0.9285 0.64086 0.0
O1073 O 0.43747 0.91088 0.70306 0.0
C1074 C 0.38778 0.89448 0.86384 0.0
O1075 O 0.39028 0.91091 0.86814 0.0
N1076 N 0.43383 0.942 0.73582 0.0
C1077 C 0.45363 0.97949 0.769 0.0
C1078 C 0.46241 0.96952 0.75666 0.0
C1079 C 0.45228 0.95076 0.74174 0.0
C1080 C 0.42523 0.95168 0.74466 0.0
C1081 C 0.4348 0.97033 0.75955 0.0
H1082 H 0.45923 0.94319 0.74453 0.0
H1083 H 0.41076 0.94469 0.75121 0.0
H1084 H 0.43424 0.89931 0.87158 0.0
H1085 H 0.43358 0.93118 0.08169 0.0
H1086 H 0.38736 0.88457 0.48994 0.0
H1087 H 0.47687 0.97584 0.76566 0.0
H1088 H 0.42732 0.97729 0.76896 0.0
C1089 C 0.18008 0.43795 1.02344 0.0
C1090 C 0.18957 0.44198 0.94529 0.0
N1091 N 0.20665 0.45519 0.96178 0.0
N1092 N 0.19136 0.44837 0.08809 0.0
C1093 C 0.20728 0.45873 0.04894 0.0
H1094 H 0.16585 0.42846 0.03239 0.0
Co1095 Co 0.18546 0.45202 0.19768 0.0
C1096 C 0.21429 0.452 0.32535 0.0
O1097 O 0.20003 0.44042 0.37069 0.0
N1098 N 0.17888 0.45657 0.3072 0.0
C1099 C 0.17931 0.46896 0.43695 0.0
C1100 C 0.18966 0.46738 0.37278 0.0
C1101 C 0.16222 0.45304 0.32984 0.0
N1102 N 0.16208 0.4599 0.4096 0.0
O1103 O 0.18987 0.47681 0.15059 0.0
H1104 H 0.20421 0.47497 0.37152 0.0
H1105 H 0.15065 0.44667 0.2861 0.0
O1106 O 0.2117 0.45913 0.2528 0.0
C1107 C 0.17625 0.4747 0.10192 0.0
O1108 O 0.16206 0.45838 0.09902 0.0
N1109 N 0.17777 0.42716 0.22654 0.0
C1110 C 0.16207 0.38924 0.20779 0.0
C1111 C 0.18037 0.40115 0.18783 0.0
C1112 C 0.18795 0.41987 0.19869 0.0
C1113 C 0.16028 0.41578 0.25089 0.0
C1114 C 0.15242 0.39696 0.24471 0.0
H1115 H 0.20165 0.42859 0.17632 0.0
H1116 H 0.15171 0.42101 0.26927 0.0
H1117 H 0.21912 0.4686 0.08442 0.0
H1118 H 0.18434 0.43564 0.88174 0.0
H1119 H 0.1842 0.47758 0.49479 0.0
H1120 H 0.18869 0.3964 0.1584 0.0
H1121 H 0.13853 0.38873 0.26521 0.0
C1122 C 0.5964 0.75706 1.02034 0.0
C1123 C 0.58794 0.76076 0.95263 0.0
N1124 N 0.57241 0.75903 0.98426 0.0
N1125 N 0.58635 0.75339 0.09405 0.0
C1126 C 0.57191 0.75458 0.07027 0.0
H1127 H 0.60877 0.75664 1.01586 0.0
Co1128 Co 0.58766 0.7435 0.19808 0.0
C1129 C 0.57388 0.76107 0.34647 0.0
O1130 O 0.5648 0.74579 0.39042 0.0
N1131 N 0.58871 0.73304 0.30417 0.0
C1132 C 0.59569 0.72893 0.44107 0.0
C1133 C 0.59819 0.74157 0.37772 0.0
C1134 C 0.58049 0.7153 0.32442 0.0
N1135 N 0.5845 0.71249 0.4072 0.0
O1136 O 0.56282 0.72126 0.16525 0.0
H1137 H 0.60635 0.75608 0.385 0.0
H1138 H 0.57189 0.70459 0.27929 0.0
O1139 O 0.58096 0.76072 0.27049 0.0
C1140 C 0.56553 0.71236 0.10226 0.0
O1141 O 0.58238 0.71813 0.08031 0.0
N1142 N 0.61221 0.76179 0.20991 0.0
C1143 C 0.64944 0.78545 0.18843 0.0
C1144 C 0.63741 0.79209 0.19264 0.0
C1145 C 0.61878 0.77999 0.20255 0.0
C1146 C 0.62375 0.75521 0.20799 0.0
C1147 C 0.64231 0.76674 0.19881 0.0
H1148 H 0.60959 0.78513 0.19812 0.0
H1149 H 0.61842 0.74076 0.21012 0.0
H1150 H 0.56102 0.75173 0.11546 0.0
H1151 H 0.59319 0.765 0.88627 0.0
H1152 H 0.60133 0.73159 0.50736 0.0
H1153 H 0.64219 0.80635 0.18347 0.0
H1154 H 0.65096 0.76091 0.19742 0.0
C1155 C 0.2779 0.83939 1.00615 0.0
C1156 C 0.27557 0.82549 0.95258 0.0
N1157 N 0.27783 0.81357 1.00214 0.0
N1158 N 0.2813 0.83605 0.08917 0.0
C1159 C 0.28117 0.8203 0.08489 0.0
H1160 H 0.27798 0.85152 0.98506 0.0
Co1161 Co 0.29143 0.85239 0.17734 0.0
C1162 C 0.27212 0.83103 0.35358 0.0
O1163 O 0.27593 0.84674 0.38619 0.0
N1164 N 0.30274 0.86998 0.26632 0.0
C1165 C 0.31175 0.89326 0.35916 0.0
C1166 C 0.29798 0.88124 0.30523 0.0
C1167 C 0.3194 0.87548 0.29829 0.0
N1168 N 0.32527 0.88971 0.35306 0.0
O1169 O 0.3151 0.85201 0.15205 0.0
H1170 H 0.28532 0.88092 0.29602 0.0
H1171 H 0.32725 0.8692 0.28259 0.0
O1172 O 0.2786 0.83099 0.27492 0.0
C1173 C 0.32323 0.86189 0.08215 0.0
O1174 O 0.3158 0.87046 0.04476 0.0
N1175 N 0.27107 0.8557 0.17779 0.0
C1176 C 0.24561 0.86686 0.1564 0.0
C1177 C 0.2412 0.85087 0.2028 0.0
C1178 C 0.25399 0.84519 0.21047 0.0
C1179 C 0.27519 0.87084 0.12952 0.0
C1180 C 0.26274 0.87665 0.11808 0.0
H1181 H 0.24994 0.83234 0.24146 0.0
H1182 H 0.28851 0.8787 0.10094 0.0
H1183 H 0.28413 0.81422 0.14079 0.0
H1184 H 0.27195 0.82401 0.883 0.0
H1185 H 0.31197 0.90394 0.3983 0.0
H1186 H 0.22791 0.8427 0.23146 0.0
H1187 H 0.26666 0.88901 0.08139 0.0
C1188 C 0.23946 0.12072 0.72064 0.0
C1189 C 0.25012 0.11333 0.74924 0.0
H1190 H 0.22992 0.13937 0.74483 0.0
C1191 C 0.25963 0.1205 0.83059 0.0
H1192 H 0.23199 0.11609 0.65909 0.0
C1193 C 0.25869 0.1342 0.88 0.0
C1194 C 0.24802 0.14156 0.85169 0.0
H1195 H 0.26818 0.11562 0.85676 0.0
H1196 H 0.26633 0.13896 0.94102 0.0
C1197 C 0.23838 0.13435 0.77068 0.0
C1198 C 0.91401 0.14809 0.80286 0.0
C1199 C 0.92322 0.14612 0.7287 0.0
H1200 H 0.89445 0.13585 0.90877 0.0
C1201 C 0.91837 0.12812 0.70871 0.0
H1202 H 0.9169 0.16144 0.82251 0.0
C1203 C 0.90517 0.11315 0.7601 0.0
C1204 C 0.89595 0.11524 0.83387 0.0
H1205 H 0.92466 0.12552 0.65302 0.0
H1206 H 0.90213 0.09971 0.74122 0.0
C1207 C 0.90081 0.1332 0.85353 0.0
C1208 C 0.90245 0.79199 0.79683 0.0
C1209 C 0.89852 0.78762 0.7053 0.0
H1210 H 0.91791 0.79331 0.91387 0.0
C1211 C 0.9092 0.78163 0.66287 0.0
H1212 H 0.89437 0.79616 0.83389 0.0
C1213 C 0.92254 0.77952 0.71014 0.0
C1214 C 0.92616 0.78346 0.80226 0.0
H1215 H 0.90651 0.77744 0.59419 0.0
H1216 H 0.92978 0.77421 0.67423 0.0
C1217 C 0.91604 0.79024 0.84372 0.0
C1218 C 0.14192 0.26023 0.85533 0.0
C1219 C 0.13197 0.24857 0.92753 0.0
H1220 H 0.16164 0.26755 0.75057 0.0
C1221 C 0.13606 0.23485 0.94686 0.0
H1222 H 0.13966 0.27115 0.83624 0.0
C1223 C 0.14909 0.23287 0.89602 0.0
C1224 C 0.1588 0.24447 0.8232 0.0
H1225 H 0.12904 0.22544 1.00044 0.0
H1226 H 0.15143 0.22194 0.91379 0.0
C1227 C 0.15485 0.25826 0.80491 0.0
C1228 C 0.78109 0.88502 0.82198 0.0
C1229 C 0.79191 0.88692 0.8981 0.0
H1230 H 0.77428 0.89741 0.71419 0.0
C1231 C 0.8049 0.90491 0.91978 0.0
H1232 H 0.77077 0.87168 0.80103 0.0
C1233 C 0.80689 0.91995 0.86817 0.0
C1234 C 0.79597 0.91795 0.79235 0.0
H1235 H 0.81352 0.90746 0.97696 0.0
H1236 H 0.81715 0.93337 0.88851 0.0
C1237 C 0.78301 0.9 0.77098 0.0
C1238 C 0.15555 0.9106 0.80434 0.0
C1239 C 0.15326 0.91779 0.88543 0.0
H1240 H 0.14373 0.89217 0.69373 0.0
C1241 C 0.13519 0.91039 0.91346 0.0
H1242 H 0.16899 0.91549 0.77852 0.0
C1243 C 0.12043 0.89676 0.86305 0.0
C1244 C 0.12282 0.88956 0.78225 0.0
H1245 H 0.13238 0.91504 0.97472 0.0
H1246 H 0.10693 0.89175 0.88833 0.0
C1247 C 0.14086 0.89691 0.75459 0.0
C1248 C 0.83229 0.93203 0.31093 0.0
C1249 C 0.82785 0.93301 0.39935 0.0
H1250 H 0.83009 0.91412 0.20837 0.0
C1251 C 0.82741 0.92034 0.4605 0.0
H1252 H 0.83393 0.9423 0.26347 0.0
C1253 C 0.8253 0.90413 0.42919 0.0
C1254 C 0.82376 0.90092 0.33754 0.0
H1255 H 0.82516 0.92123 0.53039 0.0
H1256 H 0.82183 0.8932 0.47587 0.0
C1257 C 0.83003 0.91577 0.27941 0.0
C1258 C 0.134 0.93278 0.41689 0.0
C1259 C 0.13741 0.93411 0.32542 0.0
H1260 H 0.11677 0.91569 0.51894 0.0
C1261 C 0.12268 0.92547 0.26704 0.0
H1262 H 0.14487 0.94033 0.46347 0.0
C1263 C 0.10637 0.91149 0.2991 0.0
C1264 C 0.10535 0.90612 0.38803 0.0
H1265 H 0.12455 0.92699 0.19593 0.0
H1266 H 0.09625 0.90269 0.25178 0.0
C1267 C 0.11775 0.91868 0.44868 0.0
C1268 C 0.13185 0.23775 0.50855 0.0
C1269 C 0.13431 0.22459 0.46596 0.0
H1270 H 0.11973 0.25415 0.50024 0.0
C1271 C 0.122 0.21359 0.40146 0.0
H1272 H 0.14117 0.24627 0.55942 0.0
C1273 C 0.10933 0.21778 0.36909 0.0
C1274 C 0.10958 0.2335 0.39842 0.0
H1275 H 0.12355 0.20315 0.36947 0.0
H1276 H 0.10091 0.21 0.31408 0.0
C1277 C 0.11957 0.24231 0.47437 0.0
C1278 C 0.92071 0.81094 0.23481 0.0
C1279 C 0.92166 0.79792 0.18392 0.0
H1280 H 0.90341 0.81763 0.30537 0.0
C1281 C 0.90596 0.78324 0.14941 0.0
H1282 H 0.93288 0.82246 0.26013 0.0
C1283 C 0.88921 0.78007 0.17724 0.0
C1284 C 0.88824 0.79166 0.23942 0.0
H1285 H 0.90676 0.77323 0.10902 0.0
H1286 H 0.87736 0.7675 0.15859 0.0
C1287 C 0.90394 0.80804 0.26072 0.0
C1288 C 0.213 0.10054 0.23404 0.0
C1289 C 0.21663 0.09954 0.324 0.0
H1290 H 0.21372 0.11812 0.13213 0.0
C1291 C 0.21381 0.11027 0.38472 0.0
H1292 H 0.21386 0.09157 0.18642 0.0
C1293 C 0.2136 0.12551 0.35367 0.0
C1294 C 0.21645 0.12977 0.26299 0.0
H1295 H 0.21539 0.10914 0.45531 0.0
H1296 H 0.21492 0.13555 0.40117 0.0
C1297 C 0.21289 0.11583 0.20303 0.0
C1298 C 0.91684 0.10137 0.32 0.0
C1299 C 0.91168 0.10049 0.23098 0.0
H1300 H 0.93308 0.11902 0.4226 0.0
C1301 C 0.92436 0.11273 0.17007 0.0
H1302 H 0.90777 0.09141 0.36742 0.0
C1303 C 0.93901 0.12861 0.20148 0.0
C1304 C 0.9407 0.13195 0.29299 0.0
H1305 H 0.92132 0.11188 0.09993 0.0
H1306 H 0.94693 0.13935 0.1547 0.0
C1307 C 0.93141 0.11729 0.35153 0.0
C1308 C 0.91381 0.44545 0.11474 0.0
C1309 C 0.91251 0.45129 1.02865 0.0
H1310 H 0.91674 0.45069 0.25534 0.0
C1311 C 0.91356 0.46848 1.02445 0.0
H1312 H 0.91332 0.43264 0.12311 0.0
C1313 C 0.91579 0.47918 0.10119 0.0
C1314 C 0.91705 0.47333 0.18727 0.0
H1315 H 0.9128 0.47393 0.96064 0.0
H1316 H 0.91646 0.49208 0.09275 0.0
C1317 C 0.91592 0.4561 0.19154 0.0
C1318 C 0.57025 0.46657 0.19861 0.0
C1319 C 0.56296 0.44857 0.16992 0.0
H1320 H 0.5887 0.49485 0.17571 0.0
C1321 C 0.57018 0.44641 0.08866 0.0
H1322 H 0.56547 0.46925 0.25984 0.0
C1323 C 0.58375 0.46135 0.03874 0.0
C1324 C 0.59105 0.47938 0.0677 0.0
H1325 H 0.56522 0.43296 0.06255 0.0
H1326 H 0.5884 0.45872 0.97699 0.0
C1327 C 0.58387 0.48145 0.14928 0.0
C1328 C 0.56694 0.12652 0.13578 0.0
C1329 C 0.56298 0.12239 0.04406 0.0
H1330 H 0.58256 0.12772 0.25192 0.0
C1331 C 0.57383 0.11677 1.00023 0.0
H1332 H 0.55877 0.13044 0.17383 0.0
C1333 C 0.58734 0.11476 0.04638 0.0
C1334 C 0.59097 0.11844 0.1387 0.0
H1335 H 0.57115 0.1128 0.93126 0.0
H1336 H 0.5947 0.10974 1.00939 0.0
C1337 C 0.58068 0.12485 0.18157 0.0
C1338 C 0.81012 0.58631 0.28356 0.0
C1339 C 0.79291 0.57916 0.24409 0.0
H1340 H 0.83832 0.5948 0.26831 0.0
C1341 C 0.79184 0.57389 0.15369 0.0
H1342 H 0.81209 0.59126 0.351 0.0
C1343 C 0.80704 0.5758 0.10526 0.0
C1344 C 0.82443 0.5837 0.14368 0.0
H1345 H 0.77916 0.56887 0.11862 0.0
H1346 H 0.80531 0.57193 0.03609 0.0
C1347 C 0.8254 0.58861 0.23466 0.0
C1348 C 0.44951 0.2197 0.14858 0.0
C1349 C 0.45917 0.22165 0.22909 0.0
H1350 H 0.44339 0.2321 0.03818 0.0
C1351 C 0.47068 0.23967 0.25648 0.0
H1352 H 0.44033 0.20631 0.12336 0.0
C1353 C 0.47246 0.25472 0.20592 0.0
C1354 C 0.46271 0.25268 0.12561 0.0
H1355 H 0.47834 0.24222 0.31729 0.0
H1356 H 0.48159 0.26816 0.23064 0.0
C1357 C 0.45116 0.23469 0.09865 0.0
C1358 C 0.78592 0.21937 0.22541 0.0
C1359 C 0.78618 0.21765 0.1314 0.0
H1360 H 0.7986 0.23495 0.34435 0.0
C1361 C 0.8011 0.23198 0.08778 0.0
H1362 H 0.77482 0.20889 0.26308 0.0
C1363 C 0.81462 0.24729 0.135 0.0
C1364 C 0.81432 0.24912 0.22893 0.0
H1365 H 0.8021 0.23168 1.01629 0.0
H1366 H 0.82551 0.25787 0.09677 0.0
C1367 C 0.79969 0.23452 0.27299 0.0
C1368 C 0.49459 0.24136 0.75633 0.0
C1369 C 0.49203 0.23773 0.66516 0.0
H1370 H 0.49498 0.25864 0.85795 0.0
C1371 C 0.4976 0.25232 0.60594 0.0
H1372 H 0.49171 0.23064 0.80344 0.0
C1373 C 0.4998 0.26857 0.63736 0.0
C1374 C 0.49594 0.26969 0.72666 0.0
H1375 H 0.49693 0.25033 0.53492 0.0
H1376 H 0.5007 0.27852 0.58973 0.0
C1377 C 0.49664 0.25755 0.78755 0.0
C1378 C 0.79123 0.25015 0.81509 0.0
C1379 C 0.7768 0.24072 0.75581 0.0
H1380 H 0.81955 0.26838 0.82534 0.0
C1381 C 0.77759 0.24839 0.67244 0.0
H1382 H 0.79072 0.24527 0.88201 0.0
C1383 C 0.79426 0.2614 0.63917 0.0
C1384 C 0.80989 0.26679 0.69058 0.0
H1385 H 0.76622 0.24198 0.62741 0.0
H1386 H 0.79499 0.2648 0.5696 0.0
C1387 C 0.80791 0.26324 0.7821 0.0
C1388 C 0.78894 0.5508 0.71325 0.0
C1389 C 0.80181 0.56243 0.77383 0.0
H1390 H 0.76655 0.54597 0.63272 0.0
C1391 C 0.7997 0.57581 0.81593 0.0
H1392 H 0.79036 0.54024 0.68169 0.0
C1393 C 0.78678 0.57977 0.78512 0.0
C1394 C 0.77589 0.57015 0.71283 0.0
H1395 H 0.80962 0.58479 0.86361 0.0
H1396 H 0.78704 0.59173 0.81003 0.0
C1397 C 0.7756 0.55434 0.68464 0.0
C1398 C 0.55182 0.10935 0.5268 0.0
C1399 C 0.55095 0.1223 0.5797 0.0
H1400 H 0.56931 0.10139 0.46686 0.0
C1401 C 0.56658 0.1392 0.59329 0.0
H1402 H 0.53998 0.0963 0.51472 0.0
C1403 C 0.5833 0.14183 0.56804 0.0
C1404 C 0.58422 0.12783 0.52655 0.0
H1405 H 0.56607 0.14962 0.63139 0.0
H1406 H 0.5955 0.15412 0.58667 0.0
C1407 C 0.5685 0.11213 0.50036 0.0
C1408 C 0.88428 0.43376 0.52673 0.0
C1409 C 0.88551 0.43159 0.61828 0.0
H1410 H 0.88515 0.45173 0.4263 0.0
C1411 C 0.87976 0.44041 0.67679 0.0
H1412 H 0.88768 0.42635 0.48007 0.0
C1413 C 0.87838 0.45503 0.64596 0.0
C1414 C 0.88291 0.46064 0.55761 0.0
H1415 H 0.87971 0.43843 0.74777 0.0
H1416 H 0.87749 0.46393 0.69391 0.0
C1417 C 0.88273 0.44829 0.496 0.0
C1418 C 0.57985 0.4308 0.67157 0.0
C1419 C 0.57552 0.42947 0.58104 0.0
H1420 H 0.59582 0.44905 0.77316 0.0
C1421 C 0.58925 0.4404 0.52084 0.0
H1422 H 0.56999 0.42168 0.71913 0.0
C1423 C 0.6042 0.4561 0.5517 0.0
C1424 C 0.60511 0.46045 0.64181 0.0
H1425 H 0.58692 0.43903 0.45 0.0
H1426 H 0.61293 0.46623 0.50397 0.0
C1427 C 0.59475 0.44655 0.70251 0.0
C1428 C 0.59765 0.81152 0.42439 0.0
C1429 C 0.58835 0.81116 0.50315 0.0
H1430 H 0.60059 0.79723 0.31391 0.0
C1431 C 0.57321 0.7942 0.52458 0.0
H1432 H 0.60945 0.82405 0.40425 0.0
C1433 C 0.56826 0.77843 0.47219 0.0
C1434 C 0.57791 0.77875 0.39459 0.0
H1435 H 0.56567 0.79286 0.58432 0.0
H1436 H 0.55697 0.76571 0.49434 0.0
C1437 C 0.59251 0.7959 0.37137 0.0
C1438 C 0.23739 0.80154 0.53806 0.0
C1439 C 0.23 0.7835 0.50981 0.0
H1440 H 0.25592 0.82978 0.51437 0.0
C1441 C 0.23714 0.78122 0.42854 0.0
H1442 H 0.23268 0.80432 0.59927 0.0
C1443 C 0.25071 0.79607 0.37819 0.0
C1444 C 0.2581 0.81413 0.40668 0.0
H1445 H 0.2321 0.76773 0.40275 0.0
H1446 H 0.25529 0.79334 0.31649 0.0
C1447 C 0.25101 0.81633 0.48828 0.0
C1448 C 0.25638 0.44756 0.37269 0.0
C1449 C 0.25977 0.45155 0.4648 0.0
H1450 H 0.24052 0.44526 0.2559 0.0
C1451 C 0.24961 0.45842 0.50501 0.0
H1452 H 0.26363 0.44216 0.33773 0.0
C1453 C 0.23613 0.46017 0.45688 0.0
C1454 C 0.23242 0.45572 0.36535 0.0
H1455 H 0.25131 0.4615 0.57517 0.0
H1456 H 0.22787 0.46424 0.49305 0.0
C1457 C 0.24316 0.44964 0.32432 0.0
C1458 C 0.47224 0.90807 0.44417 0.0
C1459 C 0.49044 0.91987 0.46849 0.0
H1460 H 0.44396 0.89752 0.47366 0.0
C1461 C 0.49299 0.92807 0.5532 0.0
H1462 H 0.46926 0.90186 0.37927 0.0
C1463 C 0.47834 0.92518 0.60906 0.0
C1464 C 0.46013 0.91409 0.58321 0.0
H1465 H 0.50657 0.93763 0.57487 0.0
H1466 H 0.48135 0.93287 0.66984 0.0
C1467 C 0.45754 0.90549 0.49941 0.0
C1468 C 0.11628 0.56181 0.60358 0.0
C1469 C 0.13145 0.56002 0.58564 0.0
H1470 H 0.09936 0.57265 0.56494 0.0
C1471 C 0.14193 0.57003 0.51081 0.0
H1472 H 0.10755 0.55445 0.65859 0.0
C1473 C 0.13732 0.58092 0.45635 0.0
C1474 C 0.12172 0.58211 0.47259 0.0
H1475 H 0.15369 0.56918 0.49275 0.0
H1476 H 0.14564 0.58783 0.39936 0.0
C1477 C 0.11151 0.57238 0.54844 0.0
C1478 C 0.46748 0.57565 0.58133 0.0
C1479 C 0.48565 0.5832 0.55469 0.0
H1480 H 0.43932 0.5571 0.55373 0.0
C1481 C 0.48824 0.57637 0.47312 0.0
H1482 H 0.46445 0.58003 0.64287 0.0
C1483 C 0.47371 0.56287 0.42166 0.0
C1484 C 0.45556 0.55536 0.44803 0.0
H1485 H 0.50178 0.5814 0.44836 0.0
H1486 H 0.47678 0.55839 0.36056 0.0
C1487 C 0.4529 0.56223 0.52929 0.0
C1488 C 0.14562 0.56104 0.13972 0.0
C1489 C 0.14923 0.55935 0.0505 0.0
H1490 H 0.14377 0.57837 0.23459 0.0
C1491 C 0.16126 0.57516 1.00354 0.0
H1492 H 0.13764 0.5493 0.18091 0.0
C1493 C 0.16495 0.59191 0.03514 0.0
C1494 C 0.15684 0.59277 0.11378 0.0
H1495 H 0.16571 0.57466 0.93728 0.0
H1496 H 0.1714 0.60355 0.99145 0.0
C1497 C 0.1495 0.57785 0.17157 0.0
C1498 C 0.44609 0.58425 0.10779 0.0
C1499 C 0.43468 0.57094 0.0471 0.0
H1500 H 0.4726 0.60687 0.1246 0.0
C1501 C 0.43588 0.5759 0.95734 0.0
H1502 H 0.44476 0.58162 0.17845 0.0
C1503 C 0.45208 0.59025 0.92622 0.0
C1504 C 0.46633 0.59959 0.98644 0.0
H1505 H 0.42633 0.56654 0.90957 0.0
H1506 H 0.45442 0.59143 0.85539 0.0
C1507 C 0.46219 0.59875 0.07692 0.0
C1508 C 0.46401 0.90632 0.16319 0.0
C1509 C 0.46568 0.89263 0.12103 0.0
H1510 H 0.45289 0.9236 0.1548 0.0
C1511 C 0.45291 0.88171 0.05802 0.0
H1512 H 0.47375 0.91481 0.2127 0.0
C1513 C 0.4406 0.88645 1.02629 0.0
C1514 C 0.44165 0.90261 0.05476 0.0
H1515 H 0.45389 0.87092 1.02622 0.0
H1516 H 0.4318 0.87868 0.9723 0.0
C1517 C 0.4521 0.91142 0.12959 0.0
C1518 C 0.23829 0.47714 0.9296 0.0
C1519 C 0.22214 0.46138 0.90624 0.0
H1520 H 0.26719 0.49025 0.93006 0.0
C1521 C 0.22254 0.4497 0.84256 0.0
H1522 H 0.23827 0.48681 0.97548 0.0
C1523 C 0.23901 0.4521 0.81474 0.0
C1524 C 0.25502 0.46609 0.85066 0.0
H1525 H 0.21036 0.4376 0.82225 0.0
H1526 H 0.23928 0.44199 0.77283 0.0
C1527 C 0.25477 0.47924 0.90359 0.0
C1528 C 0.56331 0.76919 0.85145 0.0
C1529 C 0.56143 0.76525 0.94255 0.0
H1530 H 0.56512 0.78786 0.75263 0.0
C1531 C 0.55236 0.77171 0.99521 0.0
H1532 H 0.56915 0.76351 0.8078 0.0
C1533 C 0.54979 0.7855 0.96311 0.0
C1534 C 0.55626 0.79271 0.87889 0.0
H1535 H 0.54972 0.76832 0.06474 0.0
H1536 H 0.5456 0.79244 1.00866 0.0
C1537 C 0.56069 0.78297 0.8194 0.0
C1538 C 0.25695 0.77546 0.85504 0.0
C1539 C 0.24354 0.76399 0.9154 0.0
H1540 H 0.28002 0.80174 0.83857 0.0
C1541 C 0.24812 0.76529 1.00564 0.0
H1542 H 0.25453 0.77417 0.78428 0.0
C1543 C 0.26266 0.7813 0.03685 0.0
C1544 C 0.27257 0.79547 0.97664 0.0
H1545 H 0.2386 0.75579 0.05324 0.0
H1546 H 0.26381 0.78362 0.10766 0.0
C1547 C 0.2716 0.79139 0.88611 0.0
C1548 C 0.21593 0.21893 0.34991 0.0
C1549 C 0.23045 0.23348 0.39451 0.0
H1550 H 0.20689 0.19803 0.25081 0.0
C1551 C 0.24795 0.23765 0.36421 0.0
H1552 H 0.20224 0.21489 0.36891 0.0
C1553 C 0.25078 0.22789 0.29496 0.0
C1554 C 0.23625 0.21318 0.25119 0.0
H1555 H 0.25982 0.24862 0.39494 0.0
H1556 H 0.26447 0.23177 0.27674 0.0
C1557 C 0.21875 0.20913 0.28087 0.0
C1558 C 0.81778 1.01478 0.24206 0.0
C1559 C 0.81825 0.03169 0.24574 0.0
H1560 H 0.81035 0.9889 0.30495 0.0
C1561 C 0.81126 0.03458 0.32473 0.0
H1562 H 0.82216 1.01128 0.1819 0.0
C1563 C 0.80414 0.02155 0.3948 0.0
C1564 C 0.80329 1.00449 0.39141 0.0
H1565 H 0.81049 0.04678 0.33103 0.0
H1566 H 0.79871 0.02481 0.45191 0.0
C1567 C 0.81075 1.00165 0.3133 0.0
C1568 C 0.02629 0.82337 0.25633 0.0
C1569 C 1.01317 0.80577 0.22532 0.0
H1570 H 0.04841 0.84014 0.34573 0.0
C1571 C 1.01373 0.79135 0.26845 0.0
H1572 H 0.02678 0.83516 0.22677 0.0
C1573 C 0.02639 0.79436 0.33824 0.0
C1574 C 0.03941 0.81196 0.36976 0.0
H1575 H 1.0042 0.7776 0.24912 0.0
H1576 H 0.02581 0.78256 0.36829 0.0
C1577 C 0.03899 0.82638 0.32589 0.0
C1578 C 0.82079 0.79691 0.89326 0.0
C1579 C 0.81821 0.79318 0.80245 0.0
H1580 H 0.81242 0.80517 1.00804 0.0
C1581 C 0.80342 0.79264 0.7591 0.0
H1582 H 0.83204 0.79716 0.92764 0.0
C1583 C 0.79241 0.79756 0.80439 0.0
C1584 C 0.79609 0.80298 0.89334 0.0
H1585 H 0.80133 0.78991 0.6887 0.0
H1586 H 0.78194 0.79843 0.7682 0.0
C1587 C 0.80972 0.80164 0.93862 0.0
C1588 C 0.2521 1.00863 0.84055 0.0
C1589 C 0.23402 1.00062 0.8675 0.0
H1590 H 0.27389 0.03013 0.77005 0.0
C1591 C 0.22406 1.009 0.8443 0.0
H1592 H 0.26025 1.0027 0.8584 0.0
C1593 C 0.23201 0.02498 0.79452 0.0
C1594 C 0.25008 0.03289 0.76712 0.0
H1595 H 0.21007 1.00311 0.86353 0.0
H1596 H 0.22404 0.03116 0.77798 0.0
C1597 C 0.26003 0.02455 0.79093 0.0
C1598 C 0.02592 0.2327 0.69894 0.0
C1599 C 1.01034 0.22921 0.74517 0.0
H1600 H 0.05351 0.23958 0.70819 0.0
C1601 C 1.0113 0.23242 0.83676 0.0
H1602 H 0.02555 0.23074 0.62789 0.0
C1603 C 0.0273 0.23748 0.88272 0.0
C1604 C 0.04243 0.23941 0.83716 0.0
H1605 H 0.99939 0.2298 0.87346 0.0
H1606 H 0.02744 0.23858 0.95424 0.0
C1607 C 0.04185 0.23779 0.74459 0.0
C1608 C 0.88921 0.53773 0.64885 0.0
C1609 C 0.90317 0.54598 0.58373 0.0
H1610 H 0.87373 0.54046 0.75536 0.0
C1611 C 0.91276 0.5651 0.58493 0.0
H1612 H 0.88119 0.52313 0.65203 0.0
C1613 C 0.90817 0.57518 0.64497 0.0
C1614 C 0.89393 0.5669 0.70884 0.0
H1615 H 0.92339 0.57239 0.53691 0.0
H1616 H 0.91574 0.58978 0.63978 0.0
C1617 C 0.88482 0.54779 0.70971 0.0
C1618 C 0.48577 0.33792 0.67011 0.0
C1619 C 0.47113 0.33765 0.71426 0.0
H1620 H 0.50683 0.35025 0.57187 0.0
C1621 C 0.467 0.35108 0.68429 0.0
H1622 H 0.48977 0.3282 0.68888 0.0
C1623 C 0.47689 0.36399 0.61564 0.0
C1624 C 0.49167 0.36439 0.57224 0.0
H1625 H 0.45596 0.35179 0.71474 0.0
H1626 H 0.47302 0.37384 0.5975 0.0
C1627 C 0.49569 0.35086 0.60169 0.0
C1628 C 0.69059 0.15573 0.59365 0.0
C1629 C 0.67746 0.1383 0.56079 0.0
H1630 H 0.71268 0.17203 0.68408 0.0
C1631 C 0.67801 0.12366 0.60155 0.0
H1632 H 0.69109 0.16767 0.56598 0.0
C1633 C 0.69066 0.12632 0.67086 0.0
C1634 C 0.70368 0.14374 0.70422 0.0
H1635 H 0.66849 0.11002 0.58073 0.0
H1636 H 0.69007 0.11437 0.69907 0.0
C1637 C 0.70327 0.15839 0.66271 0.0
C1638 C 0.45642 0.13273 0.14426 0.0
C1639 C 0.46051 0.13877 0.23214 0.0
H1640 H 0.46504 0.12463 1.02885 0.0
C1641 C 0.47469 0.13825 0.2763 0.0
H1642 H 0.44549 0.133 0.10929 0.0
C1643 C 0.48574 0.13352 0.23089 0.0
C1644 C 0.48271 0.1291 0.14085 0.0
H1645 H 0.47773 0.14235 0.34493 0.0
H1646 H 0.49728 0.13426 0.2646 0.0
C1647 C 0.46751 0.12791 0.09863 0.0
C1648 C 0.91427 0.36411 0.18294 0.0
C1649 C 0.91486 0.3644 0.08974 0.0
H1650 H 0.90555 0.34801 0.3006 0.0
C1651 C 0.90744 0.34795 0.04376 0.0
H1652 H 0.91969 0.37647 0.22068 0.0
C1653 C 0.899 0.33157 0.08981 0.0
C1654 C 0.89786 0.3313 0.18282 0.0
H1655 H 0.90791 0.34771 0.97209 0.0
H1656 H 0.89288 0.31914 0.05223 0.0
C1657 C 0.9059 0.34774 0.22892 0.0
C1658 C 0.67671 0.56976 0.14462 0.0
C1659 C 0.67508 0.56427 0.0559 0.0
H1660 H 0.69317 0.5774 0.26165 0.0
C1661 C 0.69012 0.56566 1.01195 0.0
H1662 H 0.66526 0.56882 0.17953 0.0
C1663 C 0.70592 0.5705 0.05842 0.0
C1664 C 0.70695 0.57417 0.14929 0.0
H1665 H 0.68929 0.56196 0.9428 0.0
H1666 H 0.71695 0.57025 1.02497 0.0
C1667 C 0.69264 0.5747 0.19128 0.0
C1668 C 0.57863 0.89997 0.91015 0.0
C1669 C 0.56947 0.88084 0.91279 0.0
H1670 H 0.5813 0.92484 0.96075 0.0
C1671 C 0.55596 0.87291 0.98032 0.0
H1672 H 0.5889 0.90705 0.86025 0.0
C1673 C 0.55162 0.88322 0.03988 0.0
C1674 C 0.5603 0.90229 0.0353 0.0
H1675 H 0.54829 0.85833 0.98663 0.0
H1676 H 0.5409 0.87607 0.0876 0.0
C1677 C 0.57407 0.91029 0.96889 0.0
C1678 C 0.15182 0.67885 1.019 0.0
C1679 C 0.13295 0.66701 0.03347 0.0
H1680 H 0.17311 0.70163 0.94469 0.0
C1681 C 0.12166 0.67115 0.98175 0.0
H1682 H 0.16134 0.67639 0.0549 0.0
C1683 C 0.12835 0.68551 0.91893 0.0
C1684 C 0.14701 0.69707 0.90098 0.0
H1685 H 0.10715 0.66284 0.98839 0.0
H1686 H 0.11843 0.68724 0.88234 0.0
C1687 C 0.15868 0.69349 0.95438 0.0
C1688 C 0.34615 0.45808 0.93353 0.0
C1689 C 0.34588 0.4726 0.88983 0.0
H1690 H 0.35796 0.4491 0.03385 0.0
C1691 C 0.35923 0.49015 0.92028 0.0
H1692 H 0.33644 0.44435 0.91462 0.0
C1693 C 0.37188 0.49303 0.98987 0.0
C1694 C 0.37202 0.47851 0.03431 0.0
H1695 H 0.35994 0.50201 0.89025 0.0
H1696 H 0.38149 0.50676 1.00927 0.0
C1697 C 0.35876 0.46096 1.00335 0.0
C1698 C 0.12926 0.47555 0.4371 0.0
C1699 C 0.12761 0.47486 0.53003 0.0
H1700 H 0.14168 0.47093 0.32511 0.0
C1701 C 0.13456 0.46576 0.57965 0.0
H1702 H 0.12405 0.48238 0.39667 0.0
C1703 C 0.14487 0.45952 0.53855 0.0
C1704 C 0.14792 0.46182 0.44716 0.0
H1705 H 0.13296 0.46437 0.65089 0.0
H1706 H 0.15135 0.45384 0.57854 0.0
C1707 C 0.13931 0.46897 0.39588 0.0
C1708 C 0.58248 0.67617 0.55298 0.0
C1709 C 0.56422 0.66284 0.54553 0.0
H1710 H 0.60323 0.70271 0.51467 0.0
C1711 C 0.55284 0.66579 0.48948 0.0
H1712 H 0.59142 0.67422 0.5967 0.0
C1713 C 0.55964 0.68194 0.44188 0.0
C1714 C 0.57778 0.69548 0.4515 0.0
H1715 H 0.53872 0.65562 0.48302 0.0
H1716 H 0.55063 0.6841 0.39975 0.0
C1717 C 0.58917 0.69245 0.50695 0.0
C1718 C 0.34407 0.90423 0.48461 0.0
C1719 C 0.3425 0.89869 0.39601 0.0
H1720 H 0.36045 0.91194 0.60194 0.0
C1721 C 0.35756 0.90002 0.35254 0.0
H1722 H 0.3326 0.90334 0.51915 0.0
C1723 C 0.37333 0.9049 0.39939 0.0
C1724 C 0.3743 0.90863 0.49017 0.0
H1725 H 0.35677 0.89628 0.28349 0.0
H1726 H 0.38437 0.90461 0.36632 0.0
C1727 C 0.35996 0.9092 0.53165 0.0
C1728 C 0.2641 0.25415 0.72665 0.0
C1729 C 0.25632 0.26111 0.78439 0.0
H1730 H 0.27542 0.2371 0.71475 0.0
C1731 C 0.25944 0.2614 0.87574 0.0
H1732 H 0.26234 0.2544 0.65562 0.0
C1733 C 0.26714 0.25169 0.9097 0.0
C1734 C 0.27155 0.24162 0.85229 0.0
H1735 H 0.25387 0.26705 0.92133 0.0
H1736 H 0.26769 0.25036 0.98094 0.0
C1737 C 0.27169 0.24437 0.76052 0.0
C1738 C 0.79418 0.03105 0.75391 0.0
C1739 C 0.7975 0.03396 0.84494 0.0
H1740 H 0.7843 1.0114 0.65111 0.0
C1741 C 0.78888 0.01934 0.90426 0.0
H1742 H 0.80039 0.04214 0.70701 0.0
C1743 C 0.77989 1.00176 0.87228 0.0
C1744 C 0.77948 0.99887 0.78094 0.0
H1745 H 0.79073 0.02141 0.97505 0.0
H1746 H 0.77529 0.99063 0.9188 0.0
C1747 C 0.78512 1.01348 0.72199 0.0
C1748 C 0.04377 0.78814 0.86162 0.0
C1749 C 0.04711 0.78909 0.77039 0.0
H1750 H 0.02395 0.78266 0.95983 0.0
C1751 C 0.03286 0.77867 0.71207 0.0
H1752 H 0.05466 0.79576 0.90796 0.0
C1753 C 1.01519 0.7712 0.74148 0.0
C1754 C 1.01194 0.77417 0.82904 0.0
H1755 H 0.03534 0.77874 0.64167 0.0
H1756 H 1.00433 0.76562 0.69332 0.0
C1757 C 0.02609 0.78063 0.89119 0.0
C1758 C 0.83745 0.83193 0.40402 0.0
C1759 C 0.84279 0.81999 0.36984 0.0
H1760 H 0.82425 0.84745 0.38073 0.0
C1761 C 0.84056 0.81705 0.27679 0.0
H1762 H 0.83788 0.83399 0.47499 0.0
C1763 C 0.83271 0.82493 0.22168 0.0
C1764 C 0.82649 0.8361 0.25675 0.0
H1765 H 0.84356 0.80734 0.24727 0.0
H1766 H 0.83001 0.82089 0.15283 0.0
C1767 C 0.82949 0.8397 0.34907 0.0
C1768 C 0.21177 1.01471 0.4102 0.0
C1769 C 0.22055 0.03211 0.37162 0.0
H1770 H 0.19877 0.98586 0.39047 0.0
C1771 C 0.2202 0.03261 0.27714 0.0
H1772 H 0.21213 1.01335 0.48152 0.0
C1773 C 0.21234 0.01667 0.22391 0.0
C1774 C 0.20457 0.99931 0.26246 0.0
H1775 H 0.22718 0.04557 0.24358 0.0
H1776 H 0.21373 0.01808 0.15251 0.0
C1777 C 0.20411 0.99878 0.35696 0.0
C1778 C 0.02654 0.20807 0.40576 0.0
C1779 C 1.00893 0.19735 0.37108 0.0
H1780 H 0.0551 0.22493 0.37957 0.0
C1781 C 1.00801 0.19385 0.27855 0.0
H1782 H 0.02819 0.21206 0.47475 0.0
C1783 C 0.02363 0.20125 0.22315 0.0
C1784 C 0.04116 0.21269 0.25695 0.0
H1785 H 0.99488 0.18645 0.24714 0.0
H1786 H 1.02175 0.19929 0.15216 0.0
C1787 C 0.04217 0.21555 0.35019 0.0
C1788 C 0.93929 0.58074 0.0924 0.0
C1789 C 0.94102 0.57919 0.18404 0.0
H1790 H 0.92486 0.58553 0.99187 0.0
C1791 C 0.93617 0.5888 0.24196 0.0
H1792 H 0.94363 0.57413 0.0457 0.0
C1793 C 0.92518 0.5953 0.21118 0.0
C1794 C 0.91927 0.59221 0.12271 0.0
H1795 H 0.93831 0.58864 0.31273 0.0
H1796 H 0.91929 0.60027 0.25873 0.0
C1797 C 0.92831 0.58722 0.06152 0.0
C1798 C 0.45504 0.35457 0.23393 0.0
C1799 C 0.46432 0.36919 0.1752 0.0
H1800 H 0.44126 0.32587 0.24852 0.0
C1801 C 0.46164 0.36629 0.0837 0.0
H1802 H 0.45629 0.35663 0.30499 0.0
C1803 C 0.45273 0.34873 0.05152 0.0
C1804 C 0.44663 0.33408 0.11064 0.0
H1805 H 0.46828 0.37736 0.03695 0.0
H1806 H 0.4524 0.34667 0.98063 0.0
C1807 C 0.44629 0.33699 0.20172 0.0
C1808 C 0.695 0.10941 0.04071 0.0
C1809 C 0.70966 0.11863 0.09868 0.0
H1810 H 0.66681 0.0994 1.0228 0.0
C1811 C 0.70654 0.11787 0.19008 0.0
H1812 H 0.69724 0.10932 0.97012 0.0
C1813 C 0.68919 0.11219 0.22027 0.0
C1814 C 0.67515 0.10724 0.15859 0.0
H1815 H 0.71769 0.12454 0.23617 0.0
H1816 H 0.68752 0.11448 0.28919 0.0
C1817 C 0.67768 0.10386 0.07059 0.0
C1818 C 0.49646 0.15891 0.56097 0.0
C1819 C 0.49048 0.17022 0.59669 0.0
H1820 H 0.50705 0.14108 0.58568 0.0
C1821 C 0.49367 0.17384 0.6889 0.0
H1822 H 0.49364 0.1549 0.49214 0.0
C1823 C 0.50159 0.16595 0.74325 0.0
C1824 C 0.50666 0.15386 0.70851 0.0
H1825 H 0.48866 0.18176 0.72093 0.0
H1826 H 0.50221 0.16808 0.81422 0.0
C1827 C 0.50424 0.15089 0.61553 0.0
C1828 C 0.87559 0.34662 0.73258 0.0
C1829 C 0.88374 0.36417 0.69561 0.0
H1830 H 0.86346 0.31789 0.71028 0.0
C1831 C 0.8831 0.3649 0.60126 0.0
H1832 H 0.87632 0.34506 0.80355 0.0
C1833 C 0.87556 0.34913 0.54674 0.0
C1834 C 0.86834 0.33164 0.58354 0.0
H1835 H 0.88972 0.37798 0.56863 0.0
H1836 H 0.87686 0.35082 0.47541 0.0
C1837 C 0.86819 0.33085 0.67802 0.0
C1838 C 0.67228 0.52643 0.60339 0.0
C1839 C 0.67296 0.53015 0.69556 0.0
H1840 H 0.68625 0.53202 0.47762 0.0
C1841 C 0.69039 0.54151 0.73067 0.0
H1842 H 0.65925 0.51846 0.57176 0.0
C1843 C 0.70608 0.54945 0.67557 0.0
C1844 C 0.70528 0.54636 0.58261 0.0
H1845 H 0.69179 0.54561 0.79941 0.0
H1846 H 0.71882 0.55928 0.705 0.0
C1847 C 0.68797 0.53424 0.54851 0.0
C1848 C 0.59911 0.92101 0.56481 0.0
C1849 C 0.60411 0.91139 0.50793 0.0
H1850 H 0.585 0.93546 0.57546 0.0
C1851 C 0.60427 0.91401 0.41598 0.0
H1852 H 0.59957 0.91966 0.63611 0.0
C1853 C 0.59607 0.92315 0.38123 0.0
C1854 C 0.58778 0.92961 0.4385 0.0
H1855 H 0.60845 0.90703 0.37081 0.0
H1856 H 0.59429 0.92323 0.3101 0.0
C1857 C 0.59094 0.93017 0.53006 0.0
C1858 C 0.13275 0.70453 0.4041 0.0
C1859 C 0.13314 0.70717 0.49571 0.0
H1860 H 0.12472 0.68496 0.30103 0.0
C1861 C 0.12163 0.69282 0.55133 0.0
H1862 H 0.14134 0.71559 0.36016 0.0
C1863 C 0.1124 0.67537 0.51828 0.0
C1864 C 0.11472 0.67231 0.42938 0.0
H1865 H 0.12141 0.69486 0.62196 0.0
H1866 H 0.10541 0.66429 0.56459 0.0
C1867 C 0.12345 0.68705 0.37078 0.0
C1868 C 0.36547 0.44524 0.37705 0.0
C1869 C 0.37984 0.45556 0.43497 0.0
H1870 H 0.33697 0.43278 0.35858 0.0
C1871 C 0.37659 0.45486 0.5262 0.0
H1872 H 0.36787 0.44512 0.30668 0.0
C1873 C 0.35897 0.44779 0.55594 0.0
C1874 C 0.34481 0.44149 0.49393 0.0
H1875 H 0.38756 0.4624 0.57224 0.0
H1876 H 0.35694 0.45004 0.62442 0.0
C1877 C 0.34786 0.43824 0.40657 0.0
C1878 C 0.16891 0.5 0.07213 0.0
C1879 C 0.17533 0.4887 0.04081 0.0
H1880 H 0.15508 0.51475 0.04328 0.0
C1881 C 0.17429 0.48612 0.94747 0.0
H1882 H 0.16834 0.50171 0.14295 0.0
C1883 C 0.16657 0.4937 0.88935 0.0
C1884 C 0.15942 0.50433 0.92113 0.0
H1885 H 0.17808 0.47685 0.91974 0.0
H1886 H 0.16474 0.48982 0.82016 0.0
C1887 C 0.16118 0.50756 1.01399 0.0
C1888 C 0.54122 0.67873 0.08435 0.0
C1889 C 0.55145 0.69622 0.04763 0.0
H1890 H 0.52706 0.64988 0.06295 0.0
C1891 C 0.55265 0.697 0.9533 0.0
H1892 H 0.54045 0.67709 0.15577 0.0
C1893 C 0.54483 0.6812 0.89892 0.0
C1894 C 0.53552 0.66367 0.93616 0.0
H1895 H 0.56091 0.70999 0.92136 0.0
H1896 H 0.54746 0.68275 0.8283 0.0
C1897 C 0.53355 0.66294 0.03012 0.0
C1898 C 0.35772 0.87557 0.07137 0.0
C1899 C 0.34029 0.86434 0.03596 0.0
H1900 H 0.38618 0.89321 0.04613 0.0
C1901 C 0.33963 0.86067 0.94375 0.0
H1902 H 0.3591 0.87963 0.14018 0.0
C1903 C 0.35534 0.86843 0.88908 0.0
C1904 C 0.37266 0.88045 0.92348 0.0
H1905 H 0.3266 0.8528 0.91194 0.0
H1906 H 0.35366 0.86628 0.81814 0.0
C1907 C 0.37343 0.88346 1.01649 0.0
C1908 C 0.34528 0.21508 0.95687 0.0
C1909 C 0.33886 0.22298 1.0184 0.0
H1910 H 0.36741 0.21801 0.8771 0.0
C1911 C 0.35126 0.2407 0.04689 0.0
H1912 H 0.33636 0.20166 0.93134 0.0
C1913 C 0.36903 0.25023 1.01391 0.0
C1914 C 0.37533 0.24241 0.95185 0.0
H1915 H 0.34738 0.24734 0.09556 0.0
H1916 H 0.37798 0.26374 0.0384 0.0
C1917 C 0.36319 0.22456 0.92482 0.0
C1918 C 0.80294 0.11695 0.93523 0.0
C1919 C 0.81682 0.12485 0.99904 0.0
H1920 H 0.78412 0.11948 0.85156 0.0
C1921 C 0.822 0.14248 1.02732 0.0
H1922 H 0.79879 0.1036 0.90988 0.0
C1923 C 0.81322 0.15163 0.99498 0.0
C1924 C 0.79912 0.14366 0.93163 0.0
H1925 H 0.83258 0.14908 0.07636 0.0
H1926 H 0.81728 0.16483 1.02183 0.0
C1927 C 0.79441 0.12618 0.90169 0.0
C1928 C 0.91943 0.67526 0.91715 0.0
C1929 C 0.90166 0.66353 0.94769 0.0
H1930 H 0.9425 0.70212 0.91439 0.0
C1931 C 0.89374 0.67139 1.0001 0.0
H1932 H 0.92616 0.67034 0.87477 0.0
C1933 C 0.90314 0.69 1.02076 0.0
C1934 C 0.92098 0.70146 0.99168 0.0
H1935 H 0.88034 0.66317 1.02714 0.0
H1936 H 0.89654 0.69537 0.06137 0.0
C1937 C 0.92893 0.69374 0.93956 0.0
C1938 C 0.26132 0.36184 0.58914 0.0
C1939 C 0.25345 0.36919 0.64439 0.0
H1940 H 0.25849 0.33886 0.51973 0.0
C1941 C 0.23567 0.35754 0.67361 0.0
H1942 H 0.27484 0.37041 0.56375 0.0
C1943 C 0.22628 0.33905 0.65043 0.0
C1944 C 0.23414 0.33153 0.59526 0.0
H1945 H 0.22912 0.36263 0.71644 0.0
H1946 H 0.21296 0.33063 0.67799 0.0
C1947 C 0.25182 0.3435 0.56417 0.0
C1948 C 0.70137 0.89295 0.67007 0.0
C1949 C 0.70757 0.9074 0.60839 0.0
H1950 H 0.67935 0.87318 0.74972 0.0
C1951 C 0.6949 0.9122 0.5786 0.0
H1952 H 0.71052 0.88882 0.6963 0.0
C1953 C 0.67707 0.9034 0.61077 0.0
C1954 C 0.67099 0.88924 0.67353 0.0
H1955 H 0.69865 0.9228 0.5297 0.0
H1956 H 0.66793 0.90762 0.58534 0.0
C1957 C 0.68339 0.88397 0.70154 0.0
C1958 C 0.15212 0.8184 0.58825 0.0
C1959 C 0.13413 0.81277 0.61122 0.0
H1960 H 0.17449 0.81384 0.59977 0.0
C1961 C 0.12553 0.79832 0.67193 0.0
H1962 H 0.15925 0.82946 0.54185 0.0
C1963 C 0.13439 0.78958 0.70715 0.0
C1964 C 0.15221 0.7947 0.68216 0.0
H1965 H 0.11186 0.79383 0.69337 0.0
H1966 H 0.12713 0.77878 0.75452 0.0
C1967 C 0.16094 0.80944 0.62243 0.0
C1968 C 0.67941 0.8148 0.20586 0.0
C1969 C 0.6691 0.79746 0.16822 0.0
H1970 H 0.70593 0.83798 0.22485 0.0
C1971 C 0.67791 0.7912 0.11241 0.0
H1972 H 0.6731 0.8201 0.24894 0.0
C1973 C 0.69653 0.80133 0.09914 0.0
C1974 C 0.70699 0.81817 0.14035 0.0
H1975 H 0.67043 0.77823 0.07975 0.0
H1976 H 0.70288 0.79577 0.05803 0.0
C1977 C 0.69819 0.82507 0.19194 0.0
C1978 C 0.2283 0.87791 0.06608 0.0
C1979 C 0.23293 0.87394 0.1495 0.0
H1980 H 0.21589 0.89063 0.99444 0.0
C1981 C 0.22718 0.87884 0.2262 0.0
H1982 H 0.23265 0.87437 1.00591 0.0
C1983 C 0.21794 0.88846 0.2196 0.0
C1984 C 0.21387 0.89299 0.13617 0.0
H1985 H 0.23074 0.87613 0.29123 0.0
H1986 H 0.21447 0.89289 0.27975 0.0
C1987 C 0.21867 0.88715 0.05949 0.0
C1988 C 0.12525 0.3411 0.14581 0.0
C1989 C 0.13497 0.3321 0.13021 0.0
H1990 H 0.12566 0.36546 0.17685 0.0
C1991 C 0.15384 0.34213 0.14304 0.0
H1992 H 0.11072 0.33416 0.14024 0.0
C1993 C 0.16252 0.36027 0.17061 0.0
C1994 C 0.15278 0.36936 0.18398 0.0
H1995 H 0.16212 0.33612 0.13141 0.0
H1996 H 0.17693 0.36704 0.18139 0.0
C1997 C 0.13396 0.35933 0.17024 0.0
C1998 C 0.79028 0.67087 0.51918 0.0
C1999 C 0.79769 0.66452 0.4552 0.0
H2000 H 0.79342 0.69315 0.59685 0.0
C2001 C 0.81501 0.67669 0.42223 0.0
H2002 H 0.77723 0.66184 0.54825 0.0
C2003 C 0.82438 0.6948 0.45049 0.0
C2004 C 0.81676 0.70123 0.513 0.0
H2005 H 0.82115 0.67236 0.37284 0.0
H2006 H 0.83739 0.70387 0.4211 0.0
C2007 C 0.79965 0.68889 0.54756 0.0
C2008 C 0.34578 0.14632 0.56995 0.0
C2009 C 0.33506 0.14055 0.49304 0.0
H2010 H 0.37263 0.15928 0.62402 0.0
C2011 C 0.34363 0.14544 0.4098 0.0
H2012 H 0.33957 0.14259 0.63486 0.0
C2013 C 0.36253 0.15531 0.40359 0.0
C2014 C 0.37325 0.16012 0.48046 0.0
H2015 H 0.3357 0.14111 0.34944 0.0
H2016 H 0.36877 0.15828 0.33866 0.0
C2017 C 0.36468 0.15581 0.56372 0.0
C2018 C 0.88029 0.21452 0.41798 0.0
C2019 C 0.88486 0.22987 0.47016 0.0
H2020 H 0.88643 0.1937 0.38464 0.0
C2021 C 0.8981 0.23459 0.53651 0.0
H2022 H 0.87018 0.21046 0.36632 0.0
C2023 C 0.90741 0.22518 0.54612 0.0
C2024 C 0.90358 0.21053 0.49094 0.0
H2025 H 0.90166 0.24596 0.57986 0.0
H2026 H 0.91806 0.22971 0.59527 0.0
C2027 C 0.88956 0.20491 0.4284 0.0
C2028 C 0.03523 0.5599 0.32755 0.0
C2029 C 0.04172 0.57556 0.27371 0.0
H2030 H 1.01286 0.53855 0.39913 0.0
C2031 C 0.02917 0.58101 0.25012 0.0
H2032 H 0.04421 0.55519 0.34914 0.0
C2033 C 1.01124 0.57165 0.28104 0.0
C2034 C 1.00489 0.55622 0.33568 0.0
H2035 H 0.03307 0.59254 0.20709 0.0
H2036 H 1.00221 0.57643 0.2609 0.0
C2037 C 1.01714 0.55033 0.35723 0.0
C2038 C 0.46186 0.46034 0.23257 0.0
C2039 C 0.46689 0.47796 0.26122 0.0
H2040 H 0.4659 0.43756 0.24215 0.0
C2041 C 0.48115 0.48603 0.32355 0.0
H2042 H 0.4514 0.45358 0.18323 0.0
C2043 C 0.48979 0.4768 0.35638 0.0
C2044 C 0.4843 0.45902 0.32943 0.0
H2045 H 0.48544 0.49937 0.34922 0.0
H2046 H 0.5005 0.48345 0.40473 0.0
C2047 C 0.47027 0.45104 0.26649 0.0
C2048 C 0.56697 0.02436 0.32865 0.0
C2049 C 0.58518 0.03588 0.30523 0.0
H2050 H 0.54387 0.99762 0.32562 0.0
C2051 C 0.59351 0.02859 0.25284 0.0
H2052 H 0.56004 0.02939 0.36911 0.0
C2053 C 0.58407 1.01041 0.22543 0.0
C2054 C 0.56596 0.99859 0.25087 0.0
H2055 H 0.60737 0.03707 0.23166 0.0
H2056 H 0.59112 1.00574 0.18374 0.0
C2057 C 0.55759 1.00603 0.30269 0.0
C2058 C 0.48072 1.01133 0.76577 0.0
C2059 C 0.46362 0.99879 0.79979 0.0
H2060 H 0.50254 0.03878 0.76371 0.0
C2061 C 0.45607 1.00479 0.86472 0.0
H2062 H 0.48696 1.00727 0.71559 0.0
C2063 C 0.46506 0.02282 0.89305 0.0
C2064 C 0.48194 0.03552 0.85752 0.0
H2065 H 0.44318 0.99548 0.89452 0.0
H2066 H 0.45873 0.02681 0.94312 0.0
C2067 C 0.48971 0.02943 0.79395 0.0
C2068 C 1.00938 0.46273 0.73593 0.0
C2069 C 1.00118 0.46634 0.80751 0.0
H2070 H 0.03396 0.46869 0.67111 0.0
C2071 C 1.01225 0.48068 0.86486 0.0
H2072 H 1.00134 0.45221 0.68862 0.0
C2073 C 0.0311 0.4904 0.85361 0.0
C2074 C 0.03925 0.48591 0.78514 0.0
H2075 H 1.00647 0.48386 0.92074 0.0
H2076 H 0.03935 0.5008 0.90102 0.0
C2077 C 0.02811 0.47227 0.72533 0.0
C2078 C 0.5605 0.54342 0.73477 0.0
C2079 C 0.5647 0.53845 0.81675 0.0
H2080 H 0.548 0.55649 0.66719 0.0
C2081 C 0.55806 0.54192 0.89474 0.0
H2082 H 0.56546 0.54093 0.67359 0.0
C2083 C 0.54836 0.55112 0.89116 0.0
C2084 C 0.54471 0.55667 0.80935 0.0
H2085 H 0.5612 0.5384 0.95883 0.0
H2086 H 0.54414 0.55438 0.9526 0.0
C2087 C 0.55044 0.55224 0.73105 0.0
loop_
_geom_bond_atom_site_label_1
_geom_bond_atom_site_label_2
_geom_bond_distance
_geom_bond_site_symmetry_2
_ccdc_geom_bond_type
C0 C1 1.351 . S
C0 N3 1.368 . S
C0 H5 0.931 . S
C1 C0 1.351 . S
C1 N2 1.373 . S
C1 H29 0.930 . S
N2 C1 1.373 . S
N2 C4 1.340 . S
N3 C0 1.368 . S
N3 C4 1.321 . S
N3 Co6 2.135 . S
C4 N2 1.340 . S
C4 N3 1.321 . S
C4 H28 0.930 . S
H5 C0 0.931 . S
Co6 N3 2.135 . S
Co6 N9 2.121 1_554 S
Co6 O14 2.055 . S
Co6 O17 2.039 1_554 S
Co6 N20 2.140 . S
C7 O8 1.227 . S
C7 O17 1.265 . S
O8 C7 1.227 . S
N9 Co6 2.121 1_556 S
N9 C11 1.375 . S
N9 C12 1.313 . S
C10 C11 1.338 . S
C10 N13 1.377 . S
C10 H30 0.930 . S
C11 N9 1.375 . S
C11 C10 1.338 . S
C11 H15 0.931 . S
C12 N9 1.313 . S
C12 N13 1.344 . S
C12 H16 0.930 . S
N13 C10 1.377 . S
N13 C12 1.344 . S
O14 Co6 2.055 . S
O14 C18 1.253 . S
H15 C11 0.931 . S
H16 C12 0.930 . S
O17 Co6 2.039 1_556 S
O17 C7 1.265 . S
C18 O14 1.253 . S
C18 O19 1.227 . S
O19 C18 1.227 . S
N20 Co6 2.140 . S
N20 C23 1.346 . S
N20 C24 1.345 1_554 S
C21 C22 1.387 1_556 S
C21 C25 1.391 . S
C22 C21 1.387 1_554 S
C22 C23 1.369 . S
C22 H31 0.929 . S
C23 N20 1.346 . S
C23 C22 1.369 . S
C23 H26 0.928 . S
C24 N20 1.345 1_556 S
C24 C25 1.371 . S
C24 H27 0.931 . S
C25 C21 1.391 . S
C25 C24 1.371 . S
C25 H32 0.930 . S
H26 C23 0.928 . S
H27 C24 0.931 . S
H28 C4 0.930 . S
H29 C1 0.930 . S
H30 C10 0.930 . S
H31 C22 0.929 . S
H32 C25 0.930 . S
C33 C34 1.351 . S
C33 N36 1.368 . S
C33 H38 0.931 . S
C34 C33 1.351 . S
C34 N35 1.373 . S
C34 H62 0.930 . S
N35 C34 1.373 . S
N35 C37 1.340 . S
N36 C33 1.368 . S
N36 C37 1.321 . S
N36 Co39 2.135 . S
C37 N35 1.340 . S
C37 N36 1.321 . S
C37 H61 0.930 . S
H38 C33 0.931 . S
Co39 N36 2.135 . S
Co39 N42 2.121 1_554 S
Co39 O47 2.055 . S
Co39 O50 2.039 1_554 S
Co39 N53 2.140 . S
C40 O41 1.227 . S
C40 O50 1.265 . S
O41 C40 1.227 . S
N42 Co39 2.121 1_556 S
N42 C44 1.375 . S
N42 C45 1.313 . S
C43 C44 1.338 . S
C43 N46 1.377 . S
C43 H63 0.930 . S
C44 N42 1.375 . S
C44 C43 1.338 . S
C44 H48 0.931 . S
C45 N42 1.313 . S
C45 N46 1.344 . S
C45 H49 0.930 . S
N46 C43 1.377 . S
N46 C45 1.344 . S
O47 Co39 2.055 . S
O47 C51 1.253 . S
H48 C44 0.931 . S
H49 C45 0.930 . S
O50 Co39 2.039 1_556 S
O50 C40 1.265 . S
C51 O47 1.253 . S
C51 O52 1.227 . S
O52 C51 1.227 . S
N53 Co39 2.140 . S
N53 C56 1.346 . S
N53 C57 1.345 1_554 S
C54 C55 1.387 1_556 S
C54 C58 1.391 . S
C55 C54 1.387 1_554 S
C55 C56 1.369 . S
C55 H64 0.929 . S
C56 N53 1.346 . S
C56 C55 1.369 . S
C56 H59 0.928 . S
C57 N53 1.345 1_556 S
C57 C58 1.371 . S
C57 H60 0.931 . S
C58 C54 1.391 . S
C58 C57 1.371 . S
C58 H65 0.930 . S
H59 C56 0.928 . S
H60 C57 0.931 . S
H61 C37 0.930 . S
H62 C34 0.930 . S
H63 C43 0.930 . S
H64 C55 0.929 . S
H65 C58 0.930 . S
C66 C67 1.351 . S
C66 N69 1.368 . S
C66 H71 0.931 . S
C67 C66 1.351 . S
C67 N68 1.373 . S
C67 H95 0.930 . S
N68 C67 1.373 . S
N68 C70 1.340 . S
N69 C66 1.368 . S
N69 C70 1.321 . S
N69 Co72 2.135 . S
C70 N68 1.340 . S
C70 N69 1.321 . S
C70 H94 0.930 . S
H71 C66 0.931 . S
Co72 N69 2.135 . S
Co72 N75 2.121 1_554 S
Co72 O80 2.055 . S
Co72 O83 2.039 1_554 S
Co72 N86 2.140 . S
C73 O74 1.227 . S
C73 O83 1.265 . S
O74 C73 1.227 . S
N75 Co72 2.121 1_556 S
N75 C77 1.375 . S
N75 C78 1.313 . S
C76 C77 1.338 . S
C76 N79 1.377 . S
C76 H96 0.930 . S
C77 N75 1.375 . S
C77 C76 1.338 . S
C77 H81 0.931 . S
C78 N75 1.313 . S
C78 N79 1.344 . S
C78 H82 0.930 . S
N79 C76 1.377 . S
N79 C78 1.344 . S
O80 Co72 2.055 . S
O80 C84 1.253 . S
H81 C77 0.931 . S
H82 C78 0.930 . S
O83 Co72 2.039 1_556 S
O83 C73 1.265 . S
C84 O80 1.253 . S
C84 O85 1.227 . S
O85 C84 1.227 . S
N86 Co72 2.140 . S
N86 C89 1.346 . S
N86 C90 1.345 1_554 S
C87 C88 1.387 1_556 S
C87 C91 1.391 . S
C88 C87 1.387 1_554 S
C88 C89 1.369 . S
C88 H97 0.929 . S
C89 N86 1.346 . S
C89 C88 1.369 . S
C89 H92 0.928 . S
C90 N86 1.345 1_556 S
C90 C91 1.371 . S
C90 H93 0.931 . S
C91 C87 1.391 . S
C91 C90 1.371 . S
C91 H98 0.930 . S
H92 C89 0.928 . S
H93 C90 0.931 . S
H94 C70 0.930 . S
H95 C67 0.930 . S
H96 C76 0.930 . S
H97 C88 0.929 . S
H98 C91 0.930 . S
C99 C100 1.351 . S
C99 N102 1.368 . S
C99 H104 0.931 . S
C100 C99 1.351 . S
C100 N101 1.373 . S
C100 H128 0.930 . S
N101 C100 1.373 . S
N101 C103 1.340 . S
N102 C99 1.368 . S
N102 C103 1.321 . S
N102 Co105 2.135 . S
C103 N101 1.340 . S
C103 N102 1.321 . S
C103 H127 0.930 . S
H104 C99 0.931 . S
Co105 N102 2.135 . S
Co105 N108 2.121 . S
Co105 O113 2.055 . S
Co105 O116 2.039 . S
Co105 N119 2.140 . S
C106 O107 1.227 . S
C106 O116 1.265 . S
O107 C106 1.227 . S
N108 Co105 2.121 . S
N108 C110 1.375 . S
N108 C111 1.313 . S
C109 C110 1.338 . S
C109 N112 1.377 . S
C109 H129 0.930 . S
C110 N108 1.375 . S
C110 C109 1.338 . S
C110 H114 0.931 . S
C111 N108 1.313 . S
C111 N112 1.344 . S
C111 H115 0.930 . S
N112 C109 1.377 . S
N112 C111 1.344 . S
O113 Co105 2.055 . S
O113 C117 1.253 . S
H114 C110 0.931 . S
H115 C111 0.930 . S
O116 Co105 2.039 . S
O116 C106 1.265 . S
C117 O113 1.253 . S
C117 O118 1.227 . S
O118 C117 1.227 . S
N119 Co105 2.140 . S
N119 C122 1.346 . S
N119 C123 1.345 . S
C120 C121 1.387 . S
C120 C124 1.391 . S
C121 C120 1.387 . S
C121 C122 1.369 . S
C121 H130 0.929 . S
C122 N119 1.346 . S
C122 C121 1.369 . S
C122 H125 0.928 . S
C123 N119 1.345 . S
C123 C124 1.371 . S
C123 H126 0.931 . S
C124 C120 1.391 . S
C124 C123 1.371 . S
C124 H131 0.930 . S
H125 C122 0.928 . S
H126 C123 0.931 . S
H127 C103 0.930 . S
H128 C100 0.930 . S
H129 C109 0.930 . S
H130 C121 0.929 . S
H131 C124 0.930 . S
C132 C133 1.351 . S
C132 N135 1.368 . S
C132 H137 0.931 . S
C133 C132 1.351 . S
C133 N134 1.373 . S
C133 H161 0.930 . S
N134 C133 1.373 . S
N134 C136 1.340 . S
N135 C132 1.368 . S
N135 C136 1.321 . S
N135 Co138 2.135 . S
C136 N134 1.340 . S
C136 N135 1.321 . S
C136 H160 0.930 . S
H137 C132 0.931 . S
Co138 N135 2.135 . S
Co138 N141 2.121 . S
Co138 O146 2.055 . S
Co138 O149 2.039 . S
Co138 N152 2.140 . S
C139 O140 1.227 . S
C139 O149 1.265 . S
O140 C139 1.227 . S
N141 Co138 2.121 . S
N141 C143 1.375 . S
N141 C144 1.313 . S
C142 C143 1.338 . S
C142 N145 1.377 . S
C142 H162 0.930 . S
C143 N141 1.375 . S
C143 C142 1.338 . S
C143 H147 0.931 . S
C144 N141 1.313 . S
C144 N145 1.344 . S
C144 H148 0.930 . S
N145 C142 1.377 . S
N145 C144 1.344 . S
O146 Co138 2.055 . S
O146 C150 1.253 . S
H147 C143 0.931 . S
H148 C144 0.930 . S
O149 Co138 2.039 . S
O149 C139 1.265 . S
C150 O146 1.253 . S
C150 O151 1.227 . S
O151 C150 1.227 . S
N152 Co138 2.140 . S
N152 C155 1.346 . S
N152 C156 1.345 . S
C153 C154 1.387 . S
C153 C157 1.391 . S
C154 C153 1.387 . S
C154 C155 1.369 . S
C154 H163 0.929 . S
C155 N152 1.346 . S
C155 C154 1.369 . S
C155 H158 0.928 . S
C156 N152 1.345 . S
C156 C157 1.371 . S
C156 H159 0.931 . S
C157 C153 1.391 . S
C157 C156 1.371 . S
C157 H164 0.930 . S
H158 C155 0.928 . S
H159 C156 0.931 . S
H160 C136 0.930 . S
H161 C133 0.930 . S
H162 C142 0.930 . S
H163 C154 0.929 . S
H164 C157 0.930 . S
C165 C166 1.351 . S
C165 N168 1.368 . S
C165 H170 0.931 . S
C166 C165 1.351 . S
C166 N167 1.373 . S
C166 H194 0.930 . S
N167 C166 1.373 . S
N167 C169 1.340 . S
N168 C165 1.368 . S
N168 C169 1.321 . S
N168 Co171 2.135 . S
C169 N167 1.340 . S
C169 N168 1.321 . S
C169 H193 0.930 . S
H170 C165 0.931 . S
Co171 N168 2.135 . S
Co171 N174 2.121 . S
Co171 O179 2.055 . S
Co171 O182 2.039 . S
Co171 N185 2.140 . S
C172 O173 1.227 . S
C172 O182 1.265 . S
O173 C172 1.227 . S
N174 Co171 2.121 . S
N174 C176 1.375 . S
N174 C177 1.313 . S
C175 C176 1.338 . S
C175 N178 1.377 . S
C175 H195 0.930 . S
C176 N174 1.375 . S
C176 C175 1.338 . S
C176 H180 0.931 . S
C177 N174 1.313 . S
C177 N178 1.344 . S
C177 H181 0.930 . S
N178 C175 1.377 . S
N178 C177 1.344 . S
O179 Co171 2.055 . S
O179 C183 1.253 . S
H180 C176 0.931 . S
H181 C177 0.930 . S
O182 Co171 2.039 . S
O182 C172 1.265 . S
C183 O179 1.253 . S
C183 O184 1.227 . S
O184 C183 1.227 . S
N185 Co171 2.140 . S
N185 C188 1.346 . S
N185 C189 1.345 . S
C186 C187 1.387 . S
C186 C190 1.391 . S
C187 C186 1.387 . S
C187 C188 1.369 . S
C187 H196 0.929 . S
C188 N185 1.346 . S
C188 C187 1.369 . S
C188 H191 0.928 . S
C189 N185 1.345 . S
C189 C190 1.371 . S
C189 H192 0.931 . S
C190 C186 1.391 . S
C190 C189 1.371 . S
C190 H197 0.930 . S
H191 C188 0.928 . S
H192 C189 0.931 . S
H193 C169 0.930 . S
H194 C166 0.930 . S
H195 C175 0.930 . S
H196 C187 0.929 . S
H197 C190 0.930 . S
C198 C199 1.351 . S
C198 N201 1.368 . S
C198 H203 0.931 . S
C199 C198 1.351 . S
C199 N200 1.373 . S
C199 H227 0.930 . S
N200 C199 1.373 . S
N200 C202 1.340 . S
N201 C198 1.368 . S
N201 C202 1.321 . S
N201 Co204 2.135 . S
C202 N200 1.340 . S
C202 N201 1.321 . S
C202 H226 0.930 . S
H203 C198 0.931 . S
Co204 N201 2.135 . S
Co204 N207 2.121 1_554 S
Co204 O212 2.055 . S
Co204 O215 2.039 1_554 S
Co204 N218 2.140 . S
C205 O206 1.227 . S
C205 O215 1.265 . S
O206 C205 1.227 . S
N207 Co204 2.121 1_556 S
N207 C209 1.375 . S
N207 C210 1.313 . S
C208 C209 1.338 . S
C208 N211 1.377 . S
C208 H228 0.930 . S
C209 N207 1.375 . S
C209 C208 1.338 . S
C209 H213 0.931 . S
C210 N207 1.313 . S
C210 N211 1.344 . S
C210 H214 0.930 . S
N211 C208 1.377 . S
N211 C210 1.344 . S
O212 Co204 2.055 . S
O212 C216 1.253 . S
H213 C209 0.931 . S
H214 C210 0.930 . S
O215 Co204 2.039 1_556 S
O215 C205 1.265 . S
C216 O212 1.253 . S
C216 O217 1.227 . S
O217 C216 1.227 . S
N218 Co204 2.140 . S
N218 C221 1.346 . S
N218 C222 1.345 . S
C219 C220 1.387 . S
C219 C223 1.391 . S
C220 C219 1.387 . S
C220 C221 1.369 . S
C220 H229 0.929 . S
C221 N218 1.346 . S
C221 C220 1.369 . S
C221 H224 0.928 . S
C222 N218 1.345 . S
C222 C223 1.371 . S
C222 H225 0.931 . S
C223 C219 1.391 . S
C223 C222 1.371 . S
C223 H230 0.930 . S
H224 C221 0.928 . S
H225 C222 0.931 . S
H226 C202 0.930 . S
H227 C199 0.930 . S
H228 C208 0.930 . S
H229 C220 0.929 . S
H230 C223 0.930 . S
C231 C232 1.351 . S
C231 N234 1.368 . S
C231 H236 0.931 . S
C232 C231 1.351 . S
C232 N233 1.373 . S
C232 H260 0.930 . S
N233 C232 1.373 . S
N233 C235 1.340 . S
N234 C231 1.368 . S
N234 C235 1.321 . S
N234 Co237 2.135 . S
C235 N233 1.340 . S
C235 N234 1.321 . S
C235 H259 0.930 . S
H236 C231 0.931 . S
Co237 N234 2.135 . S
Co237 N240 2.121 1_554 S
Co237 O245 2.055 . S
Co237 O248 2.039 1_554 S
Co237 N251 2.140 . S
C238 O239 1.227 . S
C238 O248 1.265 . S
O239 C238 1.227 . S
N240 Co237 2.121 1_556 S
N240 C242 1.375 . S
N240 C243 1.313 . S
C241 C242 1.338 . S
C241 N244 1.377 . S
C241 H261 0.930 . S
C242 N240 1.375 . S
C242 C241 1.338 . S
C242 H246 0.931 . S
C243 N240 1.313 . S
C243 N244 1.344 . S
C243 H247 0.930 . S
N244 C241 1.377 . S
N244 C243 1.344 . S
O245 Co237 2.055 . S
O245 C249 1.253 . S
H246 C242 0.931 . S
H247 C243 0.930 . S
O248 Co237 2.039 1_556 S
O248 C238 1.265 . S
C249 O245 1.253 . S
C249 O250 1.227 . S
O250 C249 1.227 . S
N251 Co237 2.140 . S
N251 C254 1.346 . S
N251 C255 1.345 . S
C252 C253 1.387 . S
C252 C256 1.391 . S
C253 C252 1.387 . S
C253 C254 1.369 . S
C253 H262 0.929 . S
C254 N251 1.346 . S
C254 C253 1.369 . S
C254 H257 0.928 . S
C255 N251 1.345 . S
C255 C256 1.371 . S
C255 H258 0.931 . S
C256 C252 1.391 . S
C256 C255 1.371 . S
C256 H263 0.930 . S
H257 C254 0.928 . S
H258 C255 0.931 . S
H259 C235 0.930 . S
H260 C232 0.930 . S
H261 C241 0.930 . S
H262 C253 0.929 . S
H263 C256 0.930 . S
C264 C265 1.351 . S
C264 N267 1.368 . S
C264 H269 0.931 . S
C265 C264 1.351 . S
C265 N266 1.373 . S
C265 H293 0.930 . S
N266 C265 1.373 . S
N266 C268 1.340 . S
N267 C264 1.368 . S
N267 C268 1.321 . S
N267 Co270 2.135 . S
C268 N266 1.340 . S
C268 N267 1.321 . S
C268 H292 0.930 . S
H269 C264 0.931 . S
Co270 N267 2.135 . S
Co270 N273 2.121 1_554 S
Co270 O278 2.055 . S
Co270 O281 2.039 1_554 S
Co270 N284 2.140 . S
C271 O272 1.227 . S
C271 O281 1.265 . S
O272 C271 1.227 . S
N273 Co270 2.121 1_556 S
N273 C275 1.375 . S
N273 C276 1.313 . S
C274 C275 1.338 . S
C274 N277 1.377 . S
C274 H294 0.930 . S
C275 N273 1.375 . S
C275 C274 1.338 . S
C275 H279 0.931 . S
C276 N273 1.313 . S
C276 N277 1.344 . S
C276 H280 0.930 . S
N277 C274 1.377 . S
N277 C276 1.344 . S
O278 Co270 2.055 . S
O278 C282 1.253 . S
H279 C275 0.931 . S
H280 C276 0.930 . S
O281 Co270 2.039 1_556 S
O281 C271 1.265 . S
C282 O278 1.253 . S
C282 O283 1.227 . S
O283 C282 1.227 . S
N284 Co270 2.140 . S
N284 C287 1.346 . S
N284 C288 1.345 . S
C285 C286 1.387 . S
C285 C289 1.391 . S
C286 C285 1.387 . S
C286 C287 1.369 . S
C286 H295 0.929 . S
C287 N284 1.346 . S
C287 C286 1.369 . S
C287 H290 0.928 . S
C288 N284 1.345 . S
C288 C289 1.371 . S
C288 H291 0.931 . S
C289 C285 1.391 . S
C289 C288 1.371 . S
C289 H296 0.930 . S
H290 C287 0.928 . S
H291 C288 0.931 . S
H292 C268 0.930 . S
H293 C265 0.930 . S
H294 C274 0.930 . S
H295 C286 0.929 . S
H296 C289 0.930 . S
C297 C298 1.351 . S
C297 N300 1.368 . S
C297 H302 0.931 . S
C298 C297 1.351 . S
C298 N299 1.373 . S
C298 H326 0.930 . S
N299 C298 1.373 . S
N299 C301 1.340 . S
N300 C297 1.368 . S
N300 C301 1.321 . S
N300 Co303 2.135 . S
C301 N299 1.340 . S
C301 N300 1.321 . S
C301 H325 0.930 . S
H302 C297 0.931 . S
Co303 N300 2.135 . S
Co303 N306 2.121 . S
Co303 O311 2.055 . S
Co303 O314 2.039 . S
Co303 N317 2.140 . S
C304 O305 1.227 . S
C304 O314 1.265 . S
O305 C304 1.227 . S
N306 Co303 2.121 . S
N306 C308 1.375 . S
N306 C309 1.313 . S
C307 C308 1.338 . S
C307 N310 1.377 . S
C307 H327 0.930 . S
C308 N306 1.375 . S
C308 C307 1.338 . S
C308 H312 0.931 . S
C309 N306 1.313 . S
C309 N310 1.344 . S
C309 H313 0.930 . S
N310 C307 1.377 . S
N310 C309 1.344 . S
O311 Co303 2.055 . S
O311 C315 1.253 . S
H312 C308 0.931 . S
H313 C309 0.930 . S
O314 Co303 2.039 . S
O314 C304 1.265 . S
C315 O311 1.253 . S
C315 O316 1.227 . S
O316 C315 1.227 . S
N317 Co303 2.140 . S
N317 C320 1.346 . S
N317 C321 1.345 . S
C318 C319 1.387 . S
C318 C322 1.391 . S
C319 C318 1.387 . S
C319 C320 1.369 . S
C319 H328 0.929 . S
C320 N317 1.346 . S
C320 C319 1.369 . S
C320 H323 0.928 . S
C321 N317 1.345 . S
C321 C322 1.371 . S
C321 H324 0.931 . S
C322 C318 1.391 . S
C322 C321 1.371 . S
C322 H329 0.930 . S
H323 C320 0.928 . S
H324 C321 0.931 . S
H325 C301 0.930 . S
H326 C298 0.930 . S
H327 C307 0.930 . S
H328 C319 0.929 . S
H329 C322 0.930 . S
C330 C331 1.351 . S
C330 N333 1.368 . S
C330 H335 0.931 . S
C331 C330 1.351 . S
C331 N332 1.373 . S
C331 H359 0.930 . S
N332 C331 1.373 . S
N332 C334 1.340 . S
N333 C330 1.368 . S
N333 C334 1.321 . S
N333 Co336 2.135 . S
C334 N332 1.340 . S
C334 N333 1.321 . S
C334 H358 0.930 . S
H335 C330 0.931 . S
Co336 N333 2.135 . S
Co336 N339 2.121 . S
Co336 O344 2.055 . S
Co336 O347 2.039 . S
Co336 N350 2.140 . S
C337 O338 1.227 . S
C337 O347 1.265 . S
O338 C337 1.227 . S
N339 Co336 2.121 . S
N339 C341 1.375 . S
N339 C342 1.313 . S
C340 C341 1.338 . S
C340 N343 1.377 . S
C340 H360 0.930 . S
C341 N339 1.375 . S
C341 C340 1.338 . S
C341 H345 0.931 . S
C342 N339 1.313 . S
C342 N343 1.344 . S
C342 H346 0.930 . S
N343 C340 1.377 . S
N343 C342 1.344 . S
O344 Co336 2.055 . S
O344 C348 1.253 . S
H345 C341 0.931 . S
H346 C342 0.930 . S
O347 Co336 2.039 . S
O347 C337 1.265 . S
C348 O344 1.253 . S
C348 O349 1.227 . S
O349 C348 1.227 . S
N350 Co336 2.140 . S
N350 C353 1.346 . S
N350 C354 1.345 . S
C351 C352 1.387 . S
C351 C355 1.391 . S
C352 C351 1.387 . S
C352 C353 1.369 . S
C352 H361 0.929 . S
C353 N350 1.346 . S
C353 C352 1.369 . S
C353 H356 0.928 . S
C354 N350 1.345 . S
C354 C355 1.371 . S
C354 H357 0.931 . S
C355 C351 1.391 . S
C355 C354 1.371 . S
C355 H362 0.930 . S
H356 C353 0.928 . S
H357 C354 0.931 . S
H358 C334 0.930 . S
H359 C331 0.930 . S
H360 C340 0.930 . S
H361 C352 0.929 . S
H362 C355 0.930 . S
C363 C364 1.351 . S
C363 N366 1.368 . S
C363 H368 0.931 . S
C364 C363 1.351 . S
C364 N365 1.373 . S
C364 H392 0.930 . S
N365 C364 1.373 . S
N365 C367 1.340 . S
N366 C363 1.368 . S
N366 C367 1.321 . S
N366 Co369 2.135 . S
C367 N365 1.340 . S
C367 N366 1.321 . S
C367 H391 0.930 . S
H368 C363 0.931 . S
Co369 N366 2.135 . S
Co369 N372 2.121 . S
Co369 O377 2.055 . S
Co369 O380 2.039 . S
Co369 N383 2.140 . S
C370 O371 1.227 . S
C370 O380 1.265 . S
O371 C370 1.227 . S
N372 Co369 2.121 . S
N372 C374 1.375 . S
N372 C375 1.313 . S
C373 C374 1.338 . S
C373 N376 1.377 . S
C373 H393 0.930 . S
C374 N372 1.375 . S
C374 C373 1.338 . S
C374 H378 0.931 . S
C375 N372 1.313 . S
C375 N376 1.344 . S
C375 H379 0.930 . S
N376 C373 1.377 . S
N376 C375 1.344 . S
O377 Co369 2.055 . S
O377 C381 1.253 . S
H378 C374 0.931 . S
H379 C375 0.930 . S
O380 Co369 2.039 . S
O380 C370 1.265 . S
C381 O377 1.253 . S
C381 O382 1.227 . S
O382 C381 1.227 . S
N383 Co369 2.140 . S
N383 C386 1.346 . S
N383 C387 1.345 . S
C384 C385 1.387 . S
C384 C388 1.391 . S
C385 C384 1.387 . S
C385 C386 1.369 . S
C385 H394 0.929 . S
C386 N383 1.346 . S
C386 C385 1.369 . S
C386 H389 0.928 . S
C387 N383 1.345 . S
C387 C388 1.371 . S
C387 H390 0.931 . S
C388 C384 1.391 . S
C388 C387 1.371 . S
C388 H395 0.930 . S
H389 C386 0.928 . S
H390 C387 0.931 . S
H391 C367 0.930 . S
H392 C364 0.930 . S
H393 C373 0.930 . S
H394 C385 0.929 . S
H395 C388 0.930 . S
C396 C397 1.351 . S
C396 N399 1.368 . S
C396 H401 0.931 . S
C397 C396 1.351 . S
C397 N398 1.373 . S
C397 H425 0.930 . S
N398 C397 1.373 . S
N398 C400 1.340 . S
N399 C396 1.368 . S
N399 C400 1.321 . S
N399 Co402 2.135 . S
C400 N398 1.340 . S
C400 N399 1.321 . S
C400 H424 0.930 . S
H401 C396 0.931 . S
Co402 N399 2.135 . S
Co402 N405 2.121 . S
Co402 O410 2.055 . S
Co402 O413 2.039 . S
Co402 N416 2.140 . S
C403 O404 1.227 . S
C403 O413 1.265 . S
O404 C403 1.227 . S
N405 Co402 2.121 . S
N405 C407 1.375 . S
N405 C408 1.313 . S
C406 C407 1.338 . S
C406 N409 1.377 . S
C406 H426 0.930 . S
C407 N405 1.375 . S
C407 C406 1.338 . S
C407 H411 0.931 . S
C408 N405 1.313 . S
C408 N409 1.344 . S
C408 H412 0.930 . S
N409 C406 1.377 . S
N409 C408 1.344 . S
O410 Co402 2.055 . S
O410 C414 1.253 . S
H411 C407 0.931 . S
H412 C408 0.930 . S
O413 Co402 2.039 . S
O413 C403 1.265 . S
C414 O410 1.253 . S
C414 O415 1.227 . S
O415 C414 1.227 . S
N416 Co402 2.140 . S
N416 C419 1.346 . S
N416 C420 1.345 . S
C417 C418 1.387 . S
C417 C421 1.391 . S
C418 C417 1.387 . S
C418 C419 1.369 . S
C418 H427 0.929 . S
C419 N416 1.346 . S
C419 C418 1.369 . S
C419 H422 0.928 . S
C420 N416 1.345 . S
C420 C421 1.371 . S
C420 H423 0.931 . S
C421 C417 1.391 . S
C421 C420 1.371 . S
C421 H428 0.930 . S
H422 C419 0.928 . S
H423 C420 0.931 . S
H424 C400 0.930 . S
H425 C397 0.930 . S
H426 C406 0.930 . S
H427 C418 0.929 . S
H428 C421 0.930 . S
C429 C430 1.351 . S
C429 N432 1.368 . S
C429 H434 0.931 . S
C430 C429 1.351 . S
C430 N431 1.373 . S
C430 H458 0.930 . S
N431 C430 1.373 . S
N431 C433 1.340 . S
N432 C429 1.368 . S
N432 C433 1.321 . S
N432 Co435 2.135 . S
C433 N431 1.340 . S
C433 N432 1.321 . S
C433 H457 0.930 . S
H434 C429 0.931 . S
Co435 N432 2.135 . S
Co435 N438 2.121 . S
Co435 O443 2.055 . S
Co435 O446 2.039 . S
Co435 N449 2.140 . S
C436 O437 1.227 . S
C436 O446 1.265 . S
O437 C436 1.227 . S
N438 Co435 2.121 . S
N438 C440 1.375 . S
N438 C441 1.313 . S
C439 C440 1.338 . S
C439 N442 1.377 . S
C439 H459 0.930 . S
C440 N438 1.375 . S
C440 C439 1.338 . S
C440 H444 0.931 . S
C441 N438 1.313 . S
C441 N442 1.344 . S
C441 H445 0.930 . S
N442 C439 1.377 . S
N442 C441 1.344 . S
O443 Co435 2.055 . S
O443 C447 1.253 . S
H444 C440 0.931 . S
H445 C441 0.930 . S
O446 Co435 2.039 . S
O446 C436 1.265 . S
C447 O443 1.253 . S
C447 O448 1.227 . S
O448 C447 1.227 . S
N449 Co435 2.140 . S
N449 C452 1.346 . S
N449 C453 1.345 . S
C450 C451 1.387 . S
C450 C454 1.391 . S
C451 C450 1.387 . S
C451 C452 1.369 . S
C451 H460 0.929 . S
C452 N449 1.346 . S
C452 C451 1.369 . S
C452 H455 0.928 . S
C453 N449 1.345 . S
C453 C454 1.371 . S
C453 H456 0.931 . S
C454 C450 1.391 . S
C454 C453 1.371 . S
C454 H461 0.930 . S
H455 C452 0.928 . S
H456 C453 0.931 . S
H457 C433 0.930 . S
H458 C430 0.930 . S
H459 C439 0.930 . S
H460 C451 0.929 . S
H461 C454 0.930 . S
C462 C463 1.351 . S
C462 N465 1.368 . S
C462 H467 0.931 . S
C463 C462 1.351 . S
C463 N464 1.373 . S
C463 H491 0.930 . S
N464 C463 1.373 . S
N464 C466 1.340 . S
N465 C462 1.368 . S
N465 C466 1.321 . S
N465 Co468 2.135 . S
C466 N464 1.340 . S
C466 N465 1.321 . S
C466 H490 0.930 . S
H467 C462 0.931 . S
Co468 N465 2.135 . S
Co468 N471 2.121 . S
Co468 O476 2.055 . S
Co468 O479 2.039 . S
Co468 N482 2.140 . S
C469 O470 1.227 . S
C469 O479 1.265 . S
O470 C469 1.227 . S
N471 Co468 2.121 . S
N471 C473 1.375 . S
N471 C474 1.313 . S
C472 C473 1.338 . S
C472 N475 1.377 . S
C472 H492 0.930 . S
C473 N471 1.375 . S
C473 C472 1.338 . S
C473 H477 0.931 . S
C474 N471 1.313 . S
C474 N475 1.344 . S
C474 H478 0.930 . S
N475 C472 1.377 . S
N475 C474 1.344 . S
O476 Co468 2.055 . S
O476 C480 1.253 . S
H477 C473 0.931 . S
H478 C474 0.930 . S
O479 Co468 2.039 . S
O479 C469 1.265 . S
C480 O476 1.253 . S
C480 O481 1.227 . S
O481 C480 1.227 . S
N482 Co468 2.140 . S
N482 C485 1.346 . S
N482 C486 1.345 . S
C483 C484 1.387 . S
C483 C487 1.391 . S
C484 C483 1.387 . S
C484 C485 1.369 . S
C484 H493 0.929 . S
C485 N482 1.346 . S
C485 C484 1.369 . S
C485 H488 0.928 . S
C486 N482 1.345 . S
C486 C487 1.371 . S
C486 H489 0.931 . S
C487 C483 1.391 . S
C487 C486 1.371 . S
C487 H494 0.930 . S
H488 C485 0.928 . S
H489 C486 0.931 . S
H490 C466 0.930 . S
H491 C463 0.930 . S
H492 C472 0.930 . S
H493 C484 0.929 . S
H494 C487 0.930 . S
C495 C496 1.351 . S
C495 N498 1.368 . S
C495 H500 0.931 . S
C496 C495 1.351 . S
C496 N497 1.373 . S
C496 H524 0.930 . S
N497 C496 1.373 . S
N497 C499 1.340 . S
N498 C495 1.368 . S
N498 C499 1.321 . S
N498 Co501 2.135 . S
C499 N497 1.340 . S
C499 N498 1.321 . S
C499 H523 0.930 . S
H500 C495 0.931 . S
Co501 N498 2.135 . S
Co501 N504 2.121 . S
Co501 O509 2.055 . S
Co501 O512 2.039 . S
Co501 N515 2.140 . S
C502 O503 1.227 . S
C502 O512 1.265 . S
O503 C502 1.227 . S
N504 Co501 2.121 . S
N504 C506 1.375 1_556 S
N504 C507 1.313 . S
C505 C506 1.338 . S
C505 N508 1.377 . S
C505 H525 0.930 . S
C506 N504 1.375 1_554 S
C506 C505 1.338 . S
C506 H510 0.931 . S
C507 N504 1.313 . S
C507 N508 1.344 1_556 S
C507 H511 0.930 . S
N508 C505 1.377 . S
N508 C507 1.344 1_554 S
O509 Co501 2.055 . S
O509 C513 1.253 . S
H510 C506 0.931 . S
H511 C507 0.930 . S
O512 Co501 2.039 . S
O512 C502 1.265 . S
C513 O509 1.253 . S
C513 O514 1.227 . S
O514 C513 1.227 . S
N515 Co501 2.140 . S
N515 C518 1.346 . S
N515 C519 1.345 . S
C516 C517 1.387 . S
C516 C520 1.391 . S
C517 C516 1.387 . S
C517 C518 1.369 . S
C517 H526 0.929 . S
C518 N515 1.346 . S
C518 C517 1.369 . S
C518 H521 0.928 . S
C519 N515 1.345 . S
C519 C520 1.371 . S
C519 H522 0.931 . S
C520 C516 1.391 . S
C520 C519 1.371 . S
C520 H527 0.930 . S
H521 C518 0.928 . S
H522 C519 0.931 . S
H523 C499 0.930 . S
H524 C496 0.930 . S
H525 C505 0.930 . S
H526 C517 0.929 . S
H527 C520 0.930 . S
C528 C529 1.351 . S
C528 N531 1.368 . S
C528 H533 0.931 . S
C529 C528 1.351 . S
C529 N530 1.373 . S
C529 H557 0.930 . S
N530 C529 1.373 . S
N530 C532 1.340 . S
N531 C528 1.368 . S
N531 C532 1.321 . S
N531 Co534 2.135 . S
C532 N530 1.340 . S
C532 N531 1.321 . S
C532 H556 0.930 . S
H533 C528 0.931 . S
Co534 N531 2.135 . S
Co534 N537 2.121 . S
Co534 O542 2.055 . S
Co534 O545 2.039 . S
Co534 N548 2.140 . S
C535 O536 1.227 . S
C535 O545 1.265 . S
O536 C535 1.227 . S
N537 Co534 2.121 . S
N537 C539 1.375 1_556 S
N537 C540 1.313 . S
C538 C539 1.338 . S
C538 N541 1.377 . S
C538 H558 0.930 . S
C539 N537 1.375 1_554 S
C539 C538 1.338 . S
C539 H543 0.931 . S
C540 N537 1.313 . S
C540 N541 1.344 1_556 S
C540 H544 0.930 . S
N541 C538 1.377 . S
N541 C540 1.344 1_554 S
O542 Co534 2.055 . S
O542 C546 1.253 . S
H543 C539 0.931 . S
H544 C540 0.930 . S
O545 Co534 2.039 . S
O545 C535 1.265 . S
C546 O542 1.253 . S
C546 O547 1.227 . S
O547 C546 1.227 . S
N548 Co534 2.140 . S
N548 C551 1.346 . S
N548 C552 1.345 . S
C549 C550 1.387 . S
C549 C553 1.391 . S
C550 C549 1.387 . S
C550 C551 1.369 . S
C550 H559 0.929 . S
C551 N548 1.346 . S
C551 C550 1.369 . S
C551 H554 0.928 . S
C552 N548 1.345 . S
C552 C553 1.371 . S
C552 H555 0.931 . S
C553 C549 1.391 . S
C553 C552 1.371 . S
C553 H560 0.930 . S
H554 C551 0.928 . S
H555 C552 0.931 . S
H556 C532 0.930 . S
H557 C529 0.930 . S
H558 C538 0.930 . S
H559 C550 0.929 . S
H560 C553 0.930 . S
C561 C562 1.351 . S
C561 N564 1.368 . S
C561 H566 0.931 . S
C562 C561 1.351 . S
C562 N563 1.373 . S
C562 H590 0.930 . S
N563 C562 1.373 . S
N563 C565 1.340 . S
N564 C561 1.368 . S
N564 C565 1.321 . S
N564 Co567 2.135 . S
C565 N563 1.340 . S
C565 N564 1.321 . S
C565 H589 0.930 . S
H566 C561 0.931 . S
Co567 N564 2.135 . S
Co567 N570 2.121 . S
Co567 O575 2.055 . S
Co567 O578 2.039 . S
Co567 N581 2.140 . S
C568 O569 1.227 . S
C568 O578 1.265 . S
O569 C568 1.227 . S
N570 Co567 2.121 . S
N570 C572 1.375 1_556 S
N570 C573 1.313 . S
C571 C572 1.338 . S
C571 N574 1.377 . S
C571 H591 0.930 . S
C572 N570 1.375 1_554 S
C572 C571 1.338 . S
C572 H576 0.931 . S
C573 N570 1.313 . S
C573 N574 1.344 1_556 S
C573 H577 0.930 . S
N574 C571 1.377 . S
N574 C573 1.344 1_554 S
O575 Co567 2.055 . S
O575 C579 1.253 . S
H576 C572 0.931 . S
H577 C573 0.930 . S
O578 Co567 2.039 . S
O578 C568 1.265 . S
C579 O575 1.253 . S
C579 O580 1.227 . S
O580 C579 1.227 . S
N581 Co567 2.140 . S
N581 C584 1.346 . S
N581 C585 1.345 . S
C582 C583 1.387 . S
C582 C586 1.391 . S
C583 C582 1.387 . S
C583 C584 1.369 . S
C583 H592 0.929 . S
C584 N581 1.346 . S
C584 C583 1.369 . S
C584 H587 0.928 . S
C585 N581 1.345 . S
C585 C586 1.371 . S
C585 H588 0.931 . S
C586 C582 1.391 . S
C586 C585 1.371 . S
C586 H593 0.930 . S
H587 C584 0.928 . S
H588 C585 0.931 . S
H589 C565 0.930 . S
H590 C562 0.930 . S
H591 C571 0.930 . S
H592 C583 0.929 . S
H593 C586 0.930 . S
C594 C595 1.351 . S
C594 N597 1.368 . S
C594 H599 0.931 . S
C595 C594 1.351 . S
C595 N596 1.373 . S
C595 H623 0.930 . S
N596 C595 1.373 . S
N596 C598 1.340 . S
N597 C594 1.368 . S
N597 C598 1.321 . S
N597 Co600 2.135 . S
C598 N596 1.340 . S
C598 N597 1.321 . S
C598 H622 0.930 . S
H599 C594 0.931 . S
Co600 N597 2.135 . S
Co600 N603 2.121 . S
Co600 O608 2.055 . S
Co600 O611 2.039 . S
Co600 N614 2.140 . S
C601 O602 1.227 . S
C601 O611 1.265 . S
O602 C601 1.227 . S
N603 Co600 2.121 . S
N603 C605 1.375 . S
N603 C606 1.313 . S
C604 C605 1.338 . S
C604 N607 1.377 . S
C604 H624 0.930 . S
C605 N603 1.375 . S
C605 C604 1.338 . S
C605 H609 0.931 . S
C606 N603 1.313 . S
C606 N607 1.344 . S
C606 H610 0.930 . S
N607 C604 1.377 . S
N607 C606 1.344 . S
O608 Co600 2.055 . S
O608 C612 1.253 . S
H609 C605 0.931 . S
H610 C606 0.930 . S
O611 Co600 2.039 . S
O611 C601 1.265 . S
C612 O608 1.253 . S
C612 O613 1.227 . S
O613 C612 1.227 . S
N614 Co600 2.140 . S
N614 C617 1.346 . S
N614 C618 1.345 . S
C615 C616 1.387 . S
C615 C619 1.391 . S
C616 C615 1.387 . S
C616 C617 1.369 . S
C616 H625 0.929 . S
C617 N614 1.346 . S
C617 C616 1.369 . S
C617 H620 0.928 . S
C618 N614 1.345 . S
C618 C619 1.371 . S
C618 H621 0.931 . S
C619 C615 1.391 . S
C619 C618 1.371 . S
C619 H626 0.930 . S
H620 C617 0.928 . S
H621 C618 0.931 . S
H622 C598 0.930 . S
H623 C595 0.930 . S
H624 C604 0.930 . S
H625 C616 0.929 . S
H626 C619 0.930 . S
C627 C628 1.351 . S
C627 N630 1.368 . S
C627 H632 0.931 . S
C628 C627 1.351 . S
C628 N629 1.373 . S
C628 H656 0.930 . S
N629 C628 1.373 . S
N629 C631 1.340 . S
N630 C627 1.368 . S
N630 C631 1.321 . S
N630 Co633 2.135 . S
C631 N629 1.340 . S
C631 N630 1.321 . S
C631 H655 0.930 . S
H632 C627 0.931 . S
Co633 N630 2.135 . S
Co633 N636 2.121 . S
Co633 O641 2.055 . S
Co633 O644 2.039 . S
Co633 N647 2.140 . S
C634 O635 1.227 . S
C634 O644 1.265 . S
O635 C634 1.227 . S
N636 Co633 2.121 . S
N636 C638 1.375 . S
N636 C639 1.313 . S
C637 C638 1.338 . S
C637 N640 1.377 . S
C637 H657 0.930 . S
C638 N636 1.375 . S
C638 C637 1.338 . S
C638 H642 0.931 . S
C639 N636 1.313 . S
C639 N640 1.344 . S
C639 H643 0.930 . S
N640 C637 1.377 . S
N640 C639 1.344 . S
O641 Co633 2.055 . S
O641 C645 1.253 . S
H642 C638 0.931 . S
H643 C639 0.930 . S
O644 Co633 2.039 . S
O644 C634 1.265 . S
C645 O641 1.253 . S
C645 O646 1.227 . S
O646 C645 1.227 . S
N647 Co633 2.140 . S
N647 C650 1.346 . S
N647 C651 1.345 . S
C648 C649 1.387 . S
C648 C652 1.391 . S
C649 C648 1.387 . S
C649 C650 1.369 . S
C649 H658 0.929 . S
C650 N647 1.346 . S
C650 C649 1.369 . S
C650 H653 0.928 . S
C651 N647 1.345 . S
C651 C652 1.371 . S
C651 H654 0.931 . S
C652 C648 1.391 . S
C652 C651 1.371 . S
C652 H659 0.930 . S
H653 C650 0.928 . S
H654 C651 0.931 . S
H655 C631 0.930 . S
H656 C628 0.930 . S
H657 C637 0.930 . S
H658 C649 0.929 . S
H659 C652 0.930 . S
C660 C661 1.351 . S
C660 N663 1.368 . S
C660 H665 0.931 . S
C661 C660 1.351 . S
C661 N662 1.373 . S
C661 H689 0.930 . S
N662 C661 1.373 . S
N662 C664 1.340 . S
N663 C660 1.368 . S
N663 C664 1.321 . S
N663 Co666 2.135 . S
C664 N662 1.340 . S
C664 N663 1.321 . S
C664 H688 0.930 . S
H665 C660 0.931 . S
Co666 N663 2.135 . S
Co666 N669 2.121 . S
Co666 O674 2.055 . S
Co666 O677 2.039 . S
Co666 N680 2.140 . S
C667 O668 1.227 . S
C667 O677 1.265 . S
O668 C667 1.227 . S
N669 Co666 2.121 . S
N669 C671 1.375 . S
N669 C672 1.313 . S
C670 C671 1.338 . S
C670 N673 1.377 . S
C670 H690 0.930 . S
C671 N669 1.375 . S
C671 C670 1.338 . S
C671 H675 0.931 . S
C672 N669 1.313 . S
C672 N673 1.344 . S
C672 H676 0.930 . S
N673 C670 1.377 . S
N673 C672 1.344 . S
O674 Co666 2.055 . S
O674 C678 1.253 . S
H675 C671 0.931 . S
H676 C672 0.930 . S
O677 Co666 2.039 . S
O677 C667 1.265 . S
C678 O674 1.253 . S
C678 O679 1.227 . S
O679 C678 1.227 . S
N680 Co666 2.140 . S
N680 C683 1.346 . S
N680 C684 1.345 . S
C681 C682 1.387 . S
C681 C685 1.391 . S
C682 C681 1.387 . S
C682 C683 1.369 . S
C682 H691 0.929 . S
C683 N680 1.346 . S
C683 C682 1.369 . S
C683 H686 0.928 . S
C684 N680 1.345 . S
C684 C685 1.371 . S
C684 H687 0.931 . S
C685 C681 1.391 . S
C685 C684 1.371 . S
C685 H692 0.930 . S
H686 C683 0.928 . S
H687 C684 0.931 . S
H688 C664 0.930 . S
H689 C661 0.930 . S
H690 C670 0.930 . S
H691 C682 0.929 . S
H692 C685 0.930 . S
C693 C694 1.351 . S
C693 N696 1.368 . S
C693 H698 0.931 . S
C694 C693 1.351 . S
C694 N695 1.373 . S
C694 H722 0.930 . S
N695 C694 1.373 . S
N695 C697 1.340 . S
N696 C693 1.368 . S
N696 C697 1.321 . S
N696 Co699 2.135 . S
C697 N695 1.340 . S
C697 N696 1.321 . S
C697 H721 0.930 . S
H698 C693 0.931 . S
Co699 N696 2.135 . S
Co699 N702 2.121 . S
Co699 O707 2.055 . S
Co699 O710 2.039 . S
Co699 N713 2.140 . S
C700 O701 1.227 . S
C700 O710 1.265 . S
O701 C700 1.227 . S
N702 Co699 2.121 . S
N702 C704 1.375 1_556 S
N702 C705 1.313 . S
C703 C704 1.338 . S
C703 N706 1.377 . S
C703 H723 0.930 . S
C704 N702 1.375 1_554 S
C704 C703 1.338 . S
C704 H708 0.931 . S
C705 N702 1.313 . S
C705 N706 1.344 1_556 S
C705 H709 0.930 . S
N706 C703 1.377 . S
N706 C705 1.344 1_554 S
O707 Co699 2.055 . S
O707 C711 1.253 . S
H708 C704 0.931 . S
H709 C705 0.930 . S
O710 Co699 2.039 . S
O710 C700 1.265 . S
C711 O707 1.253 . S
C711 O712 1.227 . S
O712 C711 1.227 . S
N713 Co699 2.140 . S
N713 C716 1.346 . S
N713 C717 1.345 . S
C714 C715 1.387 . S
C714 C718 1.391 . S
C715 C714 1.387 . S
C715 C716 1.369 . S
C715 H724 0.929 . S
C716 N713 1.346 . S
C716 C715 1.369 . S
C716 H719 0.928 . S
C717 N713 1.345 . S
C717 C718 1.371 . S
C717 H720 0.931 . S
C718 C714 1.391 . S
C718 C717 1.371 . S
C718 H725 0.930 . S
H719 C716 0.928 . S
H720 C717 0.931 . S
H721 C697 0.930 . S
H722 C694 0.930 . S
H723 C703 0.930 . S
H724 C715 0.929 . S
H725 C718 0.930 . S
C726 C727 1.351 . S
C726 N729 1.368 . S
C726 H731 0.931 . S
C727 C726 1.351 . S
C727 N728 1.373 . S
C727 H755 0.930 . S
N728 C727 1.373 . S
N728 C730 1.340 . S
N729 C726 1.368 . S
N729 C730 1.321 . S
N729 Co732 2.135 . S
C730 N728 1.340 . S
C730 N729 1.321 . S
C730 H754 0.930 . S
H731 C726 0.931 . S
Co732 N729 2.135 . S
Co732 N735 2.121 . S
Co732 O740 2.055 . S
Co732 O743 2.039 . S
Co732 N746 2.140 . S
C733 O734 1.227 . S
C733 O743 1.265 . S
O734 C733 1.227 . S
N735 Co732 2.121 . S
N735 C737 1.375 1_556 S
N735 C738 1.313 . S
C736 C737 1.338 . S
C736 N739 1.377 . S
C736 H756 0.930 . S
C737 N735 1.375 1_554 S
C737 C736 1.338 . S
C737 H741 0.931 . S
C738 N735 1.313 . S
C738 N739 1.344 1_556 S
C738 H742 0.930 . S
N739 C736 1.377 . S
N739 C738 1.344 1_554 S
O740 Co732 2.055 . S
O740 C744 1.253 . S
H741 C737 0.931 . S
H742 C738 0.930 . S
O743 Co732 2.039 . S
O743 C733 1.265 . S
C744 O740 1.253 . S
C744 O745 1.227 . S
O745 C744 1.227 . S
N746 Co732 2.140 . S
N746 C749 1.346 . S
N746 C750 1.345 . S
C747 C748 1.387 . S
C747 C751 1.391 . S
C748 C747 1.387 . S
C748 C749 1.369 . S
C748 H757 0.929 . S
C749 N746 1.346 . S
C749 C748 1.369 . S
C749 H752 0.928 . S
C750 N746 1.345 . S
C750 C751 1.371 . S
C750 H753 0.931 . S
C751 C747 1.391 . S
C751 C750 1.371 . S
C751 H758 0.930 . S
H752 C749 0.928 . S
H753 C750 0.931 . S
H754 C730 0.930 . S
H755 C727 0.930 . S
H756 C736 0.930 . S
H757 C748 0.929 . S
H758 C751 0.930 . S
C759 C760 1.351 . S
C759 N762 1.368 . S
C759 H764 0.931 . S
C760 C759 1.351 . S
C760 N761 1.373 . S
C760 H788 0.930 . S
N761 C760 1.373 . S
N761 C763 1.340 . S
N762 C759 1.368 . S
N762 C763 1.321 . S
N762 Co765 2.135 . S
C763 N761 1.340 . S
C763 N762 1.321 . S
C763 H787 0.930 . S
H764 C759 0.931 . S
Co765 N762 2.135 . S
Co765 N768 2.121 . S
Co765 O773 2.055 . S
Co765 O776 2.039 . S
Co765 N779 2.140 . S
C766 O767 1.227 . S
C766 O776 1.265 . S
O767 C766 1.227 . S
N768 Co765 2.121 . S
N768 C770 1.375 1_556 S
N768 C771 1.313 . S
C769 C770 1.338 . S
C769 N772 1.377 . S
C769 H789 0.930 . S
C770 N768 1.375 1_554 S
C770 C769 1.338 . S
C770 H774 0.931 . S
C771 N768 1.313 . S
C771 N772 1.344 1_556 S
C771 H775 0.930 . S
N772 C769 1.377 . S
N772 C771 1.344 1_554 S
O773 Co765 2.055 . S
O773 C777 1.253 . S
H774 C770 0.931 . S
H775 C771 0.930 . S
O776 Co765 2.039 . S
O776 C766 1.265 . S
C777 O773 1.253 . S
C777 O778 1.227 . S
O778 C777 1.227 . S
N779 Co765 2.140 . S
N779 C782 1.346 . S
N779 C783 1.345 . S
C780 C781 1.387 . S
C780 C784 1.391 . S
C781 C780 1.387 . S
C781 C782 1.369 . S
C781 H790 0.929 . S
C782 N779 1.346 . S
C782 C781 1.369 . S
C782 H785 0.928 . S
C783 N779 1.345 . S
C783 C784 1.371 . S
C783 H786 0.931 . S
C784 C780 1.391 . S
C784 C783 1.371 . S
C784 H791 0.930 . S
H785 C782 0.928 . S
H786 C783 0.931 . S
H787 C763 0.930 . S
H788 C760 0.930 . S
H789 C769 0.930 . S
H790 C781 0.929 . S
H791 C784 0.930 . S
C792 C793 1.351 . S
C792 N795 1.368 . S
C792 H797 0.931 . S
C793 C792 1.351 . S
C793 N794 1.373 . S
C793 H821 0.930 . S
N794 C793 1.373 . S
N794 C796 1.340 . S
N795 C792 1.368 . S
N795 C796 1.321 . S
N795 Co798 2.135 . S
C796 N794 1.340 . S
C796 N795 1.321 . S
C796 H820 0.930 . S
H797 C792 0.931 . S
Co798 N795 2.135 . S
Co798 N801 2.121 . S
Co798 O806 2.055 . S
Co798 O809 2.039 . S
Co798 N812 2.140 . S
C799 O800 1.227 . S
C799 O809 1.265 . S
O800 C799 1.227 . S
N801 Co798 2.121 . S
N801 C803 1.375 . S
N801 C804 1.313 . S
C802 C803 1.338 . S
C802 N805 1.377 . S
C802 H822 0.930 . S
C803 N801 1.375 . S
C803 C802 1.338 . S
C803 H807 0.931 . S
C804 N801 1.313 . S
C804 N805 1.344 . S
C804 H808 0.930 . S
N805 C802 1.377 . S
N805 C804 1.344 . S
O806 Co798 2.055 . S
O806 C810 1.253 . S
H807 C803 0.931 . S
H808 C804 0.930 . S
O809 Co798 2.039 . S
O809 C799 1.265 . S
C810 O806 1.253 . S
C810 O811 1.227 . S
O811 C810 1.227 . S
N812 Co798 2.140 . S
N812 C815 1.346 . S
N812 C816 1.345 . S
C813 C814 1.387 . S
C813 C817 1.391 . S
C814 C813 1.387 . S
C814 C815 1.369 . S
C814 H823 0.929 . S
C815 N812 1.346 . S
C815 C814 1.369 . S
C815 H818 0.928 . S
C816 N812 1.345 . S
C816 C817 1.371 . S
C816 H819 0.931 . S
C817 C813 1.391 . S
C817 C816 1.371 . S
C817 H824 0.930 . S
H818 C815 0.928 . S
H819 C816 0.931 . S
H820 C796 0.930 . S
H821 C793 0.930 . S
H822 C802 0.930 . S
H823 C814 0.929 . S
H824 C817 0.930 . S
C825 C826 1.351 . S
C825 N828 1.368 . S
C825 H830 0.931 . S
C826 C825 1.351 . S
C826 N827 1.373 . S
C826 H854 0.930 . S
N827 C826 1.373 . S
N827 C829 1.340 . S
N828 C825 1.368 . S
N828 C829 1.321 . S
N828 Co831 2.135 . S
C829 N827 1.340 . S
C829 N828 1.321 . S
C829 H853 0.930 . S
H830 C825 0.931 . S
Co831 N828 2.135 . S
Co831 N834 2.121 . S
Co831 O839 2.055 . S
Co831 O842 2.039 . S
Co831 N845 2.140 . S
C832 O833 1.227 . S
C832 O842 1.265 . S
O833 C832 1.227 . S
N834 Co831 2.121 . S
N834 C836 1.375 . S
N834 C837 1.313 . S
C835 C836 1.338 . S
C835 N838 1.377 . S
C835 H855 0.930 . S
C836 N834 1.375 . S
C836 C835 1.338 . S
C836 H840 0.931 . S
C837 N834 1.313 . S
C837 N838 1.344 . S
C837 H841 0.930 . S
N838 C835 1.377 . S
N838 C837 1.344 . S
O839 Co831 2.055 . S
O839 C843 1.253 . S
H840 C836 0.931 . S
H841 C837 0.930 . S
O842 Co831 2.039 . S
O842 C832 1.265 . S
C843 O839 1.253 . S
C843 O844 1.227 . S
O844 C843 1.227 . S
N845 Co831 2.140 . S
N845 C848 1.346 . S
N845 C849 1.345 . S
C846 C847 1.387 . S
C846 C850 1.391 . S
C847 C846 1.387 . S
C847 C848 1.369 . S
C847 H856 0.929 . S
C848 N845 1.346 . S
C848 C847 1.369 . S
C848 H851 0.928 . S
C849 N845 1.345 . S
C849 C850 1.371 . S
C849 H852 0.931 . S
C850 C846 1.391 . S
C850 C849 1.371 . S
C850 H857 0.930 . S
H851 C848 0.928 . S
H852 C849 0.931 . S
H853 C829 0.930 . S
H854 C826 0.930 . S
H855 C835 0.930 . S
H856 C847 0.929 . S
H857 C850 0.930 . S
C858 C859 1.351 . S
C858 N861 1.368 . S
C858 H863 0.931 . S
C859 C858 1.351 . S
C859 N860 1.373 . S
C859 H887 0.930 . S
N860 C859 1.373 . S
N860 C862 1.340 . S
N861 C858 1.368 . S
N861 C862 1.321 . S
N861 Co864 2.135 . S
C862 N860 1.340 . S
C862 N861 1.321 . S
C862 H886 0.930 . S
H863 C858 0.931 . S
Co864 N861 2.135 . S
Co864 N867 2.121 . S
Co864 O872 2.055 . S
Co864 O875 2.039 . S
Co864 N878 2.140 . S
C865 O866 1.227 . S
C865 O875 1.265 . S
O866 C865 1.227 . S
N867 Co864 2.121 . S
N867 C869 1.375 . S
N867 C870 1.313 . S
C868 C869 1.338 . S
C868 N871 1.377 . S
C868 H888 0.930 . S
C869 N867 1.375 . S
C869 C868 1.338 . S
C869 H873 0.931 . S
C870 N867 1.313 . S
C870 N871 1.344 . S
C870 H874 0.930 . S
N871 C868 1.377 . S
N871 C870 1.344 . S
O872 Co864 2.055 . S
O872 C876 1.253 . S
H873 C869 0.931 . S
H874 C870 0.930 . S
O875 Co864 2.039 . S
O875 C865 1.265 . S
C876 O872 1.253 . S
C876 O877 1.227 . S
O877 C876 1.227 . S
N878 Co864 2.140 . S
N878 C881 1.346 . S
N878 C882 1.345 . S
C879 C880 1.387 . S
C879 C883 1.391 . S
C880 C879 1.387 . S
C880 C881 1.369 . S
C880 H889 0.929 . S
C881 N878 1.346 . S
C881 C880 1.369 . S
C881 H884 0.928 . S
C882 N878 1.345 . S
C882 C883 1.371 . S
C882 H885 0.931 . S
C883 C879 1.391 . S
C883 C882 1.371 . S
C883 H890 0.930 . S
H884 C881 0.928 . S
H885 C882 0.931 . S
H886 C862 0.930 . S
H887 C859 0.930 . S
H888 C868 0.930 . S
H889 C880 0.929 . S
H890 C883 0.930 . S
C891 C892 1.351 1_554 S
C891 N894 1.368 . S
C891 H896 0.931 . S
C892 C891 1.351 1_556 S
C892 N893 1.373 1_556 S
C892 H920 0.930 . S
N893 C892 1.373 1_554 S
N893 C895 1.340 . S
N894 C891 1.368 . S
N894 C895 1.321 . S
N894 Co897 2.135 . S
C895 N893 1.340 . S
C895 N894 1.321 . S
C895 H919 0.930 . S
H896 C891 0.931 . S
Co897 N894 2.135 . S
Co897 N900 2.121 . S
Co897 O905 2.055 . S
Co897 O908 2.039 . S
Co897 N911 2.140 . S
C898 O899 1.227 . S
C898 O908 1.265 . S
O899 C898 1.227 . S
N900 Co897 2.121 . S
N900 C902 1.375 . S
N900 C903 1.313 . S
C901 C902 1.338 . S
C901 N904 1.377 . S
C901 H921 0.930 . S
C902 N900 1.375 . S
C902 C901 1.338 . S
C902 H906 0.931 . S
C903 N900 1.313 . S
C903 N904 1.344 . S
C903 H907 0.930 . S
N904 C901 1.377 . S
N904 C903 1.344 . S
O905 Co897 2.055 . S
O905 C909 1.253 . S
H906 C902 0.931 . S
H907 C903 0.930 . S
O908 Co897 2.039 . S
O908 C898 1.265 . S
C909 O905 1.253 . S
C909 O910 1.227 . S
O910 C909 1.227 . S
N911 Co897 2.140 . S
N911 C914 1.346 . S
N911 C915 1.345 . S
C912 C913 1.387 . S
C912 C916 1.391 . S
C913 C912 1.387 . S
C913 C914 1.369 . S
C913 H922 0.929 . S
C914 N911 1.346 . S
C914 C913 1.369 . S
C914 H917 0.928 . S
C915 N911 1.345 . S
C915 C916 1.371 . S
C915 H918 0.931 . S
C916 C912 1.391 . S
C916 C915 1.371 . S
C916 H923 0.930 . S
H917 C914 0.928 . S
H918 C915 0.931 . S
H919 C895 0.930 . S
H920 C892 0.930 . S
H921 C901 0.930 . S
H922 C913 0.929 . S
H923 C916 0.930 . S
C924 C925 1.351 1_554 S
C924 N927 1.368 . S
C924 H929 0.931 . S
C925 C924 1.351 1_556 S
C925 N926 1.373 1_556 S
C925 H953 0.930 . S
N926 C925 1.373 1_554 S
N926 C928 1.340 . S
N927 C924 1.368 . S
N927 C928 1.321 . S
N927 Co930 2.135 . S
C928 N926 1.340 . S
C928 N927 1.321 . S
C928 H952 0.930 . S
H929 C924 0.931 . S
Co930 N927 2.135 . S
Co930 N933 2.121 . S
Co930 O938 2.055 . S
Co930 O941 2.039 . S
Co930 N944 2.140 . S
C931 O932 1.227 . S
C931 O941 1.265 . S
O932 C931 1.227 . S
N933 Co930 2.121 . S
N933 C935 1.375 . S
N933 C936 1.313 . S
C934 C935 1.338 . S
C934 N937 1.377 . S
C934 H954 0.930 . S
C935 N933 1.375 . S
C935 C934 1.338 . S
C935 H939 0.931 . S
C936 N933 1.313 . S
C936 N937 1.344 . S
C936 H940 0.930 . S
N937 C934 1.377 . S
N937 C936 1.344 . S
O938 Co930 2.055 . S
O938 C942 1.253 . S
H939 C935 0.931 . S
H940 C936 0.930 . S
O941 Co930 2.039 . S
O941 C931 1.265 . S
C942 O938 1.253 . S
C942 O943 1.227 . S
O943 C942 1.227 . S
N944 Co930 2.140 . S
N944 C947 1.346 . S
N944 C948 1.345 . S
C945 C946 1.387 . S
C945 C949 1.391 . S
C946 C945 1.387 . S
C946 C947 1.369 . S
C946 H955 0.929 . S
C947 N944 1.346 . S
C947 C946 1.369 . S
C947 H950 0.928 . S
C948 N944 1.345 . S
C948 C949 1.371 . S
C948 H951 0.931 . S
C949 C945 1.391 . S
C949 C948 1.371 . S
C949 H956 0.930 . S
H950 C947 0.928 . S
H951 C948 0.931 . S
H952 C928 0.930 . S
H953 C925 0.930 . S
H954 C934 0.930 . S
H955 C946 0.929 . S
H956 C949 0.930 . S
C957 C958 1.351 1_554 S
C957 N960 1.368 . S
C957 H962 0.931 . S
C958 C957 1.351 1_556 S
C958 N959 1.373 1_556 S
C958 H986 0.930 . S
N959 C958 1.373 1_554 S
N959 C961 1.340 . S
N960 C957 1.368 . S
N960 C961 1.321 . S
N960 Co963 2.135 . S
C961 N959 1.340 . S
C961 N960 1.321 . S
C961 H985 0.930 . S
H962 C957 0.931 . S
Co963 N960 2.135 . S
Co963 N966 2.121 . S
Co963 O971 2.055 . S
Co963 O974 2.039 . S
Co963 N977 2.140 . S
C964 O965 1.227 . S
C964 O974 1.265 . S
O965 C964 1.227 . S
N966 Co963 2.121 . S
N966 C968 1.375 . S
N966 C969 1.313 . S
C967 C968 1.338 . S
C967 N970 1.377 . S
C967 H987 0.930 . S
C968 N966 1.375 . S
C968 C967 1.338 . S
C968 H972 0.931 . S
C969 N966 1.313 . S
C969 N970 1.344 . S
C969 H973 0.930 . S
N970 C967 1.377 . S
N970 C969 1.344 . S
O971 Co963 2.055 . S
O971 C975 1.253 . S
H972 C968 0.931 . S
H973 C969 0.930 . S
O974 Co963 2.039 . S
O974 C964 1.265 . S
C975 O971 1.253 . S
C975 O976 1.227 . S
O976 C975 1.227 . S
N977 Co963 2.140 . S
N977 C980 1.346 . S
N977 C981 1.345 . S
C978 C979 1.387 . S
C978 C982 1.391 . S
C979 C978 1.387 . S
C979 C980 1.369 . S
C979 H988 0.929 . S
C980 N977 1.346 . S
C980 C979 1.369 . S
C980 H983 0.928 . S
C981 N977 1.345 . S
C981 C982 1.371 . S
C981 H984 0.931 . S
C982 C978 1.391 . S
C982 C981 1.371 . S
C982 H989 0.930 . S
H983 C980 0.928 . S
H984 C981 0.931 . S
H985 C961 0.930 . S
H986 C958 0.930 . S
H987 C967 0.930 . S
H988 C979 0.929 . S
H989 C982 0.930 . S
C990 C991 1.351 . S
C990 N993 1.368 . S
C990 H995 0.931 . S
C991 C990 1.351 . S
C991 N992 1.373 . S
C991 H1019 0.930 1_556 S
N992 C991 1.373 . S
N992 C994 1.340 . S
N993 C990 1.368 . S
N993 C994 1.321 . S
N993 Co996 2.135 . S
C994 N992 1.340 . S
C994 N993 1.321 . S
C994 H1018 0.930 . S
H995 C990 0.931 . S
Co996 N993 2.135 . S
Co996 N999 2.121 . S
Co996 O1004 2.055 . S
Co996 O1007 2.039 . S
Co996 N1010 2.140 . S
C997 O998 1.227 . S
C997 O1007 1.265 . S
O998 C997 1.227 . S
N999 Co996 2.121 . S
N999 C1001 1.375 . S
N999 C1002 1.313 . S
C1000 C1001 1.338 . S
C1000 N1003 1.377 . S
C1000 H1020 0.930 . S
C1001 N999 1.375 . S
C1001 C1000 1.338 . S
C1001 H1005 0.931 . S
C1002 N999 1.313 . S
C1002 N1003 1.344 . S
C1002 H1006 0.930 . S
N1003 C1000 1.377 . S
N1003 C1002 1.344 . S
O1004 Co996 2.055 . S
O1004 C1008 1.253 . S
H1005 C1001 0.931 . S
H1006 C1002 0.930 . S
O1007 Co996 2.039 . S
O1007 C997 1.265 . S
C1008 O1004 1.253 . S
C1008 O1009 1.227 . S
O1009 C1008 1.227 . S
N1010 Co996 2.140 . S
N1010 C1013 1.346 . S
N1010 C1014 1.345 . S
C1011 C1012 1.387 . S
C1011 C1015 1.391 . S
C1012 C1011 1.387 . S
C1012 C1013 1.369 . S
C1012 H1021 0.929 . S
C1013 N1010 1.346 . S
C1013 C1012 1.369 . S
C1013 H1016 0.928 . S
C1014 N1010 1.345 . S
C1014 C1015 1.371 . S
C1014 H1017 0.931 . S
C1015 C1011 1.391 . S
C1015 C1014 1.371 . S
C1015 H1022 0.930 . S
H1016 C1013 0.928 . S
H1017 C1014 0.931 . S
H1018 C994 0.930 . S
H1019 C991 0.930 1_554 S
H1020 C1000 0.930 . S
H1021 C1012 0.929 . S
H1022 C1015 0.930 . S
C1023 C1024 1.351 . S
C1023 N1026 1.368 . S
C1023 H1028 0.931 . S
C1024 C1023 1.351 . S
C1024 N1025 1.373 . S
C1024 H1052 0.930 1_556 S
N1025 C1024 1.373 . S
N1025 C1027 1.340 . S
N1026 C1023 1.368 . S
N1026 C1027 1.321 . S
N1026 Co1029 2.135 . S
C1027 N1025 1.340 . S
C1027 N1026 1.321 . S
C1027 H1051 0.930 . S
H1028 C1023 0.931 . S
Co1029 N1026 2.135 . S
Co1029 N1032 2.121 . S
Co1029 O1037 2.055 . S
Co1029 O1040 2.039 . S
Co1029 N1043 2.140 . S
C1030 O1031 1.227 . S
C1030 O1040 1.265 . S
O1031 C1030 1.227 . S
N1032 Co1029 2.121 . S
N1032 C1034 1.375 . S
N1032 C1035 1.313 . S
C1033 C1034 1.338 . S
C1033 N1036 1.377 . S
C1033 H1053 0.930 . S
C1034 N1032 1.375 . S
C1034 C1033 1.338 . S
C1034 H1038 0.931 . S
C1035 N1032 1.313 . S
C1035 N1036 1.344 . S
C1035 H1039 0.930 . S
N1036 C1033 1.377 . S
N1036 C1035 1.344 . S
O1037 Co1029 2.055 . S
O1037 C1041 1.253 . S
H1038 C1034 0.931 . S
H1039 C1035 0.930 . S
O1040 Co1029 2.039 . S
O1040 C1030 1.265 . S
C1041 O1037 1.253 . S
C1041 O1042 1.227 . S
O1042 C1041 1.227 . S
N1043 Co1029 2.140 . S
N1043 C1046 1.346 . S
N1043 C1047 1.345 . S
C1044 C1045 1.387 . S
C1044 C1048 1.391 . S
C1045 C1044 1.387 . S
C1045 C1046 1.369 . S
C1045 H1054 0.929 . S
C1046 N1043 1.346 . S
C1046 C1045 1.369 . S
C1046 H1049 0.928 . S
C1047 N1043 1.345 . S
C1047 C1048 1.371 . S
C1047 H1050 0.931 . S
C1048 C1044 1.391 . S
C1048 C1047 1.371 . S
C1048 H1055 0.930 . S
H1049 C1046 0.928 . S
H1050 C1047 0.931 . S
H1051 C1027 0.930 . S
H1052 C1024 0.930 1_554 S
H1053 C1033 0.930 . S
H1054 C1045 0.929 . S
H1055 C1048 0.930 . S
C1056 C1057 1.351 . S
C1056 N1059 1.368 . S
C1056 H1061 0.931 . S
C1057 C1056 1.351 . S
C1057 N1058 1.373 . S
C1057 H1085 0.930 1_556 S
N1058 C1057 1.373 . S
N1058 C1060 1.340 . S
N1059 C1056 1.368 . S
N1059 C1060 1.321 . S
N1059 Co1062 2.135 . S
C1060 N1058 1.340 . S
C1060 N1059 1.321 . S
C1060 H1084 0.930 . S
H1061 C1056 0.931 . S
Co1062 N1059 2.135 . S
Co1062 N1065 2.121 . S
Co1062 O1070 2.055 . S
Co1062 O1073 2.039 . S
Co1062 N1076 2.140 . S
C1063 O1064 1.227 . S
C1063 O1073 1.265 . S
O1064 C1063 1.227 . S
N1065 Co1062 2.121 . S
N1065 C1067 1.375 . S
N1065 C1068 1.313 . S
C1066 C1067 1.338 . S
C1066 N1069 1.377 . S
C1066 H1086 0.930 . S
C1067 N1065 1.375 . S
C1067 C1066 1.338 . S
C1067 H1071 0.931 . S
C1068 N1065 1.313 . S
C1068 N1069 1.344 . S
C1068 H1072 0.930 . S
N1069 C1066 1.377 . S
N1069 C1068 1.344 . S
O1070 Co1062 2.055 . S
O1070 C1074 1.253 . S
H1071 C1067 0.931 . S
H1072 C1068 0.930 . S
O1073 Co1062 2.039 . S
O1073 C1063 1.265 . S
C1074 O1070 1.253 . S
C1074 O1075 1.227 . S
O1075 C1074 1.227 . S
N1076 Co1062 2.140 . S
N1076 C1079 1.346 . S
N1076 C1080 1.345 . S
C1077 C1078 1.387 . S
C1077 C1081 1.391 . S
C1078 C1077 1.387 . S
C1078 C1079 1.369 . S
C1078 H1087 0.929 . S
C1079 N1076 1.346 . S
C1079 C1078 1.369 . S
C1079 H1082 0.928 . S
C1080 N1076 1.345 . S
C1080 C1081 1.371 . S
C1080 H1083 0.931 . S
C1081 C1077 1.391 . S
C1081 C1080 1.371 . S
C1081 H1088 0.930 . S
H1082 C1079 0.928 . S
H1083 C1080 0.931 . S
H1084 C1060 0.930 . S
H1085 C1057 0.930 1_554 S
H1086 C1066 0.930 . S
H1087 C1078 0.929 . S
H1088 C1081 0.930 . S
C1089 C1090 1.351 . S
C1089 N1092 1.368 1_556 S
C1089 H1094 0.931 . S
C1090 C1089 1.351 . S
C1090 N1091 1.373 . S
C1090 H1118 0.930 . S
N1091 C1090 1.373 . S
N1091 C1093 1.340 1_556 S
N1092 C1089 1.368 1_554 S
N1092 C1093 1.321 . S
N1092 Co1095 2.135 . S
C1093 N1091 1.340 1_554 S
C1093 N1092 1.321 . S
C1093 H1117 0.930 . S
H1094 C1089 0.931 . S
Co1095 N1092 2.135 . S
Co1095 N1098 2.121 . S
Co1095 O1103 2.055 . S
Co1095 O1106 2.039 . S
Co1095 N1109 2.140 . S
C1096 O1097 1.227 . S
C1096 O1106 1.265 . S
O1097 C1096 1.227 . S
N1098 Co1095 2.121 . S
N1098 C1100 1.375 . S
N1098 C1101 1.313 . S
C1099 C1100 1.338 . S
C1099 N1102 1.377 . S
C1099 H1119 0.930 . S
C1100 N1098 1.375 . S
C1100 C1099 1.338 . S
C1100 H1104 0.931 . S
C1101 N1098 1.313 . S
C1101 N1102 1.344 . S
C1101 H1105 0.930 . S
N1102 C1099 1.377 . S
N1102 C1101 1.344 . S
O1103 Co1095 2.055 . S
O1103 C1107 1.253 . S
H1104 C1100 0.931 . S
H1105 C1101 0.930 . S
O1106 Co1095 2.039 . S
O1106 C1096 1.265 . S
C1107 O1103 1.253 . S
C1107 O1108 1.227 . S
O1108 C1107 1.227 . S
N1109 Co1095 2.140 . S
N1109 C1112 1.346 . S
N1109 C1113 1.345 . S
C1110 C1111 1.387 . S
C1110 C1114 1.391 . S
C1111 C1110 1.387 . S
C1111 C1112 1.369 . S
C1111 H1120 0.929 . S
C1112 N1109 1.346 . S
C1112 C1111 1.369 . S
C1112 H1115 0.928 . S
C1113 N1109 1.345 . S
C1113 C1114 1.371 . S
C1113 H1116 0.931 . S
C1114 C1110 1.391 . S
C1114 C1113 1.371 . S
C1114 H1121 0.930 . S
H1115 C1112 0.928 . S
H1116 C1113 0.931 . S
H1117 C1093 0.930 . S
H1118 C1090 0.930 . S
H1119 C1099 0.930 . S
H1120 C1111 0.929 . S
H1121 C1114 0.930 . S
C1122 C1123 1.351 . S
C1122 N1125 1.368 1_556 S
C1122 H1127 0.931 . S
C1123 C1122 1.351 . S
C1123 N1124 1.373 . S
C1123 H1151 0.930 . S
N1124 C1123 1.373 . S
N1124 C1126 1.340 1_556 S
N1125 C1122 1.368 1_554 S
N1125 C1126 1.321 . S
N1125 Co1128 2.135 . S
C1126 N1124 1.340 1_554 S
C1126 N1125 1.321 . S
C1126 H1150 0.930 . S
H1127 C1122 0.931 . S
Co1128 N1125 2.135 . S
Co1128 N1131 2.121 . S
Co1128 O1136 2.055 . S
Co1128 O1139 2.039 . S
Co1128 N1142 2.140 . S
C1129 O1130 1.227 . S
C1129 O1139 1.265 . S
O1130 C1129 1.227 . S
N1131 Co1128 2.121 . S
N1131 C1133 1.375 . S
N1131 C1134 1.313 . S
C1132 C1133 1.338 . S
C1132 N1135 1.377 . S
C1132 H1152 0.930 . S
C1133 N1131 1.375 . S
C1133 C1132 1.338 . S
C1133 H1137 0.931 . S
C1134 N1131 1.313 . S
C1134 N1135 1.344 . S
C1134 H1138 0.930 . S
N1135 C1132 1.377 . S
N1135 C1134 1.344 . S
O1136 Co1128 2.055 . S
O1136 C1140 1.253 . S
H1137 C1133 0.931 . S
H1138 C1134 0.930 . S
O1139 Co1128 2.039 . S
O1139 C1129 1.265 . S
C1140 O1136 1.253 . S
C1140 O1141 1.227 . S
O1141 C1140 1.227 . S
N1142 Co1128 2.140 . S
N1142 C1145 1.346 . S
N1142 C1146 1.345 . S
C1143 C1144 1.387 . S
C1143 C1147 1.391 . S
C1144 C1143 1.387 . S
C1144 C1145 1.369 . S
C1144 H1153 0.929 . S
C1145 N1142 1.346 . S
C1145 C1144 1.369 . S
C1145 H1148 0.928 . S
C1146 N1142 1.345 . S
C1146 C1147 1.371 . S
C1146 H1149 0.931 . S
C1147 C1143 1.391 . S
C1147 C1146 1.371 . S
C1147 H1154 0.930 . S
H1148 C1145 0.928 . S
H1149 C1146 0.931 . S
H1150 C1126 0.930 . S
H1151 C1123 0.930 . S
H1152 C1132 0.930 . S
H1153 C1144 0.929 . S
H1154 C1147 0.930 . S
C1155 C1156 1.351 . S
C1155 N1158 1.368 1_556 S
C1155 H1160 0.931 . S
C1156 C1155 1.351 . S
C1156 N1157 1.373 . S
C1156 H1184 0.930 . S
N1157 C1156 1.373 . S
N1157 C1159 1.340 1_556 S
N1158 C1155 1.368 1_554 S
N1158 C1159 1.321 . S
N1158 Co1161 2.135 . S
C1159 N1157 1.340 1_554 S
C1159 N1158 1.321 . S
C1159 H1183 0.930 . S
H1160 C1155 0.931 . S
Co1161 N1158 2.135 . S
Co1161 N1164 2.121 . S
Co1161 O1169 2.055 . S
Co1161 O1172 2.039 . S
Co1161 N1175 2.140 . S
C1162 O1163 1.227 . S
C1162 O1172 1.265 . S
O1163 C1162 1.227 . S
N1164 Co1161 2.121 . S
N1164 C1166 1.375 . S
N1164 C1167 1.313 . S
C1165 C1166 1.338 . S
C1165 N1168 1.377 . S
C1165 H1185 0.930 . S
C1166 N1164 1.375 . S
C1166 C1165 1.338 . S
C1166 H1170 0.931 . S
C1167 N1164 1.313 . S
C1167 N1168 1.344 . S
C1167 H1171 0.930 . S
N1168 C1165 1.377 . S
N1168 C1167 1.344 . S
O1169 Co1161 2.055 . S
O1169 C1173 1.253 . S
H1170 C1166 0.931 . S
H1171 C1167 0.930 . S
O1172 Co1161 2.039 . S
O1172 C1162 1.265 . S
C1173 O1169 1.253 . S
C1173 O1174 1.227 . S
O1174 C1173 1.227 . S
N1175 Co1161 2.140 . S
N1175 C1178 1.346 . S
N1175 C1179 1.345 . S
C1176 C1177 1.387 . S
C1176 C1180 1.391 . S
C1177 C1176 1.387 . S
C1177 C1178 1.369 . S
C1177 H1186 0.929 . S
C1178 N1175 1.346 . S
C1178 C1177 1.369 . S
C1178 H1181 0.928 . S
C1179 N1175 1.345 . S
C1179 C1180 1.371 . S
C1179 H1182 0.931 . S
C1180 C1176 1.391 . S
C1180 C1179 1.371 . S
C1180 H1187 0.930 . S
H1181 C1178 0.928 . S
H1182 C1179 0.931 . S
H1183 C1159 0.930 . S
H1184 C1156 0.930 . S
H1185 C1165 0.930 . S
H1186 C1177 0.929 . S
H1187 C1180 0.930 . S
C1188 C1189 1.387 . S
C1188 H1192 0.950 . S
C1188 C1197 1.390 . S
C1189 C1188 1.387 . S
C1189 C1191 1.387 . S
H1190 C1197 0.950 . S
C1191 C1189 1.387 . S
C1191 C1193 1.390 . S
C1191 H1195 0.950 . S
H1192 C1188 0.950 . S
C1193 C1191 1.390 . S
C1193 C1194 1.387 . S
C1193 H1196 0.950 . S
C1194 C1193 1.387 . S
C1194 C1197 1.387 . S
H1195 C1191 0.950 . S
H1196 C1193 0.950 . S
C1197 C1188 1.390 . S
C1197 H1190 0.950 . S
C1197 C1194 1.387 . S
C1198 C1199 1.387 . S
C1198 H1202 0.950 . S
C1198 C1207 1.390 . S
C1199 C1198 1.387 . S
C1199 C1201 1.387 . S
H1200 C1207 0.950 . S
C1201 C1199 1.387 . S
C1201 C1203 1.390 . S
C1201 H1205 0.950 . S
H1202 C1198 0.950 . S
C1203 C1201 1.390 . S
C1203 C1204 1.387 . S
C1203 H1206 0.950 . S
C1204 C1203 1.387 . S
C1204 C1207 1.387 . S
H1205 C1201 0.950 . S
H1206 C1203 0.950 . S
C1207 C1198 1.390 . S
C1207 H1200 0.950 . S
C1207 C1204 1.387 . S
C1208 C1209 1.387 . S
C1208 H1212 0.950 . S
C1208 C1217 1.390 . S
C1209 C1208 1.387 . S
C1209 C1211 1.387 . S
H1210 C1217 0.950 . S
C1211 C1209 1.387 . S
C1211 C1213 1.390 . S
C1211 H1215 0.950 . S
H1212 C1208 0.950 . S
C1213 C1211 1.390 . S
C1213 C1214 1.387 . S
C1213 H1216 0.950 . S
C1214 C1213 1.387 . S
C1214 C1217 1.387 . S
H1215 C1211 0.950 . S
H1216 C1213 0.950 . S
C1217 C1208 1.390 . S
C1217 H1210 0.950 . S
C1217 C1214 1.387 . S
C1218 C1219 1.387 . S
C1218 H1222 0.950 . S
C1218 C1227 1.390 . S
C1219 C1218 1.387 . S
C1219 C1221 1.387 . S
H1220 C1227 0.950 . S
C1221 C1219 1.387 . S
C1221 C1223 1.390 . S
C1221 H1225 0.950 . S
H1222 C1218 0.950 . S
C1223 C1221 1.390 . S
C1223 C1224 1.387 . S
C1223 H1226 0.950 . S
C1224 C1223 1.387 . S
C1224 C1227 1.387 . S
H1225 C1221 0.950 . S
H1226 C1223 0.950 . S
C1227 C1218 1.390 . S
C1227 H1220 0.950 . S
C1227 C1224 1.387 . S
C1228 C1229 1.387 . S
C1228 H1232 0.950 . S
C1228 C1237 1.390 . S
C1229 C1228 1.387 . S
C1229 C1231 1.387 . S
H1230 C1237 0.950 . S
C1231 C1229 1.387 . S
C1231 C1233 1.390 . S
C1231 H1235 0.950 . S
H1232 C1228 0.950 . S
C1233 C1231 1.390 . S
C1233 C1234 1.387 . S
C1233 H1236 0.950 . S
C1234 C1233 1.387 . S
C1234 C1237 1.387 . S
H1235 C1231 0.950 . S
H1236 C1233 0.950 . S
C1237 C1228 1.390 . S
C1237 H1230 0.950 . S
C1237 C1234 1.387 . S
C1238 C1239 1.387 . S
C1238 H1242 0.950 . S
C1238 C1247 1.390 . S
C1239 C1238 1.387 . S
C1239 C1241 1.387 . S
H1240 C1247 0.950 . S
C1241 C1239 1.387 . S
C1241 C1243 1.390 . S
C1241 H1245 0.950 . S
H1242 C1238 0.950 . S
C1243 C1241 1.390 . S
C1243 C1244 1.387 . S
C1243 H1246 0.950 . S
C1244 C1243 1.387 . S
C1244 C1247 1.387 . S
H1245 C1241 0.950 . S
H1246 C1243 0.950 . S
C1247 C1238 1.390 . S
C1247 H1240 0.950 . S
C1247 C1244 1.387 . S
C1248 C1249 1.387 . S
C1248 H1252 0.950 . S
C1248 C1257 1.390 . S
C1249 C1248 1.387 . S
C1249 C1251 1.387 . S
H1250 C1257 0.950 . S
C1251 C1249 1.387 . S
C1251 C1253 1.390 . S
C1251 H1255 0.950 . S
H1252 C1248 0.950 . S
C1253 C1251 1.390 . S
C1253 C1254 1.387 . S
C1253 H1256 0.950 . S
C1254 C1253 1.387 . S
C1254 C1257 1.387 . S
H1255 C1251 0.950 . S
H1256 C1253 0.950 . S
C1257 C1248 1.390 . S
C1257 H1250 0.950 . S
C1257 C1254 1.387 . S
C1258 C1259 1.387 . S
C1258 H1262 0.950 . S
C1258 C1267 1.390 . S
C1259 C1258 1.387 . S
C1259 C1261 1.387 . S
H1260 C1267 0.950 . S
C1261 C1259 1.387 . S
C1261 C1263 1.390 . S
C1261 H1265 0.950 . S
H1262 C1258 0.950 . S
C1263 C1261 1.390 . S
C1263 C1264 1.387 . S
C1263 H1266 0.950 . S
C1264 C1263 1.387 . S
C1264 C1267 1.387 . S
H1265 C1261 0.950 . S
H1266 C1263 0.950 . S
C1267 C1258 1.390 . S
C1267 H1260 0.950 . S
C1267 C1264 1.387 . S
C1268 C1269 1.387 . S
C1268 H1272 0.950 . S
C1268 C1277 1.390 . S
C1269 C1268 1.387 . S
C1269 C1271 1.387 . S
H1270 C1277 0.950 . S
C1271 C1269 1.387 . S
C1271 C1273 1.390 . S
C1271 H1275 0.950 . S
H1272 C1268 0.950 . S
C1273 C1271 1.390 . S
C1273 C1274 1.387 . S
C1273 H1276 0.950 . S
C1274 C1273 1.387 . S
C1274 C1277 1.387 . S
H1275 C1271 0.950 . S
H1276 C1273 0.950 . S
C1277 C1268 1.390 . S
C1277 H1270 0.950 . S
C1277 C1274 1.387 . S
C1278 C1279 1.387 . S
C1278 H1282 0.950 . S
C1278 C1287 1.390 . S
C1279 C1278 1.387 . S
C1279 C1281 1.387 . S
H1280 C1287 0.950 . S
C1281 C1279 1.387 . S
C1281 C1283 1.390 . S
C1281 H1285 0.950 . S
H1282 C1278 0.950 . S
C1283 C1281 1.390 . S
C1283 C1284 1.387 . S
C1283 H1286 0.950 . S
C1284 C1283 1.387 . S
C1284 C1287 1.387 . S
H1285 C1281 0.950 . S
H1286 C1283 0.950 . S
C1287 C1278 1.390 . S
C1287 H1280 0.950 . S
C1287 C1284 1.387 . S
C1288 C1289 1.387 . S
C1288 H1292 0.950 . S
C1288 C1297 1.390 . S
C1289 C1288 1.387 . S
C1289 C1291 1.387 . S
H1290 C1297 0.950 . S
C1291 C1289 1.387 . S
C1291 C1293 1.390 . S
C1291 H1295 0.950 . S
H1292 C1288 0.950 . S
C1293 C1291 1.390 . S
C1293 C1294 1.387 . S
C1293 H1296 0.950 . S
C1294 C1293 1.387 . S
C1294 C1297 1.387 . S
H1295 C1291 0.950 . S
H1296 C1293 0.950 . S
C1297 C1288 1.390 . S
C1297 H1290 0.950 . S
C1297 C1294 1.387 . S
C1298 C1299 1.387 . S
C1298 H1302 0.950 . S
C1298 C1307 1.390 . S
C1299 C1298 1.387 . S
C1299 C1301 1.387 . S
H1300 C1307 0.950 . S
C1301 C1299 1.387 . S
C1301 C1303 1.390 . S
C1301 H1305 0.950 . S
H1302 C1298 0.950 . S
C1303 C1301 1.390 . S
C1303 C1304 1.387 . S
C1303 H1306 0.950 . S
C1304 C1303 1.387 . S
C1304 C1307 1.387 . S
H1305 C1301 0.950 . S
H1306 C1303 0.950 . S
C1307 C1298 1.390 . S
C1307 H1300 0.950 . S
C1307 C1304 1.387 . S
C1308 C1309 1.387 . S
C1308 H1312 0.950 . S
C1308 C1317 1.390 . S
C1309 C1308 1.387 . S
C1309 C1311 1.387 . S
H1310 C1317 0.950 . S
C1311 C1309 1.387 . S
C1311 C1313 1.390 . S
C1311 H1315 0.950 . S
H1312 C1308 0.950 . S
C1313 C1311 1.390 . S
C1313 C1314 1.387 . S
C1313 H1316 0.950 . S
C1314 C1313 1.387 . S
C1314 C1317 1.387 . S
H1315 C1311 0.950 . S
H1316 C1313 0.950 . S
C1317 C1308 1.390 . S
C1317 H1310 0.950 . S
C1317 C1314 1.387 . S
C1318 C1319 1.387 . S
C1318 H1322 0.950 . S
C1318 C1327 1.390 . S
C1319 C1318 1.387 . S
C1319 C1321 1.387 . S
H1320 C1327 0.950 . S
C1321 C1319 1.387 . S
C1321 C1323 1.390 . S
C1321 H1325 0.950 . S
H1322 C1318 0.950 . S
C1323 C1321 1.390 . S
C1323 C1324 1.387 . S
C1323 H1326 0.950 1_554 S
C1324 C1323 1.387 . S
C1324 C1327 1.387 . S
H1325 C1321 0.950 . S
H1326 C1323 0.950 1_556 S
C1327 C1318 1.390 . S
C1327 H1320 0.950 . S
C1327 C1324 1.387 . S
C1328 C1329 1.387 . S
C1328 H1332 0.950 . S
C1328 C1337 1.390 . S
C1329 C1328 1.387 . S
C1329 C1331 1.387 . S
H1330 C1337 0.950 . S
C1331 C1329 1.387 . S
C1331 C1333 1.390 . S
C1331 H1335 0.950 . S
H1332 C1328 0.950 . S
C1333 C1331 1.390 . S
C1333 C1334 1.387 . S
C1333 H1336 0.950 . S
C1334 C1333 1.387 . S
C1334 C1337 1.387 . S
H1335 C1331 0.950 . S
H1336 C1333 0.950 . S
C1337 C1328 1.390 . S
C1337 H1330 0.950 . S
C1337 C1334 1.387 . S
C1338 C1339 1.387 . S
C1338 H1342 0.950 . S
C1338 C1347 1.390 . S
C1339 C1338 1.387 . S
C1339 C1341 1.387 . S
H1340 C1347 0.950 . S
C1341 C1339 1.387 . S
C1341 C1343 1.390 . S
C1341 H1345 0.950 . S
H1342 C1338 0.950 . S
C1343 C1341 1.390 . S
C1343 C1344 1.387 . S
C1343 H1346 0.950 . S
C1344 C1343 1.387 . S
C1344 C1347 1.387 . S
H1345 C1341 0.950 . S
H1346 C1343 0.950 . S
C1347 C1338 1.390 . S
C1347 H1340 0.950 . S
C1347 C1344 1.387 . S
C1348 C1349 1.387 . S
C1348 H1352 0.950 . S
C1348 C1357 1.390 . S
C1349 C1348 1.387 . S
C1349 C1351 1.387 . S
H1350 C1357 0.950 1_556 S
C1351 C1349 1.387 . S
C1351 C1353 1.390 . S
C1351 H1355 0.950 . S
H1352 C1348 0.950 . S
C1353 C1351 1.390 . S
C1353 C1354 1.387 . S
C1353 H1356 0.950 . S
C1354 C1353 1.387 . S
C1354 C1357 1.387 . S
H1355 C1351 0.950 . S
H1356 C1353 0.950 . S
C1357 C1348 1.390 . S
C1357 H1350 0.950 1_554 S
C1357 C1354 1.387 . S
C1358 C1359 1.387 . S
C1358 H1362 0.950 . S
C1358 C1367 1.390 . S
C1359 C1358 1.387 . S
C1359 C1361 1.387 . S
H1360 C1367 0.950 . S
C1361 C1359 1.387 . S
C1361 C1363 1.390 . S
C1361 H1365 0.950 . S
H1362 C1358 0.950 . S
C1363 C1361 1.390 . S
C1363 C1364 1.387 . S
C1363 H1366 0.950 . S
C1364 C1363 1.387 . S
C1364 C1367 1.387 . S
H1365 C1361 0.950 . S
H1366 C1363 0.950 . S
C1367 C1358 1.390 . S
C1367 H1360 0.950 . S
C1367 C1364 1.387 . S
C1368 C1369 1.387 . S
C1368 H1372 0.950 . S
C1368 C1377 1.390 . S
C1369 C1368 1.387 . S
C1369 C1371 1.387 . S
H1370 C1377 0.950 . S
C1371 C1369 1.387 . S
C1371 C1373 1.390 . S
C1371 H1375 0.950 . S
H1372 C1368 0.950 . S
C1373 C1371 1.390 . S
C1373 C1374 1.387 . S
C1373 H1376 0.950 . S
C1374 C1373 1.387 . S
C1374 C1377 1.387 . S
H1375 C1371 0.950 . S
H1376 C1373 0.950 . S
C1377 C1368 1.390 . S
C1377 H1370 0.950 . S
C1377 C1374 1.387 . S
C1378 C1379 1.387 . S
C1378 H1382 0.950 . S
C1378 C1387 1.390 . S
C1379 C1378 1.387 . S
C1379 C1381 1.387 . S
H1380 C1387 0.950 . S
C1381 C1379 1.387 . S
C1381 C1383 1.390 . S
C1381 H1385 0.950 . S
H1382 C1378 0.950 . S
C1383 C1381 1.390 . S
C1383 C1384 1.387 . S
C1383 H1386 0.950 . S
C1384 C1383 1.387 . S
C1384 C1387 1.387 . S
H1385 C1381 0.950 . S
H1386 C1383 0.950 . S
C1387 C1378 1.390 . S
C1387 H1380 0.950 . S
C1387 C1384 1.387 . S
C1388 C1389 1.387 . S
C1388 H1392 0.950 . S
C1388 C1397 1.390 . S
C1389 C1388 1.387 . S
C1389 C1391 1.387 . S
H1390 C1397 0.950 . S
C1391 C1389 1.387 . S
C1391 C1393 1.390 . S
C1391 H1395 0.950 . S
H1392 C1388 0.950 . S
C1393 C1391 1.390 . S
C1393 C1394 1.387 . S
C1393 H1396 0.950 . S
C1394 C1393 1.387 . S
C1394 C1397 1.387 . S
H1395 C1391 0.950 . S
H1396 C1393 0.950 . S
C1397 C1388 1.390 . S
C1397 H1390 0.950 . S
C1397 C1394 1.387 . S
C1398 C1399 1.387 . S
C1398 H1402 0.950 . S
C1398 C1407 1.390 . S
C1399 C1398 1.387 . S
C1399 C1401 1.387 . S
H1400 C1407 0.950 . S
C1401 C1399 1.387 . S
C1401 C1403 1.390 . S
C1401 H1405 0.950 . S
H1402 C1398 0.950 . S
C1403 C1401 1.390 . S
C1403 C1404 1.387 . S
C1403 H1406 0.950 . S
C1404 C1403 1.387 . S
C1404 C1407 1.387 . S
H1405 C1401 0.950 . S
H1406 C1403 0.950 . S
C1407 C1398 1.390 . S
C1407 H1400 0.950 . S
C1407 C1404 1.387 . S
C1408 C1409 1.387 . S
C1408 H1412 0.950 . S
C1408 C1417 1.390 . S
C1409 C1408 1.387 . S
C1409 C1411 1.387 . S
H1410 C1417 0.950 . S
C1411 C1409 1.387 . S
C1411 C1413 1.390 . S
C1411 H1415 0.950 . S
H1412 C1408 0.950 . S
C1413 C1411 1.390 . S
C1413 C1414 1.387 . S
C1413 H1416 0.950 . S
C1414 C1413 1.387 . S
C1414 C1417 1.387 . S
H1415 C1411 0.950 . S
H1416 C1413 0.950 . S
C1417 C1408 1.390 . S
C1417 H1410 0.950 . S
C1417 C1414 1.387 . S
C1418 C1419 1.387 . S
C1418 H1422 0.950 . S
C1418 C1427 1.390 . S
C1419 C1418 1.387 . S
C1419 C1421 1.387 . S
H1420 C1427 0.950 . S
C1421 C1419 1.387 . S
C1421 C1423 1.390 . S
C1421 H1425 0.950 . S
H1422 C1418 0.950 . S
C1423 C1421 1.390 . S
C1423 C1424 1.387 . S
C1423 H1426 0.950 . S
C1424 C1423 1.387 . S
C1424 C1427 1.387 . S
H1425 C1421 0.950 . S
H1426 C1423 0.950 . S
C1427 C1418 1.390 . S
C1427 H1420 0.950 . S
C1427 C1424 1.387 . S
C1428 C1429 1.387 . S
C1428 H1432 0.950 . S
C1428 C1437 1.390 . S
C1429 C1428 1.387 . S
C1429 C1431 1.387 . S
H1430 C1437 0.950 . S
C1431 C1429 1.387 . S
C1431 C1433 1.390 . S
C1431 H1435 0.950 . S
H1432 C1428 0.950 . S
C1433 C1431 1.390 . S
C1433 C1434 1.387 . S
C1433 H1436 0.950 . S
C1434 C1433 1.387 . S
C1434 C1437 1.387 . S
H1435 C1431 0.950 . S
H1436 C1433 0.950 . S
C1437 C1428 1.390 . S
C1437 H1430 0.950 . S
C1437 C1434 1.387 . S
C1438 C1439 1.387 . S
C1438 H1442 0.950 . S
C1438 C1447 1.390 . S
C1439 C1438 1.387 . S
C1439 C1441 1.387 . S
H1440 C1447 0.950 . S
C1441 C1439 1.387 . S
C1441 C1443 1.390 . S
C1441 H1445 0.950 . S
H1442 C1438 0.950 . S
C1443 C1441 1.390 . S
C1443 C1444 1.387 . S
C1443 H1446 0.950 . S
C1444 C1443 1.387 . S
C1444 C1447 1.387 . S
H1445 C1441 0.950 . S
H1446 C1443 0.950 . S
C1447 C1438 1.390 . S
C1447 H1440 0.950 . S
C1447 C1444 1.387 . S
C1448 C1449 1.387 . S
C1448 H1452 0.950 . S
C1448 C1457 1.390 . S
C1449 C1448 1.387 . S
C1449 C1451 1.387 . S
H1450 C1457 0.950 . S
C1451 C1449 1.387 . S
C1451 C1453 1.390 . S
C1451 H1455 0.950 . S
H1452 C1448 0.950 . S
C1453 C1451 1.390 . S
C1453 C1454 1.387 . S
C1453 H1456 0.950 . S
C1454 C1453 1.387 . S
C1454 C1457 1.387 . S
H1455 C1451 0.950 . S
H1456 C1453 0.950 . S
C1457 C1448 1.390 . S
C1457 H1450 0.950 . S
C1457 C1454 1.387 . S
C1458 C1459 1.387 . S
C1458 H1462 0.950 . S
C1458 C1467 1.390 . S
C1459 C1458 1.387 . S
C1459 C1461 1.387 . S
H1460 C1467 0.950 . S
C1461 C1459 1.387 . S
C1461 C1463 1.390 . S
C1461 H1465 0.950 . S
H1462 C1458 0.950 . S
C1463 C1461 1.390 . S
C1463 C1464 1.387 . S
C1463 H1466 0.950 . S
C1464 C1463 1.387 . S
C1464 C1467 1.387 . S
H1465 C1461 0.950 . S
H1466 C1463 0.950 . S
C1467 C1458 1.390 . S
C1467 H1460 0.950 . S
C1467 C1464 1.387 . S
C1468 C1469 1.387 . S
C1468 H1472 0.950 . S
C1468 C1477 1.390 . S
C1469 C1468 1.387 . S
C1469 C1471 1.387 . S
H1470 C1477 0.950 . S
C1471 C1469 1.387 . S
C1471 C1473 1.390 . S
C1471 H1475 0.950 . S
H1472 C1468 0.950 . S
C1473 C1471 1.390 . S
C1473 C1474 1.387 . S
C1473 H1476 0.950 . S
C1474 C1473 1.387 . S
C1474 C1477 1.387 . S
H1475 C1471 0.950 . S
H1476 C1473 0.950 . S
C1477 C1468 1.390 . S
C1477 H1470 0.950 . S
C1477 C1474 1.387 . S
C1478 C1479 1.387 . S
C1478 H1482 0.950 . S
C1478 C1487 1.390 . S
C1479 C1478 1.387 . S
C1479 C1481 1.387 . S
H1480 C1487 0.950 . S
C1481 C1479 1.387 . S
C1481 C1483 1.390 . S
C1481 H1485 0.950 . S
H1482 C1478 0.950 . S
C1483 C1481 1.390 . S
C1483 C1484 1.387 . S
C1483 H1486 0.950 . S
C1484 C1483 1.387 . S
C1484 C1487 1.387 . S
H1485 C1481 0.950 . S
H1486 C1483 0.950 . S
C1487 C1478 1.390 . S
C1487 H1480 0.950 . S
C1487 C1484 1.387 . S
C1488 C1489 1.387 . S
C1488 H1492 0.950 . S
C1488 C1497 1.390 . S
C1489 C1488 1.387 . S
C1489 C1491 1.387 . S
H1490 C1497 0.950 . S
C1491 C1489 1.387 . S
C1491 C1493 1.390 1_556 S
C1491 H1495 0.950 . S
H1492 C1488 0.950 . S
C1493 C1491 1.390 1_554 S
C1493 C1494 1.387 . S
C1493 H1496 0.950 . S
C1494 C1493 1.387 . S
C1494 C1497 1.387 1_554 S
H1495 C1491 0.950 . S
H1496 C1493 0.950 . S
C1497 C1488 1.390 . S
C1497 H1490 0.950 . S
C1497 C1494 1.387 1_556 S
C1498 C1499 1.387 . S
C1498 H1502 0.950 . S
C1498 C1507 1.390 1_554 S
C1499 C1498 1.387 . S
C1499 C1501 1.387 1_554 S
H1500 C1507 0.950 1_554 S
C1501 C1499 1.387 1_556 S
C1501 C1503 1.390 . S
C1501 H1505 0.950 . S
H1502 C1498 0.950 . S
C1503 C1501 1.390 . S
C1503 C1504 1.387 . S
C1503 H1506 0.950 . S
C1504 C1503 1.387 . S
C1504 C1507 1.387 . S
H1505 C1501 0.950 . S
H1506 C1503 0.950 . S
C1507 C1498 1.390 1_556 S
C1507 H1500 0.950 1_556 S
C1507 C1504 1.387 . S
C1508 C1509 1.387 . S
C1508 H1512 0.950 . S
C1508 C1517 1.390 1_554 S
C1509 C1508 1.387 . S
C1509 C1511 1.387 1_554 S
H1510 C1517 0.950 1_554 S
C1511 C1509 1.387 1_556 S
C1511 C1513 1.390 . S
C1511 H1515 0.950 . S
H1512 C1508 0.950 . S
C1513 C1511 1.390 . S
C1513 C1514 1.387 . S
C1513 H1516 0.950 . S
C1514 C1513 1.387 . S
C1514 C1517 1.387 . S
H1515 C1511 0.950 . S
H1516 C1513 0.950 . S
C1517 C1508 1.390 1_556 S
C1517 H1510 0.950 1_556 S
C1517 C1514 1.387 . S
C1518 C1519 1.387 . S
C1518 H1522 0.950 . S
C1518 C1527 1.390 . S
C1519 C1518 1.387 . S
C1519 C1521 1.387 . S
H1520 C1527 0.950 . S
C1521 C1519 1.387 . S
C1521 C1523 1.390 . S
C1521 H1525 0.950 1_556 S
H1522 C1518 0.950 . S
C1523 C1521 1.390 . S
C1523 C1524 1.387 . S
C1523 H1526 0.950 . S
C1524 C1523 1.387 . S
C1524 C1527 1.387 . S
H1525 C1521 0.950 1_554 S
H1526 C1523 0.950 . S
C1527 C1518 1.390 . S
C1527 H1520 0.950 . S
C1527 C1524 1.387 . S
C1528 C1529 1.387 . S
C1528 H1532 0.950 . S
C1528 C1537 1.390 . S
C1529 C1528 1.387 . S
C1529 C1531 1.387 1_556 S
H1530 C1537 0.950 . S
C1531 C1529 1.387 1_554 S
C1531 C1533 1.390 1_554 S
C1531 H1535 0.950 . S
H1532 C1528 0.950 . S
C1533 C1531 1.390 1_556 S
C1533 C1534 1.387 . S
C1533 H1536 0.950 . S
C1534 C1533 1.387 . S
C1534 C1537 1.387 . S
H1535 C1531 0.950 . S
H1536 C1533 0.950 . S
C1537 C1528 1.390 . S
C1537 H1530 0.950 . S
C1537 C1534 1.387 . S
C1538 C1539 1.387 . S
C1538 H1542 0.950 . S
C1538 C1547 1.390 . S
C1539 C1538 1.387 . S
C1539 C1541 1.387 . S
H1540 C1547 0.950 . S
C1541 C1539 1.387 . S
C1541 C1543 1.390 . S
C1541 H1545 0.950 . S
H1542 C1538 0.950 . S
C1543 C1541 1.390 . S
C1543 C1544 1.387 . S
C1543 H1546 0.950 1_556 S
C1544 C1543 1.387 . S
C1544 C1547 1.387 . S
H1545 C1541 0.950 . S
H1546 C1543 0.950 1_554 S
C1547 C1538 1.390 . S
C1547 H1540 0.950 . S
C1547 C1544 1.387 . S
C1548 C1549 1.387 . S
C1548 H1552 0.950 . S
C1548 C1557 1.390 . S
C1549 C1548 1.387 . S
C1549 C1551 1.387 . S
H1550 C1557 0.950 . S
C1551 C1549 1.387 . S
C1551 C1553 1.390 . S
C1551 H1555 0.950 . S
H1552 C1548 0.950 . S
C1553 C1551 1.390 . S
C1553 C1554 1.387 . S
C1553 H1556 0.950 . S
C1554 C1553 1.387 . S
C1554 C1557 1.387 . S
H1555 C1551 0.950 . S
H1556 C1553 0.950 . S
C1557 C1548 1.390 . S
C1557 H1550 0.950 . S
C1557 C1554 1.387 . S
C1558 C1559 1.387 . S
C1558 H1562 0.950 . S
C1558 C1567 1.390 1_545 S
C1559 C1558 1.387 . S
C1559 C1561 1.387 . S
H1560 C1567 0.950 . S
C1561 C1559 1.387 . S
C1561 C1563 1.390 1_545 S
C1561 H1565 0.950 . S
H1562 C1558 0.950 . S
C1563 C1561 1.390 1_565 S
C1563 C1564 1.387 . S
C1563 H1566 0.950 . S
C1564 C1563 1.387 . S
C1564 C1567 1.387 . S
H1565 C1561 0.950 . S
H1566 C1563 0.950 . S
C1567 C1558 1.390 1_565 S
C1567 H1560 0.950 . S
C1567 C1564 1.387 . S
C1568 C1569 1.387 1_455 S
C1568 H1572 0.950 . S
C1568 C1577 1.390 . S
C1569 C1568 1.387 1_655 S
C1569 C1571 1.387 . S
H1570 C1577 0.950 . S
C1571 C1569 1.387 . S
C1571 C1573 1.390 . S
C1571 H1575 0.950 . S
H1572 C1568 0.950 . S
C1573 C1571 1.390 . S
C1573 C1574 1.387 1_655 S
C1573 H1576 0.950 . S
C1574 C1573 1.387 1_455 S
C1574 C1577 1.387 . S
H1575 C1571 0.950 . S
H1576 C1573 0.950 . S
C1577 C1568 1.390 . S
C1577 H1570 0.950 . S
C1577 C1574 1.387 . S
C1578 C1579 1.387 . S
C1578 H1582 0.950 . S
C1578 C1587 1.390 . S
C1579 C1578 1.387 . S
C1579 C1581 1.387 . S
H1580 C1587 0.950 . S
C1581 C1579 1.387 . S
C1581 C1583 1.390 . S
C1581 H1585 0.950 . S
H1582 C1578 0.950 . S
C1583 C1581 1.390 . S
C1583 C1584 1.387 . S
C1583 H1586 0.950 . S
C1584 C1583 1.387 . S
C1584 C1587 1.387 . S
H1585 C1581 0.950 . S
H1586 C1583 0.950 . S
C1587 C1578 1.390 . S
C1587 H1580 0.950 . S
C1587 C1584 1.387 . S
C1588 C1589 1.387 . S
C1588 H1592 0.950 . S
C1588 C1597 1.390 1_565 S
C1589 C1588 1.387 . S
C1589 C1591 1.387 . S
H1590 C1597 0.950 . S
C1591 C1589 1.387 . S
C1591 C1593 1.390 1_565 S
C1591 H1595 0.950 . S
H1592 C1588 0.950 . S
C1593 C1591 1.390 1_545 S
C1593 C1594 1.387 . S
C1593 H1596 0.950 . S
C1594 C1593 1.387 . S
C1594 C1597 1.387 . S
H1595 C1591 0.950 . S
H1596 C1593 0.950 . S
C1597 C1588 1.390 1_545 S
C1597 H1590 0.950 . S
C1597 C1594 1.387 . S
C1598 C1599 1.387 . S
C1598 H1602 0.950 . S
C1598 C1607 1.390 1_655 S
C1599 C1598 1.387 . S
C1599 C1601 1.387 . S
H1600 C1607 0.950 . S
C1601 C1599 1.387 . S
C1601 C1603 1.390 1_655 S
C1601 H1605 0.950 . S
H1602 C1598 0.950 . S
C1603 C1601 1.390 1_455 S
C1603 C1604 1.387 . S
C1603 H1606 0.950 . S
C1604 C1603 1.387 . S
C1604 C1607 1.387 . S
H1605 C1601 0.950 . S
H1606 C1603 0.950 . S
C1607 C1598 1.390 1_455 S
C1607 H1600 0.950 . S
C1607 C1604 1.387 . S
C1608 C1609 1.387 . S
C1608 H1612 0.950 . S
C1608 C1617 1.390 . S
C1609 C1608 1.387 . S
C1609 C1611 1.387 . S
H1610 C1617 0.950 . S
C1611 C1609 1.387 . S
C1611 C1613 1.390 . S
C1611 H1615 0.950 . S
H1612 C1608 0.950 . S
C1613 C1611 1.390 . S
C1613 C1614 1.387 . S
C1613 H1616 0.950 . S
C1614 C1613 1.387 . S
C1614 C1617 1.387 . S
H1615 C1611 0.950 . S
H1616 C1613 0.950 . S
C1617 C1608 1.390 . S
C1617 H1610 0.950 . S
C1617 C1614 1.387 . S
C1618 C1619 1.387 . S
C1618 H1622 0.950 . S
C1618 C1627 1.390 . S
C1619 C1618 1.387 . S
C1619 C1621 1.387 . S
H1620 C1627 0.950 . S
C1621 C1619 1.387 . S
C1621 C1623 1.390 . S
C1621 H1625 0.950 . S
H1622 C1618 0.950 . S
C1623 C1621 1.390 . S
C1623 C1624 1.387 . S
C1623 H1626 0.950 . S
C1624 C1623 1.387 . S
C1624 C1627 1.387 . S
H1625 C1621 0.950 . S
H1626 C1623 0.950 . S
C1627 C1618 1.390 . S
C1627 H1620 0.950 . S
C1627 C1624 1.387 . S
C1628 C1629 1.387 . S
C1628 H1632 0.950 . S
C1628 C1637 1.390 . S
C1629 C1628 1.387 . S
C1629 C1631 1.387 . S
H1630 C1637 0.950 . S
C1631 C1629 1.387 . S
C1631 C1633 1.390 . S
C1631 H1635 0.950 . S
H1632 C1628 0.950 . S
C1633 C1631 1.390 . S
C1633 C1634 1.387 . S
C1633 H1636 0.950 . S
C1634 C1633 1.387 . S
C1634 C1637 1.387 . S
H1635 C1631 0.950 . S
H1636 C1633 0.950 . S
C1637 C1628 1.390 . S
C1637 H1630 0.950 . S
C1637 C1634 1.387 . S
C1638 C1639 1.387 . S
C1638 H1642 0.950 . S
C1638 C1647 1.390 . S
C1639 C1638 1.387 . S
C1639 C1641 1.387 . S
H1640 C1647 0.950 1_556 S
C1641 C1639 1.387 . S
C1641 C1643 1.390 . S
C1641 H1645 0.950 . S
H1642 C1638 0.950 . S
C1643 C1641 1.390 . S
C1643 C1644 1.387 . S
C1643 H1646 0.950 . S
C1644 C1643 1.387 . S
C1644 C1647 1.387 . S
H1645 C1641 0.950 . S
H1646 C1643 0.950 . S
C1647 C1638 1.390 . S
C1647 H1640 0.950 1_554 S
C1647 C1644 1.387 . S
C1648 C1649 1.387 . S
C1648 H1652 0.950 . S
C1648 C1657 1.390 . S
C1649 C1648 1.387 . S
C1649 C1651 1.387 . S
H1650 C1657 0.950 . S
C1651 C1649 1.387 . S
C1651 C1653 1.390 . S
C1651 H1655 0.950 . S
H1652 C1648 0.950 . S
C1653 C1651 1.390 . S
C1653 C1654 1.387 . S
C1653 H1656 0.950 . S
C1654 C1653 1.387 . S
C1654 C1657 1.387 . S
H1655 C1651 0.950 . S
H1656 C1653 0.950 . S
C1657 C1648 1.390 . S
C1657 H1650 0.950 . S
C1657 C1654 1.387 . S
C1658 C1659 1.387 . S
C1658 H1662 0.950 . S
C1658 C1667 1.390 . S
C1659 C1658 1.387 . S
C1659 C1661 1.387 . S
H1660 C1667 0.950 . S
C1661 C1659 1.387 . S
C1661 C1663 1.390 . S
C1661 H1665 0.950 . S
H1662 C1658 0.950 . S
C1663 C1661 1.390 . S
C1663 C1664 1.387 . S
C1663 H1666 0.950 . S
C1664 C1663 1.387 . S
C1664 C1667 1.387 . S
H1665 C1661 0.950 . S
H1666 C1663 0.950 . S
C1667 C1658 1.390 . S
C1667 H1660 0.950 . S
C1667 C1664 1.387 . S
C1668 C1669 1.387 . S
C1668 H1672 0.950 . S
C1668 C1677 1.390 . S
C1669 C1668 1.387 . S
C1669 C1671 1.387 . S
H1670 C1677 0.950 . S
C1671 C1669 1.387 . S
C1671 C1673 1.390 . S
C1671 H1675 0.950 . S
H1672 C1668 0.950 . S
C1673 C1671 1.390 . S
C1673 C1674 1.387 1_556 S
C1673 H1676 0.950 1_556 S
C1674 C1673 1.387 1_554 S
C1674 C1677 1.387 1_554 S
H1675 C1671 0.950 . S
H1676 C1673 0.950 1_554 S
C1677 C1668 1.390 . S
C1677 H1670 0.950 . S
C1677 C1674 1.387 1_556 S
C1678 C1679 1.387 1_556 S
C1678 H1682 0.950 1_556 S
C1678 C1687 1.390 . S
C1679 C1678 1.387 1_554 S
C1679 C1681 1.387 1_554 S
H1680 C1687 0.950 . S
C1681 C1679 1.387 1_556 S
C1681 C1683 1.390 . S
C1681 H1685 0.950 1_556 S
H1682 C1678 0.950 1_554 S
C1683 C1681 1.390 . S
C1683 C1684 1.387 . S
C1683 H1686 0.950 . S
C1684 C1683 1.387 . S
C1684 C1687 1.387 . S
H1685 C1681 0.950 1_554 S
H1686 C1683 0.950 . S
C1687 C1678 1.390 . S
C1687 H1680 0.950 . S
C1687 C1684 1.387 . S
C1688 C1689 1.387 . S
C1688 H1692 0.950 . S
C1688 C1697 1.390 1_556 S
C1689 C1688 1.387 . S
C1689 C1691 1.387 . S
H1690 C1697 0.950 . S
C1691 C1689 1.387 . S
C1691 C1693 1.390 . S
C1691 H1695 0.950 . S
H1692 C1688 0.950 . S
C1693 C1691 1.390 . S
C1693 C1694 1.387 1_556 S
C1693 H1696 0.950 . S
C1694 C1693 1.387 1_554 S
C1694 C1697 1.387 . S
H1695 C1691 0.950 . S
H1696 C1693 0.950 . S
C1697 C1688 1.390 1_554 S
C1697 H1690 0.950 . S
C1697 C1694 1.387 . S
C1698 C1699 1.387 . S
C1698 H1702 0.950 . S
C1698 C1707 1.390 . S
C1699 C1698 1.387 . S
C1699 C1701 1.387 . S
H1700 C1707 0.950 . S
C1701 C1699 1.387 . S
C1701 C1703 1.390 . S
C1701 H1705 0.950 . S
H1702 C1698 0.950 . S
C1703 C1701 1.390 . S
C1703 C1704 1.387 . S
C1703 H1706 0.950 . S
C1704 C1703 1.387 . S
C1704 C1707 1.387 . S
H1705 C1701 0.950 . S
H1706 C1703 0.950 . S
C1707 C1698 1.390 . S
C1707 H1700 0.950 . S
C1707 C1704 1.387 . S
C1708 C1709 1.387 . S
C1708 H1712 0.950 . S
C1708 C1717 1.390 . S
C1709 C1708 1.387 . S
C1709 C1711 1.387 . S
H1710 C1717 0.950 . S
C1711 C1709 1.387 . S
C1711 C1713 1.390 . S
C1711 H1715 0.950 . S
H1712 C1708 0.950 . S
C1713 C1711 1.390 . S
C1713 C1714 1.387 . S
C1713 H1716 0.950 . S
C1714 C1713 1.387 . S
C1714 C1717 1.387 . S
H1715 C1711 0.950 . S
H1716 C1713 0.950 . S
C1717 C1708 1.390 . S
C1717 H1710 0.950 . S
C1717 C1714 1.387 . S
C1718 C1719 1.387 . S
C1718 H1722 0.950 . S
C1718 C1727 1.390 . S
C1719 C1718 1.387 . S
C1719 C1721 1.387 . S
H1720 C1727 0.950 . S
C1721 C1719 1.387 . S
C1721 C1723 1.390 . S
C1721 H1725 0.950 . S
H1722 C1718 0.950 . S
C1723 C1721 1.390 . S
C1723 C1724 1.387 . S
C1723 H1726 0.950 . S
C1724 C1723 1.387 . S
C1724 C1727 1.387 . S
H1725 C1721 0.950 . S
H1726 C1723 0.950 . S
C1727 C1718 1.390 . S
C1727 H1720 0.950 . S
C1727 C1724 1.387 . S
C1728 C1729 1.387 . S
C1728 H1732 0.950 . S
C1728 C1737 1.390 . S
C1729 C1728 1.387 . S
C1729 C1731 1.387 . S
H1730 C1737 0.950 . S
C1731 C1729 1.387 . S
C1731 C1733 1.390 . S
C1731 H1735 0.950 . S
H1732 C1728 0.950 . S
C1733 C1731 1.390 . S
C1733 C1734 1.387 . S
C1733 H1736 0.950 . S
C1734 C1733 1.387 . S
C1734 C1737 1.387 . S
H1735 C1731 0.950 . S
H1736 C1733 0.950 . S
C1737 C1728 1.390 . S
C1737 H1730 0.950 . S
C1737 C1734 1.387 . S
C1738 C1739 1.387 . S
C1738 H1742 0.950 . S
C1738 C1747 1.390 1_545 S
C1739 C1738 1.387 . S
C1739 C1741 1.387 . S
H1740 C1747 0.950 . S
C1741 C1739 1.387 . S
C1741 C1743 1.390 1_545 S
C1741 H1745 0.950 . S
H1742 C1738 0.950 . S
C1743 C1741 1.390 1_565 S
C1743 C1744 1.387 . S
C1743 H1746 0.950 . S
C1744 C1743 1.387 . S
C1744 C1747 1.387 . S
H1745 C1741 0.950 . S
H1746 C1743 0.950 . S
C1747 C1738 1.390 1_565 S
C1747 H1740 0.950 . S
C1747 C1744 1.387 . S
C1748 C1749 1.387 . S
C1748 H1752 0.950 . S
C1748 C1757 1.390 1_455 S
C1749 C1748 1.387 . S
C1749 C1751 1.387 . S
H1750 C1757 0.950 . S
C1751 C1749 1.387 . S
C1751 C1753 1.390 1_455 S
C1751 H1755 0.950 . S
H1752 C1748 0.950 . S
C1753 C1751 1.390 1_655 S
C1753 C1754 1.387 . S
C1753 H1756 0.950 . S
C1754 C1753 1.387 . S
C1754 C1757 1.387 . S
H1755 C1751 0.950 . S
H1756 C1753 0.950 . S
C1757 C1748 1.390 1_655 S
C1757 H1750 0.950 . S
C1757 C1754 1.387 . S
C1758 C1759 1.387 . S
C1758 H1762 0.950 . S
C1758 C1767 1.390 . S
C1759 C1758 1.387 . S
C1759 C1761 1.387 . S
H1760 C1767 0.950 . S
C1761 C1759 1.387 . S
C1761 C1763 1.390 . S
C1761 H1765 0.950 . S
H1762 C1758 0.950 . S
C1763 C1761 1.390 . S
C1763 C1764 1.387 . S
C1763 H1766 0.950 . S
C1764 C1763 1.387 . S
C1764 C1767 1.387 . S
H1765 C1761 0.950 . S
H1766 C1763 0.950 . S
C1767 C1758 1.390 . S
C1767 H1760 0.950 . S
C1767 C1764 1.387 . S
C1768 C1769 1.387 . S
C1768 H1772 0.950 . S
C1768 C1777 1.390 1_545 S
C1769 C1768 1.387 . S
C1769 C1771 1.387 . S
H1770 C1777 0.950 . S
C1771 C1769 1.387 . S
C1771 C1773 1.390 1_545 S
C1771 H1775 0.950 . S
H1772 C1768 0.950 . S
C1773 C1771 1.390 1_565 S
C1773 C1774 1.387 . S
C1773 H1776 0.950 . S
C1774 C1773 1.387 . S
C1774 C1777 1.387 . S
H1775 C1771 0.950 . S
H1776 C1773 0.950 . S
C1777 C1768 1.390 1_565 S
C1777 H1770 0.950 . S
C1777 C1774 1.387 . S
C1778 C1779 1.387 1_455 S
C1778 H1782 0.950 . S
C1778 C1787 1.390 . S
C1779 C1778 1.387 1_655 S
C1779 C1781 1.387 . S
H1780 C1787 0.950 . S
C1781 C1779 1.387 . S
C1781 C1783 1.390 . S
C1781 H1785 0.950 . S
H1782 C1778 0.950 . S
C1783 C1781 1.390 . S
C1783 C1784 1.387 1_655 S
C1783 H1786 0.950 . S
C1784 C1783 1.387 1_455 S
C1784 C1787 1.387 . S
H1785 C1781 0.950 . S
H1786 C1783 0.950 . S
C1787 C1778 1.390 . S
C1787 H1780 0.950 . S
C1787 C1784 1.387 . S
C1788 C1789 1.387 . S
C1788 H1792 0.950 . S
C1788 C1797 1.390 . S
C1789 C1788 1.387 . S
C1789 C1791 1.387 . S
H1790 C1797 0.945 1_556 S
C1791 C1789 1.387 . S
C1791 C1793 1.390 . S
C1791 H1795 0.950 . S
H1792 C1788 0.950 . S
C1793 C1791 1.390 . S
C1793 C1794 1.387 . S
C1793 H1796 0.950 . S
C1794 C1793 1.387 . S
C1794 C1797 1.387 . S
H1795 C1791 0.950 . S
H1796 C1793 0.950 . S
C1797 C1788 1.390 . S
C1797 H1790 0.945 1_554 S
C1797 C1794 1.387 . S
C1798 C1799 1.387 . S
C1798 H1802 0.950 . S
C1798 C1807 1.390 . S
C1799 C1798 1.387 . S
C1799 C1801 1.387 . S
H1800 C1807 0.950 . S
C1801 C1799 1.387 . S
C1801 C1803 1.390 . S
C1801 H1805 0.950 . S
H1802 C1798 0.950 . S
C1803 C1801 1.390 . S
C1803 C1804 1.387 . S
C1803 H1806 0.950 . S
C1804 C1803 1.387 . S
C1804 C1807 1.387 . S
H1805 C1801 0.950 . S
H1806 C1803 0.950 . S
C1807 C1798 1.390 . S
C1807 H1800 0.950 . S
C1807 C1804 1.387 . S
C1808 C1809 1.387 . S
C1808 H1812 0.950 . S
C1808 C1817 1.390 . S
C1809 C1808 1.387 . S
C1809 C1811 1.387 . S
H1810 C1817 0.950 . S
C1811 C1809 1.387 . S
C1811 C1813 1.390 . S
C1811 H1815 0.950 . S
H1812 C1808 0.950 . S
C1813 C1811 1.390 . S
C1813 C1814 1.387 . S
C1813 H1816 0.950 . S
C1814 C1813 1.387 . S
C1814 C1817 1.387 . S
H1815 C1811 0.950 . S
H1816 C1813 0.950 . S
C1817 C1808 1.390 . S
C1817 H1810 0.950 . S
C1817 C1814 1.387 . S
C1818 C1819 1.387 . S
C1818 H1822 0.950 . S
C1818 C1827 1.390 . S
C1819 C1818 1.387 . S
C1819 C1821 1.387 . S
H1820 C1827 0.950 . S
C1821 C1819 1.387 . S
C1821 C1823 1.390 . S
C1821 H1825 0.950 . S
H1822 C1818 0.950 . S
C1823 C1821 1.390 . S
C1823 C1824 1.387 . S
C1823 H1826 0.950 . S
C1824 C1823 1.387 . S
C1824 C1827 1.387 . S
H1825 C1821 0.950 . S
H1826 C1823 0.950 . S
C1827 C1818 1.390 . S
C1827 H1820 0.950 . S
C1827 C1824 1.387 . S
C1828 C1829 1.387 . S
C1828 H1832 0.950 . S
C1828 C1837 1.390 . S
C1829 C1828 1.387 . S
C1829 C1831 1.387 . S
H1830 C1837 0.950 . S
C1831 C1829 1.387 . S
C1831 C1833 1.390 . S
C1831 H1835 0.950 . S
H1832 C1828 0.950 . S
C1833 C1831 1.390 . S
C1833 C1834 1.387 . S
C1833 H1836 0.950 . S
C1834 C1833 1.387 . S
C1834 C1837 1.387 . S
H1835 C1831 0.950 . S
H1836 C1833 0.950 . S
C1837 C1828 1.390 . S
C1837 H1830 0.950 . S
C1837 C1834 1.387 . S
C1838 C1839 1.387 . S
C1838 H1842 0.950 . S
C1838 C1847 1.390 . S
C1839 C1838 1.387 . S
C1839 C1841 1.387 . S
H1840 C1847 0.950 . S
C1841 C1839 1.387 . S
C1841 C1843 1.390 . S
C1841 H1845 0.950 . S
H1842 C1838 0.950 . S
C1843 C1841 1.390 . S
C1843 C1844 1.387 . S
C1843 H1846 0.950 . S
C1844 C1843 1.387 . S
C1844 C1847 1.387 . S
H1845 C1841 0.950 . S
H1846 C1843 0.950 . S
C1847 C1838 1.390 . S
C1847 H1840 0.950 . S
C1847 C1844 1.387 . S
C1848 C1849 1.387 . S
C1848 H1852 0.950 . S
C1848 C1857 1.390 . S
C1849 C1848 1.387 . S
C1849 C1851 1.387 . S
H1850 C1857 0.950 . S
C1851 C1849 1.387 . S
C1851 C1853 1.390 . S
C1851 H1855 0.950 . S
H1852 C1848 0.950 . S
C1853 C1851 1.390 . S
C1853 C1854 1.387 . S
C1853 H1856 0.950 . S
C1854 C1853 1.387 . S
C1854 C1857 1.387 . S
H1855 C1851 0.950 . S
H1856 C1853 0.950 . S
C1857 C1848 1.390 . S
C1857 H1850 0.950 . S
C1857 C1854 1.387 . S
C1858 C1859 1.387 . S
C1858 H1862 0.950 . S
C1858 C1867 1.390 . S
C1859 C1858 1.387 . S
C1859 C1861 1.387 . S
H1860 C1867 0.950 . S
C1861 C1859 1.387 . S
C1861 C1863 1.390 . S
C1861 H1865 0.950 . S
H1862 C1858 0.950 . S
C1863 C1861 1.390 . S
C1863 C1864 1.387 . S
C1863 H1866 0.950 . S
C1864 C1863 1.387 . S
C1864 C1867 1.387 . S
H1865 C1861 0.950 . S
H1866 C1863 0.950 . S
C1867 C1858 1.390 . S
C1867 H1860 0.950 . S
C1867 C1864 1.387 . S
C1868 C1869 1.387 . S
C1868 H1872 0.950 . S
C1868 C1877 1.390 . S
C1869 C1868 1.387 . S
C1869 C1871 1.387 . S
H1870 C1877 0.950 . S
C1871 C1869 1.387 . S
C1871 C1873 1.390 . S
C1871 H1875 0.950 . S
H1872 C1868 0.950 . S
C1873 C1871 1.390 . S
C1873 C1874 1.387 . S
C1873 H1876 0.950 . S
C1874 C1873 1.387 . S
C1874 C1877 1.387 . S
H1875 C1871 0.950 . S
H1876 C1873 0.950 . S
C1877 C1868 1.390 . S
C1877 H1870 0.950 . S
C1877 C1874 1.387 . S
C1878 C1879 1.387 . S
C1878 H1882 0.950 . S
C1878 C1887 1.390 1_554 S
C1879 C1878 1.387 . S
C1879 C1881 1.387 1_554 S
H1880 C1887 0.950 . S
C1881 C1879 1.387 1_556 S
C1881 C1883 1.390 . S
C1881 H1885 0.950 . S
H1882 C1878 0.950 . S
C1883 C1881 1.390 . S
C1883 C1884 1.387 . S
C1883 H1886 0.950 . S
C1884 C1883 1.387 . S
C1884 C1887 1.387 . S
H1885 C1881 0.950 . S
H1886 C1883 0.950 . S
C1887 C1878 1.390 1_556 S
C1887 H1880 0.950 . S
C1887 C1884 1.387 . S
C1888 C1889 1.387 1_556 S
C1888 H1892 0.950 . S
C1888 C1897 1.390 . S
C1889 C1888 1.387 1_554 S
C1889 C1891 1.387 1_554 S
H1890 C1897 0.950 . S
C1891 C1889 1.387 1_556 S
C1891 C1893 1.390 . S
C1891 H1895 0.951 . S
H1892 C1888 0.950 . S
C1893 C1891 1.390 . S
C1893 C1894 1.387 . S
C1893 H1896 0.950 . S
C1894 C1893 1.387 . S
C1894 C1897 1.387 . S
H1895 C1891 0.951 . S
H1896 C1893 0.950 . S
C1897 C1888 1.390 . S
C1897 H1890 0.950 . S
C1897 C1894 1.387 . S
C1898 C1899 1.387 . S
C1898 H1902 0.950 . S
C1898 C1907 1.390 1_554 S
C1899 C1898 1.387 . S
C1899 C1901 1.387 1_554 S
H1900 C1907 0.950 . S
C1901 C1899 1.387 1_556 S
C1901 C1903 1.390 . S
C1901 H1905 0.950 . S
H1902 C1898 0.950 . S
C1903 C1901 1.390 . S
C1903 C1904 1.387 . S
C1903 H1906 0.950 . S
C1904 C1903 1.387 . S
C1904 C1907 1.387 . S
H1905 C1901 0.950 . S
H1906 C1903 0.950 . S
C1907 C1898 1.390 1_556 S
C1907 H1900 0.950 . S
C1907 C1904 1.387 . S
C1908 C1909 1.387 . S
C1908 H1912 0.950 . S
C1908 C1917 1.390 . S
C1909 C1908 1.387 . S
C1909 C1911 1.387 1_556 S
H1910 C1917 0.950 . S
C1911 C1909 1.387 1_554 S
C1911 C1913 1.390 . S
C1911 H1915 0.950 . S
H1912 C1908 0.950 . S
C1913 C1911 1.390 . S
C1913 C1914 1.387 1_554 S
C1913 H1916 0.950 . S
C1914 C1913 1.387 1_556 S
C1914 C1917 1.387 . S
H1915 C1911 0.950 . S
H1916 C1913 0.950 . S
C1917 C1908 1.390 . S
C1917 H1910 0.950 . S
C1917 C1914 1.387 . S
C1918 C1919 1.387 . S
C1918 H1922 0.950 . S
C1918 C1927 1.390 . S
C1919 C1918 1.387 . S
C1919 C1921 1.387 1_556 S
H1920 C1927 0.950 . S
C1921 C1919 1.387 1_554 S
C1921 C1923 1.390 1_554 S
C1921 H1925 0.950 . S
H1922 C1918 0.950 . S
C1923 C1921 1.390 1_556 S
C1923 C1924 1.387 . S
C1923 H1926 0.950 1_556 S
C1924 C1923 1.387 . S
C1924 C1927 1.387 . S
H1925 C1921 0.950 . S
H1926 C1923 0.950 1_554 S
C1927 C1918 1.390 . S
C1927 H1920 0.950 . S
C1927 C1924 1.387 . S
C1928 C1929 1.387 . S
C1928 H1932 0.950 . S
C1928 C1937 1.390 . S
C1929 C1928 1.387 . S
C1929 C1931 1.387 . S
H1930 C1937 0.950 . S
C1931 C1929 1.387 . S
C1931 C1933 1.390 . S
C1931 H1935 0.950 . S
H1932 C1928 0.950 . S
C1933 C1931 1.390 . S
C1933 C1934 1.387 . S
C1933 H1936 0.950 . S
C1934 C1933 1.387 . S
C1934 C1937 1.387 . S
H1935 C1931 0.950 . S
H1936 C1933 0.950 . S
C1937 C1928 1.390 . S
C1937 H1930 0.950 . S
C1937 C1934 1.387 . S
C1938 C1939 1.387 . S
C1938 H1942 0.950 . S
C1938 C1947 1.390 . S
C1939 C1938 1.387 . S
C1939 C1941 1.387 . S
H1940 C1947 0.950 . S
C1941 C1939 1.387 . S
C1941 C1943 1.390 . S
C1941 H1945 0.950 . S
H1942 C1938 0.950 . S
C1943 C1941 1.390 . S
C1943 C1944 1.387 . S
C1943 H1946 0.950 . S
C1944 C1943 1.387 . S
C1944 C1947 1.387 . S
H1945 C1941 0.950 . S
H1946 C1943 0.950 . S
C1947 C1938 1.390 . S
C1947 H1940 0.950 . S
C1947 C1944 1.387 . S
C1948 C1949 1.387 . S
C1948 H1952 0.950 . S
C1948 C1957 1.390 . S
C1949 C1948 1.387 . S
C1949 C1951 1.387 . S
H1950 C1957 0.950 . S
C1951 C1949 1.387 . S
C1951 C1953 1.390 . S
C1951 H1955 0.950 . S
H1952 C1948 0.950 . S
C1953 C1951 1.390 . S
C1953 C1954 1.387 . S
C1953 H1956 0.950 . S
C1954 C1953 1.387 . S
C1954 C1957 1.387 . S
H1955 C1951 0.950 . S
H1956 C1953 0.950 . S
C1957 C1948 1.390 . S
C1957 H1950 0.950 . S
C1957 C1954 1.387 . S
C1958 C1959 1.387 . S
C1958 H1962 0.950 . S
C1958 C1967 1.390 . S
C1959 C1958 1.387 . S
C1959 C1961 1.387 . S
H1960 C1967 0.950 . S
C1961 C1959 1.387 . S
C1961 C1963 1.390 . S
C1961 H1965 0.950 . S
H1962 C1958 0.950 . S
C1963 C1961 1.390 . S
C1963 C1964 1.387 . S
C1963 H1966 0.950 . S
C1964 C1963 1.387 . S
C1964 C1967 1.387 . S
H1965 C1961 0.950 . S
H1966 C1963 0.950 . S
C1967 C1958 1.390 . S
C1967 H1960 0.950 . S
C1967 C1964 1.387 . S
C1968 C1969 1.387 . S
C1968 H1972 0.950 . S
C1968 C1977 1.390 . S
C1969 C1968 1.387 . S
C1969 C1971 1.387 . S
H1970 C1977 0.950 . S
C1971 C1969 1.387 . S
C1971 C1973 1.390 . S
C1971 H1975 0.950 . S
H1972 C1968 0.950 . S
C1973 C1971 1.390 . S
C1973 C1974 1.387 . S
C1973 H1976 0.950 1_554 S
C1974 C1973 1.387 . S
C1974 C1977 1.387 . S
H1975 C1971 0.950 . S
H1976 C1973 0.950 1_556 S
C1977 C1968 1.390 . S
C1977 H1970 0.950 . S
C1977 C1974 1.387 . S
C1978 C1979 1.387 . S
C1978 H1982 0.950 . S
C1978 C1987 1.390 . S
C1979 C1978 1.387 . S
C1979 C1981 1.387 . S
H1980 C1987 0.950 1_556 S
C1981 C1979 1.387 . S
C1981 C1983 1.390 . S
C1981 H1985 0.950 . S
H1982 C1978 0.950 . S
C1983 C1981 1.390 . S
C1983 C1984 1.387 . S
C1983 H1986 0.950 . S
C1984 C1983 1.387 . S
C1984 C1987 1.387 . S
H1985 C1981 0.950 . S
H1986 C1983 0.950 . S
C1987 C1978 1.390 . S
C1987 H1980 0.950 1_554 S
C1987 C1984 1.387 . S
C1988 C1989 1.387 . S
C1988 H1992 0.950 . S
C1988 C1997 1.390 . S
C1989 C1988 1.387 . S
C1989 C1991 1.387 . S
H1990 C1997 0.950 . S
C1991 C1989 1.387 . S
C1991 C1993 1.390 . S
C1991 H1995 0.950 . S
H1992 C1988 0.950 . S
C1993 C1991 1.390 . S
C1993 C1994 1.387 . S
C1993 H1996 0.950 . S
C1994 C1993 1.387 . S
C1994 C1997 1.387 . S
H1995 C1991 0.950 . S
H1996 C1993 0.950 . S
C1997 C1988 1.390 . S
C1997 H1990 0.950 . S
C1997 C1994 1.387 . S
C1998 C1999 1.387 . S
C1998 H2002 0.950 . S
C1998 C2007 1.390 . S
C1999 C1998 1.387 . S
C1999 C2001 1.387 . S
H2000 C2007 0.950 . S
C2001 C1999 1.387 . S
C2001 C2003 1.390 . S
C2001 H2005 0.950 . S
H2002 C1998 0.950 . S
C2003 C2001 1.390 . S
C2003 C2004 1.387 . S
C2003 H2006 0.950 . S
C2004 C2003 1.387 . S
C2004 C2007 1.387 . S
H2005 C2001 0.950 . S
H2006 C2003 0.950 . S
C2007 C1998 1.390 . S
C2007 H2000 0.950 . S
C2007 C2004 1.387 . S
C2008 C2009 1.387 . S
C2008 H2012 0.950 . S
C2008 C2017 1.390 . S
C2009 C2008 1.387 . S
C2009 C2011 1.387 . S
H2010 C2017 0.950 . S
C2011 C2009 1.387 . S
C2011 C2013 1.390 . S
C2011 H2015 0.950 . S
H2012 C2008 0.950 . S
C2013 C2011 1.390 . S
C2013 C2014 1.387 . S
C2013 H2016 0.950 . S
C2014 C2013 1.387 . S
C2014 C2017 1.387 . S
H2015 C2011 0.950 . S
H2016 C2013 0.950 . S
C2017 C2008 1.390 . S
C2017 H2010 0.950 . S
C2017 C2014 1.387 . S
C2018 C2019 1.387 . S
C2018 H2022 0.950 . S
C2018 C2027 1.390 . S
C2019 C2018 1.387 . S
C2019 C2021 1.387 . S
H2020 C2027 0.950 . S
C2021 C2019 1.387 . S
C2021 C2023 1.390 . S
C2021 H2025 0.950 . S
H2022 C2018 0.950 . S
C2023 C2021 1.390 . S
C2023 C2024 1.387 . S
C2023 H2026 0.950 . S
C2024 C2023 1.387 . S
C2024 C2027 1.387 . S
H2025 C2021 0.950 . S
H2026 C2023 0.950 . S
C2027 C2018 1.390 . S
C2027 H2020 0.950 . S
C2027 C2024 1.387 . S
C2028 C2029 1.387 . S
C2028 H2032 0.950 . S
C2028 C2037 1.390 1_455 S
C2029 C2028 1.387 . S
C2029 C2031 1.387 . S
H2030 C2037 0.950 . S
C2031 C2029 1.387 . S
C2031 C2033 1.390 1_455 S
C2031 H2035 0.950 . S
H2032 C2028 0.950 . S
C2033 C2031 1.390 1_655 S
C2033 C2034 1.387 . S
C2033 H2036 0.950 . S
C2034 C2033 1.387 . S
C2034 C2037 1.387 . S
H2035 C2031 0.950 . S
H2036 C2033 0.950 . S
C2037 C2028 1.390 1_655 S
C2037 H2030 0.950 . S
C2037 C2034 1.387 . S
C2038 C2039 1.387 . S
C2038 H2042 0.950 . S
C2038 C2047 1.390 . S
C2039 C2038 1.387 . S
C2039 C2041 1.387 . S
H2040 C2047 0.950 . S
C2041 C2039 1.387 . S
C2041 C2043 1.390 . S
C2041 H2045 0.950 . S
H2042 C2038 0.950 . S
C2043 C2041 1.390 . S
C2043 C2044 1.387 . S
C2043 H2046 0.950 . S
C2044 C2043 1.387 . S
C2044 C2047 1.387 . S
H2045 C2041 0.950 . S
H2046 C2043 0.950 . S
C2047 C2038 1.390 . S
C2047 H2040 0.950 . S
C2047 C2044 1.387 . S
C2048 C2049 1.387 . S
C2048 H2052 0.950 . S
C2048 C2057 1.390 1_545 S
C2049 C2048 1.387 . S
C2049 C2051 1.387 . S
H2050 C2057 0.950 . S
C2051 C2049 1.387 . S
C2051 C2053 1.390 1_545 S
C2051 H2055 0.950 . S
H2052 C2048 0.950 . S
C2053 C2051 1.390 1_565 S
C2053 C2054 1.387 . S
C2053 H2056 0.950 . S
C2054 C2053 1.387 . S
C2054 C2057 1.387 . S
H2055 C2051 0.950 . S
H2056 C2053 0.950 . S
C2057 C2048 1.390 1_565 S
C2057 H2050 0.950 . S
C2057 C2054 1.387 . S
C2058 C2059 1.387 . S
C2058 H2062 0.950 . S
C2058 C2067 1.390 1_565 S
C2059 C2058 1.387 . S
C2059 C2061 1.387 . S
H2060 C2067 0.950 . S
C2061 C2059 1.387 . S
C2061 C2063 1.390 1_565 S
C2061 H2065 0.950 . S
H2062 C2058 0.950 . S
C2063 C2061 1.390 1_545 S
C2063 C2064 1.387 . S
C2063 H2066 0.950 . S
C2064 C2063 1.387 . S
C2064 C2067 1.387 . S
H2065 C2061 0.950 . S
H2066 C2063 0.950 . S
C2067 C2058 1.390 1_545 S
C2067 H2060 0.950 . S
C2067 C2064 1.387 . S
C2068 C2069 1.387 . S
C2068 H2072 0.950 . S
C2068 C2077 1.390 1_655 S
C2069 C2068 1.387 . S
C2069 C2071 1.387 . S
H2070 C2077 0.950 . S
C2071 C2069 1.387 . S
C2071 C2073 1.390 1_655 S
C2071 H2075 0.950 . S
H2072 C2068 0.950 . S
C2073 C2071 1.390 1_455 S
C2073 C2074 1.387 . S
C2073 H2076 0.950 . S
C2074 C2073 1.387 . S
C2074 C2077 1.387 . S
H2075 C2071 0.950 . S
H2076 C2073 0.950 . S
C2077 C2068 1.390 1_455 S
C2077 H2070 0.950 . S
C2077 C2074 1.387 . S
C2078 C2079 1.387 . S
C2078 H2082 0.950 . S
C2078 C2087 1.390 . S
C2079 C2078 1.387 . S
C2079 C2081 1.387 . S
H2080 C2087 0.950 . S
C2081 C2079 1.387 . S
C2081 C2083 1.390 . S
C2081 H2085 0.950 . S
H2082 C2078 0.950 . S
C2083 C2081 1.390 . S
C2083 C2084 1.387 . S
C2083 H2086 0.950 . S
C2084 C2083 1.387 . S
C2084 C2087 1.387 . S
H2085 C2081 0.950 . S
H2086 C2083 0.950 . S
C2087 C2078 1.390 . S
C2087 H2080 0.950 . S
C2087 C2084 1.387 . S
C1189 C337 2.167 . S
C1194 C7 2.129 . S
C1199 C370 2.167 . S
C1204 C40 2.128 . S
C1209 C304 2.168 . S
C1214 C73 2.127 . S
C1219 C271 2.168 . S
C1224 C106 2.127 . S
C1229 C205 2.167 . S
C1234 C139 2.126 . S
C1239 C238 2.167 . S
C1244 C172 2.128 . S
C1249 N134 0.736 . S
C1254 N200 0.731 . S
C1259 N233 0.732 . S
C1264 N167 0.731 . S
C1269 N101 0.734 . S
C1274 N266 0.732 . S
C1279 N68 0.731 . S
C1284 N299 0.729 . S
C1289 N332 0.732 . S
C1294 N2 0.732 . S
C1299 N35 0.735 . S
C1304 N365 0.730 . S
C1309 C733 2.167 1_554 S
C1314 C403 2.127 . S
C1319 C436 2.127 . S
C1324 C766 2.168 1_554 S
C1329 C700 2.167 1_554 S
C1334 C469 2.128 . S
C1339 C667 2.167 . S
C1344 C502 2.127 1_554 S
C1349 C601 2.168 . S
C1354 C535 2.127 1_554 S
C1359 C568 2.128 1_554 S
C1364 C634 2.167 . S
C1369 N596 0.732 . S
C1374 N530 0.733 . S
C1379 N563 0.730 . S
C1384 N629 0.731 . S
C1389 N497 0.732 . S
C1394 N662 0.730 . S
C1399 N695 0.732 . S
C1404 N464 0.735 . S
C1409 N728 0.733 . S
C1414 N398 0.736 . S
C1419 N431 0.735 . S
C1424 N761 0.730 . S
C1429 C799 2.129 . S
C1434 C1129 2.167 . S
C1439 C832 2.127 . S
C1444 C1162 2.168 . S
C1449 C865 2.127 . S
C1454 C1096 2.166 . S
C1459 C898 2.127 . S
C1464 C1063 2.167 . S
C1469 C997 2.167 . S
C1474 C931 2.128 . S
C1479 C1030 2.167 . S
C1484 C964 2.126 . S
C1489 N992 0.732 . S
C1494 N926 0.736 . S
C1499 N959 0.732 . S
C1504 N1025 0.732 . S
C1509 N893 0.732 . S
C1514 N1058 0.732 . S
C1519 N1091 0.730 . S
C1524 N860 0.731 . S
C1529 N1124 0.731 . S
C1534 N794 0.730 . S
C1539 N827 0.732 . S
C1544 N1157 0.732 . S
C1549 C117 2.261 . S
C1554 C18 2.260 . S
C1559 C51 2.259 . S
C1564 C150 2.259 . S
C1569 C84 2.259 . S
C1574 C183 2.260 . S
C1579 N310 0.997 . S
C1584 N211 0.996 . S
C1589 N244 0.997 . S
C1594 N343 0.997 . S
C1599 N376 0.995 . S
C1604 N277 0.996 . S
C1609 C414 2.259 . S
C1614 C513 2.258 . S
C1619 C546 2.260 . S
C1624 C447 2.260 . S
C1629 C480 2.260 . S
C1634 C579 2.260 . S
C1639 N607 0.994 . S
C1644 N706 0.992 . S
C1649 N739 0.993 . S
C1654 N640 0.993 . S
C1659 N772 0.995 . S
C1664 N673 0.993 . S
C1669 C810 2.260 . S
C1674 C909 2.260 . S
C1679 C942 2.260 . S
C1684 C843 2.260 . S
C1689 C876 2.259 . S
C1694 C975 2.258 . S
C1699 N1003 0.996 . S
C1704 N1102 0.993 . S
C1709 N1036 0.996 . S
C1714 N1135 0.996 . S
C1719 N1168 0.995 . S
C1724 N1069 0.993 . S
C1729 N112 0.579 . S
C1734 N13 0.580 . S
C1739 N46 0.585 . S
C1744 N145 0.585 . S
C1749 N178 0.582 . S
C1754 N79 0.579 . S
C1759 C315 1.909 . S
C1764 C216 1.909 . S
C1769 C348 1.909 . S
C1774 C249 1.909 . S
C1779 C381 1.909 . S
C1784 C282 1.910 . S
C1789 N409 0.583 . S
C1794 N508 0.581 . S
C1799 N442 0.584 . S
C1804 N541 0.584 . S
C1809 N574 0.583 . S
C1814 N475 0.585 . S
C1819 C612 1.910 . S
C1824 C711 1.911 . S
C1829 C744 1.909 . S
C1834 C645 1.909 . S
C1839 C777 1.910 . S
C1844 C678 1.909 . S
C1849 N805 0.583 . S
C1854 N904 0.585 . S
C1859 N838 0.585 . S
C1864 N937 0.585 . S
C1869 N970 0.583 . S
C1874 N871 0.586 . S
C1879 C1107 1.908 . S
C1884 C1008 1.910 . S
C1889 C1140 1.911 . S
C1894 C1041 1.911 . S
C1899 C1173 1.909 . S
C1904 C1074 1.910 . S
C1909 C21 1.516 . S
C1914 C549 1.517 . S
C1919 C54 1.516 . S
C1924 C582 1.517 . S
C1929 C516 1.516 . S
C1934 C87 1.516 . S
C1939 C879 1.516 . S
C1944 C120 1.516 . S
C1949 C153 1.517 . S
C1954 C813 1.517 . S
C1959 C186 1.518 . S
C1964 C846 1.517 . S
C1969 C1143 1.524 . S
C1974 C219 1.525 . S
C1979 C1176 1.525 . S
C1984 C252 1.524 . S
C1989 C285 1.525 . S
C1994 C1110 1.525 . S
C1999 C681 1.526 . S
C2004 C318 1.526 . S
C2009 C351 1.524 . S
C2014 C615 1.524 . S
C2019 C648 1.524 . S
C2024 C384 1.525 . S
C2029 C945 1.516 . S
C2034 C417 1.517 . S
C2039 C978 1.517 . S
C2044 C450 1.516 . S
C2049 C483 1.518 . S
C2054 C912 1.518 . S
C2059 C1077 1.524 . S
C2064 C714 1.524 . S
C2069 C747 1.525 . S
C2074 C1011 1.525 . S
C2079 C780 1.524 . S
C2084 C1044 1.524 . S
