# Generated by pormake.
# Topology wkj, (6)-cn, num edge types: 1
# Building blocks:
#     Node 0, Type 0, BuildingBlock: PAMTOO_clean_sbu_0, # of connection points: 6
#     Node 1, Type 0, BuildingBlock: PAMTOO_clean_sbu_0, # of connection points: 6
#     Node 2, Type 0, BuildingBlock: PAMTOO_clean_sbu_0, # of connection points: 6
#     Node 3, Type 0, BuildingBlock: PAMTOO_clean_sbu_0, # of connection points: 6
#     Node 4, Type 0, BuildingBlock: PAMTOO_clean_sbu_0, # of connection points: 6
#     Node 5, Type 0, BuildingBlock: PAMTOO_clean_sbu_0, # of connection points: 6
#     Node 6, Type 0, BuildingBlock: PAMTOO_clean_sbu_0, # of connection points: 6
#     Node 7, Type 0, BuildingBlock: PAMTOO_clean_sbu_0, # of connection points: 6
#     Node 8, Type 0, BuildingBlock: PAMTOO_clean_sbu_0, # of connection points: 6
#     Node 9, Type 0, BuildingBlock: PAMTOO_clean_sbu_0, # of connection points: 6
#     Node 10, Type 0, BuildingBlock: PAMTOO_clean_sbu_0, # of connection points: 6
#     Node 11, Type 0, BuildingBlock: PAMTOO_clean_sbu_0, # of connection points: 6
#     Edge 12, Type (0, 0), BuildingBlock: KIFKEQ_clean_linker_1, # of connection points: 2
#     Edge 13, Type (0, 0), BuildingBlock: KIFKEQ_clean_linker_1, # of connection points: 2
#     Edge 14, Type (0, 0), BuildingBlock: KIFKEQ_clean_linker_1, # of connection points: 2
#     Edge 15, Type (0, 0), BuildingBlock: KIFKEQ_clean_linker_1, # of connection points: 2
#     Edge 16, Type (0, 0), BuildingBlock: KIFKEQ_clean_linker_1, # of connection points: 2
#     Edge 17, Type (0, 0), BuildingBlock: KIFKEQ_clean_linker_1, # of connection points: 2
#     Edge 18, Type (0, 0), BuildingBlock: KIFKEQ_clean_linker_1, # of connection points: 2
#     Edge 19, Type (0, 0), BuildingBlock: KIFKEQ_clean_linker_1, # of connection points: 2
#     Edge 20, Type (0, 0), BuildingBlock: KIFKEQ_clean_linker_1, # of connection points: 2
#     Edge 21, Type (0, 0), BuildingBlock: KIFKEQ_clean_linker_1, # of connection points: 2
#     Edge 22, Type (0, 0), BuildingBlock: KIFKEQ_clean_linker_1, # of connection points: 2
#     Edge 23, Type (0, 0), BuildingBlock: KIFKEQ_clean_linker_1, # of connection points: 2
#     Edge 24, Type (0, 0), BuildingBlock: KIFKEQ_clean_linker_1, # of connection points: 2
#     Edge 25, Type (0, 0), BuildingBlock: KIFKEQ_clean_linker_1, # of connection points: 2
#     Edge 26, Type (0, 0), BuildingBlock: KIFKEQ_clean_linker_1, # of connection points: 2
#     Edge 27, Type (0, 0), BuildingBlock: KIFKEQ_clean_linker_1, # of connection points: 2
#     Edge 28, Type (0, 0), BuildingBlock: KIFKEQ_clean_linker_1, # of connection points: 2
#     Edge 29, Type (0, 0), BuildingBlock: KIFKEQ_clean_linker_1, # of connection points: 2
#     Edge 30, Type (0, 0), BuildingBlock: KIFKEQ_clean_linker_1, # of connection points: 2
#     Edge 31, Type (0, 0), BuildingBlock: KIFKEQ_clean_linker_1, # of connection points: 2
#     Edge 32, Type (0, 0), BuildingBlock: KIFKEQ_clean_linker_1, # of connection points: 2
#     Edge 33, Type (0, 0), BuildingBlock: KIFKEQ_clean_linker_1, # of connection points: 2
#     Edge 34, Type (0, 0), BuildingBlock: KIFKEQ_clean_linker_1, # of connection points: 2
#     Edge 35, Type (0, 0), BuildingBlock: KIFKEQ_clean_linker_1, # of connection points: 2
#     Edge 36, Type (0, 0), BuildingBlock: KIFKEQ_clean_linker_1, # of connection points: 2
#     Edge 37, Type (0, 0), BuildingBlock: KIFKEQ_clean_linker_1, # of connection points: 2
#     Edge 38, Type (0, 0), BuildingBlock: KIFKEQ_clean_linker_1, # of connection points: 2
#     Edge 39, Type (0, 0), BuildingBlock: KIFKEQ_clean_linker_1, # of connection points: 2
#     Edge 40, Type (0, 0), BuildingBlock: KIFKEQ_clean_linker_1, # of connection points: 2
#     Edge 41, Type (0, 0), BuildingBlock: KIFKEQ_clean_linker_1, # of connection points: 2
#     Edge 42, Type (0, 0), BuildingBlock: KIFKEQ_clean_linker_1, # of connection points: 2
#     Edge 43, Type (0, 0), BuildingBlock: KIFKEQ_clean_linker_1, # of connection points: 2
#     Edge 44, Type (0, 0), BuildingBlock: KIFKEQ_clean_linker_1, # of connection points: 2
#     Edge 45, Type (0, 0), BuildingBlock: KIFKEQ_clean_linker_1, # of connection points: 2
#     Edge 46, Type (0, 0), BuildingBlock: KIFKEQ_clean_linker_1, # of connection points: 2
#     Edge 47, Type (0, 0), BuildingBlock: KIFKEQ_clean_linker_1, # of connection points: 2
# Relax obj value: 0.801
# Max RMSD: 0.190
# Mean RMSD: 0.190
data_MOF--net-wkj--node1-PAMTOO_clean_sbu_0--edge1-KIFKEQ_clean_linker_1
_symmetry_space_group_name_H-M    P1
_symmetry_Int_Tables_number       1
_symmetry_cell_setting            triclinic
loop_
_symmetry_equiv_pos_as_xyz
'x, y, z'
_cell_length_a     49.996741
_cell_length_b     49.880216
_cell_length_c     28.982487
_cell_angle_alpha  90.648859
_cell_angle_beta   89.583376
_cell_angle_gamma 120.03344
loop_
_atom_site_label
_atom_site_type_symbol
_atom_site_fract_x
_atom_site_fract_y
_atom_site_fract_z
_atom_type_partial_charge
Dy0 Dy 0.57148 0.1284 0.37385 0.0
Dy1 Dy 0.50097 0.10988 0.40074 0.0
C2 C 0.54875 0.17807 0.37234 0.0
O3 O 0.57354 0.13617 0.45232 0.0
O4 O 0.52221 0.11587 0.47277 0.0
O5 O 0.62011 0.15933 0.38497 0.0
O6 O 0.6052 0.12652 0.32827 0.0
O7 O 0.50774 0.06922 0.39798 0.0
O8 O 0.55695 0.08778 0.41952 0.0
O9 O 0.50241 0.10611 0.32219 0.0
O10 O 0.54053 0.09382 0.31845 0.0
O11 O 0.45348 0.07363 0.40688 0.0
O12 O 0.46504 0.1215 0.41133 0.0
C13 C 0.55169 0.12727 0.48456 0.0
O14 O 0.56332 0.16647 0.34929 0.0
O15 O 0.5279 0.16126 0.40289 0.0
C16 C 0.64367 0.17833 0.31277 0.0
C17 C 0.65752 0.22208 0.24262 0.0
C18 C 0.65275 0.22873 0.28802 0.0
C19 C 0.64601 0.20716 0.32281 0.0
C20 C 0.65165 0.1731 0.26838 0.0
C21 C 0.65862 0.19488 0.23354 0.0
C22 C 0.62768 0.1523 0.34541 0.0
C23 C 0.52765 0.06751 0.42483 0.0
C24 C 0.51568 0.09244 0.30009 0.0
C25 C 0.42057 0.08459 0.45082 0.0
C26 C 0.37473 0.06349 0.51953 0.0
C27 C 0.40522 0.07126 0.53044 0.0
C28 C 0.42798 0.08175 0.49631 0.0
C29 C 0.39053 0.07772 0.43995 0.0
C30 C 0.36772 0.06722 0.47405 0.0
C31 C 0.44319 0.09268 0.41371 0.0
H32 H 0.65184 0.24955 0.29585 0.0
H33 H 0.64025 0.21222 0.35666 0.0
H34 H 0.6501 0.15118 0.25971 0.0
H35 H 0.66199 0.1891 0.19865 0.0
H36 H 0.41123 0.0681 0.56499 0.0
H37 H 0.4511 0.08682 0.50509 0.0
H38 H 0.38453 0.07979 0.40483 0.0
H39 H 0.34453 0.0616 0.46472 0.0
Dy40 Dy 0.42411 0.52564 0.70365 0.0
Dy41 Dy 0.36625 0.4572 0.71431 0.0
C42 C 0.35706 0.50954 0.67433 0.0
O43 O 0.41287 0.52915 0.77771 0.0
O44 O 0.37067 0.48051 0.78698 0.0
O45 O 0.46445 0.56852 0.72502 0.0
O46 O 0.44691 0.56316 0.65554 0.0
O47 O 0.39811 0.4564 0.76525 0.0
O48 O 0.4428 0.50177 0.74682 0.0
O49 O 0.39259 0.44908 0.65553 0.0
O50 O 0.42972 0.49943 0.64197 0.0
O51 O 0.34121 0.40729 0.71049 0.0
O52 O 0.31694 0.43245 0.72482 0.0
C53 C 0.39142 0.50819 0.80455 0.0
O54 O 0.3806 0.52867 0.69959 0.0
O55 O 0.3545 0.48296 0.66344 0.0
C56 C 0.46049 0.60966 0.6927 0.0
C57 C 0.43404 0.64699 0.6779 0.0
C58 C 0.42438 0.6266 0.71538 0.0
C59 C 0.43742 0.60793 0.7226 0.0
C60 C 0.47319 0.63307 0.65965 0.0
C61 C 0.46018 0.6518 0.65245 0.0
C62 C 0.46454 0.58258 0.68733 0.0
C63 C 0.42714 0.47685 0.77242 0.0
C64 C 0.41612 0.46965 0.63049 0.0
C65 C 0.29991 0.38512 0.76241 0.0
C66 C 0.27858 0.34485 0.83805 0.0
C67 C 0.29695 0.37706 0.84489 0.0
C68 C 0.30759 0.39697 0.80742 0.0
C69 C 0.28011 0.35331 0.75532 0.0
C70 C 0.26946 0.33325 0.79294 0.0
C71 C 0.3152 0.40542 0.72316 0.0
H72 H 0.40449 0.6226 0.73579 0.0
H73 H 0.42714 0.58992 0.74831 0.0
H74 H 0.49082 0.63462 0.63607 0.0
H75 H 0.46815 0.66719 0.62314 0.0
H76 H 0.30504 0.38682 0.87895 0.0
H77 H 0.32311 0.42146 0.81353 0.0
H78 H 0.27406 0.34385 0.72066 0.0
H79 H 0.25528 0.30858 0.78664 0.0
Dy80 Dy 0.87851 0.42738 1.02582 0.0
Dy81 Dy 0.89459 0.37431 1.04426 0.0
C82 C 0.83129 0.35731 1.00187 0.0
O83 O 0.86922 0.42291 1.10234 0.0
O84 O 0.87843 0.38296 1.11672 0.0
O85 O 0.86537 0.46175 1.04233 0.0
O86 O 0.86736 0.44931 0.9714 0.0
O87 O 0.92953 0.41176 1.08692 0.0
O88 O 0.92145 0.45222 1.06879 0.0
O89 O 0.92679 0.39773 0.98283 0.0
O90 O 0.91253 0.43371 0.96676 0.0
O91 O 0.92111 0.35102 1.04389 0.0
O92 O 0.87223 0.32596 1.06149 0.0
C93 C 0.87139 0.40422 1.13198 0.0
O94 O 0.83371 0.38145 1.02369 0.0
O95 O 0.85669 0.35719 0.99254 0.0
C96 C 0.82517 0.45447 0.99216 0.0
C97 C 0.76517 0.42414 0.95512 0.0
C98 C 0.77141 0.41368 0.99628 0.0
C99 C 0.80125 0.42865 1.01455 0.0
C100 C 0.81809 0.46729 0.95473 0.0
C101 C 0.78823 0.45233 0.93643 0.0
C102 C 0.85745 0.46276 0.99998 0.0
C103 C 0.93475 0.43998 1.09344 0.0
C104 C 0.92917 0.42037 0.95652 0.0
C105 C 0.90441 0.31057 1.09682 0.0
C106 C 0.92144 0.28576 0.16985 0.0
C107 C 0.9132 0.30856 0.17828 0.0
C108 C 0.90483 0.32092 1.14203 0.0
C109 C 0.91161 0.2872 1.08823 0.0
C110 C 0.92016 0.27488 1.12454 0.0
C111 C 0.89784 0.32501 1.05832 0.0
H112 H 0.75405 0.39222 1.01168 0.0
H113 H 0.80619 0.41828 1.04352 0.0
H114 H 0.83625 0.48705 0.93683 0.0
H115 H 0.78432 0.46095 0.90454 0.0
H116 H 0.91466 0.31799 0.21263 0.0
H117 H 0.89953 0.33915 1.14909 0.0
H118 H 0.91135 0.27904 1.05333 0.0
H119 H 0.92644 0.25741 1.11712 0.0
Dy120 Dy 0.45098 0.87593 0.37666 0.0
Dy121 Dy 0.5215 0.90321 0.40872 0.0
C122 C 0.48668 0.83803 0.36088 0.0
O123 O 0.44696 0.867 0.45477 0.0
O124 O 0.49757 0.89166 0.47917 0.0
O125 O 0.4051 0.83754 0.38697 0.0
O126 O 0.41353 0.86985 0.33203 0.0
O127 O 0.50869 0.93615 0.44014 0.0
O128 O 0.4575 0.91615 0.41912 0.0
O129 O 0.52379 0.91643 0.33282 0.0
O130 O 0.47684 0.91277 0.32225 0.0
O131 O 0.56864 0.94078 0.40392 0.0
O132 O 0.55838 0.89722 0.43494 0.0
C133 C 0.46755 0.87721 0.48872 0.0
O134 O 0.46912 0.84753 0.34249 0.0
O135 O 0.50416 0.85306 0.3959 0.0
C136 C 0.3824 0.81621 0.31508 0.0
C137 C 0.37063 0.77302 0.24342 0.0
C138 C 0.38203 0.77005 0.28595 0.0
C139 C 0.38787 0.79138 0.32138 0.0
C140 C 0.36853 0.81765 0.27396 0.0
C141 C 0.36261 0.79614 0.23837 0.0
C142 C 0.39484 0.84233 0.34853 0.0
C143 C 0.48193 0.93517 0.44358 0.0
C144 C 0.50546 0.92264 0.3081 0.0
C145 C 0.60419 0.94219 0.45815 0.0
C146 C 0.65241 0.97453 0.52147 0.0
C147 C 0.6215 0.95819 0.53666 0.0
C148 C 0.59751 0.94218 0.50517 0.0
C149 C 0.6349 0.95841 0.44287 0.0
C150 C 0.65887 0.97456 0.47427 0.0
C151 C 0.57974 0.92526 0.42427 0.0
H152 H 0.38841 0.75246 0.29069 0.0
H153 H 0.39849 0.78939 0.35261 0.0
H154 H 0.36408 0.83649 0.26826 0.0
H155 H 0.35411 0.79913 0.20567 0.0
H156 H 0.61583 0.95828 0.57279 0.0
H157 H 0.57385 0.9299 0.51743 0.0
H158 H 0.64034 0.95855 0.40658 0.0
H159 H 0.68245 0.98688 0.4617 0.0
Dy160 Dy 0.5691 0.46622 0.69463 0.0
Dy161 Dy 0.61563 0.53856 0.71745 0.0
C162 C 0.64098 0.4963 0.67241 0.0
O163 O 0.57941 0.46335 0.77004 0.0
O164 O 0.61362 0.51471 0.78696 0.0
O165 O 0.53905 0.41812 0.71302 0.0
O166 O 0.54492 0.43179 0.64171 0.0
O167 O 0.57909 0.52587 0.76964 0.0
O168 O 0.54106 0.48318 0.73198 0.0
O169 O 0.58409 0.54055 0.6624 0.0
O170 O 0.56485 0.49193 0.63209 0.0
O171 O 0.62812 0.58678 0.71995 0.0
O172 O 0.6628 0.57349 0.73091 0.0
C173 C 0.59686 0.48518 0.80022 0.0
O174 O 0.61602 0.47144 0.68611 0.0
O175 O 0.64175 0.52295 0.67132 0.0
C176 C 0.545 0.38616 0.65747 0.0
C177 C 0.57816 0.36 0.61634 0.0
C178 C 0.58442 0.37129 0.66209 0.0
C179 C 0.56831 0.38469 0.68221 0.0
C180 C 0.53586 0.37115 0.61464 0.0
C181 C 0.5523 0.35836 0.59414 0.0
C182 C 0.53541 0.4088 0.6702 0.0
C183 C 0.55092 0.50226 0.76771 0.0
C184 C 0.56847 0.52006 0.62969 0.0
C185 C 0.66951 0.61811 0.76924 0.0
C186 C 0.69207 0.66073 0.84298 0.0
C187 C 0.67673 0.62865 0.85121 0.0
C188 C 0.66547 0.60752 0.81466 0.0
C189 C 0.68541 0.65001 0.7606 0.0
C190 C 0.69655 0.67124 0.79727 0.0
C191 C 0.65678 0.5961 0.73077 0.0
H192 H 0.60331 0.37204 0.68116 0.0
H193 H 0.57579 0.39601 0.71554 0.0
H194 H 0.51799 0.37205 0.59493 0.0
H195 H 0.54641 0.35014 0.55895 0.0
H196 H 0.67217 0.61977 0.88605 0.0
H197 H 0.65306 0.58294 0.82188 0.0
H198 H 0.6887 0.65845 0.72555 0.0
H199 H 0.70815 0.69579 0.79 0.0
Dy200 Dy 0.12486 0.58091 1.02349 0.0
Dy201 Dy 0.10046 0.62786 1.04819 0.0
C202 C 0.16835 0.65346 1.00947 0.0
O203 O 0.13326 0.58576 1.10096 0.0
O204 O 0.11718 0.62049 1.11975 0.0
O205 O 0.13892 0.54739 1.03932 0.0
O206 O 0.1418 0.56308 0.96949 0.0
O207 O 0.07093 0.58816 1.09181 0.0
O208 O 0.0794 0.5509 1.05823 0.0
O209 O 0.06897 0.60077 0.98766 0.0
O210 O 0.09522 0.57736 0.96002 0.0
O211 O 0.06795 0.64399 1.04346 0.0
O212 O 0.11353 0.67391 1.07257 0.0
C213 C 0.1277 0.6017 1.13262 0.0
O214 O 0.16744 0.62831 1.02406 0.0
O215 O 0.1426 0.65375 1.00428 0.0
C216 C 0.18333 0.55867 0.99551 0.0
C217 C 0.24574 0.59202 0.96833 0.0
C218 C 0.23592 0.60034 1.00889 0.0
C219 C 0.20486 0.58395 1.02213 0.0
C220 C 0.19385 0.54767 0.95915 0.0
C221 C 0.22486 0.56409 0.94578 0.0
C222 C 0.15032 0.54893 0.99828 0.0
C223 C 0.06665 0.56003 1.09014 0.0
C224 C 0.07302 0.58439 0.95507 0.0
C225 C 0.07303 0.68263 1.09724 0.0
C226 C 0.04771 0.70722 0.16039 0.0
C227 C 0.02856 0.6793 1.13683 0.0
C228 C 0.04107 0.66713 1.10555 0.0
C229 C 0.09208 0.71104 1.11965 0.0
C230 C 0.07957 0.72315 0.15119 0.0
C231 C 0.08649 0.67058 1.0632 0.0
H232 H 0.25145 0.62139 1.02749 0.0
H233 H 0.19723 0.59285 1.05048 0.0
H234 H 0.17759 0.52826 0.93816 0.0
H235 H 0.23137 0.55687 0.91432 0.0
H236 H 0.00399 0.66616 1.1439 0.0
H237 H 0.02567 0.64542 1.08834 0.0
H238 H 0.11672 0.72378 1.11301 0.0
H239 H 0.09482 0.74471 0.16888 0.0
Dy240 Dy 0.87745 0.45371 0.59119 0.0
Dy241 Dy 0.90488 0.52453 0.56322 0.0
C242 C 0.83775 0.48644 0.60613 0.0
O243 O 0.87025 0.44823 0.51325 0.0
O244 O 0.88486 0.49832 0.49353 0.0
O245 O 0.85487 0.40439 0.57723 0.0
O246 O 0.86569 0.42133 0.64713 0.0
O247 O 0.9321 0.51041 0.51972 0.0
O248 O 0.92219 0.46566 0.55672 0.0
O249 O 0.93625 0.52986 0.62376 0.0
O250 O 0.90669 0.48177 0.6546 0.0
O251 O 0.93967 0.57279 0.55698 0.0
O252 O 0.89122 0.55761 0.5451 0.0
C253 C 0.87462 0.4688 0.48124 0.0
O254 O 0.83667 0.46115 0.59113 0.0
O255 O 0.8646 0.51156 0.61054 0.0
C256 C 0.81729 0.37773 0.63462 0.0
C257 C 0.75973 0.35531 0.67869 0.0
C258 C 0.76568 0.37105 0.63663 0.0
C259 C 0.79429 0.38228 0.61485 0.0
C260 C 0.81016 0.35907 0.67368 0.0
C261 C 0.78152 0.3478 0.69548 0.0
C262 C 0.84978 0.39728 0.62067 0.0
C263 C 0.93546 0.48609 0.52353 0.0
C264 C 0.93044 0.51053 0.65815 0.0
C265 C 0.92772 0.60244 0.50729 0.0
C266 C 0.94224 0.6443 0.4347 0.0
C267 C 0.93613 0.61391 0.42593 0.0
C268 C 0.92888 0.59309 0.462 0.0
C269 C 0.93348 0.63252 0.5163 0.0
C270 C 0.94077 0.65339 0.48025 0.0
C271 C 0.9195 0.58088 0.54545 0.0
H272 H 0.74925 0.37698 0.62274 0.0
H273 H 0.79923 0.39664 0.58466 0.0
H274 H 0.82763 0.35544 0.68957 0.0
H275 H 0.77781 0.33599 0.72805 0.0
H276 H 0.93775 0.60642 0.39131 0.0
H277 H 0.92435 0.56983 0.45465 0.0
H278 H 0.93236 0.63986 0.55124 0.0
H279 H 0.94528 0.67658 0.48796 0.0
Dy280 Dy 0.43392 0.91323 0.93016 0.0
Dy281 Dy 0.37654 0.92339 0.91339 0.0
C282 C 0.3653 0.86162 0.95424 0.0
O283 O 0.42655 0.89996 0.85622 0.0
O284 O 0.38389 0.90461 0.84223 0.0
O285 O 0.47515 0.91213 0.9096 0.0
O286 O 0.45789 0.9008 0.97937 0.0
O287 O 0.40936 0.95648 0.8647 0.0
O288 O 0.45314 0.96088 0.89777 0.0
O289 O 0.40316 0.95804 0.97243 0.0
O290 O 0.43194 0.93679 0.9962 0.0
O291 O 0.35147 0.94824 0.91428 0.0
O292 O 0.32754 0.89868 0.90068 0.0
C293 C 0.40578 0.89845 0.82744 0.0
O294 O 0.39028 0.86597 0.93265 0.0
O295 O 0.36309 0.88589 0.96444 0.0
C296 C 0.47386 0.86895 0.94489 0.0
C297 C 0.45027 0.80589 0.96385 0.0
C298 C 0.44025 0.81477 0.92466 0.0
C299 C 0.45177 0.84611 0.9155 0.0
C300 C 0.48732 0.8602 0.97942 0.0
C301 C 0.47574 0.82886 0.98872 0.0
C302 C 0.47608 0.89943 0.94817 0.0
C303 C 0.43924 0.97004 0.86812 0.0
C304 C 0.42184 0.95633 1.00318 0.0
C305 C 0.31093 0.92836 0.86091 0.0
C306 C 0.28802 0.94361 0.78328 0.0
C307 C 0.30883 0.93253 0.77809 0.0
C308 C 0.32024 0.92508 0.81653 0.0
C309 C 0.28911 0.93794 0.86643 0.0
C310 C 0.27769 0.94556 0.82781 0.0
C311 C 0.3257 0.92391 0.90121 0.0
H312 H 0.42102 0.79764 0.90439 0.0
H313 H 0.44098 0.85232 0.88857 0.0
H314 H 0.5043 0.87746 1.00255 0.0
H315 H 0.48411 0.82301 1.01918 0.0
H316 H 0.31789 0.93143 0.7445 0.0
H317 H 0.33728 0.91793 0.81168 0.0
H318 H 0.28173 0.94057 0.9006 0.0
H319 H 0.26168 0.95398 0.83286 0.0
Dy320 Dy 0.56205 0.44004 0.25925 0.0
Dy321 Dy 0.4926 0.38405 0.2284 0.0
C322 C 0.541 0.36756 0.27364 0.0
O323 O 0.56183 0.44411 0.18066 0.0
O324 O 0.52035 0.3968 0.16028 0.0
O325 O 0.61048 0.46731 0.24123 0.0
O326 O 0.59445 0.47465 0.30674 0.0
O327 O 0.50358 0.42963 0.20158 0.0
O328 O 0.53296 0.46245 0.25655 0.0
O329 O 0.48448 0.39733 0.30124 0.0
O330 O 0.53418 0.42979 0.32687 0.0
O331 O 0.44327 0.36501 0.22769 0.0
O332 O 0.46354 0.33951 0.19632 0.0
C333 C 0.54531 0.42335 1.14841 0.0
O334 O 0.56387 0.39588 0.26683 0.0
O335 O 0.51229 0.36013 0.26711 0.0
C336 C 0.64073 0.47324 0.30727 0.0
C337 C 0.66849 0.4487 0.3648 0.0
C338 C 0.66241 0.47188 0.38121 0.0
C339 C 0.64889 0.48411 0.35266 0.0
C340 C 0.64971 0.45258 0.28928 0.0
C341 C 0.66367 0.44063 0.31769 0.0
C342 C 0.61836 0.47905 0.28259 0.0
C343 C 0.50797 0.45111 0.23126 0.0
C344 C 0.50381 0.41464 0.33446 0.0
C345 C 0.41576 0.33049 0.16739 0.0
C346 C 0.37119 0.3115 1.09745 0.0
C347 C 0.40139 0.33628 1.09019 0.0
C348 C 0.42354 0.34575 1.125 0.0
C349 C 0.38583 0.30572 0.17476 0.0
C350 C 0.36364 0.29629 1.14006 0.0
C351 C 0.43822 0.34028 0.20478 0.0
H352 H 0.66543 0.47874 0.4172 0.0
H353 H 0.6424 0.50014 0.36731 0.0
H354 H 0.6441 0.44396 0.25417 0.0
H355 H 0.6688 0.42355 0.30338 0.0
H356 H 0.40771 0.34881 1.05798 0.0
H357 H 0.44657 0.36509 1.11905 0.0
H358 H 0.37958 0.29378 0.20749 0.0
H359 H 0.34064 0.27707 1.14649 0.0
Dy360 Dy 0.12104 0.55378 0.58971 0.0
Dy361 Dy 0.09591 0.48088 0.56193 0.0
C362 C 0.16362 0.52167 0.60796 0.0
O363 O 0.12856 0.55662 0.51147 0.0
O364 O 0.11115 0.50565 0.49093 0.0
O365 O 0.15576 0.60189 0.58293 0.0
O366 O 0.11838 0.58869 0.63163 0.0
O367 O 0.05898 0.49288 0.55871 0.0
O368 O 0.08361 0.543 0.5389 0.0
O369 O 0.08113 0.47738 0.63771 0.0
O370 O 0.08566 0.52528 0.6467 0.0
O371 O 0.05774 0.43398 0.55493 0.0
O372 O 0.10448 0.44443 0.54015 0.0
C373 C 0.12256 0.53526 0.47911 0.0
O374 O 0.16107 0.54666 0.60776 0.0
O375 O 0.14104 0.49477 0.59446 0.0
C376 C 0.16951 0.62439 0.65558 0.0
C377 C 0.22179 0.64263 0.71138 0.0
C378 C 0.22276 0.66193 0.67575 0.0
C379 C 0.19675 0.65272 0.64774 0.0
C380 C 0.16805 0.60637 0.69337 0.0
C381 C 0.19387 0.61545 0.72098 0.0
C382 C 0.14603 0.61019 0.61909 0.0
C383 C 0.06148 0.51457 0.53134 0.0
C384 C 0.07502 0.49652 0.66166 0.0
C385 C 0.06438 0.40057 0.50393 0.0
C386 C 0.0426 0.35598 0.43281 0.0
C387 C 0.05247 0.38724 0.4233 0.0
C388 C 0.06345 0.40942 0.4586 0.0
C389 C 0.05512 0.36967 0.51355 0.0
C390 C 0.04434 0.34751 0.47827 0.0
C391 C 0.07546 0.42311 0.54172 0.0
H392 H 0.244 0.68311 0.668 0.0
H393 H 0.19853 0.66667 0.61825 0.0
H394 H 0.1476 0.5842 0.69988 0.0
H395 H 0.19235 0.6005 0.74894 0.0
H396 H 0.0509 0.39446 0.38881 0.0
H397 H 0.07093 0.43331 0.45062 0.0
H398 H 0.05609 0.36267 0.54847 0.0
H399 H 0.03719 0.32374 0.48661 0.0
Dy400 Dy 0.57172 0.09183 0.9287 0.0
Dy401 Dy 0.63469 0.09112 0.92039 0.0
C402 C 0.63597 0.14866 0.9589 0.0
O403 O 0.57719 0.09867 0.85358 0.0
O404 O 0.62653 0.10681 0.84742 0.0
O405 O 0.53105 0.09257 0.90475 0.0
O406 O 0.54309 0.09932 0.97703 0.0
O407 O 0.60612 0.05182 0.8755 0.0
O408 O 0.5584 0.04509 0.89611 0.0
O409 O 0.61155 0.05842 0.98193 0.0
O410 O 0.56953 0.06478 0.99186 0.0
O411 O 0.66608 0.07378 0.92843 0.0
O412 O 0.68344 0.12146 0.90812 0.0
C413 C 0.60159 0.10586 0.82835 0.0
O414 O 0.61266 0.14112 0.9312 0.0
O415 O 0.63994 0.12627 0.97263 0.0
C416 C 0.52909 0.13306 0.94551 0.0
C417 C 0.55761 0.19535 0.97347 0.0
C418 C 0.5641 0.18746 0.92975 0.0
C419 C 0.55013 0.15643 0.91601 0.0
C420 C 0.5183 0.14149 0.98472 0.0
C421 C 0.53243 0.17254 0.99861 0.0
C422 C 0.52705 0.10256 0.94454 0.0
C423 C 0.57608 0.03643 0.87343 0.0
C424 C 0.58636 0.0528 1.00542 0.0
C425 C 0.70842 0.09559 0.87655 0.0
C426 C 0.73644 0.08624 0.79804 0.0
C427 C 0.71929 0.06187 0.82881 0.0
C428 C 0.70556 0.06653 0.86773 0.0
C429 C 0.72793 0.12066 0.8483 0.0
C430 C 0.74181 0.11602 0.80936 0.0
C431 C 0.68982 0.09923 0.91332 0.0
H432 H 0.58305 0.20465 0.9093 0.0
H433 H 0.55881 0.15064 0.88538 0.0
H434 H 0.50207 0.12387 1.00792 0.0
H435 H 0.5267 0.17782 1.03235 0.0
H436 H 0.7144 0.03855 0.82116 0.0
H437 H 0.69131 0.04687 0.88945 0.0
H438 H 0.7313 0.14356 0.855 0.0
H439 H 0.75538 0.13539 0.78678 0.0
Dy440 Dy 0.42367 0.57137 0.26801 0.0
Dy441 Dy 0.4912 0.58602 0.23512 0.0
C442 C 0.47665 0.64024 0.25681 0.0
O443 O 0.42042 0.56808 0.18753 0.0
O444 O 0.46672 0.57208 0.16666 0.0
O445 O 0.3875 0.58217 0.25898 0.0
O446 O 0.38225 0.54826 0.30994 0.0
O447 O 0.46258 0.53714 0.26293 0.0
O448 O 0.41678 0.52872 0.23645 0.0
O449 O 0.49654 0.58849 0.3119 0.0
O450 O 0.44576 0.56303 0.33402 0.0
O451 O 0.52204 0.57681 0.19374 0.0
O452 O 0.54006 0.61217 0.24729 0.0
C453 C 0.43908 0.56692 0.15523 0.0
O454 O 0.45526 0.62063 0.28419 0.0
O455 O 0.49062 0.63093 0.22758 0.0
C456 C 0.36259 0.58167 0.3289 0.0
C457 C 0.3532 0.61442 0.40123 0.0
C458 C 0.36686 0.62929 0.35965 0.0
C459 C 0.37147 0.6131 0.32382 0.0
C460 C 0.34668 0.56621 0.36896 0.0
C461 C 0.34202 0.58242 0.40484 0.0
C462 C 0.37159 0.56561 0.2942 0.0
C463 C 0.43307 0.51809 0.25426 0.0
C464 C 0.47563 0.57359 0.34375 0.0
C465 C 0.56996 0.62208 0.18112 0.0
C466 C 0.61556 0.666 1.12259 0.0
C467 C 0.61993 0.64329 1.14404 0.0
C468 C 0.5973 0.62153 0.17317 0.0
C469 C 0.56568 0.64501 0.16067 0.0
C470 C 0.58834 0.66686 1.1317 0.0
C471 C 0.54666 0.59972 0.21255 0.0
H472 H 0.37545 0.65385 0.35576 0.0
H473 H 0.38324 0.62568 0.29303 0.0
H474 H 0.33922 0.54193 0.37352 0.0
H475 H 0.33167 0.57035 0.43664 0.0
H476 H 0.64032 0.64156 1.137 0.0
H477 H 0.60099 0.6041 0.18909 0.0
H478 H 0.54475 0.64591 0.16702 0.0
H479 H 0.58436 0.68413 1.11589 0.0
H480 H 0.52071 0.20717 0.41293 0.0
H481 H 0.58769 0.22016 0.30773 0.0
H482 H 0.52372 0.25544 0.39112 0.0
H483 H 0.59056 0.26905 0.2856 0.0
H484 H 0.59667 0.36938 0.29159 0.0
H485 H 0.6034 0.32612 0.31743 0.0
H486 H 0.50453 0.2657 0.31573 0.0
H487 H 0.49769 0.30775 0.29043 0.0
C488 C 0.53636 0.22043 0.38537 0.0
C489 C 0.55359 0.20938 0.36159 0.0
C490 C 0.53808 0.24821 0.37289 0.0
C491 C 0.55712 0.26593 0.33633 0.0
C492 C 0.57575 0.25595 0.31403 0.0
C493 C 0.57393 0.22787 0.32648 0.0
C494 C 0.57644 0.34683 0.2967 0.0
C495 C 0.54662 0.3423 0.28906 0.0
C496 C 0.58032 0.32207 0.31131 0.0
C497 C 0.55444 0.29256 0.31901 0.0
C498 C 0.52491 0.2882 0.31084 0.0
C499 C 0.52106 0.31252 0.29611 0.0
H500 H 0.30918 0.47663 0.61511 0.0
H501 H 0.347 0.55649 0.70562 0.0
H502 H 0.26479 0.48263 0.60014 0.0
H503 H 0.30178 0.56228 0.69118 0.0
H504 H 0.22208 0.57317 0.62155 0.0
H505 H 0.27064 0.57345 0.63636 0.0
H506 H 0.22009 0.47358 0.64191 0.0
H507 H 0.17249 0.47324 0.62639 0.0
C508 C 0.30813 0.49562 0.63179 0.0
C509 C 0.33171 0.51587 0.66195 0.0
C510 C 0.2824 0.49896 0.62344 0.0
C511 C 0.27907 0.52253 0.64522 0.0
C512 C 0.30335 0.54379 0.67381 0.0
C513 C 0.32933 0.54045 0.68214 0.0
C514 C 0.22139 0.55132 0.62623 0.0
C515 C 0.1932 0.52317 0.62201 0.0
C516 C 0.24927 0.55147 0.63479 0.0
C517 C 0.24962 0.52348 0.63932 0.0
C518 C 0.22116 0.4956 0.63717 0.0
C519 C 0.1936 0.49544 0.62855 0.0
H520 H 0.77216 0.34941 1.00484 0.0
H521 H 0.82096 0.29969 0.97941 0.0
H522 H 0.72259 0.30076 0.99435 0.0
H523 H 0.77202 0.25167 0.97041 0.0
H524 H 0.68175 0.16909 1.02303 0.0
H525 H 0.72678 0.22057 1.03211 0.0
H526 H 0.69315 0.25481 0.92435 0.0
H527 H 0.64804 0.20253 0.91396 0.0
C528 C 0.7724 0.32828 0.99675 0.0
C529 C 0.80074 0.32867 0.99291 0.0
C530 C 0.74401 0.30044 0.99069 0.0
C531 C 0.74334 0.27226 0.98181 0.0
C532 C 0.77165 0.27286 0.97749 0.0
C533 C 0.79981 0.30056 0.9825 0.0
C534 C 0.68361 0.18752 1.0014 0.0
C535 C 0.66101 0.18144 0.96778 0.0
C536 C 0.70954 0.21712 1.00667 0.0
C537 C 0.7137 0.24184 0.97888 0.0
C538 C 0.69056 0.2363 0.94648 0.0
C539 C 0.6647 0.20635 0.9406 0.0
H540 H 0.43358 0.65698 0.25112 0.0
H541 H 0.53149 0.69517 0.26981 0.0
H542 H 0.43825 0.70636 0.27225 0.0
H543 H 0.5366 0.74557 0.29061 0.0
H544 H 0.52072 0.8118 0.38953 0.0
H545 H 0.52167 0.76699 0.35652 0.0
H546 H 0.45727 0.75902 0.25155 0.0
H547 H 0.45568 0.80328 0.28507 0.0
C548 C 0.45635 0.67637 0.25851 0.0
C549 C 0.48219 0.67231 0.25844 0.0
C550 C 0.45907 0.7048 0.27061 0.0
C551 C 0.4878 0.73012 0.28342 0.0
C552 C 0.51406 0.72649 0.28139 0.0
C553 C 0.51129 0.69783 0.26879 0.0
C554 C 0.50675 0.80053 0.35936 0.0
C555 C 0.48784 0.81105 0.34035 0.0
C556 C 0.50756 0.77497 0.34011 0.0
C557 C 0.48947 0.75923 0.30132 0.0
C558 C 0.47112 0.77025 0.28178 0.0
C559 C 0.47026 0.79571 0.30102 0.0
H560 H 0.6451 0.44588 0.64194 0.0
H561 H 0.70128 0.54276 0.67627 0.0
H562 H 0.69152 0.44321 0.6247 0.0
H563 H 0.74765 0.53988 0.66263 0.0
H564 H 0.82931 0.53641 0.60361 0.0
H565 H 0.78234 0.53838 0.61583 0.0
H566 H 0.73326 0.44043 0.64641 0.0
H567 H 0.78022 0.43847 0.6304 0.0
C568 C 0.66743 0.46664 0.646 0.0
C569 C 0.6693 0.49464 0.66006 0.0
C570 C 0.69431 0.46507 0.63655 0.0
C571 C 0.7241 0.49127 0.64197 0.0
C572 C 0.72566 0.51919 0.65648 0.0
C573 C 0.69882 0.5209 0.66474 0.0
C574 C 0.80849 0.51529 0.61307 0.0
C575 C 0.80874 0.48731 0.61622 0.0
C576 C 0.78125 0.51639 0.62054 0.0
C577 C 0.75326 0.48966 0.63281 0.0
C578 C 0.75373 0.46161 0.63632 0.0
C579 C 0.7809 0.46042 0.62758 0.0
H580 H 0.30555 0.84712 0.96465 0.0
H581 H 0.36214 0.8046 0.96084 0.0
H582 H 0.26003 0.79743 0.97553 0.0
H583 H 0.31628 0.75393 0.97595 0.0
H584 H 0.22235 0.66157 0.96978 0.0
H585 H 0.27043 0.71055 0.95579 0.0
H586 H 0.2302 0.7599 1.02336 0.0
H587 H 0.18231 0.71168 1.03337 0.0
C588 C 0.30841 0.82705 0.96717 0.0
C589 C 0.33782 0.83011 0.96242 0.0
C590 C 0.28198 0.79813 0.97404 0.0
C591 C 0.28375 0.77088 0.97804 0.0
C592 C 0.31336 0.77391 0.97297 0.0
C593 C 0.33991 0.80306 0.96471 0.0
C594 C 0.22406 0.68308 0.9813 0.0
C595 C 0.19838 0.68274 1.0021 0.0
C596 C 0.25173 0.71133 0.97355 0.0
C597 C 0.25475 0.74002 0.98745 0.0
C598 C 0.22911 0.73905 1.01002 0.0
C599 C 0.20139 0.7111 1.01637 0.0
H600 H 0.61779 0.21248 0.97534 0.0
H601 H 0.55318 0.23734 1.03172 0.0
H602 H 0.65222 0.23752 1.03815 0.0
H603 H 0.58909 0.26532 1.09431 0.0
H604 H 0.61097 0.23368 0.23001 0.0
H605 H 0.5959 0.24647 0.15909 0.0
H606 H 0.68221 0.26416 1.09636 0.0
H607 H 0.69567 0.2482 0.16765 0.0
C608 C 0.6118 0.22507 0.99988 0.0
C609 C 0.58237 0.22207 0.9992 0.0
C610 C 0.63177 0.23966 1.0367 0.0
C611 C 0.62293 0.25212 1.0737 0.0
C612 C 0.59597 0.25424 1.0683 0.0
C613 C 0.57548 0.23867 1.03193 0.0
C614 C 0.62711 0.24112 0.20144 0.0
C615 C 0.6541 0.23921 0.20392 0.0
C616 C 0.61857 0.24879 0.16021 0.0
C617 C 0.63708 0.25526 1.12037 0.0
C618 C 0.66636 0.25771 1.12517 0.0
C619 C 0.67441 0.24895 0.16621 0.0
H620 H 0.40358 0.66742 0.42978 0.0
H621 H 0.30938 0.60276 0.46814 0.0
H622 H 0.41452 0.68761 0.50704 0.0
H623 H 0.31969 0.62426 0.54629 0.0
H624 H 0.44666 0.70271 0.64031 0.0
H625 H 0.41667 0.7076 0.57838 0.0
H626 H 0.34355 0.61359 0.60322 0.0
H627 H 0.37237 0.60983 0.66581 0.0
C628 C 0.38469 0.6585 0.45435 0.0
C629 C 0.35589 0.63283 0.44326 0.0
C630 C 0.39091 0.6703 0.49922 0.0
C631 C 0.36837 0.65682 0.53414 0.0
C632 C 0.33811 0.63434 0.52104 0.0
C633 C 0.33207 0.62207 0.47617 0.0
C634 C 0.42351 0.68376 0.63375 0.0
C635 C 0.41241 0.65549 0.65669 0.0
C636 C 0.40637 0.68635 0.59788 0.0
C637 C 0.3785 0.6603 0.58336 0.0
C638 C 0.36512 0.63414 0.61205 0.0
C639 C 0.38187 0.63187 0.6485 0.0
H640 H 0.72627 0.4356 0.90242 0.0
H641 H 0.74581 0.36349 0.93879 0.0
H642 H 0.70027 0.40685 0.83263 0.0
H643 H 0.72203 0.33597 0.86914 0.0
H644 H 0.74664 0.40094 0.69676 0.0
H645 H 0.72539 0.40756 0.76733 0.0
H646 H 0.69561 0.31279 0.80429 0.0
H647 H 0.71912 0.30704 0.73363 0.0
C648 C 0.72414 0.41315 0.89625 0.0
C649 C 0.73911 0.40241 0.9252 0.0
C650 C 0.70951 0.39673 0.85597 0.0
C651 C 0.71071 0.36996 0.84321 0.0
C652 C 0.72091 0.35669 0.87648 0.0
C653 C 0.73483 0.3727 0.91707 0.0
C654 C 0.73447 0.38102 0.71891 0.0
C655 C 0.73565 0.35386 0.71048 0.0
C656 C 0.72199 0.38476 0.75997 0.0
C657 C 0.71017 0.36127 0.79344 0.0
C658 C 0.70611 0.33207 0.78073 0.0
C659 C 0.71932 0.32858 0.73998 0.0
H660 H 0.38773 0.77764 0.97076 0.0
H661 H 0.46449 0.76655 1.01066 0.0
H662 H 0.35939 0.75 1.03733 0.0
H663 H 0.43471 0.7356 1.07616 0.0
H664 H 0.32721 0.74001 0.17649 0.0
H665 H 0.33705 0.72406 1.10127 0.0
H666 H 0.43175 0.75686 1.14259 0.0
H667 H 0.42092 0.77047 0.21699 0.0
C668 C 0.39802 0.76784 0.99254 0.0
C669 C 0.42918 0.77617 0.98715 0.0
C670 C 0.38149 0.75158 1.03133 0.0
C671 C 0.39562 0.74257 1.06488 0.0
C672 C 0.42394 0.74435 1.05318 0.0
C673 C 0.44095 0.76169 1.01513 0.0
C674 C 0.34974 0.74272 0.16948 0.0
C675 C 0.37344 0.75678 0.20223 0.0
C676 C 0.35559 0.73383 1.12624 0.0
C677 C 0.38565 0.74013 1.11432 0.0
C678 C 0.40823 0.75126 1.14933 0.0
C679 C 0.40213 0.75936 0.19258 0.0
H680 H 0.70079 0.46683 0.44661 0.0
H681 H 0.64879 0.38622 0.35972 0.0
H682 H 0.68994 0.43407 0.51222 0.0
H683 H 0.64125 0.35306 0.4242 0.0
H684 H 0.56912 0.32223 0.54039 0.0
H685 H 0.60516 0.33644 0.4778 0.0
H686 H 0.67881 0.40027 0.56788 0.0
H687 H 0.64168 0.38935 0.62853 0.0
C688 C 0.68787 0.442 0.44114 0.0
C689 C 0.67386 0.42942 0.39843 0.0
C690 C 0.68196 0.42281 0.47906 0.0
C691 C 0.66252 0.39041 0.47482 0.0
C692 C 0.65432 0.37783 0.42993 0.0
C693 C 0.65929 0.39708 0.3923 0.0
C694 C 0.593 0.33941 0.54699 0.0
C695 C 0.60163 0.35666 0.58835 0.0
C696 C 0.6142 0.34732 0.51088 0.0
C697 C 0.64486 0.37188 0.51609 0.0
C698 C 0.65491 0.38331 0.56107 0.0
C699 C 0.63343 0.37642 0.5966 0.0
H700 H 0.2881 0.58518 0.91456 0.0
H701 H 0.26538 0.65371 0.96157 0.0
H702 H 0.30962 0.61437 0.84403 0.0
H703 H 0.284 0.68112 0.89091 0.0
H704 H 0.262 0.69602 0.75803 0.0
H705 H 0.29683 0.69984 0.81965 0.0
H706 H 0.27714 0.60674 0.78631 0.0
H707 H 0.24464 0.60435 0.72404 0.0
C708 C 0.28854 0.60696 0.91054 0.0
C709 C 0.27277 0.6158 0.94195 0.0
C710 C 0.30052 0.62359 0.86974 0.0
C711 C 0.29546 0.64826 0.85921 0.0
C712 C 0.2869 0.66127 0.89583 0.0
C713 C 0.27589 0.64524 0.93707 0.0
C714 C 0.26629 0.67701 0.7631 0.0
C715 C 0.2496 0.6493 0.73805 0.0
C716 C 0.28601 0.67896 0.79876 0.0
C717 C 0.28847 0.65286 0.81062 0.0
C718 C 0.27567 0.62728 0.77997 0.0
C719 C 0.25646 0.62557 0.7442 0.0
H720 H 0.42999 0.01562 1.02132 0.0
H721 H 0.43852 0.94319 1.08664 0.0
H722 H 0.45177 0.04845 1.09063 0.0
H723 H 0.45801 0.97481 0.15639 0.0
H724 H 0.52626 0.04847 0.25779 0.0
H725 H 0.50241 0.01665 0.18958 0.0
H726 H 0.44833 0.06114 0.17086 0.0
H727 H 0.47194 0.09267 0.24046 0.0
C728 C 0.436 0.00636 1.05053 0.0
C729 C 0.43243 0.9764 1.04727 0.0
C730 C 0.4486 0.02534 1.0908 0.0
C731 C 0.45784 0.01511 1.12998 0.0
C732 C 0.45276 0.98459 1.12712 0.0
C733 C 0.44101 0.96604 1.08674 0.0
C734 C 0.50942 0.05177 0.23924 0.0
C735 C 0.5015 0.0737 0.25556 0.0
C736 C 0.49537 0.03312 0.19953 0.0
C737 C 0.47301 0.03574 0.1731 0.0
C738 C 0.46544 0.05811 0.18907 0.0
C739 C 0.47906 0.07635 0.22955 0.0
H740 H 0.44326 0.38302 0.36972 0.0
H741 H 0.53359 0.45812 0.40511 0.0
H742 H 0.42168 0.39403 0.43917 0.0
H743 H 0.51209 0.46859 0.4746 0.0
H744 H 0.46136 0.50588 0.56646 0.0
H745 H 0.47983 0.49055 0.49803 0.0
H746 H 0.41723 0.39486 0.52645 0.0
H747 H 0.39765 0.40992 0.59448 0.0
C748 C 0.45882 0.40168 0.39239 0.0
C749 C 0.49063 0.41945 0.38051 0.0
C750 C 0.44624 0.40808 0.43279 0.0
C751 C 0.46467 0.43283 0.4635 0.0
C752 C 0.49653 0.45001 0.45205 0.0
C753 C 0.50914 0.44356 0.41194 0.0
C754 C 0.45148 0.48146 0.55881 0.0
C755 C 0.42787 0.45946 0.58767 0.0
C756 C 0.46259 0.47266 0.51936 0.0
C757 C 0.45123 0.44144 0.50618 0.0
C758 C 0.42717 0.41925 0.53449 0.0
C759 C 0.41587 0.42801 0.57417 0.0
H760 H 0.04922 0.52528 0.71435 0.0
H761 H 0.05252 0.44076 0.71071 0.0
H762 H 0.01569 0.50677 0.78166 0.0
H763 H 0.0189 0.4223 0.7788 0.0
H764 H 0.96945 0.40038 0.9229 0.0
H765 H 0.0036 0.41743 0.85532 0.0
H766 H 0.97242 0.4812 0.82246 0.0
H767 H 0.93935 0.46504 0.89039 0.0
C768 C 0.04311 0.50274 0.72786 0.0
C769 C 0.05449 0.48501 0.70575 0.0
C770 C 0.02331 0.49187 0.76726 0.0
C771 C 0.0137 0.46275 0.78799 0.0
C772 C 0.02532 0.44501 0.76588 0.0
C773 C 0.0449 0.45571 0.72591 0.0
C774 C 0.96985 0.41825 0.90147 0.0
C775 C 0.95099 0.43108 0.91368 0.0
C776 C 0.98968 0.4281 0.86175 0.0
C777 C 0.99193 0.45143 0.83148 0.0
C778 C 0.97281 0.46396 0.84393 0.0
C779 C 0.95316 0.45428 0.88359 0.0
H780 H 0.47279 0.92751 0.23412 0.0
H781 H 0.56611 0.95928 0.2778 0.0
H782 H 0.49212 0.95533 0.16181 0.0
H783 H 0.58573 0.98901 0.20681 0.0
H784 H 0.61618 0.02831 1.05873 0.0
H785 H 0.59752 0.99678 1.1288 0.0
H786 H 0.51282 0.99933 1.12072 0.0
H787 H 0.53109 0.03017 1.05196 0.0
C788 C 0.49754 0.94082 0.22884 0.0
C789 C 0.51757 0.94079 0.26294 0.0
C790 C 0.5089 0.95741 0.18694 0.0
C791 C 0.54098 0.97565 0.17714 0.0
C792 C 0.56097 0.97546 0.21144 0.0
C793 C 0.54957 0.95833 0.25296 0.0
C794 C 0.5935 0.02211 1.07189 0.0
C795 C 0.57551 0.03239 1.04865 0.0
C796 C 0.58266 0.00397 1.11283 0.0
C797 C 0.55317 0.99493 1.13234 0.0
C798 C 0.53533 0.00501 1.10826 0.0
C799 C 0.54615 0.02322 1.068 0.0
H800 H 0.56938 0.50824 0.53576 0.0
H801 H 0.53634 0.55261 0.62967 0.0
H802 H 0.5487 0.5231 0.47063 0.0
H803 H 0.51372 0.56581 0.56458 0.0
H804 H 0.53036 0.57432 0.35585 0.0
H805 H 0.55221 0.56356 0.42262 0.0
H806 H 0.47204 0.54527 0.50271 0.0
H807 H 0.44941 0.55569 0.43427 0.0
C808 C 0.55751 0.52099 0.54284 0.0
C809 C 0.5549 0.52902 0.5889 0.0
C810 C 0.54555 0.52976 0.50501 0.0
C811 C 0.52887 0.5457 0.51109 0.0
C812 C 0.52597 0.55345 0.55738 0.0
C813 C 0.53913 0.54583 0.59515 0.0
C814 C 0.51697 0.5681 0.38745 0.0
C815 C 0.48769 0.56629 0.38832 0.0
C816 C 0.52976 0.56163 0.42639 0.0
C817 C 0.51446 0.55336 0.46944 0.0
C818 C 0.48517 0.55175 0.47091 0.0
C819 C 0.47191 0.55764 0.43118 0.0
H820 H 0.01104 0.56836 0.94599 0.0
H821 H 0.08651 0.57662 0.86335 0.0
H822 H 0.97766 0.55187 0.87761 0.0
H823 H 0.05381 0.56178 0.79444 0.0
H824 H 0.99354 0.55325 0.66657 0.0
H825 H 0.02663 0.57123 0.73518 0.0
H826 H 0.94788 0.51346 0.82029 0.0
H827 H 0.91525 0.49436 0.75119 0.0
C828 C 0.02079 0.56684 0.91326 0.0
C829 C 0.05203 0.5739 0.91155 0.0
C830 C 0.00131 0.55714 0.87336 0.0
C831 C 0.01212 0.55495 0.82876 0.0
C832 C 0.0437 0.56283 0.82706 0.0
C833 C 0.06282 0.57136 0.86727 0.0
C834 C 0.9831 0.54408 0.69979 0.0
C835 C 0.95115 0.5218 0.70198 0.0
C836 C 0.0024 0.55453 0.73986 0.0
C837 C 0.99081 0.54418 0.78503 0.0
C838 C 0.95855 0.52256 0.7872 0.0
C839 C 0.9395 0.51121 0.7469 0.0
H840 H 0.56028 0.05712 0.49099 0.0
H841 H 0.47311 0.05267 0.46741 0.0
H842 H 0.5398 0.02862 0.56206 0.0
H843 H 0.45346 0.0258 0.5393 0.0
H844 H 0.43322 0.94429 0.46484 0.0
H845 H 0.43022 0.97336 0.53088 0.0
H846 H 0.51101 0.97878 0.58923 0.0
H847 H 0.51532 0.95056 0.52345 0.0
C848 C 0.53663 0.04971 0.50065 0.0
C849 C 0.51699 0.05357 0.4707 0.0
C850 C 0.52495 0.03409 0.54215 0.0
C851 C 0.49279 0.01959 0.5511 0.0
C852 C 0.47695 0.03263 0.52952 0.0
C853 C 0.48788 0.04724 0.48734 0.0
C854 C 0.45101 0.95251 0.49101 0.0
C855 C 0.4772 0.94935 0.48542 0.0
C856 C 0.44894 0.96839 0.52972 0.0
C857 C 0.47544 0.98507 0.55774 0.0
C858 C 0.49373 0.9712 0.56233 0.0
C859 C 0.49695 0.95608 0.5237 0.0
H860 H 0.41108 0.42555 0.82499 0.0
H861 H 0.4647 0.52528 0.82786 0.0
H862 H 0.43667 0.42401 0.89564 0.0
H863 H 0.48826 0.52321 0.89956 0.0
H864 H 0.56142 0.53586 0.84785 0.0
H865 H 0.53117 0.51851 0.91879 0.0
H866 H 0.48103 0.42606 0.86403 0.0
H867 H 0.51 0.44295 0.79265 0.0
C868 C 0.42864 0.44709 0.84035 0.0
C869 C 0.43956 0.47543 0.81743 0.0
C870 C 0.44237 0.44636 0.88189 0.0
C871 C 0.46955 0.47332 0.89605 0.0
C872 C 0.47146 0.50152 0.88369 0.0
C873 C 0.45886 0.5029 0.84167 0.0
C874 C 0.54324 0.5119 0.85044 0.0
C875 C 0.53471 0.49167 0.81213 0.0
C876 C 0.52679 0.50158 0.89184 0.0
C877 C 0.49923 0.47271 0.89189 0.0
C878 C 0.49856 0.45023 0.86116 0.0
C879 C 0.51431 0.46001 0.81935 0.0
H880 H 0.95292 0.41512 0.16188 0.0
H881 H 0.94526 0.49544 1.12998 0.0
H882 H 0.98562 0.44247 0.22713 0.0
H883 H 0.97695 0.52192 0.19648 0.0
H884 H 0.05412 0.57916 0.17222 0.0
H885 H 0.02698 0.54723 0.23779 0.0
H886 H 0.03068 0.47064 0.1746 0.0
H887 H 0.05734 0.50209 1.10838 0.0
C888 C 0.9583 0.4387 0.16856 0.0
C889 C 0.9502 0.45488 1.13706 0.0
C890 C 0.97577 0.45381 0.20754 0.0
C891 C 0.98815 0.4859 0.21138 0.0
C892 C 0.97139 0.49826 0.18997 0.0
C893 C 0.95405 0.48361 0.1507 0.0
C894 C 0.04889 0.55531 0.17194 0.0
C895 C 0.05419 0.54175 1.13241 0.0
C896 C 0.03468 0.53746 0.21075 0.0
C897 C 0.02233 0.50536 0.20744 0.0
C898 C 0.03631 0.49461 0.17521 0.0
C899 C 0.05069 0.51222 1.13625 0.0
H900 H 0.04637 0.46052 0.48563 0.0
H901 H 0.0568 0.55073 0.46451 0.0
H902 H 0.01961 0.44311 0.41222 0.0
H903 H 0.02896 0.53202 0.39172 0.0
H904 H 0.94837 0.51329 0.43869 0.0
H905 H 0.9761 0.50542 0.37607 0.0
H906 H 0.97214 0.4287 0.44904 0.0
H907 H 0.94489 0.43674 0.51204 0.0
C908 C 0.0424 0.47644 0.46588 0.0
C909 C 0.04972 0.50572 0.48388 0.0
C910 C 0.02814 0.46692 0.42282 0.0
C911 C 0.01534 0.48386 0.40418 0.0
C912 C 0.03301 0.51621 0.41178 0.0
C913 C 0.04816 0.52687 0.45412 0.0
C914 C 0.95388 0.49497 0.4418 0.0
C915 C 0.94815 0.47814 0.48301 0.0
C916 C 0.9688 0.48971 0.40498 0.0
C917 C 0.98119 0.47022 0.41155 0.0
C918 C 0.96688 0.44717 0.44576 0.0
C919 C 0.95186 0.45213 0.48277 0.0
H920 H 0.49057 0.02874 0.86628 0.0
H921 H 0.42534 0.9548 0.77856 0.0
H922 H 0.52721 0.0476 0.80249 0.0
H923 H 0.46489 0.96918 0.71942 0.0
H924 H 0.59597 0.0506 0.78581 0.0
H925 H 0.55963 0.03388 0.72215 0.0
H926 H 0.49502 0.95526 0.80106 0.0
H927 H 0.52808 0.97574 0.86866 0.0
C928 C 0.48397 0.01682 0.83327 0.0
C929 C 0.45644 0.9887 0.82836 0.0
C930 C 0.50459 0.0277 0.79613 0.0
C931 C 0.50025 0.0068 0.75959 0.0
C932 C 0.46981 0.98421 0.74926 0.0
C933 C 0.44764 0.97515 0.78412 0.0
C934 C 0.57411 0.02933 0.78937 0.0
C935 C 0.56328 0.01606 0.8331 0.0
C936 C 0.55374 0.01913 0.75207 0.0
C937 C 0.52306 0.99616 0.76 0.0
C938 C 0.51767 0.9755 0.79662 0.0
C939 C 0.53627 0.98727 0.83585 0.0
H940 H 0.43489 0.50882 0.34772 0.0
H941 H 0.38437 0.46319 0.22371 0.0
H942 H 0.41187 0.45811 0.38476 0.0
H943 H 0.36399 0.41325 0.26399 0.0
H944 H 0.44904 0.41752 0.20011 0.0
H945 H 0.40229 0.402 0.24318 0.0
H946 H 0.45701 0.4598 0.35779 0.0
H947 H 0.50331 0.47446 0.31469 0.0
C948 C 0.41998 0.48834 0.32782 0.0
C949 C 0.41562 0.48941 0.27995 0.0
C950 C 0.40621 0.45932 0.34912 0.0
C951 C 0.3977 0.43402 0.31908 0.0
C952 C 0.37988 0.43446 0.28189 0.0
C953 C 0.39184 0.46267 0.25852 0.0
C954 C 0.45096 0.4271 0.23447 0.0
C955 C 0.47993 0.4477 0.25359 0.0
C956 C 0.42402 0.41768 0.25975 0.0
C957 C 0.42498 0.43104 0.30329 0.0
C958 C 0.45443 0.45 0.3235 0.0
C959 C 0.48134 0.45921 0.29829 0.0
H960 H 0.28686 0.99777 0.78058 0.0
H961 H 0.27516 0.92132 0.69467 0.0
H962 H 0.29457 0.02859 0.71217 0.0
H963 H 0.28478 0.95265 0.62656 0.0
H964 H 0.37745 0.08101 0.6096 0.0
H965 H 0.34208 0.05135 0.67089 0.0
H966 H 0.28004 0.98463 0.5707 0.0
H967 H 0.31644 0.01378 0.50939 0.0
C968 C 0.28477 0.98709 0.74706 0.0
C969 C 0.28151 0.95749 0.74301 0.0
C970 C 0.28955 0.00492 0.7078 0.0
C971 C 0.29156 0.99358 0.66405 0.0
C972 C 0.28371 0.96237 0.65966 0.0
C973 C 0.27854 0.94442 0.69884 0.0
C974 C 0.35603 0.06027 0.6006 0.0
C975 C 0.3501 0.04933 0.55491 0.0
C976 C 0.3354 0.04344 0.63569 0.0
C977 C 0.30826 0.01531 0.62584 0.0
C978 C 0.30093 0.00595 0.57952 0.0
C979 C 0.32171 0.02277 0.54435 0.0
H980 H 0.31132 0.29818 1.10762 0.0
H981 H 0.37757 0.30469 1.00542 0.0
H982 H 0.27501 0.29119 1.0464 0.0
H983 H 0.34211 0.29902 0.94447 0.0
H984 H 0.28372 0.29286 0.83656 0.0
H985 H 0.29465 0.27045 0.90274 0.0
H986 H 0.27675 0.32893 0.99381 0.0
H987 H 0.26404 0.34994 0.92782 0.0
C988 C 0.31785 0.29743 1.07212 0.0
C989 C 0.34748 0.30255 1.06115 0.0
C990 C 0.29712 0.29358 1.03709 0.0
C991 C 0.30568 0.29478 0.99052 0.0
C992 C 0.33448 0.29757 0.97988 0.0
C993 C 0.3551 0.30138 1.0148 0.0
C994 C 0.28054 0.2998 0.87076 0.0
C995 C 0.27402 0.32394 0.87697 0.0
C996 C 0.28718 0.28718 0.90873 0.0
C997 C 0.28775 0.29877 0.95336 0.0
C998 C 0.27684 0.31962 0.95991 0.0
C999 C 0.26985 0.33196 0.92199 0.0
H1000 H 0.97304 0.28017 0.16669 0.0
H1001 H 0.90078 0.27156 0.25846 0.0
H1002 H 0.00379 0.28213 0.23278 0.0
H1003 H 0.93193 0.27517 0.32435 0.0
H1004 H 0.99172 0.2981 0.43927 0.0
H1005 H 0.96186 0.2643 0.37568 0.0
H1006 H 0.0305 0.32735 0.27943 0.0
H1007 H 0.06109 0.35993 0.34302 0.0
C1008 C 0.96323 0.27755 0.20091 0.0
C1009 C 0.93497 0.27673 0.20764 0.0
C1010 C 0.98098 0.27895 0.23881 0.0
C1011 C 0.97085 0.27992 0.28387 0.0
C1012 C 0.94068 0.27468 0.29027 0.0
C1013 C 0.92287 0.273 0.25244 0.0
C1014 C 0.00105 0.30407 0.40468 0.0
C1015 C 0.02831 0.33218 0.39595 0.0
C1016 C 0.9838 0.28477 0.36818 0.0
C1017 C 0.9933 0.29346 0.32235 0.0
C1018 C 0.02233 0.31978 0.31418 0.0
C1019 C 0.03969 0.33887 0.35065 0.0
H1020 H 0.75662 0.04598 0.77269 0.0
H1021 H 0.73022 0.10933 0.71667 0.0
H1022 H 0.74884 0.02117 0.69699 0.0
H1023 H 0.72298 0.08505 0.64176 0.0
H1024 H 0.70066 0.03361 0.51251 0.0
H1025 H 0.7369 0.06592 0.57257 0.0
H1026 H 0.6963 0.98832 0.6657 0.0
H1027 H 0.66079 0.95602 0.6055 0.0
C1028 C 0.75021 0.0553 0.74397 0.0
C1029 C 0.74313 0.07901 0.75103 0.0
C1030 C 0.74584 0.04114 0.70066 0.0
C1031 C 0.73455 0.05066 0.6638 0.0
C1032 C 0.73173 0.07714 0.6694 0.0
C1033 C 0.73593 0.09117 0.71263 0.0
C1034 C 0.70018 0.02327 0.54539 0.0
C1035 C 0.67756 0.99251 0.55478 0.0
C1036 C 0.72088 0.04177 0.57974 0.0
C1037 C 0.71933 0.02975 0.62392 0.0
C1038 C 0.69837 0.99825 0.63191 0.0
C1039 C 0.67765 0.97984 0.59769 0.0
H1040 H 0.67903 0.69589 1.12358 0.0
H1041 H 0.60156 0.68063 1.03953 0.0
H1042 H 0.71283 0.71511 1.05615 0.0
H1043 H 0.63472 0.69933 0.97292 0.0
H1044 H 0.68155 0.70934 0.85094 0.0
H1045 H 0.67631 0.73157 0.9233 0.0
H1046 H 0.71233 0.68149 0.99681 0.0
H1047 H 0.71901 0.66078 0.92451 0.0
C1048 C 0.6694 0.69743 1.09102 0.0
C1049 C 0.63748 0.68587 1.08651 0.0
C1050 C 0.68877 0.70857 1.05248 0.0
C1051 C 0.67642 0.70802 1.0088 0.0
C1052 C 0.64527 0.70028 1.00585 0.0
C1053 C 0.62602 0.6893 1.04427 0.0
C1054 C 0.68983 0.70438 0.88232 0.0
C1055 C 0.69953 0.68237 0.88249 0.0
C1056 C 0.68663 0.71697 0.92388 0.0
C1057 C 0.6926 0.70728 0.96604 0.0
C1058 C 0.70709 0.68928 0.9652 0.0
C1059 C 0.71057 0.67699 0.9237 0.0
H1060 H 0.0716 0.72596 0.24622 0.0
H1061 H 0.99424 0.70982 0.16128 0.0
H1062 H 0.04324 0.72493 0.31459 0.0
H1063 H 0.96565 0.70934 0.23025 0.0
H1064 H 0.98927 0.70451 0.43542 0.0
H1065 H 0.014 0.73653 0.36817 0.0
H1066 H 0.94363 0.666 0.28078 0.0
H1067 H 0.91828 0.635 0.34799 0.0
C1068 C 0.04903 0.72368 0.24202 0.0
C1069 C 0.03473 0.71702 0.19865 0.0
C1070 C 0.03268 0.72322 0.28139 0.0
C1071 C 0.00175 0.71613 0.27803 0.0
C1072 C 0.98914 0.71399 0.23402 0.0
C1073 C 0.00545 0.71423 0.19458 0.0
C1074 C 0.97841 0.69649 0.40203 0.0
C1075 C 0.95242 0.66683 0.39661 0.0
C1076 C 0.99267 0.71478 0.36347 0.0
C1077 C 0.98134 0.70351 0.31895 0.0
C1078 C 0.95314 0.67554 0.31441 0.0
C1079 C 0.93881 0.65742 0.35291 0.0
H1080 H 0.5138 0.10443 0.56218 0.0
H1081 H 0.60958 0.14631 0.52308 0.0
H1082 H 0.52713 0.0993 0.64107 0.0
H1083 H 0.62323 0.14198 0.60253 0.0
H1084 H 0.63653 0.1084 0.74825 0.0
H1085 H 0.62544 0.11357 0.66694 0.0
H1086 H 0.54753 0.12227 0.71088 0.0
H1087 H 0.55809 0.11674 0.79003 0.0
C1088 C 0.53789 0.11313 0.5703 0.0
C1089 C 0.56041 0.12632 0.53513 0.0
C1090 C 0.54576 0.11023 0.61632 0.0
C1091 C 0.57666 0.12045 0.63002 0.0
C1092 C 0.59917 0.13349 0.59464 0.0
C1093 C 0.59126 0.13633 0.54851 0.0
C1094 C 0.61722 0.1117 0.74063 0.0
C1095 C 0.59842 0.11198 0.77716 0.0
C1096 C 0.61066 0.11466 0.69346 0.0
C1097 C 0.58499 0.11798 0.68065 0.0
C1098 C 0.56692 0.11894 0.71756 0.0
C1099 C 0.57337 0.11601 0.76402 0.0
H1100 H 0.43469 0.56156 0.84857 0.0
H1101 H 0.35574 0.47309 0.88147 0.0
H1102 H 0.44383 0.57457 0.9299 0.0
H1103 H 0.36484 0.48663 0.96447 0.0
H1104 H 0.47617 0.57766 1.07871 0.0
H1105 H 0.46273 0.56285 0.99824 0.0
H1106 H 0.3661 0.52092 1.03225 0.0
H1107 H 0.37978 0.53622 1.11389 0.0
C1108 C 0.41883 0.54469 0.87292 0.0
C1109 C 0.39416 0.51603 0.85674 0.0
C1110 C 0.42438 0.55226 0.9205 0.0
C1111 C 0.40544 0.53188 0.95538 0.0
C1112 C 0.38014 0.50338 0.93953 0.0
C1113 C 0.37482 0.49551 0.8914 0.0
C1114 C 0.45192 0.5655 1.06954 0.0
C1115 C 0.42933 0.55867 1.1042 0.0
C1116 C 0.4441 0.55693 1.02257 0.0
C1117 C 0.41309 0.5405 1.00712 0.0
C1118 C 0.39027 0.53332 1.04175 0.0
C1119 C 0.39819 0.54245 1.08903 0.0
H1120 H 0.85713 0.44619 0.17219 0.0
H1121 H 0.88296 0.37939 0.21214 0.0
H1122 H 0.85757 0.46101 0.25244 0.0
H1123 H 0.88369 0.39451 0.29345 0.0
H1124 H 0.86085 0.41163 0.44367 0.0
H1125 H 0.8598 0.3957 0.36344 0.0
H1126 H 0.88357 0.48723 0.31924 0.0
H1127 H 0.8843 0.503 0.39986 0.0
C1128 C 0.86277 0.43428 0.19796 0.0
C1129 C 0.86959 0.41096 0.18401 0.0
C1130 C 0.86336 0.44322 0.24494 0.0
C1131 C 0.87079 0.42948 0.28147 0.0
C1132 C 0.87741 0.40587 0.26766 0.0
C1133 C 0.87696 0.39697 0.2203 0.0
C1134 C 0.86557 0.42852 0.41708 0.0
C1135 C 0.87215 0.45879 0.42982 0.0
C1136 C 0.8653 0.41929 0.3702 0.0
C1137 C 0.87147 0.4397 0.33282 0.0
C1138 C 0.87806 0.47006 0.34563 0.0
C1139 C 0.87852 0.47935 0.39266 0.0
H1140 H 0.40874 0.86095 0.5215 0.0
H1141 H 0.50151 0.89527 0.57031 0.0
H1142 H 0.39221 0.86512 0.59976 0.0
H1143 H 0.48533 0.90006 0.64809 0.0
H1144 H 0.44669 0.88164 0.79329 0.0
H1145 H 0.4598 0.87575 0.71509 0.0
H1146 H 0.39054 0.89523 0.6642 0.0
H1147 H 0.37682 0.90085 0.74434 0.0
C1148 C 0.42572 0.86905 0.54886 0.0
C1149 C 0.45662 0.87712 0.53854 0.0
C1150 C 0.41619 0.87187 0.59424 0.0
C1151 C 0.43702 0.88279 0.6319 0.0
C1152 C 0.46793 0.89085 0.62136 0.0
C1153 C 0.47744 0.88811 0.57605 0.0
C1154 C 0.43378 0.8846 0.76593 0.0
C1155 C 0.41037 0.89184 0.77673 0.0
C1156 C 0.44177 0.88148 0.7201 0.0
C1157 C 0.42692 0.88537 0.68164 0.0
C1158 C 0.4028 0.89181 0.69204 0.0
C1159 C 0.39472 0.89501 0.7385 0.0
H1160 H 0.5651 0.42694 0.83971 0.0
H1161 H 0.61703 0.52311 0.87942 0.0
H1162 H 0.55357 0.41229 0.92029 0.0
H1163 H 0.60485 0.50864 0.96053 0.0
H1164 H 0.59625 0.47477 1.11057 0.0
H1165 H 0.60962 0.48929 1.03006 0.0
H1166 H 0.52665 0.40646 0.98738 0.0
H1167 H 0.51387 0.39163 1.06815 0.0
C1168 C 0.57444 0.4452 0.86556 0.0
C1169 C 0.59264 0.47644 0.8517 0.0
C1170 C 0.56735 0.43669 0.91262 0.0
C1171 C 0.57787 0.4589 0.94891 0.0
C1172 C 0.59637 0.49025 0.93499 0.0
C1173 C 0.60354 0.49876 0.88774 0.0
C1174 C 0.58078 0.45939 1.08419 0.0
C1175 C 0.55385 0.43166 1.09724 0.0
C1176 C 0.58843 0.46799 1.03719 0.0
C1177 C 0.56955 0.44944 1.00024 0.0
C1178 C 0.54256 0.42163 1.01345 0.0
C1179 C 0.53497 0.41298 1.06054 0.0
H1180 H 0.13992 0.59317 0.44271 0.0
H1181 H 0.10918 0.49985 0.39693 0.0
H1182 H 0.14125 0.6091 0.36305 0.0
H1183 H 0.1104 0.51576 0.31669 0.0
H1184 H 0.13915 0.55726 0.16968 0.0
H1185 H 0.13791 0.54153 0.24933 0.0
H1186 H 0.11618 0.61095 0.29496 0.0
H1187 H 0.1175 0.62676 0.21458 0.0
C1188 C 0.1336 0.57582 0.4158 0.0
C1189 C 0.12489 0.54498 0.42785 0.0
C1190 C 0.13407 0.58508 0.36927 0.0
C1191 C 0.12603 0.56417 0.33147 0.0
C1192 C 0.11734 0.53324 0.3435 0.0
C1193 C 0.11661 0.5239 0.39026 0.0
C1194 C 0.13439 0.56964 0.1964 0.0
C1195 C 0.12895 0.59398 0.18408 0.0
C1196 C 0.13331 0.56018 0.24295 0.0
C1197 C 0.12693 0.57455 0.28055 0.0
C1198 C 0.12164 0.59909 0.2683 0.0
C1199 C 0.12242 0.60838 0.22146 0.0
loop_
_geom_bond_atom_site_label_1
_geom_bond_atom_site_label_2
_geom_bond_distance
_geom_bond_site_symmetry_2
_ccdc_geom_bond_type
Dy0 O3 2.307 . S
Dy0 O5 2.395 . S
Dy0 O6 2.379 . S
Dy0 O8 2.339 . S
Dy0 O10 2.298 . S
Dy0 O14 2.275 . S
Dy0 C22 2.738 . S
Dy1 O4 2.298 . S
Dy1 O7 2.275 . S
Dy1 O9 2.307 . S
Dy1 O11 2.395 . S
Dy1 O12 2.379 . S
Dy1 O15 2.339 . S
Dy1 C31 2.738 . S
C2 O14 1.254 . S
C2 O15 1.257 . S
O3 Dy0 2.307 . S
O3 C13 1.266 . S
O4 Dy1 2.298 . S
O4 C13 1.236 . S
O5 Dy0 2.395 . S
O5 C22 1.255 . S
O6 Dy0 2.379 . S
O6 C22 1.249 . S
O7 Dy1 2.275 . S
O7 C23 1.254 . S
O8 Dy0 2.339 . S
O8 C23 1.257 . S
O9 Dy1 2.307 . S
O9 C24 1.266 . S
O10 Dy0 2.298 . S
O10 C24 1.236 . S
O11 Dy1 2.395 . S
O11 C31 1.255 . S
O12 Dy1 2.379 . S
O12 C31 1.249 . S
C13 O3 1.266 . S
C13 O4 1.236 . S
O14 Dy0 2.275 . S
O14 C2 1.254 . S
O15 Dy1 2.339 . S
O15 C2 1.257 . S
C16 C19 1.344 . S
C16 C20 1.328 . S
C16 C22 1.516 . S
C17 C18 1.304 . S
C17 C21 1.323 . S
C18 C17 1.304 . S
C18 C19 1.371 . S
C18 H32 0.930 . S
C19 C16 1.344 . S
C19 C18 1.371 . S
C19 H33 0.931 . S
C20 C16 1.328 . S
C20 C21 1.433 . S
C20 H34 0.931 . S
C21 C17 1.323 . S
C21 C20 1.433 . S
C21 H35 0.933 . S
C22 Dy0 2.738 . S
C22 O5 1.255 . S
C22 O6 1.249 . S
C22 C16 1.516 . S
C23 O7 1.254 . S
C23 O8 1.257 . S
C24 O9 1.266 . S
C24 O10 1.236 . S
C25 C28 1.344 . S
C25 C29 1.328 . S
C25 C31 1.516 . S
C26 C27 1.304 . S
C26 C30 1.323 . S
C27 C26 1.304 . S
C27 C28 1.371 . S
C27 H36 0.930 . S
C28 C25 1.344 . S
C28 C27 1.371 . S
C28 H37 0.931 . S
C29 C25 1.328 . S
C29 C30 1.433 . S
C29 H38 0.931 . S
C30 C26 1.323 . S
C30 C29 1.433 . S
C30 H39 0.933 . S
C31 Dy1 2.738 . S
C31 O11 1.255 . S
C31 O12 1.249 . S
C31 C25 1.516 . S
H32 C18 0.930 . S
H33 C19 0.931 . S
H34 C20 0.931 . S
H35 C21 0.933 . S
H36 C27 0.930 . S
H37 C28 0.931 . S
H38 C29 0.931 . S
H39 C30 0.933 . S
Dy40 O43 2.307 . S
Dy40 O45 2.395 . S
Dy40 O46 2.379 . S
Dy40 O48 2.339 . S
Dy40 O50 2.298 . S
Dy40 O54 2.275 . S
Dy40 C62 2.738 . S
Dy41 O44 2.298 . S
Dy41 O47 2.275 . S
Dy41 O49 2.307 . S
Dy41 O51 2.395 . S
Dy41 O52 2.379 . S
Dy41 O55 2.339 . S
Dy41 C71 2.738 . S
C42 O54 1.254 . S
C42 O55 1.257 . S
O43 Dy40 2.307 . S
O43 C53 1.266 . S
O44 Dy41 2.298 . S
O44 C53 1.236 . S
O45 Dy40 2.395 . S
O45 C62 1.255 . S
O46 Dy40 2.379 . S
O46 C62 1.249 . S
O47 Dy41 2.275 . S
O47 C63 1.254 . S
O48 Dy40 2.339 . S
O48 C63 1.257 . S
O49 Dy41 2.307 . S
O49 C64 1.266 . S
O50 Dy40 2.298 . S
O50 C64 1.236 . S
O51 Dy41 2.395 . S
O51 C71 1.255 . S
O52 Dy41 2.379 . S
O52 C71 1.249 . S
C53 O43 1.266 . S
C53 O44 1.236 . S
O54 Dy40 2.275 . S
O54 C42 1.254 . S
O55 Dy41 2.339 . S
O55 C42 1.257 . S
C56 C59 1.344 . S
C56 C60 1.328 . S
C56 C62 1.516 . S
C57 C58 1.304 . S
C57 C61 1.323 . S
C58 C57 1.304 . S
C58 C59 1.371 . S
C58 H72 0.930 . S
C59 C56 1.344 . S
C59 C58 1.371 . S
C59 H73 0.931 . S
C60 C56 1.328 . S
C60 C61 1.433 . S
C60 H74 0.931 . S
C61 C57 1.323 . S
C61 C60 1.433 . S
C61 H75 0.933 . S
C62 Dy40 2.738 . S
C62 O45 1.255 . S
C62 O46 1.249 . S
C62 C56 1.516 . S
C63 O47 1.254 . S
C63 O48 1.257 . S
C64 O49 1.266 . S
C64 O50 1.236 . S
C65 C68 1.344 . S
C65 C69 1.328 . S
C65 C71 1.516 . S
C66 C67 1.304 . S
C66 C70 1.323 . S
C67 C66 1.304 . S
C67 C68 1.371 . S
C67 H76 0.930 . S
C68 C65 1.344 . S
C68 C67 1.371 . S
C68 H77 0.931 . S
C69 C65 1.328 . S
C69 C70 1.433 . S
C69 H78 0.931 . S
C70 C66 1.323 . S
C70 C69 1.433 . S
C70 H79 0.933 . S
C71 Dy41 2.738 . S
C71 O51 1.255 . S
C71 O52 1.249 . S
C71 C65 1.516 . S
H72 C58 0.930 . S
H73 C59 0.931 . S
H74 C60 0.931 . S
H75 C61 0.933 . S
H76 C67 0.930 . S
H77 C68 0.931 . S
H78 C69 0.931 . S
H79 C70 0.933 . S
Dy80 O83 2.307 . S
Dy80 O85 2.395 . S
Dy80 O86 2.379 . S
Dy80 O88 2.339 . S
Dy80 O90 2.298 . S
Dy80 O94 2.275 . S
Dy80 C102 2.738 . S
Dy81 O84 2.298 . S
Dy81 O87 2.275 . S
Dy81 O89 2.307 . S
Dy81 O91 2.395 . S
Dy81 O92 2.379 . S
Dy81 O95 2.339 . S
Dy81 C111 2.738 1_556 S
C82 O94 1.254 . S
C82 O95 1.257 . S
O83 Dy80 2.307 . S
O83 C93 1.266 . S
O84 Dy81 2.298 . S
O84 C93 1.236 . S
O85 Dy80 2.395 . S
O85 C102 1.255 . S
O86 Dy80 2.379 . S
O86 C102 1.249 . S
O87 Dy81 2.275 . S
O87 C103 1.254 . S
O88 Dy80 2.339 . S
O88 C103 1.257 . S
O89 Dy81 2.307 . S
O89 C104 1.266 . S
O90 Dy80 2.298 . S
O90 C104 1.236 . S
O91 Dy81 2.395 . S
O91 C111 1.255 1_556 S
O92 Dy81 2.379 . S
O92 C111 1.249 1_556 S
C93 O83 1.266 . S
C93 O84 1.236 . S
O94 Dy80 2.275 . S
O94 C82 1.254 . S
O95 Dy81 2.339 . S
O95 C82 1.257 . S
C96 C99 1.344 . S
C96 C100 1.328 . S
C96 C102 1.516 . S
C97 C98 1.304 . S
C97 C101 1.323 . S
C98 C97 1.304 . S
C98 C99 1.371 . S
C98 H112 0.930 . S
C99 C96 1.344 . S
C99 C98 1.371 . S
C99 H113 0.931 . S
C100 C96 1.328 . S
C100 C101 1.433 . S
C100 H114 0.931 . S
C101 C97 1.323 . S
C101 C100 1.433 . S
C101 H115 0.933 . S
C102 Dy80 2.738 . S
C102 O85 1.255 . S
C102 O86 1.249 . S
C102 C96 1.516 . S
C103 O87 1.254 . S
C103 O88 1.257 . S
C104 O89 1.266 . S
C104 O90 1.236 . S
C105 C108 1.344 . S
C105 C109 1.328 . S
C105 C111 1.516 . S
C106 C107 1.304 . S
C106 C110 1.323 . S
C107 C106 1.304 . S
C107 C108 1.371 . S
C107 H116 0.930 . S
C108 C105 1.344 . S
C108 C107 1.371 . S
C108 H117 0.931 . S
C109 C105 1.328 . S
C109 C110 1.433 . S
C109 H118 0.931 . S
C110 C106 1.323 . S
C110 C109 1.433 . S
C110 H119 0.933 . S
C111 Dy81 2.738 1_554 S
C111 O91 1.255 1_554 S
C111 O92 1.249 1_554 S
C111 C105 1.516 . S
H112 C98 0.930 . S
H113 C99 0.931 . S
H114 C100 0.931 . S
H115 C101 0.933 . S
H116 C107 0.930 . S
H117 C108 0.931 . S
H118 C109 0.931 . S
H119 C110 0.933 . S
Dy120 O123 2.307 . S
Dy120 O125 2.395 . S
Dy120 O126 2.379 . S
Dy120 O128 2.339 . S
Dy120 O130 2.298 . S
Dy120 O134 2.275 . S
Dy120 C142 2.738 . S
Dy121 O124 2.298 . S
Dy121 O127 2.275 . S
Dy121 O129 2.307 . S
Dy121 O131 2.395 . S
Dy121 O132 2.379 . S
Dy121 O135 2.339 . S
Dy121 C151 2.738 . S
C122 O134 1.254 . S
C122 O135 1.257 . S
O123 Dy120 2.307 . S
O123 C133 1.266 . S
O124 Dy121 2.298 . S
O124 C133 1.236 . S
O125 Dy120 2.395 . S
O125 C142 1.255 . S
O126 Dy120 2.379 . S
O126 C142 1.249 . S
O127 Dy121 2.275 . S
O127 C143 1.254 . S
O128 Dy120 2.339 . S
O128 C143 1.257 . S
O129 Dy121 2.307 . S
O129 C144 1.266 . S
O130 Dy120 2.298 . S
O130 C144 1.236 . S
O131 Dy121 2.395 . S
O131 C151 1.255 . S
O132 Dy121 2.379 . S
O132 C151 1.249 . S
C133 O123 1.266 . S
C133 O124 1.236 . S
O134 Dy120 2.275 . S
O134 C122 1.254 . S
O135 Dy121 2.339 . S
O135 C122 1.257 . S
C136 C139 1.344 . S
C136 C140 1.328 . S
C136 C142 1.516 . S
C137 C138 1.304 . S
C137 C141 1.323 . S
C138 C137 1.304 . S
C138 C139 1.371 . S
C138 H152 0.930 . S
C139 C136 1.344 . S
C139 C138 1.371 . S
C139 H153 0.931 . S
C140 C136 1.328 . S
C140 C141 1.433 . S
C140 H154 0.931 . S
C141 C137 1.323 . S
C141 C140 1.433 . S
C141 H155 0.933 . S
C142 Dy120 2.738 . S
C142 O125 1.255 . S
C142 O126 1.249 . S
C142 C136 1.516 . S
C143 O127 1.254 . S
C143 O128 1.257 . S
C144 O129 1.266 . S
C144 O130 1.236 . S
C145 C148 1.344 . S
C145 C149 1.328 . S
C145 C151 1.516 . S
C146 C147 1.304 . S
C146 C150 1.323 . S
C147 C146 1.304 . S
C147 C148 1.371 . S
C147 H156 0.930 . S
C148 C145 1.344 . S
C148 C147 1.371 . S
C148 H157 0.931 . S
C149 C145 1.328 . S
C149 C150 1.433 . S
C149 H158 0.931 . S
C150 C146 1.323 . S
C150 C149 1.433 . S
C150 H159 0.933 . S
C151 Dy121 2.738 . S
C151 O131 1.255 . S
C151 O132 1.249 . S
C151 C145 1.516 . S
H152 C138 0.930 . S
H153 C139 0.931 . S
H154 C140 0.931 . S
H155 C141 0.933 . S
H156 C147 0.930 . S
H157 C148 0.931 . S
H158 C149 0.931 . S
H159 C150 0.933 . S
Dy160 O163 2.307 . S
Dy160 O165 2.395 . S
Dy160 O166 2.379 . S
Dy160 O168 2.339 . S
Dy160 O170 2.298 . S
Dy160 O174 2.275 . S
Dy160 C182 2.738 . S
Dy161 O164 2.298 . S
Dy161 O167 2.275 . S
Dy161 O169 2.307 . S
Dy161 O171 2.395 . S
Dy161 O172 2.379 . S
Dy161 O175 2.339 . S
Dy161 C191 2.738 . S
C162 O174 1.254 . S
C162 O175 1.257 . S
O163 Dy160 2.307 . S
O163 C173 1.266 . S
O164 Dy161 2.298 . S
O164 C173 1.236 . S
O165 Dy160 2.395 . S
O165 C182 1.255 . S
O166 Dy160 2.379 . S
O166 C182 1.249 . S
O167 Dy161 2.275 . S
O167 C183 1.254 . S
O168 Dy160 2.339 . S
O168 C183 1.257 . S
O169 Dy161 2.307 . S
O169 C184 1.266 . S
O170 Dy160 2.298 . S
O170 C184 1.236 . S
O171 Dy161 2.395 . S
O171 C191 1.255 . S
O172 Dy161 2.379 . S
O172 C191 1.249 . S
C173 O163 1.266 . S
C173 O164 1.236 . S
O174 Dy160 2.275 . S
O174 C162 1.254 . S
O175 Dy161 2.339 . S
O175 C162 1.257 . S
C176 C179 1.344 . S
C176 C180 1.328 . S
C176 C182 1.516 . S
C177 C178 1.304 . S
C177 C181 1.323 . S
C178 C177 1.304 . S
C178 C179 1.371 . S
C178 H192 0.930 . S
C179 C176 1.344 . S
C179 C178 1.371 . S
C179 H193 0.931 . S
C180 C176 1.328 . S
C180 C181 1.433 . S
C180 H194 0.931 . S
C181 C177 1.323 . S
C181 C180 1.433 . S
C181 H195 0.933 . S
C182 Dy160 2.738 . S
C182 O165 1.255 . S
C182 O166 1.249 . S
C182 C176 1.516 . S
C183 O167 1.254 . S
C183 O168 1.257 . S
C184 O169 1.266 . S
C184 O170 1.236 . S
C185 C188 1.344 . S
C185 C189 1.328 . S
C185 C191 1.516 . S
C186 C187 1.304 . S
C186 C190 1.323 . S
C187 C186 1.304 . S
C187 C188 1.371 . S
C187 H196 0.930 . S
C188 C185 1.344 . S
C188 C187 1.371 . S
C188 H197 0.931 . S
C189 C185 1.328 . S
C189 C190 1.433 . S
C189 H198 0.931 . S
C190 C186 1.323 . S
C190 C189 1.433 . S
C190 H199 0.933 . S
C191 Dy161 2.738 . S
C191 O171 1.255 . S
C191 O172 1.249 . S
C191 C185 1.516 . S
H192 C178 0.930 . S
H193 C179 0.931 . S
H194 C180 0.931 . S
H195 C181 0.933 . S
H196 C187 0.930 . S
H197 C188 0.931 . S
H198 C189 0.931 . S
H199 C190 0.933 . S
Dy200 O203 2.307 . S
Dy200 O205 2.395 . S
Dy200 O206 2.379 . S
Dy200 O208 2.339 . S
Dy200 O210 2.298 . S
Dy200 O214 2.275 . S
Dy200 C222 2.738 . S
Dy201 O204 2.298 . S
Dy201 O207 2.275 . S
Dy201 O209 2.307 . S
Dy201 O211 2.395 . S
Dy201 O212 2.379 . S
Dy201 O215 2.339 . S
Dy201 C231 2.738 1_556 S
C202 O214 1.254 . S
C202 O215 1.257 . S
O203 Dy200 2.307 . S
O203 C213 1.266 . S
O204 Dy201 2.298 . S
O204 C213 1.236 . S
O205 Dy200 2.395 . S
O205 C222 1.255 . S
O206 Dy200 2.379 . S
O206 C222 1.249 . S
O207 Dy201 2.275 . S
O207 C223 1.254 . S
O208 Dy200 2.339 . S
O208 C223 1.257 . S
O209 Dy201 2.307 . S
O209 C224 1.266 . S
O210 Dy200 2.298 . S
O210 C224 1.236 . S
O211 Dy201 2.395 . S
O211 C231 1.255 1_556 S
O212 Dy201 2.379 . S
O212 C231 1.249 1_556 S
C213 O203 1.266 . S
C213 O204 1.236 . S
O214 Dy200 2.275 . S
O214 C202 1.254 . S
O215 Dy201 2.339 . S
O215 C202 1.257 . S
C216 C219 1.344 . S
C216 C220 1.328 . S
C216 C222 1.516 . S
C217 C218 1.304 . S
C217 C221 1.323 . S
C218 C217 1.304 . S
C218 C219 1.371 . S
C218 H232 0.930 . S
C219 C216 1.344 . S
C219 C218 1.371 . S
C219 H233 0.931 . S
C220 C216 1.328 . S
C220 C221 1.433 . S
C220 H234 0.931 . S
C221 C217 1.323 . S
C221 C220 1.433 . S
C221 H235 0.933 . S
C222 Dy200 2.738 . S
C222 O205 1.255 . S
C222 O206 1.249 . S
C222 C216 1.516 . S
C223 O207 1.254 . S
C223 O208 1.257 . S
C224 O209 1.266 . S
C224 O210 1.236 . S
C225 C228 1.344 . S
C225 C229 1.328 . S
C225 C231 1.516 . S
C226 C227 1.304 . S
C226 C230 1.323 . S
C227 C226 1.304 . S
C227 C228 1.371 . S
C227 H236 0.930 . S
C228 C225 1.344 . S
C228 C227 1.371 . S
C228 H237 0.931 . S
C229 C225 1.328 . S
C229 C230 1.433 . S
C229 H238 0.931 . S
C230 C226 1.323 . S
C230 C229 1.433 . S
C230 H239 0.933 . S
C231 Dy201 2.738 1_554 S
C231 O211 1.255 1_554 S
C231 O212 1.249 1_554 S
C231 C225 1.516 . S
H232 C218 0.930 . S
H233 C219 0.931 . S
H234 C220 0.931 . S
H235 C221 0.933 . S
H236 C227 0.930 . S
H237 C228 0.931 . S
H238 C229 0.931 . S
H239 C230 0.933 . S
Dy240 O243 2.307 . S
Dy240 O245 2.395 . S
Dy240 O246 2.379 . S
Dy240 O248 2.339 . S
Dy240 O250 2.298 . S
Dy240 O254 2.275 . S
Dy240 C262 2.738 . S
Dy241 O244 2.298 . S
Dy241 O247 2.275 . S
Dy241 O249 2.307 . S
Dy241 O251 2.395 . S
Dy241 O252 2.379 . S
Dy241 O255 2.339 . S
Dy241 C271 2.738 . S
C242 O254 1.254 . S
C242 O255 1.257 . S
O243 Dy240 2.307 . S
O243 C253 1.266 . S
O244 Dy241 2.298 . S
O244 C253 1.236 . S
O245 Dy240 2.395 . S
O245 C262 1.255 . S
O246 Dy240 2.379 . S
O246 C262 1.249 . S
O247 Dy241 2.275 . S
O247 C263 1.254 . S
O248 Dy240 2.339 . S
O248 C263 1.257 . S
O249 Dy241 2.307 . S
O249 C264 1.266 . S
O250 Dy240 2.298 . S
O250 C264 1.236 . S
O251 Dy241 2.395 . S
O251 C271 1.255 . S
O252 Dy241 2.379 . S
O252 C271 1.249 . S
C253 O243 1.266 . S
C253 O244 1.236 . S
O254 Dy240 2.275 . S
O254 C242 1.254 . S
O255 Dy241 2.339 . S
O255 C242 1.257 . S
C256 C259 1.344 . S
C256 C260 1.328 . S
C256 C262 1.516 . S
C257 C258 1.304 . S
C257 C261 1.323 . S
C258 C257 1.304 . S
C258 C259 1.371 . S
C258 H272 0.930 . S
C259 C256 1.344 . S
C259 C258 1.371 . S
C259 H273 0.931 . S
C260 C256 1.328 . S
C260 C261 1.433 . S
C260 H274 0.931 . S
C261 C257 1.323 . S
C261 C260 1.433 . S
C261 H275 0.933 . S
C262 Dy240 2.738 . S
C262 O245 1.255 . S
C262 O246 1.249 . S
C262 C256 1.516 . S
C263 O247 1.254 . S
C263 O248 1.257 . S
C264 O249 1.266 . S
C264 O250 1.236 . S
C265 C268 1.344 . S
C265 C269 1.328 . S
C265 C271 1.516 . S
C266 C267 1.304 . S
C266 C270 1.323 . S
C267 C266 1.304 . S
C267 C268 1.371 . S
C267 H276 0.930 . S
C268 C265 1.344 . S
C268 C267 1.371 . S
C268 H277 0.931 . S
C269 C265 1.328 . S
C269 C270 1.433 . S
C269 H278 0.931 . S
C270 C266 1.323 . S
C270 C269 1.433 . S
C270 H279 0.933 . S
C271 Dy241 2.738 . S
C271 O251 1.255 . S
C271 O252 1.249 . S
C271 C265 1.516 . S
H272 C258 0.930 . S
H273 C259 0.931 . S
H274 C260 0.931 . S
H275 C261 0.933 . S
H276 C267 0.930 . S
H277 C268 0.931 . S
H278 C269 0.931 . S
H279 C270 0.933 . S
Dy280 O283 2.307 . S
Dy280 O285 2.395 . S
Dy280 O286 2.379 . S
Dy280 O288 2.339 . S
Dy280 O290 2.298 . S
Dy280 O294 2.275 . S
Dy280 C302 2.738 . S
Dy281 O284 2.298 . S
Dy281 O287 2.275 . S
Dy281 O289 2.307 . S
Dy281 O291 2.395 . S
Dy281 O292 2.379 . S
Dy281 O295 2.339 . S
Dy281 C311 2.738 . S
C282 O294 1.254 . S
C282 O295 1.257 . S
O283 Dy280 2.307 . S
O283 C293 1.266 . S
O284 Dy281 2.298 . S
O284 C293 1.236 . S
O285 Dy280 2.395 . S
O285 C302 1.255 . S
O286 Dy280 2.379 . S
O286 C302 1.249 . S
O287 Dy281 2.275 . S
O287 C303 1.254 . S
O288 Dy280 2.339 . S
O288 C303 1.257 . S
O289 Dy281 2.307 . S
O289 C304 1.266 . S
O290 Dy280 2.298 . S
O290 C304 1.236 . S
O291 Dy281 2.395 . S
O291 C311 1.255 . S
O292 Dy281 2.379 . S
O292 C311 1.249 . S
C293 O283 1.266 . S
C293 O284 1.236 . S
O294 Dy280 2.275 . S
O294 C282 1.254 . S
O295 Dy281 2.339 . S
O295 C282 1.257 . S
C296 C299 1.344 . S
C296 C300 1.328 . S
C296 C302 1.516 . S
C297 C298 1.304 . S
C297 C301 1.323 . S
C298 C297 1.304 . S
C298 C299 1.371 . S
C298 H312 0.930 . S
C299 C296 1.344 . S
C299 C298 1.371 . S
C299 H313 0.931 . S
C300 C296 1.328 . S
C300 C301 1.433 . S
C300 H314 0.931 . S
C301 C297 1.323 . S
C301 C300 1.433 . S
C301 H315 0.933 . S
C302 Dy280 2.738 . S
C302 O285 1.255 . S
C302 O286 1.249 . S
C302 C296 1.516 . S
C303 O287 1.254 . S
C303 O288 1.257 . S
C304 O289 1.266 . S
C304 O290 1.236 . S
C305 C308 1.344 . S
C305 C309 1.328 . S
C305 C311 1.516 . S
C306 C307 1.304 . S
C306 C310 1.323 . S
C307 C306 1.304 . S
C307 C308 1.371 . S
C307 H316 0.930 . S
C308 C305 1.344 . S
C308 C307 1.371 . S
C308 H317 0.931 . S
C309 C305 1.328 . S
C309 C310 1.433 . S
C309 H318 0.931 . S
C310 C306 1.323 . S
C310 C309 1.433 . S
C310 H319 0.933 . S
C311 Dy281 2.738 . S
C311 O291 1.255 . S
C311 O292 1.249 . S
C311 C305 1.516 . S
H312 C298 0.930 . S
H313 C299 0.931 . S
H314 C300 0.931 . S
H315 C301 0.933 . S
H316 C307 0.930 . S
H317 C308 0.931 . S
H318 C309 0.931 . S
H319 C310 0.933 . S
Dy320 O323 2.307 . S
Dy320 O325 2.395 . S
Dy320 O326 2.379 . S
Dy320 O328 2.339 . S
Dy320 O330 2.298 . S
Dy320 O334 2.275 . S
Dy320 C342 2.738 . S
Dy321 O324 2.298 . S
Dy321 O327 2.275 . S
Dy321 O329 2.307 . S
Dy321 O331 2.395 . S
Dy321 O332 2.379 . S
Dy321 O335 2.339 . S
Dy321 C351 2.738 1_554 S
C322 O334 1.254 . S
C322 O335 1.257 . S
O323 Dy320 2.307 . S
O323 C333 1.266 . S
O324 Dy321 2.298 . S
O324 C333 1.236 . S
O325 Dy320 2.395 . S
O325 C342 1.255 . S
O326 Dy320 2.379 . S
O326 C342 1.249 . S
O327 Dy321 2.275 . S
O327 C343 1.254 . S
O328 Dy320 2.339 . S
O328 C343 1.257 . S
O329 Dy321 2.307 . S
O329 C344 1.266 . S
O330 Dy320 2.298 . S
O330 C344 1.236 . S
O331 Dy321 2.395 . S
O331 C351 1.255 1_554 S
O332 Dy321 2.379 . S
O332 C351 1.249 1_554 S
C333 O323 1.266 . S
C333 O324 1.236 . S
O334 Dy320 2.275 . S
O334 C322 1.254 . S
O335 Dy321 2.339 . S
O335 C322 1.257 . S
C336 C339 1.344 . S
C336 C340 1.328 . S
C336 C342 1.516 . S
C337 C338 1.304 . S
C337 C341 1.323 . S
C338 C337 1.304 . S
C338 C339 1.371 . S
C338 H352 0.930 . S
C339 C336 1.344 . S
C339 C338 1.371 . S
C339 H353 0.931 . S
C340 C336 1.328 . S
C340 C341 1.433 . S
C340 H354 0.931 . S
C341 C337 1.323 . S
C341 C340 1.433 . S
C341 H355 0.933 . S
C342 Dy320 2.738 . S
C342 O325 1.255 . S
C342 O326 1.249 . S
C342 C336 1.516 . S
C343 O327 1.254 . S
C343 O328 1.257 . S
C344 O329 1.266 . S
C344 O330 1.236 . S
C345 C348 1.344 . S
C345 C349 1.328 . S
C345 C351 1.516 . S
C346 C347 1.304 . S
C346 C350 1.323 . S
C347 C346 1.304 . S
C347 C348 1.371 . S
C347 H356 0.930 . S
C348 C345 1.344 . S
C348 C347 1.371 . S
C348 H357 0.931 . S
C349 C345 1.328 . S
C349 C350 1.433 . S
C349 H358 0.931 . S
C350 C346 1.323 . S
C350 C349 1.433 . S
C350 H359 0.933 . S
C351 Dy321 2.738 1_556 S
C351 O331 1.255 1_556 S
C351 O332 1.249 1_556 S
C351 C345 1.516 . S
H352 C338 0.930 . S
H353 C339 0.931 . S
H354 C340 0.931 . S
H355 C341 0.933 . S
H356 C347 0.930 . S
H357 C348 0.931 . S
H358 C349 0.931 . S
H359 C350 0.933 . S
Dy360 O363 2.307 . S
Dy360 O365 2.395 . S
Dy360 O366 2.379 . S
Dy360 O368 2.339 . S
Dy360 O370 2.298 . S
Dy360 O374 2.275 . S
Dy360 C382 2.738 . S
Dy361 O364 2.298 . S
Dy361 O367 2.275 . S
Dy361 O369 2.307 . S
Dy361 O371 2.395 . S
Dy361 O372 2.379 . S
Dy361 O375 2.339 . S
Dy361 C391 2.738 . S
C362 O374 1.254 . S
C362 O375 1.257 . S
O363 Dy360 2.307 . S
O363 C373 1.266 . S
O364 Dy361 2.298 . S
O364 C373 1.236 . S
O365 Dy360 2.395 . S
O365 C382 1.255 . S
O366 Dy360 2.379 . S
O366 C382 1.249 . S
O367 Dy361 2.275 . S
O367 C383 1.254 . S
O368 Dy360 2.339 . S
O368 C383 1.257 . S
O369 Dy361 2.307 . S
O369 C384 1.266 . S
O370 Dy360 2.298 . S
O370 C384 1.236 . S
O371 Dy361 2.395 . S
O371 C391 1.255 . S
O372 Dy361 2.379 . S
O372 C391 1.249 . S
C373 O363 1.266 . S
C373 O364 1.236 . S
O374 Dy360 2.275 . S
O374 C362 1.254 . S
O375 Dy361 2.339 . S
O375 C362 1.257 . S
C376 C379 1.344 . S
C376 C380 1.328 . S
C376 C382 1.516 . S
C377 C378 1.304 . S
C377 C381 1.323 . S
C378 C377 1.304 . S
C378 C379 1.371 . S
C378 H392 0.930 . S
C379 C376 1.344 . S
C379 C378 1.371 . S
C379 H393 0.931 . S
C380 C376 1.328 . S
C380 C381 1.433 . S
C380 H394 0.931 . S
C381 C377 1.323 . S
C381 C380 1.433 . S
C381 H395 0.933 . S
C382 Dy360 2.738 . S
C382 O365 1.255 . S
C382 O366 1.249 . S
C382 C376 1.516 . S
C383 O367 1.254 . S
C383 O368 1.257 . S
C384 O369 1.266 . S
C384 O370 1.236 . S
C385 C388 1.344 . S
C385 C389 1.328 . S
C385 C391 1.516 . S
C386 C387 1.304 . S
C386 C390 1.323 . S
C387 C386 1.304 . S
C387 C388 1.371 . S
C387 H396 0.930 . S
C388 C385 1.344 . S
C388 C387 1.371 . S
C388 H397 0.931 . S
C389 C385 1.328 . S
C389 C390 1.433 . S
C389 H398 0.931 . S
C390 C386 1.323 . S
C390 C389 1.433 . S
C390 H399 0.933 . S
C391 Dy361 2.738 . S
C391 O371 1.255 . S
C391 O372 1.249 . S
C391 C385 1.516 . S
H392 C378 0.930 . S
H393 C379 0.931 . S
H394 C380 0.931 . S
H395 C381 0.933 . S
H396 C387 0.930 . S
H397 C388 0.931 . S
H398 C389 0.931 . S
H399 C390 0.933 . S
Dy400 O403 2.307 . S
Dy400 O405 2.395 . S
Dy400 O406 2.379 . S
Dy400 O408 2.339 . S
Dy400 O410 2.298 . S
Dy400 O414 2.275 . S
Dy400 C422 2.738 . S
Dy401 O404 2.298 . S
Dy401 O407 2.275 . S
Dy401 O409 2.307 . S
Dy401 O411 2.395 . S
Dy401 O412 2.379 . S
Dy401 O415 2.339 . S
Dy401 C431 2.738 . S
C402 O414 1.254 . S
C402 O415 1.257 . S
O403 Dy400 2.307 . S
O403 C413 1.266 . S
O404 Dy401 2.298 . S
O404 C413 1.236 . S
O405 Dy400 2.395 . S
O405 C422 1.255 . S
O406 Dy400 2.379 . S
O406 C422 1.249 . S
O407 Dy401 2.275 . S
O407 C423 1.254 . S
O408 Dy400 2.339 . S
O408 C423 1.257 . S
O409 Dy401 2.307 . S
O409 C424 1.266 . S
O410 Dy400 2.298 . S
O410 C424 1.236 . S
O411 Dy401 2.395 . S
O411 C431 1.255 . S
O412 Dy401 2.379 . S
O412 C431 1.249 . S
C413 O403 1.266 . S
C413 O404 1.236 . S
O414 Dy400 2.275 . S
O414 C402 1.254 . S
O415 Dy401 2.339 . S
O415 C402 1.257 . S
C416 C419 1.344 . S
C416 C420 1.328 . S
C416 C422 1.516 . S
C417 C418 1.304 . S
C417 C421 1.323 . S
C418 C417 1.304 . S
C418 C419 1.371 . S
C418 H432 0.930 . S
C419 C416 1.344 . S
C419 C418 1.371 . S
C419 H433 0.931 . S
C420 C416 1.328 . S
C420 C421 1.433 . S
C420 H434 0.931 . S
C421 C417 1.323 . S
C421 C420 1.433 . S
C421 H435 0.933 . S
C422 Dy400 2.738 . S
C422 O405 1.255 . S
C422 O406 1.249 . S
C422 C416 1.516 . S
C423 O407 1.254 . S
C423 O408 1.257 . S
C424 O409 1.266 . S
C424 O410 1.236 . S
C425 C428 1.344 . S
C425 C429 1.328 . S
C425 C431 1.516 . S
C426 C427 1.304 . S
C426 C430 1.323 . S
C427 C426 1.304 . S
C427 C428 1.371 . S
C427 H436 0.930 . S
C428 C425 1.344 . S
C428 C427 1.371 . S
C428 H437 0.931 . S
C429 C425 1.328 . S
C429 C430 1.433 . S
C429 H438 0.931 . S
C430 C426 1.323 . S
C430 C429 1.433 . S
C430 H439 0.933 . S
C431 Dy401 2.738 . S
C431 O411 1.255 . S
C431 O412 1.249 . S
C431 C425 1.516 . S
H432 C418 0.930 . S
H433 C419 0.931 . S
H434 C420 0.931 . S
H435 C421 0.933 . S
H436 C427 0.930 . S
H437 C428 0.931 . S
H438 C429 0.931 . S
H439 C430 0.933 . S
Dy440 O443 2.307 . S
Dy440 O445 2.395 . S
Dy440 O446 2.379 . S
Dy440 O448 2.339 . S
Dy440 O450 2.298 . S
Dy440 O454 2.275 . S
Dy440 C462 2.738 . S
Dy441 O444 2.298 . S
Dy441 O447 2.275 . S
Dy441 O449 2.307 . S
Dy441 O451 2.395 . S
Dy441 O452 2.379 . S
Dy441 O455 2.339 . S
Dy441 C471 2.738 1_554 S
C442 O454 1.254 . S
C442 O455 1.257 . S
O443 Dy440 2.307 . S
O443 C453 1.266 . S
O444 Dy441 2.298 . S
O444 C453 1.236 . S
O445 Dy440 2.395 . S
O445 C462 1.255 . S
O446 Dy440 2.379 . S
O446 C462 1.249 . S
O447 Dy441 2.275 . S
O447 C463 1.254 . S
O448 Dy440 2.339 . S
O448 C463 1.257 . S
O449 Dy441 2.307 . S
O449 C464 1.266 . S
O450 Dy440 2.298 . S
O450 C464 1.236 . S
O451 Dy441 2.395 . S
O451 C471 1.255 1_554 S
O452 Dy441 2.379 . S
O452 C471 1.249 1_554 S
C453 O443 1.266 . S
C453 O444 1.236 . S
O454 Dy440 2.275 . S
O454 C442 1.254 . S
O455 Dy441 2.339 . S
O455 C442 1.257 . S
C456 C459 1.344 . S
C456 C460 1.328 . S
C456 C462 1.516 . S
C457 C458 1.304 . S
C457 C461 1.323 . S
C458 C457 1.304 . S
C458 C459 1.371 . S
C458 H472 0.930 . S
C459 C456 1.344 . S
C459 C458 1.371 . S
C459 H473 0.931 . S
C460 C456 1.328 . S
C460 C461 1.433 . S
C460 H474 0.931 . S
C461 C457 1.323 . S
C461 C460 1.433 . S
C461 H475 0.933 . S
C462 Dy440 2.738 . S
C462 O445 1.255 . S
C462 O446 1.249 . S
C462 C456 1.516 . S
C463 O447 1.254 . S
C463 O448 1.257 . S
C464 O449 1.266 . S
C464 O450 1.236 . S
C465 C468 1.344 . S
C465 C469 1.328 . S
C465 C471 1.516 . S
C466 C467 1.304 . S
C466 C470 1.323 . S
C467 C466 1.304 . S
C467 C468 1.371 . S
C467 H476 0.930 . S
C468 C465 1.344 . S
C468 C467 1.371 . S
C468 H477 0.931 . S
C469 C465 1.328 . S
C469 C470 1.433 . S
C469 H478 0.931 . S
C470 C466 1.323 . S
C470 C469 1.433 . S
C470 H479 0.933 . S
C471 Dy441 2.738 1_556 S
C471 O451 1.255 1_556 S
C471 O452 1.249 1_556 S
C471 C465 1.516 . S
H472 C458 0.930 . S
H473 C459 0.931 . S
H474 C460 0.931 . S
H475 C461 0.933 . S
H476 C467 0.930 . S
H477 C468 0.931 . S
H478 C469 0.931 . S
H479 C470 0.933 . S
H480 C488 0.950 . S
H481 C493 0.950 . S
H482 C490 0.950 . S
H483 C492 0.950 . S
H484 C494 0.950 . S
H485 C496 0.950 . S
H486 C498 0.950 . S
H487 C499 0.950 . S
C488 H480 0.950 . S
C488 C489 1.386 . S
C488 C490 1.391 . S
C489 C488 1.386 . S
C489 C493 1.393 . S
C490 H482 0.950 . S
C490 C488 1.391 . S
C490 C491 1.400 . S
C491 C490 1.400 . S
C491 C492 1.398 . S
C491 C497 1.491 . S
C492 H483 0.950 . S
C492 C491 1.398 . S
C492 C493 1.391 . S
C493 H481 0.950 . S
C493 C489 1.393 . S
C493 C492 1.391 . S
C494 H484 0.950 . S
C494 C495 1.386 . S
C494 C496 1.391 . S
C495 C494 1.386 . S
C495 C499 1.393 . S
C496 H485 0.950 . S
C496 C494 1.391 . S
C496 C497 1.400 . S
C497 C491 1.491 . S
C497 C496 1.400 . S
C497 C498 1.398 . S
C498 H486 0.950 . S
C498 C497 1.398 . S
C498 C499 1.391 . S
C499 H487 0.950 . S
C499 C495 1.393 . S
C499 C498 1.391 . S
H500 C508 0.950 . S
H501 C513 0.950 . S
H502 C510 0.950 . S
H503 C512 0.950 . S
H504 C514 0.950 . S
H505 C516 0.950 . S
H506 C518 0.950 . S
H507 C519 0.950 . S
C508 H500 0.950 . S
C508 C509 1.386 . S
C508 C510 1.391 . S
C509 C508 1.386 . S
C509 C513 1.393 . S
C510 H502 0.950 . S
C510 C508 1.391 . S
C510 C511 1.400 . S
C511 C510 1.400 . S
C511 C512 1.398 . S
C511 C517 1.491 . S
C512 H503 0.950 . S
C512 C511 1.398 . S
C512 C513 1.391 . S
C513 H501 0.950 . S
C513 C509 1.393 . S
C513 C512 1.391 . S
C514 H504 0.950 . S
C514 C515 1.386 . S
C514 C516 1.391 . S
C515 C514 1.386 . S
C515 C519 1.393 . S
C516 H505 0.950 . S
C516 C514 1.391 . S
C516 C517 1.400 . S
C517 C511 1.491 . S
C517 C516 1.400 . S
C517 C518 1.398 . S
C518 H506 0.950 . S
C518 C517 1.398 . S
C518 C519 1.391 . S
C519 H507 0.950 . S
C519 C515 1.393 . S
C519 C518 1.391 . S
H520 C528 0.950 . S
H521 C533 0.950 . S
H522 C530 0.950 . S
H523 C532 0.950 . S
H524 C534 0.950 . S
H525 C536 0.950 . S
H526 C538 0.950 . S
H527 C539 0.950 . S
C528 H520 0.950 . S
C528 C529 1.386 . S
C528 C530 1.391 . S
C529 C528 1.386 . S
C529 C533 1.393 . S
C530 H522 0.950 . S
C530 C528 1.391 . S
C530 C531 1.400 . S
C531 C530 1.400 . S
C531 C532 1.398 . S
C531 C537 1.491 . S
C532 H523 0.950 . S
C532 C531 1.398 . S
C532 C533 1.391 . S
C533 H521 0.950 . S
C533 C529 1.393 . S
C533 C532 1.391 . S
C534 H524 0.950 . S
C534 C535 1.386 . S
C534 C536 1.391 . S
C535 C534 1.386 . S
C535 C539 1.393 . S
C536 H525 0.950 . S
C536 C534 1.391 . S
C536 C537 1.400 . S
C537 C531 1.491 . S
C537 C536 1.400 . S
C537 C538 1.398 . S
C538 H526 0.950 . S
C538 C537 1.398 . S
C538 C539 1.391 . S
C539 H527 0.950 . S
C539 C535 1.393 . S
C539 C538 1.391 . S
H540 C548 0.950 . S
H541 C553 0.950 . S
H542 C550 0.950 . S
H543 C552 0.950 . S
H544 C554 0.950 . S
H545 C556 0.950 . S
H546 C558 0.950 . S
H547 C559 0.950 . S
C548 H540 0.950 . S
C548 C549 1.386 . S
C548 C550 1.391 . S
C549 C548 1.386 . S
C549 C553 1.393 . S
C550 H542 0.950 . S
C550 C548 1.391 . S
C550 C551 1.400 . S
C551 C550 1.400 . S
C551 C552 1.398 . S
C551 C557 1.491 . S
C552 H543 0.950 . S
C552 C551 1.398 . S
C552 C553 1.391 . S
C553 H541 0.950 . S
C553 C549 1.393 . S
C553 C552 1.391 . S
C554 H544 0.950 . S
C554 C555 1.386 . S
C554 C556 1.391 . S
C555 C554 1.386 . S
C555 C559 1.393 . S
C556 H545 0.950 . S
C556 C554 1.391 . S
C556 C557 1.400 . S
C557 C551 1.491 . S
C557 C556 1.400 . S
C557 C558 1.398 . S
C558 H546 0.950 . S
C558 C557 1.398 . S
C558 C559 1.391 . S
C559 H547 0.950 . S
C559 C555 1.393 . S
C559 C558 1.391 . S
H560 C568 0.950 . S
H561 C573 0.950 . S
H562 C570 0.950 . S
H563 C572 0.950 . S
H564 C574 0.950 . S
H565 C576 0.950 . S
H566 C578 0.950 . S
H567 C579 0.950 . S
C568 H560 0.950 . S
C568 C569 1.386 . S
C568 C570 1.391 . S
C569 C568 1.386 . S
C569 C573 1.393 . S
C570 H562 0.950 . S
C570 C568 1.391 . S
C570 C571 1.400 . S
C571 C570 1.400 . S
C571 C572 1.398 . S
C571 C577 1.491 . S
C572 H563 0.950 . S
C572 C571 1.398 . S
C572 C573 1.391 . S
C573 H561 0.950 . S
C573 C569 1.393 . S
C573 C572 1.391 . S
C574 H564 0.950 . S
C574 C575 1.386 . S
C574 C576 1.391 . S
C575 C574 1.386 . S
C575 C579 1.393 . S
C576 H565 0.950 . S
C576 C574 1.391 . S
C576 C577 1.400 . S
C577 C571 1.491 . S
C577 C576 1.400 . S
C577 C578 1.398 . S
C578 H566 0.950 . S
C578 C577 1.398 . S
C578 C579 1.391 . S
C579 H567 0.950 . S
C579 C575 1.393 . S
C579 C578 1.391 . S
H580 C588 0.950 . S
H581 C593 0.950 . S
H582 C590 0.950 . S
H583 C592 0.950 . S
H584 C594 0.950 . S
H585 C596 0.950 . S
H586 C598 0.950 . S
H587 C599 0.950 . S
C588 H580 0.950 . S
C588 C589 1.386 . S
C588 C590 1.391 . S
C589 C588 1.386 . S
C589 C593 1.393 . S
C590 H582 0.950 . S
C590 C588 1.391 . S
C590 C591 1.400 . S
C591 C590 1.400 . S
C591 C592 1.398 . S
C591 C597 1.491 . S
C592 H583 0.950 . S
C592 C591 1.398 . S
C592 C593 1.391 . S
C593 H581 0.950 . S
C593 C589 1.393 . S
C593 C592 1.391 . S
C594 H584 0.950 . S
C594 C595 1.386 . S
C594 C596 1.391 . S
C595 C594 1.386 . S
C595 C599 1.393 . S
C596 H585 0.950 . S
C596 C594 1.391 . S
C596 C597 1.400 . S
C597 C591 1.491 . S
C597 C596 1.400 . S
C597 C598 1.398 . S
C598 H586 0.950 . S
C598 C597 1.398 . S
C598 C599 1.391 . S
C599 H587 0.950 . S
C599 C595 1.393 . S
C599 C598 1.391 . S
H600 C608 0.950 . S
H601 C613 0.950 . S
H602 C610 0.950 1_554 S
H603 C612 0.950 . S
H604 C614 0.950 . S
H605 C616 0.950 1_556 S
H606 C618 0.950 . S
H607 C619 0.950 . S
C608 H600 0.950 . S
C608 C609 1.386 . S
C608 C610 1.391 . S
C609 C608 1.386 . S
C609 C613 1.393 . S
C610 H602 0.950 1_556 S
C610 C608 1.391 . S
C610 C611 1.400 . S
C611 C610 1.400 . S
C611 C612 1.398 . S
C611 C617 1.491 1_556 S
C612 H603 0.950 . S
C612 C611 1.398 . S
C612 C613 1.391 . S
C613 H601 0.950 . S
C613 C609 1.393 . S
C613 C612 1.391 . S
C614 H604 0.950 . S
C614 C615 1.386 . S
C614 C616 1.391 . S
C615 C614 1.386 . S
C615 C619 1.393 . S
C616 H605 0.950 1_554 S
C616 C614 1.391 . S
C616 C617 1.400 . S
C617 C611 1.491 1_554 S
C617 C616 1.400 . S
C617 C618 1.398 . S
C618 H606 0.950 . S
C618 C617 1.398 . S
C618 C619 1.391 . S
C619 H607 0.950 . S
C619 C615 1.393 . S
C619 C618 1.391 . S
H620 C628 0.950 . S
H621 C633 0.950 . S
H622 C630 0.950 . S
H623 C632 0.950 . S
H624 C634 0.950 . S
H625 C636 0.950 . S
H626 C638 0.950 . S
H627 C639 0.950 . S
C628 H620 0.950 . S
C628 C629 1.386 . S
C628 C630 1.391 . S
C629 C628 1.386 . S
C629 C633 1.393 . S
C630 H622 0.950 . S
C630 C628 1.391 . S
C630 C631 1.400 . S
C631 C630 1.400 . S
C631 C632 1.398 . S
C631 C637 1.491 . S
C632 H623 0.950 . S
C632 C631 1.398 . S
C632 C633 1.391 . S
C633 H621 0.950 . S
C633 C629 1.393 . S
C633 C632 1.391 . S
C634 H624 0.950 . S
C634 C635 1.386 . S
C634 C636 1.391 . S
C635 C634 1.386 . S
C635 C639 1.393 . S
C636 H625 0.950 . S
C636 C634 1.391 . S
C636 C637 1.400 . S
C637 C631 1.491 . S
C637 C636 1.400 . S
C637 C638 1.398 . S
C638 H626 0.950 . S
C638 C637 1.398 . S
C638 C639 1.391 . S
C639 H627 0.950 . S
C639 C635 1.393 . S
C639 C638 1.391 . S
H640 C648 0.950 . S
H641 C653 0.950 . S
H642 C650 0.950 . S
H643 C652 0.950 . S
H644 C654 0.950 . S
H645 C656 0.950 . S
H646 C658 0.950 . S
H647 C659 0.950 . S
C648 H640 0.950 . S
C648 C649 1.386 . S
C648 C650 1.391 . S
C649 C648 1.386 . S
C649 C653 1.393 . S
C650 H642 0.950 . S
C650 C648 1.391 . S
C650 C651 1.400 . S
C651 C650 1.400 . S
C651 C652 1.398 . S
C651 C657 1.491 . S
C652 H643 0.950 . S
C652 C651 1.398 . S
C652 C653 1.391 . S
C653 H641 0.950 . S
C653 C649 1.393 . S
C653 C652 1.391 . S
C654 H644 0.950 . S
C654 C655 1.386 . S
C654 C656 1.391 . S
C655 C654 1.386 . S
C655 C659 1.393 . S
C656 H645 0.950 . S
C656 C654 1.391 . S
C656 C657 1.400 . S
C657 C651 1.491 . S
C657 C656 1.400 . S
C657 C658 1.398 . S
C658 H646 0.950 . S
C658 C657 1.398 . S
C658 C659 1.391 . S
C659 H647 0.950 . S
C659 C655 1.393 . S
C659 C658 1.391 . S
H660 C668 0.950 . S
H661 C673 0.950 . S
H662 C670 0.950 . S
H663 C672 0.950 . S
H664 C674 0.950 . S
H665 C676 0.950 . S
H666 C678 0.950 . S
H667 C679 0.950 . S
C668 H660 0.950 . S
C668 C669 1.386 . S
C668 C670 1.391 . S
C669 C668 1.386 . S
C669 C673 1.393 . S
C670 H662 0.950 . S
C670 C668 1.391 . S
C670 C671 1.400 . S
C671 C670 1.400 . S
C671 C672 1.398 . S
C671 C677 1.491 1_556 S
C672 H663 0.950 . S
C672 C671 1.398 . S
C672 C673 1.391 . S
C673 H661 0.950 . S
C673 C669 1.393 . S
C673 C672 1.391 . S
C674 H664 0.950 . S
C674 C675 1.386 . S
C674 C676 1.391 . S
C675 C674 1.386 . S
C675 C679 1.393 . S
C676 H665 0.950 . S
C676 C674 1.391 . S
C676 C677 1.400 . S
C677 C671 1.491 1_554 S
C677 C676 1.400 . S
C677 C678 1.398 . S
C678 H666 0.950 . S
C678 C677 1.398 . S
C678 C679 1.391 . S
C679 H667 0.950 . S
C679 C675 1.393 . S
C679 C678 1.391 . S
H680 C688 0.950 . S
H681 C693 0.950 . S
H682 C690 0.950 . S
H683 C692 0.950 . S
H684 C694 0.950 . S
H685 C696 0.950 . S
H686 C698 0.950 . S
H687 C699 0.950 . S
C688 H680 0.950 . S
C688 C689 1.386 . S
C688 C690 1.391 . S
C689 C688 1.386 . S
C689 C693 1.393 . S
C690 H682 0.950 . S
C690 C688 1.391 . S
C690 C691 1.400 . S
C691 C690 1.400 . S
C691 C692 1.398 . S
C691 C697 1.491 . S
C692 H683 0.950 . S
C692 C691 1.398 . S
C692 C693 1.391 . S
C693 H681 0.950 . S
C693 C689 1.393 . S
C693 C692 1.391 . S
C694 H684 0.950 . S
C694 C695 1.386 . S
C694 C696 1.391 . S
C695 C694 1.386 . S
C695 C699 1.393 . S
C696 H685 0.950 . S
C696 C694 1.391 . S
C696 C697 1.400 . S
C697 C691 1.491 . S
C697 C696 1.400 . S
C697 C698 1.398 . S
C698 H686 0.950 . S
C698 C697 1.398 . S
C698 C699 1.391 . S
C699 H687 0.950 . S
C699 C695 1.393 . S
C699 C698 1.391 . S
H700 C708 0.950 . S
H701 C713 0.950 . S
H702 C710 0.950 . S
H703 C712 0.950 . S
H704 C714 0.950 . S
H705 C716 0.950 . S
H706 C718 0.950 . S
H707 C719 0.950 . S
C708 H700 0.950 . S
C708 C709 1.386 . S
C708 C710 1.391 . S
C709 C708 1.386 . S
C709 C713 1.393 . S
C710 H702 0.950 . S
C710 C708 1.391 . S
C710 C711 1.400 . S
C711 C710 1.400 . S
C711 C712 1.398 . S
C711 C717 1.491 . S
C712 H703 0.950 . S
C712 C711 1.398 . S
C712 C713 1.391 . S
C713 H701 0.950 . S
C713 C709 1.393 . S
C713 C712 1.391 . S
C714 H704 0.950 . S
C714 C715 1.386 . S
C714 C716 1.391 . S
C715 C714 1.386 . S
C715 C719 1.393 . S
C716 H705 0.950 . S
C716 C714 1.391 . S
C716 C717 1.400 . S
C717 C711 1.491 . S
C717 C716 1.400 . S
C717 C718 1.398 . S
C718 H706 0.950 . S
C718 C717 1.398 . S
C718 C719 1.391 . S
C719 H707 0.950 . S
C719 C715 1.393 . S
C719 C718 1.391 . S
H720 C728 0.950 . S
H721 C733 0.950 . S
H722 C730 0.950 . S
H723 C732 0.950 . S
H724 C734 0.950 . S
H725 C736 0.950 . S
H726 C738 0.950 . S
H727 C739 0.950 . S
C728 H720 0.950 . S
C728 C729 1.386 . S
C728 C730 1.391 . S
C729 C728 1.386 . S
C729 C733 1.393 . S
C730 H722 0.950 . S
C730 C728 1.391 . S
C730 C731 1.400 . S
C731 C730 1.400 . S
C731 C732 1.398 . S
C731 C737 1.491 1_566 S
C732 H723 0.950 . S
C732 C731 1.398 . S
C732 C733 1.391 . S
C733 H721 0.950 . S
C733 C729 1.393 . S
C733 C732 1.391 . S
C734 H724 0.950 . S
C734 C735 1.386 . S
C734 C736 1.391 . S
C735 C734 1.386 . S
C735 C739 1.393 . S
C736 H725 0.950 . S
C736 C734 1.391 . S
C736 C737 1.400 . S
C737 C731 1.491 1_544 S
C737 C736 1.400 . S
C737 C738 1.398 . S
C738 H726 0.950 . S
C738 C737 1.398 . S
C738 C739 1.391 . S
C739 H727 0.950 . S
C739 C735 1.393 . S
C739 C738 1.391 . S
H740 C748 0.950 . S
H741 C753 0.950 . S
H742 C750 0.950 . S
H743 C752 0.950 . S
H744 C754 0.950 . S
H745 C756 0.950 . S
H746 C758 0.950 . S
H747 C759 0.950 . S
C748 H740 0.950 . S
C748 C749 1.386 . S
C748 C750 1.391 . S
C749 C748 1.386 . S
C749 C753 1.393 . S
C750 H742 0.950 . S
C750 C748 1.391 . S
C750 C751 1.400 . S
C751 C750 1.400 . S
C751 C752 1.398 . S
C751 C757 1.491 . S
C752 H743 0.950 . S
C752 C751 1.398 . S
C752 C753 1.391 . S
C753 H741 0.950 . S
C753 C749 1.393 . S
C753 C752 1.391 . S
C754 H744 0.950 . S
C754 C755 1.386 . S
C754 C756 1.391 . S
C755 C754 1.386 . S
C755 C759 1.393 . S
C756 H745 0.950 . S
C756 C754 1.391 . S
C756 C757 1.400 . S
C757 C751 1.491 . S
C757 C756 1.400 . S
C757 C758 1.398 . S
C758 H746 0.950 . S
C758 C757 1.398 . S
C758 C759 1.391 . S
C759 H747 0.950 . S
C759 C755 1.393 . S
C759 C758 1.391 . S
H760 C768 0.950 . S
H761 C773 0.954 . S
H762 C770 0.950 . S
H763 C772 0.950 . S
H764 C774 0.950 . S
H765 C776 0.950 . S
H766 C778 0.950 . S
H767 C779 0.954 . S
C768 H760 0.950 . S
C768 C769 1.386 . S
C768 C770 1.391 . S
C769 C768 1.386 . S
C769 C773 1.393 . S
C770 H762 0.950 . S
C770 C768 1.391 . S
C770 C771 1.400 . S
C771 C770 1.400 . S
C771 C772 1.398 1_455 S
C771 C777 1.491 1_455 S
C772 H763 0.950 . S
C772 C771 1.398 1_655 S
C772 C773 1.391 1_655 S
C773 H761 0.954 . S
C773 C769 1.393 . S
C773 C772 1.391 1_455 S
C774 H764 0.950 . S
C774 C775 1.386 . S
C774 C776 1.391 . S
C775 C774 1.386 . S
C775 C779 1.393 . S
C776 H765 0.950 . S
C776 C774 1.391 . S
C776 C777 1.400 . S
C777 C771 1.491 1_655 S
C777 C776 1.400 . S
C777 C778 1.398 1_655 S
C778 H766 0.950 . S
C778 C777 1.398 1_455 S
C778 C779 1.391 1_455 S
C779 H767 0.954 . S
C779 C775 1.393 . S
C779 C778 1.391 1_655 S
H780 C788 0.950 . S
H781 C793 0.950 . S
H782 C790 0.950 . S
H783 C792 0.950 1_545 S
H784 C794 0.950 . S
H785 C796 0.950 . S
H786 C798 0.950 1_565 S
H787 C799 0.950 . S
C788 H780 0.950 . S
C788 C789 1.386 . S
C788 C790 1.391 . S
C789 C788 1.386 . S
C789 C793 1.393 . S
C790 H782 0.950 . S
C790 C788 1.391 . S
C790 C791 1.400 . S
C791 C790 1.400 . S
C791 C792 1.398 . S
C791 C797 1.491 1_564 S
C792 H783 0.950 1_565 S
C792 C791 1.398 . S
C792 C793 1.391 . S
C793 H781 0.950 . S
C793 C789 1.393 . S
C793 C792 1.391 . S
C794 H784 0.950 . S
C794 C795 1.386 . S
C794 C796 1.391 . S
C795 C794 1.386 . S
C795 C799 1.393 . S
C796 H785 0.950 . S
C796 C794 1.391 . S
C796 C797 1.400 . S
C797 C791 1.491 1_546 S
C797 C796 1.400 . S
C797 C798 1.398 . S
C798 H786 0.950 1_545 S
C798 C797 1.398 . S
C798 C799 1.391 . S
C799 H787 0.950 . S
C799 C795 1.393 . S
C799 C798 1.391 . S
H800 C808 0.950 . S
H801 C813 0.950 . S
H802 C810 0.950 . S
H803 C812 0.950 . S
H804 C814 0.950 . S
H805 C816 0.950 . S
H806 C818 0.950 . S
H807 C819 0.950 . S
C808 H800 0.950 . S
C808 C809 1.386 . S
C808 C810 1.391 . S
C809 C808 1.386 . S
C809 C813 1.393 . S
C810 H802 0.950 . S
C810 C808 1.391 . S
C810 C811 1.400 . S
C811 C810 1.400 . S
C811 C812 1.398 . S
C811 C817 1.491 . S
C812 H803 0.950 . S
C812 C811 1.398 . S
C812 C813 1.391 . S
C813 H801 0.950 . S
C813 C809 1.393 . S
C813 C812 1.391 . S
C814 H804 0.950 . S
C814 C815 1.386 . S
C814 C816 1.391 . S
C815 C814 1.386 . S
C815 C819 1.393 . S
C816 H805 0.950 . S
C816 C814 1.391 . S
C816 C817 1.400 . S
C817 C811 1.491 . S
C817 C816 1.400 . S
C817 C818 1.398 . S
C818 H806 0.950 . S
C818 C817 1.398 . S
C818 C819 1.391 . S
C819 H807 0.950 . S
C819 C815 1.393 . S
C819 C818 1.391 . S
H820 C828 0.950 . S
H821 C833 0.950 . S
H822 C830 0.950 . S
H823 C832 0.950 . S
H824 C834 0.950 . S
H825 C836 0.950 . S
H826 C838 0.950 . S
H827 C839 0.950 . S
C828 H820 0.950 . S
C828 C829 1.386 . S
C828 C830 1.391 1_455 S
C829 C828 1.386 . S
C829 C833 1.393 . S
C830 H822 0.950 . S
C830 C828 1.391 1_655 S
C830 C831 1.400 1_655 S
C831 C830 1.400 1_455 S
C831 C832 1.398 . S
C831 C837 1.491 1_455 S
C832 H823 0.950 . S
C832 C831 1.398 . S
C832 C833 1.391 . S
C833 H821 0.950 . S
C833 C829 1.393 . S
C833 C832 1.391 . S
C834 H824 0.950 . S
C834 C835 1.386 . S
C834 C836 1.391 1_655 S
C835 C834 1.386 . S
C835 C839 1.393 . S
C836 H825 0.950 . S
C836 C834 1.391 1_455 S
C836 C837 1.400 1_455 S
C837 C831 1.491 1_655 S
C837 C836 1.400 1_655 S
C837 C838 1.398 . S
C838 H826 0.950 . S
C838 C837 1.398 . S
C838 C839 1.391 . S
C839 H827 0.950 . S
C839 C835 1.393 . S
C839 C838 1.391 . S
H840 C848 0.950 . S
H841 C853 0.950 . S
H842 C850 0.950 . S
H843 C852 0.950 1_565 S
H844 C854 0.950 . S
H845 C856 0.950 . S
H846 C858 0.950 1_545 S
H847 C859 0.950 . S
C848 H840 0.950 . S
C848 C849 1.386 . S
C848 C850 1.391 . S
C849 C848 1.386 . S
C849 C853 1.393 . S
C850 H842 0.950 . S
C850 C848 1.391 . S
C850 C851 1.400 . S
C851 C850 1.400 . S
C851 C852 1.398 . S
C851 C857 1.491 1_545 S
C852 H843 0.950 1_545 S
C852 C851 1.398 . S
C852 C853 1.391 . S
C853 H841 0.950 . S
C853 C849 1.393 . S
C853 C852 1.391 . S
C854 H844 0.950 . S
C854 C855 1.386 . S
C854 C856 1.391 . S
C855 C854 1.386 . S
C855 C859 1.393 . S
C856 H845 0.950 . S
C856 C854 1.391 . S
C856 C857 1.400 . S
C857 C851 1.491 1_565 S
C857 C856 1.400 . S
C857 C858 1.398 . S
C858 H846 0.950 1_565 S
C858 C857 1.398 . S
C858 C859 1.391 . S
C859 H847 0.950 . S
C859 C855 1.393 . S
C859 C858 1.391 . S
H860 C868 0.950 . S
H861 C873 0.950 . S
H862 C870 0.950 . S
H863 C872 0.950 . S
H864 C874 0.950 . S
H865 C876 0.950 . S
H866 C878 0.950 . S
H867 C879 0.950 . S
C868 H860 0.950 . S
C868 C869 1.386 . S
C868 C870 1.391 . S
C869 C868 1.386 . S
C869 C873 1.393 . S
C870 H862 0.950 . S
C870 C868 1.391 . S
C870 C871 1.400 . S
C871 C870 1.400 . S
C871 C872 1.398 . S
C871 C877 1.491 . S
C872 H863 0.950 . S
C872 C871 1.398 . S
C872 C873 1.391 . S
C873 H861 0.950 . S
C873 C869 1.393 . S
C873 C872 1.391 . S
C874 H864 0.950 . S
C874 C875 1.386 . S
C874 C876 1.391 . S
C875 C874 1.386 . S
C875 C879 1.393 . S
C876 H865 0.950 . S
C876 C874 1.391 . S
C876 C877 1.400 . S
C877 C871 1.491 . S
C877 C876 1.400 . S
C877 C878 1.398 . S
C878 H866 0.950 . S
C878 C877 1.398 . S
C878 C879 1.391 . S
C879 H867 0.950 . S
C879 C875 1.393 . S
C879 C878 1.391 . S
H880 C888 0.950 . S
H881 C893 0.950 . S
H882 C890 0.950 1_455 S
H883 C892 0.950 . S
H884 C894 0.950 . S
H885 C896 0.950 1_655 S
H886 C898 0.950 . S
H887 C899 0.950 . S
C888 H880 0.950 . S
C888 C889 1.386 . S
C888 C890 1.391 . S
C889 C888 1.386 . S
C889 C893 1.393 . S
C890 H882 0.950 1_655 S
C890 C888 1.391 . S
C890 C891 1.400 . S
C891 C890 1.400 . S
C891 C892 1.398 . S
C891 C897 1.491 1_655 S
C892 H883 0.950 . S
C892 C891 1.398 . S
C892 C893 1.391 . S
C893 H881 0.950 . S
C893 C889 1.393 . S
C893 C892 1.391 . S
C894 H884 0.950 . S
C894 C895 1.386 . S
C894 C896 1.391 . S
C895 C894 1.386 . S
C895 C899 1.393 . S
C896 H885 0.950 1_455 S
C896 C894 1.391 . S
C896 C897 1.400 . S
C897 C891 1.491 1_455 S
C897 C896 1.400 . S
C897 C898 1.398 . S
C898 H886 0.950 . S
C898 C897 1.398 . S
C898 C899 1.391 . S
C899 H887 0.950 . S
C899 C895 1.393 . S
C899 C898 1.391 . S
H900 C908 0.950 . S
H901 C913 0.950 . S
H902 C910 0.950 1_655 S
H903 C912 0.950 . S
H904 C914 0.950 . S
H905 C916 0.950 1_455 S
H906 C918 0.950 . S
H907 C919 0.950 . S
C908 H900 0.950 . S
C908 C909 1.386 . S
C908 C910 1.391 . S
C909 C908 1.386 . S
C909 C913 1.393 . S
C910 H902 0.950 1_455 S
C910 C908 1.391 . S
C910 C911 1.400 . S
C911 C910 1.400 . S
C911 C912 1.398 . S
C911 C917 1.491 1_455 S
C912 H903 0.950 . S
C912 C911 1.398 . S
C912 C913 1.391 . S
C913 H901 0.950 . S
C913 C909 1.393 . S
C913 C912 1.391 . S
C914 H904 0.950 . S
C914 C915 1.386 . S
C914 C916 1.391 . S
C915 C914 1.386 . S
C915 C919 1.393 . S
C916 H905 0.950 1_655 S
C916 C914 1.391 . S
C916 C917 1.400 . S
C917 C911 1.491 1_655 S
C917 C916 1.400 . S
C917 C918 1.398 . S
C918 H906 0.950 . S
C918 C917 1.398 . S
C918 C919 1.391 . S
C919 H907 0.950 . S
C919 C915 1.393 . S
C919 C918 1.391 . S
H920 C928 0.950 . S
H921 C933 0.950 . S
H922 C930 0.950 . S
H923 C932 0.950 1_545 S
H924 C934 0.950 . S
H925 C936 0.950 . S
H926 C938 0.950 1_565 S
H927 C939 0.950 . S
C928 H920 0.950 . S
C928 C929 1.386 . S
C928 C930 1.391 . S
C929 C928 1.386 . S
C929 C933 1.393 . S
C930 H922 0.950 . S
C930 C928 1.391 . S
C930 C931 1.400 . S
C931 C930 1.400 . S
C931 C932 1.398 . S
C931 C937 1.491 1_565 S
C932 H923 0.950 1_565 S
C932 C931 1.398 . S
C932 C933 1.391 . S
C933 H921 0.950 . S
C933 C929 1.393 . S
C933 C932 1.391 . S
C934 H924 0.950 . S
C934 C935 1.386 . S
C934 C936 1.391 . S
C935 C934 1.386 . S
C935 C939 1.393 . S
C936 H925 0.950 . S
C936 C934 1.391 . S
C936 C937 1.400 . S
C937 C931 1.491 1_545 S
C937 C936 1.400 . S
C937 C938 1.398 . S
C938 H926 0.950 1_545 S
C938 C937 1.398 . S
C938 C939 1.391 . S
C939 H927 0.950 . S
C939 C935 1.393 . S
C939 C938 1.391 . S
H940 C948 0.950 . S
H941 C953 0.950 . S
H942 C950 0.950 . S
H943 C952 0.950 . S
H944 C954 0.950 . S
H945 C956 0.950 . S
H946 C958 0.950 . S
H947 C959 0.950 . S
C948 H940 0.950 . S
C948 C949 1.386 . S
C948 C950 1.391 . S
C949 C948 1.386 . S
C949 C953 1.393 . S
C950 H942 0.950 . S
C950 C948 1.391 . S
C950 C951 1.400 . S
C951 C950 1.400 . S
C951 C952 1.398 . S
C951 C957 1.491 . S
C952 H943 0.950 . S
C952 C951 1.398 . S
C952 C953 1.391 . S
C953 H941 0.950 . S
C953 C949 1.393 . S
C953 C952 1.391 . S
C954 H944 0.950 . S
C954 C955 1.386 . S
C954 C956 1.391 . S
C955 C954 1.386 . S
C955 C959 1.393 . S
C956 H945 0.950 . S
C956 C954 1.391 . S
C956 C957 1.400 . S
C957 C951 1.491 . S
C957 C956 1.400 . S
C957 C958 1.398 . S
C958 H946 0.950 . S
C958 C957 1.398 . S
C958 C959 1.391 . S
C959 H947 0.950 . S
C959 C955 1.393 . S
C959 C958 1.391 . S
H960 C968 0.950 . S
H961 C973 0.950 . S
H962 C970 0.950 . S
H963 C972 0.950 . S
H964 C974 0.950 . S
H965 C976 0.950 . S
H966 C978 0.950 . S
H967 C979 0.950 . S
C968 H960 0.950 . S
C968 C969 1.386 . S
C968 C970 1.391 . S
C969 C968 1.386 . S
C969 C973 1.393 . S
C970 H962 0.950 . S
C970 C968 1.391 . S
C970 C971 1.400 . S
C971 C970 1.400 . S
C971 C972 1.398 . S
C971 C977 1.491 1_565 S
C972 H963 0.950 . S
C972 C971 1.398 . S
C972 C973 1.391 . S
C973 H961 0.950 . S
C973 C969 1.393 . S
C973 C972 1.391 . S
C974 H964 0.950 . S
C974 C975 1.386 . S
C974 C976 1.391 . S
C975 C974 1.386 . S
C975 C979 1.393 . S
C976 H965 0.950 . S
C976 C974 1.391 . S
C976 C977 1.400 . S
C977 C971 1.491 1_545 S
C977 C976 1.400 . S
C977 C978 1.398 . S
C978 H966 0.950 . S
C978 C977 1.398 . S
C978 C979 1.391 . S
C979 H967 0.950 . S
C979 C975 1.393 . S
C979 C978 1.391 . S
H980 C988 0.950 . S
H981 C993 0.950 . S
H982 C990 0.950 . S
H983 C992 0.950 . S
H984 C994 0.950 . S
H985 C996 0.950 . S
H986 C998 0.950 . S
H987 C999 0.950 . S
C988 H980 0.950 . S
C988 C989 1.386 . S
C988 C990 1.391 . S
C989 C988 1.386 . S
C989 C993 1.393 . S
C990 H982 0.950 . S
C990 C988 1.391 . S
C990 C991 1.400 . S
C991 C990 1.400 . S
C991 C992 1.398 . S
C991 C997 1.491 . S
C992 H983 0.950 . S
C992 C991 1.398 . S
C992 C993 1.391 . S
C993 H981 0.950 . S
C993 C989 1.393 . S
C993 C992 1.391 . S
C994 H984 0.950 . S
C994 C995 1.386 . S
C994 C996 1.391 . S
C995 C994 1.386 . S
C995 C999 1.393 . S
C996 H985 0.950 . S
C996 C994 1.391 . S
C996 C997 1.400 . S
C997 C991 1.491 . S
C997 C996 1.400 . S
C997 C998 1.398 . S
C998 H986 0.950 . S
C998 C997 1.398 . S
C998 C999 1.391 . S
C999 H987 0.950 . S
C999 C995 1.393 . S
C999 C998 1.391 . S
H1000 C1008 0.950 . S
H1001 C1013 0.950 . S
H1002 C1010 0.950 1_455 S
H1003 C1012 0.950 . S
H1004 C1014 0.950 . S
H1005 C1016 0.950 1_655 S
H1006 C1018 0.950 . S
H1007 C1019 0.950 . S
C1008 H1000 0.950 . S
C1008 C1009 1.386 . S
C1008 C1010 1.391 . S
C1009 C1008 1.386 . S
C1009 C1013 1.393 . S
C1010 H1002 0.950 1_655 S
C1010 C1008 1.391 . S
C1010 C1011 1.400 . S
C1011 C1010 1.400 . S
C1011 C1012 1.398 . S
C1011 C1017 1.491 1_655 S
C1012 H1003 0.950 . S
C1012 C1011 1.398 . S
C1012 C1013 1.391 . S
C1013 H1001 0.950 . S
C1013 C1009 1.393 . S
C1013 C1012 1.391 . S
C1014 H1004 0.950 . S
C1014 C1015 1.386 . S
C1014 C1016 1.391 . S
C1015 C1014 1.386 . S
C1015 C1019 1.393 . S
C1016 H1005 0.950 1_455 S
C1016 C1014 1.391 . S
C1016 C1017 1.400 . S
C1017 C1011 1.491 1_455 S
C1017 C1016 1.400 . S
C1017 C1018 1.398 . S
C1018 H1006 0.950 . S
C1018 C1017 1.398 . S
C1018 C1019 1.391 . S
C1019 H1007 0.950 . S
C1019 C1015 1.393 . S
C1019 C1018 1.391 . S
H1020 C1028 0.950 . S
H1021 C1033 0.950 . S
H1022 C1030 0.950 1_565 S
H1023 C1032 0.950 . S
H1024 C1034 0.950 . S
H1025 C1036 0.950 1_545 S
H1026 C1038 0.950 . S
H1027 C1039 0.950 . S
C1028 H1020 0.950 . S
C1028 C1029 1.386 . S
C1028 C1030 1.391 . S
C1029 C1028 1.386 . S
C1029 C1033 1.393 . S
C1030 H1022 0.950 1_545 S
C1030 C1028 1.391 . S
C1030 C1031 1.400 . S
C1031 C1030 1.400 . S
C1031 C1032 1.398 . S
C1031 C1037 1.491 1_545 S
C1032 H1023 0.950 . S
C1032 C1031 1.398 . S
C1032 C1033 1.391 . S
C1033 H1021 0.950 . S
C1033 C1029 1.393 . S
C1033 C1032 1.391 . S
C1034 H1024 0.950 . S
C1034 C1035 1.386 . S
C1034 C1036 1.391 . S
C1035 C1034 1.386 . S
C1035 C1039 1.393 . S
C1036 H1025 0.950 1_565 S
C1036 C1034 1.391 . S
C1036 C1037 1.400 . S
C1037 C1031 1.491 1_565 S
C1037 C1036 1.400 . S
C1037 C1038 1.398 . S
C1038 H1026 0.950 . S
C1038 C1037 1.398 . S
C1038 C1039 1.391 . S
C1039 H1027 0.950 . S
C1039 C1035 1.393 . S
C1039 C1038 1.391 . S
H1040 C1048 0.950 . S
H1041 C1053 0.950 . S
H1042 C1050 0.950 . S
H1043 C1052 0.950 . S
H1044 C1054 0.950 . S
H1045 C1056 0.950 . S
H1046 C1058 0.950 . S
H1047 C1059 0.950 . S
C1048 H1040 0.950 . S
C1048 C1049 1.386 . S
C1048 C1050 1.391 . S
C1049 C1048 1.386 . S
C1049 C1053 1.393 . S
C1050 H1042 0.950 . S
C1050 C1048 1.391 . S
C1050 C1051 1.400 . S
C1051 C1050 1.400 . S
C1051 C1052 1.398 . S
C1051 C1057 1.491 . S
C1052 H1043 0.950 . S
C1052 C1051 1.398 . S
C1052 C1053 1.391 . S
C1053 H1041 0.950 . S
C1053 C1049 1.393 . S
C1053 C1052 1.391 . S
C1054 H1044 0.950 . S
C1054 C1055 1.386 . S
C1054 C1056 1.391 . S
C1055 C1054 1.386 . S
C1055 C1059 1.393 . S
C1056 H1045 0.950 . S
C1056 C1054 1.391 . S
C1056 C1057 1.400 . S
C1057 C1051 1.491 . S
C1057 C1056 1.400 . S
C1057 C1058 1.398 . S
C1058 H1046 0.950 . S
C1058 C1057 1.398 . S
C1058 C1059 1.391 . S
C1059 H1047 0.950 . S
C1059 C1055 1.393 . S
C1059 C1058 1.391 . S
H1060 C1068 0.950 . S
H1061 C1073 0.950 . S
H1062 C1070 0.950 . S
H1063 C1072 0.950 . S
H1064 C1074 0.950 . S
H1065 C1076 0.950 . S
H1066 C1078 0.950 . S
H1067 C1079 0.950 . S
C1068 H1060 0.950 . S
C1068 C1069 1.386 . S
C1068 C1070 1.391 . S
C1069 C1068 1.386 . S
C1069 C1073 1.393 . S
C1070 H1062 0.950 . S
C1070 C1068 1.391 . S
C1070 C1071 1.400 . S
C1071 C1070 1.400 . S
C1071 C1072 1.398 . S
C1071 C1077 1.491 1_455 S
C1072 H1063 0.950 . S
C1072 C1071 1.398 . S
C1072 C1073 1.391 . S
C1073 H1061 0.950 . S
C1073 C1069 1.393 . S
C1073 C1072 1.391 . S
C1074 H1064 0.950 . S
C1074 C1075 1.386 . S
C1074 C1076 1.391 . S
C1075 C1074 1.386 . S
C1075 C1079 1.393 . S
C1076 H1065 0.950 . S
C1076 C1074 1.391 . S
C1076 C1077 1.400 . S
C1077 C1071 1.491 1_655 S
C1077 C1076 1.400 . S
C1077 C1078 1.398 . S
C1078 H1066 0.950 . S
C1078 C1077 1.398 . S
C1078 C1079 1.391 . S
C1079 H1067 0.950 . S
C1079 C1075 1.393 . S
C1079 C1078 1.391 . S
H1080 C1088 0.950 . S
H1081 C1093 0.950 . S
H1082 C1090 0.950 . S
H1083 C1092 0.950 . S
H1084 C1094 0.950 . S
H1085 C1096 0.950 . S
H1086 C1098 0.950 . S
H1087 C1099 0.950 . S
C1088 H1080 0.950 . S
C1088 C1089 1.386 . S
C1088 C1090 1.391 . S
C1089 C1088 1.386 . S
C1089 C1093 1.393 . S
C1090 H1082 0.950 . S
C1090 C1088 1.391 . S
C1090 C1091 1.400 . S
C1091 C1090 1.400 . S
C1091 C1092 1.398 . S
C1091 C1097 1.491 . S
C1092 H1083 0.950 . S
C1092 C1091 1.398 . S
C1092 C1093 1.391 . S
C1093 H1081 0.950 . S
C1093 C1089 1.393 . S
C1093 C1092 1.391 . S
C1094 H1084 0.950 . S
C1094 C1095 1.386 . S
C1094 C1096 1.391 . S
C1095 C1094 1.386 . S
C1095 C1099 1.393 . S
C1096 H1085 0.950 . S
C1096 C1094 1.391 . S
C1096 C1097 1.400 . S
C1097 C1091 1.491 . S
C1097 C1096 1.400 . S
C1097 C1098 1.398 . S
C1098 H1086 0.950 . S
C1098 C1097 1.398 . S
C1098 C1099 1.391 . S
C1099 H1087 0.950 . S
C1099 C1095 1.393 . S
C1099 C1098 1.391 . S
H1100 C1108 0.950 . S
H1101 C1113 0.950 . S
H1102 C1110 0.950 . S
H1103 C1112 0.950 . S
H1104 C1114 0.950 . S
H1105 C1116 0.950 . S
H1106 C1118 0.950 . S
H1107 C1119 0.950 . S
C1108 H1100 0.950 . S
C1108 C1109 1.386 . S
C1108 C1110 1.391 . S
C1109 C1108 1.386 . S
C1109 C1113 1.393 . S
C1110 H1102 0.950 . S
C1110 C1108 1.391 . S
C1110 C1111 1.400 . S
C1111 C1110 1.400 . S
C1111 C1112 1.398 . S
C1111 C1117 1.491 . S
C1112 H1103 0.950 . S
C1112 C1111 1.398 . S
C1112 C1113 1.391 . S
C1113 H1101 0.950 . S
C1113 C1109 1.393 . S
C1113 C1112 1.391 . S
C1114 H1104 0.950 . S
C1114 C1115 1.386 . S
C1114 C1116 1.391 . S
C1115 C1114 1.386 . S
C1115 C1119 1.393 . S
C1116 H1105 0.950 . S
C1116 C1114 1.391 . S
C1116 C1117 1.400 . S
C1117 C1111 1.491 . S
C1117 C1116 1.400 . S
C1117 C1118 1.398 . S
C1118 H1106 0.950 . S
C1118 C1117 1.398 . S
C1118 C1119 1.391 . S
C1119 H1107 0.950 . S
C1119 C1115 1.393 . S
C1119 C1118 1.391 . S
H1120 C1128 0.950 . S
H1121 C1133 0.950 . S
H1122 C1130 0.950 . S
H1123 C1132 0.950 . S
H1124 C1134 0.950 . S
H1125 C1136 0.950 . S
H1126 C1138 0.950 . S
H1127 C1139 0.950 . S
C1128 H1120 0.950 . S
C1128 C1129 1.386 . S
C1128 C1130 1.391 . S
C1129 C1128 1.386 . S
C1129 C1133 1.393 . S
C1130 H1122 0.950 . S
C1130 C1128 1.391 . S
C1130 C1131 1.400 . S
C1131 C1130 1.400 . S
C1131 C1132 1.398 . S
C1131 C1137 1.491 . S
C1132 H1123 0.950 . S
C1132 C1131 1.398 . S
C1132 C1133 1.391 . S
C1133 H1121 0.950 . S
C1133 C1129 1.393 . S
C1133 C1132 1.391 . S
C1134 H1124 0.950 . S
C1134 C1135 1.386 . S
C1134 C1136 1.391 . S
C1135 C1134 1.386 . S
C1135 C1139 1.393 . S
C1136 H1125 0.950 . S
C1136 C1134 1.391 . S
C1136 C1137 1.400 . S
C1137 C1131 1.491 . S
C1137 C1136 1.400 . S
C1137 C1138 1.398 . S
C1138 H1126 0.950 . S
C1138 C1137 1.398 . S
C1138 C1139 1.391 . S
C1139 H1127 0.950 . S
C1139 C1135 1.393 . S
C1139 C1138 1.391 . S
H1140 C1148 0.950 . S
H1141 C1153 0.950 . S
H1142 C1150 0.950 . S
H1143 C1152 0.950 . S
H1144 C1154 0.950 . S
H1145 C1156 0.950 . S
H1146 C1158 0.950 . S
H1147 C1159 0.950 . S
C1148 H1140 0.950 . S
C1148 C1149 1.386 . S
C1148 C1150 1.391 . S
C1149 C1148 1.386 . S
C1149 C1153 1.393 . S
C1150 H1142 0.950 . S
C1150 C1148 1.391 . S
C1150 C1151 1.400 . S
C1151 C1150 1.400 . S
C1151 C1152 1.398 . S
C1151 C1157 1.491 . S
C1152 H1143 0.950 . S
C1152 C1151 1.398 . S
C1152 C1153 1.391 . S
C1153 H1141 0.950 . S
C1153 C1149 1.393 . S
C1153 C1152 1.391 . S
C1154 H1144 0.950 . S
C1154 C1155 1.386 . S
C1154 C1156 1.391 . S
C1155 C1154 1.386 . S
C1155 C1159 1.393 . S
C1156 H1145 0.950 . S
C1156 C1154 1.391 . S
C1156 C1157 1.400 . S
C1157 C1151 1.491 . S
C1157 C1156 1.400 . S
C1157 C1158 1.398 . S
C1158 H1146 0.950 . S
C1158 C1157 1.398 . S
C1158 C1159 1.391 . S
C1159 H1147 0.950 . S
C1159 C1155 1.393 . S
C1159 C1158 1.391 . S
H1160 C1168 0.950 . S
H1161 C1173 0.950 . S
H1162 C1170 0.950 . S
H1163 C1172 0.950 . S
H1164 C1174 0.950 . S
H1165 C1176 0.950 . S
H1166 C1178 0.950 . S
H1167 C1179 0.950 . S
C1168 H1160 0.950 . S
C1168 C1169 1.386 . S
C1168 C1170 1.391 . S
C1169 C1168 1.386 . S
C1169 C1173 1.393 . S
C1170 H1162 0.950 . S
C1170 C1168 1.391 . S
C1170 C1171 1.400 . S
C1171 C1170 1.400 . S
C1171 C1172 1.398 . S
C1171 C1177 1.491 . S
C1172 H1163 0.950 . S
C1172 C1171 1.398 . S
C1172 C1173 1.391 . S
C1173 H1161 0.950 . S
C1173 C1169 1.393 . S
C1173 C1172 1.391 . S
C1174 H1164 0.950 . S
C1174 C1175 1.386 . S
C1174 C1176 1.391 . S
C1175 C1174 1.386 . S
C1175 C1179 1.393 . S
C1176 H1165 0.950 . S
C1176 C1174 1.391 . S
C1176 C1177 1.400 . S
C1177 C1171 1.491 . S
C1177 C1176 1.400 . S
C1177 C1178 1.398 . S
C1178 H1166 0.950 . S
C1178 C1177 1.398 . S
C1178 C1179 1.391 . S
C1179 H1167 0.950 . S
C1179 C1175 1.393 . S
C1179 C1178 1.391 . S
H1180 C1188 0.950 . S
H1181 C1193 0.950 . S
H1182 C1190 0.950 . S
H1183 C1192 0.950 . S
H1184 C1194 0.950 . S
H1185 C1196 0.950 . S
H1186 C1198 0.950 . S
H1187 C1199 0.950 . S
C1188 H1180 0.950 . S
C1188 C1189 1.386 . S
C1188 C1190 1.391 . S
C1189 C1188 1.386 . S
C1189 C1193 1.393 . S
C1190 H1182 0.950 . S
C1190 C1188 1.391 . S
C1190 C1191 1.400 . S
C1191 C1190 1.400 . S
C1191 C1192 1.398 . S
C1191 C1197 1.491 . S
C1192 H1183 0.950 . S
C1192 C1191 1.398 . S
C1192 C1193 1.391 . S
C1193 H1181 0.950 . S
C1193 C1189 1.393 . S
C1193 C1192 1.391 . S
C1194 H1184 0.950 . S
C1194 C1195 1.386 . S
C1194 C1196 1.391 . S
C1195 C1194 1.386 . S
C1195 C1199 1.393 . S
C1196 H1185 0.950 . S
C1196 C1194 1.391 . S
C1196 C1197 1.400 . S
C1197 C1191 1.491 . S
C1197 C1196 1.400 . S
C1197 C1198 1.398 . S
C1198 H1186 0.950 . S
C1198 C1197 1.398 . S
C1198 C1199 1.391 . S
C1199 H1187 0.950 . S
C1199 C1195 1.393 . S
C1199 C1198 1.391 . S
C489 C2 0.926 . S
C495 C322 0.934 . S
C509 C42 0.933 . S
C515 C362 0.924 . S
C529 C82 0.929 . S
C535 C402 0.918 . S
C549 C442 0.919 . S
C555 C122 0.914 . S
C569 C162 0.914 . S
C575 C242 0.917 . S
C589 C282 0.935 . S
C595 C202 0.927 . S
C609 C417 1.394 . S
C615 C17 1.382 . S
C629 C457 1.392 . S
C635 C57 1.396 . S
C649 C97 1.385 . S
C655 C257 1.389 . S
C669 C297 1.394 . S
C675 C137 1.395 . S
C689 C337 1.397 . S
C695 C177 1.390 . S
C709 C217 1.382 . S
C715 C377 1.398 . S
C729 C304 4.429 . S
C735 C24 4.432 . S
C749 C344 4.430 . S
C755 C64 4.432 . S
C769 C384 4.425 . S
C775 C104 4.431 . S
C789 C144 4.426 . S
C795 C424 4.429 . S
C809 C184 4.426 . S
C815 C464 4.429 . S
C829 C224 4.433 . S
C835 C264 4.427 . S
C849 C23 0.722 . S
C855 C143 0.679 . S
C869 C63 0.663 . S
C875 C183 0.711 . S
C889 C103 0.660 . S
C895 C223 0.698 . S
C909 C383 0.660 . S
C915 C263 0.704 . S
C929 C303 0.700 . S
C935 C423 0.660 . S
C949 C463 0.660 . S
C955 C343 0.689 . S
C969 C306 0.868 . S
C975 C26 0.865 . S
C989 C346 0.858 . S
C995 C66 0.887 . S
C1009 C106 0.858 . S
C1015 C386 0.888 . S
C1029 C426 0.859 . S
C1035 C146 0.896 . S
C1049 C466 0.877 . S
C1055 C186 0.911 . S
C1069 C226 0.909 . S
C1075 C266 0.898 . S
C1089 C13 4.565 . S
C1095 C413 4.569 . S
C1109 C53 4.566 . S
C1115 C453 4.568 1_556 S
C1129 C93 4.568 1_554 S
C1135 C253 4.566 . S
C1149 C133 4.568 . S
C1155 C293 4.566 . S
C1169 C173 4.567 . S
C1175 C333 4.566 1_556 S
C1189 C373 4.568 . S
C1195 C213 4.565 1_554 S
