# Generated by pormake.
# Topology snp, (6)-cn, num edge types: 1
# Building blocks:
#     Node 0, Type 0, BuildingBlock: KUMJIN_clean_sbu_1, # of connection points: 6
#     Node 1, Type 0, BuildingBlock: KUMJIN_clean_sbu_1, # of connection points: 6
#     Node 2, Type 0, BuildingBlock: KUMJIN_clean_sbu_1, # of connection points: 6
#     Node 3, Type 0, BuildingBlock: KUMJIN_clean_sbu_1, # of connection points: 6
#     Edge 4, Type (0, 0), BuildingBlock: XIVTED_clean_linker_0, # of connection points: 2
#     Edge 5, Type (0, 0), BuildingBlock: XIVTED_clean_linker_0, # of connection points: 2
#     Edge 6, Type (0, 0), BuildingBlock: XIVTED_clean_linker_0, # of connection points: 2
#     Edge 7, Type (0, 0), BuildingBlock: XIVTED_clean_linker_0, # of connection points: 2
#     Edge 8, Type (0, 0), BuildingBlock: XIVTED_clean_linker_0, # of connection points: 2
#     Edge 9, Type (0, 0), BuildingBlock: XIVTED_clean_linker_0, # of connection points: 2
#     Edge 10, Type (0, 0), BuildingBlock: XIVTED_clean_linker_0, # of connection points: 2
#     Edge 11, Type (0, 0), BuildingBlock: XIVTED_clean_linker_0, # of connection points: 2
#     Edge 12, Type (0, 0), BuildingBlock: XIVTED_clean_linker_0, # of connection points: 2
#     Edge 13, Type (0, 0), BuildingBlock: XIVTED_clean_linker_0, # of connection points: 2
#     Edge 14, Type (0, 0), BuildingBlock: XIVTED_clean_linker_0, # of connection points: 2
#     Edge 15, Type (0, 0), BuildingBlock: XIVTED_clean_linker_0, # of connection points: 2
# Relax obj value: 0.191
# Max RMSD: 0.244
# Mean RMSD: 0.244
data_MOF--net-snp--node1-KUMJIN_clean_sbu_1--edge1-XIVTED_clean_linker_0
_symmetry_space_group_name_H-M    P1
_symmetry_Int_Tables_number       1
_symmetry_cell_setting            triclinic
loop_
_symmetry_equiv_pos_as_xyz
'x, y, z'
_cell_length_a     24.657641
_cell_length_b     24.655001
_cell_length_c     33.658095
_cell_angle_alpha  110.2983
_cell_angle_beta   69.704941
_cell_angle_gamma 156.90818
loop_
_atom_site_label
_atom_site_type_symbol
_atom_site_fract_x
_atom_site_fract_y
_atom_site_fract_z
_atom_type_partial_charge
Eu0 Eu 0.93034 0.71659 0.12715 0.0
C1 C 0.5069 0.20827 0.27389 0.0
N2 N 0.55797 0.30495 0.27057 0.0
C3 C 0.45846 0.2667 0.34057 0.0
C4 C 0.43757 0.14381 0.31196 0.0
C5 C 0.53585 0.3358 0.30324 0.0
C6 C 0.41286 0.17359 0.34544 0.0
C7 C 0.45067 0.05617 0.23917 0.0
C8 C 0.51327 0.16492 0.23792 0.0
C9 C 0.3946 0.0021 0.27809 0.0
C10 C 0.39014 0.04763 0.31462 0.0
Eu11 Eu 0.70689 0.42992 0.20953 0.0
N12 N 0.5706 0.22145 0.201 0.0
C13 C 0.44045 0.0008 0.201 0.0
C14 C 0.55746 0.1651 0.16355 0.0
C15 C 0.48968 0.05234 0.16292 0.0
H16 H 0.57501 0.41108 0.30025 0.0
H17 H 0.47799 0.00705 0.13306 0.0
H18 H 0.16477 0.84482 0.1512 0.0
H19 H 0.88511 0.9108 0.18377 0.0
H20 H 0.59965 0.20633 0.13389 0.0
H21 H 0.39068 0.91539 0.20043 0.0
H22 H 0.81723 0.74837 0.14546 0.0
H23 H 0.435 0.28595 0.36587 0.0
H24 H 0.34986 0.92153 0.27998 0.0
H25 H 0.3448 0.00367 0.34432 0.0
H26 H 0.25672 0.94237 0.21853 0.0
H27 H 0.35676 0.12374 0.37489 0.0
H28 H 0.08714 0.11419 0.22679 0.0
N29 N 0.13019 0.90329 0.16452 0.0
C30 C 0.16664 -0.00865 0.18904 0.0
C31 C 0.2395 0.96379 0.20961 0.0
C32 C 0.24249 0.06943 0.22479 0.0
C33 C 0.1798 0.90189 0.17195 0.0
C34 C 0.26652 0.04395 0.23672 0.0
N35 N -0.00879 0.86978 0.16136 0.0
C36 C 0.91185 0.84257 0.16141 0.0
C37 C 0.13721 0.06912 0.21047 0.0
C38 C 0.10395 -0.01801 0.18452 0.0
C39 C 0.0635 0.04853 0.20773 0.0
C40 C 0.94906 0.93351 0.18349 0.0
H41 H 0.29751 0.07865 0.26793 0.0
H42 H 0.33636 0.21839 0.27773 0.0
H43 H 0.25575 0.22857 0.26242 0.0
O44 O 0.06304 0.84253 0.07162 0.0
O45 O 0.88622 0.72807 0.20112 0.0
O46 O 0.76492 0.57531 0.24734 0.0
O47 O 0.86099 0.69798 0.0862 0.0
O48 O 0.73289 0.5351 0.16522 0.0
O49 O 0.55431 0.35804 0.20398 0.0
O50 O 0.80053 0.44958 0.22914 0.0
O51 O 0.64498 0.34284 0.1399 0.0
O52 O 0.75089 0.49277 0.09828 0.0
O53 O 0.91002 0.62915 0.23545 0.0
O54 O 0.87624 0.58231 0.16131 0.0
O55 O -0.00968 0.67252 0.10173 0.0
C56 C 0.83869 0.68466 0.23983 0.0
C57 C 0.95822 0.76737 1.01475 0.0
C58 C 0.9696 0.81094 0.95184 0.0
C59 C 0.87792 0.68177 0.93321 0.0
C60 C 0.87152 0.64327 0.99349 0.0
C61 C 0.83126 0.60079 0.95344 0.0
C62 C 0.00882 0.85261 0.99355 0.0
C63 C 0.60439 0.43128 0.17893 0.0
C64 C 0.97471 0.79322 0.06108 0.0
C65 C 0.27694 0.15708 0.25044 0.0
C66 C 0.23029 0.16223 0.24188 0.0
C67 C 0.66379 0.37364 0.10461 0.0
C68 C 0.92595 0.60592 0.2907 0.0
C69 C 0.85508 0.53079 0.35895 0.0
C70 C 0.96991 0.66782 0.37638 0.0
C71 C 0.03832 0.74216 0.30926 0.0
C72 C 0.83373 0.49989 0.31599 0.0
C73 C 0.05894 0.77213 0.35195 0.0
C74 C 0.9352 0.59708 0.12775 0.0
C75 C 0.9022 0.57587 0.24605 0.0
H76 H 0.83678 0.6386 0.9031 0.0
H77 H 0.82959 0.57562 1.00881 0.0
H78 H 0.7607 0.50225 0.93811 0.0
H79 H 0.07418 0.94778 1.01006 0.0
H80 H -0.01295 0.69271 0.40944 0.0
H81 H 0.10871 0.82501 0.29096 0.0
H82 H 0.74385 0.39337 0.30289 0.0
H83 H 0.14226 0.87585 0.36657 0.0
Eu84 Eu 0.64592 0.83278 0.63462 0.0
C85 C 0.29979 0.64395 0.5025 0.0
N86 N 0.25095 0.5565 0.51645 0.0
C87 C 0.04331 0.3645 0.48071 0.0
C88 C 0.21624 0.59311 0.48078 0.0
C89 C 0.1267 0.41888 0.50388 0.0
C90 C 0.08516 0.45087 0.47079 0.0
C91 C 0.49156 0.87853 0.49238 0.0
C92 C 0.43717 0.78442 0.50642 0.0
C93 C 0.40725 0.82842 0.47243 0.0
C94 C 0.26986 0.68586 0.46652 0.0
Eu95 Eu 0.41592 0.6568 0.54059 0.0
N96 N 0.51818 0.82968 0.52392 0.0
C97 C 0.62831 0.0206 0.49968 0.0
C98 C 0.6533 -0.03019 0.53052 0.0
C99 C 0.70686 0.06568 0.52061 0.0
H100 H 0.09695 0.35216 0.50743 0.0
H101 H 0.80839 0.17444 0.52974 0.0
H102 H 0.82227 0.10642 0.62423 0.0
H103 H 0.74178 0.69008 0.56721 0.0
H104 H 0.71982 0.01102 0.546 0.0
H105 H 0.67276 0.09619 0.49055 0.0
H106 H 0.62178 0.66953 0.6152 0.0
H107 H 0.94958 0.25672 0.4688 0.0
H108 H 0.44759 0.89914 0.46127 0.0
H109 H 0.20686 0.6483 0.45002 0.0
H110 H 0.00276 0.28253 0.57304 0.0
H111 H 0.02007 0.40813 0.45276 0.0
H112 H 0.96828 0.90372 0.52982 0.0
N113 N 0.8565 0.04738 0.60656 0.0
C114 C 0.93778 0.07444 0.58364 0.0
C115 C -0.01485 0.22425 0.57533 0.0
C116 C 0.04008 0.17231 0.55323 0.0
C117 C 0.88384 0.1256 0.60485 0.0
C118 C 0.05701 0.24085 0.54788 0.0
N119 N 0.77772 0.86783 0.60438 0.0
C120 C 0.7212 0.76333 0.59922 0.0
C121 C 0.97272 0.00136 0.55616 0.0
C122 C 0.90113 -0.01409 0.58407 0.0
C123 C 0.91712 0.89599 0.55135 0.0
C124 C 0.78831 0.77433 0.57186 0.0
H125 H 0.12737 0.30743 0.52244 0.0
H126 H 0.19615 0.26916 0.5038 0.0
H127 H 0.14011 0.12253 0.50723 0.0
O128 O 0.77232 0.96726 0.69028 0.0
O129 O 0.6666 0.79854 0.56109 0.0
O130 O 0.64546 0.84951 0.53372 0.0
O131 O 0.60303 0.75194 0.68177 0.0
O132 O 0.52332 0.65729 0.58567 0.0
O133 O 0.32308 0.50376 0.56805 0.0
O134 O 0.47231 0.67217 0.47274 0.0
O135 O 0.27701 0.54891 0.60495 0.0
O136 O 0.41785 0.65435 0.65269 0.0
O137 O 0.37204 0.52609 0.50352 0.0
O138 O 0.56345 0.83032 0.59019 0.0
O139 O 0.58989 0.87903 0.65691 0.0
C140 C 0.69073 0.83958 0.52887 0.0
C141 C 0.69038 0.86511 0.75156 0.0
C142 C 0.74313 0.87529 0.80884 0.0
C143 C 0.61111 0.77598 0.82873 0.0
C144 C 0.56429 0.77202 0.77407 0.0
C145 C 0.52598 0.7292 0.81239 0.0
C146 C 0.78366 0.92307 0.77043 0.0
C147 C 0.38953 0.53267 0.58536 0.0
C148 C 0.70497 0.8695 0.7049 0.0
C149 C 0.1149 0.19147 0.52664 0.0
C150 C 0.08426 0.10915 0.52901 0.0
C151 C 0.29837 0.5624 0.64272 0.0
C152 C 0.30507 0.45546 0.43521 0.0
C153 C 0.18071 0.36451 0.38265 0.0
C154 C 0.11822 0.25295 0.37138 0.0
C155 C 0.24307 0.3442 0.42329 0.0
C156 C 0.27397 0.46536 0.41431 0.0
C157 C 0.15104 0.24425 0.39131 0.0
C158 C 0.54218 0.85176 0.62759 0.0
C159 C 0.40764 0.56493 0.46751 0.0
H160 H 0.56896 0.72894 0.85657 0.0
H161 H 0.49175 0.7265 0.76083 0.0
H162 H 0.42581 0.65343 0.82864 0.0
H163 H 0.8831 -0.0021 0.75395 0.0
H164 H 0.04747 0.17517 0.34635 0.0
H165 H 0.26844 0.33637 0.43777 0.0
H166 H 0.32301 0.55204 0.42213 0.0
H167 H 0.10725 0.16144 0.38141 0.0
Eu168 Eu 0.88888 0.11122 0.03899 0.0
C169 C 0.48167 0.56149 0.06247 0.0
N170 N 0.46825 0.60761 0.08262 0.0
C171 C 0.2496 0.40746 0.05673 0.0
C172 C 0.38411 0.44188 0.03477 0.0
C173 C 0.35203 0.53044 0.08182 0.0
C174 C 0.26953 0.3674 0.03107 0.0
C175 C 0.61338 0.5934 0.04674 0.0
C176 C 0.599 0.64061 0.06691 0.0
C177 C 0.51365 0.47127 0.01977 0.0
C178 C 0.40074 0.39738 1.01291 0.0
Eu179 Eu 0.64631 0.81536 0.12293 0.0
N180 N 0.6999 0.76453 0.09019 0.0
C181 C 0.73103 0.67381 0.05251 0.0
C182 C 0.81242 0.84041 0.09731 0.0
C183 C 0.83249 0.79933 0.07726 0.0
H184 H 0.33964 0.56451 0.10062 0.0
H185 H 0.92538 0.86401 0.08167 0.0
H186 H 0.03924 0.13265 0.96035 0.0
H187 H 0.11963 0.53545 0.11322 0.0
H188 H 0.88377 0.92943 0.11987 0.0
H189 H 0.74259 0.63824 0.0378 0.0
H190 H 0.9554 0.30706 0.10781 0.0
H191 H 0.15367 0.34187 0.05931 0.0
H192 H 0.52465 0.43507 1.00337 0.0
H193 H 0.32513 0.30427 0.99151 0.0
H194 H 0.21175 0.27309 0.89926 0.0
H195 H 0.18983 0.27047 1.01216 0.0
H196 H 0.30811 0.69587 0.057 0.0
N197 N 0.08302 0.26177 0.98778 0.0
C198 C 0.16912 0.384 0.9865 0.0
C199 C 0.20018 0.30499 0.92347 0.0
C200 C 0.27173 0.46958 0.95277 0.0
C201 C 0.10173 0.22495 0.95794 0.0
C202 C 0.28187 0.42514 0.9201 0.0
N203 N 0.05559 0.33942 0.0513 0.0
C204 C 0.04026 0.37719 0.08405 0.0
C205 C 0.25095 0.55615 0.02067 0.0
C206 C 0.15746 0.42572 0.01974 0.0
C207 C 0.23825 0.59656 0.05506 0.0
C208 C 0.13237 0.50656 0.0869 0.0
H209 H 0.35485 0.48484 0.89275 0.0
H210 H 0.44151 0.66435 0.9273 0.0
H211 H 0.42471 0.74117 0.98711 0.0
O212 O 0.83876 0.13646 1.01702 0.0
O213 O 0.92589 0.18706 0.11021 0.0
O214 O 0.80098 0.02683 0.15309 0.0
O215 O 0.72844 0.9568 0.99412 0.0
O216 O 0.70381 0.94603 0.08138 0.0
O217 O 0.56168 0.83227 0.13561 0.0
O218 O 0.50998 0.71068 0.18292 0.0
O219 O 0.62734 0.77765 0.04921 0.0
O220 O 0.83194 0.96435 1.00851 0.0
O221 O 0.63262 0.74621 0.16094 0.0
O222 O 0.87909 0.02389 0.11928 0.0
O223 O 0.97218 0.10752 0.05191 0.0
C224 C 0.88764 0.14545 0.14712 0.0
C225 C 0.80143 0.06943 0.94434 0.0
C226 C 0.82449 0.12784 0.88532 0.0
C227 C 0.91935 0.16958 0.86353 0.0
C228 C 0.89293 0.10848 0.92059 0.0
C229 C 0.95432 0.16135 0.88128 0.0
C230 C 0.76693 0.08016 0.92665 0.0
C231 C 0.62264 0.91046 0.10872 0.0
C232 C 0.75816 0.03275 0.98853 0.0
C233 C 0.36209 0.59735 0.95294 0.0
C234 C 0.35287 0.64133 0.98708 0.0
C235 C 0.71756 0.83361 1.01626 0.0
C236 C 0.58283 0.73673 0.23509 0.0
C237 C 0.59513 0.70896 0.29458 0.0
C238 C 0.68294 0.8359 0.3135 0.0
C239 C 0.66727 0.85964 0.2565 0.0
C240 C 0.54722 0.66114 0.25419 0.0
C241 C 0.71677 0.90842 0.29505 0.0
C242 C -0.02195 0.10271 0.08832 0.0
C243 C 0.54648 0.69828 0.19109 0.0
H244 H 0.96704 0.20921 0.8324 0.0
H245 H 0.91287 0.09283 0.93223 0.0
H246 H 0.02678 0.19288 0.86405 0.0
H247 H 0.69812 0.05305 0.94455 0.0
H248 H 0.72892 0.88239 0.34278 0.0
H249 H 0.6985 0.92065 0.24274 0.0
H250 H 0.48292 0.56644 0.2378 0.0
H251 H 0.78407 0.00502 0.31065 0.0
Eu252 Eu 0.16234 0.8697 0.68481 0.0
C253 C 0.64715 0.56163 0.69502 0.0
N254 N 0.65536 0.51079 0.67971 0.0
C255 C 0.4639 0.3314 0.72796 0.0
C256 C 0.54291 0.49557 0.72656 0.0
C257 C 0.55515 0.38794 0.6923 0.0
C258 C 0.4568 0.38492 0.74499 0.0
C259 C 0.73446 0.73245 0.69293 0.0
C260 C 0.74454 0.68134 0.67965 0.0
C261 C 0.6214 0.65744 0.72073 0.0
C262 C 0.52924 0.54297 0.7389 0.0
Eu263 Eu 0.8562 0.65402 0.6344 0.0
N264 N 0.84713 0.74595 0.65086 0.0
C265 C 0.83765 0.85593 0.6772 0.0
C266 C 0.93533 0.85456 0.6311 0.0
C267 C 0.93758 0.91656 0.64606 0.0
H268 H 0.54974 0.33759 0.67557 0.0
H269 H 0.0124 0.00764 0.63234 0.0
H270 H 0.37779 0.13873 0.75793 0.0
H271 H 0.29359 0.78073 0.56378 0.0
H272 H 0.00979 0.89855 0.60567 0.0
H273 H 0.84115 0.90498 0.68713 0.0
H274 H 0.1827 0.73934 0.6355 0.0
H275 H 0.39184 0.24081 0.7406 0.0
H276 H 0.60016 0.68269 0.72787 0.0
H277 H 0.4461 0.4901 0.76164 0.0
H278 H 0.63094 0.37653 0.75979 0.0
H279 H 0.38032 0.33603 0.77086 0.0
H280 H 0.50333 0.0117 0.53681 0.0
N281 N 0.38949 0.09581 0.69313 0.0
C282 C 0.46938 0.1402 0.65755 0.0
C283 C 0.58452 0.31108 0.73049 0.0
C284 C 0.60527 0.27759 0.65293 0.0
C285 C 0.44304 0.17684 0.7298 0.0
C286 C 0.66515 0.36201 0.69227 0.0
N287 N 0.29994 0.91788 0.64001 0.0
C288 C 0.26432 0.82964 0.62091 0.0
C289 C 0.49835 0.08477 0.59168 0.0
C290 C 0.42025 0.04619 0.62882 0.0
C291 C 0.44971 -0.01305 0.56684 0.0
C292 C 0.33231 0.85785 0.58215 0.0
H293 H 0.77134 0.46512 0.69719 0.0
H294 H 0.73794 0.3982 0.59455 0.0
H295 H 0.66998 0.24689 0.54876 0.0
O296 O 0.23314 0.88082 0.71906 0.0
O297 O 0.16643 0.85775 0.61267 0.0
O298 O 0.07039 0.84848 0.60275 0.0
O299 O 0.0229 0.72112 0.73166 0.0
O300 O 0.0694 0.73114 0.62723 0.0
O301 O 0.85305 0.56215 0.64321 0.0
O302 O 0.82709 0.57266 0.56805 0.0
O303 O 0.8159 0.6064 0.69899 0.0
O304 O 0.02332 0.81819 0.72892 0.0
O305 O 0.70587 0.53922 0.59597 0.0
O306 O 0.0448 0.87997 0.65871 0.0
O307 O 0.22294 0.01689 0.6923 0.0
C308 C 0.16613 0.89557 0.59307 0.0
C309 C 0.15119 0.84111 0.78961 0.0
C310 C 0.22953 0.90545 0.85472 0.0
C311 C 0.27059 0.00096 0.86711 0.0
C312 C 0.18576 0.93141 0.8041 0.0
C313 C 0.25209 0.01628 0.84136 0.0
C314 C 0.17329 0.82783 0.81515 0.0
C315 C 0.94594 0.60432 0.6335 0.0
C316 C 0.12181 0.78772 0.74472 0.0
C317 C 0.66538 0.31107 0.60972 0.0
C318 C 0.61682 0.21697 0.5801 0.0
C319 C 0.88671 0.69754 0.73211 0.0
C320 C 0.7936 0.59939 0.52338 0.0
C321 C 0.75717 0.60907 0.46717 0.0
C322 C 0.90119 0.73627 0.45705 0.0
C323 C 0.93572 0.72558 0.5106 0.0
C324 C 0.70319 0.54117 0.50152 0.0
C325 C -0.01139 0.79364 0.47856 0.0
C326 C 0.16046 -0.00379 0.67829 0.0
C327 C 0.74757 0.53737 0.56042 0.0
H328 H 0.31861 0.06506 0.89672 0.0
H329 H 0.16679 0.94088 0.7856 0.0
H330 H 0.28535 0.09121 0.85094 0.0
H331 H 0.15092 0.76157 0.80397 0.0
H332 H 0.94772 0.79348 0.4323 0.0
H333 H 0.00769 0.77316 0.52562 0.0
H334 H 0.59309 0.44445 0.51075 0.0
H335 H 0.09907 0.89168 0.46986 0.0
H336 H 0.15222 0.2996 0.15188 0.0
H337 H 0.39843 0.20894 0.1257 0.0
H338 H 0.06039 0.06805 0.04469 0.0
H339 H 0.62673 0.56715 0.19519 0.0
H340 H 0.26257 0.14564 0.09839 0.0
H341 H 0.31913 0.3935 0.17143 0.0
C342 C 0.1703 0.27151 0.13177 0.0
C343 C 0.09641 0.17941 0.0956 0.0
C344 C 0.34269 0.23846 0.11951 0.0
C345 C 0.28075 0.27992 0.11883 0.0
C346 C 0.41889 0.27354 0.13536 0.0
C347 C 0.52076 0.39128 0.16338 0.0
C348 C 0.36739 0.32076 0.13252 0.0
C349 C 0.54626 0.47376 0.17439 0.0
C350 C 0.26474 0.32433 0.14301 0.0
C351 C 0.11989 0.14262 0.07144 0.0
N352 N 0.46865 0.43605 0.15941 0.0
N353 N 0.20816 0.19082 0.08376 0.0
H354 H 0.10765 0.05908 0.72827 0.0
H355 H 0.43466 0.46272 0.5431 0.0
H356 H 0.36392 0.187 0.62064 0.0
H357 H 0.2136 0.37589 0.65464 0.0
H358 H 0.4108 0.36302 0.57223 0.0
H359 H 0.16689 0.19833 0.70812 0.0
C360 C 0.17893 0.11957 0.70101 0.0
C361 C 0.23021 0.11164 0.6758 0.0
C362 C 0.36599 0.36414 0.59048 0.0
C363 C 0.29025 0.26105 0.65057 0.0
C364 C 0.37797 0.41884 0.57335 0.0
C365 C 0.32622 0.42696 0.59626 0.0
C366 C 0.3012 0.31686 0.63139 0.0
C367 C 0.25436 0.37083 0.63585 0.0
C368 C 0.21215 0.19796 0.68924 0.0
C369 C 0.32046 0.18895 0.64024 0.0
N370 N 0.24425 0.31836 0.6524 0.0
N371 N 0.34576 0.25852 0.62818 0.0
H372 H 0.68791 0.0622 0.18029 0.0
H373 H 0.83237 0.41985 0.05666 0.0
H374 H 0.57951 0.92678 0.05272 0.0
H375 H 0.00352 0.5928 0.17395 0.0
H376 H 0.74266 0.24196 0.05253 0.0
H377 H 0.78093 0.24094 0.18124 0.0
C378 C 0.68463 0.07059 0.15228 0.0
C379 C 0.63619 -0.01358 0.11513 0.0
C380 C 0.79857 0.31788 0.07954 0.0
C381 C 0.74298 0.19216 0.11556 0.0
C382 C 0.84987 0.41977 0.08187 0.0
C383 C 0.9145 0.51401 0.11788 0.0
C384 C 0.81206 0.31003 0.11355 0.0
C385 C 0.94182 0.51364 0.14799 0.0
C386 C 0.73858 0.17356 0.15266 0.0
C387 C 0.626 -0.00336 0.08085 0.0
N388 N 0.88805 0.41201 0.14584 0.0
N389 N 0.68108 0.09878 0.08144 0.0
H390 H 0.35349 0.72442 0.70041 0.0
H391 H 0.95098 0.50568 0.5675 0.0
H392 H 0.48529 0.87848 0.58855 0.0
H393 H 0.90251 0.52382 0.70456 0.0
H394 H 0.0466 0.50294 0.56964 0.0
H395 H 0.13075 0.57133 0.70264 0.0
C396 C 0.33314 0.71995 0.67432 0.0
C397 C 0.42836 0.79339 0.63811 0.0
C398 C 0.00971 0.50214 0.59927 0.0
C399 C 0.17269 0.61513 0.63987 0.0
C400 C 0.954 0.50313 0.59805 0.0
C401 C 0.92619 0.52557 0.63574 0.0
C402 C 0.04423 0.5304 0.63844 0.0
C403 C 0.93144 0.51873 0.67414 0.0
C404 C 0.20471 0.63031 0.67531 0.0
C405 C 0.40272 0.7967 0.6092 0.0
N406 N -0.00547 0.52742 0.67457 0.0
N407 N 0.27675 0.70509 0.60937 0.0
H408 H 0.76244 0.79028 0.50268 0.0
H409 H 0.84014 0.80572 0.25668 0.0
H410 H 0.76284 0.93225 0.45609 0.0
H411 H 0.92386 0.7548 0.31268 0.0
H412 H 0.85953 0.89999 0.32664 0.0
H413 H 0.87021 0.82697 0.43446 0.0
C414 C 0.788 0.83221 0.47849 0.0
C415 C 0.75523 0.86029 0.48616 0.0
C416 C 0.87524 0.86965 0.32349 0.0
C417 C 0.86352 0.88583 0.4046 0.0
C418 C 0.86529 0.81676 0.28332 0.0
C419 C 0.87413 0.76613 0.27897 0.0
C420 C 0.8924 0.87019 0.35962 0.0
C421 C 0.90942 0.78597 0.31472 0.0
C422 C 0.84722 0.85053 0.43885 0.0
C423 C 0.78406 0.90697 0.45199 0.0
N424 N 0.91511 0.83401 0.35327 0.0
N425 N 0.83278 0.91469 0.41264 0.0
H426 H 0.30826 0.55078 0.71664 0.0
H427 H 0.95704 0.34971 0.89344 0.0
H428 H 0.03028 0.36675 0.65149 0.0
H429 H 0.64967 0.95627 0.82292 0.0
H430 H 0.04219 0.44613 0.82925 0.0
H431 H 0.14618 0.42972 0.77796 0.0
C432 C 0.21359 0.48578 0.71488 0.0
C433 C 0.18586 0.47239 0.67823 0.0
C434 C 0.95101 0.33638 0.82824 0.0
C435 C -0.00376 0.33028 0.75023 0.0
C436 C 0.9008 0.28057 0.86519 0.0
C437 C 0.79956 0.14601 0.86304 0.0
C438 C 0.90006 0.25713 0.78906 0.0
C439 C 0.73141 0.06197 0.82528 0.0
C440 C 0.12079 0.41648 0.7504 0.0
C441 C 0.05675 0.38058 0.67868 0.0
N442 N 0.78744 0.12039 0.78903 0.0
N443 N 0.96566 0.31198 0.71423 0.0
H444 H 0.57201 0.53149 0.4944 0.0
H445 H 0.54356 0.54157 0.2641 0.0
H446 H 0.76517 0.58768 0.37984 0.0
H447 H 0.56255 0.70189 0.38147 0.0
H448 H 0.53935 0.4713 0.30458 0.0
H449 H 0.48568 0.50886 0.45281 0.0
C450 C 0.58913 0.53091 0.46037 0.0
C451 C 0.67314 0.55818 0.44126 0.0
C452 C 0.54259 0.5202 0.32158 0.0
C453 C 0.57574 0.53336 0.39203 0.0
C454 C 0.54476 0.56053 0.2982 0.0
C455 C 0.56022 0.63478 0.31844 0.0
C456 C 0.55164 0.54998 0.3661 0.0
C457 C 0.55762 0.65173 0.36334 0.0
C458 C 0.54119 0.51938 0.43632 0.0
C459 C 0.69972 0.56523 0.39664 0.0
N460 N 0.55541 0.61191 0.38511 0.0
N461 N 0.65192 0.55326 0.37404 0.0
H462 H 0.45724 0.0486 0.85012 0.0
H463 H 0.3954 0.08852 0.10263 0.0
H464 H 0.07746 0.76637 0.9257 0.0
H465 H 0.7627 0.42687 0.02235 0.0
H466 H 0.27008 0.92703 0.03836 0.0
H467 H 0.55782 0.13453 0.91302 0.0
C468 C 0.39248 -0.00065 0.87953 0.0
C469 C 0.25943 0.90126 0.88313 0.0
C470 C 0.37892 0.03642 0.03508 0.0
C471 C 0.37502 0.00295 0.95536 0.0
C472 C 0.44993 0.12815 0.07157 0.0
C473 C 0.58837 0.27111 0.06757 0.0
C474 C 0.44889 0.08862 0.99472 0.0
C475 C 0.65495 0.31779 0.02676 0.0
C476 C 0.45046 0.04992 0.91559 0.0
C477 C 0.18052 0.84257 0.92209 0.0
N478 N 0.58474 0.22708 0.99203 0.0
N479 N 0.2406 0.89693 0.95719 0.0
H480 H 0.54762 0.67622 0.95363 0.0
H481 H 0.81161 0.74277 0.75821 0.0
H482 H 0.79721 0.79324 0.99308 0.0
H483 H 0.80334 0.5922 0.80318 0.0
H484 H 0.68817 0.6895 0.82454 0.0
H485 H 0.5331 0.58468 0.88414 0.0
C486 C 0.5936 0.67648 0.94847 0.0
C487 C 0.67381 0.74265 0.97944 0.0
C488 C 0.7119 0.66683 0.82025 0.0
C489 C 0.66003 0.64016 0.89931 0.0
C490 C 0.77951 0.69389 0.7815 0.0
C491 C 0.81176 0.66523 0.77367 0.0
C492 C 0.69004 0.62594 0.85411 0.0
C493 C 0.77786 0.61315 0.80714 0.0
C494 C 0.58641 0.62531 0.90859 0.0
C495 C 0.73451 0.74336 0.97025 0.0
N496 N 0.72287 0.5991 0.84609 0.0
N497 N 0.72699 0.694 0.93133 0.0
H498 H 0.84075 0.4279 0.38983 0.0
H499 H 0.29991 0.9195 0.53961 0.0
H500 H 0.63176 0.3924 0.39607 0.0
H501 H 0.23893 0.04338 0.55755 0.0
H502 H 0.47005 0.06651 0.47992 0.0
H503 H 0.67069 0.26267 0.44506 0.0
C504 C 0.75641 0.38195 0.40213 0.0
C505 C 0.74659 0.41968 0.38783 0.0
C506 C 0.4225 0.06473 0.49753 0.0
C507 C 0.55297 0.23243 0.45066 0.0
C508 C 0.32667 -0.018 0.53192 0.0
C509 C 0.26279 -0.02309 0.55538 0.0
C510 C 0.45201 0.14062 0.48613 0.0
C511 C 0.29039 0.04905 0.54166 0.0
C512 C 0.65914 0.2875 0.43353 0.0
C513 C 0.63945 0.36214 0.4055 0.0
N514 N 0.38324 0.12825 0.50817 0.0
N515 N 0.54716 0.2719 0.43602 0.0
H516 H 0.73472 0.87128 0.89244 0.0
H517 H -0.01195 0.80769 0.86471 0.0
H518 H 0.94837 -0.02393 0.77084 0.0
H519 H 0.04978 0.00063 0.98178 0.0
H520 H 0.01325 0.89983 0.82755 0.0
H521 H 0.86164 0.93163 0.92335 0.0
C522 C 0.80888 0.90788 0.87161 0.0
C523 C 0.83031 0.92013 0.82815 0.0
C524 C 0.01879 0.92008 0.86156 0.0
C525 C 0.97206 -0.01988 0.86538 0.0
C526 C 0.0062 0.86881 0.88326 0.0
C527 C 0.01091 0.89032 0.92783 0.0
C528 C 0.01979 -0.01977 0.88461 0.0
C529 C 0.03991 -0.0243 0.94827 0.0
C530 C 0.88275 0.94327 0.89009 0.0
C531 C 0.92917 0.96736 0.80449 0.0
N532 N 0.03539 0.01049 0.92729 0.0
N533 N -0.00724 -0.00876 0.82293 0.0
H534 H 0.16311 0.41728 0.16007 0.0
H535 H 0.94109 0.20188 0.38348 0.0
H536 H 0.75301 0.07687 0.22336 0.0
H537 H 0.36339 0.56393 0.33004 0.0
H538 H 0.88967 0.20503 0.33516 0.0
H539 H 0.25745 0.522 0.22925 0.0
C540 C 0.09406 0.36894 0.18865 0.0
C541 C 0.95032 0.23819 0.18603 0.0
C542 C -0.00549 0.28534 0.33409 0.0
C543 C 0.05552 0.35442 0.2646 0.0
C544 C 0.02319 0.2829 0.36166 0.0
C545 C 0.15516 0.38004 0.35933 0.0
C546 C 0.09693 0.38144 0.30269 0.0
C547 C 0.2594 0.48501 0.33142 0.0
C548 C 0.1475 0.42777 0.2281 0.0
C549 C 0.86465 0.17856 0.22388 0.0
N550 N 0.2273 0.48074 0.3031 0.0
N551 N 0.91821 0.23571 0.26141 0.0
loop_
_geom_bond_atom_site_label_1
_geom_bond_atom_site_label_2
_geom_bond_distance
_geom_bond_site_symmetry_2
_ccdc_geom_bond_type
Eu0 N29 2.600 1_565 S
Eu0 N35 2.562 1_565 S
Eu0 O44 2.462 . S
Eu0 O45 2.373 . S
Eu0 O47 2.432 . S
Eu0 O48 2.291 1_455 S
Eu0 O52 2.335 1_455 S
Eu0 O55 2.372 . S
Eu0 C64 2.787 . S
C1 N2 1.365 . S
C1 C4 1.405 1_545 S
C1 C8 1.448 . S
N2 C1 1.365 . S
N2 C5 1.319 . S
N2 Eu11 2.600 . S
C3 C5 1.397 1_565 S
C3 C6 1.367 . S
C3 H23 0.931 . S
C4 C1 1.405 1_565 S
C4 C6 1.403 . S
C4 C10 1.439 . S
C5 N2 1.319 . S
C5 C3 1.397 1_545 S
C5 H16 0.930 . S
C6 C3 1.367 . S
C6 C4 1.403 . S
C6 H27 0.929 1_455 S
C7 C8 1.430 1_565 S
C7 C9 1.387 . S
C7 C13 1.404 . S
C8 C1 1.448 . S
C8 C7 1.430 1_545 S
C8 N12 1.351 . S
C9 C7 1.387 . S
C9 C10 1.374 . S
C9 H24 0.931 . S
C10 C4 1.439 . S
C10 C9 1.374 . S
C10 H25 0.931 1_455 S
Eu11 N2 2.600 . S
Eu11 N12 2.562 . S
Eu11 O46 2.335 . S
Eu11 O49 2.372 . S
Eu11 O50 2.462 . S
Eu11 O51 2.373 . S
Eu11 O53 2.432 . S
Eu11 O54 2.291 . S
Eu11 C75 2.787 . S
N12 C8 1.351 . S
N12 Eu11 2.562 . S
N12 C14 1.325 . S
C13 C7 1.404 . S
C13 C15 1.366 1_565 S
C13 H21 0.930 . S
C14 N12 1.325 . S
C14 C15 1.416 . S
C14 H20 0.929 . S
C15 C13 1.366 1_545 S
C15 C14 1.416 . S
C15 H17 0.930 . S
H16 C5 0.930 . S
H17 C15 0.930 . S
H18 C33 0.930 . S
H19 C40 0.930 . S
H20 C14 0.929 . S
H21 C13 0.930 . S
H22 C36 0.929 1_665 S
H23 C3 0.931 . S
H24 C9 0.931 . S
H25 C10 0.931 1_655 S
H26 C31 0.931 . S
H27 C6 0.929 1_655 S
H28 C39 0.930 . S
N29 Eu0 2.600 1_545 S
N29 C30 1.365 . S
N29 C33 1.319 . S
C30 N29 1.365 . S
C30 C32 1.405 . S
C30 C38 1.448 . S
C31 H26 0.931 . S
C31 C33 1.397 . S
C31 C34 1.367 . S
C32 C30 1.405 . S
C32 C34 1.403 . S
C32 C65 1.439 . S
C33 H18 0.930 . S
C33 N29 1.319 . S
C33 C31 1.397 . S
C34 C31 1.367 . S
C34 C32 1.403 . S
C34 H41 0.929 . S
N35 Eu0 2.562 1_545 S
N35 C36 1.325 . S
N35 C38 1.351 . S
C36 H22 0.929 1_445 S
C36 N35 1.325 . S
C36 C40 1.416 . S
C37 C38 1.430 . S
C37 C39 1.404 . S
C37 C66 1.387 . S
C38 C30 1.448 . S
C38 N35 1.351 . S
C38 C37 1.430 . S
C39 H28 0.930 . S
C39 C37 1.404 . S
C39 C40 1.366 . S
C40 H19 0.930 . S
C40 C36 1.416 . S
C40 C39 1.366 . S
H41 C34 0.929 . S
H42 C65 0.931 . S
H43 C66 0.931 . S
O44 Eu0 2.462 . S
O44 C64 1.252 . S
O45 Eu0 2.373 . S
O45 C56 1.249 1_455 S
O46 Eu11 2.335 . S
O46 C56 1.264 . S
O47 Eu0 2.432 . S
O47 C64 1.268 . S
O48 Eu0 2.291 1_655 S
O48 C63 1.255 . S
O49 Eu11 2.372 . S
O49 C63 1.257 . S
O50 Eu11 2.462 . S
O50 C75 1.252 . S
O51 Eu11 2.373 . S
O51 C67 1.249 . S
O52 Eu0 2.335 1_655 S
O52 C67 1.264 . S
O53 Eu11 2.432 . S
O53 C75 1.268 . S
O54 Eu11 2.291 . S
O54 C74 1.255 . S
O55 Eu0 2.372 . S
O55 C74 1.257 1_455 S
C56 O45 1.249 1_655 S
C56 O46 1.264 . S
C57 C60 1.382 1_565 S
C57 C62 1.390 . S
C57 C64 1.506 1_556 S
C58 C59 1.398 . S
C58 C62 1.392 1_545 S
C59 C58 1.398 . S
C59 C61 1.372 . S
C59 H76 0.931 . S
C60 C57 1.382 1_545 S
C60 C61 1.390 . S
C60 H77 0.931 . S
C61 C59 1.372 . S
C61 C60 1.390 . S
C61 H78 0.929 . S
C62 C57 1.390 . S
C62 C58 1.392 1_565 S
C62 H79 0.930 . S
C63 O48 1.255 . S
C63 O49 1.257 . S
C64 Eu0 2.787 . S
C64 O44 1.252 . S
C64 O47 1.268 . S
C64 C57 1.506 1_554 S
C65 C32 1.439 . S
C65 H42 0.931 . S
C65 C66 1.374 . S
C66 C37 1.387 . S
C66 H43 0.931 . S
C66 C65 1.374 . S
C67 O51 1.249 . S
C67 O52 1.264 . S
C68 C71 1.382 . S
C68 C72 1.390 . S
C68 C75 1.506 . S
C69 C70 1.398 . S
C69 C72 1.392 . S
C70 C69 1.398 . S
C70 C73 1.372 . S
C70 H80 0.931 . S
C71 C68 1.382 . S
C71 C73 1.390 . S
C71 H81 0.931 . S
C72 C68 1.390 . S
C72 C69 1.392 . S
C72 H82 0.930 . S
C73 C70 1.372 . S
C73 C71 1.390 . S
C73 H83 0.929 . S
C74 O54 1.255 . S
C74 O55 1.257 1_655 S
C75 Eu11 2.787 . S
C75 O50 1.252 . S
C75 O53 1.268 . S
C75 C68 1.506 . S
H76 C59 0.931 . S
H77 C60 0.931 . S
H78 C61 0.929 . S
H79 C62 0.930 . S
H80 C70 0.931 . S
H81 C71 0.931 . S
H82 C72 0.930 . S
H83 C73 0.929 . S
Eu84 N113 2.600 1_655 S
Eu84 N119 2.562 1_655 S
Eu84 O128 2.462 . S
Eu84 O129 2.373 . S
Eu84 O131 2.432 . S
Eu84 O132 2.291 1_545 S
Eu84 O136 2.335 1_545 S
Eu84 O139 2.372 . S
Eu84 C148 2.787 . S
C85 N86 1.365 . S
C85 C88 1.405 1_455 S
C85 C92 1.448 . S
N86 C85 1.365 . S
N86 C89 1.319 . S
N86 Eu95 2.600 . S
C87 C89 1.397 . S
C87 C90 1.367 1_455 S
C87 H107 0.931 . S
C88 C85 1.405 1_655 S
C88 C90 1.403 . S
C88 C94 1.439 . S
C89 N86 1.319 . S
C89 C87 1.397 . S
C89 H100 0.930 . S
C90 C87 1.367 1_655 S
C90 C88 1.403 . S
C90 H111 0.929 1_545 S
C91 C92 1.430 1_655 S
C91 C93 1.387 . S
C91 C97 1.404 . S
C92 C85 1.448 . S
C92 C91 1.430 1_455 S
C92 N96 1.351 . S
C93 C91 1.387 . S
C93 C94 1.374 . S
C93 H108 0.931 . S
C94 C88 1.439 . S
C94 C93 1.374 . S
C94 H109 0.931 1_545 S
Eu95 N86 2.600 . S
Eu95 N96 2.562 . S
Eu95 O130 2.335 . S
Eu95 O133 2.372 . S
Eu95 O134 2.462 . S
Eu95 O135 2.373 . S
Eu95 O137 2.432 . S
Eu95 O138 2.291 . S
Eu95 C159 2.787 . S
N96 C92 1.351 . S
N96 Eu95 2.562 . S
N96 C98 1.325 . S
C97 C91 1.404 . S
C97 C99 1.366 1_655 S
C97 H105 0.930 . S
C98 N96 1.325 . S
C98 C99 1.416 . S
C98 H104 0.929 . S
C99 C97 1.366 1_455 S
C99 C98 1.416 . S
C99 H101 0.930 . S
H100 C89 0.930 . S
H101 C99 0.930 . S
H102 C117 0.930 . S
H103 C124 0.930 . S
H104 C98 0.929 . S
H105 C97 0.930 . S
H106 C120 0.929 1_665 S
H107 C87 0.931 . S
H108 C93 0.931 . S
H109 C94 0.931 1_565 S
H110 C115 0.931 . S
H111 C90 0.929 1_565 S
H112 C123 0.930 . S
N113 Eu84 2.600 1_455 S
N113 C114 1.365 . S
N113 C117 1.319 . S
C114 N113 1.365 . S
C114 C116 1.405 . S
C114 C122 1.448 . S
C115 H110 0.931 . S
C115 C117 1.397 . S
C115 C118 1.367 . S
C116 C114 1.405 . S
C116 C118 1.403 . S
C116 C149 1.439 . S
C117 H102 0.930 . S
C117 N113 1.319 . S
C117 C115 1.397 . S
C118 C115 1.367 . S
C118 C116 1.403 . S
C118 H125 0.929 . S
N119 Eu84 2.562 1_455 S
N119 C120 1.325 . S
N119 C122 1.351 . S
C120 H106 0.929 1_445 S
C120 N119 1.325 . S
C120 C124 1.416 . S
C121 C122 1.430 . S
C121 C123 1.404 . S
C121 C150 1.387 . S
C122 C114 1.448 . S
C122 N119 1.351 . S
C122 C121 1.430 . S
C123 H112 0.930 . S
C123 C121 1.404 . S
C123 C124 1.366 . S
C124 H103 0.930 . S
C124 C120 1.416 . S
C124 C123 1.366 . S
H125 C118 0.929 . S
H126 C149 0.931 . S
H127 C150 0.931 . S
O128 Eu84 2.462 . S
O128 C148 1.252 . S
O129 Eu84 2.373 . S
O129 C140 1.249 1_545 S
O130 Eu95 2.335 . S
O130 C140 1.264 . S
O131 Eu84 2.432 . S
O131 C148 1.268 . S
O132 Eu84 2.291 1_565 S
O132 C147 1.255 . S
O133 Eu95 2.372 . S
O133 C147 1.257 . S
O134 Eu95 2.462 . S
O134 C159 1.252 . S
O135 Eu95 2.373 . S
O135 C151 1.249 . S
O136 Eu84 2.335 1_565 S
O136 C151 1.264 . S
O137 Eu95 2.432 . S
O137 C159 1.268 . S
O138 Eu95 2.291 . S
O138 C158 1.255 . S
O139 Eu84 2.372 . S
O139 C158 1.257 1_545 S
C140 O129 1.249 1_565 S
C140 O130 1.264 . S
C141 C144 1.382 1_655 S
C141 C146 1.390 . S
C141 C148 1.506 . S
C142 C143 1.398 . S
C142 C146 1.392 1_455 S
C143 C142 1.398 . S
C143 C145 1.372 . S
C143 H160 0.931 . S
C144 C141 1.382 1_455 S
C144 C145 1.390 . S
C144 H161 0.931 . S
C145 C143 1.372 . S
C145 C144 1.390 . S
C145 H162 0.929 . S
C146 C141 1.390 . S
C146 C142 1.392 1_655 S
C146 H163 0.930 . S
C147 O132 1.255 . S
C147 O133 1.257 . S
C148 Eu84 2.787 . S
C148 O128 1.252 . S
C148 O131 1.268 . S
C148 C141 1.506 . S
C149 C116 1.439 . S
C149 H126 0.931 . S
C149 C150 1.374 . S
C150 C121 1.387 . S
C150 H127 0.931 . S
C150 C149 1.374 . S
C151 O135 1.249 . S
C151 O136 1.264 . S
C152 C155 1.382 . S
C152 C156 1.390 . S
C152 C159 1.506 . S
C153 C154 1.398 . S
C153 C156 1.392 . S
C154 C153 1.398 . S
C154 C157 1.372 . S
C154 H164 0.931 . S
C155 C152 1.382 . S
C155 C157 1.390 . S
C155 H165 0.931 . S
C156 C152 1.390 . S
C156 C153 1.392 . S
C156 H166 0.930 . S
C157 C154 1.372 . S
C157 C155 1.390 . S
C157 H167 0.929 . S
C158 O138 1.255 . S
C158 O139 1.257 1_565 S
C159 Eu95 2.787 . S
C159 O134 1.252 . S
C159 O137 1.268 . S
C159 C152 1.506 . S
H160 C143 0.931 . S
H161 C144 0.931 . S
H162 C145 0.929 . S
H163 C146 0.930 . S
H164 C154 0.931 . S
H165 C155 0.931 . S
H166 C156 0.930 . S
H167 C157 0.929 . S
Eu168 N197 2.600 . S
Eu168 N203 2.562 . S
Eu168 O212 2.462 . S
Eu168 O213 2.373 . S
Eu168 O215 2.432 1_554 S
Eu168 O216 2.291 1_455 S
Eu168 O220 2.335 1_455 S
Eu168 O223 2.372 . S
Eu168 C232 2.787 1_554 S
C169 N170 1.365 . S
C169 C172 1.405 . S
C169 C176 1.448 . S
N170 C169 1.365 . S
N170 C173 1.319 . S
N170 Eu179 2.600 . S
C171 C173 1.397 . S
C171 C174 1.367 . S
C171 H191 0.931 . S
C172 C169 1.405 . S
C172 C174 1.403 . S
C172 C178 1.439 . S
C173 N170 1.319 . S
C173 C171 1.397 . S
C173 H184 0.930 . S
C174 C171 1.367 . S
C174 C172 1.403 . S
C174 H195 0.929 1_455 S
C175 C176 1.430 . S
C175 C177 1.387 . S
C175 C181 1.404 . S
C176 C169 1.448 . S
C176 C175 1.430 . S
C176 N180 1.351 . S
C177 C175 1.387 . S
C177 C178 1.374 . S
C177 H192 0.931 . S
C178 C172 1.439 . S
C178 C177 1.374 . S
C178 H193 0.931 1_455 S
Eu179 N170 2.600 . S
Eu179 N180 2.562 . S
Eu179 O214 2.335 1_565 S
Eu179 O217 2.372 . S
Eu179 O218 2.462 . S
Eu179 O219 2.373 . S
Eu179 O221 2.432 . S
Eu179 O222 2.291 . S
Eu179 C243 2.787 . S
N180 C176 1.351 . S
N180 Eu179 2.562 . S
N180 C182 1.325 . S
C181 C175 1.404 . S
C181 C183 1.366 . S
C181 H189 0.930 . S
C182 N180 1.325 . S
C182 C183 1.416 . S
C182 H188 0.929 . S
C183 C181 1.366 . S
C183 C182 1.416 . S
C183 H185 0.930 . S
H184 C173 0.930 . S
H185 C183 0.930 . S
H186 C201 0.930 . S
H187 C208 0.930 . S
H188 C182 0.929 . S
H189 C181 0.930 . S
H190 C204 0.929 1_655 S
H191 C171 0.931 . S
H192 C177 0.931 . S
H193 C178 0.931 1_655 S
H194 C199 0.931 . S
H195 C174 0.929 1_655 S
H196 C207 0.930 . S
N197 Eu168 2.600 . S
N197 C198 1.365 . S
N197 C201 1.319 . S
C198 N197 1.365 . S
C198 C200 1.405 . S
C198 C206 1.448 . S
C199 H194 0.931 . S
C199 C201 1.397 . S
C199 C202 1.367 . S
C200 C198 1.405 . S
C200 C202 1.403 . S
C200 C233 1.439 . S
C201 H186 0.930 . S
C201 N197 1.319 . S
C201 C199 1.397 . S
C202 C199 1.367 . S
C202 C200 1.403 . S
C202 H209 0.929 . S
N203 Eu168 2.562 . S
N203 C204 1.325 . S
N203 C206 1.351 . S
C204 H190 0.929 1_455 S
C204 N203 1.325 . S
C204 C208 1.416 . S
C205 C206 1.430 . S
C205 C207 1.404 . S
C205 C234 1.387 . S
C206 C198 1.448 . S
C206 N203 1.351 . S
C206 C205 1.430 . S
C207 H196 0.930 . S
C207 C205 1.404 . S
C207 C208 1.366 . S
C208 H187 0.930 . S
C208 C204 1.416 . S
C208 C207 1.366 . S
H209 C202 0.929 . S
H210 C233 0.931 . S
H211 C234 0.931 . S
O212 Eu168 2.462 . S
O212 C232 1.252 1_554 S
O213 Eu168 2.373 . S
O213 C224 1.249 1_455 S
O214 Eu179 2.335 1_545 S
O214 C224 1.264 . S
O215 Eu168 2.432 1_556 S
O215 C232 1.268 . S
O216 Eu168 2.291 1_655 S
O216 C231 1.255 1_545 S
O217 Eu179 2.372 . S
O217 C231 1.257 . S
O218 Eu179 2.462 . S
O218 C243 1.252 . S
O219 Eu179 2.373 . S
O219 C235 1.249 . S
O220 Eu168 2.335 1_655 S
O220 C235 1.264 1_545 S
O221 Eu179 2.432 . S
O221 C243 1.268 . S
O222 Eu179 2.291 . S
O222 C242 1.255 1_565 S
O223 Eu168 2.372 . S
O223 C242 1.257 1_455 S
C224 O213 1.249 1_655 S
C224 O214 1.264 . S
C225 C228 1.382 . S
C225 C230 1.390 . S
C225 C232 1.506 . S
C226 C227 1.398 . S
C226 C230 1.392 . S
C227 C226 1.398 . S
C227 C229 1.372 . S
C227 H244 0.931 . S
C228 C225 1.382 . S
C228 C229 1.390 . S
C228 H245 0.931 . S
C229 C227 1.372 . S
C229 C228 1.390 . S
C229 H246 0.929 . S
C230 C225 1.390 . S
C230 C226 1.392 . S
C230 H247 0.930 . S
C231 O216 1.255 1_565 S
C231 O217 1.257 . S
C232 Eu168 2.787 1_556 S
C232 O212 1.252 1_556 S
C232 O215 1.268 . S
C232 C225 1.506 . S
C233 C200 1.439 . S
C233 H210 0.931 . S
C233 C234 1.374 . S
C234 C205 1.387 . S
C234 H211 0.931 . S
C234 C233 1.374 . S
C235 O219 1.249 . S
C235 O220 1.264 1_565 S
C236 C239 1.382 . S
C236 C240 1.390 . S
C236 C243 1.506 . S
C237 C238 1.398 . S
C237 C240 1.392 . S
C238 C237 1.398 . S
C238 C241 1.372 . S
C238 H248 0.931 . S
C239 C236 1.382 . S
C239 C241 1.390 . S
C239 H249 0.931 . S
C240 C236 1.390 . S
C240 C237 1.392 . S
C240 H250 0.930 . S
C241 C238 1.372 . S
C241 C239 1.390 . S
C241 H251 0.929 . S
C242 O222 1.255 1_545 S
C242 O223 1.257 1_655 S
C243 Eu179 2.787 . S
C243 O218 1.252 . S
C243 O221 1.268 . S
C243 C236 1.506 . S
H244 C227 0.931 . S
H245 C228 0.931 . S
H246 C229 0.929 . S
H247 C230 0.930 . S
H248 C238 0.931 . S
H249 C239 0.931 . S
H250 C240 0.930 . S
H251 C241 0.929 . S
Eu252 N281 2.600 . S
Eu252 N287 2.562 . S
Eu252 O296 2.462 1_545 S
Eu252 O297 2.373 1_545 S
Eu252 O299 2.432 . S
Eu252 O300 2.291 1_545 S
Eu252 O304 2.335 1_545 S
Eu252 O307 2.372 . S
Eu252 C316 2.787 . S
C253 N254 1.365 . S
C253 C256 1.405 . S
C253 C260 1.448 . S
N254 C253 1.365 . S
N254 C257 1.319 . S
N254 Eu263 2.600 . S
C255 C257 1.397 . S
C255 C258 1.367 . S
C255 H275 0.931 . S
C256 C253 1.405 . S
C256 C258 1.403 . S
C256 C262 1.439 . S
C257 N254 1.319 . S
C257 C255 1.397 . S
C257 H268 0.930 . S
C258 C255 1.367 . S
C258 C256 1.403 . S
C258 H279 0.929 1_545 S
C259 C260 1.430 . S
C259 C261 1.387 . S
C259 C265 1.404 . S
C260 C253 1.448 . S
C260 C259 1.430 . S
C260 N264 1.351 . S
C261 C259 1.387 . S
C261 C262 1.374 . S
C261 H276 0.931 . S
C262 C256 1.439 . S
C262 C261 1.374 . S
C262 H277 0.931 1_545 S
Eu263 N254 2.600 . S
Eu263 N264 2.562 . S
Eu263 O298 2.335 1_655 S
Eu263 O301 2.372 . S
Eu263 O302 2.462 . S
Eu263 O303 2.373 . S
Eu263 O305 2.432 . S
Eu263 O306 2.291 . S
Eu263 C327 2.787 . S
N264 C260 1.351 . S
N264 Eu263 2.562 . S
N264 C266 1.325 . S
C265 C259 1.404 . S
C265 C267 1.366 . S
C265 H273 0.930 . S
C266 N264 1.325 . S
C266 C267 1.416 . S
C266 H272 0.929 . S
C267 C265 1.366 . S
C267 C266 1.416 . S
C267 H269 0.930 . S
H268 C257 0.930 . S
H269 C267 0.930 . S
H270 C285 0.930 . S
H271 C292 0.930 . S
H272 C266 0.929 . S
H273 C265 0.930 . S
H274 C288 0.929 1_565 S
H275 C255 0.931 . S
H276 C261 0.931 . S
H277 C262 0.931 1_565 S
H278 C283 0.931 . S
H279 C258 0.929 1_565 S
H280 C291 0.930 . S
N281 Eu252 2.600 . S
N281 C282 1.365 . S
N281 C285 1.319 . S
C282 N281 1.365 . S
C282 C284 1.405 . S
C282 C290 1.448 . S
C283 H278 0.931 . S
C283 C285 1.397 . S
C283 C286 1.367 . S
C284 C282 1.405 . S
C284 C286 1.403 . S
C284 C317 1.439 . S
C285 H270 0.930 . S
C285 N281 1.319 . S
C285 C283 1.397 . S
C286 C283 1.367 . S
C286 C284 1.403 . S
C286 H293 0.929 . S
N287 Eu252 2.562 . S
N287 C288 1.325 . S
N287 C290 1.351 . S
C288 H274 0.929 1_545 S
C288 N287 1.325 . S
C288 C292 1.416 . S
C289 C290 1.430 . S
C289 C291 1.404 . S
C289 C318 1.387 . S
C290 C282 1.448 . S
C290 N287 1.351 . S
C290 C289 1.430 . S
C291 H280 0.930 . S
C291 C289 1.404 . S
C291 C292 1.366 . S
C292 H271 0.930 . S
C292 C288 1.416 . S
C292 C291 1.366 . S
H293 C286 0.929 . S
H294 C317 0.931 . S
H295 C318 0.931 . S
O296 Eu252 2.462 1_565 S
O296 C316 1.252 1_565 S
O297 Eu252 2.373 1_565 S
O297 C308 1.249 . S
O298 Eu263 2.335 1_455 S
O298 C308 1.264 . S
O299 Eu252 2.432 . S
O299 C316 1.268 . S
O300 Eu252 2.291 1_565 S
O300 C315 1.255 1_455 S
O301 Eu263 2.372 . S
O301 C315 1.257 . S
O302 Eu263 2.462 . S
O302 C327 1.252 . S
O303 Eu263 2.373 . S
O303 C319 1.249 . S
O304 Eu252 2.335 1_565 S
O304 C319 1.264 1_455 S
O305 Eu263 2.432 . S
O305 C327 1.268 . S
O306 Eu263 2.291 . S
O306 C326 1.255 1_655 S
O307 Eu252 2.372 . S
O307 C326 1.257 1_545 S
C308 O297 1.249 . S
C308 O298 1.264 . S
C309 C312 1.382 . S
C309 C314 1.390 . S
C309 C316 1.506 . S
C310 C311 1.398 . S
C310 C314 1.392 . S
C311 C310 1.398 . S
C311 C313 1.372 . S
C311 H328 0.931 . S
C312 C309 1.382 . S
C312 C313 1.390 . S
C312 H329 0.931 . S
C313 C311 1.372 . S
C313 C312 1.390 . S
C313 H330 0.929 . S
C314 C309 1.390 . S
C314 C310 1.392 . S
C314 H331 0.930 . S
C315 O300 1.255 1_655 S
C315 O301 1.257 . S
C316 Eu252 2.787 . S
C316 O296 1.252 1_545 S
C316 O299 1.268 . S
C316 C309 1.506 . S
C317 C284 1.439 . S
C317 H294 0.931 . S
C317 C318 1.374 . S
C318 C289 1.387 . S
C318 H295 0.931 . S
C318 C317 1.374 . S
C319 O303 1.249 . S
C319 O304 1.264 1_655 S
C320 C323 1.382 . S
C320 C324 1.390 . S
C320 C327 1.506 . S
C321 C322 1.398 . S
C321 C324 1.392 . S
C322 C321 1.398 . S
C322 C325 1.372 . S
C322 H332 0.931 . S
C323 C320 1.382 . S
C323 C325 1.390 . S
C323 H333 0.931 . S
C324 C320 1.390 . S
C324 C321 1.392 . S
C324 H334 0.930 . S
C325 C322 1.372 . S
C325 C323 1.390 . S
C325 H335 0.929 . S
C326 O306 1.255 1_455 S
C326 O307 1.257 1_565 S
C327 Eu263 2.787 . S
C327 O302 1.252 . S
C327 O305 1.268 . S
C327 C320 1.506 . S
H328 C311 0.931 . S
H329 C312 0.931 . S
H330 C313 0.929 . S
H331 C314 0.930 . S
H332 C322 0.931 . S
H333 C323 0.931 . S
H334 C324 0.930 . S
H335 C325 0.929 . S
H336 C342 0.930 . S
H337 C346 0.930 . S
H338 C351 0.929 1_665 S
H339 C349 0.929 . S
H340 C344 0.929 . S
H341 C350 0.929 . S
C342 H336 0.930 . S
C342 C343 1.367 1_455 S
C342 C350 1.378 . S
C343 C342 1.367 1_655 S
C343 C351 1.433 1_655 S
C344 H340 0.929 . S
C344 C346 1.378 . S
C344 C348 1.350 . S
C345 C348 1.463 . S
C345 C350 1.350 . S
C345 N353 1.427 . S
C346 H337 0.930 . S
C346 C344 1.378 . S
C346 C347 1.367 . S
C347 C346 1.367 . S
C347 C349 1.433 . S
C348 C344 1.350 . S
C348 C345 1.463 . S
C348 N352 1.427 . S
C349 H339 0.929 . S
C349 C347 1.433 . S
C349 N352 1.384 . S
C350 H341 0.929 . S
C350 C342 1.378 . S
C350 C345 1.350 . S
C351 H338 0.929 1_445 S
C351 C343 1.433 1_455 S
C351 N353 1.384 . S
N352 C348 1.427 . S
N352 C349 1.384 . S
N353 C345 1.427 . S
N353 C351 1.384 . S
H354 C360 0.930 . S
H355 C364 0.930 . S
H356 C369 0.929 1_655 S
H357 C367 0.929 . S
H358 C362 0.929 . S
H359 C368 0.929 . S
C360 H354 0.930 . S
C360 C361 1.367 1_545 S
C360 C368 1.378 . S
C361 C360 1.367 1_565 S
C361 C369 1.433 . S
C362 H358 0.929 . S
C362 C364 1.378 . S
C362 C366 1.350 . S
C363 C366 1.463 . S
C363 C368 1.350 . S
C363 N371 1.427 . S
C364 H355 0.930 . S
C364 C362 1.378 . S
C364 C365 1.367 . S
C365 C364 1.367 . S
C365 C367 1.433 . S
C366 C362 1.350 . S
C366 C363 1.463 . S
C366 N370 1.427 . S
C367 H357 0.929 . S
C367 C365 1.433 . S
C367 N370 1.384 . S
C368 H359 0.929 . S
C368 C360 1.378 . S
C368 C363 1.350 . S
C369 H356 0.929 1_455 S
C369 C361 1.433 . S
C369 N371 1.384 1_565 S
N370 C366 1.427 . S
N370 C367 1.384 . S
N371 C363 1.427 . S
N371 C369 1.384 1_545 S
H372 C378 0.930 . S
H373 C382 0.930 1_455 S
H374 C387 0.929 . S
H375 C385 0.929 . S
H376 C380 0.929 . S
H377 C386 0.929 . S
C378 H372 0.930 . S
C378 C379 1.367 . S
C378 C386 1.378 . S
C379 C378 1.367 . S
C379 C387 1.433 . S
C380 H376 0.929 . S
C380 C382 1.378 . S
C380 C384 1.350 . S
C381 C384 1.463 . S
C381 C386 1.350 . S
C381 N389 1.427 . S
C382 H373 0.930 1_655 S
C382 C380 1.378 . S
C382 C383 1.367 . S
C383 C382 1.367 . S
C383 C385 1.433 . S
C384 C380 1.350 . S
C384 C381 1.463 . S
C384 N388 1.427 . S
C385 H375 0.929 . S
C385 C383 1.433 . S
C385 N388 1.384 . S
C386 H377 0.929 . S
C386 C378 1.378 . S
C386 C381 1.350 . S
C387 H374 0.929 . S
C387 C379 1.433 . S
C387 N389 1.384 . S
N388 C384 1.427 . S
N388 C385 1.384 . S
N389 C381 1.427 . S
N389 C387 1.384 . S
H390 C396 0.930 . S
H391 C400 0.930 . S
H392 C405 0.929 1_545 S
H393 C403 0.929 1_655 S
H394 C398 0.929 . S
H395 C404 0.929 . S
C396 H390 0.930 . S
C396 C397 1.367 . S
C396 C404 1.378 . S
C397 C396 1.367 . S
C397 C405 1.433 . S
C398 H394 0.929 . S
C398 C400 1.378 . S
C398 C402 1.350 . S
C399 C402 1.463 . S
C399 C404 1.350 . S
C399 N407 1.427 . S
C400 H391 0.930 . S
C400 C398 1.378 . S
C400 C401 1.367 . S
C401 C400 1.367 . S
C401 C403 1.433 . S
C402 C398 1.350 . S
C402 C399 1.463 . S
C402 N406 1.427 . S
C403 H393 0.929 1_455 S
C403 C401 1.433 . S
C403 N406 1.384 . S
C404 H395 0.929 . S
C404 C396 1.378 . S
C404 C399 1.350 . S
C405 H392 0.929 1_565 S
C405 C397 1.433 . S
C405 N407 1.384 . S
N406 C402 1.427 . S
N406 C403 1.384 . S
N407 C399 1.427 . S
N407 C405 1.384 . S
H408 C414 0.930 . S
H409 C418 0.930 1_545 S
H410 C423 0.929 1_455 S
H411 C421 0.929 . S
H412 C416 0.929 1_545 S
H413 C422 0.929 . S
C414 H408 0.930 . S
C414 C415 1.367 . S
C414 C422 1.378 . S
C415 C414 1.367 . S
C415 C423 1.433 1_565 S
C416 H412 0.929 1_565 S
C416 C418 1.378 . S
C416 C420 1.350 1_455 S
C417 C420 1.463 . S
C417 C422 1.350 . S
C417 N425 1.427 1_565 S
C418 H409 0.930 1_565 S
C418 C416 1.378 . S
C418 C419 1.367 1_455 S
C419 C418 1.367 1_655 S
C419 C421 1.433 . S
C420 C416 1.350 1_655 S
C420 C417 1.463 . S
C420 N424 1.427 . S
C421 H411 0.929 . S
C421 C419 1.433 . S
C421 N424 1.384 . S
C422 H413 0.929 . S
C422 C414 1.378 . S
C422 C417 1.350 . S
C423 H410 0.929 1_655 S
C423 C415 1.433 1_545 S
C423 N425 1.384 . S
N424 C420 1.427 . S
N424 C421 1.384 . S
N425 C417 1.427 1_545 S
N425 C423 1.384 . S
H426 C432 0.930 . S
H427 C436 0.930 . S
H428 C441 0.929 . S
H429 C439 0.929 . S
H430 C434 0.929 . S
H431 C440 0.929 . S
C432 H426 0.930 . S
C432 C433 1.367 . S
C432 C440 1.378 . S
C433 C432 1.367 . S
C433 C441 1.433 . S
C434 H430 0.929 . S
C434 C436 1.378 . S
C434 C438 1.350 . S
C435 C438 1.463 . S
C435 C440 1.350 . S
C435 N443 1.427 . S
C436 H427 0.930 . S
C436 C434 1.378 . S
C436 C437 1.367 . S
C437 C436 1.367 . S
C437 C439 1.433 . S
C438 C434 1.350 . S
C438 C435 1.463 . S
C438 N442 1.427 . S
C439 H429 0.929 . S
C439 C437 1.433 . S
C439 N442 1.384 . S
C440 H431 0.929 . S
C440 C432 1.378 . S
C440 C435 1.350 . S
C441 H428 0.929 . S
C441 C433 1.433 . S
C441 N443 1.384 . S
N442 C438 1.427 . S
N442 C439 1.384 . S
N443 C435 1.427 . S
N443 C441 1.384 . S
H444 C450 0.930 . S
H445 C454 0.930 . S
H446 C459 0.929 . S
H447 C457 0.929 . S
H448 C452 0.929 . S
H449 C458 0.929 . S
C450 H444 0.930 . S
C450 C451 1.367 . S
C450 C458 1.378 . S
C451 C450 1.367 . S
C451 C459 1.433 . S
C452 H448 0.929 . S
C452 C454 1.378 . S
C452 C456 1.350 . S
C453 C456 1.463 . S
C453 C458 1.350 . S
C453 N461 1.427 . S
C454 H445 0.930 . S
C454 C452 1.378 . S
C454 C455 1.367 . S
C455 C454 1.367 . S
C455 C457 1.433 . S
C456 C452 1.350 . S
C456 C453 1.463 . S
C456 N460 1.427 . S
C457 H447 0.929 . S
C457 C455 1.433 . S
C457 N460 1.384 . S
C458 H449 0.929 . S
C458 C450 1.378 . S
C458 C453 1.350 . S
C459 H446 0.929 . S
C459 C451 1.433 . S
C459 N461 1.384 . S
N460 C456 1.427 . S
N460 C457 1.384 . S
N461 C453 1.427 . S
N461 C459 1.384 . S
H462 C468 0.930 . S
H463 C472 0.927 1_554 S
H464 C477 0.929 . S
H465 C475 0.929 1_554 S
H466 C470 0.929 . S
H467 C476 0.929 . S
C468 H462 0.930 . S
C468 C469 1.367 . S
C468 C476 1.378 . S
C469 C468 1.367 . S
C469 C477 1.433 . S
C470 H466 0.929 . S
C470 C472 1.391 . S
C470 C474 1.350 . S
C471 C474 1.463 . S
C471 C476 1.350 . S
C471 N479 1.427 . S
C472 H463 0.927 1_556 S
C472 C470 1.391 . S
C472 C473 1.357 1_556 S
C473 C472 1.357 1_554 S
C473 C475 1.433 1_554 S
C474 C470 1.350 . S
C474 C471 1.463 . S
C474 N478 1.427 . S
C475 H465 0.929 1_556 S
C475 C473 1.433 1_556 S
C475 N478 1.384 . S
C476 H467 0.929 . S
C476 C468 1.378 . S
C476 C471 1.350 . S
C477 H464 0.929 . S
C477 C469 1.433 . S
C477 N479 1.384 . S
N478 C474 1.427 . S
N478 C475 1.384 . S
N479 C471 1.427 . S
N479 C477 1.384 . S
H480 C486 0.930 . S
H481 C490 0.930 1_455 S
H482 C495 0.929 1_545 S
H483 C493 0.929 . S
H484 C488 0.929 . S
H485 C494 0.929 . S
C486 H480 0.930 . S
C486 C487 1.367 . S
C486 C494 1.378 . S
C487 C486 1.367 . S
C487 C495 1.433 . S
C488 H484 0.929 . S
C488 C490 1.378 . S
C488 C492 1.350 . S
C489 C492 1.463 . S
C489 C494 1.350 . S
C489 N497 1.427 . S
C490 H481 0.930 1_655 S
C490 C488 1.378 . S
C490 C491 1.367 . S
C491 C490 1.367 . S
C491 C493 1.433 . S
C492 C488 1.350 . S
C492 C489 1.463 . S
C492 N496 1.427 . S
C493 H483 0.929 . S
C493 C491 1.433 . S
C493 N496 1.384 . S
C494 H485 0.929 . S
C494 C486 1.378 . S
C494 C489 1.350 . S
C495 H482 0.929 1_565 S
C495 C487 1.433 . S
C495 N497 1.384 . S
N496 C492 1.427 . S
N496 C493 1.384 . S
N497 C489 1.427 . S
N497 C495 1.384 . S
H498 C504 0.930 . S
H499 C508 0.930 . S
H500 C513 0.929 . S
H501 C511 0.929 . S
H502 C506 0.929 . S
H503 C512 0.929 . S
C504 H498 0.930 . S
C504 C505 1.367 . S
C504 C512 1.378 . S
C505 C504 1.367 . S
C505 C513 1.433 . S
C506 H502 0.929 . S
C506 C508 1.378 . S
C506 C510 1.350 1_565 S
C507 C510 1.463 . S
C507 C512 1.350 . S
C507 N515 1.427 . S
C508 H499 0.930 . S
C508 C506 1.378 . S
C508 C509 1.367 . S
C509 C508 1.367 . S
C509 C511 1.433 . S
C510 C506 1.350 1_545 S
C510 C507 1.463 . S
C510 N514 1.427 . S
C511 H501 0.929 . S
C511 C509 1.433 . S
C511 N514 1.384 1_565 S
C512 H503 0.929 . S
C512 C504 1.378 . S
C512 C507 1.350 . S
C513 H500 0.929 . S
C513 C505 1.433 . S
C513 N515 1.384 . S
N514 C510 1.427 . S
N514 C511 1.384 1_545 S
N515 C507 1.427 . S
N515 C513 1.384 . S
H516 C522 0.930 . S
H517 C526 0.930 . S
H518 C531 0.929 1_665 S
H519 C529 0.929 . S
H520 C524 0.929 . S
H521 C530 0.929 . S
C522 H516 0.930 . S
C522 C523 1.367 . S
C522 C530 1.378 . S
C523 C522 1.367 . S
C523 C531 1.433 . S
C524 H520 0.929 . S
C524 C526 1.378 . S
C524 C528 1.350 1_565 S
C525 C528 1.463 . S
C525 C530 1.350 . S
C525 N533 1.427 1_545 S
C526 H517 0.930 . S
C526 C524 1.378 . S
C526 C527 1.367 1_565 S
C527 C526 1.367 1_545 S
C527 C529 1.433 . S
C528 C524 1.350 1_545 S
C528 C525 1.463 . S
C528 N532 1.427 . S
C529 H519 0.929 . S
C529 C527 1.433 . S
C529 N532 1.384 . S
C530 H521 0.929 . S
C530 C522 1.378 . S
C530 C525 1.350 . S
C531 H518 0.929 1_445 S
C531 C523 1.433 . S
C531 N533 1.384 1_545 S
N532 C528 1.427 . S
N532 C529 1.384 . S
N533 C525 1.427 1_565 S
N533 C531 1.384 1_565 S
H534 C540 0.930 . S
H535 C544 0.930 . S
H536 C549 0.929 . S
H537 C547 0.929 . S
H538 C542 0.929 . S
H539 C548 0.929 . S
C540 H534 0.930 . S
C540 C541 1.367 . S
C540 C548 1.378 1_655 S
C541 C540 1.367 . S
C541 C549 1.433 . S
C542 H538 0.929 . S
C542 C544 1.378 . S
C542 C546 1.350 . S
C543 C546 1.463 . S
C543 C548 1.350 . S
C543 N551 1.427 1_455 S
C544 H535 0.930 . S
C544 C542 1.378 . S
C544 C545 1.367 . S
C545 C544 1.367 . S
C545 C547 1.433 . S
C546 C542 1.350 . S
C546 C543 1.463 . S
C546 N550 1.427 . S
C547 H537 0.929 . S
C547 C545 1.433 . S
C547 N550 1.384 . S
C548 H539 0.929 . S
C548 C540 1.378 1_455 S
C548 C543 1.350 . S
C549 H536 0.929 . S
C549 C541 1.433 . S
C549 N551 1.384 . S
N550 C546 1.427 . S
N550 C547 1.384 . S
N551 C543 1.427 1_655 S
N551 C549 1.384 . S
C343 C242 0.808 . S
C347 C63 0.808 . S
C361 C326 0.806 . S
C365 C147 0.806 . S
C379 C231 1.753 1_545 S
C383 C74 1.753 . S
C397 C158 1.744 . S
C401 C315 1.744 1_455 S
C415 C140 2.045 . S
C419 C56 2.051 . S
C433 C151 1.185 . S
C437 C226 1.038 . S
C451 C321 1.757 . S
C455 C237 1.756 . S
C469 C310 1.038 . S
C473 C67 1.185 . S
C487 C235 2.051 1_556 S
C491 C319 2.044 . S
C505 C69 1.000 . S
C509 C308 1.200 . S
C523 C142 1.747 . S
C527 C58 1.750 . S
C541 C224 1.184 . S
C545 C153 1.036 . S
