# Generated by pormake.
# Topology wju, (5)-cn, num edge types: 1
# Building blocks:
#     Node 0, Type 0, BuildingBlock: XOMCOT_clean_sbu_1, # of connection points: 5
#     Node 1, Type 0, BuildingBlock: XOMCOT_clean_sbu_1, # of connection points: 5
#     Node 2, Type 0, BuildingBlock: XOMCOT_clean_sbu_1, # of connection points: 5
#     Node 3, Type 0, BuildingBlock: XOMCOT_clean_sbu_1, # of connection points: 5
#     Node 4, Type 0, BuildingBlock: XOMCOT_clean_sbu_1, # of connection points: 5
#     Node 5, Type 0, BuildingBlock: XOMCOT_clean_sbu_1, # of connection points: 5
#     Node 6, Type 0, BuildingBlock: XOMCOT_clean_sbu_1, # of connection points: 5
#     Node 7, Type 0, BuildingBlock: XOMCOT_clean_sbu_1, # of connection points: 5
#     Node 8, Type 0, BuildingBlock: XOMCOT_clean_sbu_1, # of connection points: 5
#     Node 9, Type 0, BuildingBlock: XOMCOT_clean_sbu_1, # of connection points: 5
#     Node 10, Type 0, BuildingBlock: XOMCOT_clean_sbu_1, # of connection points: 5
#     Node 11, Type 0, BuildingBlock: XOMCOT_clean_sbu_1, # of connection points: 5
#     Edge 12, Type (0, 0), BuildingBlock: XUDNAN_clean_linker_2, # of connection points: 2
#     Edge 13, Type (0, 0), BuildingBlock: XUDNAN_clean_linker_2, # of connection points: 2
#     Edge 14, Type (0, 0), BuildingBlock: XUDNAN_clean_linker_2, # of connection points: 2
#     Edge 15, Type (0, 0), BuildingBlock: XUDNAN_clean_linker_2, # of connection points: 2
#     Edge 16, Type (0, 0), BuildingBlock: XUDNAN_clean_linker_2, # of connection points: 2
#     Edge 17, Type (0, 0), BuildingBlock: XUDNAN_clean_linker_2, # of connection points: 2
#     Edge 18, Type (0, 0), BuildingBlock: XUDNAN_clean_linker_2, # of connection points: 2
#     Edge 19, Type (0, 0), BuildingBlock: XUDNAN_clean_linker_2, # of connection points: 2
#     Edge 20, Type (0, 0), BuildingBlock: XUDNAN_clean_linker_2, # of connection points: 2
#     Edge 21, Type (0, 0), BuildingBlock: XUDNAN_clean_linker_2, # of connection points: 2
#     Edge 22, Type (0, 0), BuildingBlock: XUDNAN_clean_linker_2, # of connection points: 2
#     Edge 23, Type (0, 0), BuildingBlock: XUDNAN_clean_linker_2, # of connection points: 2
#     Edge 24, Type (0, 0), BuildingBlock: XUDNAN_clean_linker_2, # of connection points: 2
#     Edge 25, Type (0, 0), BuildingBlock: XUDNAN_clean_linker_2, # of connection points: 2
#     Edge 26, Type (0, 0), BuildingBlock: XUDNAN_clean_linker_2, # of connection points: 2
#     Edge 27, Type (0, 0), BuildingBlock: XUDNAN_clean_linker_2, # of connection points: 2
#     Edge 28, Type (0, 0), BuildingBlock: XUDNAN_clean_linker_2, # of connection points: 2
#     Edge 29, Type (0, 0), BuildingBlock: XUDNAN_clean_linker_2, # of connection points: 2
#     Edge 30, Type (0, 0), BuildingBlock: XUDNAN_clean_linker_2, # of connection points: 2
#     Edge 31, Type (0, 0), BuildingBlock: XUDNAN_clean_linker_2, # of connection points: 2
#     Edge 32, Type (0, 0), BuildingBlock: XUDNAN_clean_linker_2, # of connection points: 2
#     Edge 33, Type (0, 0), BuildingBlock: XUDNAN_clean_linker_2, # of connection points: 2
#     Edge 34, Type (0, 0), BuildingBlock: XUDNAN_clean_linker_2, # of connection points: 2
#     Edge 35, Type (0, 0), BuildingBlock: XUDNAN_clean_linker_2, # of connection points: 2
#     Edge 36, Type (0, 0), BuildingBlock: XUDNAN_clean_linker_2, # of connection points: 2
#     Edge 37, Type (0, 0), BuildingBlock: XUDNAN_clean_linker_2, # of connection points: 2
#     Edge 38, Type (0, 0), BuildingBlock: XUDNAN_clean_linker_2, # of connection points: 2
#     Edge 39, Type (0, 0), BuildingBlock: XUDNAN_clean_linker_2, # of connection points: 2
#     Edge 40, Type (0, 0), BuildingBlock: XUDNAN_clean_linker_2, # of connection points: 2
#     Edge 41, Type (0, 0), BuildingBlock: XUDNAN_clean_linker_2, # of connection points: 2
# Relax obj value: 0.078
# Max RMSD: 0.117
# Mean RMSD: 0.117
data_MOF--net-wju--node1-XOMCOT_clean_sbu_1--edge1-XUDNAN_clean_linker_2
_symmetry_space_group_name_H-M    P1
_symmetry_Int_Tables_number       1
_symmetry_cell_setting            triclinic
loop_
_symmetry_equiv_pos_as_xyz
'x, y, z'
_cell_length_a     27.795086
_cell_length_b     27.849779
_cell_length_c     103.3553
_cell_angle_alpha  90.102458
_cell_angle_beta   89.904971
_cell_angle_gamma 119.92822
loop_
_atom_site_label
_atom_site_type_symbol
_atom_site_fract_x
_atom_site_fract_y
_atom_site_fract_z
_atom_type_partial_charge
C0 C 0.2786 0.17898 0.11876 0.0
C1 C 0.27578 0.17776 0.13202 0.0
N2 N 0.28938 0.14051 0.1364 0.0
N3 N 0.29396 0.14275 0.11456 0.0
C4 C 0.30017 0.11975 0.12555 0.0
H5 H 0.27194 0.20634 0.11255 0.0
Co6 Co 0.3075 0.13646 0.09682 0.0
C7 C 0.39988 0.11056 0.0985 0.0
O8 O 0.43313 0.15735 0.09269 0.0
N9 N 0.32043 0.13 0.07861 0.0
C10 C 0.3607 0.14232 0.05918 0.0
C11 C 0.36769 0.16069 0.07173 0.0
C12 C 0.2848 0.09383 0.06966 0.0
N13 N 0.30852 0.1004 0.05786 0.0
O14 O 0.23786 0.0683 0.09593 0.0
H15 H 0.40526 0.19566 0.07534 0.0
H16 H 0.24232 0.06274 0.07165 0.0
O17 O 0.34964 0.09756 0.10118 0.0
C18 C 0.20327 0.08549 0.09429 0.0
O19 O 0.22266 0.13895 0.09298 0.0
N20 N 0.36916 0.20774 0.09779 0.0
C21 C 0.42453 0.321 0.10309 0.0
C22 C 0.43527 0.28499 0.11046 0.0
C23 C 0.40679 0.22807 0.10768 0.0
C24 C 0.35959 0.24261 0.09041 0.0
C25 C 0.38748 0.29919 0.09271 0.0
H26 H 0.41111 0.20003 0.11416 0.0
H27 H 0.32649 0.22588 0.08335 0.0
H28 H 0.31333 0.08919 0.12555 0.0
H29 H 0.26655 0.20423 0.13793 0.0
H30 H 0.39117 0.15948 0.05149 0.0
H31 H 0.46304 0.30017 0.11869 0.0
H32 H 0.37633 0.32489 0.08705 0.0
C33 C 0.10554 0.29736 0.44746 0.0
C34 C 0.09026 0.29835 0.46004 0.0
N35 N 0.13448 0.31263 0.46773 0.0
N36 N 0.15945 0.31135 0.44705 0.0
C37 C 0.17597 0.31971 0.45962 0.0
H38 H 0.0793 0.28822 0.43905 0.0
Co39 Co 0.19552 0.31683 0.43118 0.0
C40 C 0.3077 0.4117 0.4407 0.0
O41 O 0.29824 0.44958 0.43583 0.0
N42 N 0.23132 0.32057 0.41491 0.0
C43 C 0.28866 0.35462 0.39801 0.0
C44 C 0.27879 0.36419 0.41049 0.0
C45 C 0.2133 0.28469 0.40471 0.0
N46 N 0.2472 0.30479 0.39424 0.0
O47 O 0.19042 0.24683 0.43509 0.0
H48 H 0.30391 0.40228 0.41561 0.0
H49 H 0.17455 0.24588 0.40464 0.0
O50 O 0.27143 0.35991 0.43949 0.0
C51 C 0.1423 0.21163 0.43076 0.0
O52 O 0.11437 0.23034 0.42429 0.0
N53 N 0.18948 0.3802 0.42682 0.0
C54 C 0.13818 0.44268 0.42109 0.0
C55 C 0.16451 0.44852 0.43304 0.0
C56 C 0.18906 0.41633 0.43579 0.0
C57 C 0.16529 0.37553 0.41504 0.0
C58 C 0.14031 0.40666 0.41194 0.0
H59 H 0.2045 0.41798 0.44546 0.0
H60 H 0.15995 0.34361 0.40832 0.0
H61 H 0.21781 0.33237 0.46272 0.0
H62 H 0.04953 0.2893 0.46329 0.0
H63 H 0.3234 0.38303 0.39209 0.0
H64 H 0.1639 0.47572 0.44046 0.0
H65 H 0.11887 0.39889 0.40277 0.0
C66 C 0.84033 0.12137 0.78449 0.0
C67 C 0.82942 0.11177 0.79753 0.0
N68 N 0.86327 0.15874 0.80404 0.0
N69 N 0.8808 0.17421 0.78269 0.0
C70 C 0.89415 0.1959 0.79476 0.0
H71 H 0.81973 0.09184 0.77677 0.0
Co72 Co 0.90987 0.20649 0.76652 0.0
C73 C 0.98195 0.3241 0.77619 0.0
O74 O 0.02623 0.3187 0.77574 0.0
N75 N 0.93926 0.23971 0.75012 0.0
C76 C 0.9592 0.29728 0.73345 0.0
C77 C 0.93934 0.28561 0.74587 0.0
C78 C 0.9585 0.22361 0.73984 0.0
N79 N 0.9712 0.25831 0.72959 0.0
O80 O 0.97728 0.20542 0.7708 0.0
H81 H 0.92349 0.30813 0.75121 0.0
H82 H 0.9621 0.18671 0.73973 0.0
O83 O 0.93434 0.28214 0.77357 0.0
C84 C 0.96674 0.15742 0.76681 0.0
O85 O 0.92015 0.12682 0.76051 0.0
N86 N 0.8406 0.19698 0.76188 0.0
C87 C 0.72745 0.14726 0.75616 0.0
C88 C 0.75053 0.18552 0.76641 0.0
C89 C 0.80772 0.21034 0.7691 0.0
C90 C 0.81888 0.16096 0.75178 0.0
C91 C 0.76295 0.13632 0.74867 0.0
H92 H 0.8247 0.23701 0.77745 0.0
H93 H 0.84438 0.14812 0.7466 0.0
H94 H 0.92638 0.23798 0.79672 0.0
H95 H 0.79814 0.07333 0.80182 0.0
H96 H 0.96208 0.33056 0.7275 0.0
H97 H 0.72446 0.19479 0.7725 0.0
H98 H 0.74707 0.10605 0.74093 0.0
C99 C 0.73187 0.959 0.11961 0.0
C100 C 0.73583 0.95868 0.13286 0.0
N101 N 0.72313 0.90739 0.13666 0.0
N102 N 0.71635 0.9081 0.11492 0.0
C103 C 0.71217 0.8778 0.12556 0.0
H104 H 0.73862 0.994 0.11376 0.0
Co105 Co 0.70132 0.88821 0.09732 0.0
C106 C 0.62375 0.93009 0.08942 0.0
O107 O 0.60469 0.89586 0.07955 0.0
N108 N 0.68722 0.86922 0.07936 0.0
C109 C 0.66438 0.82285 0.06068 0.0
C110 C 0.66037 0.81824 0.07391 0.0
C111 C 0.70702 0.90414 0.06905 0.0
N112 N 0.69383 0.87686 0.05759 0.0
O113 O 0.77306 0.95055 0.0928 0.0
H114 H 0.63973 0.77944 0.07905 0.0
H115 H 0.73202 0.94871 0.06993 0.0
O116 O 0.66194 0.93118 0.09658 0.0
C117 C 0.80234 0.92704 0.09143 0.0
O118 O 0.77829 0.87333 0.09321 0.0
N119 N 0.63689 0.82289 0.10208 0.0
C120 C 0.55851 0.71456 0.10833 0.0
C121 C 0.5426 0.75492 0.1072 0.0
C122 C 0.58306 0.80976 0.10417 0.0
C123 C 0.65243 0.78403 0.10376 0.0
C124 C 0.61415 0.72991 0.10687 0.0
H125 H 0.57077 0.84072 0.10347 0.0
H126 H 0.69515 0.79498 0.10243 0.0
H127 H 0.70102 0.83477 0.12523 0.0
H128 H 0.74541 0.99328 0.1392 0.0
H129 H 0.64718 0.78886 0.05384 0.0
H130 H 0.49961 0.74401 0.1084 0.0
H131 H 0.62776 0.69973 0.10776 0.0
C132 C 0.91434 0.7348 0.44887 0.0
C133 C 0.92686 0.73324 0.46167 0.0
N134 N 0.87898 0.70713 0.46836 0.0
N135 N 0.85884 0.71019 0.44748 0.0
C136 C 0.83821 0.6934 0.45955 0.0
H137 H 0.94388 0.75456 0.44111 0.0
Co138 Co 0.82593 0.71263 0.43199 0.0
C139 C 0.70938 0.6215 0.43311 0.0
O140 O 0.71875 0.60836 0.42153 0.0
N141 N 0.79286 0.71769 0.41618 0.0
C142 C 0.7373 0.73444 0.40376 0.0
C143 C 0.75095 0.72911 0.41622 0.0
C144 C 0.80458 0.71746 0.40341 0.0
N145 N 0.77115 0.72726 0.39567 0.0
O146 O 0.82949 0.78002 0.438 0.0
H147 H 0.73197 0.7343 0.42485 0.0
H148 H 0.8371 0.7109 0.39969 0.0
O149 O 0.74916 0.66291 0.4391 0.0
C150 C 0.87294 0.81814 0.43239 0.0
O151 O 0.89797 0.80351 0.42376 0.0
N152 N 0.83345 0.65319 0.42598 0.0
C153 C 0.88097 0.58831 0.41963 0.0
C154 C 0.83701 0.56912 0.42856 0.0
C155 C 0.81415 0.60266 0.43176 0.0
C156 C 0.87707 0.67258 0.41764 0.0
C157 C 0.90035 0.64055 0.41407 0.0
H158 H 0.78392 0.58966 0.43946 0.0
H159 H 0.8971 0.71517 0.41449 0.0
H160 H 0.79458 0.67415 0.46196 0.0
H161 H 0.968 0.75083 0.46581 0.0
H162 H 0.70607 0.74471 0.40091 0.0
H163 H 0.82203 0.52972 0.4334 0.0
H164 H 0.93611 0.65848 0.4077 0.0
C165 C 0.2324 0.91806 0.78023 0.0
C166 C 0.24741 0.93769 0.7926 0.0
N167 N 0.20703 0.90324 0.80077 0.0
N168 N 0.18317 0.87058 0.78044 0.0
C169 C 0.16817 0.86302 0.79309 0.0
H170 H 0.25597 0.93744 0.77157 0.0
Co171 Co 0.14711 0.83288 0.76519 0.0
C172 C 0.11828 0.72793 0.78239 0.0
O173 O 0.15637 0.75115 0.7914 0.0
N174 N 0.11099 0.79529 0.74967 0.0
C175 C 0.07986 0.73075 0.73425 0.0
C176 C 0.10192 0.74438 0.74644 0.0
C177 C 0.09465 0.81207 0.73903 0.0
N178 N 0.07537 0.77328 0.72951 0.0
O179 O 0.08489 0.84276 0.76993 0.0
H180 H 0.11326 0.71937 0.75225 0.0
H181 H 0.0983 0.85242 0.73811 0.0
O182 O 0.11444 0.75778 0.77344 0.0
C183 C 0.09754 0.89041 0.7653 0.0
O184 O 0.14264 0.91626 0.75819 0.0
N185 N 0.21225 0.83315 0.75984 0.0
C186 C 0.3254 0.88174 0.75395 0.0
C187 C 0.30244 0.84501 0.76443 0.0
C188 C 0.24547 0.82083 0.76719 0.0
C189 C 0.23338 0.86567 0.74914 0.0
C190 C 0.28936 0.88985 0.74597 0.0
H191 H 0.23001 0.79722 0.77593 0.0
H192 H 0.20816 0.8781 0.74374 0.0
H193 H 0.12899 0.8295 0.79655 0.0
H194 H 0.28562 0.97445 0.79533 0.0
H195 H 0.07068 0.69345 0.72901 0.0
H196 H 0.32867 0.83736 0.77084 0.0
H197 H 0.30491 0.91864 0.73795 0.0
C198 C 0.904 0.77846 0.58045 0.0
C199 C 0.90142 0.77963 0.56718 0.0
N200 N 0.90429 0.73613 0.56244 0.0
N201 N 0.90954 0.73503 0.58412 0.0
C202 C 0.9092 0.70965 0.57288 0.0
H203 H 0.90039 0.80666 0.58705 0.0
Co204 Co 0.9105 0.71672 0.60151 0.0
C205 C 0.93535 0.62508 0.60121 0.0
O206 O 0.89471 0.59863 0.60948 0.0
N207 N 0.91116 0.6991 0.61968 0.0
C208 C 0.8841 0.6644 0.63957 0.0
C209 C 0.86862 0.66035 0.62685 0.0
C210 C 0.95241 0.72579 0.62854 0.0
N211 N 0.93671 0.70597 0.6407 0.0
O212 O 0.98042 0.78389 0.60327 0.0
H213 H 0.82817 0.6303 0.62326 0.0
H214 H 0.99317 0.75983 0.62622 0.0
O215 O 0.94641 0.67266 0.59688 0.0
C216 C 0.97076 0.81945 0.60876 0.0
O217 O 0.92169 0.80208 0.61399 0.0
N218 N 0.83883 0.6579 0.59932 0.0
C219 C 0.72598 0.59657 0.59406 0.0
C220 C 0.76247 0.5806 0.58881 0.0
C221 C 0.81933 0.61231 0.5915 0.0
C222 C 0.80383 0.67456 0.60407 0.0
C223 C 0.74727 0.64399 0.60181 0.0
H224 H 0.8474 0.60179 0.58675 0.0
H225 H 0.82045 0.71281 0.60949 0.0
H226 H 0.9115 0.67205 0.57233 0.0
H227 H 0.89531 0.80871 0.56147 0.0
H228 H 0.8577 0.63985 0.64747 0.0
H229 H 0.74738 0.54487 0.58251 0.0
H230 H 0.72067 0.6587 0.60567 0.0
C231 C 0.12254 0.82959 0.91251 0.0
C232 C 0.12153 0.83092 0.89926 0.0
N233 N 0.17151 0.87083 0.89508 0.0
N234 N 0.17302 0.8683 0.91683 0.0
C235 C 0.20203 0.89324 0.90595 0.0
H236 H 0.08852 0.8016 0.91865 0.0
Co237 Co 0.19093 0.87705 0.93462 0.0
C238 C 0.30685 0.89701 0.93483 0.0
O239 O 0.28896 0.85347 0.9423 0.0
N240 N 0.20772 0.88571 0.95302 0.0
C241 C 0.22645 0.87226 0.97333 0.0
C242 C 0.21601 0.85174 0.96097 0.0
C243 C 0.21207 0.92618 0.96118 0.0
N244 N 0.22376 0.91896 0.97349 0.0
O245 O 0.19325 0.94712 0.9344 0.0
H246 H 0.21396 0.81338 0.95819 0.0
H247 H 0.20695 0.96057 0.95826 0.0
O248 O 0.27232 0.91121 0.93054 0.0
C249 C 0.14172 0.93254 0.9352 0.0
O250 O 0.1052 0.8796 0.93635 0.0
N251 N 0.17791 0.80463 0.93463 0.0
C252 C 0.11855 0.69071 0.93039 0.0
C253 C 0.16811 0.72427 0.92361 0.0
C254 C 0.1971 0.78163 0.92578 0.0
C255 C 0.13039 0.7723 0.94137 0.0
C256 C 0.10069 0.71549 0.93957 0.0
H257 H 0.23188 0.80781 0.91961 0.0
H258 H 0.11305 0.79137 0.94751 0.0
H259 H 0.2448 0.92641 0.90599 0.0
H260 H 0.08628 0.80492 0.89319 0.0
H261 H 0.23378 0.85337 0.98169 0.0
H262 H 0.1828 0.70681 0.91628 0.0
H263 H 0.06168 0.6919 0.94466 0.0
C264 C 0.29716 0.08932 0.25156 0.0
C265 C 0.29779 0.07345 0.23902 0.0
N266 N 0.29788 0.1117 0.23104 0.0
N267 N 0.29789 0.13808 0.25169 0.0
C268 C 0.29647 0.14985 0.23899 0.0
H269 H 0.29704 0.06701 0.26013 0.0
Co270 Co 0.29931 0.17379 0.26739 0.0
C271 C 0.37903 0.28072 0.25116 0.0
O272 O 0.39547 0.25822 0.2423 0.0
N273 N 0.30066 0.20957 0.28335 0.0
C274 C 0.33615 0.272 0.2992 0.0
C275 C 0.34454 0.25846 0.28699 0.0
C276 C 0.2662 0.19386 0.29381 0.0
N277 N 0.28691 0.2315 0.30359 0.0
O278 O 0.22829 0.16614 0.26276 0.0
H279 H 0.38204 0.28202 0.2814 0.0
H280 H 0.22743 0.15511 0.29438 0.0
O281 O 0.34341 0.2502 0.25976 0.0
C282 C 0.19333 0.11829 0.2673 0.0
O283 O 0.21259 0.09184 0.27415 0.0
N284 N 0.36295 0.17086 0.27266 0.0
C285 C 0.42624 0.12106 0.27876 0.0
C286 C 0.44101 0.15808 0.26832 0.0
C287 C 0.40881 0.18274 0.26543 0.0
C288 C 0.3502 0.13747 0.28324 0.0
C289 C 0.38134 0.11272 0.28652 0.0
H290 H 0.41792 0.20665 0.25674 0.0
H291 H 0.31224 0.12526 0.28852 0.0
H292 H 0.2956 0.18615 0.23562 0.0
H293 H 0.2983 0.03646 0.23601 0.0
H294 H 0.36565 0.30783 0.30468 0.0
H295 H 0.47541 0.1658 0.26206 0.0
H296 H 0.36725 0.08361 0.29448 0.0
C297 C 0.16395 0.26275 0.58015 0.0
C298 C 0.16474 0.26144 0.56687 0.0
N299 N 0.14631 0.29463 0.56225 0.0
N300 N 0.14471 0.29618 0.58407 0.0
C301 C 0.13414 0.31501 0.57295 0.0
H302 H 0.17732 0.24118 0.58661 0.0
Co303 Co 0.14247 0.31195 0.60165 0.0
C304 C 0.11517 0.40174 0.60225 0.0
O305 O 0.15725 0.42766 0.61017 0.0
N306 N 0.14063 0.32681 0.62007 0.0
C307 C 0.16547 0.3616 0.64006 0.0
C308 C 0.18173 0.36665 0.62738 0.0
C309 C 0.09955 0.29796 0.62888 0.0
N310 N 0.11388 0.31817 0.64107 0.0
O311 O 0.07439 0.24313 0.60307 0.0
H312 H 0.22142 0.3988 0.6239 0.0
H313 H 0.05975 0.26258 0.62648 0.0
O314 O 0.10376 0.35427 0.59768 0.0
C315 C 0.08727 0.20881 0.60791 0.0
O316 O 0.13734 0.22803 0.61269 0.0
N317 N 0.21296 0.37294 0.59965 0.0
C318 C 0.32511 0.43901 0.59412 0.0
C319 C 0.28616 0.45052 0.58846 0.0
C320 C 0.22969 0.41637 0.59127 0.0
C321 C 0.2504 0.36022 0.60471 0.0
C322 C 0.30665 0.39342 0.60236 0.0
H323 H 0.19964 0.42302 0.58617 0.0
H324 H 0.23607 0.32307 0.61043 0.0
H325 H 0.11963 0.34452 0.57273 0.0
H326 H 0.17788 0.23758 0.56111 0.0
H327 H 0.19046 0.38729 0.648 0.0
H328 H 0.29909 0.48449 0.58171 0.0
H329 H 0.33532 0.38199 0.60651 0.0
C330 C 0.91128 0.15446 0.91696 0.0
C331 C 0.91918 0.16319 0.90387 0.0
N332 N 0.86954 0.14581 0.89831 0.0
N333 N 0.85682 0.13189 0.91975 0.0
C334 C 0.83219 0.1271 0.90811 0.0
H335 H 0.94376 0.16662 0.92408 0.0
Co336 Co 0.83216 0.12279 0.937 0.0
C337 C 0.71068 0.07342 0.93657 0.0
O338 O 0.71725 0.10781 0.94598 0.0
N339 N 0.809 0.11387 0.95496 0.0
C340 C 0.79615 0.12878 0.97559 0.0
C341 C 0.81184 0.15205 0.96353 0.0
C342 C 0.79056 0.06733 0.96225 0.0
N343 N 0.78301 0.07534 0.97488 0.0
O344 O 0.84826 0.06281 0.93877 0.0
H345 H 0.82471 0.19464 0.96143 0.0
H346 H 0.78366 0.02839 0.95833 0.0
O347 O 0.75324 0.07382 0.93153 0.0
C348 C 0.89526 0.08655 0.94461 0.0
O349 O 0.91424 0.13748 0.94873 0.0
N350 N 0.82789 0.18712 0.93519 0.0
C351 C 0.85877 0.29664 0.92991 0.0
C352 C 0.81033 0.2533 0.92442 0.0
C353 C 0.79552 0.19822 0.92717 0.0
C354 C 0.87574 0.22917 0.94015 0.0
C355 C 0.89117 0.28387 0.93794 0.0
H356 H 0.76058 0.16524 0.92217 0.0
H357 H 0.90318 0.2201 0.94566 0.0
H358 H 0.78854 0.11336 0.90691 0.0
H359 H 0.95868 0.18326 0.89886 0.0
H360 H 0.79646 0.15063 0.98427 0.0
H361 H 0.78544 0.26191 0.91779 0.0
H362 H 0.93004 0.31603 0.94194 0.0
C363 C 0.70713 0.88742 0.25028 0.0
C364 C 0.71069 0.90005 0.23732 0.0
N365 N 0.70252 0.85537 0.23045 0.0
N366 N 0.69643 0.83491 0.25163 0.0
C367 C 0.69401 0.81642 0.2394 0.0
H368 H 0.7122 0.91481 0.25824 0.0
Co369 Co 0.69125 0.80036 0.26744 0.0
C370 C 0.6462 0.68371 0.25773 0.0
O371 O 0.69529 0.6883 0.25909 0.0
N372 N 0.6857 0.76499 0.28348 0.0
C373 C 0.64574 0.70859 0.3002 0.0
C374 C 0.63826 0.72117 0.28783 0.0
C375 C 0.72161 0.77837 0.29352 0.0
N376 N 0.69805 0.74475 0.30386 0.0
O377 O 0.75965 0.80143 0.26317 0.0
H378 H 0.59959 0.70087 0.28255 0.0
H379 H 0.76325 0.81359 0.29353 0.0
O380 O 0.6406 0.72604 0.25987 0.0
C381 C 0.79694 0.84909 0.26735 0.0
O382 O 0.78077 0.87899 0.27391 0.0
N383 N 0.63117 0.80956 0.27205 0.0
C384 C 0.56713 0.85879 0.27765 0.0
C385 C 0.55307 0.82138 0.26725 0.0
C386 C 0.58572 0.79682 0.26462 0.0
C387 C 0.64422 0.84445 0.28234 0.0
C388 C 0.6126 0.8689 0.28539 0.0
H389 H 0.57698 0.77099 0.25614 0.0
H390 H 0.68187 0.85656 0.28774 0.0
H391 H 0.68748 0.77566 0.23713 0.0
H392 H 0.71817 0.93904 0.23331 0.0
H393 H 0.61454 0.67584 0.30614 0.0
H394 H 0.51843 0.81263 0.261 0.0
H395 H 0.62611 0.89844 0.29328 0.0
H396 H 0.35231 0.05695 0.04145 0.0
H397 H 0.21048 0.0791 0.04738 0.0
H398 H 0.17438 0.03863 0.02565 0.0
H399 H 0.37233 0.0878 1.00786 0.0
H400 H 0.38966 0.03506 1.00404 0.0
H401 H 0.40382 0.06563 0.01994 0.0
H402 H 0.34616 0.96846 0.03029 0.0
H403 H 0.33254 0.93752 1.01444 0.0
H404 H 0.27563 0.92367 0.02509 0.0
H405 H 0.15823 1.00136 1.00228 0.0
H406 H 0.15523 0.95671 0.9812 0.0
H407 H 0.30395 0.95282 0.99163 0.0
C408 C 0.31341 0.05276 0.03817 0.0
C409 C 0.28409 0.07116 0.04599 0.0
C410 C 0.23316 0.0648 0.04151 0.0
C411 C 0.21274 0.04234 0.02917 0.0
C412 C 0.24333 0.02555 0.02155 0.0
C413 C 0.29195 0.02934 0.02605 0.0
C414 C 0.316 1.00636 0.01629 0.0
C415 C 0.37388 0.05141 1.01177 0.0
C416 C 0.31765 0.95601 0.02186 0.0
C417 C 0.27376 0.98951 1.00551 0.0
C418 C 0.23256 1.00167 1.00859 0.0
C419 C 0.19002 0.9912 0.99987 0.0
C420 C 0.18881 0.96634 0.98789 0.0
C421 C 0.22926 0.95135 0.98487 0.0
C422 C 0.27244 0.96372 0.99377 0.0
H423 H 0.285 0.36116 0.37161 0.0
H424 H 0.19245 0.19522 0.3874 0.0
H425 H 0.18529 0.1564 0.36537 0.0
H426 H 0.21093 0.33288 0.34108 0.0
H427 H 0.27281 0.37897 0.33217 0.0
H428 H 0.26662 0.39244 0.34897 0.0
H429 H 0.35856 0.3937 0.35402 0.0
H430 H 0.36508 0.38036 0.33726 0.0
H431 H 0.36568 0.33492 0.34958 0.0
H432 H 0.19483 0.13674 0.34108 0.0
H433 H 0.2207 0.13903 0.31798 0.0
H434 H 0.30569 0.31846 0.31887 0.0
C435 C 0.26323 0.31659 0.37053 0.0
C436 C 0.23969 0.28132 0.38135 0.0
C437 C 0.2106 0.22319 0.3793 0.0
C438 C 0.20648 0.20081 0.3668 0.0
C439 C 0.23115 0.23704 0.35639 0.0
C440 C 0.25866 0.29379 0.3582 0.0
C441 C 0.28337 0.3244 0.34567 0.0
C442 C 0.25683 0.35922 0.34174 0.0
C443 C 0.34692 0.36045 0.3467 0.0
C444 C 0.26674 0.27623 0.3365 0.0
C445 C 0.23623 0.226 0.34274 0.0
C446 C 0.21831 0.176 0.33614 0.0
C447 C 0.2329 0.17761 0.32297 0.0
C448 C 0.26549 0.22889 0.31655 0.0
C449 C 0.28129 0.27851 0.32345 0.0
H450 H 0.03855 0.3433 0.7139 0.0
H451 H 0.94469 0.16414 0.71599 0.0
H452 H 0.96863 0.15866 0.69306 0.0
H453 H 0.99986 0.35667 0.68196 0.0
H454 H 0.06698 0.41426 0.67784 0.0
H455 H 0.04383 0.40331 0.69441 0.0
H456 H 0.13219 0.40098 0.70137 0.0
H457 H 0.15593 0.41258 0.68485 0.0
H458 H 0.14913 0.35342 0.69353 0.0
H459 H 1.00018 0.17475 0.66903 0.0
H460 H 0.04367 0.21023 0.64754 0.0
H461 H 0.11612 0.3784 0.66189 0.0
C462 C 0.0231 0.30284 0.70956 0.0
C463 C 0.98951 0.25412 0.71673 0.0
C464 C 0.97085 0.20199 0.71073 0.0
C465 C 0.9839 0.19857 0.69767 0.0
C466 C 0.01604 0.24767 0.69079 0.0
C467 C 0.03595 0.29878 0.69665 0.0
C468 C 0.07004 0.34561 0.68735 0.0
C469 C 0.04358 0.3821 0.68527 0.0
C470 C 0.1304 0.38016 0.69206 0.0
C471 C 0.0662 0.31316 0.67526 0.0
C472 C 0.03461 0.25671 0.67733 0.0
C473 C 0.02513 0.2189 0.66738 0.0
C474 C 0.04955 0.23936 0.65517 0.0
C475 C 0.08345 0.29707 0.65304 0.0
C476 C 0.09095 0.33407 0.66323 0.0
H477 H 0.74938 0.08523 0.99927 0.0
H478 H 0.78519 0.97817 0.97539 0.0
H479 H 0.76599 0.91618 0.994 0.0
H480 H 0.81518 0.07403 0.02795 0.0
H481 H 0.76465 0.07466 0.0388 0.0
H482 H 0.77845 0.10955 0.02343 0.0
H483 H 0.67411 0.05244 0.01756 0.0
H484 H 0.65992 0.01756 0.03293 0.0
H485 H 0.63935 0.97785 0.01816 0.0
H486 H 0.74412 0.86603 1.01534 0.0
H487 H 0.72073 0.83138 0.03774 0.0
H488 H 0.70322 0.97275 0.04815 0.0
C489 C 0.75356 0.04904 0.99785 0.0
C490 C 0.76899 0.03715 0.98566 0.0
C491 C 0.77287 0.98843 0.98443 0.0
C492 C 0.76237 0.95293 0.99502 0.0
C493 C 0.74818 0.96654 1.00687 0.0
C494 C 0.74373 0.01341 1.00835 0.0
C495 C 0.72865 0.01906 0.02219 0.0
C496 C 0.77448 0.0725 0.02846 0.0
C497 C 0.67215 0.01657 0.02274 0.0
C498 C 0.72554 0.96809 0.0283 0.0
C499 C 0.73665 0.93825 0.01925 0.0
C500 C 0.73533 0.88908 0.02248 0.0
C501 C 0.72181 0.86962 0.03523 0.0
C502 C 0.71007 0.89927 0.0447 0.0
C503 C 0.71257 0.94953 0.04117 0.0
H504 H 0.64222 0.71668 0.32666 0.0
H505 H 0.8063 0.78147 0.31001 0.0
H506 H 0.84417 0.78328 0.33186 0.0
H507 H 0.68515 0.79633 0.35594 0.0
H508 H 0.63319 0.74116 0.36569 0.0
H509 H 0.62024 0.74571 0.3488 0.0
H510 H 0.60046 0.64528 0.34527 0.0
H511 H 0.61353 0.64047 0.36214 0.0
H512 H 0.65197 0.62733 0.34994 0.0
H513 H 0.86256 0.77454 0.35594 0.0
H514 H 0.86079 0.76232 0.37972 0.0
H515 H 0.68394 0.7031 0.37994 0.0
C516 C 0.68608 0.73087 0.32754 0.0
C517 C 0.72123 0.7484 0.31657 0.0
C518 C 0.77866 0.76802 0.31827 0.0
C519 C 0.80039 0.76887 0.33063 0.0
C520 C 0.7642 0.75039 0.34121 0.0
C521 C 0.7083 0.73222 0.33974 0.0
C522 C 0.6779 0.71517 0.35255 0.0
C523 C 0.65265 0.75179 0.35594 0.0
C524 C 0.63335 0.6534 0.35247 0.0
C525 C 0.72525 0.72624 0.36152 0.0
C526 C 0.77475 0.7463 0.35485 0.0
C527 C 0.82396 0.75895 0.36122 0.0
C528 C 0.82251 0.75151 0.37472 0.0
C529 C 0.77227 0.73192 0.38173 0.0
C530 C 0.72315 0.71884 0.37493 0.0
H531 H 1.00086 0.68821 0.71475 0.0
H532 H 0.11246 0.86582 0.71453 0.0
H533 H 0.09049 0.86881 0.69138 0.0
H534 H 0.03544 0.66092 0.68362 0.0
H535 H 0.96568 0.60764 0.67977 0.0
H536 H 0.98826 0.62048 0.69637 0.0
H537 H 0.90636 0.63606 0.70225 0.0
H538 H 0.88316 0.62267 0.68569 0.0
H539 H 0.89701 0.68648 0.69337 0.0
H540 H 0.05869 0.85 0.66753 0.0
H541 H 0.01454 0.8129 0.64625 0.0
H542 H 0.92581 0.64771 0.66259 0.0
C543 C 0.02064 0.72784 0.70987 0.0
C544 C 0.0586 0.77678 0.71647 0.0
C545 C 0.08288 0.82788 0.70973 0.0
C546 C 0.07095 0.82984 0.69655 0.0
C547 C 0.03439 0.78039 0.69026 0.0
C548 C 1.00918 0.73047 0.6968 0.0
C549 C 0.9716 0.68299 0.68798 0.0
C550 C 0.99146 0.64052 0.68687 0.0
C551 C 0.91094 0.65545 0.6926 0.0
C552 C 0.97966 0.7137 0.67538 0.0
C553 C 0.01614 0.76981 0.67681 0.0
C554 C 0.02999 0.80612 0.66636 0.0
C555 C 1.0051 0.78463 0.65427 0.0
C556 C 0.96657 0.72736 0.65272 0.0
C557 C 0.95454 0.69172 0.66345 0.0
H558 H 0.55005 0.94698 0.07519 0.0
H559 H 0.62791 0.97861 0.11298 0.0
H560 H 0.57128 0.01961 0.12022 0.0
H561 H 0.54517 0.07329 0.07334 0.0
H562 H 0.47943 0.04143 0.06502 0.0
H563 H 0.52521 0.01362 0.06316 0.0
H564 H 0.44601 0.91762 0.07061 0.0
H565 H 0.40034 0.94554 0.07274 0.0
H566 H 0.4129 0.91136 0.08602 0.0
H567 H 0.50497 0.05769 0.1233 0.0
H568 H 0.44441 0.09918 0.12098 0.0
H569 H 0.41177 0.04403 0.08116 0.0
C570 C 0.55539 0.96263 0.08499 0.0
C571 C 0.59357 0.9594 0.09351 0.0
C572 C 0.5993 0.98079 0.10622 0.0
C573 C 0.56688 1.00375 0.11047 0.0
C574 C 0.52894 1.00535 0.10188 0.0
C575 C 0.52372 0.98603 0.08934 0.0
C576 C 0.48185 0.99469 0.08181 0.0
C577 C 0.50958 0.03306 0.07015 0.0
C578 C 0.43235 0.93898 0.07755 0.0
C579 C 0.46454 0.02235 0.09201 0.0
C580 C 0.49148 0.02744 0.1036 0.0
C581 C 0.48331 0.05334 0.1143 0.0
C582 C 0.44834 0.07621 0.11297 0.0
C583 C 0.42204 0.07305 0.10105 0.0
C584 C 0.42979 0.04515 0.09053 0.0
H585 H 0.38683 0.3986 0.42814 0.0
H586 H 0.35994 0.47577 0.46159 0.0
H587 H 0.46152 0.53204 0.46496 0.0
H588 H 0.51765 0.40225 0.43971 0.0
H589 H 0.54746 0.41887 0.42371 0.0
H590 H 0.47332 0.37693 0.42569 0.0
H591 H 0.45998 0.44563 0.41138 0.0
H592 H 0.5339 0.48819 0.40953 0.0
H593 H 0.49396 0.51784 0.41583 0.0
H594 H 0.56743 0.58985 0.46275 0.0
H595 H 0.66545 0.64123 0.45531 0.0
H596 H 0.62196 0.52805 0.42286 0.0
C597 C 0.40239 0.42509 0.43658 0.0
C598 C 0.36546 0.43107 0.44495 0.0
C599 C 0.38747 0.469 0.45538 0.0
C600 C 0.4452 0.50149 0.4573 0.0
C601 C 0.48075 0.4962 0.44859 0.0
C602 C 0.46003 0.45846 0.43849 0.0
C603 C 0.50651 0.4652 0.42961 0.0
C604 C 0.51153 0.41269 0.42969 0.0
C605 C 0.49806 0.48011 0.41577 0.0
C606 C 0.55629 0.51336 0.43606 0.0
C607 C 0.54096 0.53041 0.44708 0.0
C608 C 0.57987 0.5762 0.45422 0.0
C609 C 0.63556 0.60528 0.44992 0.0
C610 C 0.65189 0.58892 0.43851 0.0
C611 C 0.61138 0.54182 0.43166 0.0
H612 H 0.14937 0.65266 0.7902 0.0
H613 H 0.0144 0.66247 0.77188 0.0
H614 H 0.96206 0.5601 0.76969 0.0
H615 H 0.14218 0.54698 0.76921 0.0
H616 H 0.16039 0.51331 0.78158 0.0
H617 H 0.18458 0.58639 0.78271 0.0
H618 H 0.14015 0.57187 0.80545 0.0
H619 H 0.11564 0.49865 0.80436 0.0
H620 H 0.06734 0.52267 0.8075 0.0
H621 H 0.92374 0.45454 0.76979 0.0
H622 H 0.90816 0.35897 0.76966 0.0
H623 H 0.07189 0.41893 0.78608 0.0
C624 C 0.10838 0.63325 0.78591 0.0
C625 C 0.08558 0.66588 0.78145 0.0
C626 C 0.03256 0.63862 0.77551 0.0
C627 C 1.00247 0.58035 0.77425 0.0
C628 C 0.0262 0.54947 0.77874 0.0
C629 C 0.0784 0.57522 0.78428 0.0
C630 C 0.09649 0.53318 0.78742 0.0
C631 C 0.14901 0.54572 0.77977 0.0
C632 C 0.10543 0.53151 0.80205 0.0
C633 C 0.04642 0.47967 0.78281 0.0
C634 C 1.00586 0.48975 0.77804 0.0
C635 C 0.95553 0.4465 0.77343 0.0
C636 C 0.94692 0.39207 0.77344 0.0
C637 C 0.98876 0.38088 0.77778 0.0
C638 C 0.03895 0.42567 0.78264 0.0
H639 H 0.13464 0.50294 0.61047 0.0
H640 H 0.02483 0.36542 0.58576 0.0
H641 H 0.97295 0.41416 0.58053 0.0
H642 H 0.03318 0.52699 0.62393 0.0
H643 H 0.07714 0.6012 0.62461 0.0
H644 H 0.10738 0.5573 0.62533 0.0
H645 H 0.16992 0.60911 0.60569 0.0
H646 H 0.13939 0.65291 0.60483 0.0
H647 H 0.13853 0.61376 0.59084 0.0
H648 H 0.92867 0.47569 0.57963 0.0
H649 H 0.89438 0.54112 0.58379 0.0
H650 H 0.03493 0.63817 0.60878 0.0
C651 C 0.10007 0.48298 0.60383 0.0
C652 C 0.0839 0.43014 0.59851 0.0
C653 C 0.03809 0.40579 0.58994 0.0
C654 C 1.00857 0.43336 0.58688 0.0
C655 C 0.02569 0.48538 0.59239 0.0
C656 C 0.07051 0.5098 0.60068 0.0
C657 C 0.07899 0.56427 0.60599 0.0
C658 C 0.07383 0.56228 0.62084 0.0
C659 C 0.13504 0.61288 0.60157 0.0
C660 C 0.0311 0.56646 0.59965 0.0
C661 C 1.00109 0.5209 0.59171 0.0
C662 C 0.9526 0.51196 0.58559 0.0
C663 C 0.93362 0.54951 0.58793 0.0
C664 C 0.96321 0.59559 0.59622 0.0
C665 C 0.01296 0.60457 0.60197 0.0
H666 H 0.62302 0.99336 0.94946 0.0
H667 H 0.66946 0.08214 0.91315 0.0
H668 H 0.56981 0.04572 0.90801 0.0
H669 H 0.49333 0.86954 0.93745 0.0
H670 H 0.45866 0.86278 0.95265 0.0
H671 H 0.53269 0.89052 0.95227 0.0
H672 H 0.54613 0.97799 0.96435 0.0
H673 H 0.4724 0.95137 0.96446 0.0
H674 H 0.51809 0.0183 0.95747 0.0
H675 H 0.4628 0.00846 0.90868 0.0
H676 H 0.36179 0.96431 0.91367 0.0
H677 H 0.38915 0.89922 0.94925 0.0
C678 C 0.612 1.00303 0.94016 0.0
C679 C 0.65367 0.03918 0.93152 0.0
C680 C 0.63799 0.05295 0.91968 0.0
C681 C 0.58148 0.03298 0.91678 0.0
C682 C 0.54124 0.99887 0.92578 0.0
C683 C 0.55608 0.98296 0.93708 0.0
C684 C 0.50596 0.94799 0.94548 0.0
C685 C 0.49714 0.88922 0.94705 0.0
C686 C 0.51098 0.97559 0.95871 0.0
C687 C 0.46056 0.94769 0.93737 0.0
C688 C 0.48119 0.97728 0.92604 0.0
C689 C 0.44634 0.98447 0.91744 0.0
C690 C 0.3891 0.95971 0.92039 0.0
C691 C 0.36734 0.9279 0.93179 0.0
C692 C 0.40408 0.92256 0.94034 0.0
H693 H 0.486 0.3557 0.24393 0.0
H694 H 0.33958 0.3461 0.26138 0.0
H695 H 0.3895 0.44855 0.26351 0.0
H696 H 0.58263 0.46151 0.2651 0.0
H697 H 0.63553 0.4948 0.2529 0.0
H698 H 0.58666 0.42173 0.25179 0.0
H699 H 0.55874 0.43582 0.22881 0.0
H700 H 0.60739 0.50904 0.22988 0.0
H701 H 0.53536 0.485 0.22641 0.0
H702 H 0.45687 0.55421 0.26332 0.0
H703 H 0.53705 0.64966 0.26357 0.0
H704 H 0.64193 0.58894 0.2481 0.0
C705 C 0.46406 0.37514 0.24803 0.0
C706 C 0.40825 0.34263 0.25225 0.0
C707 C 0.38194 0.36991 0.25794 0.0
C708 C 0.41004 0.4282 0.25915 0.0
C709 C 0.46503 0.45897 0.25487 0.0
C710 C 0.49196 0.43311 0.2496 0.0
C711 C 0.55231 0.47494 0.24664 0.0
C712 C 0.59159 0.4625 0.25458 0.0
C713 C 0.56413 0.47626 0.23207 0.0
C714 C 0.55538 0.52851 0.25104 0.0
C715 C 0.50436 0.51865 0.25553 0.0
C716 C 0.49697 0.56206 0.2599 0.0
C717 C 0.54288 0.61641 0.25995 0.0
C718 C 0.59624 0.62727 0.25592 0.0
C719 C 0.60196 0.58237 0.25128 0.0
H720 H 0.25523 0.15332 0.2132 0.0
H721 H 0.35307 0.07212 0.21708 0.0
H722 H 0.36013 0.06926 0.19338 0.0
H723 H 0.17828 0.07667 0.18507 0.0
H724 H 0.17803 0.13489 0.17755 0.0
H725 H 0.18116 0.13156 0.19491 0.0
H726 H 0.27101 0.22739 0.19516 0.0
H727 H 0.26802 0.23106 0.1778 0.0
H728 H 0.32948 0.23812 0.18544 0.0
H729 H 0.35708 0.0751 0.16909 0.0
H730 H 0.34484 0.09043 0.14614 0.0
H731 H 0.2466 0.16523 0.15774 0.0
C732 C 0.27845 0.13536 0.20904 0.0
C733 C 0.30321 0.11255 0.21708 0.0
C734 C 0.33289 0.08901 0.2112 0.0
C735 C 0.33743 0.08743 0.19771 0.0
C736 C 0.31198 0.10946 0.19007 0.0
C737 C 0.28307 0.13302 0.1955 0.0
C738 C 0.25913 0.15312 0.18501 0.0
C739 C 0.19536 0.1222 0.18568 0.0
C740 C 0.28337 0.21617 0.18591 0.0
C741 C 0.27934 0.13738 0.1729 0.0
C742 C 0.30978 0.11229 0.17604 0.0
C743 C 0.33311 0.09459 0.16651 0.0
C744 C 0.32559 0.1032 0.15344 0.0
C745 C 0.2948 0.12923 0.1499 0.0
C746 C 0.27105 0.14592 0.15991 0.0
H747 H 0.19218 0.28971 0.48582 0.0
H748 H 0.0789 0.35299 0.48117 0.0
H749 H 0.07282 0.35897 0.50485 0.0
H750 H 0.12503 0.20492 0.51297 0.0
H751 H 0.18773 0.2182 0.52115 0.0
H752 H 0.1869 0.22272 0.50378 0.0
H753 H 0.26977 0.32316 0.50467 0.0
H754 H 0.27108 0.3188 0.52205 0.0
H755 H 0.26486 0.37388 0.51458 0.0
H756 H 0.07423 0.35297 0.52909 0.0
H757 H 0.08409 0.33632 0.5521 0.0
H758 H 0.19786 0.27857 0.54134 0.0
C759 C 0.167 0.30579 0.48981 0.0
C760 C 0.13583 0.32067 0.4816 0.0
C761 C 0.10261 0.34069 0.48723 0.0
C762 C 0.09909 0.34453 0.50069 0.0
C763 C 0.12917 0.32833 0.50852 0.0
C764 C 0.16277 0.30964 0.50332 0.0
C765 C 0.18886 0.29275 0.51399 0.0
C766 C 0.17105 0.23098 0.5129 0.0
C767 C 0.25242 0.32934 0.51381 0.0
C768 C 0.16398 0.30407 0.52592 0.0
C769 C 0.12995 0.3249 0.52255 0.0
C770 C 0.10124 0.33715 0.53186 0.0
C771 C 0.1073 0.32772 0.54496 0.0
C772 C 0.14173 0.30604 0.54873 0.0
C773 C 0.17067 0.29458 0.53896 0.0
H774 H 0.82924 0.08008 0.82306 0.0
H775 H 0.90105 0.25687 0.81678 0.0
H776 H 0.90377 0.27148 0.84037 0.0
H777 H 0.74242 0.07038 0.85061 0.0
H778 H 0.75348 0.01982 0.8589 0.0
H779 H 0.75541 0.0228 0.84148 0.0
H780 H 0.85382 0.03429 0.8416 0.0
H781 H 0.85203 0.03098 0.859 0.0
H782 H 0.90805 0.08954 0.85092 0.0
H783 H 0.90195 0.26748 0.86476 0.0
H784 H 0.89938 0.24511 0.88806 0.0
H785 H 0.82695 0.07128 0.87869 0.0
C786 C 0.84489 0.12186 0.82659 0.0
C787 C 0.8649 0.16732 0.81792 0.0
C788 C 0.88604 0.22134 0.8231 0.0
C789 C 0.8873 0.23003 0.83653 0.0
C790 C 0.8671 0.18432 0.84475 0.0
C791 C 0.8464 0.13128 0.83998 0.0
C792 C 0.82909 0.08946 0.85092 0.0
C793 C 0.76637 0.04818 0.85044 0.0
C794 C 0.86277 0.05931 0.85059 0.0
C795 C 0.84403 0.12735 0.8626 0.0
C796 C 0.86549 0.1819 0.85881 0.0
C797 C 0.88457 0.22486 0.86782 0.0
C798 C 0.88275 0.21189 0.881 0.0
C799 C 0.86182 0.15654 0.88509 0.0
C800 C 0.8416 0.11368 0.87578 0.0
H801 H 0.76895 0.9696 0.15841 0.0
H802 H 0.66477 0.80025 0.14516 0.0
H803 H 0.65222 0.76774 0.16773 0.0
H804 H 0.83476 0.93947 0.18504 0.0
H805 H 0.83423 0.99123 0.19544 0.0
H806 H 0.83829 1.00058 0.17815 0.0
H807 H 0.75126 0.01192 0.17874 0.0
H808 H 0.74685 1.00248 0.19602 0.0
H809 H 0.68813 0.95839 0.18598 0.0
H810 H 0.64719 0.7541 0.19213 0.0
H811 H 0.64965 0.7611 0.21599 0.0
H812 H 0.75573 0.93938 0.21309 0.0
C813 C 0.74349 0.92564 0.16017 0.0
C814 C 0.71808 0.8877 0.14984 0.0
C815 C 0.68556 0.83038 0.15275 0.0
C816 C 0.67787 0.81142 0.1656 0.0
C817 C 0.70291 0.85012 0.1755 0.0
C818 C 0.73515 0.90604 0.17291 0.0
C819 C 0.75583 0.93945 0.18529 0.0
C820 C 0.81956 0.96944 0.18602 0.0
C821 C 0.73421 0.98047 0.18658 0.0
C822 C 0.7296 0.8937 0.19527 0.0
C823 C 0.69956 0.84239 0.18946 0.0
C824 C 0.67092 0.79409 0.19676 0.0
C825 C 0.67276 0.79845 0.21034 0.0
C826 C 0.70278 0.85077 0.2165 0.0
C827 C 0.73184 0.89879 0.20876 0.0
H828 H 0.93776 0.78459 0.48645 0.0
H829 H 0.80841 0.61396 0.48145 0.0
H830 H 0.80373 0.60058 0.5053 0.0
H831 H 1.00791 0.76553 0.51333 0.0
H832 H 0.02148 0.82851 0.5214 0.0
H833 H 0.01552 0.82363 0.50403 0.0
H834 H 0.93805 0.84956 0.50486 0.0
H835 H 0.94415 0.85505 0.52221 0.0
H836 H 0.87782 0.80964 0.51487 0.0
H837 H 0.81727 0.60594 0.52991 0.0
H838 H 0.83788 0.63271 0.55304 0.0
H839 H 0.95305 0.80163 0.5417 0.0
C840 C 0.9086 0.74443 0.49042 0.0
C841 C 0.87376 0.70002 0.48219 0.0
C842 C 0.8353 0.64832 0.48766 0.0
C843 C 0.83271 0.64039 0.50115 0.0
C844 C 0.86821 0.68496 0.50902 0.0
C845 C 0.90466 0.73627 0.50383 0.0
C846 C 0.93626 0.77834 0.51434 0.0
C847 C 0.99901 0.80028 0.5132 0.0
C848 C 0.92327 0.82595 0.51405 0.0
C849 C 0.91227 0.74276 0.52628 0.0
C850 C 0.87375 0.68876 0.52305 0.0
C851 C 0.8471 0.64818 0.53252 0.0
C852 C 0.8593 0.66354 0.54561 0.0
C853 C 0.89697 0.71912 0.54908 0.0
C854 C 0.92396 0.75892 0.53926 0.0
H855 H 0.13253 0.80308 0.87405 0.0
H856 H 0.2452 0.97276 0.88569 0.0
H857 H 0.26588 0.99962 0.86265 0.0
H858 H 0.21348 0.80084 0.84674 0.0
H859 H 0.15324 0.7581 0.83699 0.0
H860 H 0.14882 0.75239 0.85436 0.0
H861 H 0.06681 0.77172 0.85412 0.0
H862 H 0.07129 0.77797 0.83676 0.0
H863 H 0.07562 0.83377 0.84649 0.0
H864 H 0.27007 0.00854 0.83832 0.0
H865 H 0.26396 0.99847 0.81467 0.0
H866 H 0.14994 0.82189 0.81874 0.0
C867 C 0.16153 0.84595 0.87178 0.0
C868 C 0.18706 0.88597 0.88172 0.0
C869 C 0.22552 0.94137 0.87828 0.0
C870 C 0.23716 0.95701 0.86522 0.0
C871 C 0.21036 0.91666 0.85569 0.0
C872 C 0.17381 0.86213 0.85881 0.0
C873 C 0.15076 0.82671 0.84674 0.0
C874 C 0.1676 0.78187 0.84618 0.0
C875 C 0.08736 0.80104 0.84599 0.0
C876 C 0.17967 0.86995 0.83629 0.0
C877 C 0.21369 0.92155 0.84168 0.0
C878 C 0.24409 0.96819 0.83402 0.0
C879 C 0.24049 0.96188 0.82053 0.0
C880 C 0.20701 0.90918 0.8147 0.0
C881 C 0.17573 0.86277 0.82279 0.0
H882 H 0.52288 0.63727 0.08974 0.0
H883 H 0.51327 0.65956 0.1309 0.0
H884 H 0.47548 0.55878 0.1343 0.0
H885 H 0.39929 0.49453 0.08687 0.0
H886 H 0.43475 0.47507 0.07519 0.0
H887 H 0.44968 0.54582 0.07608 0.0
H888 H 0.55396 0.57761 0.079 0.0
H889 H 0.53928 0.507 0.07862 0.0
H890 H 0.57523 0.55057 0.09227 0.0
H891 H 0.45059 0.45746 0.13321 0.0
H892 H 0.43032 0.36276 0.12752 0.0
H893 H 0.46378 0.41103 0.08717 0.0
C894 C 0.50985 0.6202 0.09936 0.0
C895 C 0.51889 0.65524 0.11003 0.0
C896 C 0.5045 0.63261 0.1226 0.0
C897 C 0.48381 0.5757 0.12461 0.0
C898 C 0.47828 0.54259 0.11392 0.0
C899 C 0.49002 0.56398 0.10151 0.0
C900 C 0.48589 0.52149 0.09178 0.0
C901 C 0.43963 0.50844 0.0819 0.0
C902 C 0.54192 0.54032 0.08503 0.0
C903 C 0.47077 0.47296 0.10064 0.0
C904 C 0.46634 0.4856 0.11337 0.0
C905 C 0.45355 0.44706 0.12326 0.0
C906 C 0.44294 0.39365 0.11996 0.0
C907 C 0.44554 0.37954 0.1069 0.0
C908 C 0.46101 0.42038 0.09723 0.0
H909 H 0.07157 0.45936 0.43826 0.0
H910 H 0.12535 0.48447 0.39812 0.0
H911 H 0.05879 0.51587 0.39318 0.0
H912 H 0.92829 0.41162 0.43275 0.0
H913 H 0.92056 0.4483 0.44625 0.0
H914 H 0.97189 0.42686 0.44681 0.0
H915 H 0.04926 0.52799 0.45118 0.0
H916 H 0.99799 0.54949 0.45092 0.0
H917 H 0.05736 0.58215 0.44033 0.0
H918 H 0.98465 0.54141 0.39233 0.0
H919 H 0.91767 0.57345 0.39626 0.0
H920 H 0.91585 0.53777 0.43718 0.0
C921 C 0.07026 0.47242 0.42847 0.0
C922 C 0.10352 0.46875 0.41855 0.0
C923 C 0.09966 0.48573 0.40585 0.0
C924 C 0.06196 0.50369 0.40293 0.0
C925 C 0.02873 0.50513 0.41285 0.0
C926 C 0.03326 0.49109 0.42541 0.0
C927 C 0.99407 0.49851 0.43434 0.0
C928 C 0.95117 0.44301 0.44039 0.0
C929 C 0.02661 0.54214 0.44481 0.0
C930 C 0.96693 0.51903 0.42482 0.0
C931 C 0.98705 0.52173 0.41245 0.0
C932 C 0.96885 0.53986 0.40199 0.0
C933 C 0.93074 0.55786 0.40432 0.0
C934 C 0.91166 0.55831 0.41703 0.0
C935 C 0.92896 0.53716 0.42734 0.0
H936 H 0.40764 0.93351 0.77241 0.0
H937 H 0.38188 0.91007 0.73092 0.0
H938 H 0.47992 0.97995 0.72723 0.0
H939 H 0.50029 0.07839 0.77209 0.0
H940 H 0.54506 0.07846 0.7847 0.0
H941 H 0.47298 0.02536 0.78437 0.0
H942 H 0.50043 0.94912 0.78417 0.0
H943 H 0.57256 1.00195 0.7848 0.0
H944 H 0.54801 0.95106 0.77203 0.0
H945 H 0.57819 0.05637 0.72784 0.0
H946 H 0.67581 0.12417 0.73268 0.0
H947 H 0.64144 0.09533 0.77379 0.0
C948 C 0.42288 0.94204 0.76256 0.0
C949 C 0.38661 0.91645 0.75194 0.0
C950 C 0.40838 0.92961 0.73921 0.0
C951 C 0.46408 0.96933 0.737 0.0
C952 C 0.498 0.99527 0.74763 0.0
C953 C 0.47875 0.9814 0.76017 0.0
C954 C 0.52465 0.01509 0.76983 0.0
C955 C 0.50983 0.05148 0.77824 0.0
C956 C 0.53716 0.97704 0.7782 0.0
C957 C 0.57251 0.05017 0.76074 0.0
C958 C 0.55578 0.03837 0.74799 0.0
C959 C 0.59199 0.06546 0.73778 0.0
C960 C 0.64738 0.10401 0.74064 0.0
C961 C 0.66657 0.11485 0.7536 0.0
C962 C 0.62807 0.08846 0.76379 0.0
H963 H 0.64155 0.5623 0.61123 0.0
H964 H 0.67633 0.56638 0.57022 0.0
H965 H 0.57675 0.53102 0.56537 0.0
H966 H 0.50653 0.43773 0.6108 0.0
H967 H 0.479 0.46404 0.62294 0.0
H968 H 0.55193 0.48629 0.62278 0.0
H969 H 0.57445 0.58854 0.6218 0.0
H970 H 0.50155 0.56652 0.62161 0.0
H971 H 0.54617 0.61026 0.60887 0.0
H972 H 0.47318 0.49935 0.56529 0.0
H973 H 0.37336 0.46294 0.5701 0.0
H974 H 0.41031 0.48366 0.61112 0.0
C975 C 0.62801 0.55501 0.60123 0.0
C976 C 0.66616 0.56683 0.59108 0.0
C977 C 0.64728 0.55679 0.57812 0.0
C978 C 0.59109 0.53739 0.57529 0.0
C979 C 0.55486 0.52828 0.58556 0.0
C980 C 0.57259 0.53599 0.59827 0.0
C981 C 0.52604 0.52351 0.60761 0.0
C982 C 0.51523 0.475 0.61656 0.0
C983 C 0.53778 0.5753 0.61543 0.0
C984 C 0.47907 0.50749 0.59819 0.0
C985 C 0.49627 0.51078 0.5855 0.0
C986 C 0.45931 0.4967 0.57518 0.0
C987 C 0.40298 0.47671 0.57798 0.0
C988 C 0.38468 0.47093 0.59096 0.0
C989 C 0.42351 0.488 0.60112 0.0
H990 H 0.05927 0.60637 0.94731 0.0
H991 H 0.09296 0.64113 0.90635 0.0
H992 H 0.0206 0.54476 0.90127 0.0
H993 H 0.03155 0.46725 0.94691 0.0
H994 H 0.97722 0.44479 0.95885 0.0
H995 H 0.03297 0.51546 0.95878 0.0
H996 H 0.96058 0.54828 0.95734 0.0
H997 H 0.90467 0.47748 0.957 0.0
H998 H 0.9114 0.52433 0.9442 0.0
H999 H 0.94453 0.44269 0.90099 0.0
H1000 H 0.88028 0.34341 0.90579 0.0
H1001 H 0.8914 0.38161 0.94668 0.0
C1002 C 0.05153 0.5939 0.93724 0.0
C1003 C 0.0817 0.63133 0.92723 0.0
C1004 C 0.07091 0.61293 0.91421 0.0
C1005 C 0.0293 0.55856 0.91122 0.0
C1006 C 0.99864 0.52357 0.92136 0.0
C1007 C 1.00972 0.54061 0.93411 0.0
C1008 C 0.97181 0.49552 0.94332 0.0
C1009 C 1.00539 0.47982 0.95249 0.0
C1010 C 0.93494 0.51244 0.95091 0.0
C1011 C 0.93814 0.44976 0.93381 0.0
C1012 C 0.95375 0.4665 0.92116 0.0
C1013 C 0.93136 0.42941 0.91084 0.0
C1014 C 0.89438 0.3733 0.91361 0.0
C1015 C 0.88058 0.35539 0.92658 0.0
C1016 C 0.90062 0.39463 0.93667 0.0
H1017 H 0.53394 0.91058 0.25984 0.0
H1018 H 0.53705 0.88185 0.30102 0.0
H1019 H 0.50563 0.94866 0.30561 0.0
H1020 H 0.58278 0.05413 0.26151 0.0
H1021 H 0.53775 0.05528 0.24913 0.0
H1022 H 0.55787 1.00301 0.24877 0.0
H1023 H 0.45464 0.92561 0.24862 0.0
H1024 H 0.4342 0.97767 0.24869 0.0
H1025 H 0.40851 0.92486 0.26101 0.0
H1026 H 0.48169 0.02377 0.30597 0.0
H1027 H 0.45245 0.09265 0.30199 0.0
H1028 H 0.45892 0.06995 0.26057 0.0
C1029 C 0.52664 0.91728 0.2698 0.0
C1030 C 0.53848 0.89118 0.28008 0.0
C1031 C 0.52906 0.90182 0.29299 0.0
C1032 C 0.51124 0.93977 0.29571 0.0
C1033 C 0.50222 0.96646 0.28541 0.0
C1034 C 0.50835 0.95492 0.2727 0.0
C1035 C 0.4955 0.98952 0.26349 0.0
C1036 C 0.54653 0.02774 0.25524 0.0
C1037 C 0.44522 0.95219 0.25495 0.0
C1038 C 0.48189 0.02261 0.27303 0.0
C1039 C 0.48653 0.00886 0.28562 0.0
C1040 C 0.47709 0.03431 0.29615 0.0
C1041 C 0.46049 0.07345 0.29378 0.0
C1042 C 0.45282 0.08658 0.28098 0.0
C1043 C 0.46488 0.06144 0.27047 0.0
H1044 H 0.12549 0.10023 0.10638 0.0
H1045 H 0.14523 0.99175 0.07948 0.0
H1046 H 0.04479 0.94633 0.0742 0.0
H1047 H 0.98785 0.99564 0.11829 0.0
H1048 H 0.96512 0.04565 0.12006 0.0
H1049 H 0.03751 0.06701 0.12181 0.0
H1050 H 0.06125 0.1416 0.10418 0.0
H1051 H 0.98873 0.11917 0.10205 0.0
H1052 H 0.03 0.1209 0.0884 0.0
H1053 H 0.94441 0.91841 0.07075 0.0
H1054 H 0.84654 0.89452 0.07269 0.0
H1055 H 0.89084 0.01885 0.10259 0.0
C1056 C 0.10824 0.06592 0.0996 0.0
C1057 C 0.14268 0.04897 0.09338 0.0
C1058 C 0.11921 1.00451 0.08449 0.0
C1059 C 0.06248 0.97918 0.08132 0.0
C1060 C 0.03012 0.99855 0.08726 0.0
C1061 C 0.0518 0.03979 0.0965 0.0
C1062 C 1.00791 0.0519 0.10177 0.0
C1063 C 0.99906 0.03927 0.11634 0.0
C1064 C 0.0229 0.11197 0.09893 0.0
C1065 C 0.95784 0.0112 0.09398 0.0
C1066 C 0.97198 0.9816 0.08551 0.0
C1067 C 0.93295 0.94117 0.07738 0.0
C1068 C 0.87758 0.92836 0.07845 0.0
C1069 C 0.86138 0.95548 0.08764 0.0
C1070 C 0.90232 0.99871 0.09522 0.0
H1071 H 0.07928 0.12906 0.41431 0.0
H1072 H 0.13503 0.16021 0.4541 0.0
H1073 H 0.06496 0.06295 0.4597 0.0
H1074 H 0.93749 0.04848 0.42057 0.0
H1075 H 0.92302 1.00139 0.40724 0.0
H1076 H 0.98032 0.07127 0.40626 0.0
H1077 H 0.04888 0.0355 0.4018 0.0
H1078 H 0.99145 0.96561 0.40224 0.0
H1079 H 0.05044 0.98568 0.41265 0.0
H1080 H 0.9818 0.96131 0.4608 0.0
H1081 H 0.90761 0.86424 0.45652 0.0
H1082 H 0.90824 0.90412 0.41606 0.0
C1083 C 0.07787 0.11493 0.42414 0.0
C1084 C 0.11311 0.1517 0.43374 0.0
C1085 C 0.10939 0.13216 0.44654 0.0
C1086 C 0.06906 0.07728 0.44982 0.0
C1087 C 0.03311 0.04273 0.44017 0.0
C1088 C 0.03829 0.06078 0.42752 0.0
C1089 C 0.99522 0.01661 0.41882 0.0
C1090 C 0.95676 0.0356 0.41288 0.0
C1091 C 0.02316 0.99984 0.40826 0.0
C1092 C 0.96443 0.97053 0.42848 0.0
C1093 C 0.98618 0.9861 0.4408 0.0
C1094 C 0.96451 0.94906 0.45118 0.0
C1095 C 0.92165 0.89428 0.44874 0.0
C1096 C 0.90123 0.87729 0.43603 0.0
C1097 C 0.92203 0.9165 0.42593 0.0
H1098 H 1.0114 0.117 0.74973 0.0
H1099 H 0.98958 0.13111 0.79073 0.0
H1100 H 0.01609 0.05961 0.79515 0.0
H1101 H 0.95457 0.97493 0.74853 0.0
H1102 H 1.00251 0.97443 0.73684 0.0
H1103 H 0.9882 0.03074 0.73705 0.0
H1104 H 0.09279 0.10205 0.73971 0.0
H1105 H 0.10769 0.04614 0.73901 0.0
H1106 H 0.13146 0.09321 0.75256 0.0
H1107 H 0.03533 0.97673 0.79446 0.0
H1108 H 0.06169 0.90567 0.78911 0.0
H1109 H 0.07217 0.94922 0.74861 0.0
C1110 C 0.0147 0.10684 0.75968 0.0
C1111 C 1.00026 0.13096 0.76992 0.0
C1112 C 1.00264 0.11482 0.78278 0.0
C1113 C 0.01668 0.07344 0.78534 0.0
C1114 C 0.02853 0.04878 0.77492 0.0
C1115 C 0.02912 0.06623 0.76237 0.0
C1116 C 0.04221 0.03307 0.75278 0.0
C1117 C 0.99399 1.00144 0.74324 0.0
C1118 C 0.09679 0.07086 0.7456 0.0
C1119 C 0.04825 0.99358 0.76181 0.0
C1120 C 0.03966 1.00253 0.77455 0.0
C1121 C 0.04239 0.96984 0.7845 0.0
C1122 C 0.05648 0.92888 0.78138 0.0
C1123 C 0.06803 0.92122 0.76843 0.0
C1124 C 0.06279 0.95354 0.75858 0.0
H1125 H 0.99952 0.90093 0.62644 0.0
H1126 H 0.01301 0.87199 0.58576 0.0
H1127 H 0.03526 0.96794 0.58082 0.0
H1128 H 0.9361 0.97896 0.62358 0.0
H1129 H 0.97389 0.02811 0.63622 0.0
H1130 H 0.96455 0.95938 0.63688 0.0
H1131 H 0.07085 0.99879 0.63817 0.0
H1132 H 0.08038 0.06767 0.63819 0.0
H1133 H 0.11543 0.04859 0.6263 0.0
H1134 H 0.04154 0.0626 0.58021 0.0
H1135 H 0.05995 0.15789 0.58448 0.0
H1136 H 0.05005 0.1267 0.62569 0.0
C1137 C 1.00967 0.91571 0.61657 0.0
C1138 C 1.00489 0.87941 0.60647 0.0
C1139 C 0.01727 0.89952 0.59364 0.0
C1140 C 0.02903 0.95364 0.59073 0.0
C1141 C 0.02964 0.98725 0.60084 0.0
C1142 C 0.02276 0.96984 0.61357 0.0
C1143 C 0.02639 0.01409 0.6227 0.0
C1144 C 0.97199 0.99389 0.63029 0.0
C1145 C 0.07624 0.03346 0.63188 0.0
C1146 C 0.03521 0.0588 0.61313 0.0
C1147 C 0.03576 0.04218 0.60054 0.0
C1148 C 0.04186 0.07623 0.59004 0.0
C1149 C 0.05124 0.12988 0.59253 0.0
C1150 C 0.05537 0.149 0.60539 0.0
C1151 C 0.04571 0.11247 0.61577 0.0
H1152 H 0.89738 1.00256 0.93017 0.0
H1153 H 0.98128 0.12107 0.96112 0.0
H1154 H 0.05815 0.10178 0.96033 0.0
H1155 H 0.93854 0.90295 0.94183 0.0
H1156 H 0.94625 0.88295 0.9257 0.0
H1157 H 0.89717 0.90596 0.92878 0.0
H1158 H 0.94444 0.98056 0.91095 0.0
H1159 H 0.99467 0.95878 0.90811 0.0
H1160 H 0.01758 0.02999 0.91212 0.0
H1161 H 0.13022 0.07587 0.95526 0.0
H1162 H 0.18225 0.0279 0.94956 0.0
H1163 H 0.05063 0.92179 0.92314 0.0
C1164 C 0.93128 0.02338 0.93696 0.0
C1165 C 0.93336 0.0638 0.94559 0.0
C1166 C 0.97881 0.09036 0.95429 0.0
C1167 C 0.02309 0.08004 0.95389 0.0
C1168 C 0.02132 0.04221 0.94488 0.0
C1169 C 0.97596 0.01291 0.93685 0.0
C1170 C 0.984 0.97259 0.92851 0.0
C1171 C 0.93882 0.91256 0.93138 0.0
C1172 C 0.98524 0.98633 0.91407 0.0
C1173 C 0.04071 0.98416 0.93312 0.0
C1174 C 0.06204 0.02534 0.94238 0.0
C1175 C 0.11389 0.04328 0.94807 0.0
C1176 C 0.14355 0.01638 0.94468 0.0
C1177 C 0.12057 0.97159 0.93589 0.0
C1178 C 0.06931 0.95644 0.92981 0.0
H1179 H 0.11034 0.06104 0.28433 0.0
H1180 H 0.14108 0.10246 0.24368 0.0
H1181 H 0.04351 0.03085 0.23871 0.0
H1182 H 0.02746 0.91759 0.28086 0.0
H1183 H 0.98046 0.90868 0.29387 0.0
H1184 H 0.05081 0.96552 0.29425 0.0
H1185 H 0.01618 0.03606 0.29636 0.0
H1186 H 0.9458 0.97929 0.29649 0.0
H1187 H 0.9667 0.03423 0.28483 0.0
H1188 H 0.94182 0.94731 0.23843 0.0
H1189 H 0.8445 0.87492 0.24323 0.0
H1190 H 0.8829 0.89125 0.2841 0.0
C1191 C 0.09603 0.05622 0.27441 0.0
C1192 C 0.13294 0.08804 0.26441 0.0
C1193 C 0.11308 0.07968 0.25153 0.0
C1194 C 0.05795 0.0384 0.24862 0.0
C1195 C 0.02322 1.00613 0.25872 0.0
C1196 C 0.0414 0.01583 0.2714 0.0
C1197 C 0.99665 0.97637 0.28061 0.0
C1198 C 0.01497 0.9399 0.28782 0.0
C1199 C 0.98035 0.00839 0.29013 0.0
C1200 C 0.95018 0.94237 0.27119 0.0
C1201 C 0.96616 0.95938 0.25857 0.0
C1202 C 0.92926 0.93382 0.24829 0.0
C1203 C 0.87427 0.89194 0.25106 0.0
C1204 C 0.85668 0.87622 0.264 0.0
C1205 C 0.89568 0.90117 0.27409 0.0
loop_
_geom_bond_atom_site_label_1
_geom_bond_atom_site_label_2
_geom_bond_distance
_geom_bond_site_symmetry_2
_ccdc_geom_bond_type
C0 C1 1.351 . S
C0 N3 1.368 . S
C0 H5 0.931 . S
C1 C0 1.351 . S
C1 N2 1.373 . S
C1 H29 0.930 . S
N2 C1 1.373 . S
N2 C4 1.340 . S
N3 C0 1.368 . S
N3 C4 1.321 . S
N3 Co6 2.135 . S
C4 N2 1.340 . S
C4 N3 1.321 . S
C4 H28 0.930 . S
H5 C0 0.931 . S
Co6 N3 2.135 . S
Co6 N9 2.121 . S
Co6 O14 2.055 . S
Co6 O17 2.039 . S
Co6 N20 2.140 . S
C7 O8 1.227 . S
C7 O17 1.265 . S
O8 C7 1.227 . S
N9 Co6 2.121 . S
N9 C11 1.375 . S
N9 C12 1.313 . S
C10 C11 1.338 . S
C10 N13 1.377 . S
C10 H30 0.930 . S
C11 N9 1.375 . S
C11 C10 1.338 . S
C11 H15 0.931 . S
C12 N9 1.313 . S
C12 N13 1.344 . S
C12 H16 0.930 . S
N13 C10 1.377 . S
N13 C12 1.344 . S
O14 Co6 2.055 . S
O14 C18 1.253 . S
H15 C11 0.931 . S
H16 C12 0.930 . S
O17 Co6 2.039 . S
O17 C7 1.265 . S
C18 O14 1.253 . S
C18 O19 1.227 . S
O19 C18 1.227 . S
N20 Co6 2.140 . S
N20 C23 1.346 . S
N20 C24 1.345 . S
C21 C22 1.387 . S
C21 C25 1.391 . S
C22 C21 1.387 . S
C22 C23 1.369 . S
C22 H31 0.929 . S
C23 N20 1.346 . S
C23 C22 1.369 . S
C23 H26 0.928 . S
C24 N20 1.345 . S
C24 C25 1.371 . S
C24 H27 0.931 . S
C25 C21 1.391 . S
C25 C24 1.371 . S
C25 H32 0.930 . S
H26 C23 0.928 . S
H27 C24 0.931 . S
H28 C4 0.930 . S
H29 C1 0.930 . S
H30 C10 0.930 . S
H31 C22 0.929 . S
H32 C25 0.930 . S
C33 C34 1.351 . S
C33 N36 1.368 . S
C33 H38 0.931 . S
C34 C33 1.351 . S
C34 N35 1.373 . S
C34 H62 0.930 . S
N35 C34 1.373 . S
N35 C37 1.340 . S
N36 C33 1.368 . S
N36 C37 1.321 . S
N36 Co39 2.135 . S
C37 N35 1.340 . S
C37 N36 1.321 . S
C37 H61 0.930 . S
H38 C33 0.931 . S
Co39 N36 2.135 . S
Co39 N42 2.121 . S
Co39 O47 2.055 . S
Co39 O50 2.039 . S
Co39 N53 2.140 . S
C40 O41 1.227 . S
C40 O50 1.265 . S
O41 C40 1.227 . S
N42 Co39 2.121 . S
N42 C44 1.375 . S
N42 C45 1.313 . S
C43 C44 1.338 . S
C43 N46 1.377 . S
C43 H63 0.930 . S
C44 N42 1.375 . S
C44 C43 1.338 . S
C44 H48 0.931 . S
C45 N42 1.313 . S
C45 N46 1.344 . S
C45 H49 0.930 . S
N46 C43 1.377 . S
N46 C45 1.344 . S
O47 Co39 2.055 . S
O47 C51 1.253 . S
H48 C44 0.931 . S
H49 C45 0.930 . S
O50 Co39 2.039 . S
O50 C40 1.265 . S
C51 O47 1.253 . S
C51 O52 1.227 . S
O52 C51 1.227 . S
N53 Co39 2.140 . S
N53 C56 1.346 . S
N53 C57 1.345 . S
C54 C55 1.387 . S
C54 C58 1.391 . S
C55 C54 1.387 . S
C55 C56 1.369 . S
C55 H64 0.929 . S
C56 N53 1.346 . S
C56 C55 1.369 . S
C56 H59 0.928 . S
C57 N53 1.345 . S
C57 C58 1.371 . S
C57 H60 0.931 . S
C58 C54 1.391 . S
C58 C57 1.371 . S
C58 H65 0.930 . S
H59 C56 0.928 . S
H60 C57 0.931 . S
H61 C37 0.930 . S
H62 C34 0.930 . S
H63 C43 0.930 . S
H64 C55 0.929 . S
H65 C58 0.930 . S
C66 C67 1.351 . S
C66 N69 1.368 . S
C66 H71 0.931 . S
C67 C66 1.351 . S
C67 N68 1.373 . S
C67 H95 0.930 . S
N68 C67 1.373 . S
N68 C70 1.340 . S
N69 C66 1.368 . S
N69 C70 1.321 . S
N69 Co72 2.135 . S
C70 N68 1.340 . S
C70 N69 1.321 . S
C70 H94 0.930 . S
H71 C66 0.931 . S
Co72 N69 2.135 . S
Co72 N75 2.121 . S
Co72 O80 2.055 . S
Co72 O83 2.039 . S
Co72 N86 2.140 . S
C73 O74 1.227 . S
C73 O83 1.265 . S
O74 C73 1.227 . S
N75 Co72 2.121 . S
N75 C77 1.375 . S
N75 C78 1.313 . S
C76 C77 1.338 . S
C76 N79 1.377 . S
C76 H96 0.930 . S
C77 N75 1.375 . S
C77 C76 1.338 . S
C77 H81 0.931 . S
C78 N75 1.313 . S
C78 N79 1.344 . S
C78 H82 0.930 . S
N79 C76 1.377 . S
N79 C78 1.344 . S
O80 Co72 2.055 . S
O80 C84 1.253 . S
H81 C77 0.931 . S
H82 C78 0.930 . S
O83 Co72 2.039 . S
O83 C73 1.265 . S
C84 O80 1.253 . S
C84 O85 1.227 . S
O85 C84 1.227 . S
N86 Co72 2.140 . S
N86 C89 1.346 . S
N86 C90 1.345 . S
C87 C88 1.387 . S
C87 C91 1.391 . S
C88 C87 1.387 . S
C88 C89 1.369 . S
C88 H97 0.929 . S
C89 N86 1.346 . S
C89 C88 1.369 . S
C89 H92 0.928 . S
C90 N86 1.345 . S
C90 C91 1.371 . S
C90 H93 0.931 . S
C91 C87 1.391 . S
C91 C90 1.371 . S
C91 H98 0.930 . S
H92 C89 0.928 . S
H93 C90 0.931 . S
H94 C70 0.930 . S
H95 C67 0.930 . S
H96 C76 0.930 . S
H97 C88 0.929 . S
H98 C91 0.930 . S
C99 C100 1.351 . S
C99 N102 1.368 . S
C99 H104 0.931 . S
C100 C99 1.351 . S
C100 N101 1.373 . S
C100 H128 0.930 . S
N101 C100 1.373 . S
N101 C103 1.340 . S
N102 C99 1.368 . S
N102 C103 1.321 . S
N102 Co105 2.135 . S
C103 N101 1.340 . S
C103 N102 1.321 . S
C103 H127 0.930 . S
H104 C99 0.931 . S
Co105 N102 2.135 . S
Co105 N108 2.121 . S
Co105 O113 2.055 . S
Co105 O116 2.039 . S
Co105 N119 2.140 . S
C106 O107 1.227 . S
C106 O116 1.265 . S
O107 C106 1.227 . S
N108 Co105 2.121 . S
N108 C110 1.375 . S
N108 C111 1.313 . S
C109 C110 1.338 . S
C109 N112 1.377 . S
C109 H129 0.930 . S
C110 N108 1.375 . S
C110 C109 1.338 . S
C110 H114 0.931 . S
C111 N108 1.313 . S
C111 N112 1.344 . S
C111 H115 0.930 . S
N112 C109 1.377 . S
N112 C111 1.344 . S
O113 Co105 2.055 . S
O113 C117 1.253 . S
H114 C110 0.931 . S
H115 C111 0.930 . S
O116 Co105 2.039 . S
O116 C106 1.265 . S
C117 O113 1.253 . S
C117 O118 1.227 . S
O118 C117 1.227 . S
N119 Co105 2.140 . S
N119 C122 1.346 . S
N119 C123 1.345 . S
C120 C121 1.387 . S
C120 C124 1.391 . S
C121 C120 1.387 . S
C121 C122 1.369 . S
C121 H130 0.929 . S
C122 N119 1.346 . S
C122 C121 1.369 . S
C122 H125 0.928 . S
C123 N119 1.345 . S
C123 C124 1.371 . S
C123 H126 0.931 . S
C124 C120 1.391 . S
C124 C123 1.371 . S
C124 H131 0.930 . S
H125 C122 0.928 . S
H126 C123 0.931 . S
H127 C103 0.930 . S
H128 C100 0.930 . S
H129 C109 0.930 . S
H130 C121 0.929 . S
H131 C124 0.930 . S
C132 C133 1.351 . S
C132 N135 1.368 . S
C132 H137 0.931 . S
C133 C132 1.351 . S
C133 N134 1.373 . S
C133 H161 0.930 . S
N134 C133 1.373 . S
N134 C136 1.340 . S
N135 C132 1.368 . S
N135 C136 1.321 . S
N135 Co138 2.135 . S
C136 N134 1.340 . S
C136 N135 1.321 . S
C136 H160 0.930 . S
H137 C132 0.931 . S
Co138 N135 2.135 . S
Co138 N141 2.121 . S
Co138 O146 2.055 . S
Co138 O149 2.039 . S
Co138 N152 2.140 . S
C139 O140 1.227 . S
C139 O149 1.265 . S
O140 C139 1.227 . S
N141 Co138 2.121 . S
N141 C143 1.375 . S
N141 C144 1.313 . S
C142 C143 1.338 . S
C142 N145 1.377 . S
C142 H162 0.930 . S
C143 N141 1.375 . S
C143 C142 1.338 . S
C143 H147 0.931 . S
C144 N141 1.313 . S
C144 N145 1.344 . S
C144 H148 0.930 . S
N145 C142 1.377 . S
N145 C144 1.344 . S
O146 Co138 2.055 . S
O146 C150 1.253 . S
H147 C143 0.931 . S
H148 C144 0.930 . S
O149 Co138 2.039 . S
O149 C139 1.265 . S
C150 O146 1.253 . S
C150 O151 1.227 . S
O151 C150 1.227 . S
N152 Co138 2.140 . S
N152 C155 1.346 . S
N152 C156 1.345 . S
C153 C154 1.387 . S
C153 C157 1.391 . S
C154 C153 1.387 . S
C154 C155 1.369 . S
C154 H163 0.929 . S
C155 N152 1.346 . S
C155 C154 1.369 . S
C155 H158 0.928 . S
C156 N152 1.345 . S
C156 C157 1.371 . S
C156 H159 0.931 . S
C157 C153 1.391 . S
C157 C156 1.371 . S
C157 H164 0.930 . S
H158 C155 0.928 . S
H159 C156 0.931 . S
H160 C136 0.930 . S
H161 C133 0.930 . S
H162 C142 0.930 . S
H163 C154 0.929 . S
H164 C157 0.930 . S
C165 C166 1.351 . S
C165 N168 1.368 . S
C165 H170 0.931 . S
C166 C165 1.351 . S
C166 N167 1.373 . S
C166 H194 0.930 . S
N167 C166 1.373 . S
N167 C169 1.340 . S
N168 C165 1.368 . S
N168 C169 1.321 . S
N168 Co171 2.135 . S
C169 N167 1.340 . S
C169 N168 1.321 . S
C169 H193 0.930 . S
H170 C165 0.931 . S
Co171 N168 2.135 . S
Co171 N174 2.121 . S
Co171 O179 2.055 . S
Co171 O182 2.039 . S
Co171 N185 2.140 . S
C172 O173 1.227 . S
C172 O182 1.265 . S
O173 C172 1.227 . S
N174 Co171 2.121 . S
N174 C176 1.375 . S
N174 C177 1.313 . S
C175 C176 1.338 . S
C175 N178 1.377 . S
C175 H195 0.930 . S
C176 N174 1.375 . S
C176 C175 1.338 . S
C176 H180 0.931 . S
C177 N174 1.313 . S
C177 N178 1.344 . S
C177 H181 0.930 . S
N178 C175 1.377 . S
N178 C177 1.344 . S
O179 Co171 2.055 . S
O179 C183 1.253 . S
H180 C176 0.931 . S
H181 C177 0.930 . S
O182 Co171 2.039 . S
O182 C172 1.265 . S
C183 O179 1.253 . S
C183 O184 1.227 . S
O184 C183 1.227 . S
N185 Co171 2.140 . S
N185 C188 1.346 . S
N185 C189 1.345 . S
C186 C187 1.387 . S
C186 C190 1.391 . S
C187 C186 1.387 . S
C187 C188 1.369 . S
C187 H196 0.929 . S
C188 N185 1.346 . S
C188 C187 1.369 . S
C188 H191 0.928 . S
C189 N185 1.345 . S
C189 C190 1.371 . S
C189 H192 0.931 . S
C190 C186 1.391 . S
C190 C189 1.371 . S
C190 H197 0.930 . S
H191 C188 0.928 . S
H192 C189 0.931 . S
H193 C169 0.930 . S
H194 C166 0.930 . S
H195 C175 0.930 . S
H196 C187 0.929 . S
H197 C190 0.930 . S
C198 C199 1.351 . S
C198 N201 1.368 . S
C198 H203 0.931 . S
C199 C198 1.351 . S
C199 N200 1.373 . S
C199 H227 0.930 . S
N200 C199 1.373 . S
N200 C202 1.340 . S
N201 C198 1.368 . S
N201 C202 1.321 . S
N201 Co204 2.135 . S
C202 N200 1.340 . S
C202 N201 1.321 . S
C202 H226 0.930 . S
H203 C198 0.931 . S
Co204 N201 2.135 . S
Co204 N207 2.121 . S
Co204 O212 2.055 . S
Co204 O215 2.039 . S
Co204 N218 2.140 . S
C205 O206 1.227 . S
C205 O215 1.265 . S
O206 C205 1.227 . S
N207 Co204 2.121 . S
N207 C209 1.375 . S
N207 C210 1.313 . S
C208 C209 1.338 . S
C208 N211 1.377 . S
C208 H228 0.930 . S
C209 N207 1.375 . S
C209 C208 1.338 . S
C209 H213 0.931 . S
C210 N207 1.313 . S
C210 N211 1.344 . S
C210 H214 0.930 . S
N211 C208 1.377 . S
N211 C210 1.344 . S
O212 Co204 2.055 . S
O212 C216 1.253 . S
H213 C209 0.931 . S
H214 C210 0.930 . S
O215 Co204 2.039 . S
O215 C205 1.265 . S
C216 O212 1.253 . S
C216 O217 1.227 . S
O217 C216 1.227 . S
N218 Co204 2.140 . S
N218 C221 1.346 . S
N218 C222 1.345 . S
C219 C220 1.387 . S
C219 C223 1.391 . S
C220 C219 1.387 . S
C220 C221 1.369 . S
C220 H229 0.929 . S
C221 N218 1.346 . S
C221 C220 1.369 . S
C221 H224 0.928 . S
C222 N218 1.345 . S
C222 C223 1.371 . S
C222 H225 0.931 . S
C223 C219 1.391 . S
C223 C222 1.371 . S
C223 H230 0.930 . S
H224 C221 0.928 . S
H225 C222 0.931 . S
H226 C202 0.930 . S
H227 C199 0.930 . S
H228 C208 0.930 . S
H229 C220 0.929 . S
H230 C223 0.930 . S
C231 C232 1.351 . S
C231 N234 1.368 . S
C231 H236 0.931 . S
C232 C231 1.351 . S
C232 N233 1.373 . S
C232 H260 0.930 . S
N233 C232 1.373 . S
N233 C235 1.340 . S
N234 C231 1.368 . S
N234 C235 1.321 . S
N234 Co237 2.135 . S
C235 N233 1.340 . S
C235 N234 1.321 . S
C235 H259 0.930 . S
H236 C231 0.931 . S
Co237 N234 2.135 . S
Co237 N240 2.121 . S
Co237 O245 2.055 . S
Co237 O248 2.039 . S
Co237 N251 2.140 . S
C238 O239 1.227 . S
C238 O248 1.265 . S
O239 C238 1.227 . S
N240 Co237 2.121 . S
N240 C242 1.375 . S
N240 C243 1.313 . S
C241 C242 1.338 . S
C241 N244 1.377 . S
C241 H261 0.930 . S
C242 N240 1.375 . S
C242 C241 1.338 . S
C242 H246 0.931 . S
C243 N240 1.313 . S
C243 N244 1.344 . S
C243 H247 0.930 . S
N244 C241 1.377 . S
N244 C243 1.344 . S
O245 Co237 2.055 . S
O245 C249 1.253 . S
H246 C242 0.931 . S
H247 C243 0.930 . S
O248 Co237 2.039 . S
O248 C238 1.265 . S
C249 O245 1.253 . S
C249 O250 1.227 . S
O250 C249 1.227 . S
N251 Co237 2.140 . S
N251 C254 1.346 . S
N251 C255 1.345 . S
C252 C253 1.387 . S
C252 C256 1.391 . S
C253 C252 1.387 . S
C253 C254 1.369 . S
C253 H262 0.929 . S
C254 N251 1.346 . S
C254 C253 1.369 . S
C254 H257 0.928 . S
C255 N251 1.345 . S
C255 C256 1.371 . S
C255 H258 0.931 . S
C256 C252 1.391 . S
C256 C255 1.371 . S
C256 H263 0.930 . S
H257 C254 0.928 . S
H258 C255 0.931 . S
H259 C235 0.930 . S
H260 C232 0.930 . S
H261 C241 0.930 . S
H262 C253 0.929 . S
H263 C256 0.930 . S
C264 C265 1.351 . S
C264 N267 1.368 . S
C264 H269 0.931 . S
C265 C264 1.351 . S
C265 N266 1.373 . S
C265 H293 0.930 . S
N266 C265 1.373 . S
N266 C268 1.340 . S
N267 C264 1.368 . S
N267 C268 1.321 . S
N267 Co270 2.135 . S
C268 N266 1.340 . S
C268 N267 1.321 . S
C268 H292 0.930 . S
H269 C264 0.931 . S
Co270 N267 2.135 . S
Co270 N273 2.121 . S
Co270 O278 2.055 . S
Co270 O281 2.039 . S
Co270 N284 2.140 . S
C271 O272 1.227 . S
C271 O281 1.265 . S
O272 C271 1.227 . S
N273 Co270 2.121 . S
N273 C275 1.375 . S
N273 C276 1.313 . S
C274 C275 1.338 . S
C274 N277 1.377 . S
C274 H294 0.930 . S
C275 N273 1.375 . S
C275 C274 1.338 . S
C275 H279 0.931 . S
C276 N273 1.313 . S
C276 N277 1.344 . S
C276 H280 0.930 . S
N277 C274 1.377 . S
N277 C276 1.344 . S
O278 Co270 2.055 . S
O278 C282 1.253 . S
H279 C275 0.931 . S
H280 C276 0.930 . S
O281 Co270 2.039 . S
O281 C271 1.265 . S
C282 O278 1.253 . S
C282 O283 1.227 . S
O283 C282 1.227 . S
N284 Co270 2.140 . S
N284 C287 1.346 . S
N284 C288 1.345 . S
C285 C286 1.387 . S
C285 C289 1.391 . S
C286 C285 1.387 . S
C286 C287 1.369 . S
C286 H295 0.929 . S
C287 N284 1.346 . S
C287 C286 1.369 . S
C287 H290 0.928 . S
C288 N284 1.345 . S
C288 C289 1.371 . S
C288 H291 0.931 . S
C289 C285 1.391 . S
C289 C288 1.371 . S
C289 H296 0.930 . S
H290 C287 0.928 . S
H291 C288 0.931 . S
H292 C268 0.930 . S
H293 C265 0.930 . S
H294 C274 0.930 . S
H295 C286 0.929 . S
H296 C289 0.930 . S
C297 C298 1.351 . S
C297 N300 1.368 . S
C297 H302 0.931 . S
C298 C297 1.351 . S
C298 N299 1.373 . S
C298 H326 0.930 . S
N299 C298 1.373 . S
N299 C301 1.340 . S
N300 C297 1.368 . S
N300 C301 1.321 . S
N300 Co303 2.135 . S
C301 N299 1.340 . S
C301 N300 1.321 . S
C301 H325 0.930 . S
H302 C297 0.931 . S
Co303 N300 2.135 . S
Co303 N306 2.121 . S
Co303 O311 2.055 . S
Co303 O314 2.039 . S
Co303 N317 2.140 . S
C304 O305 1.227 . S
C304 O314 1.265 . S
O305 C304 1.227 . S
N306 Co303 2.121 . S
N306 C308 1.375 . S
N306 C309 1.313 . S
C307 C308 1.338 . S
C307 N310 1.377 . S
C307 H327 0.930 . S
C308 N306 1.375 . S
C308 C307 1.338 . S
C308 H312 0.931 . S
C309 N306 1.313 . S
C309 N310 1.344 . S
C309 H313 0.930 . S
N310 C307 1.377 . S
N310 C309 1.344 . S
O311 Co303 2.055 . S
O311 C315 1.253 . S
H312 C308 0.931 . S
H313 C309 0.930 . S
O314 Co303 2.039 . S
O314 C304 1.265 . S
C315 O311 1.253 . S
C315 O316 1.227 . S
O316 C315 1.227 . S
N317 Co303 2.140 . S
N317 C320 1.346 . S
N317 C321 1.345 . S
C318 C319 1.387 . S
C318 C322 1.391 . S
C319 C318 1.387 . S
C319 C320 1.369 . S
C319 H328 0.929 . S
C320 N317 1.346 . S
C320 C319 1.369 . S
C320 H323 0.928 . S
C321 N317 1.345 . S
C321 C322 1.371 . S
C321 H324 0.931 . S
C322 C318 1.391 . S
C322 C321 1.371 . S
C322 H329 0.930 . S
H323 C320 0.928 . S
H324 C321 0.931 . S
H325 C301 0.930 . S
H326 C298 0.930 . S
H327 C307 0.930 . S
H328 C319 0.929 . S
H329 C322 0.930 . S
C330 C331 1.351 . S
C330 N333 1.368 . S
C330 H335 0.931 . S
C331 C330 1.351 . S
C331 N332 1.373 . S
C331 H359 0.930 . S
N332 C331 1.373 . S
N332 C334 1.340 . S
N333 C330 1.368 . S
N333 C334 1.321 . S
N333 Co336 2.135 . S
C334 N332 1.340 . S
C334 N333 1.321 . S
C334 H358 0.930 . S
H335 C330 0.931 . S
Co336 N333 2.135 . S
Co336 N339 2.121 . S
Co336 O344 2.055 . S
Co336 O347 2.039 . S
Co336 N350 2.140 . S
C337 O338 1.227 . S
C337 O347 1.265 . S
O338 C337 1.227 . S
N339 Co336 2.121 . S
N339 C341 1.375 . S
N339 C342 1.313 . S
C340 C341 1.338 . S
C340 N343 1.377 . S
C340 H360 0.930 . S
C341 N339 1.375 . S
C341 C340 1.338 . S
C341 H345 0.931 . S
C342 N339 1.313 . S
C342 N343 1.344 . S
C342 H346 0.930 . S
N343 C340 1.377 . S
N343 C342 1.344 . S
O344 Co336 2.055 . S
O344 C348 1.253 . S
H345 C341 0.931 . S
H346 C342 0.930 . S
O347 Co336 2.039 . S
O347 C337 1.265 . S
C348 O344 1.253 . S
C348 O349 1.227 . S
O349 C348 1.227 . S
N350 Co336 2.140 . S
N350 C353 1.346 . S
N350 C354 1.345 . S
C351 C352 1.387 . S
C351 C355 1.391 . S
C352 C351 1.387 . S
C352 C353 1.369 . S
C352 H361 0.929 . S
C353 N350 1.346 . S
C353 C352 1.369 . S
C353 H356 0.928 . S
C354 N350 1.345 . S
C354 C355 1.371 . S
C354 H357 0.931 . S
C355 C351 1.391 . S
C355 C354 1.371 . S
C355 H362 0.930 . S
H356 C353 0.928 . S
H357 C354 0.931 . S
H358 C334 0.930 . S
H359 C331 0.930 . S
H360 C340 0.930 . S
H361 C352 0.929 . S
H362 C355 0.930 . S
C363 C364 1.351 . S
C363 N366 1.368 . S
C363 H368 0.931 . S
C364 C363 1.351 . S
C364 N365 1.373 . S
C364 H392 0.930 . S
N365 C364 1.373 . S
N365 C367 1.340 . S
N366 C363 1.368 . S
N366 C367 1.321 . S
N366 Co369 2.135 . S
C367 N365 1.340 . S
C367 N366 1.321 . S
C367 H391 0.930 . S
H368 C363 0.931 . S
Co369 N366 2.135 . S
Co369 N372 2.121 . S
Co369 O377 2.055 . S
Co369 O380 2.039 . S
Co369 N383 2.140 . S
C370 O371 1.227 . S
C370 O380 1.265 . S
O371 C370 1.227 . S
N372 Co369 2.121 . S
N372 C374 1.375 . S
N372 C375 1.313 . S
C373 C374 1.338 . S
C373 N376 1.377 . S
C373 H393 0.930 . S
C374 N372 1.375 . S
C374 C373 1.338 . S
C374 H378 0.931 . S
C375 N372 1.313 . S
C375 N376 1.344 . S
C375 H379 0.930 . S
N376 C373 1.377 . S
N376 C375 1.344 . S
O377 Co369 2.055 . S
O377 C381 1.253 . S
H378 C374 0.931 . S
H379 C375 0.930 . S
O380 Co369 2.039 . S
O380 C370 1.265 . S
C381 O377 1.253 . S
C381 O382 1.227 . S
O382 C381 1.227 . S
N383 Co369 2.140 . S
N383 C386 1.346 . S
N383 C387 1.345 . S
C384 C385 1.387 . S
C384 C388 1.391 . S
C385 C384 1.387 . S
C385 C386 1.369 . S
C385 H394 0.929 . S
C386 N383 1.346 . S
C386 C385 1.369 . S
C386 H389 0.928 . S
C387 N383 1.345 . S
C387 C388 1.371 . S
C387 H390 0.931 . S
C388 C384 1.391 . S
C388 C387 1.371 . S
C388 H395 0.930 . S
H389 C386 0.928 . S
H390 C387 0.931 . S
H391 C367 0.930 . S
H392 C364 0.930 . S
H393 C373 0.930 . S
H394 C385 0.929 . S
H395 C388 0.930 . S
H396 C408 0.930 . S
H397 C410 0.930 . S
H398 C411 0.930 . S
H399 C415 0.959 1_546 S
H400 C415 0.959 1_556 S
H401 C415 0.961 . S
H402 C416 0.960 . S
H403 C416 0.961 . S
H404 C416 0.959 . S
H405 C419 0.929 1_545 S
H406 C420 0.931 . S
H407 C422 0.930 . S
C408 H396 0.930 . S
C408 C409 1.399 . S
C408 C413 1.399 . S
C409 C408 1.399 . S
C409 C410 1.376 . S
C410 H397 0.930 . S
C410 C409 1.376 . S
C410 C411 1.388 . S
C411 H398 0.930 . S
C411 C410 1.388 . S
C411 C412 1.390 . S
C412 C411 1.390 . S
C412 C413 1.394 . S
C412 C418 1.465 1_544 S
C413 C408 1.399 . S
C413 C412 1.394 . S
C413 C414 1.516 1_545 S
C414 C413 1.516 1_565 S
C414 C415 1.502 . S
C414 C416 1.561 . S
C414 C417 1.526 1_554 S
C415 H399 0.959 1_564 S
C415 H400 0.959 1_554 S
C415 H401 0.961 . S
C415 C414 1.502 . S
C416 H402 0.960 . S
C416 H403 0.961 . S
C416 H404 0.959 . S
C416 C414 1.561 . S
C417 C414 1.526 1_556 S
C417 C418 1.396 . S
C417 C422 1.390 . S
C418 C412 1.465 1_566 S
C418 C417 1.396 . S
C418 C419 1.399 . S
C419 H405 0.929 1_565 S
C419 C418 1.399 . S
C419 C420 1.385 . S
C420 H406 0.931 . S
C420 C419 1.385 . S
C420 C421 1.389 . S
C421 C420 1.389 . S
C421 C422 1.387 . S
C422 H407 0.930 . S
C422 C417 1.390 . S
C422 C421 1.387 . S
H423 C435 0.930 . S
H424 C437 0.930 . S
H425 C438 0.930 . S
H426 C442 0.959 . S
H427 C442 0.959 . S
H428 C442 0.961 . S
H429 C443 0.960 . S
H430 C443 0.961 . S
H431 C443 0.959 . S
H432 C446 0.929 . S
H433 C447 0.931 . S
H434 C449 0.930 . S
C435 H423 0.930 . S
C435 C436 1.399 . S
C435 C440 1.399 . S
C436 C435 1.399 . S
C436 C437 1.376 . S
C437 H424 0.930 . S
C437 C436 1.376 . S
C437 C438 1.388 . S
C438 H425 0.930 . S
C438 C437 1.388 . S
C438 C439 1.390 . S
C439 C438 1.390 . S
C439 C440 1.394 . S
C439 C445 1.465 . S
C440 C435 1.399 . S
C440 C439 1.394 . S
C440 C441 1.516 . S
C441 C440 1.516 . S
C441 C442 1.502 . S
C441 C443 1.561 . S
C441 C444 1.526 . S
C442 H426 0.959 . S
C442 H427 0.959 . S
C442 H428 0.961 . S
C442 C441 1.502 . S
C443 H429 0.960 . S
C443 H430 0.961 . S
C443 H431 0.959 . S
C443 C441 1.561 . S
C444 C441 1.526 . S
C444 C445 1.396 . S
C444 C449 1.390 . S
C445 C439 1.465 . S
C445 C444 1.396 . S
C445 C446 1.399 . S
C446 H432 0.929 . S
C446 C445 1.399 . S
C446 C447 1.385 . S
C447 H433 0.931 . S
C447 C446 1.385 . S
C447 C448 1.389 . S
C448 C447 1.389 . S
C448 C449 1.387 . S
C449 H434 0.930 . S
C449 C444 1.390 . S
C449 C448 1.387 . S
H450 C462 0.930 1_455 S
H451 C464 0.930 . S
H452 C465 0.930 . S
H453 C469 0.959 . S
H454 C469 0.959 . S
H455 C469 0.961 . S
H456 C470 0.960 . S
H457 C470 0.961 . S
H458 C470 0.959 . S
H459 C473 0.929 . S
H460 C474 0.931 1_655 S
H461 C476 0.930 . S
C462 H450 0.930 1_655 S
C462 C463 1.399 . S
C462 C467 1.399 . S
C463 C462 1.399 . S
C463 C464 1.376 . S
C464 H451 0.930 . S
C464 C463 1.376 . S
C464 C465 1.388 . S
C465 H452 0.930 . S
C465 C464 1.388 . S
C465 C466 1.390 . S
C466 C465 1.390 . S
C466 C467 1.393 . S
C466 C472 1.465 . S
C467 C462 1.399 . S
C467 C466 1.393 . S
C467 C468 1.517 1_655 S
C468 C467 1.517 1_455 S
C468 C469 1.502 . S
C468 C470 1.561 . S
C468 C471 1.526 . S
C469 H453 0.959 . S
C469 H454 0.959 . S
C469 H455 0.961 . S
C469 C468 1.502 . S
C470 H456 0.960 . S
C470 H457 0.961 . S
C470 H458 0.959 . S
C470 C468 1.561 . S
C471 C468 1.526 . S
C471 C472 1.396 1_455 S
C471 C476 1.390 . S
C472 C466 1.465 . S
C472 C471 1.396 1_655 S
C472 C473 1.399 . S
C473 H459 0.929 . S
C473 C472 1.399 . S
C473 C474 1.385 1_655 S
C474 H460 0.931 1_455 S
C474 C473 1.385 1_455 S
C474 C475 1.389 . S
C475 C474 1.389 . S
C475 C476 1.387 . S
C476 H461 0.930 . S
C476 C471 1.390 . S
C476 C475 1.387 . S
H477 C489 0.930 . S
H478 C491 0.930 1_565 S
H479 C492 0.930 . S
H480 C496 0.959 . S
H481 C496 0.959 . S
H482 C496 0.961 . S
H483 C497 0.960 . S
H484 C497 0.961 . S
H485 C497 0.959 . S
H486 C500 0.899 1_556 S
H487 C501 0.931 . S
H488 C503 0.930 1_545 S
C489 H477 0.930 . S
C489 C490 1.399 . S
C489 C494 1.399 . S
C490 C489 1.399 . S
C490 C491 1.376 . S
C491 H478 0.930 1_545 S
C491 C490 1.376 . S
C491 C492 1.388 1_545 S
C492 H479 0.930 . S
C492 C491 1.388 1_565 S
C492 C493 1.390 . S
C493 C492 1.390 . S
C493 C494 1.394 1_565 S
C493 C499 1.465 1_556 S
C494 C489 1.399 . S
C494 C493 1.394 1_545 S
C494 C495 1.516 1_556 S
C495 C494 1.516 1_554 S
C495 C496 1.502 . S
C495 C497 1.561 . S
C495 C498 1.526 1_545 S
C496 H480 0.959 . S
C496 H481 0.959 . S
C496 H482 0.961 . S
C496 C495 1.502 . S
C497 H483 0.960 . S
C497 H484 0.961 . S
C497 H485 0.959 . S
C497 C495 1.561 . S
C498 C495 1.526 1_565 S
C498 C499 1.396 . S
C498 C503 1.390 . S
C499 C493 1.465 1_554 S
C499 C498 1.396 . S
C499 C500 1.399 . S
C500 H486 0.899 1_554 S
C500 C499 1.399 . S
C500 C501 1.385 . S
C501 H487 0.931 . S
C501 C500 1.385 . S
C501 C502 1.389 . S
C502 C501 1.389 . S
C502 C503 1.387 . S
C503 H488 0.930 1_565 S
C503 C498 1.390 . S
C503 C502 1.387 . S
H504 C516 0.930 . S
H505 C518 0.930 . S
H506 C519 0.930 . S
H507 C523 0.959 . S
H508 C523 0.959 . S
H509 C523 0.961 . S
H510 C524 0.960 . S
H511 C524 0.961 . S
H512 C524 0.959 . S
H513 C527 0.929 . S
H514 C528 0.931 . S
H515 C530 0.930 . S
C516 H504 0.930 . S
C516 C517 1.399 . S
C516 C521 1.399 . S
C517 C516 1.399 . S
C517 C518 1.376 . S
C518 H505 0.930 . S
C518 C517 1.376 . S
C518 C519 1.388 . S
C519 H506 0.930 . S
C519 C518 1.388 . S
C519 C520 1.390 . S
C520 C519 1.390 . S
C520 C521 1.394 . S
C520 C526 1.465 . S
C521 C516 1.399 . S
C521 C520 1.394 . S
C521 C522 1.516 . S
C522 C521 1.516 . S
C522 C523 1.502 . S
C522 C524 1.561 . S
C522 C525 1.526 . S
C523 H507 0.959 . S
C523 H508 0.959 . S
C523 H509 0.961 . S
C523 C522 1.502 . S
C524 H510 0.960 . S
C524 H511 0.961 . S
C524 H512 0.959 . S
C524 C522 1.561 . S
C525 C522 1.526 . S
C525 C526 1.396 . S
C525 C530 1.390 . S
C526 C520 1.465 . S
C526 C525 1.396 . S
C526 C527 1.399 . S
C527 H513 0.929 . S
C527 C526 1.399 . S
C527 C528 1.385 . S
C528 H514 0.931 . S
C528 C527 1.385 . S
C528 C529 1.389 . S
C529 C528 1.389 . S
C529 C530 1.387 . S
C530 H515 0.930 . S
C530 C525 1.390 . S
C530 C529 1.387 . S
H531 C543 0.930 . S
H532 C545 0.930 . S
H533 C546 0.930 . S
H534 C550 0.959 . S
H535 C550 0.959 . S
H536 C550 0.961 . S
H537 C551 0.960 . S
H538 C551 0.961 . S
H539 C551 0.959 . S
H540 C554 0.929 . S
H541 C555 0.931 . S
H542 C557 0.930 1_455 S
C543 H531 0.930 . S
C543 C544 1.399 . S
C543 C548 1.399 . S
C544 C543 1.399 . S
C544 C545 1.376 . S
C545 H532 0.930 . S
C545 C544 1.376 . S
C545 C546 1.388 1_455 S
C546 H533 0.930 . S
C546 C545 1.388 1_655 S
C546 C547 1.390 . S
C547 C546 1.390 . S
C547 C548 1.394 1_655 S
C547 C553 1.465 . S
C548 C543 1.399 . S
C548 C547 1.394 1_455 S
C548 C549 1.516 . S
C549 C548 1.516 . S
C549 C550 1.502 . S
C549 C551 1.561 . S
C549 C552 1.513 1_455 S
C550 H534 0.959 . S
C550 H535 0.959 . S
C550 H536 0.961 . S
C550 C549 1.502 . S
C551 H537 0.960 . S
C551 H538 0.961 . S
C551 H539 0.959 . S
C551 C549 1.561 . S
C552 C549 1.513 1_655 S
C552 C553 1.403 . S
C552 C557 1.396 . S
C553 C547 1.465 . S
C553 C552 1.403 . S
C553 C554 1.399 . S
C554 H540 0.929 . S
C554 C553 1.399 . S
C554 C555 1.385 . S
C555 H541 0.931 . S
C555 C554 1.385 . S
C555 C556 1.389 . S
C556 C555 1.389 . S
C556 C557 1.387 . S
C557 H542 0.930 1_655 S
C557 C552 1.396 . S
C557 C556 1.387 . S
H558 C570 0.930 . S
H559 C572 0.930 . S
H560 C573 0.930 . S
H561 C577 0.959 . S
H562 C577 0.959 . S
H563 C577 0.961 . S
H564 C578 0.968 . S
H565 C578 0.957 1_545 S
H566 C578 0.953 1_545 S
H567 C581 0.929 . S
H568 C582 0.931 . S
H569 C584 0.930 . S
C570 H558 0.930 . S
C570 C571 1.399 . S
C570 C575 1.399 . S
C571 C570 1.399 . S
C571 C572 1.376 . S
C572 H559 0.930 . S
C572 C571 1.376 . S
C572 C573 1.388 1_565 S
C573 H560 0.930 . S
C573 C572 1.388 1_545 S
C573 C574 1.390 . S
C574 C573 1.390 . S
C574 C575 1.394 1_545 S
C574 C580 1.465 . S
C575 C570 1.399 . S
C575 C574 1.394 1_565 S
C575 C576 1.516 . S
C576 C575 1.516 . S
C576 C577 1.502 . S
C576 C578 1.564 . S
C576 C579 1.526 1_565 S
C577 H561 0.959 . S
C577 H562 0.959 . S
C577 H563 0.961 . S
C577 C576 1.502 . S
C578 H564 0.968 . S
C578 H565 0.957 1_565 S
C578 H566 0.953 1_565 S
C578 C576 1.564 . S
C579 C576 1.526 1_545 S
C579 C580 1.396 . S
C579 C584 1.390 . S
C580 C574 1.465 . S
C580 C579 1.396 . S
C580 C581 1.399 . S
C581 H567 0.929 . S
C581 C580 1.399 . S
C581 C582 1.385 . S
C582 H568 0.931 . S
C582 C581 1.385 . S
C582 C583 1.389 . S
C583 C582 1.389 . S
C583 C584 1.387 . S
C584 H569 0.930 . S
C584 C579 1.390 . S
C584 C583 1.387 . S
H585 C597 0.930 . S
H586 C599 0.930 . S
H587 C600 0.930 . S
H588 C604 0.959 . S
H589 C604 0.959 . S
H590 C604 0.961 . S
H591 C605 0.960 . S
H592 C605 0.961 . S
H593 C605 0.959 . S
H594 C608 0.929 . S
H595 C609 0.931 . S
H596 C611 0.930 . S
C597 H585 0.930 . S
C597 C598 1.399 . S
C597 C602 1.399 . S
C598 C597 1.399 . S
C598 C599 1.376 . S
C599 H586 0.930 . S
C599 C598 1.376 . S
C599 C600 1.388 . S
C600 H587 0.930 . S
C600 C599 1.388 . S
C600 C601 1.390 . S
C601 C600 1.390 . S
C601 C602 1.394 . S
C601 C607 1.465 . S
C602 C597 1.399 . S
C602 C601 1.394 . S
C602 C603 1.516 . S
C603 C602 1.516 . S
C603 C604 1.502 . S
C603 C605 1.561 . S
C603 C606 1.526 . S
C604 H588 0.959 . S
C604 H589 0.959 . S
C604 H590 0.961 . S
C604 C603 1.502 . S
C605 H591 0.960 . S
C605 H592 0.961 . S
C605 H593 0.959 . S
C605 C603 1.561 . S
C606 C603 1.526 . S
C606 C607 1.396 . S
C606 C611 1.390 . S
C607 C601 1.465 . S
C607 C606 1.396 . S
C607 C608 1.399 . S
C608 H594 0.929 . S
C608 C607 1.399 . S
C608 C609 1.385 . S
C609 H595 0.931 . S
C609 C608 1.385 . S
C609 C610 1.389 . S
C610 C609 1.389 . S
C610 C611 1.387 . S
C611 H596 0.930 . S
C611 C606 1.390 . S
C611 C610 1.387 . S
H612 C624 0.930 . S
H613 C626 0.930 . S
H614 C627 0.930 1_655 S
H615 C631 0.959 . S
H616 C631 0.959 . S
H617 C631 0.961 . S
H618 C632 0.960 . S
H619 C632 0.961 . S
H620 C632 0.959 . S
H621 C635 0.929 . S
H622 C636 0.931 . S
H623 C638 0.930 . S
C624 H612 0.930 . S
C624 C625 1.399 . S
C624 C629 1.399 . S
C625 C624 1.399 . S
C625 C626 1.376 . S
C626 H613 0.930 . S
C626 C625 1.376 . S
C626 C627 1.388 . S
C627 H614 0.930 1_455 S
C627 C626 1.388 . S
C627 C628 1.394 1_455 S
C628 C627 1.394 1_655 S
C628 C629 1.390 1_655 S
C628 C634 1.463 . S
C629 C624 1.399 . S
C629 C628 1.390 1_455 S
C629 C630 1.516 . S
C630 C629 1.516 . S
C630 C631 1.502 . S
C630 C632 1.561 1_455 S
C630 C633 1.526 1_455 S
C631 H615 0.959 . S
C631 H616 0.959 . S
C631 H617 0.961 . S
C631 C630 1.502 . S
C632 H618 0.960 . S
C632 H619 0.961 . S
C632 H620 0.959 . S
C632 C630 1.561 1_655 S
C633 C630 1.526 1_655 S
C633 C634 1.396 . S
C633 C638 1.390 . S
C634 C628 1.463 . S
C634 C633 1.396 . S
C634 C635 1.399 . S
C635 H621 0.929 . S
C635 C634 1.399 . S
C635 C636 1.385 . S
C636 H622 0.931 . S
C636 C635 1.385 . S
C636 C637 1.389 . S
C637 C636 1.389 . S
C637 C638 1.387 . S
C638 H623 0.930 . S
C638 C633 1.390 . S
C638 C637 1.387 . S
H639 C651 0.930 . S
H640 C653 0.930 . S
H641 C654 0.930 . S
H642 C658 0.959 . S
H643 C658 0.959 . S
H644 C658 0.961 . S
H645 C659 0.960 1_455 S
H646 C659 0.961 . S
H647 C659 0.959 . S
H648 C662 0.929 . S
H649 C663 0.931 . S
H650 C665 0.930 . S
C651 H639 0.930 . S
C651 C652 1.399 . S
C651 C656 1.399 . S
C652 C651 1.399 . S
C652 C653 1.376 . S
C653 H640 0.930 . S
C653 C652 1.376 . S
C653 C654 1.388 1_455 S
C654 H641 0.930 . S
C654 C653 1.388 1_655 S
C654 C655 1.390 . S
C655 C654 1.390 . S
C655 C656 1.394 1_655 S
C655 C661 1.465 . S
C656 C651 1.399 . S
C656 C655 1.394 1_455 S
C656 C657 1.516 . S
C657 C656 1.516 . S
C657 C658 1.502 . S
C657 C659 1.561 1_455 S
C657 C660 1.526 1_455 S
C658 H642 0.959 . S
C658 H643 0.959 . S
C658 H644 0.961 . S
C658 C657 1.502 . S
C659 H645 0.960 1_655 S
C659 H646 0.961 . S
C659 H647 0.959 . S
C659 C657 1.561 1_655 S
C660 C657 1.526 1_655 S
C660 C661 1.396 . S
C660 C665 1.390 . S
C661 C655 1.465 . S
C661 C660 1.396 . S
C661 C662 1.399 . S
C662 H648 0.929 . S
C662 C661 1.399 . S
C662 C663 1.385 . S
C663 H649 0.931 . S
C663 C662 1.385 . S
C663 C664 1.389 . S
C664 C663 1.389 . S
C664 C665 1.387 . S
C665 H650 0.930 . S
C665 C660 1.390 . S
C665 C664 1.387 . S
H666 C678 0.930 . S
H667 C680 0.930 . S
H668 C681 0.930 . S
H669 C685 0.959 . S
H670 C685 0.959 . S
H671 C685 0.961 . S
H672 C686 0.960 . S
H673 C686 0.961 . S
H674 C686 0.959 1_545 S
H675 C689 0.929 . S
H676 C690 0.931 . S
H677 C692 0.930 . S
C678 H666 0.930 . S
C678 C679 1.399 . S
C678 C683 1.399 . S
C679 C678 1.399 . S
C679 C680 1.376 . S
C680 H667 0.930 . S
C680 C679 1.376 . S
C680 C681 1.388 . S
C681 H668 0.930 . S
C681 C680 1.388 . S
C681 C682 1.390 . S
C682 C681 1.390 . S
C682 C683 1.394 . S
C682 C688 1.465 . S
C683 C678 1.399 . S
C683 C682 1.394 . S
C683 C684 1.516 1_545 S
C684 C683 1.516 1_565 S
C684 C685 1.502 . S
C684 C686 1.561 . S
C684 C687 1.526 . S
C685 H669 0.959 . S
C685 H670 0.959 . S
C685 H671 0.961 . S
C685 C684 1.502 . S
C686 H672 0.960 . S
C686 H673 0.961 . S
C686 H674 0.959 1_565 S
C686 C684 1.561 . S
C687 C684 1.526 . S
C687 C688 1.396 1_565 S
C687 C692 1.390 . S
C688 C682 1.465 . S
C688 C687 1.396 1_545 S
C688 C689 1.399 . S
C689 H675 0.929 . S
C689 C688 1.399 . S
C689 C690 1.385 1_545 S
C690 H676 0.931 . S
C690 C689 1.385 1_565 S
C690 C691 1.389 . S
C691 C690 1.389 . S
C691 C692 1.387 . S
C692 H677 0.930 . S
C692 C687 1.390 . S
C692 C691 1.387 . S
H693 C705 0.930 . S
H694 C707 0.930 . S
H695 C708 0.930 . S
H696 C712 0.959 . S
H697 C712 0.959 . S
H698 C712 0.961 . S
H699 C713 0.960 . S
H700 C713 0.961 . S
H701 C713 0.959 . S
H702 C716 0.929 . S
H703 C717 0.931 . S
H704 C719 0.930 . S
C705 H693 0.930 . S
C705 C706 1.399 . S
C705 C710 1.399 . S
C706 C705 1.399 . S
C706 C707 1.376 . S
C707 H694 0.930 . S
C707 C706 1.376 . S
C707 C708 1.388 . S
C708 H695 0.930 . S
C708 C707 1.388 . S
C708 C709 1.390 . S
C709 C708 1.390 . S
C709 C710 1.394 . S
C709 C715 1.465 . S
C710 C705 1.399 . S
C710 C709 1.394 . S
C710 C711 1.516 . S
C711 C710 1.516 . S
C711 C712 1.502 . S
C711 C713 1.561 . S
C711 C714 1.526 . S
C712 H696 0.959 . S
C712 H697 0.959 . S
C712 H698 0.961 . S
C712 C711 1.502 . S
C713 H699 0.960 . S
C713 H700 0.961 . S
C713 H701 0.959 . S
C713 C711 1.561 . S
C714 C711 1.526 . S
C714 C715 1.396 . S
C714 C719 1.390 . S
C715 C709 1.465 . S
C715 C714 1.396 . S
C715 C716 1.399 . S
C716 H702 0.929 . S
C716 C715 1.399 . S
C716 C717 1.385 . S
C717 H703 0.931 . S
C717 C716 1.385 . S
C717 C718 1.389 . S
C718 C717 1.389 . S
C718 C719 1.387 . S
C719 H704 0.930 . S
C719 C714 1.390 . S
C719 C718 1.387 . S
H720 C732 0.930 . S
H721 C734 0.930 . S
H722 C735 0.930 . S
H723 C739 0.959 . S
H724 C739 0.959 . S
H725 C739 0.961 . S
H726 C740 0.960 . S
H727 C740 0.961 . S
H728 C740 0.959 . S
H729 C743 0.929 . S
H730 C744 0.931 . S
H731 C746 0.930 . S
C732 H720 0.930 . S
C732 C733 1.399 . S
C732 C737 1.399 . S
C733 C732 1.399 . S
C733 C734 1.376 . S
C734 H721 0.930 . S
C734 C733 1.376 . S
C734 C735 1.388 . S
C735 H722 0.930 . S
C735 C734 1.388 . S
C735 C736 1.390 . S
C736 C735 1.390 . S
C736 C737 1.394 . S
C736 C742 1.465 . S
C737 C732 1.399 . S
C737 C736 1.394 . S
C737 C738 1.516 . S
C738 C737 1.516 . S
C738 C739 1.502 . S
C738 C740 1.561 . S
C738 C741 1.526 . S
C739 H723 0.959 . S
C739 H724 0.959 . S
C739 H725 0.961 . S
C739 C738 1.502 . S
C740 H726 0.960 . S
C740 H727 0.961 . S
C740 H728 0.959 . S
C740 C738 1.561 . S
C741 C738 1.526 . S
C741 C742 1.396 . S
C741 C746 1.390 . S
C742 C736 1.465 . S
C742 C741 1.396 . S
C742 C743 1.399 . S
C743 H729 0.929 . S
C743 C742 1.399 . S
C743 C744 1.385 . S
C744 H730 0.931 . S
C744 C743 1.385 . S
C744 C745 1.389 . S
C745 C744 1.389 . S
C745 C746 1.387 . S
C746 H731 0.930 . S
C746 C741 1.390 . S
C746 C745 1.387 . S
H747 C759 0.930 . S
H748 C761 0.930 . S
H749 C762 0.930 . S
H750 C766 0.959 . S
H751 C766 0.959 . S
H752 C766 0.961 . S
H753 C767 0.960 . S
H754 C767 0.961 . S
H755 C767 0.959 . S
H756 C770 0.929 . S
H757 C771 0.931 . S
H758 C773 0.930 . S
C759 H747 0.930 . S
C759 C760 1.399 . S
C759 C764 1.399 . S
C760 C759 1.399 . S
C760 C761 1.376 . S
C761 H748 0.930 . S
C761 C760 1.376 . S
C761 C762 1.388 . S
C762 H749 0.930 . S
C762 C761 1.388 . S
C762 C763 1.390 . S
C763 C762 1.390 . S
C763 C764 1.394 . S
C763 C769 1.465 . S
C764 C759 1.399 . S
C764 C763 1.394 . S
C764 C765 1.516 . S
C765 C764 1.516 . S
C765 C766 1.502 . S
C765 C767 1.561 . S
C765 C768 1.526 . S
C766 H750 0.959 . S
C766 H751 0.959 . S
C766 H752 0.961 . S
C766 C765 1.502 . S
C767 H753 0.960 . S
C767 H754 0.961 . S
C767 H755 0.959 . S
C767 C765 1.561 . S
C768 C765 1.526 . S
C768 C769 1.396 . S
C768 C773 1.390 . S
C769 C763 1.465 . S
C769 C768 1.396 . S
C769 C770 1.399 . S
C770 H756 0.929 . S
C770 C769 1.399 . S
C770 C771 1.385 . S
C771 H757 0.931 . S
C771 C770 1.385 . S
C771 C772 1.389 . S
C772 C771 1.389 . S
C772 C773 1.387 . S
C773 H758 0.930 . S
C773 C768 1.390 . S
C773 C772 1.387 . S
H774 C786 0.930 . S
H775 C788 0.930 . S
H776 C789 0.930 . S
H777 C793 0.959 . S
H778 C793 0.959 . S
H779 C793 0.961 . S
H780 C794 0.960 . S
H781 C794 0.961 . S
H782 C794 0.959 . S
H783 C797 0.929 . S
H784 C798 0.931 . S
H785 C800 0.930 . S
C786 H774 0.930 . S
C786 C787 1.399 . S
C786 C791 1.399 . S
C787 C786 1.399 . S
C787 C788 1.376 . S
C788 H775 0.930 . S
C788 C787 1.376 . S
C788 C789 1.388 . S
C789 H776 0.930 . S
C789 C788 1.388 . S
C789 C790 1.390 . S
C790 C789 1.390 . S
C790 C791 1.394 . S
C790 C796 1.465 . S
C791 C786 1.399 . S
C791 C790 1.394 . S
C791 C792 1.516 . S
C792 C791 1.516 . S
C792 C793 1.502 . S
C792 C794 1.561 . S
C792 C795 1.526 . S
C793 H777 0.959 . S
C793 H778 0.959 . S
C793 H779 0.961 . S
C793 C792 1.502 . S
C794 H780 0.960 . S
C794 H781 0.961 . S
C794 H782 0.959 . S
C794 C792 1.561 . S
C795 C792 1.526 . S
C795 C796 1.396 . S
C795 C800 1.390 . S
C796 C790 1.465 . S
C796 C795 1.396 . S
C796 C797 1.399 . S
C797 H783 0.929 . S
C797 C796 1.399 . S
C797 C798 1.385 . S
C798 H784 0.931 . S
C798 C797 1.385 . S
C798 C799 1.389 . S
C799 C798 1.389 . S
C799 C800 1.387 . S
C800 H785 0.930 . S
C800 C795 1.390 . S
C800 C799 1.387 . S
H801 C813 0.930 . S
H802 C815 0.930 . S
H803 C816 0.930 . S
H804 C820 0.959 . S
H805 C820 0.959 . S
H806 C820 0.961 . S
H807 C821 0.960 . S
H808 C821 0.961 . S
H809 C821 0.959 . S
H810 C824 0.929 . S
H811 C825 0.931 . S
H812 C827 0.930 . S
C813 H801 0.930 . S
C813 C814 1.399 . S
C813 C818 1.399 . S
C814 C813 1.399 . S
C814 C815 1.376 . S
C815 H802 0.930 . S
C815 C814 1.376 . S
C815 C816 1.388 . S
C816 H803 0.930 . S
C816 C815 1.388 . S
C816 C817 1.390 . S
C817 C816 1.390 . S
C817 C818 1.394 . S
C817 C823 1.465 . S
C818 C813 1.399 . S
C818 C817 1.394 . S
C818 C819 1.516 . S
C819 C818 1.516 . S
C819 C820 1.502 . S
C819 C821 1.561 . S
C819 C822 1.526 . S
C820 H804 0.959 . S
C820 H805 0.959 . S
C820 H806 0.961 . S
C820 C819 1.502 . S
C821 H807 0.960 . S
C821 H808 0.961 . S
C821 H809 0.959 . S
C821 C819 1.561 . S
C822 C819 1.526 . S
C822 C823 1.396 . S
C822 C827 1.390 . S
C823 C817 1.465 . S
C823 C822 1.396 . S
C823 C824 1.399 . S
C824 H810 0.929 . S
C824 C823 1.399 . S
C824 C825 1.385 . S
C825 H811 0.931 . S
C825 C824 1.385 . S
C825 C826 1.389 . S
C826 C825 1.389 . S
C826 C827 1.387 . S
C827 H812 0.930 . S
C827 C822 1.390 . S
C827 C826 1.387 . S
H828 C840 0.930 . S
H829 C842 0.930 . S
H830 C843 0.930 . S
H831 C847 0.959 . S
H832 C847 0.959 . S
H833 C847 0.961 . S
H834 C848 0.960 . S
H835 C848 0.961 . S
H836 C848 0.959 . S
H837 C851 0.929 . S
H838 C852 0.931 . S
H839 C854 0.930 . S
C840 H828 0.930 . S
C840 C841 1.399 . S
C840 C845 1.399 . S
C841 C840 1.399 . S
C841 C842 1.376 . S
C842 H829 0.930 . S
C842 C841 1.376 . S
C842 C843 1.388 . S
C843 H830 0.930 . S
C843 C842 1.388 . S
C843 C844 1.390 . S
C844 C843 1.390 . S
C844 C845 1.394 . S
C844 C850 1.465 . S
C845 C840 1.399 . S
C845 C844 1.394 . S
C845 C846 1.516 . S
C846 C845 1.516 . S
C846 C847 1.502 . S
C846 C848 1.561 . S
C846 C849 1.526 . S
C847 H831 0.959 . S
C847 H832 0.959 . S
C847 H833 0.961 . S
C847 C846 1.502 . S
C848 H834 0.960 . S
C848 H835 0.961 . S
C848 H836 0.959 . S
C848 C846 1.561 . S
C849 C846 1.526 . S
C849 C850 1.396 . S
C849 C854 1.390 . S
C850 C844 1.465 . S
C850 C849 1.396 . S
C850 C851 1.399 . S
C851 H837 0.929 . S
C851 C850 1.399 . S
C851 C852 1.385 . S
C852 H838 0.931 . S
C852 C851 1.385 . S
C852 C853 1.389 . S
C853 C852 1.389 . S
C853 C854 1.387 . S
C854 H839 0.930 . S
C854 C849 1.390 . S
C854 C853 1.387 . S
H855 C867 0.930 . S
H856 C869 0.930 . S
H857 C870 0.930 . S
H858 C874 0.959 . S
H859 C874 0.959 . S
H860 C874 0.961 . S
H861 C875 0.960 . S
H862 C875 0.961 . S
H863 C875 0.959 . S
H864 C878 0.929 . S
H865 C879 0.931 . S
H866 C881 0.930 . S
C867 H855 0.930 . S
C867 C868 1.399 . S
C867 C872 1.399 . S
C868 C867 1.399 . S
C868 C869 1.376 . S
C869 H856 0.930 . S
C869 C868 1.376 . S
C869 C870 1.388 . S
C870 H857 0.930 . S
C870 C869 1.388 . S
C870 C871 1.390 . S
C871 C870 1.390 . S
C871 C872 1.394 . S
C871 C877 1.465 . S
C872 C867 1.399 . S
C872 C871 1.394 . S
C872 C873 1.516 . S
C873 C872 1.516 . S
C873 C874 1.502 . S
C873 C875 1.561 . S
C873 C876 1.526 . S
C874 H858 0.959 . S
C874 H859 0.959 . S
C874 H860 0.961 . S
C874 C873 1.502 . S
C875 H861 0.960 . S
C875 H862 0.961 . S
C875 H863 0.959 . S
C875 C873 1.561 . S
C876 C873 1.526 . S
C876 C877 1.396 . S
C876 C881 1.390 . S
C877 C871 1.465 . S
C877 C876 1.396 . S
C877 C878 1.399 . S
C878 H864 0.929 . S
C878 C877 1.399 . S
C878 C879 1.385 . S
C879 H865 0.931 . S
C879 C878 1.385 . S
C879 C880 1.389 . S
C880 C879 1.389 . S
C880 C881 1.387 . S
C881 H866 0.930 . S
C881 C876 1.390 . S
C881 C880 1.387 . S
H882 C894 0.930 . S
H883 C896 0.930 . S
H884 C897 0.930 . S
H885 C901 0.959 . S
H886 C901 0.959 . S
H887 C901 0.961 . S
H888 C902 0.960 . S
H889 C902 0.961 . S
H890 C902 0.959 . S
H891 C905 0.929 . S
H892 C906 0.931 . S
H893 C908 0.930 . S
C894 H882 0.930 . S
C894 C895 1.399 . S
C894 C899 1.399 . S
C895 C894 1.399 . S
C895 C896 1.376 . S
C896 H883 0.930 . S
C896 C895 1.376 . S
C896 C897 1.388 . S
C897 H884 0.930 . S
C897 C896 1.388 . S
C897 C898 1.390 . S
C898 C897 1.390 . S
C898 C899 1.394 . S
C898 C904 1.465 . S
C899 C894 1.399 . S
C899 C898 1.394 . S
C899 C900 1.516 . S
C900 C899 1.516 . S
C900 C901 1.502 . S
C900 C902 1.561 . S
C900 C903 1.526 . S
C901 H885 0.959 . S
C901 H886 0.959 . S
C901 H887 0.961 . S
C901 C900 1.502 . S
C902 H888 0.960 . S
C902 H889 0.961 . S
C902 H890 0.959 . S
C902 C900 1.561 . S
C903 C900 1.526 . S
C903 C904 1.396 . S
C903 C908 1.390 . S
C904 C898 1.465 . S
C904 C903 1.396 . S
C904 C905 1.399 . S
C905 H891 0.929 . S
C905 C904 1.399 . S
C905 C906 1.385 . S
C906 H892 0.931 . S
C906 C905 1.385 . S
C906 C907 1.389 . S
C907 C906 1.389 . S
C907 C908 1.387 . S
C908 H893 0.930 . S
C908 C903 1.390 . S
C908 C907 1.387 . S
H909 C921 0.930 . S
H910 C923 0.930 . S
H911 C924 0.930 . S
H912 C928 0.959 . S
H913 C928 0.959 . S
H914 C928 0.961 . S
H915 C929 0.960 . S
H916 C929 0.961 . S
H917 C929 0.959 . S
H918 C932 0.929 1_455 S
H919 C933 0.931 . S
H920 C935 0.930 . S
C921 H909 0.930 . S
C921 C922 1.399 . S
C921 C926 1.399 . S
C922 C921 1.399 . S
C922 C923 1.376 . S
C923 H910 0.930 . S
C923 C922 1.376 . S
C923 C924 1.388 . S
C924 H911 0.930 . S
C924 C923 1.388 . S
C924 C925 1.390 . S
C925 C924 1.390 . S
C925 C926 1.394 . S
C925 C931 1.465 1_455 S
C926 C921 1.399 . S
C926 C925 1.394 . S
C926 C927 1.516 1_455 S
C927 C926 1.516 1_655 S
C927 C928 1.502 . S
C927 C929 1.561 1_655 S
C927 C930 1.526 . S
C928 H912 0.959 . S
C928 H913 0.959 . S
C928 H914 0.961 . S
C928 C927 1.502 . S
C929 H915 0.960 . S
C929 H916 0.961 . S
C929 H917 0.959 . S
C929 C927 1.561 1_455 S
C930 C927 1.526 . S
C930 C931 1.396 . S
C930 C935 1.390 . S
C931 C925 1.465 1_655 S
C931 C930 1.396 . S
C931 C932 1.399 . S
C932 H918 0.929 1_655 S
C932 C931 1.399 . S
C932 C933 1.385 . S
C933 H919 0.931 . S
C933 C932 1.385 . S
C933 C934 1.389 . S
C934 C933 1.389 . S
C934 C935 1.387 . S
C935 H920 0.930 . S
C935 C930 1.390 . S
C935 C934 1.387 . S
H936 C948 0.930 . S
H937 C950 0.930 . S
H938 C951 0.930 . S
H939 C955 0.959 . S
H940 C955 0.959 . S
H941 C955 0.961 . S
H942 C956 0.960 . S
H943 C956 0.961 . S
H944 C956 0.959 . S
H945 C959 0.929 . S
H946 C960 0.931 . S
H947 C962 0.930 . S
C948 H936 0.930 . S
C948 C949 1.399 . S
C948 C953 1.399 . S
C949 C948 1.399 . S
C949 C950 1.376 . S
C950 H937 0.930 . S
C950 C949 1.376 . S
C950 C951 1.388 . S
C951 H938 0.930 . S
C951 C950 1.388 . S
C951 C952 1.390 . S
C952 C951 1.390 . S
C952 C953 1.394 . S
C952 C958 1.465 1_565 S
C953 C948 1.399 . S
C953 C952 1.394 . S
C953 C954 1.516 . S
C954 C953 1.516 . S
C954 C955 1.501 1_565 S
C954 C956 1.562 . S
C954 C957 1.526 1_565 S
C955 H939 0.959 . S
C955 H940 0.959 . S
C955 H941 0.961 . S
C955 C954 1.501 1_545 S
C956 H942 0.960 . S
C956 H943 0.961 . S
C956 H944 0.959 . S
C956 C954 1.562 . S
C957 C954 1.526 1_545 S
C957 C958 1.396 . S
C957 C962 1.390 . S
C958 C952 1.465 1_545 S
C958 C957 1.396 . S
C958 C959 1.399 . S
C959 H945 0.929 . S
C959 C958 1.399 . S
C959 C960 1.385 . S
C960 H946 0.931 . S
C960 C959 1.385 . S
C960 C961 1.389 . S
C961 C960 1.389 . S
C961 C962 1.387 . S
C962 H947 0.930 . S
C962 C957 1.390 . S
C962 C961 1.387 . S
H963 C975 0.930 . S
H964 C977 0.930 . S
H965 C978 0.930 . S
H966 C982 0.959 . S
H967 C982 0.959 . S
H968 C982 0.961 . S
H969 C983 0.960 . S
H970 C983 0.961 . S
H971 C983 0.959 . S
H972 C986 0.929 . S
H973 C987 0.931 . S
H974 C989 0.930 . S
C975 H963 0.930 . S
C975 C976 1.399 . S
C975 C980 1.399 . S
C976 C975 1.399 . S
C976 C977 1.376 . S
C977 H964 0.930 . S
C977 C976 1.376 . S
C977 C978 1.388 . S
C978 H965 0.930 . S
C978 C977 1.388 . S
C978 C979 1.390 . S
C979 C978 1.390 . S
C979 C980 1.394 . S
C979 C985 1.465 . S
C980 C975 1.399 . S
C980 C979 1.394 . S
C980 C981 1.516 . S
C981 C980 1.516 . S
C981 C982 1.502 . S
C981 C983 1.561 . S
C981 C984 1.526 . S
C982 H966 0.959 . S
C982 H967 0.959 . S
C982 H968 0.961 . S
C982 C981 1.502 . S
C983 H969 0.960 . S
C983 H970 0.961 . S
C983 H971 0.959 . S
C983 C981 1.561 . S
C984 C981 1.526 . S
C984 C985 1.396 . S
C984 C989 1.390 . S
C985 C979 1.465 . S
C985 C984 1.396 . S
C985 C986 1.399 . S
C986 H972 0.929 . S
C986 C985 1.399 . S
C986 C987 1.385 . S
C987 H973 0.931 . S
C987 C986 1.385 . S
C987 C988 1.389 . S
C988 C987 1.389 . S
C988 C989 1.387 . S
C989 H974 0.930 . S
C989 C984 1.390 . S
C989 C988 1.387 . S
H990 C1002 0.930 . S
H991 C1004 0.930 . S
H992 C1005 0.924 1_655 S
H993 C1009 0.959 . S
H994 C1009 0.959 . S
H995 C1009 0.961 . S
H996 C1010 0.960 1_455 S
H997 C1010 0.961 . S
H998 C1010 0.959 . S
H999 C1013 0.929 . S
H1000 C1014 0.931 . S
H1001 C1016 0.930 . S
C1002 H990 0.930 . S
C1002 C1003 1.399 . S
C1002 C1007 1.399 . S
C1003 C1002 1.399 . S
C1003 C1004 1.376 . S
C1004 H991 0.930 . S
C1004 C1003 1.376 . S
C1004 C1005 1.390 . S
C1005 H992 0.924 1_455 S
C1005 C1004 1.390 . S
C1005 C1006 1.403 1_455 S
C1006 C1005 1.403 1_655 S
C1006 C1007 1.384 1_655 S
C1006 C1012 1.464 . S
C1007 C1002 1.399 . S
C1007 C1006 1.384 1_455 S
C1007 C1008 1.516 . S
C1008 C1007 1.516 . S
C1008 C1009 1.502 . S
C1008 C1010 1.561 1_455 S
C1008 C1011 1.526 1_455 S
C1009 H993 0.959 . S
C1009 H994 0.959 . S
C1009 H995 0.961 . S
C1009 C1008 1.502 . S
C1010 H996 0.960 1_655 S
C1010 H997 0.961 . S
C1010 H998 0.959 . S
C1010 C1008 1.561 1_655 S
C1011 C1008 1.526 1_655 S
C1011 C1012 1.396 . S
C1011 C1016 1.390 . S
C1012 C1006 1.464 . S
C1012 C1011 1.396 . S
C1012 C1013 1.399 . S
C1013 H999 0.929 . S
C1013 C1012 1.399 . S
C1013 C1014 1.385 . S
C1014 H1000 0.931 . S
C1014 C1013 1.385 . S
C1014 C1015 1.389 . S
C1015 C1014 1.389 . S
C1015 C1016 1.387 . S
C1016 H1001 0.930 . S
C1016 C1011 1.390 . S
C1016 C1015 1.387 . S
H1017 C1029 0.930 . S
H1018 C1031 0.930 . S
H1019 C1032 0.930 . S
H1020 C1036 0.959 . S
H1021 C1036 0.959 . S
H1022 C1036 0.961 . S
H1023 C1037 0.960 . S
H1024 C1037 0.961 . S
H1025 C1037 0.959 . S
H1026 C1040 0.929 1_565 S
H1027 C1041 0.931 . S
H1028 C1043 0.930 . S
C1029 H1017 0.930 . S
C1029 C1030 1.399 . S
C1029 C1034 1.399 . S
C1030 C1029 1.399 . S
C1030 C1031 1.376 . S
C1031 H1018 0.930 . S
C1031 C1030 1.376 . S
C1031 C1032 1.388 . S
C1032 H1019 0.930 . S
C1032 C1031 1.388 . S
C1032 C1033 1.390 . S
C1033 C1032 1.390 . S
C1033 C1034 1.394 . S
C1033 C1039 1.465 1_565 S
C1034 C1029 1.399 . S
C1034 C1033 1.394 . S
C1034 C1035 1.516 1_565 S
C1035 C1034 1.516 1_545 S
C1035 C1036 1.502 . S
C1035 C1037 1.561 1_545 S
C1035 C1038 1.526 . S
C1036 H1020 0.959 . S
C1036 H1021 0.959 . S
C1036 H1022 0.961 . S
C1036 C1035 1.502 . S
C1037 H1023 0.960 . S
C1037 H1024 0.961 . S
C1037 H1025 0.959 . S
C1037 C1035 1.561 1_565 S
C1038 C1035 1.526 . S
C1038 C1039 1.396 . S
C1038 C1043 1.390 . S
C1039 C1033 1.465 1_545 S
C1039 C1038 1.396 . S
C1039 C1040 1.399 . S
C1040 H1026 0.929 1_545 S
C1040 C1039 1.399 . S
C1040 C1041 1.385 . S
C1041 H1027 0.931 . S
C1041 C1040 1.385 . S
C1041 C1042 1.389 . S
C1042 C1041 1.389 . S
C1042 C1043 1.387 . S
C1043 H1028 0.930 . S
C1043 C1038 1.390 . S
C1043 C1042 1.387 . S
H1044 C1056 0.930 . S
H1045 C1058 0.930 . S
H1046 C1059 0.930 1_565 S
H1047 C1063 0.958 1_565 S
H1048 C1063 0.963 . S
H1049 C1063 0.958 1_455 S
H1050 C1064 0.960 . S
H1051 C1064 0.961 1_655 S
H1052 C1064 0.959 . S
H1053 C1067 0.929 . S
H1054 C1068 0.931 . S
H1055 C1070 0.930 . S
C1056 H1044 0.930 . S
C1056 C1057 1.399 . S
C1056 C1061 1.399 . S
C1057 C1056 1.399 . S
C1057 C1058 1.376 . S
C1058 H1045 0.930 . S
C1058 C1057 1.376 . S
C1058 C1059 1.388 . S
C1059 H1046 0.930 1_545 S
C1059 C1058 1.388 . S
C1059 C1060 1.390 . S
C1060 C1059 1.390 . S
C1060 C1061 1.394 . S
C1060 C1066 1.465 1_445 S
C1061 C1056 1.399 . S
C1061 C1060 1.394 . S
C1061 C1062 1.516 . S
C1062 C1061 1.516 . S
C1062 C1063 1.502 1_455 S
C1062 C1064 1.561 . S
C1062 C1065 1.526 1_445 S
C1063 H1047 0.958 1_545 S
C1063 H1048 0.963 . S
C1063 H1049 0.958 1_655 S
C1063 C1062 1.502 1_655 S
C1064 H1050 0.960 . S
C1064 H1051 0.961 1_455 S
C1064 H1052 0.959 . S
C1064 C1062 1.561 . S
C1065 C1062 1.526 1_665 S
C1065 C1066 1.396 . S
C1065 C1070 1.390 . S
C1066 C1060 1.465 1_665 S
C1066 C1065 1.396 . S
C1066 C1067 1.399 . S
C1067 H1053 0.929 . S
C1067 C1066 1.399 . S
C1067 C1068 1.385 . S
C1068 H1054 0.931 . S
C1068 C1067 1.385 . S
C1068 C1069 1.389 . S
C1069 C1068 1.389 . S
C1069 C1070 1.387 . S
C1070 H1055 0.930 . S
C1070 C1065 1.390 . S
C1070 C1069 1.387 . S
H1071 C1083 0.930 . S
H1072 C1085 0.930 . S
H1073 C1086 0.930 . S
H1074 C1090 0.959 . S
H1075 C1090 0.959 1_565 S
H1076 C1090 0.961 . S
H1077 C1091 0.960 1_545 S
H1078 C1091 0.961 1_655 S
H1079 C1091 0.959 . S
H1080 C1094 0.929 1_455 S
H1081 C1095 0.931 . S
H1082 C1097 0.930 . S
C1083 H1071 0.930 . S
C1083 C1084 1.399 . S
C1083 C1088 1.399 . S
C1084 C1083 1.399 . S
C1084 C1085 1.376 . S
C1085 H1072 0.930 . S
C1085 C1084 1.376 . S
C1085 C1086 1.388 . S
C1086 H1073 0.930 . S
C1086 C1085 1.388 . S
C1086 C1087 1.390 . S
C1087 C1086 1.390 . S
C1087 C1088 1.394 . S
C1087 C1093 1.465 1_445 S
C1088 C1083 1.399 . S
C1088 C1087 1.394 . S
C1088 C1089 1.516 1_455 S
C1089 C1088 1.516 1_655 S
C1089 C1090 1.502 . S
C1089 C1091 1.561 1_645 S
C1089 C1092 1.526 1_545 S
C1090 H1074 0.959 . S
C1090 H1075 0.959 1_545 S
C1090 H1076 0.961 . S
C1090 C1089 1.502 . S
C1091 H1077 0.960 1_565 S
C1091 H1078 0.961 1_455 S
C1091 H1079 0.959 . S
C1091 C1089 1.561 1_465 S
C1092 C1089 1.526 1_565 S
C1092 C1093 1.396 . S
C1092 C1097 1.390 . S
C1093 C1087 1.465 1_665 S
C1093 C1092 1.396 . S
C1093 C1094 1.399 . S
C1094 H1080 0.929 1_655 S
C1094 C1093 1.399 . S
C1094 C1095 1.385 . S
C1095 H1081 0.931 . S
C1095 C1094 1.385 . S
C1095 C1096 1.389 . S
C1096 C1095 1.389 . S
C1096 C1097 1.387 . S
C1097 H1082 0.930 . S
C1097 C1092 1.390 . S
C1097 C1096 1.387 . S
H1098 C1110 0.930 . S
H1099 C1112 0.930 . S
H1100 C1113 0.930 . S
H1101 C1117 0.959 . S
H1102 C1117 0.959 . S
H1103 C1117 0.961 . S
H1104 C1118 0.960 . S
H1105 C1118 0.961 . S
H1106 C1118 0.959 . S
H1107 C1121 0.929 . S
H1108 C1122 0.931 . S
H1109 C1124 0.930 . S
C1110 H1098 0.930 . S
C1110 C1111 1.399 . S
C1110 C1115 1.399 . S
C1111 C1110 1.399 . S
C1111 C1112 1.376 . S
C1112 H1099 0.930 . S
C1112 C1111 1.376 . S
C1112 C1113 1.388 . S
C1113 H1100 0.930 . S
C1113 C1112 1.388 . S
C1113 C1114 1.390 . S
C1114 C1113 1.390 . S
C1114 C1115 1.394 . S
C1114 C1120 1.465 1_645 S
C1115 C1110 1.399 . S
C1115 C1114 1.394 . S
C1115 C1116 1.516 1_655 S
C1116 C1115 1.516 1_455 S
C1116 C1117 1.502 1_445 S
C1116 C1118 1.561 . S
C1116 C1119 1.526 1_545 S
C1117 H1101 0.959 . S
C1117 H1102 0.959 . S
C1117 H1103 0.961 . S
C1117 C1116 1.502 1_665 S
C1118 H1104 0.960 . S
C1118 H1105 0.961 . S
C1118 H1106 0.959 . S
C1118 C1116 1.561 . S
C1119 C1116 1.526 1_565 S
C1119 C1120 1.396 . S
C1119 C1124 1.390 . S
C1120 C1114 1.465 1_465 S
C1120 C1119 1.396 . S
C1120 C1121 1.399 . S
C1121 H1107 0.929 . S
C1121 C1120 1.399 . S
C1121 C1122 1.385 . S
C1122 H1108 0.931 . S
C1122 C1121 1.385 . S
C1122 C1123 1.389 . S
C1123 C1122 1.389 . S
C1123 C1124 1.387 . S
C1124 H1109 0.930 . S
C1124 C1119 1.390 . S
C1124 C1123 1.387 . S
H1125 C1137 0.930 . S
H1126 C1139 0.930 . S
H1127 C1140 0.930 1_455 S
H1128 C1144 0.959 . S
H1129 C1144 0.959 1_545 S
H1130 C1144 0.961 . S
H1131 C1145 0.960 1_565 S
H1132 C1145 0.961 . S
H1133 C1145 0.959 . S
H1134 C1148 0.929 . S
H1135 C1149 0.931 . S
H1136 C1151 0.930 . S
C1137 H1125 0.930 . S
C1137 C1138 1.399 . S
C1137 C1142 1.399 . S
C1138 C1137 1.399 . S
C1138 C1139 1.376 . S
C1139 H1126 0.930 . S
C1139 C1138 1.376 . S
C1139 C1140 1.388 . S
C1140 H1127 0.930 1_655 S
C1140 C1139 1.388 . S
C1140 C1141 1.390 1_655 S
C1141 C1140 1.390 1_455 S
C1141 C1142 1.394 1_455 S
C1141 C1147 1.465 1_565 S
C1142 C1137 1.399 . S
C1142 C1141 1.394 1_655 S
C1142 C1143 1.516 . S
C1143 C1142 1.516 . S
C1143 C1144 1.502 . S
C1143 C1145 1.561 1_665 S
C1143 C1146 1.526 1_665 S
C1144 H1128 0.959 . S
C1144 H1129 0.959 1_565 S
C1144 H1130 0.961 . S
C1144 C1143 1.502 . S
C1145 H1131 0.960 1_545 S
C1145 H1132 0.961 . S
C1145 H1133 0.959 . S
C1145 C1143 1.561 1_445 S
C1146 C1143 1.526 1_445 S
C1146 C1147 1.396 . S
C1146 C1151 1.390 . S
C1147 C1141 1.465 1_545 S
C1147 C1146 1.396 . S
C1147 C1148 1.399 . S
C1148 H1134 0.929 . S
C1148 C1147 1.399 . S
C1148 C1149 1.385 . S
C1149 H1135 0.931 . S
C1149 C1148 1.385 . S
C1149 C1150 1.389 . S
C1150 C1149 1.389 . S
C1150 C1151 1.387 . S
C1151 H1136 0.930 . S
C1151 C1146 1.390 . S
C1151 C1150 1.387 . S
H1152 C1164 0.930 1_565 S
H1153 C1166 0.930 . S
H1154 C1167 0.930 . S
H1155 C1171 0.959 . S
H1156 C1171 0.959 . S
H1157 C1171 0.961 . S
H1158 C1172 0.960 . S
H1159 C1172 0.961 . S
H1160 C1172 0.959 1_455 S
H1161 C1175 0.929 . S
H1162 C1176 0.931 1_545 S
H1163 C1178 0.930 . S
C1164 H1152 0.930 1_545 S
C1164 C1165 1.399 . S
C1164 C1169 1.399 . S
C1165 C1164 1.399 . S
C1165 C1166 1.376 . S
C1166 H1153 0.930 . S
C1166 C1165 1.376 . S
C1166 C1167 1.388 1_655 S
C1167 H1154 0.930 . S
C1167 C1166 1.388 1_455 S
C1167 C1168 1.390 . S
C1168 C1167 1.390 . S
C1168 C1169 1.394 1_455 S
C1168 C1174 1.465 . S
C1169 C1164 1.399 . S
C1169 C1168 1.394 1_655 S
C1169 C1170 1.516 1_545 S
C1170 C1169 1.516 1_565 S
C1170 C1171 1.502 . S
C1170 C1172 1.561 . S
C1170 C1173 1.526 1_655 S
C1171 H1155 0.959 . S
C1171 H1156 0.959 . S
C1171 H1157 0.961 . S
C1171 C1170 1.502 . S
C1172 H1158 0.960 . S
C1172 H1159 0.961 . S
C1172 H1160 0.959 1_655 S
C1172 C1170 1.561 . S
C1173 C1170 1.526 1_455 S
C1173 C1174 1.396 1_565 S
C1173 C1178 1.390 . S
C1174 C1168 1.465 . S
C1174 C1173 1.396 1_545 S
C1174 C1175 1.399 . S
C1175 H1161 0.929 . S
C1175 C1174 1.399 . S
C1175 C1176 1.385 1_545 S
C1176 H1162 0.931 1_565 S
C1176 C1175 1.385 1_565 S
C1176 C1177 1.389 . S
C1177 C1176 1.389 . S
C1177 C1178 1.387 . S
C1178 H1163 0.930 . S
C1178 C1173 1.390 . S
C1178 C1177 1.387 . S
H1179 C1191 0.930 . S
H1180 C1193 0.930 . S
H1181 C1194 0.930 . S
H1182 C1198 0.959 . S
H1183 C1198 0.959 1_655 S
H1184 C1198 0.961 . S
H1185 C1199 0.960 . S
H1186 C1199 0.961 1_655 S
H1187 C1199 0.959 . S
H1188 C1202 0.929 . S
H1189 C1203 0.931 . S
H1190 C1205 0.930 . S
C1191 H1179 0.930 . S
C1191 C1192 1.399 . S
C1191 C1196 1.399 . S
C1192 C1191 1.399 . S
C1192 C1193 1.376 . S
C1193 H1180 0.930 . S
C1193 C1192 1.376 . S
C1193 C1194 1.388 . S
C1194 H1181 0.930 . S
C1194 C1193 1.388 . S
C1194 C1195 1.390 . S
C1195 C1194 1.390 . S
C1195 C1196 1.394 . S
C1195 C1201 1.465 1_455 S
C1196 C1191 1.399 . S
C1196 C1195 1.394 . S
C1196 C1197 1.516 1_545 S
C1197 C1196 1.516 1_565 S
C1197 C1198 1.502 . S
C1197 C1199 1.561 . S
C1197 C1200 1.526 1_455 S
C1198 H1182 0.959 . S
C1198 H1183 0.959 1_455 S
C1198 H1184 0.961 . S
C1198 C1197 1.502 . S
C1199 H1185 0.960 . S
C1199 H1186 0.961 1_455 S
C1199 H1187 0.959 . S
C1199 C1197 1.561 . S
C1200 C1197 1.526 1_655 S
C1200 C1201 1.396 1_565 S
C1200 C1205 1.390 . S
C1201 C1195 1.465 1_655 S
C1201 C1200 1.396 1_545 S
C1201 C1202 1.399 . S
C1202 H1188 0.929 . S
C1202 C1201 1.399 . S
C1202 C1203 1.385 1_545 S
C1203 H1189 0.931 . S
C1203 C1202 1.385 1_565 S
C1203 C1204 1.389 . S
C1204 C1203 1.389 . S
C1204 C1205 1.387 . S
C1205 H1190 0.930 . S
C1205 C1200 1.390 . S
C1205 C1204 1.387 . S
C409 N13 1.582 . S
C421 N244 1.573 . S
C436 N46 1.517 . S
C448 N277 1.562 . S
C463 N79 1.580 . S
C475 N310 1.537 . S
C490 N343 1.526 . S
C502 N112 1.573 . S
C517 N376 1.512 . S
C529 N145 1.529 . S
C544 N178 1.512 . S
C556 N211 1.551 . S
C571 C106 1.718 . S
C583 C7 1.703 . S
C598 C40 1.701 . S
C610 C139 1.713 . S
C625 C172 1.715 . S
C637 C73 1.705 . S
C652 C304 1.717 . S
C664 C205 1.704 . S
C679 C337 1.699 . S
C691 C238 1.715 . S
C706 C271 1.716 . S
C718 C370 1.705 . S
C733 N266 1.483 . S
C745 N2 1.500 . S
C760 N35 1.455 . S
C772 N299 1.462 . S
C787 N68 1.500 . S
C799 N332 1.485 . S
C814 N101 1.528 . S
C826 N365 1.533 . S
C841 N134 1.532 . S
C853 N200 1.524 . S
C868 N233 1.460 . S
C880 N167 1.456 . S
C895 C120 1.202 . S
C907 C21 1.201 . S
C922 C54 1.217 . S
C934 C153 1.218 . S
C949 C186 1.218 . S
C961 C87 1.219 . S
C976 C219 1.203 . S
C988 C318 1.202 . S
C1003 C252 1.203 . S
C1015 C351 1.201 . S
C1030 C384 1.216 . S
C1042 C285 1.218 . S
C1057 C18 1.137 . S
C1069 C117 1.135 . S
C1084 C51 1.149 . S
C1096 C150 1.132 . S
C1111 C84 1.145 . S
C1123 C183 1.138 . S
C1138 C216 1.147 . S
C1150 C315 1.134 . S
C1165 C348 1.126 . S
C1177 C249 1.150 . S
C1192 C282 1.149 . S
C1204 C381 1.126 . S
