# Generated by pormake.
# Topology yft, (5)-cn, num edge types: 1
# Building blocks:
#     Node 0, Type 0, BuildingBlock: XOMCOT_clean_sbu_0, # of connection points: 5
#     Node 1, Type 0, BuildingBlock: XOMCOT_clean_sbu_0, # of connection points: 5
#     Node 2, Type 0, BuildingBlock: XOMCOT_clean_sbu_0, # of connection points: 5
#     Node 3, Type 0, BuildingBlock: XOMCOT_clean_sbu_0, # of connection points: 5
#     Node 4, Type 0, BuildingBlock: XOMCOT_clean_sbu_0, # of connection points: 5
#     Node 5, Type 0, BuildingBlock: XOMCOT_clean_sbu_0, # of connection points: 5
#     Node 6, Type 0, BuildingBlock: XOMCOT_clean_sbu_0, # of connection points: 5
#     Node 7, Type 0, BuildingBlock: XOMCOT_clean_sbu_0, # of connection points: 5
#     Node 8, Type 0, BuildingBlock: XOMCOT_clean_sbu_0, # of connection points: 5
#     Node 9, Type 0, BuildingBlock: XOMCOT_clean_sbu_0, # of connection points: 5
#     Node 10, Type 0, BuildingBlock: XOMCOT_clean_sbu_0, # of connection points: 5
#     Node 11, Type 0, BuildingBlock: XOMCOT_clean_sbu_0, # of connection points: 5
#     Node 12, Type 0, BuildingBlock: XOMCOT_clean_sbu_0, # of connection points: 5
#     Node 13, Type 0, BuildingBlock: XOMCOT_clean_sbu_0, # of connection points: 5
#     Node 14, Type 0, BuildingBlock: XOMCOT_clean_sbu_0, # of connection points: 5
#     Node 15, Type 0, BuildingBlock: XOMCOT_clean_sbu_0, # of connection points: 5
#     Node 16, Type 0, BuildingBlock: XOMCOT_clean_sbu_0, # of connection points: 5
#     Node 17, Type 0, BuildingBlock: XOMCOT_clean_sbu_0, # of connection points: 5
#     Node 18, Type 0, BuildingBlock: XOMCOT_clean_sbu_0, # of connection points: 5
#     Node 19, Type 0, BuildingBlock: XOMCOT_clean_sbu_0, # of connection points: 5
#     Node 20, Type 0, BuildingBlock: XOMCOT_clean_sbu_0, # of connection points: 5
#     Node 21, Type 0, BuildingBlock: XOMCOT_clean_sbu_0, # of connection points: 5
#     Node 22, Type 0, BuildingBlock: XOMCOT_clean_sbu_0, # of connection points: 5
#     Node 23, Type 0, BuildingBlock: XOMCOT_clean_sbu_0, # of connection points: 5
#     Node 24, Type 0, BuildingBlock: XOMCOT_clean_sbu_0, # of connection points: 5
#     Node 25, Type 0, BuildingBlock: XOMCOT_clean_sbu_0, # of connection points: 5
#     Node 26, Type 0, BuildingBlock: XOMCOT_clean_sbu_0, # of connection points: 5
#     Node 27, Type 0, BuildingBlock: XOMCOT_clean_sbu_0, # of connection points: 5
#     Node 28, Type 0, BuildingBlock: XOMCOT_clean_sbu_0, # of connection points: 5
#     Node 29, Type 0, BuildingBlock: XOMCOT_clean_sbu_0, # of connection points: 5
#     Node 30, Type 0, BuildingBlock: XOMCOT_clean_sbu_0, # of connection points: 5
#     Node 31, Type 0, BuildingBlock: XOMCOT_clean_sbu_0, # of connection points: 5
#     Edge 32, Type (0, 0), BuildingBlock: XIVTED_clean_linker_0, # of connection points: 2
#     Edge 33, Type (0, 0), BuildingBlock: XIVTED_clean_linker_0, # of connection points: 2
#     Edge 34, Type (0, 0), BuildingBlock: XIVTED_clean_linker_0, # of connection points: 2
#     Edge 35, Type (0, 0), BuildingBlock: XIVTED_clean_linker_0, # of connection points: 2
#     Edge 36, Type (0, 0), BuildingBlock: XIVTED_clean_linker_0, # of connection points: 2
#     Edge 37, Type (0, 0), BuildingBlock: XIVTED_clean_linker_0, # of connection points: 2
#     Edge 38, Type (0, 0), BuildingBlock: XIVTED_clean_linker_0, # of connection points: 2
#     Edge 39, Type (0, 0), BuildingBlock: XIVTED_clean_linker_0, # of connection points: 2
#     Edge 40, Type (0, 0), BuildingBlock: XIVTED_clean_linker_0, # of connection points: 2
#     Edge 41, Type (0, 0), BuildingBlock: XIVTED_clean_linker_0, # of connection points: 2
#     Edge 42, Type (0, 0), BuildingBlock: XIVTED_clean_linker_0, # of connection points: 2
#     Edge 43, Type (0, 0), BuildingBlock: XIVTED_clean_linker_0, # of connection points: 2
#     Edge 44, Type (0, 0), BuildingBlock: XIVTED_clean_linker_0, # of connection points: 2
#     Edge 45, Type (0, 0), BuildingBlock: XIVTED_clean_linker_0, # of connection points: 2
#     Edge 46, Type (0, 0), BuildingBlock: XIVTED_clean_linker_0, # of connection points: 2
#     Edge 47, Type (0, 0), BuildingBlock: XIVTED_clean_linker_0, # of connection points: 2
#     Edge 48, Type (0, 0), BuildingBlock: XIVTED_clean_linker_0, # of connection points: 2
#     Edge 49, Type (0, 0), BuildingBlock: XIVTED_clean_linker_0, # of connection points: 2
#     Edge 50, Type (0, 0), BuildingBlock: XIVTED_clean_linker_0, # of connection points: 2
#     Edge 51, Type (0, 0), BuildingBlock: XIVTED_clean_linker_0, # of connection points: 2
#     Edge 52, Type (0, 0), BuildingBlock: XIVTED_clean_linker_0, # of connection points: 2
#     Edge 53, Type (0, 0), BuildingBlock: XIVTED_clean_linker_0, # of connection points: 2
#     Edge 54, Type (0, 0), BuildingBlock: XIVTED_clean_linker_0, # of connection points: 2
#     Edge 55, Type (0, 0), BuildingBlock: XIVTED_clean_linker_0, # of connection points: 2
#     Edge 56, Type (0, 0), BuildingBlock: XIVTED_clean_linker_0, # of connection points: 2
#     Edge 57, Type (0, 0), BuildingBlock: XIVTED_clean_linker_0, # of connection points: 2
#     Edge 58, Type (0, 0), BuildingBlock: XIVTED_clean_linker_0, # of connection points: 2
#     Edge 59, Type (0, 0), BuildingBlock: XIVTED_clean_linker_0, # of connection points: 2
#     Edge 60, Type (0, 0), BuildingBlock: XIVTED_clean_linker_0, # of connection points: 2
#     Edge 61, Type (0, 0), BuildingBlock: XIVTED_clean_linker_0, # of connection points: 2
#     Edge 62, Type (0, 0), BuildingBlock: XIVTED_clean_linker_0, # of connection points: 2
#     Edge 63, Type (0, 0), BuildingBlock: XIVTED_clean_linker_0, # of connection points: 2
#     Edge 64, Type (0, 0), BuildingBlock: XIVTED_clean_linker_0, # of connection points: 2
#     Edge 65, Type (0, 0), BuildingBlock: XIVTED_clean_linker_0, # of connection points: 2
#     Edge 66, Type (0, 0), BuildingBlock: XIVTED_clean_linker_0, # of connection points: 2
#     Edge 67, Type (0, 0), BuildingBlock: XIVTED_clean_linker_0, # of connection points: 2
#     Edge 68, Type (0, 0), BuildingBlock: XIVTED_clean_linker_0, # of connection points: 2
#     Edge 69, Type (0, 0), BuildingBlock: XIVTED_clean_linker_0, # of connection points: 2
#     Edge 70, Type (0, 0), BuildingBlock: XIVTED_clean_linker_0, # of connection points: 2
#     Edge 71, Type (0, 0), BuildingBlock: XIVTED_clean_linker_0, # of connection points: 2
#     Edge 72, Type (0, 0), BuildingBlock: XIVTED_clean_linker_0, # of connection points: 2
#     Edge 73, Type (0, 0), BuildingBlock: XIVTED_clean_linker_0, # of connection points: 2
#     Edge 74, Type (0, 0), BuildingBlock: XIVTED_clean_linker_0, # of connection points: 2
#     Edge 75, Type (0, 0), BuildingBlock: XIVTED_clean_linker_0, # of connection points: 2
#     Edge 76, Type (0, 0), BuildingBlock: XIVTED_clean_linker_0, # of connection points: 2
#     Edge 77, Type (0, 0), BuildingBlock: XIVTED_clean_linker_0, # of connection points: 2
#     Edge 78, Type (0, 0), BuildingBlock: XIVTED_clean_linker_0, # of connection points: 2
#     Edge 79, Type (0, 0), BuildingBlock: XIVTED_clean_linker_0, # of connection points: 2
#     Edge 80, Type (0, 0), BuildingBlock: XIVTED_clean_linker_0, # of connection points: 2
#     Edge 81, Type (0, 0), BuildingBlock: XIVTED_clean_linker_0, # of connection points: 2
#     Edge 82, Type (0, 0), BuildingBlock: XIVTED_clean_linker_0, # of connection points: 2
#     Edge 83, Type (0, 0), BuildingBlock: XIVTED_clean_linker_0, # of connection points: 2
#     Edge 84, Type (0, 0), BuildingBlock: XIVTED_clean_linker_0, # of connection points: 2
#     Edge 85, Type (0, 0), BuildingBlock: XIVTED_clean_linker_0, # of connection points: 2
#     Edge 86, Type (0, 0), BuildingBlock: XIVTED_clean_linker_0, # of connection points: 2
#     Edge 87, Type (0, 0), BuildingBlock: XIVTED_clean_linker_0, # of connection points: 2
#     Edge 88, Type (0, 0), BuildingBlock: XIVTED_clean_linker_0, # of connection points: 2
#     Edge 89, Type (0, 0), BuildingBlock: XIVTED_clean_linker_0, # of connection points: 2
#     Edge 90, Type (0, 0), BuildingBlock: XIVTED_clean_linker_0, # of connection points: 2
#     Edge 91, Type (0, 0), BuildingBlock: XIVTED_clean_linker_0, # of connection points: 2
#     Edge 92, Type (0, 0), BuildingBlock: XIVTED_clean_linker_0, # of connection points: 2
#     Edge 93, Type (0, 0), BuildingBlock: XIVTED_clean_linker_0, # of connection points: 2
#     Edge 94, Type (0, 0), BuildingBlock: XIVTED_clean_linker_0, # of connection points: 2
#     Edge 95, Type (0, 0), BuildingBlock: XIVTED_clean_linker_0, # of connection points: 2
#     Edge 96, Type (0, 0), BuildingBlock: XIVTED_clean_linker_0, # of connection points: 2
#     Edge 97, Type (0, 0), BuildingBlock: XIVTED_clean_linker_0, # of connection points: 2
#     Edge 98, Type (0, 0), BuildingBlock: XIVTED_clean_linker_0, # of connection points: 2
#     Edge 99, Type (0, 0), BuildingBlock: XIVTED_clean_linker_0, # of connection points: 2
#     Edge 100, Type (0, 0), BuildingBlock: XIVTED_clean_linker_0, # of connection points: 2
#     Edge 101, Type (0, 0), BuildingBlock: XIVTED_clean_linker_0, # of connection points: 2
#     Edge 102, Type (0, 0), BuildingBlock: XIVTED_clean_linker_0, # of connection points: 2
#     Edge 103, Type (0, 0), BuildingBlock: XIVTED_clean_linker_0, # of connection points: 2
#     Edge 104, Type (0, 0), BuildingBlock: XIVTED_clean_linker_0, # of connection points: 2
#     Edge 105, Type (0, 0), BuildingBlock: XIVTED_clean_linker_0, # of connection points: 2
#     Edge 106, Type (0, 0), BuildingBlock: XIVTED_clean_linker_0, # of connection points: 2
#     Edge 107, Type (0, 0), BuildingBlock: XIVTED_clean_linker_0, # of connection points: 2
#     Edge 108, Type (0, 0), BuildingBlock: XIVTED_clean_linker_0, # of connection points: 2
#     Edge 109, Type (0, 0), BuildingBlock: XIVTED_clean_linker_0, # of connection points: 2
#     Edge 110, Type (0, 0), BuildingBlock: XIVTED_clean_linker_0, # of connection points: 2
#     Edge 111, Type (0, 0), BuildingBlock: XIVTED_clean_linker_0, # of connection points: 2
# Relax obj value: 0.376
# Max RMSD: 0.257
# Mean RMSD: 0.257
data_MOF--net-yft--node1-XOMCOT_clean_sbu_0--edge1-XIVTED_clean_linker_0
_symmetry_space_group_name_H-M    P1
_symmetry_Int_Tables_number       1
_symmetry_cell_setting            triclinic
loop_
_symmetry_equiv_pos_as_xyz
'x, y, z'
_cell_length_a     42.969264
_cell_length_b     42.968514
_cell_length_c     97.296309
_cell_angle_alpha  90.02217
_cell_angle_beta   89.997933
_cell_angle_gamma 89.987174
loop_
_atom_site_label
_atom_site_type_symbol
_atom_site_fract_x
_atom_site_fract_y
_atom_site_fract_z
_atom_type_partial_charge
Co0 Co 0.29856 0.21147 0.155 0.0
C1 C 0.23425 0.19482 0.14681 0.0
C2 C 0.25323 0.23088 0.1342 0.0
C3 C 0.22573 0.22107 0.12842 0.0
N4 N 0.2584 0.21491 0.14592 0.0
N5 N 0.21392 0.1982 0.13632 0.0
H6 H 0.23326 0.17571 0.15398 0.0
H7 H 0.26961 0.24667 0.12946 0.0
C8 C 0.29101 0.28094 0.15146 0.0
O9 O 0.26134 0.27951 0.15463 0.0
N10 N 0.3387 0.20712 0.16363 0.0
C11 C 0.34498 0.189 0.17456 0.0
C12 C 0.37611 0.19144 0.17757 0.0
C13 C 0.36606 0.22006 0.15997 0.0
N14 N 0.38934 0.21094 0.1684 0.0
C15 C 0.26179 0.2006 0.17957 0.0
C16 C 0.28571 0.25068 0.19397 0.0
C17 C 0.26597 0.23 0.20083 0.0
C18 C 0.25351 0.20491 0.19339 0.0
C19 C 0.29341 0.24552 0.18027 0.0
N20 N 0.28123 0.22102 0.17308 0.0
H21 H 0.25413 0.1798 0.17442 0.0
H22 H 0.31095 0.26032 0.17581 0.0
H23 H 0.32806 0.17488 0.17993 0.0
H24 H 0.36877 0.23596 0.15143 0.0
O25 O 0.29528 0.16623 0.15469 0.0
O26 O 0.31539 0.19576 0.13821 0.0
O27 O 0.30796 0.25654 0.15133 0.0
C28 C 0.30885 0.1681 0.14271 0.0
H29 H 0.21625 0.22883 0.11871 0.0
H30 H 0.38817 0.17937 0.18575 0.0
H31 H 0.29602 0.27033 0.19926 0.0
H32 H 0.23881 0.18785 0.19839 0.0
Co33 Co 0.03802 0.04303 0.40678 0.0
C34 C 0.0584 0.98053 0.39849 0.0
C35 C 0.01705 0.9943 0.38771 0.0
C36 C 0.02742 0.96652 0.38229 0.0
N37 N 0.03656 0.00302 0.39783 0.0
N38 N 0.05353 0.95801 0.38904 0.0
H39 H 0.07863 0.9818 0.4051 0.0
H40 H 0.99768 0.00797 0.38398 0.0
C41 C 0.97176 0.06134 0.41197 0.0
O42 O 0.97986 0.07115 0.42425 0.0
N43 N 0.04024 0.08387 0.41545 0.0
C44 C 0.0588 0.09273 0.42594 0.0
C45 C 0.05562 0.12414 0.42799 0.0
C46 C 0.02703 0.11059 0.4109 0.0
N47 N 0.03559 0.1354 0.41858 0.0
C48 C 0.05807 0.02052 0.43328 0.0
C49 C 0.00024 0.00068 0.44199 0.0
C50 C 0.02399 0.00411 0.45179 0.0
C51 C 0.0538 0.0122 0.44705 0.0
C52 C 0.00578 0.00888 0.42831 0.0
N53 N 0.03336 0.02217 0.42452 0.0
H54 H 0.08104 0.02709 0.42985 0.0
H55 H 0.98728 0.00574 0.42095 0.0
H56 H 0.07495 0.07821 0.43141 0.0
H57 H 0.01149 0.11179 0.40217 0.0
O58 O 0.08315 0.04373 0.40501 0.0
O59 O 0.04947 0.06189 0.38971 0.0
O60 O 0.99167 0.04785 0.40423 0.0
C61 C 0.07826 0.05761 0.39329 0.0
H62 H 0.01717 0.95417 0.37372 0.0
H63 H 0.06804 0.13785 0.43554 0.0
H64 H 0.97708 0.99328 0.44488 0.0
H65 H 0.07352 0.01303 0.45396 0.0
Co66 Co 0.20267 0.78583 0.65295 0.0
C67 C 0.26676 0.80483 0.64546 0.0
C68 C 0.24836 0.77062 0.63169 0.0
C69 C 0.27587 0.78152 0.62635 0.0
N70 N 0.24284 0.78472 0.64384 0.0
N71 N 0.28732 0.80331 0.63495 0.0
H72 H 0.26751 0.8225 0.65333 0.0
H73 H 0.2323 0.7552 0.62651 0.0
C74 C 0.21392 0.71706 0.64836 0.0
O75 O 0.24381 0.71994 0.65087 0.0
N76 N 0.16247 0.78785 0.66173 0.0
C77 C 0.15557 0.80541 0.67278 0.0
C78 C 0.12478 0.80115 0.67602 0.0
C79 C 0.13572 0.77341 0.65823 0.0
N80 N 0.1123 0.78105 0.6669 0.0
C81 C 0.23622 0.7998 0.67799 0.0
C82 C 0.21872 0.74611 0.69156 0.0
C83 C 0.23339 0.76966 0.6991 0.0
C84 C 0.2429 0.79655 0.69204 0.0
C85 C 0.21181 0.7506 0.67776 0.0
N86 N 0.22069 0.77703 0.67098 0.0
H87 H 0.24135 0.8217 0.67308 0.0
H88 H 0.197 0.73356 0.673 0.0
H89 H 0.17179 0.82046 0.67807 0.0
H90 H 0.13354 0.75752 0.64965 0.0
O91 O 0.20372 0.83115 0.65283 0.0
O92 O 0.18482 0.80109 0.63626 0.0
O93 O 0.19558 0.74041 0.64902 0.0
C94 C 0.1902 0.82893 0.64086 0.0
H95 H 0.28567 0.77514 0.6165 0.0
H96 H 0.11237 0.81243 0.68433 0.0
H97 H 0.21116 0.72473 0.69641 0.0
H98 H 0.25374 0.81572 0.69745 0.0
Co99 Co 0.46828 0.95383 0.90465 0.0
C100 C 0.44945 0.01826 0.89773 0.0
C101 C 0.48675 0.00213 0.88504 0.0
C102 C 0.47593 0.02973 0.87972 0.0
N103 N 0.47061 0.9951 0.89653 0.0
N104 N 0.45228 0.03973 0.88766 0.0
H105 H 0.43 0.01767 0.90473 0.0
H106 H 0.50336 0.9869 0.88009 0.0
C107 C 0.53761 0.96412 0.90185 0.0
O108 O 0.53512 0.99345 0.9055 0.0
N109 N 0.46506 0.91259 0.91229 0.0
C110 C 0.44507 0.90373 0.9222 0.0
C111 C 0.44737 0.87204 0.92388 0.0
C112 C 0.47937 0.88635 0.90807 0.0
N113 N 0.46889 0.86122 0.915 0.0
C114 C 0.45548 0.98775 0.92986 0.0
C115 C 0.50664 0.96517 0.94394 0.0
C116 C 0.4858 0.98457 0.95091 0.0
C117 C 0.45981 0.99586 0.94371 0.0
C118 C 0.50132 0.95745 0.93025 0.0
N119 N 0.47653 0.96936 0.92317 0.0
H120 H 0.43445 0.99504 0.92479 0.0
H121 H 0.51644 0.94037 0.92563 0.0
H122 H 0.42943 0.9192 0.92762 0.0
H123 H 0.49622 0.88551 0.89981 0.0
O124 O 0.423 0.95557 0.90406 0.0
O125 O 0.45379 0.93847 0.88735 0.0
O126 O 0.51381 0.94643 0.90118 0.0
C127 C 0.42578 0.94353 0.8918 0.0
H128 H 0.48354 0.04046 0.87024 0.0
H129 H 0.43422 0.85802 0.93107 0.0
H130 H 0.52623 0.95471 0.94921 0.0
H131 H 0.4427 0.0104 0.94877 0.0
Co132 Co 0.29921 0.78689 0.34671 0.0
C133 C 0.23491 0.80379 0.35495 0.0
C134 C 0.2534 0.76679 0.36718 0.0
C135 C 0.22593 0.77651 0.37301 0.0
N136 N 0.25886 0.78339 0.35565 0.0
N137 N 0.21442 0.79997 0.36537 0.0
H138 H 0.23417 0.82335 0.34802 0.0
H139 H 0.26958 0.75056 0.37176 0.0
C140 C 0.2908 0.71741 0.34948 0.0
O141 O 0.26124 0.71946 0.34615 0.0
N142 N 0.33959 0.79123 0.33827 0.0
C143 C 0.34623 0.80956 0.32745 0.0
C144 C 0.37751 0.80732 0.32469 0.0
C145 C 0.36688 0.77836 0.34211 0.0
N146 N 0.39049 0.78772 0.3339 0.0
C147 C 0.26246 0.79909 0.32225 0.0
C148 C 0.28518 0.74896 0.3075 0.0
C149 C 0.26475 0.76955 0.30096 0.0
C150 C 0.25333 0.79496 0.30852 0.0
C151 C 0.29383 0.75405 0.32111 0.0
N152 N 0.28197 0.77839 0.32851 0.0
H153 H 0.25509 0.8198 0.32756 0.0
H154 H 0.31166 0.73924 0.32535 0.0
H155 H 0.32949 0.82377 0.32202 0.0
H156 H 0.36932 0.76239 0.35064 0.0
O157 O 0.29625 0.83211 0.34744 0.0
O158 O 0.31589 0.80164 0.3637 0.0
O159 O 0.30809 0.74154 0.34996 0.0
C160 C 0.30947 0.82955 0.35947 0.0
H161 H 0.21627 0.76825 0.38261 0.0
H162 H 0.38983 0.81965 0.31667 0.0
H163 H 0.29575 0.72983 0.30195 0.0
H164 H 0.23796 0.81184 0.30381 0.0
Co165 Co 0.4646 0.05008 0.59841 0.0
C166 C 0.44541 0.98633 0.60646 0.0
C167 C 0.48062 0.00466 0.61973 0.0
C168 C 0.46991 0.97725 0.62527 0.0
N169 N 0.46578 0.01013 0.60775 0.0
N170 N 0.44757 0.96582 0.61695 0.0
H171 H 0.42713 0.98558 0.59888 0.0
H172 H 0.49654 0.02064 0.62465 0.0
C173 C 0.53337 0.03818 0.60221 0.0
O174 O 0.52995 0.00837 0.59965 0.0
N175 N 0.46256 0.09007 0.58949 0.0
C176 C 0.44519 0.09683 0.57837 0.0
C177 C 0.4491 0.12774 0.57523 0.0
C178 C 0.47652 0.11696 0.59312 0.0
N179 N 0.46876 0.14038 0.58449 0.0
C180 C 0.45045 0.0142 0.57391 0.0
C181 C 0.50322 0.03193 0.55966 0.0
C182 C 0.48091 0.01393 0.55285 0.0
C183 C 0.45421 0.00493 0.56018 0.0
C184 C 0.49845 0.04086 0.57325 0.0
N185 N 0.47271 0.03148 0.58041 0.0
H186 H 0.42876 0.00909 0.57898 0.0
H187 H 0.51468 0.05726 0.57757 0.0
H188 H 0.43045 0.08045 0.573 0.0
H189 H 0.49205 0.11926 0.60182 0.0
O190 O 0.41923 0.0495 0.59895 0.0
O191 O 0.45027 0.06848 0.61513 0.0
O192 O 0.51024 0.05682 0.60189 0.0
C193 C 0.42217 0.06328 0.61084 0.0
H194 H 0.47689 0.96744 0.63503 0.0
H195 H 0.4378 0.1401 0.56692 0.0
H196 H 0.52348 0.04071 0.55429 0.0
H197 H 0.436 0.99155 0.55525 0.0
Co198 Co 0.20161 0.21131 0.84905 0.0
C199 C 0.26619 0.192 0.85575 0.0
C200 C 0.25193 0.23142 0.86761 0.0
C201 C 0.28007 0.22115 0.87258 0.0
N202 N 0.24334 0.21357 0.85683 0.0
N203 N 0.28893 0.19622 0.86516 0.0
H204 H 0.26478 0.17168 0.84925 0.0
H205 H 0.23765 0.24894 0.87245 0.0
C206 C 0.20903 0.28046 0.85248 0.0
O207 O 0.23467 0.27992 0.84514 0.0
N208 N 0.16 0.20804 0.84164 0.0
C209 C 0.15226 0.19003 0.83084 0.0
C210 C 0.12109 0.19348 0.82826 0.0
C211 C 0.13332 0.22201 0.84565 0.0
N212 N 0.10916 0.21361 0.83752 0.0
C213 C 0.23744 0.20646 0.82388 0.0
C214 C 0.2068 0.25412 0.81038 0.0
C215 C 0.22903 0.2368 0.80313 0.0
C216 C 0.24464 0.21282 0.81011 0.0
C217 C 0.20025 0.24693 0.82404 0.0
N218 N 0.21583 0.22372 0.83078 0.0
H219 H 0.24819 0.18669 0.82871 0.0
H220 H 0.18172 0.25951 0.82909 0.0
H221 H 0.16835 0.17558 0.82515 0.0
H222 H 0.13175 0.23836 0.85408 0.0
O223 O 0.20495 0.16641 0.84753 0.0
O224 O 0.18773 0.19225 0.86578 0.0
O225 O 0.19339 0.25566 0.85464 0.0
C226 C 0.19329 0.16567 0.8599 0.0
H227 H 0.2921 0.23024 0.88149 0.0
H228 H 0.10813 0.18193 0.8202 0.0
H229 H 0.19411 0.27287 0.80549 0.0
H230 H 0.26135 0.19819 0.80485 0.0
Co231 Co 0.03133 0.9567 0.09622 0.0
C232 C 0.05527 0.01783 0.10484 0.0
C233 C 0.01385 0.00552 0.11591 0.0
C234 C 0.02543 0.03282 0.12129 0.0
N235 N 0.03262 0.99619 0.10562 0.0
N236 N 0.05156 0.04043 0.11436 0.0
H237 H 0.07506 0.01602 0.098 0.0
H238 H 0.99398 0.99268 0.11969 0.0
C239 C 0.96403 0.94077 0.09234 0.0
O240 O 0.97047 0.93022 0.07999 0.0
N241 N 0.03038 0.91625 0.087 0.0
C242 C 0.03525 0.90942 0.07362 0.0
C243 C 0.03371 0.87781 0.07184 0.0
C244 C 0.0258 0.88828 0.09311 0.0
N245 N 0.02799 0.86441 0.08409 0.0
C246 C 0.052 0.98131 0.07024 0.0
C247 C 0.99448 0.00251 0.06165 0.0
C248 C 0.01872 0.00057 0.05207 0.0
C249 C 0.04829 0.99161 0.05668 0.0
C250 C 0.99941 0.99258 0.07513 0.0
N251 N 0.02693 0.979 0.07882 0.0
H252 H 0.0744 0.97245 0.07339 0.0
H253 H 0.98064 0.99498 0.08239 0.0
H254 H 0.03903 0.92569 0.06542 0.0
H255 H 0.02134 0.88543 0.10398 0.0
O256 O 0.07649 0.95338 0.09737 0.0
O257 O 0.04302 0.93653 0.113 0.0
O258 O 0.98505 0.95415 0.09949 0.0
C259 C 0.07173 0.93946 0.10909 0.0
H260 H 0.01582 0.04556 0.1299 0.0
H261 H 0.03606 0.86574 0.06213 0.0
H262 H 0.9717 0.01091 0.05864 0.0
H263 H 0.06784 0.99053 0.04967 0.0
Co264 Co 0.7031 0.78363 0.84907 0.0
C265 C 0.76718 0.80139 0.85716 0.0
C266 C 0.74809 0.76656 0.87041 0.0
C267 C 0.77548 0.77703 0.87607 0.0
N268 N 0.74306 0.78137 0.85838 0.0
N269 N 0.78737 0.79912 0.86777 0.0
H270 H 0.76831 0.81968 0.8496 0.0
H271 H 0.73174 0.751 0.87532 0.0
C272 C 0.71334 0.71467 0.85275 0.0
O273 O 0.74316 0.71759 0.8501 0.0
N274 N 0.66315 0.7869 0.84018 0.0
C275 C 0.65704 0.80486 0.82918 0.0
C276 C 0.62599 0.80239 0.82607 0.0
C277 C 0.6357 0.77399 0.84378 0.0
N278 N 0.61256 0.783 0.83523 0.0
C279 C 0.73937 0.79655 0.82455 0.0
C280 C 0.71973 0.74442 0.81031 0.0
C281 C 0.73848 0.76608 0.8035 0.0
C282 C 0.74842 0.79247 0.8108 0.0
C283 C 0.71101 0.74953 0.8239 0.0
N284 N 0.72134 0.77491 0.83106 0.0
H285 H 0.74527 0.81805 0.82961 0.0
H286 H 0.69404 0.73391 0.82822 0.0
H287 H 0.67396 0.81912 0.82389 0.0
H288 H 0.63279 0.75837 0.85241 0.0
O289 O 0.70504 0.82894 0.84957 0.0
O290 O 0.68522 0.79856 0.86581 0.0
O291 O 0.69514 0.73817 0.85256 0.0
C292 C 0.69123 0.82648 0.86147 0.0
H293 H 0.78491 0.77021 0.88594 0.0
H294 H 0.61409 0.81453 0.81787 0.0
H295 H 0.71024 0.72447 0.80494 0.0
H296 H 0.76239 0.8102 0.80586 0.0
Co297 Co 0.96419 0.95108 0.59809 0.0
C298 C 0.94408 0.0143 0.60659 0.0
C299 C 0.97912 0.99565 0.61987 0.0
C300 C 0.9679 0.02259 0.62565 0.0
N301 N 0.96469 0.99066 0.60775 0.0
N302 N 0.94562 0.03419 0.61735 0.0
H303 H 0.92613 0.01529 0.59886 0.0
H304 H 0.99509 0.97958 0.62471 0.0
C305 C 0.03271 0.96386 0.60226 0.0
O306 O 0.02883 0.99374 0.6 0.0
N307 N 0.96287 0.91139 0.58885 0.0
C308 C 0.94598 0.90486 0.57756 0.0
C309 C 0.95034 0.87411 0.57421 0.0
C310 C 0.97696 0.88449 0.59238 0.0
N311 N 0.96978 0.86131 0.58352 0.0
C312 C 0.94906 0.98683 0.57374 0.0
C313 C 0.00325 0.97254 0.55975 0.0
C314 C 0.98005 0.9892 0.55292 0.0
C315 C 0.95256 0.99634 0.56003 0.0
C316 C 0.99849 0.96277 0.57321 0.0
N317 N 0.97207 0.97057 0.58028 0.0
H318 H 0.92707 0.99083 0.57877 0.0
H319 H 0.01539 0.94701 0.57747 0.0
H320 H 0.93123 0.92126 0.57221 0.0
H321 H 0.99218 0.882 0.60118 0.0
O322 O 0.91885 0.95111 0.59855 0.0
O323 O 0.94997 0.93186 0.61465 0.0
O324 O 0.00989 0.94487 0.60163 0.0
C325 C 0.92185 0.93707 0.61036 0.0
H326 H 0.9745 0.0319 0.63556 0.0
H327 H 0.93946 0.86194 0.56574 0.0
H328 H 0.02423 0.96538 0.55443 0.0
H329 H 0.93372 0.00848 0.55493 0.0
Co330 Co 0.79414 0.21364 0.3486 0.0
C331 C 0.73238 0.19104 0.35688 0.0
C332 C 0.74523 0.23215 0.36807 0.0
C333 C 0.71761 0.221 0.37333 0.0
N334 N 0.7544 0.2133 0.35779 0.0
N335 N 0.70966 0.19507 0.36632 0.0
H336 H 0.73401 0.17126 0.35002 0.0
H337 H 0.7584 0.25172 0.37194 0.0
C338 C 0.80872 0.28091 0.34331 0.0
O339 O 0.81875 0.27352 0.33096 0.0
N340 N 0.83469 0.21329 0.33962 0.0
C341 C 0.84381 0.1951 0.32904 0.0
C342 C 0.87474 0.20019 0.32645 0.0
C343 C 0.86091 0.22817 0.3437 0.0
N344 N 0.8855 0.22104 0.33561 0.0
C345 C 0.77145 0.19184 0.3224 0.0
C346 C 0.74937 0.24858 0.31337 0.0
C347 C 0.75337 0.22456 0.30373 0.0
C348 C 0.76258 0.19524 0.30866 0.0
C349 C 0.75811 0.24388 0.32705 0.0
N350 N 0.7725 0.21695 0.33096 0.0
H351 H 0.779 0.16927 0.32596 0.0
H352 H 0.75442 0.26252 0.33428 0.0
H353 H 0.82983 0.17805 0.32383 0.0
H354 H 0.8619 0.244 0.35235 0.0
O355 O 0.79706 0.16865 0.35048 0.0
O356 O 0.81408 0.20335 0.36561 0.0
O357 O 0.79664 0.26019 0.35106 0.0
C358 C 0.81088 0.17436 0.36214 0.0
H359 H 0.70488 0.23073 0.38191 0.0
H360 H 0.88856 0.18859 0.31868 0.0
H361 H 0.74108 0.27135 0.31034 0.0
H362 H 0.76389 0.17527 0.3019 0.0
Co363 Co 0.53588 0.04895 0.09806 0.0
C364 C 0.55484 0.98513 0.10614 0.0
C365 C 0.51946 0.00345 0.11932 0.0
C366 C 0.53027 0.97614 0.12493 0.0
N367 N 0.53436 0.00889 0.10734 0.0
N368 N 0.55271 0.96473 0.11667 0.0
H369 H 0.57327 0.98443 0.09863 0.0
H370 H 0.50352 0.01946 0.12422 0.0
C371 C 0.46718 0.03761 0.10183 0.0
O372 O 0.47059 0.00794 0.09897 0.0
N373 N 0.53842 0.08904 0.08921 0.0
C374 C 0.55596 0.09545 0.07811 0.0
C375 C 0.55276 0.12642 0.07498 0.0
C376 C 0.52505 0.11627 0.09286 0.0
N377 N 0.53335 0.13953 0.08423 0.0
C378 C 0.54865 0.01254 0.07354 0.0
C379 C 0.49622 0.03183 0.05943 0.0
C380 C 0.51772 0.01285 0.05262 0.0
C381 C 0.54428 0.00313 0.05986 0.0
C382 C 0.50159 0.04087 0.07296 0.0
N383 N 0.5271 0.03067 0.08007 0.0
H384 H 0.57022 0.00674 0.07854 0.0
H385 H 0.48602 0.05788 0.07731 0.0
H386 H 0.57034 0.07875 0.07274 0.0
H387 H 0.50955 0.11892 0.10155 0.0
O388 O 0.58121 0.04756 0.09838 0.0
O389 O 0.55089 0.06689 0.11477 0.0
O390 O 0.49036 0.05621 0.10171 0.0
C391 C 0.57879 0.06113 0.11034 0.0
H392 H 0.52333 0.96643 0.13472 0.0
H393 H 0.56436 0.13851 0.06668 0.0
H394 H 0.47614 0.04116 0.05411 0.0
H395 H 0.56189 0.989 0.05492 0.0
Co396 Co 0.70177 0.21522 0.65552 0.0
C397 C 0.76551 0.19525 0.64785 0.0
C398 C 0.74759 0.23014 0.63431 0.0
C399 C 0.77474 0.21877 0.62881 0.0
N400 N 0.74199 0.21593 0.64642 0.0
N401 N 0.78587 0.19652 0.63725 0.0
H402 H 0.76601 0.17737 0.65563 0.0
H403 H 0.73172 0.24587 0.6292 0.0
C404 C 0.71321 0.28389 0.65066 0.0
O405 O 0.743 0.28105 0.6534 0.0
N406 N 0.6615 0.21361 0.66423 0.0
C407 C 0.65443 0.19657 0.67541 0.0
C408 C 0.62354 0.20089 0.67848 0.0
C409 C 0.63479 0.22778 0.66049 0.0
N410 N 0.6112 0.22048 0.66912 0.0
C411 C 0.73536 0.20204 0.68067 0.0
C412 C 0.71708 0.25582 0.69401 0.0
C413 C 0.73171 0.23252 0.70171 0.0
C414 C 0.74168 0.2056 0.69476 0.0
C415 C 0.71051 0.25102 0.68019 0.0
N416 N 0.71969 0.22452 0.67353 0.0
H417 H 0.74089 0.18016 0.67583 0.0
H418 H 0.69567 0.26786 0.67531 0.0
H419 H 0.67059 0.18181 0.68089 0.0
H420 H 0.63274 0.2432 0.65175 0.0
O421 O 0.7026 0.16986 0.6556 0.0
O422 O 0.68399 0.19963 0.63888 0.0
O423 O 0.69484 0.26057 0.65133 0.0
C424 C 0.68919 0.17188 0.6436 0.0
H425 H 0.78443 0.22514 0.61894 0.0
H426 H 0.61098 0.18996 0.68683 0.0
H427 H 0.70924 0.27724 0.69874 0.0
H428 H 0.75258 0.18663 0.70028 0.0
Co429 Co 0.53068 0.95139 0.40546 0.0
C430 C 0.55019 0.01508 0.39744 0.0
C431 C 0.51391 0.99747 0.38455 0.0
C432 C 0.52493 0.02462 0.37887 0.0
N433 N 0.52926 0.99168 0.39638 0.0
N434 N 0.54793 0.03556 0.38694 0.0
H435 H 0.56901 0.0154 0.40477 0.0
H436 H 0.49759 0.98174 0.37972 0.0
C437 C 0.46192 0.96321 0.40206 0.0
O438 O 0.46543 0.99279 0.40508 0.0
N439 N 0.5331 0.91108 0.4141 0.0
C440 C 0.55074 0.90423 0.42513 0.0
C441 C 0.54753 0.87315 0.42804 0.0
C442 C 0.51967 0.88402 0.41028 0.0
N443 N 0.52802 0.86043 0.41872 0.0
C444 C 0.54428 0.98722 0.43005 0.0
C445 C 0.49224 0.96773 0.44439 0.0
C446 C 0.51406 0.98639 0.45117 0.0
C447 C 0.5404 0.99624 0.44381 0.0
C448 C 0.49713 0.95906 0.43078 0.0
N449 N 0.52248 0.96932 0.42357 0.0
H450 H 0.56567 0.99314 0.42492 0.0
H451 H 0.48133 0.94228 0.42642 0.0
H452 H 0.56524 0.9207 0.43058 0.0
H453 H 0.50412 0.88172 0.40159 0.0
O454 O 0.57599 0.95229 0.40494 0.0
O455 O 0.54508 0.93374 0.38858 0.0
O456 O 0.48506 0.94456 0.40199 0.0
C457 C 0.57312 0.93902 0.39294 0.0
H458 H 0.5178 0.03446 0.36913 0.0
H459 H 0.5592 0.86072 0.43623 0.0
H460 H 0.4723 0.95834 0.44979 0.0
H461 H 0.55822 0.01016 0.44872 0.0
Co462 Co 0.79615 0.78262 0.15504 0.0
C463 C 0.73229 0.80316 0.14785 0.0
C464 C 0.74941 0.76818 0.13413 0.0
C465 C 0.72209 0.77976 0.12888 0.0
N466 N 0.75561 0.78234 0.1462 0.0
N467 N 0.71146 0.80204 0.13743 0.0
H468 H 0.73221 0.82102 0.15565 0.0
H469 H 0.76493 0.75228 0.12891 0.0
C470 C 0.78352 0.71406 0.15051 0.0
O471 O 0.75379 0.7174 0.15327 0.0
N472 N 0.83669 0.78385 0.16354 0.0
C473 C 0.8442 0.80113 0.17459 0.0
C474 C 0.87497 0.7962 0.17768 0.0
C475 C 0.86306 0.76892 0.15987 0.0
N476 N 0.88682 0.77598 0.16844 0.0
C477 C 0.76349 0.79693 0.18033 0.0
C478 C 0.78074 0.74292 0.19373 0.0
C479 C 0.76646 0.76652 0.20139 0.0
C480 C 0.75709 0.7936 0.19442 0.0
C481 C 0.78738 0.74748 0.1799 0.0
N482 N 0.77861 0.77405 0.1732 0.0
H483 H 0.75842 0.81889 0.17547 0.0
H484 H 0.80187 0.73031 0.17504 0.0
H485 H 0.82839 0.81639 0.18001 0.0
H486 H 0.86473 0.75308 0.15125 0.0
O487 O 0.79603 0.82796 0.15493 0.0
O488 O 0.81363 0.79749 0.13821 0.0
O489 O 0.80225 0.73709 0.15103 0.0
C490 C 0.80895 0.82542 0.14284 0.0
H491 H 0.71191 0.77347 0.11909 0.0
H492 H 0.8878 0.80709 0.18596 0.0
H493 H 0.78815 0.72138 0.19849 0.0
H494 H 0.74655 0.81282 0.1999 0.0
Co495 Co 0.96707 0.04593 0.90312 0.0
C496 C 0.94628 0.98132 0.89766 0.0
C497 C 0.98601 0.99349 0.88555 0.0
C498 C 0.97502 0.9652 0.88108 0.0
N499 N 0.96838 0.0035 0.89615 0.0
N500 N 0.94986 0.95767 0.88863 0.0
H501 H 0.92606 0.98387 0.90415 0.0
H502 H 0.0039 0.00691 0.8805 0.0
C503 C 0.03622 0.03506 0.90067 0.0
O504 O 0.03435 0.00956 0.90806 0.0
N505 N 0.9647 0.08815 0.90987 0.0
C506 C 0.94573 0.09712 0.92016 0.0
C507 C 0.9508 0.12798 0.92287 0.0
C508 C 0.98091 0.11385 0.90628 0.0
N509 N 0.9729 0.13848 0.9142 0.0
C510 C 0.95614 0.01511 0.92918 0.0
C511 C 0.00638 0.04183 0.94246 0.0
C512 C 0.98554 0.02393 0.95023 0.0
C513 C 0.96025 0.01019 0.94333 0.0
C514 C 0.00102 0.04672 0.92852 0.0
N515 N 0.9766 0.03292 0.92189 0.0
H516 H 0.93549 0.00612 0.92434 0.0
H517 H 0.0159 0.063 0.92323 0.0
H518 H 0.92969 0.08198 0.92551 0.0
H519 H 0.99869 0.11431 0.89841 0.0
O520 O 0.92177 0.04477 0.9034 0.0
O521 O 0.95115 0.05908 0.88572 0.0
O522 O 0.01226 0.05183 0.89835 0.0
C523 C 0.92353 0.0552 0.89082 0.0
H524 H 0.98378 0.95217 0.87238 0.0
H525 H 0.93921 0.1417 0.93068 0.0
H526 H 0.02645 0.0528 0.94712 0.0
H527 H 0.9429 0.99693 0.94887 0.0
Co528 Co 0.79863 0.71422 0.65616 0.0
C529 C 0.73473 0.69503 0.64831 0.0
C530 C 0.75272 0.73046 0.63507 0.0
C531 C 0.72524 0.71973 0.6296 0.0
N532 N 0.75845 0.7155 0.647 0.0
N533 N 0.71404 0.69725 0.63789 0.0
H534 H 0.73421 0.67661 0.65583 0.0
H535 H 0.76858 0.74643 0.63011 0.0
C536 C 0.78707 0.783 0.6523 0.0
O537 O 0.75737 0.77981 0.65515 0.0
N538 N 0.83884 0.71207 0.6649 0.0
C539 C 0.84573 0.69493 0.67607 0.0
C540 C 0.87676 0.69862 0.67904 0.0
C541 C 0.86578 0.72565 0.66106 0.0
N542 N 0.88935 0.7179 0.66961 0.0
C543 C 0.76299 0.7009 0.68081 0.0
C544 C 0.78185 0.75354 0.69489 0.0
C545 C 0.76362 0.7316 0.7018 0.0
C546 C 0.75405 0.70497 0.69457 0.0
C547 C 0.79044 0.74848 0.68128 0.0
N548 N 0.78052 0.7228 0.67421 0.0
H549 H 0.75738 0.67927 0.6758 0.0
H550 H 0.807 0.76439 0.67685 0.0
H551 H 0.82935 0.68051 0.6816 0.0
H552 H 0.868 0.74093 0.65227 0.0
O553 O 0.79773 0.66886 0.6558 0.0
O554 O 0.8165 0.69948 0.63941 0.0
O555 O 0.80556 0.75974 0.6525 0.0
C556 C 0.81122 0.67149 0.64383 0.0
H557 H 0.71527 0.72677 0.61987 0.0
H558 H 0.88923 0.68744 0.68735 0.0
H559 H 0.79105 0.77373 0.70018 0.0
H560 H 0.74046 0.68704 0.69958 0.0
Co561 Co 0.53611 0.54799 0.9048 0.0
C562 C 0.5535 0.48302 0.89809 0.0
C563 C 0.51712 0.50018 0.88513 0.0
C564 C 0.52742 0.47237 0.87986 0.0
N565 N 0.53299 0.50674 0.89674 0.0
N566 N 0.55059 0.46174 0.88792 0.0
H567 H 0.57254 0.48306 0.90533 0.0
H568 H 0.50121 0.51588 0.88004 0.0
C569 C 0.46637 0.54038 0.90097 0.0
O570 O 0.46705 0.51088 0.90448 0.0
N571 N 0.54001 0.58923 0.91239 0.0
C572 C 0.55985 0.59792 0.9224 0.0
C573 C 0.55775 0.62964 0.92408 0.0
C574 C 0.526 0.61559 0.90813 0.0
N575 N 0.53649 0.64064 0.91512 0.0
C576 C 0.54788 0.51577 0.93042 0.0
C577 C 0.49614 0.539 0.94383 0.0
C578 C 0.51801 0.52219 0.9515 0.0
C579 C 0.54398 0.51 0.94452 0.0
C580 C 0.5013 0.54486 0.92996 0.0
N581 N 0.52662 0.53297 0.92326 0.0
H582 H 0.56902 0.5081 0.9255 0.0
H583 H 0.48569 0.56086 0.92498 0.0
H584 H 0.57519 0.58232 0.92789 0.0
H585 H 0.50928 0.61657 0.89982 0.0
O586 O 0.58135 0.54495 0.90468 0.0
O587 O 0.552 0.56281 0.88765 0.0
O588 O 0.49108 0.55685 0.90078 0.0
C589 C 0.57964 0.55716 0.89242 0.0
H590 H 0.51988 0.46198 0.87029 0.0
H591 H 0.5708 0.64355 0.93135 0.0
H592 H 0.4755 0.5487 0.94856 0.0
H593 H 0.56197 0.49747 0.95 0.0
Co594 Co 0.70283 0.2808 0.15647 0.0
C595 C 0.76601 0.30222 0.14924 0.0
C596 C 0.75107 0.26512 0.13614 0.0
C597 C 0.77862 0.27677 0.13107 0.0
N598 N 0.74351 0.28051 0.14777 0.0
N599 N 0.78775 0.30032 0.13925 0.0
H600 H 0.76523 0.3208 0.15668 0.0
H601 H 0.73633 0.24837 0.13101 0.0
C602 C 0.71577 0.21197 0.15267 0.0
O603 O 0.74541 0.21532 0.15561 0.0
N604 N 0.66226 0.28213 0.16489 0.0
C605 C 0.65466 0.29954 0.1759 0.0
C606 C 0.62384 0.29473 0.17892 0.0
C607 C 0.63591 0.26725 0.16119 0.0
N608 N 0.61208 0.27446 0.16969 0.0
C609 C 0.73598 0.29638 0.18147 0.0
C610 C 0.72093 0.24216 0.19526 0.0
C611 C 0.73705 0.26543 0.20231 0.0
C612 C 0.74452 0.29295 0.19531 0.0
C613 C 0.71215 0.24684 0.18165 0.0
N614 N 0.72041 0.27325 0.1747 0.0
H615 H 0.74025 0.31838 0.17651 0.0
H616 H 0.69689 0.22982 0.17714 0.0
H617 H 0.67044 0.31483 0.18131 0.0
H618 H 0.6343 0.25135 0.15259 0.0
O619 O 0.7025 0.32614 0.15591 0.0
O620 O 0.68543 0.29467 0.13945 0.0
O621 O 0.69709 0.23507 0.15288 0.0
C622 C 0.68985 0.32286 0.1438 0.0
H623 H 0.78949 0.27041 0.12143 0.0
H624 H 0.61092 0.30572 0.18715 0.0
H625 H 0.71354 0.22115 0.20048 0.0
H626 H 0.75625 0.31183 0.20056 0.0
Co627 Co 0.96405 0.44968 0.40422 0.0
C628 C 0.94317 0.51386 0.39782 0.0
C629 C 0.98409 0.50163 0.38653 0.0
C630 C 0.9732 0.52962 0.38164 0.0
N631 N 0.96564 0.49186 0.3969 0.0
N632 N 0.94736 0.5372 0.38871 0.0
H633 H 0.92231 0.51138 0.40392 0.0
H634 H 0.00256 0.48822 0.3819 0.0
C635 C 0.03325 0.46012 0.40254 0.0
O636 O 0.03098 0.48559 0.40994 0.0
N637 N 0.96137 0.40766 0.41122 0.0
C638 C 0.94237 0.39907 0.42155 0.0
C639 C 0.94688 0.36809 0.42423 0.0
C640 C 0.97698 0.38163 0.40756 0.0
N641 N 0.96862 0.35713 0.41549 0.0
C642 C 0.95395 0.48376 0.42962 0.0
C643 C 0.00191 0.45534 0.44385 0.0
C644 C 0.98274 0.47635 0.45088 0.0
C645 C 0.95857 0.49082 0.44355 0.0
C646 C 0.99645 0.44892 0.43002 0.0
N647 N 0.97316 0.46351 0.42292 0.0
H648 H 0.93406 0.49351 0.42448 0.0
H649 H 0.01051 0.43128 0.42513 0.0
H650 H 0.92663 0.41451 0.42692 0.0
H651 H 0.99453 0.38081 0.39959 0.0
O652 O 0.91877 0.451 0.40425 0.0
O653 O 0.94862 0.43589 0.38684 0.0
O654 O 0.00939 0.44352 0.39984 0.0
C655 C 0.92085 0.44011 0.39175 0.0
H656 H 0.98255 0.54242 0.37299 0.0
H657 H 0.9351 0.3546 0.43206 0.0
H658 H 0.02087 0.44354 0.44901 0.0
H659 H 0.94257 0.50652 0.44864 0.0
Co660 Co 0.79538 0.28412 0.84769 0.0
C661 C 0.73367 0.30612 0.85642 0.0
C662 C 0.74771 0.26557 0.86772 0.0
C663 C 0.72034 0.27663 0.87326 0.0
N664 N 0.756 0.28413 0.85719 0.0
N665 N 0.71165 0.30222 0.86619 0.0
H666 H 0.73466 0.32571 0.84945 0.0
H667 H 0.76138 0.24636 0.87158 0.0
C668 C 0.81183 0.21687 0.84344 0.0
O669 O 0.82161 0.22354 0.83098 0.0
N670 N 0.8356 0.28479 0.83845 0.0
C671 C 0.84394 0.30206 0.82747 0.0
C672 C 0.87506 0.29793 0.82497 0.0
C673 C 0.86239 0.27142 0.84282 0.0
N674 N 0.88668 0.27861 0.83458 0.0
C675 C 0.77117 0.30282 0.82127 0.0
C676 C 0.75051 0.2446 0.81344 0.0
C677 C 0.75307 0.26793 0.80346 0.0
C678 C 0.76173 0.2979 0.80768 0.0
C679 C 0.75965 0.2508 0.82694 0.0
N680 N 0.77325 0.27856 0.83028 0.0
H681 H 0.77838 0.32586 0.82433 0.0
H682 H 0.75672 0.23277 0.83453 0.0
H683 H 0.82929 0.31792 0.8219 0.0
H684 H 0.864 0.25669 0.85181 0.0
O685 O 0.79702 0.32935 0.84877 0.0
O686 O 0.81562 0.29657 0.86433 0.0
O687 O 0.79933 0.23789 0.85091 0.0
C688 C 0.81151 0.32514 0.8604 0.0
H689 H 0.70835 0.26713 0.88209 0.0
H690 H 0.88839 0.3092 0.81694 0.0
H691 H 0.7421 0.22162 0.81076 0.0
H692 H 0.76281 0.31695 0.80041 0.0
Co693 Co 0.96438 0.54864 0.09886 0.0
C694 C 0.93939 0.48618 0.10536 0.0
C695 C 0.98378 0.49291 0.11484 0.0
C696 C 0.97183 0.46489 0.11924 0.0
N697 N 0.96378 0.50606 0.10582 0.0
N698 N 0.94381 0.4609 0.11334 0.0
H699 H 0.91789 0.49087 0.09998 0.0
H700 H 0.00436 0.50377 0.11898 0.0
C701 C 0.03388 0.53731 0.1007 0.0
O702 O 0.03228 0.51297 0.09257 0.0
N703 N 0.96397 0.591 0.0922 0.0
C704 C 0.94735 0.60089 0.0813 0.0
C705 C 0.95381 0.63175 0.07907 0.0
C706 C 0.97986 0.61614 0.09671 0.0
N707 N 0.9741 0.64126 0.08876 0.0
C708 C 0.95468 0.51437 0.0736 0.0
C709 C 0.00303 0.54207 0.05936 0.0
C710 C 0.98398 0.52074 0.05246 0.0
C711 C 0.95949 0.50681 0.05976 0.0
C712 C 0.99733 0.54906 0.07312 0.0
N713 N 0.97383 0.53482 0.08021 0.0
H714 H 0.93489 0.50458 0.07881 0.0
H715 H 0.01139 0.56676 0.07798 0.0
H716 H 0.93214 0.58637 0.07518 0.0
H717 H 0.99588 0.61586 0.10529 0.0
O718 O 0.91914 0.54926 0.09822 0.0
O719 O 0.94827 0.5625 0.11614 0.0
O720 O 0.00965 0.55304 0.10378 0.0
C721 C 0.9207 0.55959 0.11081 0.0
H722 H 0.98178 0.44992 0.12704 0.0
H723 H 0.94455 0.64614 0.07091 0.0
H724 H 0.02157 0.55419 0.05405 0.0
H725 H 0.94396 0.49044 0.0548 0.0
Co726 Co 0.70412 0.71651 0.34741 0.0
C727 C 0.76567 0.69388 0.35593 0.0
C728 C 0.75178 0.7339 0.36765 0.0
C729 C 0.77905 0.72237 0.3731 0.0
N730 N 0.74346 0.71595 0.35692 0.0
N731 N 0.78765 0.69713 0.36576 0.0
H732 H 0.76457 0.67463 0.34877 0.0
H733 H 0.73815 0.75297 0.3717 0.0
C734 C 0.68907 0.78392 0.34269 0.0
O735 O 0.67962 0.77712 0.3302 0.0
N736 N 0.66399 0.71634 0.33808 0.0
C737 C 0.65556 0.69897 0.32713 0.0
C738 C 0.62477 0.70416 0.32427 0.0
C739 C 0.63748 0.7308 0.34211 0.0
N740 N 0.61341 0.72424 0.33363 0.0
C741 C 0.72825 0.69608 0.32121 0.0
C742 C 0.75003 0.75354 0.31291 0.0
C743 C 0.74711 0.72983 0.30313 0.0
C744 C 0.7379 0.70021 0.30759 0.0
C745 C 0.74065 0.74813 0.32645 0.0
N746 N 0.72649 0.7208 0.32999 0.0
H747 H 0.72059 0.67332 0.32446 0.0
H748 H 0.74384 0.76645 0.33388 0.0
H749 H 0.66992 0.68244 0.3218 0.0
H750 H 0.63593 0.74599 0.35096 0.0
O751 O 0.70138 0.67138 0.34892 0.0
O752 O 0.68358 0.70544 0.36416 0.0
O753 O 0.70118 0.76292 0.35029 0.0
C754 C 0.68719 0.6766 0.36055 0.0
H755 H 0.79103 0.73125 0.38207 0.0
H756 H 0.61145 0.69321 0.31616 0.0
H757 H 0.75888 0.77625 0.31006 0.0
H758 H 0.73653 0.68086 0.30048 0.0
Co759 Co 0.5348 0.45369 0.59814 0.0
C760 C 0.55421 0.51727 0.60634 0.0
C761 C 0.52033 0.4981 0.62005 0.0
C762 C 0.53137 0.52531 0.62565 0.0
N763 N 0.53414 0.49326 0.60779 0.0
N764 N 0.55293 0.53724 0.61707 0.0
H765 H 0.57166 0.51851 0.59839 0.0
H766 H 0.50493 0.48179 0.6251 0.0
C767 C 0.46619 0.46554 0.60293 0.0
O768 O 0.46951 0.49555 0.60083 0.0
N769 N 0.53635 0.41408 0.58887 0.0
C770 C 0.55322 0.40772 0.57755 0.0
C771 C 0.54926 0.37691 0.57424 0.0
C772 C 0.52268 0.38701 0.59246 0.0
N773 N 0.5301 0.3639 0.58361 0.0
C774 C 0.54949 0.48894 0.57366 0.0
C775 C 0.495 0.47478 0.5599 0.0
C776 C 0.51839 0.49075 0.55286 0.0
C777 C 0.54597 0.49795 0.55989 0.0
C778 C 0.49975 0.46555 0.57344 0.0
N779 N 0.52642 0.47314 0.58036 0.0
H780 H 0.57162 0.49284 0.57859 0.0
H781 H 0.48266 0.45024 0.57786 0.0
H782 H 0.56775 0.42426 0.57217 0.0
H783 H 0.50763 0.38436 0.6013 0.0
O784 O 0.58017 0.45409 0.59842 0.0
O785 O 0.54957 0.43454 0.61463 0.0
O786 O 0.48925 0.44692 0.60192 0.0
C787 C 0.57755 0.43989 0.61022 0.0
H788 H 0.52521 0.5346 0.63562 0.0
H789 H 0.56025 0.36483 0.56577 0.0
H790 H 0.4739 0.46761 0.55468 0.0
H791 H 0.56492 0.50964 0.55468 0.0
Co792 Co 0.19892 0.2885 0.34759 0.0
C793 C 0.26336 0.30618 0.35534 0.0
C794 C 0.24528 0.27001 0.36815 0.0
C795 C 0.27295 0.28008 0.37366 0.0
N796 N 0.23944 0.28583 0.35644 0.0
N797 N 0.28421 0.30302 0.36565 0.0
H798 H 0.26385 0.32528 0.34815 0.0
H799 H 0.22929 0.25409 0.37305 0.0
C800 C 0.2068 0.21946 0.35163 0.0
O801 O 0.23611 0.22103 0.34785 0.0
N802 N 0.15836 0.29208 0.3392 0.0
C803 C 0.15168 0.30953 0.3281 0.0
C804 C 0.12052 0.30669 0.32525 0.0
C805 C 0.13115 0.27912 0.34311 0.0
N806 N 0.1076 0.28756 0.33466 0.0
C807 C 0.23572 0.29639 0.32283 0.0
C808 C 0.20993 0.24629 0.30908 0.0
C809 C 0.23048 0.26572 0.30196 0.0
C810 C 0.24382 0.29085 0.30907 0.0
C811 C 0.20242 0.25267 0.32271 0.0
N812 N 0.21555 0.27717 0.32958 0.0
H813 H 0.24423 0.31718 0.3277 0.0
H814 H 0.18445 0.23879 0.32742 0.0
H815 H 0.16839 0.32341 0.32248 0.0
H816 H 0.12874 0.26361 0.35181 0.0
O817 O 0.20241 0.33349 0.34683 0.0
O818 O 0.18276 0.30628 0.3642 0.0
O819 O 0.18974 0.24377 0.35206 0.0
C820 C 0.18924 0.33327 0.35891 0.0
H821 H 0.28295 0.27241 0.38329 0.0
H822 H 0.10823 0.31817 0.31697 0.0
H823 H 0.19894 0.22666 0.30406 0.0
H824 H 0.25916 0.30702 0.30388 0.0
Co825 Co 0.46732 0.45479 0.09725 0.0
C826 C 0.44468 0.51638 0.1057 0.0
C827 C 0.48492 0.50283 0.11733 0.0
C828 C 0.47359 0.53034 0.12264 0.0
N829 N 0.46671 0.49416 0.10674 0.0
N830 N 0.44819 0.53873 0.11535 0.0
H831 H 0.42535 0.51511 0.09859 0.0
H832 H 0.50412 0.48937 0.12136 0.0
C833 C 0.53474 0.43875 0.09319 0.0
O834 O 0.5284 0.42888 0.08072 0.0
N835 N 0.46718 0.41463 0.08793 0.0
C836 C 0.4506 0.40648 0.07671 0.0
C837 C 0.45507 0.37547 0.07409 0.0
C838 C 0.4805 0.38781 0.0923 0.0
N839 N 0.47393 0.36371 0.08384 0.0
C840 C 0.44793 0.47946 0.07101 0.0
C841 C 0.50597 0.50014 0.06294 0.0
C842 C 0.48232 0.49794 0.0531 0.0
C843 C 0.45246 0.48927 0.05744 0.0
C844 C 0.50017 0.49064 0.07643 0.0
N845 N 0.47246 0.47709 0.07986 0.0
H846 H 0.425 0.47207 0.07415 0.0
H847 H 0.51844 0.49337 0.08391 0.0
H848 H 0.43501 0.4212 0.07103 0.0
H849 H 0.49479 0.38606 0.10143 0.0
O850 O 0.42209 0.4524 0.09844 0.0
O851 O 0.45541 0.43433 0.11389 0.0
O852 O 0.51356 0.45146 0.1005 0.0
C853 C 0.42673 0.43804 0.11007 0.0
H854 H 0.4828 0.54266 0.13144 0.0
H855 H 0.44433 0.3623 0.06587 0.0
H856 H 0.5289 0.50852 0.06017 0.0
H857 H 0.43321 0.48842 0.05027 0.0
Co858 Co 0.29644 0.71928 0.84503 0.0
C859 C 0.23762 0.69257 0.85478 0.0
C860 C 0.2418 0.74 0.86139 0.0
C861 C 0.21436 0.72793 0.86653 0.0
N862 N 0.25635 0.71768 0.85406 0.0
N863 N 0.21206 0.69804 0.86244 0.0
H864 H 0.24268 0.67051 0.84992 0.0
H865 H 0.25066 0.76318 0.8632 0.0
C866 C 0.31207 0.78689 0.84147 0.0
O867 O 0.32238 0.78085 0.82903 0.0
N868 N 0.33693 0.71994 0.83604 0.0
C869 C 0.34533 0.70428 0.8246 0.0
C870 C 0.37632 0.7091 0.82213 0.0
C871 C 0.3636 0.73306 0.8407 0.0
N872 N 0.38781 0.72726 0.83219 0.0
C873 C 0.27244 0.69997 0.81871 0.0
C874 C 0.25172 0.75792 0.81053 0.0
C875 C 0.25389 0.73414 0.80075 0.0
C876 C 0.26264 0.70434 0.80514 0.0
C877 C 0.26124 0.75228 0.82402 0.0
N878 N 0.27478 0.7246 0.82752 0.0
H879 H 0.27992 0.67708 0.82187 0.0
H880 H 0.25839 0.77061 0.83147 0.0
H881 H 0.33076 0.68914 0.81861 0.0
H882 H 0.36515 0.74675 0.85001 0.0
O883 O 0.29975 0.67408 0.84589 0.0
O884 O 0.31632 0.70703 0.8618 0.0
O885 O 0.2992 0.7655 0.8486 0.0
C886 C 0.3134 0.67845 0.8577 0.0
H887 H 0.19805 0.73978 0.87321 0.0
H888 H 0.38966 0.69916 0.81377 0.0
H889 H 0.24326 0.7808 0.80772 0.0
H890 H 0.26351 0.685 0.79801 0.0
Co891 Co 0.03469 0.54714 0.59764 0.0
C892 C 0.05421 0.48365 0.60599 0.0
C893 C 0.0182 0.50172 0.61891 0.0
C894 C 0.0291 0.47458 0.62464 0.0
N895 N 0.0334 0.50718 0.60701 0.0
N896 N 0.05195 0.46334 0.61656 0.0
H897 H 0.07293 0.48311 0.59862 0.0
H898 H 0.00205 0.51763 0.62373 0.0
C899 C 0.96586 0.53661 0.60189 0.0
O900 O 0.96858 0.50692 0.59891 0.0
N901 N 0.03689 0.58717 0.58872 0.0
C902 C 0.05383 0.59372 0.57744 0.0
C903 C 0.0503 0.62472 0.57438 0.0
C904 C 0.02359 0.61429 0.59252 0.0
N905 N 0.03131 0.63765 0.58385 0.0
C906 C 0.0463 0.51018 0.57322 0.0
C907 C 0.99465 0.53121 0.55905 0.0
C908 C 0.01615 0.51245 0.55213 0.0
C909 C 0.04203 0.50138 0.55946 0.0
C910 C 0.99978 0.53944 0.5727 0.0
N911 N 0.02514 0.52873 0.57976 0.0
H912 H 0.06767 0.50377 0.57824 0.0
H913 H 0.98425 0.55631 0.57718 0.0
H914 H 0.06799 0.5771 0.57191 0.0
H915 H 0.00852 0.61679 0.60137 0.0
O916 O 0.07998 0.54567 0.59751 0.0
O917 O 0.05054 0.56522 0.61416 0.0
O918 O 0.9894 0.55473 0.60166 0.0
C919 C 0.0782 0.55954 0.60942 0.0
H920 H 0.02195 0.46495 0.63441 0.0
H921 H 0.06139 0.63693 0.56598 0.0
H922 H 0.9744 0.54045 0.55382 0.0
H923 H 0.05969 0.48751 0.55441 0.0
Co924 Co 0.20037 0.71137 0.15426 0.0
C925 C 0.26459 0.694 0.14608 0.0
C926 C 0.24549 0.7293 0.13308 0.0
C927 C 0.27303 0.71926 0.12742 0.0
N928 N 0.24038 0.714 0.14498 0.0
N929 N 0.28493 0.69686 0.13555 0.0
H930 H 0.26566 0.67532 0.15346 0.0
H931 H 0.2291 0.74484 0.12819 0.0
C932 C 0.2075 0.78052 0.14963 0.0
O933 O 0.23716 0.77949 0.15287 0.0
N934 N 0.16034 0.70789 0.16309 0.0
C935 C 0.15417 0.69096 0.1744 0.0
C936 C 0.12304 0.69368 0.1774 0.0
C937 C 0.13291 0.72041 0.15921 0.0
N938 N 0.10969 0.71219 0.16786 0.0
C939 C 0.23779 0.70291 0.17872 0.0
C940 C 0.21434 0.75406 0.19254 0.0
C941 C 0.2346 0.73406 0.19953 0.0
C942 C 0.24659 0.70829 0.19239 0.0
C943 C 0.20604 0.74777 0.17897 0.0
N944 N 0.21806 0.72275 0.17207 0.0
H945 H 0.24538 0.68177 0.17384 0.0
H946 H 0.18815 0.76202 0.17442 0.0
H947 H 0.17115 0.67744 0.18003 0.0
H948 H 0.13011 0.73538 0.15035 0.0
O949 O 0.2039 0.66634 0.155 0.0
O950 O 0.18331 0.69352 0.13785 0.0
O951 O 0.19074 0.75601 0.14977 0.0
C952 C 0.19012 0.66654 0.14306 0.0
H953 H 0.28252 0.72658 0.11764 0.0
H954 H 0.11109 0.68247 0.18584 0.0
H955 H 0.20345 0.77351 0.19774 0.0
H956 H 0.26198 0.69191 0.19743 0.0
Co957 Co 0.03849 0.45251 0.9057 0.0
C958 C 0.05832 0.51612 0.89829 0.0
C959 C 0.02025 0.50115 0.88579 0.0
C960 C 0.03101 0.52911 0.88074 0.0
N961 N 0.03682 0.49333 0.89707 0.0
N962 N 0.05517 0.53827 0.88856 0.0
H963 H 0.07769 0.5153 0.90532 0.0
H964 H 0.00331 0.48638 0.88081 0.0
C965 C 0.96915 0.46081 0.90154 0.0
O966 O 0.97022 0.49014 0.90531 0.0
N967 N 0.04115 0.41179 0.91395 0.0
C968 C 0.0578 0.40465 0.92523 0.0
C969 C 0.05537 0.37324 0.92758 0.0
C970 C 0.02911 0.38465 0.90943 0.0
N971 N 0.03735 0.36066 0.91766 0.0
C972 C 0.04767 0.4888 0.93041 0.0
C973 C 0.99632 0.4658 0.94418 0.0
C974 C 0.01635 0.48614 0.95113 0.0
C975 C 0.04226 0.49781 0.94403 0.0
C976 C 0.00262 0.45736 0.93063 0.0
N977 N 0.02766 0.4693 0.92373 0.0
H978 H 0.06889 0.49622 0.92556 0.0
H979 H 0.98822 0.43966 0.92602 0.0
H980 H 0.07111 0.42114 0.93123 0.0
H981 H 0.01463 0.38258 0.90038 0.0
O982 O 0.08354 0.45481 0.90651 0.0
O983 O 0.05593 0.43621 0.88904 0.0
O984 O 0.99367 0.44407 0.90117 0.0
C985 C 0.08305 0.44175 0.89441 0.0
H986 H 0.02355 0.54029 0.87133 0.0
H987 H 0.06658 0.36056 0.93581 0.0
H988 H 0.97675 0.45515 0.94938 0.0
H989 H 0.05866 0.51324 0.94903 0.0
Co990 Co 0.29803 0.28786 0.65612 0.0
C991 C 0.23427 0.30667 0.64786 0.0
C992 C 0.25241 0.27046 0.63507 0.0
C993 C 0.22506 0.28095 0.62938 0.0
N994 N 0.25797 0.28605 0.64686 0.0
N995 N 0.21376 0.30393 0.63739 0.0
H996 H 0.23368 0.32555 0.65515 0.0
H997 H 0.26835 0.25426 0.6303 0.0
C998 C 0.28746 0.21878 0.65249 0.0
O999 O 0.25774 0.22159 0.65538 0.0
N1000 N 0.33812 0.29056 0.66495 0.0
C1001 C 0.34477 0.30818 0.676 0.0
C1002 C 0.3757 0.30452 0.67916 0.0
C1003 C 0.36511 0.2767 0.66136 0.0
N1004 N 0.38847 0.28476 0.66997 0.0
C1005 C 0.26165 0.30108 0.68057 0.0
C1006 C 0.28245 0.24991 0.69515 0.0
C1007 C 0.26404 0.27192 0.70193 0.0
C1008 C 0.25308 0.29755 0.69441 0.0
C1009 C 0.29042 0.25429 0.68142 0.0
N1010 N 0.27983 0.2794 0.67415 0.0
H1011 H 0.2554 0.3223 0.67538 0.0
H1012 H 0.30705 0.23837 0.67703 0.0
H1013 H 0.32825 0.32283 0.68134 0.0
H1014 H 0.3675 0.26095 0.65274 0.0
O1015 O 0.29667 0.33319 0.65567 0.0
O1016 O 0.31596 0.30261 0.63937 0.0
O1017 O 0.30556 0.24234 0.65258 0.0
C1018 C 0.31038 0.33059 0.64375 0.0
H1019 H 0.21527 0.27342 0.61969 0.0
H1020 H 0.38798 0.31599 0.68745 0.0
H1021 H 0.29162 0.22984 0.70053 0.0
H1022 H 0.23947 0.31558 0.69935 0.0
Co1023 Co 0.46248 0.54545 0.40667 0.0
C1024 C 0.44155 0.48323 0.39842 0.0
C1025 C 0.48185 0.4973 0.38696 0.0
C1026 C 0.47104 0.4696 0.38162 0.0
N1027 N 0.46326 0.50576 0.39745 0.0
N1028 N 0.44561 0.46089 0.38881 0.0
H1029 H 0.42194 0.48434 0.40539 0.0
H1030 H 0.50085 0.5111 0.38296 0.0
C1031 C 0.52925 0.5627 0.41171 0.0
O1032 O 0.52175 0.57262 0.42405 0.0
N1033 N 0.46086 0.58588 0.41571 0.0
C1034 C 0.44281 0.59415 0.42647 0.0
C1035 C 0.44688 0.62519 0.42913 0.0
C1036 C 0.4746 0.61269 0.4116 0.0
N1037 N 0.46693 0.63685 0.41984 0.0
C1038 C 0.44128 0.5216 0.43274 0.0
C1039 C 0.49892 0.50273 0.44209 0.0
C1040 C 0.47453 0.50562 0.45162 0.0
C1041 C 0.44485 0.51313 0.44653 0.0
C1042 C 0.49406 0.511 0.42837 0.0
N1043 N 0.4665 0.52387 0.42429 0.0
H1044 H 0.41847 0.52812 0.4291 0.0
H1045 H 0.51305 0.50821 0.42123 0.0
H1046 H 0.42655 0.57945 0.43178 0.0
H1047 H 0.49007 0.61438 0.40285 0.0
O1048 O 0.41735 0.54706 0.40473 0.0
O1049 O 0.45164 0.56515 0.3897 0.0
O1050 O 0.50892 0.54942 0.40413 0.0
C1051 C 0.42272 0.56109 0.39309 0.0
H1052 H 0.48053 0.45742 0.37283 0.0
H1053 H 0.43518 0.63844 0.43706 0.0
H1054 H 0.52204 0.49575 0.44524 0.0
H1055 H 0.4247 0.51355 0.45321 0.0
H1056 H 0.57437 0.26429 0.19138 0.0
H1057 H 0.42368 0.22726 0.146 0.0
H1058 H 0.57777 0.25931 0.14715 0.0
H1059 H 0.42867 0.21563 0.18998 0.0
H1060 H 0.47901 0.2417 0.14584 0.0
H1061 H 0.51996 0.24864 0.19075 0.0
C1062 C 0.56358 0.25992 0.18151 0.0
C1063 C 0.58052 0.26329 0.1693 0.0
C1064 C 0.46794 0.23588 0.1555 0.0
C1065 C 0.51802 0.24525 0.16846 0.0
C1066 C 0.43635 0.22788 0.15561 0.0
C1067 C 0.42158 0.22011 0.16802 0.0
C1068 C 0.48466 0.23642 0.16792 0.0
C1069 C 0.43917 0.22098 0.18016 0.0
C1070 C 0.53252 0.25083 0.18115 0.0
C1071 C 0.56552 0.25679 0.1568 0.0
N1072 N 0.46966 0.22904 0.1798 0.0
N1073 N 0.53498 0.24828 0.15668 0.0
H1074 H 0.01885 0.16676 0.39532 0.0
H1075 H 0.97965 0.32154 0.43766 0.0
H1076 H 0.02985 0.17709 0.43914 0.0
H1077 H 0.98529 0.32165 0.39344 0.0
H1078 H 0.99611 0.26743 0.43793 0.0
H1079 H 0.00393 0.22205 0.39386 0.0
C1080 C 0.01799 0.18059 0.40461 0.0
C1081 C 0.02578 0.16736 0.41736 0.0
C1082 C 0.99393 0.27914 0.42812 0.0
C1083 C 0.00895 0.23029 0.41579 0.0
C1084 C 0.98442 0.31005 0.42798 0.0
C1085 C 0.98092 0.32597 0.41551 0.0
C1086 C 0.99981 0.26366 0.41568 0.0
C1087 C 0.98788 0.31013 0.40326 0.0
C1088 C 0.00974 0.21213 0.40376 0.0
C1089 C 0.02454 0.18636 0.42907 0.0
N1090 N 0.99678 0.27965 0.40363 0.0
N1091 N 0.01626 0.21669 0.428 0.0
H1092 H 0.07742 0.76479 0.64465 0.0
H1093 H 0.92853 0.72568 0.69104 0.0
H1094 H 0.07459 0.773 0.6888 0.0
H1095 H 0.9234 0.73236 0.64687 0.0
H1096 H 0.98329 0.73987 0.69005 0.0
H1097 H 0.02232 0.74927 0.64484 0.0
C1098 C 0.06528 0.76311 0.65437 0.0
C1099 C 0.08052 0.77039 0.66672 0.0
C1100 C 0.97028 0.73831 0.68054 0.0
C1101 C 0.01775 0.75286 0.66703 0.0
C1102 C 0.939 0.73004 0.68111 0.0
C1103 C 0.92139 0.72768 0.66902 0.0
C1104 C 0.98435 0.74415 0.66777 0.0
C1105 C 0.93609 0.73415 0.65644 0.0
C1106 C 0.03384 0.7545 0.65447 0.0
C1107 C 0.06366 0.7681 0.67903 0.0
N1108 N 0.96682 0.74196 0.65613 0.0
N1109 N 0.03329 0.75954 0.67886 0.0
H1110 H 0.57318 0.69149 0.91735 0.0
H1111 H 0.43214 0.81035 0.91686 0.0
H1112 H 0.47905 0.66252 0.90893 0.0
H1113 H 0.52654 0.83941 0.90915 0.0
H1114 H 0.44871 0.75596 0.91527 0.0
H1115 H 0.55669 0.74591 0.91568 0.0
C1116 C 0.54904 0.69666 0.91514 0.0
C1117 C 0.52737 0.67259 0.91336 0.0
C1118 C 0.46577 0.77422 0.91382 0.0
C1119 C 0.50833 0.73463 0.9115 0.0
C1120 C 0.45637 0.8052 0.91481 0.0
C1121 C 0.47809 0.82929 0.91322 0.0
C1122 C 0.49723 0.76727 0.91146 0.0
C1123 C 0.50911 0.82145 0.91039 0.0
C1124 C 0.53969 0.72766 0.91409 0.0
C1125 C 0.49645 0.68046 0.91031 0.0
N1126 N 0.51787 0.79106 0.90976 0.0
N1127 N 0.48774 0.71085 0.90964 0.0
H1128 H 0.42398 0.77069 0.35649 0.0
H1129 H 0.57676 0.73691 0.31192 0.0
H1130 H 0.43095 0.78429 0.31268 0.0
H1131 H 0.57844 0.73801 0.35621 0.0
H1132 H 0.52247 0.75285 0.31238 0.0
H1133 H 0.47946 0.75666 0.35703 0.0
C1134 C 0.43711 0.7706 0.347 0.0
C1135 C 0.42282 0.77879 0.33452 0.0
C1136 C 0.53458 0.74976 0.32204 0.0
C1137 C 0.48609 0.76297 0.33507 0.0
C1138 C 0.56559 0.74052 0.32177 0.0
C1139 C 0.58201 0.7359 0.33404 0.0
C1140 C 0.51955 0.75425 0.3347 0.0
C1141 C 0.56657 0.74146 0.34653 0.0
C1142 C 0.46878 0.76284 0.34733 0.0
C1143 C 0.44101 0.77861 0.32255 0.0
N1144 N 0.53602 0.75012 0.34655 0.0
N1145 N 0.47155 0.77077 0.32313 0.0
H1146 H 0.52179 0.32583 0.56183 0.0
H1147 H 0.48439 0.17469 0.607 0.0
H1148 H 0.51613 0.32873 0.60606 0.0
H1149 H 0.47608 0.17913 0.56287 0.0
H1150 H 0.49925 0.22992 0.60724 0.0
H1151 H 0.50777 0.27099 0.56234 0.0
C1152 C 0.51767 0.31486 0.57167 0.0
C1153 C 0.5203 0.33185 0.58392 0.0
C1154 C 0.49413 0.21874 0.59752 0.0
C1155 C 0.50402 0.26881 0.58462 0.0
C1156 C 0.48589 0.18721 0.59737 0.0
C1157 C 0.47882 0.17235 0.5849 0.0
C1158 C 0.49557 0.23533 0.58509 0.0
C1159 C 0.48084 0.18973 0.57273 0.0
C1160 C 0.5095 0.28353 0.57197 0.0
C1161 C 0.51413 0.31652 0.59638 0.0
N1162 N 0.48904 0.22019 0.57314 0.0
N1163 N 0.50642 0.28576 0.59642 0.0
H1164 H 0.07478 0.23019 0.85995 0.0
H1165 H 0.92585 0.26874 0.81342 0.0
H1166 H 0.07108 0.22183 0.81582 0.0
H1167 H 0.92017 0.26468 0.85763 0.0
H1168 H 0.98031 0.25404 0.81464 0.0
H1169 H 0.01955 0.24586 0.85993 0.0
C1170 C 0.06242 0.23184 0.85028 0.0
C1171 C 0.07743 0.22445 0.83787 0.0
C1172 C 0.96731 0.25627 0.82413 0.0
C1173 C 0.01465 0.24213 0.83775 0.0
C1174 C 0.93616 0.26483 0.82342 0.0
C1175 C 0.91849 0.26819 0.83544 0.0
C1176 C 0.98126 0.25103 0.83697 0.0
C1177 C 0.93298 0.26219 0.84812 0.0
C1178 C 0.03093 0.24053 0.85028 0.0
C1179 C 0.06036 0.22676 0.82563 0.0
N1180 N 0.96366 0.25405 0.84857 0.0
N1181 N 0.03003 0.23537 0.8259 0.0
H1182 H 0.99714 0.83592 0.10521 0.0
H1183 H 0.00102 0.67219 0.06805 0.0
H1184 H 0.05196 0.81712 0.06896 0.0
H1185 H 0.97749 0.67946 0.11092 0.0
H1186 H 0.01863 0.72622 0.06828 0.0
H1187 H 0.9887 0.77973 0.10795 0.0
C1188 C 0.00767 0.82009 0.09792 0.0
C1189 C 0.0248 0.83145 0.08667 0.0
C1190 C 0.01001 0.71604 0.07772 0.0
C1191 C 0.01493 0.76732 0.08967 0.0
C1192 C 0.99996 0.68527 0.07755 0.0
C1193 C 0.9879 0.67162 0.08947 0.0
C1194 C 0.00733 0.73363 0.08984 0.0
C1195 C 0.9869 0.68933 0.10158 0.0
C1196 C 0.0028 0.78803 0.09949 0.0
C1197 C 0.03781 0.80971 0.07754 0.0
N1198 N 0.99606 0.71972 0.10142 0.0
N1199 N 0.03233 0.77885 0.07916 0.0
H1200 H 0.57745 0.76713 0.85754 0.0
H1201 H 0.42547 0.74227 0.81116 0.0
H1202 H 0.57359 0.77894 0.81355 0.0
H1203 H 0.42246 0.73625 0.85536 0.0
H1204 H 0.48027 0.75572 0.81235 0.0
H1205 H 0.52152 0.75476 0.85751 0.0
C1206 C 0.56492 0.76695 0.84789 0.0
C1207 C 0.58017 0.7743 0.83553 0.0
C1208 C 0.4678 0.75158 0.82185 0.0
C1209 C 0.51644 0.76048 0.83543 0.0
C1210 C 0.43646 0.7438 0.82115 0.0
C1211 C 0.41951 0.73784 0.83316 0.0
C1212 C 0.48264 0.75335 0.83468 0.0
C1213 C 0.43476 0.74077 0.84586 0.0
C1214 C 0.533 0.76013 0.84789 0.0
C1215 C 0.56277 0.77399 0.82334 0.0
N1216 N 0.46564 0.74811 0.84631 0.0
N1217 N 0.53198 0.76722 0.82362 0.0
H1218 H 0.01665 0.67202 0.6065 0.0
H1219 H 0.97865 0.8236 0.56166 0.0
H1220 H 0.02406 0.67677 0.56234 0.0
H1221 H 0.98429 0.82606 0.6059 0.0
H1222 H 0.99319 0.76887 0.56205 0.0
H1223 H 0.00219 0.72736 0.60688 0.0
C1224 C 0.01506 0.68463 0.59689 0.0
C1225 C 0.02172 0.66979 0.58437 0.0
C1226 C 0.99135 0.78128 0.57171 0.0
C1227 C 0.0054 0.73293 0.58472 0.0
C1228 C 0.98289 0.81255 0.57148 0.0
C1229 C 0.98006 0.82938 0.58377 0.0
C1230 C 0.99692 0.76645 0.58433 0.0
C1231 C 0.9864 0.81397 0.59619 0.0
C1232 C 0.00704 0.71623 0.59712 0.0
C1233 C 0.0196 0.68732 0.57224 0.0
N1234 N 0.99437 0.78326 0.59617 0.0
N1235 N 0.01161 0.71784 0.57273 0.0
H1236 H 0.91881 0.23769 0.35833 0.0
H1237 H 0.0685 0.28114 0.31312 0.0
H1238 H 0.92376 0.23123 0.31417 0.0
H1239 H 0.0732 0.27203 0.35722 0.0
H1240 H 0.01385 0.26681 0.31384 0.0
H1241 H 0.97366 0.25454 0.35871 0.0
C1242 C 0.93136 0.24006 0.34874 0.0
C1243 C 0.91686 0.23282 0.3362 0.0
C1244 C 0.02671 0.26789 0.3234 0.0
C1245 C 0.97921 0.2519 0.33654 0.0
C1246 C 0.05796 0.27627 0.32299 0.0
C1247 C 0.07546 0.27797 0.33513 0.0
C1248 C 0.01251 0.26118 0.33605 0.0
C1249 C 0.0606 0.27078 0.34761 0.0
C1250 C 0.96264 0.24943 0.34896 0.0
C1251 C 0.93416 0.23607 0.32407 0.0
N1252 N 0.02988 0.26281 0.34777 0.0
N1253 N 0.96428 0.24533 0.32455 0.0
H1254 H 0.52688 0.17783 0.06245 0.0
H1255 H 0.48645 0.3297 0.10687 0.0
H1256 H 0.5183 0.17484 0.10659 0.0
H1257 H 0.48516 0.32503 0.06261 0.0
H1258 H 0.50097 0.27423 0.10758 0.0
H1259 H 0.51386 0.23281 0.06284 0.0
C1260 C 0.52235 0.18882 0.07226 0.0
C1261 C 0.52391 0.17173 0.08451 0.0
C1262 C 0.49749 0.28545 0.09774 0.0
C1263 C 0.50867 0.2351 0.08507 0.0
C1264 C 0.48945 0.31709 0.09733 0.0
C1265 C 0.48433 0.33188 0.08466 0.0
C1266 C 0.50069 0.26876 0.08537 0.0
C1267 C 0.48832 0.31445 0.0726 0.0
C1268 C 0.51475 0.22028 0.07249 0.0
C1269 C 0.51716 0.18714 0.09691 0.0
N1270 N 0.49621 0.28396 0.07327 0.0
N1271 N 0.50996 0.21806 0.09689 0.0
H1272 H 0.57695 0.2357 0.64654 0.0
H1273 H 0.42691 0.27765 0.6917 0.0
H1274 H 0.57278 0.22929 0.69074 0.0
H1275 H 0.4231 0.26896 0.64758 0.0
H1276 H 0.48158 0.26295 0.69117 0.0
H1277 H 0.5219 0.25133 0.64629 0.0
C1278 C 0.56452 0.23778 0.65618 0.0
C1279 C 0.57939 0.23101 0.66868 0.0
C1280 C 0.46888 0.26417 0.68158 0.0
C1281 C 0.51665 0.24868 0.66848 0.0
C1282 C 0.43765 0.27274 0.68188 0.0
C1283 C 0.42045 0.2747 0.66966 0.0
C1284 C 0.48329 0.25763 0.66895 0.0
C1285 C 0.43548 0.26751 0.65723 0.0
C1286 C 0.5331 0.24646 0.65602 0.0
C1287 C 0.56215 0.2338 0.68086 0.0
N1288 N 0.46615 0.25943 0.65718 0.0
N1289 N 0.53181 0.24243 0.68045 0.0
H1290 H 0.47699 0.6748 0.44139 0.0
H1291 H 0.5126 0.82618 0.39611 0.0
H1292 H 0.48126 0.67128 0.39715 0.0
H1293 H 0.52178 0.82117 0.4402 0.0
H1294 H 0.49862 0.77063 0.39577 0.0
H1295 H 0.49158 0.7294 0.4407 0.0
C1296 C 0.48097 0.68563 0.4315 0.0
C1297 C 0.47766 0.66857 0.41931 0.0
C1298 C 0.50378 0.78177 0.40549 0.0
C1299 C 0.49454 0.73143 0.41839 0.0
C1300 C 0.5115 0.81347 0.4057 0.0
C1301 C 0.51854 0.82828 0.4182 0.0
C1302 C 0.50281 0.76499 0.41789 0.0
C1303 C 0.51705 0.81066 0.43032 0.0
C1304 C 0.48945 0.71683 0.4311 0.0
C1305 C 0.4837 0.68364 0.40678 0.0
N1306 N 0.50933 0.78009 0.42985 0.0
N1307 N 0.49166 0.71437 0.40662 0.0
H1308 H 0.07525 0.72682 0.14524 0.0
H1309 H 0.92427 0.76582 0.19022 0.0
H1310 H 0.07032 0.71849 0.18937 0.0
H1311 H 0.92139 0.76048 0.14599 0.0
H1312 H 0.97864 0.75005 0.18975 0.0
H1313 H 0.01991 0.74125 0.14488 0.0
C1314 C 0.0626 0.72815 0.15484 0.0
C1315 C 0.07742 0.72131 0.16735 0.0
C1316 C 0.96622 0.75219 0.18011 0.0
C1317 C 0.01428 0.7376 0.16702 0.0
C1318 C 0.93517 0.76135 0.18039 0.0
C1319 C 0.91837 0.76468 0.16813 0.0
C1320 C 0.98088 0.74646 0.16746 0.0
C1321 C 0.93351 0.75802 0.15568 0.0
C1322 C 0.031 0.73615 0.15462 0.0
C1323 C 0.05982 0.72309 0.17947 0.0
N1324 N 0.96405 0.74942 0.15564 0.0
N1325 N 0.02932 0.73111 0.179 0.0
H1326 H 0.02375 0.32828 0.89428 0.0
H1327 H 0.98501 0.17336 0.93648 0.0
H1328 H 0.03144 0.31902 0.93829 0.0
H1329 H 0.98985 0.17397 0.89225 0.0
H1330 H 0.00181 0.22737 0.93689 0.0
H1331 H 0.01029 0.27274 0.89278 0.0
C1332 C 0.02251 0.31464 0.90361 0.0
C1333 C 0.02885 0.32831 0.91644 0.0
C1334 C 0.99942 0.21584 0.92705 0.0
C1335 C 0.01371 0.26498 0.9148 0.0
C1336 C 0.98973 0.18499 0.92683 0.0
C1337 C 0.98582 0.16936 0.91431 0.0
C1338 C 0.00503 0.23152 0.91464 0.0
C1339 C 0.99273 0.1853 0.9021 0.0
C1340 C 0.01508 0.28294 0.90274 0.0
C1341 C 0.02722 0.30948 0.92818 0.0
N1342 N 0.00174 0.21573 0.90254 0.0
N1343 N 0.01976 0.27893 0.92707 0.0
H1344 H 0.4423 0.09111 0.09237 0.0
H1345 H 0.32459 0.11023 0.15262 0.0
H1346 H 0.42301 0.01363 0.11917 0.0
H1347 H 0.31988 0.16454 0.11541 0.0
H1348 H 0.35682 0.07172 0.14046 0.0
H1349 H 0.39496 0.11657 0.10034 0.0
C1350 C 0.4277 0.0793 0.09981 0.0
C1351 C 0.43639 0.05038 0.10517 0.0
C1352 C 0.34795 0.09164 0.13488 0.0
C1353 C 0.38258 0.07964 0.11465 0.0
C1354 C 0.32947 0.1135 0.14179 0.0
C1355 C 0.32013 0.14079 0.13504 0.0
C1356 C 0.35714 0.0975 0.12125 0.0
C1357 C 0.32716 0.14407 0.12105 0.0
C1358 C 0.40062 0.09374 0.10434 0.0
C1359 C 0.41682 0.03595 0.11478 0.0
N1360 N 0.3457 0.12302 0.1147 0.0
N1361 N 0.39103 0.05107 0.11948 0.0
H1362 H 0.14919 0.20009 0.34474 0.0
H1363 H 0.13855 0.07059 0.40098 0.0
H1364 H 0.2316 0.17127 0.36658 0.0
H1365 H 0.07473 0.07706 0.36686 0.0
H1366 H 0.17491 0.10462 0.38853 0.0
H1367 H 0.12253 0.15345 0.35266 0.0
C1368 C 0.16174 0.18363 0.35111 0.0
C1369 C 0.19248 0.18943 0.35509 0.0
C1370 C 0.15325 0.09792 0.38367 0.0
C1371 C 0.16199 0.13623 0.36445 0.0
C1372 C 0.13257 0.07847 0.39075 0.0
C1373 C 0.10341 0.07153 0.38503 0.0
C1374 C 0.14438 0.11051 0.37093 0.0
C1375 C 0.09674 0.08234 0.37176 0.0
C1376 C 0.1466 0.15693 0.35559 0.0
C1377 C 0.20784 0.16741 0.36329 0.0
N1378 N 0.11681 0.10169 0.36527 0.0
N1379 N 0.19219 0.14193 0.36797 0.0
H1380 H 0.17751 0.83192 0.61367 0.0
H1381 H 0.07705 0.9877 0.61959 0.0
H1382 H 0.17514 0.88706 0.65071 0.0
H1383 H 0.05785 0.91079 0.59241 0.0
H1384 H 0.12442 0.96058 0.6275 0.0
H1385 H 0.14645 0.87136 0.60205 0.0
C1386 C 0.17093 0.85269 0.61929 0.0
C1387 C 0.17832 0.85602 0.63323 0.0
C1388 C 0.11009 0.95007 0.61961 0.0
C1389 C 0.14237 0.90101 0.62005 0.0
C1390 C 0.08329 0.96552 0.61506 0.0
C1391 C 0.06363 0.95121 0.60544 0.0
C1392 C 0.11731 0.92058 0.61423 0.0
C1393 C 0.07235 0.9224 0.59994 0.0
C1394 C 0.15315 0.87515 0.61265 0.0
C1395 C 0.16966 0.88359 0.63996 0.0
N1396 N 0.09848 0.90801 0.60444 0.0
N1397 N 0.15152 0.90489 0.63336 0.0
H1398 H 0.29674 0.80665 0.86743 0.0
H1399 H 0.42061 0.9424 0.8641 0.0
H1400 H 0.34254 0.83675 0.83024 0.0
H1401 H 0.37154 0.91764 0.90114 0.0
H1402 H 0.38404 0.91128 0.85076 0.0
H1403 H 0.31578 0.85329 0.87907 0.0
C1404 C 0.31035 0.82331 0.86163 0.0
C1405 C 0.31856 0.81745 0.84789 0.0
C1406 C 0.38074 0.91308 0.86176 0.0
C1407 C 0.34057 0.87083 0.86121 0.0
C1408 C 0.40156 0.93097 0.86937 0.0
C1409 C 0.39915 0.93227 0.88372 0.0
C1410 C 0.35778 0.89572 0.8686 0.0
C1411 C 0.37408 0.91719 0.89007 0.0
C1412 C 0.32121 0.84998 0.8683 0.0
C1413 C 0.33599 0.84003 0.84089 0.0
N1414 N 0.35471 0.8989 0.88249 0.0
N1415 N 0.34678 0.86546 0.84768 0.0
H1416 H 0.41834 0.9882 0.38471 0.0
H1417 H 0.3191 0.83125 0.3869 0.0
H1418 H 0.43666 0.90926 0.41081 0.0
H1419 H 0.3244 0.8885 0.35058 0.0
H1420 H 0.34854 0.87033 0.39955 0.0
H1421 H 0.37176 0.96135 0.37577 0.0
C1422 C 0.41202 0.96563 0.3888 0.0
C1423 C 0.43121 0.9507 0.39842 0.0
C1424 C 0.34279 0.87467 0.38888 0.0
C1425 C 0.37843 0.92035 0.38847 0.0
C1426 C 0.32593 0.85243 0.38166 0.0
C1427 C 0.31989 0.85647 0.36762 0.0
C1428 C 0.35402 0.90103 0.38199 0.0
C1429 C 0.32883 0.8845 0.36139 0.0
C1430 C 0.38568 0.95033 0.38367 0.0
C1431 C 0.42246 0.92138 0.40333 0.0
N1432 N 0.34609 0.90559 0.36856 0.0
N1433 N 0.39677 0.90714 0.39827 0.0
H1434 H 0.42113 0.0763 0.63801 0.0
H1435 H 0.2631 0.1741 0.63545 0.0
H1436 H 0.36332 0.07868 0.60178 0.0
H1437 H 0.34263 0.19532 0.66077 0.0
H1438 H 0.29077 0.12787 0.6266 0.0
H1439 H 0.38258 0.10733 0.65021 0.0
C1440 C 0.39998 0.08289 0.6327 0.0
C1441 C 0.39562 0.07544 0.6188 0.0
C1442 C 0.30178 0.14239 0.63429 0.0
C1443 C 0.35156 0.11135 0.63268 0.0
C1444 C 0.28602 0.16853 0.63938 0.0
C1445 C 0.3008 0.18841 0.64877 0.0
C1446 C 0.33209 0.13601 0.63892 0.0
C1447 C 0.33058 0.1806 0.65347 0.0
C1448 C 0.37803 0.10067 0.63966 0.0
C1449 C 0.36759 0.08416 0.61248 0.0
N1450 N 0.34525 0.15506 0.64847 0.0
N1451 N 0.34673 0.10223 0.61941 0.0
H1452 H 0.04547 0.04979 0.87403 0.0
H1453 H 0.18748 0.15273 0.88716 0.0
H1454 H 0.09327 0.04208 0.91282 0.0
H1455 H 0.17143 0.11392 0.84691 0.0
H1456 H 0.15553 0.11134 0.89718 0.0
H1457 H 0.09228 0.07237 0.86384 0.0
C1458 C 0.06612 0.05243 0.88032 0.0
C1459 C 0.06572 0.04424 0.89424 0.0
C1460 C 0.15977 0.11134 0.88621 0.0
C1461 C 0.11895 0.07069 0.8828 0.0
C1462 C 0.17794 0.13492 0.88049 0.0
C1463 C 0.18181 0.13676 0.8662 0.0
C1464 C 0.14466 0.09015 0.8775 0.0
C1465 C 0.16899 0.11324 0.85798 0.0
C1466 C 0.09283 0.06512 0.8745 0.0
C1467 C 0.0929 0.04809 0.90201 0.0
N1468 N 0.15023 0.09133 0.86372 0.0
N1469 N 0.11833 0.06181 0.89626 0.0
H1470 H 0.23125 0.82878 0.13434 0.0
H1471 H 0.06818 0.91827 0.13526 0.0
H1472 H 0.14936 0.79894 0.1563 0.0
H1473 H 0.13206 0.9266 0.10123 0.0
H1474 H 0.10556 0.88534 0.14713 0.0
H1475 H 0.20208 0.87446 0.12592 0.0
C1476 C 0.20739 0.83222 0.13759 0.0
C1477 C 0.1925 0.81012 0.14592 0.0
C1478 C 0.11162 0.89467 0.13714 0.0
C1479 C 0.15948 0.86193 0.13656 0.0
C1480 C 0.09032 0.91353 0.13036 0.0
C1481 C 0.09683 0.92471 0.11713 0.0
C1482 C 0.13968 0.88673 0.13067 0.0
C1483 C 0.12609 0.9182 0.11138 0.0
C1484 C 0.19079 0.85807 0.13274 0.0
C1485 C 0.16154 0.81534 0.14979 0.0
N1486 N 0.14638 0.89918 0.11812 0.0
N1487 N 0.14609 0.84066 0.14507 0.0
H1488 H 0.58337 0.98793 0.88524 0.0
H1489 H 0.6782 0.82822 0.88864 0.0
H1490 H 0.56002 0.90888 0.91047 0.0
H1491 H 0.67751 0.88555 0.85226 0.0
H1492 H 0.64798 0.86768 0.90067 0.0
H1493 H 0.6296 0.95956 0.87681 0.0
C1494 C 0.5885 0.96499 0.88926 0.0
C1495 C 0.56804 0.95053 0.89849 0.0
C1496 C 0.65487 0.87193 0.89013 0.0
C1497 C 0.62038 0.91846 0.88912 0.0
C1498 C 0.67218 0.84946 0.88326 0.0
C1499 C 0.67981 0.85343 0.86937 0.0
C1500 C 0.64485 0.89852 0.88305 0.0
C1501 C 0.67185 0.88158 0.86296 0.0
C1502 C 0.61462 0.94882 0.88441 0.0
C1503 C 0.57524 0.92069 0.9033 0.0
N1504 N 0.6542 0.90295 0.86979 0.0
N1505 N 0.60077 0.90564 0.89854 0.0
H1506 H 0.92073 0.92469 0.63758 0.0
H1507 H 0.76286 0.82684 0.63483 0.0
H1508 H 0.86302 0.92175 0.60133 0.0
H1509 H 0.84124 0.80757 0.66114 0.0
H1510 H 0.79041 0.87306 0.62595 0.0
H1511 H 0.88181 0.89451 0.64994 0.0
C1512 C 0.89955 0.91811 0.63228 0.0
C1513 C 0.89529 0.92513 0.61835 0.0
C1514 C 0.80118 0.859 0.63387 0.0
C1515 C 0.85083 0.8902 0.6324 0.0
C1516 C 0.78547 0.83287 0.63897 0.0
C1517 C 0.80002 0.81352 0.64864 0.0
C1518 C 0.83119 0.86586 0.63874 0.0
C1519 C 0.8294 0.82189 0.65361 0.0
C1520 C 0.87737 0.90085 0.63934 0.0
C1521 C 0.8672 0.91653 0.61205 0.0
N1522 N 0.84404 0.84737 0.64858 0.0
N1523 N 0.84615 0.89891 0.61907 0.0
H1524 H 0.83131 0.11663 0.35413 0.0
H1525 H 0.92546 0.0951 0.42428 0.0
H1526 H 0.82358 0.17695 0.3894 0.0
H1527 H 0.94758 0.04625 0.38674 0.0
H1528 H 0.87868 0.11568 0.41336 0.0
H1529 H 0.86441 0.08148 0.36766 0.0
C1530 C 0.83594 0.12204 0.36481 0.0
C1531 C 0.82513 0.14985 0.37064 0.0
C1532 C 0.89355 0.10011 0.40757 0.0
C1533 C 0.86287 0.11012 0.38607 0.0
C1534 C 0.92025 0.08827 0.41382 0.0
C1535 C 0.94081 0.06939 0.40634 0.0
C1536 C 0.88737 0.0931 0.39372 0.0
C1537 C 0.93264 0.06112 0.39283 0.0
C1538 C 0.85496 0.10213 0.37249 0.0
C1539 C 0.83187 0.15592 0.38448 0.0
N1540 N 0.90677 0.07338 0.38689 0.0
N1541 N 0.85054 0.1364 0.39168 0.0
H1542 H 0.73919 0.16907 0.13455 0.0
H1543 H 0.58098 0.07182 0.13769 0.0
H1544 H 0.66261 0.18645 0.16212 0.0
H1545 H 0.63754 0.07605 0.10112 0.0
H1546 H 0.6207 0.10079 0.15013 0.0
H1547 H 0.71121 0.12325 0.12551 0.0
C1548 C 0.71693 0.16266 0.13895 0.0
C1549 C 0.70297 0.18139 0.14902 0.0
C1550 C 0.62472 0.09499 0.13944 0.0
C1551 C 0.67128 0.12954 0.13891 0.0
C1552 C 0.60209 0.07841 0.13234 0.0
C1553 C 0.60579 0.07211 0.1183 0.0
C1554 C 0.65116 0.10571 0.13245 0.0
C1555 C 0.63379 0.0807 0.11193 0.0
C1556 C 0.70096 0.13677 0.13375 0.0
C1557 C 0.674 0.17258 0.15429 0.0
N1558 N 0.65529 0.09768 0.119 0.0
N1559 N 0.65907 0.14738 0.14914 0.0
H1560 H 0.6736 0.11393 0.65354 0.0
H1561 H 0.55881 0.09062 0.592 0.0
H1562 H 0.67693 0.16854 0.61639 0.0
H1563 H 0.57658 0.01583 0.62043 0.0
H1564 H 0.60521 0.11726 0.60024 0.0
H1565 H 0.64218 0.07479 0.64136 0.0
C1566 C 0.66848 0.11722 0.64274 0.0
C1567 C 0.67729 0.1447 0.636 0.0
C1568 C 0.59946 0.09475 0.60455 0.0
C1569 C 0.6413 0.1006 0.62216 0.0
C1570 C 0.57295 0.0796 0.59984 0.0
C1571 C 0.56405 0.05113 0.60558 0.0
C1572 C 0.61672 0.08183 0.61541 0.0
C1573 C 0.58296 0.03776 0.61573 0.0
C1574 C 0.6505 0.09498 0.63581 0.0
C1575 C 0.67004 0.14795 0.62204 0.0
N1576 N 0.60817 0.05358 0.62057 0.0
N1577 N 0.65207 0.12646 0.61565 0.0
H1578 H 0.65945 0.83316 0.3305 0.0
H1579 H 0.6291 0.917 0.40237 0.0
H1580 H 0.70235 0.80497 0.36865 0.0
H1581 H 0.57676 0.93371 0.3653 0.0
H1582 H 0.66642 0.88597 0.38898 0.0
H1583 H 0.63967 0.87974 0.3419 0.0
C1584 C 0.66517 0.83699 0.34121 0.0
C1585 C 0.68203 0.81477 0.3487 0.0
C1586 C 0.64715 0.89705 0.38374 0.0
C1587 C 0.65918 0.86795 0.36185 0.0
C1588 C 0.62605 0.91493 0.39135 0.0
C1589 C 0.59972 0.92747 0.38491 0.0
C1590 C 0.64178 0.89199 0.36964 0.0
C1591 C 0.5966 0.92398 0.37065 0.0
C1592 C 0.65381 0.8636 0.34773 0.0
C1593 C 0.68901 0.82121 0.36253 0.0
N1594 N 0.61713 0.90626 0.36353 0.0
N1595 N 0.67713 0.84697 0.36872 0.0
H1596 H 0.83257 0.88039 0.15266 0.0
H1597 H 0.91363 0.91275 0.08039 0.0
H1598 H 0.81318 0.8304 0.11521 0.0
H1599 H 0.9446 0.9532 0.11865 0.0
H1600 H 0.86727 0.89337 0.09202 0.0
H1601 H 0.8638 0.91777 0.13941 0.0
C1602 C 0.83411 0.87789 0.14161 0.0
C1603 C 0.82074 0.85218 0.135 0.0
C1604 C 0.88397 0.90688 0.09784 0.0
C1605 C 0.85642 0.8943 0.11988 0.0
C1606 C 0.91047 0.918 0.09119 0.0
C1607 C 0.93338 0.93407 0.09861 0.0
C1608 C 0.88042 0.91163 0.11205 0.0
C1609 C 0.92777 0.94051 0.11255 0.0
C1610 C 0.8521 0.89902 0.13407 0.0
C1611 C 0.82355 0.84974 0.12069 0.0
N1612 N 0.9021 0.92882 0.11888 0.0
N1613 N 0.84137 0.87028 0.11363 0.0
H1614 H 0.91596 0.05622 0.8632 0.0
H1615 H 0.7964 0.1955 0.86911 0.0
H1616 H 0.87058 0.08201 0.90103 0.0
H1617 H 0.84136 0.16733 0.83142 0.0
H1618 H 0.81425 0.14749 0.87996 0.0
H1619 H 0.87942 0.08875 0.85051 0.0
C1620 C 0.89768 0.06814 0.86879 0.0
C1621 C 0.8964 0.0668 0.88316 0.0
C1622 C 0.81977 0.15155 0.86925 0.0
C1623 C 0.85514 0.10492 0.86879 0.0
C1624 C 0.80961 0.17901 0.86303 0.0
C1625 C 0.81793 0.18577 0.84939 0.0
C1626 C 0.83854 0.13078 0.86181 0.0
C1627 C 0.83477 0.16335 0.84201 0.0
C1628 C 0.8769 0.08685 0.86155 0.0
C1629 C 0.87227 0.0825 0.88993 0.0
N1630 N 0.8449 0.1371 0.84837 0.0
N1631 N 0.85297 0.10155 0.8827 0.0
H1632 H 0.92169 0.51226 0.61919 0.0
H1633 H 0.82305 0.66973 0.61656 0.0
H1634 H 0.9421 0.59167 0.59366 0.0
H1635 H 0.82701 0.61293 0.65307 0.0
H1636 H 0.85382 0.63098 0.60435 0.0
H1637 H 0.87552 0.53984 0.62816 0.0
C1638 C 0.91596 0.53513 0.61525 0.0
C1639 C 0.93559 0.54992 0.60575 0.0
C1640 C 0.84754 0.62669 0.61497 0.0
C1641 C 0.88324 0.58106 0.61574 0.0
C1642 C 0.82992 0.64874 0.62194 0.0
C1643 C 0.82302 0.64473 0.63591 0.0
C1644 C 0.85862 0.60048 0.62202 0.0
C1645 C 0.83207 0.61691 0.64231 0.0
C1646 C 0.88986 0.55084 0.6204 0.0
C1647 C 0.92757 0.57962 0.60105 0.0
N1648 N 0.84999 0.59595 0.63537 0.0
N1649 N 0.90206 0.59422 0.6061 0.0
H1650 H 0.6377 0.57174 0.90244 0.0
H1651 H 0.65938 0.69124 0.84306 0.0
H1652 H 0.58336 0.56941 0.86518 0.0
H1653 H 0.73624 0.66939 0.86983 0.0
H1654 H 0.63287 0.6442 0.85067 0.0
H1655 H 0.67674 0.60374 0.89055 0.0
C1656 C 0.63449 0.57712 0.89166 0.0
C1657 C 0.60706 0.56847 0.88483 0.0
C1658 C 0.65578 0.64924 0.85473 0.0
C1659 C 0.65101 0.60527 0.87134 0.0
C1660 C 0.67083 0.67615 0.85041 0.0
C1661 C 0.69988 0.68405 0.85587 0.0
C1662 C 0.66943 0.63055 0.86494 0.0
C1663 C 0.71384 0.66384 0.86537 0.0
C1664 C 0.65667 0.59547 0.8849 0.0
C1665 C 0.60392 0.57612 0.87089 0.0
N1666 N 0.69814 0.63823 0.86986 0.0
N1667 N 0.6253 0.59455 0.86469 0.0
H1668 H 0.68745 0.32666 0.1161 0.0
H1669 H 0.55544 0.4546 0.11893 0.0
H1670 H 0.66476 0.37786 0.15286 0.0
H1671 H 0.58357 0.40656 0.08198 0.0
H1672 H 0.60162 0.43459 0.13057 0.0
H1673 H 0.65698 0.36344 0.10261 0.0
C1674 C 0.67653 0.34615 0.12128 0.0
C1675 C 0.67823 0.34913 0.13559 0.0
C1676 C 0.59799 0.42887 0.11985 0.0
C1677 C 0.64252 0.39086 0.12029 0.0
C1678 C 0.57158 0.44028 0.11318 0.0
C1679 C 0.56527 0.43173 0.09951 0.0
C1680 C 0.61813 0.40859 0.11284 0.0
C1681 C 0.58722 0.41341 0.09256 0.0
C1682 C 0.65905 0.36712 0.11358 0.0
C1683 C 0.66392 0.37482 0.14182 0.0
N1684 N 0.61239 0.40207 0.09937 0.0
N1685 N 0.64603 0.39439 0.13415 0.0
H1686 H 0.83696 0.33029 0.33059 0.0
H1687 H 0.86589 0.41694 0.40169 0.0
H1688 H 0.79449 0.3031 0.36897 0.0
H1689 H 0.9153 0.43623 0.36408 0.0
H1690 H 0.8289 0.38495 0.38865 0.0
H1691 H 0.855 0.3782 0.34144 0.0
C1692 C 0.83098 0.33459 0.34123 0.0
C1693 C 0.81477 0.31231 0.34895 0.0
C1694 C 0.84739 0.39682 0.3832 0.0
C1695 C 0.83562 0.36703 0.36149 0.0
C1696 C 0.8683 0.41528 0.39063 0.0
C1697 C 0.89383 0.42876 0.38394 0.0
C1698 C 0.85221 0.39201 0.36905 0.0
C1699 C 0.89612 0.42577 0.36963 0.0
C1700 C 0.84131 0.36198 0.34744 0.0
C1701 C 0.80738 0.31938 0.36267 0.0
N1702 N 0.87588 0.40734 0.36269 0.0
N1703 N 0.81831 0.34588 0.36857 0.0
H1704 H 0.82322 0.38536 0.85215 0.0
H1705 H 0.95008 0.4041 0.90972 0.0
H1706 H 0.8324 0.32298 0.88665 0.0
H1707 H 0.92153 0.4829 0.88539 0.0
H1708 H 0.9048 0.37538 0.90171 0.0
H1709 H 0.85606 0.42337 0.8643 0.0
C1710 C 0.83153 0.37998 0.86238 0.0
C1711 C 0.82559 0.35081 0.86832 0.0
C1712 C 0.90799 0.39912 0.89824 0.0
C1713 C 0.86314 0.39373 0.88212 0.0
C1714 C 0.93389 0.41546 0.90281 0.0
C1715 C 0.93941 0.44577 0.89816 0.0
C1716 C 0.88782 0.41282 0.88863 0.0
C1717 C 0.91783 0.45954 0.88922 0.0
C1718 C 0.85028 0.40161 0.86929 0.0
C1719 C 0.83688 0.34495 0.88158 0.0
N1720 N 0.89315 0.4427 0.88449 0.0
N1721 N 0.85543 0.366 0.88793 0.0
H1722 H 0.91636 0.57021 0.13821 0.0
H1723 H 0.7604 0.67056 0.13259 0.0
H1724 H 0.86315 0.57585 0.10068 0.0
H1725 H 0.83653 0.68879 0.1603 0.0
H1726 H 0.78814 0.62393 0.12422 0.0
H1727 H 0.87639 0.60045 0.14992 0.0
C1728 C 0.89592 0.57732 0.13249 0.0
C1729 C 0.89332 0.57111 0.11839 0.0
C1730 C 0.79834 0.63786 0.13233 0.0
C1731 C 0.84768 0.60603 0.13172 0.0
C1732 C 0.78253 0.66422 0.13714 0.0
C1733 C 0.79644 0.68339 0.14705 0.0
C1734 C 0.82776 0.63056 0.13775 0.0
C1735 C 0.82521 0.67461 0.15256 0.0
C1736 C 0.87316 0.59462 0.13918 0.0
C1737 C 0.86612 0.58043 0.11155 0.0
N1738 N 0.83995 0.6489 0.14781 0.0
N1739 N 0.84449 0.59802 0.11823 0.0
H1740 H 0.5765 0.59594 0.42361 0.0
H1741 H 0.66585 0.61929 0.35233 0.0
H1742 H 0.55195 0.54781 0.38618 0.0
H1743 H 0.67656 0.67805 0.38796 0.0
H1744 H 0.63355 0.58374 0.36607 0.0
H1745 H 0.62264 0.61658 0.41219 0.0
C1746 C 0.58104 0.58927 0.41306 0.0
C1747 C 0.55997 0.57058 0.40578 0.0
C1748 C 0.6435 0.60412 0.37093 0.0
C1749 C 0.61266 0.5944 0.39258 0.0
C1750 C 0.66204 0.62425 0.36312 0.0
C1751 C 0.67344 0.65175 0.36901 0.0
C1752 C 0.63666 0.61159 0.38468 0.0
C1753 C 0.66778 0.65727 0.38299 0.0
C1754 C 0.60738 0.60114 0.40652 0.0
C1755 C 0.5673 0.56252 0.39215 0.0
N1756 N 0.64956 0.63756 0.39031 0.0
N1757 N 0.5928 0.57484 0.38593 0.0
H1758 H 0.73697 0.32823 0.63328 0.0
H1759 H 0.57954 0.42669 0.63735 0.0
H1760 H 0.65865 0.30777 0.65946 0.0
H1761 H 0.63599 0.42455 0.6007 0.0
H1762 H 0.61856 0.39563 0.64922 0.0
H1763 H 0.70923 0.37468 0.62473 0.0
C1764 C 0.71431 0.33398 0.63745 0.0
C1765 C 0.69985 0.31426 0.64699 0.0
C1766 C 0.62271 0.40234 0.63865 0.0
C1767 C 0.66852 0.36692 0.63749 0.0
C1768 C 0.60049 0.42012 0.63187 0.0
C1769 C 0.60434 0.42764 0.61796 0.0
C1770 C 0.6489 0.39168 0.63145 0.0
C1771 C 0.63213 0.41899 0.61142 0.0
C1772 C 0.6985 0.36026 0.63253 0.0
C1773 C 0.67042 0.32235 0.65201 0.0
N1774 N 0.65324 0.40087 0.61817 0.0
N1775 N 0.65572 0.348 0.64718 0.0
H1776 H 0.08961 0.45195 0.41513 0.0
H1777 H 0.16825 0.38614 0.34655 0.0
H1778 H 0.04385 0.44756 0.37576 0.0
H1779 H 0.18267 0.34418 0.38629 0.0
H1780 H 0.13615 0.42646 0.35747 0.0
H1781 H 0.13663 0.42909 0.40458 0.0
C1782 C 0.08983 0.44691 0.40422 0.0
C1783 C 0.06303 0.45128 0.39627 0.0
C1784 C 0.14715 0.40891 0.36381 0.0
C1785 C 0.11624 0.42615 0.38422 0.0
C1786 C 0.1656 0.3861 0.35762 0.0
C1787 C 0.17771 0.36175 0.36556 0.0
C1788 C 0.14137 0.40748 0.378 0.0
C1789 C 0.17336 0.36248 0.37984 0.0
C1790 C 0.11646 0.4339 0.39825 0.0
C1791 C 0.06412 0.44425 0.38222 0.0
N1792 N 0.15522 0.38483 0.38563 0.0
N1793 N 0.09029 0.43196 0.37663 0.0
H1794 H 0.42991 0.41845 0.13646 0.0
H1795 H 0.26707 0.32865 0.13594 0.0
H1796 H 0.36639 0.42506 0.10224 0.0
H1797 H 0.34869 0.30017 0.15844 0.0
H1798 H 0.29609 0.37421 0.1273 0.0
H1799 H 0.39233 0.38633 0.14863 0.0
C1800 C 0.4078 0.4135 0.13158 0.0
C1801 C 0.40146 0.42393 0.11822 0.0
C1802 C 0.30734 0.35818 0.13431 0.0
C1803 C 0.35839 0.38687 0.13209 0.0
C1804 C 0.29082 0.33242 0.13929 0.0
C1805 C 0.3057 0.31072 0.14782 0.0
C1806 C 0.33856 0.36234 0.1382 0.0
C1807 C 0.33651 0.3163 0.15179 0.0
C1808 C 0.38638 0.39511 0.13853 0.0
C1809 C 0.37223 0.41723 0.11249 0.0
N1810 N 0.35191 0.34151 0.14693 0.0
N1811 N 0.35183 0.39863 0.1194 0.0
H1812 H 0.32473 0.61784 0.84982 0.0
H1813 H 0.44759 0.59725 0.90916 0.0
H1814 H 0.33415 0.68127 0.88397 0.0
H1815 H 0.41935 0.51916 0.88429 0.0
H1816 H 0.40359 0.62695 0.90048 0.0
H1817 H 0.35618 0.5795 0.86247 0.0
C1818 C 0.33288 0.62345 0.86006 0.0
C1819 C 0.32734 0.65294 0.86577 0.0
C1820 C 0.40653 0.60316 0.89705 0.0
C1821 C 0.36326 0.60959 0.88016 0.0
C1822 C 0.43168 0.58623 0.90201 0.0
C1823 C 0.43696 0.55583 0.8974 0.0
C1824 C 0.3869 0.58994 0.88709 0.0
C1825 C 0.4158 0.54255 0.88812 0.0
C1826 C 0.3508 0.60161 0.86727 0.0
C1827 C 0.33833 0.65903 0.87907 0.0
N1828 N 0.3919 0.55995 0.88303 0.0
N1829 N 0.35606 0.63775 0.88571 0.0
H1830 H 0.16087 0.69326 0.65875 0.0
H1831 H 0.13615 0.57377 0.59913 0.0
H1832 H 0.23556 0.67231 0.63066 0.0
H1833 H 0.082 0.57369 0.63646 0.0
H1834 H 0.17566 0.60582 0.61073 0.0
H1835 H 0.13371 0.64658 0.65122 0.0
C1836 C 0.17172 0.67842 0.65111 0.0
C1837 C 0.20033 0.6865 0.64526 0.0
C1838 C 0.15549 0.59807 0.61646 0.0
C1839 C 0.16907 0.63339 0.63628 0.0
C1840 C 0.13304 0.57973 0.60986 0.0
C1841 C 0.10558 0.57166 0.6168 0.0
C1842 C 0.1501 0.60838 0.62997 0.0
C1843 C 0.10257 0.57998 0.63066 0.0
C1844 C 0.15629 0.65172 0.64682 0.0
C1845 C 0.21351 0.66662 0.63541 0.0
N1846 N 0.12426 0.59829 0.63671 0.0
N1847 N 0.19742 0.64119 0.63098 0.0
H1848 H 0.18365 0.65564 0.1157 0.0
H1849 H 0.04353 0.54902 0.12763 0.0
H1850 H 0.16874 0.61378 0.15542 0.0
H1851 H 0.0906 0.54636 0.08854 0.0
H1852 H 0.09014 0.57142 0.1381 0.0
H1853 H 0.15208 0.61462 0.10518 0.0
C1854 C 0.1744 0.63726 0.12214 0.0
C1855 C 0.17853 0.63806 0.13643 0.0
C1856 C 0.0906 0.56531 0.1273 0.0
C1857 C 0.14179 0.59183 0.12457 0.0
C1858 C 0.064 0.5527 0.12133 0.0
C1859 C 0.06341 0.54604 0.10724 0.0
C1860 C 0.11639 0.57229 0.11902 0.0
C1861 C 0.09035 0.55118 0.09946 0.0
C1862 C 0.15646 0.61387 0.11614 0.0
C1863 C 0.1661 0.61386 0.14435 0.0
N1864 N 0.11564 0.56477 0.1054 0.0
N1865 N 0.14753 0.59212 0.13835 0.0
H1866 H 0.09513 0.43556 0.8671 0.0
H1867 H 0.18897 0.28724 0.87865 0.0
H1868 H 0.13347 0.41672 0.90719 0.0
H1869 H 0.20548 0.33889 0.84138 0.0
H1870 H 0.16713 0.33409 0.8892 0.0
H1871 H 0.13461 0.40145 0.85686 0.0
C1872 C 0.11248 0.42494 0.87368 0.0
C1873 C 0.11113 0.42876 0.88798 0.0
C1874 C 0.17605 0.33534 0.8788 0.0
C1875 C 0.15534 0.38915 0.87646 0.0
C1876 C 0.18824 0.30863 0.87276 0.0
C1877 C 0.19881 0.30939 0.85915 0.0
C1878 C 0.17344 0.36268 0.87102 0.0
C1879 C 0.19754 0.33758 0.85192 0.0
C1880 C 0.13494 0.40554 0.86785 0.0
C1881 C 0.13391 0.41442 0.89611 0.0
N1882 N 0.18433 0.36308 0.85785 0.0
N1883 N 0.15462 0.39449 0.89026 0.0
H1884 H 0.42222 0.48939 0.62048 0.0
H1885 H 0.32289 0.33252 0.61654 0.0
H1886 H 0.44164 0.41134 0.59397 0.0
H1887 H 0.32572 0.38912 0.65314 0.0
H1888 H 0.35388 0.37141 0.60454 0.0
H1889 H 0.37569 0.46192 0.62908 0.0
C1890 C 0.41622 0.46686 0.61625 0.0
C1891 C 0.4357 0.4524 0.60659 0.0
C1892 C 0.34731 0.37563 0.61513 0.0
C1893 C 0.38293 0.42134 0.61617 0.0
C1894 C 0.32955 0.35349 0.62197 0.0
C1895 C 0.32226 0.35741 0.63591 0.0
C1896 C 0.35816 0.40181 0.62228 0.0
C1897 C 0.33107 0.38521 0.6424 0.0
C1898 C 0.38989 0.4512 0.62119 0.0
C1899 C 0.42728 0.42312 0.6015 0.0
N1900 N 0.34915 0.40623 0.63559 0.0
N1901 N 0.40159 0.40854 0.60637 0.0
H1902 H 0.26545 0.67033 0.36489 0.0
H1903 H 0.42747 0.57911 0.36652 0.0
H1904 H 0.34824 0.69692 0.34279 0.0
H1905 H 0.36191 0.57423 0.40004 0.0
H1906 H 0.39065 0.61065 0.3536 0.0
H1907 H 0.29342 0.62452 0.37392 0.0
C1908 C 0.28922 0.66606 0.3617 0.0
C1909 C 0.30475 0.68732 0.35318 0.0
C1910 C 0.38408 0.60235 0.3637 0.0
C1911 C 0.33644 0.63542 0.36326 0.0
C1912 C 0.40506 0.5843 0.37109 0.0
C1913 C 0.39792 0.57456 0.38447 0.0
C1914 C 0.35574 0.61098 0.36975 0.0
C1915 C 0.36835 0.58153 0.38978 0.0
C1916 C 0.30515 0.64015 0.3669 0.0
C1917 C 0.33558 0.68112 0.34942 0.0
N1918 N 0.34841 0.59982 0.38247 0.0
N1919 N 0.35041 0.6558 0.35451 0.0
H1920 H 0.06185 0.06719 0.13926 0.0
H1921 H 0.19306 0.18256 0.11084 0.0
H1922 H 0.09065 0.07015 0.09681 0.0
H1923 H 0.1769 0.16644 0.15401 0.0
H1924 H 0.15167 0.14573 0.10535 0.0
H1925 H 0.09987 0.10765 0.14462 0.0
C1926 C 0.07592 0.07657 0.13103 0.0
C1927 C 0.07302 0.06522 0.11755 0.0
C1928 C 0.15708 0.15032 0.11603 0.0
C1929 C 0.11688 0.11146 0.12366 0.0
C1930 C 0.18057 0.17158 0.11918 0.0
C1931 C 0.18847 0.17767 0.13294 0.0
C1932 C 0.14116 0.1351 0.12668 0.0
C1933 C 0.17176 0.16223 0.14329 0.0
C1934 C 0.09781 0.09953 0.13412 0.0
C1935 C 0.09231 0.07797 0.10735 0.0
N1936 N 0.14889 0.14168 0.13995 0.0
N1937 N 0.11339 0.1004 0.11061 0.0
H1938 H 0.19353 0.81426 0.39099 0.0
H1939 H 0.06267 0.93179 0.36393 0.0
H1940 H 0.1777 0.83306 0.348 0.0
H1941 H 0.09238 0.92696 0.40622 0.0
H1942 H 0.10027 0.89118 0.3581 0.0
H1943 H 0.15226 0.85091 0.39687 0.0
C1944 C 0.18114 0.8258 0.38276 0.0
C1945 C 0.1891 0.8205 0.36895 0.0
C1946 C 0.09848 0.89892 0.36867 0.0
C1947 C 0.14188 0.86287 0.37567 0.0
C1948 C 0.07682 0.92194 0.37203 0.0
C1949 C 0.07436 0.93284 0.3856 0.0
C1950 C 0.11771 0.88647 0.37896 0.0
C1951 C 0.09373 0.9195 0.39561 0.0
C1952 C 0.1577 0.84695 0.38615 0.0
C1953 C 0.17251 0.83664 0.35877 0.0
N1954 N 0.11456 0.89703 0.3921 0.0
N1955 N 0.14968 0.85708 0.36232 0.0
H1956 H 0.31075 0.82026 0.61004 0.0
H1957 H 0.43157 0.94212 0.64195 0.0
H1958 H 0.32192 0.83521 0.65364 0.0
H1959 H 0.41574 0.93092 0.59843 0.0
H1960 H 0.39445 0.90041 0.64644 0.0
H1961 H 0.35192 0.85787 0.60568 0.0
C1962 C 0.32207 0.83112 0.61874 0.0
C1963 C 0.31274 0.82444 0.63226 0.0
C1964 C 0.39918 0.90697 0.6359 0.0
C1965 C 0.35987 0.86813 0.62727 0.0
C1966 C 0.4206 0.9307 0.63331 0.0
C1967 C 0.42683 0.94016 0.61976 0.0
C1968 C 0.38385 0.89247 0.62488 0.0
C1969 C 0.41139 0.9247 0.60903 0.0
C1970 C 0.3455 0.85285 0.61621 0.0
C1971 C 0.32806 0.83986 0.64305 0.0
N1972 N 0.39061 0.90169 0.61182 0.0
N1973 N 0.3508 0.861 0.64033 0.0
H1974 H 0.32042 0.15986 0.84712 0.0
H1975 H 0.41854 0.07376 0.90578 0.0
H1976 H 0.31526 0.18446 0.89004 0.0
H1977 H 0.4361 0.0618 0.86246 0.0
H1978 H 0.37967 0.11356 0.90028 0.0
H1979 H 0.36196 0.12278 0.85253 0.0
C1980 C 0.32806 0.15749 0.85767 0.0
C1981 C 0.31435 0.17533 0.86812 0.0
C1982 C 0.39219 0.10237 0.89198 0.0
C1983 C 0.36183 0.13295 0.87443 0.0
C1984 C 0.41428 0.07958 0.89512 0.0
C1985 C 0.43065 0.06445 0.88458 0.0
C1986 C 0.38615 0.10988 0.87818 0.0
C1987 C 0.42437 0.07309 0.87093 0.0
C1988 C 0.35186 0.13645 0.86075 0.0
C1989 C 0.32537 0.17153 0.88162 0.0
N1990 N 0.4025 0.09505 0.86813 0.0
N1991 N 0.34829 0.15065 0.88439 0.0
H1992 H 0.91184 0.9292 0.90701 0.0
H1993 H 0.82442 0.82878 0.84943 0.0
H1994 H 0.93783 0.9294 0.86418 0.0
H1995 H 0.80839 0.81733 0.8929 0.0
H1996 H 0.86567 0.86627 0.85461 0.0
H1997 H 0.87326 0.88872 0.90209 0.0
C1998 C 0.90948 0.92069 0.89659 0.0
C1999 C 0.92815 0.93273 0.88602 0.0
C2000 C 0.85326 0.8554 0.86302 0.0
C2001 C 0.88406 0.88642 0.88028 0.0
C2002 C 0.82964 0.8341 0.86006 0.0
C2003 C 0.81291 0.81987 0.87072 0.0
C2004 C 0.86007 0.8628 0.87677 0.0
C2005 C 0.82087 0.82741 0.88434 0.0
C2006 C 0.88757 0.89749 0.89379 0.0
C2007 C 0.92429 0.92061 0.8727 0.0
N2008 N 0.84371 0.84849 0.88696 0.0
N2009 N 0.90259 0.89831 0.87021 0.0
H2010 H 0.92912 0.05622 0.64259 0.0
H2011 H 0.80822 0.17978 0.61211 0.0
H2012 H 0.91319 0.06964 0.5992 0.0
H2013 H 0.82025 0.16322 0.65554 0.0
H2014 H 0.8488 0.14184 0.60729 0.0
H2015 H 0.89176 0.09741 0.64754 0.0
C2016 C 0.91807 0.06801 0.63407 0.0
C2017 C 0.92443 0.05937 0.62042 0.0
C2018 C 0.84269 0.14655 0.61788 0.0
C2019 C 0.88111 0.10649 0.62608 0.0
C2020 C 0.8196 0.16848 0.62067 0.0
C2021 C 0.81074 0.17489 0.6343 0.0
C2022 C 0.85721 0.13078 0.62876 0.0
C2023 C 0.82607 0.15885 0.64489 0.0
C2024 C 0.8965 0.09144 0.63693 0.0
C2025 C 0.90881 0.07525 0.60986 0.0
N2026 N 0.84851 0.13754 0.6419 0.0
N2027 N 0.88789 0.09799 0.61291 0.0
H2028 H 0.56499 0.05631 0.36163 0.0
H2029 H 0.68217 0.18487 0.39107 0.0
H2030 H 0.58024 0.0714 0.40495 0.0
H2031 H 0.67965 0.15676 0.34852 0.0
H2032 H 0.64096 0.1474 0.39613 0.0
H2033 H 0.60292 0.09693 0.35649 0.0
C2034 C 0.57603 0.0684 0.37008 0.0
C2035 C 0.56934 0.06043 0.38377 0.0
C2036 C 0.64936 0.14948 0.38568 0.0
C2037 C 0.61317 0.10688 0.37792 0.0
C2038 C 0.67274 0.17106 0.38275 0.0
C2039 C 0.68442 0.17399 0.36933 0.0
C2040 C 0.63734 0.13078 0.3751 0.0
C2041 C 0.67158 0.15506 0.35903 0.0
C2042 C 0.59791 0.09145 0.36713 0.0
C2043 C 0.58489 0.0766 0.39427 0.0
N2044 N 0.64874 0.1343 0.36212 0.0
N2045 N 0.60604 0.09906 0.39113 0.0
H2046 H 0.67785 0.83505 0.1561 0.0
H2047 H 0.58439 0.92948 0.09825 0.0
H2048 H 0.68824 0.81929 0.11253 0.0
H2049 H 0.56925 0.94185 0.14175 0.0
H2050 H 0.62193 0.88832 0.10336 0.0
H2051 H 0.63742 0.87367 0.15117 0.0
C2052 C 0.67163 0.83964 0.14552 0.0
C2053 C 0.68654 0.82379 0.13474 0.0
C2054 C 0.61028 0.89993 0.11179 0.0
C2055 C 0.6402 0.86793 0.129 0.0
C2056 C 0.58893 0.92353 0.10887 0.0
C2057 C 0.57363 0.93924 0.11956 0.0
C2058 C 0.61661 0.89201 0.12553 0.0
C2059 C 0.58016 0.93022 0.13315 0.0
C2060 C 0.64845 0.8616 0.1427 0.0
C2061 C 0.67723 0.8305 0.12121 0.0
N2062 N 0.60126 0.90736 0.13574 0.0
N2063 N 0.65483 0.8521 0.11874 0.0
H2064 H 0.5838 0.573 0.59852 0.0
H2065 H 0.67951 0.665 0.65639 0.0
H2066 H 0.57066 0.55953 0.64208 0.0
H2067 H 0.69024 0.68136 0.6129 0.0
H2068 H 0.63834 0.62741 0.65135 0.0
H2069 H 0.6217 0.61395 0.60354 0.0
C2070 C 0.58882 0.57866 0.60913 0.0
C2071 C 0.57397 0.56268 0.61987 0.0
C2072 C 0.64959 0.63936 0.64291 0.0
C2073 C 0.61731 0.60965 0.62572 0.0
C2074 C 0.6732 0.66074 0.64579 0.0
C2075 C 0.68848 0.67637 0.63508 0.0
C2076 C 0.64123 0.63338 0.62919 0.0
C2077 C 0.67898 0.6702 0.62152 0.0
C2078 C 0.61037 0.60214 0.61199 0.0
C2079 C 0.58114 0.57135 0.63344 0.0
N2080 N 0.65613 0.64909 0.61897 0.0
N2081 N 0.60237 0.59407 0.63596 0.0
H2082 H 0.68613 0.31323 0.8913 0.0
H2083 H 0.56621 0.43995 0.8626 0.0
H2084 H 0.68001 0.33968 0.84863 0.0
H2085 H 0.58433 0.42689 0.90583 0.0
H2086 H 0.60389 0.39935 0.85731 0.0
H2087 H 0.64515 0.35073 0.89675 0.0
C2088 C 0.67596 0.32667 0.88305 0.0
C2089 C 0.68655 0.32327 0.86946 0.0
C2090 C 0.59958 0.40524 0.86797 0.0
C2091 C 0.63975 0.36649 0.87567 0.0
C2092 C 0.5778 0.42829 0.87102 0.0
C2093 C 0.57193 0.43681 0.88472 0.0
C2094 C 0.61564 0.39036 0.87867 0.0
C2095 C 0.58829 0.42121 0.89514 0.0
C2096 C 0.65271 0.34826 0.88619 0.0
C2097 C 0.67279 0.34174 0.85924 0.0
N2098 N 0.60938 0.39871 0.8919 0.0
N2099 N 0.65011 0.3625 0.86255 0.0
H2100 H 0.88161 0.46858 0.11622 0.0
H2101 H 0.84475 0.28911 0.12853 0.0
H2102 H 0.9546 0.39994 0.11853 0.0
H2103 H 0.78457 0.36282 0.14256 0.0
H2104 H 0.88391 0.32823 0.12209 0.0
H2105 H 0.84378 0.42879 0.12288 0.0
C2106 C 0.88959 0.44502 0.11799 0.0
C2107 C 0.92122 0.43742 0.11676 0.0
C2108 C 0.8622 0.33575 0.12667 0.0
C2109 C 0.87815 0.39187 0.12445 0.0
C2110 C 0.83993 0.31351 0.1303 0.0
C2111 C 0.81159 0.32279 0.13617 0.0
C2112 C 0.85573 0.36747 0.12866 0.0
C2113 C 0.80632 0.35467 0.13827 0.0
C2114 C 0.86807 0.42241 0.12191 0.0
C2115 C 0.93041 0.40667 0.11942 0.0
N2116 N 0.82807 0.37588 0.13441 0.0
N2117 N 0.90894 0.3849 0.12306 0.0
H2118 H 0.82015 0.66152 0.34776 0.0
H2119 H 0.90959 0.5674 0.40659 0.0
H2120 H 0.81159 0.68335 0.39086 0.0
H2121 H 0.93551 0.56327 0.36381 0.0
H2122 H 0.87146 0.60795 0.40104 0.0
H2123 H 0.86055 0.62333 0.35338 0.0
C2124 C 0.82682 0.6583 0.3584 0.0
C2125 C 0.81251 0.67569 0.36885 0.0
C2126 C 0.88564 0.5983 0.39288 0.0
C2127 C 0.85859 0.63197 0.37538 0.0
C2128 C 0.90727 0.57508 0.39604 0.0
C2129 C 0.9258 0.56199 0.38567 0.0
C2130 C 0.8822 0.60823 0.3792 0.0
C2131 C 0.92202 0.57296 0.37216 0.0
C2132 C 0.84996 0.63663 0.3616 0.0
C2133 C 0.82223 0.67076 0.38246 0.0
N2134 N 0.90052 0.59526 0.36931 0.0
N2135 N 0.84449 0.64922 0.38534 0.0
H2136 H 0.31999 0.3352 0.34759 0.0
H2137 H 0.40877 0.42953 0.40668 0.0
H2138 H 0.30651 0.3185 0.3909 0.0
H2139 H 0.43404 0.43486 0.36385 0.0
H2140 H 0.37071 0.38917 0.40105 0.0
H2141 H 0.36142 0.37229 0.35321 0.0
C2142 C 0.3258 0.33927 0.35827 0.0
C2143 C 0.30974 0.32367 0.36877 0.0
C2144 C 0.38473 0.39901 0.39288 0.0
C2145 C 0.35706 0.36608 0.37531 0.0
C2146 C 0.40635 0.42215 0.3961 0.0
C2147 C 0.4246 0.43565 0.38573 0.0
C2148 C 0.38103 0.38945 0.37916 0.0
C2149 C 0.42074 0.42491 0.3722 0.0
C2150 C 0.34952 0.36032 0.36148 0.0
C2151 C 0.31844 0.32963 0.38245 0.0
N2152 N 0.39923 0.40263 0.36929 0.0
N2153 N 0.34133 0.35048 0.38531 0.0
H2154 H 0.43671 0.56555 0.14016 0.0
H2155 H 0.30675 0.68064 0.11029 0.0
H2156 H 0.41075 0.56922 0.09736 0.0
H2157 H 0.32164 0.66582 0.15365 0.0
H2158 H 0.3486 0.64401 0.10526 0.0
H2159 H 0.39862 0.60625 0.14512 0.0
C2160 C 0.42327 0.57514 0.13177 0.0
C2161 C 0.42694 0.56387 0.11831 0.0
C2162 C 0.34282 0.64884 0.11588 0.0
C2163 C 0.38298 0.61036 0.12396 0.0
C2164 C 0.31904 0.66999 0.11878 0.0
C2165 C 0.31062 0.67638 0.13244 0.0
C2166 C 0.3585 0.63399 0.12671 0.0
C2167 C 0.32714 0.66136 0.14298 0.0
C2168 C 0.40132 0.59823 0.13463 0.0
C2169 C 0.40845 0.57692 0.1079 0.0
N2170 N 0.35026 0.64087 0.1399 0.0
N2171 N 0.38729 0.59944 0.11094 0.0
H2172 H 0.22158 0.63702 0.86756 0.0
H2173 H 0.04239 0.595 0.87772 0.0
H2174 H 0.15029 0.70761 0.86673 0.0
H2175 H 0.11773 0.53711 0.89197 0.0
H2176 H 0.08041 0.63552 0.8716 0.0
H2177 H 0.18265 0.59868 0.87434 0.0
C2178 C 0.19763 0.64438 0.86872 0.0
C2179 C 0.18907 0.67547 0.8665 0.0
C2180 C 0.08849 0.61402 0.87617 0.0
C2181 C 0.1443 0.63169 0.87433 0.0
C2182 C 0.06688 0.59092 0.8796 0.0
C2183 C 0.07691 0.5628 0.88545 0.0
C2184 C 0.12035 0.60861 0.87838 0.0
C2185 C 0.10889 0.55861 0.88771 0.0
C2186 C 0.17545 0.62255 0.8727 0.0
C2187 C 0.15779 0.68387 0.8684 0.0
N2188 N 0.12944 0.58114 0.88409 0.0
N2189 N 0.13641 0.66202 0.87211 0.0
H2190 H 0.19066 0.31852 0.61213 0.0
H2191 H 0.06749 0.44104 0.64185 0.0
H2192 H 0.17884 0.33734 0.65539 0.0
H2193 H 0.0853 0.42835 0.59856 0.0
H2194 H 0.10514 0.40022 0.64697 0.0
H2195 H 0.14927 0.35557 0.60701 0.0
C2196 C 0.17916 0.33015 0.62059 0.0
C2197 C 0.18834 0.32473 0.63424 0.0
C2198 C 0.10075 0.40626 0.63635 0.0
C2199 C 0.14099 0.36766 0.62839 0.0
C2200 C 0.07902 0.42947 0.63339 0.0
C2201 C 0.07314 0.43823 0.61972 0.0
C2202 C 0.11676 0.39153 0.62558 0.0
C2203 C 0.08932 0.42263 0.60924 0.0
C2204 C 0.15563 0.35153 0.61763 0.0
C2205 C 0.17281 0.34101 0.64472 0.0
N2206 N 0.11039 0.40009 0.61238 0.0
N2207 N 0.14995 0.36174 0.64158 0.0
H2208 H 0.21119 0.22241 0.21513 0.0
H2209 H 0.28556 0.2713 0.28773 0.0
H2210 H 0.30795 0.24606 0.22079 0.0
H2211 H 0.18849 0.24885 0.28208 0.0
H2212 H 0.29427 0.262 0.2632 0.0
H2213 H 0.20254 0.23075 0.23975 0.0
C2214 C 0.23062 0.2292 0.22155 0.0
C2215 C 0.26025 0.23384 0.21583 0.0
C2216 C 0.27107 0.25904 0.26734 0.0
C2217 C 0.25054 0.24364 0.24401 0.0
C2218 C 0.26607 0.26453 0.28134 0.0
C2219 C 0.23631 0.26064 0.28703 0.0
C2220 C 0.24612 0.2497 0.25894 0.0
C2221 C 0.21197 0.25156 0.27823 0.0
C2222 C 0.22566 0.23414 0.23559 0.0
C2223 C 0.28456 0.24283 0.22466 0.0
N2224 N 0.21741 0.2464 0.26467 0.0
N2225 N 0.27915 0.24748 0.23826 0.0
H2226 H 0.02866 0.01886 0.54061 0.0
H2227 H 0.98208 0.96529 0.46501 0.0
H2228 H 0.94136 0.97386 0.53164 0.0
H2229 H 0.05009 0.03713 0.47302 0.0
H2230 H 0.96914 0.96465 0.48947 0.0
H2231 H 0.03894 0.02308 0.51593 0.0
C2232 C 0.01147 0.0103 0.5334 0.0
C2233 C 0.98406 0.99617 0.53812 0.0
C2234 C 0.98689 0.98053 0.48583 0.0
C2235 C 0.99597 0.00016 0.50991 0.0
C2236 C 0.99432 0.98097 0.47184 0.0
C2237 C 0.01732 0.00129 0.46681 0.0
C2238 C 0.00276 0.00029 0.49494 0.0
C2239 C 0.03267 0.02057 0.47634 0.0
C2240 C 0.01736 0.01261 0.51934 0.0
C2241 C 0.96259 0.98524 0.52838 0.0
N2242 N 0.02518 0.01952 0.4899 0.0
N2243 N 0.96916 0.98713 0.51472 0.0
H2244 H 0.21804 0.70178 0.78234 0.0
H2245 H 0.2805 0.79067 0.71614 0.0
H2246 H 0.27897 0.78118 0.78558 0.0
H2247 H 0.19222 0.74256 0.71704 0.0
H2248 H 0.28448 0.78377 0.74112 0.0
H2249 H 0.21262 0.71192 0.75764 0.0
C2250 C 0.23016 0.72139 0.77784 0.0
C2251 C 0.24881 0.74078 0.78598 0.0
C2252 C 0.26429 0.77477 0.73577 0.0
C2253 C 0.24317 0.75224 0.7578 0.0
C2254 C 0.26194 0.77877 0.72153 0.0
C2255 C 0.23627 0.76671 0.71434 0.0
C2256 C 0.241 0.75833 0.74284 0.0
C2257 C 0.21301 0.75137 0.72195 0.0
C2258 C 0.22702 0.72723 0.76379 0.0
C2259 C 0.26406 0.76591 0.77966 0.0
N2260 N 0.21609 0.74739 0.73572 0.0
N2261 N 0.26114 0.77079 0.76591 0.0
H2262 H 0.54029 0.99806 0.96427 0.0
H2263 H 0.46365 0.99712 0.03935 0.0
H2264 H 0.44214 0.98484 0.97157 0.0
H2265 H 0.56137 0.01311 0.03195 0.0
H2266 H 0.45555 0.99132 0.01463 0.0
H2267 H 0.5485 0.00331 0.98901 0.0
C2268 C 0.52042 0.99636 0.97108 0.0
C2269 C 0.49047 0.9909 0.96581 0.0
C2270 C 0.4788 0.99596 0.0184 0.0
C2271 C 0.49975 0.99684 0.99423 0.0
C2272 C 0.48346 0.99928 0.03253 0.0
C2273 C 0.51324 0.00574 0.03777 0.0
C2274 C 0.50408 0.99914 0.00937 0.0
C2275 C 0.53807 0.00784 0.02843 0.0
C2276 C 0.52514 0.99937 0.98522 0.0
C2277 C 0.46557 0.98933 0.97514 0.0
N2278 N 0.5329 0.00471 0.01469 0.0
N2279 N 0.47079 0.99213 0.98888 0.0
H2280 H 0.26119 0.81414 0.28073 0.0
H2281 H 0.23767 0.6901 0.21997 0.0
H2282 H 0.25252 0.71517 0.28723 0.0
H2283 H 0.24494 0.7891 0.2132 0.0
H2284 H 0.24383 0.69892 0.24462 0.0
H2285 H 0.25423 0.80575 0.25604 0.0
C2286 C 0.2574 0.79069 0.27701 0.0
C2287 C 0.25755 0.76532 0.2861 0.0
C2288 C 0.24418 0.71873 0.23775 0.0
C2289 C 0.25014 0.75547 0.25778 0.0
C2290 C 0.24098 0.71367 0.22363 0.0
C2291 C 0.24082 0.73888 0.21445 0.0
C2292 C 0.24727 0.74924 0.24278 0.0
C2293 C 0.24457 0.76897 0.21989 0.0
C2294 C 0.25373 0.78588 0.26288 0.0
C2295 C 0.25301 0.7354 0.28061 0.0
N2296 N 0.2476 0.77331 0.23367 0.0
N2297 N 0.24961 0.73132 0.26684 0.0
H2298 H 0.43659 0.01613 0.53249 0.0
H2299 H 0.55844 0.98511 0.47151 0.0
H2300 H 0.5341 0.99723 0.53908 0.0
H2301 H 0.46056 0.00196 0.46494 0.0
H2302 H 0.55024 0.99081 0.49626 0.0
H2303 H 0.44472 0.01036 0.50774 0.0
C2304 C 0.45962 0.01031 0.52877 0.0
C2305 C 0.4847 0.00722 0.53792 0.0
C2306 C 0.53057 0.99338 0.4894 0.0
C2307 C 0.49434 0.00124 0.50952 0.0
C2308 C 0.53531 0.99045 0.47524 0.0
C2309 C 0.51015 0.993 0.4661 0.0
C2310 C 0.50045 0.99895 0.4945 0.0
C2311 C 0.48058 0.99943 0.4716 0.0
C2312 C 0.46433 0.00735 0.51461 0.0
C2313 C 0.51414 0.00022 0.53242 0.0
N2314 N 0.47654 0.00209 0.48541 0.0
N2315 N 0.51816 0.99758 0.51861 0.0
H2316 H 0.20973 0.28193 0.71632 0.0
H2317 H 0.28457 0.23516 0.78907 0.0
H2318 H 0.30576 0.25537 0.72185 0.0
H2319 H 0.18647 0.25231 0.78315 0.0
H2320 H 0.29313 0.24499 0.76462 0.0
H2321 H 0.20119 0.27461 0.74105 0.0
C2322 C 0.22903 0.27472 0.72274 0.0
C2323 C 0.2584 0.26891 0.71697 0.0
C2324 C 0.26973 0.24667 0.76868 0.0
C2325 C 0.24883 0.2604 0.74524 0.0
C2326 C 0.2648 0.24088 0.78264 0.0
C2327 C 0.23476 0.24295 0.78825 0.0
C2328 C 0.24446 0.25462 0.76019 0.0
C2329 C 0.21013 0.25093 0.77939 0.0
C2330 C 0.22412 0.27038 0.73684 0.0
C2331 C 0.28256 0.25951 0.72578 0.0
N2332 N 0.21552 0.25644 0.76584 0.0
N2333 N 0.27723 0.25551 0.73943 0.0
H2334 H 0.97305 0.97396 0.03667 0.0
H2335 H 0.00954 0.06728 0.96827 0.0
H2336 H 0.05062 0.03725 0.03372 0.0
H2337 H 0.97015 0.97472 0.96729 0.0
H2338 H 0.01778 0.06183 0.99289 0.0
H2339 H 0.96425 0.97958 0.01189 0.0
C2340 C 0.98801 0.98931 0.03081 0.0
C2341 C 0.01251 0.00532 0.03723 0.0
C2342 C 0.00742 0.04272 0.98724 0.0
C2343 C 0.00251 0.01186 0.00897 0.0
C2344 C 0.00289 0.04562 0.97311 0.0
C2345 C 0.98956 0.02118 0.96546 0.0
C2346 C 0.99794 0.01552 0.99396 0.0
C2347 C 0.98029 0.99432 0.97264 0.0
C2348 C 0.98312 0.99228 0.01669 0.0
C2349 C 0.03151 0.02452 0.02914 0.0
N2350 N 0.98457 0.99226 0.98648 0.0
N2351 N 0.02597 0.02746 0.01543 0.0
H2352 H 0.76573 0.68749 0.72224 0.0
H2353 H 0.73708 0.81028 0.7831 0.0
H2354 H 0.74791 0.78516 0.71552 0.0
H2355 H 0.7538 0.71242 0.78979 0.0
H2356 H 0.74224 0.8018 0.75834 0.0
H2357 H 0.76066 0.69598 0.74699 0.0
C2358 C 0.76029 0.71064 0.72594 0.0
C2359 C 0.7573 0.73565 0.71675 0.0
C2360 C 0.74492 0.78219 0.76523 0.0
C2361 C 0.75212 0.7457 0.74515 0.0
C2362 C 0.7423 0.7871 0.77939 0.0
C2363 C 0.74496 0.76203 0.78856 0.0
C2364 C 0.75026 0.75199 0.76017 0.0
C2365 C 0.7512 0.73238 0.7831 0.0
C2366 C 0.75773 0.71555 0.7401 0.0
C2367 C 0.7508 0.76524 0.72221 0.0
N2368 N 0.75353 0.72818 0.76929 0.0
N2369 N 0.74854 0.76945 0.73602 0.0
H2370 H 0.766 0.21668 0.21485 0.0
H2371 H 0.71317 0.26494 0.29034 0.0
H2372 H 0.72123 0.30431 0.22348 0.0
H2373 H 0.78647 0.19834 0.28253 0.0
H2374 H 0.71169 0.27686 0.26578 0.0
H2375 H 0.77023 0.20693 0.23958 0.0
C2376 C 0.75741 0.23402 0.222 0.0
C2377 C 0.74342 0.2614 0.21717 0.0
C2378 C 0.72806 0.25963 0.2695 0.0
C2379 C 0.74746 0.25012 0.24543 0.0
C2380 C 0.72899 0.2528 0.28354 0.0
C2381 C 0.74999 0.2305 0.28867 0.0
C2382 C 0.74797 0.24384 0.26043 0.0
C2383 C 0.76941 0.2152 0.27917 0.0
C2384 C 0.75976 0.22845 0.23608 0.0
C2385 C 0.7325 0.28309 0.22682 0.0
N2386 N 0.76785 0.22209 0.26556 0.0
N2387 N 0.73444 0.27684 0.24051 0.0
H2388 H 0.68978 0.25982 0.71928 0.0
H2389 H 0.7782 0.2199 0.78884 0.0
H2390 H 0.77816 0.21182 0.71926 0.0
H2391 H 0.71812 0.29969 0.78447 0.0
H2392 H 0.77294 0.20964 0.76412 0.0
H2393 H 0.69459 0.26769 0.74391 0.0
C2394 C 0.71045 0.25119 0.72437 0.0
C2395 C 0.73403 0.23576 0.71697 0.0
C2396 C 0.76087 0.22931 0.7686 0.0
C2397 C 0.73892 0.24384 0.74551 0.0
C2398 C 0.76362 0.23504 0.78269 0.0
C2399 C 0.74846 0.26064 0.78869 0.0
C2400 C 0.74237 0.24899 0.76051 0.0
C2401 C 0.73025 0.27979 0.78024 0.0
C2402 C 0.71298 0.25553 0.73851 0.0
C2403 C 0.75943 0.22389 0.72444 0.0
N2404 N 0.72756 0.27347 0.76659 0.0
N2405 N 0.76121 0.22818 0.7383 0.0
H2406 H 0.72 0.78814 0.21868 0.0
H2407 H 0.78156 0.69669 0.28442 0.0
H2408 H 0.80729 0.73819 0.21915 0.0
H2409 H 0.72269 0.77755 0.28814 0.0
H2410 H 0.78661 0.707 0.25972 0.0
H2411 H 0.7162 0.78078 0.24364 0.0
C2412 C 0.73838 0.77574 0.22396 0.0
C2413 C 0.76372 0.76332 0.21664 0.0
C2414 C 0.77273 0.72258 0.26597 0.0
C2415 C 0.75916 0.75438 0.24515 0.0
C2416 C 0.7698 0.71665 0.28003 0.0
C2417 C 0.75187 0.73642 0.28831 0.0
C2418 C 0.75709 0.74807 0.26011 0.0
C2419 C 0.73706 0.76198 0.28211 0.0
C2420 C 0.73612 0.77147 0.2382 0.0
C2421 C 0.78674 0.74731 0.22415 0.0
N2422 N 0.73977 0.76694 0.26835 0.0
N2423 N 0.78374 0.74308 0.23791 0.0
H2424 H 0.52923 0.47203 0.03813 0.0
H2425 H 0.4929 0.56483 0.96948 0.0
H2426 H 0.45089 0.5342 0.03446 0.0
H2427 H 0.53537 0.47364 0.9686 0.0
H2428 H 0.48449 0.55916 0.99405 0.0
H2429 H 0.53916 0.47788 0.01342 0.0
C2430 C 0.51434 0.48717 0.03213 0.0
C2431 C 0.48927 0.50278 0.03832 0.0
C2432 C 0.49556 0.54038 0.98846 0.0
C2433 C 0.50055 0.50958 0.01016 0.0
C2434 C 0.5002 0.5434 0.97435 0.0
C2435 C 0.51431 0.51935 0.96673 0.0
C2436 C 0.50569 0.51345 0.9952 0.0
C2437 C 0.52447 0.49285 0.97394 0.0
C2438 C 0.51987 0.49027 0.01805 0.0
C2439 C 0.4704 0.52174 0.03007 0.0
N2440 N 0.52 0.49063 0.98778 0.0
N2441 N 0.47656 0.52479 0.01642 0.0
H2442 H 0.02581 0.45794 0.53784 0.0
H2443 H 0.97757 0.53152 0.46505 0.0
H2444 H 0.99836 0.5537 0.53221 0.0
H2445 H 0.99848 0.43415 0.47093 0.0
H2446 H 0.98618 0.54026 0.48959 0.0
H2447 H 0.01801 0.44903 0.51318 0.0
C2448 C 0.01826 0.4771 0.53142 0.0
C2449 C 0.01242 0.50651 0.53714 0.0
C2450 C 0.98892 0.51697 0.4855 0.0
C2451 C 0.00333 0.49651 0.50894 0.0
C2452 C 0.98381 0.51194 0.47149 0.0
C2453 C 0.98742 0.48209 0.46584 0.0
C2454 C 0.99769 0.49198 0.49399 0.0
C2455 C 0.99595 0.45769 0.47472 0.0
C2456 C 0.01365 0.47198 0.51736 0.0
C2457 C 0.00254 0.53047 0.52832 0.0
N2458 N 0.00081 0.46318 0.48832 0.0
N2459 N 0.9983 0.52494 0.51471 0.0
H2460 H 0.96108 0.49722 0.96446 0.0
H2461 H 0.03932 0.51252 0.03891 0.0
H2462 H 0.05996 0.49042 0.9717 0.0
H2463 H 0.94012 0.51486 0.03206 0.0
H2464 H 0.04733 0.50528 0.01427 0.0
H2465 H 0.95296 0.50488 0.98909 0.0
C2466 C 0.9811 0.49736 0.97121 0.0
C2467 C 0.01126 0.49312 0.96595 0.0
C2468 C 0.02379 0.5073 0.01814 0.0
C2469 C 0.00211 0.50201 0.99422 0.0
C2470 C 0.0192 0.51152 0.03222 0.0
C2471 C 0.98899 0.51437 0.03759 0.0
C2472 C 0.998 0.50599 0.00929 0.0
C2473 C 0.9638 0.51243 0.02843 0.0
C2474 C 0.97645 0.50181 0.98529 0.0
C2475 C 0.03633 0.494 0.97522 0.0
N2476 N 0.96888 0.50849 0.01474 0.0
N2477 N 0.03118 0.49824 0.98888 0.0
H2478 H 0.44612 0.53791 0.47251 0.0
H2479 H 0.55848 0.47619 0.53195 0.0
H2480 H 0.51695 0.46829 0.46542 0.0
H2481 H 0.46906 0.51801 0.53991 0.0
H2482 H 0.54823 0.47993 0.50717 0.0
H2483 H 0.45786 0.53621 0.49696 0.0
C2484 C 0.46384 0.52189 0.47604 0.0
C2485 C 0.48036 0.50305 0.46673 0.0
C2486 C 0.53098 0.48848 0.51435 0.0
C2487 C 0.49468 0.50193 0.49488 0.0
C2488 C 0.53697 0.4867 0.52846 0.0
C2489 C 0.51459 0.49688 0.53796 0.0
C2490 C 0.50258 0.5009 0.50973 0.0
C2491 C 0.48686 0.50982 0.53291 0.0
C2492 C 0.47075 0.52123 0.49005 0.0
C2493 C 0.50379 0.48358 0.47206 0.0
N2494 N 0.48165 0.51147 0.51915 0.0
N2495 N 0.51032 0.48363 0.48576 0.0
loop_
_geom_bond_atom_site_label_1
_geom_bond_atom_site_label_2
_geom_bond_distance
_geom_bond_site_symmetry_2
_ccdc_geom_bond_type
Co0 N4 2.148 . S
Co0 N10 2.128 . S
Co0 N20 2.194 . S
Co0 O25 2.351 . S
Co0 O26 2.155 . S
Co0 O27 2.096 . S
C1 N4 1.301 . S
C1 N5 1.328 . S
C1 H6 0.930 . S
C2 C3 1.333 . S
C2 N4 1.317 . S
C2 H7 0.930 . S
C3 C2 1.333 . S
C3 N5 1.350 . S
C3 H29 0.931 . S
N4 Co0 2.148 . S
N4 C1 1.301 . S
N4 C2 1.317 . S
N5 C1 1.328 . S
N5 C3 1.350 . S
H6 C1 0.930 . S
H7 C2 0.930 . S
C8 O9 1.224 . S
C8 O27 1.247 . S
O9 C8 1.224 . S
N10 Co0 2.128 . S
N10 C11 1.355 . S
N10 C13 1.311 . S
C11 N10 1.355 . S
C11 C12 1.363 . S
C11 H23 0.929 . S
C12 C11 1.363 . S
C12 N14 1.375 . S
C12 H30 0.931 . S
C13 N10 1.311 . S
C13 N14 1.347 . S
C13 H24 0.929 . S
N14 C12 1.375 . S
N14 C13 1.347 . S
C15 C18 1.365 . S
C15 N20 1.328 . S
C15 H21 0.929 . S
C16 C17 1.362 . S
C16 C19 1.378 . S
C16 H31 0.929 . S
C17 C16 1.362 . S
C17 C18 1.366 . S
C18 C15 1.365 . S
C18 C17 1.366 . S
C18 H32 0.930 . S
C19 C16 1.378 . S
C19 N20 1.315 . S
C19 H22 0.930 . S
N20 Co0 2.194 . S
N20 C15 1.328 . S
N20 C19 1.315 . S
H21 C15 0.929 . S
H22 C19 0.930 . S
H23 C11 0.929 . S
H24 C13 0.929 . S
O25 Co0 2.351 . S
O25 C28 1.244 . S
O26 Co0 2.155 . S
O26 C28 1.240 . S
O27 Co0 2.096 . S
O27 C8 1.247 . S
C28 O25 1.244 . S
C28 O26 1.240 . S
H29 C3 0.931 . S
H30 C12 0.931 . S
H31 C16 0.929 . S
H32 C18 0.930 . S
Co33 N37 2.148 . S
Co33 N43 2.128 . S
Co33 N53 2.194 . S
Co33 O58 2.351 . S
Co33 O59 2.155 . S
Co33 O60 2.096 1_455 S
C34 N37 1.301 . S
C34 N38 1.328 1_545 S
C34 H39 0.930 . S
C35 C36 1.333 1_545 S
C35 N37 1.317 . S
C35 H40 0.930 1_455 S
C36 C35 1.333 1_565 S
C36 N38 1.350 . S
C36 H62 0.931 . S
N37 Co33 2.148 . S
N37 C34 1.301 . S
N37 C35 1.317 . S
N38 C34 1.328 1_565 S
N38 C36 1.350 . S
H39 C34 0.930 . S
H40 C35 0.930 1_655 S
C41 O42 1.224 . S
C41 O60 1.247 . S
O42 C41 1.224 . S
N43 Co33 2.128 . S
N43 C44 1.355 . S
N43 C46 1.311 1_455 S
C44 N43 1.355 . S
C44 C45 1.363 . S
C44 H56 0.929 . S
C45 C44 1.363 . S
C45 N47 1.375 1_455 S
C45 H63 0.931 . S
C46 N43 1.311 1_655 S
C46 N47 1.347 . S
C46 H57 0.929 . S
N47 C45 1.375 1_655 S
N47 C46 1.347 . S
C48 C51 1.365 . S
C48 N53 1.328 . S
C48 H54 0.929 . S
C49 C50 1.332 1_655 S
C49 C52 1.375 1_655 S
C49 H64 0.962 . S
C50 C49 1.332 1_455 S
C50 C51 1.366 . S
C51 C48 1.365 . S
C51 C50 1.366 . S
C51 H65 0.930 . S
C52 C49 1.375 1_455 S
C52 N53 1.315 . S
C52 H55 0.930 1_455 S
N53 Co33 2.194 . S
N53 C48 1.328 . S
N53 C52 1.315 . S
H54 C48 0.929 . S
H55 C52 0.930 1_655 S
H56 C44 0.929 . S
H57 C46 0.929 . S
O58 Co33 2.351 . S
O58 C61 1.244 . S
O59 Co33 2.155 . S
O59 C61 1.240 . S
O60 Co33 2.096 1_655 S
O60 C41 1.247 . S
C61 O58 1.244 . S
C61 O59 1.240 . S
H62 C36 0.931 . S
H63 C45 0.931 . S
H64 C49 0.962 . S
H65 C51 0.930 . S
Co66 N70 2.148 . S
Co66 N76 2.128 . S
Co66 N86 2.194 . S
Co66 O91 2.351 . S
Co66 O92 2.155 . S
Co66 O93 2.096 . S
C67 N70 1.301 . S
C67 N71 1.328 . S
C67 H72 0.930 . S
C68 C69 1.333 . S
C68 N70 1.317 . S
C68 H73 0.930 . S
C69 C68 1.333 . S
C69 N71 1.350 . S
C69 H95 0.931 . S
N70 Co66 2.148 . S
N70 C67 1.301 . S
N70 C68 1.317 . S
N71 C67 1.328 . S
N71 C69 1.350 . S
H72 C67 0.930 . S
H73 C68 0.930 . S
C74 O75 1.224 . S
C74 O93 1.247 . S
O75 C74 1.224 . S
N76 Co66 2.128 . S
N76 C77 1.355 . S
N76 C79 1.311 . S
C77 N76 1.355 . S
C77 C78 1.363 . S
C77 H89 0.929 . S
C78 C77 1.363 . S
C78 N80 1.375 . S
C78 H96 0.931 . S
C79 N76 1.311 . S
C79 N80 1.347 . S
C79 H90 0.929 . S
N80 C78 1.375 . S
N80 C79 1.347 . S
C81 C84 1.365 . S
C81 N86 1.328 . S
C81 H87 0.929 . S
C82 C83 1.362 . S
C82 C85 1.378 . S
C82 H97 0.929 . S
C83 C82 1.362 . S
C83 C84 1.366 . S
C84 C81 1.365 . S
C84 C83 1.366 . S
C84 H98 0.930 . S
C85 C82 1.378 . S
C85 N86 1.315 . S
C85 H88 0.930 . S
N86 Co66 2.194 . S
N86 C81 1.328 . S
N86 C85 1.315 . S
H87 C81 0.929 . S
H88 C85 0.930 . S
H89 C77 0.929 . S
H90 C79 0.929 . S
O91 Co66 2.351 . S
O91 C94 1.244 . S
O92 Co66 2.155 . S
O92 C94 1.240 . S
O93 Co66 2.096 . S
O93 C74 1.247 . S
C94 O91 1.244 . S
C94 O92 1.240 . S
H95 C69 0.931 . S
H96 C78 0.931 . S
H97 C82 0.929 . S
H98 C84 0.930 . S
Co99 N103 2.148 . S
Co99 N109 2.128 . S
Co99 N119 2.194 . S
Co99 O124 2.351 . S
Co99 O125 2.155 . S
Co99 O126 2.096 . S
C100 N103 1.301 . S
C100 N104 1.328 1_565 S
C100 H105 0.930 . S
C101 C102 1.333 1_565 S
C101 N103 1.317 . S
C101 H106 0.930 . S
C102 C101 1.333 1_545 S
C102 N104 1.350 . S
C102 H128 0.931 . S
N103 Co99 2.148 . S
N103 C100 1.301 . S
N103 C101 1.317 . S
N104 C100 1.328 1_545 S
N104 C102 1.350 . S
H105 C100 0.930 . S
H106 C101 0.930 . S
C107 O108 1.224 . S
C107 O126 1.247 . S
O108 C107 1.224 . S
N109 Co99 2.128 . S
N109 C110 1.355 . S
N109 C112 1.311 . S
C110 N109 1.355 . S
C110 C111 1.363 . S
C110 H122 0.929 . S
C111 C110 1.363 . S
C111 N113 1.375 . S
C111 H129 0.931 . S
C112 N109 1.311 . S
C112 N113 1.347 . S
C112 H123 0.929 . S
N113 C111 1.375 . S
N113 C112 1.347 . S
C114 C117 1.365 . S
C114 N119 1.328 . S
C114 H120 0.929 . S
C115 C116 1.362 . S
C115 C118 1.378 . S
C115 H130 0.929 . S
C116 C115 1.362 . S
C116 C117 1.366 . S
C117 C114 1.365 . S
C117 C116 1.366 . S
C117 H131 0.930 . S
C118 C115 1.378 . S
C118 N119 1.315 . S
C118 H121 0.930 . S
N119 Co99 2.194 . S
N119 C114 1.328 . S
N119 C118 1.315 . S
H120 C114 0.929 . S
H121 C118 0.930 . S
H122 C110 0.929 . S
H123 C112 0.929 . S
O124 Co99 2.351 . S
O124 C127 1.244 . S
O125 Co99 2.155 . S
O125 C127 1.240 . S
O126 Co99 2.096 . S
O126 C107 1.247 . S
C127 O124 1.244 . S
C127 O125 1.240 . S
H128 C102 0.931 . S
H129 C111 0.931 . S
H130 C115 0.929 . S
H131 C117 0.930 . S
Co132 N136 2.148 . S
Co132 N142 2.128 . S
Co132 N152 2.194 . S
Co132 O157 2.351 . S
Co132 O158 2.155 . S
Co132 O159 2.096 . S
C133 N136 1.301 . S
C133 N137 1.328 . S
C133 H138 0.930 . S
C134 C135 1.333 . S
C134 N136 1.317 . S
C134 H139 0.930 . S
C135 C134 1.333 . S
C135 N137 1.350 . S
C135 H161 0.931 . S
N136 Co132 2.148 . S
N136 C133 1.301 . S
N136 C134 1.317 . S
N137 C133 1.328 . S
N137 C135 1.350 . S
H138 C133 0.930 . S
H139 C134 0.930 . S
C140 O141 1.224 . S
C140 O159 1.247 . S
O141 C140 1.224 . S
N142 Co132 2.128 . S
N142 C143 1.355 . S
N142 C145 1.311 . S
C143 N142 1.355 . S
C143 C144 1.363 . S
C143 H155 0.929 . S
C144 C143 1.363 . S
C144 N146 1.375 . S
C144 H162 0.931 . S
C145 N142 1.311 . S
C145 N146 1.347 . S
C145 H156 0.929 . S
N146 C144 1.375 . S
N146 C145 1.347 . S
C147 C150 1.365 . S
C147 N152 1.328 . S
C147 H153 0.929 . S
C148 C149 1.362 . S
C148 C151 1.378 . S
C148 H163 0.929 . S
C149 C148 1.362 . S
C149 C150 1.366 . S
C150 C147 1.365 . S
C150 C149 1.366 . S
C150 H164 0.930 . S
C151 C148 1.378 . S
C151 N152 1.315 . S
C151 H154 0.930 . S
N152 Co132 2.194 . S
N152 C147 1.328 . S
N152 C151 1.315 . S
H153 C147 0.929 . S
H154 C151 0.930 . S
H155 C143 0.929 . S
H156 C145 0.929 . S
O157 Co132 2.351 . S
O157 C160 1.244 . S
O158 Co132 2.155 . S
O158 C160 1.240 . S
O159 Co132 2.096 . S
O159 C140 1.247 . S
C160 O157 1.244 . S
C160 O158 1.240 . S
H161 C135 0.931 . S
H162 C144 0.931 . S
H163 C148 0.929 . S
H164 C150 0.930 . S
Co165 N169 2.148 . S
Co165 N175 2.128 . S
Co165 N185 2.194 . S
Co165 O190 2.351 . S
Co165 O191 2.155 . S
Co165 O192 2.096 . S
C166 N169 1.301 . S
C166 N170 1.328 1_545 S
C166 H171 0.930 . S
C167 C168 1.333 1_545 S
C167 N169 1.317 . S
C167 H172 0.930 . S
C168 C167 1.333 1_565 S
C168 N170 1.350 . S
C168 H194 0.931 . S
N169 Co165 2.148 . S
N169 C166 1.301 . S
N169 C167 1.317 . S
N170 C166 1.328 1_565 S
N170 C168 1.350 . S
H171 C166 0.930 . S
H172 C167 0.930 . S
C173 O174 1.224 . S
C173 O192 1.247 . S
O174 C173 1.224 . S
N175 Co165 2.128 . S
N175 C176 1.355 . S
N175 C178 1.311 . S
C176 N175 1.355 . S
C176 C177 1.363 . S
C176 H188 0.929 . S
C177 C176 1.363 . S
C177 N179 1.375 . S
C177 H195 0.931 . S
C178 N175 1.311 . S
C178 N179 1.347 . S
C178 H189 0.929 . S
N179 C177 1.375 . S
N179 C178 1.347 . S
C180 C183 1.365 . S
C180 N185 1.328 . S
C180 H186 0.929 . S
C181 C182 1.362 . S
C181 C184 1.378 . S
C181 H196 0.929 . S
C182 C181 1.362 . S
C182 C183 1.366 . S
C183 C180 1.365 . S
C183 C182 1.366 . S
C183 H197 0.930 . S
C184 C181 1.378 . S
C184 N185 1.315 . S
C184 H187 0.930 . S
N185 Co165 2.194 . S
N185 C180 1.328 . S
N185 C184 1.315 . S
H186 C180 0.929 . S
H187 C184 0.930 . S
H188 C176 0.929 . S
H189 C178 0.929 . S
O190 Co165 2.351 . S
O190 C193 1.244 . S
O191 Co165 2.155 . S
O191 C193 1.240 . S
O192 Co165 2.096 . S
O192 C173 1.247 . S
C193 O190 1.244 . S
C193 O191 1.240 . S
H194 C168 0.931 . S
H195 C177 0.931 . S
H196 C181 0.929 . S
H197 C183 0.930 . S
Co198 N202 2.148 . S
Co198 N208 2.128 . S
Co198 N218 2.194 . S
Co198 O223 2.351 . S
Co198 O224 2.155 . S
Co198 O225 2.096 . S
C199 N202 1.301 . S
C199 N203 1.328 . S
C199 H204 0.930 . S
C200 C201 1.333 . S
C200 N202 1.317 . S
C200 H205 0.930 . S
C201 C200 1.333 . S
C201 N203 1.350 . S
C201 H227 0.931 . S
N202 Co198 2.148 . S
N202 C199 1.301 . S
N202 C200 1.317 . S
N203 C199 1.328 . S
N203 C201 1.350 . S
H204 C199 0.930 . S
H205 C200 0.930 . S
C206 O207 1.224 . S
C206 O225 1.247 . S
O207 C206 1.224 . S
N208 Co198 2.128 . S
N208 C209 1.355 . S
N208 C211 1.311 . S
C209 N208 1.355 . S
C209 C210 1.363 . S
C209 H221 0.929 . S
C210 C209 1.363 . S
C210 N212 1.375 . S
C210 H228 0.931 . S
C211 N208 1.311 . S
C211 N212 1.347 . S
C211 H222 0.929 . S
N212 C210 1.375 . S
N212 C211 1.347 . S
C213 C216 1.365 . S
C213 N218 1.328 . S
C213 H219 0.929 . S
C214 C215 1.362 . S
C214 C217 1.378 . S
C214 H229 0.929 . S
C215 C214 1.362 . S
C215 C216 1.366 . S
C216 C213 1.365 . S
C216 C215 1.366 . S
C216 H230 0.930 . S
C217 C214 1.378 . S
C217 N218 1.315 . S
C217 H220 0.930 . S
N218 Co198 2.194 . S
N218 C213 1.328 . S
N218 C217 1.315 . S
H219 C213 0.929 . S
H220 C217 0.930 . S
H221 C209 0.929 . S
H222 C211 0.929 . S
O223 Co198 2.351 . S
O223 C226 1.244 . S
O224 Co198 2.155 . S
O224 C226 1.240 . S
O225 Co198 2.096 . S
O225 C206 1.247 . S
C226 O223 1.244 . S
C226 O224 1.240 . S
H227 C201 0.931 . S
H228 C210 0.931 . S
H229 C214 0.929 . S
H230 C216 0.930 . S
Co231 N235 2.148 . S
Co231 N241 2.128 . S
Co231 N251 2.194 . S
Co231 O256 2.351 . S
Co231 O257 2.155 . S
Co231 O258 2.096 1_455 S
C232 N235 1.301 . S
C232 N236 1.328 1_565 S
C232 H237 0.930 . S
C233 C234 1.333 1_565 S
C233 N235 1.317 . S
C233 H238 0.930 1_455 S
C234 C233 1.333 1_545 S
C234 N236 1.350 . S
C234 H260 0.931 . S
N235 Co231 2.148 . S
N235 C232 1.301 . S
N235 C233 1.317 . S
N236 C232 1.328 1_545 S
N236 C234 1.350 . S
H237 C232 0.930 . S
H238 C233 0.930 1_655 S
C239 O240 1.224 . S
C239 O258 1.247 . S
O240 C239 1.224 . S
N241 Co231 2.128 . S
N241 C242 1.355 . S
N241 C244 1.311 1_455 S
C242 N241 1.355 . S
C242 C243 1.363 . S
C242 H254 0.929 . S
C243 C242 1.363 . S
C243 N245 1.375 1_455 S
C243 H261 0.931 . S
C244 N241 1.311 1_655 S
C244 N245 1.347 . S
C244 H255 0.929 . S
N245 C243 1.375 1_655 S
N245 C244 1.347 . S
C246 C249 1.365 . S
C246 N251 1.328 . S
C246 H252 0.929 . S
C247 C248 1.332 1_655 S
C247 C250 1.375 1_655 S
C247 H262 0.962 . S
C248 C247 1.332 1_455 S
C248 C249 1.366 . S
C249 C246 1.365 . S
C249 C248 1.366 . S
C249 H263 0.930 . S
C250 C247 1.375 1_455 S
C250 N251 1.315 . S
C250 H253 0.930 1_455 S
N251 Co231 2.194 . S
N251 C246 1.328 . S
N251 C250 1.315 . S
H252 C246 0.929 . S
H253 C250 0.930 1_655 S
H254 C242 0.929 . S
H255 C244 0.929 . S
O256 Co231 2.351 . S
O256 C259 1.244 . S
O257 Co231 2.155 . S
O257 C259 1.240 . S
O258 Co231 2.096 1_655 S
O258 C239 1.247 . S
C259 O256 1.244 . S
C259 O257 1.240 . S
H260 C234 0.931 . S
H261 C243 0.931 . S
H262 C247 0.962 . S
H263 C249 0.930 . S
Co264 N268 2.148 . S
Co264 N274 2.128 . S
Co264 N284 2.194 . S
Co264 O289 2.351 . S
Co264 O290 2.155 . S
Co264 O291 2.096 . S
C265 N268 1.301 . S
C265 N269 1.328 . S
C265 H270 0.930 . S
C266 C267 1.333 . S
C266 N268 1.317 . S
C266 H271 0.930 . S
C267 C266 1.333 . S
C267 N269 1.350 . S
C267 H293 0.931 . S
N268 Co264 2.148 . S
N268 C265 1.301 . S
N268 C266 1.317 . S
N269 C265 1.328 . S
N269 C267 1.350 . S
H270 C265 0.930 . S
H271 C266 0.930 . S
C272 O273 1.224 . S
C272 O291 1.247 . S
O273 C272 1.224 . S
N274 Co264 2.128 . S
N274 C275 1.355 . S
N274 C277 1.311 . S
C275 N274 1.355 . S
C275 C276 1.363 . S
C275 H287 0.929 . S
C276 C275 1.363 . S
C276 N278 1.375 . S
C276 H294 0.931 . S
C277 N274 1.311 . S
C277 N278 1.347 . S
C277 H288 0.929 . S
N278 C276 1.375 . S
N278 C277 1.347 . S
C279 C282 1.365 . S
C279 N284 1.328 . S
C279 H285 0.929 . S
C280 C281 1.362 . S
C280 C283 1.378 . S
C280 H295 0.929 . S
C281 C280 1.362 . S
C281 C282 1.366 . S
C282 C279 1.365 . S
C282 C281 1.366 . S
C282 H296 0.930 . S
C283 C280 1.378 . S
C283 N284 1.315 . S
C283 H286 0.930 . S
N284 Co264 2.194 . S
N284 C279 1.328 . S
N284 C283 1.315 . S
H285 C279 0.929 . S
H286 C283 0.930 . S
H287 C275 0.929 . S
H288 C277 0.929 . S
O289 Co264 2.351 . S
O289 C292 1.244 . S
O290 Co264 2.155 . S
O290 C292 1.240 . S
O291 Co264 2.096 . S
O291 C272 1.247 . S
C292 O289 1.244 . S
C292 O290 1.240 . S
H293 C267 0.931 . S
H294 C276 0.931 . S
H295 C280 0.929 . S
H296 C282 0.930 . S
Co297 N301 2.148 . S
Co297 N307 2.128 . S
Co297 N317 2.194 . S
Co297 O322 2.351 . S
Co297 O323 2.155 . S
Co297 O324 2.096 1_655 S
C298 N301 1.301 . S
C298 N302 1.328 1_565 S
C298 H303 0.930 . S
C299 C300 1.333 1_565 S
C299 N301 1.317 . S
C299 H304 0.930 1_655 S
C300 C299 1.333 1_545 S
C300 N302 1.350 . S
C300 H326 0.931 . S
N301 Co297 2.148 . S
N301 C298 1.301 . S
N301 C299 1.317 . S
N302 C298 1.328 1_545 S
N302 C300 1.350 . S
H303 C298 0.930 . S
H304 C299 0.930 1_455 S
C305 O306 1.224 . S
C305 O324 1.247 . S
O306 C305 1.224 . S
N307 Co297 2.128 . S
N307 C308 1.355 . S
N307 C310 1.311 1_655 S
C308 N307 1.355 . S
C308 C309 1.363 . S
C308 H320 0.929 . S
C309 C308 1.363 . S
C309 N311 1.375 1_655 S
C309 H327 0.931 . S
C310 N307 1.311 1_455 S
C310 N311 1.347 . S
C310 H321 0.929 . S
N311 C309 1.375 1_455 S
N311 C310 1.347 . S
C312 C315 1.365 . S
C312 N317 1.328 . S
C312 H318 0.929 . S
C313 C314 1.332 1_455 S
C313 C316 1.375 1_455 S
C313 H328 0.962 . S
C314 C313 1.332 1_655 S
C314 C315 1.366 . S
C315 C312 1.365 . S
C315 C314 1.366 . S
C315 H329 0.930 . S
C316 C313 1.375 1_655 S
C316 N317 1.315 . S
C316 H319 0.930 1_655 S
N317 Co297 2.194 . S
N317 C312 1.328 . S
N317 C316 1.315 . S
H318 C312 0.929 . S
H319 C316 0.930 1_455 S
H320 C308 0.929 . S
H321 C310 0.929 . S
O322 Co297 2.351 . S
O322 C325 1.244 . S
O323 Co297 2.155 . S
O323 C325 1.240 . S
O324 Co297 2.096 1_455 S
O324 C305 1.247 . S
C325 O322 1.244 . S
C325 O323 1.240 . S
H326 C300 0.931 . S
H327 C309 0.931 . S
H328 C313 0.962 . S
H329 C315 0.930 . S
Co330 N334 2.148 . S
Co330 N340 2.128 . S
Co330 N350 2.194 . S
Co330 O355 2.351 . S
Co330 O356 2.155 . S
Co330 O357 2.096 . S
C331 N334 1.301 . S
C331 N335 1.328 . S
C331 H336 0.930 . S
C332 C333 1.333 . S
C332 N334 1.317 . S
C332 H337 0.930 . S
C333 C332 1.333 . S
C333 N335 1.350 . S
C333 H359 0.931 . S
N334 Co330 2.148 . S
N334 C331 1.301 . S
N334 C332 1.317 . S
N335 C331 1.328 . S
N335 C333 1.350 . S
H336 C331 0.930 . S
H337 C332 0.930 . S
C338 O339 1.224 . S
C338 O357 1.247 . S
O339 C338 1.224 . S
N340 Co330 2.128 . S
N340 C341 1.355 . S
N340 C343 1.311 . S
C341 N340 1.355 . S
C341 C342 1.363 . S
C341 H353 0.929 . S
C342 C341 1.363 . S
C342 N344 1.375 . S
C342 H360 0.931 . S
C343 N340 1.311 . S
C343 N344 1.347 . S
C343 H354 0.929 . S
N344 C342 1.375 . S
N344 C343 1.347 . S
C345 C348 1.365 . S
C345 N350 1.328 . S
C345 H351 0.929 . S
C346 C347 1.362 . S
C346 C349 1.378 . S
C346 H361 0.929 . S
C347 C346 1.362 . S
C347 C348 1.366 . S
C348 C345 1.365 . S
C348 C347 1.366 . S
C348 H362 0.930 . S
C349 C346 1.378 . S
C349 N350 1.315 . S
C349 H352 0.930 . S
N350 Co330 2.194 . S
N350 C345 1.328 . S
N350 C349 1.315 . S
H351 C345 0.929 . S
H352 C349 0.930 . S
H353 C341 0.929 . S
H354 C343 0.929 . S
O355 Co330 2.351 . S
O355 C358 1.244 . S
O356 Co330 2.155 . S
O356 C358 1.240 . S
O357 Co330 2.096 . S
O357 C338 1.247 . S
C358 O355 1.244 . S
C358 O356 1.240 . S
H359 C333 0.931 . S
H360 C342 0.931 . S
H361 C346 0.929 . S
H362 C348 0.930 . S
Co363 N367 2.148 . S
Co363 N373 2.128 . S
Co363 N383 2.194 . S
Co363 O388 2.351 . S
Co363 O389 2.155 . S
Co363 O390 2.096 . S
C364 N367 1.301 . S
C364 N368 1.328 1_545 S
C364 H369 0.930 . S
C365 C366 1.333 1_545 S
C365 N367 1.317 . S
C365 H370 0.930 . S
C366 C365 1.333 1_565 S
C366 N368 1.350 . S
C366 H392 0.931 . S
N367 Co363 2.148 . S
N367 C364 1.301 . S
N367 C365 1.317 . S
N368 C364 1.328 1_565 S
N368 C366 1.350 . S
H369 C364 0.930 . S
H370 C365 0.930 . S
C371 O372 1.224 . S
C371 O390 1.247 . S
O372 C371 1.224 . S
N373 Co363 2.128 . S
N373 C374 1.355 . S
N373 C376 1.311 . S
C374 N373 1.355 . S
C374 C375 1.363 . S
C374 H386 0.929 . S
C375 C374 1.363 . S
C375 N377 1.375 . S
C375 H393 0.931 . S
C376 N373 1.311 . S
C376 N377 1.347 . S
C376 H387 0.929 . S
N377 C375 1.375 . S
N377 C376 1.347 . S
C378 C381 1.365 . S
C378 N383 1.328 . S
C378 H384 0.929 . S
C379 C380 1.362 . S
C379 C382 1.378 . S
C379 H394 0.929 . S
C380 C379 1.362 . S
C380 C381 1.366 . S
C381 C378 1.365 . S
C381 C380 1.366 . S
C381 H395 0.930 . S
C382 C379 1.378 . S
C382 N383 1.315 . S
C382 H385 0.930 . S
N383 Co363 2.194 . S
N383 C378 1.328 . S
N383 C382 1.315 . S
H384 C378 0.929 . S
H385 C382 0.930 . S
H386 C374 0.929 . S
H387 C376 0.929 . S
O388 Co363 2.351 . S
O388 C391 1.244 . S
O389 Co363 2.155 . S
O389 C391 1.240 . S
O390 Co363 2.096 . S
O390 C371 1.247 . S
C391 O388 1.244 . S
C391 O389 1.240 . S
H392 C366 0.931 . S
H393 C375 0.931 . S
H394 C379 0.929 . S
H395 C381 0.930 . S
Co396 N400 2.148 . S
Co396 N406 2.128 . S
Co396 N416 2.194 . S
Co396 O421 2.351 . S
Co396 O422 2.155 . S
Co396 O423 2.096 . S
C397 N400 1.301 . S
C397 N401 1.328 . S
C397 H402 0.930 . S
C398 C399 1.333 . S
C398 N400 1.317 . S
C398 H403 0.930 . S
C399 C398 1.333 . S
C399 N401 1.350 . S
C399 H425 0.931 . S
N400 Co396 2.148 . S
N400 C397 1.301 . S
N400 C398 1.317 . S
N401 C397 1.328 . S
N401 C399 1.350 . S
H402 C397 0.930 . S
H403 C398 0.930 . S
C404 O405 1.224 . S
C404 O423 1.247 . S
O405 C404 1.224 . S
N406 Co396 2.128 . S
N406 C407 1.355 . S
N406 C409 1.311 . S
C407 N406 1.355 . S
C407 C408 1.363 . S
C407 H419 0.929 . S
C408 C407 1.363 . S
C408 N410 1.375 . S
C408 H426 0.931 . S
C409 N406 1.311 . S
C409 N410 1.347 . S
C409 H420 0.929 . S
N410 C408 1.375 . S
N410 C409 1.347 . S
C411 C414 1.365 . S
C411 N416 1.328 . S
C411 H417 0.929 . S
C412 C413 1.362 . S
C412 C415 1.378 . S
C412 H427 0.929 . S
C413 C412 1.362 . S
C413 C414 1.366 . S
C414 C411 1.365 . S
C414 C413 1.366 . S
C414 H428 0.930 . S
C415 C412 1.378 . S
C415 N416 1.315 . S
C415 H418 0.930 . S
N416 Co396 2.194 . S
N416 C411 1.328 . S
N416 C415 1.315 . S
H417 C411 0.929 . S
H418 C415 0.930 . S
H419 C407 0.929 . S
H420 C409 0.929 . S
O421 Co396 2.351 . S
O421 C424 1.244 . S
O422 Co396 2.155 . S
O422 C424 1.240 . S
O423 Co396 2.096 . S
O423 C404 1.247 . S
C424 O421 1.244 . S
C424 O422 1.240 . S
H425 C399 0.931 . S
H426 C408 0.931 . S
H427 C412 0.929 . S
H428 C414 0.930 . S
Co429 N433 2.148 . S
Co429 N439 2.128 . S
Co429 N449 2.194 . S
Co429 O454 2.351 . S
Co429 O455 2.155 . S
Co429 O456 2.096 . S
C430 N433 1.301 . S
C430 N434 1.328 1_565 S
C430 H435 0.930 . S
C431 C432 1.333 1_565 S
C431 N433 1.317 . S
C431 H436 0.930 . S
C432 C431 1.333 1_545 S
C432 N434 1.350 . S
C432 H458 0.931 . S
N433 Co429 2.148 . S
N433 C430 1.301 . S
N433 C431 1.317 . S
N434 C430 1.328 1_545 S
N434 C432 1.350 . S
H435 C430 0.930 . S
H436 C431 0.930 . S
C437 O438 1.224 . S
C437 O456 1.247 . S
O438 C437 1.224 . S
N439 Co429 2.128 . S
N439 C440 1.355 . S
N439 C442 1.311 . S
C440 N439 1.355 . S
C440 C441 1.363 . S
C440 H452 0.929 . S
C441 C440 1.363 . S
C441 N443 1.375 . S
C441 H459 0.931 . S
C442 N439 1.311 . S
C442 N443 1.347 . S
C442 H453 0.929 . S
N443 C441 1.375 . S
N443 C442 1.347 . S
C444 C447 1.365 . S
C444 N449 1.328 . S
C444 H450 0.929 . S
C445 C446 1.362 . S
C445 C448 1.378 . S
C445 H460 0.929 . S
C446 C445 1.362 . S
C446 C447 1.366 . S
C447 C444 1.365 . S
C447 C446 1.366 . S
C447 H461 0.930 . S
C448 C445 1.378 . S
C448 N449 1.315 . S
C448 H451 0.930 . S
N449 Co429 2.194 . S
N449 C444 1.328 . S
N449 C448 1.315 . S
H450 C444 0.929 . S
H451 C448 0.930 . S
H452 C440 0.929 . S
H453 C442 0.929 . S
O454 Co429 2.351 . S
O454 C457 1.244 . S
O455 Co429 2.155 . S
O455 C457 1.240 . S
O456 Co429 2.096 . S
O456 C437 1.247 . S
C457 O454 1.244 . S
C457 O455 1.240 . S
H458 C432 0.931 . S
H459 C441 0.931 . S
H460 C445 0.929 . S
H461 C447 0.930 . S
Co462 N466 2.148 . S
Co462 N472 2.128 . S
Co462 N482 2.194 . S
Co462 O487 2.351 . S
Co462 O488 2.155 . S
Co462 O489 2.096 . S
C463 N466 1.301 . S
C463 N467 1.328 . S
C463 H468 0.930 . S
C464 C465 1.333 . S
C464 N466 1.317 . S
C464 H469 0.930 . S
C465 C464 1.333 . S
C465 N467 1.350 . S
C465 H491 0.931 . S
N466 Co462 2.148 . S
N466 C463 1.301 . S
N466 C464 1.317 . S
N467 C463 1.328 . S
N467 C465 1.350 . S
H468 C463 0.930 . S
H469 C464 0.930 . S
C470 O471 1.224 . S
C470 O489 1.247 . S
O471 C470 1.224 . S
N472 Co462 2.128 . S
N472 C473 1.355 . S
N472 C475 1.311 . S
C473 N472 1.355 . S
C473 C474 1.363 . S
C473 H485 0.929 . S
C474 C473 1.363 . S
C474 N476 1.375 . S
C474 H492 0.931 . S
C475 N472 1.311 . S
C475 N476 1.347 . S
C475 H486 0.929 . S
N476 C474 1.375 . S
N476 C475 1.347 . S
C477 C480 1.365 . S
C477 N482 1.328 . S
C477 H483 0.929 . S
C478 C479 1.362 . S
C478 C481 1.378 . S
C478 H493 0.929 . S
C479 C478 1.362 . S
C479 C480 1.366 . S
C480 C477 1.365 . S
C480 C479 1.366 . S
C480 H494 0.930 . S
C481 C478 1.378 . S
C481 N482 1.315 . S
C481 H484 0.930 . S
N482 Co462 2.194 . S
N482 C477 1.328 . S
N482 C481 1.315 . S
H483 C477 0.929 . S
H484 C481 0.930 . S
H485 C473 0.929 . S
H486 C475 0.929 . S
O487 Co462 2.351 . S
O487 C490 1.244 . S
O488 Co462 2.155 . S
O488 C490 1.240 . S
O489 Co462 2.096 . S
O489 C470 1.247 . S
C490 O487 1.244 . S
C490 O488 1.240 . S
H491 C465 0.931 . S
H492 C474 0.931 . S
H493 C478 0.929 . S
H494 C480 0.930 . S
Co495 N499 2.148 . S
Co495 N505 2.128 . S
Co495 N515 2.194 . S
Co495 O520 2.351 . S
Co495 O521 2.155 . S
Co495 O522 2.096 1_655 S
C496 N499 1.301 . S
C496 N500 1.328 1_545 S
C496 H501 0.930 . S
C497 C498 1.333 1_545 S
C497 N499 1.317 . S
C497 H502 0.930 1_655 S
C498 C497 1.333 1_565 S
C498 N500 1.350 . S
C498 H524 0.931 . S
N499 Co495 2.148 . S
N499 C496 1.301 . S
N499 C497 1.317 . S
N500 C496 1.328 1_565 S
N500 C498 1.350 . S
H501 C496 0.930 . S
H502 C497 0.930 1_455 S
C503 O504 1.224 . S
C503 O522 1.247 . S
O504 C503 1.224 . S
N505 Co495 2.128 . S
N505 C506 1.355 . S
N505 C508 1.311 1_655 S
C506 N505 1.355 . S
C506 C507 1.363 . S
C506 H518 0.929 . S
C507 C506 1.363 . S
C507 N509 1.375 1_655 S
C507 H525 0.931 . S
C508 N505 1.311 1_455 S
C508 N509 1.347 . S
C508 H519 0.929 . S
N509 C507 1.375 1_455 S
N509 C508 1.347 . S
C510 C513 1.365 . S
C510 N515 1.328 . S
C510 H516 0.929 . S
C511 C512 1.332 1_455 S
C511 C514 1.375 1_455 S
C511 H526 0.962 . S
C512 C511 1.332 1_655 S
C512 C513 1.366 . S
C513 C510 1.365 . S
C513 C512 1.366 . S
C513 H527 0.930 . S
C514 C511 1.375 1_655 S
C514 N515 1.315 . S
C514 H517 0.930 1_655 S
N515 Co495 2.194 . S
N515 C510 1.328 . S
N515 C514 1.315 . S
H516 C510 0.929 . S
H517 C514 0.930 1_455 S
H518 C506 0.929 . S
H519 C508 0.929 . S
O520 Co495 2.351 . S
O520 C523 1.244 . S
O521 Co495 2.155 . S
O521 C523 1.240 . S
O522 Co495 2.096 1_455 S
O522 C503 1.247 . S
C523 O520 1.244 . S
C523 O521 1.240 . S
H524 C498 0.931 . S
H525 C507 0.931 . S
H526 C511 0.962 . S
H527 C513 0.930 . S
Co528 N532 2.148 . S
Co528 N538 2.128 . S
Co528 N548 2.194 . S
Co528 O553 2.351 . S
Co528 O554 2.155 . S
Co528 O555 2.096 . S
C529 N532 1.301 . S
C529 N533 1.328 . S
C529 H534 0.930 . S
C530 C531 1.333 . S
C530 N532 1.317 . S
C530 H535 0.930 . S
C531 C530 1.333 . S
C531 N533 1.350 . S
C531 H557 0.931 . S
N532 Co528 2.148 . S
N532 C529 1.301 . S
N532 C530 1.317 . S
N533 C529 1.328 . S
N533 C531 1.350 . S
H534 C529 0.930 . S
H535 C530 0.930 . S
C536 O537 1.224 . S
C536 O555 1.247 . S
O537 C536 1.224 . S
N538 Co528 2.128 . S
N538 C539 1.355 . S
N538 C541 1.311 . S
C539 N538 1.355 . S
C539 C540 1.363 . S
C539 H551 0.929 . S
C540 C539 1.363 . S
C540 N542 1.375 . S
C540 H558 0.931 . S
C541 N538 1.311 . S
C541 N542 1.347 . S
C541 H552 0.929 . S
N542 C540 1.375 . S
N542 C541 1.347 . S
C543 C546 1.365 . S
C543 N548 1.328 . S
C543 H549 0.929 . S
C544 C545 1.362 . S
C544 C547 1.378 . S
C544 H559 0.929 . S
C545 C544 1.362 . S
C545 C546 1.366 . S
C546 C543 1.365 . S
C546 C545 1.366 . S
C546 H560 0.930 . S
C547 C544 1.378 . S
C547 N548 1.315 . S
C547 H550 0.930 . S
N548 Co528 2.194 . S
N548 C543 1.328 . S
N548 C547 1.315 . S
H549 C543 0.929 . S
H550 C547 0.930 . S
H551 C539 0.929 . S
H552 C541 0.929 . S
O553 Co528 2.351 . S
O553 C556 1.244 . S
O554 Co528 2.155 . S
O554 C556 1.240 . S
O555 Co528 2.096 . S
O555 C536 1.247 . S
C556 O553 1.244 . S
C556 O554 1.240 . S
H557 C531 0.931 . S
H558 C540 0.931 . S
H559 C544 0.929 . S
H560 C546 0.930 . S
Co561 N565 2.148 . S
Co561 N571 2.128 . S
Co561 N581 2.194 . S
Co561 O586 2.351 . S
Co561 O587 2.155 . S
Co561 O588 2.096 . S
C562 N565 1.301 . S
C562 N566 1.328 . S
C562 H567 0.930 . S
C563 C564 1.333 . S
C563 N565 1.317 . S
C563 H568 0.930 . S
C564 C563 1.333 . S
C564 N566 1.350 . S
C564 H590 0.931 . S
N565 Co561 2.148 . S
N565 C562 1.301 . S
N565 C563 1.317 . S
N566 C562 1.328 . S
N566 C564 1.350 . S
H567 C562 0.930 . S
H568 C563 0.930 . S
C569 O570 1.224 . S
C569 O588 1.247 . S
O570 C569 1.224 . S
N571 Co561 2.128 . S
N571 C572 1.355 . S
N571 C574 1.311 . S
C572 N571 1.355 . S
C572 C573 1.363 . S
C572 H584 0.929 . S
C573 C572 1.363 . S
C573 N575 1.375 . S
C573 H591 0.931 . S
C574 N571 1.311 . S
C574 N575 1.347 . S
C574 H585 0.929 . S
N575 C573 1.375 . S
N575 C574 1.347 . S
C576 C579 1.365 . S
C576 N581 1.328 . S
C576 H582 0.929 . S
C577 C578 1.362 . S
C577 C580 1.378 . S
C577 H592 0.929 . S
C578 C577 1.362 . S
C578 C579 1.366 . S
C579 C576 1.365 . S
C579 C578 1.366 . S
C579 H593 0.930 . S
C580 C577 1.378 . S
C580 N581 1.315 . S
C580 H583 0.930 . S
N581 Co561 2.194 . S
N581 C576 1.328 . S
N581 C580 1.315 . S
H582 C576 0.929 . S
H583 C580 0.930 . S
H584 C572 0.929 . S
H585 C574 0.929 . S
O586 Co561 2.351 . S
O586 C589 1.244 . S
O587 Co561 2.155 . S
O587 C589 1.240 . S
O588 Co561 2.096 . S
O588 C569 1.247 . S
C589 O586 1.244 . S
C589 O587 1.240 . S
H590 C564 0.931 . S
H591 C573 0.931 . S
H592 C577 0.929 . S
H593 C579 0.930 . S
Co594 N598 2.148 . S
Co594 N604 2.128 . S
Co594 N614 2.194 . S
Co594 O619 2.351 . S
Co594 O620 2.155 . S
Co594 O621 2.096 . S
C595 N598 1.301 . S
C595 N599 1.328 . S
C595 H600 0.930 . S
C596 C597 1.333 . S
C596 N598 1.317 . S
C596 H601 0.930 . S
C597 C596 1.333 . S
C597 N599 1.350 . S
C597 H623 0.931 . S
N598 Co594 2.148 . S
N598 C595 1.301 . S
N598 C596 1.317 . S
N599 C595 1.328 . S
N599 C597 1.350 . S
H600 C595 0.930 . S
H601 C596 0.930 . S
C602 O603 1.224 . S
C602 O621 1.247 . S
O603 C602 1.224 . S
N604 Co594 2.128 . S
N604 C605 1.355 . S
N604 C607 1.311 . S
C605 N604 1.355 . S
C605 C606 1.363 . S
C605 H617 0.929 . S
C606 C605 1.363 . S
C606 N608 1.375 . S
C606 H624 0.931 . S
C607 N604 1.311 . S
C607 N608 1.347 . S
C607 H618 0.929 . S
N608 C606 1.375 . S
N608 C607 1.347 . S
C609 C612 1.365 . S
C609 N614 1.328 . S
C609 H615 0.929 . S
C610 C611 1.362 . S
C610 C613 1.378 . S
C610 H625 0.929 . S
C611 C610 1.362 . S
C611 C612 1.366 . S
C612 C609 1.365 . S
C612 C611 1.366 . S
C612 H626 0.930 . S
C613 C610 1.378 . S
C613 N614 1.315 . S
C613 H616 0.930 . S
N614 Co594 2.194 . S
N614 C609 1.328 . S
N614 C613 1.315 . S
H615 C609 0.929 . S
H616 C613 0.930 . S
H617 C605 0.929 . S
H618 C607 0.929 . S
O619 Co594 2.351 . S
O619 C622 1.244 . S
O620 Co594 2.155 . S
O620 C622 1.240 . S
O621 Co594 2.096 . S
O621 C602 1.247 . S
C622 O619 1.244 . S
C622 O620 1.240 . S
H623 C597 0.931 . S
H624 C606 0.931 . S
H625 C610 0.929 . S
H626 C612 0.930 . S
Co627 N631 2.148 . S
Co627 N637 2.128 . S
Co627 N647 2.194 . S
Co627 O652 2.351 . S
Co627 O653 2.155 . S
Co627 O654 2.096 1_655 S
C628 N631 1.301 . S
C628 N632 1.328 . S
C628 H633 0.930 . S
C629 C630 1.333 . S
C629 N631 1.317 . S
C629 H634 0.930 1_655 S
C630 C629 1.333 . S
C630 N632 1.350 . S
C630 H656 0.931 . S
N631 Co627 2.148 . S
N631 C628 1.301 . S
N631 C629 1.317 . S
N632 C628 1.328 . S
N632 C630 1.350 . S
H633 C628 0.930 . S
H634 C629 0.930 1_455 S
C635 O636 1.224 . S
C635 O654 1.247 . S
O636 C635 1.224 . S
N637 Co627 2.128 . S
N637 C638 1.355 . S
N637 C640 1.311 1_655 S
C638 N637 1.355 . S
C638 C639 1.363 . S
C638 H650 0.929 . S
C639 C638 1.363 . S
C639 N641 1.375 1_655 S
C639 H657 0.931 . S
C640 N637 1.311 1_455 S
C640 N641 1.347 . S
C640 H651 0.929 . S
N641 C639 1.375 1_455 S
N641 C640 1.347 . S
C642 C645 1.365 . S
C642 N647 1.328 . S
C642 H648 0.929 . S
C643 C644 1.332 1_455 S
C643 C646 1.375 1_455 S
C643 H658 0.962 . S
C644 C643 1.332 1_655 S
C644 C645 1.366 . S
C645 C642 1.365 . S
C645 C644 1.366 . S
C645 H659 0.930 . S
C646 C643 1.375 1_655 S
C646 N647 1.315 . S
C646 H649 0.930 1_655 S
N647 Co627 2.194 . S
N647 C642 1.328 . S
N647 C646 1.315 . S
H648 C642 0.929 . S
H649 C646 0.930 1_455 S
H650 C638 0.929 . S
H651 C640 0.929 . S
O652 Co627 2.351 . S
O652 C655 1.244 . S
O653 Co627 2.155 . S
O653 C655 1.240 . S
O654 Co627 2.096 1_455 S
O654 C635 1.247 . S
C655 O652 1.244 . S
C655 O653 1.240 . S
H656 C630 0.931 . S
H657 C639 0.931 . S
H658 C643 0.962 . S
H659 C645 0.930 . S
Co660 N664 2.148 . S
Co660 N670 2.128 . S
Co660 N680 2.194 . S
Co660 O685 2.351 . S
Co660 O686 2.155 . S
Co660 O687 2.096 . S
C661 N664 1.301 . S
C661 N665 1.328 . S
C661 H666 0.930 . S
C662 C663 1.333 . S
C662 N664 1.317 . S
C662 H667 0.930 . S
C663 C662 1.333 . S
C663 N665 1.350 . S
C663 H689 0.931 . S
N664 Co660 2.148 . S
N664 C661 1.301 . S
N664 C662 1.317 . S
N665 C661 1.328 . S
N665 C663 1.350 . S
H666 C661 0.930 . S
H667 C662 0.930 . S
C668 O669 1.224 . S
C668 O687 1.247 . S
O669 C668 1.224 . S
N670 Co660 2.128 . S
N670 C671 1.355 . S
N670 C673 1.311 . S
C671 N670 1.355 . S
C671 C672 1.363 . S
C671 H683 0.929 . S
C672 C671 1.363 . S
C672 N674 1.375 . S
C672 H690 0.931 . S
C673 N670 1.311 . S
C673 N674 1.347 . S
C673 H684 0.929 . S
N674 C672 1.375 . S
N674 C673 1.347 . S
C675 C678 1.365 . S
C675 N680 1.328 . S
C675 H681 0.929 . S
C676 C677 1.362 . S
C676 C679 1.378 . S
C676 H691 0.929 . S
C677 C676 1.362 . S
C677 C678 1.366 . S
C678 C675 1.365 . S
C678 C677 1.366 . S
C678 H692 0.930 . S
C679 C676 1.378 . S
C679 N680 1.315 . S
C679 H682 0.930 . S
N680 Co660 2.194 . S
N680 C675 1.328 . S
N680 C679 1.315 . S
H681 C675 0.929 . S
H682 C679 0.930 . S
H683 C671 0.929 . S
H684 C673 0.929 . S
O685 Co660 2.351 . S
O685 C688 1.244 . S
O686 Co660 2.155 . S
O686 C688 1.240 . S
O687 Co660 2.096 . S
O687 C668 1.247 . S
C688 O685 1.244 . S
C688 O686 1.240 . S
H689 C663 0.931 . S
H690 C672 0.931 . S
H691 C676 0.929 . S
H692 C678 0.930 . S
Co693 N697 2.148 . S
Co693 N703 2.128 . S
Co693 N713 2.194 . S
Co693 O718 2.351 . S
Co693 O719 2.155 . S
Co693 O720 2.096 1_655 S
C694 N697 1.301 . S
C694 N698 1.328 . S
C694 H699 0.930 . S
C695 C696 1.333 . S
C695 N697 1.317 . S
C695 H700 0.930 1_655 S
C696 C695 1.333 . S
C696 N698 1.350 . S
C696 H722 0.931 . S
N697 Co693 2.148 . S
N697 C694 1.301 . S
N697 C695 1.317 . S
N698 C694 1.328 . S
N698 C696 1.350 . S
H699 C694 0.930 . S
H700 C695 0.930 1_455 S
C701 O702 1.224 . S
C701 O720 1.247 . S
O702 C701 1.224 . S
N703 Co693 2.128 . S
N703 C704 1.355 . S
N703 C706 1.311 1_655 S
C704 N703 1.355 . S
C704 C705 1.363 . S
C704 H716 0.929 . S
C705 C704 1.363 . S
C705 N707 1.375 1_655 S
C705 H723 0.931 . S
C706 N703 1.311 1_455 S
C706 N707 1.347 . S
C706 H717 0.929 . S
N707 C705 1.375 1_455 S
N707 C706 1.347 . S
C708 C711 1.365 . S
C708 N713 1.328 . S
C708 H714 0.929 . S
C709 C710 1.332 1_455 S
C709 C712 1.375 1_455 S
C709 H724 0.962 . S
C710 C709 1.332 1_655 S
C710 C711 1.366 . S
C711 C708 1.365 . S
C711 C710 1.366 . S
C711 H725 0.930 . S
C712 C709 1.375 1_655 S
C712 N713 1.315 . S
C712 H715 0.930 1_655 S
N713 Co693 2.194 . S
N713 C708 1.328 . S
N713 C712 1.315 . S
H714 C708 0.929 . S
H715 C712 0.930 1_455 S
H716 C704 0.929 . S
H717 C706 0.929 . S
O718 Co693 2.351 . S
O718 C721 1.244 . S
O719 Co693 2.155 . S
O719 C721 1.240 . S
O720 Co693 2.096 1_455 S
O720 C701 1.247 . S
C721 O718 1.244 . S
C721 O719 1.240 . S
H722 C696 0.931 . S
H723 C705 0.931 . S
H724 C709 0.962 . S
H725 C711 0.930 . S
Co726 N730 2.148 . S
Co726 N736 2.128 . S
Co726 N746 2.194 . S
Co726 O751 2.351 . S
Co726 O752 2.155 . S
Co726 O753 2.096 . S
C727 N730 1.301 . S
C727 N731 1.328 . S
C727 H732 0.930 . S
C728 C729 1.333 . S
C728 N730 1.317 . S
C728 H733 0.930 . S
C729 C728 1.333 . S
C729 N731 1.350 . S
C729 H755 0.931 . S
N730 Co726 2.148 . S
N730 C727 1.301 . S
N730 C728 1.317 . S
N731 C727 1.328 . S
N731 C729 1.350 . S
H732 C727 0.930 . S
H733 C728 0.930 . S
C734 O735 1.224 . S
C734 O753 1.247 . S
O735 C734 1.224 . S
N736 Co726 2.128 . S
N736 C737 1.355 . S
N736 C739 1.311 . S
C737 N736 1.355 . S
C737 C738 1.363 . S
C737 H749 0.929 . S
C738 C737 1.363 . S
C738 N740 1.375 . S
C738 H756 0.931 . S
C739 N736 1.311 . S
C739 N740 1.347 . S
C739 H750 0.929 . S
N740 C738 1.375 . S
N740 C739 1.347 . S
C741 C744 1.365 . S
C741 N746 1.328 . S
C741 H747 0.929 . S
C742 C743 1.362 . S
C742 C745 1.378 . S
C742 H757 0.929 . S
C743 C742 1.362 . S
C743 C744 1.366 . S
C744 C741 1.365 . S
C744 C743 1.366 . S
C744 H758 0.930 . S
C745 C742 1.378 . S
C745 N746 1.315 . S
C745 H748 0.930 . S
N746 Co726 2.194 . S
N746 C741 1.328 . S
N746 C745 1.315 . S
H747 C741 0.929 . S
H748 C745 0.930 . S
H749 C737 0.929 . S
H750 C739 0.929 . S
O751 Co726 2.351 . S
O751 C754 1.244 . S
O752 Co726 2.155 . S
O752 C754 1.240 . S
O753 Co726 2.096 . S
O753 C734 1.247 . S
C754 O751 1.244 . S
C754 O752 1.240 . S
H755 C729 0.931 . S
H756 C738 0.931 . S
H757 C742 0.929 . S
H758 C744 0.930 . S
Co759 N763 2.148 . S
Co759 N769 2.128 . S
Co759 N779 2.194 . S
Co759 O784 2.351 . S
Co759 O785 2.155 . S
Co759 O786 2.096 . S
C760 N763 1.301 . S
C760 N764 1.328 . S
C760 H765 0.930 . S
C761 C762 1.333 . S
C761 N763 1.317 . S
C761 H766 0.930 . S
C762 C761 1.333 . S
C762 N764 1.350 . S
C762 H788 0.931 . S
N763 Co759 2.148 . S
N763 C760 1.301 . S
N763 C761 1.317 . S
N764 C760 1.328 . S
N764 C762 1.350 . S
H765 C760 0.930 . S
H766 C761 0.930 . S
C767 O768 1.224 . S
C767 O786 1.247 . S
O768 C767 1.224 . S
N769 Co759 2.128 . S
N769 C770 1.355 . S
N769 C772 1.311 . S
C770 N769 1.355 . S
C770 C771 1.363 . S
C770 H782 0.929 . S
C771 C770 1.363 . S
C771 N773 1.375 . S
C771 H789 0.931 . S
C772 N769 1.311 . S
C772 N773 1.347 . S
C772 H783 0.929 . S
N773 C771 1.375 . S
N773 C772 1.347 . S
C774 C777 1.365 . S
C774 N779 1.328 . S
C774 H780 0.929 . S
C775 C776 1.362 . S
C775 C778 1.378 . S
C775 H790 0.929 . S
C776 C775 1.362 . S
C776 C777 1.366 . S
C777 C774 1.365 . S
C777 C776 1.366 . S
C777 H791 0.930 . S
C778 C775 1.378 . S
C778 N779 1.315 . S
C778 H781 0.930 . S
N779 Co759 2.194 . S
N779 C774 1.328 . S
N779 C778 1.315 . S
H780 C774 0.929 . S
H781 C778 0.930 . S
H782 C770 0.929 . S
H783 C772 0.929 . S
O784 Co759 2.351 . S
O784 C787 1.244 . S
O785 Co759 2.155 . S
O785 C787 1.240 . S
O786 Co759 2.096 . S
O786 C767 1.247 . S
C787 O784 1.244 . S
C787 O785 1.240 . S
H788 C762 0.931 . S
H789 C771 0.931 . S
H790 C775 0.929 . S
H791 C777 0.930 . S
Co792 N796 2.148 . S
Co792 N802 2.128 . S
Co792 N812 2.194 . S
Co792 O817 2.351 . S
Co792 O818 2.155 . S
Co792 O819 2.096 . S
C793 N796 1.301 . S
C793 N797 1.328 . S
C793 H798 0.930 . S
C794 C795 1.333 . S
C794 N796 1.317 . S
C794 H799 0.930 . S
C795 C794 1.333 . S
C795 N797 1.350 . S
C795 H821 0.931 . S
N796 Co792 2.148 . S
N796 C793 1.301 . S
N796 C794 1.317 . S
N797 C793 1.328 . S
N797 C795 1.350 . S
H798 C793 0.930 . S
H799 C794 0.930 . S
C800 O801 1.224 . S
C800 O819 1.247 . S
O801 C800 1.224 . S
N802 Co792 2.128 . S
N802 C803 1.355 . S
N802 C805 1.311 . S
C803 N802 1.355 . S
C803 C804 1.363 . S
C803 H815 0.929 . S
C804 C803 1.363 . S
C804 N806 1.375 . S
C804 H822 0.931 . S
C805 N802 1.311 . S
C805 N806 1.347 . S
C805 H816 0.929 . S
N806 C804 1.375 . S
N806 C805 1.347 . S
C807 C810 1.365 . S
C807 N812 1.328 . S
C807 H813 0.929 . S
C808 C809 1.362 . S
C808 C811 1.378 . S
C808 H823 0.929 . S
C809 C808 1.362 . S
C809 C810 1.366 . S
C810 C807 1.365 . S
C810 C809 1.366 . S
C810 H824 0.930 . S
C811 C808 1.378 . S
C811 N812 1.315 . S
C811 H814 0.930 . S
N812 Co792 2.194 . S
N812 C807 1.328 . S
N812 C811 1.315 . S
H813 C807 0.929 . S
H814 C811 0.930 . S
H815 C803 0.929 . S
H816 C805 0.929 . S
O817 Co792 2.351 . S
O817 C820 1.244 . S
O818 Co792 2.155 . S
O818 C820 1.240 . S
O819 Co792 2.096 . S
O819 C800 1.247 . S
C820 O817 1.244 . S
C820 O818 1.240 . S
H821 C795 0.931 . S
H822 C804 0.931 . S
H823 C808 0.929 . S
H824 C810 0.930 . S
Co825 N829 2.148 . S
Co825 N835 2.128 . S
Co825 N845 2.194 . S
Co825 O850 2.351 . S
Co825 O851 2.155 . S
Co825 O852 2.096 . S
C826 N829 1.301 . S
C826 N830 1.328 . S
C826 H831 0.930 . S
C827 C828 1.333 . S
C827 N829 1.317 . S
C827 H832 0.930 . S
C828 C827 1.333 . S
C828 N830 1.350 . S
C828 H854 0.931 . S
N829 Co825 2.148 . S
N829 C826 1.301 . S
N829 C827 1.317 . S
N830 C826 1.328 . S
N830 C828 1.350 . S
H831 C826 0.930 . S
H832 C827 0.930 . S
C833 O834 1.224 . S
C833 O852 1.247 . S
O834 C833 1.224 . S
N835 Co825 2.128 . S
N835 C836 1.355 . S
N835 C838 1.311 . S
C836 N835 1.355 . S
C836 C837 1.363 . S
C836 H848 0.929 . S
C837 C836 1.363 . S
C837 N839 1.375 . S
C837 H855 0.931 . S
C838 N835 1.311 . S
C838 N839 1.347 . S
C838 H849 0.929 . S
N839 C837 1.375 . S
N839 C838 1.347 . S
C840 C843 1.365 . S
C840 N845 1.328 . S
C840 H846 0.929 . S
C841 C842 1.362 . S
C841 C844 1.378 . S
C841 H856 0.929 . S
C842 C841 1.362 . S
C842 C843 1.366 . S
C843 C840 1.365 . S
C843 C842 1.366 . S
C843 H857 0.930 . S
C844 C841 1.378 . S
C844 N845 1.315 . S
C844 H847 0.930 . S
N845 Co825 2.194 . S
N845 C840 1.328 . S
N845 C844 1.315 . S
H846 C840 0.929 . S
H847 C844 0.930 . S
H848 C836 0.929 . S
H849 C838 0.929 . S
O850 Co825 2.351 . S
O850 C853 1.244 . S
O851 Co825 2.155 . S
O851 C853 1.240 . S
O852 Co825 2.096 . S
O852 C833 1.247 . S
C853 O850 1.244 . S
C853 O851 1.240 . S
H854 C828 0.931 . S
H855 C837 0.931 . S
H856 C841 0.929 . S
H857 C843 0.930 . S
Co858 N862 2.148 . S
Co858 N868 2.128 . S
Co858 N878 2.194 . S
Co858 O883 2.351 . S
Co858 O884 2.155 . S
Co858 O885 2.096 . S
C859 N862 1.301 . S
C859 N863 1.328 . S
C859 H864 0.930 . S
C860 C861 1.333 . S
C860 N862 1.317 . S
C860 H865 0.930 . S
C861 C860 1.333 . S
C861 N863 1.350 . S
C861 H887 0.931 . S
N862 Co858 2.148 . S
N862 C859 1.301 . S
N862 C860 1.317 . S
N863 C859 1.328 . S
N863 C861 1.350 . S
H864 C859 0.930 . S
H865 C860 0.930 . S
C866 O867 1.224 . S
C866 O885 1.247 . S
O867 C866 1.224 . S
N868 Co858 2.128 . S
N868 C869 1.355 . S
N868 C871 1.311 . S
C869 N868 1.355 . S
C869 C870 1.363 . S
C869 H881 0.929 . S
C870 C869 1.363 . S
C870 N872 1.375 . S
C870 H888 0.931 . S
C871 N868 1.311 . S
C871 N872 1.347 . S
C871 H882 0.929 . S
N872 C870 1.375 . S
N872 C871 1.347 . S
C873 C876 1.365 . S
C873 N878 1.328 . S
C873 H879 0.929 . S
C874 C875 1.362 . S
C874 C877 1.378 . S
C874 H889 0.929 . S
C875 C874 1.362 . S
C875 C876 1.366 . S
C876 C873 1.365 . S
C876 C875 1.366 . S
C876 H890 0.930 . S
C877 C874 1.378 . S
C877 N878 1.315 . S
C877 H880 0.930 . S
N878 Co858 2.194 . S
N878 C873 1.328 . S
N878 C877 1.315 . S
H879 C873 0.929 . S
H880 C877 0.930 . S
H881 C869 0.929 . S
H882 C871 0.929 . S
O883 Co858 2.351 . S
O883 C886 1.244 . S
O884 Co858 2.155 . S
O884 C886 1.240 . S
O885 Co858 2.096 . S
O885 C866 1.247 . S
C886 O883 1.244 . S
C886 O884 1.240 . S
H887 C861 0.931 . S
H888 C870 0.931 . S
H889 C874 0.929 . S
H890 C876 0.930 . S
Co891 N895 2.148 . S
Co891 N901 2.128 . S
Co891 N911 2.194 . S
Co891 O916 2.351 . S
Co891 O917 2.155 . S
Co891 O918 2.096 1_455 S
C892 N895 1.301 . S
C892 N896 1.328 . S
C892 H897 0.930 . S
C893 C894 1.333 . S
C893 N895 1.317 . S
C893 H898 0.930 1_455 S
C894 C893 1.333 . S
C894 N896 1.350 . S
C894 H920 0.931 . S
N895 Co891 2.148 . S
N895 C892 1.301 . S
N895 C893 1.317 . S
N896 C892 1.328 . S
N896 C894 1.350 . S
H897 C892 0.930 . S
H898 C893 0.930 1_655 S
C899 O900 1.224 . S
C899 O918 1.247 . S
O900 C899 1.224 . S
N901 Co891 2.128 . S
N901 C902 1.355 . S
N901 C904 1.311 1_455 S
C902 N901 1.355 . S
C902 C903 1.363 . S
C902 H914 0.929 . S
C903 C902 1.363 . S
C903 N905 1.375 1_455 S
C903 H921 0.931 . S
C904 N901 1.311 1_655 S
C904 N905 1.347 . S
C904 H915 0.929 . S
N905 C903 1.375 1_655 S
N905 C904 1.347 . S
C906 C909 1.365 . S
C906 N911 1.328 . S
C906 H912 0.929 . S
C907 C908 1.332 1_655 S
C907 C910 1.375 1_655 S
C907 H922 0.962 . S
C908 C907 1.332 1_455 S
C908 C909 1.366 . S
C909 C906 1.365 . S
C909 C908 1.366 . S
C909 H923 0.930 . S
C910 C907 1.375 1_455 S
C910 N911 1.315 . S
C910 H913 0.930 1_455 S
N911 Co891 2.194 . S
N911 C906 1.328 . S
N911 C910 1.315 . S
H912 C906 0.929 . S
H913 C910 0.930 1_655 S
H914 C902 0.929 . S
H915 C904 0.929 . S
O916 Co891 2.351 . S
O916 C919 1.244 . S
O917 Co891 2.155 . S
O917 C919 1.240 . S
O918 Co891 2.096 1_655 S
O918 C899 1.247 . S
C919 O916 1.244 . S
C919 O917 1.240 . S
H920 C894 0.931 . S
H921 C903 0.931 . S
H922 C907 0.962 . S
H923 C909 0.930 . S
Co924 N928 2.148 . S
Co924 N934 2.128 . S
Co924 N944 2.194 . S
Co924 O949 2.351 . S
Co924 O950 2.155 . S
Co924 O951 2.096 . S
C925 N928 1.301 . S
C925 N929 1.328 . S
C925 H930 0.930 . S
C926 C927 1.333 . S
C926 N928 1.317 . S
C926 H931 0.930 . S
C927 C926 1.333 . S
C927 N929 1.350 . S
C927 H953 0.931 . S
N928 Co924 2.148 . S
N928 C925 1.301 . S
N928 C926 1.317 . S
N929 C925 1.328 . S
N929 C927 1.350 . S
H930 C925 0.930 . S
H931 C926 0.930 . S
C932 O933 1.224 . S
C932 O951 1.247 . S
O933 C932 1.224 . S
N934 Co924 2.128 . S
N934 C935 1.355 . S
N934 C937 1.311 . S
C935 N934 1.355 . S
C935 C936 1.363 . S
C935 H947 0.929 . S
C936 C935 1.363 . S
C936 N938 1.375 . S
C936 H954 0.931 . S
C937 N934 1.311 . S
C937 N938 1.347 . S
C937 H948 0.929 . S
N938 C936 1.375 . S
N938 C937 1.347 . S
C939 C942 1.365 . S
C939 N944 1.328 . S
C939 H945 0.929 . S
C940 C941 1.362 . S
C940 C943 1.378 . S
C940 H955 0.929 . S
C941 C940 1.362 . S
C941 C942 1.366 . S
C942 C939 1.365 . S
C942 C941 1.366 . S
C942 H956 0.930 . S
C943 C940 1.378 . S
C943 N944 1.315 . S
C943 H946 0.930 . S
N944 Co924 2.194 . S
N944 C939 1.328 . S
N944 C943 1.315 . S
H945 C939 0.929 . S
H946 C943 0.930 . S
H947 C935 0.929 . S
H948 C937 0.929 . S
O949 Co924 2.351 . S
O949 C952 1.244 . S
O950 Co924 2.155 . S
O950 C952 1.240 . S
O951 Co924 2.096 . S
O951 C932 1.247 . S
C952 O949 1.244 . S
C952 O950 1.240 . S
H953 C927 0.931 . S
H954 C936 0.931 . S
H955 C940 0.929 . S
H956 C942 0.930 . S
Co957 N961 2.148 . S
Co957 N967 2.128 . S
Co957 N977 2.194 . S
Co957 O982 2.351 . S
Co957 O983 2.155 . S
Co957 O984 2.096 1_455 S
C958 N961 1.301 . S
C958 N962 1.328 . S
C958 H963 0.930 . S
C959 C960 1.333 . S
C959 N961 1.317 . S
C959 H964 0.930 1_455 S
C960 C959 1.333 . S
C960 N962 1.350 . S
C960 H986 0.931 . S
N961 Co957 2.148 . S
N961 C958 1.301 . S
N961 C959 1.317 . S
N962 C958 1.328 . S
N962 C960 1.350 . S
H963 C958 0.930 . S
H964 C959 0.930 1_655 S
C965 O966 1.224 . S
C965 O984 1.247 . S
O966 C965 1.224 . S
N967 Co957 2.128 . S
N967 C968 1.355 . S
N967 C970 1.311 1_455 S
C968 N967 1.355 . S
C968 C969 1.363 . S
C968 H980 0.929 . S
C969 C968 1.363 . S
C969 N971 1.375 1_455 S
C969 H987 0.931 . S
C970 N967 1.311 1_655 S
C970 N971 1.347 . S
C970 H981 0.929 . S
N971 C969 1.375 1_655 S
N971 C970 1.347 . S
C972 C975 1.365 . S
C972 N977 1.328 . S
C972 H978 0.929 . S
C973 C974 1.332 1_655 S
C973 C976 1.375 1_655 S
C973 H988 0.962 . S
C974 C973 1.332 1_455 S
C974 C975 1.366 . S
C975 C972 1.365 . S
C975 C974 1.366 . S
C975 H989 0.930 . S
C976 C973 1.375 1_455 S
C976 N977 1.315 . S
C976 H979 0.930 1_455 S
N977 Co957 2.194 . S
N977 C972 1.328 . S
N977 C976 1.315 . S
H978 C972 0.929 . S
H979 C976 0.930 1_655 S
H980 C968 0.929 . S
H981 C970 0.929 . S
O982 Co957 2.351 . S
O982 C985 1.244 . S
O983 Co957 2.155 . S
O983 C985 1.240 . S
O984 Co957 2.096 1_655 S
O984 C965 1.247 . S
C985 O982 1.244 . S
C985 O983 1.240 . S
H986 C960 0.931 . S
H987 C969 0.931 . S
H988 C973 0.962 . S
H989 C975 0.930 . S
Co990 N994 2.148 . S
Co990 N1000 2.128 . S
Co990 N1010 2.194 . S
Co990 O1015 2.351 . S
Co990 O1016 2.155 . S
Co990 O1017 2.096 . S
C991 N994 1.301 . S
C991 N995 1.328 . S
C991 H996 0.930 . S
C992 C993 1.333 . S
C992 N994 1.317 . S
C992 H997 0.930 . S
C993 C992 1.333 . S
C993 N995 1.350 . S
C993 H1019 0.931 . S
N994 Co990 2.148 . S
N994 C991 1.301 . S
N994 C992 1.317 . S
N995 C991 1.328 . S
N995 C993 1.350 . S
H996 C991 0.930 . S
H997 C992 0.930 . S
C998 O999 1.224 . S
C998 O1017 1.247 . S
O999 C998 1.224 . S
N1000 Co990 2.128 . S
N1000 C1001 1.355 . S
N1000 C1003 1.311 . S
C1001 N1000 1.355 . S
C1001 C1002 1.363 . S
C1001 H1013 0.929 . S
C1002 C1001 1.363 . S
C1002 N1004 1.375 . S
C1002 H1020 0.931 . S
C1003 N1000 1.311 . S
C1003 N1004 1.347 . S
C1003 H1014 0.929 . S
N1004 C1002 1.375 . S
N1004 C1003 1.347 . S
C1005 C1008 1.365 . S
C1005 N1010 1.328 . S
C1005 H1011 0.929 . S
C1006 C1007 1.362 . S
C1006 C1009 1.378 . S
C1006 H1021 0.929 . S
C1007 C1006 1.362 . S
C1007 C1008 1.366 . S
C1008 C1005 1.365 . S
C1008 C1007 1.366 . S
C1008 H1022 0.930 . S
C1009 C1006 1.378 . S
C1009 N1010 1.315 . S
C1009 H1012 0.930 . S
N1010 Co990 2.194 . S
N1010 C1005 1.328 . S
N1010 C1009 1.315 . S
H1011 C1005 0.929 . S
H1012 C1009 0.930 . S
H1013 C1001 0.929 . S
H1014 C1003 0.929 . S
O1015 Co990 2.351 . S
O1015 C1018 1.244 . S
O1016 Co990 2.155 . S
O1016 C1018 1.240 . S
O1017 Co990 2.096 . S
O1017 C998 1.247 . S
C1018 O1015 1.244 . S
C1018 O1016 1.240 . S
H1019 C993 0.931 . S
H1020 C1002 0.931 . S
H1021 C1006 0.929 . S
H1022 C1008 0.930 . S
Co1023 N1027 2.148 . S
Co1023 N1033 2.128 . S
Co1023 N1043 2.194 . S
Co1023 O1048 2.351 . S
Co1023 O1049 2.155 . S
Co1023 O1050 2.096 . S
C1024 N1027 1.301 . S
C1024 N1028 1.328 . S
C1024 H1029 0.930 . S
C1025 C1026 1.333 . S
C1025 N1027 1.317 . S
C1025 H1030 0.930 . S
C1026 C1025 1.333 . S
C1026 N1028 1.350 . S
C1026 H1052 0.931 . S
N1027 Co1023 2.148 . S
N1027 C1024 1.301 . S
N1027 C1025 1.317 . S
N1028 C1024 1.328 . S
N1028 C1026 1.350 . S
H1029 C1024 0.930 . S
H1030 C1025 0.930 . S
C1031 O1032 1.224 . S
C1031 O1050 1.247 . S
O1032 C1031 1.224 . S
N1033 Co1023 2.128 . S
N1033 C1034 1.355 . S
N1033 C1036 1.311 . S
C1034 N1033 1.355 . S
C1034 C1035 1.363 . S
C1034 H1046 0.929 . S
C1035 C1034 1.363 . S
C1035 N1037 1.375 . S
C1035 H1053 0.931 . S
C1036 N1033 1.311 . S
C1036 N1037 1.347 . S
C1036 H1047 0.929 . S
N1037 C1035 1.375 . S
N1037 C1036 1.347 . S
C1038 C1041 1.365 . S
C1038 N1043 1.328 . S
C1038 H1044 0.929 . S
C1039 C1040 1.362 . S
C1039 C1042 1.378 . S
C1039 H1054 0.929 . S
C1040 C1039 1.362 . S
C1040 C1041 1.366 . S
C1041 C1038 1.365 . S
C1041 C1040 1.366 . S
C1041 H1055 0.930 . S
C1042 C1039 1.378 . S
C1042 N1043 1.315 . S
C1042 H1045 0.930 . S
N1043 Co1023 2.194 . S
N1043 C1038 1.328 . S
N1043 C1042 1.315 . S
H1044 C1038 0.929 . S
H1045 C1042 0.930 . S
H1046 C1034 0.929 . S
H1047 C1036 0.929 . S
O1048 Co1023 2.351 . S
O1048 C1051 1.244 . S
O1049 Co1023 2.155 . S
O1049 C1051 1.240 . S
O1050 Co1023 2.096 . S
O1050 C1031 1.247 . S
C1051 O1048 1.244 . S
C1051 O1049 1.240 . S
H1052 C1026 0.931 . S
H1053 C1035 0.931 . S
H1054 C1039 0.929 . S
H1055 C1041 0.930 . S
H1056 C1062 0.930 . S
H1057 C1066 0.930 . S
H1058 C1071 0.929 . S
H1059 C1069 0.929 . S
H1060 C1064 0.929 . S
H1061 C1070 0.929 . S
C1062 H1056 0.930 . S
C1062 C1063 1.367 . S
C1062 C1070 1.378 . S
C1063 C1062 1.367 . S
C1063 C1071 1.433 . S
C1064 H1060 0.929 . S
C1064 C1066 1.378 . S
C1064 C1068 1.350 . S
C1065 C1068 1.463 . S
C1065 C1070 1.350 . S
C1065 N1073 1.427 . S
C1066 H1057 0.930 . S
C1066 C1064 1.378 . S
C1066 C1067 1.367 . S
C1067 C1066 1.367 . S
C1067 C1069 1.433 . S
C1068 C1064 1.350 . S
C1068 C1065 1.463 . S
C1068 N1072 1.427 . S
C1069 H1059 0.929 . S
C1069 C1067 1.433 . S
C1069 N1072 1.384 . S
C1070 H1061 0.929 . S
C1070 C1062 1.378 . S
C1070 C1065 1.350 . S
C1071 H1058 0.929 . S
C1071 C1063 1.433 . S
C1071 N1073 1.384 . S
N1072 C1068 1.427 . S
N1072 C1069 1.384 . S
N1073 C1065 1.427 . S
N1073 C1071 1.384 . S
H1074 C1080 0.940 . S
H1075 C1084 0.940 . S
H1076 C1089 0.929 . S
H1077 C1087 0.929 . S
H1078 C1082 0.929 . S
H1079 C1088 0.929 . S
C1080 H1074 0.940 . S
C1080 C1081 1.351 1_455 S
C1080 C1088 1.384 . S
C1081 C1080 1.351 1_655 S
C1081 C1089 1.433 . S
C1082 H1078 0.929 . S
C1082 C1084 1.384 . S
C1082 C1086 1.350 1_655 S
C1083 C1086 1.463 1_655 S
C1083 C1088 1.350 1_655 S
C1083 N1091 1.427 . S
C1084 H1075 0.940 . S
C1084 C1082 1.384 . S
C1084 C1085 1.351 1_655 S
C1085 C1084 1.351 1_455 S
C1085 C1087 1.433 . S
C1086 C1082 1.350 1_455 S
C1086 C1083 1.463 1_455 S
C1086 N1090 1.427 . S
C1087 H1077 0.929 . S
C1087 C1085 1.433 . S
C1087 N1090 1.384 . S
C1088 H1079 0.929 . S
C1088 C1080 1.384 . S
C1088 C1083 1.350 1_455 S
C1089 H1076 0.929 . S
C1089 C1081 1.433 . S
C1089 N1091 1.384 . S
N1090 C1086 1.427 . S
N1090 C1087 1.384 . S
N1091 C1083 1.427 . S
N1091 C1089 1.384 . S
H1092 C1098 0.930 . S
H1093 C1102 0.930 . S
H1094 C1107 0.929 . S
H1095 C1105 0.929 . S
H1096 C1100 0.929 . S
H1097 C1106 0.929 . S
C1098 H1092 0.930 . S
C1098 C1099 1.367 . S
C1098 C1106 1.378 . S
C1099 C1098 1.367 . S
C1099 C1107 1.433 . S
C1100 H1096 0.929 . S
C1100 C1102 1.378 . S
C1100 C1104 1.350 . S
C1101 C1104 1.463 1_455 S
C1101 C1106 1.350 . S
C1101 N1109 1.427 . S
C1102 H1093 0.930 . S
C1102 C1100 1.378 . S
C1102 C1103 1.367 . S
C1103 C1102 1.367 . S
C1103 C1105 1.433 . S
C1104 C1100 1.350 . S
C1104 C1101 1.463 1_655 S
C1104 N1108 1.427 . S
C1105 H1095 0.929 . S
C1105 C1103 1.433 . S
C1105 N1108 1.384 . S
C1106 H1097 0.929 . S
C1106 C1098 1.378 . S
C1106 C1101 1.350 . S
C1107 H1094 0.929 . S
C1107 C1099 1.433 . S
C1107 N1109 1.384 . S
N1108 C1104 1.427 . S
N1108 C1105 1.384 . S
N1109 C1101 1.427 . S
N1109 C1107 1.384 . S
H1110 C1116 0.930 . S
H1111 C1120 0.930 . S
H1112 C1125 0.929 . S
H1113 C1123 0.929 . S
H1114 C1118 0.929 . S
H1115 C1124 0.929 . S
C1116 H1110 0.930 . S
C1116 C1117 1.367 . S
C1116 C1124 1.378 . S
C1117 C1116 1.367 . S
C1117 C1125 1.433 . S
C1118 H1114 0.929 . S
C1118 C1120 1.378 . S
C1118 C1122 1.350 . S
C1119 C1122 1.463 . S
C1119 C1124 1.350 . S
C1119 N1127 1.427 . S
C1120 H1111 0.930 . S
C1120 C1118 1.378 . S
C1120 C1121 1.367 . S
C1121 C1120 1.367 . S
C1121 C1123 1.433 . S
C1122 C1118 1.350 . S
C1122 C1119 1.463 . S
C1122 N1126 1.427 . S
C1123 H1113 0.929 . S
C1123 C1121 1.433 . S
C1123 N1126 1.384 . S
C1124 H1115 0.929 . S
C1124 C1116 1.378 . S
C1124 C1119 1.350 . S
C1125 H1112 0.929 . S
C1125 C1117 1.433 . S
C1125 N1127 1.384 . S
N1126 C1122 1.427 . S
N1126 C1123 1.384 . S
N1127 C1119 1.427 . S
N1127 C1125 1.384 . S
H1128 C1134 0.930 . S
H1129 C1138 0.930 . S
H1130 C1143 0.929 . S
H1131 C1141 0.929 . S
H1132 C1136 0.929 . S
H1133 C1142 0.929 . S
C1134 H1128 0.930 . S
C1134 C1135 1.367 . S
C1134 C1142 1.378 . S
C1135 C1134 1.367 . S
C1135 C1143 1.433 . S
C1136 H1132 0.929 . S
C1136 C1138 1.378 . S
C1136 C1140 1.350 . S
C1137 C1140 1.463 . S
C1137 C1142 1.350 . S
C1137 N1145 1.427 . S
C1138 H1129 0.930 . S
C1138 C1136 1.378 . S
C1138 C1139 1.367 . S
C1139 C1138 1.367 . S
C1139 C1141 1.433 . S
C1140 C1136 1.350 . S
C1140 C1137 1.463 . S
C1140 N1144 1.427 . S
C1141 H1131 0.929 . S
C1141 C1139 1.433 . S
C1141 N1144 1.384 . S
C1142 H1133 0.929 . S
C1142 C1134 1.378 . S
C1142 C1137 1.350 . S
C1143 H1130 0.929 . S
C1143 C1135 1.433 . S
C1143 N1145 1.384 . S
N1144 C1140 1.427 . S
N1144 C1141 1.384 . S
N1145 C1137 1.427 . S
N1145 C1143 1.384 . S
H1146 C1152 0.930 . S
H1147 C1156 0.930 . S
H1148 C1161 0.929 . S
H1149 C1159 0.929 . S
H1150 C1154 0.929 . S
H1151 C1160 0.929 . S
C1152 H1146 0.930 . S
C1152 C1153 1.367 . S
C1152 C1160 1.378 . S
C1153 C1152 1.367 . S
C1153 C1161 1.433 . S
C1154 H1150 0.929 . S
C1154 C1156 1.378 . S
C1154 C1158 1.350 . S
C1155 C1158 1.463 . S
C1155 C1160 1.350 . S
C1155 N1163 1.427 . S
C1156 H1147 0.930 . S
C1156 C1154 1.378 . S
C1156 C1157 1.367 . S
C1157 C1156 1.367 . S
C1157 C1159 1.433 . S
C1158 C1154 1.350 . S
C1158 C1155 1.463 . S
C1158 N1162 1.427 . S
C1159 H1149 0.929 . S
C1159 C1157 1.433 . S
C1159 N1162 1.384 . S
C1160 H1151 0.929 . S
C1160 C1152 1.378 . S
C1160 C1155 1.350 . S
C1161 H1148 0.929 . S
C1161 C1153 1.433 . S
C1161 N1163 1.384 . S
N1162 C1158 1.427 . S
N1162 C1159 1.384 . S
N1163 C1155 1.427 . S
N1163 C1161 1.384 . S
H1164 C1170 0.930 . S
H1165 C1174 0.930 . S
H1166 C1179 0.929 . S
H1167 C1177 0.929 . S
H1168 C1172 0.929 . S
H1169 C1178 0.929 . S
C1170 H1164 0.930 . S
C1170 C1171 1.367 . S
C1170 C1178 1.378 . S
C1171 C1170 1.367 . S
C1171 C1179 1.433 . S
C1172 H1168 0.929 . S
C1172 C1174 1.378 . S
C1172 C1176 1.350 . S
C1173 C1176 1.463 1_455 S
C1173 C1178 1.350 . S
C1173 N1181 1.427 . S
C1174 H1165 0.930 . S
C1174 C1172 1.378 . S
C1174 C1175 1.367 . S
C1175 C1174 1.367 . S
C1175 C1177 1.433 . S
C1176 C1172 1.350 . S
C1176 C1173 1.463 1_655 S
C1176 N1180 1.427 . S
C1177 H1167 0.929 . S
C1177 C1175 1.433 . S
C1177 N1180 1.384 . S
C1178 H1169 0.929 . S
C1178 C1170 1.378 . S
C1178 C1173 1.350 . S
C1179 H1166 0.929 . S
C1179 C1171 1.433 . S
C1179 N1181 1.384 . S
N1180 C1176 1.427 . S
N1180 C1177 1.384 . S
N1181 C1173 1.427 . S
N1181 C1179 1.384 . S
H1182 C1188 0.930 . S
H1183 C1192 0.930 . S
H1184 C1197 0.929 . S
H1185 C1195 0.929 . S
H1186 C1190 0.929 . S
H1187 C1196 0.929 . S
C1188 H1182 0.930 . S
C1188 C1189 1.367 . S
C1188 C1196 1.378 . S
C1189 C1188 1.367 . S
C1189 C1197 1.433 1_655 S
C1190 H1186 0.929 . S
C1190 C1192 1.378 . S
C1190 C1194 1.350 . S
C1191 C1194 1.463 1_655 S
C1191 C1196 1.350 . S
C1191 N1199 1.427 1_655 S
C1192 H1183 0.930 . S
C1192 C1190 1.378 . S
C1192 C1193 1.367 . S
C1193 C1192 1.367 . S
C1193 C1195 1.433 1_455 S
C1194 C1190 1.350 . S
C1194 C1191 1.463 1_455 S
C1194 N1198 1.427 1_455 S
C1195 H1185 0.929 . S
C1195 C1193 1.433 1_655 S
C1195 N1198 1.384 . S
C1196 H1187 0.929 . S
C1196 C1188 1.378 . S
C1196 C1191 1.350 . S
C1197 H1184 0.929 . S
C1197 C1189 1.433 1_455 S
C1197 N1199 1.384 . S
N1198 C1194 1.427 1_655 S
N1198 C1195 1.384 . S
N1199 C1191 1.427 1_455 S
N1199 C1197 1.384 . S
H1200 C1206 0.930 . S
H1201 C1210 0.930 . S
H1202 C1215 0.929 . S
H1203 C1213 0.929 . S
H1204 C1208 0.929 . S
H1205 C1214 0.929 . S
C1206 H1200 0.930 . S
C1206 C1207 1.367 . S
C1206 C1214 1.378 . S
C1207 C1206 1.367 . S
C1207 C1215 1.433 . S
C1208 H1204 0.929 . S
C1208 C1210 1.378 . S
C1208 C1212 1.350 . S
C1209 C1212 1.463 . S
C1209 C1214 1.350 . S
C1209 N1217 1.427 . S
C1210 H1201 0.930 . S
C1210 C1208 1.378 . S
C1210 C1211 1.367 . S
C1211 C1210 1.367 . S
C1211 C1213 1.433 . S
C1212 C1208 1.350 . S
C1212 C1209 1.463 . S
C1212 N1216 1.427 . S
C1213 H1203 0.929 . S
C1213 C1211 1.433 . S
C1213 N1216 1.384 . S
C1214 H1205 0.929 . S
C1214 C1206 1.378 . S
C1214 C1209 1.350 . S
C1215 H1202 0.929 . S
C1215 C1207 1.433 . S
C1215 N1217 1.384 . S
N1216 C1212 1.427 . S
N1216 C1213 1.384 . S
N1217 C1209 1.427 . S
N1217 C1215 1.384 . S
H1218 C1224 0.930 1_455 S
H1219 C1228 0.930 1_655 S
H1220 C1233 0.929 . S
H1221 C1231 0.929 . S
H1222 C1226 0.929 . S
H1223 C1232 0.929 . S
C1224 H1218 0.930 1_655 S
C1224 C1225 1.367 . S
C1224 C1232 1.378 1_655 S
C1225 C1224 1.367 . S
C1225 C1233 1.433 . S
C1226 H1222 0.929 . S
C1226 C1228 1.378 1_655 S
C1226 C1230 1.350 1_655 S
C1227 C1230 1.463 1_655 S
C1227 C1232 1.350 1_655 S
C1227 N1235 1.427 . S
C1228 H1219 0.930 1_455 S
C1228 C1226 1.378 1_455 S
C1228 C1229 1.367 . S
C1229 C1228 1.367 . S
C1229 C1231 1.433 . S
C1230 C1226 1.350 1_455 S
C1230 C1227 1.463 1_455 S
C1230 N1234 1.427 . S
C1231 H1221 0.929 . S
C1231 C1229 1.433 . S
C1231 N1234 1.384 . S
C1232 H1223 0.929 . S
C1232 C1224 1.378 1_455 S
C1232 C1227 1.350 1_455 S
C1233 H1220 0.929 . S
C1233 C1225 1.433 . S
C1233 N1235 1.384 . S
N1234 C1230 1.427 . S
N1234 C1231 1.384 . S
N1235 C1227 1.427 . S
N1235 C1233 1.384 . S
H1236 C1242 0.930 . S
H1237 C1246 0.930 . S
H1238 C1251 0.929 . S
H1239 C1249 0.929 . S
H1240 C1244 0.929 . S
H1241 C1250 0.929 . S
C1242 H1236 0.930 . S
C1242 C1243 1.367 . S
C1242 C1250 1.378 . S
C1243 C1242 1.367 . S
C1243 C1251 1.433 . S
C1244 H1240 0.929 . S
C1244 C1246 1.378 . S
C1244 C1248 1.350 . S
C1245 C1248 1.463 1_655 S
C1245 C1250 1.350 . S
C1245 N1253 1.427 . S
C1246 H1237 0.930 . S
C1246 C1244 1.378 . S
C1246 C1247 1.367 . S
C1247 C1246 1.367 . S
C1247 C1249 1.433 . S
C1248 C1244 1.350 . S
C1248 C1245 1.463 1_455 S
C1248 N1252 1.427 . S
C1249 H1239 0.929 . S
C1249 C1247 1.433 . S
C1249 N1252 1.384 . S
C1250 H1241 0.929 . S
C1250 C1242 1.378 . S
C1250 C1245 1.350 . S
C1251 H1238 0.929 . S
C1251 C1243 1.433 . S
C1251 N1253 1.384 . S
N1252 C1248 1.427 . S
N1252 C1249 1.384 . S
N1253 C1245 1.427 . S
N1253 C1251 1.384 . S
H1254 C1260 0.930 . S
H1255 C1264 0.930 . S
H1256 C1269 0.929 . S
H1257 C1267 0.929 . S
H1258 C1262 0.929 . S
H1259 C1268 0.929 . S
C1260 H1254 0.930 . S
C1260 C1261 1.367 . S
C1260 C1268 1.378 . S
C1261 C1260 1.367 . S
C1261 C1269 1.433 . S
C1262 H1258 0.929 . S
C1262 C1264 1.378 . S
C1262 C1266 1.350 . S
C1263 C1266 1.463 . S
C1263 C1268 1.350 . S
C1263 N1271 1.427 . S
C1264 H1255 0.930 . S
C1264 C1262 1.378 . S
C1264 C1265 1.367 . S
C1265 C1264 1.367 . S
C1265 C1267 1.433 . S
C1266 C1262 1.350 . S
C1266 C1263 1.463 . S
C1266 N1270 1.427 . S
C1267 H1257 0.929 . S
C1267 C1265 1.433 . S
C1267 N1270 1.384 . S
C1268 H1259 0.929 . S
C1268 C1260 1.378 . S
C1268 C1263 1.350 . S
C1269 H1256 0.929 . S
C1269 C1261 1.433 . S
C1269 N1271 1.384 . S
N1270 C1266 1.427 . S
N1270 C1267 1.384 . S
N1271 C1263 1.427 . S
N1271 C1269 1.384 . S
H1272 C1278 0.930 . S
H1273 C1282 0.930 . S
H1274 C1287 0.929 . S
H1275 C1285 0.929 . S
H1276 C1280 0.929 . S
H1277 C1286 0.929 . S
C1278 H1272 0.930 . S
C1278 C1279 1.367 . S
C1278 C1286 1.378 . S
C1279 C1278 1.367 . S
C1279 C1287 1.433 . S
C1280 H1276 0.929 . S
C1280 C1282 1.378 . S
C1280 C1284 1.350 . S
C1281 C1284 1.463 . S
C1281 C1286 1.350 . S
C1281 N1289 1.427 . S
C1282 H1273 0.930 . S
C1282 C1280 1.378 . S
C1282 C1283 1.367 . S
C1283 C1282 1.367 . S
C1283 C1285 1.433 . S
C1284 C1280 1.350 . S
C1284 C1281 1.463 . S
C1284 N1288 1.427 . S
C1285 H1275 0.929 . S
C1285 C1283 1.433 . S
C1285 N1288 1.384 . S
C1286 H1277 0.929 . S
C1286 C1278 1.378 . S
C1286 C1281 1.350 . S
C1287 H1274 0.929 . S
C1287 C1279 1.433 . S
C1287 N1289 1.384 . S
N1288 C1284 1.427 . S
N1288 C1285 1.384 . S
N1289 C1281 1.427 . S
N1289 C1287 1.384 . S
H1290 C1296 0.930 . S
H1291 C1300 0.930 . S
H1292 C1305 0.929 . S
H1293 C1303 0.929 . S
H1294 C1298 0.929 . S
H1295 C1304 0.929 . S
C1296 H1290 0.930 . S
C1296 C1297 1.367 . S
C1296 C1304 1.378 . S
C1297 C1296 1.367 . S
C1297 C1305 1.433 . S
C1298 H1294 0.929 . S
C1298 C1300 1.378 . S
C1298 C1302 1.350 . S
C1299 C1302 1.463 . S
C1299 C1304 1.350 . S
C1299 N1307 1.427 . S
C1300 H1291 0.930 . S
C1300 C1298 1.378 . S
C1300 C1301 1.367 . S
C1301 C1300 1.367 . S
C1301 C1303 1.433 . S
C1302 C1298 1.350 . S
C1302 C1299 1.463 . S
C1302 N1306 1.427 . S
C1303 H1293 0.929 . S
C1303 C1301 1.433 . S
C1303 N1306 1.384 . S
C1304 H1295 0.929 . S
C1304 C1296 1.378 . S
C1304 C1299 1.350 . S
C1305 H1292 0.929 . S
C1305 C1297 1.433 . S
C1305 N1307 1.384 . S
N1306 C1302 1.427 . S
N1306 C1303 1.384 . S
N1307 C1299 1.427 . S
N1307 C1305 1.384 . S
H1308 C1314 0.930 . S
H1309 C1318 0.930 . S
H1310 C1323 0.929 . S
H1311 C1321 0.929 . S
H1312 C1316 0.929 . S
H1313 C1322 0.929 . S
C1314 H1308 0.930 . S
C1314 C1315 1.367 . S
C1314 C1322 1.378 . S
C1315 C1314 1.367 . S
C1315 C1323 1.433 . S
C1316 H1312 0.929 . S
C1316 C1318 1.378 . S
C1316 C1320 1.350 . S
C1317 C1320 1.463 1_455 S
C1317 C1322 1.350 . S
C1317 N1325 1.427 . S
C1318 H1309 0.930 . S
C1318 C1316 1.378 . S
C1318 C1319 1.367 . S
C1319 C1318 1.367 . S
C1319 C1321 1.433 . S
C1320 C1316 1.350 . S
C1320 C1317 1.463 1_655 S
C1320 N1324 1.427 . S
C1321 H1311 0.929 . S
C1321 C1319 1.433 . S
C1321 N1324 1.384 . S
C1322 H1313 0.929 . S
C1322 C1314 1.378 . S
C1322 C1317 1.350 . S
C1323 H1310 0.929 . S
C1323 C1315 1.433 . S
C1323 N1325 1.384 . S
N1324 C1320 1.427 . S
N1324 C1321 1.384 . S
N1325 C1317 1.427 . S
N1325 C1323 1.384 . S
H1326 C1332 0.930 1_455 S
H1327 C1336 0.930 1_655 S
H1328 C1341 0.929 . S
H1329 C1339 0.929 . S
H1330 C1334 0.929 . S
H1331 C1340 0.929 . S
C1332 H1326 0.930 1_655 S
C1332 C1333 1.367 . S
C1332 C1340 1.378 1_655 S
C1333 C1332 1.367 . S
C1333 C1341 1.433 . S
C1334 H1330 0.929 . S
C1334 C1336 1.378 1_655 S
C1334 C1338 1.350 1_655 S
C1335 C1338 1.463 1_655 S
C1335 C1340 1.350 1_655 S
C1335 N1343 1.427 . S
C1336 H1327 0.930 1_455 S
C1336 C1334 1.378 1_455 S
C1336 C1337 1.367 . S
C1337 C1336 1.367 . S
C1337 C1339 1.433 . S
C1338 C1334 1.350 1_455 S
C1338 C1335 1.463 1_455 S
C1338 N1342 1.427 . S
C1339 H1329 0.929 . S
C1339 C1337 1.433 . S
C1339 N1342 1.384 . S
C1340 H1331 0.929 . S
C1340 C1332 1.378 1_455 S
C1340 C1335 1.350 1_455 S
C1341 H1328 0.929 . S
C1341 C1333 1.433 . S
C1341 N1343 1.384 . S
N1342 C1338 1.427 . S
N1342 C1339 1.384 . S
N1343 C1335 1.427 . S
N1343 C1341 1.384 . S
H1344 C1350 0.930 . S
H1345 C1354 0.930 . S
H1346 C1359 0.929 . S
H1347 C1357 0.929 . S
H1348 C1352 0.929 . S
H1349 C1358 0.929 . S
C1350 H1344 0.930 . S
C1350 C1351 1.367 . S
C1350 C1358 1.378 . S
C1351 C1350 1.367 . S
C1351 C1359 1.433 . S
C1352 H1348 0.929 . S
C1352 C1354 1.378 . S
C1352 C1356 1.350 . S
C1353 C1356 1.463 . S
C1353 C1358 1.350 . S
C1353 N1361 1.427 . S
C1354 H1345 0.930 . S
C1354 C1352 1.378 . S
C1354 C1355 1.367 . S
C1355 C1354 1.367 . S
C1355 C1357 1.433 . S
C1356 C1352 1.350 . S
C1356 C1353 1.463 . S
C1356 N1360 1.427 . S
C1357 H1347 0.929 . S
C1357 C1355 1.433 . S
C1357 N1360 1.384 . S
C1358 H1349 0.929 . S
C1358 C1350 1.378 . S
C1358 C1353 1.350 . S
C1359 H1346 0.929 . S
C1359 C1351 1.433 . S
C1359 N1361 1.384 . S
N1360 C1356 1.427 . S
N1360 C1357 1.384 . S
N1361 C1353 1.427 . S
N1361 C1359 1.384 . S
H1362 C1368 0.930 . S
H1363 C1372 0.930 . S
H1364 C1377 0.929 . S
H1365 C1375 0.929 . S
H1366 C1370 0.929 . S
H1367 C1376 0.929 . S
C1368 H1362 0.930 . S
C1368 C1369 1.367 . S
C1368 C1376 1.378 . S
C1369 C1368 1.367 . S
C1369 C1377 1.433 . S
C1370 H1366 0.929 . S
C1370 C1372 1.378 . S
C1370 C1374 1.350 . S
C1371 C1374 1.463 . S
C1371 C1376 1.350 . S
C1371 N1379 1.427 . S
C1372 H1363 0.930 . S
C1372 C1370 1.378 . S
C1372 C1373 1.367 . S
C1373 C1372 1.367 . S
C1373 C1375 1.433 . S
C1374 C1370 1.350 . S
C1374 C1371 1.463 . S
C1374 N1378 1.427 . S
C1375 H1365 0.929 . S
C1375 C1373 1.433 . S
C1375 N1378 1.384 . S
C1376 H1367 0.929 . S
C1376 C1368 1.378 . S
C1376 C1371 1.350 . S
C1377 H1364 0.929 . S
C1377 C1369 1.433 . S
C1377 N1379 1.384 . S
N1378 C1374 1.427 . S
N1378 C1375 1.384 . S
N1379 C1371 1.427 . S
N1379 C1377 1.384 . S
H1380 C1386 0.930 . S
H1381 C1390 0.930 . S
H1382 C1395 0.929 . S
H1383 C1393 0.929 . S
H1384 C1388 0.929 . S
H1385 C1394 0.929 . S
C1386 H1380 0.930 . S
C1386 C1387 1.367 . S
C1386 C1394 1.378 . S
C1387 C1386 1.367 . S
C1387 C1395 1.433 . S
C1388 H1384 0.929 . S
C1388 C1390 1.378 . S
C1388 C1392 1.350 . S
C1389 C1392 1.463 . S
C1389 C1394 1.350 . S
C1389 N1397 1.427 . S
C1390 H1381 0.930 . S
C1390 C1388 1.378 . S
C1390 C1391 1.367 . S
C1391 C1390 1.367 . S
C1391 C1393 1.433 . S
C1392 C1388 1.350 . S
C1392 C1389 1.463 . S
C1392 N1396 1.427 . S
C1393 H1383 0.929 . S
C1393 C1391 1.433 . S
C1393 N1396 1.384 . S
C1394 H1385 0.929 . S
C1394 C1386 1.378 . S
C1394 C1389 1.350 . S
C1395 H1382 0.929 . S
C1395 C1387 1.433 . S
C1395 N1397 1.384 . S
N1396 C1392 1.427 . S
N1396 C1393 1.384 . S
N1397 C1389 1.427 . S
N1397 C1395 1.384 . S
H1398 C1404 0.930 . S
H1399 C1408 0.930 . S
H1400 C1413 0.929 . S
H1401 C1411 0.929 . S
H1402 C1406 0.929 . S
H1403 C1412 0.929 . S
C1404 H1398 0.930 . S
C1404 C1405 1.367 . S
C1404 C1412 1.378 . S
C1405 C1404 1.367 . S
C1405 C1413 1.433 . S
C1406 H1402 0.929 . S
C1406 C1408 1.378 . S
C1406 C1410 1.350 . S
C1407 C1410 1.463 . S
C1407 C1412 1.350 . S
C1407 N1415 1.427 . S
C1408 H1399 0.930 . S
C1408 C1406 1.378 . S
C1408 C1409 1.367 . S
C1409 C1408 1.367 . S
C1409 C1411 1.433 . S
C1410 C1406 1.350 . S
C1410 C1407 1.463 . S
C1410 N1414 1.427 . S
C1411 H1401 0.929 . S
C1411 C1409 1.433 . S
C1411 N1414 1.384 . S
C1412 H1403 0.929 . S
C1412 C1404 1.378 . S
C1412 C1407 1.350 . S
C1413 H1400 0.929 . S
C1413 C1405 1.433 . S
C1413 N1415 1.384 . S
N1414 C1410 1.427 . S
N1414 C1411 1.384 . S
N1415 C1407 1.427 . S
N1415 C1413 1.384 . S
H1416 C1422 0.930 . S
H1417 C1426 0.930 . S
H1418 C1431 0.929 . S
H1419 C1429 0.929 . S
H1420 C1424 0.929 . S
H1421 C1430 0.929 . S
C1422 H1416 0.930 . S
C1422 C1423 1.367 . S
C1422 C1430 1.378 . S
C1423 C1422 1.367 . S
C1423 C1431 1.433 . S
C1424 H1420 0.929 . S
C1424 C1426 1.378 . S
C1424 C1428 1.350 . S
C1425 C1428 1.463 . S
C1425 C1430 1.350 . S
C1425 N1433 1.427 . S
C1426 H1417 0.930 . S
C1426 C1424 1.378 . S
C1426 C1427 1.367 . S
C1427 C1426 1.367 . S
C1427 C1429 1.433 . S
C1428 C1424 1.350 . S
C1428 C1425 1.463 . S
C1428 N1432 1.427 . S
C1429 H1419 0.929 . S
C1429 C1427 1.433 . S
C1429 N1432 1.384 . S
C1430 H1421 0.929 . S
C1430 C1422 1.378 . S
C1430 C1425 1.350 . S
C1431 H1418 0.929 . S
C1431 C1423 1.433 . S
C1431 N1433 1.384 . S
N1432 C1428 1.427 . S
N1432 C1429 1.384 . S
N1433 C1425 1.427 . S
N1433 C1431 1.384 . S
H1434 C1440 0.930 . S
H1435 C1444 0.930 . S
H1436 C1449 0.929 . S
H1437 C1447 0.929 . S
H1438 C1442 0.929 . S
H1439 C1448 0.929 . S
C1440 H1434 0.930 . S
C1440 C1441 1.367 . S
C1440 C1448 1.378 . S
C1441 C1440 1.367 . S
C1441 C1449 1.433 . S
C1442 H1438 0.929 . S
C1442 C1444 1.378 . S
C1442 C1446 1.350 . S
C1443 C1446 1.463 . S
C1443 C1448 1.350 . S
C1443 N1451 1.427 . S
C1444 H1435 0.930 . S
C1444 C1442 1.378 . S
C1444 C1445 1.367 . S
C1445 C1444 1.367 . S
C1445 C1447 1.433 . S
C1446 C1442 1.350 . S
C1446 C1443 1.463 . S
C1446 N1450 1.427 . S
C1447 H1437 0.929 . S
C1447 C1445 1.433 . S
C1447 N1450 1.384 . S
C1448 H1439 0.929 . S
C1448 C1440 1.378 . S
C1448 C1443 1.350 . S
C1449 H1436 0.929 . S
C1449 C1441 1.433 . S
C1449 N1451 1.384 . S
N1450 C1446 1.427 . S
N1450 C1447 1.384 . S
N1451 C1443 1.427 . S
N1451 C1449 1.384 . S
H1452 C1458 0.930 . S
H1453 C1462 0.930 . S
H1454 C1467 0.929 . S
H1455 C1465 0.929 . S
H1456 C1460 0.929 . S
H1457 C1466 0.929 . S
C1458 H1452 0.930 . S
C1458 C1459 1.367 . S
C1458 C1466 1.378 . S
C1459 C1458 1.367 . S
C1459 C1467 1.433 . S
C1460 H1456 0.929 . S
C1460 C1462 1.378 . S
C1460 C1464 1.350 . S
C1461 C1464 1.463 . S
C1461 C1466 1.350 . S
C1461 N1469 1.427 . S
C1462 H1453 0.930 . S
C1462 C1460 1.378 . S
C1462 C1463 1.367 . S
C1463 C1462 1.367 . S
C1463 C1465 1.433 . S
C1464 C1460 1.350 . S
C1464 C1461 1.463 . S
C1464 N1468 1.427 . S
C1465 H1455 0.929 . S
C1465 C1463 1.433 . S
C1465 N1468 1.384 . S
C1466 H1457 0.929 . S
C1466 C1458 1.378 . S
C1466 C1461 1.350 . S
C1467 H1454 0.929 . S
C1467 C1459 1.433 . S
C1467 N1469 1.384 . S
N1468 C1464 1.427 . S
N1468 C1465 1.384 . S
N1469 C1461 1.427 . S
N1469 C1467 1.384 . S
H1470 C1476 0.930 . S
H1471 C1480 0.930 . S
H1472 C1485 0.929 . S
H1473 C1483 0.929 . S
H1474 C1478 0.929 . S
H1475 C1484 0.929 . S
C1476 H1470 0.930 . S
C1476 C1477 1.367 . S
C1476 C1484 1.378 . S
C1477 C1476 1.367 . S
C1477 C1485 1.433 . S
C1478 H1474 0.929 . S
C1478 C1480 1.378 . S
C1478 C1482 1.350 . S
C1479 C1482 1.463 . S
C1479 C1484 1.350 . S
C1479 N1487 1.427 . S
C1480 H1471 0.930 . S
C1480 C1478 1.378 . S
C1480 C1481 1.367 . S
C1481 C1480 1.367 . S
C1481 C1483 1.433 . S
C1482 C1478 1.350 . S
C1482 C1479 1.463 . S
C1482 N1486 1.427 . S
C1483 H1473 0.929 . S
C1483 C1481 1.433 . S
C1483 N1486 1.384 . S
C1484 H1475 0.929 . S
C1484 C1476 1.378 . S
C1484 C1479 1.350 . S
C1485 H1472 0.929 . S
C1485 C1477 1.433 . S
C1485 N1487 1.384 . S
N1486 C1482 1.427 . S
N1486 C1483 1.384 . S
N1487 C1479 1.427 . S
N1487 C1485 1.384 . S
H1488 C1494 0.930 . S
H1489 C1498 0.930 . S
H1490 C1503 0.929 . S
H1491 C1501 0.929 . S
H1492 C1496 0.929 . S
H1493 C1502 0.929 . S
C1494 H1488 0.930 . S
C1494 C1495 1.367 . S
C1494 C1502 1.378 . S
C1495 C1494 1.367 . S
C1495 C1503 1.433 . S
C1496 H1492 0.929 . S
C1496 C1498 1.378 . S
C1496 C1500 1.350 . S
C1497 C1500 1.463 . S
C1497 C1502 1.350 . S
C1497 N1505 1.427 . S
C1498 H1489 0.930 . S
C1498 C1496 1.378 . S
C1498 C1499 1.367 . S
C1499 C1498 1.367 . S
C1499 C1501 1.433 . S
C1500 C1496 1.350 . S
C1500 C1497 1.463 . S
C1500 N1504 1.427 . S
C1501 H1491 0.929 . S
C1501 C1499 1.433 . S
C1501 N1504 1.384 . S
C1502 H1493 0.929 . S
C1502 C1494 1.378 . S
C1502 C1497 1.350 . S
C1503 H1490 0.929 . S
C1503 C1495 1.433 . S
C1503 N1505 1.384 . S
N1504 C1500 1.427 . S
N1504 C1501 1.384 . S
N1505 C1497 1.427 . S
N1505 C1503 1.384 . S
H1506 C1512 0.930 . S
H1507 C1516 0.930 . S
H1508 C1521 0.929 . S
H1509 C1519 0.929 . S
H1510 C1514 0.929 . S
H1511 C1520 0.929 . S
C1512 H1506 0.930 . S
C1512 C1513 1.367 . S
C1512 C1520 1.378 . S
C1513 C1512 1.367 . S
C1513 C1521 1.433 . S
C1514 H1510 0.929 . S
C1514 C1516 1.378 . S
C1514 C1518 1.350 . S
C1515 C1518 1.463 . S
C1515 C1520 1.350 . S
C1515 N1523 1.427 . S
C1516 H1507 0.930 . S
C1516 C1514 1.378 . S
C1516 C1517 1.367 . S
C1517 C1516 1.367 . S
C1517 C1519 1.433 . S
C1518 C1514 1.350 . S
C1518 C1515 1.463 . S
C1518 N1522 1.427 . S
C1519 H1509 0.929 . S
C1519 C1517 1.433 . S
C1519 N1522 1.384 . S
C1520 H1511 0.929 . S
C1520 C1512 1.378 . S
C1520 C1515 1.350 . S
C1521 H1508 0.929 . S
C1521 C1513 1.433 . S
C1521 N1523 1.384 . S
N1522 C1518 1.427 . S
N1522 C1519 1.384 . S
N1523 C1515 1.427 . S
N1523 C1521 1.384 . S
H1524 C1530 0.930 . S
H1525 C1534 0.930 . S
H1526 C1539 0.929 . S
H1527 C1537 0.929 . S
H1528 C1532 0.929 . S
H1529 C1538 0.929 . S
C1530 H1524 0.930 . S
C1530 C1531 1.367 . S
C1530 C1538 1.378 . S
C1531 C1530 1.367 . S
C1531 C1539 1.433 . S
C1532 H1528 0.929 . S
C1532 C1534 1.378 . S
C1532 C1536 1.350 . S
C1533 C1536 1.463 . S
C1533 C1538 1.350 . S
C1533 N1541 1.427 . S
C1534 H1525 0.930 . S
C1534 C1532 1.378 . S
C1534 C1535 1.367 . S
C1535 C1534 1.367 . S
C1535 C1537 1.433 . S
C1536 C1532 1.350 . S
C1536 C1533 1.463 . S
C1536 N1540 1.427 . S
C1537 H1527 0.929 . S
C1537 C1535 1.433 . S
C1537 N1540 1.384 . S
C1538 H1529 0.929 . S
C1538 C1530 1.378 . S
C1538 C1533 1.350 . S
C1539 H1526 0.929 . S
C1539 C1531 1.433 . S
C1539 N1541 1.384 . S
N1540 C1536 1.427 . S
N1540 C1537 1.384 . S
N1541 C1533 1.427 . S
N1541 C1539 1.384 . S
H1542 C1548 0.930 . S
H1543 C1552 0.930 . S
H1544 C1557 0.929 . S
H1545 C1555 0.929 . S
H1546 C1550 0.929 . S
H1547 C1556 0.929 . S
C1548 H1542 0.930 . S
C1548 C1549 1.367 . S
C1548 C1556 1.378 . S
C1549 C1548 1.367 . S
C1549 C1557 1.433 . S
C1550 H1546 0.929 . S
C1550 C1552 1.378 . S
C1550 C1554 1.350 . S
C1551 C1554 1.463 . S
C1551 C1556 1.350 . S
C1551 N1559 1.427 . S
C1552 H1543 0.930 . S
C1552 C1550 1.378 . S
C1552 C1553 1.367 . S
C1553 C1552 1.367 . S
C1553 C1555 1.433 . S
C1554 C1550 1.350 . S
C1554 C1551 1.463 . S
C1554 N1558 1.427 . S
C1555 H1545 0.929 . S
C1555 C1553 1.433 . S
C1555 N1558 1.384 . S
C1556 H1547 0.929 . S
C1556 C1548 1.378 . S
C1556 C1551 1.350 . S
C1557 H1544 0.929 . S
C1557 C1549 1.433 . S
C1557 N1559 1.384 . S
N1558 C1554 1.427 . S
N1558 C1555 1.384 . S
N1559 C1551 1.427 . S
N1559 C1557 1.384 . S
H1560 C1566 0.930 . S
H1561 C1570 0.930 . S
H1562 C1575 0.929 . S
H1563 C1573 0.929 . S
H1564 C1568 0.929 . S
H1565 C1574 0.929 . S
C1566 H1560 0.930 . S
C1566 C1567 1.367 . S
C1566 C1574 1.378 . S
C1567 C1566 1.367 . S
C1567 C1575 1.433 . S
C1568 H1564 0.929 . S
C1568 C1570 1.378 . S
C1568 C1572 1.350 . S
C1569 C1572 1.463 . S
C1569 C1574 1.350 . S
C1569 N1577 1.427 . S
C1570 H1561 0.930 . S
C1570 C1568 1.378 . S
C1570 C1571 1.367 . S
C1571 C1570 1.367 . S
C1571 C1573 1.433 . S
C1572 C1568 1.350 . S
C1572 C1569 1.463 . S
C1572 N1576 1.427 . S
C1573 H1563 0.929 . S
C1573 C1571 1.433 . S
C1573 N1576 1.384 . S
C1574 H1565 0.929 . S
C1574 C1566 1.378 . S
C1574 C1569 1.350 . S
C1575 H1562 0.929 . S
C1575 C1567 1.433 . S
C1575 N1577 1.384 . S
N1576 C1572 1.427 . S
N1576 C1573 1.384 . S
N1577 C1569 1.427 . S
N1577 C1575 1.384 . S
H1578 C1584 0.930 . S
H1579 C1588 0.930 . S
H1580 C1593 0.929 . S
H1581 C1591 0.929 . S
H1582 C1586 0.929 . S
H1583 C1592 0.929 . S
C1584 H1578 0.930 . S
C1584 C1585 1.367 . S
C1584 C1592 1.378 . S
C1585 C1584 1.367 . S
C1585 C1593 1.433 . S
C1586 H1582 0.929 . S
C1586 C1588 1.378 . S
C1586 C1590 1.350 . S
C1587 C1590 1.463 . S
C1587 C1592 1.350 . S
C1587 N1595 1.427 . S
C1588 H1579 0.930 . S
C1588 C1586 1.378 . S
C1588 C1589 1.367 . S
C1589 C1588 1.367 . S
C1589 C1591 1.433 . S
C1590 C1586 1.350 . S
C1590 C1587 1.463 . S
C1590 N1594 1.427 . S
C1591 H1581 0.929 . S
C1591 C1589 1.433 . S
C1591 N1594 1.384 . S
C1592 H1583 0.929 . S
C1592 C1584 1.378 . S
C1592 C1587 1.350 . S
C1593 H1580 0.929 . S
C1593 C1585 1.433 . S
C1593 N1595 1.384 . S
N1594 C1590 1.427 . S
N1594 C1591 1.384 . S
N1595 C1587 1.427 . S
N1595 C1593 1.384 . S
H1596 C1602 0.930 . S
H1597 C1606 0.930 . S
H1598 C1611 0.929 . S
H1599 C1609 0.929 . S
H1600 C1604 0.929 . S
H1601 C1610 0.929 . S
C1602 H1596 0.930 . S
C1602 C1603 1.367 . S
C1602 C1610 1.378 . S
C1603 C1602 1.367 . S
C1603 C1611 1.433 . S
C1604 H1600 0.929 . S
C1604 C1606 1.378 . S
C1604 C1608 1.350 . S
C1605 C1608 1.463 . S
C1605 C1610 1.350 . S
C1605 N1613 1.427 . S
C1606 H1597 0.930 . S
C1606 C1604 1.378 . S
C1606 C1607 1.367 . S
C1607 C1606 1.367 . S
C1607 C1609 1.433 . S
C1608 C1604 1.350 . S
C1608 C1605 1.463 . S
C1608 N1612 1.427 . S
C1609 H1599 0.929 . S
C1609 C1607 1.433 . S
C1609 N1612 1.384 . S
C1610 H1601 0.929 . S
C1610 C1602 1.378 . S
C1610 C1605 1.350 . S
C1611 H1598 0.929 . S
C1611 C1603 1.433 . S
C1611 N1613 1.384 . S
N1612 C1608 1.427 . S
N1612 C1609 1.384 . S
N1613 C1605 1.427 . S
N1613 C1611 1.384 . S
H1614 C1620 0.930 . S
H1615 C1624 0.930 . S
H1616 C1629 0.929 . S
H1617 C1627 0.929 . S
H1618 C1622 0.929 . S
H1619 C1628 0.929 . S
C1620 H1614 0.930 . S
C1620 C1621 1.367 . S
C1620 C1628 1.378 . S
C1621 C1620 1.367 . S
C1621 C1629 1.433 . S
C1622 H1618 0.929 . S
C1622 C1624 1.378 . S
C1622 C1626 1.350 . S
C1623 C1626 1.463 . S
C1623 C1628 1.350 . S
C1623 N1631 1.427 . S
C1624 H1615 0.930 . S
C1624 C1622 1.378 . S
C1624 C1625 1.367 . S
C1625 C1624 1.367 . S
C1625 C1627 1.433 . S
C1626 C1622 1.350 . S
C1626 C1623 1.463 . S
C1626 N1630 1.427 . S
C1627 H1617 0.929 . S
C1627 C1625 1.433 . S
C1627 N1630 1.384 . S
C1628 H1619 0.929 . S
C1628 C1620 1.378 . S
C1628 C1623 1.350 . S
C1629 H1616 0.929 . S
C1629 C1621 1.433 . S
C1629 N1631 1.384 . S
N1630 C1626 1.427 . S
N1630 C1627 1.384 . S
N1631 C1623 1.427 . S
N1631 C1629 1.384 . S
H1632 C1638 0.930 . S
H1633 C1642 0.930 . S
H1634 C1647 0.929 . S
H1635 C1645 0.929 . S
H1636 C1640 0.929 . S
H1637 C1646 0.929 . S
C1638 H1632 0.930 . S
C1638 C1639 1.367 . S
C1638 C1646 1.378 . S
C1639 C1638 1.367 . S
C1639 C1647 1.433 . S
C1640 H1636 0.929 . S
C1640 C1642 1.378 . S
C1640 C1644 1.350 . S
C1641 C1644 1.463 . S
C1641 C1646 1.350 . S
C1641 N1649 1.427 . S
C1642 H1633 0.930 . S
C1642 C1640 1.378 . S
C1642 C1643 1.367 . S
C1643 C1642 1.367 . S
C1643 C1645 1.433 . S
C1644 C1640 1.350 . S
C1644 C1641 1.463 . S
C1644 N1648 1.427 . S
C1645 H1635 0.929 . S
C1645 C1643 1.433 . S
C1645 N1648 1.384 . S
C1646 H1637 0.929 . S
C1646 C1638 1.378 . S
C1646 C1641 1.350 . S
C1647 H1634 0.929 . S
C1647 C1639 1.433 . S
C1647 N1649 1.384 . S
N1648 C1644 1.427 . S
N1648 C1645 1.384 . S
N1649 C1641 1.427 . S
N1649 C1647 1.384 . S
H1650 C1656 0.930 . S
H1651 C1660 0.930 . S
H1652 C1665 0.929 . S
H1653 C1663 0.929 . S
H1654 C1658 0.929 . S
H1655 C1664 0.929 . S
C1656 H1650 0.930 . S
C1656 C1657 1.367 . S
C1656 C1664 1.378 . S
C1657 C1656 1.367 . S
C1657 C1665 1.433 . S
C1658 H1654 0.929 . S
C1658 C1660 1.378 . S
C1658 C1662 1.350 . S
C1659 C1662 1.463 . S
C1659 C1664 1.350 . S
C1659 N1667 1.427 . S
C1660 H1651 0.930 . S
C1660 C1658 1.378 . S
C1660 C1661 1.367 . S
C1661 C1660 1.367 . S
C1661 C1663 1.433 . S
C1662 C1658 1.350 . S
C1662 C1659 1.463 . S
C1662 N1666 1.427 . S
C1663 H1653 0.929 . S
C1663 C1661 1.433 . S
C1663 N1666 1.384 . S
C1664 H1655 0.929 . S
C1664 C1656 1.378 . S
C1664 C1659 1.350 . S
C1665 H1652 0.929 . S
C1665 C1657 1.433 . S
C1665 N1667 1.384 . S
N1666 C1662 1.427 . S
N1666 C1663 1.384 . S
N1667 C1659 1.427 . S
N1667 C1665 1.384 . S
H1668 C1674 0.930 . S
H1669 C1678 0.930 . S
H1670 C1683 0.929 . S
H1671 C1681 0.929 . S
H1672 C1676 0.929 . S
H1673 C1682 0.929 . S
C1674 H1668 0.930 . S
C1674 C1675 1.367 . S
C1674 C1682 1.378 . S
C1675 C1674 1.367 . S
C1675 C1683 1.433 . S
C1676 H1672 0.929 . S
C1676 C1678 1.378 . S
C1676 C1680 1.350 . S
C1677 C1680 1.463 . S
C1677 C1682 1.350 . S
C1677 N1685 1.427 . S
C1678 H1669 0.930 . S
C1678 C1676 1.378 . S
C1678 C1679 1.367 . S
C1679 C1678 1.367 . S
C1679 C1681 1.433 . S
C1680 C1676 1.350 . S
C1680 C1677 1.463 . S
C1680 N1684 1.427 . S
C1681 H1671 0.929 . S
C1681 C1679 1.433 . S
C1681 N1684 1.384 . S
C1682 H1673 0.929 . S
C1682 C1674 1.378 . S
C1682 C1677 1.350 . S
C1683 H1670 0.929 . S
C1683 C1675 1.433 . S
C1683 N1685 1.384 . S
N1684 C1680 1.427 . S
N1684 C1681 1.384 . S
N1685 C1677 1.427 . S
N1685 C1683 1.384 . S
H1686 C1692 0.930 . S
H1687 C1696 0.930 . S
H1688 C1701 0.929 . S
H1689 C1699 0.929 . S
H1690 C1694 0.929 . S
H1691 C1700 0.929 . S
C1692 H1686 0.930 . S
C1692 C1693 1.367 . S
C1692 C1700 1.378 . S
C1693 C1692 1.367 . S
C1693 C1701 1.433 . S
C1694 H1690 0.929 . S
C1694 C1696 1.378 . S
C1694 C1698 1.350 . S
C1695 C1698 1.463 . S
C1695 C1700 1.350 . S
C1695 N1703 1.427 . S
C1696 H1687 0.930 . S
C1696 C1694 1.378 . S
C1696 C1697 1.367 . S
C1697 C1696 1.367 . S
C1697 C1699 1.433 . S
C1698 C1694 1.350 . S
C1698 C1695 1.463 . S
C1698 N1702 1.427 . S
C1699 H1689 0.929 . S
C1699 C1697 1.433 . S
C1699 N1702 1.384 . S
C1700 H1691 0.929 . S
C1700 C1692 1.378 . S
C1700 C1695 1.350 . S
C1701 H1688 0.929 . S
C1701 C1693 1.433 . S
C1701 N1703 1.384 . S
N1702 C1698 1.427 . S
N1702 C1699 1.384 . S
N1703 C1695 1.427 . S
N1703 C1701 1.384 . S
H1704 C1710 0.930 . S
H1705 C1714 0.930 . S
H1706 C1719 0.929 . S
H1707 C1717 0.929 . S
H1708 C1712 0.929 . S
H1709 C1718 0.929 . S
C1710 H1704 0.930 . S
C1710 C1711 1.367 . S
C1710 C1718 1.378 . S
C1711 C1710 1.367 . S
C1711 C1719 1.433 . S
C1712 H1708 0.929 . S
C1712 C1714 1.378 . S
C1712 C1716 1.350 . S
C1713 C1716 1.463 . S
C1713 C1718 1.350 . S
C1713 N1721 1.427 . S
C1714 H1705 0.930 . S
C1714 C1712 1.378 . S
C1714 C1715 1.367 . S
C1715 C1714 1.367 . S
C1715 C1717 1.433 . S
C1716 C1712 1.350 . S
C1716 C1713 1.463 . S
C1716 N1720 1.427 . S
C1717 H1707 0.929 . S
C1717 C1715 1.433 . S
C1717 N1720 1.384 . S
C1718 H1709 0.929 . S
C1718 C1710 1.378 . S
C1718 C1713 1.350 . S
C1719 H1706 0.929 . S
C1719 C1711 1.433 . S
C1719 N1721 1.384 . S
N1720 C1716 1.427 . S
N1720 C1717 1.384 . S
N1721 C1713 1.427 . S
N1721 C1719 1.384 . S
H1722 C1728 0.930 . S
H1723 C1732 0.930 . S
H1724 C1737 0.929 . S
H1725 C1735 0.929 . S
H1726 C1730 0.929 . S
H1727 C1736 0.929 . S
C1728 H1722 0.930 . S
C1728 C1729 1.367 . S
C1728 C1736 1.378 . S
C1729 C1728 1.367 . S
C1729 C1737 1.433 . S
C1730 H1726 0.929 . S
C1730 C1732 1.378 . S
C1730 C1734 1.350 . S
C1731 C1734 1.463 . S
C1731 C1736 1.350 . S
C1731 N1739 1.427 . S
C1732 H1723 0.930 . S
C1732 C1730 1.378 . S
C1732 C1733 1.367 . S
C1733 C1732 1.367 . S
C1733 C1735 1.433 . S
C1734 C1730 1.350 . S
C1734 C1731 1.463 . S
C1734 N1738 1.427 . S
C1735 H1725 0.929 . S
C1735 C1733 1.433 . S
C1735 N1738 1.384 . S
C1736 H1727 0.929 . S
C1736 C1728 1.378 . S
C1736 C1731 1.350 . S
C1737 H1724 0.929 . S
C1737 C1729 1.433 . S
C1737 N1739 1.384 . S
N1738 C1734 1.427 . S
N1738 C1735 1.384 . S
N1739 C1731 1.427 . S
N1739 C1737 1.384 . S
H1740 C1746 0.930 . S
H1741 C1750 0.930 . S
H1742 C1755 0.929 . S
H1743 C1753 0.929 . S
H1744 C1748 0.929 . S
H1745 C1754 0.929 . S
C1746 H1740 0.930 . S
C1746 C1747 1.367 . S
C1746 C1754 1.378 . S
C1747 C1746 1.367 . S
C1747 C1755 1.433 . S
C1748 H1744 0.929 . S
C1748 C1750 1.378 . S
C1748 C1752 1.350 . S
C1749 C1752 1.463 . S
C1749 C1754 1.350 . S
C1749 N1757 1.427 . S
C1750 H1741 0.930 . S
C1750 C1748 1.378 . S
C1750 C1751 1.367 . S
C1751 C1750 1.367 . S
C1751 C1753 1.433 . S
C1752 C1748 1.350 . S
C1752 C1749 1.463 . S
C1752 N1756 1.427 . S
C1753 H1743 0.929 . S
C1753 C1751 1.433 . S
C1753 N1756 1.384 . S
C1754 H1745 0.929 . S
C1754 C1746 1.378 . S
C1754 C1749 1.350 . S
C1755 H1742 0.929 . S
C1755 C1747 1.433 . S
C1755 N1757 1.384 . S
N1756 C1752 1.427 . S
N1756 C1753 1.384 . S
N1757 C1749 1.427 . S
N1757 C1755 1.384 . S
H1758 C1764 0.930 . S
H1759 C1768 0.930 . S
H1760 C1773 0.929 . S
H1761 C1771 0.929 . S
H1762 C1766 0.929 . S
H1763 C1772 0.929 . S
C1764 H1758 0.930 . S
C1764 C1765 1.367 . S
C1764 C1772 1.378 . S
C1765 C1764 1.367 . S
C1765 C1773 1.433 . S
C1766 H1762 0.929 . S
C1766 C1768 1.378 . S
C1766 C1770 1.350 . S
C1767 C1770 1.463 . S
C1767 C1772 1.350 . S
C1767 N1775 1.427 . S
C1768 H1759 0.930 . S
C1768 C1766 1.378 . S
C1768 C1769 1.367 . S
C1769 C1768 1.367 . S
C1769 C1771 1.433 . S
C1770 C1766 1.350 . S
C1770 C1767 1.463 . S
C1770 N1774 1.427 . S
C1771 H1761 0.929 . S
C1771 C1769 1.433 . S
C1771 N1774 1.384 . S
C1772 H1763 0.929 . S
C1772 C1764 1.378 . S
C1772 C1767 1.350 . S
C1773 H1760 0.929 . S
C1773 C1765 1.433 . S
C1773 N1775 1.384 . S
N1774 C1770 1.427 . S
N1774 C1771 1.384 . S
N1775 C1767 1.427 . S
N1775 C1773 1.384 . S
H1776 C1782 0.930 . S
H1777 C1786 0.930 . S
H1778 C1791 0.929 . S
H1779 C1789 0.929 . S
H1780 C1784 0.929 . S
H1781 C1790 0.929 . S
C1782 H1776 0.930 . S
C1782 C1783 1.367 . S
C1782 C1790 1.378 . S
C1783 C1782 1.367 . S
C1783 C1791 1.433 . S
C1784 H1780 0.929 . S
C1784 C1786 1.378 . S
C1784 C1788 1.350 . S
C1785 C1788 1.463 . S
C1785 C1790 1.350 . S
C1785 N1793 1.427 . S
C1786 H1777 0.930 . S
C1786 C1784 1.378 . S
C1786 C1787 1.367 . S
C1787 C1786 1.367 . S
C1787 C1789 1.433 . S
C1788 C1784 1.350 . S
C1788 C1785 1.463 . S
C1788 N1792 1.427 . S
C1789 H1779 0.929 . S
C1789 C1787 1.433 . S
C1789 N1792 1.384 . S
C1790 H1781 0.929 . S
C1790 C1782 1.378 . S
C1790 C1785 1.350 . S
C1791 H1778 0.929 . S
C1791 C1783 1.433 . S
C1791 N1793 1.384 . S
N1792 C1788 1.427 . S
N1792 C1789 1.384 . S
N1793 C1785 1.427 . S
N1793 C1791 1.384 . S
H1794 C1800 0.930 . S
H1795 C1804 0.930 . S
H1796 C1809 0.929 . S
H1797 C1807 0.929 . S
H1798 C1802 0.929 . S
H1799 C1808 0.929 . S
C1800 H1794 0.930 . S
C1800 C1801 1.367 . S
C1800 C1808 1.378 . S
C1801 C1800 1.367 . S
C1801 C1809 1.433 . S
C1802 H1798 0.929 . S
C1802 C1804 1.378 . S
C1802 C1806 1.350 . S
C1803 C1806 1.463 . S
C1803 C1808 1.350 . S
C1803 N1811 1.427 . S
C1804 H1795 0.930 . S
C1804 C1802 1.378 . S
C1804 C1805 1.367 . S
C1805 C1804 1.367 . S
C1805 C1807 1.433 . S
C1806 C1802 1.350 . S
C1806 C1803 1.463 . S
C1806 N1810 1.427 . S
C1807 H1797 0.929 . S
C1807 C1805 1.433 . S
C1807 N1810 1.384 . S
C1808 H1799 0.929 . S
C1808 C1800 1.378 . S
C1808 C1803 1.350 . S
C1809 H1796 0.929 . S
C1809 C1801 1.433 . S
C1809 N1811 1.384 . S
N1810 C1806 1.427 . S
N1810 C1807 1.384 . S
N1811 C1803 1.427 . S
N1811 C1809 1.384 . S
H1812 C1818 0.930 . S
H1813 C1822 0.930 . S
H1814 C1827 0.929 . S
H1815 C1825 0.929 . S
H1816 C1820 0.929 . S
H1817 C1826 0.929 . S
C1818 H1812 0.930 . S
C1818 C1819 1.367 . S
C1818 C1826 1.378 . S
C1819 C1818 1.367 . S
C1819 C1827 1.433 . S
C1820 H1816 0.929 . S
C1820 C1822 1.378 . S
C1820 C1824 1.350 . S
C1821 C1824 1.463 . S
C1821 C1826 1.350 . S
C1821 N1829 1.427 . S
C1822 H1813 0.930 . S
C1822 C1820 1.378 . S
C1822 C1823 1.367 . S
C1823 C1822 1.367 . S
C1823 C1825 1.433 . S
C1824 C1820 1.350 . S
C1824 C1821 1.463 . S
C1824 N1828 1.427 . S
C1825 H1815 0.929 . S
C1825 C1823 1.433 . S
C1825 N1828 1.384 . S
C1826 H1817 0.929 . S
C1826 C1818 1.378 . S
C1826 C1821 1.350 . S
C1827 H1814 0.929 . S
C1827 C1819 1.433 . S
C1827 N1829 1.384 . S
N1828 C1824 1.427 . S
N1828 C1825 1.384 . S
N1829 C1821 1.427 . S
N1829 C1827 1.384 . S
H1830 C1836 0.930 . S
H1831 C1840 0.930 . S
H1832 C1845 0.929 . S
H1833 C1843 0.929 . S
H1834 C1838 0.929 . S
H1835 C1844 0.929 . S
C1836 H1830 0.930 . S
C1836 C1837 1.367 . S
C1836 C1844 1.378 . S
C1837 C1836 1.367 . S
C1837 C1845 1.433 . S
C1838 H1834 0.929 . S
C1838 C1840 1.378 . S
C1838 C1842 1.350 . S
C1839 C1842 1.463 . S
C1839 C1844 1.350 . S
C1839 N1847 1.427 . S
C1840 H1831 0.930 . S
C1840 C1838 1.378 . S
C1840 C1841 1.367 . S
C1841 C1840 1.367 . S
C1841 C1843 1.433 . S
C1842 C1838 1.350 . S
C1842 C1839 1.463 . S
C1842 N1846 1.427 . S
C1843 H1833 0.929 . S
C1843 C1841 1.433 . S
C1843 N1846 1.384 . S
C1844 H1835 0.929 . S
C1844 C1836 1.378 . S
C1844 C1839 1.350 . S
C1845 H1832 0.929 . S
C1845 C1837 1.433 . S
C1845 N1847 1.384 . S
N1846 C1842 1.427 . S
N1846 C1843 1.384 . S
N1847 C1839 1.427 . S
N1847 C1845 1.384 . S
H1848 C1854 0.930 . S
H1849 C1858 0.930 . S
H1850 C1863 0.929 . S
H1851 C1861 0.929 . S
H1852 C1856 0.929 . S
H1853 C1862 0.929 . S
C1854 H1848 0.930 . S
C1854 C1855 1.367 . S
C1854 C1862 1.378 . S
C1855 C1854 1.367 . S
C1855 C1863 1.433 . S
C1856 H1852 0.929 . S
C1856 C1858 1.378 . S
C1856 C1860 1.350 . S
C1857 C1860 1.463 . S
C1857 C1862 1.350 . S
C1857 N1865 1.427 . S
C1858 H1849 0.930 . S
C1858 C1856 1.378 . S
C1858 C1859 1.367 . S
C1859 C1858 1.367 . S
C1859 C1861 1.433 . S
C1860 C1856 1.350 . S
C1860 C1857 1.463 . S
C1860 N1864 1.427 . S
C1861 H1851 0.929 . S
C1861 C1859 1.433 . S
C1861 N1864 1.384 . S
C1862 H1853 0.929 . S
C1862 C1854 1.378 . S
C1862 C1857 1.350 . S
C1863 H1850 0.929 . S
C1863 C1855 1.433 . S
C1863 N1865 1.384 . S
N1864 C1860 1.427 . S
N1864 C1861 1.384 . S
N1865 C1857 1.427 . S
N1865 C1863 1.384 . S
H1866 C1872 0.930 . S
H1867 C1876 0.930 . S
H1868 C1881 0.929 . S
H1869 C1879 0.929 . S
H1870 C1874 0.929 . S
H1871 C1880 0.929 . S
C1872 H1866 0.930 . S
C1872 C1873 1.367 . S
C1872 C1880 1.378 . S
C1873 C1872 1.367 . S
C1873 C1881 1.433 . S
C1874 H1870 0.929 . S
C1874 C1876 1.378 . S
C1874 C1878 1.350 . S
C1875 C1878 1.463 . S
C1875 C1880 1.350 . S
C1875 N1883 1.427 . S
C1876 H1867 0.930 . S
C1876 C1874 1.378 . S
C1876 C1877 1.367 . S
C1877 C1876 1.367 . S
C1877 C1879 1.433 . S
C1878 C1874 1.350 . S
C1878 C1875 1.463 . S
C1878 N1882 1.427 . S
C1879 H1869 0.929 . S
C1879 C1877 1.433 . S
C1879 N1882 1.384 . S
C1880 H1871 0.929 . S
C1880 C1872 1.378 . S
C1880 C1875 1.350 . S
C1881 H1868 0.929 . S
C1881 C1873 1.433 . S
C1881 N1883 1.384 . S
N1882 C1878 1.427 . S
N1882 C1879 1.384 . S
N1883 C1875 1.427 . S
N1883 C1881 1.384 . S
H1884 C1890 0.930 . S
H1885 C1894 0.930 . S
H1886 C1899 0.929 . S
H1887 C1897 0.929 . S
H1888 C1892 0.929 . S
H1889 C1898 0.929 . S
C1890 H1884 0.930 . S
C1890 C1891 1.367 . S
C1890 C1898 1.378 . S
C1891 C1890 1.367 . S
C1891 C1899 1.433 . S
C1892 H1888 0.929 . S
C1892 C1894 1.378 . S
C1892 C1896 1.350 . S
C1893 C1896 1.463 . S
C1893 C1898 1.350 . S
C1893 N1901 1.427 . S
C1894 H1885 0.930 . S
C1894 C1892 1.378 . S
C1894 C1895 1.367 . S
C1895 C1894 1.367 . S
C1895 C1897 1.433 . S
C1896 C1892 1.350 . S
C1896 C1893 1.463 . S
C1896 N1900 1.427 . S
C1897 H1887 0.929 . S
C1897 C1895 1.433 . S
C1897 N1900 1.384 . S
C1898 H1889 0.929 . S
C1898 C1890 1.378 . S
C1898 C1893 1.350 . S
C1899 H1886 0.929 . S
C1899 C1891 1.433 . S
C1899 N1901 1.384 . S
N1900 C1896 1.427 . S
N1900 C1897 1.384 . S
N1901 C1893 1.427 . S
N1901 C1899 1.384 . S
H1902 C1908 0.930 . S
H1903 C1912 0.930 . S
H1904 C1917 0.929 . S
H1905 C1915 0.929 . S
H1906 C1910 0.929 . S
H1907 C1916 0.929 . S
C1908 H1902 0.930 . S
C1908 C1909 1.367 . S
C1908 C1916 1.378 . S
C1909 C1908 1.367 . S
C1909 C1917 1.433 . S
C1910 H1906 0.929 . S
C1910 C1912 1.378 . S
C1910 C1914 1.350 . S
C1911 C1914 1.463 . S
C1911 C1916 1.350 . S
C1911 N1919 1.427 . S
C1912 H1903 0.930 . S
C1912 C1910 1.378 . S
C1912 C1913 1.367 . S
C1913 C1912 1.367 . S
C1913 C1915 1.433 . S
C1914 C1910 1.350 . S
C1914 C1911 1.463 . S
C1914 N1918 1.427 . S
C1915 H1905 0.929 . S
C1915 C1913 1.433 . S
C1915 N1918 1.384 . S
C1916 H1907 0.929 . S
C1916 C1908 1.378 . S
C1916 C1911 1.350 . S
C1917 H1904 0.929 . S
C1917 C1909 1.433 . S
C1917 N1919 1.384 . S
N1918 C1914 1.427 . S
N1918 C1915 1.384 . S
N1919 C1911 1.427 . S
N1919 C1917 1.384 . S
H1920 C1926 0.930 . S
H1921 C1930 0.930 . S
H1922 C1935 0.929 . S
H1923 C1933 0.929 . S
H1924 C1928 0.929 . S
H1925 C1934 0.929 . S
C1926 H1920 0.930 . S
C1926 C1927 1.367 . S
C1926 C1934 1.378 . S
C1927 C1926 1.367 . S
C1927 C1935 1.433 . S
C1928 H1924 0.929 . S
C1928 C1930 1.378 . S
C1928 C1932 1.350 . S
C1929 C1932 1.463 . S
C1929 C1934 1.350 . S
C1929 N1937 1.427 . S
C1930 H1921 0.930 . S
C1930 C1928 1.378 . S
C1930 C1931 1.367 . S
C1931 C1930 1.367 . S
C1931 C1933 1.433 . S
C1932 C1928 1.350 . S
C1932 C1929 1.463 . S
C1932 N1936 1.427 . S
C1933 H1923 0.929 . S
C1933 C1931 1.433 . S
C1933 N1936 1.384 . S
C1934 H1925 0.929 . S
C1934 C1926 1.378 . S
C1934 C1929 1.350 . S
C1935 H1922 0.929 . S
C1935 C1927 1.433 . S
C1935 N1937 1.384 . S
N1936 C1932 1.427 . S
N1936 C1933 1.384 . S
N1937 C1929 1.427 . S
N1937 C1935 1.384 . S
H1938 C1944 0.930 . S
H1939 C1948 0.930 . S
H1940 C1953 0.929 . S
H1941 C1951 0.929 . S
H1942 C1946 0.929 . S
H1943 C1952 0.929 . S
C1944 H1938 0.930 . S
C1944 C1945 1.367 . S
C1944 C1952 1.378 . S
C1945 C1944 1.367 . S
C1945 C1953 1.433 . S
C1946 H1942 0.929 . S
C1946 C1948 1.378 . S
C1946 C1950 1.350 . S
C1947 C1950 1.463 . S
C1947 C1952 1.350 . S
C1947 N1955 1.427 . S
C1948 H1939 0.930 . S
C1948 C1946 1.378 . S
C1948 C1949 1.367 . S
C1949 C1948 1.367 . S
C1949 C1951 1.433 . S
C1950 C1946 1.350 . S
C1950 C1947 1.463 . S
C1950 N1954 1.427 . S
C1951 H1941 0.929 . S
C1951 C1949 1.433 . S
C1951 N1954 1.384 . S
C1952 H1943 0.929 . S
C1952 C1944 1.378 . S
C1952 C1947 1.350 . S
C1953 H1940 0.929 . S
C1953 C1945 1.433 . S
C1953 N1955 1.384 . S
N1954 C1950 1.427 . S
N1954 C1951 1.384 . S
N1955 C1947 1.427 . S
N1955 C1953 1.384 . S
H1956 C1962 0.930 . S
H1957 C1966 0.930 . S
H1958 C1971 0.929 . S
H1959 C1969 0.929 . S
H1960 C1964 0.929 . S
H1961 C1970 0.929 . S
C1962 H1956 0.930 . S
C1962 C1963 1.367 . S
C1962 C1970 1.378 . S
C1963 C1962 1.367 . S
C1963 C1971 1.433 . S
C1964 H1960 0.929 . S
C1964 C1966 1.378 . S
C1964 C1968 1.350 . S
C1965 C1968 1.463 . S
C1965 C1970 1.350 . S
C1965 N1973 1.427 . S
C1966 H1957 0.930 . S
C1966 C1964 1.378 . S
C1966 C1967 1.367 . S
C1967 C1966 1.367 . S
C1967 C1969 1.433 . S
C1968 C1964 1.350 . S
C1968 C1965 1.463 . S
C1968 N1972 1.427 . S
C1969 H1959 0.929 . S
C1969 C1967 1.433 . S
C1969 N1972 1.384 . S
C1970 H1961 0.929 . S
C1970 C1962 1.378 . S
C1970 C1965 1.350 . S
C1971 H1958 0.929 . S
C1971 C1963 1.433 . S
C1971 N1973 1.384 . S
N1972 C1968 1.427 . S
N1972 C1969 1.384 . S
N1973 C1965 1.427 . S
N1973 C1971 1.384 . S
H1974 C1980 0.930 . S
H1975 C1984 0.930 . S
H1976 C1989 0.929 . S
H1977 C1987 0.929 . S
H1978 C1982 0.929 . S
H1979 C1988 0.929 . S
C1980 H1974 0.930 . S
C1980 C1981 1.367 . S
C1980 C1988 1.378 . S
C1981 C1980 1.367 . S
C1981 C1989 1.433 . S
C1982 H1978 0.929 . S
C1982 C1984 1.378 . S
C1982 C1986 1.350 . S
C1983 C1986 1.463 . S
C1983 C1988 1.350 . S
C1983 N1991 1.427 . S
C1984 H1975 0.930 . S
C1984 C1982 1.378 . S
C1984 C1985 1.367 . S
C1985 C1984 1.367 . S
C1985 C1987 1.433 . S
C1986 C1982 1.350 . S
C1986 C1983 1.463 . S
C1986 N1990 1.427 . S
C1987 H1977 0.929 . S
C1987 C1985 1.433 . S
C1987 N1990 1.384 . S
C1988 H1979 0.929 . S
C1988 C1980 1.378 . S
C1988 C1983 1.350 . S
C1989 H1976 0.929 . S
C1989 C1981 1.433 . S
C1989 N1991 1.384 . S
N1990 C1986 1.427 . S
N1990 C1987 1.384 . S
N1991 C1983 1.427 . S
N1991 C1989 1.384 . S
H1992 C1998 0.930 . S
H1993 C2002 0.930 . S
H1994 C2007 0.929 . S
H1995 C2005 0.929 . S
H1996 C2000 0.929 . S
H1997 C2006 0.929 . S
C1998 H1992 0.930 . S
C1998 C1999 1.367 . S
C1998 C2006 1.378 . S
C1999 C1998 1.367 . S
C1999 C2007 1.433 . S
C2000 H1996 0.929 . S
C2000 C2002 1.378 . S
C2000 C2004 1.350 . S
C2001 C2004 1.463 . S
C2001 C2006 1.350 . S
C2001 N2009 1.427 . S
C2002 H1993 0.930 . S
C2002 C2000 1.378 . S
C2002 C2003 1.367 . S
C2003 C2002 1.367 . S
C2003 C2005 1.433 . S
C2004 C2000 1.350 . S
C2004 C2001 1.463 . S
C2004 N2008 1.427 . S
C2005 H1995 0.929 . S
C2005 C2003 1.433 . S
C2005 N2008 1.384 . S
C2006 H1997 0.929 . S
C2006 C1998 1.378 . S
C2006 C2001 1.350 . S
C2007 H1994 0.929 . S
C2007 C1999 1.433 . S
C2007 N2009 1.384 . S
N2008 C2004 1.427 . S
N2008 C2005 1.384 . S
N2009 C2001 1.427 . S
N2009 C2007 1.384 . S
H2010 C2016 0.930 . S
H2011 C2020 0.930 . S
H2012 C2025 0.929 . S
H2013 C2023 0.929 . S
H2014 C2018 0.929 . S
H2015 C2024 0.929 . S
C2016 H2010 0.930 . S
C2016 C2017 1.367 . S
C2016 C2024 1.378 . S
C2017 C2016 1.367 . S
C2017 C2025 1.433 . S
C2018 H2014 0.929 . S
C2018 C2020 1.378 . S
C2018 C2022 1.350 . S
C2019 C2022 1.463 . S
C2019 C2024 1.350 . S
C2019 N2027 1.427 . S
C2020 H2011 0.930 . S
C2020 C2018 1.378 . S
C2020 C2021 1.367 . S
C2021 C2020 1.367 . S
C2021 C2023 1.433 . S
C2022 C2018 1.350 . S
C2022 C2019 1.463 . S
C2022 N2026 1.427 . S
C2023 H2013 0.929 . S
C2023 C2021 1.433 . S
C2023 N2026 1.384 . S
C2024 H2015 0.929 . S
C2024 C2016 1.378 . S
C2024 C2019 1.350 . S
C2025 H2012 0.929 . S
C2025 C2017 1.433 . S
C2025 N2027 1.384 . S
N2026 C2022 1.427 . S
N2026 C2023 1.384 . S
N2027 C2019 1.427 . S
N2027 C2025 1.384 . S
H2028 C2034 0.930 . S
H2029 C2038 0.930 . S
H2030 C2043 0.929 . S
H2031 C2041 0.929 . S
H2032 C2036 0.929 . S
H2033 C2042 0.929 . S
C2034 H2028 0.930 . S
C2034 C2035 1.367 . S
C2034 C2042 1.378 . S
C2035 C2034 1.367 . S
C2035 C2043 1.433 . S
C2036 H2032 0.929 . S
C2036 C2038 1.378 . S
C2036 C2040 1.350 . S
C2037 C2040 1.463 . S
C2037 C2042 1.350 . S
C2037 N2045 1.427 . S
C2038 H2029 0.930 . S
C2038 C2036 1.378 . S
C2038 C2039 1.367 . S
C2039 C2038 1.367 . S
C2039 C2041 1.433 . S
C2040 C2036 1.350 . S
C2040 C2037 1.463 . S
C2040 N2044 1.427 . S
C2041 H2031 0.929 . S
C2041 C2039 1.433 . S
C2041 N2044 1.384 . S
C2042 H2033 0.929 . S
C2042 C2034 1.378 . S
C2042 C2037 1.350 . S
C2043 H2030 0.929 . S
C2043 C2035 1.433 . S
C2043 N2045 1.384 . S
N2044 C2040 1.427 . S
N2044 C2041 1.384 . S
N2045 C2037 1.427 . S
N2045 C2043 1.384 . S
H2046 C2052 0.930 . S
H2047 C2056 0.930 . S
H2048 C2061 0.929 . S
H2049 C2059 0.929 . S
H2050 C2054 0.929 . S
H2051 C2060 0.929 . S
C2052 H2046 0.930 . S
C2052 C2053 1.367 . S
C2052 C2060 1.378 . S
C2053 C2052 1.367 . S
C2053 C2061 1.433 . S
C2054 H2050 0.929 . S
C2054 C2056 1.378 . S
C2054 C2058 1.350 . S
C2055 C2058 1.463 . S
C2055 C2060 1.350 . S
C2055 N2063 1.427 . S
C2056 H2047 0.930 . S
C2056 C2054 1.378 . S
C2056 C2057 1.367 . S
C2057 C2056 1.367 . S
C2057 C2059 1.433 . S
C2058 C2054 1.350 . S
C2058 C2055 1.463 . S
C2058 N2062 1.427 . S
C2059 H2049 0.929 . S
C2059 C2057 1.433 . S
C2059 N2062 1.384 . S
C2060 H2051 0.929 . S
C2060 C2052 1.378 . S
C2060 C2055 1.350 . S
C2061 H2048 0.929 . S
C2061 C2053 1.433 . S
C2061 N2063 1.384 . S
N2062 C2058 1.427 . S
N2062 C2059 1.384 . S
N2063 C2055 1.427 . S
N2063 C2061 1.384 . S
H2064 C2070 0.930 . S
H2065 C2074 0.930 . S
H2066 C2079 0.929 . S
H2067 C2077 0.929 . S
H2068 C2072 0.929 . S
H2069 C2078 0.929 . S
C2070 H2064 0.930 . S
C2070 C2071 1.367 . S
C2070 C2078 1.378 . S
C2071 C2070 1.367 . S
C2071 C2079 1.433 . S
C2072 H2068 0.929 . S
C2072 C2074 1.378 . S
C2072 C2076 1.350 . S
C2073 C2076 1.463 . S
C2073 C2078 1.350 . S
C2073 N2081 1.427 . S
C2074 H2065 0.930 . S
C2074 C2072 1.378 . S
C2074 C2075 1.367 . S
C2075 C2074 1.367 . S
C2075 C2077 1.433 . S
C2076 C2072 1.350 . S
C2076 C2073 1.463 . S
C2076 N2080 1.427 . S
C2077 H2067 0.929 . S
C2077 C2075 1.433 . S
C2077 N2080 1.384 . S
C2078 H2069 0.929 . S
C2078 C2070 1.378 . S
C2078 C2073 1.350 . S
C2079 H2066 0.929 . S
C2079 C2071 1.433 . S
C2079 N2081 1.384 . S
N2080 C2076 1.427 . S
N2080 C2077 1.384 . S
N2081 C2073 1.427 . S
N2081 C2079 1.384 . S
H2082 C2088 0.930 . S
H2083 C2092 0.930 . S
H2084 C2097 0.929 . S
H2085 C2095 0.929 . S
H2086 C2090 0.929 . S
H2087 C2096 0.929 . S
C2088 H2082 0.930 . S
C2088 C2089 1.367 . S
C2088 C2096 1.378 . S
C2089 C2088 1.367 . S
C2089 C2097 1.433 . S
C2090 H2086 0.929 . S
C2090 C2092 1.378 . S
C2090 C2094 1.350 . S
C2091 C2094 1.463 . S
C2091 C2096 1.350 . S
C2091 N2099 1.427 . S
C2092 H2083 0.930 . S
C2092 C2090 1.378 . S
C2092 C2093 1.367 . S
C2093 C2092 1.367 . S
C2093 C2095 1.433 . S
C2094 C2090 1.350 . S
C2094 C2091 1.463 . S
C2094 N2098 1.427 . S
C2095 H2085 0.929 . S
C2095 C2093 1.433 . S
C2095 N2098 1.384 . S
C2096 H2087 0.929 . S
C2096 C2088 1.378 . S
C2096 C2091 1.350 . S
C2097 H2084 0.929 . S
C2097 C2089 1.433 . S
C2097 N2099 1.384 . S
N2098 C2094 1.427 . S
N2098 C2095 1.384 . S
N2099 C2091 1.427 . S
N2099 C2097 1.384 . S
H2100 C2106 0.930 . S
H2101 C2110 0.930 . S
H2102 C2115 0.929 . S
H2103 C2113 0.929 . S
H2104 C2108 0.929 . S
H2105 C2114 0.929 . S
C2106 H2100 0.930 . S
C2106 C2107 1.367 . S
C2106 C2114 1.378 . S
C2107 C2106 1.367 . S
C2107 C2115 1.433 . S
C2108 H2104 0.929 . S
C2108 C2110 1.378 . S
C2108 C2112 1.350 . S
C2109 C2112 1.463 . S
C2109 C2114 1.350 . S
C2109 N2117 1.427 . S
C2110 H2101 0.930 . S
C2110 C2108 1.378 . S
C2110 C2111 1.367 . S
C2111 C2110 1.367 . S
C2111 C2113 1.433 . S
C2112 C2108 1.350 . S
C2112 C2109 1.463 . S
C2112 N2116 1.427 . S
C2113 H2103 0.929 . S
C2113 C2111 1.433 . S
C2113 N2116 1.384 . S
C2114 H2105 0.929 . S
C2114 C2106 1.378 . S
C2114 C2109 1.350 . S
C2115 H2102 0.929 . S
C2115 C2107 1.433 . S
C2115 N2117 1.384 . S
N2116 C2112 1.427 . S
N2116 C2113 1.384 . S
N2117 C2109 1.427 . S
N2117 C2115 1.384 . S
H2118 C2124 0.930 . S
H2119 C2128 0.930 . S
H2120 C2133 0.929 . S
H2121 C2131 0.929 . S
H2122 C2126 0.929 . S
H2123 C2132 0.929 . S
C2124 H2118 0.930 . S
C2124 C2125 1.367 . S
C2124 C2132 1.378 . S
C2125 C2124 1.367 . S
C2125 C2133 1.433 . S
C2126 H2122 0.929 . S
C2126 C2128 1.378 . S
C2126 C2130 1.350 . S
C2127 C2130 1.463 . S
C2127 C2132 1.350 . S
C2127 N2135 1.427 . S
C2128 H2119 0.930 . S
C2128 C2126 1.378 . S
C2128 C2129 1.367 . S
C2129 C2128 1.367 . S
C2129 C2131 1.433 . S
C2130 C2126 1.350 . S
C2130 C2127 1.463 . S
C2130 N2134 1.427 . S
C2131 H2121 0.929 . S
C2131 C2129 1.433 . S
C2131 N2134 1.384 . S
C2132 H2123 0.929 . S
C2132 C2124 1.378 . S
C2132 C2127 1.350 . S
C2133 H2120 0.929 . S
C2133 C2125 1.433 . S
C2133 N2135 1.384 . S
N2134 C2130 1.427 . S
N2134 C2131 1.384 . S
N2135 C2127 1.427 . S
N2135 C2133 1.384 . S
H2136 C2142 0.930 . S
H2137 C2146 0.930 . S
H2138 C2151 0.929 . S
H2139 C2149 0.929 . S
H2140 C2144 0.929 . S
H2141 C2150 0.929 . S
C2142 H2136 0.930 . S
C2142 C2143 1.367 . S
C2142 C2150 1.378 . S
C2143 C2142 1.367 . S
C2143 C2151 1.433 . S
C2144 H2140 0.929 . S
C2144 C2146 1.378 . S
C2144 C2148 1.350 . S
C2145 C2148 1.463 . S
C2145 C2150 1.350 . S
C2145 N2153 1.427 . S
C2146 H2137 0.930 . S
C2146 C2144 1.378 . S
C2146 C2147 1.367 . S
C2147 C2146 1.367 . S
C2147 C2149 1.433 . S
C2148 C2144 1.350 . S
C2148 C2145 1.463 . S
C2148 N2152 1.427 . S
C2149 H2139 0.929 . S
C2149 C2147 1.433 . S
C2149 N2152 1.384 . S
C2150 H2141 0.929 . S
C2150 C2142 1.378 . S
C2150 C2145 1.350 . S
C2151 H2138 0.929 . S
C2151 C2143 1.433 . S
C2151 N2153 1.384 . S
N2152 C2148 1.427 . S
N2152 C2149 1.384 . S
N2153 C2145 1.427 . S
N2153 C2151 1.384 . S
H2154 C2160 0.930 . S
H2155 C2164 0.930 . S
H2156 C2169 0.929 . S
H2157 C2167 0.929 . S
H2158 C2162 0.929 . S
H2159 C2168 0.929 . S
C2160 H2154 0.930 . S
C2160 C2161 1.367 . S
C2160 C2168 1.378 . S
C2161 C2160 1.367 . S
C2161 C2169 1.433 . S
C2162 H2158 0.929 . S
C2162 C2164 1.378 . S
C2162 C2166 1.350 . S
C2163 C2166 1.463 . S
C2163 C2168 1.350 . S
C2163 N2171 1.427 . S
C2164 H2155 0.930 . S
C2164 C2162 1.378 . S
C2164 C2165 1.367 . S
C2165 C2164 1.367 . S
C2165 C2167 1.433 . S
C2166 C2162 1.350 . S
C2166 C2163 1.463 . S
C2166 N2170 1.427 . S
C2167 H2157 0.929 . S
C2167 C2165 1.433 . S
C2167 N2170 1.384 . S
C2168 H2159 0.929 . S
C2168 C2160 1.378 . S
C2168 C2163 1.350 . S
C2169 H2156 0.929 . S
C2169 C2161 1.433 . S
C2169 N2171 1.384 . S
N2170 C2166 1.427 . S
N2170 C2167 1.384 . S
N2171 C2163 1.427 . S
N2171 C2169 1.384 . S
H2172 C2178 0.930 . S
H2173 C2182 0.930 . S
H2174 C2187 0.929 . S
H2175 C2185 0.929 . S
H2176 C2180 0.929 . S
H2177 C2186 0.929 . S
C2178 H2172 0.930 . S
C2178 C2179 1.367 . S
C2178 C2186 1.378 . S
C2179 C2178 1.367 . S
C2179 C2187 1.433 . S
C2180 H2176 0.929 . S
C2180 C2182 1.378 . S
C2180 C2184 1.350 . S
C2181 C2184 1.463 . S
C2181 C2186 1.350 . S
C2181 N2189 1.427 . S
C2182 H2173 0.930 . S
C2182 C2180 1.378 . S
C2182 C2183 1.367 . S
C2183 C2182 1.367 . S
C2183 C2185 1.433 . S
C2184 C2180 1.350 . S
C2184 C2181 1.463 . S
C2184 N2188 1.427 . S
C2185 H2175 0.929 . S
C2185 C2183 1.433 . S
C2185 N2188 1.384 . S
C2186 H2177 0.929 . S
C2186 C2178 1.378 . S
C2186 C2181 1.350 . S
C2187 H2174 0.929 . S
C2187 C2179 1.433 . S
C2187 N2189 1.384 . S
N2188 C2184 1.427 . S
N2188 C2185 1.384 . S
N2189 C2181 1.427 . S
N2189 C2187 1.384 . S
H2190 C2196 0.930 . S
H2191 C2200 0.930 . S
H2192 C2205 0.929 . S
H2193 C2203 0.929 . S
H2194 C2198 0.929 . S
H2195 C2204 0.929 . S
C2196 H2190 0.930 . S
C2196 C2197 1.367 . S
C2196 C2204 1.378 . S
C2197 C2196 1.367 . S
C2197 C2205 1.433 . S
C2198 H2194 0.929 . S
C2198 C2200 1.378 . S
C2198 C2202 1.350 . S
C2199 C2202 1.463 . S
C2199 C2204 1.350 . S
C2199 N2207 1.427 . S
C2200 H2191 0.930 . S
C2200 C2198 1.378 . S
C2200 C2201 1.367 . S
C2201 C2200 1.367 . S
C2201 C2203 1.433 . S
C2202 C2198 1.350 . S
C2202 C2199 1.463 . S
C2202 N2206 1.427 . S
C2203 H2193 0.929 . S
C2203 C2201 1.433 . S
C2203 N2206 1.384 . S
C2204 H2195 0.929 . S
C2204 C2196 1.378 . S
C2204 C2199 1.350 . S
C2205 H2192 0.929 . S
C2205 C2197 1.433 . S
C2205 N2207 1.384 . S
N2206 C2202 1.427 . S
N2206 C2203 1.384 . S
N2207 C2199 1.427 . S
N2207 C2205 1.384 . S
H2208 C2214 0.930 . S
H2209 C2218 0.930 . S
H2210 C2223 0.929 . S
H2211 C2221 0.929 . S
H2212 C2216 0.929 . S
H2213 C2222 0.929 . S
C2214 H2208 0.930 . S
C2214 C2215 1.367 . S
C2214 C2222 1.378 . S
C2215 C2214 1.367 . S
C2215 C2223 1.433 . S
C2216 H2212 0.929 . S
C2216 C2218 1.378 . S
C2216 C2220 1.350 . S
C2217 C2220 1.463 . S
C2217 C2222 1.350 . S
C2217 N2225 1.427 . S
C2218 H2209 0.930 . S
C2218 C2216 1.378 . S
C2218 C2219 1.367 . S
C2219 C2218 1.367 . S
C2219 C2221 1.433 . S
C2220 C2216 1.350 . S
C2220 C2217 1.463 . S
C2220 N2224 1.427 . S
C2221 H2211 0.929 . S
C2221 C2219 1.433 . S
C2221 N2224 1.384 . S
C2222 H2213 0.929 . S
C2222 C2214 1.378 . S
C2222 C2217 1.350 . S
C2223 H2210 0.929 . S
C2223 C2215 1.433 . S
C2223 N2225 1.384 . S
N2224 C2220 1.427 . S
N2224 C2221 1.384 . S
N2225 C2217 1.427 . S
N2225 C2223 1.384 . S
H2226 C2232 0.930 1_455 S
H2227 C2236 0.930 1_655 S
H2228 C2241 0.929 . S
H2229 C2239 0.929 . S
H2230 C2234 0.929 . S
H2231 C2240 0.929 . S
C2232 H2226 0.930 1_655 S
C2232 C2233 1.367 1_545 S
C2232 C2240 1.378 1_655 S
C2233 C2232 1.367 1_565 S
C2233 C2241 1.433 . S
C2234 H2230 0.929 . S
C2234 C2236 1.378 1_655 S
C2234 C2238 1.350 1_665 S
C2235 C2238 1.463 1_665 S
C2235 C2240 1.350 1_665 S
C2235 N2243 1.427 . S
C2236 H2227 0.930 1_455 S
C2236 C2234 1.378 1_455 S
C2236 C2237 1.367 1_565 S
C2237 C2236 1.367 1_545 S
C2237 C2239 1.433 . S
C2238 C2234 1.350 1_445 S
C2238 C2235 1.463 1_445 S
C2238 N2242 1.427 . S
C2239 H2229 0.929 . S
C2239 C2237 1.433 . S
C2239 N2242 1.384 . S
C2240 H2231 0.929 . S
C2240 C2232 1.378 1_455 S
C2240 C2235 1.350 1_445 S
C2241 H2228 0.929 . S
C2241 C2233 1.433 . S
C2241 N2243 1.384 . S
N2242 C2238 1.427 . S
N2242 C2239 1.384 . S
N2243 C2235 1.427 . S
N2243 C2241 1.384 . S
H2244 C2250 0.930 . S
H2245 C2254 0.930 . S
H2246 C2259 0.929 . S
H2247 C2257 0.929 . S
H2248 C2252 0.929 . S
H2249 C2258 0.929 . S
C2250 H2244 0.930 . S
C2250 C2251 1.367 . S
C2250 C2258 1.378 . S
C2251 C2250 1.367 . S
C2251 C2259 1.433 . S
C2252 H2248 0.929 . S
C2252 C2254 1.378 . S
C2252 C2256 1.350 . S
C2253 C2256 1.463 . S
C2253 C2258 1.350 . S
C2253 N2261 1.427 . S
C2254 H2245 0.930 . S
C2254 C2252 1.378 . S
C2254 C2255 1.367 . S
C2255 C2254 1.367 . S
C2255 C2257 1.433 . S
C2256 C2252 1.350 . S
C2256 C2253 1.463 . S
C2256 N2260 1.427 . S
C2257 H2247 0.929 . S
C2257 C2255 1.433 . S
C2257 N2260 1.384 . S
C2258 H2249 0.929 . S
C2258 C2250 1.378 . S
C2258 C2253 1.350 . S
C2259 H2246 0.929 . S
C2259 C2251 1.433 . S
C2259 N2261 1.384 . S
N2260 C2256 1.427 . S
N2260 C2257 1.384 . S
N2261 C2253 1.427 . S
N2261 C2259 1.384 . S
H2262 C2268 0.930 . S
H2263 C2272 0.930 . S
H2264 C2277 0.929 . S
H2265 C2275 0.929 . S
H2266 C2270 0.929 . S
H2267 C2276 0.929 . S
C2268 H2262 0.930 . S
C2268 C2269 1.367 1_545 S
C2268 C2276 1.378 . S
C2269 C2268 1.367 1_565 S
C2269 C2277 1.433 . S
C2270 H2266 0.929 . S
C2270 C2272 1.378 . S
C2270 C2274 1.350 1_565 S
C2271 C2274 1.463 1_566 S
C2271 C2276 1.350 1_565 S
C2271 N2279 1.427 . S
C2272 H2263 0.930 . S
C2272 C2270 1.378 . S
C2272 C2273 1.367 1_565 S
C2273 C2272 1.367 1_545 S
C2273 C2275 1.433 . S
C2274 C2270 1.350 1_545 S
C2274 C2271 1.463 1_544 S
C2274 N2278 1.427 . S
C2275 H2265 0.929 . S
C2275 C2273 1.433 . S
C2275 N2278 1.384 . S
C2276 H2267 0.929 . S
C2276 C2268 1.378 . S
C2276 C2271 1.350 1_545 S
C2277 H2264 0.929 . S
C2277 C2269 1.433 . S
C2277 N2279 1.384 . S
N2278 C2274 1.427 . S
N2278 C2275 1.384 . S
N2279 C2271 1.427 . S
N2279 C2277 1.384 . S
H2280 C2286 0.930 . S
H2281 C2290 0.930 . S
H2282 C2295 0.929 . S
H2283 C2293 0.929 . S
H2284 C2288 0.929 . S
H2285 C2294 0.929 . S
C2286 H2280 0.930 . S
C2286 C2287 1.367 . S
C2286 C2294 1.378 . S
C2287 C2286 1.367 . S
C2287 C2295 1.433 . S
C2288 H2284 0.929 . S
C2288 C2290 1.378 . S
C2288 C2292 1.350 . S
C2289 C2292 1.463 . S
C2289 C2294 1.350 . S
C2289 N2297 1.427 . S
C2290 H2281 0.930 . S
C2290 C2288 1.378 . S
C2290 C2291 1.367 . S
C2291 C2290 1.367 . S
C2291 C2293 1.433 . S
C2292 C2288 1.350 . S
C2292 C2289 1.463 . S
C2292 N2296 1.427 . S
C2293 H2283 0.929 . S
C2293 C2291 1.433 . S
C2293 N2296 1.384 . S
C2294 H2285 0.929 . S
C2294 C2286 1.378 . S
C2294 C2289 1.350 . S
C2295 H2282 0.929 . S
C2295 C2287 1.433 . S
C2295 N2297 1.384 . S
N2296 C2292 1.427 . S
N2296 C2293 1.384 . S
N2297 C2289 1.427 . S
N2297 C2295 1.384 . S
H2298 C2304 0.930 . S
H2299 C2308 0.930 . S
H2300 C2313 0.929 . S
H2301 C2311 0.929 . S
H2302 C2306 0.929 . S
H2303 C2312 0.929 . S
C2304 H2298 0.930 . S
C2304 C2305 1.367 . S
C2304 C2312 1.378 . S
C2305 C2304 1.367 . S
C2305 C2313 1.433 1_545 S
C2306 H2302 0.929 . S
C2306 C2308 1.378 . S
C2306 C2310 1.350 . S
C2307 C2310 1.463 1_545 S
C2307 C2312 1.350 . S
C2307 N2315 1.427 1_545 S
C2308 H2299 0.930 . S
C2308 C2306 1.378 . S
C2308 C2309 1.367 . S
C2309 C2308 1.367 . S
C2309 C2311 1.433 1_565 S
C2310 C2306 1.350 . S
C2310 C2307 1.463 1_565 S
C2310 N2314 1.427 1_565 S
C2311 H2301 0.929 . S
C2311 C2309 1.433 1_545 S
C2311 N2314 1.384 . S
C2312 H2303 0.929 . S
C2312 C2304 1.378 . S
C2312 C2307 1.350 . S
C2313 H2300 0.929 . S
C2313 C2305 1.433 1_565 S
C2313 N2315 1.384 . S
N2314 C2310 1.427 1_545 S
N2314 C2311 1.384 . S
N2315 C2307 1.427 1_565 S
N2315 C2313 1.384 . S
H2316 C2322 0.930 . S
H2317 C2326 0.930 . S
H2318 C2331 0.929 . S
H2319 C2329 0.929 . S
H2320 C2324 0.929 . S
H2321 C2330 0.929 . S
C2322 H2316 0.930 . S
C2322 C2323 1.367 . S
C2322 C2330 1.378 . S
C2323 C2322 1.367 . S
C2323 C2331 1.433 . S
C2324 H2320 0.929 . S
C2324 C2326 1.378 . S
C2324 C2328 1.350 . S
C2325 C2328 1.463 . S
C2325 C2330 1.350 . S
C2325 N2333 1.427 . S
C2326 H2317 0.930 . S
C2326 C2324 1.378 . S
C2326 C2327 1.367 . S
C2327 C2326 1.367 . S
C2327 C2329 1.433 . S
C2328 C2324 1.350 . S
C2328 C2325 1.463 . S
C2328 N2332 1.427 . S
C2329 H2319 0.929 . S
C2329 C2327 1.433 . S
C2329 N2332 1.384 . S
C2330 H2321 0.929 . S
C2330 C2322 1.378 . S
C2330 C2325 1.350 . S
C2331 H2318 0.929 . S
C2331 C2323 1.433 . S
C2331 N2333 1.384 . S
N2332 C2328 1.427 . S
N2332 C2329 1.384 . S
N2333 C2325 1.427 . S
N2333 C2331 1.384 . S
H2334 C2340 0.945 . S
H2335 C2344 0.945 . S
H2336 C2349 0.929 . S
H2337 C2347 0.929 . S
H2338 C2342 0.929 . S
H2339 C2348 0.929 . S
C2340 H2334 0.945 . S
C2340 C2341 1.344 1_655 S
C2340 C2348 1.387 . S
C2341 C2340 1.344 1_455 S
C2341 C2349 1.433 1_565 S
C2342 H2338 0.929 . S
C2342 C2344 1.387 . S
C2342 C2346 1.350 1_455 S
C2343 C2346 1.463 1_464 S
C2343 C2348 1.350 1_455 S
C2343 N2351 1.427 1_565 S
C2344 H2335 0.945 . S
C2344 C2342 1.387 . S
C2344 C2345 1.344 1_455 S
C2345 C2344 1.344 1_655 S
C2345 C2347 1.433 1_545 S
C2346 C2342 1.350 1_655 S
C2346 C2343 1.463 1_646 S
C2346 N2350 1.427 1_545 S
C2347 H2337 0.929 . S
C2347 C2345 1.433 1_565 S
C2347 N2350 1.384 . S
C2348 H2339 0.929 . S
C2348 C2340 1.387 . S
C2348 C2343 1.350 1_655 S
C2349 H2336 0.929 . S
C2349 C2341 1.433 1_545 S
C2349 N2351 1.384 . S
N2350 C2346 1.427 1_565 S
N2350 C2347 1.384 . S
N2351 C2343 1.427 1_545 S
N2351 C2349 1.384 . S
H2352 C2358 0.930 . S
H2353 C2362 0.930 . S
H2354 C2367 0.929 . S
H2355 C2365 0.929 . S
H2356 C2360 0.929 . S
H2357 C2366 0.929 . S
C2358 H2352 0.930 . S
C2358 C2359 1.367 . S
C2358 C2366 1.378 . S
C2359 C2358 1.367 . S
C2359 C2367 1.433 . S
C2360 H2356 0.929 . S
C2360 C2362 1.378 . S
C2360 C2364 1.350 . S
C2361 C2364 1.463 . S
C2361 C2366 1.350 . S
C2361 N2369 1.427 . S
C2362 H2353 0.930 . S
C2362 C2360 1.378 . S
C2362 C2363 1.367 . S
C2363 C2362 1.367 . S
C2363 C2365 1.433 . S
C2364 C2360 1.350 . S
C2364 C2361 1.463 . S
C2364 N2368 1.427 . S
C2365 H2355 0.929 . S
C2365 C2363 1.433 . S
C2365 N2368 1.384 . S
C2366 H2357 0.929 . S
C2366 C2358 1.378 . S
C2366 C2361 1.350 . S
C2367 H2354 0.929 . S
C2367 C2359 1.433 . S
C2367 N2369 1.384 . S
N2368 C2364 1.427 . S
N2368 C2365 1.384 . S
N2369 C2361 1.427 . S
N2369 C2367 1.384 . S
H2370 C2376 0.930 . S
H2371 C2380 0.930 . S
H2372 C2385 0.929 . S
H2373 C2383 0.929 . S
H2374 C2378 0.929 . S
H2375 C2384 0.929 . S
C2376 H2370 0.930 . S
C2376 C2377 1.367 . S
C2376 C2384 1.378 . S
C2377 C2376 1.367 . S
C2377 C2385 1.433 . S
C2378 H2374 0.929 . S
C2378 C2380 1.378 . S
C2378 C2382 1.350 . S
C2379 C2382 1.463 . S
C2379 C2384 1.350 . S
C2379 N2387 1.427 . S
C2380 H2371 0.930 . S
C2380 C2378 1.378 . S
C2380 C2381 1.367 . S
C2381 C2380 1.367 . S
C2381 C2383 1.433 . S
C2382 C2378 1.350 . S
C2382 C2379 1.463 . S
C2382 N2386 1.427 . S
C2383 H2373 0.929 . S
C2383 C2381 1.433 . S
C2383 N2386 1.384 . S
C2384 H2375 0.929 . S
C2384 C2376 1.378 . S
C2384 C2379 1.350 . S
C2385 H2372 0.929 . S
C2385 C2377 1.433 . S
C2385 N2387 1.384 . S
N2386 C2382 1.427 . S
N2386 C2383 1.384 . S
N2387 C2379 1.427 . S
N2387 C2385 1.384 . S
H2388 C2394 0.930 . S
H2389 C2398 0.930 . S
H2390 C2403 0.929 . S
H2391 C2401 0.929 . S
H2392 C2396 0.929 . S
H2393 C2402 0.929 . S
C2394 H2388 0.930 . S
C2394 C2395 1.367 . S
C2394 C2402 1.378 . S
C2395 C2394 1.367 . S
C2395 C2403 1.433 . S
C2396 H2392 0.929 . S
C2396 C2398 1.378 . S
C2396 C2400 1.350 . S
C2397 C2400 1.463 . S
C2397 C2402 1.350 . S
C2397 N2405 1.427 . S
C2398 H2389 0.930 . S
C2398 C2396 1.378 . S
C2398 C2399 1.367 . S
C2399 C2398 1.367 . S
C2399 C2401 1.433 . S
C2400 C2396 1.350 . S
C2400 C2397 1.463 . S
C2400 N2404 1.427 . S
C2401 H2391 0.929 . S
C2401 C2399 1.433 . S
C2401 N2404 1.384 . S
C2402 H2393 0.929 . S
C2402 C2394 1.378 . S
C2402 C2397 1.350 . S
C2403 H2390 0.929 . S
C2403 C2395 1.433 . S
C2403 N2405 1.384 . S
N2404 C2400 1.427 . S
N2404 C2401 1.384 . S
N2405 C2397 1.427 . S
N2405 C2403 1.384 . S
H2406 C2412 0.930 . S
H2407 C2416 0.930 . S
H2408 C2421 0.929 . S
H2409 C2419 0.929 . S
H2410 C2414 0.929 . S
H2411 C2420 0.929 . S
C2412 H2406 0.930 . S
C2412 C2413 1.367 . S
C2412 C2420 1.378 . S
C2413 C2412 1.367 . S
C2413 C2421 1.433 . S
C2414 H2410 0.929 . S
C2414 C2416 1.378 . S
C2414 C2418 1.350 . S
C2415 C2418 1.463 . S
C2415 C2420 1.350 . S
C2415 N2423 1.427 . S
C2416 H2407 0.930 . S
C2416 C2414 1.378 . S
C2416 C2417 1.367 . S
C2417 C2416 1.367 . S
C2417 C2419 1.433 . S
C2418 C2414 1.350 . S
C2418 C2415 1.463 . S
C2418 N2422 1.427 . S
C2419 H2409 0.929 . S
C2419 C2417 1.433 . S
C2419 N2422 1.384 . S
C2420 H2411 0.929 . S
C2420 C2412 1.378 . S
C2420 C2415 1.350 . S
C2421 H2408 0.929 . S
C2421 C2413 1.433 . S
C2421 N2423 1.384 . S
N2422 C2418 1.427 . S
N2422 C2419 1.384 . S
N2423 C2415 1.427 . S
N2423 C2421 1.384 . S
H2424 C2430 0.930 . S
H2425 C2434 0.930 . S
H2426 C2439 0.929 . S
H2427 C2437 0.929 . S
H2428 C2432 0.929 . S
H2429 C2438 0.929 . S
C2430 H2424 0.930 . S
C2430 C2431 1.367 . S
C2430 C2438 1.378 . S
C2431 C2430 1.367 . S
C2431 C2439 1.433 . S
C2432 H2428 0.929 . S
C2432 C2434 1.378 . S
C2432 C2436 1.350 . S
C2433 C2436 1.463 1_554 S
C2433 C2438 1.350 . S
C2433 N2441 1.427 . S
C2434 H2425 0.930 . S
C2434 C2432 1.378 . S
C2434 C2435 1.367 . S
C2435 C2434 1.367 . S
C2435 C2437 1.433 . S
C2436 C2432 1.350 . S
C2436 C2433 1.463 1_556 S
C2436 N2440 1.427 . S
C2437 H2427 0.929 . S
C2437 C2435 1.433 . S
C2437 N2440 1.384 . S
C2438 H2429 0.929 . S
C2438 C2430 1.378 . S
C2438 C2433 1.350 . S
C2439 H2426 0.929 . S
C2439 C2431 1.433 . S
C2439 N2441 1.384 . S
N2440 C2436 1.427 . S
N2440 C2437 1.384 . S
N2441 C2433 1.427 . S
N2441 C2439 1.384 . S
H2442 C2448 0.930 . S
H2443 C2452 0.930 . S
H2444 C2457 0.929 . S
H2445 C2455 0.929 . S
H2446 C2450 0.929 . S
H2447 C2456 0.929 . S
C2448 H2442 0.930 . S
C2448 C2449 1.367 . S
C2448 C2456 1.378 . S
C2449 C2448 1.367 . S
C2449 C2457 1.433 . S
C2450 H2446 0.929 . S
C2450 C2452 1.378 . S
C2450 C2454 1.350 . S
C2451 C2454 1.463 1_455 S
C2451 C2456 1.350 . S
C2451 N2459 1.427 . S
C2452 H2443 0.930 . S
C2452 C2450 1.378 . S
C2452 C2453 1.367 . S
C2453 C2452 1.367 . S
C2453 C2455 1.433 . S
C2454 C2450 1.350 . S
C2454 C2451 1.463 1_655 S
C2454 N2458 1.427 . S
C2455 H2445 0.929 . S
C2455 C2453 1.433 . S
C2455 N2458 1.384 . S
C2456 H2447 0.929 . S
C2456 C2448 1.378 . S
C2456 C2451 1.350 . S
C2457 H2444 0.929 . S
C2457 C2449 1.433 . S
C2457 N2459 1.384 . S
N2458 C2454 1.427 . S
N2458 C2455 1.384 . S
N2459 C2451 1.427 . S
N2459 C2457 1.384 . S
H2460 C2466 0.923 1_655 S
H2461 C2470 0.923 1_455 S
H2462 C2475 0.929 . S
H2463 C2473 0.929 . S
H2464 C2468 0.929 . S
H2465 C2474 0.929 . S
C2466 H2460 0.923 1_455 S
C2466 C2467 1.381 . S
C2466 C2474 1.372 1_455 S
C2467 C2466 1.381 . S
C2467 C2475 1.433 . S
C2468 H2464 0.929 . S
C2468 C2470 1.372 1_455 S
C2468 C2472 1.350 1_455 S
C2469 C2472 1.463 1_456 S
C2469 C2474 1.350 1_455 S
C2469 N2477 1.427 . S
C2470 H2461 0.923 1_655 S
C2470 C2468 1.372 1_655 S
C2470 C2471 1.381 . S
C2471 C2470 1.381 . S
C2471 C2473 1.433 . S
C2472 C2468 1.350 1_655 S
C2472 C2469 1.463 1_654 S
C2472 N2476 1.427 . S
C2473 H2463 0.929 . S
C2473 C2471 1.433 . S
C2473 N2476 1.384 . S
C2474 H2465 0.929 . S
C2474 C2466 1.372 1_655 S
C2474 C2469 1.350 1_655 S
C2475 H2462 0.929 . S
C2475 C2467 1.433 . S
C2475 N2477 1.384 . S
N2476 C2472 1.427 . S
N2476 C2473 1.384 . S
N2477 C2469 1.427 . S
N2477 C2475 1.384 . S
H2478 C2484 0.930 . S
H2479 C2488 0.930 . S
H2480 C2493 0.929 . S
H2481 C2491 0.929 . S
H2482 C2486 0.929 . S
H2483 C2492 0.929 . S
C2484 H2478 0.930 . S
C2484 C2485 1.367 . S
C2484 C2492 1.378 . S
C2485 C2484 1.367 . S
C2485 C2493 1.433 . S
C2486 H2482 0.929 . S
C2486 C2488 1.378 . S
C2486 C2490 1.350 . S
C2487 C2490 1.463 . S
C2487 C2492 1.350 . S
C2487 N2495 1.427 . S
C2488 H2479 0.930 . S
C2488 C2486 1.378 . S
C2488 C2489 1.367 . S
C2489 C2488 1.367 . S
C2489 C2491 1.433 . S
C2490 C2486 1.350 . S
C2490 C2487 1.463 . S
C2490 N2494 1.427 . S
C2491 H2481 0.929 . S
C2491 C2489 1.433 . S
C2491 N2494 1.384 . S
C2492 H2483 0.929 . S
C2492 C2484 1.378 . S
C2492 C2487 1.350 . S
C2493 H2480 0.929 . S
C2493 C2485 1.433 . S
C2493 N2495 1.384 . S
N2494 C2490 1.427 . S
N2494 C2491 1.384 . S
N2495 C2487 1.427 . S
N2495 C2493 1.384 . S
C1063 N608 1.044 . S
C1067 N14 1.043 . S
C1081 N47 1.044 . S
C1085 N641 1.046 . S
C1099 N80 1.062 . S
C1103 N542 1.063 . S
C1117 N575 1.038 . S
C1121 N113 1.038 . S
C1135 N146 1.064 . S
C1139 N740 1.065 . S
C1153 N773 1.047 . S
C1157 N179 1.046 . S
C1171 N212 1.057 . S
C1175 N674 1.058 . S
C1189 N245 1.067 . S
C1193 N707 1.068 . S
C1207 N278 1.062 . S
C1211 N872 1.064 . S
C1225 N905 1.046 . S
C1229 N311 1.047 . S
C1243 N344 1.044 . S
C1247 N806 1.045 . S
C1261 N377 1.044 . S
C1265 N839 1.043 . S
C1279 N410 1.049 . S
C1283 N1004 1.051 . S
C1297 N1037 1.063 . S
C1301 N443 1.062 . S
C1315 N938 1.050 . S
C1319 N476 1.051 . S
C1333 N971 1.046 . S
C1337 N509 1.048 . S
C1351 C371 0.854 . S
C1355 C28 0.857 . S
C1369 C800 0.846 . S
C1373 C61 0.867 . S
C1387 C94 0.845 . S
C1391 C305 0.868 . S
C1405 C866 0.851 . S
C1409 C127 0.864 . S
C1423 C437 0.866 . S
C1427 C160 0.848 . S
C1441 C193 0.849 . S
C1445 C998 0.865 . S
C1459 C503 0.857 . S
C1463 C226 0.857 . S
C1477 C932 0.857 . S
C1481 C259 0.857 . S
C1495 C107 0.870 . S
C1499 C292 0.843 . S
C1513 C325 0.844 . S
C1517 C536 0.869 . S
C1531 C358 0.846 . S
C1535 C41 0.863 . S
C1549 C602 0.861 . S
C1553 C391 0.854 . S
C1567 C424 0.852 . S
C1571 C173 0.858 . S
C1585 C734 0.869 . S
C1589 C457 0.842 . S
C1603 C490 0.842 . S
C1607 C239 0.869 . S
C1621 C523 0.866 . S
C1625 C668 0.848 . S
C1639 C899 0.869 . S
C1643 C556 0.843 . S
C1657 C589 0.852 . S
C1661 C272 0.858 . S
C1675 C622 0.868 . S
C1679 C833 0.845 . S
C1693 C338 0.868 . S
C1697 C655 0.842 . S
C1711 C688 0.866 . S
C1715 C965 0.846 . S
C1729 C721 0.847 . S
C1733 C470 0.867 . S
C1747 C1031 0.869 . S
C1751 C754 0.842 . S
C1765 C404 0.863 . S
C1769 C787 0.851 . S
C1783 C635 0.859 . S
C1787 C820 0.850 . S
C1801 C853 0.842 . S
C1805 C8 0.870 . S
C1819 C886 0.850 . S
C1823 C569 0.860 . S
C1837 C74 0.851 . S
C1841 C919 0.860 . S
C1855 C952 0.858 . S
C1859 C701 0.857 . S
C1873 C985 0.858 . S
C1877 C206 0.857 . S
C1891 C767 0.868 . S
C1895 C1018 0.845 . S
C1909 C140 0.863 . S
C1913 C1051 0.851 . S
C1927 N236 1.868 . S
C1931 N5 1.869 . S
C1945 N137 1.868 . S
C1949 N38 1.868 . S
C1963 N71 1.869 . S
C1967 N170 1.869 . S
C1981 N203 1.873 . S
C1985 N104 1.873 . S
C1999 N500 1.873 . S
C2003 N269 1.873 . S
C2017 N302 1.869 . S
C2021 N401 1.868 . S
C2035 N434 1.868 . S
C2039 N335 1.868 . S
C2053 N467 1.873 . S
C2057 N368 1.873 . S
C2071 N764 1.873 . S
C2075 N533 1.873 . S
C2089 N665 1.868 . S
C2093 N566 1.868 . S
C2107 N698 1.870 . S
C2111 N599 1.871 . S
C2125 N731 1.873 . S
C2129 N632 1.873 . S
C2143 N797 1.872 . S
C2147 N1028 1.873 . S
C2161 N830 1.868 . S
C2165 N929 1.868 . S
C2179 N863 1.870 . S
C2183 N962 1.871 . S
C2197 N995 1.869 . S
C2201 N896 1.868 . S
C2215 C17 1.396 . S
C2219 C809 1.396 . S
C2233 C314 1.395 . S
C2237 C50 1.395 . S
C2251 C875 1.398 . S
C2255 C83 1.398 . S
C2269 C116 1.393 . S
C2273 C380 1.393 . S
C2287 C149 1.397 . S
C2291 C941 1.397 . S
C2305 C182 1.394 . S
C2309 C446 1.394 . S
C2323 C1007 1.397 . S
C2327 C215 1.397 . S
C2341 C248 1.392 . S
C2345 C512 1.392 . S
C2359 C545 1.394 . S
C2363 C281 1.394 . S
C2377 C611 1.394 . S
C2381 C347 1.394 . S
C2395 C413 1.391 . S
C2399 C677 1.391 . S
C2413 C479 1.397 . S
C2417 C743 1.397 . S
C2431 C842 1.391 . S
C2435 C578 1.391 . S
C2449 C908 1.397 . S
C2453 C644 1.397 . S
C2467 C974 1.395 . S
C2471 C710 1.395 . S
C2485 C1040 1.394 . S
C2489 C776 1.394 . S
