# Generated by pormake.
# Topology unn, (4)-cn, num edge types: 1
# Building blocks:
#     Node 0, Type 0, BuildingBlock: NAWXER_clean_sbu_0, # of connection points: 4
#     Node 1, Type 0, BuildingBlock: NAWXER_clean_sbu_0, # of connection points: 4
#     Node 2, Type 0, BuildingBlock: NAWXER_clean_sbu_0, # of connection points: 4
#     Node 3, Type 0, BuildingBlock: NAWXER_clean_sbu_0, # of connection points: 4
#     Node 4, Type 0, BuildingBlock: NAWXER_clean_sbu_0, # of connection points: 4
#     Node 5, Type 0, BuildingBlock: NAWXER_clean_sbu_0, # of connection points: 4
#     Node 6, Type 0, BuildingBlock: NAWXER_clean_sbu_0, # of connection points: 4
#     Node 7, Type 0, BuildingBlock: NAWXER_clean_sbu_0, # of connection points: 4
#     Node 8, Type 0, BuildingBlock: NAWXER_clean_sbu_0, # of connection points: 4
#     Node 9, Type 0, BuildingBlock: NAWXER_clean_sbu_0, # of connection points: 4
#     Node 10, Type 0, BuildingBlock: NAWXER_clean_sbu_0, # of connection points: 4
#     Node 11, Type 0, BuildingBlock: NAWXER_clean_sbu_0, # of connection points: 4
#     Node 12, Type 0, BuildingBlock: NAWXER_clean_sbu_0, # of connection points: 4
#     Node 13, Type 0, BuildingBlock: NAWXER_clean_sbu_0, # of connection points: 4
#     Node 14, Type 0, BuildingBlock: NAWXER_clean_sbu_0, # of connection points: 4
#     Node 15, Type 0, BuildingBlock: NAWXER_clean_sbu_0, # of connection points: 4
#     Node 16, Type 0, BuildingBlock: NAWXER_clean_sbu_0, # of connection points: 4
#     Node 17, Type 0, BuildingBlock: NAWXER_clean_sbu_0, # of connection points: 4
#     Edge 18, Type (0, 0), BuildingBlock: UVAHIK_clean_linker_0, # of connection points: 2
#     Edge 19, Type (0, 0), BuildingBlock: UVAHIK_clean_linker_0, # of connection points: 2
#     Edge 20, Type (0, 0), BuildingBlock: UVAHIK_clean_linker_0, # of connection points: 2
#     Edge 21, Type (0, 0), BuildingBlock: UVAHIK_clean_linker_0, # of connection points: 2
#     Edge 22, Type (0, 0), BuildingBlock: UVAHIK_clean_linker_0, # of connection points: 2
#     Edge 23, Type (0, 0), BuildingBlock: UVAHIK_clean_linker_0, # of connection points: 2
#     Edge 24, Type (0, 0), BuildingBlock: UVAHIK_clean_linker_0, # of connection points: 2
#     Edge 25, Type (0, 0), BuildingBlock: UVAHIK_clean_linker_0, # of connection points: 2
#     Edge 26, Type (0, 0), BuildingBlock: UVAHIK_clean_linker_0, # of connection points: 2
#     Edge 27, Type (0, 0), BuildingBlock: UVAHIK_clean_linker_0, # of connection points: 2
#     Edge 28, Type (0, 0), BuildingBlock: UVAHIK_clean_linker_0, # of connection points: 2
#     Edge 29, Type (0, 0), BuildingBlock: UVAHIK_clean_linker_0, # of connection points: 2
#     Edge 30, Type (0, 0), BuildingBlock: UVAHIK_clean_linker_0, # of connection points: 2
#     Edge 31, Type (0, 0), BuildingBlock: UVAHIK_clean_linker_0, # of connection points: 2
#     Edge 32, Type (0, 0), BuildingBlock: UVAHIK_clean_linker_0, # of connection points: 2
#     Edge 33, Type (0, 0), BuildingBlock: UVAHIK_clean_linker_0, # of connection points: 2
#     Edge 34, Type (0, 0), BuildingBlock: UVAHIK_clean_linker_0, # of connection points: 2
#     Edge 35, Type (0, 0), BuildingBlock: UVAHIK_clean_linker_0, # of connection points: 2
#     Edge 36, Type (0, 0), BuildingBlock: UVAHIK_clean_linker_0, # of connection points: 2
#     Edge 37, Type (0, 0), BuildingBlock: UVAHIK_clean_linker_0, # of connection points: 2
#     Edge 38, Type (0, 0), BuildingBlock: UVAHIK_clean_linker_0, # of connection points: 2
#     Edge 39, Type (0, 0), BuildingBlock: UVAHIK_clean_linker_0, # of connection points: 2
#     Edge 40, Type (0, 0), BuildingBlock: UVAHIK_clean_linker_0, # of connection points: 2
#     Edge 41, Type (0, 0), BuildingBlock: UVAHIK_clean_linker_0, # of connection points: 2
#     Edge 42, Type (0, 0), BuildingBlock: UVAHIK_clean_linker_0, # of connection points: 2
#     Edge 43, Type (0, 0), BuildingBlock: UVAHIK_clean_linker_0, # of connection points: 2
#     Edge 44, Type (0, 0), BuildingBlock: UVAHIK_clean_linker_0, # of connection points: 2
#     Edge 45, Type (0, 0), BuildingBlock: UVAHIK_clean_linker_0, # of connection points: 2
#     Edge 46, Type (0, 0), BuildingBlock: UVAHIK_clean_linker_0, # of connection points: 2
#     Edge 47, Type (0, 0), BuildingBlock: UVAHIK_clean_linker_0, # of connection points: 2
#     Edge 48, Type (0, 0), BuildingBlock: UVAHIK_clean_linker_0, # of connection points: 2
#     Edge 49, Type (0, 0), BuildingBlock: UVAHIK_clean_linker_0, # of connection points: 2
#     Edge 50, Type (0, 0), BuildingBlock: UVAHIK_clean_linker_0, # of connection points: 2
#     Edge 51, Type (0, 0), BuildingBlock: UVAHIK_clean_linker_0, # of connection points: 2
#     Edge 52, Type (0, 0), BuildingBlock: UVAHIK_clean_linker_0, # of connection points: 2
#     Edge 53, Type (0, 0), BuildingBlock: UVAHIK_clean_linker_0, # of connection points: 2
# Relax obj value: 0.039
# Max RMSD: 0.205
# Mean RMSD: 0.205
data_MOF--net-unn--node1-NAWXER_clean_sbu_0--edge1-UVAHIK_clean_linker_0
_symmetry_space_group_name_H-M    P1
_symmetry_Int_Tables_number       1
_symmetry_cell_setting            triclinic
loop_
_symmetry_equiv_pos_as_xyz
'x, y, z'
_cell_length_a     59.189146
_cell_length_b     59.190656
_cell_length_c     54.385017
_cell_angle_alpha  90.013626
_cell_angle_beta   89.976321
_cell_angle_gamma 120.01496
loop_
_atom_site_label
_atom_site_type_symbol
_atom_site_fract_x
_atom_site_fract_y
_atom_site_fract_z
_atom_type_partial_charge
C0 C 0.97603 0.73861 0.21805 0.0
C1 C 0.06266 0.78199 0.25716 0.0
O2 O 0.9895 0.76267 0.22366 0.0
Zn3 Zn 0.0194 0.76154 0.23761 0.0
O4 O 0.98498 0.7234 0.22292 0.0
Zn5 Zn 0.01859 0.72502 0.23887 0.0
O6 O 1.00417 0.70237 0.26674 0.0
O7 O 1.00369 0.7393 0.27052 0.0
O8 O 0.05303 0.75744 0.25372 0.0
O9 O 0.04976 0.79283 0.25035 0.0
O10 O 0.03503 0.75249 0.20605 0.0
O11 O 0.03199 0.71415 0.21206 0.0
C12 C 0.99894 0.71726 0.27933 0.0
C13 C 0.03865 0.73401 0.19853 0.0
C14 C 0.29581 0.24964 0.21735 0.0
C15 C 0.25373 0.29348 0.25778 0.0
O16 O 0.27183 0.23928 0.22319 0.0
Zn17 Zn 0.2735 0.2704 0.23758 0.0
O18 O 0.31131 0.27374 0.2223 0.0
Zn19 Zn 0.31031 0.30585 0.23874 0.0
O20 O 0.33314 0.31363 0.26642 0.0
O21 O 0.29596 0.27645 0.2702 0.0
O22 O 0.27828 0.3082 0.25416 0.0
O23 O 0.24256 0.26976 0.25084 0.0
O24 O 0.2824 0.29543 0.20636 0.0
O25 O 0.32112 0.33035 0.21212 0.0
C26 C 0.31815 0.29348 0.27895 0.0
C27 C 0.30095 0.3175 0.19885 0.0
C28 C 0.74135 0.97364 0.25957 0.0
C29 C 0.78249 0.05912 0.21851 0.0
O30 O 0.76507 0.98706 0.25286 0.0
Zn31 Zn 0.76301 0.01646 0.23892 0.0
O32 O 0.72579 0.98233 0.25538 0.0
Zn33 Zn 0.72648 0.01539 0.23916 0.0
O34 O 0.70239 1.00006 0.21256 0.0
O35 O 0.7393 0.99991 0.20683 0.0
O36 O 0.75809 0.04953 0.22282 0.0
O37 O 0.79366 0.04644 0.225 0.0
O38 O 0.75543 0.03306 0.27075 0.0
O39 O 0.7167 0.0295 0.26608 0.0
C40 C 0.71671 0.99473 0.19919 0.0
C41 C 0.73719 0.0368 0.27881 0.0
C42 C 0.99942 0.29242 0.77952 0.0
C43 C 0.03675 0.31003 0.69766 0.0
O44 O 1.0035 0.27438 0.77156 0.0
Zn45 Zn 0.01818 0.26568 0.73913 0.0
O46 O 1.00485 0.31203 0.76603 0.0
Zn47 Zn 0.01827 0.30187 0.73867 0.0
O48 O 0.98383 0.26927 0.72428 0.0
O49 O 0.98768 0.23416 0.72687 0.0
O50 O 0.03165 0.3247 0.71079 0.0
O51 O 0.03262 0.28809 0.70616 0.0
O52 O 0.04868 0.26497 0.75187 0.0
O53 O 0.05259 0.30398 0.75361 0.0
C54 C 0.97439 0.24478 0.72069 0.0
C55 C 0.06198 0.28897 0.75772 0.0
C56 C 0.73648 0.7122 0.77882 0.0
C57 C 0.71692 0.73281 0.69832 0.0
O58 O 0.75417 0.73468 0.77121 0.0
Zn59 Zn 0.76224 0.75837 0.73901 0.0
O60 O 0.71708 0.69787 0.76519 0.0
Zn61 Zn 0.72659 0.72188 0.73837 0.0
O62 O 0.75918 0.72091 0.72313 0.0
O63 O 0.79385 0.76011 0.7258 0.0
O64 O 0.70336 0.7123 0.71093 0.0
O65 O 0.73876 0.75095 0.70674 0.0
O66 O 0.76279 0.7891 0.75267 0.0
O67 O 0.72398 0.75362 0.7542 0.0
C68 C 0.78354 0.73633 0.7193 0.0
C69 C 0.73879 0.77799 0.75866 0.0
C70 C 0.29535 0.05942 0.71908 0.0
C71 C 0.25232 0.97262 0.75781 0.0
O72 O 0.31085 0.05099 0.7246 0.0
Zn73 Zn 0.30952 0.01773 0.74096 0.0
O74 O 0.27118 0.04544 0.72403 0.0
Zn75 Zn 0.27257 0.01588 0.7385 0.0
O76 O 0.2934 0.03144 0.77211 0.0
O77 O 0.33107 0.03226 0.76948 0.0
O78 O 0.24123 0.98511 0.75051 0.0
O79 O 0.27704 0.98277 0.75511 0.0
O80 O 0.3217 1.0048 0.71478 0.0
O81 O 0.28294 1.00041 0.70772 0.0
C82 C 0.31529 0.03663 0.78162 0.0
C83 C 0.30196 0.99732 0.70089 0.0
C84 C 0.64198 0.06782 0.55253 0.0
C85 C 0.7284 0.11013 0.5919 0.0
O86 O 0.65532 0.09162 0.55902 0.0
Zn87 Zn 0.68534 0.09019 0.57222 0.0
O88 O 0.65111 0.05256 0.55634 0.0
Zn89 Zn 0.68486 0.05388 0.57153 0.0
O90 O 0.67052 0.02982 0.59834 0.0
O91 O 0.66985 0.06642 0.60439 0.0
O92 O 0.71904 0.08579 0.58741 0.0
O93 O 0.71534 0.12106 0.58591 0.0
O94 O 0.7016 0.08304 0.53994 0.0
O95 O 0.6987 0.04454 0.54404 0.0
C96 C 0.66526 0.04401 0.61199 0.0
C97 C 0.70552 0.06506 0.53148 0.0
C98 C 0.98789 0.63057 0.61203 0.0
C99 C 0.96782 0.65098 0.53174 0.0
O100 O 1.00202 0.65041 0.5988 0.0
Zn101 Zn 0.97817 0.64113 0.5719 0.0
O102 O 0.96557 0.6128 0.60417 0.0
Zn103 Zn 0.94208 0.60512 0.57186 0.0
O104 O 0.94085 0.5739 0.55847 0.0
O105 O 0.97983 0.60899 0.55608 0.0
O106 O 0.94996 0.62868 0.53956 0.0
O107 O 0.98762 0.66503 0.54503 0.0
O108 O 0.94609 0.64293 0.5877 0.0
O109 O 0.91092 0.60402 0.58524 0.0
C110 C 0.96469 0.58461 0.55201 0.0
C111 C 0.92169 0.62785 0.59174 0.0
C112 C 0.44783 0.39268 0.55213 0.0
C113 C 0.40558 0.30624 0.59155 0.0
O114 O 0.45881 0.37977 0.55845 0.0
Zn115 Zn 0.42791 0.34959 0.57185 0.0
O116 O 0.42339 0.38313 0.55623 0.0
Zn117 Zn 0.39143 0.34879 0.57191 0.0
O118 O 0.3815 0.36242 0.59918 0.0
O119 O 0.42007 0.36563 0.60384 0.0
O120 O 0.39023 0.31518 0.58737 0.0
O121 O 0.42948 0.31976 0.58541 0.0
O122 O 0.40455 0.33372 0.53951 0.0
O123 O 0.36773 0.33414 0.54488 0.0
C124 C 0.40187 0.36935 0.61201 0.0
C125 C 0.38215 0.32885 0.53161 0.0
C126 C 0.66492 0.62662 0.11362 0.0
C127 C 0.7031 0.64566 0.03205 0.0
O128 O 0.66936 0.60889 0.10546 0.0
Zn129 Zn 0.68454 0.60084 0.07308 0.0
O130 O 0.67024 0.64636 0.10037 0.0
Zn131 Zn 0.68413 0.63685 0.07288 0.0
O132 O 0.6501 0.60422 0.05803 0.0
O133 O 0.6543 0.56931 0.06036 0.0
O134 O 0.69756 0.66 0.04518 0.0
O135 O 0.69916 0.62374 0.04044 0.0
O136 O 0.7152 0.60048 0.08595 0.0
O137 O 0.71855 0.63925 0.08785 0.0
C138 C 0.6409 0.57981 0.05418 0.0
C139 C 0.72822 0.62448 0.0919 0.0
C140 C 0.40494 0.04736 0.1143 0.0
C141 C 0.38055 0.06285 0.03371 0.0
O142 O 0.4221 0.06923 0.10508 0.0
Zn143 Zn 0.42806 0.09091 0.07193 0.0
O144 O 0.38455 0.0323 0.1021 0.0
Zn145 Zn 0.39227 0.05446 0.07392 0.0
O146 O 0.42399 0.05256 0.05744 0.0
O147 O 0.45881 0.09185 0.05768 0.0
O148 O 0.36724 0.04344 0.04772 0.0
O149 O 0.40298 0.08121 0.04065 0.0
O150 O 0.42913 0.12246 0.08423 0.0
O151 O 0.39059 0.08709 0.08843 0.0
C152 C 0.44811 0.06773 0.05225 0.0
C153 C 0.4055 0.1117 0.09137 0.0
C154 C 0.96381 0.39289 0.05276 0.0
C155 C 0.91972 0.30639 0.09191 0.0
O156 O 0.97868 0.38331 0.0567 0.0
Zn157 Zn 0.97644 0.34913 0.07222 0.0
O158 O 0.93994 0.37997 0.05915 0.0
Zn159 Zn 0.94068 0.34963 0.07224 0.0
O160 O 0.96424 0.36501 0.10464 0.0
O161 O 1.00034 0.36325 0.09907 0.0
O162 O 0.90923 0.3197 0.08543 0.0
O163 O 0.94409 0.31544 0.08792 0.0
O164 O 0.98566 0.33465 0.04525 0.0
O165 O 0.94836 0.33405 0.0397 0.0
C166 C 0.98647 0.3692 0.11241 0.0
C167 C 0.96605 0.32936 0.03186 0.0
C168 C 0.309 0.40015 0.88495 0.0
C169 C 0.39461 0.44305 0.92589 0.0
O170 O 0.32211 0.42402 0.89131 0.0
Zn171 Zn 0.35182 0.42277 0.90542 0.0
O172 O 0.31814 0.385 0.88935 0.0
Zn173 Zn 0.35183 0.38668 0.90542 0.0
O174 O 0.33747 0.36295 0.93249 0.0
O175 O 0.33515 0.3988 0.93726 0.0
O176 O 0.3855 0.41875 0.9215 0.0
O177 O 0.38149 0.45378 0.91952 0.0
O178 O 0.36867 0.41556 0.87365 0.0
O179 O 0.36626 0.37734 0.87837 0.0
C180 C 0.3309 0.37666 0.94536 0.0
C181 C 0.37296 0.39769 0.86557 0.0
C182 C 0.62936 0.9767 0.86523 0.0
C183 C 0.64761 0.95771 0.94713 0.0
O184 O 0.64902 0.9911 0.87858 0.0
Zn185 Zn 0.63902 0.96788 0.90624 0.0
O186 O 0.61135 0.9547 0.87346 0.0
Zn187 Zn 0.60276 0.93175 0.90611 0.0
O188 O 0.57144 0.93104 0.91855 0.0
O189 O 0.60663 0.96998 0.92074 0.0
O190 O 0.62558 0.93987 0.9388 0.0
O191 O 0.66209 0.9775 0.93396 0.0
O192 O 0.64087 0.93541 0.89158 0.0
O193 O 0.6018 0.90036 0.89353 0.0
C194 C 0.58216 0.95501 0.92453 0.0
C195 C 0.6258 0.91099 0.88764 0.0
C196 C 0.11724 0.72621 0.88607 0.0
C197 C 0.07508 0.64007 0.92599 0.0
O198 O 0.12841 0.7137 0.89312 0.0
Zn199 Zn 0.0974 0.68322 0.90602 0.0
O200 O 0.09264 0.71627 0.88946 0.0
Zn201 Zn 0.06055 0.68173 0.90456 0.0
O202 O 0.04936 0.69511 0.93114 0.0
O203 O 0.08801 0.69891 0.9373 0.0
O204 O 0.05956 0.6486 0.92093 0.0
O205 O 0.09911 0.6538 0.92035 0.0
O206 O 0.07525 0.66689 0.8732 0.0
O207 O 0.03798 0.66673 0.87672 0.0
C208 C 0.06931 0.70226 0.94467 0.0
C209 C 0.0531 0.66167 0.8643 0.0
C210 C 0.33226 0.96328 0.44765 0.0
C211 C 0.37177 0.98305 0.36683 0.0
O212 O 0.33587 0.94503 0.43937 0.0
Zn213 Zn 0.35123 0.93707 0.40688 0.0
O214 O 0.33864 0.98339 0.4346 0.0
Zn215 Zn 0.35196 0.97345 0.40716 0.0
O216 O 0.31755 0.94162 0.39153 0.0
O217 O 0.32092 0.90621 0.39355 0.0
O218 O 0.36646 0.99734 0.38027 0.0
O219 O 0.36698 0.96061 0.37456 0.0
O220 O 0.38116 0.93538 0.41994 0.0
O221 O 0.38572 0.97461 0.42229 0.0
C222 C 0.308 0.9172 0.38733 0.0
C223 C 0.39469 0.95924 0.42621 0.0
C224 C 0.07519 0.44759 0.42574 0.0
C225 C 0.11866 0.40427 0.38703 0.0
O226 O 0.05992 0.42341 0.42088 0.0
Zn227 Zn 0.06162 0.3914 0.40476 0.0
O228 O 0.09926 0.45814 0.42016 0.0
Zn229 Zn 0.09807 0.42709 0.4064 0.0
O230 O 0.07614 0.42081 0.3733 0.0
O231 O 0.0392 0.38334 0.37678 0.0
O232 O 0.1295 0.42793 0.39408 0.0
O233 O 0.09405 0.38943 0.39013 0.0
O234 O 0.05062 0.3667 0.43116 0.0
O235 O 0.08835 0.40252 0.43814 0.0
C236 C 0.05416 0.40356 0.36434 0.0
C237 C 0.06992 0.38017 0.44522 0.0
C238 C 0.63176 0.72644 0.38625 0.0
C239 C 0.58703 0.64062 0.42674 0.0
O240 O 0.64645 0.71666 0.3903 0.0
Zn241 Zn 0.64369 0.68226 0.40626 0.0
O242 O 0.60792 0.71385 0.39282 0.0
Zn243 Zn 0.60837 0.68362 0.40637 0.0
O244 O 0.63275 0.6999 0.43812 0.0
O245 O 0.6677 0.69604 0.4331 0.0
O246 O 0.57686 0.65423 0.4203 0.0
O247 O 0.61124 0.64919 0.42241 0.0
O248 O 0.6522 0.66703 0.37939 0.0
O249 O 0.61529 0.66726 0.374 0.0
C250 C 0.6547 0.70343 0.44602 0.0
C251 C 0.63256 0.66199 0.36613 0.0
C252 C 0.04824 0.71342 0.16285 0.0
C253 C 0.04882 0.73531 0.1735 0.0
C254 C 0.05495 0.71386 0.13817 0.0
C255 C 0.08007 0.72357 0.08771 0.0
H256 H 0.0496 0.75195 0.04285 0.0
C257 C 0.09348 0.7222 0.98351 0.0
C258 C 0.07051 0.71269 0.96955 0.0
C259 C 0.09394 0.7292 0.00804 0.0
C260 C 0.05823 0.74397 0.05516 0.0
H261 H 0.05841 0.77537 0.16712 0.0
H262 H 0.0704 0.77617 0.12421 0.0
H263 H 0.04541 0.75545 0.08708 0.0
H264 H 0.03039 0.70428 0.96998 0.0
H265 H 0.03109 0.71622 0.01301 0.0
H266 H 0.09193 0.71111 0.05581 0.0
C267 C 0.06424 0.75851 0.13476 0.0
C268 C 0.05609 0.74622 0.08047 0.0
C269 C 0.05747 0.75806 0.15937 0.0
C270 C 0.04837 0.71153 0.98028 0.0
C271 C 0.04881 0.71847 0.00488 0.0
C272 C 0.08221 0.72133 0.06241 0.0
C273 C 0.06245 0.73623 0.12376 0.0
C274 C 0.06668 0.73572 0.097 0.0
C275 C 0.07143 0.72679 0.01915 0.0
C276 C 0.071 0.73119 0.04588 0.0
H277 H 0.04164 0.69561 0.17327 0.0
H278 H 0.05318 0.6963 0.13013 0.0
H279 H 0.08862 0.71551 0.10002 0.0
H280 H 0.11098 0.72361 0.97569 0.0
H281 H 0.11178 0.73601 0.01846 0.0
C282 C 0.31976 0.34676 0.98146 0.0
C283 C 0.32016 0.36834 0.9703 0.0
C284 C 0.31259 0.34095 0.0061 0.0
C285 C 0.31228 0.37371 0.06299 0.0
H286 H 0.27513 0.30318 0.08862 0.0
C287 C 0.27585 0.31359 0.16077 0.0
C288 C 0.29925 0.32677 0.17414 0.0
C289 C 0.27485 0.32008 0.13633 0.0
C290 C 0.28519 0.32301 0.08176 0.0
H291 H 0.31179 0.39979 0.97571 0.0
H292 H 0.29901 0.38942 0.01859 0.0
H293 H 0.27814 0.3102 0.04433 0.0
H294 H 0.33958 0.35797 0.17285 0.0
H295 H 0.33795 0.36907 0.12996 0.0
H296 H 0.31948 0.38651 0.10043 0.0
C297 C 0.30475 0.37734 0.00845 0.0
C298 C 0.28715 0.327 0.0564 0.0
C299 C 0.31197 0.38318 0.98386 0.0
C300 C 0.32128 0.34746 0.16299 0.0
C301 C 0.3203 0.35389 0.13847 0.0
C302 C 0.31031 0.36973 0.08836 0.0
C303 C 0.3056 0.35657 0.01998 0.0
C304 C 0.30111 0.35235 0.04676 0.0
C305 C 0.29724 0.33981 0.12474 0.0
C306 C 0.29713 0.34432 0.09799 0.0
H307 H 0.32596 0.33496 0.97148 0.0
H308 H 0.31366 0.32495 0.01455 0.0
H309 H 0.32339 0.39349 0.0561 0.0
H310 H 0.25842 0.29775 0.16895 0.0
H311 H 0.25668 0.30923 0.12633 0.0
C312 C 0.727 0.98871 0.15621 0.0
C313 C 0.70828 0.9842 0.17429 0.0
C314 C 0.71942 0.98098 0.13198 0.0
C315 C 0.66423 0.96487 0.09009 0.0
H316 H 0.70503 0.94858 0.04516 0.0
C317 C 0.63592 0.93831 0.98902 0.0
C318 C 0.65502 0.95575 0.97256 0.0
C319 C 0.642 0.93786 0.01367 0.0
C320 C 0.6935 0.95304 0.05761 0.0
H321 H 0.66693 0.96671 0.18174 0.0
H322 H 0.65346 0.95199 0.13963 0.0
H323 H 0.7152 0.9532 0.08907 0.0
H324 H 0.69574 0.98543 0.96867 0.0
H325 H 0.7065 0.98423 0.012 0.0
H326 H 0.64231 0.96419 0.05856 0.0
C327 C 0.6741 0.96244 0.14387 0.0
C328 C 0.69934 0.95584 0.08269 0.0
C329 C 0.68175 0.97071 0.16802 0.0
C330 C 0.68063 0.97191 0.98099 0.0
C331 C 0.68682 0.97112 0.00566 0.0
C332 C 0.6581 0.96153 0.06516 0.0
C333 C 0.69289 0.96808 0.12541 0.0
C334 C 0.68508 0.96229 0.09918 0.0
C335 C 0.66738 0.9545 0.02222 0.0
C336 C 0.67294 0.95603 0.04871 0.0
H337 H 0.74764 0.99924 0.16054 0.0
H338 H 0.7345 0.98611 0.1183 0.0
H339 H 0.65316 0.97039 0.10203 0.0
H340 H 0.61599 0.92561 0.98308 0.0
H341 H 0.62678 0.92486 0.0262 0.0
C342 C 0.71692 0.04674 0.49522 0.0
C343 C 0.71657 0.06783 0.50663 0.0
C344 C 0.72483 0.04862 0.47077 0.0
C345 C 0.75164 0.06069 0.4212 0.0
H346 H 0.72157 0.08983 0.37678 0.0
C347 C 0.7629 0.05749 0.31683 0.0
C348 C 0.73954 0.04803 0.30352 0.0
C349 C 0.76434 0.06537 0.34121 0.0
C350 C 0.73015 0.08169 0.38896 0.0
H351 H 0.72566 0.10795 0.50189 0.0
H352 H 0.73976 0.11127 0.45934 0.0
H353 H 0.71693 0.09253 0.42101 0.0
H354 H 0.69978 0.04065 0.30488 0.0
H355 H 0.70214 0.05398 0.34758 0.0
H356 H 0.76361 0.04859 0.38915 0.0
C357 C 0.73343 0.09314 0.46912 0.0
C358 C 0.72776 0.0835 0.41429 0.0
C359 C 0.72544 0.09124 0.49351 0.0
C360 C 0.71804 0.04781 0.31467 0.0
C361 C 0.71946 0.05561 0.3391 0.0
C362 C 0.75398 0.05884 0.39587 0.0
C363 C 0.73264 0.07166 0.45733 0.0
C364 C 0.73799 0.07251 0.43066 0.0
C365 C 0.74244 0.06389 0.35278 0.0
C366 C 0.74276 0.06882 0.37949 0.0
H367 H 0.71021 0.02846 0.50485 0.0
H368 H 0.72374 0.03162 0.46211 0.0
H369 H 0.75999 0.05233 0.43338 0.0
H370 H 0.77993 0.05817 0.30864 0.0
H371 H 0.78244 0.07209 0.35117 0.0
C372 C 0.95119 0.6407 0.48887 0.0
C373 C 0.96589 0.6594 0.50678 0.0
C374 C 0.95092 0.64822 0.46465 0.0
C375 C 0.99011 0.70286 0.4222 0.0
H376 H 0.93197 0.66244 0.3782 0.0
C377 C 0.9913 0.72993 0.32081 0.0
C378 C 0.98924 0.71039 0.30473 0.0
C379 C 0.98478 0.72436 0.34554 0.0
C380 C 0.94824 0.67388 0.39039 0.0
H381 H 0.99065 0.7007 0.51393 0.0
H382 H 0.98923 0.71411 0.47183 0.0
H383 H 0.927 0.65277 0.42221 0.0
H384 H 0.97738 0.6694 0.30155 0.0
H385 H 0.96543 0.65955 0.34498 0.0
H386 H 1.01109 0.7242 0.39031 0.0
C387 C 0.9787 0.6935 0.4762 0.0
C388 C 0.94554 0.66831 0.41553 0.0
C389 C 0.97942 0.68589 0.50034 0.0
C390 C 0.97928 0.68485 0.31358 0.0
C391 C 0.97231 0.67918 0.3383 0.0
C392 C 0.99259 0.70875 0.39721 0.0
C393 C 0.96494 0.6747 0.45791 0.0
C394 C 0.96664 0.68238 0.43168 0.0
C395 C 0.97563 0.69906 0.35451 0.0
C396 C 0.97186 0.69402 0.3811 0.0
H397 H 0.94069 0.62009 0.49333 0.0
H398 H 0.94051 0.63312 0.45109 0.0
H399 H 1.00698 0.71378 0.43386 0.0
H400 H 0.99893 0.74981 0.31454 0.0
H401 H 0.9874 0.73993 0.3578 0.0
C402 C 0.3476 0.30511 0.49998 0.0
C403 C 0.37403 0.31852 0.5066 0.0
C404 C 0.34028 0.29667 0.47581 0.0
C405 C 0.36645 0.28921 0.41547 0.0
H406 H 0.31 0.29749 0.38954 0.0
C407 C 0.35044 0.30621 0.31332 0.0
C408 C 0.32501 0.29041 0.30428 0.0
C409 C 0.35596 0.30482 0.33807 0.0
C410 C 0.32561 0.29481 0.39665 0.0
H411 H 0.41356 0.33336 0.49342 0.0
H412 H 0.40103 0.31996 0.45115 0.0
H413 H 0.31993 0.30396 0.43318 0.0
H414 H 0.2857 0.26009 0.31376 0.0
H415 H 0.29534 0.25829 0.35703 0.0
H416 H 0.37295 0.28174 0.37826 0.0
C417 C 0.38575 0.31498 0.46459 0.0
C418 C 0.33122 0.29832 0.42169 0.0
C419 C 0.39299 0.3229 0.48883 0.0
C420 C 0.30549 0.27255 0.32017 0.0
C421 C 0.31092 0.27149 0.34491 0.0
C422 C 0.36114 0.28624 0.39029 0.0
C423 C 0.35931 0.30203 0.45768 0.0
C424 C 0.35191 0.29586 0.43141 0.0
C425 C 0.33605 0.28792 0.3541 0.0
C426 C 0.34082 0.28923 0.38074 0.0
H427 H 0.33259 0.30123 0.51346 0.0
H428 H 0.3197 0.28622 0.47131 0.0
H429 H 0.38217 0.28662 0.42235 0.0
H430 H 0.36587 0.32004 0.30145 0.0
H431 H 0.37547 0.31778 0.34491 0.0
C432 C 0.98081 0.30738 0.81295 0.0
C433 C 0.99007 0.29094 0.8049 0.0
C434 C 0.9739 0.30708 0.83758 0.0
C435 C 0.9929 0.29823 0.8974 0.0
H436 H 0.92737 0.2899 0.92105 0.0
C437 C 0.9775 0.30615 0.00028 0.0
C438 C 0.9643 0.31942 0.00676 0.0
C439 C 0.97722 0.2984 0.976 0.0
C440 C 0.94589 0.29256 0.91474 0.0
H441 H 0.99869 0.2608 0.81605 0.0
H442 H 0.98726 0.26088 0.85908 0.0
H443 H 0.93306 0.28519 0.87718 0.0
H444 H 0.94008 0.33464 -0.00676 0.0
H445 H 0.94066 0.3224 0.95075 0.0
H446 H 1.00655 0.30711 0.93431 0.0
C447 C 0.98514 0.27374 0.8463 0.0
C448 C 0.94902 0.28971 0.88968 0.0
C449 C 0.99161 0.27371 0.82169 0.0
C450 C 0.9503 0.32427 0.98873 0.0
C451 C 0.95049 0.31706 0.96437 0.0
C452 C 0.99001 0.3016 0.92231 0.0
C453 C 0.97659 0.29065 0.85447 0.0
C454 C 0.97258 0.29261 0.8809 0.0
C455 C 0.96426 0.30435 0.95761 0.0
C456 C 0.96652 0.29895 0.93132 0.0
H457 H 0.97932 0.32076 0.80036 0.0
H458 H 0.96747 0.32039 0.84363 0.0
H459 H 1.01137 0.30084 0.89089 0.0
H460 H 0.98816 0.3019 0.01395 0.0
H461 H 0.98748 0.28806 0.97161 0.0
C462 C 0.7216 0.67851 -0.002 0.0
C463 C 0.71228 0.65296 0.00656 0.0
C464 C 0.72835 0.68454 0.97327 0.0
C465 C 0.70891 0.65567 0.91392 0.0
H466 H 0.77491 0.71159 0.88961 0.0
C467 C 0.7243 0.67759 0.81069 0.0
C468 C 0.73796 0.70401 0.80401 0.0
C469 C 0.72443 0.67026 0.83506 0.0
C470 C 0.75625 0.69608 0.8961 0.0
H471 H 0.70332 0.61388 -0.00382 0.0
H472 H 0.71445 0.6244 0.95296 0.0
H473 H 0.76921 0.70201 0.93363 0.0
H474 H 0.76277 0.74347 0.81729 0.0
H475 H 0.76196 0.73093 0.85984 0.0
H476 H 0.69516 0.65049 0.87701 0.0
C477 C 0.71677 0.6397 0.96544 0.0
C478 C 0.75312 0.69058 0.92124 0.0
C479 C 0.71047 0.63377 -0.00985 0.0
C480 C 0.75221 0.72292 0.82192 0.0
C481 C 0.75189 0.71567 0.84634 0.0
C482 C 0.71181 0.66148 0.88891 0.0
C483 C 0.72542 0.66501 0.95678 0.0
C484 C 0.72939 0.67041 0.93027 0.0
C485 C 0.73772 0.68927 0.8533 0.0
C486 C 0.73546 0.68189 0.87967 0.0
H487 H 0.72327 0.69368 0.01029 0.0
H488 H 0.73488 0.70418 0.96683 0.0
H489 H 0.69033 0.64017 0.92063 0.0
H490 H 0.7134 0.66263 0.79712 0.0
H491 H 0.71381 0.6497 0.83963 0.0
C492 C 0.34453 0.04923 0.003 0.0
C493 C 0.37109 0.06403 0.009 0.0
C494 C 0.33609 0.04997 0.97917 0.0
C495 C 0.35869 0.0861 0.91951 0.0
H496 H 0.30594 0.02001 0.89225 0.0
C497 C 0.3463 0.05661 0.81681 0.0
C498 C 0.32089 0.04552 0.80732 0.0
C499 C 0.35088 0.06269 0.84178 0.0
C500 C 0.32046 0.03866 0.89976 0.0
H501 H 0.40965 0.09127 -0.00501 0.0
H502 H 0.39526 0.09159 0.95341 0.0
H503 H 0.31628 0.02296 0.93583 0.0
H504 H 0.28049 0.03278 0.81629 0.0
H505 H 0.28853 0.04274 0.86003 0.0
H506 H 0.3639 0.10111 0.88277 0.0
C507 C 0.38067 0.08016 0.96708 0.0
C508 C 0.3263 0.04044 0.92475 0.0
C509 C 0.38899 0.07979 -0.00907 0.0
C510 C 0.3003 0.04137 0.82306 0.0
C511 C 0.30482 0.04698 0.84806 0.0
C512 C 0.3532 0.08413 0.8944 0.0
C513 C 0.35414 0.06513 0.96082 0.0
C514 C 0.34583 0.06407 0.93488 0.0
C515 C 0.33005 0.05732 0.85762 0.0
C516 C 0.3343 0.06031 0.88435 0.0
H517 H 0.3303 0.03712 0.01669 0.0
H518 H 0.31545 0.0385 0.97513 0.0
H519 H 0.37339 0.10478 0.92676 0.0
H520 H 0.36251 0.06008 0.80505 0.0
H521 H 0.37048 0.0705 0.84891 0.0
C522 C 0.27787 0.97509 0.66269 0.0
C523 C 0.30115 0.98641 0.67633 0.0
C524 C 0.27751 0.96737 0.63843 0.0
C525 C 0.31505 0.95456 0.59158 0.0
H526 H 0.28037 0.97799 0.54627 0.0
C527 C 0.3215 0.98266 0.48349 0.0
C528 C 0.32251 0.96154 0.47293 0.0
C529 C 0.31499 0.98203 0.50824 0.0
C530 C 0.29012 0.97132 0.5587 0.0
H531 H 0.34201 0.99734 0.67571 0.0
H532 H 0.3415 0.98426 0.63309 0.0
H533 H 0.27718 0.98304 0.59034 0.0
H534 H 0.31618 0.92262 0.47967 0.0
H535 H 0.30455 0.92147 0.52279 0.0
H536 H 0.32896 0.94394 0.55983 0.0
C537 C 0.32346 0.98108 0.64126 0.0
C538 C 0.28805 0.97392 0.58395 0.0
C539 C 0.32379 0.98869 0.66563 0.0
C540 C 0.31578 0.93932 0.48732 0.0
C541 C 0.30925 0.93868 0.51204 0.0
C542 C 0.31712 0.95197 0.5663 0.0
C543 C 0.30044 0.97093 0.62726 0.0
C544 C 0.30082 0.96593 0.60064 0.0
C545 C 0.3093 0.96023 0.52286 0.0
C546 C 0.30502 0.96072 0.54961 0.0
H547 H 0.25999 0.97274 0.67055 0.0
H548 H 0.25937 0.95912 0.62825 0.0
H549 H 0.32488 0.948 0.60402 0.0
H550 H 0.32659 1.00006 0.47289 0.0
H551 H 0.31543 0.99905 0.51613 0.0
C552 C 0.04257 0.29751 0.65546 0.0
C553 C 0.04557 0.31705 0.67205 0.0
C554 C 0.04855 0.30332 0.63067 0.0
C555 C 0.08592 0.354 0.58652 0.0
H556 H 0.02693 0.31643 0.54273 0.0
C557 C 0.08541 0.38932 0.48848 0.0
C558 C 0.07064 0.37111 0.47023 0.0
C559 C 0.08484 0.38132 0.51266 0.0
C560 C 0.04383 0.3267 0.55449 0.0
H561 H 0.05833 0.35817 0.67601 0.0
H562 H 0.06943 0.36845 0.63246 0.0
H563 H 0.02231 0.30534 0.58619 0.0
H564 H 0.0447 0.33012 0.46254 0.0
H565 H 0.04458 0.31583 0.50464 0.0
H566 H 0.10772 0.37506 0.55492 0.0
C567 C 0.0622 0.34865 0.6388 0.0
C568 C 0.04107 0.32044 0.57941 0.0
C569 C 0.05574 0.34275 0.66359 0.0
C570 C 0.05604 0.34458 0.47637 0.0
C571 C 0.05588 0.33646 0.50051 0.0
C572 C 0.08889 0.35993 0.56147 0.0
C573 C 0.05811 0.32884 0.62214 0.0
C574 C 0.06194 0.33435 0.59563 0.0
C575 C 0.06988 0.35481 0.51906 0.0
C576 C 0.0677 0.34671 0.54521 0.0
H577 H 0.03471 0.2775 0.66142 0.0
H578 H 0.04533 0.28781 0.61806 0.0
H579 H 0.10231 0.36477 0.59879 0.0
H580 H 0.09671 0.40996 0.48429 0.0
H581 H 0.09544 0.39611 0.52643 0.0
C582 C 0.68508 0.71422 0.48165 0.0
C583 C 0.6638 0.7146 0.4707 0.0
C584 C 0.69172 0.72206 0.50604 0.0
C585 C 0.66117 0.72583 0.56311 0.0
H586 H 0.73216 0.75934 0.58757 0.0
C587 C 0.72302 0.7587 0.66019 0.0
C588 C 0.70852 0.73541 0.67348 0.0
C589 C 0.71676 0.76044 0.63582 0.0
C590 C 0.71223 0.75036 0.58104 0.0
H591 H 0.63383 0.72506 0.47614 0.0
H592 H 0.64568 0.73905 0.51859 0.0
H593 H 0.72437 0.75637 0.5434 0.0
H594 H 0.67539 0.69606 0.67204 0.0
H595 H 0.66472 0.69894 0.62935 0.0
H596 H 0.64903 0.71964 0.60075 0.0
C597 C 0.65686 0.73217 0.5085 0.0
C598 C 0.70778 0.7484 0.55575 0.0
C599 C 0.65015 0.72424 0.48417 0.0
C600 C 0.68694 0.71426 0.66227 0.0
C601 C 0.68073 0.71598 0.63785 0.0
C602 C 0.66562 0.72783 0.5884 0.0
C603 C 0.67729 0.73055 0.51987 0.0
C604 C 0.6822 0.7356 0.54653 0.0
C605 C 0.69592 0.73891 0.62424 0.0
C606 C 0.69117 0.73958 0.59761 0.0
H607 H 0.69598 0.70691 0.47173 0.0
H608 H 0.7074 0.72033 0.51436 0.0
H609 H 0.6412 0.71564 0.55659 0.0
H610 H 0.73961 0.77545 0.6684 0.0
H611 H 0.72854 0.77848 0.62589 0.0
C612 C 0.39284 0.42357 0.82748 0.0
C613 C 0.384 0.40026 0.84075 0.0
C614 C 0.4004 0.42517 0.80298 0.0
C615 C 0.41726 0.39203 0.75468 0.0
H616 H 0.38642 0.421 0.71097 0.0
C617 C 0.42759 0.38954 0.6501 0.0
C618 C 0.40417 0.38016 0.6369 0.0
C619 C 0.42908 0.39706 0.6746 0.0
C620 C 0.39519 0.4129 0.72295 0.0
H621 H 0.3774 0.36079 0.83917 0.0
H622 H 0.39023 0.36345 0.79623 0.0
H623 H 0.38263 0.42395 0.75531 0.0
H624 H 0.36432 0.37247 0.63863 0.0
H625 H 0.36678 0.38521 0.68157 0.0
H626 H 0.42865 0.37979 0.72233 0.0
C627 C 0.39159 0.38058 0.80485 0.0
C628 C 0.3933 0.41484 0.74834 0.0
C629 C 0.3841 0.379 0.82941 0.0
C630 C 0.38263 0.3796 0.64833 0.0
C631 C 0.38409 0.38704 0.67289 0.0
C632 C 0.41913 0.39006 0.7293 0.0
C633 C 0.39921 0.40348 0.79123 0.0
C634 C 0.40387 0.40398 0.76445 0.0
C635 C 0.40716 0.39528 0.68642 0.0
C636 C 0.40766 0.40002 0.71318 0.0
H637 H 0.39328 0.44041 0.8358 0.0
H638 H 0.40663 0.44321 0.79306 0.0
H639 H 0.42584 0.38373 0.76666 0.0
H640 H 0.44465 0.39049 0.64171 0.0
H641 H 0.44724 0.40377 0.68444 0.0
C642 C 0.65998 0.05457 0.65508 0.0
C643 C 0.65557 0.03573 0.63716 0.0
C644 C 0.65292 0.04726 0.67947 0.0
C645 C 0.63873 0.99311 0.72211 0.0
H646 H 0.62081 0.03315 0.76643 0.0
C647 C 0.61084 0.96485 0.82306 0.0
C648 C 0.62784 0.98405 0.83967 0.0
C649 C 0.61086 0.97085 0.79831 0.0
C650 C 0.62577 0.02185 0.75415 0.0
H651 H 0.63911 0.9944 0.63026 0.0
H652 H 0.62556 0.98136 0.67271 0.0
H653 H 0.62528 0.04288 0.72243 0.0
H654 H 0.65728 0.02484 0.84371 0.0
H655 H 0.65684 0.03546 0.80018 0.0
H656 H 0.6386 0.97176 0.75391 0.0
C657 C 0.63539 1.00192 0.66817 0.0
C658 C 0.62847 0.02745 0.72903 0.0
C659 C 0.64298 0.00932 0.64383 0.0
C660 C 0.64407 0.00966 0.83127 0.0
C661 C 0.64374 0.01577 0.8065 0.0
C662 C 0.63549 0.9872 0.7471 0.0
C663 C 0.64081 0.02087 0.68641 0.0
C664 C 0.63544 0.01342 0.71274 0.0
C665 C 0.62752 0.99624 0.78982 0.0
C666 C 0.62937 1.00176 0.76331 0.0
H667 H 0.66985 0.07513 0.65046 0.0
H668 H 0.65789 0.06248 0.69297 0.0
H669 H 0.64466 0.98224 0.71033 0.0
H670 H 0.59813 0.94492 0.82897 0.0
H671 H 0.59818 0.95556 0.78569 0.0
C672 C 0.06604 0.65366 0.8231 0.0
C673 C 0.04638 0.65167 0.83898 0.0
C674 C 0.06063 0.64695 0.79839 0.0
C675 C 1.01043 0.61032 0.75328 0.0
H676 H 0.05065 0.66907 0.7099 0.0
C677 C 0.97753 0.61373 0.65483 0.0
C678 C 0.99627 0.62848 0.63695 0.0
C679 C 0.98502 0.6133 0.67902 0.0
C680 C 0.03964 0.65219 0.72153 0.0
H681 H 1.00534 0.63971 0.84184 0.0
H682 H 0.99579 0.62746 0.79845 0.0
H683 H 0.06086 0.67311 0.75348 0.0
H684 H 0.0376 0.65311 0.62983 0.0
H685 H 0.05094 0.6514 0.67188 0.0
H686 H 0.9894 0.58916 0.7214 0.0
C687 C 0.01538 0.63442 0.80527 0.0
C688 C 0.04542 0.65463 0.74654 0.0
C689 C 0.02088 0.64156 0.82997 0.0
C690 C 0.02276 0.64186 0.64339 0.0
C691 C 0.03033 0.64097 0.66752 0.0
C692 C 1.00496 0.60766 0.72812 0.0
C693 C 0.03539 0.6377 0.78924 0.0
C694 C 0.03055 0.63391 0.76262 0.0
C695 C 0.0115 0.62719 0.68577 0.0
C696 C 0.01914 0.62878 0.71201 0.0
H697 H 0.0859 0.66138 0.82949 0.0
H698 H 0.0763 0.64955 0.78627 0.0
H699 H 0.99888 0.59406 0.76545 0.0
H700 H 0.95693 0.60334 0.65036 0.0
H701 H 0.96989 0.60288 0.69256 0.0
C702 C 0.61635 0.65671 0.32317 0.0
C703 C 0.63036 0.65174 0.34109 0.0
C704 C 0.61619 0.6493 0.29883 0.0
C705 C 0.61104 0.62477 0.24915 0.0
H706 H 0.67619 0.63259 0.22489 0.0
C707 C 0.64613 0.64099 0.14741 0.0
C708 C 0.65533 0.62462 0.13898 0.0
C709 C 0.63908 0.64021 0.17206 0.0
C710 C 0.65781 0.6301 0.23152 0.0
H711 H 0.65384 0.63376 0.34812 0.0
H712 H 0.65254 0.61958 0.3058 0.0
H713 H 0.67153 0.63848 0.26843 0.0
H714 H 0.6636 0.59406 0.14948 0.0
H715 H 0.65192 0.59332 0.19254 0.0
H716 H 0.59816 0.61795 0.21159 0.0
C717 C 0.64254 0.63015 0.31026 0.0
C718 C 0.655 0.63325 0.25649 0.0
C719 C 0.64317 0.6381 0.33453 0.0
C720 C 0.6566 0.60695 0.15541 0.0
C721 C 0.64998 0.60649 0.18003 0.0
C722 C 0.61409 0.62215 0.22403 0.0
C723 C 0.62961 0.63627 0.29197 0.0
C724 C 0.63165 0.63082 0.26565 0.0
C725 C 0.64155 0.62337 0.18859 0.0
C726 C 0.63754 0.62492 0.21509 0.0
H727 H 0.60642 0.66736 0.32773 0.0
H728 H 0.6064 0.65478 0.28528 0.0
H729 H 0.59261 0.62227 0.25557 0.0
H730 H 0.64485 0.6547 0.13512 0.0
H731 H 0.63275 0.6535 0.17842 0.0
C732 C 0.39283 0.01546 0.1489 0.0
C733 C 0.40825 0.04087 0.13969 0.0
C734 C 0.3946 0.01016 0.17363 0.0
C735 C 0.40499 0.04058 0.23224 0.0
H736 H 0.41423 0.98443 0.25733 0.0
C737 C 0.39531 0.01792 0.33543 0.0
C738 C 0.3821 0.99142 0.34186 0.0
C739 C 0.40372 0.02549 0.31129 0.0
C740 C 0.41136 1.00003 0.25062 0.0
H741 H 0.43818 0.08044 0.14885 0.0
H742 H 0.44063 0.07118 0.19213 0.0
H743 H 0.41865 0.9938 0.21327 0.0
H744 H 0.3676 0.95206 0.32838 0.0
H745 H 0.38093 0.96502 0.28616 0.0
H746 H 0.396 0.04594 0.26893 0.0
C747 C 0.42746 0.05544 0.18015 0.0
C748 C 0.41407 1.00544 0.22546 0.0
C749 C 0.42604 0.06065 0.15541 0.0
C750 C 0.37791 0.97267 0.32393 0.0
C751 C 0.38578 0.98016 0.29973 0.0
C752 C 0.40175 0.03486 0.25727 0.0
C753 C 0.41148 0.03027 0.18949 0.0
C754 C 0.41066 0.02559 0.21612 0.0
C755 C 0.39851 1.00665 0.293 0.0
C756 C 0.40455 0.01429 0.26677 0.0
H757 H 0.37906 0.99984 0.13716 0.0
H758 H 0.38198 0.99063 0.1806 0.0
H759 H 0.40201 0.05605 0.2253 0.0
H760 H 0.39906 0.03277 0.34903 0.0
H761 H 0.41399 0.0461 0.30693 0.0
C762 C 0.06697 0.424 0.32291 0.0
C763 C 0.04736 0.40658 0.33898 0.0
C764 C 0.06137 0.42516 0.29823 0.0
C765 C 1.01074 0.41185 0.2537 0.0
H766 H 0.05004 0.39276 0.20968 0.0
C767 C 0.97657 0.37568 0.15539 0.0
C768 C 0.9951 0.37957 0.13732 0.0
C769 C 0.98433 0.38352 0.17957 0.0
C770 C 0.03929 0.39879 0.2215 0.0
H771 H 1.00627 0.37777 0.34221 0.0
H772 H 0.99639 0.38024 0.29888 0.0
H773 H 0.06081 0.39897 0.25316 0.0
H774 H 0.03632 0.39599 0.12983 0.0
H775 H 0.05013 0.41088 0.17183 0.0
H776 H 0.98941 0.4121 0.22211 0.0
C777 C 0.01608 0.39278 0.30552 0.0
C778 C 0.04538 0.40215 0.24644 0.0
C779 C 0.02176 0.39126 0.33018 0.0
C780 C 0.02164 0.39248 0.14355 0.0
C781 C 0.02948 0.40085 0.16764 0.0
C782 C 1.00495 0.40902 0.22861 0.0
C783 C 0.036 0.4093 0.28931 0.0
C784 C 0.03085 0.40822 0.26275 0.0
C785 C 1.01086 0.39591 0.18609 0.0
C786 C 0.0188 0.40189 0.21227 0.0
H787 H 0.0869 0.43605 0.32916 0.0
H788 H 0.07697 0.43805 0.28597 0.0
H789 H 0.99944 0.41673 0.26604 0.0
H790 H 0.95593 0.36562 0.15109 0.0
H791 H 0.96935 0.3789 0.19326 0.0
C792 C 0.27171 0.87621 0.3682 0.0
C793 C 0.28237 0.90258 0.37474 0.0
C794 C 0.24788 0.8631 0.35557 0.0
C795 C 0.18844 0.86688 0.34124 0.0
H796 H 0.1809 0.82077 0.28735 0.0
C797 C 0.09899 0.82337 0.27575 0.0
C798 C 0.08839 0.79693 0.26953 0.0
C799 C 0.12289 0.83673 0.28823 0.0
C800 C 0.18258 0.8334 0.30249 0.0
H801 H 0.27615 0.93575 0.37323 0.0
H802 H 0.23507 0.91308 0.35121 0.0
H803 H 0.22156 0.84218 0.31057 0.0
H804 H 0.09483 0.76391 0.2714 0.0
H805 H 0.13604 0.787 0.29312 0.0
H806 H 0.14945 0.85808 0.33316 0.0
C807 C 0.24482 0.90236 0.35604 0.0
C808 C 0.20589 0.84563 0.31586 0.0
C809 C 0.26855 0.91541 0.36858 0.0
C810 C 0.10236 0.78429 0.27582 0.0
C811 C 0.12616 0.79759 0.28818 0.0
C812 C 0.16513 0.85465 0.32787 0.0
C813 C 0.23419 0.87607 0.34928 0.0
C814 C 0.20913 0.86252 0.33541 0.0
C815 C 0.13673 0.82395 0.29464 0.0
C816 C 0.16187 0.83771 0.30835 0.0
H817 H 0.28182 0.86573 0.37267 0.0
H818 H 0.2401 0.84275 0.35087 0.0
H819 H 0.19011 0.87949 0.3564 0.0
H820 H 0.08875 0.83369 0.27118 0.0
H821 H 0.13062 0.85712 0.29273 0.0
C822 C 0.2126 0.28898 0.27644 0.0
C823 C 0.23916 0.3045 0.27043 0.0
C824 C 0.19954 0.29976 0.28904 0.0
C825 C 0.20408 0.36318 0.30398 0.0
H826 H 0.1567 0.32425 0.357 0.0
C827 C 0.16023 0.40916 0.36907 0.0
C828 C 0.13363 0.39345 0.3748 0.0
C829 C 0.17362 0.39854 0.35675 0.0
C830 C 0.1697 0.33531 0.3421 0.0
H831 H 0.27269 0.34362 0.2729 0.0
H832 H 0.2501 0.36214 0.29485 0.0
H833 H 0.17806 0.30484 0.33391 0.0
H834 H 0.10036 0.35417 0.3722 0.0
H835 H 0.1235 0.33597 0.35076 0.0
H836 H 0.19569 0.39363 0.31215 0.0
C837 C 0.23921 0.34176 0.28962 0.0
C838 C 0.18189 0.32413 0.32882 0.0
C839 C 0.25222 0.33103 0.27713 0.0
C840 C 0.12086 0.36691 0.36817 0.0
C841 C 0.13419 0.35635 0.35597 0.0
C842 C 0.19189 0.37436 0.31727 0.0
C843 C 0.21273 0.3263 0.29582 0.0
C844 C 0.19922 0.33791 0.30958 0.0
C845 C 0.16071 0.37199 0.35002 0.0
C846 C 0.17449 0.36054 0.33646 0.0
H847 H 0.20196 0.2685 0.27155 0.0
H848 H 0.17905 0.28736 0.29332 0.0
H849 H 0.21705 0.37422 0.28907 0.0
H850 H 0.17065 0.42965 0.37391 0.0
H851 H 0.19413 0.41108 0.35264 0.0
C852 C 0.74722 0.9377 0.27794 0.0
C853 C 0.73118 0.94829 0.27249 0.0
C854 C 0.73708 0.91387 0.29052 0.0
C855 C 0.6821 0.86955 0.33105 0.0
H856 H 0.69953 0.81742 0.31051 0.0
C857 C 0.62769 0.76358 0.36838 0.0
C858 C 0.64295 0.7521 0.37371 0.0
C859 C 0.63866 0.78768 0.35624 0.0
C860 C 0.69466 0.83187 0.31666 0.0
H861 H 0.69182 0.94189 0.27585 0.0
H862 H 0.67434 0.90066 0.29735 0.0
H863 H 0.71909 0.85935 0.28932 0.0
H864 H 0.68182 0.75717 0.37059 0.0
H865 H 0.7008 0.79901 0.3498 0.0
H866 H 0.65765 0.84211 0.35835 0.0
C867 C 0.69479 0.91082 0.29232 0.0
C868 C 0.70593 0.85594 0.30453 0.0
C869 C 0.70484 0.93446 0.27978 0.0
C870 C 0.66939 0.76533 0.36672 0.0
C871 C 0.6803 0.78931 0.35462 0.0
C872 C 0.67085 0.84551 0.34318 0.0
C873 C 0.71075 0.90024 0.29797 0.0
C874 C 0.69968 0.87503 0.31149 0.0
C875 C 0.6651 0.80078 0.34913 0.0
C876 C 0.67692 0.82633 0.3361 0.0
H877 H 0.76758 0.94785 0.27262 0.0
H878 H 0.74995 0.90633 0.29473 0.0
H879 H 0.67718 0.88398 0.33716 0.0
H880 H 0.60726 0.7539 0.37345 0.0
H881 H 0.62632 0.79586 0.35209 0.0
C882 C 0.78386 0.09801 0.19891 0.0
C883 C 0.79698 0.08466 0.20577 0.0
C884 C 0.79695 0.12188 0.18664 0.0
C885 C 0.86268 0.17769 0.1745 0.0
H886 H 0.82785 0.19165 0.12117 0.0
C887 C 0.91719 0.26692 0.11129 0.0
C888 C 0.90461 0.2808 0.10445 0.0
C889 C 0.90369 0.24314 0.12363 0.0
C890 C 0.83772 0.18819 0.13622 0.0
H891 H 0.83431 0.08612 0.20509 0.0
H892 H 0.85724 0.1279 0.18342 0.0
H893 H 0.80554 0.14976 0.14243 0.0
H894 H 0.86775 0.2803 0.10512 0.0
H895 H 0.84403 0.23857 0.12689 0.0
H896 H 0.89487 0.21608 0.16827 0.0
C897 C 0.83679 0.11989 0.18781 0.0
C898 C 0.82496 0.16416 0.1484 0.0
C899 C 0.82363 0.09589 0.20012 0.0
C900 C 0.87801 0.27011 0.11009 0.0
C901 C 0.86442 0.24616 0.12247 0.0
C902 C 0.87544 0.2017 0.16232 0.0
C903 C 0.82355 0.13312 0.18084 0.0
C904 C 0.83729 0.15859 0.16768 0.0
C905 C 0.87719 0.23249 0.12953 0.0
C906 C 0.86316 0.20722 0.14297 0.0
H907 H 0.76335 0.09004 0.20302 0.0
H908 H 0.78624 0.1317 0.18194 0.0
H909 H 0.87258 0.17425 0.18954 0.0
H910 H 0.93763 0.27442 0.10718 0.0
H911 H 0.91403 0.23295 0.12836 0.0
C912 C 0.76801 0.66264 0.10952 0.0
C913 C 0.75413 0.63582 0.10398 0.0
C914 C 0.79198 0.67371 0.12162 0.0
C915 C 0.84711 0.66344 0.13611 0.0
H916 H 0.86154 0.71507 0.18681 0.0
C917 C 0.93632 0.70087 0.19984 0.0
C918 C 0.95039 0.72766 0.20549 0.0
C919 C 0.91255 0.6901 0.18742 0.0
C920 C 0.85797 0.70094 0.17249 0.0
H921 H 0.75486 0.59966 0.10668 0.0
H922 H 0.79689 0.61905 0.12806 0.0
H923 H 0.81972 0.69477 0.16545 0.0
H924 H 0.9502 0.76409 0.20263 0.0
H925 H 0.90848 0.74519 0.18073 0.0
H926 H 0.88534 0.66957 0.14319 0.0
C927 C 0.78917 0.63152 0.12278 0.0
C928 C 0.83396 0.68925 0.16026 0.0
C929 C 0.76505 0.62037 0.11062 0.0
C930 C 0.93987 0.74339 0.1986 0.0
C931 C 0.91593 0.73254 0.18614 0.0
C932 C 0.87111 0.67512 0.14835 0.0
C933 C 0.80282 0.65832 0.12859 0.0
C934 C 0.82823 0.67035 0.1419 0.0
C935 C 0.90209 0.70576 0.18025 0.0
C936 C 0.87682 0.69397 0.16674 0.0
H937 H 0.76034 0.67524 0.10459 0.0
H938 H 0.80214 0.69447 0.12534 0.0
H939 H 0.84354 0.64929 0.12181 0.0
H940 H 0.94368 0.68805 0.20494 0.0
H941 H 0.90224 0.66935 0.18363 0.0
C942 C 0.33299 0.2473 0.19825 0.0
C943 C 0.30638 0.2347 0.20461 0.0
C944 C 0.34346 0.23393 0.18601 0.0
C945 C 0.32554 0.17618 0.14728 0.0
H946 H 0.3945 0.18926 0.16524 0.0
C947 C 0.36812 0.11419 0.10981 0.0
C948 C 0.39471 0.12682 0.10337 0.0
C949 C 0.35755 0.12771 0.12164 0.0
C950 C 0.37538 0.18565 0.15977 0.0
H951 H 0.26992 0.19797 0.20305 0.0
H952 H 0.28835 0.17438 0.18174 0.0
H953 H 0.37512 0.21109 0.18758 0.0
H954 H 0.43099 0.16377 0.10422 0.0
H955 H 0.4124 0.18755 0.12489 0.0
H956 H 0.32578 0.15066 0.11951 0.0
C957 C 0.30102 0.19481 0.18608 0.0
C958 C 0.36422 0.19812 0.17262 0.0
C959 C 0.29047 0.20826 0.19841 0.0
C960 C 0.41046 0.15346 0.10894 0.0
C961 C 0.39983 0.16702 0.1209 0.0
C962 C 0.3367 0.1637 0.13444 0.0
C963 C 0.32768 0.20751 0.17977 0.0
C964 C 0.33916 0.19358 0.16652 0.0
C965 C 0.37322 0.15426 0.12741 0.0
C966 C 0.36175 0.16825 0.14054 0.0
H967 H 0.34588 0.26769 0.20259 0.0
H968 H 0.36393 0.24449 0.18107 0.0
H969 H 0.30642 0.17256 0.14181 0.0
H970 H 0.35535 0.09368 0.10589 0.0
H971 H 0.33711 0.11715 0.1267 0.0
C972 C 0.76443 0.15089 0.61161 0.0
C973 C 0.75402 0.12471 0.60449 0.0
C974 C 0.78827 0.16392 0.62421 0.0
C975 C 0.84819 0.16064 0.63719 0.0
H976 H 0.85531 0.20485 0.69265 0.0
C977 C 0.93812 0.20345 0.70197 0.0
C978 C 0.94845 0.22971 0.70877 0.0
C979 C 0.91407 0.19007 0.68974 0.0
C980 C 0.85373 0.19274 0.67707 0.0
H981 H 0.76071 0.09181 0.60491 0.0
H982 H 0.80182 0.11433 0.62685 0.0
H983 H 0.81457 0.1837 0.66951 0.0
H984 H 0.94133 0.26234 0.70827 0.0
H985 H 0.8999 0.23922 0.68697 0.0
H986 H 0.88736 0.16972 0.64473 0.0
C987 C 0.79185 0.12497 0.62252 0.0
C988 C 0.83039 0.18069 0.66376 0.0
C989 C 0.76811 0.112 0.61003 0.0
C990 C 0.93403 0.24211 0.70337 0.0
C991 C 0.91009 0.22879 0.69126 0.0
C992 C 0.87153 0.1727 0.6505 0.0
C993 C 0.80223 0.15106 0.62985 0.0
C994 C 0.82732 0.16448 0.64365 0.0
C995 C 0.89983 0.20265 0.68417 0.0
C996 C 0.87463 0.18896 0.67058 0.0
H997 H 0.7541 0.16126 0.60763 0.0
H998 H 0.79587 0.18411 0.62939 0.0
H999 H 0.84662 0.14856 0.62159 0.0
H1000 H 0.94871 0.19332 0.70585 0.0
H1001 H 0.90658 0.16984 0.68473 0.0
C1002 C 0.91947 0.66529 0.61041 0.0
C1003 C 0.90683 0.63862 0.60427 0.0
C1004 C 0.90618 0.67583 0.62271 0.0
C1005 C 0.84915 0.65793 0.66236 0.0
H1006 H 0.86097 0.72639 0.64414 0.0
C1007 C 0.7866 0.69927 0.70089 0.0
C1008 C 0.79886 0.72592 0.70701 0.0
C1009 C 0.80026 0.689 0.68883 0.0
C1010 C 0.85773 0.70742 0.64969 0.0
H1011 H 0.87012 0.60216 0.60619 0.0
H1012 H 0.84672 0.6207 0.62764 0.0
H1013 H 0.88284 0.70724 0.62145 0.0
H1014 H 0.83531 0.76266 0.7053 0.0
H1015 H 0.85938 0.74458 0.68425 0.0
H1016 H 0.82403 0.65809 0.69059 0.0
C1017 C 0.86709 0.63336 0.62306 0.0
C1018 C 0.8702 0.69638 0.63663 0.0
C1019 C 0.88043 0.62276 0.61065 0.0
C1020 C 0.82528 0.74206 0.70085 0.0
C1021 C 0.83901 0.73173 0.68867 0.0
C1022 C 0.83668 0.66897 0.67542 0.0
C1023 C 0.87985 0.66005 0.62926 0.0
C1024 C 0.86606 0.67149 0.64279 0.0
C1025 C 0.82661 0.70504 0.68251 0.0
C1026 C 0.84075 0.69382 0.6692 0.0
H1027 H 0.93982 0.67814 0.60588 0.0
H1028 H 0.91674 0.69634 0.6275 0.0
H1029 H 0.84587 0.63895 0.66789 0.0
H1030 H 0.76625 0.6862 0.70525 0.0
H1031 H 0.78994 0.66849 0.68404 0.0
C1032 C 0.33309 0.09987 0.70187 0.0
C1033 C 0.30612 0.08508 0.70658 0.0
C1034 C 0.34371 0.12371 0.68958 0.0
C1035 C 0.32657 0.16181 0.64764 0.0
H1036 H 0.3934 0.21946 0.66834 0.0
C1037 C 0.36804 0.26566 0.60878 0.0
C1038 C 0.39495 0.28046 0.60378 0.0
C1039 C 0.35754 0.24171 0.62084 0.0
C1040 C 0.37491 0.20345 0.66211 0.0
H1041 H 0.26921 0.084 0.70214 0.0
H1042 H 0.28788 0.12598 0.68075 0.0
H1043 H 0.37384 0.17846 0.69107 0.0
H1044 H 0.43188 0.28143 0.60747 0.0
H1045 H 0.41341 0.23927 0.62857 0.0
H1046 H 0.32761 0.18684 0.61873 0.0
C1047 C 0.30073 0.11885 0.68642 0.0
C1048 C 0.36363 0.17995 0.67519 0.0
C1049 C 0.29003 0.09488 0.6988 0.0
C1050 C 0.4111 0.27054 0.61104 0.0
C1051 C 0.40053 0.24648 0.62324 0.0
C1052 C 0.33784 0.18532 0.63459 0.0
C1053 C 0.32772 0.13354 0.68163 0.0
C1054 C 0.33932 0.15881 0.66812 0.0
C1055 C 0.3736 0.2318 0.62831 0.0
C1056 C 0.36213 0.20646 0.64168 0.0
H1057 H 0.34613 0.09297 0.70749 0.0
H1058 H 0.36448 0.13422 0.68589 0.0
H1059 H 0.30807 0.14582 0.64141 0.0
H1060 H 0.35495 0.27264 0.60353 0.0
H1061 H 0.33681 0.23117 0.62475 0.0
C1062 C 0.25046 0.93328 0.77685 0.0
C1063 C 0.23747 0.94674 0.76991 0.0
C1064 C 0.2372 0.90934 0.78897 0.0
C1065 C 0.17907 0.86903 0.82694 0.0
H1066 H 0.19389 0.81387 0.81087 0.0
C1067 C 0.11876 0.76516 0.86651 0.0
C1068 C 0.13188 0.75185 0.87353 0.0
C1069 C 0.13185 0.78896 0.85412 0.0
C1070 C 0.18978 0.82918 0.81581 0.0
H1071 H 0.20015 0.9453 0.77013 0.0
H1072 H 0.17682 0.90317 0.79125 0.0
H1073 H 0.2153 0.85474 0.78794 0.0
H1074 H 0.16923 0.75337 0.87308 0.0
H1075 H 0.19227 0.79524 0.8515 0.0
H1076 H 0.15358 0.84349 0.85483 0.0
C1077 C 0.19743 0.91142 0.78746 0.0
C1078 C 0.202 0.8526 0.80261 0.0
C1079 C 0.21074 0.93547 0.77523 0.0
C1080 C 0.15855 0.76308 0.86794 0.0
C1081 C 0.17169 0.78699 0.85545 0.0
C1082 C 0.16686 0.84561 0.84014 0.0
C1083 C 0.21056 0.89811 0.79453 0.0
C1084 C 0.19684 0.87284 0.80803 0.0
C1085 C 0.15845 0.80019 0.84836 0.0
C1086 C 0.17204 0.82538 0.83473 0.0
H1087 H 0.27106 0.94134 0.77314 0.0
H1088 H 0.24804 0.89988 0.79444 0.0
H1089 H 0.17498 0.88435 0.83188 0.0
H1090 H 0.0982 0.75712 0.87041 0.0
H1091 H 0.12092 0.79832 0.84864 0.0
C1092 C 0.09855 0.28431 0.77625 0.0
C1093 C 0.08784 0.30001 0.76985 0.0
C1094 C 0.12261 0.29513 0.7885 0.0
C1095 C 0.16738 0.35204 0.82677 0.0
H1096 H 0.21868 0.33246 0.80904 0.0
C1097 C 0.27293 0.40522 0.86576 0.0
C1098 C 0.2835 0.38941 0.87217 0.0
C1099 C 0.24908 0.3946 0.85318 0.0
C1100 C 0.20447 0.33796 0.8144 0.0
H1101 H 0.09435 0.33953 0.77097 0.0
H1102 H 0.13603 0.35819 0.7919 0.0
H1103 H 0.17699 0.31273 0.78748 0.0
H1104 H 0.27701 0.3499 0.87062 0.0
H1105 H 0.23567 0.33158 0.84913 0.0
H1106 H 0.19482 0.37724 0.85372 0.0
C1107 C 0.12576 0.33749 0.7879 0.0
C1108 C 0.18054 0.3266 0.80205 0.0
C1109 C 0.10186 0.32675 0.7757 0.0
C1110 C 0.26959 0.36277 0.86589 0.0
C1111 C 0.24589 0.35223 0.85338 0.0
C1112 C 0.1913 0.36339 0.83913 0.0
C1113 C 0.13638 0.32184 0.79463 0.0
C1114 C 0.16169 0.33351 0.80806 0.0
C1115 C 0.23536 0.36798 0.84671 0.0
C1116 C 0.21013 0.35646 0.83314 0.0
H1117 H 0.08825 0.26365 0.77207 0.0
H1118 H 0.13016 0.28248 0.79358 0.0
H1119 H 0.15315 0.35753 0.83213 0.0
H1120 H 0.28315 0.4258 0.87027 0.0
H1121 H 0.2416 0.40734 0.84815 0.0
C1122 C 0.70068 0.77956 0.77653 0.0
C1123 C 0.72755 0.7924 0.7712 0.0
C1124 C 0.68972 0.79236 0.78901 0.0
C1125 C 0.70634 0.84761 0.83066 0.0
H1126 H 0.63855 0.83672 0.81118 0.0
C1127 C 0.66366 0.9085 0.87049 0.0
C1128 C 0.63677 0.89604 0.87564 0.0
C1129 C 0.67439 0.89532 0.85833 0.0
C1130 C 0.65732 0.83968 0.81708 0.0
H1131 H 0.76392 0.82901 0.77469 0.0
H1132 H 0.74467 0.85155 0.79645 0.0
H1133 H 0.65843 0.81586 0.78802 0.0
H1134 H 0.60013 0.85971 0.87222 0.0
H1135 H 0.619 0.83647 0.85103 0.0
H1136 H 0.70524 0.87143 0.85972 0.0
C1137 C 0.73217 0.83139 0.79111 0.0
C1138 C 0.66877 0.82779 0.80375 0.0
C1139 C 0.74318 0.81854 0.77851 0.0
C1140 C 0.62089 0.86987 0.86854 0.0
C1141 C 0.63169 0.85663 0.85626 0.0
C1142 C 0.69488 0.85948 0.844 0.0
C1143 C 0.70529 0.81839 0.79655 0.0
C1144 C 0.69344 0.83162 0.81037 0.0
C1145 C 0.65859 0.86927 0.85095 0.0
C1146 C 0.67025 0.85573 0.83734 0.0
H1147 H 0.68799 0.7594 0.77125 0.0
H1148 H 0.66906 0.78163 0.79318 0.0
H1149 H 0.72513 0.8506 0.83653 0.0
H1150 H 0.67654 0.92866 0.87562 0.0
H1151 H 0.69508 0.9058 0.85424 0.0
C1152 C 0.44962 0.43205 0.53317 0.0
C1153 C 0.46255 0.41844 0.53979 0.0
C1154 C 0.46289 0.45609 0.52119 0.0
C1155 C 0.52885 0.51175 0.50941 0.0
H1156 H 0.49438 0.52652 0.45631 0.0
C1157 C 0.58408 0.60109 0.44643 0.0
C1158 C 0.57173 0.61518 0.43952 0.0
C1159 C 0.57039 0.57736 0.45883 0.0
C1160 C 0.50415 0.52285 0.4713 0.0
H1161 H 0.49975 0.41964 0.53901 0.0
H1162 H 0.52301 0.46172 0.51786 0.0
H1163 H 0.47175 0.48449 0.4773 0.0
H1164 H 0.5351 0.61514 0.44019 0.0
H1165 H 0.51105 0.57349 0.46208 0.0
H1166 H 0.56127 0.55006 0.50337 0.0
C1167 C 0.50256 0.45378 0.52221 0.0
C1168 C 0.4912 0.49873 0.48333 0.0
C1169 C 0.48922 0.42961 0.53423 0.0
C1170 C 0.54518 0.60478 0.44521 0.0
C1171 C 0.5314 0.58088 0.45766 0.0
C1172 C 0.54179 0.53585 0.49738 0.0
C1173 C 0.4895 0.46725 0.51545 0.0
C1174 C 0.50341 0.49285 0.50251 0.0
C1175 C 0.54392 0.56698 0.46473 0.0
C1176 C 0.52966 0.54167 0.4781 0.0
H1177 H 0.42911 0.42414 0.53722 0.0
H1178 H 0.45231 0.46607 0.51666 0.0
H1179 H 0.53866 0.50808 0.52437 0.0
H1180 H 0.60447 0.60836 0.44229 0.0
H1181 H 0.58054 0.567 0.46356 0.0
C1182 C 0.60594 0.07327 0.53382 0.0
C1183 C 0.61623 0.05722 0.54028 0.0
C1184 C 0.58188 0.06278 0.52162 0.0
C1185 C 0.52138 0.99993 0.50885 0.0
H1186 H 0.51369 0.03766 0.4543 0.0
C1187 C 0.4307 0.95368 0.44485 0.0
C1188 C 0.42049 0.96979 0.43837 0.0
C1189 C 0.45479 0.96414 0.457 0.0
C1190 C 0.51542 0.02696 0.46964 0.0
H1191 H 0.6091 0.01748 0.53908 0.0
H1192 H 0.56767 0.99948 0.51783 0.0
H1193 H 0.55476 0.05688 0.47689 0.0
H1194 H 0.42778 0.00959 0.43947 0.0
H1195 H 0.46925 0.02752 0.46062 0.0
H1196 H 0.48204 0.97001 0.50161 0.0
C1197 C 0.57789 0.02005 0.52239 0.0
C1198 C 0.53896 0.03803 0.48263 0.0
C1199 C 0.60182 0.03049 0.53446 0.0
C1200 C 0.435 0.99654 0.44409 0.0
C1201 C 0.45896 1.00693 0.45612 0.0
C1202 C 0.49784 0.98886 0.49586 0.0
C1203 C 0.56759 0.03602 0.51574 0.0
C1204 C 0.54226 0.02465 0.50239 0.0
C1205 C 0.46918 0.99091 0.4628 0.0
C1206 C 0.49454 1.00224 0.47611 0.0
H1207 H 0.61651 0.09392 0.53804 0.0
H1208 H 0.57438 0.07558 0.51695 0.0
H1209 H 0.52312 0.98923 0.52418 0.0
H1210 H 0.42005 0.93302 0.44071 0.0
H1211 H 0.46224 0.95129 0.46168 0.0
C1212 C 0.08018 0.4888 0.44467 0.0
C1213 C 0.06436 0.46241 0.43825 0.0
C1214 C 0.06949 0.50212 0.45699 0.0
C1215 C 0.01271 0.49042 0.49525 0.0
H1216 H 0.03235 0.56116 0.47686 0.0
C1217 C 0.95961 0.54324 0.53334 0.0
C1218 C 0.97543 0.56971 0.5395 0.0
C1219 C 0.97022 0.52986 0.521 0.0
C1220 C 0.02684 0.54149 0.48241 0.0
H1221 H 0.0248 0.42946 0.43954 0.0
H1222 H 1.00636 0.45262 0.46061 0.0
H1223 H 0.05202 0.53896 0.45562 0.0
H1224 H 0.01494 0.6027 0.53778 0.0
H1225 H 0.03326 0.57944 0.51673 0.0
H1226 H 0.98755 0.49296 0.52206 0.0
C1227 C 0.02705 0.46299 0.45654 0.0
C1228 C 0.03817 0.52879 0.47024 0.0
C1229 C 0.03766 0.44975 0.44426 0.0
C1230 C 1.00207 0.58237 0.53324 0.0
C1231 C 0.01261 0.56906 0.52097 0.0
C1232 C 1.00139 0.50313 0.50743 0.0
C1233 C 0.0428 0.48928 0.46318 0.0
C1234 C 0.03123 0.50308 0.47648 0.0
C1235 C 0.99684 0.54269 0.51454 0.0
C1236 C 1.00834 0.52884 0.5012 0.0
H1237 H 0.10081 0.49911 0.44037 0.0
H1238 H 0.08221 0.52234 0.46201 0.0
H1239 H 1.00719 0.47074 0.50078 0.0
H1240 H 0.93902 0.53293 0.53785 0.0
H1241 H 0.95747 0.50959 0.51616 0.0
C1242 C 0.43401 0.44513 0.94499 0.0
C1243 C 0.42008 0.45782 0.93871 0.0
C1244 C 0.45767 0.4583 0.95757 0.0
C1245 C 0.51212 0.5241 0.97201 0.0
H1246 H 0.52635 0.4878 0.02376 0.0
C1247 C 0.60092 0.57723 0.03599 0.0
C1248 C 0.61512 0.56473 0.04196 0.0
C1249 C 0.57713 0.56391 0.02365 0.0
C1250 C 0.52282 0.4981 0.00917 0.0
H1251 H 0.42035 0.49453 0.94068 0.0
H1252 H 0.46183 0.51764 0.9629 0.0
H1253 H 0.48477 0.46572 0.00199 0.0
H1254 H 0.61511 0.52816 0.03982 0.0
H1255 H 0.57335 0.50477 0.01805 0.0
H1256 H 0.55016 0.55648 0.97919 0.0
C1257 C 0.4544 0.49744 0.95783 0.0
C1258 C 0.49896 0.48547 -0.00331 0.0
C1259 C 0.43059 0.48419 0.94518 0.0
C1260 C 0.60467 0.53835 0.03554 0.0
C1261 C 0.58071 0.52495 0.02315 0.0
C1262 C 0.53597 0.53673 0.98449 0.0
C1263 C 0.46814 0.48457 0.9643 0.0
C1264 C 0.49332 0.4983 0.97793 0.0
C1265 C 0.56678 0.53768 0.01687 0.0
C1266 C 0.54161 0.52391 0.00325 0.0
H1267 H 0.42664 0.42486 0.94023 0.0
H1268 H 0.46791 0.4479 0.96182 0.0
H1269 H 0.50862 0.5344 0.95741 0.0
H1270 H 0.60822 0.59749 0.04074 0.0
H1271 H 0.56673 0.57419 0.01956 0.0
C1272 C 0.57971 0.99298 0.94148 0.0
C1273 C 0.56722 0.96608 0.93637 0.0
C1274 C 0.56649 1.00379 0.95346 0.0
C1275 C 0.51065 0.98687 -0.00564 0.0
H1276 H 0.52151 0.05455 0.97452 0.0
C1277 C 0.45002 0.02983 0.03434 0.0
C1278 C 0.46267 0.05671 0.03958 0.0
C1279 C 0.46298 0.01901 0.02191 0.0
C1280 C 0.51853 0.0358 0.9805 0.0
H1281 H 0.53079 0.92951 0.93965 0.0
H1282 H 0.50751 0.9485 0.96054 0.0
H1283 H 0.54259 0.03469 0.95167 0.0
H1284 H 0.49907 0.09326 0.03592 0.0
H1285 H 0.52191 0.07424 0.01427 0.0
H1286 H 0.48664 0.988 0.02322 0.0
C1287 C 0.52772 0.96114 0.95542 0.0
C1288 C 0.53055 0.02436 0.96736 0.0
C1289 C 0.54099 0.95027 0.94332 0.0
C1290 C 0.48875 0.07251 0.03217 0.0
C1291 C 0.50177 0.06162 0.01964 0.0
C1292 C 0.49864 0.99831 0.00751 0.0
C1293 C 0.54038 0.98805 0.9607 0.0
C1294 C 0.52679 0.99976 0.97414 0.0
C1295 C 0.48899 0.03472 0.01435 0.0
C1296 C 0.50241 0.02292 0.00074 0.0
H1297 H 0.59992 1.00581 0.93646 0.0
H1298 H 0.57699 0.02448 0.95752 0.0
H1299 H 0.50769 0.96813 0.00037 0.0
H1300 H 0.42991 0.01702 0.03967 0.0
H1301 H 0.45238 0.99833 0.01783 0.0
C1302 C 0.03783 0.60045 0.94483 0.0
C1303 C 0.06451 0.6146 0.93877 0.0
C1304 C 0.02739 0.57677 0.95735 0.0
C1305 C 0.03874 0.52243 0.97158 0.0
H1306 H 0.98803 0.50794 0.02325 0.0
C1307 C 1.0016 0.43247 0.0344 0.0
C1308 C 0.9749 0.41865 0.04045 0.0
C1309 C 0.01244 0.4564 0.02226 0.0
C1310 C 1.00191 0.51153 0.00868 0.0
H1311 H 0.10111 0.61469 0.94102 0.0
H1312 H 0.08279 0.57308 0.96308 0.0
H1313 H 1.00786 0.54974 0.00189 0.0
H1314 H 0.93871 0.41941 0.03857 0.0
H1315 H 0.95769 0.46135 0.0171 0.0
H1316 H 0.03272 0.48418 0.9783 0.0
C1317 C 0.06997 0.58041 0.95793 0.0
C1318 C 0.01334 0.53553 -0.00355 0.0
C1319 C 0.08049 0.60428 0.94538 0.0
C1320 C 0.95933 0.42955 0.03423 0.0
C1321 C 0.97025 0.45363 0.02202 0.0
C1322 C 0.02729 0.49841 0.98379 0.0
C1323 C 0.0433 0.56648 0.96419 0.0
C1324 C 0.03184 0.54125 0.97771 0.0
C1325 C 0.99693 0.46725 0.01576 0.0
C1326 C 1.00872 0.49266 0.0025 0.0
H1327 H 0.02483 0.60767 0.93997 0.0
H1328 H 1.00671 0.56636 0.96145 0.0
H1329 H 0.0526 0.52603 0.95699 0.0
H1330 H 0.01428 0.42479 0.039 0.0
H1331 H 0.03312 0.46653 0.01817 0.0
loop_
_geom_bond_atom_site_label_1
_geom_bond_atom_site_label_2
_geom_bond_distance
_geom_bond_site_symmetry_2
_ccdc_geom_bond_type
C0 O2 1.247 . S
C0 O4 1.258 . S
C1 O8 1.247 . S
C1 O9 1.258 . S
O2 C0 1.247 . S
O2 Zn3 2.028 1_655 S
Zn3 O2 2.028 1_455 S
Zn3 O7 2.035 1_455 S
Zn3 O9 2.035 . S
Zn3 O10 2.028 . S
O4 C0 1.258 . S
O4 Zn5 2.035 1_655 S
Zn5 O4 2.035 1_455 S
Zn5 O6 2.028 1_455 S
Zn5 O8 2.028 . S
Zn5 O11 2.035 . S
O6 Zn5 2.028 1_655 S
O6 C12 1.247 . S
O7 Zn3 2.035 1_655 S
O7 C12 1.258 . S
O8 C1 1.247 . S
O8 Zn5 2.028 . S
O9 C1 1.258 . S
O9 Zn3 2.035 . S
O10 Zn3 2.028 . S
O10 C13 1.247 . S
O11 Zn5 2.035 . S
O11 C13 1.258 . S
C12 O6 1.247 . S
C12 O7 1.258 . S
C13 O10 1.247 . S
C13 O11 1.258 . S
C14 O16 1.247 . S
C14 O18 1.258 . S
C15 O22 1.247 . S
C15 O23 1.258 . S
O16 C14 1.247 . S
O16 Zn17 2.028 . S
Zn17 O16 2.028 . S
Zn17 O21 2.035 . S
Zn17 O23 2.035 . S
Zn17 O24 2.028 . S
O18 C14 1.258 . S
O18 Zn19 2.035 . S
Zn19 O18 2.035 . S
Zn19 O20 2.028 . S
Zn19 O22 2.028 . S
Zn19 O25 2.035 . S
O20 Zn19 2.028 . S
O20 C26 1.247 . S
O21 Zn17 2.035 . S
O21 C26 1.258 . S
O22 C15 1.247 . S
O22 Zn19 2.028 . S
O23 C15 1.258 . S
O23 Zn17 2.035 . S
O24 Zn17 2.028 . S
O24 C27 1.247 . S
O25 Zn19 2.035 . S
O25 C27 1.258 . S
C26 O20 1.247 . S
C26 O21 1.258 . S
C27 O24 1.247 . S
C27 O25 1.258 . S
C28 O30 1.247 . S
C28 O32 1.258 . S
C29 O36 1.247 . S
C29 O37 1.258 . S
O30 C28 1.247 . S
O30 Zn31 2.028 1_565 S
Zn31 O30 2.028 1_545 S
Zn31 O35 2.035 1_545 S
Zn31 O37 2.035 . S
Zn31 O38 2.028 . S
O32 C28 1.258 . S
O32 Zn33 2.035 1_565 S
Zn33 O32 2.035 1_545 S
Zn33 O34 2.028 1_545 S
Zn33 O36 2.028 . S
Zn33 O39 2.035 . S
O34 Zn33 2.028 1_565 S
O34 C40 1.247 . S
O35 Zn31 2.035 1_565 S
O35 C40 1.258 . S
O36 C29 1.247 . S
O36 Zn33 2.028 . S
O37 C29 1.258 . S
O37 Zn31 2.035 . S
O38 Zn31 2.028 . S
O38 C41 1.247 . S
O39 Zn33 2.035 . S
O39 C41 1.258 . S
C40 O34 1.247 . S
C40 O35 1.258 . S
C41 O38 1.247 . S
C41 O39 1.258 . S
C42 O44 1.247 . S
C42 O46 1.258 . S
C43 O50 1.247 . S
C43 O51 1.258 . S
O44 C42 1.247 . S
O44 Zn45 2.028 1_655 S
Zn45 O44 2.028 1_455 S
Zn45 O49 2.035 1_455 S
Zn45 O51 2.035 . S
Zn45 O52 2.028 . S
O46 C42 1.258 . S
O46 Zn47 2.035 1_655 S
Zn47 O46 2.035 1_455 S
Zn47 O48 2.028 1_455 S
Zn47 O50 2.028 . S
Zn47 O53 2.035 . S
O48 Zn47 2.028 1_655 S
O48 C54 1.247 . S
O49 Zn45 2.035 1_655 S
O49 C54 1.258 . S
O50 C43 1.247 . S
O50 Zn47 2.028 . S
O51 C43 1.258 . S
O51 Zn45 2.035 . S
O52 Zn45 2.028 . S
O52 C55 1.247 . S
O53 Zn47 2.035 . S
O53 C55 1.258 . S
C54 O48 1.247 . S
C54 O49 1.258 . S
C55 O52 1.247 . S
C55 O53 1.258 . S
C56 O58 1.247 . S
C56 O60 1.258 . S
C57 O64 1.247 . S
C57 O65 1.258 . S
O58 C56 1.247 . S
O58 Zn59 2.028 . S
Zn59 O58 2.028 . S
Zn59 O63 2.035 . S
Zn59 O65 2.035 . S
Zn59 O66 2.028 . S
O60 C56 1.258 . S
O60 Zn61 2.035 . S
Zn61 O60 2.035 . S
Zn61 O62 2.028 . S
Zn61 O64 2.028 . S
Zn61 O67 2.035 . S
O62 Zn61 2.028 . S
O62 C68 1.247 . S
O63 Zn59 2.035 . S
O63 C68 1.258 . S
O64 C57 1.247 . S
O64 Zn61 2.028 . S
O65 C57 1.258 . S
O65 Zn59 2.035 . S
O66 Zn59 2.028 . S
O66 C69 1.247 . S
O67 Zn61 2.035 . S
O67 C69 1.258 . S
C68 O62 1.247 . S
C68 O63 1.258 . S
C69 O66 1.247 . S
C69 O67 1.258 . S
C70 O72 1.247 . S
C70 O74 1.258 . S
C71 O78 1.247 . S
C71 O79 1.258 . S
O72 C70 1.247 . S
O72 Zn73 2.028 . S
Zn73 O72 2.028 . S
Zn73 O77 2.035 . S
Zn73 O79 2.035 1_545 S
Zn73 O80 2.028 1_545 S
O74 C70 1.258 . S
O74 Zn75 2.035 . S
Zn75 O74 2.035 . S
Zn75 O76 2.028 . S
Zn75 O78 2.028 1_545 S
Zn75 O81 2.035 1_545 S
O76 Zn75 2.028 . S
O76 C82 1.247 . S
O77 Zn73 2.035 . S
O77 C82 1.258 . S
O78 C71 1.247 . S
O78 Zn75 2.028 1_565 S
O79 C71 1.258 . S
O79 Zn73 2.035 1_565 S
O80 Zn73 2.028 1_565 S
O80 C83 1.247 . S
O81 Zn75 2.035 1_565 S
O81 C83 1.258 . S
C82 O76 1.247 . S
C82 O77 1.258 . S
C83 O80 1.247 . S
C83 O81 1.258 . S
C84 O86 1.247 . S
C84 O88 1.258 . S
C85 O92 1.247 . S
C85 O93 1.258 . S
O86 C84 1.247 . S
O86 Zn87 2.028 . S
Zn87 O86 2.028 . S
Zn87 O91 2.035 . S
Zn87 O93 2.035 . S
Zn87 O94 2.028 . S
O88 C84 1.258 . S
O88 Zn89 2.035 . S
Zn89 O88 2.035 . S
Zn89 O90 2.028 . S
Zn89 O92 2.028 . S
Zn89 O95 2.035 . S
O90 Zn89 2.028 . S
O90 C96 1.247 . S
O91 Zn87 2.035 . S
O91 C96 1.258 . S
O92 C85 1.247 . S
O92 Zn89 2.028 . S
O93 C85 1.258 . S
O93 Zn87 2.035 . S
O94 Zn87 2.028 . S
O94 C97 1.247 . S
O95 Zn89 2.035 . S
O95 C97 1.258 . S
C96 O90 1.247 . S
C96 O91 1.258 . S
C97 O94 1.247 . S
C97 O95 1.258 . S
C98 O100 1.247 . S
C98 O102 1.258 . S
C99 O106 1.247 . S
C99 O107 1.258 . S
O100 C98 1.247 . S
O100 Zn101 2.028 . S
Zn101 O100 2.028 . S
Zn101 O105 2.035 . S
Zn101 O107 2.035 . S
Zn101 O108 2.028 . S
O102 C98 1.258 . S
O102 Zn103 2.035 . S
Zn103 O102 2.035 . S
Zn103 O104 2.028 . S
Zn103 O106 2.028 . S
Zn103 O109 2.035 . S
O104 Zn103 2.028 . S
O104 C110 1.247 . S
O105 Zn101 2.035 . S
O105 C110 1.258 . S
O106 C99 1.247 . S
O106 Zn103 2.028 . S
O107 C99 1.258 . S
O107 Zn101 2.035 . S
O108 Zn101 2.028 . S
O108 C111 1.247 . S
O109 Zn103 2.035 . S
O109 C111 1.258 . S
C110 O104 1.247 . S
C110 O105 1.258 . S
C111 O108 1.247 . S
C111 O109 1.258 . S
C112 O114 1.247 . S
C112 O116 1.258 . S
C113 O120 1.247 . S
C113 O121 1.258 . S
O114 C112 1.247 . S
O114 Zn115 2.028 . S
Zn115 O114 2.028 . S
Zn115 O119 2.035 . S
Zn115 O121 2.035 . S
Zn115 O122 2.028 . S
O116 C112 1.258 . S
O116 Zn117 2.035 . S
Zn117 O116 2.035 . S
Zn117 O118 2.028 . S
Zn117 O120 2.028 . S
Zn117 O123 2.035 . S
O118 Zn117 2.028 . S
O118 C124 1.247 . S
O119 Zn115 2.035 . S
O119 C124 1.258 . S
O120 C113 1.247 . S
O120 Zn117 2.028 . S
O121 C113 1.258 . S
O121 Zn115 2.035 . S
O122 Zn115 2.028 . S
O122 C125 1.247 . S
O123 Zn117 2.035 . S
O123 C125 1.258 . S
C124 O118 1.247 . S
C124 O119 1.258 . S
C125 O122 1.247 . S
C125 O123 1.258 . S
C126 O128 1.247 . S
C126 O130 1.258 . S
C127 O134 1.247 . S
C127 O135 1.258 . S
O128 C126 1.247 . S
O128 Zn129 2.028 . S
Zn129 O128 2.028 . S
Zn129 O133 2.035 . S
Zn129 O135 2.035 . S
Zn129 O136 2.028 . S
O130 C126 1.258 . S
O130 Zn131 2.035 . S
Zn131 O130 2.035 . S
Zn131 O132 2.028 . S
Zn131 O134 2.028 . S
Zn131 O137 2.035 . S
O132 Zn131 2.028 . S
O132 C138 1.247 . S
O133 Zn129 2.035 . S
O133 C138 1.258 . S
O134 C127 1.247 . S
O134 Zn131 2.028 . S
O135 C127 1.258 . S
O135 Zn129 2.035 . S
O136 Zn129 2.028 . S
O136 C139 1.247 . S
O137 Zn131 2.035 . S
O137 C139 1.258 . S
C138 O132 1.247 . S
C138 O133 1.258 . S
C139 O136 1.247 . S
C139 O137 1.258 . S
C140 O142 1.247 . S
C140 O144 1.258 . S
C141 O148 1.247 . S
C141 O149 1.258 . S
O142 C140 1.247 . S
O142 Zn143 2.028 . S
Zn143 O142 2.028 . S
Zn143 O147 2.035 . S
Zn143 O149 2.035 . S
Zn143 O150 2.028 . S
O144 C140 1.258 . S
O144 Zn145 2.035 . S
Zn145 O144 2.035 . S
Zn145 O146 2.028 . S
Zn145 O148 2.028 . S
Zn145 O151 2.035 . S
O146 Zn145 2.028 . S
O146 C152 1.247 . S
O147 Zn143 2.035 . S
O147 C152 1.258 . S
O148 C141 1.247 . S
O148 Zn145 2.028 . S
O149 C141 1.258 . S
O149 Zn143 2.035 . S
O150 Zn143 2.028 . S
O150 C153 1.247 . S
O151 Zn145 2.035 . S
O151 C153 1.258 . S
C152 O146 1.247 . S
C152 O147 1.258 . S
C153 O150 1.247 . S
C153 O151 1.258 . S
C154 O156 1.247 . S
C154 O158 1.258 . S
C155 O162 1.247 . S
C155 O163 1.258 . S
O156 C154 1.247 . S
O156 Zn157 2.028 . S
Zn157 O156 2.028 . S
Zn157 O161 2.035 . S
Zn157 O163 2.035 . S
Zn157 O164 2.028 . S
O158 C154 1.258 . S
O158 Zn159 2.035 . S
Zn159 O158 2.035 . S
Zn159 O160 2.028 . S
Zn159 O162 2.028 . S
Zn159 O165 2.035 . S
O160 Zn159 2.028 . S
O160 C166 1.247 . S
O161 Zn157 2.035 . S
O161 C166 1.258 . S
O162 C155 1.247 . S
O162 Zn159 2.028 . S
O163 C155 1.258 . S
O163 Zn157 2.035 . S
O164 Zn157 2.028 . S
O164 C167 1.247 . S
O165 Zn159 2.035 . S
O165 C167 1.258 . S
C166 O160 1.247 . S
C166 O161 1.258 . S
C167 O164 1.247 . S
C167 O165 1.258 . S
C168 O170 1.247 . S
C168 O172 1.258 . S
C169 O176 1.247 . S
C169 O177 1.258 . S
O170 C168 1.247 . S
O170 Zn171 2.028 . S
Zn171 O170 2.028 . S
Zn171 O175 2.035 . S
Zn171 O177 2.035 . S
Zn171 O178 2.028 . S
O172 C168 1.258 . S
O172 Zn173 2.035 . S
Zn173 O172 2.035 . S
Zn173 O174 2.028 . S
Zn173 O176 2.028 . S
Zn173 O179 2.035 . S
O174 Zn173 2.028 . S
O174 C180 1.247 . S
O175 Zn171 2.035 . S
O175 C180 1.258 . S
O176 C169 1.247 . S
O176 Zn173 2.028 . S
O177 C169 1.258 . S
O177 Zn171 2.035 . S
O178 Zn171 2.028 . S
O178 C181 1.247 . S
O179 Zn173 2.035 . S
O179 C181 1.258 . S
C180 O174 1.247 . S
C180 O175 1.258 . S
C181 O178 1.247 . S
C181 O179 1.258 . S
C182 O184 1.247 . S
C182 O186 1.258 . S
C183 O190 1.247 . S
C183 O191 1.258 . S
O184 C182 1.247 . S
O184 Zn185 2.028 . S
Zn185 O184 2.028 . S
Zn185 O189 2.035 . S
Zn185 O191 2.035 . S
Zn185 O192 2.028 . S
O186 C182 1.258 . S
O186 Zn187 2.035 . S
Zn187 O186 2.035 . S
Zn187 O188 2.028 . S
Zn187 O190 2.028 . S
Zn187 O193 2.035 . S
O188 Zn187 2.028 . S
O188 C194 1.247 . S
O189 Zn185 2.035 . S
O189 C194 1.258 . S
O190 C183 1.247 . S
O190 Zn187 2.028 . S
O191 C183 1.258 . S
O191 Zn185 2.035 . S
O192 Zn185 2.028 . S
O192 C195 1.247 . S
O193 Zn187 2.035 . S
O193 C195 1.258 . S
C194 O188 1.247 . S
C194 O189 1.258 . S
C195 O192 1.247 . S
C195 O193 1.258 . S
C196 O198 1.247 . S
C196 O200 1.258 . S
C197 O204 1.247 . S
C197 O205 1.258 . S
O198 C196 1.247 . S
O198 Zn199 2.028 . S
Zn199 O198 2.028 . S
Zn199 O203 2.035 . S
Zn199 O205 2.035 . S
Zn199 O206 2.028 . S
O200 C196 1.258 . S
O200 Zn201 2.035 . S
Zn201 O200 2.035 . S
Zn201 O202 2.028 . S
Zn201 O204 2.028 . S
Zn201 O207 2.035 . S
O202 Zn201 2.028 . S
O202 C208 1.247 . S
O203 Zn199 2.035 . S
O203 C208 1.258 . S
O204 C197 1.247 . S
O204 Zn201 2.028 . S
O205 C197 1.258 . S
O205 Zn199 2.035 . S
O206 Zn199 2.028 . S
O206 C209 1.247 . S
O207 Zn201 2.035 . S
O207 C209 1.258 . S
C208 O202 1.247 . S
C208 O203 1.258 . S
C209 O206 1.247 . S
C209 O207 1.258 . S
C210 O212 1.247 . S
C210 O214 1.258 . S
C211 O218 1.247 . S
C211 O219 1.258 . S
O212 C210 1.247 . S
O212 Zn213 2.028 . S
Zn213 O212 2.028 . S
Zn213 O217 2.035 . S
Zn213 O219 2.035 . S
Zn213 O220 2.028 . S
O214 C210 1.258 . S
O214 Zn215 2.035 . S
Zn215 O214 2.035 . S
Zn215 O216 2.028 . S
Zn215 O218 2.028 . S
Zn215 O221 2.035 . S
O216 Zn215 2.028 . S
O216 C222 1.247 . S
O217 Zn213 2.035 . S
O217 C222 1.258 . S
O218 C211 1.247 . S
O218 Zn215 2.028 . S
O219 C211 1.258 . S
O219 Zn213 2.035 . S
O220 Zn213 2.028 . S
O220 C223 1.247 . S
O221 Zn215 2.035 . S
O221 C223 1.258 . S
C222 O216 1.247 . S
C222 O217 1.258 . S
C223 O220 1.247 . S
C223 O221 1.258 . S
C224 O226 1.247 . S
C224 O228 1.258 . S
C225 O232 1.247 . S
C225 O233 1.258 . S
O226 C224 1.247 . S
O226 Zn227 2.028 . S
Zn227 O226 2.028 . S
Zn227 O231 2.035 . S
Zn227 O233 2.035 . S
Zn227 O234 2.028 . S
O228 C224 1.258 . S
O228 Zn229 2.035 . S
Zn229 O228 2.035 . S
Zn229 O230 2.028 . S
Zn229 O232 2.028 . S
Zn229 O235 2.035 . S
O230 Zn229 2.028 . S
O230 C236 1.247 . S
O231 Zn227 2.035 . S
O231 C236 1.258 . S
O232 C225 1.247 . S
O232 Zn229 2.028 . S
O233 C225 1.258 . S
O233 Zn227 2.035 . S
O234 Zn227 2.028 . S
O234 C237 1.247 . S
O235 Zn229 2.035 . S
O235 C237 1.258 . S
C236 O230 1.247 . S
C236 O231 1.258 . S
C237 O234 1.247 . S
C237 O235 1.258 . S
C238 O240 1.247 . S
C238 O242 1.258 . S
C239 O246 1.247 . S
C239 O247 1.258 . S
O240 C238 1.247 . S
O240 Zn241 2.028 . S
Zn241 O240 2.028 . S
Zn241 O245 2.035 . S
Zn241 O247 2.035 . S
Zn241 O248 2.028 . S
O242 C238 1.258 . S
O242 Zn243 2.035 . S
Zn243 O242 2.035 . S
Zn243 O244 2.028 . S
Zn243 O246 2.028 . S
Zn243 O249 2.035 . S
O244 Zn243 2.028 . S
O244 C250 1.247 . S
O245 Zn241 2.035 . S
O245 C250 1.258 . S
O246 C239 1.247 . S
O246 Zn243 2.028 . S
O247 C239 1.258 . S
O247 Zn241 2.035 . S
O248 Zn241 2.028 . S
O248 C251 1.247 . S
O249 Zn243 2.035 . S
O249 C251 1.258 . S
C250 O244 1.247 . S
C250 O245 1.258 . S
C251 O248 1.247 . S
C251 O249 1.258 . S
C252 C253 1.349 . S
C252 C254 1.327 . S
C252 H277 0.950 1_455 S
C253 C252 1.349 . S
C253 C269 1.349 . S
C254 C252 1.327 . S
C254 C273 1.429 . S
C254 H278 0.950 . S
C255 C272 1.574 . S
C255 C274 1.368 . S
C255 H279 0.949 . S
H256 C260 0.949 . S
C257 C258 1.349 1_554 S
C257 C259 1.327 . S
C257 H280 0.950 . S
C258 C257 1.349 1_556 S
C258 C270 1.349 1_556 S
C259 C257 1.327 . S
C259 C275 1.429 . S
C259 H281 0.950 . S
C260 H256 0.949 . S
C260 C268 1.574 . S
C260 C276 1.368 . S
H261 C269 0.950 . S
H262 C267 0.950 . S
H263 C268 0.949 . S
H264 C270 0.950 1_556 S
H265 C271 0.950 . S
H266 C272 0.949 . S
C267 H262 0.950 . S
C267 C269 1.327 . S
C267 C273 1.429 . S
C268 C260 1.574 . S
C268 H263 0.949 . S
C268 C274 1.368 . S
C269 C253 1.349 . S
C269 H261 0.950 . S
C269 C267 1.327 . S
C270 C258 1.349 1_554 S
C270 H264 0.950 1_554 S
C270 C271 1.327 . S
C271 H265 0.950 . S
C271 C270 1.327 . S
C271 C275 1.429 . S
C272 C255 1.574 . S
C272 H266 0.949 . S
C272 C276 1.368 . S
C273 C254 1.429 . S
C273 C267 1.429 . S
C273 C274 1.523 . S
C274 C255 1.368 . S
C274 C268 1.368 . S
C274 C273 1.523 . S
C275 C259 1.429 . S
C275 C271 1.429 . S
C275 C276 1.523 . S
C276 C260 1.368 . S
C276 C272 1.368 . S
C276 C275 1.523 . S
H277 C252 0.950 1_655 S
H278 C254 0.950 . S
H279 C255 0.949 . S
H280 C257 0.950 . S
H281 C259 0.950 . S
C282 C283 1.351 . S
C282 C284 1.318 1_556 S
C282 H307 0.958 . S
C283 C282 1.351 . S
C283 C299 1.349 1_556 S
C284 C282 1.318 1_554 S
C284 C303 1.429 . S
C284 H308 0.950 . S
C285 C302 1.574 . S
C285 C304 1.368 . S
C285 H309 0.949 . S
H286 C290 0.949 . S
C287 C288 1.349 . S
C287 C289 1.327 . S
C287 H310 0.950 . S
C288 C287 1.349 . S
C288 C300 1.349 . S
C289 C287 1.327 . S
C289 C305 1.429 . S
C289 H311 0.950 . S
C290 H286 0.949 . S
C290 C298 1.574 . S
C290 C306 1.368 . S
H291 C299 0.950 . S
H292 C297 0.950 . S
H293 C298 0.949 . S
H294 C300 0.950 . S
H295 C301 0.950 . S
H296 C302 0.949 . S
C297 H292 0.950 . S
C297 C299 1.327 . S
C297 C303 1.429 . S
C298 C290 1.574 . S
C298 H293 0.949 . S
C298 C304 1.368 . S
C299 C283 1.349 1_554 S
C299 H291 0.950 . S
C299 C297 1.327 . S
C300 C288 1.349 . S
C300 H294 0.950 . S
C300 C301 1.327 . S
C301 H295 0.950 . S
C301 C300 1.327 . S
C301 C305 1.429 . S
C302 C285 1.574 . S
C302 H296 0.949 . S
C302 C306 1.368 . S
C303 C284 1.429 . S
C303 C297 1.429 . S
C303 C304 1.523 . S
C304 C285 1.368 . S
C304 C298 1.368 . S
C304 C303 1.523 . S
C305 C289 1.429 . S
C305 C301 1.429 . S
C305 C306 1.523 . S
C306 C290 1.368 . S
C306 C302 1.368 . S
C306 C305 1.523 . S
H307 C282 0.958 . S
H308 C284 0.950 . S
H309 C285 0.949 . S
H310 C287 0.950 . S
H311 C289 0.950 . S
C312 C313 1.349 . S
C312 C314 1.327 . S
C312 H337 0.950 1_565 S
C313 C312 1.349 . S
C313 C329 1.349 . S
C314 C312 1.327 . S
C314 C333 1.429 . S
C314 H338 0.950 1_565 S
C315 C332 1.574 . S
C315 C334 1.368 . S
C315 H339 0.949 . S
H316 C320 0.949 . S
C317 C318 1.349 1_554 S
C317 C319 1.327 . S
C317 H340 0.950 . S
C318 C317 1.349 1_556 S
C318 C330 1.349 . S
C319 C317 1.327 . S
C319 C335 1.429 . S
C319 H341 0.950 . S
C320 H316 0.949 . S
C320 C328 1.574 . S
C320 C336 1.368 . S
H321 C329 0.950 . S
H322 C327 0.950 . S
H323 C328 0.949 . S
H324 C330 0.950 . S
H325 C331 0.950 . S
H326 C332 0.949 . S
C327 H322 0.950 . S
C327 C329 1.327 . S
C327 C333 1.429 . S
C328 C320 1.574 . S
C328 H323 0.949 . S
C328 C334 1.368 . S
C329 C313 1.349 . S
C329 H321 0.950 . S
C329 C327 1.327 . S
C330 C318 1.349 . S
C330 H324 0.950 . S
C330 C331 1.327 1_556 S
C331 H325 0.950 . S
C331 C330 1.327 1_554 S
C331 C335 1.429 . S
C332 C315 1.574 . S
C332 H326 0.949 . S
C332 C336 1.368 . S
C333 C314 1.429 . S
C333 C327 1.429 . S
C333 C334 1.523 . S
C334 C315 1.368 . S
C334 C328 1.368 . S
C334 C333 1.523 . S
C335 C319 1.429 . S
C335 C331 1.429 . S
C335 C336 1.523 . S
C336 C320 1.368 . S
C336 C332 1.368 . S
C336 C335 1.523 . S
H337 C312 0.950 1_545 S
H338 C314 0.950 1_545 S
H339 C315 0.949 . S
H340 C317 0.950 . S
H341 C319 0.950 . S
C342 C343 1.349 . S
C342 C344 1.327 . S
C342 H367 0.950 . S
C343 C342 1.349 . S
C343 C359 1.349 . S
C344 C342 1.327 . S
C344 C363 1.429 . S
C344 H368 0.950 . S
C345 C362 1.574 . S
C345 C364 1.368 . S
C345 H369 0.949 . S
H346 C350 0.949 . S
C347 C348 1.349 . S
C347 C349 1.327 . S
C347 H370 0.950 . S
C348 C347 1.349 . S
C348 C360 1.349 . S
C349 C347 1.327 . S
C349 C365 1.429 . S
C349 H371 0.950 . S
C350 H346 0.949 . S
C350 C358 1.574 . S
C350 C366 1.368 . S
H351 C359 0.950 . S
H352 C357 0.950 . S
H353 C358 0.949 . S
H354 C360 0.950 . S
H355 C361 0.950 . S
H356 C362 0.949 . S
C357 H352 0.950 . S
C357 C359 1.327 . S
C357 C363 1.429 . S
C358 C350 1.574 . S
C358 H353 0.949 . S
C358 C364 1.368 . S
C359 C343 1.349 . S
C359 H351 0.950 . S
C359 C357 1.327 . S
C360 C348 1.349 . S
C360 H354 0.950 . S
C360 C361 1.327 . S
C361 H355 0.950 . S
C361 C360 1.327 . S
C361 C365 1.429 . S
C362 C345 1.574 . S
C362 H356 0.949 . S
C362 C366 1.368 . S
C363 C344 1.429 . S
C363 C357 1.429 . S
C363 C364 1.523 . S
C364 C345 1.368 . S
C364 C358 1.368 . S
C364 C363 1.523 . S
C365 C349 1.429 . S
C365 C361 1.429 . S
C365 C366 1.523 . S
C366 C350 1.368 . S
C366 C362 1.368 . S
C366 C365 1.523 . S
H367 C342 0.950 . S
H368 C344 0.950 . S
H369 C345 0.949 . S
H370 C347 0.950 . S
H371 C349 0.950 . S
C372 C373 1.349 . S
C372 C374 1.327 . S
C372 H397 0.950 . S
C373 C372 1.349 . S
C373 C389 1.349 . S
C374 C372 1.327 . S
C374 C393 1.429 . S
C374 H398 0.950 . S
C375 C392 1.574 . S
C375 C394 1.368 . S
C375 H399 0.949 . S
H376 C380 0.949 . S
C377 C378 1.349 . S
C377 C379 1.327 . S
C377 H400 0.950 1_655 S
C378 C377 1.349 . S
C378 C390 1.349 . S
C379 C377 1.327 . S
C379 C395 1.429 . S
C379 H401 0.950 . S
C380 H376 0.949 . S
C380 C388 1.574 . S
C380 C396 1.368 . S
H381 C389 0.950 . S
H382 C387 0.950 . S
H383 C388 0.949 . S
H384 C390 0.950 . S
H385 C391 0.950 . S
H386 C392 0.949 . S
C387 H382 0.950 . S
C387 C389 1.327 . S
C387 C393 1.429 . S
C388 C380 1.574 . S
C388 H383 0.949 . S
C388 C394 1.368 . S
C389 C373 1.349 . S
C389 H381 0.950 . S
C389 C387 1.327 . S
C390 C378 1.349 . S
C390 H384 0.950 . S
C390 C391 1.327 . S
C391 H385 0.950 . S
C391 C390 1.327 . S
C391 C395 1.429 . S
C392 C375 1.574 . S
C392 H386 0.949 . S
C392 C396 1.368 . S
C393 C374 1.429 . S
C393 C387 1.429 . S
C393 C394 1.523 . S
C394 C375 1.368 . S
C394 C388 1.368 . S
C394 C393 1.523 . S
C395 C379 1.429 . S
C395 C391 1.429 . S
C395 C396 1.523 . S
C396 C380 1.368 . S
C396 C392 1.368 . S
C396 C395 1.523 . S
H397 C372 0.950 . S
H398 C374 0.950 . S
H399 C375 0.949 . S
H400 C377 0.950 1_455 S
H401 C379 0.950 . S
C402 C403 1.349 . S
C402 C404 1.327 . S
C402 H427 0.950 . S
C403 C402 1.349 . S
C403 C419 1.349 . S
C404 C402 1.327 . S
C404 C423 1.429 . S
C404 H428 0.950 . S
C405 C422 1.574 . S
C405 C424 1.368 . S
C405 H429 0.949 . S
H406 C410 0.949 . S
C407 C408 1.349 . S
C407 C409 1.327 . S
C407 H430 0.950 . S
C408 C407 1.349 . S
C408 C420 1.349 . S
C409 C407 1.327 . S
C409 C425 1.429 . S
C409 H431 0.950 . S
C410 H406 0.949 . S
C410 C418 1.574 . S
C410 C426 1.368 . S
H411 C419 0.950 . S
H412 C417 0.950 . S
H413 C418 0.949 . S
H414 C420 0.950 . S
H415 C421 0.950 . S
H416 C422 0.949 . S
C417 H412 0.950 . S
C417 C419 1.327 . S
C417 C423 1.429 . S
C418 C410 1.574 . S
C418 H413 0.949 . S
C418 C424 1.368 . S
C419 C403 1.349 . S
C419 H411 0.950 . S
C419 C417 1.327 . S
C420 C408 1.349 . S
C420 H414 0.950 . S
C420 C421 1.327 . S
C421 H415 0.950 . S
C421 C420 1.327 . S
C421 C425 1.429 . S
C422 C405 1.574 . S
C422 H416 0.949 . S
C422 C426 1.368 . S
C423 C404 1.429 . S
C423 C417 1.429 . S
C423 C424 1.523 . S
C424 C405 1.368 . S
C424 C418 1.368 . S
C424 C423 1.523 . S
C425 C409 1.429 . S
C425 C421 1.429 . S
C425 C426 1.523 . S
C426 C410 1.368 . S
C426 C422 1.368 . S
C426 C425 1.523 . S
H427 C402 0.950 . S
H428 C404 0.950 . S
H429 C405 0.949 . S
H430 C407 0.950 . S
H431 C409 0.950 . S
C432 C433 1.349 . S
C432 C434 1.327 . S
C432 H457 0.950 . S
C433 C432 1.349 . S
C433 C449 1.349 . S
C434 C432 1.327 . S
C434 C453 1.429 . S
C434 H458 0.950 . S
C435 C452 1.574 . S
C435 C454 1.368 . S
C435 H459 0.949 . S
H436 C440 0.949 . S
C437 C438 1.349 . S
C437 C439 1.327 1_554 S
C437 H460 0.950 . S
C438 C437 1.349 . S
C438 C450 1.349 1_554 S
C439 C437 1.327 1_556 S
C439 C455 1.429 . S
C439 H461 0.950 . S
C440 H436 0.949 . S
C440 C448 1.574 . S
C440 C456 1.368 . S
H441 C449 0.950 . S
H442 C447 0.950 . S
H443 C448 0.949 . S
H444 C450 0.950 . S
H445 C451 0.950 . S
H446 C452 0.949 . S
C447 H442 0.950 . S
C447 C449 1.327 . S
C447 C453 1.429 . S
C448 C440 1.574 . S
C448 H443 0.949 . S
C448 C454 1.368 . S
C449 C433 1.349 . S
C449 H441 0.950 . S
C449 C447 1.327 . S
C450 C438 1.349 1_556 S
C450 H444 0.950 . S
C450 C451 1.327 . S
C451 H445 0.950 . S
C451 C450 1.327 . S
C451 C455 1.429 . S
C452 C435 1.574 . S
C452 H446 0.949 . S
C452 C456 1.368 . S
C453 C434 1.429 . S
C453 C447 1.429 . S
C453 C454 1.523 . S
C454 C435 1.368 . S
C454 C448 1.368 . S
C454 C453 1.523 . S
C455 C439 1.429 . S
C455 C451 1.429 . S
C455 C456 1.523 . S
C456 C440 1.368 . S
C456 C452 1.368 . S
C456 C455 1.523 . S
H457 C432 0.950 . S
H458 C434 0.950 . S
H459 C435 0.949 . S
H460 C437 0.950 . S
H461 C439 0.950 . S
C462 C463 1.349 . S
C462 C464 1.327 1_554 S
C462 H487 0.950 . S
C463 C462 1.349 . S
C463 C479 1.349 1_554 S
C464 C462 1.327 1_556 S
C464 C483 1.429 . S
C464 H488 0.950 . S
C465 C482 1.574 . S
C465 C484 1.368 . S
C465 H489 0.949 . S
H466 C470 0.949 . S
C467 C468 1.349 . S
C467 C469 1.327 . S
C467 H490 0.950 . S
C468 C467 1.349 . S
C468 C480 1.349 . S
C469 C467 1.327 . S
C469 C485 1.429 . S
C469 H491 0.950 . S
C470 H466 0.949 . S
C470 C478 1.574 . S
C470 C486 1.368 . S
H471 C479 0.950 . S
H472 C477 0.950 . S
H473 C478 0.949 . S
H474 C480 0.950 . S
H475 C481 0.950 . S
H476 C482 0.949 . S
C477 H472 0.950 . S
C477 C479 1.327 . S
C477 C483 1.429 . S
C478 C470 1.574 . S
C478 H473 0.949 . S
C478 C484 1.368 . S
C479 C463 1.349 1_556 S
C479 H471 0.950 . S
C479 C477 1.327 . S
C480 C468 1.349 . S
C480 H474 0.950 . S
C480 C481 1.327 . S
C481 H475 0.950 . S
C481 C480 1.327 . S
C481 C485 1.429 . S
C482 C465 1.574 . S
C482 H476 0.949 . S
C482 C486 1.368 . S
C483 C464 1.429 . S
C483 C477 1.429 . S
C483 C484 1.523 . S
C484 C465 1.368 . S
C484 C478 1.368 . S
C484 C483 1.523 . S
C485 C469 1.429 . S
C485 C481 1.429 . S
C485 C486 1.523 . S
C486 C470 1.368 . S
C486 C482 1.368 . S
C486 C485 1.523 . S
H487 C462 0.950 . S
H488 C464 0.950 . S
H489 C465 0.949 . S
H490 C467 0.950 . S
H491 C469 0.950 . S
C492 C493 1.349 . S
C492 C494 1.327 1_554 S
C492 H517 0.950 . S
C493 C492 1.349 . S
C493 C509 1.349 1_554 S
C494 C492 1.327 1_556 S
C494 C513 1.429 . S
C494 H518 0.950 . S
C495 C512 1.574 . S
C495 C514 1.368 . S
C495 H519 0.949 . S
H496 C500 0.949 . S
C497 C498 1.349 . S
C497 C499 1.327 . S
C497 H520 0.950 . S
C498 C497 1.349 . S
C498 C510 1.349 . S
C499 C497 1.327 . S
C499 C515 1.429 . S
C499 H521 0.950 . S
C500 H496 0.949 . S
C500 C508 1.574 . S
C500 C516 1.368 . S
H501 C509 0.950 . S
H502 C507 0.950 . S
H503 C508 0.949 . S
H504 C510 0.950 . S
H505 C511 0.950 . S
H506 C512 0.949 . S
C507 H502 0.950 . S
C507 C509 1.327 . S
C507 C513 1.429 . S
C508 C500 1.574 . S
C508 H503 0.949 . S
C508 C514 1.368 . S
C509 C493 1.349 1_556 S
C509 H501 0.950 . S
C509 C507 1.327 . S
C510 C498 1.349 . S
C510 H504 0.950 . S
C510 C511 1.327 . S
C511 H505 0.950 . S
C511 C510 1.327 . S
C511 C515 1.429 . S
C512 C495 1.574 . S
C512 H506 0.949 . S
C512 C516 1.368 . S
C513 C494 1.429 . S
C513 C507 1.429 . S
C513 C514 1.523 . S
C514 C495 1.368 . S
C514 C508 1.368 . S
C514 C513 1.523 . S
C515 C499 1.429 . S
C515 C511 1.429 . S
C515 C516 1.523 . S
C516 C500 1.368 . S
C516 C512 1.368 . S
C516 C515 1.523 . S
H517 C492 0.950 . S
H518 C494 0.950 . S
H519 C495 0.949 . S
H520 C497 0.950 . S
H521 C499 0.950 . S
C522 C523 1.349 . S
C522 C524 1.327 . S
C522 H547 0.950 . S
C523 C522 1.349 . S
C523 C539 1.349 . S
C524 C522 1.327 . S
C524 C543 1.429 . S
C524 H548 0.950 . S
C525 C542 1.574 . S
C525 C544 1.368 . S
C525 H549 0.949 . S
H526 C530 0.949 . S
C527 C528 1.349 . S
C527 C529 1.327 . S
C527 H550 0.950 . S
C528 C527 1.349 . S
C528 C540 1.349 . S
C529 C527 1.327 . S
C529 C545 1.429 . S
C529 H551 0.950 . S
C530 H526 0.949 . S
C530 C538 1.574 . S
C530 C546 1.368 . S
H531 C539 0.950 1_545 S
H532 C537 0.954 . S
H533 C538 0.949 . S
H534 C540 0.950 . S
H535 C541 0.950 . S
H536 C542 0.949 . S
C537 H532 0.954 . S
C537 C539 1.327 . S
C537 C543 1.429 . S
C538 C530 1.574 . S
C538 H533 0.949 . S
C538 C544 1.368 . S
C539 C523 1.349 . S
C539 H531 0.950 1_565 S
C539 C537 1.327 . S
C540 C528 1.349 . S
C540 H534 0.950 . S
C540 C541 1.327 . S
C541 H535 0.950 . S
C541 C540 1.327 . S
C541 C545 1.429 . S
C542 C525 1.574 . S
C542 H536 0.949 . S
C542 C546 1.368 . S
C543 C524 1.429 . S
C543 C537 1.429 . S
C543 C544 1.523 . S
C544 C525 1.368 . S
C544 C538 1.368 . S
C544 C543 1.523 . S
C545 C529 1.429 . S
C545 C541 1.429 . S
C545 C546 1.523 . S
C546 C530 1.368 . S
C546 C542 1.368 . S
C546 C545 1.523 . S
H547 C522 0.950 . S
H548 C524 0.950 . S
H549 C525 0.949 . S
H550 C527 0.950 . S
H551 C529 0.950 . S
C552 C553 1.349 . S
C552 C554 1.327 . S
C552 H577 0.950 . S
C553 C552 1.349 . S
C553 C569 1.349 . S
C554 C552 1.327 . S
C554 C573 1.429 . S
C554 H578 0.950 . S
C555 C572 1.574 . S
C555 C574 1.368 . S
C555 H579 0.949 . S
H556 C560 0.949 . S
C557 C558 1.349 . S
C557 C559 1.327 . S
C557 H580 0.950 . S
C558 C557 1.349 . S
C558 C570 1.349 . S
C559 C557 1.327 . S
C559 C575 1.429 . S
C559 H581 0.950 . S
C560 H556 0.949 . S
C560 C568 1.574 . S
C560 C576 1.368 . S
H561 C569 0.950 . S
H562 C567 0.950 . S
H563 C568 0.949 . S
H564 C570 0.950 . S
H565 C571 0.950 . S
H566 C572 0.949 . S
C567 H562 0.950 . S
C567 C569 1.327 . S
C567 C573 1.429 . S
C568 C560 1.574 . S
C568 H563 0.949 . S
C568 C574 1.368 . S
C569 C553 1.349 . S
C569 H561 0.950 . S
C569 C567 1.327 . S
C570 C558 1.349 . S
C570 H564 0.950 . S
C570 C571 1.327 . S
C571 H565 0.950 . S
C571 C570 1.327 . S
C571 C575 1.429 . S
C572 C555 1.574 . S
C572 H566 0.949 . S
C572 C576 1.368 . S
C573 C554 1.429 . S
C573 C567 1.429 . S
C573 C574 1.523 . S
C574 C555 1.368 . S
C574 C568 1.368 . S
C574 C573 1.523 . S
C575 C559 1.429 . S
C575 C571 1.429 . S
C575 C576 1.523 . S
C576 C560 1.368 . S
C576 C572 1.368 . S
C576 C575 1.523 . S
H577 C552 0.950 . S
H578 C554 0.950 . S
H579 C555 0.949 . S
H580 C557 0.950 . S
H581 C559 0.950 . S
C582 C583 1.349 . S
C582 C584 1.327 . S
C582 H607 0.950 . S
C583 C582 1.349 . S
C583 C599 1.349 . S
C584 C582 1.327 . S
C584 C603 1.429 . S
C584 H608 0.950 . S
C585 C602 1.574 . S
C585 C604 1.368 . S
C585 H609 0.949 . S
H586 C590 0.949 . S
C587 C588 1.349 . S
C587 C589 1.327 . S
C587 H610 0.950 . S
C588 C587 1.349 . S
C588 C600 1.349 . S
C589 C587 1.327 . S
C589 C605 1.429 . S
C589 H611 0.950 . S
C590 H586 0.949 . S
C590 C598 1.574 . S
C590 C606 1.368 . S
H591 C599 0.950 . S
H592 C597 0.950 . S
H593 C598 0.949 . S
H594 C600 0.950 . S
H595 C601 0.950 . S
H596 C602 0.949 . S
C597 H592 0.950 . S
C597 C599 1.327 . S
C597 C603 1.429 . S
C598 C590 1.574 . S
C598 H593 0.949 . S
C598 C604 1.368 . S
C599 C583 1.349 . S
C599 H591 0.950 . S
C599 C597 1.327 . S
C600 C588 1.349 . S
C600 H594 0.950 . S
C600 C601 1.327 . S
C601 H595 0.950 . S
C601 C600 1.327 . S
C601 C605 1.429 . S
C602 C585 1.574 . S
C602 H596 0.949 . S
C602 C606 1.368 . S
C603 C584 1.429 . S
C603 C597 1.429 . S
C603 C604 1.523 . S
C604 C585 1.368 . S
C604 C598 1.368 . S
C604 C603 1.523 . S
C605 C589 1.429 . S
C605 C601 1.429 . S
C605 C606 1.523 . S
C606 C590 1.368 . S
C606 C602 1.368 . S
C606 C605 1.523 . S
H607 C582 0.950 . S
H608 C584 0.950 . S
H609 C585 0.949 . S
H610 C587 0.950 . S
H611 C589 0.950 . S
C612 C613 1.349 . S
C612 C614 1.327 . S
C612 H637 0.950 . S
C613 C612 1.349 . S
C613 C629 1.349 . S
C614 C612 1.327 . S
C614 C633 1.429 . S
C614 H638 0.950 . S
C615 C632 1.574 . S
C615 C634 1.368 . S
C615 H639 0.949 . S
H616 C620 0.949 . S
C617 C618 1.349 . S
C617 C619 1.327 . S
C617 H640 0.950 . S
C618 C617 1.349 . S
C618 C630 1.349 . S
C619 C617 1.327 . S
C619 C635 1.429 . S
C619 H641 0.950 . S
C620 H616 0.949 . S
C620 C628 1.574 . S
C620 C636 1.368 . S
H621 C629 0.950 . S
H622 C627 0.950 . S
H623 C628 0.949 . S
H624 C630 0.950 . S
H625 C631 0.950 . S
H626 C632 0.949 . S
C627 H622 0.950 . S
C627 C629 1.327 . S
C627 C633 1.429 . S
C628 C620 1.574 . S
C628 H623 0.949 . S
C628 C634 1.368 . S
C629 C613 1.349 . S
C629 H621 0.950 . S
C629 C627 1.327 . S
C630 C618 1.349 . S
C630 H624 0.950 . S
C630 C631 1.327 . S
C631 H625 0.950 . S
C631 C630 1.327 . S
C631 C635 1.429 . S
C632 C615 1.574 . S
C632 H626 0.949 . S
C632 C636 1.368 . S
C633 C614 1.429 . S
C633 C627 1.429 . S
C633 C634 1.523 . S
C634 C615 1.368 . S
C634 C628 1.368 . S
C634 C633 1.523 . S
C635 C619 1.429 . S
C635 C631 1.429 . S
C635 C636 1.523 . S
C636 C620 1.368 . S
C636 C632 1.368 . S
C636 C635 1.523 . S
H637 C612 0.950 . S
H638 C614 0.950 . S
H639 C615 0.949 . S
H640 C617 0.950 . S
H641 C619 0.950 . S
C642 C643 1.349 . S
C642 C644 1.327 . S
C642 H667 0.950 . S
C643 C642 1.349 . S
C643 C659 1.349 . S
C644 C642 1.327 . S
C644 C663 1.429 . S
C644 H668 0.950 . S
C645 C662 1.574 . S
C645 C664 1.368 1_565 S
C645 H669 0.949 . S
H646 C650 0.949 . S
C647 C648 1.349 . S
C647 C649 1.327 . S
C647 H670 0.950 . S
C648 C647 1.349 . S
C648 C660 1.349 . S
C649 C647 1.327 . S
C649 C665 1.429 . S
C649 H671 0.950 . S
C650 H646 0.949 . S
C650 C658 1.574 . S
C650 C666 1.368 1_545 S
H651 C659 0.950 . S
H652 C657 0.950 . S
H653 C658 0.949 . S
H654 C660 0.950 . S
H655 C661 0.950 1_545 S
H656 C662 0.949 . S
C657 H652 0.950 . S
C657 C659 1.327 . S
C657 C663 1.429 . S
C658 C650 1.574 . S
C658 H653 0.949 . S
C658 C664 1.368 . S
C659 C643 1.349 . S
C659 H651 0.950 . S
C659 C657 1.327 . S
C660 C648 1.349 . S
C660 H654 0.950 . S
C660 C661 1.327 . S
C661 H655 0.950 1_565 S
C661 C660 1.327 . S
C661 C665 1.429 . S
C662 C645 1.574 . S
C662 H656 0.949 . S
C662 C666 1.368 . S
C663 C644 1.429 . S
C663 C657 1.429 . S
C663 C664 1.523 . S
C664 C645 1.368 1_545 S
C664 C658 1.368 . S
C664 C663 1.523 . S
C665 C649 1.429 . S
C665 C661 1.429 . S
C665 C666 1.523 . S
C666 C650 1.368 1_565 S
C666 C662 1.368 . S
C666 C665 1.523 . S
H667 C642 0.950 . S
H668 C644 0.950 . S
H669 C645 0.949 . S
H670 C647 0.950 . S
H671 C649 0.950 . S
C672 C673 1.349 . S
C672 C674 1.327 . S
C672 H697 0.950 . S
C673 C672 1.349 . S
C673 C689 1.349 . S
C674 C672 1.327 . S
C674 C693 1.429 . S
C674 H698 0.950 . S
C675 C692 1.574 . S
C675 C694 1.368 1_655 S
C675 H699 0.949 . S
H676 C680 0.949 . S
C677 C678 1.349 . S
C677 C679 1.327 . S
C677 H700 0.950 . S
C678 C677 1.349 . S
C678 C690 1.349 . S
C679 C677 1.327 . S
C679 C695 1.429 . S
C679 H701 0.950 . S
C680 H676 0.949 . S
C680 C688 1.574 . S
C680 C696 1.368 1_455 S
H681 C689 0.950 . S
H682 C687 0.950 . S
H683 C688 0.949 . S
H684 C690 0.950 . S
H685 C691 0.950 1_455 S
H686 C692 0.949 . S
C687 H682 0.950 . S
C687 C689 1.327 . S
C687 C693 1.429 . S
C688 C680 1.574 . S
C688 H683 0.949 . S
C688 C694 1.368 . S
C689 C673 1.349 . S
C689 H681 0.950 . S
C689 C687 1.327 . S
C690 C678 1.349 . S
C690 H684 0.950 . S
C690 C691 1.327 . S
C691 H685 0.950 1_655 S
C691 C690 1.327 . S
C691 C695 1.429 . S
C692 C675 1.574 . S
C692 H686 0.949 . S
C692 C696 1.368 . S
C693 C674 1.429 . S
C693 C687 1.429 . S
C693 C694 1.523 . S
C694 C675 1.368 1_455 S
C694 C688 1.368 . S
C694 C693 1.523 . S
C695 C679 1.429 . S
C695 C691 1.429 . S
C695 C696 1.523 . S
C696 C680 1.368 1_655 S
C696 C692 1.368 . S
C696 C695 1.523 . S
H697 C672 0.950 . S
H698 C674 0.950 . S
H699 C675 0.949 . S
H700 C677 0.950 . S
H701 C679 0.950 . S
C702 C703 1.349 . S
C702 C704 1.327 . S
C702 H727 0.950 . S
C703 C702 1.349 . S
C703 C719 1.349 . S
C704 C702 1.327 . S
C704 C723 1.429 . S
C704 H728 0.950 . S
C705 C722 1.574 . S
C705 C724 1.368 . S
C705 H729 0.949 . S
H706 C710 0.949 . S
C707 C708 1.349 . S
C707 C709 1.327 . S
C707 H730 0.950 . S
C708 C707 1.349 . S
C708 C720 1.349 . S
C709 C707 1.327 . S
C709 C725 1.429 . S
C709 H731 0.950 . S
C710 H706 0.949 . S
C710 C718 1.574 . S
C710 C726 1.368 . S
H711 C719 0.950 . S
H712 C717 0.950 . S
H713 C718 0.949 . S
H714 C720 0.950 . S
H715 C721 0.950 . S
H716 C722 0.949 . S
C717 H712 0.950 . S
C717 C719 1.327 . S
C717 C723 1.429 . S
C718 C710 1.574 . S
C718 H713 0.949 . S
C718 C724 1.368 . S
C719 C703 1.349 . S
C719 H711 0.950 . S
C719 C717 1.327 . S
C720 C708 1.349 . S
C720 H714 0.950 . S
C720 C721 1.327 . S
C721 H715 0.950 . S
C721 C720 1.327 . S
C721 C725 1.429 . S
C722 C705 1.574 . S
C722 H716 0.949 . S
C722 C726 1.368 . S
C723 C704 1.429 . S
C723 C717 1.429 . S
C723 C724 1.523 . S
C724 C705 1.368 . S
C724 C718 1.368 . S
C724 C723 1.523 . S
C725 C709 1.429 . S
C725 C721 1.429 . S
C725 C726 1.523 . S
C726 C710 1.368 . S
C726 C722 1.368 . S
C726 C725 1.523 . S
H727 C702 0.950 . S
H728 C704 0.950 . S
H729 C705 0.949 . S
H730 C707 0.950 . S
H731 C709 0.950 . S
C732 C733 1.349 . S
C732 C734 1.327 . S
C732 H757 0.950 . S
C733 C732 1.349 . S
C733 C749 1.349 . S
C734 C732 1.327 . S
C734 C753 1.429 . S
C734 H758 0.950 . S
C735 C752 1.574 . S
C735 C754 1.368 . S
C735 H759 0.949 . S
H736 C740 0.949 . S
C737 C738 1.349 . S
C737 C739 1.327 . S
C737 H760 0.950 . S
C738 C737 1.349 . S
C738 C750 1.349 . S
C739 C737 1.327 . S
C739 C755 1.429 . S
C739 H761 0.950 . S
C740 H736 0.949 . S
C740 C748 1.571 . S
C740 C756 1.368 . S
H741 C749 0.950 . S
H742 C747 0.950 . S
H743 C748 0.950 . S
H744 C750 0.950 . S
H745 C751 0.950 . S
H746 C752 0.949 . S
C747 H742 0.950 . S
C747 C749 1.327 . S
C747 C753 1.429 . S
C748 C740 1.571 . S
C748 H743 0.950 . S
C748 C754 1.370 1_565 S
C749 C733 1.349 . S
C749 H741 0.950 . S
C749 C747 1.327 . S
C750 C738 1.349 . S
C750 H744 0.950 . S
C750 C751 1.327 . S
C751 H745 0.950 . S
C751 C750 1.327 . S
C751 C755 1.429 . S
C752 C735 1.574 . S
C752 H746 0.949 . S
C752 C756 1.368 1_545 S
C753 C734 1.429 . S
C753 C747 1.429 . S
C753 C754 1.523 . S
C754 C735 1.368 . S
C754 C748 1.370 1_545 S
C754 C753 1.523 . S
C755 C739 1.429 . S
C755 C751 1.429 . S
C755 C756 1.523 . S
C756 C740 1.368 . S
C756 C752 1.368 1_565 S
C756 C755 1.523 . S
H757 C732 0.950 . S
H758 C734 0.950 . S
H759 C735 0.949 . S
H760 C737 0.950 . S
H761 C739 0.950 . S
C762 C763 1.349 . S
C762 C764 1.327 . S
C762 H787 0.950 . S
C763 C762 1.349 . S
C763 C779 1.349 . S
C764 C762 1.327 . S
C764 C783 1.429 . S
C764 H788 0.950 . S
C765 C782 1.579 . S
C765 C784 1.364 1_655 S
C765 H789 0.948 . S
H766 C770 0.949 . S
C767 C768 1.349 . S
C767 C769 1.327 . S
C767 H790 0.950 . S
C768 C767 1.349 . S
C768 C780 1.349 . S
C769 C767 1.327 . S
C769 C785 1.429 . S
C769 H791 0.950 . S
C770 H766 0.949 . S
C770 C778 1.574 . S
C770 C786 1.368 1_455 S
H771 C779 0.950 . S
H772 C777 0.950 . S
H773 C778 0.949 . S
H774 C780 0.950 . S
H775 C781 0.950 . S
H776 C782 0.949 . S
C777 H772 0.950 . S
C777 C779 1.327 . S
C777 C783 1.429 . S
C778 C770 1.574 . S
C778 H773 0.949 . S
C778 C784 1.368 . S
C779 C763 1.349 . S
C779 H771 0.950 . S
C779 C777 1.327 . S
C780 C768 1.349 . S
C780 H774 0.950 . S
C780 C781 1.327 . S
C781 H775 0.950 . S
C781 C780 1.327 . S
C781 C785 1.429 . S
C782 C765 1.579 . S
C782 H776 0.949 . S
C782 C786 1.368 . S
C783 C764 1.429 . S
C783 C777 1.429 . S
C783 C784 1.523 . S
C784 C765 1.364 1_455 S
C784 C778 1.368 . S
C784 C783 1.523 . S
C785 C769 1.429 . S
C785 C781 1.429 . S
C785 C786 1.523 . S
C786 C770 1.368 1_655 S
C786 C782 1.368 . S
C786 C785 1.523 . S
H787 C762 0.950 . S
H788 C764 0.950 . S
H789 C765 0.948 . S
H790 C767 0.950 . S
H791 C769 0.950 . S
C792 C793 1.349 . S
C792 C794 1.327 . S
C792 H817 0.950 . S
C793 C792 1.349 . S
C793 C809 1.349 . S
C794 C792 1.327 . S
C794 C813 1.429 . S
C794 H818 0.950 . S
C795 C812 1.574 . S
C795 C814 1.368 . S
C795 H819 0.949 . S
H796 C800 0.949 . S
C797 C798 1.349 . S
C797 C799 1.327 . S
C797 H820 0.950 . S
C798 C797 1.349 . S
C798 C810 1.349 . S
C799 C797 1.327 . S
C799 C815 1.429 . S
C799 H821 0.950 . S
C800 H796 0.949 . S
C800 C808 1.574 . S
C800 C816 1.368 . S
H801 C809 0.950 . S
H802 C807 0.950 . S
H803 C808 0.949 . S
H804 C810 0.950 . S
H805 C811 0.950 . S
H806 C812 0.949 . S
C807 H802 0.950 . S
C807 C809 1.327 . S
C807 C813 1.429 . S
C808 C800 1.574 . S
C808 H803 0.949 . S
C808 C814 1.368 . S
C809 C793 1.349 . S
C809 H801 0.950 . S
C809 C807 1.327 . S
C810 C798 1.349 . S
C810 H804 0.950 . S
C810 C811 1.327 . S
C811 H805 0.950 . S
C811 C810 1.327 . S
C811 C815 1.429 . S
C812 C795 1.574 . S
C812 H806 0.949 . S
C812 C816 1.368 . S
C813 C794 1.429 . S
C813 C807 1.429 . S
C813 C814 1.523 . S
C814 C795 1.368 . S
C814 C808 1.368 . S
C814 C813 1.523 . S
C815 C799 1.429 . S
C815 C811 1.429 . S
C815 C816 1.523 . S
C816 C800 1.368 . S
C816 C812 1.368 . S
C816 C815 1.523 . S
H817 C792 0.950 . S
H818 C794 0.950 . S
H819 C795 0.949 . S
H820 C797 0.950 . S
H821 C799 0.950 . S
C822 C823 1.349 . S
C822 C824 1.327 . S
C822 H847 0.950 . S
C823 C822 1.349 . S
C823 C839 1.349 . S
C824 C822 1.327 . S
C824 C843 1.429 . S
C824 H848 0.950 . S
C825 C842 1.574 . S
C825 C844 1.368 . S
C825 H849 0.949 . S
H826 C830 0.949 . S
C827 C828 1.349 . S
C827 C829 1.327 . S
C827 H850 0.950 . S
C828 C827 1.349 . S
C828 C840 1.349 . S
C829 C827 1.327 . S
C829 C845 1.429 . S
C829 H851 0.950 . S
C830 H826 0.949 . S
C830 C838 1.574 . S
C830 C846 1.368 . S
H831 C839 0.950 . S
H832 C837 0.950 . S
H833 C838 0.949 . S
H834 C840 0.950 . S
H835 C841 0.950 . S
H836 C842 0.949 . S
C837 H832 0.950 . S
C837 C839 1.327 . S
C837 C843 1.429 . S
C838 C830 1.574 . S
C838 H833 0.949 . S
C838 C844 1.368 . S
C839 C823 1.349 . S
C839 H831 0.950 . S
C839 C837 1.327 . S
C840 C828 1.349 . S
C840 H834 0.950 . S
C840 C841 1.327 . S
C841 H835 0.950 . S
C841 C840 1.327 . S
C841 C845 1.429 . S
C842 C825 1.574 . S
C842 H836 0.949 . S
C842 C846 1.368 . S
C843 C824 1.429 . S
C843 C837 1.429 . S
C843 C844 1.523 . S
C844 C825 1.368 . S
C844 C838 1.368 . S
C844 C843 1.523 . S
C845 C829 1.429 . S
C845 C841 1.429 . S
C845 C846 1.523 . S
C846 C830 1.368 . S
C846 C842 1.368 . S
C846 C845 1.523 . S
H847 C822 0.950 . S
H848 C824 0.950 . S
H849 C825 0.949 . S
H850 C827 0.950 . S
H851 C829 0.950 . S
C852 C853 1.349 . S
C852 C854 1.327 . S
C852 H877 0.950 . S
C853 C852 1.349 . S
C853 C869 1.349 . S
C854 C852 1.327 . S
C854 C873 1.429 . S
C854 H878 0.950 . S
C855 C872 1.574 . S
C855 C874 1.368 . S
C855 H879 0.949 . S
H856 C860 0.949 . S
C857 C858 1.349 . S
C857 C859 1.327 . S
C857 H880 0.950 . S
C858 C857 1.349 . S
C858 C870 1.349 . S
C859 C857 1.327 . S
C859 C875 1.429 . S
C859 H881 0.950 . S
C860 H856 0.949 . S
C860 C868 1.574 . S
C860 C876 1.368 . S
H861 C869 0.950 . S
H862 C867 0.950 . S
H863 C868 0.949 . S
H864 C870 0.950 . S
H865 C871 0.950 . S
H866 C872 0.949 . S
C867 H862 0.950 . S
C867 C869 1.327 . S
C867 C873 1.429 . S
C868 C860 1.574 . S
C868 H863 0.949 . S
C868 C874 1.368 . S
C869 C853 1.349 . S
C869 H861 0.950 . S
C869 C867 1.327 . S
C870 C858 1.349 . S
C870 H864 0.950 . S
C870 C871 1.327 . S
C871 H865 0.950 . S
C871 C870 1.327 . S
C871 C875 1.429 . S
C872 C855 1.574 . S
C872 H866 0.949 . S
C872 C876 1.368 . S
C873 C854 1.429 . S
C873 C867 1.429 . S
C873 C874 1.523 . S
C874 C855 1.368 . S
C874 C868 1.368 . S
C874 C873 1.523 . S
C875 C859 1.429 . S
C875 C871 1.429 . S
C875 C876 1.523 . S
C876 C860 1.368 . S
C876 C872 1.368 . S
C876 C875 1.523 . S
H877 C852 0.950 . S
H878 C854 0.950 . S
H879 C855 0.949 . S
H880 C857 0.950 . S
H881 C859 0.950 . S
C882 C883 1.349 . S
C882 C884 1.327 . S
C882 H907 0.950 . S
C883 C882 1.349 . S
C883 C899 1.349 . S
C884 C882 1.327 . S
C884 C903 1.429 . S
C884 H908 0.950 . S
C885 C902 1.574 . S
C885 C904 1.368 . S
C885 H909 0.949 . S
H886 C890 0.949 . S
C887 C888 1.349 . S
C887 C889 1.327 . S
C887 H910 0.950 . S
C888 C887 1.349 . S
C888 C900 1.349 . S
C889 C887 1.327 . S
C889 C905 1.429 . S
C889 H911 0.950 . S
C890 H886 0.949 . S
C890 C898 1.574 . S
C890 C906 1.368 . S
H891 C899 0.950 . S
H892 C897 0.950 . S
H893 C898 0.949 . S
H894 C900 0.950 . S
H895 C901 0.950 . S
H896 C902 0.949 . S
C897 H892 0.950 . S
C897 C899 1.327 . S
C897 C903 1.429 . S
C898 C890 1.574 . S
C898 H893 0.949 . S
C898 C904 1.368 . S
C899 C883 1.349 . S
C899 H891 0.950 . S
C899 C897 1.327 . S
C900 C888 1.349 . S
C900 H894 0.950 . S
C900 C901 1.327 . S
C901 H895 0.950 . S
C901 C900 1.327 . S
C901 C905 1.429 . S
C902 C885 1.574 . S
C902 H896 0.949 . S
C902 C906 1.368 . S
C903 C884 1.429 . S
C903 C897 1.429 . S
C903 C904 1.523 . S
C904 C885 1.368 . S
C904 C898 1.368 . S
C904 C903 1.523 . S
C905 C889 1.429 . S
C905 C901 1.429 . S
C905 C906 1.523 . S
C906 C890 1.368 . S
C906 C902 1.368 . S
C906 C905 1.523 . S
H907 C882 0.950 . S
H908 C884 0.950 . S
H909 C885 0.949 . S
H910 C887 0.950 . S
H911 C889 0.950 . S
C912 C913 1.349 . S
C912 C914 1.327 . S
C912 H937 0.950 . S
C913 C912 1.349 . S
C913 C929 1.349 . S
C914 C912 1.327 . S
C914 C933 1.429 . S
C914 H938 0.950 . S
C915 C932 1.574 . S
C915 C934 1.368 . S
C915 H939 0.949 . S
H916 C920 0.949 . S
C917 C918 1.349 . S
C917 C919 1.327 . S
C917 H940 0.950 . S
C918 C917 1.349 . S
C918 C930 1.349 . S
C919 C917 1.327 . S
C919 C935 1.429 . S
C919 H941 0.950 . S
C920 H916 0.949 . S
C920 C928 1.574 . S
C920 C936 1.368 . S
H921 C929 0.950 . S
H922 C927 0.950 . S
H923 C928 0.949 . S
H924 C930 0.950 . S
H925 C931 0.950 . S
H926 C932 0.949 . S
C927 H922 0.950 . S
C927 C929 1.327 . S
C927 C933 1.429 . S
C928 C920 1.574 . S
C928 H923 0.949 . S
C928 C934 1.368 . S
C929 C913 1.349 . S
C929 H921 0.950 . S
C929 C927 1.327 . S
C930 C918 1.349 . S
C930 H924 0.950 . S
C930 C931 1.327 . S
C931 H925 0.950 . S
C931 C930 1.327 . S
C931 C935 1.429 . S
C932 C915 1.574 . S
C932 H926 0.949 . S
C932 C936 1.368 . S
C933 C914 1.429 . S
C933 C927 1.429 . S
C933 C934 1.523 . S
C934 C915 1.368 . S
C934 C928 1.368 . S
C934 C933 1.523 . S
C935 C919 1.429 . S
C935 C931 1.429 . S
C935 C936 1.523 . S
C936 C920 1.368 . S
C936 C932 1.368 . S
C936 C935 1.523 . S
H937 C912 0.950 . S
H938 C914 0.950 . S
H939 C915 0.949 . S
H940 C917 0.950 . S
H941 C919 0.950 . S
C942 C943 1.349 . S
C942 C944 1.327 . S
C942 H967 0.950 . S
C943 C942 1.349 . S
C943 C959 1.349 . S
C944 C942 1.327 . S
C944 C963 1.429 . S
C944 H968 0.950 . S
C945 C962 1.574 . S
C945 C964 1.368 . S
C945 H969 0.949 . S
H946 C950 0.949 . S
C947 C948 1.349 . S
C947 C949 1.327 . S
C947 H970 0.950 . S
C948 C947 1.349 . S
C948 C960 1.349 . S
C949 C947 1.327 . S
C949 C965 1.429 . S
C949 H971 0.950 . S
C950 H946 0.949 . S
C950 C958 1.574 . S
C950 C966 1.368 . S
H951 C959 0.950 . S
H952 C957 0.950 . S
H953 C958 0.949 . S
H954 C960 0.950 . S
H955 C961 0.950 . S
H956 C962 0.949 . S
C957 H952 0.950 . S
C957 C959 1.327 . S
C957 C963 1.429 . S
C958 C950 1.574 . S
C958 H953 0.949 . S
C958 C964 1.368 . S
C959 C943 1.349 . S
C959 H951 0.950 . S
C959 C957 1.327 . S
C960 C948 1.349 . S
C960 H954 0.950 . S
C960 C961 1.327 . S
C961 H955 0.950 . S
C961 C960 1.327 . S
C961 C965 1.429 . S
C962 C945 1.574 . S
C962 H956 0.949 . S
C962 C966 1.368 . S
C963 C944 1.429 . S
C963 C957 1.429 . S
C963 C964 1.523 . S
C964 C945 1.368 . S
C964 C958 1.368 . S
C964 C963 1.523 . S
C965 C949 1.429 . S
C965 C961 1.429 . S
C965 C966 1.523 . S
C966 C950 1.368 . S
C966 C962 1.368 . S
C966 C965 1.523 . S
H967 C942 0.950 . S
H968 C944 0.950 . S
H969 C945 0.949 . S
H970 C947 0.950 . S
H971 C949 0.950 . S
C972 C973 1.349 . S
C972 C974 1.327 . S
C972 H997 0.950 . S
C973 C972 1.349 . S
C973 C989 1.349 . S
C974 C972 1.327 . S
C974 C993 1.429 . S
C974 H998 0.950 . S
C975 C992 1.574 . S
C975 C994 1.368 . S
C975 H999 0.949 . S
H976 C980 0.949 . S
C977 C978 1.349 . S
C977 C979 1.327 . S
C977 H1000 0.950 . S
C978 C977 1.349 . S
C978 C990 1.349 . S
C979 C977 1.327 . S
C979 C995 1.429 . S
C979 H1001 0.950 . S
C980 H976 0.949 . S
C980 C988 1.574 . S
C980 C996 1.368 . S
H981 C989 0.950 . S
H982 C987 0.950 . S
H983 C988 0.949 . S
H984 C990 0.950 . S
H985 C991 0.950 . S
H986 C992 0.949 . S
C987 H982 0.950 . S
C987 C989 1.327 . S
C987 C993 1.429 . S
C988 C980 1.574 . S
C988 H983 0.949 . S
C988 C994 1.368 . S
C989 C973 1.349 . S
C989 H981 0.950 . S
C989 C987 1.327 . S
C990 C978 1.349 . S
C990 H984 0.950 . S
C990 C991 1.327 . S
C991 H985 0.950 . S
C991 C990 1.327 . S
C991 C995 1.429 . S
C992 C975 1.574 . S
C992 H986 0.949 . S
C992 C996 1.368 . S
C993 C974 1.429 . S
C993 C987 1.429 . S
C993 C994 1.523 . S
C994 C975 1.368 . S
C994 C988 1.368 . S
C994 C993 1.523 . S
C995 C979 1.429 . S
C995 C991 1.429 . S
C995 C996 1.523 . S
C996 C980 1.368 . S
C996 C992 1.368 . S
C996 C995 1.523 . S
H997 C972 0.950 . S
H998 C974 0.950 . S
H999 C975 0.949 . S
H1000 C977 0.950 . S
H1001 C979 0.950 . S
C1002 C1003 1.349 . S
C1002 C1004 1.327 . S
C1002 H1027 0.950 . S
C1003 C1002 1.349 . S
C1003 C1019 1.349 . S
C1004 C1002 1.327 . S
C1004 C1023 1.429 . S
C1004 H1028 0.950 . S
C1005 C1022 1.574 . S
C1005 C1024 1.368 . S
C1005 H1029 0.949 . S
H1006 C1010 0.949 . S
C1007 C1008 1.349 . S
C1007 C1009 1.327 . S
C1007 H1030 0.950 . S
C1008 C1007 1.349 . S
C1008 C1020 1.349 . S
C1009 C1007 1.327 . S
C1009 C1025 1.429 . S
C1009 H1031 0.950 . S
C1010 H1006 0.949 . S
C1010 C1018 1.574 . S
C1010 C1026 1.368 . S
H1011 C1019 0.950 . S
H1012 C1017 0.950 . S
H1013 C1018 0.949 . S
H1014 C1020 0.950 . S
H1015 C1021 0.950 . S
H1016 C1022 0.949 . S
C1017 H1012 0.950 . S
C1017 C1019 1.327 . S
C1017 C1023 1.429 . S
C1018 C1010 1.574 . S
C1018 H1013 0.949 . S
C1018 C1024 1.368 . S
C1019 C1003 1.349 . S
C1019 H1011 0.950 . S
C1019 C1017 1.327 . S
C1020 C1008 1.349 . S
C1020 H1014 0.950 . S
C1020 C1021 1.327 . S
C1021 H1015 0.950 . S
C1021 C1020 1.327 . S
C1021 C1025 1.429 . S
C1022 C1005 1.574 . S
C1022 H1016 0.949 . S
C1022 C1026 1.368 . S
C1023 C1004 1.429 . S
C1023 C1017 1.429 . S
C1023 C1024 1.523 . S
C1024 C1005 1.368 . S
C1024 C1018 1.368 . S
C1024 C1023 1.523 . S
C1025 C1009 1.429 . S
C1025 C1021 1.429 . S
C1025 C1026 1.523 . S
C1026 C1010 1.368 . S
C1026 C1022 1.368 . S
C1026 C1025 1.523 . S
H1027 C1002 0.950 . S
H1028 C1004 0.950 . S
H1029 C1005 0.949 . S
H1030 C1007 0.950 . S
H1031 C1009 0.950 . S
C1032 C1033 1.349 . S
C1032 C1034 1.327 . S
C1032 H1057 0.950 . S
C1033 C1032 1.349 . S
C1033 C1049 1.349 . S
C1034 C1032 1.327 . S
C1034 C1053 1.429 . S
C1034 H1058 0.950 . S
C1035 C1052 1.574 . S
C1035 C1054 1.368 . S
C1035 H1059 0.949 . S
H1036 C1040 0.949 . S
C1037 C1038 1.349 . S
C1037 C1039 1.327 . S
C1037 H1060 0.950 . S
C1038 C1037 1.349 . S
C1038 C1050 1.349 . S
C1039 C1037 1.327 . S
C1039 C1055 1.429 . S
C1039 H1061 0.950 . S
C1040 H1036 0.949 . S
C1040 C1048 1.574 . S
C1040 C1056 1.368 . S
H1041 C1049 0.950 . S
H1042 C1047 0.950 . S
H1043 C1048 0.949 . S
H1044 C1050 0.950 . S
H1045 C1051 0.950 . S
H1046 C1052 0.949 . S
C1047 H1042 0.950 . S
C1047 C1049 1.327 . S
C1047 C1053 1.429 . S
C1048 C1040 1.574 . S
C1048 H1043 0.949 . S
C1048 C1054 1.368 . S
C1049 C1033 1.349 . S
C1049 H1041 0.950 . S
C1049 C1047 1.327 . S
C1050 C1038 1.349 . S
C1050 H1044 0.950 . S
C1050 C1051 1.327 . S
C1051 H1045 0.950 . S
C1051 C1050 1.327 . S
C1051 C1055 1.429 . S
C1052 C1035 1.574 . S
C1052 H1046 0.949 . S
C1052 C1056 1.368 . S
C1053 C1034 1.429 . S
C1053 C1047 1.429 . S
C1053 C1054 1.523 . S
C1054 C1035 1.368 . S
C1054 C1048 1.368 . S
C1054 C1053 1.523 . S
C1055 C1039 1.429 . S
C1055 C1051 1.429 . S
C1055 C1056 1.523 . S
C1056 C1040 1.368 . S
C1056 C1052 1.368 . S
C1056 C1055 1.523 . S
H1057 C1032 0.950 . S
H1058 C1034 0.950 . S
H1059 C1035 0.949 . S
H1060 C1037 0.950 . S
H1061 C1039 0.950 . S
C1062 C1063 1.349 . S
C1062 C1064 1.327 . S
C1062 H1087 0.950 . S
C1063 C1062 1.349 . S
C1063 C1079 1.349 . S
C1064 C1062 1.327 . S
C1064 C1083 1.429 . S
C1064 H1088 0.950 . S
C1065 C1082 1.574 . S
C1065 C1084 1.368 . S
C1065 H1089 0.949 . S
H1066 C1070 0.949 . S
C1067 C1068 1.349 . S
C1067 C1069 1.327 . S
C1067 H1090 0.950 . S
C1068 C1067 1.349 . S
C1068 C1080 1.349 . S
C1069 C1067 1.327 . S
C1069 C1085 1.429 . S
C1069 H1091 0.950 . S
C1070 H1066 0.949 . S
C1070 C1078 1.574 . S
C1070 C1086 1.368 . S
H1071 C1079 0.950 . S
H1072 C1077 0.950 . S
H1073 C1078 0.949 . S
H1074 C1080 0.950 . S
H1075 C1081 0.950 . S
H1076 C1082 0.949 . S
C1077 H1072 0.950 . S
C1077 C1079 1.327 . S
C1077 C1083 1.429 . S
C1078 C1070 1.574 . S
C1078 H1073 0.949 . S
C1078 C1084 1.368 . S
C1079 C1063 1.349 . S
C1079 H1071 0.950 . S
C1079 C1077 1.327 . S
C1080 C1068 1.349 . S
C1080 H1074 0.950 . S
C1080 C1081 1.327 . S
C1081 H1075 0.950 . S
C1081 C1080 1.327 . S
C1081 C1085 1.429 . S
C1082 C1065 1.574 . S
C1082 H1076 0.949 . S
C1082 C1086 1.368 . S
C1083 C1064 1.429 . S
C1083 C1077 1.429 . S
C1083 C1084 1.523 . S
C1084 C1065 1.368 . S
C1084 C1078 1.368 . S
C1084 C1083 1.523 . S
C1085 C1069 1.429 . S
C1085 C1081 1.429 . S
C1085 C1086 1.523 . S
C1086 C1070 1.368 . S
C1086 C1082 1.368 . S
C1086 C1085 1.523 . S
H1087 C1062 0.950 . S
H1088 C1064 0.950 . S
H1089 C1065 0.949 . S
H1090 C1067 0.950 . S
H1091 C1069 0.950 . S
C1092 C1093 1.349 . S
C1092 C1094 1.327 . S
C1092 H1117 0.950 . S
C1093 C1092 1.349 . S
C1093 C1109 1.349 . S
C1094 C1092 1.327 . S
C1094 C1113 1.429 . S
C1094 H1118 0.950 . S
C1095 C1112 1.574 . S
C1095 C1114 1.368 . S
C1095 H1119 0.949 . S
H1096 C1100 0.949 . S
C1097 C1098 1.349 . S
C1097 C1099 1.327 . S
C1097 H1120 0.950 . S
C1098 C1097 1.349 . S
C1098 C1110 1.349 . S
C1099 C1097 1.327 . S
C1099 C1115 1.429 . S
C1099 H1121 0.950 . S
C1100 H1096 0.949 . S
C1100 C1108 1.574 . S
C1100 C1116 1.368 . S
H1101 C1109 0.950 . S
H1102 C1107 0.950 . S
H1103 C1108 0.949 . S
H1104 C1110 0.950 . S
H1105 C1111 0.950 . S
H1106 C1112 0.949 . S
C1107 H1102 0.950 . S
C1107 C1109 1.327 . S
C1107 C1113 1.429 . S
C1108 C1100 1.574 . S
C1108 H1103 0.949 . S
C1108 C1114 1.368 . S
C1109 C1093 1.349 . S
C1109 H1101 0.950 . S
C1109 C1107 1.327 . S
C1110 C1098 1.349 . S
C1110 H1104 0.950 . S
C1110 C1111 1.327 . S
C1111 H1105 0.950 . S
C1111 C1110 1.327 . S
C1111 C1115 1.429 . S
C1112 C1095 1.574 . S
C1112 H1106 0.949 . S
C1112 C1116 1.368 . S
C1113 C1094 1.429 . S
C1113 C1107 1.429 . S
C1113 C1114 1.523 . S
C1114 C1095 1.368 . S
C1114 C1108 1.368 . S
C1114 C1113 1.523 . S
C1115 C1099 1.429 . S
C1115 C1111 1.429 . S
C1115 C1116 1.523 . S
C1116 C1100 1.368 . S
C1116 C1112 1.368 . S
C1116 C1115 1.523 . S
H1117 C1092 0.950 . S
H1118 C1094 0.950 . S
H1119 C1095 0.949 . S
H1120 C1097 0.950 . S
H1121 C1099 0.950 . S
C1122 C1123 1.349 . S
C1122 C1124 1.327 . S
C1122 H1147 0.950 . S
C1123 C1122 1.349 . S
C1123 C1139 1.349 . S
C1124 C1122 1.327 . S
C1124 C1143 1.429 . S
C1124 H1148 0.950 . S
C1125 C1142 1.574 . S
C1125 C1144 1.368 . S
C1125 H1149 0.949 . S
H1126 C1130 0.949 . S
C1127 C1128 1.349 . S
C1127 C1129 1.327 . S
C1127 H1150 0.950 . S
C1128 C1127 1.349 . S
C1128 C1140 1.349 . S
C1129 C1127 1.327 . S
C1129 C1145 1.429 . S
C1129 H1151 0.950 . S
C1130 H1126 0.949 . S
C1130 C1138 1.574 . S
C1130 C1146 1.368 . S
H1131 C1139 0.950 . S
H1132 C1137 0.950 . S
H1133 C1138 0.949 . S
H1134 C1140 0.950 . S
H1135 C1141 0.950 . S
H1136 C1142 0.949 . S
C1137 H1132 0.950 . S
C1137 C1139 1.327 . S
C1137 C1143 1.429 . S
C1138 C1130 1.574 . S
C1138 H1133 0.949 . S
C1138 C1144 1.368 . S
C1139 C1123 1.349 . S
C1139 H1131 0.950 . S
C1139 C1137 1.327 . S
C1140 C1128 1.349 . S
C1140 H1134 0.950 . S
C1140 C1141 1.327 . S
C1141 H1135 0.950 . S
C1141 C1140 1.327 . S
C1141 C1145 1.429 . S
C1142 C1125 1.574 . S
C1142 H1136 0.949 . S
C1142 C1146 1.368 . S
C1143 C1124 1.429 . S
C1143 C1137 1.429 . S
C1143 C1144 1.523 . S
C1144 C1125 1.368 . S
C1144 C1138 1.368 . S
C1144 C1143 1.523 . S
C1145 C1129 1.429 . S
C1145 C1141 1.429 . S
C1145 C1146 1.523 . S
C1146 C1130 1.368 . S
C1146 C1142 1.368 . S
C1146 C1145 1.523 . S
H1147 C1122 0.950 . S
H1148 C1124 0.950 . S
H1149 C1125 0.949 . S
H1150 C1127 0.950 . S
H1151 C1129 0.950 . S
C1152 C1153 1.349 . S
C1152 C1154 1.327 . S
C1152 H1177 0.950 . S
C1153 C1152 1.349 . S
C1153 C1169 1.349 . S
C1154 C1152 1.327 . S
C1154 C1173 1.429 . S
C1154 H1178 0.950 . S
C1155 C1172 1.574 . S
C1155 C1174 1.368 . S
C1155 H1179 0.949 . S
H1156 C1160 0.949 . S
C1157 C1158 1.349 . S
C1157 C1159 1.327 . S
C1157 H1180 0.950 . S
C1158 C1157 1.349 . S
C1158 C1170 1.349 . S
C1159 C1157 1.327 . S
C1159 C1175 1.429 . S
C1159 H1181 0.950 . S
C1160 H1156 0.949 . S
C1160 C1168 1.574 . S
C1160 C1176 1.368 . S
H1161 C1169 0.950 . S
H1162 C1167 0.950 . S
H1163 C1168 0.949 . S
H1164 C1170 0.950 . S
H1165 C1171 0.950 . S
H1166 C1172 0.949 . S
C1167 H1162 0.950 . S
C1167 C1169 1.327 . S
C1167 C1173 1.429 . S
C1168 C1160 1.574 . S
C1168 H1163 0.949 . S
C1168 C1174 1.368 . S
C1169 C1153 1.349 . S
C1169 H1161 0.950 . S
C1169 C1167 1.327 . S
C1170 C1158 1.349 . S
C1170 H1164 0.950 . S
C1170 C1171 1.327 . S
C1171 H1165 0.950 . S
C1171 C1170 1.327 . S
C1171 C1175 1.429 . S
C1172 C1155 1.574 . S
C1172 H1166 0.949 . S
C1172 C1176 1.368 . S
C1173 C1154 1.429 . S
C1173 C1167 1.429 . S
C1173 C1174 1.523 . S
C1174 C1155 1.368 . S
C1174 C1168 1.368 . S
C1174 C1173 1.523 . S
C1175 C1159 1.429 . S
C1175 C1171 1.429 . S
C1175 C1176 1.523 . S
C1176 C1160 1.368 . S
C1176 C1172 1.368 . S
C1176 C1175 1.523 . S
H1177 C1152 0.950 . S
H1178 C1154 0.950 . S
H1179 C1155 0.949 . S
H1180 C1157 0.950 . S
H1181 C1159 0.950 . S
C1182 C1183 1.349 . S
C1182 C1184 1.327 . S
C1182 H1207 0.950 . S
C1183 C1182 1.349 . S
C1183 C1199 1.349 . S
C1184 C1182 1.327 . S
C1184 C1203 1.429 . S
C1184 H1208 0.950 . S
C1185 C1202 1.573 . S
C1185 C1204 1.360 1_565 S
C1185 H1209 0.957 . S
H1186 C1190 0.949 . S
C1187 C1188 1.349 . S
C1187 C1189 1.327 . S
C1187 H1210 0.950 . S
C1188 C1187 1.349 . S
C1188 C1200 1.349 . S
C1189 C1187 1.327 . S
C1189 C1205 1.429 . S
C1189 H1211 0.950 . S
C1190 H1186 0.949 . S
C1190 C1198 1.574 . S
C1190 C1206 1.368 1_545 S
H1191 C1199 0.950 . S
H1192 C1197 0.950 . S
H1193 C1198 0.949 . S
H1194 C1200 0.950 . S
H1195 C1201 0.950 1_545 S
H1196 C1202 0.949 . S
C1197 H1192 0.950 . S
C1197 C1199 1.327 . S
C1197 C1203 1.429 . S
C1198 C1190 1.574 . S
C1198 H1193 0.949 . S
C1198 C1204 1.368 . S
C1199 C1183 1.349 . S
C1199 H1191 0.950 . S
C1199 C1197 1.327 . S
C1200 C1188 1.349 . S
C1200 H1194 0.950 . S
C1200 C1201 1.327 . S
C1201 H1195 0.950 1_565 S
C1201 C1200 1.327 . S
C1201 C1205 1.429 . S
C1202 C1185 1.573 . S
C1202 H1196 0.949 . S
C1202 C1206 1.368 . S
C1203 C1184 1.429 . S
C1203 C1197 1.429 . S
C1203 C1204 1.523 . S
C1204 C1185 1.360 1_545 S
C1204 C1198 1.368 . S
C1204 C1203 1.523 . S
C1205 C1189 1.429 . S
C1205 C1201 1.429 . S
C1205 C1206 1.523 . S
C1206 C1190 1.368 1_565 S
C1206 C1202 1.368 . S
C1206 C1205 1.523 . S
H1207 C1182 0.950 . S
H1208 C1184 0.950 . S
H1209 C1185 0.957 . S
H1210 C1187 0.950 . S
H1211 C1189 0.950 . S
C1212 C1213 1.349 . S
C1212 C1214 1.327 . S
C1212 H1237 0.950 . S
C1213 C1212 1.349 . S
C1213 C1229 1.349 . S
C1214 C1212 1.327 . S
C1214 C1233 1.429 . S
C1214 H1238 0.950 . S
C1215 C1232 1.574 . S
C1215 C1234 1.368 . S
C1215 H1239 0.949 . S
H1216 C1220 0.960 . S
C1217 C1218 1.349 . S
C1217 C1219 1.327 . S
C1217 H1240 0.950 . S
C1218 C1217 1.349 . S
C1218 C1230 1.349 . S
C1219 C1217 1.327 . S
C1219 C1235 1.429 . S
C1219 H1241 0.950 . S
C1220 H1216 0.960 . S
C1220 C1228 1.561 1_655 S
C1220 C1236 1.369 . S
H1221 C1229 0.950 . S
H1222 C1227 0.950 . S
H1223 C1228 0.949 . S
H1224 C1230 0.950 . S
H1225 C1231 0.950 . S
H1226 C1232 0.949 1_655 S
C1227 H1222 0.950 . S
C1227 C1229 1.327 . S
C1227 C1233 1.429 . S
C1228 C1220 1.561 1_455 S
C1228 H1223 0.949 . S
C1228 C1234 1.368 . S
C1229 C1213 1.349 . S
C1229 H1221 0.950 . S
C1229 C1227 1.327 . S
C1230 C1218 1.349 . S
C1230 H1224 0.950 . S
C1230 C1231 1.327 . S
C1231 H1225 0.950 . S
C1231 C1230 1.327 . S
C1231 C1235 1.429 . S
C1232 C1215 1.574 . S
C1232 H1226 0.949 1_455 S
C1232 C1236 1.368 1_455 S
C1233 C1214 1.429 . S
C1233 C1227 1.429 . S
C1233 C1234 1.523 . S
C1234 C1215 1.368 . S
C1234 C1228 1.368 . S
C1234 C1233 1.523 . S
C1235 C1219 1.429 . S
C1235 C1231 1.429 . S
C1235 C1236 1.523 . S
C1236 C1220 1.369 . S
C1236 C1232 1.368 1_655 S
C1236 C1235 1.523 . S
H1237 C1212 0.950 . S
H1238 C1214 0.950 . S
H1239 C1215 0.949 . S
H1240 C1217 0.950 . S
H1241 C1219 0.950 . S
C1242 C1243 1.349 . S
C1242 C1244 1.327 . S
C1242 H1267 0.950 . S
C1243 C1242 1.349 . S
C1243 C1259 1.349 . S
C1244 C1242 1.327 . S
C1244 C1263 1.429 . S
C1244 H1268 0.950 . S
C1245 C1262 1.574 . S
C1245 C1264 1.368 . S
C1245 H1269 0.949 . S
H1246 C1250 0.949 . S
C1247 C1248 1.349 . S
C1247 C1249 1.327 . S
C1247 H1270 0.950 . S
C1248 C1247 1.349 . S
C1248 C1260 1.349 . S
C1249 C1247 1.327 . S
C1249 C1265 1.429 . S
C1249 H1271 0.950 . S
C1250 H1246 0.949 . S
C1250 C1258 1.574 . S
C1250 C1266 1.368 . S
H1251 C1259 0.950 . S
H1252 C1257 0.950 . S
H1253 C1258 0.949 . S
H1254 C1260 0.950 . S
H1255 C1261 0.950 . S
H1256 C1262 0.949 . S
C1257 H1252 0.950 . S
C1257 C1259 1.327 . S
C1257 C1263 1.429 . S
C1258 C1250 1.574 . S
C1258 H1253 0.949 . S
C1258 C1264 1.368 1_554 S
C1259 C1243 1.349 . S
C1259 H1251 0.950 . S
C1259 C1257 1.327 . S
C1260 C1248 1.349 . S
C1260 H1254 0.950 . S
C1260 C1261 1.327 . S
C1261 H1255 0.950 . S
C1261 C1260 1.327 . S
C1261 C1265 1.429 . S
C1262 C1245 1.574 . S
C1262 H1256 0.949 . S
C1262 C1266 1.368 1_556 S
C1263 C1244 1.429 . S
C1263 C1257 1.429 . S
C1263 C1264 1.523 . S
C1264 C1245 1.368 . S
C1264 C1258 1.368 1_556 S
C1264 C1263 1.523 . S
C1265 C1249 1.429 . S
C1265 C1261 1.429 . S
C1265 C1266 1.523 . S
C1266 C1250 1.368 . S
C1266 C1262 1.368 1_554 S
C1266 C1265 1.523 . S
H1267 C1242 0.950 . S
H1268 C1244 0.950 . S
H1269 C1245 0.949 . S
H1270 C1247 0.950 . S
H1271 C1249 0.950 . S
C1272 C1273 1.349 . S
C1272 C1274 1.327 . S
C1272 H1297 0.950 . S
C1273 C1272 1.349 . S
C1273 C1289 1.349 . S
C1274 C1272 1.327 . S
C1274 C1293 1.429 . S
C1274 H1298 0.950 1_565 S
C1275 C1292 1.574 . S
C1275 C1294 1.368 1_554 S
C1275 H1299 0.949 . S
H1276 C1280 0.949 . S
C1277 C1278 1.349 . S
C1277 C1279 1.327 . S
C1277 H1300 0.950 . S
C1278 C1277 1.349 . S
C1278 C1290 1.349 . S
C1279 C1277 1.327 . S
C1279 C1295 1.429 . S
C1279 H1301 0.950 1_545 S
C1280 H1276 0.949 . S
C1280 C1288 1.574 . S
C1280 C1296 1.368 1_556 S
H1281 C1289 0.950 . S
H1282 C1287 0.950 . S
H1283 C1288 0.949 . S
H1284 C1290 0.950 . S
H1285 C1291 0.950 . S
H1286 C1292 0.949 . S
C1287 H1282 0.950 . S
C1287 C1289 1.327 . S
C1287 C1293 1.429 . S
C1288 C1280 1.574 . S
C1288 H1283 0.949 . S
C1288 C1294 1.368 1_545 S
C1289 C1273 1.349 . S
C1289 H1281 0.950 . S
C1289 C1287 1.327 . S
C1290 C1278 1.349 . S
C1290 H1284 0.950 . S
C1290 C1291 1.327 . S
C1291 H1285 0.950 . S
C1291 C1290 1.327 . S
C1291 C1295 1.429 . S
C1292 C1275 1.574 . S
C1292 H1286 0.949 . S
C1292 C1296 1.368 1_565 S
C1293 C1274 1.429 . S
C1293 C1287 1.429 . S
C1293 C1294 1.523 . S
C1294 C1275 1.368 1_556 S
C1294 C1288 1.368 1_565 S
C1294 C1293 1.523 . S
C1295 C1279 1.429 . S
C1295 C1291 1.429 . S
C1295 C1296 1.523 . S
C1296 C1280 1.368 1_554 S
C1296 C1292 1.368 1_545 S
C1296 C1295 1.523 . S
H1297 C1272 0.950 . S
H1298 C1274 0.950 1_545 S
H1299 C1275 0.949 . S
H1300 C1277 0.950 . S
H1301 C1279 0.950 1_565 S
C1302 C1303 1.349 . S
C1302 C1304 1.327 . S
C1302 H1327 0.950 . S
C1303 C1302 1.349 . S
C1303 C1319 1.349 . S
C1304 C1302 1.327 . S
C1304 C1323 1.429 . S
C1304 H1328 0.950 . S
C1305 C1322 1.574 . S
C1305 C1324 1.368 . S
C1305 H1329 0.949 . S
H1306 C1310 0.949 . S
C1307 C1308 1.349 . S
C1307 C1309 1.327 . S
C1307 H1330 0.950 . S
C1308 C1307 1.349 . S
C1308 C1320 1.349 . S
C1309 C1307 1.327 . S
C1309 C1325 1.429 . S
C1309 H1331 0.975 . S
C1310 H1306 0.949 . S
C1310 C1318 1.574 1_655 S
C1310 C1326 1.368 . S
H1311 C1319 0.950 . S
H1312 C1317 0.950 . S
H1313 C1318 0.918 1_655 S
H1314 C1320 0.950 . S
H1315 C1321 0.950 . S
H1316 C1322 0.949 . S
C1317 H1312 0.950 . S
C1317 C1319 1.327 . S
C1317 C1323 1.429 . S
C1318 C1310 1.574 1_455 S
C1318 H1313 0.918 1_455 S
C1318 C1324 1.368 1_554 S
C1319 C1303 1.349 . S
C1319 H1311 0.950 . S
C1319 C1317 1.327 . S
C1320 C1308 1.349 . S
C1320 H1314 0.950 . S
C1320 C1321 1.327 . S
C1321 H1315 0.950 . S
C1321 C1320 1.327 . S
C1321 C1325 1.429 . S
C1322 C1305 1.574 . S
C1322 H1316 0.949 . S
C1322 C1326 1.368 1_456 S
C1323 C1304 1.429 . S
C1323 C1317 1.429 . S
C1323 C1324 1.523 . S
C1324 C1305 1.368 . S
C1324 C1318 1.368 1_556 S
C1324 C1323 1.523 . S
C1325 C1309 1.429 . S
C1325 C1321 1.429 . S
C1325 C1326 1.523 . S
C1326 C1310 1.368 . S
C1326 C1322 1.368 1_654 S
C1326 C1325 1.523 . S
H1327 C1302 0.950 . S
H1328 C1304 0.950 . S
H1329 C1305 0.949 . S
H1330 C1307 0.950 . S
H1331 C1309 0.975 . S
C253 C13 1.908 . S
C258 C208 1.905 . S
C283 C180 1.905 . S
C288 C27 1.907 . S
C313 C40 1.904 . S
C318 C183 1.907 . S
C343 C97 1.908 . S
C348 C41 1.908 . S
C373 C99 1.907 . S
C378 C12 1.904 . S
C403 C125 1.908 . S
C408 C26 1.905 . S
C433 C42 1.908 . S
C438 C167 1.905 . S
C463 C127 1.905 . S
C468 C56 1.908 . S
C493 C141 1.905 . S
C498 C82 1.908 . S
C523 C83 1.905 . S
C528 C210 1.908 . S
C553 C43 1.905 . S
C558 C237 1.905 . S
C583 C250 1.908 . S
C588 C57 1.905 . S
C613 C181 1.908 . S
C618 C124 1.905 . S
C643 C96 1.904 . S
C648 C182 1.904 . S
C673 C209 1.907 . S
C678 C98 1.904 . S
C703 C251 1.905 . S
C708 C126 1.908 . S
C733 C140 1.908 . S
C738 C211 1.905 . S
C763 C236 1.908 . S
C768 C166 1.908 . S
C793 C222 1.575 . S
C798 C1 1.575 . S
C823 C15 1.575 . S
C828 C225 1.575 . S
C853 C28 1.575 . S
C858 C238 1.575 . S
C883 C29 1.575 . S
C888 C155 1.574 . S
C913 C139 1.575 . S
C918 C0 1.575 . S
C943 C14 1.575 . S
C948 C153 1.575 . S
C973 C85 1.575 . S
C978 C54 1.575 . S
C1003 C111 1.575 . S
C1008 C68 1.575 . S
C1033 C70 1.575 . S
C1038 C113 1.575 . S
C1063 C71 1.574 . S
C1068 C196 1.574 . S
C1093 C55 1.575 . S
C1098 C168 1.575 . S
C1123 C69 1.575 . S
C1128 C195 1.575 . S
C1153 C112 1.575 . S
C1158 C239 1.575 . S
C1183 C84 1.575 . S
C1188 C223 1.575 . S
C1213 C224 1.575 . S
C1218 C110 1.575 . S
C1243 C169 1.575 . S
C1248 C138 1.575 . S
C1273 C194 1.575 . S
C1278 C152 1.575 . S
C1303 C197 1.575 . S
C1308 C154 1.575 . S
