# Generated by pormake.
# Topology uli, (4)-cn, num edge types: 1
# Building blocks:
#     Node 0, Type 0, BuildingBlock: CEKHIL_clean_sbu_0, # of connection points: 4
#     Node 1, Type 0, BuildingBlock: CEKHIL_clean_sbu_0, # of connection points: 4
#     Node 2, Type 0, BuildingBlock: CEKHIL_clean_sbu_0, # of connection points: 4
#     Node 3, Type 0, BuildingBlock: CEKHIL_clean_sbu_0, # of connection points: 4
#     Node 4, Type 0, BuildingBlock: CEKHIL_clean_sbu_0, # of connection points: 4
#     Node 5, Type 0, BuildingBlock: CEKHIL_clean_sbu_0, # of connection points: 4
#     Node 6, Type 0, BuildingBlock: CEKHIL_clean_sbu_0, # of connection points: 4
#     Node 7, Type 0, BuildingBlock: CEKHIL_clean_sbu_0, # of connection points: 4
#     Node 8, Type 0, BuildingBlock: CEKHIL_clean_sbu_0, # of connection points: 4
#     Node 9, Type 0, BuildingBlock: CEKHIL_clean_sbu_0, # of connection points: 4
#     Node 10, Type 0, BuildingBlock: CEKHIL_clean_sbu_0, # of connection points: 4
#     Node 11, Type 0, BuildingBlock: CEKHIL_clean_sbu_0, # of connection points: 4
#     Node 12, Type 0, BuildingBlock: CEKHIL_clean_sbu_0, # of connection points: 4
#     Node 13, Type 0, BuildingBlock: CEKHIL_clean_sbu_0, # of connection points: 4
#     Node 14, Type 0, BuildingBlock: CEKHIL_clean_sbu_0, # of connection points: 4
#     Node 15, Type 0, BuildingBlock: CEKHIL_clean_sbu_0, # of connection points: 4
#     Node 16, Type 0, BuildingBlock: CEKHIL_clean_sbu_0, # of connection points: 4
#     Node 17, Type 0, BuildingBlock: CEKHIL_clean_sbu_0, # of connection points: 4
#     Node 18, Type 0, BuildingBlock: CEKHIL_clean_sbu_0, # of connection points: 4
#     Node 19, Type 0, BuildingBlock: CEKHIL_clean_sbu_0, # of connection points: 4
#     Node 20, Type 0, BuildingBlock: CEKHIL_clean_sbu_0, # of connection points: 4
#     Node 21, Type 0, BuildingBlock: CEKHIL_clean_sbu_0, # of connection points: 4
#     Node 22, Type 0, BuildingBlock: CEKHIL_clean_sbu_0, # of connection points: 4
#     Node 23, Type 0, BuildingBlock: CEKHIL_clean_sbu_0, # of connection points: 4
#     Node 24, Type 0, BuildingBlock: CEKHIL_clean_sbu_0, # of connection points: 4
#     Node 25, Type 0, BuildingBlock: CEKHIL_clean_sbu_0, # of connection points: 4
#     Node 26, Type 0, BuildingBlock: CEKHIL_clean_sbu_0, # of connection points: 4
#     Node 27, Type 0, BuildingBlock: CEKHIL_clean_sbu_0, # of connection points: 4
#     Node 28, Type 0, BuildingBlock: CEKHIL_clean_sbu_0, # of connection points: 4
#     Node 29, Type 0, BuildingBlock: CEKHIL_clean_sbu_0, # of connection points: 4
#     Node 30, Type 0, BuildingBlock: CEKHIL_clean_sbu_0, # of connection points: 4
#     Node 31, Type 0, BuildingBlock: CEKHIL_clean_sbu_0, # of connection points: 4
#     Node 32, Type 0, BuildingBlock: CEKHIL_clean_sbu_0, # of connection points: 4
#     Node 33, Type 0, BuildingBlock: CEKHIL_clean_sbu_0, # of connection points: 4
#     Node 34, Type 0, BuildingBlock: CEKHIL_clean_sbu_0, # of connection points: 4
#     Node 35, Type 0, BuildingBlock: CEKHIL_clean_sbu_0, # of connection points: 4
#     Node 36, Type 0, BuildingBlock: CEKHIL_clean_sbu_0, # of connection points: 4
#     Node 37, Type 0, BuildingBlock: CEKHIL_clean_sbu_0, # of connection points: 4
#     Node 38, Type 0, BuildingBlock: CEKHIL_clean_sbu_0, # of connection points: 4
#     Node 39, Type 0, BuildingBlock: CEKHIL_clean_sbu_0, # of connection points: 4
#     Node 40, Type 0, BuildingBlock: CEKHIL_clean_sbu_0, # of connection points: 4
#     Node 41, Type 0, BuildingBlock: CEKHIL_clean_sbu_0, # of connection points: 4
#     Node 42, Type 0, BuildingBlock: CEKHIL_clean_sbu_0, # of connection points: 4
#     Node 43, Type 0, BuildingBlock: CEKHIL_clean_sbu_0, # of connection points: 4
#     Node 44, Type 0, BuildingBlock: CEKHIL_clean_sbu_0, # of connection points: 4
#     Node 45, Type 0, BuildingBlock: CEKHIL_clean_sbu_0, # of connection points: 4
#     Node 46, Type 0, BuildingBlock: CEKHIL_clean_sbu_0, # of connection points: 4
#     Node 47, Type 0, BuildingBlock: CEKHIL_clean_sbu_0, # of connection points: 4
#     Edge 48, Type (0, 0), BuildingBlock: AJUNOK_clean_linker_0, # of connection points: 2
#     Edge 49, Type (0, 0), BuildingBlock: AJUNOK_clean_linker_0, # of connection points: 2
#     Edge 50, Type (0, 0), BuildingBlock: AJUNOK_clean_linker_0, # of connection points: 2
#     Edge 51, Type (0, 0), BuildingBlock: AJUNOK_clean_linker_0, # of connection points: 2
#     Edge 52, Type (0, 0), BuildingBlock: AJUNOK_clean_linker_0, # of connection points: 2
#     Edge 53, Type (0, 0), BuildingBlock: AJUNOK_clean_linker_0, # of connection points: 2
#     Edge 54, Type (0, 0), BuildingBlock: AJUNOK_clean_linker_0, # of connection points: 2
#     Edge 55, Type (0, 0), BuildingBlock: AJUNOK_clean_linker_0, # of connection points: 2
#     Edge 56, Type (0, 0), BuildingBlock: AJUNOK_clean_linker_0, # of connection points: 2
#     Edge 57, Type (0, 0), BuildingBlock: AJUNOK_clean_linker_0, # of connection points: 2
#     Edge 58, Type (0, 0), BuildingBlock: AJUNOK_clean_linker_0, # of connection points: 2
#     Edge 59, Type (0, 0), BuildingBlock: AJUNOK_clean_linker_0, # of connection points: 2
#     Edge 60, Type (0, 0), BuildingBlock: AJUNOK_clean_linker_0, # of connection points: 2
#     Edge 61, Type (0, 0), BuildingBlock: AJUNOK_clean_linker_0, # of connection points: 2
#     Edge 62, Type (0, 0), BuildingBlock: AJUNOK_clean_linker_0, # of connection points: 2
#     Edge 63, Type (0, 0), BuildingBlock: AJUNOK_clean_linker_0, # of connection points: 2
#     Edge 64, Type (0, 0), BuildingBlock: AJUNOK_clean_linker_0, # of connection points: 2
#     Edge 65, Type (0, 0), BuildingBlock: AJUNOK_clean_linker_0, # of connection points: 2
#     Edge 66, Type (0, 0), BuildingBlock: AJUNOK_clean_linker_0, # of connection points: 2
#     Edge 67, Type (0, 0), BuildingBlock: AJUNOK_clean_linker_0, # of connection points: 2
#     Edge 68, Type (0, 0), BuildingBlock: AJUNOK_clean_linker_0, # of connection points: 2
#     Edge 69, Type (0, 0), BuildingBlock: AJUNOK_clean_linker_0, # of connection points: 2
#     Edge 70, Type (0, 0), BuildingBlock: AJUNOK_clean_linker_0, # of connection points: 2
#     Edge 71, Type (0, 0), BuildingBlock: AJUNOK_clean_linker_0, # of connection points: 2
#     Edge 72, Type (0, 0), BuildingBlock: AJUNOK_clean_linker_0, # of connection points: 2
#     Edge 73, Type (0, 0), BuildingBlock: AJUNOK_clean_linker_0, # of connection points: 2
#     Edge 74, Type (0, 0), BuildingBlock: AJUNOK_clean_linker_0, # of connection points: 2
#     Edge 75, Type (0, 0), BuildingBlock: AJUNOK_clean_linker_0, # of connection points: 2
#     Edge 76, Type (0, 0), BuildingBlock: AJUNOK_clean_linker_0, # of connection points: 2
#     Edge 77, Type (0, 0), BuildingBlock: AJUNOK_clean_linker_0, # of connection points: 2
#     Edge 78, Type (0, 0), BuildingBlock: AJUNOK_clean_linker_0, # of connection points: 2
#     Edge 79, Type (0, 0), BuildingBlock: AJUNOK_clean_linker_0, # of connection points: 2
#     Edge 80, Type (0, 0), BuildingBlock: AJUNOK_clean_linker_0, # of connection points: 2
#     Edge 81, Type (0, 0), BuildingBlock: AJUNOK_clean_linker_0, # of connection points: 2
#     Edge 82, Type (0, 0), BuildingBlock: AJUNOK_clean_linker_0, # of connection points: 2
#     Edge 83, Type (0, 0), BuildingBlock: AJUNOK_clean_linker_0, # of connection points: 2
#     Edge 84, Type (0, 0), BuildingBlock: AJUNOK_clean_linker_0, # of connection points: 2
#     Edge 85, Type (0, 0), BuildingBlock: AJUNOK_clean_linker_0, # of connection points: 2
#     Edge 86, Type (0, 0), BuildingBlock: AJUNOK_clean_linker_0, # of connection points: 2
#     Edge 87, Type (0, 0), BuildingBlock: AJUNOK_clean_linker_0, # of connection points: 2
#     Edge 88, Type (0, 0), BuildingBlock: AJUNOK_clean_linker_0, # of connection points: 2
#     Edge 89, Type (0, 0), BuildingBlock: AJUNOK_clean_linker_0, # of connection points: 2
#     Edge 90, Type (0, 0), BuildingBlock: AJUNOK_clean_linker_0, # of connection points: 2
#     Edge 91, Type (0, 0), BuildingBlock: AJUNOK_clean_linker_0, # of connection points: 2
#     Edge 92, Type (0, 0), BuildingBlock: AJUNOK_clean_linker_0, # of connection points: 2
#     Edge 93, Type (0, 0), BuildingBlock: AJUNOK_clean_linker_0, # of connection points: 2
#     Edge 94, Type (0, 0), BuildingBlock: AJUNOK_clean_linker_0, # of connection points: 2
#     Edge 95, Type (0, 0), BuildingBlock: AJUNOK_clean_linker_0, # of connection points: 2
#     Edge 96, Type (0, 0), BuildingBlock: AJUNOK_clean_linker_0, # of connection points: 2
#     Edge 97, Type (0, 0), BuildingBlock: AJUNOK_clean_linker_0, # of connection points: 2
#     Edge 98, Type (0, 0), BuildingBlock: AJUNOK_clean_linker_0, # of connection points: 2
#     Edge 99, Type (0, 0), BuildingBlock: AJUNOK_clean_linker_0, # of connection points: 2
#     Edge 100, Type (0, 0), BuildingBlock: AJUNOK_clean_linker_0, # of connection points: 2
#     Edge 101, Type (0, 0), BuildingBlock: AJUNOK_clean_linker_0, # of connection points: 2
#     Edge 102, Type (0, 0), BuildingBlock: AJUNOK_clean_linker_0, # of connection points: 2
#     Edge 103, Type (0, 0), BuildingBlock: AJUNOK_clean_linker_0, # of connection points: 2
#     Edge 104, Type (0, 0), BuildingBlock: AJUNOK_clean_linker_0, # of connection points: 2
#     Edge 105, Type (0, 0), BuildingBlock: AJUNOK_clean_linker_0, # of connection points: 2
#     Edge 106, Type (0, 0), BuildingBlock: AJUNOK_clean_linker_0, # of connection points: 2
#     Edge 107, Type (0, 0), BuildingBlock: AJUNOK_clean_linker_0, # of connection points: 2
#     Edge 108, Type (0, 0), BuildingBlock: AJUNOK_clean_linker_0, # of connection points: 2
#     Edge 109, Type (0, 0), BuildingBlock: AJUNOK_clean_linker_0, # of connection points: 2
#     Edge 110, Type (0, 0), BuildingBlock: AJUNOK_clean_linker_0, # of connection points: 2
#     Edge 111, Type (0, 0), BuildingBlock: AJUNOK_clean_linker_0, # of connection points: 2
#     Edge 112, Type (0, 0), BuildingBlock: AJUNOK_clean_linker_0, # of connection points: 2
#     Edge 113, Type (0, 0), BuildingBlock: AJUNOK_clean_linker_0, # of connection points: 2
#     Edge 114, Type (0, 0), BuildingBlock: AJUNOK_clean_linker_0, # of connection points: 2
#     Edge 115, Type (0, 0), BuildingBlock: AJUNOK_clean_linker_0, # of connection points: 2
#     Edge 116, Type (0, 0), BuildingBlock: AJUNOK_clean_linker_0, # of connection points: 2
#     Edge 117, Type (0, 0), BuildingBlock: AJUNOK_clean_linker_0, # of connection points: 2
#     Edge 118, Type (0, 0), BuildingBlock: AJUNOK_clean_linker_0, # of connection points: 2
#     Edge 119, Type (0, 0), BuildingBlock: AJUNOK_clean_linker_0, # of connection points: 2
#     Edge 120, Type (0, 0), BuildingBlock: AJUNOK_clean_linker_0, # of connection points: 2
#     Edge 121, Type (0, 0), BuildingBlock: AJUNOK_clean_linker_0, # of connection points: 2
#     Edge 122, Type (0, 0), BuildingBlock: AJUNOK_clean_linker_0, # of connection points: 2
#     Edge 123, Type (0, 0), BuildingBlock: AJUNOK_clean_linker_0, # of connection points: 2
#     Edge 124, Type (0, 0), BuildingBlock: AJUNOK_clean_linker_0, # of connection points: 2
#     Edge 125, Type (0, 0), BuildingBlock: AJUNOK_clean_linker_0, # of connection points: 2
#     Edge 126, Type (0, 0), BuildingBlock: AJUNOK_clean_linker_0, # of connection points: 2
#     Edge 127, Type (0, 0), BuildingBlock: AJUNOK_clean_linker_0, # of connection points: 2
#     Edge 128, Type (0, 0), BuildingBlock: AJUNOK_clean_linker_0, # of connection points: 2
#     Edge 129, Type (0, 0), BuildingBlock: AJUNOK_clean_linker_0, # of connection points: 2
#     Edge 130, Type (0, 0), BuildingBlock: AJUNOK_clean_linker_0, # of connection points: 2
#     Edge 131, Type (0, 0), BuildingBlock: AJUNOK_clean_linker_0, # of connection points: 2
#     Edge 132, Type (0, 0), BuildingBlock: AJUNOK_clean_linker_0, # of connection points: 2
#     Edge 133, Type (0, 0), BuildingBlock: AJUNOK_clean_linker_0, # of connection points: 2
#     Edge 134, Type (0, 0), BuildingBlock: AJUNOK_clean_linker_0, # of connection points: 2
#     Edge 135, Type (0, 0), BuildingBlock: AJUNOK_clean_linker_0, # of connection points: 2
#     Edge 136, Type (0, 0), BuildingBlock: AJUNOK_clean_linker_0, # of connection points: 2
#     Edge 137, Type (0, 0), BuildingBlock: AJUNOK_clean_linker_0, # of connection points: 2
#     Edge 138, Type (0, 0), BuildingBlock: AJUNOK_clean_linker_0, # of connection points: 2
#     Edge 139, Type (0, 0), BuildingBlock: AJUNOK_clean_linker_0, # of connection points: 2
#     Edge 140, Type (0, 0), BuildingBlock: AJUNOK_clean_linker_0, # of connection points: 2
#     Edge 141, Type (0, 0), BuildingBlock: AJUNOK_clean_linker_0, # of connection points: 2
#     Edge 142, Type (0, 0), BuildingBlock: AJUNOK_clean_linker_0, # of connection points: 2
#     Edge 143, Type (0, 0), BuildingBlock: AJUNOK_clean_linker_0, # of connection points: 2
# Relax obj value: 0.459
# Max RMSD: 0.156
# Mean RMSD: 0.156
data_MOF--net-uli--node1-CEKHIL_clean_sbu_0--edge1-AJUNOK_clean_linker_0
_symmetry_space_group_name_H-M    P1
_symmetry_Int_Tables_number       1
_symmetry_cell_setting            triclinic
loop_
_symmetry_equiv_pos_as_xyz
'x, y, z'
_cell_length_a     49.81655
_cell_length_b     49.550511
_cell_length_c     49.836316
_cell_angle_alpha  90.011096
_cell_angle_beta   90.100033
_cell_angle_gamma 90.052765
loop_
_atom_site_label
_atom_site_type_symbol
_atom_site_fract_x
_atom_site_fract_y
_atom_site_fract_z
_atom_type_partial_charge
Co0 Co 0.09434 0.25946 0.257 0.0
O1 O 0.06268 0.25834 0.27883 0.0
O2 O 0.06291 0.26192 0.23448 0.0
C3 C 0.11617 0.22398 0.27531 0.0
O4 O 0.12303 0.26021 0.22824 0.0
Co5 Co 0.14887 0.27234 0.2853 0.0
O6 O 0.16301 0.26738 0.24838 0.0
C7 C 0.11485 0.31702 0.2667 0.0
C8 C 0.04922 0.2592 0.25653 0.0
C9 C 0.14863 0.26357 0.22751 0.0
O10 O 0.09686 0.30024 0.25842 0.0
O11 O 0.135 0.30993 0.28101 0.0
O12 O 0.09685 0.22027 0.25826 0.0
O13 O 0.11838 0.24848 0.28404 0.0
Co14 Co 0.73235 0.09573 0.25035 0.0
O15 O 0.73644 0.06324 0.27082 0.0
O16 O 0.72807 0.065 0.22705 0.0
C17 C 0.76848 0.11817 0.26641 0.0
O18 O 0.72793 0.12556 0.22279 0.0
Co19 Co 0.7206 0.14916 0.28073 0.0
O20 O 0.72129 0.16507 0.24418 0.0
C21 C 0.6776 0.11111 0.27233 0.0
C22 C 0.7329 0.05056 0.24831 0.0
C23 C 0.72376 0.1512 0.22275 0.0
O24 O 0.69223 0.09711 0.25627 0.0
O25 O 0.68804 0.12704 0.28956 0.0
O26 O 0.77134 0.09977 0.24808 0.0
O27 O 0.74487 0.11921 0.27699 0.0
Co28 Co 0.90052 0.73454 0.22982 0.0
O29 O 0.93334 0.7448 0.24639 0.0
O30 O 0.92981 0.72646 0.20572 0.0
C31 C 0.87762 0.77238 0.2401 0.0
O32 O 0.86858 0.7226 0.20741 0.0
Co33 Co 0.84847 0.72941 0.26866 0.0
O34 O 0.83121 0.72156 0.23334 0.0
C35 C 0.88876 0.69096 0.26509 0.0
C36 C 0.94489 0.73643 0.22469 0.0
C37 C 0.84314 0.71893 0.2107 0.0
O38 O 0.903 0.69717 0.24487 0.0
O39 O 0.88199 0.7103 0.28035 0.0
O40 O 0.89358 0.77199 0.21951 0.0
O41 O 0.8783 0.75117 0.25512 0.0
Co42 Co 0.24355 0.89074 0.25376 0.0
O43 O 0.23793 0.9225 0.2751 0.0
O44 O 0.24128 0.92182 0.23076 0.0
C45 C 0.21239 0.86401 0.27286 0.0
O46 O 0.24869 0.86189 0.22524 0.0
Co47 Co 0.26499 0.8388 0.28171 0.0
O48 O 0.26261 0.82344 0.24493 0.0
C49 C 0.30304 0.88071 0.26526 0.0
C50 C 0.23739 0.93567 0.25258 0.0
C51 C 0.25631 0.83709 0.22415 0.0
O52 O 0.28383 0.89476 0.25516 0.0
O53 O 0.29905 0.86013 0.28024 0.0
O54 O 0.2055 0.88219 0.25545 0.0
O55 O 0.23696 0.86559 0.28116 0.0
Co56 Co 0.09014 0.73269 0.76161 0.0
O57 O 0.05764 0.73712 0.74223 0.0
O58 O 0.06041 0.72807 0.78598 0.0
C59 C 0.11058 0.76951 0.74522 0.0
O60 O 0.12119 0.72835 0.7876 0.0
Co61 Co 0.14158 0.72258 0.72757 0.0
O62 O 0.15926 0.72428 0.76329 0.0
C63 C 0.10357 0.67848 0.73613 0.0
C64 C 0.04578 0.7338 0.76505 0.0
C65 C 0.1468 0.72577 0.7856 0.0
O66 O 0.09114 0.69257 0.7539 0.0
O67 O 0.12076 0.6888 0.7201 0.0
O68 O 0.09378 0.77182 0.76493 0.0
O69 O 0.11154 0.74598 0.73419 0.0
Co70 Co 0.24043 0.09786 0.75514 0.0
O71 O 0.23507 0.0688 0.73081 0.0
O72 O 0.24128 0.06427 0.77484 0.0
C73 C 0.20692 0.12428 0.7406 0.0
O74 O 0.24618 0.12482 0.78539 0.0
Co75 Co 0.25738 0.15205 0.72811 0.0
O76 O 0.25633 0.1648 0.76587 0.0
C77 C 0.29672 0.10902 0.73403 0.0
C78 C 0.23717 0.05316 0.75147 0.0
C79 C 0.25221 0.15009 0.7865 0.0
O80 O 0.28063 0.09621 0.74966 0.0
O81 O 0.28897 0.1287 0.71938 0.0
O82 O 0.20179 0.10483 0.75727 0.0
O83 O 0.23074 0.12415 0.73057 0.0
Co84 Co 0.89244 0.25393 0.74708 0.0
O85 O 0.92287 0.2582 0.72392 0.0
O86 O 0.92462 0.2572 0.76846 0.0
C87 C 0.8728 0.21856 0.72615 0.0
O88 O 0.86502 0.24984 0.77692 0.0
Co89 Co 0.83602 0.264 0.72134 0.0
O90 O 0.82411 0.25737 0.75881 0.0
C91 C 0.8684 0.3101 0.73894 0.0
C92 C 0.9372 0.25878 0.74563 0.0
C93 C 0.83941 0.25258 0.77881 0.0
O94 O 0.88623 0.29426 0.74903 0.0
O95 O 0.84976 0.3019 0.72321 0.0
O96 O 0.89284 0.21467 0.74235 0.0
O97 O 0.86859 0.24346 0.71995 0.0
Co98 Co 0.72863 0.89507 0.74633 0.0
O99 O 0.73225 0.9244 0.72163 0.0
O100 O 0.72385 0.92901 0.76506 0.0
C101 C 0.76545 0.87211 0.73316 0.0
O102 O 0.72481 0.86856 0.7774 0.0
Co103 Co 0.71913 0.83791 0.72139 0.0
O104 O 0.72058 0.82675 0.75961 0.0
C105 C 0.6739 0.87556 0.72637 0.0
C106 C 0.72879 0.94027 0.74195 0.0
C107 C 0.72196 0.84279 0.77961 0.0
O108 O 0.68854 0.89223 0.73979 0.0
O109 O 0.68356 0.85509 0.7141 0.0
O110 O 0.76776 0.89234 0.74954 0.0
O111 O 0.74193 0.86915 0.72273 0.0
Co112 Co 0.2319 0.09652 0.25666 0.0
O113 O 0.25049 0.0635 0.25016 0.0
O114 O 0.20775 0.0665 0.26265 0.0
C115 C 0.24582 0.1186 0.2197 0.0
O116 O 0.20658 0.12779 0.26412 0.0
Co117 Co 0.26667 0.14795 0.26607 0.0
O118 O 0.23106 0.16595 0.26749 0.0
C119 C 0.2594 0.10965 0.30976 0.0
C120 C 0.22808 0.05153 0.25575 0.0
C121 C 0.2086 0.15349 0.26752 0.0
O122 O 0.24188 0.09654 0.29595 0.0
O123 O 0.27555 0.12654 0.29903 0.0
O124 O 0.22601 0.10162 0.21812 0.0
O125 O 0.25854 0.11853 0.24224 0.0
Co126 Co 0.88902 0.24254 0.25382 0.0
O127 O 0.91974 0.26453 0.24643 0.0
O128 O 0.92133 0.22201 0.26047 0.0
C129 C 0.86527 0.25256 0.21679 0.0
O130 O 0.86081 0.21403 0.26234 0.0
Co131 Co 0.83503 0.27242 0.26352 0.0
O132 O 0.82078 0.23502 0.26579 0.0
C133 C 0.87346 0.26767 0.30782 0.0
C134 C 0.93404 0.24385 0.25334 0.0
C135 C 0.83519 0.21373 0.26598 0.0
O136 O 0.88895 0.25362 0.29274 0.0
O137 O 0.8526 0.27984 0.29894 0.0
O138 O 0.88418 0.2346 0.21578 0.0
O139 O 0.86414 0.26642 0.23872 0.0
Co140 Co 0.74946 0.8896 0.24604 0.0
O141 O 0.72498 0.91936 0.24549 0.0
O142 O 0.76941 0.92301 0.24719 0.0
C143 C 0.73105 0.86494 0.21287 0.0
O144 O 0.78039 0.86289 0.24582 0.0
Co145 Co 0.72596 0.83342 0.26211 0.0
O146 O 0.76322 0.82148 0.25429 0.0
C147 C 0.73763 0.87301 0.30381 0.0
C148 C 0.74604 0.93472 0.24604 0.0
C149 C 0.78277 0.83721 0.24886 0.0
O150 O 0.74958 0.88813 0.28658 0.0
O151 O 0.72276 0.85307 0.29704 0.0
O152 O 0.74638 0.88536 0.20714 0.0
O153 O 0.72395 0.8634 0.23769 0.0
Co154 Co 0.10315 0.73377 0.24791 0.0
O155 O 0.07209 0.71283 0.23837 0.0
O156 O 0.07255 0.75693 0.24615 0.0
C157 C 0.13193 0.71824 0.21666 0.0
O158 O 0.13114 0.76192 0.25731 0.0
Co159 Co 0.15334 0.70433 0.27094 0.0
O160 O 0.1676 0.74162 0.27477 0.0
C161 C 0.10862 0.71262 0.30418 0.0
C162 C 0.0591 0.73556 0.23918 0.0
C163 C 0.1547 0.76276 0.26791 0.0
O164 O 0.09698 0.72851 0.28756 0.0
O165 O 0.12324 0.69356 0.29532 0.0
O166 O 0.11369 0.73582 0.21048 0.0
O167 O 0.12935 0.70747 0.24028 0.0
Co168 Co 0.22982 0.89425 0.73454 0.0
O169 O 0.25146 0.92593 0.73406 0.0
O170 O 0.20686 0.92539 0.73129 0.0
C171 C 0.24901 0.87442 0.77033 0.0
O172 O 0.20163 0.86487 0.73518 0.0
Co173 Co 0.25961 0.84008 0.72382 0.0
O174 O 0.2231 0.82512 0.72986 0.0
C175 C 0.24638 0.87502 0.6785 0.0
C176 C 0.2291 0.93916 0.73272 0.0
C177 C 0.20187 0.83903 0.73327 0.0
O178 O 0.23224 0.89021 0.69402 0.0
O179 O 0.26224 0.8568 0.68741 0.0
O180 O 0.23096 0.89293 0.77377 0.0
O181 O 0.25742 0.87166 0.74602 0.0
Co182 Co 0.09739 0.25716 0.73658 0.0
O183 O 0.06596 0.27968 0.73518 0.0
O184 O 0.06606 0.23494 0.7322 0.0
C185 C 0.11728 0.27517 0.77326 0.0
O186 O 0.12519 0.22744 0.7382 0.0
Co187 Co 0.15372 0.28323 0.72811 0.0
O188 O 0.16649 0.24592 0.73512 0.0
C189 C 0.12015 0.2713 0.6811 0.0
C190 C 0.05249 0.25728 0.73358 0.0
C191 C 0.15089 0.22568 0.7378 0.0
O192 O 0.10279 0.25934 0.69618 0.0
O193 O 0.13984 0.285 0.69047 0.0
O194 O 0.0974 0.25845 0.77572 0.0
O195 O 0.12124 0.28375 0.74908 0.0
Co196 Co 0.74449 0.10131 0.7304 0.0
O197 O 0.72026 0.07162 0.73528 0.0
O198 O 0.76311 0.06777 0.72386 0.0
C199 C 0.73427 0.12426 0.76799 0.0
O200 O 0.77522 0.12782 0.72496 0.0
Co201 Co 0.71914 0.15837 0.72249 0.0
O202 O 0.75744 0.16965 0.72182 0.0
C203 C 0.72138 0.12127 0.677 0.0
C204 C 0.74048 0.0561 0.72995 0.0
C205 C 0.77745 0.15357 0.72221 0.0
O206 O 0.73551 0.10456 0.69088 0.0
O207 O 0.709 0.14118 0.6876 0.0
O208 O 0.75035 0.1037 0.76912 0.0
O209 O 0.72191 0.12726 0.74541 0.0
Co210 Co 0.8887 0.74954 0.74324 0.0
O211 O 0.91872 0.72651 0.74862 0.0
O212 O 0.92068 0.77123 0.74661 0.0
C213 C 0.8618 0.73035 0.7739 0.0
O214 O 0.86037 0.77886 0.73857 0.0
Co215 Co 0.83791 0.72141 0.72018 0.0
O216 O 0.8227 0.75812 0.72387 0.0
C217 C 0.88213 0.73429 0.6845 0.0
C218 C 0.93292 0.7483 0.75047 0.0
C219 C 0.83559 0.77922 0.731 0.0
O220 O 0.89306 0.74858 0.70302 0.0
O221 O 0.86368 0.71716 0.68957 0.0
O222 O 0.88011 0.74745 0.78115 0.0
O223 O 0.86323 0.72252 0.74922 0.0
Co224 Co 0.24449 0.24831 0.10493 0.0
O225 O 0.24074 0.27137 0.07424 0.0
O226 O 0.24679 0.227 0.0728 0.0
C227 C 0.20993 0.26427 0.12911 0.0
O228 O 0.24769 0.21822 0.13238 0.0
Co229 Co 0.25873 0.27443 0.16001 0.0
O230 O 0.25477 0.23676 0.17319 0.0
C231 C 0.30115 0.26668 0.12024 0.0
C232 C 0.24283 0.24954 0.06001 0.0
C233 C 0.25113 0.21644 0.15789 0.0
O234 O 0.28496 0.2528 0.1055 0.0
O235 O 0.29328 0.28044 0.14046 0.0
O236 O 0.20562 0.24743 0.10962 0.0
O237 O 0.23399 0.27392 0.13026 0.0
Co238 Co 0.25952 0.75107 0.89182 0.0
O239 O 0.25803 0.72884 0.92311 0.0
O240 O 0.26504 0.77309 0.92335 0.0
C241 C 0.22223 0.73458 0.87233 0.0
O242 O 0.26075 0.78025 0.86313 0.0
Co243 Co 0.26699 0.7228 0.83642 0.0
O244 O 0.26314 0.76019 0.82248 0.0
C245 C 0.31354 0.73027 0.87162 0.0
C246 C 0.26091 0.7509 0.93676 0.0
C247 C 0.26175 0.78111 0.83734 0.0
O248 O 0.29956 0.74524 0.88748 0.0
O249 O 0.30291 0.71585 0.8531 0.0
O250 O 0.22036 0.75281 0.89092 0.0
O251 O 0.24596 0.72482 0.86873 0.0
Co252 Co 0.23513 0.25702 0.89972 0.0
O253 O 0.2562 0.2524 0.93127 0.0
O254 O 0.2129 0.26304 0.93106 0.0
C255 C 0.24911 0.2192 0.8788 0.0
O256 O 0.20777 0.26264 0.86977 0.0
Co257 Co 0.26746 0.26531 0.84693 0.0
O258 O 0.23094 0.2666 0.83104 0.0
C259 C 0.25842 0.31128 0.88227 0.0
C260 C 0.23448 0.25703 0.94464 0.0
C261 C 0.20895 0.26629 0.84416 0.0
O262 O 0.24344 0.29686 0.89764 0.0
O263 O 0.27415 0.30087 0.86488 0.0
O264 O 0.23026 0.21789 0.89667 0.0
O265 O 0.26095 0.24227 0.8771 0.0
Co266 Co 0.74176 0.24045 0.89644 0.0
O267 O 0.74188 0.26062 0.92909 0.0
O268 O 0.73409 0.21648 0.92602 0.0
C269 C 0.78007 0.25612 0.87805 0.0
O270 O 0.7405 0.21404 0.86525 0.0
Co271 Co 0.73741 0.27515 0.84294 0.0
O272 O 0.73893 0.23837 0.82669 0.0
C273 C 0.69292 0.26669 0.87623 0.0
C274 C 0.73662 0.23795 0.9409 0.0
C275 C 0.73943 0.216 0.83945 0.0
O276 O 0.70222 0.24743 0.8906 0.0
O277 O 0.70887 0.2856 0.86958 0.0
O278 O 0.78108 0.23756 0.89643 0.0
O279 O 0.757 0.26754 0.87547 0.0
Co280 Co 0.74096 0.73947 0.89405 0.0
O281 O 0.72256 0.74275 0.92733 0.0
O282 O 0.76606 0.73305 0.92266 0.0
C283 C 0.72504 0.77726 0.87455 0.0
O284 O 0.7662 0.73511 0.86274 0.0
Co285 Co 0.70729 0.73137 0.84247 0.0
O286 O 0.74273 0.73211 0.82429 0.0
C287 C 0.71906 0.68459 0.87647 0.0
C288 C 0.74562 0.73759 0.93822 0.0
C289 C 0.7649 0.73247 0.83713 0.0
O290 O 0.7335 0.69945 0.89196 0.0
O291 O 0.70367 0.69443 0.85843 0.0
O292 O 0.7448 0.77867 0.89148 0.0
O293 O 0.71335 0.75401 0.87322 0.0
Co294 Co 0.73765 0.73587 0.09775 0.0
O295 O 0.73984 0.71466 0.06585 0.0
O296 O 0.7378 0.75942 0.06724 0.0
C297 C 0.77081 0.71526 0.12067 0.0
O298 O 0.73591 0.7642 0.12708 0.0
Co299 Co 0.72041 0.70746 0.15056 0.0
O300 O 0.72528 0.74402 0.16615 0.0
C301 C 0.67929 0.7231 0.1111 0.0
C302 C 0.74004 0.73748 0.05308 0.0
C303 C 0.73088 0.76499 0.15238 0.0
O304 O 0.69718 0.73518 0.09699 0.0
O305 O 0.68525 0.70787 0.1309 0.0
O306 O 0.77623 0.73322 0.10257 0.0
O307 O 0.74597 0.70769 0.12159 0.0
Co308 Co 0.2521 0.74425 0.09695 0.0
O309 O 0.27196 0.75361 0.06554 0.0
O310 O 0.22921 0.7409 0.06575 0.0
C311 C 0.2645 0.77935 0.12302 0.0
O312 O 0.22597 0.73387 0.12671 0.0
Co313 Co 0.28656 0.72961 0.14709 0.0
O314 O 0.25071 0.72851 0.16426 0.0
C315 C 0.27543 0.68786 0.10656 0.0
C316 C 0.25023 0.74857 0.05218 0.0
C317 C 0.2282 0.7289 0.15209 0.0
O318 O 0.26146 0.70482 0.09301 0.0
O319 O 0.28908 0.69459 0.12722 0.0
O320 O 0.2459 0.78221 0.10501 0.0
O321 O 0.27791 0.75709 0.12123 0.0
Co322 Co 0.73709 0.24791 0.10088 0.0
O323 O 0.71451 0.24585 0.06967 0.0
O324 O 0.75907 0.24857 0.06922 0.0
C325 C 0.71886 0.21391 0.12472 0.0
O326 O 0.7667 0.24972 0.1289 0.0
Co327 Co 0.71159 0.2631 0.15592 0.0
O328 O 0.74772 0.25328 0.16984 0.0
C329 C 0.72388 0.30594 0.11689 0.0
C330 C 0.73667 0.24616 0.05601 0.0
C331 C 0.76808 0.25047 0.15465 0.0
O332 O 0.73515 0.28863 0.10129 0.0
O333 O 0.71056 0.29919 0.1378 0.0
O334 O 0.73552 0.20893 0.10538 0.0
O335 O 0.71058 0.23861 0.12591 0.0
Co336 Co 0.58795 0.75141 0.72798 0.0
O337 O 0.55541 0.74644 0.74714 0.0
O338 O 0.55811 0.75651 0.70368 0.0
C339 C 0.60917 0.71445 0.74358 0.0
O340 O 0.61904 0.75672 0.70243 0.0
Co341 Co 0.6391 0.76138 0.76279 0.0
O342 O 0.657 0.75728 0.72746 0.0
C343 C 0.60222 0.80623 0.75233 0.0
C344 C 0.5434 0.7507 0.7245 0.0
C345 C 0.64471 0.75745 0.70499 0.0
O346 O 0.58871 0.79153 0.73583 0.0
O347 O 0.6199 0.79644 0.76815 0.0
O348 O 0.59211 0.71225 0.724 0.0
O349 O 0.60951 0.73772 0.75519 0.0
Co350 Co 0.22934 0.59325 0.7333 0.0
O351 O 0.23434 0.56319 0.75674 0.0
O352 O 0.22597 0.56015 0.71305 0.0
C353 C 0.2649 0.61735 0.74778 0.0
O354 O 0.2243 0.62074 0.70326 0.0
Co355 Co 0.21667 0.64856 0.75999 0.0
O356 O 0.21718 0.6615 0.72233 0.0
C357 C 0.17461 0.60789 0.756 0.0
C358 C 0.23139 0.54817 0.73569 0.0
C359 C 0.21981 0.64631 0.70183 0.0
O360 O 0.18926 0.59384 0.74 0.0
O361 O 0.18418 0.62709 0.77023 0.0
O362 O 0.26825 0.59805 0.7305 0.0
O363 O 0.2412 0.61876 0.75802 0.0
Co364 Co 0.38888 0.22854 0.73424 0.0
O365 O 0.41898 0.23013 0.75812 0.0
O366 O 0.42153 0.22289 0.71415 0.0
C367 C 0.36781 0.26596 0.74888 0.0
O368 O 0.36139 0.22619 0.70398 0.0
Co369 Co 0.33283 0.2201 0.76062 0.0
O370 O 0.32034 0.22178 0.72276 0.0
C371 C 0.37015 0.17489 0.75685 0.0
C372 C 0.43365 0.2259 0.73714 0.0
C373 C 0.3357 0.22354 0.70236 0.0
O374 O 0.3849 0.1884 0.74049 0.0
O375 O 0.35177 0.18596 0.77092 0.0
O376 O 0.3873 0.26804 0.73175 0.0
O377 O 0.36447 0.24223 0.75893 0.0
Co378 Co 0.74107 0.39026 0.75162 0.0
O379 O 0.73328 0.42241 0.77133 0.0
O380 O 0.75293 0.42115 0.73137 0.0
C381 C 0.70103 0.36989 0.75582 0.0
O382 O 0.75089 0.36042 0.72549 0.0
Co383 Co 0.74168 0.33648 0.78358 0.0
O384 O 0.74557 0.32086 0.74715 0.0
C385 C 0.79101 0.36892 0.78077 0.0
C386 C 0.7434 0.43537 0.75116 0.0
C387 C 0.751 0.33444 0.72609 0.0
O388 O 0.7781 0.38724 0.76784 0.0
O389 O 0.77959 0.34808 0.79078 0.0
O390 O 0.70449 0.38879 0.73821 0.0
O391 O 0.72022 0.3673 0.77325 0.0
Co392 Co 0.60616 0.2484 0.24314 0.0
O393 O 0.57623 0.2502 0.21885 0.0
O394 O 0.57305 0.24921 0.26323 0.0
C395 C 0.63216 0.28091 0.22503 0.0
O396 O 0.63283 0.24727 0.27405 0.0
Co397 Co 0.66118 0.22992 0.21967 0.0
O398 O 0.67337 0.23582 0.2572 0.0
C399 C 0.62013 0.18947 0.2309 0.0
C400 C 0.56111 0.25074 0.24002 0.0
C401 C 0.65803 0.2422 0.27667 0.0
O402 O 0.60572 0.20746 0.24275 0.0
O403 O 0.64045 0.19548 0.21642 0.0
O404 O 0.6121 0.28731 0.24036 0.0
O405 O 0.63262 0.25595 0.21764 0.0
Co406 Co 0.74427 0.59945 0.24884 0.0
O407 O 0.74985 0.57004 0.22459 0.0
O408 O 0.75461 0.56796 0.26892 0.0
C409 C 0.70457 0.61379 0.23257 0.0
O410 O 0.73974 0.62543 0.27967 0.0
Co411 Co 0.74206 0.6577 0.22505 0.0
O412 O 0.73093 0.66648 0.26236 0.0
C413 C 0.79445 0.63254 0.23577 0.0
C414 C 0.75496 0.55577 0.24579 0.0
C415 C 0.73353 0.65041 0.28223 0.0
O416 O 0.78298 0.61155 0.24586 0.0
O417 O 0.78173 0.6516 0.22406 0.0
O418 O 0.70534 0.59349 0.24898 0.0
O419 O 0.72756 0.62178 0.22375 0.0
Co420 Co 0.39878 0.76642 0.23746 0.0
O421 O 0.43111 0.76858 0.21707 0.0
O422 O 0.42778 0.77663 0.2609 0.0
C423 C 0.38453 0.72608 0.22255 0.0
O424 O 0.36867 0.76558 0.26471 0.0
Co425 Co 0.34471 0.76642 0.20614 0.0
O426 O 0.32917 0.7629 0.24267 0.0
C427 C 0.37181 0.81806 0.21721 0.0
C428 C 0.4427 0.77467 0.23958 0.0
C429 C 0.34291 0.76413 0.26427 0.0
O430 O 0.3903 0.80554 0.23025 0.0
O431 O 0.35359 0.80582 0.20373 0.0
O432 O 0.40253 0.7275 0.24129 0.0
O433 O 0.37885 0.74866 0.21082 0.0
Co434 Co 0.24055 0.393 0.22448 0.0
O435 O 0.2439 0.42461 0.20247 0.0
O436 O 0.23704 0.42476 0.24646 0.0
C437 C 0.27655 0.37022 0.20902 0.0
O438 O 0.23739 0.36442 0.25344 0.0
Co439 Co 0.22851 0.33813 0.19642 0.0
O440 O 0.23307 0.32388 0.23337 0.0
C441 C 0.18364 0.37417 0.20964 0.0
C442 C 0.24145 0.43829 0.22453 0.0
C443 C 0.23512 0.33856 0.2543 0.0
O444 O 0.20014 0.39134 0.21995 0.0
O445 O 0.19134 0.35334 0.19656 0.0
O446 O 0.27943 0.38975 0.22609 0.0
O447 O 0.25281 0.36834 0.19857 0.0
Co448 Co 0.73681 0.59708 0.74815 0.0
O449 O 0.75985 0.56632 0.74796 0.0
O450 O 0.7156 0.56481 0.75299 0.0
C451 C 0.75444 0.61727 0.71185 0.0
O452 O 0.70715 0.62521 0.74825 0.0
Co453 Co 0.76377 0.65325 0.7572 0.0
O454 O 0.72649 0.66637 0.75147 0.0
C455 C 0.754 0.61782 0.80333 0.0
C456 C 0.73831 0.55196 0.75072 0.0
C457 C 0.70593 0.65113 0.74927 0.0
O458 O 0.74051 0.60147 0.78839 0.0
O459 O 0.76804 0.63725 0.79386 0.0
O460 O 0.7368 0.59821 0.70883 0.0
O461 O 0.76297 0.62082 0.73602 0.0
Co462 Co 0.38476 0.74233 0.74202 0.0
O463 O 0.41485 0.76523 0.73525 0.0
O464 O 0.4166 0.72062 0.7396 0.0
C465 C 0.35656 0.75954 0.71099 0.0
O466 O 0.3571 0.71282 0.74791 0.0
Co467 Co 0.33443 0.76967 0.76546 0.0
O468 O 0.31933 0.7327 0.76297 0.0
C469 C 0.37982 0.76156 0.79975 0.0
C470 C 0.42894 0.74326 0.73468 0.0
C471 C 0.33247 0.71189 0.75566 0.0
O472 O 0.3896 0.74515 0.78236 0.0
O473 O 0.3621 0.77883 0.79317 0.0
O474 O 0.37527 0.74276 0.70404 0.0
O475 O 0.35858 0.76857 0.73529 0.0
Co476 Co 0.24341 0.38743 0.74752 0.0
O477 O 0.22021 0.418 0.74425 0.0
O478 O 0.26425 0.42007 0.75099 0.0
C479 C 0.2279 0.36423 0.7119 0.0
O480 O 0.27337 0.35966 0.75051 0.0
Co481 Co 0.21669 0.33196 0.76007 0.0
O482 O 0.25416 0.31876 0.7565 0.0
C483 C 0.22443 0.37092 0.80351 0.0
C484 C 0.24164 0.43261 0.7469 0.0
C485 C 0.27468 0.33389 0.75355 0.0
O486 O 0.23847 0.38592 0.7878 0.0
O487 O 0.21066 0.3508 0.79509 0.0
O488 O 0.24477 0.3839 0.7086 0.0
O489 O 0.21811 0.36218 0.7358 0.0
Co490 Co 0.59227 0.23662 0.74552 0.0
O491 O 0.56267 0.21195 0.74929 0.0
O492 O 0.56053 0.25644 0.7545 0.0
C493 C 0.60826 0.22057 0.70639 0.0
O494 O 0.6174 0.26845 0.74253 0.0
Co495 Co 0.65186 0.21677 0.74325 0.0
O496 O 0.65825 0.25429 0.72972 0.0
C497 C 0.62404 0.22015 0.79421 0.0
C498 C 0.54812 0.23341 0.75282 0.0
C499 C 0.64147 0.27308 0.73473 0.0
O500 O 0.60387 0.2332 0.78441 0.0
O501 O 0.63841 0.20472 0.77951 0.0
O502 O 0.58772 0.23668 0.70642 0.0
O503 O 0.61594 0.21234 0.72967 0.0
Co504 Co 0.76187 0.39588 0.23001 0.0
O505 O 0.78308 0.42825 0.23049 0.0
O506 O 0.7385 0.42657 0.22802 0.0
C507 C 0.7812 0.37467 0.2651 0.0
O508 O 0.73351 0.36636 0.2295 0.0
Co509 Co 0.79019 0.34151 0.21696 0.0
O510 O 0.7535 0.32641 0.22146 0.0
C511 C 0.77407 0.37727 0.17287 0.0
C512 C 0.7603 0.44089 0.22986 0.0
C513 C 0.73262 0.34067 0.22572 0.0
O514 O 0.76321 0.39365 0.18964 0.0
O515 O 0.78923 0.3578 0.18021 0.0
O516 O 0.76369 0.39359 0.26885 0.0
O517 O 0.78952 0.37228 0.2406 0.0
Co518 Co 0.60065 0.75292 0.23647 0.0
O519 O 0.57395 0.78076 0.2364 0.0
O520 O 0.56578 0.73658 0.23499 0.0
C521 C 0.62543 0.76948 0.27067 0.0
O522 O 0.62287 0.71846 0.23671 0.0
Co523 Co 0.65974 0.7681 0.22329 0.0
O524 O 0.6662 0.72887 0.22862 0.0
C525 C 0.61983 0.76518 0.18 0.0
C526 C 0.55669 0.76115 0.23591 0.0
C527 C 0.64757 0.71185 0.2333 0.0
O528 O 0.60295 0.75392 0.196 0.0
O529 O 0.6416 0.7762 0.18824 0.0
O530 O 0.60402 0.75536 0.27546 0.0
O531 O 0.62923 0.77552 0.24577 0.0
Co532 Co 0.26487 0.59864 0.22479 0.0
O533 O 0.24027 0.56933 0.22842 0.0
O534 O 0.28359 0.56479 0.2192 0.0
C535 C 0.25189 0.621 0.26186 0.0
O536 O 0.29577 0.62545 0.22082 0.0
Co537 Co 0.23949 0.65506 0.21542 0.0
O538 O 0.27739 0.66711 0.21856 0.0
C539 C 0.24349 0.61763 0.17041 0.0
C540 C 0.26043 0.55353 0.22405 0.0
C541 C 0.29761 0.65136 0.21931 0.0
O542 O 0.25766 0.60156 0.18492 0.0
O543 O 0.23065 0.63766 0.18028 0.0
O544 O 0.26885 0.60124 0.26382 0.0
O545 O 0.24106 0.62411 0.23856 0.0
Co546 Co 0.40083 0.2515 0.23032 0.0
O547 O 0.43397 0.23209 0.2333 0.0
O548 O 0.43059 0.27609 0.22531 0.0
C549 C 0.3803 0.23514 0.26726 0.0
O550 O 0.36973 0.27767 0.2261 0.0
Co551 Co 0.34898 0.21745 0.22097 0.0
O552 O 0.3317 0.25355 0.2205 0.0
C553 C 0.38335 0.22987 0.17564 0.0
C554 C 0.44573 0.25507 0.22935 0.0
C555 C 0.34424 0.27598 0.22192 0.0
O556 O 0.39844 0.24498 0.19033 0.0
O557 O 0.36748 0.2123 0.1857 0.0
O558 O 0.39781 0.25443 0.2694 0.0
O559 O 0.37927 0.22384 0.24397 0.0
Co560 Co 0.75941 0.74878 0.59892 0.0
O561 O 0.75618 0.774 0.57019 0.0
O562 O 0.76627 0.73053 0.5657 0.0
C563 C 0.72141 0.76008 0.61982 0.0
O564 O 0.76293 0.71684 0.62426 0.0
Co565 Co 0.76615 0.7714 0.6566 0.0
O566 O 0.76423 0.73264 0.66672 0.0
C567 C 0.81273 0.77001 0.6207 0.0
C568 C 0.76087 0.75368 0.55453 0.0
C569 C 0.76403 0.71333 0.6498 0.0
O570 O 0.79886 0.75684 0.6033 0.0
O571 O 0.80227 0.78081 0.64155 0.0
O572 O 0.72077 0.74379 0.59949 0.0
O573 O 0.74422 0.77158 0.62464 0.0
Co574 Co 0.75826 0.26396 0.39512 0.0
O575 O 0.75027 0.24636 0.42807 0.0
O576 O 0.76437 0.28884 0.4245 0.0
C577 C 0.72114 0.25093 0.37286 0.0
O578 O 0.76761 0.28798 0.36349 0.0
Co579 Co 0.76723 0.22662 0.3455 0.0
O580 O 0.77059 0.2618 0.3266 0.0
C581 C 0.81184 0.23678 0.38266 0.0
C582 C 0.75636 0.26895 0.43958 0.0
C583 C 0.7716 0.28478 0.33813 0.0
O584 O 0.79708 0.25273 0.39663 0.0
O585 O 0.80237 0.2213 0.36436 0.0
O586 O 0.7202 0.27142 0.38903 0.0
O587 O 0.74308 0.23709 0.37373 0.0
Co588 Co 0.74366 0.75598 0.39529 0.0
O589 O 0.76571 0.74766 0.42523 0.0
O590 O 0.72633 0.76862 0.42752 0.0
C591 C 0.74585 0.71509 0.37567 0.0
O592 O 0.71605 0.76683 0.36719 0.0
Co593 Co 0.77315 0.75488 0.34037 0.0
O594 O 0.73708 0.76536 0.32712 0.0
C595 C 0.7736 0.8047 0.3724 0.0
C596 C 0.74721 0.75858 0.43978 0.0
C597 C 0.71641 0.76996 0.3415 0.0
O598 O 0.76074 0.79261 0.39117 0.0
O599 O 0.78264 0.79241 0.35177 0.0
O600 O 0.72911 0.7194 0.39501 0.0
O601 O 0.7631 0.7342 0.37156 0.0
Co602 Co 0.24362 0.74572 0.38241 0.0
O603 O 0.24368 0.7684 0.41366 0.0
O604 O 0.24098 0.72371 0.41412 0.0
C605 C 0.27827 0.76473 0.36047 0.0
O606 O 0.24422 0.71599 0.35433 0.0
Co607 Co 0.23097 0.77167 0.32685 0.0
O608 O 0.24019 0.73507 0.31336 0.0
C609 C 0.18669 0.75888 0.36325 0.0
C610 C 0.24231 0.74625 0.42747 0.0
C611 C 0.24364 0.71468 0.32857 0.0
O612 O 0.20307 0.74691 0.37934 0.0
O613 O 0.19451 0.77333 0.34348 0.0
O614 O 0.28267 0.74802 0.38006 0.0
O615 O 0.25368 0.77256 0.35812 0.0
Co616 Co 0.24996 0.24482 0.3805 0.0
O617 O 0.22624 0.2508 0.41015 0.0
O618 O 0.27022 0.2441 0.41343 0.0
C619 C 0.23492 0.27813 0.35376 0.0
O620 O 0.28051 0.23923 0.35399 0.0
Co621 Co 0.22481 0.22689 0.32619 0.0
O622 O 0.26268 0.22819 0.31376 0.0
C623 C 0.23083 0.18733 0.36905 0.0
C624 C 0.24742 0.24899 0.42519 0.0
C625 C 0.28273 0.23297 0.32901 0.0
O626 O 0.24488 0.20436 0.38261 0.0
O627 O 0.21723 0.19408 0.34832 0.0
O628 O 0.25142 0.28352 0.37324 0.0
O629 O 0.22521 0.25397 0.35392 0.0
Co630 Co 0.23617 0.24689 0.58511 0.0
O631 O 0.23877 0.22748 0.55218 0.0
O632 O 0.23214 0.2717 0.55542 0.0
C633 C 0.27237 0.22865 0.60561 0.0
O634 O 0.23332 0.273 0.61628 0.0
Co635 Co 0.22505 0.21293 0.63618 0.0
O636 O 0.22778 0.24862 0.65409 0.0
C637 C 0.18012 0.22845 0.60249 0.0
C638 C 0.23602 0.25058 0.54035 0.0
C639 C 0.23005 0.27112 0.64183 0.0
O640 O 0.19578 0.24238 0.58727 0.0
O641 O 0.18901 0.21049 0.61858 0.0
O642 O 0.27543 0.248 0.58835 0.0
O643 O 0.24854 0.21854 0.60637 0.0
Co644 Co 0.73921 0.24389 0.59655 0.0
O645 O 0.76411 0.25156 0.56817 0.0
O646 O 0.71991 0.24877 0.56358 0.0
C647 C 0.75547 0.27275 0.62761 0.0
O648 O 0.70761 0.23726 0.62135 0.0
Co649 Co 0.76177 0.21693 0.64874 0.0
O650 O 0.72315 0.21679 0.6588 0.0
C651 C 0.75715 0.18656 0.60137 0.0
C652 C 0.74316 0.25359 0.55275 0.0
C653 C 0.70405 0.22614 0.6444 0.0
O654 O 0.74129 0.20365 0.59028 0.0
O655 O 0.77499 0.1948 0.61777 0.0
O656 O 0.74035 0.28142 0.60819 0.0
O657 O 0.76341 0.24802 0.62513 0.0
Co658 Co 0.23683 0.75147 0.58807 0.0
O659 O 0.21812 0.74755 0.55483 0.0
O660 O 0.26125 0.75833 0.55864 0.0
C661 C 0.22169 0.71313 0.60749 0.0
O662 O 0.26228 0.75613 0.61968 0.0
Co663 Co 0.20214 0.75832 0.63929 0.0
O664 O 0.23755 0.75621 0.65749 0.0
C665 C 0.21303 0.80564 0.60586 0.0
C666 C 0.24082 0.75265 0.5433 0.0
C667 C 0.26009 0.75724 0.64543 0.0
O668 O 0.22831 0.7914 0.59058 0.0
O669 O 0.19752 0.79511 0.6234 0.0
O670 O 0.24145 0.71224 0.5906 0.0
O671 O 0.20962 0.7361 0.60877 0.0
C672 C 0.97671 0.26046 0.23356 0.0
C673 C 0.96346 0.246 0.25389 0.0
C674 C 0.00453 0.26455 0.23446 0.0
C675 C 0.01987 0.25505 0.25617 0.0
H676 H 0.96548 0.26861 0.21678 0.0
H677 H 0.014 0.27558 0.21826 0.0
S678 S -0.00565 0.21653 0.31479 0.0
N679 N 0.96745 0.22219 0.29623 0.0
N680 N 0.01966 0.23049 0.29853 0.0
C681 C 0.00674 0.24069 0.27674 0.0
C682 C 0.97853 0.23597 0.27543 0.0
C683 C 0.75948 0.98044 0.26182 0.0
C684 C 0.74318 0.96422 0.24545 0.0
C685 C 0.7557 0.00843 0.26285 0.0
C686 C 0.73606 0.0211 0.24692 0.0
H687 H 0.77476 0.97138 0.27443 0.0
H688 H 0.76844 0.02027 0.27599 0.0
S689 S 0.68903 0.98759 0.19988 0.0
N690 N 0.70691 0.96267 0.21275 0.0
N691 N 0.7006 0.0155 0.21389 0.0
C692 C 0.7201 0.00518 0.22997 0.0
C693 C 0.72344 0.97663 0.22946 0.0
C694 C 0.01675 0.71383 0.22304 0.0
C695 C 0.03031 0.73701 0.23236 0.0
C696 C 0.98902 0.71422 0.21828 0.0
C697 C 0.97412 0.73772 0.22294 0.0
H698 H 0.02744 0.69503 0.22013 0.0
H699 H 0.979 0.69568 0.21251 0.0
S700 S 5e-05 0.80442 0.24427 0.0
N701 N 0.02678 0.78477 0.24356 0.0
N702 N 0.97463 0.78511 0.2351 0.0
C703 C 0.9875 0.7613 0.23087 0.0
C704 C 0.01565 0.76105 0.23545 0.0
C705 C 0.22384 0.97835 0.2756 0.0
C706 C 0.23252 0.96509 0.25212 0.0
C707 C 0.22063 0.00645 0.27628 0.0
C708 C 0.22636 0.02212 0.25361 0.0
H709 H 0.21997 0.96703 0.29378 0.0
H710 H 0.21492 0.01605 0.29495 0.0
S711 S 0.24733 -0.00244 0.18667 0.0
N712 N 0.24474 0.96996 0.20506 0.0
N713 N 0.23938 0.02282 0.20674 0.0
C714 C 0.23406 0.00921 0.22981 0.0
C715 C 0.23693 0.98063 0.22893 0.0
C716 C 0.97179 0.72148 0.76671 0.0
C717 C 0.96155 0.74635 0.75743 0.0
C718 C -0.00077 0.71793 0.77137 0.0
C719 C 0.01713 0.73912 0.76674 0.0
H720 H 0.95865 0.70431 0.76969 0.0
H721 H 0.0066 0.69818 0.77711 0.0
S722 S 0.00074 0.80875 0.74528 0.0
N723 N 0.97148 0.79307 0.74613 0.0
N724 N 0.02328 0.78613 0.75447 0.0
C725 C 0.0072 0.76439 0.75885 0.0
C726 C 0.97927 0.76813 0.75434 0.0
C727 C 0.21625 0.00855 0.76082 0.0
C728 C 0.23575 0.02401 0.74756 0.0
C729 C 0.21297 0.9811 0.7547 0.0
C730 C 0.22951 0.96851 0.73561 0.0
H731 H 0.2032 0.01781 0.77555 0.0
H732 H 0.19809 0.9695 0.76557 0.0
S733 S 0.2834 0.00054 0.6956 0.0
N734 N 0.27131 0.0252 0.71431 0.0
N735 N 0.2659 0.9734 0.70361 0.0
C736 C 0.24907 0.98384 0.72236 0.0
C737 C 0.25199 0.01173 0.72814 0.0
C738 C 0.00742 0.27627 0.72277 0.0
C739 C 0.02313 0.25715 0.73642 0.0
C740 C 0.97947 0.27687 0.72605 0.0
C741 C 0.96662 0.25916 0.74395 0.0
H742 H 0.01674 0.29052 0.70918 0.0
H743 H 0.96784 0.29137 0.71466 0.0
S744 S -0.00104 0.20611 0.78514 0.0
N745 N 0.02397 0.22026 0.76856 0.0
N746 N 0.97156 0.22226 0.77561 0.0
C747 C 0.98218 0.2404 0.75814 0.0
C748 C 0.01046 0.23917 0.75414 0.0
C749 C 0.71963 0.01563 0.75109 0.0
C750 C 0.7379 0.02655 0.73246 0.0
C751 C 0.71702 0.98765 0.75447 0.0
C752 C 0.73207 0.96969 0.73878 0.0
H753 H 0.70751 0.02881 0.76349 0.0
H754 H 0.70286 0.98005 0.76912 0.0
S755 S 0.78262 0.98805 0.6872 0.0
N756 N 0.77148 0.0173 0.69845 0.0
N757 N 0.76607 0.96471 0.70409 0.0
C758 C 0.75029 0.98036 0.71996 0.0
C759 C 0.75336 0.00882 0.71699 0.0
C760 C 0.22475 0.27115 0.01853 0.0
C761 C 0.23992 0.25044 0.03062 0.0
C762 C 0.22192 0.27266 0.99057 0.0
C763 C 0.23473 0.25387 0.97393 0.0
H764 H 0.21496 0.28629 0.03077 0.0
H765 H 0.21045 0.28908 0.98192 0.0
S766 S 0.27586 0.19534 -0.00446 0.0
N767 N 0.26695 0.21023 0.02379 0.0
N768 N 0.26225 0.21343 0.97126 0.0
C769 C 0.24958 0.23287 0.98576 0.0
C770 C 0.25202 0.23104 0.01414 0.0
C771 C 0.27061 0.7696 0.98224 0.0
C772 C 0.25708 0.75084 0.96605 0.0
C773 C 0.26767 0.76912 0.01018 0.0
C774 C 0.25051 0.7504 0.02273 0.0
H775 H 0.2841 0.78424 0.97335 0.0
H776 H 0.27911 0.78339 0.02209 0.0
S777 S 0.20907 0.69833 0.98905 0.0
N778 N 0.22499 0.71374 0.96437 0.0
N779 N 0.21903 0.71342 0.01688 0.0
C780 C 0.23607 0.73224 0.0067 0.0
C781 C 0.23951 0.73229 0.97833 0.0
C782 C 0.71715 0.25478 0.98335 0.0
C783 C 0.73481 0.23714 0.97017 0.0
C784 C 0.71749 0.25717 0.01133 0.0
C785 C 0.73626 0.24284 0.02677 0.0
H786 H 0.70322 0.26701 0.97189 0.0
H787 H 0.70357 0.27094 0.02087 0.0
S788 S 0.78656 0.19393 0.00169 0.0
N789 N 0.77093 0.20458 0.97441 0.0
N790 N 0.77243 0.20994 0.0271 0.0
C791 C 0.75392 0.22503 0.01383 0.0
C792 C 0.75297 0.22195 0.98542 0.0
C793 C 0.74469 0.71348 0.98134 0.0
C794 C 0.74807 0.73761 0.96722 0.0
C795 C 0.74243 0.71368 0.00926 0.0
C796 C 0.74329 0.73808 0.02376 0.0
H797 H 0.7429 0.69449 0.97068 0.0
H798 H 0.73937 0.6946 0.01943 0.0
S799 S 0.75339 0.80653 -0.00477 0.0
N800 N 0.75319 0.78623 0.96894 0.0
N801 N 0.74919 0.78689 0.02167 0.0
C802 C 0.74744 0.76231 0.00967 0.0
C803 C 0.74974 0.762 0.98125 0.0
C804 C 0.50241 0.72584 0.73673 0.0
C805 C 0.51428 0.7476 0.7231 0.0
C806 C 0.47459 0.72397 0.73938 0.0
C807 C 0.45785 0.74421 0.72907 0.0
H808 H 0.5148 0.71043 0.74596 0.0
H809 H 0.46627 0.70719 0.75057 0.0
S810 S 0.47922 0.80447 0.69026 0.0
N811 N 0.50753 0.78885 0.6978 0.0
N812 N 0.45494 0.7859 0.70325 0.0
C813 C 0.46945 0.76564 0.71455 0.0
C814 C 0.49782 0.76718 0.7114 0.0
C815 C 0.22068 0.47327 0.72659 0.0
C816 C 0.24015 0.46207 0.74381 0.0
C817 C 0.21845 0.50125 0.72329 0.0
C818 C 0.23513 0.51885 0.73771 0.0
H819 H 0.20715 0.46031 0.71542 0.0
H820 H 0.20313 0.50914 0.70999 0.0
S821 S 0.28971 0.49972 0.78477 0.0
N822 N 0.27696 0.47065 0.77468 0.0
N823 N 0.27223 0.52335 0.76923 0.0
C824 C 0.25481 0.50793 0.75483 0.0
C825 C 0.25749 0.47947 0.75768 0.0
C826 C 0.47656 0.20765 0.75498 0.0
C827 C 0.4629 0.22697 0.73953 0.0
C828 C 0.50427 0.20991 0.75957 0.0
C829 C 0.51876 0.23219 0.74982 0.0
H830 H 0.46577 0.19069 0.76346 0.0
H831 H 0.51436 0.19434 0.77102 0.0
S832 S 0.49165 0.28843 0.70872 0.0
N833 N 0.46546 0.26881 0.71447 0.0
N834 N 0.51731 0.27382 0.72389 0.0
C835 C 0.50508 0.25181 0.73465 0.0
C836 C 0.47714 0.24902 0.72932 0.0
C837 C 0.72195 0.47869 0.76407 0.0
C838 C 0.74265 0.46501 0.75053 0.0
C839 C 0.72037 0.50688 0.76371 0.0
C840 C 0.73983 0.5223 0.75036 0.0
H841 H 0.70662 0.46752 0.77476 0.0
H842 H 0.70408 0.51665 0.77431 0.0
S843 S 0.79813 0.49609 0.71199 0.0
N844 N 0.7828 0.46881 0.72325 0.0
N845 N 0.78036 0.5219 0.72305 0.0
C846 C 0.76072 0.50885 0.73683 0.0
C847 C 0.76199 0.48014 0.73677 0.0
C848 C 0.49086 0.24402 0.21162 0.0
C849 C 0.47505 0.25692 0.23101 0.0
C850 C 0.51881 0.24255 0.21454 0.0
C851 C 0.53169 0.25312 0.23741 0.0
H852 H 0.48153 0.23474 0.19426 0.0
H853 H 0.53032 0.23241 0.19912 0.0
S854 S 0.4988 0.28885 0.29388 0.0
N855 N 0.47386 0.28081 0.27348 0.0
N856 N 0.5264 0.27734 0.27954 0.0
C857 C 0.51598 0.26613 0.25692 0.0
C858 C 0.4876 0.2682 0.25357 0.0
C859 C 0.77354 0.48764 0.21755 0.0
C860 C 0.75921 0.47003 0.23428 0.0
C861 C 0.7726 0.51558 0.22178 0.0
C862 C 0.75822 0.52646 0.24349 0.0
H863 H 0.78498 0.47981 0.2008 0.0
H864 H 0.78307 0.52875 0.20795 0.0
S865 S 0.71884 0.48837 0.29388 0.0
N866 N 0.7309 0.465 0.27357 0.0
N867 N 0.73007 0.51749 0.28227 0.0
C868 C 0.74464 0.5089 0.26088 0.0
C869 C 0.74488 0.48061 0.25606 0.0
C870 C 0.51252 0.75283 0.25692 0.0
C871 C 0.52796 0.76659 0.23776 0.0
C872 C 0.48489 0.75732 0.25884 0.0
C873 C 0.47194 0.77506 0.24111 0.0
H874 H 0.52185 0.73843 0.27037 0.0
H875 H 0.47338 0.74575 0.27327 0.0
S876 S 0.50367 0.81638 0.18799 0.0
N877 N 0.52882 0.79958 0.20174 0.0
N878 N 0.4764 0.8069 0.20434 0.0
C879 C 0.48723 0.78927 0.22221 0.0
C880 C 0.51546 0.78533 0.2208 0.0
C881 C 0.26938 0.50712 0.20672 0.0
C882 C 0.25658 0.52411 0.2252 0.0
C883 C 0.26387 0.47936 0.20631 0.0
C884 C 0.24595 0.46768 0.22483 0.0
H885 H 0.28314 0.51542 0.19205 0.0
H886 H 0.27401 0.46691 0.19161 0.0
S887 S 0.20826 0.5035 0.278 0.0
N888 N 0.22559 0.5274 0.26274 0.0
N889 N 0.21598 0.47511 0.26248 0.0
C890 C 0.23354 0.4844 0.24378 0.0
C891 C 0.23867 0.51268 0.24382 0.0
C892 C 0.76951 0.73683 0.50857 0.0
C893 C 0.75791 0.75627 0.52535 0.0
C894 C 0.76584 0.73795 0.48087 0.0
C895 C 0.75006 0.75827 0.46903 0.0
H896 H 0.78151 0.72062 0.51687 0.0
H897 H 0.77518 0.7225 0.46867 0.0
S898 S 0.71527 0.81398 0.50411 0.0
N899 N 0.7301 0.79666 0.52824 0.0
N900 N 0.72294 0.79836 0.47588 0.0
C901 C 0.73826 0.77782 0.48548 0.0
C902 C 0.74233 0.77697 0.51375 0.0
C903 C 0.77487 0.27071 0.48572 0.0
C904 C 0.75262 0.27137 0.46852 0.0
C905 C 0.77154 0.26571 0.5132 0.0
C906 C 0.74585 0.26115 0.52419 0.0
H907 H 0.79499 0.2725 0.47767 0.0
H908 H 0.78932 0.26447 0.52568 0.0
S909 S 0.68115 0.26362 0.48716 0.0
N910 N 0.70423 0.26901 0.46404 0.0
N911 N 0.69767 0.26004 0.51569 0.0
C912 C 0.72338 0.2633 0.50719 0.0
C913 C 0.72687 0.26827 0.4793 0.0
C914 C 0.25429 0.76919 0.47051 0.0
C915 C 0.24289 0.74689 0.45707 0.0
C916 C 0.25469 0.77058 0.49863 0.0
C917 C 0.24311 0.75001 0.51406 0.0
H918 H 0.26297 0.78571 0.45922 0.0
H919 H 0.26327 0.78819 0.50828 0.0
S920 S 0.2118 0.68694 0.48896 0.0
N921 N 0.2209 0.7033 0.46157 0.0
N922 N 0.22092 0.70634 0.51434 0.0
C923 C 0.23205 0.72748 0.50098 0.0
C924 C 0.23214 0.72578 0.47246 0.0
C925 C 0.25872 0.23578 0.49879 0.0
C926 C 0.23945 0.25235 0.51116 0.0
C927 C 0.26188 0.23562 0.47094 0.0
C928 C 0.24534 0.25147 0.4545 0.0
H929 H 0.27145 0.22274 0.51076 0.0
H930 H 0.27673 0.22231 0.46219 0.0
S931 S 0.19247 0.29899 0.47711 0.0
N932 N 0.20444 0.28585 0.50515 0.0
N933 N 0.20961 0.28489 0.45246 0.0
C934 C 0.22623 0.26845 0.46661 0.0
C935 C 0.2235 0.2691 0.49509 0.0
C936 C 0.18607 0.19546 0.28377 0.0
C937 C 0.18399 0.16971 0.27195 0.0
C938 C 0.16362 0.21216 0.28672 0.0
C939 C 0.13823 0.20404 0.2774 0.0
H940 H 0.20535 0.20308 0.2904 0.0
H941 H 0.16656 0.23198 0.29531 0.0
S942 S 0.12127 0.13747 0.24751 0.0
N943 N 0.15392 0.13599 0.253 0.0
N944 N 0.11175 0.16754 0.2581 0.0
C945 C 0.13553 0.17779 0.26684 0.0
C946 C 0.15839 0.16062 0.26415 0.0
C947 C 0.79697 0.18678 0.28391 0.0
C948 C 0.82105 0.18766 0.26923 0.0
C949 C 0.78097 0.16355 0.28433 0.0
C950 C 0.78818 0.14039 0.26968 0.0
H951 H 0.79 0.20447 0.29464 0.0
H952 H 0.76227 0.16426 0.29531 0.0
S953 S 0.85071 0.13141 0.2302 0.0
N954 N 0.85254 0.16265 0.24158 0.0
N955 N 0.8223 0.119 0.24199 0.0
C956 C 0.813 0.14047 0.25617 0.0
C957 C 0.82948 0.16409 0.25603 0.0
C958 C 0.8461 0.80657 0.22075 0.0
C959 C 0.85639 0.79279 0.24324 0.0
C960 C 0.82286 0.82248 0.22287 0.0
C961 C 0.80948 0.82498 0.24751 0.0
H962 H 0.85513 0.8039 0.20118 0.0
H963 H 0.81456 0.83166 0.20495 0.0
S964 S 0.83081 0.79656 0.3128 0.0
N965 N 0.85332 0.78539 0.29128 0.0
N966 N 0.80951 0.81493 0.29514 0.0
C967 C 0.82051 0.8127 0.27032 0.0
C968 C 0.84408 0.7967 0.26821 0.0
C969 C 0.2082 0.81499 0.28361 0.0
C970 C 0.19597 0.83938 0.2761 0.0
C971 C 0.19453 0.79045 0.28126 0.0
C972 C 0.16784 0.78934 0.27193 0.0
H973 H 0.22889 0.81452 0.29013 0.0
H974 H 0.20533 0.77214 0.28609 0.0
S975 S 0.12527 0.84829 0.25429 0.0
N976 N 0.15475 0.86146 0.26195 0.0
N977 N 0.12868 0.81541 0.25823 0.0
C978 C 0.15474 0.81386 0.26625 0.0
C979 C 0.16884 0.83885 0.26828 0.0
C980 C 0.13664 0.81037 0.75895 0.0
C981 C 0.13111 0.79015 0.73984 0.0
C982 C 0.159 0.82734 0.75611 0.0
C983 C 0.17642 0.82432 0.73423 0.0
H984 H 0.12443 0.81228 0.7768 0.0
H985 H 0.16345 0.84188 0.77175 0.0
S986 S 0.16817 0.77778 0.67681 0.0
N987 N 0.1428 0.77062 0.69675 0.0
N988 N 0.18519 0.80209 0.69178 0.0
C989 C 0.17019 0.8054 0.71428 0.0
C990 C 0.14737 0.78842 0.71698 0.0
C991 C 0.17247 0.15576 0.75939 0.0
C992 C 0.1896 0.14818 0.73824 0.0
C993 C 0.15921 0.18077 0.759 0.0
C994 C 0.16303 0.19879 0.7376 0.0
H995 H 0.17018 0.14288 0.77679 0.0
H996 H 0.14675 0.18645 0.77588 0.0
S997 S 0.20218 0.18648 0.67597 0.0
N998 N 0.20701 0.15919 0.69421 0.0
N999 N 0.18248 0.20636 0.69372 0.0
C1000 C 0.17895 0.19084 0.7159 0.0
C1001 C 0.19215 0.16544 0.71616 0.0
C1002 C 0.83177 0.20258 0.70246 0.0
C1003 C 0.85178 0.19788 0.72182 0.0
C1004 C 0.80845 0.18684 0.7016 0.0
C1005 C 0.80431 0.16581 0.72004 0.0
H1006 H 0.83348 0.21944 0.68871 0.0
H1007 H 0.79298 0.19191 0.68714 0.0
S1008 S 0.85144 0.14343 0.77305 0.0
N1009 N 0.86681 0.1691 0.75853 0.0
N1010 N 0.82278 0.13959 0.75679 0.0
C1011 C 0.8249 0.15955 0.73822 0.0
C1012 C 0.84872 0.1756 0.73915 0.0
C1013 C 0.79888 0.80729 0.71209 0.0
C1014 C 0.82061 0.80494 0.73004 0.0
C1015 C 0.78204 0.82976 0.71245 0.0
C1016 C 0.78611 0.85085 0.73084 0.0
H1017 H 0.79439 0.79127 0.69797 0.0
H1018 H 0.76517 0.83015 0.69869 0.0
S1019 S 0.84123 0.85547 0.78092 0.0
N1020 N 0.84628 0.82631 0.76571 0.0
N1021 N 0.81447 0.8688 0.7665 0.0
C1022 C 0.80853 0.84947 0.74808 0.0
C1023 C 0.82583 0.82647 0.74764 0.0
C1024 C 0.22737 0.149 0.18409 0.0
C1025 C 0.24907 0.14093 0.20038 0.0
C1026 C 0.22855 0.17302 0.1692 0.0
C1027 C 0.25137 0.18962 0.17034 0.0
H1028 H 0.20889 0.13747 0.18387 0.0
H1029 H 0.21108 0.17929 0.15781 0.0
S1030 S 0.31499 0.17514 0.20583 0.0
N1031 N 0.29519 0.14964 0.21375 0.0
N1032 N 0.29711 0.19502 0.18615 0.0
C1033 C 0.27368 0.181 0.18515 0.0
C1034 C 0.27261 0.15653 0.20007 0.0
C1035 C 0.80234 0.2276 0.18276 0.0
C1036 C 0.79453 0.25003 0.16746 0.0
C1037 C 0.82627 0.22808 0.19756 0.0
C1038 C 0.8424 0.25138 0.19829 0.0
H1039 H 0.78968 0.20982 0.18359 0.0
H1040 H 0.83164 0.2105 0.20927 0.0
S1041 S 0.83156 0.31441 0.16012 0.0
N1042 N 0.80555 0.29524 0.1522 0.0
N1043 N 0.8499 0.29662 0.18136 0.0
C1044 C 0.8351 0.27363 0.18261 0.0
C1045 C 0.81123 0.27283 0.16684 0.0
C1046 C 0.71391 0.81871 0.2036 0.0
C1047 C 0.7288 0.84121 0.19498 0.0
C1048 C 0.71469 0.79431 0.18958 0.0
C1049 C 0.73017 0.79142 0.16617 0.0
H1050 H 0.70207 0.81964 0.22179 0.0
H1051 H 0.70312 0.7775 0.19732 0.0
S1052 S 0.77162 0.84465 0.13415 0.0
N1053 N 0.75863 0.85943 0.16082 0.0
N1054 N 0.75984 0.81349 0.13426 0.0
C1055 C 0.74432 0.81405 0.15665 0.0
C1056 C 0.74366 0.83896 0.17108 0.0
C1057 C 0.15486 0.72397 0.17268 0.0
C1058 C 0.15632 0.71605 0.19981 0.0
C1059 C 0.17806 0.72728 0.15714 0.0
C1060 C 0.20371 0.72332 0.16821 0.0
H1061 H 0.13564 0.72846 0.16358 0.0
H1062 H 0.17579 0.73393 0.13653 0.0
S1063 S 0.21845 0.7013 0.23814 0.0
N1064 N 0.18544 0.70244 0.23644 0.0
N1065 N 0.22904 0.70998 0.20804 0.0
C1066 C 0.2054 0.71443 0.19514 0.0
C1067 C 0.18168 0.71041 0.21066 0.0
C1068 C 0.23409 0.846 0.80896 0.0
C1069 C 0.2543 0.85369 0.79078 0.0
C1070 C 0.23723 0.82314 0.8253 0.0
C1071 C 0.26062 0.80741 0.82383 0.0
H1072 H 0.2152 0.85679 0.80953 0.0
H1073 H 0.22075 0.81693 0.83807 0.0
S1074 S 0.32097 0.82219 0.78318 0.0
N1075 N 0.29953 0.84607 0.77485 0.0
N1076 N 0.30545 0.80291 0.80536 0.0
C1077 C 0.28153 0.8159 0.80701 0.0
C1078 C 0.27836 0.83915 0.79053 0.0
C1079 C 0.16317 0.28911 0.78789 0.0
C1080 C 0.13853 0.2768 0.79411 0.0
C1081 C 0.1855 0.28611 0.80466 0.0
C1082 C 0.18404 0.27115 0.82864 0.0
H1083 H 0.1657 0.30016 0.76934 0.0
H1084 H 0.20428 0.29514 0.79841 0.0
S1085 S 0.1232 0.23827 0.85621 0.0
N1086 N 0.11321 0.25137 0.82741 0.0
N1087 N 0.15526 0.24623 0.85917 0.0
C1088 C 0.15906 0.26048 0.83619 0.0
C1089 C 0.13628 0.26322 0.81889 0.0
C1090 C 0.71587 0.16699 0.7866 0.0
C1091 C 0.73464 0.14589 0.78843 0.0
C1092 C 0.71735 0.18935 0.80365 0.0
C1093 C 0.73745 0.19128 0.82335 0.0
H1094 H 0.70022 0.16657 0.77148 0.0
H1095 H 0.70278 0.20539 0.80126 0.0
S1096 S 0.79195 0.14224 0.83614 0.0
N1097 N 0.77438 0.12872 0.8114 0.0
N1098 N 0.77668 0.1708 0.84373 0.0
C1099 C 0.75604 0.17025 0.82587 0.0
C1100 C 0.75475 0.1475 0.80833 0.0
C1101 C 0.7894 0.7224 0.79446 0.0
C1102 C 0.7902 0.72926 0.8219 0.0
C1103 C 0.81294 0.72067 0.77926 0.0
C1104 C 0.83806 0.72611 0.7909 0.0
H1105 H 0.77042 0.71882 0.78441 0.0
H1106 H 0.81125 0.71629 0.75806 0.0
S1107 S 0.85178 0.74077 0.86261 0.0
N1108 N 0.81881 0.73838 0.86065 0.0
N1109 N 0.86286 0.73538 0.8319 0.0
C1110 C 0.83936 0.73123 0.81858 0.0
C1111 C 0.81549 0.7328 0.83414 0.0
C1112 C 0.18457 0.28174 0.19823 0.0
C1113 C 0.16221 0.26472 0.2013 0.0
C1114 C 0.19892 0.28255 0.17421 0.0
C1115 C 0.19161 0.26618 0.15234 0.0
H1116 H 0.19118 0.29444 0.21465 0.0
H1117 H 0.21637 0.29555 0.17311 0.0
S1118 S 0.13348 0.21922 0.14968 0.0
N1119 N 0.13241 0.23219 0.18018 0.0
N1120 N 0.15954 0.23341 0.13484 0.0
C1121 C 0.16856 0.24984 0.15475 0.0
C1122 C 0.15382 0.24919 0.17928 0.0
C1123 C 0.17965 0.74871 0.84988 0.0
C1124 C 0.20039 0.72968 0.85301 0.0
C1125 C 0.16117 0.74652 0.82873 0.0
C1126 C 0.16308 0.72534 0.81013 0.0
H1127 H 0.17844 0.76611 0.86299 0.0
H1128 H 0.14628 0.76222 0.82608 0.0
S1129 S 0.21044 0.66789 0.81257 0.0
N1130 N 0.21934 0.68715 0.83807 0.0
N1131 N 0.18493 0.68334 0.79797 0.0
C1132 C 0.18258 0.70534 0.81406 0.0
C1133 C 0.20116 0.70742 0.83565 0.0
C1134 C 0.23212 0.17899 0.85357 0.0
C1135 C 0.25259 0.1981 0.8582 0.0
C1136 C 0.23291 0.16191 0.83112 0.0
C1137 C 0.25413 0.16356 0.8127 0.0
H1138 H 0.21468 0.17822 0.86649 0.0
H1139 H 0.21608 0.14858 0.82727 0.0
S1140 S 0.31485 0.20637 0.81853 0.0
N1141 N 0.29637 0.21482 0.84464 0.0
N1142 N 0.29762 0.18301 0.80229 0.0
C1143 C 0.27558 0.1811 0.81819 0.0
C1144 C 0.27487 0.19831 0.84103 0.0
C1145 C 0.79521 0.27639 0.83521 0.0
C1146 C 0.79944 0.25717 0.85554 0.0
C1147 C 0.80836 0.27452 0.8106 0.0
C1148 C 0.82705 0.25394 0.80558 0.0
H1149 H 0.78071 0.29245 0.8378 0.0
H1150 H 0.8038 0.28938 0.79529 0.0
S1151 S 0.84767 0.2001 0.85276 0.0
N1152 N 0.82498 0.21763 0.86948 0.0
N1153 N 0.85075 0.21506 0.82329 0.0
C1154 C 0.83295 0.2356 0.82619 0.0
C1155 C 0.81898 0.23706 0.85121 0.0
C1156 C 0.74054 0.83352 0.82529 0.0
C1157 C 0.71984 0.83046 0.80638 0.0
C1158 C 0.74129 0.81738 0.84847 0.0
C1159 C 0.72126 0.79787 0.85342 0.0
H1160 H 0.75707 0.84716 0.82131 0.0
H1161 H 0.75844 0.81916 0.86174 0.0
S1162 S 0.66047 0.78586 0.81238 0.0
N1163 N 0.67734 0.80903 0.79557 0.0
N1164 N 0.67838 0.77932 0.83942 0.0
C1165 C 0.6994 0.79637 0.83571 0.0
C1166 C 0.69881 0.81249 0.81207 0.0
C1167 C 0.78126 0.70472 0.16852 0.0
C1168 C 0.79028 0.70998 0.14237 0.0
C1169 C 0.79883 0.70645 0.1904 0.0
C1170 C 0.82616 0.71295 0.18692 0.0
H1171 H 0.76025 0.70096 0.1724 0.0
H1172 H 0.79054 0.7038 0.21032 0.0
S1173 S 0.86053 0.72317 0.12158 0.0
N1174 N 0.82873 0.71825 0.1136 0.0
N1175 N 0.86197 0.72092 0.15459 0.0
C1176 C 0.83586 0.71574 0.16052 0.0
C1177 C 0.81784 0.71434 0.13831 0.0
C1178 C 0.27933 0.78823 0.1702 0.0
C1179 C 0.26473 0.79643 0.14746 0.0
C1180 C 0.27648 0.80157 0.19481 0.0
C1181 C 0.2592 0.82389 0.19761 0.0
H1182 H 0.29245 0.77086 0.16931 0.0
H1183 H 0.28789 0.79419 0.21182 0.0
S1184 S 0.21842 0.85507 0.14351 0.0
N1185 N 0.23374 0.82951 0.12883 0.0
N1186 N 0.2286 0.85466 0.17504 0.0
C1187 C 0.24547 0.83312 0.17472 0.0
C1188 C 0.24822 0.8194 0.14968 0.0
C1189 C 0.70676 0.18995 0.19569 0.0
C1190 C 0.72092 0.16541 0.19677 0.0
C1191 C 0.70451 0.20455 0.17178 0.0
C1192 C 0.71687 0.19552 0.14808 0.0
H1193 H 0.69753 0.19816 0.21357 0.0
H1194 H 0.69383 0.22355 0.17223 0.0
S1195 S 0.75449 0.13137 0.13964 0.0
N1196 N 0.74589 0.13173 0.17161 0.0
N1197 N 0.74212 0.15939 0.12668 0.0
C1198 C 0.73008 0.17039 0.14855 0.0
C1199 C 0.73207 0.15533 0.1729 0.0
C1200 C 0.66105 0.66043 0.72864 0.0
C1201 C 0.67949 0.66427 0.74963 0.0
C1202 C 0.6373 0.6757 0.72742 0.0
C1203 C 0.63129 0.69496 0.74736 0.0
H1204 H 0.66561 0.64657 0.71246 0.0
H1205 H 0.62427 0.67328 0.71017 0.0
S1206 S 0.67118 0.70908 0.80837 0.0
N1207 N 0.68908 0.68647 0.79195 0.0
N1208 N 0.64411 0.71441 0.79015 0.0
C1209 C 0.64876 0.69742 0.7693 0.0
C1210 C 0.673 0.6823 0.77029 0.0
C1211 C 0.27897 0.65991 0.77003 0.0
C1212 C 0.28475 0.63916 0.75174 0.0
C1213 C 0.29517 0.68282 0.77183 0.0
C1214 C 0.31799 0.68586 0.75551 0.0
H1215 H 0.2613 0.65889 0.78257 0.0
H1216 H 0.28936 0.69856 0.78575 0.0
S1217 S 0.34339 0.63619 0.70598 0.0
N1218 N 0.31596 0.62214 0.71824 0.0
N1219 N 0.34662 0.66536 0.72168 0.0
C1220 C 0.32491 0.66461 0.73815 0.0
C1221 C 0.30825 0.64122 0.73622 0.0
C1222 C 0.3411 0.30485 0.73098 0.0
C1223 C 0.34725 0.28708 0.75218 0.0
C1224 C 0.31827 0.32148 0.73209 0.0
C1225 C 0.30106 0.32067 0.75439 0.0
H1226 H 0.35306 0.3048 0.71285 0.0
H1227 H 0.31323 0.33382 0.71486 0.0
S1228 S 0.31116 0.28139 0.81671 0.0
N1229 N 0.33641 0.27245 0.79731 0.0
N1230 N 0.29339 0.30337 0.79926 0.0
C1231 C 0.30805 0.3044 0.77631 0.0
C1232 C 0.33122 0.28768 0.77525 0.0
C1233 C 0.66941 0.31155 0.71889 0.0
C1234 C 0.65211 0.30056 0.73816 0.0
C1235 C 0.68377 0.33524 0.72429 0.0
C1236 C 0.68256 0.34762 0.74969 0.0
H1237 H 0.67238 0.3014 0.69986 0.0
H1238 H 0.69703 0.34305 0.70895 0.0
S1239 S 0.6393 0.3275 0.80648 0.0
N1240 N 0.6326 0.30522 0.78272 0.0
N1241 N 0.66194 0.34819 0.79368 0.0
C1242 C 0.66479 0.33736 0.76881 0.0
C1243 C 0.64891 0.31419 0.76278 0.0
C1244 C 0.70368 0.30232 0.21084 0.0
C1245 C 0.70619 0.3269 0.2248 0.0
C1246 C 0.67927 0.28839 0.20984 0.0
C1247 C 0.65634 0.29827 0.22299 0.0
H1248 H 0.72077 0.29362 0.2006 0.0
H1249 H 0.67864 0.26935 0.19919 0.0
S1250 S 0.65175 0.36257 0.26107 0.0
N1251 N 0.68327 0.36127 0.25097 0.0
N1252 N 0.63734 0.33496 0.24933 0.0
C1253 C 0.65826 0.32331 0.23626 0.0
C1254 C 0.68318 0.33764 0.23713 0.0
C1255 C 0.67194 0.6435 0.25619 0.0
C1256 C 0.68189 0.63272 0.23201 0.0
C1257 C 0.65876 0.66859 0.2565 0.0
C1258 C 0.65487 0.68311 0.2326 0.0
H1259 H 0.67674 0.63395 0.27514 0.0
H1260 H 0.65343 0.67753 0.2756 0.0
S1261 S 0.67098 0.65973 0.16396 0.0
N1262 N 0.68272 0.63575 0.18365 0.0
N1263 N 0.65765 0.68269 0.18397 0.0
C1264 C 0.66201 0.67097 0.20821 0.0
C1265 C 0.6755 0.64568 0.20798 0.0
C1266 C 0.3365 0.67112 0.24341 0.0
C1267 C 0.32409 0.66437 0.219 0.0
C1268 C 0.35757 0.68988 0.24423 0.0
C1269 C 0.36652 0.70266 0.22068 0.0
H1270 H 0.32881 0.66317 0.2621 0.0
H1271 H 0.36559 0.69576 0.2636 0.0
S1272 S 0.34404 0.68833 0.15153 0.0
N1273 N 0.32448 0.66932 0.17054 0.0
N1274 N 0.36414 0.70472 0.17223 0.0
C1275 C 0.3556 0.69468 0.19608 0.0
C1276 C 0.33431 0.67547 0.1952 0.0
C1277 C 0.3039 0.29932 0.20335 0.0
C1278 C 0.32859 0.30095 0.2171 0.0
C1279 C 0.2881 0.32222 0.19895 0.0
C1280 C 0.29599 0.34762 0.2087 0.0
H1281 H 0.2965 0.28009 0.19609 0.0
H1282 H 0.26907 0.31966 0.18877 0.0
S1283 S 0.36019 0.36344 0.24337 0.0
N1284 N 0.36133 0.33055 0.23828 0.0
N1285 N 0.33133 0.37358 0.23055 0.0
C1286 C 0.32126 0.34983 0.22127 0.0
C1287 C 0.33758 0.32651 0.22541 0.0
C1288 C 0.7392 0.6454 0.6731 0.0
C1289 C 0.75955 0.63772 0.69114 0.0
C1290 C 0.74164 0.66912 0.65788 0.0
C1291 C 0.76436 0.68575 0.66054 0.0
H1292 H 0.72059 0.63411 0.67209 0.0
H1293 H 0.72498 0.67534 0.64536 0.0
S1294 S 0.82526 0.67095 0.70051 0.0
N1295 N 0.80467 0.64587 0.70736 0.0
N1296 N 0.80909 0.6908 0.67929 0.0
C1297 C 0.78566 0.677 0.67674 0.0
C1298 C 0.78329 0.65282 0.69191 0.0
C1299 C 0.33322 0.75453 0.66697 0.0
C1300 C 0.33235 0.76285 0.69398 0.0
C1301 C 0.30992 0.75343 0.6512 0.0
C1302 C 0.28472 0.76013 0.66197 0.0
H1303 H 0.35198 0.74815 0.65806 0.0
H1304 H 0.31162 0.74642 0.63069 0.0
S1305 S 0.27176 0.78467 0.73123 0.0
N1306 N 0.30444 0.77987 0.7301 0.0
N1307 N 0.26051 0.77668 0.70111 0.0
C1308 C 0.28369 0.76935 0.68872 0.0
C1309 C 0.30754 0.77106 0.70452 0.0
C1310 C 0.21307 0.31787 0.69936 0.0
C1311 C 0.22561 0.34218 0.69205 0.0
C1312 C 0.21433 0.29519 0.68275 0.0
C1313 C 0.22791 0.29601 0.65801 0.0
H1314 H 0.2029 0.31595 0.71845 0.0
H1315 H 0.20478 0.27677 0.68955 0.0
S1316 S 0.26134 0.35574 0.62809 0.0
N1317 N 0.2501 0.36646 0.65735 0.0
N1318 N 0.25226 0.32376 0.62599 0.0
C1319 C 0.2392 0.32061 0.64972 0.0
C1320 C 0.2381 0.34372 0.66675 0.0
C1321 C 0.66991 0.19993 0.66932 0.0
C1322 C 0.6766 0.22337 0.65501 0.0
C1323 C 0.64589 0.19807 0.68355 0.0
C1324 C 0.62769 0.21969 0.68416 0.0
H1325 H 0.68395 0.18335 0.6705 0.0
H1326 H 0.64244 0.18028 0.69574 0.0
S1327 S 0.63466 0.28465 0.64784 0.0
N1328 N 0.66222 0.2678 0.64025 0.0
N1329 N 0.61688 0.26451 0.66737 0.0
C1330 C 0.63308 0.24248 0.66819 0.0
C1331 C 0.65767 0.24431 0.65354 0.0
C1332 C 0.79083 0.32678 0.27744 0.0
C1333 C 0.78421 0.35311 0.28538 0.0
C1334 C 0.78735 0.30495 0.29492 0.0
C1335 C 0.77757 0.30868 0.32121 0.0
H1336 H 0.79739 0.32264 0.25716 0.0
H1337 H 0.79171 0.28493 0.28744 0.0
S1338 S 0.76228 0.37453 0.35328 0.0
N1339 N 0.77092 0.38231 0.32226 0.0
N1340 N 0.76472 0.34138 0.35532 0.0
C1341 C 0.77311 0.33523 0.33009 0.0
C1342 C 0.77639 0.35744 0.31218 0.0
C1343 C 0.6707 0.78632 0.28361 0.0
C1344 C 0.6464 0.7741 0.2912 0.0
C1345 C 0.69268 0.78683 0.30102 0.0
C1346 C 0.69121 0.77532 0.32679 0.0
H1347 H 0.6733 0.79439 0.26358 0.0
H1348 H 0.71144 0.79508 0.2937 0.0
S1349 S 0.63094 0.74455 0.35787 0.0
N1350 N 0.62112 0.75303 0.32736 0.0
N1351 N 0.66262 0.75408 0.36018 0.0
C1352 C 0.66638 0.76514 0.33552 0.0
C1353 C 0.64394 0.76445 0.31766 0.0
C1354 C 0.27066 0.67721 0.30938 0.0
C1355 C 0.2455 0.68824 0.31563 0.0
C1356 C 0.27258 0.65402 0.29332 0.0
C1357 C 0.24943 0.64179 0.28266 0.0
H1358 H 0.28889 0.68714 0.31605 0.0
H1359 H 0.29226 0.64648 0.28805 0.0
S1360 S 0.17908 0.66082 0.2965 0.0
N1361 N 0.19708 0.68369 0.31264 0.0
N1362 N 0.20079 0.64053 0.28175 0.0
C1363 C 0.22424 0.65186 0.28996 0.0
C1364 C 0.22225 0.67509 0.30664 0.0
C1365 C 0.32763 0.25307 0.31911 0.0
C1366 C 0.30963 0.23136 0.31692 0.0
C1367 C 0.35152 0.25348 0.30417 0.0
C1368 C 0.35815 0.23209 0.28675 0.0
H1369 H 0.32254 0.27046 0.33126 0.0
H1370 H 0.3641 0.2713 0.30522 0.0
S1371 S 0.32019 0.16834 0.27844 0.0
N1372 N 0.3016 0.18651 0.29904 0.0
N1373 N 0.34665 0.18706 0.27131 0.0
C1374 C 0.34123 0.20943 0.28609 0.0
C1375 C 0.3169 0.20913 0.30107 0.0
C1376 C 0.69087 0.73521 0.64999 0.0
C1377 C 0.69982 0.75995 0.63955 0.0
C1378 C 0.67205 0.73447 0.67074 0.0
C1379 C 0.66121 0.75844 0.68094 0.0
H1380 H 0.69924 0.71642 0.64278 0.0
H1381 H 0.66646 0.71516 0.67932 0.0
S1382 S 0.67554 0.82794 0.65782 0.0
N1383 N 0.69526 0.80866 0.63936 0.0
N1384 N 0.6589 0.8073 0.67789 0.0
C1385 C 0.66898 0.7832 0.66977 0.0
C1386 C 0.6886 0.78395 0.64909 0.0
C1387 C 0.68664 0.26959 0.3414 0.0
C1388 C 0.70147 0.2474 0.35103 0.0
C1389 C 0.67119 0.26749 0.3179 0.0
C1390 C 0.67023 0.24318 0.30347 0.0
H1391 H 0.68806 0.28903 0.35125 0.0
H1392 H 0.66111 0.28528 0.31024 0.0
S1393 S 0.70138 0.17834 0.32306 0.0
N1394 N 0.71131 0.19974 0.34637 0.0
N1395 N 0.68254 0.19582 0.30203 0.0
C1396 C 0.68354 0.22052 0.31382 0.0
C1397 C 0.69909 0.22263 0.33771 0.0
C1398 C 0.71643 0.6855 0.31304 0.0
C1399 C 0.73192 0.66218 0.30927 0.0
C1400 C 0.71967 0.70131 0.33592 0.0
C1401 C 0.73946 0.69517 0.35498 0.0
H1402 H 0.70247 0.69218 0.29772 0.0
H1403 H 0.70723 0.71889 0.33811 0.0
S1404 S 0.77863 0.63196 0.35904 0.0
N1405 N 0.76236 0.62981 0.33016 0.0
N1406 N 0.77008 0.66132 0.37224 0.0
C1407 C 0.75283 0.67045 0.35316 0.0
C1408 C 0.74863 0.65348 0.33042 0.0
C1409 C 0.28916 0.78143 0.31465 0.0
C1410 C 0.29727 0.76737 0.33782 0.0
C1411 C 0.30417 0.78026 0.29104 0.0
C1412 C 0.32821 0.76554 0.28982 0.0
H1413 H 0.27057 0.79272 0.31437 0.0
H1414 H 0.29683 0.7909 0.27352 0.0
S1415 S 0.35976 0.7272 0.34532 0.0
N1416 N 0.33191 0.73951 0.35843 0.0
N1417 N 0.36048 0.73801 0.31399 0.0
C1418 C 0.33742 0.75261 0.31312 0.0
C1419 C 0.32189 0.75341 0.33716 0.0
C1420 C 0.21951 0.28589 0.30687 0.0
C1421 C 0.23271 0.29566 0.32986 0.0
C1422 C 0.22027 0.3001 0.28269 0.0
C1423 C 0.23385 0.32491 0.28061 0.0
H1424 H 0.20912 0.26669 0.30719 0.0
H1425 H 0.21027 0.29142 0.26543 0.0
S1426 S 0.26967 0.36054 0.33547 0.0
N1427 N 0.25847 0.33252 0.34948 0.0
N1428 N 0.2595 0.35949 0.30394 0.0
C1429 C 0.24605 0.33561 0.30372 0.0
C1430 C 0.24557 0.32094 0.32837 0.0
C1431 C 0.32789 0.24188 0.65621 0.0
C1432 C 0.32282 0.2221 0.67574 0.0
C1433 C 0.31252 0.24299 0.63256 0.0
C1434 C 0.29182 0.22418 0.62766 0.0
H1435 H 0.34276 0.25742 0.6599 0.0
H1436 H 0.316 0.25949 0.61874 0.0
S1437 S 0.27432 0.16562 0.67043 0.0
N1438 N 0.29809 0.18152 0.68732 0.0
N1439 N 0.26981 0.1831 0.64264 0.0
C1440 C 0.28813 0.20313 0.64615 0.0
C1441 C 0.30345 0.20224 0.67029 0.0
C1442 C 0.75157 0.3163 0.65228 0.0
C1443 C 0.75869 0.2888 0.6525 0.0
C1444 C 0.75039 0.33136 0.67603 0.0
C1445 C 0.75589 0.31935 0.70098 0.0
H1446 H 0.74604 0.32615 0.63366 0.0
H1447 H 0.74391 0.35218 0.6749 0.0
S1448 S 0.77776 0.24877 0.71253 0.0
N1449 N 0.77365 0.25095 0.67976 0.0
N1450 N 0.7706 0.27894 0.72442 0.0
C1451 C 0.76425 0.29226 0.70141 0.0
C1452 C 0.76592 0.27706 0.67717 0.0
C1453 C 0.2382 0.65683 0.6564 0.0
C1454 C 0.21757 0.65936 0.67538 0.0
C1455 C 0.23861 0.67321 0.63338 0.0
C1456 C 0.21829 0.69243 0.62863 0.0
H1457 H 0.2549 0.64335 0.66015 0.0
H1458 H 0.25569 0.67177 0.62004 0.0
S1459 S 0.15739 0.70287 0.66995 0.0
N1460 N 0.17478 0.67987 0.68646 0.0
N1461 N 0.17514 0.71011 0.64298 0.0
C1462 C 0.19651 0.69344 0.64646 0.0
C1463 C 0.19627 0.67706 0.66994 0.0
C1464 C 0.15245 0.37824 0.24815 0.0
C1465 C 0.15591 0.37287 0.22058 0.0
C1466 C 0.13417 0.36316 0.26351 0.0
C1467 C 0.11854 0.34265 0.25166 0.0
H1468 H 0.16673 0.39083 0.25879 0.0
H1469 H 0.13529 0.36474 0.28517 0.0
S1470 S 0.11242 0.32921 0.17865 0.0
N1471 N 0.13658 0.35193 0.181 0.0
N1472 N 0.10171 0.32421 0.20959 0.0
C1473 C 0.11753 0.34177 0.2234 0.0
C1474 C 0.13647 0.35675 0.20785 0.0
C1475 C 0.6454 0.11974 0.2353 0.0
C1476 C 0.65012 0.11857 0.26319 0.0
C1477 C 0.63044 0.14094 0.22414 0.0
C1478 C 0.61931 0.16116 0.24057 0.0
H1479 H 0.65684 0.10717 0.2217 0.0
H1480 H 0.63106 0.14372 0.20258 0.0
S1481 S 0.61555 0.15949 0.31485 0.0
N1482 N 0.63477 0.13356 0.30695 0.0
N1483 N 0.6063 0.17315 0.28606 0.0
C1484 C 0.61843 0.15623 0.26837 0.0
C1485 C 0.63391 0.13481 0.27972 0.0
C1486 C 0.84326 0.64172 0.22802 0.0
C1487 C 0.82135 0.63982 0.24554 0.0
C1488 C 0.86655 0.65595 0.23553 0.0
C1489 C 0.86821 0.66954 0.26047 0.0
H1490 H 0.84178 0.63359 0.20789 0.0
H1491 H 0.88237 0.65807 0.2208 0.0
S1492 S 0.81597 0.67003 0.31329 0.0
N1493 N 0.80287 0.65172 0.28889 0.0
N1494 N 0.84634 0.67823 0.30316 0.0
C1495 C 0.84696 0.6661 0.27869 0.0
C1496 C 0.82351 0.6515 0.2711 0.0
C1497 C 0.36996 0.85366 0.25204 0.0
C1498 C 0.36591 0.84635 0.22498 0.0
C1499 C 0.35171 0.87068 0.26518 0.0
C1500 C 0.32934 0.88116 0.25144 0.0
H1501 H 0.38437 0.84287 0.26431 0.0
H1502 H 0.3527 0.872 0.28686 0.0
S1503 S 0.31756 0.87783 0.17798 0.0
N1504 N 0.34364 0.85795 0.1832 0.0
N1505 N 0.30996 0.89071 0.20757 0.0
C1506 C 0.3293 0.87939 0.22321 0.0
C1507 C 0.34748 0.8616 0.20996 0.0
C1508 C 0.10969 0.63963 0.76642 0.0
C1509 C 0.1059 0.6489 0.73998 0.0
C1510 C 0.1293 0.62009 0.77205 0.0
C1511 C 0.14526 0.60935 0.75132 0.0
H1512 H 0.10132 0.65073 0.78316 0.0
H1513 H 0.13515 0.61712 0.79279 0.0
S1514 S 0.13287 0.6172 0.67842 0.0
N1515 N 0.11189 0.63857 0.69276 0.0
N1516 N 0.14845 0.6016 0.70324 0.0
C1517 C 0.13631 0.61311 0.7248 0.0
C1518 C 0.11655 0.63314 0.71909 0.0
C1519 C 0.36373 0.1366 0.72613 0.0
C1520 C 0.36699 0.14549 0.75278 0.0
C1521 C 0.34324 0.11826 0.71961 0.0
C1522 C 0.32591 0.10839 0.73966 0.0
H1523 H 0.37329 0.1474 0.70983 0.0
H1524 H 0.33796 0.11583 0.69865 0.0
S1525 S 0.33616 0.1149 0.81302 0.0
N1526 N 0.35878 0.1352 0.79963 0.0
N1527 N 0.32066 0.10031 0.78752 0.0
C1528 C 0.33418 0.1113 0.76652 0.0
C1529 C 0.35481 0.13017 0.77311 0.0
C1530 C 0.82922 0.37182 0.74932 0.0
C1531 C 0.82027 0.36665 0.77567 0.0
C1532 C 0.84987 0.35641 0.7379 0.0
C1533 C 0.86258 0.33592 0.75272 0.0
H1534 H 0.81756 0.38456 0.73602 0.0
H1535 H 0.85299 0.35773 0.71643 0.0
S1536 S 0.85479 0.32366 0.82572 0.0
N1537 N 0.83135 0.34608 0.81846 0.0
N1538 N 0.87106 0.31803 0.79741 0.0
C1539 C 0.85808 0.33526 0.78062 0.0
C1540 C 0.83653 0.35038 0.79205 0.0
C1541 C 0.62814 0.86196 0.7124 0.0
C1542 C 0.64475 0.87387 0.732 0.0
C1543 C 0.60839 0.8431 0.71968 0.0
C1544 C 0.60515 0.8355 0.74672 0.0
H1545 H 0.63335 0.86372 0.69137 0.0
H1546 H 0.59935 0.83117 0.70383 0.0
S1547 S 0.63493 0.87 0.80557 0.0
N1548 N 0.64986 0.88398 0.77947 0.0
N1549 N 0.61306 0.84828 0.79307 0.0
C1550 C 0.61685 0.85219 0.76635 0.0
C1551 C 0.63674 0.87156 0.75896 0.0
C1552 C 0.21827 0.13959 0.36137 0.0
C1553 C 0.23727 0.15822 0.37113 0.0
C1554 C 0.22639 0.11761 0.34561 0.0
C1555 C 0.25363 0.11446 0.33858 0.0
H1556 H 0.19707 0.14446 0.36206 0.0
H1557 H 0.21093 0.10658 0.33491 0.0
S1558 S 0.31114 0.14953 0.37023 0.0
N1559 N 0.28443 0.16558 0.38161 0.0
N1560 N 0.29955 0.12478 0.35125 0.0
C1561 C 0.27268 0.12845 0.35411 0.0
C1562 C 0.26446 0.15053 0.37054 0.0
C1563 C 0.86158 0.28101 0.35424 0.0
C1564 C 0.87388 0.26225 0.33705 0.0
C1565 C 0.84549 0.27219 0.37558 0.0
C1566 C 0.84038 0.24441 0.37925 0.0
H1567 H 0.86085 0.30215 0.3487 0.0
H1568 H 0.83308 0.28713 0.38546 0.0
S1569 S 0.87809 0.18836 0.34811 0.0
N1570 N 0.88845 0.2156 0.33206 0.0
N1571 N 0.85674 0.19911 0.37105 0.0
C1572 C 0.85785 0.22616 0.36673 0.0
C1573 C 0.87495 0.23514 0.34559 0.0
C1574 C 0.77651 0.86723 0.33357 0.0
C1575 C 0.74865 0.87156 0.33129 0.0
C1576 C 0.78662 0.84849 0.35213 0.0
C1577 C 0.76912 0.83408 0.36902 0.0
H1578 H 0.78995 0.87441 0.31805 0.0
H1579 H 0.80733 0.84216 0.35019 0.0
S1580 S 0.69665 0.8481 0.37872 0.0
N1581 N 0.70541 0.86716 0.35299 0.0
N1582 N 0.72444 0.83302 0.38879 0.0
C1583 C 0.74258 0.84367 0.3714 0.0
C1584 C 0.73222 0.86219 0.3521 0.0
C1585 C 0.15408 0.72118 0.36289 0.0
C1586 C 0.15859 0.7492 0.36164 0.0
C1587 C 0.13384 0.70909 0.34735 0.0
C1588 C 0.1175 0.72468 0.3302 0.0
H1589 H 0.16857 0.70811 0.37258 0.0
H1590 H 0.13356 0.68727 0.34597 0.0
S1591 S 0.11435 0.79962 0.32923 0.0
N1592 N 0.14021 0.79261 0.34877 0.0
N1593 N 0.10157 0.77019 0.32032 0.0
C1594 C 0.11814 0.75298 0.33362 0.0
C1595 C 0.13899 0.76521 0.34913 0.0
C1596 C 0.20154 0.85045 0.62515 0.0
C1597 C 0.21988 0.83451 0.61057 0.0
C1598 C 0.21056 0.86887 0.64463 0.0
C1599 C 0.23817 0.87173 0.65006 0.0
H1600 H 0.18032 0.84566 0.62461 0.0
H1601 H 0.19585 0.87735 0.65821 0.0
S1602 S 0.29378 0.84379 0.60949 0.0
N1603 N 0.26648 0.82995 0.59661 0.0
N1604 N 0.28329 0.86409 0.63357 0.0
C1605 C 0.2563 0.86061 0.63156 0.0
C1606 C 0.24714 0.84211 0.61153 0.0
C1607 C 0.13584 0.22429 0.62531 0.0
C1608 C 0.15373 0.2403 0.61021 0.0
C1609 C 0.12049 0.23555 0.64614 0.0
C1610 C 0.12262 0.26315 0.65252 0.0
H1611 H 0.13662 0.2025 0.62369 0.0
H1612 H 0.11013 0.2219 0.6596 0.0
S1613 S 0.15845 0.31506 0.61281 0.0
N1614 N 0.16619 0.28626 0.59808 0.0
N1615 N 0.13786 0.30713 0.63751 0.0
C1616 C 0.13617 0.27994 0.63428 0.0
C1617 C 0.15152 0.26856 0.61287 0.0
C1618 C 0.7088 0.13944 0.63227 0.0
C1619 C 0.72669 0.12386 0.64777 0.0
C1620 C 0.71838 0.15692 0.61229 0.0
C1621 C 0.74615 0.15934 0.6074 0.0
H1622 H 0.688 0.14129 0.63833 0.0
H1623 H 0.70442 0.17141 0.60391 0.0
S1624 S 0.79925 0.11446 0.63407 0.0
N1625 N 0.77185 0.10529 0.65031 0.0
N1626 N 0.78982 0.13846 0.6131 0.0
C1627 C 0.76308 0.13952 0.61837 0.0
C1628 C 0.7533 0.12155 0.63853 0.0
C1629 C 0.85768 0.78327 0.63749 0.0
C1630 C 0.84211 0.7655 0.62185 0.0
C1631 C 0.87778 0.77327 0.65453 0.0
C1632 C 0.88187 0.74522 0.65685 0.0
H1633 H 0.85139 0.80405 0.64 0.0
H1634 H 0.88594 0.78691 0.66946 0.0
S1635 S 0.85651 0.69307 0.61016 0.0
N1636 N 0.84019 0.72079 0.60163 0.0
N1637 N 0.87719 0.70198 0.63455 0.0
C1638 C 0.87185 0.72882 0.63615 0.0
C1639 C 0.85179 0.73903 0.61842 0.0
C1640 C 0.33777 0.23297 0.11768 0.0
C1641 C 0.33022 0.26028 0.11971 0.0
C1642 C 0.35996 0.22309 0.13208 0.0
C1643 C 0.37513 0.24026 0.14883 0.0
H1644 H 0.32428 0.21843 0.1086 0.0
H1645 H 0.36247 0.20141 0.13349 0.0
S1646 S 0.37009 0.31498 0.15104 0.0
N1647 N 0.34443 0.30536 0.13233 0.0
N1648 N 0.38644 0.28707 0.15879 0.0
C1649 C 0.37145 0.26831 0.14564 0.0
C1650 C 0.34869 0.27829 0.1313 0.0
C1651 C 0.37639 0.72577 0.83406 0.0
C1652 C 0.37945 0.75346 0.82843 0.0
C1653 C 0.35804 0.71715 0.85363 0.0
C1654 C 0.34259 0.73603 0.86807 0.0
H1655 H 0.38424 0.71075 0.82036 0.0
H1656 H 0.35269 0.69595 0.8541 0.0
S1657 S 0.35431 0.80987 0.87008 0.0
N1658 N 0.37399 0.79889 0.84579 0.0
N1659 N 0.3397 0.78278 0.88271 0.0
C1660 C 0.35112 0.76311 0.86755 0.0
C1661 C 0.36969 0.77186 0.84756 0.0
C1662 C 0.2674 0.35587 0.86159 0.0
C1663 C 0.24966 0.33927 0.87616 0.0
C1664 C 0.25807 0.37152 0.84003 0.0
C1665 C 0.2308 0.37084 0.83254 0.0
H1666 H 0.28889 0.35325 0.86382 0.0
H1667 H 0.27285 0.38038 0.82674 0.0
S1668 S 0.17531 0.34078 0.87177 0.0
N1669 N 0.20281 0.33123 0.88767 0.0
N1670 N 0.18552 0.35988 0.84663 0.0
C1671 C 0.21249 0.35956 0.85075 0.0
C1672 C 0.22193 0.34404 0.87297 0.0
C1673 C 0.63332 0.23041 0.84347 0.0
C1674 C 0.63913 0.23366 0.81605 0.0
C1675 C 0.65005 0.24219 0.86328 0.0
C1676 C 0.67211 0.25869 0.85616 0.0
H1677 H 0.61663 0.21783 0.84959 0.0
H1678 H 0.6461 0.23792 0.88421 0.0
S1679 S 0.69555 0.2727 0.78677 0.0
N1680 N 0.66959 0.25242 0.7832 0.0
N1681 N 0.69734 0.27849 0.81921 0.0
C1682 C 0.67673 0.26323 0.82866 0.0
C1683 C 0.66123 0.24964 0.80895 0.0
C1684 C 0.71914 0.62127 0.8383 0.0
C1685 C 0.74667 0.62039 0.83199 0.0
C1686 C 0.70957 0.63904 0.85803 0.0
C1687 C 0.72734 0.65615 0.87204 0.0
H1688 H 0.70457 0.61179 0.82514 0.0
H1689 H 0.68812 0.64248 0.85915 0.0
S1690 S 0.80169 0.65224 0.87069 0.0
N1691 N 0.79175 0.63123 0.84693 0.0
N1692 N 0.77398 0.66397 0.88457 0.0
C1693 C 0.75499 0.65041 0.8703 0.0
C1694 C 0.76468 0.63269 0.84992 0.0
C1695 C 0.65032 0.76284 0.11369 0.0
C1696 C 0.65186 0.73453 0.11162 0.0
C1697 C 0.63426 0.77473 0.13351 0.0
C1698 C 0.61901 0.75854 0.15102 0.0
H1699 H 0.66525 0.77545 0.10405 0.0
H1700 H 0.63748 0.79587 0.13811 0.0
S1701 S 0.60398 0.68594 0.14138 0.0
N1702 N 0.62815 0.6925 0.11964 0.0
N1703 N 0.59729 0.71486 0.15646 0.0
C1704 C 0.61448 0.73159 0.14338 0.0
C1705 C 0.63114 0.71947 0.12349 0.0
C1706 C 0.2309 0.63398 0.12525 0.0
C1707 C 0.24917 0.61944 0.14126 0.0
C1708 C 0.24017 0.65345 0.10704 0.0
C1709 C 0.26785 0.65901 0.10503 0.0
H1710 H 0.20973 0.63392 0.13024 0.0
H1711 H 0.22559 0.66747 0.09889 0.0
S1712 S 0.32259 0.61536 0.1301 0.0
N1713 N 0.29521 0.60324 0.14438 0.0
N1714 N 0.31256 0.64059 0.11086 0.0
C1715 C 0.28564 0.63948 0.11497 0.0
C1716 C 0.27621 0.6193 0.13307 0.0
C1717 C 0.77485 0.35831 0.12687 0.0
C1718 C 0.76129 0.37398 0.14614 0.0
C1719 C 0.76104 0.33864 0.11198 0.0
C1720 C 0.73341 0.33427 0.11615 0.0
H1721 H 0.7966 0.35794 0.12666 0.0
H1722 H 0.77287 0.32407 0.10092 0.0
S1723 S 0.68741 0.37893 0.15382 0.0
N1724 N 0.71767 0.39091 0.16034 0.0
N1725 N 0.69192 0.35351 0.13288 0.0
C1726 C 0.71903 0.35427 0.12996 0.0
C1727 C 0.73303 0.3745 0.14481 0.0
loop_
_geom_bond_atom_site_label_1
_geom_bond_atom_site_label_2
_geom_bond_distance
_geom_bond_site_symmetry_2
_ccdc_geom_bond_type
Co0 O1 2.216 . S
Co0 O2 2.091 . S
Co0 O4 2.004 . S
Co0 O10 2.021 . S
Co0 O12 2.137 . S
Co0 O13 2.244 . S
O1 Co0 2.216 . S
O1 C8 1.247 . S
O2 Co0 2.091 . S
O2 C8 1.261 . S
C3 O12 1.247 . S
C3 O13 1.272 . S
O4 Co0 2.004 . S
O4 C9 1.259 . S
Co5 O6 2.061 . S
Co5 O11 2.052 . S
Co5 O13 2.135 . S
O6 Co5 2.061 . S
O6 C9 1.235 . S
C7 O10 1.238 . S
C7 O11 1.241 . S
C8 O1 1.247 . S
C8 O2 1.261 . S
C9 O4 1.259 . S
C9 O6 1.235 . S
O10 Co0 2.021 . S
O10 C7 1.238 . S
O11 Co5 2.052 . S
O11 C7 1.241 . S
O12 Co0 2.137 . S
O12 C3 1.247 . S
O13 Co0 2.244 . S
O13 C3 1.272 . S
O13 Co5 2.135 . S
Co14 O15 2.216 . S
Co14 O16 2.091 . S
Co14 O18 2.004 . S
Co14 O24 2.021 . S
Co14 O26 2.137 . S
Co14 O27 2.244 . S
O15 Co14 2.216 . S
O15 C22 1.247 . S
O16 Co14 2.091 . S
O16 C22 1.261 . S
C17 O26 1.247 . S
C17 O27 1.272 . S
O18 Co14 2.004 . S
O18 C23 1.259 . S
Co19 O20 2.061 . S
Co19 O25 2.052 . S
Co19 O27 2.135 . S
O20 Co19 2.061 . S
O20 C23 1.235 . S
C21 O24 1.238 . S
C21 O25 1.241 . S
C22 O15 1.247 . S
C22 O16 1.261 . S
C23 O18 1.259 . S
C23 O20 1.235 . S
O24 Co14 2.021 . S
O24 C21 1.238 . S
O25 Co19 2.052 . S
O25 C21 1.241 . S
O26 Co14 2.137 . S
O26 C17 1.247 . S
O27 Co14 2.244 . S
O27 C17 1.272 . S
O27 Co19 2.135 . S
Co28 O29 2.216 . S
Co28 O30 2.091 . S
Co28 O32 2.004 . S
Co28 O38 2.021 . S
Co28 O40 2.137 . S
Co28 O41 2.244 . S
O29 Co28 2.216 . S
O29 C36 1.247 . S
O30 Co28 2.091 . S
O30 C36 1.261 . S
C31 O40 1.247 . S
C31 O41 1.272 . S
O32 Co28 2.004 . S
O32 C37 1.259 . S
Co33 O34 2.061 . S
Co33 O39 2.052 . S
Co33 O41 2.135 . S
O34 Co33 2.061 . S
O34 C37 1.235 . S
C35 O38 1.238 . S
C35 O39 1.241 . S
C36 O29 1.247 . S
C36 O30 1.261 . S
C37 O32 1.259 . S
C37 O34 1.235 . S
O38 Co28 2.021 . S
O38 C35 1.238 . S
O39 Co33 2.052 . S
O39 C35 1.241 . S
O40 Co28 2.137 . S
O40 C31 1.247 . S
O41 Co28 2.244 . S
O41 C31 1.272 . S
O41 Co33 2.135 . S
Co42 O43 2.216 . S
Co42 O44 2.091 . S
Co42 O46 2.004 . S
Co42 O52 2.021 . S
Co42 O54 2.137 . S
Co42 O55 2.244 . S
O43 Co42 2.216 . S
O43 C50 1.247 . S
O44 Co42 2.091 . S
O44 C50 1.261 . S
C45 O54 1.247 . S
C45 O55 1.272 . S
O46 Co42 2.004 . S
O46 C51 1.259 . S
Co47 O48 2.061 . S
Co47 O53 2.052 . S
Co47 O55 2.135 . S
O48 Co47 2.061 . S
O48 C51 1.235 . S
C49 O52 1.238 . S
C49 O53 1.241 . S
C50 O43 1.247 . S
C50 O44 1.261 . S
C51 O46 1.259 . S
C51 O48 1.235 . S
O52 Co42 2.021 . S
O52 C49 1.238 . S
O53 Co47 2.052 . S
O53 C49 1.241 . S
O54 Co42 2.137 . S
O54 C45 1.247 . S
O55 Co42 2.244 . S
O55 C45 1.272 . S
O55 Co47 2.135 . S
Co56 O57 2.216 . S
Co56 O58 2.091 . S
Co56 O60 2.004 . S
Co56 O66 2.021 . S
Co56 O68 2.137 . S
Co56 O69 2.244 . S
O57 Co56 2.216 . S
O57 C64 1.247 . S
O58 Co56 2.091 . S
O58 C64 1.261 . S
C59 O68 1.247 . S
C59 O69 1.272 . S
O60 Co56 2.004 . S
O60 C65 1.259 . S
Co61 O62 2.061 . S
Co61 O67 2.052 . S
Co61 O69 2.135 . S
O62 Co61 2.061 . S
O62 C65 1.235 . S
C63 O66 1.238 . S
C63 O67 1.241 . S
C64 O57 1.247 . S
C64 O58 1.261 . S
C65 O60 1.259 . S
C65 O62 1.235 . S
O66 Co56 2.021 . S
O66 C63 1.238 . S
O67 Co61 2.052 . S
O67 C63 1.241 . S
O68 Co56 2.137 . S
O68 C59 1.247 . S
O69 Co56 2.244 . S
O69 C59 1.272 . S
O69 Co61 2.135 . S
Co70 O71 2.216 . S
Co70 O72 2.091 . S
Co70 O74 2.004 . S
Co70 O80 2.021 . S
Co70 O82 2.137 . S
Co70 O83 2.244 . S
O71 Co70 2.216 . S
O71 C78 1.247 . S
O72 Co70 2.091 . S
O72 C78 1.261 . S
C73 O82 1.247 . S
C73 O83 1.272 . S
O74 Co70 2.004 . S
O74 C79 1.259 . S
Co75 O76 2.061 . S
Co75 O81 2.052 . S
Co75 O83 2.135 . S
O76 Co75 2.061 . S
O76 C79 1.235 . S
C77 O80 1.238 . S
C77 O81 1.241 . S
C78 O71 1.247 . S
C78 O72 1.261 . S
C79 O74 1.259 . S
C79 O76 1.235 . S
O80 Co70 2.021 . S
O80 C77 1.238 . S
O81 Co75 2.052 . S
O81 C77 1.241 . S
O82 Co70 2.137 . S
O82 C73 1.247 . S
O83 Co70 2.244 . S
O83 C73 1.272 . S
O83 Co75 2.135 . S
Co84 O85 2.216 . S
Co84 O86 2.091 . S
Co84 O88 2.004 . S
Co84 O94 2.021 . S
Co84 O96 2.137 . S
Co84 O97 2.244 . S
O85 Co84 2.216 . S
O85 C92 1.247 . S
O86 Co84 2.091 . S
O86 C92 1.261 . S
C87 O96 1.247 . S
C87 O97 1.272 . S
O88 Co84 2.004 . S
O88 C93 1.259 . S
Co89 O90 2.061 . S
Co89 O95 2.052 . S
Co89 O97 2.135 . S
O90 Co89 2.061 . S
O90 C93 1.235 . S
C91 O94 1.238 . S
C91 O95 1.241 . S
C92 O85 1.247 . S
C92 O86 1.261 . S
C93 O88 1.259 . S
C93 O90 1.235 . S
O94 Co84 2.021 . S
O94 C91 1.238 . S
O95 Co89 2.052 . S
O95 C91 1.241 . S
O96 Co84 2.137 . S
O96 C87 1.247 . S
O97 Co84 2.244 . S
O97 C87 1.272 . S
O97 Co89 2.135 . S
Co98 O99 2.216 . S
Co98 O100 2.091 . S
Co98 O102 2.004 . S
Co98 O108 2.021 . S
Co98 O110 2.137 . S
Co98 O111 2.244 . S
O99 Co98 2.216 . S
O99 C106 1.247 . S
O100 Co98 2.091 . S
O100 C106 1.261 . S
C101 O110 1.247 . S
C101 O111 1.272 . S
O102 Co98 2.004 . S
O102 C107 1.259 . S
Co103 O104 2.061 . S
Co103 O109 2.052 . S
Co103 O111 2.135 . S
O104 Co103 2.061 . S
O104 C107 1.235 . S
C105 O108 1.238 . S
C105 O109 1.241 . S
C106 O99 1.247 . S
C106 O100 1.261 . S
C107 O102 1.259 . S
C107 O104 1.235 . S
O108 Co98 2.021 . S
O108 C105 1.238 . S
O109 Co103 2.052 . S
O109 C105 1.241 . S
O110 Co98 2.137 . S
O110 C101 1.247 . S
O111 Co98 2.244 . S
O111 C101 1.272 . S
O111 Co103 2.135 . S
Co112 O113 2.216 . S
Co112 O114 2.091 . S
Co112 O116 2.004 . S
Co112 O122 2.021 . S
Co112 O124 2.137 . S
Co112 O125 2.244 . S
O113 Co112 2.216 . S
O113 C120 1.247 . S
O114 Co112 2.091 . S
O114 C120 1.261 . S
C115 O124 1.247 . S
C115 O125 1.272 . S
O116 Co112 2.004 . S
O116 C121 1.259 . S
Co117 O118 2.061 . S
Co117 O123 2.052 . S
Co117 O125 2.135 . S
O118 Co117 2.061 . S
O118 C121 1.235 . S
C119 O122 1.238 . S
C119 O123 1.241 . S
C120 O113 1.247 . S
C120 O114 1.261 . S
C121 O116 1.259 . S
C121 O118 1.235 . S
O122 Co112 2.021 . S
O122 C119 1.238 . S
O123 Co117 2.052 . S
O123 C119 1.241 . S
O124 Co112 2.137 . S
O124 C115 1.247 . S
O125 Co112 2.244 . S
O125 C115 1.272 . S
O125 Co117 2.135 . S
Co126 O127 2.216 . S
Co126 O128 2.091 . S
Co126 O130 2.004 . S
Co126 O136 2.021 . S
Co126 O138 2.137 . S
Co126 O139 2.244 . S
O127 Co126 2.216 . S
O127 C134 1.247 . S
O128 Co126 2.091 . S
O128 C134 1.261 . S
C129 O138 1.247 . S
C129 O139 1.272 . S
O130 Co126 2.004 . S
O130 C135 1.259 . S
Co131 O132 2.061 . S
Co131 O137 2.052 . S
Co131 O139 2.135 . S
O132 Co131 2.061 . S
O132 C135 1.235 . S
C133 O136 1.238 . S
C133 O137 1.241 . S
C134 O127 1.247 . S
C134 O128 1.261 . S
C135 O130 1.259 . S
C135 O132 1.235 . S
O136 Co126 2.021 . S
O136 C133 1.238 . S
O137 Co131 2.052 . S
O137 C133 1.241 . S
O138 Co126 2.137 . S
O138 C129 1.247 . S
O139 Co126 2.244 . S
O139 C129 1.272 . S
O139 Co131 2.135 . S
Co140 O141 2.216 . S
Co140 O142 2.091 . S
Co140 O144 2.004 . S
Co140 O150 2.021 . S
Co140 O152 2.137 . S
Co140 O153 2.244 . S
O141 Co140 2.216 . S
O141 C148 1.247 . S
O142 Co140 2.091 . S
O142 C148 1.261 . S
C143 O152 1.247 . S
C143 O153 1.272 . S
O144 Co140 2.004 . S
O144 C149 1.259 . S
Co145 O146 2.061 . S
Co145 O151 2.052 . S
Co145 O153 2.135 . S
O146 Co145 2.061 . S
O146 C149 1.235 . S
C147 O150 1.238 . S
C147 O151 1.241 . S
C148 O141 1.247 . S
C148 O142 1.261 . S
C149 O144 1.259 . S
C149 O146 1.235 . S
O150 Co140 2.021 . S
O150 C147 1.238 . S
O151 Co145 2.052 . S
O151 C147 1.241 . S
O152 Co140 2.137 . S
O152 C143 1.247 . S
O153 Co140 2.244 . S
O153 C143 1.272 . S
O153 Co145 2.135 . S
Co154 O155 2.216 . S
Co154 O156 2.091 . S
Co154 O158 2.004 . S
Co154 O164 2.021 . S
Co154 O166 2.137 . S
Co154 O167 2.244 . S
O155 Co154 2.216 . S
O155 C162 1.247 . S
O156 Co154 2.091 . S
O156 C162 1.261 . S
C157 O166 1.247 . S
C157 O167 1.272 . S
O158 Co154 2.004 . S
O158 C163 1.259 . S
Co159 O160 2.061 . S
Co159 O165 2.052 . S
Co159 O167 2.135 . S
O160 Co159 2.061 . S
O160 C163 1.235 . S
C161 O164 1.238 . S
C161 O165 1.241 . S
C162 O155 1.247 . S
C162 O156 1.261 . S
C163 O158 1.259 . S
C163 O160 1.235 . S
O164 Co154 2.021 . S
O164 C161 1.238 . S
O165 Co159 2.052 . S
O165 C161 1.241 . S
O166 Co154 2.137 . S
O166 C157 1.247 . S
O167 Co154 2.244 . S
O167 C157 1.272 . S
O167 Co159 2.135 . S
Co168 O169 2.216 . S
Co168 O170 2.091 . S
Co168 O172 2.004 . S
Co168 O178 2.021 . S
Co168 O180 2.137 . S
Co168 O181 2.244 . S
O169 Co168 2.216 . S
O169 C176 1.247 . S
O170 Co168 2.091 . S
O170 C176 1.261 . S
C171 O180 1.247 . S
C171 O181 1.272 . S
O172 Co168 2.004 . S
O172 C177 1.259 . S
Co173 O174 2.061 . S
Co173 O179 2.052 . S
Co173 O181 2.135 . S
O174 Co173 2.061 . S
O174 C177 1.235 . S
C175 O178 1.238 . S
C175 O179 1.241 . S
C176 O169 1.247 . S
C176 O170 1.261 . S
C177 O172 1.259 . S
C177 O174 1.235 . S
O178 Co168 2.021 . S
O178 C175 1.238 . S
O179 Co173 2.052 . S
O179 C175 1.241 . S
O180 Co168 2.137 . S
O180 C171 1.247 . S
O181 Co168 2.244 . S
O181 C171 1.272 . S
O181 Co173 2.135 . S
Co182 O183 2.216 . S
Co182 O184 2.091 . S
Co182 O186 2.004 . S
Co182 O192 2.021 . S
Co182 O194 2.137 . S
Co182 O195 2.244 . S
O183 Co182 2.216 . S
O183 C190 1.247 . S
O184 Co182 2.091 . S
O184 C190 1.261 . S
C185 O194 1.247 . S
C185 O195 1.272 . S
O186 Co182 2.004 . S
O186 C191 1.259 . S
Co187 O188 2.061 . S
Co187 O193 2.052 . S
Co187 O195 2.135 . S
O188 Co187 2.061 . S
O188 C191 1.235 . S
C189 O192 1.238 . S
C189 O193 1.241 . S
C190 O183 1.247 . S
C190 O184 1.261 . S
C191 O186 1.259 . S
C191 O188 1.235 . S
O192 Co182 2.021 . S
O192 C189 1.238 . S
O193 Co187 2.052 . S
O193 C189 1.241 . S
O194 Co182 2.137 . S
O194 C185 1.247 . S
O195 Co182 2.244 . S
O195 C185 1.272 . S
O195 Co187 2.135 . S
Co196 O197 2.216 . S
Co196 O198 2.091 . S
Co196 O200 2.004 . S
Co196 O206 2.021 . S
Co196 O208 2.137 . S
Co196 O209 2.244 . S
O197 Co196 2.216 . S
O197 C204 1.247 . S
O198 Co196 2.091 . S
O198 C204 1.261 . S
C199 O208 1.247 . S
C199 O209 1.272 . S
O200 Co196 2.004 . S
O200 C205 1.259 . S
Co201 O202 2.061 . S
Co201 O207 2.052 . S
Co201 O209 2.135 . S
O202 Co201 2.061 . S
O202 C205 1.235 . S
C203 O206 1.238 . S
C203 O207 1.241 . S
C204 O197 1.247 . S
C204 O198 1.261 . S
C205 O200 1.259 . S
C205 O202 1.235 . S
O206 Co196 2.021 . S
O206 C203 1.238 . S
O207 Co201 2.052 . S
O207 C203 1.241 . S
O208 Co196 2.137 . S
O208 C199 1.247 . S
O209 Co196 2.244 . S
O209 C199 1.272 . S
O209 Co201 2.135 . S
Co210 O211 2.216 . S
Co210 O212 2.091 . S
Co210 O214 2.004 . S
Co210 O220 2.021 . S
Co210 O222 2.137 . S
Co210 O223 2.244 . S
O211 Co210 2.216 . S
O211 C218 1.247 . S
O212 Co210 2.091 . S
O212 C218 1.261 . S
C213 O222 1.247 . S
C213 O223 1.272 . S
O214 Co210 2.004 . S
O214 C219 1.259 . S
Co215 O216 2.061 . S
Co215 O221 2.052 . S
Co215 O223 2.135 . S
O216 Co215 2.061 . S
O216 C219 1.235 . S
C217 O220 1.238 . S
C217 O221 1.241 . S
C218 O211 1.247 . S
C218 O212 1.261 . S
C219 O214 1.259 . S
C219 O216 1.235 . S
O220 Co210 2.021 . S
O220 C217 1.238 . S
O221 Co215 2.052 . S
O221 C217 1.241 . S
O222 Co210 2.137 . S
O222 C213 1.247 . S
O223 Co210 2.244 . S
O223 C213 1.272 . S
O223 Co215 2.135 . S
Co224 O225 2.216 . S
Co224 O226 2.091 . S
Co224 O228 2.004 . S
Co224 O234 2.021 . S
Co224 O236 2.137 . S
Co224 O237 2.244 . S
O225 Co224 2.216 . S
O225 C232 1.247 . S
O226 Co224 2.091 . S
O226 C232 1.261 . S
C227 O236 1.247 . S
C227 O237 1.272 . S
O228 Co224 2.004 . S
O228 C233 1.259 . S
Co229 O230 2.061 . S
Co229 O235 2.052 . S
Co229 O237 2.135 . S
O230 Co229 2.061 . S
O230 C233 1.235 . S
C231 O234 1.238 . S
C231 O235 1.241 . S
C232 O225 1.247 . S
C232 O226 1.261 . S
C233 O228 1.259 . S
C233 O230 1.235 . S
O234 Co224 2.021 . S
O234 C231 1.238 . S
O235 Co229 2.052 . S
O235 C231 1.241 . S
O236 Co224 2.137 . S
O236 C227 1.247 . S
O237 Co224 2.244 . S
O237 C227 1.272 . S
O237 Co229 2.135 . S
Co238 O239 2.216 . S
Co238 O240 2.091 . S
Co238 O242 2.004 . S
Co238 O248 2.021 . S
Co238 O250 2.137 . S
Co238 O251 2.244 . S
O239 Co238 2.216 . S
O239 C246 1.247 . S
O240 Co238 2.091 . S
O240 C246 1.261 . S
C241 O250 1.247 . S
C241 O251 1.272 . S
O242 Co238 2.004 . S
O242 C247 1.259 . S
Co243 O244 2.061 . S
Co243 O249 2.052 . S
Co243 O251 2.135 . S
O244 Co243 2.061 . S
O244 C247 1.235 . S
C245 O248 1.238 . S
C245 O249 1.241 . S
C246 O239 1.247 . S
C246 O240 1.261 . S
C247 O242 1.259 . S
C247 O244 1.235 . S
O248 Co238 2.021 . S
O248 C245 1.238 . S
O249 Co243 2.052 . S
O249 C245 1.241 . S
O250 Co238 2.137 . S
O250 C241 1.247 . S
O251 Co238 2.244 . S
O251 C241 1.272 . S
O251 Co243 2.135 . S
Co252 O253 2.216 . S
Co252 O254 2.091 . S
Co252 O256 2.004 . S
Co252 O262 2.021 . S
Co252 O264 2.137 . S
Co252 O265 2.244 . S
O253 Co252 2.216 . S
O253 C260 1.247 . S
O254 Co252 2.091 . S
O254 C260 1.261 . S
C255 O264 1.247 . S
C255 O265 1.272 . S
O256 Co252 2.004 . S
O256 C261 1.259 . S
Co257 O258 2.061 . S
Co257 O263 2.052 . S
Co257 O265 2.135 . S
O258 Co257 2.061 . S
O258 C261 1.235 . S
C259 O262 1.238 . S
C259 O263 1.241 . S
C260 O253 1.247 . S
C260 O254 1.261 . S
C261 O256 1.259 . S
C261 O258 1.235 . S
O262 Co252 2.021 . S
O262 C259 1.238 . S
O263 Co257 2.052 . S
O263 C259 1.241 . S
O264 Co252 2.137 . S
O264 C255 1.247 . S
O265 Co252 2.244 . S
O265 C255 1.272 . S
O265 Co257 2.135 . S
Co266 O267 2.216 . S
Co266 O268 2.091 . S
Co266 O270 2.004 . S
Co266 O276 2.021 . S
Co266 O278 2.137 . S
Co266 O279 2.244 . S
O267 Co266 2.216 . S
O267 C274 1.247 . S
O268 Co266 2.091 . S
O268 C274 1.261 . S
C269 O278 1.247 . S
C269 O279 1.272 . S
O270 Co266 2.004 . S
O270 C275 1.259 . S
Co271 O272 2.061 . S
Co271 O277 2.052 . S
Co271 O279 2.135 . S
O272 Co271 2.061 . S
O272 C275 1.235 . S
C273 O276 1.238 . S
C273 O277 1.241 . S
C274 O267 1.247 . S
C274 O268 1.261 . S
C275 O270 1.259 . S
C275 O272 1.235 . S
O276 Co266 2.021 . S
O276 C273 1.238 . S
O277 Co271 2.052 . S
O277 C273 1.241 . S
O278 Co266 2.137 . S
O278 C269 1.247 . S
O279 Co266 2.244 . S
O279 C269 1.272 . S
O279 Co271 2.135 . S
Co280 O281 2.216 . S
Co280 O282 2.091 . S
Co280 O284 2.004 . S
Co280 O290 2.021 . S
Co280 O292 2.137 . S
Co280 O293 2.244 . S
O281 Co280 2.216 . S
O281 C288 1.247 . S
O282 Co280 2.091 . S
O282 C288 1.261 . S
C283 O292 1.247 . S
C283 O293 1.272 . S
O284 Co280 2.004 . S
O284 C289 1.259 . S
Co285 O286 2.061 . S
Co285 O291 2.052 . S
Co285 O293 2.135 . S
O286 Co285 2.061 . S
O286 C289 1.235 . S
C287 O290 1.238 . S
C287 O291 1.241 . S
C288 O281 1.247 . S
C288 O282 1.261 . S
C289 O284 1.259 . S
C289 O286 1.235 . S
O290 Co280 2.021 . S
O290 C287 1.238 . S
O291 Co285 2.052 . S
O291 C287 1.241 . S
O292 Co280 2.137 . S
O292 C283 1.247 . S
O293 Co280 2.244 . S
O293 C283 1.272 . S
O293 Co285 2.135 . S
Co294 O295 2.216 . S
Co294 O296 2.091 . S
Co294 O298 2.004 . S
Co294 O304 2.021 . S
Co294 O306 2.137 . S
Co294 O307 2.244 . S
O295 Co294 2.216 . S
O295 C302 1.247 . S
O296 Co294 2.091 . S
O296 C302 1.261 . S
C297 O306 1.247 . S
C297 O307 1.272 . S
O298 Co294 2.004 . S
O298 C303 1.259 . S
Co299 O300 2.061 . S
Co299 O305 2.052 . S
Co299 O307 2.135 . S
O300 Co299 2.061 . S
O300 C303 1.235 . S
C301 O304 1.238 . S
C301 O305 1.241 . S
C302 O295 1.247 . S
C302 O296 1.261 . S
C303 O298 1.259 . S
C303 O300 1.235 . S
O304 Co294 2.021 . S
O304 C301 1.238 . S
O305 Co299 2.052 . S
O305 C301 1.241 . S
O306 Co294 2.137 . S
O306 C297 1.247 . S
O307 Co294 2.244 . S
O307 C297 1.272 . S
O307 Co299 2.135 . S
Co308 O309 2.216 . S
Co308 O310 2.091 . S
Co308 O312 2.004 . S
Co308 O318 2.021 . S
Co308 O320 2.137 . S
Co308 O321 2.244 . S
O309 Co308 2.216 . S
O309 C316 1.247 . S
O310 Co308 2.091 . S
O310 C316 1.261 . S
C311 O320 1.247 . S
C311 O321 1.272 . S
O312 Co308 2.004 . S
O312 C317 1.259 . S
Co313 O314 2.061 . S
Co313 O319 2.052 . S
Co313 O321 2.135 . S
O314 Co313 2.061 . S
O314 C317 1.235 . S
C315 O318 1.238 . S
C315 O319 1.241 . S
C316 O309 1.247 . S
C316 O310 1.261 . S
C317 O312 1.259 . S
C317 O314 1.235 . S
O318 Co308 2.021 . S
O318 C315 1.238 . S
O319 Co313 2.052 . S
O319 C315 1.241 . S
O320 Co308 2.137 . S
O320 C311 1.247 . S
O321 Co308 2.244 . S
O321 C311 1.272 . S
O321 Co313 2.135 . S
Co322 O323 2.216 . S
Co322 O324 2.091 . S
Co322 O326 2.004 . S
Co322 O332 2.021 . S
Co322 O334 2.137 . S
Co322 O335 2.244 . S
O323 Co322 2.216 . S
O323 C330 1.247 . S
O324 Co322 2.091 . S
O324 C330 1.261 . S
C325 O334 1.247 . S
C325 O335 1.272 . S
O326 Co322 2.004 . S
O326 C331 1.259 . S
Co327 O328 2.061 . S
Co327 O333 2.052 . S
Co327 O335 2.135 . S
O328 Co327 2.061 . S
O328 C331 1.235 . S
C329 O332 1.238 . S
C329 O333 1.241 . S
C330 O323 1.247 . S
C330 O324 1.261 . S
C331 O326 1.259 . S
C331 O328 1.235 . S
O332 Co322 2.021 . S
O332 C329 1.238 . S
O333 Co327 2.052 . S
O333 C329 1.241 . S
O334 Co322 2.137 . S
O334 C325 1.247 . S
O335 Co322 2.244 . S
O335 C325 1.272 . S
O335 Co327 2.135 . S
Co336 O337 2.216 . S
Co336 O338 2.091 . S
Co336 O340 2.004 . S
Co336 O346 2.021 . S
Co336 O348 2.137 . S
Co336 O349 2.244 . S
O337 Co336 2.216 . S
O337 C344 1.247 . S
O338 Co336 2.091 . S
O338 C344 1.261 . S
C339 O348 1.247 . S
C339 O349 1.272 . S
O340 Co336 2.004 . S
O340 C345 1.259 . S
Co341 O342 2.061 . S
Co341 O347 2.052 . S
Co341 O349 2.135 . S
O342 Co341 2.061 . S
O342 C345 1.235 . S
C343 O346 1.238 . S
C343 O347 1.241 . S
C344 O337 1.247 . S
C344 O338 1.261 . S
C345 O340 1.259 . S
C345 O342 1.235 . S
O346 Co336 2.021 . S
O346 C343 1.238 . S
O347 Co341 2.052 . S
O347 C343 1.241 . S
O348 Co336 2.137 . S
O348 C339 1.247 . S
O349 Co336 2.244 . S
O349 C339 1.272 . S
O349 Co341 2.135 . S
Co350 O351 2.216 . S
Co350 O352 2.091 . S
Co350 O354 2.004 . S
Co350 O360 2.021 . S
Co350 O362 2.137 . S
Co350 O363 2.244 . S
O351 Co350 2.216 . S
O351 C358 1.247 . S
O352 Co350 2.091 . S
O352 C358 1.261 . S
C353 O362 1.247 . S
C353 O363 1.272 . S
O354 Co350 2.004 . S
O354 C359 1.259 . S
Co355 O356 2.061 . S
Co355 O361 2.052 . S
Co355 O363 2.135 . S
O356 Co355 2.061 . S
O356 C359 1.235 . S
C357 O360 1.238 . S
C357 O361 1.241 . S
C358 O351 1.247 . S
C358 O352 1.261 . S
C359 O354 1.259 . S
C359 O356 1.235 . S
O360 Co350 2.021 . S
O360 C357 1.238 . S
O361 Co355 2.052 . S
O361 C357 1.241 . S
O362 Co350 2.137 . S
O362 C353 1.247 . S
O363 Co350 2.244 . S
O363 C353 1.272 . S
O363 Co355 2.135 . S
Co364 O365 2.216 . S
Co364 O366 2.091 . S
Co364 O368 2.004 . S
Co364 O374 2.021 . S
Co364 O376 2.137 . S
Co364 O377 2.244 . S
O365 Co364 2.216 . S
O365 C372 1.247 . S
O366 Co364 2.091 . S
O366 C372 1.261 . S
C367 O376 1.247 . S
C367 O377 1.272 . S
O368 Co364 2.004 . S
O368 C373 1.259 . S
Co369 O370 2.061 . S
Co369 O375 2.052 . S
Co369 O377 2.135 . S
O370 Co369 2.061 . S
O370 C373 1.235 . S
C371 O374 1.238 . S
C371 O375 1.241 . S
C372 O365 1.247 . S
C372 O366 1.261 . S
C373 O368 1.259 . S
C373 O370 1.235 . S
O374 Co364 2.021 . S
O374 C371 1.238 . S
O375 Co369 2.052 . S
O375 C371 1.241 . S
O376 Co364 2.137 . S
O376 C367 1.247 . S
O377 Co364 2.244 . S
O377 C367 1.272 . S
O377 Co369 2.135 . S
Co378 O379 2.216 . S
Co378 O380 2.091 . S
Co378 O382 2.004 . S
Co378 O388 2.021 . S
Co378 O390 2.137 . S
Co378 O391 2.244 . S
O379 Co378 2.216 . S
O379 C386 1.247 . S
O380 Co378 2.091 . S
O380 C386 1.261 . S
C381 O390 1.247 . S
C381 O391 1.272 . S
O382 Co378 2.004 . S
O382 C387 1.259 . S
Co383 O384 2.061 . S
Co383 O389 2.052 . S
Co383 O391 2.135 . S
O384 Co383 2.061 . S
O384 C387 1.235 . S
C385 O388 1.238 . S
C385 O389 1.241 . S
C386 O379 1.247 . S
C386 O380 1.261 . S
C387 O382 1.259 . S
C387 O384 1.235 . S
O388 Co378 2.021 . S
O388 C385 1.238 . S
O389 Co383 2.052 . S
O389 C385 1.241 . S
O390 Co378 2.137 . S
O390 C381 1.247 . S
O391 Co378 2.244 . S
O391 C381 1.272 . S
O391 Co383 2.135 . S
Co392 O393 2.216 . S
Co392 O394 2.091 . S
Co392 O396 2.004 . S
Co392 O402 2.021 . S
Co392 O404 2.137 . S
Co392 O405 2.244 . S
O393 Co392 2.216 . S
O393 C400 1.247 . S
O394 Co392 2.091 . S
O394 C400 1.261 . S
C395 O404 1.247 . S
C395 O405 1.272 . S
O396 Co392 2.004 . S
O396 C401 1.259 . S
Co397 O398 2.061 . S
Co397 O403 2.052 . S
Co397 O405 2.135 . S
O398 Co397 2.061 . S
O398 C401 1.235 . S
C399 O402 1.238 . S
C399 O403 1.241 . S
C400 O393 1.247 . S
C400 O394 1.261 . S
C401 O396 1.259 . S
C401 O398 1.235 . S
O402 Co392 2.021 . S
O402 C399 1.238 . S
O403 Co397 2.052 . S
O403 C399 1.241 . S
O404 Co392 2.137 . S
O404 C395 1.247 . S
O405 Co392 2.244 . S
O405 C395 1.272 . S
O405 Co397 2.135 . S
Co406 O407 2.216 . S
Co406 O408 2.091 . S
Co406 O410 2.004 . S
Co406 O416 2.021 . S
Co406 O418 2.137 . S
Co406 O419 2.244 . S
O407 Co406 2.216 . S
O407 C414 1.247 . S
O408 Co406 2.091 . S
O408 C414 1.261 . S
C409 O418 1.247 . S
C409 O419 1.272 . S
O410 Co406 2.004 . S
O410 C415 1.259 . S
Co411 O412 2.061 . S
Co411 O417 2.052 . S
Co411 O419 2.135 . S
O412 Co411 2.061 . S
O412 C415 1.235 . S
C413 O416 1.238 . S
C413 O417 1.241 . S
C414 O407 1.247 . S
C414 O408 1.261 . S
C415 O410 1.259 . S
C415 O412 1.235 . S
O416 Co406 2.021 . S
O416 C413 1.238 . S
O417 Co411 2.052 . S
O417 C413 1.241 . S
O418 Co406 2.137 . S
O418 C409 1.247 . S
O419 Co406 2.244 . S
O419 C409 1.272 . S
O419 Co411 2.135 . S
Co420 O421 2.216 . S
Co420 O422 2.091 . S
Co420 O424 2.004 . S
Co420 O430 2.021 . S
Co420 O432 2.137 . S
Co420 O433 2.244 . S
O421 Co420 2.216 . S
O421 C428 1.247 . S
O422 Co420 2.091 . S
O422 C428 1.261 . S
C423 O432 1.247 . S
C423 O433 1.272 . S
O424 Co420 2.004 . S
O424 C429 1.259 . S
Co425 O426 2.061 . S
Co425 O431 2.052 . S
Co425 O433 2.135 . S
O426 Co425 2.061 . S
O426 C429 1.235 . S
C427 O430 1.238 . S
C427 O431 1.241 . S
C428 O421 1.247 . S
C428 O422 1.261 . S
C429 O424 1.259 . S
C429 O426 1.235 . S
O430 Co420 2.021 . S
O430 C427 1.238 . S
O431 Co425 2.052 . S
O431 C427 1.241 . S
O432 Co420 2.137 . S
O432 C423 1.247 . S
O433 Co420 2.244 . S
O433 C423 1.272 . S
O433 Co425 2.135 . S
Co434 O435 2.216 . S
Co434 O436 2.091 . S
Co434 O438 2.004 . S
Co434 O444 2.021 . S
Co434 O446 2.137 . S
Co434 O447 2.244 . S
O435 Co434 2.216 . S
O435 C442 1.247 . S
O436 Co434 2.091 . S
O436 C442 1.261 . S
C437 O446 1.247 . S
C437 O447 1.272 . S
O438 Co434 2.004 . S
O438 C443 1.259 . S
Co439 O440 2.061 . S
Co439 O445 2.052 . S
Co439 O447 2.135 . S
O440 Co439 2.061 . S
O440 C443 1.235 . S
C441 O444 1.238 . S
C441 O445 1.241 . S
C442 O435 1.247 . S
C442 O436 1.261 . S
C443 O438 1.259 . S
C443 O440 1.235 . S
O444 Co434 2.021 . S
O444 C441 1.238 . S
O445 Co439 2.052 . S
O445 C441 1.241 . S
O446 Co434 2.137 . S
O446 C437 1.247 . S
O447 Co434 2.244 . S
O447 C437 1.272 . S
O447 Co439 2.135 . S
Co448 O449 2.216 . S
Co448 O450 2.091 . S
Co448 O452 2.004 . S
Co448 O458 2.021 . S
Co448 O460 2.137 . S
Co448 O461 2.244 . S
O449 Co448 2.216 . S
O449 C456 1.247 . S
O450 Co448 2.091 . S
O450 C456 1.261 . S
C451 O460 1.247 . S
C451 O461 1.272 . S
O452 Co448 2.004 . S
O452 C457 1.259 . S
Co453 O454 2.061 . S
Co453 O459 2.052 . S
Co453 O461 2.135 . S
O454 Co453 2.061 . S
O454 C457 1.235 . S
C455 O458 1.238 . S
C455 O459 1.241 . S
C456 O449 1.247 . S
C456 O450 1.261 . S
C457 O452 1.259 . S
C457 O454 1.235 . S
O458 Co448 2.021 . S
O458 C455 1.238 . S
O459 Co453 2.052 . S
O459 C455 1.241 . S
O460 Co448 2.137 . S
O460 C451 1.247 . S
O461 Co448 2.244 . S
O461 C451 1.272 . S
O461 Co453 2.135 . S
Co462 O463 2.216 . S
Co462 O464 2.091 . S
Co462 O466 2.004 . S
Co462 O472 2.021 . S
Co462 O474 2.137 . S
Co462 O475 2.244 . S
O463 Co462 2.216 . S
O463 C470 1.247 . S
O464 Co462 2.091 . S
O464 C470 1.261 . S
C465 O474 1.247 . S
C465 O475 1.272 . S
O466 Co462 2.004 . S
O466 C471 1.259 . S
Co467 O468 2.061 . S
Co467 O473 2.052 . S
Co467 O475 2.135 . S
O468 Co467 2.061 . S
O468 C471 1.235 . S
C469 O472 1.238 . S
C469 O473 1.241 . S
C470 O463 1.247 . S
C470 O464 1.261 . S
C471 O466 1.259 . S
C471 O468 1.235 . S
O472 Co462 2.021 . S
O472 C469 1.238 . S
O473 Co467 2.052 . S
O473 C469 1.241 . S
O474 Co462 2.137 . S
O474 C465 1.247 . S
O475 Co462 2.244 . S
O475 C465 1.272 . S
O475 Co467 2.135 . S
Co476 O477 2.216 . S
Co476 O478 2.091 . S
Co476 O480 2.004 . S
Co476 O486 2.021 . S
Co476 O488 2.137 . S
Co476 O489 2.244 . S
O477 Co476 2.216 . S
O477 C484 1.247 . S
O478 Co476 2.091 . S
O478 C484 1.261 . S
C479 O488 1.247 . S
C479 O489 1.272 . S
O480 Co476 2.004 . S
O480 C485 1.259 . S
Co481 O482 2.061 . S
Co481 O487 2.052 . S
Co481 O489 2.135 . S
O482 Co481 2.061 . S
O482 C485 1.235 . S
C483 O486 1.238 . S
C483 O487 1.241 . S
C484 O477 1.247 . S
C484 O478 1.261 . S
C485 O480 1.259 . S
C485 O482 1.235 . S
O486 Co476 2.021 . S
O486 C483 1.238 . S
O487 Co481 2.052 . S
O487 C483 1.241 . S
O488 Co476 2.137 . S
O488 C479 1.247 . S
O489 Co476 2.244 . S
O489 C479 1.272 . S
O489 Co481 2.135 . S
Co490 O491 2.216 . S
Co490 O492 2.091 . S
Co490 O494 2.004 . S
Co490 O500 2.021 . S
Co490 O502 2.137 . S
Co490 O503 2.244 . S
O491 Co490 2.216 . S
O491 C498 1.247 . S
O492 Co490 2.091 . S
O492 C498 1.261 . S
C493 O502 1.247 . S
C493 O503 1.272 . S
O494 Co490 2.004 . S
O494 C499 1.259 . S
Co495 O496 2.061 . S
Co495 O501 2.052 . S
Co495 O503 2.135 . S
O496 Co495 2.061 . S
O496 C499 1.235 . S
C497 O500 1.238 . S
C497 O501 1.241 . S
C498 O491 1.247 . S
C498 O492 1.261 . S
C499 O494 1.259 . S
C499 O496 1.235 . S
O500 Co490 2.021 . S
O500 C497 1.238 . S
O501 Co495 2.052 . S
O501 C497 1.241 . S
O502 Co490 2.137 . S
O502 C493 1.247 . S
O503 Co490 2.244 . S
O503 C493 1.272 . S
O503 Co495 2.135 . S
Co504 O505 2.216 . S
Co504 O506 2.091 . S
Co504 O508 2.004 . S
Co504 O514 2.021 . S
Co504 O516 2.137 . S
Co504 O517 2.244 . S
O505 Co504 2.216 . S
O505 C512 1.247 . S
O506 Co504 2.091 . S
O506 C512 1.261 . S
C507 O516 1.247 . S
C507 O517 1.272 . S
O508 Co504 2.004 . S
O508 C513 1.259 . S
Co509 O510 2.061 . S
Co509 O515 2.052 . S
Co509 O517 2.135 . S
O510 Co509 2.061 . S
O510 C513 1.235 . S
C511 O514 1.238 . S
C511 O515 1.241 . S
C512 O505 1.247 . S
C512 O506 1.261 . S
C513 O508 1.259 . S
C513 O510 1.235 . S
O514 Co504 2.021 . S
O514 C511 1.238 . S
O515 Co509 2.052 . S
O515 C511 1.241 . S
O516 Co504 2.137 . S
O516 C507 1.247 . S
O517 Co504 2.244 . S
O517 C507 1.272 . S
O517 Co509 2.135 . S
Co518 O519 2.216 . S
Co518 O520 2.091 . S
Co518 O522 2.004 . S
Co518 O528 2.021 . S
Co518 O530 2.137 . S
Co518 O531 2.244 . S
O519 Co518 2.216 . S
O519 C526 1.247 . S
O520 Co518 2.091 . S
O520 C526 1.261 . S
C521 O530 1.247 . S
C521 O531 1.272 . S
O522 Co518 2.004 . S
O522 C527 1.259 . S
Co523 O524 2.061 . S
Co523 O529 2.052 . S
Co523 O531 2.135 . S
O524 Co523 2.061 . S
O524 C527 1.235 . S
C525 O528 1.238 . S
C525 O529 1.241 . S
C526 O519 1.247 . S
C526 O520 1.261 . S
C527 O522 1.259 . S
C527 O524 1.235 . S
O528 Co518 2.021 . S
O528 C525 1.238 . S
O529 Co523 2.052 . S
O529 C525 1.241 . S
O530 Co518 2.137 . S
O530 C521 1.247 . S
O531 Co518 2.244 . S
O531 C521 1.272 . S
O531 Co523 2.135 . S
Co532 O533 2.216 . S
Co532 O534 2.091 . S
Co532 O536 2.004 . S
Co532 O542 2.021 . S
Co532 O544 2.137 . S
Co532 O545 2.244 . S
O533 Co532 2.216 . S
O533 C540 1.247 . S
O534 Co532 2.091 . S
O534 C540 1.261 . S
C535 O544 1.247 . S
C535 O545 1.272 . S
O536 Co532 2.004 . S
O536 C541 1.259 . S
Co537 O538 2.061 . S
Co537 O543 2.052 . S
Co537 O545 2.135 . S
O538 Co537 2.061 . S
O538 C541 1.235 . S
C539 O542 1.238 . S
C539 O543 1.241 . S
C540 O533 1.247 . S
C540 O534 1.261 . S
C541 O536 1.259 . S
C541 O538 1.235 . S
O542 Co532 2.021 . S
O542 C539 1.238 . S
O543 Co537 2.052 . S
O543 C539 1.241 . S
O544 Co532 2.137 . S
O544 C535 1.247 . S
O545 Co532 2.244 . S
O545 C535 1.272 . S
O545 Co537 2.135 . S
Co546 O547 2.216 . S
Co546 O548 2.091 . S
Co546 O550 2.004 . S
Co546 O556 2.021 . S
Co546 O558 2.137 . S
Co546 O559 2.244 . S
O547 Co546 2.216 . S
O547 C554 1.247 . S
O548 Co546 2.091 . S
O548 C554 1.261 . S
C549 O558 1.247 . S
C549 O559 1.272 . S
O550 Co546 2.004 . S
O550 C555 1.259 . S
Co551 O552 2.061 . S
Co551 O557 2.052 . S
Co551 O559 2.135 . S
O552 Co551 2.061 . S
O552 C555 1.235 . S
C553 O556 1.238 . S
C553 O557 1.241 . S
C554 O547 1.247 . S
C554 O548 1.261 . S
C555 O550 1.259 . S
C555 O552 1.235 . S
O556 Co546 2.021 . S
O556 C553 1.238 . S
O557 Co551 2.052 . S
O557 C553 1.241 . S
O558 Co546 2.137 . S
O558 C549 1.247 . S
O559 Co546 2.244 . S
O559 C549 1.272 . S
O559 Co551 2.135 . S
Co560 O561 2.216 . S
Co560 O562 2.091 . S
Co560 O564 2.004 . S
Co560 O570 2.021 . S
Co560 O572 2.137 . S
Co560 O573 2.244 . S
O561 Co560 2.216 . S
O561 C568 1.247 . S
O562 Co560 2.091 . S
O562 C568 1.261 . S
C563 O572 1.247 . S
C563 O573 1.272 . S
O564 Co560 2.004 . S
O564 C569 1.259 . S
Co565 O566 2.061 . S
Co565 O571 2.052 . S
Co565 O573 2.135 . S
O566 Co565 2.061 . S
O566 C569 1.235 . S
C567 O570 1.238 . S
C567 O571 1.241 . S
C568 O561 1.247 . S
C568 O562 1.261 . S
C569 O564 1.259 . S
C569 O566 1.235 . S
O570 Co560 2.021 . S
O570 C567 1.238 . S
O571 Co565 2.052 . S
O571 C567 1.241 . S
O572 Co560 2.137 . S
O572 C563 1.247 . S
O573 Co560 2.244 . S
O573 C563 1.272 . S
O573 Co565 2.135 . S
Co574 O575 2.216 . S
Co574 O576 2.091 . S
Co574 O578 2.004 . S
Co574 O584 2.021 . S
Co574 O586 2.137 . S
Co574 O587 2.244 . S
O575 Co574 2.216 . S
O575 C582 1.247 . S
O576 Co574 2.091 . S
O576 C582 1.261 . S
C577 O586 1.247 . S
C577 O587 1.272 . S
O578 Co574 2.004 . S
O578 C583 1.259 . S
Co579 O580 2.061 . S
Co579 O585 2.052 . S
Co579 O587 2.135 . S
O580 Co579 2.061 . S
O580 C583 1.235 . S
C581 O584 1.238 . S
C581 O585 1.241 . S
C582 O575 1.247 . S
C582 O576 1.261 . S
C583 O578 1.259 . S
C583 O580 1.235 . S
O584 Co574 2.021 . S
O584 C581 1.238 . S
O585 Co579 2.052 . S
O585 C581 1.241 . S
O586 Co574 2.137 . S
O586 C577 1.247 . S
O587 Co574 2.244 . S
O587 C577 1.272 . S
O587 Co579 2.135 . S
Co588 O589 2.216 . S
Co588 O590 2.091 . S
Co588 O592 2.004 . S
Co588 O598 2.021 . S
Co588 O600 2.137 . S
Co588 O601 2.244 . S
O589 Co588 2.216 . S
O589 C596 1.247 . S
O590 Co588 2.091 . S
O590 C596 1.261 . S
C591 O600 1.247 . S
C591 O601 1.272 . S
O592 Co588 2.004 . S
O592 C597 1.259 . S
Co593 O594 2.061 . S
Co593 O599 2.052 . S
Co593 O601 2.135 . S
O594 Co593 2.061 . S
O594 C597 1.235 . S
C595 O598 1.238 . S
C595 O599 1.241 . S
C596 O589 1.247 . S
C596 O590 1.261 . S
C597 O592 1.259 . S
C597 O594 1.235 . S
O598 Co588 2.021 . S
O598 C595 1.238 . S
O599 Co593 2.052 . S
O599 C595 1.241 . S
O600 Co588 2.137 . S
O600 C591 1.247 . S
O601 Co588 2.244 . S
O601 C591 1.272 . S
O601 Co593 2.135 . S
Co602 O603 2.216 . S
Co602 O604 2.091 . S
Co602 O606 2.004 . S
Co602 O612 2.021 . S
Co602 O614 2.137 . S
Co602 O615 2.244 . S
O603 Co602 2.216 . S
O603 C610 1.247 . S
O604 Co602 2.091 . S
O604 C610 1.261 . S
C605 O614 1.247 . S
C605 O615 1.272 . S
O606 Co602 2.004 . S
O606 C611 1.259 . S
Co607 O608 2.061 . S
Co607 O613 2.052 . S
Co607 O615 2.135 . S
O608 Co607 2.061 . S
O608 C611 1.235 . S
C609 O612 1.238 . S
C609 O613 1.241 . S
C610 O603 1.247 . S
C610 O604 1.261 . S
C611 O606 1.259 . S
C611 O608 1.235 . S
O612 Co602 2.021 . S
O612 C609 1.238 . S
O613 Co607 2.052 . S
O613 C609 1.241 . S
O614 Co602 2.137 . S
O614 C605 1.247 . S
O615 Co602 2.244 . S
O615 C605 1.272 . S
O615 Co607 2.135 . S
Co616 O617 2.216 . S
Co616 O618 2.091 . S
Co616 O620 2.004 . S
Co616 O626 2.021 . S
Co616 O628 2.137 . S
Co616 O629 2.244 . S
O617 Co616 2.216 . S
O617 C624 1.247 . S
O618 Co616 2.091 . S
O618 C624 1.261 . S
C619 O628 1.247 . S
C619 O629 1.272 . S
O620 Co616 2.004 . S
O620 C625 1.259 . S
Co621 O622 2.061 . S
Co621 O627 2.052 . S
Co621 O629 2.135 . S
O622 Co621 2.061 . S
O622 C625 1.235 . S
C623 O626 1.238 . S
C623 O627 1.241 . S
C624 O617 1.247 . S
C624 O618 1.261 . S
C625 O620 1.259 . S
C625 O622 1.235 . S
O626 Co616 2.021 . S
O626 C623 1.238 . S
O627 Co621 2.052 . S
O627 C623 1.241 . S
O628 Co616 2.137 . S
O628 C619 1.247 . S
O629 Co616 2.244 . S
O629 C619 1.272 . S
O629 Co621 2.135 . S
Co630 O631 2.216 . S
Co630 O632 2.091 . S
Co630 O634 2.004 . S
Co630 O640 2.021 . S
Co630 O642 2.137 . S
Co630 O643 2.244 . S
O631 Co630 2.216 . S
O631 C638 1.247 . S
O632 Co630 2.091 . S
O632 C638 1.261 . S
C633 O642 1.247 . S
C633 O643 1.272 . S
O634 Co630 2.004 . S
O634 C639 1.259 . S
Co635 O636 2.061 . S
Co635 O641 2.052 . S
Co635 O643 2.135 . S
O636 Co635 2.061 . S
O636 C639 1.235 . S
C637 O640 1.238 . S
C637 O641 1.241 . S
C638 O631 1.247 . S
C638 O632 1.261 . S
C639 O634 1.259 . S
C639 O636 1.235 . S
O640 Co630 2.021 . S
O640 C637 1.238 . S
O641 Co635 2.052 . S
O641 C637 1.241 . S
O642 Co630 2.137 . S
O642 C633 1.247 . S
O643 Co630 2.244 . S
O643 C633 1.272 . S
O643 Co635 2.135 . S
Co644 O645 2.216 . S
Co644 O646 2.091 . S
Co644 O648 2.004 . S
Co644 O654 2.021 . S
Co644 O656 2.137 . S
Co644 O657 2.244 . S
O645 Co644 2.216 . S
O645 C652 1.247 . S
O646 Co644 2.091 . S
O646 C652 1.261 . S
C647 O656 1.247 . S
C647 O657 1.272 . S
O648 Co644 2.004 . S
O648 C653 1.259 . S
Co649 O650 2.061 . S
Co649 O655 2.052 . S
Co649 O657 2.135 . S
O650 Co649 2.061 . S
O650 C653 1.235 . S
C651 O654 1.238 . S
C651 O655 1.241 . S
C652 O645 1.247 . S
C652 O646 1.261 . S
C653 O648 1.259 . S
C653 O650 1.235 . S
O654 Co644 2.021 . S
O654 C651 1.238 . S
O655 Co649 2.052 . S
O655 C651 1.241 . S
O656 Co644 2.137 . S
O656 C647 1.247 . S
O657 Co644 2.244 . S
O657 C647 1.272 . S
O657 Co649 2.135 . S
Co658 O659 2.216 . S
Co658 O660 2.091 . S
Co658 O662 2.004 . S
Co658 O668 2.021 . S
Co658 O670 2.137 . S
Co658 O671 2.244 . S
O659 Co658 2.216 . S
O659 C666 1.247 . S
O660 Co658 2.091 . S
O660 C666 1.261 . S
C661 O670 1.247 . S
C661 O671 1.272 . S
O662 Co658 2.004 . S
O662 C667 1.259 . S
Co663 O664 2.061 . S
Co663 O669 2.052 . S
Co663 O671 2.135 . S
O664 Co663 2.061 . S
O664 C667 1.235 . S
C665 O668 1.238 . S
C665 O669 1.241 . S
C666 O659 1.247 . S
C666 O660 1.261 . S
C667 O662 1.259 . S
C667 O664 1.235 . S
O668 Co658 2.021 . S
O668 C665 1.238 . S
O669 Co663 2.052 . S
O669 C665 1.241 . S
O670 Co658 2.137 . S
O670 C661 1.247 . S
O671 Co658 2.244 . S
O671 C661 1.272 . S
O671 Co663 2.135 . S
C672 C673 1.369 . S
C672 C674 1.419 1_655 S
C672 H676 0.930 . S
C673 C672 1.369 . S
C673 C682 1.429 . S
C674 C672 1.419 1_455 S
C674 C675 1.363 . S
C674 H677 0.929 . S
C675 C674 1.363 . S
C675 C681 1.428 . S
H676 C672 0.930 . S
H677 C674 0.929 . S
S678 N679 1.613 . S
S678 N680 1.610 1_655 S
N679 S678 1.613 . S
N679 C682 1.350 . S
N680 S678 1.610 1_455 S
N680 C681 1.351 . S
C681 C675 1.428 . S
C681 N680 1.351 . S
C681 C682 1.434 1_455 S
C682 C673 1.429 . S
C682 N679 1.350 . S
C682 C681 1.434 1_655 S
C683 C684 1.369 1_545 S
C683 C685 1.419 . S
C683 H687 0.930 . S
C684 C683 1.369 1_565 S
C684 C693 1.429 . S
C685 C683 1.419 . S
C685 C686 1.363 . S
C685 H688 0.929 . S
C686 C685 1.363 . S
C686 C692 1.428 1_545 S
H687 C683 0.930 . S
H688 C685 0.929 . S
S689 N690 1.613 . S
S689 N691 1.610 . S
N690 S689 1.613 . S
N690 C693 1.350 . S
N691 S689 1.610 . S
N691 C692 1.351 . S
C692 C686 1.428 1_565 S
C692 N691 1.351 . S
C692 C693 1.434 . S
C693 C684 1.429 . S
C693 N690 1.350 . S
C693 C692 1.434 . S
C694 C695 1.369 . S
C694 C696 1.419 1_455 S
C694 H698 0.930 . S
C695 C694 1.369 . S
C695 C704 1.429 . S
C696 C694 1.419 1_655 S
C696 C697 1.363 . S
C696 H699 0.929 . S
C697 C696 1.363 . S
C697 C703 1.428 . S
H698 C694 0.930 . S
H699 C696 0.929 . S
S700 N701 1.613 . S
S700 N702 1.610 1_455 S
N701 S700 1.613 . S
N701 C704 1.350 . S
N702 S700 1.610 1_655 S
N702 C703 1.351 . S
C703 C697 1.428 . S
C703 N702 1.351 . S
C703 C704 1.434 1_655 S
C704 C695 1.429 . S
C704 N701 1.350 . S
C704 C703 1.434 1_455 S
C705 C706 1.369 1_545 S
C705 C707 1.419 . S
C705 H709 0.930 . S
C706 C705 1.369 1_565 S
C706 C715 1.429 . S
C707 C705 1.419 . S
C707 C708 1.363 . S
C707 H710 0.929 . S
C708 C707 1.363 . S
C708 C714 1.428 1_545 S
H709 C705 0.930 . S
H710 C707 0.929 . S
S711 N712 1.613 . S
S711 N713 1.610 . S
N712 S711 1.613 . S
N712 C715 1.350 . S
N713 S711 1.610 . S
N713 C714 1.351 . S
C714 C708 1.428 1_565 S
C714 N713 1.351 . S
C714 C715 1.434 . S
C715 C706 1.429 . S
C715 N712 1.350 . S
C715 C714 1.434 . S
C716 C717 1.369 . S
C716 C718 1.419 . S
C716 H720 0.930 . S
C717 C716 1.369 . S
C717 C726 1.429 1_655 S
C718 C716 1.419 . S
C718 C719 1.363 1_655 S
C718 H721 0.929 . S
C719 C718 1.363 1_455 S
C719 C725 1.428 . S
H720 C716 0.930 . S
H721 C718 0.929 . S
S722 N723 1.613 . S
S722 N724 1.610 . S
N723 S722 1.613 . S
N723 C726 1.350 . S
N724 S722 1.610 . S
N724 C725 1.351 . S
C725 C719 1.428 . S
C725 N724 1.351 . S
C725 C726 1.434 . S
C726 C717 1.429 1_455 S
C726 N723 1.350 . S
C726 C725 1.434 . S
C727 C728 1.369 . S
C727 C729 1.419 . S
C727 H731 0.930 . S
C728 C727 1.369 . S
C728 C737 1.429 1_545 S
C729 C727 1.419 . S
C729 C730 1.363 1_545 S
C729 H732 0.929 . S
C730 C729 1.363 1_565 S
C730 C736 1.428 . S
H731 C727 0.930 . S
H732 C729 0.929 . S
S733 N734 1.613 . S
S733 N735 1.610 . S
N734 S733 1.613 . S
N734 C737 1.350 . S
N735 S733 1.610 . S
N735 C736 1.351 . S
C736 C730 1.428 . S
C736 N735 1.351 . S
C736 C737 1.434 . S
C737 C728 1.429 1_565 S
C737 N734 1.350 . S
C737 C736 1.434 . S
C738 C739 1.369 . S
C738 C740 1.419 . S
C738 H742 0.930 . S
C739 C738 1.369 . S
C739 C748 1.429 1_455 S
C740 C738 1.419 . S
C740 C741 1.363 1_455 S
C740 H743 0.929 . S
C741 C740 1.363 1_655 S
C741 C747 1.428 . S
H742 C738 0.930 . S
H743 C740 0.929 . S
S744 N745 1.613 . S
S744 N746 1.610 . S
N745 S744 1.613 . S
N745 C748 1.350 . S
N746 S744 1.610 . S
N746 C747 1.351 . S
C747 C741 1.428 . S
C747 N746 1.351 . S
C747 C748 1.434 . S
C748 C739 1.429 1_655 S
C748 N745 1.350 . S
C748 C747 1.434 . S
C749 C750 1.369 . S
C749 C751 1.419 . S
C749 H753 0.930 . S
C750 C749 1.369 . S
C750 C759 1.429 1_545 S
C751 C749 1.419 . S
C751 C752 1.363 1_545 S
C751 H754 0.929 . S
C752 C751 1.363 1_565 S
C752 C758 1.428 . S
H753 C749 0.930 . S
H754 C751 0.929 . S
S755 N756 1.613 . S
S755 N757 1.610 . S
N756 S755 1.613 . S
N756 C759 1.350 . S
N757 S755 1.610 . S
N757 C758 1.351 . S
C758 C752 1.428 . S
C758 N757 1.351 . S
C758 C759 1.434 . S
C759 C750 1.429 1_565 S
C759 N756 1.350 . S
C759 C758 1.434 . S
C760 C761 1.369 . S
C760 C762 1.419 . S
C760 H764 0.930 . S
C761 C760 1.369 . S
C761 C770 1.429 1_554 S
C762 C760 1.419 . S
C762 C763 1.363 1_554 S
C762 H765 0.929 . S
C763 C762 1.363 1_556 S
C763 C769 1.428 . S
H764 C760 0.930 . S
H765 C762 0.929 . S
S766 N767 1.613 . S
S766 N768 1.610 . S
N767 S766 1.613 . S
N767 C770 1.350 . S
N768 S766 1.610 . S
N768 C769 1.351 . S
C769 C763 1.428 . S
C769 N768 1.351 . S
C769 C770 1.434 . S
C770 C761 1.429 1_556 S
C770 N767 1.350 . S
C770 C769 1.434 . S
C771 C772 1.369 1_554 S
C771 C773 1.419 . S
C771 H775 0.930 . S
C772 C771 1.369 1_556 S
C772 C781 1.429 . S
C773 C771 1.419 . S
C773 C774 1.363 . S
C773 H776 0.929 . S
C774 C773 1.363 . S
C774 C780 1.428 1_554 S
H775 C771 0.930 . S
H776 C773 0.929 . S
S777 N778 1.613 . S
S777 N779 1.610 . S
N778 S777 1.613 . S
N778 C781 1.350 . S
N779 S777 1.610 . S
N779 C780 1.351 . S
C780 C774 1.428 1_556 S
C780 N779 1.351 . S
C780 C781 1.434 . S
C781 C772 1.429 . S
C781 N778 1.350 . S
C781 C780 1.434 . S
C782 C783 1.369 . S
C782 C784 1.419 1_556 S
C782 H786 0.930 . S
C783 C782 1.369 . S
C783 C792 1.451 . S
C784 C782 1.419 1_554 S
C784 C785 1.363 . S
C784 H787 0.929 . S
C785 C784 1.363 . S
C785 C791 1.428 . S
H786 C782 0.930 . S
H787 C784 0.929 . S
S788 N789 1.640 . S
S788 N790 1.610 . S
N789 S788 1.640 . S
N789 C792 1.347 1_554 S
N790 S788 1.610 . S
N790 C791 1.351 . S
C791 C785 1.428 . S
C791 N790 1.351 . S
C791 C792 1.411 1_554 S
C792 C783 1.451 . S
C792 N789 1.347 1_556 S
C792 C791 1.411 1_556 S
C793 C794 1.369 . S
C793 C795 1.419 1_556 S
C793 H797 0.930 . S
C794 C793 1.369 . S
C794 C803 1.428 . S
C795 C793 1.419 1_554 S
C795 C796 1.363 . S
C795 H798 0.929 . S
C796 C795 1.363 . S
C796 C802 1.428 . S
H797 C793 0.930 . S
H798 C795 0.929 . S
S799 N800 1.613 . S
S799 N801 1.610 . S
N800 S799 1.613 . S
N800 C803 1.350 1_554 S
N801 S799 1.610 . S
N801 C802 1.351 . S
C802 C796 1.428 . S
C802 N801 1.351 . S
C802 C803 1.435 1_554 S
C803 C794 1.428 . S
C803 N800 1.350 1_556 S
C803 C802 1.435 1_556 S
C804 C805 1.369 . S
C804 C806 1.419 . S
C804 H808 0.930 . S
C805 C804 1.369 . S
C805 C814 1.429 . S
C806 C804 1.419 . S
C806 C807 1.363 . S
C806 H809 0.929 . S
C807 C806 1.363 . S
C807 C813 1.428 . S
H808 C804 0.930 . S
H809 C806 0.929 . S
S810 N811 1.613 . S
S810 N812 1.610 . S
N811 S810 1.613 . S
N811 C814 1.350 . S
N812 S810 1.610 . S
N812 C813 1.351 . S
C813 C807 1.428 . S
C813 N812 1.351 . S
C813 C814 1.434 . S
C814 C805 1.429 . S
C814 N811 1.350 . S
C814 C813 1.434 . S
C815 C816 1.369 . S
C815 C817 1.419 . S
C815 H819 0.930 . S
C816 C815 1.369 . S
C816 C825 1.429 . S
C817 C815 1.419 . S
C817 C818 1.363 . S
C817 H820 0.929 . S
C818 C817 1.363 . S
C818 C824 1.428 . S
H819 C815 0.930 . S
H820 C817 0.929 . S
S821 N822 1.613 . S
S821 N823 1.610 . S
N822 S821 1.613 . S
N822 C825 1.350 . S
N823 S821 1.610 . S
N823 C824 1.351 . S
C824 C818 1.428 . S
C824 N823 1.351 . S
C824 C825 1.434 . S
C825 C816 1.429 . S
C825 N822 1.350 . S
C825 C824 1.434 . S
C826 C827 1.369 . S
C826 C828 1.419 . S
C826 H830 0.930 . S
C827 C826 1.369 . S
C827 C836 1.429 . S
C828 C826 1.419 . S
C828 C829 1.363 . S
C828 H831 0.929 . S
C829 C828 1.363 . S
C829 C835 1.428 . S
H830 C826 0.930 . S
H831 C828 0.929 . S
S832 N833 1.613 . S
S832 N834 1.610 . S
N833 S832 1.613 . S
N833 C836 1.350 . S
N834 S832 1.610 . S
N834 C835 1.351 . S
C835 C829 1.428 . S
C835 N834 1.351 . S
C835 C836 1.434 . S
C836 C827 1.429 . S
C836 N833 1.350 . S
C836 C835 1.434 . S
C837 C838 1.369 . S
C837 C839 1.419 . S
C837 H841 0.930 . S
C838 C837 1.369 . S
C838 C847 1.429 . S
C839 C837 1.419 . S
C839 C840 1.363 . S
C839 H842 0.929 . S
C840 C839 1.363 . S
C840 C846 1.428 . S
H841 C837 0.930 . S
H842 C839 0.929 . S
S843 N844 1.613 . S
S843 N845 1.610 . S
N844 S843 1.613 . S
N844 C847 1.350 . S
N845 S843 1.610 . S
N845 C846 1.351 . S
C846 C840 1.428 . S
C846 N845 1.351 . S
C846 C847 1.434 . S
C847 C838 1.429 . S
C847 N844 1.350 . S
C847 C846 1.434 . S
C848 C849 1.369 . S
C848 C850 1.419 . S
C848 H852 0.930 . S
C849 C848 1.369 . S
C849 C858 1.429 . S
C850 C848 1.419 . S
C850 C851 1.363 . S
C850 H853 0.929 . S
C851 C850 1.363 . S
C851 C857 1.428 . S
H852 C848 0.930 . S
H853 C850 0.929 . S
S854 N855 1.613 . S
S854 N856 1.610 . S
N855 S854 1.613 . S
N855 C858 1.350 . S
N856 S854 1.610 . S
N856 C857 1.351 . S
C857 C851 1.428 . S
C857 N856 1.351 . S
C857 C858 1.434 . S
C858 C849 1.429 . S
C858 N855 1.350 . S
C858 C857 1.434 . S
C859 C860 1.369 . S
C859 C861 1.419 . S
C859 H863 0.930 . S
C860 C859 1.369 . S
C860 C869 1.429 . S
C861 C859 1.419 . S
C861 C862 1.363 . S
C861 H864 0.929 . S
C862 C861 1.363 . S
C862 C868 1.428 . S
H863 C859 0.930 . S
H864 C861 0.929 . S
S865 N866 1.613 . S
S865 N867 1.610 . S
N866 S865 1.613 . S
N866 C869 1.350 . S
N867 S865 1.610 . S
N867 C868 1.351 . S
C868 C862 1.428 . S
C868 N867 1.351 . S
C868 C869 1.434 . S
C869 C860 1.429 . S
C869 N866 1.350 . S
C869 C868 1.434 . S
C870 C871 1.369 . S
C870 C872 1.419 . S
C870 H874 0.930 . S
C871 C870 1.369 . S
C871 C880 1.429 . S
C872 C870 1.419 . S
C872 C873 1.363 . S
C872 H875 0.929 . S
C873 C872 1.363 . S
C873 C879 1.428 . S
H874 C870 0.930 . S
H875 C872 0.929 . S
S876 N877 1.613 . S
S876 N878 1.610 . S
N877 S876 1.613 . S
N877 C880 1.350 . S
N878 S876 1.610 . S
N878 C879 1.351 . S
C879 C873 1.428 . S
C879 N878 1.351 . S
C879 C880 1.434 . S
C880 C871 1.429 . S
C880 N877 1.350 . S
C880 C879 1.434 . S
C881 C882 1.369 . S
C881 C883 1.419 . S
C881 H885 0.930 . S
C882 C881 1.369 . S
C882 C891 1.429 . S
C883 C881 1.419 . S
C883 C884 1.363 . S
C883 H886 0.929 . S
C884 C883 1.363 . S
C884 C890 1.428 . S
H885 C881 0.930 . S
H886 C883 0.929 . S
S887 N888 1.613 . S
S887 N889 1.610 . S
N888 S887 1.613 . S
N888 C891 1.350 . S
N889 S887 1.610 . S
N889 C890 1.351 . S
C890 C884 1.428 . S
C890 N889 1.351 . S
C890 C891 1.434 . S
C891 C882 1.429 . S
C891 N888 1.350 . S
C891 C890 1.434 . S
C892 C893 1.369 . S
C892 C894 1.419 . S
C892 H896 0.930 . S
C893 C892 1.369 . S
C893 C902 1.429 . S
C894 C892 1.419 . S
C894 C895 1.363 . S
C894 H897 0.929 . S
C895 C894 1.363 . S
C895 C901 1.428 . S
H896 C892 0.930 . S
H897 C894 0.929 . S
S898 N899 1.613 . S
S898 N900 1.610 . S
N899 S898 1.613 . S
N899 C902 1.350 . S
N900 S898 1.610 . S
N900 C901 1.351 . S
C901 C895 1.428 . S
C901 N900 1.351 . S
C901 C902 1.434 . S
C902 C893 1.429 . S
C902 N899 1.350 . S
C902 C901 1.434 . S
C903 C904 1.369 . S
C903 C905 1.419 . S
C903 H907 0.930 . S
C904 C903 1.369 . S
C904 C913 1.429 . S
C905 C903 1.419 . S
C905 C906 1.363 . S
C905 H908 0.929 . S
C906 C905 1.363 . S
C906 C912 1.428 . S
H907 C903 0.930 . S
H908 C905 0.929 . S
S909 N910 1.613 . S
S909 N911 1.610 . S
N910 S909 1.613 . S
N910 C913 1.350 . S
N911 S909 1.610 . S
N911 C912 1.351 . S
C912 C906 1.428 . S
C912 N911 1.351 . S
C912 C913 1.434 . S
C913 C904 1.429 . S
C913 N910 1.350 . S
C913 C912 1.434 . S
C914 C915 1.369 . S
C914 C916 1.419 . S
C914 H918 0.930 . S
C915 C914 1.369 . S
C915 C924 1.429 . S
C916 C914 1.419 . S
C916 C917 1.363 . S
C916 H919 0.929 . S
C917 C916 1.363 . S
C917 C923 1.428 . S
H918 C914 0.930 . S
H919 C916 0.929 . S
S920 N921 1.613 . S
S920 N922 1.610 . S
N921 S920 1.613 . S
N921 C924 1.350 . S
N922 S920 1.610 . S
N922 C923 1.351 . S
C923 C917 1.428 . S
C923 N922 1.351 . S
C923 C924 1.434 . S
C924 C915 1.429 . S
C924 N921 1.350 . S
C924 C923 1.434 . S
C925 C926 1.369 . S
C925 C927 1.419 . S
C925 H929 0.930 . S
C926 C925 1.369 . S
C926 C935 1.429 . S
C927 C925 1.419 . S
C927 C928 1.363 . S
C927 H930 0.929 . S
C928 C927 1.363 . S
C928 C934 1.428 . S
H929 C925 0.930 . S
H930 C927 0.929 . S
S931 N932 1.613 . S
S931 N933 1.610 . S
N932 S931 1.613 . S
N932 C935 1.350 . S
N933 S931 1.610 . S
N933 C934 1.351 . S
C934 C928 1.428 . S
C934 N933 1.351 . S
C934 C935 1.434 . S
C935 C926 1.429 . S
C935 N932 1.350 . S
C935 C934 1.434 . S
C936 C937 1.369 . S
C936 C938 1.419 . S
C936 H940 0.930 . S
C937 C936 1.369 . S
C937 C946 1.429 . S
C938 C936 1.419 . S
C938 C939 1.363 . S
C938 H941 0.929 . S
C939 C938 1.363 . S
C939 C945 1.428 . S
H940 C936 0.930 . S
H941 C938 0.929 . S
S942 N943 1.613 . S
S942 N944 1.610 . S
N943 S942 1.613 . S
N943 C946 1.350 . S
N944 S942 1.610 . S
N944 C945 1.351 . S
C945 C939 1.428 . S
C945 N944 1.351 . S
C945 C946 1.434 . S
C946 C937 1.429 . S
C946 N943 1.350 . S
C946 C945 1.434 . S
C947 C948 1.369 . S
C947 C949 1.419 . S
C947 H951 0.930 . S
C948 C947 1.369 . S
C948 C957 1.429 . S
C949 C947 1.419 . S
C949 C950 1.363 . S
C949 H952 0.929 . S
C950 C949 1.363 . S
C950 C956 1.428 . S
H951 C947 0.930 . S
H952 C949 0.929 . S
S953 N954 1.613 . S
S953 N955 1.610 . S
N954 S953 1.613 . S
N954 C957 1.350 . S
N955 S953 1.610 . S
N955 C956 1.351 . S
C956 C950 1.428 . S
C956 N955 1.351 . S
C956 C957 1.434 . S
C957 C948 1.429 . S
C957 N954 1.350 . S
C957 C956 1.434 . S
C958 C959 1.369 . S
C958 C960 1.419 . S
C958 H962 0.930 . S
C959 C958 1.369 . S
C959 C968 1.429 . S
C960 C958 1.419 . S
C960 C961 1.363 . S
C960 H963 0.929 . S
C961 C960 1.363 . S
C961 C967 1.428 . S
H962 C958 0.930 . S
H963 C960 0.929 . S
S964 N965 1.613 . S
S964 N966 1.610 . S
N965 S964 1.613 . S
N965 C968 1.350 . S
N966 S964 1.610 . S
N966 C967 1.351 . S
C967 C961 1.428 . S
C967 N966 1.351 . S
C967 C968 1.434 . S
C968 C959 1.429 . S
C968 N965 1.350 . S
C968 C967 1.434 . S
C969 C970 1.369 . S
C969 C971 1.419 . S
C969 H973 0.930 . S
C970 C969 1.369 . S
C970 C979 1.429 . S
C971 C969 1.419 . S
C971 C972 1.363 . S
C971 H974 0.929 . S
C972 C971 1.363 . S
C972 C978 1.428 . S
H973 C969 0.930 . S
H974 C971 0.929 . S
S975 N976 1.613 . S
S975 N977 1.610 . S
N976 S975 1.613 . S
N976 C979 1.350 . S
N977 S975 1.610 . S
N977 C978 1.351 . S
C978 C972 1.428 . S
C978 N977 1.351 . S
C978 C979 1.434 . S
C979 C970 1.429 . S
C979 N976 1.350 . S
C979 C978 1.434 . S
C980 C981 1.369 . S
C980 C982 1.419 . S
C980 H984 0.930 . S
C981 C980 1.369 . S
C981 C990 1.429 . S
C982 C980 1.419 . S
C982 C983 1.363 . S
C982 H985 0.929 . S
C983 C982 1.363 . S
C983 C989 1.428 . S
H984 C980 0.930 . S
H985 C982 0.929 . S
S986 N987 1.613 . S
S986 N988 1.610 . S
N987 S986 1.613 . S
N987 C990 1.350 . S
N988 S986 1.610 . S
N988 C989 1.351 . S
C989 C983 1.428 . S
C989 N988 1.351 . S
C989 C990 1.434 . S
C990 C981 1.429 . S
C990 N987 1.350 . S
C990 C989 1.434 . S
C991 C992 1.369 . S
C991 C993 1.419 . S
C991 H995 0.930 . S
C992 C991 1.369 . S
C992 C1001 1.429 . S
C993 C991 1.419 . S
C993 C994 1.363 . S
C993 H996 0.929 . S
C994 C993 1.363 . S
C994 C1000 1.428 . S
H995 C991 0.930 . S
H996 C993 0.929 . S
S997 N998 1.613 . S
S997 N999 1.610 . S
N998 S997 1.613 . S
N998 C1001 1.350 . S
N999 S997 1.610 . S
N999 C1000 1.351 . S
C1000 C994 1.428 . S
C1000 N999 1.351 . S
C1000 C1001 1.434 . S
C1001 C992 1.429 . S
C1001 N998 1.350 . S
C1001 C1000 1.434 . S
C1002 C1003 1.369 . S
C1002 C1004 1.419 . S
C1002 H1006 0.930 . S
C1003 C1002 1.369 . S
C1003 C1012 1.429 . S
C1004 C1002 1.419 . S
C1004 C1005 1.363 . S
C1004 H1007 0.929 . S
C1005 C1004 1.363 . S
C1005 C1011 1.428 . S
H1006 C1002 0.930 . S
H1007 C1004 0.929 . S
S1008 N1009 1.613 . S
S1008 N1010 1.610 . S
N1009 S1008 1.613 . S
N1009 C1012 1.350 . S
N1010 S1008 1.610 . S
N1010 C1011 1.351 . S
C1011 C1005 1.428 . S
C1011 N1010 1.351 . S
C1011 C1012 1.434 . S
C1012 C1003 1.429 . S
C1012 N1009 1.350 . S
C1012 C1011 1.434 . S
C1013 C1014 1.369 . S
C1013 C1015 1.419 . S
C1013 H1017 0.930 . S
C1014 C1013 1.369 . S
C1014 C1023 1.429 . S
C1015 C1013 1.419 . S
C1015 C1016 1.363 . S
C1015 H1018 0.929 . S
C1016 C1015 1.363 . S
C1016 C1022 1.428 . S
H1017 C1013 0.930 . S
H1018 C1015 0.929 . S
S1019 N1020 1.613 . S
S1019 N1021 1.610 . S
N1020 S1019 1.613 . S
N1020 C1023 1.350 . S
N1021 S1019 1.610 . S
N1021 C1022 1.351 . S
C1022 C1016 1.428 . S
C1022 N1021 1.351 . S
C1022 C1023 1.434 . S
C1023 C1014 1.429 . S
C1023 N1020 1.350 . S
C1023 C1022 1.434 . S
C1024 C1025 1.369 . S
C1024 C1026 1.419 . S
C1024 H1028 0.930 . S
C1025 C1024 1.369 . S
C1025 C1034 1.429 . S
C1026 C1024 1.419 . S
C1026 C1027 1.363 . S
C1026 H1029 0.929 . S
C1027 C1026 1.363 . S
C1027 C1033 1.428 . S
H1028 C1024 0.930 . S
H1029 C1026 0.929 . S
S1030 N1031 1.613 . S
S1030 N1032 1.610 . S
N1031 S1030 1.613 . S
N1031 C1034 1.350 . S
N1032 S1030 1.610 . S
N1032 C1033 1.351 . S
C1033 C1027 1.428 . S
C1033 N1032 1.351 . S
C1033 C1034 1.434 . S
C1034 C1025 1.429 . S
C1034 N1031 1.350 . S
C1034 C1033 1.434 . S
C1035 C1036 1.369 . S
C1035 C1037 1.419 . S
C1035 H1039 0.930 . S
C1036 C1035 1.369 . S
C1036 C1045 1.429 . S
C1037 C1035 1.419 . S
C1037 C1038 1.363 . S
C1037 H1040 0.929 . S
C1038 C1037 1.363 . S
C1038 C1044 1.428 . S
H1039 C1035 0.930 . S
H1040 C1037 0.929 . S
S1041 N1042 1.613 . S
S1041 N1043 1.610 . S
N1042 S1041 1.613 . S
N1042 C1045 1.350 . S
N1043 S1041 1.610 . S
N1043 C1044 1.351 . S
C1044 C1038 1.428 . S
C1044 N1043 1.351 . S
C1044 C1045 1.434 . S
C1045 C1036 1.429 . S
C1045 N1042 1.350 . S
C1045 C1044 1.434 . S
C1046 C1047 1.369 . S
C1046 C1048 1.419 . S
C1046 H1050 0.930 . S
C1047 C1046 1.369 . S
C1047 C1056 1.429 . S
C1048 C1046 1.419 . S
C1048 C1049 1.363 . S
C1048 H1051 0.929 . S
C1049 C1048 1.363 . S
C1049 C1055 1.428 . S
H1050 C1046 0.930 . S
H1051 C1048 0.929 . S
S1052 N1053 1.613 . S
S1052 N1054 1.610 . S
N1053 S1052 1.613 . S
N1053 C1056 1.350 . S
N1054 S1052 1.610 . S
N1054 C1055 1.351 . S
C1055 C1049 1.428 . S
C1055 N1054 1.351 . S
C1055 C1056 1.434 . S
C1056 C1047 1.429 . S
C1056 N1053 1.350 . S
C1056 C1055 1.434 . S
C1057 C1058 1.369 . S
C1057 C1059 1.419 . S
C1057 H1061 0.930 . S
C1058 C1057 1.369 . S
C1058 C1067 1.429 . S
C1059 C1057 1.419 . S
C1059 C1060 1.363 . S
C1059 H1062 0.929 . S
C1060 C1059 1.363 . S
C1060 C1066 1.428 . S
H1061 C1057 0.930 . S
H1062 C1059 0.929 . S
S1063 N1064 1.613 . S
S1063 N1065 1.610 . S
N1064 S1063 1.613 . S
N1064 C1067 1.350 . S
N1065 S1063 1.610 . S
N1065 C1066 1.351 . S
C1066 C1060 1.428 . S
C1066 N1065 1.351 . S
C1066 C1067 1.434 . S
C1067 C1058 1.429 . S
C1067 N1064 1.350 . S
C1067 C1066 1.434 . S
C1068 C1069 1.369 . S
C1068 C1070 1.419 . S
C1068 H1072 0.930 . S
C1069 C1068 1.369 . S
C1069 C1078 1.429 . S
C1070 C1068 1.419 . S
C1070 C1071 1.363 . S
C1070 H1073 0.929 . S
C1071 C1070 1.363 . S
C1071 C1077 1.428 . S
H1072 C1068 0.930 . S
H1073 C1070 0.929 . S
S1074 N1075 1.613 . S
S1074 N1076 1.610 . S
N1075 S1074 1.613 . S
N1075 C1078 1.350 . S
N1076 S1074 1.610 . S
N1076 C1077 1.351 . S
C1077 C1071 1.428 . S
C1077 N1076 1.351 . S
C1077 C1078 1.434 . S
C1078 C1069 1.429 . S
C1078 N1075 1.350 . S
C1078 C1077 1.434 . S
C1079 C1080 1.369 . S
C1079 C1081 1.419 . S
C1079 H1083 0.930 . S
C1080 C1079 1.369 . S
C1080 C1089 1.429 . S
C1081 C1079 1.419 . S
C1081 C1082 1.363 . S
C1081 H1084 0.929 . S
C1082 C1081 1.363 . S
C1082 C1088 1.428 . S
H1083 C1079 0.930 . S
H1084 C1081 0.929 . S
S1085 N1086 1.613 . S
S1085 N1087 1.610 . S
N1086 S1085 1.613 . S
N1086 C1089 1.350 . S
N1087 S1085 1.610 . S
N1087 C1088 1.351 . S
C1088 C1082 1.428 . S
C1088 N1087 1.351 . S
C1088 C1089 1.434 . S
C1089 C1080 1.429 . S
C1089 N1086 1.350 . S
C1089 C1088 1.434 . S
C1090 C1091 1.369 . S
C1090 C1092 1.419 . S
C1090 H1094 0.930 . S
C1091 C1090 1.369 . S
C1091 C1100 1.429 . S
C1092 C1090 1.419 . S
C1092 C1093 1.363 . S
C1092 H1095 0.929 . S
C1093 C1092 1.363 . S
C1093 C1099 1.428 . S
H1094 C1090 0.930 . S
H1095 C1092 0.929 . S
S1096 N1097 1.613 . S
S1096 N1098 1.610 . S
N1097 S1096 1.613 . S
N1097 C1100 1.350 . S
N1098 S1096 1.610 . S
N1098 C1099 1.351 . S
C1099 C1093 1.428 . S
C1099 N1098 1.351 . S
C1099 C1100 1.434 . S
C1100 C1091 1.429 . S
C1100 N1097 1.350 . S
C1100 C1099 1.434 . S
C1101 C1102 1.369 . S
C1101 C1103 1.419 . S
C1101 H1105 0.930 . S
C1102 C1101 1.369 . S
C1102 C1111 1.429 . S
C1103 C1101 1.419 . S
C1103 C1104 1.363 . S
C1103 H1106 0.929 . S
C1104 C1103 1.363 . S
C1104 C1110 1.428 . S
H1105 C1101 0.930 . S
H1106 C1103 0.929 . S
S1107 N1108 1.613 . S
S1107 N1109 1.610 . S
N1108 S1107 1.613 . S
N1108 C1111 1.350 . S
N1109 S1107 1.610 . S
N1109 C1110 1.351 . S
C1110 C1104 1.428 . S
C1110 N1109 1.351 . S
C1110 C1111 1.434 . S
C1111 C1102 1.429 . S
C1111 N1108 1.350 . S
C1111 C1110 1.434 . S
C1112 C1113 1.369 . S
C1112 C1114 1.419 . S
C1112 H1116 0.930 . S
C1113 C1112 1.369 . S
C1113 C1122 1.429 . S
C1114 C1112 1.419 . S
C1114 C1115 1.363 . S
C1114 H1117 0.929 . S
C1115 C1114 1.363 . S
C1115 C1121 1.428 . S
H1116 C1112 0.930 . S
H1117 C1114 0.929 . S
S1118 N1119 1.613 . S
S1118 N1120 1.610 . S
N1119 S1118 1.613 . S
N1119 C1122 1.350 . S
N1120 S1118 1.610 . S
N1120 C1121 1.351 . S
C1121 C1115 1.428 . S
C1121 N1120 1.351 . S
C1121 C1122 1.434 . S
C1122 C1113 1.429 . S
C1122 N1119 1.350 . S
C1122 C1121 1.434 . S
C1123 C1124 1.369 . S
C1123 C1125 1.419 . S
C1123 H1127 0.930 . S
C1124 C1123 1.369 . S
C1124 C1133 1.429 . S
C1125 C1123 1.419 . S
C1125 C1126 1.363 . S
C1125 H1128 0.929 . S
C1126 C1125 1.363 . S
C1126 C1132 1.428 . S
H1127 C1123 0.930 . S
H1128 C1125 0.929 . S
S1129 N1130 1.613 . S
S1129 N1131 1.610 . S
N1130 S1129 1.613 . S
N1130 C1133 1.350 . S
N1131 S1129 1.610 . S
N1131 C1132 1.351 . S
C1132 C1126 1.428 . S
C1132 N1131 1.351 . S
C1132 C1133 1.434 . S
C1133 C1124 1.429 . S
C1133 N1130 1.350 . S
C1133 C1132 1.434 . S
C1134 C1135 1.369 . S
C1134 C1136 1.419 . S
C1134 H1138 0.930 . S
C1135 C1134 1.369 . S
C1135 C1144 1.429 . S
C1136 C1134 1.419 . S
C1136 C1137 1.363 . S
C1136 H1139 0.929 . S
C1137 C1136 1.363 . S
C1137 C1143 1.428 . S
H1138 C1134 0.930 . S
H1139 C1136 0.929 . S
S1140 N1141 1.613 . S
S1140 N1142 1.610 . S
N1141 S1140 1.613 . S
N1141 C1144 1.350 . S
N1142 S1140 1.610 . S
N1142 C1143 1.351 . S
C1143 C1137 1.428 . S
C1143 N1142 1.351 . S
C1143 C1144 1.434 . S
C1144 C1135 1.429 . S
C1144 N1141 1.350 . S
C1144 C1143 1.434 . S
C1145 C1146 1.369 . S
C1145 C1147 1.419 . S
C1145 H1149 0.930 . S
C1146 C1145 1.369 . S
C1146 C1155 1.429 . S
C1147 C1145 1.419 . S
C1147 C1148 1.363 . S
C1147 H1150 0.929 . S
C1148 C1147 1.363 . S
C1148 C1154 1.428 . S
H1149 C1145 0.930 . S
H1150 C1147 0.929 . S
S1151 N1152 1.613 . S
S1151 N1153 1.610 . S
N1152 S1151 1.613 . S
N1152 C1155 1.350 . S
N1153 S1151 1.610 . S
N1153 C1154 1.351 . S
C1154 C1148 1.428 . S
C1154 N1153 1.351 . S
C1154 C1155 1.434 . S
C1155 C1146 1.429 . S
C1155 N1152 1.350 . S
C1155 C1154 1.434 . S
C1156 C1157 1.369 . S
C1156 C1158 1.419 . S
C1156 H1160 0.930 . S
C1157 C1156 1.369 . S
C1157 C1166 1.429 . S
C1158 C1156 1.419 . S
C1158 C1159 1.363 . S
C1158 H1161 0.929 . S
C1159 C1158 1.363 . S
C1159 C1165 1.428 . S
H1160 C1156 0.930 . S
H1161 C1158 0.929 . S
S1162 N1163 1.613 . S
S1162 N1164 1.610 . S
N1163 S1162 1.613 . S
N1163 C1166 1.350 . S
N1164 S1162 1.610 . S
N1164 C1165 1.351 . S
C1165 C1159 1.428 . S
C1165 N1164 1.351 . S
C1165 C1166 1.434 . S
C1166 C1157 1.429 . S
C1166 N1163 1.350 . S
C1166 C1165 1.434 . S
C1167 C1168 1.369 . S
C1167 C1169 1.419 . S
C1167 H1171 0.930 . S
C1168 C1167 1.369 . S
C1168 C1177 1.429 . S
C1169 C1167 1.419 . S
C1169 C1170 1.363 . S
C1169 H1172 0.929 . S
C1170 C1169 1.363 . S
C1170 C1176 1.428 . S
H1171 C1167 0.930 . S
H1172 C1169 0.929 . S
S1173 N1174 1.613 . S
S1173 N1175 1.610 . S
N1174 S1173 1.613 . S
N1174 C1177 1.350 . S
N1175 S1173 1.610 . S
N1175 C1176 1.351 . S
C1176 C1170 1.428 . S
C1176 N1175 1.351 . S
C1176 C1177 1.434 . S
C1177 C1168 1.429 . S
C1177 N1174 1.350 . S
C1177 C1176 1.434 . S
C1178 C1179 1.369 . S
C1178 C1180 1.419 . S
C1178 H1182 0.930 . S
C1179 C1178 1.369 . S
C1179 C1188 1.429 . S
C1180 C1178 1.419 . S
C1180 C1181 1.363 . S
C1180 H1183 0.929 . S
C1181 C1180 1.363 . S
C1181 C1187 1.428 . S
H1182 C1178 0.930 . S
H1183 C1180 0.929 . S
S1184 N1185 1.613 . S
S1184 N1186 1.610 . S
N1185 S1184 1.613 . S
N1185 C1188 1.350 . S
N1186 S1184 1.610 . S
N1186 C1187 1.351 . S
C1187 C1181 1.428 . S
C1187 N1186 1.351 . S
C1187 C1188 1.434 . S
C1188 C1179 1.429 . S
C1188 N1185 1.350 . S
C1188 C1187 1.434 . S
C1189 C1190 1.369 . S
C1189 C1191 1.419 . S
C1189 H1193 0.930 . S
C1190 C1189 1.369 . S
C1190 C1199 1.429 . S
C1191 C1189 1.419 . S
C1191 C1192 1.363 . S
C1191 H1194 0.929 . S
C1192 C1191 1.363 . S
C1192 C1198 1.428 . S
H1193 C1189 0.930 . S
H1194 C1191 0.929 . S
S1195 N1196 1.613 . S
S1195 N1197 1.610 . S
N1196 S1195 1.613 . S
N1196 C1199 1.350 . S
N1197 S1195 1.610 . S
N1197 C1198 1.351 . S
C1198 C1192 1.428 . S
C1198 N1197 1.351 . S
C1198 C1199 1.434 . S
C1199 C1190 1.429 . S
C1199 N1196 1.350 . S
C1199 C1198 1.434 . S
C1200 C1201 1.369 . S
C1200 C1202 1.419 . S
C1200 H1204 0.930 . S
C1201 C1200 1.369 . S
C1201 C1210 1.429 . S
C1202 C1200 1.419 . S
C1202 C1203 1.363 . S
C1202 H1205 0.929 . S
C1203 C1202 1.363 . S
C1203 C1209 1.428 . S
H1204 C1200 0.930 . S
H1205 C1202 0.929 . S
S1206 N1207 1.613 . S
S1206 N1208 1.610 . S
N1207 S1206 1.613 . S
N1207 C1210 1.350 . S
N1208 S1206 1.610 . S
N1208 C1209 1.351 . S
C1209 C1203 1.428 . S
C1209 N1208 1.351 . S
C1209 C1210 1.434 . S
C1210 C1201 1.429 . S
C1210 N1207 1.350 . S
C1210 C1209 1.434 . S
C1211 C1212 1.369 . S
C1211 C1213 1.419 . S
C1211 H1215 0.930 . S
C1212 C1211 1.369 . S
C1212 C1221 1.429 . S
C1213 C1211 1.419 . S
C1213 C1214 1.363 . S
C1213 H1216 0.929 . S
C1214 C1213 1.363 . S
C1214 C1220 1.428 . S
H1215 C1211 0.930 . S
H1216 C1213 0.929 . S
S1217 N1218 1.613 . S
S1217 N1219 1.610 . S
N1218 S1217 1.613 . S
N1218 C1221 1.350 . S
N1219 S1217 1.610 . S
N1219 C1220 1.351 . S
C1220 C1214 1.428 . S
C1220 N1219 1.351 . S
C1220 C1221 1.434 . S
C1221 C1212 1.429 . S
C1221 N1218 1.350 . S
C1221 C1220 1.434 . S
C1222 C1223 1.369 . S
C1222 C1224 1.419 . S
C1222 H1226 0.930 . S
C1223 C1222 1.369 . S
C1223 C1232 1.429 . S
C1224 C1222 1.419 . S
C1224 C1225 1.363 . S
C1224 H1227 0.929 . S
C1225 C1224 1.363 . S
C1225 C1231 1.428 . S
H1226 C1222 0.930 . S
H1227 C1224 0.929 . S
S1228 N1229 1.613 . S
S1228 N1230 1.610 . S
N1229 S1228 1.613 . S
N1229 C1232 1.350 . S
N1230 S1228 1.610 . S
N1230 C1231 1.351 . S
C1231 C1225 1.428 . S
C1231 N1230 1.351 . S
C1231 C1232 1.434 . S
C1232 C1223 1.429 . S
C1232 N1229 1.350 . S
C1232 C1231 1.434 . S
C1233 C1234 1.369 . S
C1233 C1235 1.419 . S
C1233 H1237 0.930 . S
C1234 C1233 1.369 . S
C1234 C1243 1.429 . S
C1235 C1233 1.419 . S
C1235 C1236 1.363 . S
C1235 H1238 0.929 . S
C1236 C1235 1.363 . S
C1236 C1242 1.428 . S
H1237 C1233 0.930 . S
H1238 C1235 0.929 . S
S1239 N1240 1.613 . S
S1239 N1241 1.610 . S
N1240 S1239 1.613 . S
N1240 C1243 1.350 . S
N1241 S1239 1.610 . S
N1241 C1242 1.351 . S
C1242 C1236 1.428 . S
C1242 N1241 1.351 . S
C1242 C1243 1.434 . S
C1243 C1234 1.429 . S
C1243 N1240 1.350 . S
C1243 C1242 1.434 . S
C1244 C1245 1.369 . S
C1244 C1246 1.419 . S
C1244 H1248 0.930 . S
C1245 C1244 1.369 . S
C1245 C1254 1.429 . S
C1246 C1244 1.419 . S
C1246 C1247 1.363 . S
C1246 H1249 0.929 . S
C1247 C1246 1.363 . S
C1247 C1253 1.428 . S
H1248 C1244 0.930 . S
H1249 C1246 0.929 . S
S1250 N1251 1.613 . S
S1250 N1252 1.610 . S
N1251 S1250 1.613 . S
N1251 C1254 1.350 . S
N1252 S1250 1.610 . S
N1252 C1253 1.351 . S
C1253 C1247 1.428 . S
C1253 N1252 1.351 . S
C1253 C1254 1.434 . S
C1254 C1245 1.429 . S
C1254 N1251 1.350 . S
C1254 C1253 1.434 . S
C1255 C1256 1.369 . S
C1255 C1257 1.419 . S
C1255 H1259 0.930 . S
C1256 C1255 1.369 . S
C1256 C1265 1.429 . S
C1257 C1255 1.419 . S
C1257 C1258 1.363 . S
C1257 H1260 0.929 . S
C1258 C1257 1.363 . S
C1258 C1264 1.428 . S
H1259 C1255 0.930 . S
H1260 C1257 0.929 . S
S1261 N1262 1.613 . S
S1261 N1263 1.610 . S
N1262 S1261 1.613 . S
N1262 C1265 1.350 . S
N1263 S1261 1.610 . S
N1263 C1264 1.351 . S
C1264 C1258 1.428 . S
C1264 N1263 1.351 . S
C1264 C1265 1.434 . S
C1265 C1256 1.429 . S
C1265 N1262 1.350 . S
C1265 C1264 1.434 . S
C1266 C1267 1.369 . S
C1266 C1268 1.419 . S
C1266 H1270 0.930 . S
C1267 C1266 1.369 . S
C1267 C1276 1.429 . S
C1268 C1266 1.419 . S
C1268 C1269 1.363 . S
C1268 H1271 0.929 . S
C1269 C1268 1.363 . S
C1269 C1275 1.428 . S
H1270 C1266 0.930 . S
H1271 C1268 0.929 . S
S1272 N1273 1.613 . S
S1272 N1274 1.610 . S
N1273 S1272 1.613 . S
N1273 C1276 1.350 . S
N1274 S1272 1.610 . S
N1274 C1275 1.351 . S
C1275 C1269 1.428 . S
C1275 N1274 1.351 . S
C1275 C1276 1.434 . S
C1276 C1267 1.429 . S
C1276 N1273 1.350 . S
C1276 C1275 1.434 . S
C1277 C1278 1.369 . S
C1277 C1279 1.419 . S
C1277 H1281 0.930 . S
C1278 C1277 1.369 . S
C1278 C1287 1.429 . S
C1279 C1277 1.419 . S
C1279 C1280 1.363 . S
C1279 H1282 0.929 . S
C1280 C1279 1.363 . S
C1280 C1286 1.428 . S
H1281 C1277 0.930 . S
H1282 C1279 0.929 . S
S1283 N1284 1.613 . S
S1283 N1285 1.610 . S
N1284 S1283 1.613 . S
N1284 C1287 1.350 . S
N1285 S1283 1.610 . S
N1285 C1286 1.351 . S
C1286 C1280 1.428 . S
C1286 N1285 1.351 . S
C1286 C1287 1.434 . S
C1287 C1278 1.429 . S
C1287 N1284 1.350 . S
C1287 C1286 1.434 . S
C1288 C1289 1.369 . S
C1288 C1290 1.419 . S
C1288 H1292 0.930 . S
C1289 C1288 1.369 . S
C1289 C1298 1.429 . S
C1290 C1288 1.419 . S
C1290 C1291 1.363 . S
C1290 H1293 0.929 . S
C1291 C1290 1.363 . S
C1291 C1297 1.428 . S
H1292 C1288 0.930 . S
H1293 C1290 0.929 . S
S1294 N1295 1.613 . S
S1294 N1296 1.610 . S
N1295 S1294 1.613 . S
N1295 C1298 1.350 . S
N1296 S1294 1.610 . S
N1296 C1297 1.351 . S
C1297 C1291 1.428 . S
C1297 N1296 1.351 . S
C1297 C1298 1.434 . S
C1298 C1289 1.429 . S
C1298 N1295 1.350 . S
C1298 C1297 1.434 . S
C1299 C1300 1.369 . S
C1299 C1301 1.419 . S
C1299 H1303 0.930 . S
C1300 C1299 1.369 . S
C1300 C1309 1.429 . S
C1301 C1299 1.419 . S
C1301 C1302 1.363 . S
C1301 H1304 0.929 . S
C1302 C1301 1.363 . S
C1302 C1308 1.428 . S
H1303 C1299 0.930 . S
H1304 C1301 0.929 . S
S1305 N1306 1.613 . S
S1305 N1307 1.610 . S
N1306 S1305 1.613 . S
N1306 C1309 1.350 . S
N1307 S1305 1.610 . S
N1307 C1308 1.351 . S
C1308 C1302 1.428 . S
C1308 N1307 1.351 . S
C1308 C1309 1.434 . S
C1309 C1300 1.429 . S
C1309 N1306 1.350 . S
C1309 C1308 1.434 . S
C1310 C1311 1.369 . S
C1310 C1312 1.419 . S
C1310 H1314 0.930 . S
C1311 C1310 1.369 . S
C1311 C1320 1.429 . S
C1312 C1310 1.419 . S
C1312 C1313 1.363 . S
C1312 H1315 0.929 . S
C1313 C1312 1.363 . S
C1313 C1319 1.428 . S
H1314 C1310 0.930 . S
H1315 C1312 0.929 . S
S1316 N1317 1.613 . S
S1316 N1318 1.610 . S
N1317 S1316 1.613 . S
N1317 C1320 1.350 . S
N1318 S1316 1.610 . S
N1318 C1319 1.351 . S
C1319 C1313 1.428 . S
C1319 N1318 1.351 . S
C1319 C1320 1.434 . S
C1320 C1311 1.429 . S
C1320 N1317 1.350 . S
C1320 C1319 1.434 . S
C1321 C1322 1.369 . S
C1321 C1323 1.419 . S
C1321 H1325 0.930 . S
C1322 C1321 1.369 . S
C1322 C1331 1.429 . S
C1323 C1321 1.419 . S
C1323 C1324 1.363 . S
C1323 H1326 0.929 . S
C1324 C1323 1.363 . S
C1324 C1330 1.428 . S
H1325 C1321 0.930 . S
H1326 C1323 0.929 . S
S1327 N1328 1.613 . S
S1327 N1329 1.610 . S
N1328 S1327 1.613 . S
N1328 C1331 1.350 . S
N1329 S1327 1.610 . S
N1329 C1330 1.351 . S
C1330 C1324 1.428 . S
C1330 N1329 1.351 . S
C1330 C1331 1.434 . S
C1331 C1322 1.429 . S
C1331 N1328 1.350 . S
C1331 C1330 1.434 . S
C1332 C1333 1.369 . S
C1332 C1334 1.419 . S
C1332 H1336 0.930 . S
C1333 C1332 1.369 . S
C1333 C1342 1.429 . S
C1334 C1332 1.419 . S
C1334 C1335 1.363 . S
C1334 H1337 0.929 . S
C1335 C1334 1.363 . S
C1335 C1341 1.428 . S
H1336 C1332 0.930 . S
H1337 C1334 0.929 . S
S1338 N1339 1.613 . S
S1338 N1340 1.610 . S
N1339 S1338 1.613 . S
N1339 C1342 1.350 . S
N1340 S1338 1.610 . S
N1340 C1341 1.351 . S
C1341 C1335 1.428 . S
C1341 N1340 1.351 . S
C1341 C1342 1.434 . S
C1342 C1333 1.429 . S
C1342 N1339 1.350 . S
C1342 C1341 1.434 . S
C1343 C1344 1.369 . S
C1343 C1345 1.419 . S
C1343 H1347 0.930 . S
C1344 C1343 1.369 . S
C1344 C1353 1.429 . S
C1345 C1343 1.419 . S
C1345 C1346 1.363 . S
C1345 H1348 0.929 . S
C1346 C1345 1.363 . S
C1346 C1352 1.428 . S
H1347 C1343 0.930 . S
H1348 C1345 0.929 . S
S1349 N1350 1.613 . S
S1349 N1351 1.610 . S
N1350 S1349 1.613 . S
N1350 C1353 1.350 . S
N1351 S1349 1.610 . S
N1351 C1352 1.351 . S
C1352 C1346 1.428 . S
C1352 N1351 1.351 . S
C1352 C1353 1.434 . S
C1353 C1344 1.429 . S
C1353 N1350 1.350 . S
C1353 C1352 1.434 . S
C1354 C1355 1.369 . S
C1354 C1356 1.419 . S
C1354 H1358 0.930 . S
C1355 C1354 1.369 . S
C1355 C1364 1.429 . S
C1356 C1354 1.419 . S
C1356 C1357 1.363 . S
C1356 H1359 0.929 . S
C1357 C1356 1.363 . S
C1357 C1363 1.428 . S
H1358 C1354 0.930 . S
H1359 C1356 0.929 . S
S1360 N1361 1.613 . S
S1360 N1362 1.610 . S
N1361 S1360 1.613 . S
N1361 C1364 1.350 . S
N1362 S1360 1.610 . S
N1362 C1363 1.351 . S
C1363 C1357 1.428 . S
C1363 N1362 1.351 . S
C1363 C1364 1.434 . S
C1364 C1355 1.429 . S
C1364 N1361 1.350 . S
C1364 C1363 1.434 . S
C1365 C1366 1.369 . S
C1365 C1367 1.419 . S
C1365 H1369 0.930 . S
C1366 C1365 1.369 . S
C1366 C1375 1.429 . S
C1367 C1365 1.419 . S
C1367 C1368 1.363 . S
C1367 H1370 0.929 . S
C1368 C1367 1.363 . S
C1368 C1374 1.428 . S
H1369 C1365 0.930 . S
H1370 C1367 0.929 . S
S1371 N1372 1.613 . S
S1371 N1373 1.610 . S
N1372 S1371 1.613 . S
N1372 C1375 1.350 . S
N1373 S1371 1.610 . S
N1373 C1374 1.351 . S
C1374 C1368 1.428 . S
C1374 N1373 1.351 . S
C1374 C1375 1.434 . S
C1375 C1366 1.429 . S
C1375 N1372 1.350 . S
C1375 C1374 1.434 . S
C1376 C1377 1.369 . S
C1376 C1378 1.419 . S
C1376 H1380 0.930 . S
C1377 C1376 1.369 . S
C1377 C1386 1.429 . S
C1378 C1376 1.419 . S
C1378 C1379 1.363 . S
C1378 H1381 0.929 . S
C1379 C1378 1.363 . S
C1379 C1385 1.428 . S
H1380 C1376 0.930 . S
H1381 C1378 0.929 . S
S1382 N1383 1.613 . S
S1382 N1384 1.610 . S
N1383 S1382 1.613 . S
N1383 C1386 1.350 . S
N1384 S1382 1.610 . S
N1384 C1385 1.351 . S
C1385 C1379 1.428 . S
C1385 N1384 1.351 . S
C1385 C1386 1.434 . S
C1386 C1377 1.429 . S
C1386 N1383 1.350 . S
C1386 C1385 1.434 . S
C1387 C1388 1.369 . S
C1387 C1389 1.419 . S
C1387 H1391 0.930 . S
C1388 C1387 1.369 . S
C1388 C1397 1.429 . S
C1389 C1387 1.419 . S
C1389 C1390 1.363 . S
C1389 H1392 0.929 . S
C1390 C1389 1.363 . S
C1390 C1396 1.428 . S
H1391 C1387 0.930 . S
H1392 C1389 0.929 . S
S1393 N1394 1.613 . S
S1393 N1395 1.610 . S
N1394 S1393 1.613 . S
N1394 C1397 1.350 . S
N1395 S1393 1.610 . S
N1395 C1396 1.351 . S
C1396 C1390 1.428 . S
C1396 N1395 1.351 . S
C1396 C1397 1.434 . S
C1397 C1388 1.429 . S
C1397 N1394 1.350 . S
C1397 C1396 1.434 . S
C1398 C1399 1.369 . S
C1398 C1400 1.419 . S
C1398 H1402 0.930 . S
C1399 C1398 1.369 . S
C1399 C1408 1.429 . S
C1400 C1398 1.419 . S
C1400 C1401 1.363 . S
C1400 H1403 0.929 . S
C1401 C1400 1.363 . S
C1401 C1407 1.428 . S
H1402 C1398 0.930 . S
H1403 C1400 0.929 . S
S1404 N1405 1.613 . S
S1404 N1406 1.610 . S
N1405 S1404 1.613 . S
N1405 C1408 1.350 . S
N1406 S1404 1.610 . S
N1406 C1407 1.351 . S
C1407 C1401 1.428 . S
C1407 N1406 1.351 . S
C1407 C1408 1.434 . S
C1408 C1399 1.429 . S
C1408 N1405 1.350 . S
C1408 C1407 1.434 . S
C1409 C1410 1.369 . S
C1409 C1411 1.419 . S
C1409 H1413 0.930 . S
C1410 C1409 1.369 . S
C1410 C1419 1.429 . S
C1411 C1409 1.419 . S
C1411 C1412 1.363 . S
C1411 H1414 0.929 . S
C1412 C1411 1.363 . S
C1412 C1418 1.428 . S
H1413 C1409 0.930 . S
H1414 C1411 0.929 . S
S1415 N1416 1.613 . S
S1415 N1417 1.610 . S
N1416 S1415 1.613 . S
N1416 C1419 1.350 . S
N1417 S1415 1.610 . S
N1417 C1418 1.351 . S
C1418 C1412 1.428 . S
C1418 N1417 1.351 . S
C1418 C1419 1.434 . S
C1419 C1410 1.429 . S
C1419 N1416 1.350 . S
C1419 C1418 1.434 . S
C1420 C1421 1.369 . S
C1420 C1422 1.419 . S
C1420 H1424 0.930 . S
C1421 C1420 1.369 . S
C1421 C1430 1.429 . S
C1422 C1420 1.419 . S
C1422 C1423 1.363 . S
C1422 H1425 0.929 . S
C1423 C1422 1.363 . S
C1423 C1429 1.428 . S
H1424 C1420 0.930 . S
H1425 C1422 0.929 . S
S1426 N1427 1.613 . S
S1426 N1428 1.610 . S
N1427 S1426 1.613 . S
N1427 C1430 1.350 . S
N1428 S1426 1.610 . S
N1428 C1429 1.351 . S
C1429 C1423 1.428 . S
C1429 N1428 1.351 . S
C1429 C1430 1.434 . S
C1430 C1421 1.429 . S
C1430 N1427 1.350 . S
C1430 C1429 1.434 . S
C1431 C1432 1.369 . S
C1431 C1433 1.419 . S
C1431 H1435 0.930 . S
C1432 C1431 1.369 . S
C1432 C1441 1.429 . S
C1433 C1431 1.419 . S
C1433 C1434 1.363 . S
C1433 H1436 0.929 . S
C1434 C1433 1.363 . S
C1434 C1440 1.428 . S
H1435 C1431 0.930 . S
H1436 C1433 0.929 . S
S1437 N1438 1.613 . S
S1437 N1439 1.610 . S
N1438 S1437 1.613 . S
N1438 C1441 1.350 . S
N1439 S1437 1.610 . S
N1439 C1440 1.351 . S
C1440 C1434 1.428 . S
C1440 N1439 1.351 . S
C1440 C1441 1.434 . S
C1441 C1432 1.429 . S
C1441 N1438 1.350 . S
C1441 C1440 1.434 . S
C1442 C1443 1.369 . S
C1442 C1444 1.419 . S
C1442 H1446 0.930 . S
C1443 C1442 1.369 . S
C1443 C1452 1.429 . S
C1444 C1442 1.419 . S
C1444 C1445 1.363 . S
C1444 H1447 0.929 . S
C1445 C1444 1.363 . S
C1445 C1451 1.428 . S
H1446 C1442 0.930 . S
H1447 C1444 0.929 . S
S1448 N1449 1.613 . S
S1448 N1450 1.610 . S
N1449 S1448 1.613 . S
N1449 C1452 1.350 . S
N1450 S1448 1.610 . S
N1450 C1451 1.351 . S
C1451 C1445 1.428 . S
C1451 N1450 1.351 . S
C1451 C1452 1.434 . S
C1452 C1443 1.429 . S
C1452 N1449 1.350 . S
C1452 C1451 1.434 . S
C1453 C1454 1.369 . S
C1453 C1455 1.419 . S
C1453 H1457 0.930 . S
C1454 C1453 1.369 . S
C1454 C1463 1.429 . S
C1455 C1453 1.419 . S
C1455 C1456 1.363 . S
C1455 H1458 0.929 . S
C1456 C1455 1.363 . S
C1456 C1462 1.428 . S
H1457 C1453 0.930 . S
H1458 C1455 0.929 . S
S1459 N1460 1.613 . S
S1459 N1461 1.610 . S
N1460 S1459 1.613 . S
N1460 C1463 1.350 . S
N1461 S1459 1.610 . S
N1461 C1462 1.351 . S
C1462 C1456 1.428 . S
C1462 N1461 1.351 . S
C1462 C1463 1.434 . S
C1463 C1454 1.429 . S
C1463 N1460 1.350 . S
C1463 C1462 1.434 . S
C1464 C1465 1.369 . S
C1464 C1466 1.419 . S
C1464 H1468 0.930 . S
C1465 C1464 1.369 . S
C1465 C1474 1.429 . S
C1466 C1464 1.419 . S
C1466 C1467 1.363 . S
C1466 H1469 0.929 . S
C1467 C1466 1.363 . S
C1467 C1473 1.428 . S
H1468 C1464 0.930 . S
H1469 C1466 0.929 . S
S1470 N1471 1.613 . S
S1470 N1472 1.610 . S
N1471 S1470 1.613 . S
N1471 C1474 1.350 . S
N1472 S1470 1.610 . S
N1472 C1473 1.351 . S
C1473 C1467 1.428 . S
C1473 N1472 1.351 . S
C1473 C1474 1.434 . S
C1474 C1465 1.429 . S
C1474 N1471 1.350 . S
C1474 C1473 1.434 . S
C1475 C1476 1.369 . S
C1475 C1477 1.419 . S
C1475 H1479 0.930 . S
C1476 C1475 1.369 . S
C1476 C1485 1.429 . S
C1477 C1475 1.419 . S
C1477 C1478 1.363 . S
C1477 H1480 0.929 . S
C1478 C1477 1.363 . S
C1478 C1484 1.428 . S
H1479 C1475 0.930 . S
H1480 C1477 0.929 . S
S1481 N1482 1.613 . S
S1481 N1483 1.610 . S
N1482 S1481 1.613 . S
N1482 C1485 1.350 . S
N1483 S1481 1.610 . S
N1483 C1484 1.351 . S
C1484 C1478 1.428 . S
C1484 N1483 1.351 . S
C1484 C1485 1.434 . S
C1485 C1476 1.429 . S
C1485 N1482 1.350 . S
C1485 C1484 1.434 . S
C1486 C1487 1.369 . S
C1486 C1488 1.419 . S
C1486 H1490 0.930 . S
C1487 C1486 1.369 . S
C1487 C1496 1.429 . S
C1488 C1486 1.419 . S
C1488 C1489 1.363 . S
C1488 H1491 0.929 . S
C1489 C1488 1.363 . S
C1489 C1495 1.428 . S
H1490 C1486 0.930 . S
H1491 C1488 0.929 . S
S1492 N1493 1.613 . S
S1492 N1494 1.610 . S
N1493 S1492 1.613 . S
N1493 C1496 1.350 . S
N1494 S1492 1.610 . S
N1494 C1495 1.351 . S
C1495 C1489 1.428 . S
C1495 N1494 1.351 . S
C1495 C1496 1.434 . S
C1496 C1487 1.429 . S
C1496 N1493 1.350 . S
C1496 C1495 1.434 . S
C1497 C1498 1.369 . S
C1497 C1499 1.419 . S
C1497 H1501 0.930 . S
C1498 C1497 1.369 . S
C1498 C1507 1.429 . S
C1499 C1497 1.419 . S
C1499 C1500 1.363 . S
C1499 H1502 0.929 . S
C1500 C1499 1.363 . S
C1500 C1506 1.428 . S
H1501 C1497 0.930 . S
H1502 C1499 0.929 . S
S1503 N1504 1.613 . S
S1503 N1505 1.610 . S
N1504 S1503 1.613 . S
N1504 C1507 1.350 . S
N1505 S1503 1.610 . S
N1505 C1506 1.351 . S
C1506 C1500 1.428 . S
C1506 N1505 1.351 . S
C1506 C1507 1.434 . S
C1507 C1498 1.429 . S
C1507 N1504 1.350 . S
C1507 C1506 1.434 . S
C1508 C1509 1.369 . S
C1508 C1510 1.419 . S
C1508 H1512 0.930 . S
C1509 C1508 1.369 . S
C1509 C1518 1.429 . S
C1510 C1508 1.419 . S
C1510 C1511 1.363 . S
C1510 H1513 0.929 . S
C1511 C1510 1.363 . S
C1511 C1517 1.428 . S
H1512 C1508 0.930 . S
H1513 C1510 0.929 . S
S1514 N1515 1.613 . S
S1514 N1516 1.610 . S
N1515 S1514 1.613 . S
N1515 C1518 1.350 . S
N1516 S1514 1.610 . S
N1516 C1517 1.351 . S
C1517 C1511 1.428 . S
C1517 N1516 1.351 . S
C1517 C1518 1.434 . S
C1518 C1509 1.429 . S
C1518 N1515 1.350 . S
C1518 C1517 1.434 . S
C1519 C1520 1.369 . S
C1519 C1521 1.419 . S
C1519 H1523 0.930 . S
C1520 C1519 1.369 . S
C1520 C1529 1.429 . S
C1521 C1519 1.419 . S
C1521 C1522 1.363 . S
C1521 H1524 0.929 . S
C1522 C1521 1.363 . S
C1522 C1528 1.428 . S
H1523 C1519 0.930 . S
H1524 C1521 0.929 . S
S1525 N1526 1.613 . S
S1525 N1527 1.610 . S
N1526 S1525 1.613 . S
N1526 C1529 1.350 . S
N1527 S1525 1.610 . S
N1527 C1528 1.351 . S
C1528 C1522 1.428 . S
C1528 N1527 1.351 . S
C1528 C1529 1.434 . S
C1529 C1520 1.429 . S
C1529 N1526 1.350 . S
C1529 C1528 1.434 . S
C1530 C1531 1.369 . S
C1530 C1532 1.419 . S
C1530 H1534 0.930 . S
C1531 C1530 1.369 . S
C1531 C1540 1.429 . S
C1532 C1530 1.419 . S
C1532 C1533 1.363 . S
C1532 H1535 0.929 . S
C1533 C1532 1.363 . S
C1533 C1539 1.428 . S
H1534 C1530 0.930 . S
H1535 C1532 0.929 . S
S1536 N1537 1.613 . S
S1536 N1538 1.610 . S
N1537 S1536 1.613 . S
N1537 C1540 1.350 . S
N1538 S1536 1.610 . S
N1538 C1539 1.351 . S
C1539 C1533 1.428 . S
C1539 N1538 1.351 . S
C1539 C1540 1.434 . S
C1540 C1531 1.429 . S
C1540 N1537 1.350 . S
C1540 C1539 1.434 . S
C1541 C1542 1.369 . S
C1541 C1543 1.419 . S
C1541 H1545 0.930 . S
C1542 C1541 1.369 . S
C1542 C1551 1.429 . S
C1543 C1541 1.419 . S
C1543 C1544 1.363 . S
C1543 H1546 0.929 . S
C1544 C1543 1.363 . S
C1544 C1550 1.428 . S
H1545 C1541 0.930 . S
H1546 C1543 0.929 . S
S1547 N1548 1.613 . S
S1547 N1549 1.610 . S
N1548 S1547 1.613 . S
N1548 C1551 1.350 . S
N1549 S1547 1.610 . S
N1549 C1550 1.351 . S
C1550 C1544 1.428 . S
C1550 N1549 1.351 . S
C1550 C1551 1.434 . S
C1551 C1542 1.429 . S
C1551 N1548 1.350 . S
C1551 C1550 1.434 . S
C1552 C1553 1.369 . S
C1552 C1554 1.419 . S
C1552 H1556 0.930 . S
C1553 C1552 1.369 . S
C1553 C1562 1.429 . S
C1554 C1552 1.419 . S
C1554 C1555 1.363 . S
C1554 H1557 0.929 . S
C1555 C1554 1.363 . S
C1555 C1561 1.428 . S
H1556 C1552 0.930 . S
H1557 C1554 0.929 . S
S1558 N1559 1.613 . S
S1558 N1560 1.610 . S
N1559 S1558 1.613 . S
N1559 C1562 1.350 . S
N1560 S1558 1.610 . S
N1560 C1561 1.351 . S
C1561 C1555 1.428 . S
C1561 N1560 1.351 . S
C1561 C1562 1.434 . S
C1562 C1553 1.429 . S
C1562 N1559 1.350 . S
C1562 C1561 1.434 . S
C1563 C1564 1.369 . S
C1563 C1565 1.419 . S
C1563 H1567 0.930 . S
C1564 C1563 1.369 . S
C1564 C1573 1.429 . S
C1565 C1563 1.419 . S
C1565 C1566 1.363 . S
C1565 H1568 0.929 . S
C1566 C1565 1.363 . S
C1566 C1572 1.428 . S
H1567 C1563 0.930 . S
H1568 C1565 0.929 . S
S1569 N1570 1.613 . S
S1569 N1571 1.610 . S
N1570 S1569 1.613 . S
N1570 C1573 1.350 . S
N1571 S1569 1.610 . S
N1571 C1572 1.351 . S
C1572 C1566 1.428 . S
C1572 N1571 1.351 . S
C1572 C1573 1.434 . S
C1573 C1564 1.429 . S
C1573 N1570 1.350 . S
C1573 C1572 1.434 . S
C1574 C1575 1.369 . S
C1574 C1576 1.419 . S
C1574 H1578 0.930 . S
C1575 C1574 1.369 . S
C1575 C1584 1.429 . S
C1576 C1574 1.419 . S
C1576 C1577 1.363 . S
C1576 H1579 0.929 . S
C1577 C1576 1.363 . S
C1577 C1583 1.428 . S
H1578 C1574 0.930 . S
H1579 C1576 0.929 . S
S1580 N1581 1.613 . S
S1580 N1582 1.610 . S
N1581 S1580 1.613 . S
N1581 C1584 1.350 . S
N1582 S1580 1.610 . S
N1582 C1583 1.351 . S
C1583 C1577 1.428 . S
C1583 N1582 1.351 . S
C1583 C1584 1.434 . S
C1584 C1575 1.429 . S
C1584 N1581 1.350 . S
C1584 C1583 1.434 . S
C1585 C1586 1.369 . S
C1585 C1587 1.419 . S
C1585 H1589 0.930 . S
C1586 C1585 1.369 . S
C1586 C1595 1.429 . S
C1587 C1585 1.419 . S
C1587 C1588 1.363 . S
C1587 H1590 0.929 . S
C1588 C1587 1.363 . S
C1588 C1594 1.428 . S
H1589 C1585 0.930 . S
H1590 C1587 0.929 . S
S1591 N1592 1.613 . S
S1591 N1593 1.610 . S
N1592 S1591 1.613 . S
N1592 C1595 1.350 . S
N1593 S1591 1.610 . S
N1593 C1594 1.351 . S
C1594 C1588 1.428 . S
C1594 N1593 1.351 . S
C1594 C1595 1.434 . S
C1595 C1586 1.429 . S
C1595 N1592 1.350 . S
C1595 C1594 1.434 . S
C1596 C1597 1.369 . S
C1596 C1598 1.419 . S
C1596 H1600 0.930 . S
C1597 C1596 1.369 . S
C1597 C1606 1.429 . S
C1598 C1596 1.419 . S
C1598 C1599 1.363 . S
C1598 H1601 0.929 . S
C1599 C1598 1.363 . S
C1599 C1605 1.428 . S
H1600 C1596 0.930 . S
H1601 C1598 0.929 . S
S1602 N1603 1.613 . S
S1602 N1604 1.610 . S
N1603 S1602 1.613 . S
N1603 C1606 1.350 . S
N1604 S1602 1.610 . S
N1604 C1605 1.351 . S
C1605 C1599 1.428 . S
C1605 N1604 1.351 . S
C1605 C1606 1.434 . S
C1606 C1597 1.429 . S
C1606 N1603 1.350 . S
C1606 C1605 1.434 . S
C1607 C1608 1.369 . S
C1607 C1609 1.419 . S
C1607 H1611 0.930 . S
C1608 C1607 1.369 . S
C1608 C1617 1.429 . S
C1609 C1607 1.419 . S
C1609 C1610 1.363 . S
C1609 H1612 0.929 . S
C1610 C1609 1.363 . S
C1610 C1616 1.428 . S
H1611 C1607 0.930 . S
H1612 C1609 0.929 . S
S1613 N1614 1.613 . S
S1613 N1615 1.610 . S
N1614 S1613 1.613 . S
N1614 C1617 1.350 . S
N1615 S1613 1.610 . S
N1615 C1616 1.351 . S
C1616 C1610 1.428 . S
C1616 N1615 1.351 . S
C1616 C1617 1.434 . S
C1617 C1608 1.429 . S
C1617 N1614 1.350 . S
C1617 C1616 1.434 . S
C1618 C1619 1.369 . S
C1618 C1620 1.419 . S
C1618 H1622 0.930 . S
C1619 C1618 1.369 . S
C1619 C1628 1.429 . S
C1620 C1618 1.419 . S
C1620 C1621 1.363 . S
C1620 H1623 0.929 . S
C1621 C1620 1.363 . S
C1621 C1627 1.428 . S
H1622 C1618 0.930 . S
H1623 C1620 0.929 . S
S1624 N1625 1.613 . S
S1624 N1626 1.610 . S
N1625 S1624 1.613 . S
N1625 C1628 1.350 . S
N1626 S1624 1.610 . S
N1626 C1627 1.351 . S
C1627 C1621 1.428 . S
C1627 N1626 1.351 . S
C1627 C1628 1.434 . S
C1628 C1619 1.429 . S
C1628 N1625 1.350 . S
C1628 C1627 1.434 . S
C1629 C1630 1.369 . S
C1629 C1631 1.419 . S
C1629 H1633 0.930 . S
C1630 C1629 1.369 . S
C1630 C1639 1.429 . S
C1631 C1629 1.419 . S
C1631 C1632 1.363 . S
C1631 H1634 0.929 . S
C1632 C1631 1.363 . S
C1632 C1638 1.428 . S
H1633 C1629 0.930 . S
H1634 C1631 0.929 . S
S1635 N1636 1.613 . S
S1635 N1637 1.610 . S
N1636 S1635 1.613 . S
N1636 C1639 1.350 . S
N1637 S1635 1.610 . S
N1637 C1638 1.351 . S
C1638 C1632 1.428 . S
C1638 N1637 1.351 . S
C1638 C1639 1.434 . S
C1639 C1630 1.429 . S
C1639 N1636 1.350 . S
C1639 C1638 1.434 . S
C1640 C1641 1.369 . S
C1640 C1642 1.419 . S
C1640 H1644 0.930 . S
C1641 C1640 1.369 . S
C1641 C1650 1.429 . S
C1642 C1640 1.419 . S
C1642 C1643 1.363 . S
C1642 H1645 0.929 . S
C1643 C1642 1.363 . S
C1643 C1649 1.428 . S
H1644 C1640 0.930 . S
H1645 C1642 0.929 . S
S1646 N1647 1.613 . S
S1646 N1648 1.610 . S
N1647 S1646 1.613 . S
N1647 C1650 1.350 . S
N1648 S1646 1.610 . S
N1648 C1649 1.351 . S
C1649 C1643 1.428 . S
C1649 N1648 1.351 . S
C1649 C1650 1.434 . S
C1650 C1641 1.429 . S
C1650 N1647 1.350 . S
C1650 C1649 1.434 . S
C1651 C1652 1.369 . S
C1651 C1653 1.419 . S
C1651 H1655 0.930 . S
C1652 C1651 1.369 . S
C1652 C1661 1.429 . S
C1653 C1651 1.419 . S
C1653 C1654 1.363 . S
C1653 H1656 0.929 . S
C1654 C1653 1.363 . S
C1654 C1660 1.428 . S
H1655 C1651 0.930 . S
H1656 C1653 0.929 . S
S1657 N1658 1.613 . S
S1657 N1659 1.610 . S
N1658 S1657 1.613 . S
N1658 C1661 1.350 . S
N1659 S1657 1.610 . S
N1659 C1660 1.351 . S
C1660 C1654 1.428 . S
C1660 N1659 1.351 . S
C1660 C1661 1.434 . S
C1661 C1652 1.429 . S
C1661 N1658 1.350 . S
C1661 C1660 1.434 . S
C1662 C1663 1.369 . S
C1662 C1664 1.419 . S
C1662 H1666 0.930 . S
C1663 C1662 1.369 . S
C1663 C1672 1.429 . S
C1664 C1662 1.419 . S
C1664 C1665 1.363 . S
C1664 H1667 0.929 . S
C1665 C1664 1.363 . S
C1665 C1671 1.428 . S
H1666 C1662 0.930 . S
H1667 C1664 0.929 . S
S1668 N1669 1.613 . S
S1668 N1670 1.610 . S
N1669 S1668 1.613 . S
N1669 C1672 1.350 . S
N1670 S1668 1.610 . S
N1670 C1671 1.351 . S
C1671 C1665 1.428 . S
C1671 N1670 1.351 . S
C1671 C1672 1.434 . S
C1672 C1663 1.429 . S
C1672 N1669 1.350 . S
C1672 C1671 1.434 . S
C1673 C1674 1.369 . S
C1673 C1675 1.419 . S
C1673 H1677 0.930 . S
C1674 C1673 1.369 . S
C1674 C1683 1.429 . S
C1675 C1673 1.419 . S
C1675 C1676 1.363 . S
C1675 H1678 0.929 . S
C1676 C1675 1.363 . S
C1676 C1682 1.428 . S
H1677 C1673 0.930 . S
H1678 C1675 0.929 . S
S1679 N1680 1.613 . S
S1679 N1681 1.610 . S
N1680 S1679 1.613 . S
N1680 C1683 1.350 . S
N1681 S1679 1.610 . S
N1681 C1682 1.351 . S
C1682 C1676 1.428 . S
C1682 N1681 1.351 . S
C1682 C1683 1.434 . S
C1683 C1674 1.429 . S
C1683 N1680 1.350 . S
C1683 C1682 1.434 . S
C1684 C1685 1.369 . S
C1684 C1686 1.419 . S
C1684 H1688 0.930 . S
C1685 C1684 1.369 . S
C1685 C1694 1.429 . S
C1686 C1684 1.419 . S
C1686 C1687 1.363 . S
C1686 H1689 0.929 . S
C1687 C1686 1.363 . S
C1687 C1693 1.428 . S
H1688 C1684 0.930 . S
H1689 C1686 0.929 . S
S1690 N1691 1.613 . S
S1690 N1692 1.610 . S
N1691 S1690 1.613 . S
N1691 C1694 1.350 . S
N1692 S1690 1.610 . S
N1692 C1693 1.351 . S
C1693 C1687 1.428 . S
C1693 N1692 1.351 . S
C1693 C1694 1.434 . S
C1694 C1685 1.429 . S
C1694 N1691 1.350 . S
C1694 C1693 1.434 . S
C1695 C1696 1.369 . S
C1695 C1697 1.419 . S
C1695 H1699 0.930 . S
C1696 C1695 1.369 . S
C1696 C1705 1.429 . S
C1697 C1695 1.419 . S
C1697 C1698 1.363 . S
C1697 H1700 0.929 . S
C1698 C1697 1.363 . S
C1698 C1704 1.428 . S
H1699 C1695 0.930 . S
H1700 C1697 0.929 . S
S1701 N1702 1.613 . S
S1701 N1703 1.610 . S
N1702 S1701 1.613 . S
N1702 C1705 1.350 . S
N1703 S1701 1.610 . S
N1703 C1704 1.351 . S
C1704 C1698 1.428 . S
C1704 N1703 1.351 . S
C1704 C1705 1.434 . S
C1705 C1696 1.429 . S
C1705 N1702 1.350 . S
C1705 C1704 1.434 . S
C1706 C1707 1.369 . S
C1706 C1708 1.419 . S
C1706 H1710 0.930 . S
C1707 C1706 1.369 . S
C1707 C1716 1.429 . S
C1708 C1706 1.419 . S
C1708 C1709 1.363 . S
C1708 H1711 0.929 . S
C1709 C1708 1.363 . S
C1709 C1715 1.428 . S
H1710 C1706 0.930 . S
H1711 C1708 0.929 . S
S1712 N1713 1.613 . S
S1712 N1714 1.610 . S
N1713 S1712 1.613 . S
N1713 C1716 1.350 . S
N1714 S1712 1.610 . S
N1714 C1715 1.351 . S
C1715 C1709 1.428 . S
C1715 N1714 1.351 . S
C1715 C1716 1.434 . S
C1716 C1707 1.429 . S
C1716 N1713 1.350 . S
C1716 C1715 1.434 . S
C1717 C1718 1.369 . S
C1717 C1719 1.419 . S
C1717 H1721 0.930 . S
C1718 C1717 1.369 . S
C1718 C1727 1.429 . S
C1719 C1717 1.419 . S
C1719 C1720 1.363 . S
C1719 H1722 0.929 . S
C1720 C1719 1.363 . S
C1720 C1726 1.428 . S
H1721 C1717 0.930 . S
H1722 C1719 0.929 . S
S1723 N1724 1.613 . S
S1723 N1725 1.610 . S
N1724 S1723 1.613 . S
N1724 C1727 1.350 . S
N1725 S1723 1.610 . S
N1725 C1726 1.351 . S
C1726 C1720 1.428 . S
C1726 N1725 1.351 . S
C1726 C1727 1.434 . S
C1727 C1718 1.429 . S
C1727 N1724 1.350 . S
C1727 C1726 1.434 . S
C673 C134 1.726 . S
C675 C8 1.730 . S
C684 C148 1.722 . S
C686 C22 1.731 . S
C695 C162 1.727 . S
C697 C36 1.726 . S
C706 C50 1.725 . S
C708 C120 1.728 . S
C717 C218 1.733 . S
C719 C64 1.723 . S
C728 C78 1.730 . S
C730 C176 1.727 . S
C739 C190 1.733 . S
C741 C92 1.723 . S
C750 C204 1.733 . S
C752 C106 1.723 . S
C761 C232 1.733 . S
C763 C260 1.724 . S
C772 C246 1.722 . S
C774 C316 1.732 . S
C783 C274 1.730 . S
C785 C330 1.724 . S
C794 C288 1.730 . S
C796 C302 1.724 . S
C805 C344 1.733 . S
C807 C470 1.724 . S
C816 C484 1.733 . S
C818 C358 1.723 . S
C827 C372 1.725 . S
C829 C498 1.728 . S
C838 C386 1.732 . S
C840 C456 1.726 . S
C849 C554 1.730 . S
C851 C400 1.724 . S
C860 C512 1.733 . S
C862 C414 1.723 . S
C871 C526 1.732 . S
C873 C428 1.725 . S
C882 C540 1.721 . S
C884 C442 1.731 . S
C893 C568 1.728 . S
C895 C596 1.729 . S
C904 C582 1.724 . S
C906 C652 1.729 . S
C915 C610 1.733 . S
C917 C666 1.723 . S
C926 C638 1.733 . S
C928 C624 1.723 . S
C937 C121 1.247 . S
C939 C3 1.440 . S
C948 C135 1.247 . S
C950 C17 1.440 . S
C959 C31 1.439 . S
C961 C149 1.244 . S
C970 C45 1.440 . S
C972 C163 1.247 . S
C981 C59 1.438 . S
C983 C177 1.249 . S
C992 C73 1.439 . S
C994 C191 1.243 . S
C1003 C87 1.440 . S
C1005 C205 1.242 . S
C1014 C219 1.238 . S
C1016 C101 1.440 . S
C1025 C115 1.438 . S
C1027 C233 1.253 . S
C1036 C331 1.253 . S
C1038 C129 1.439 . S
C1047 C143 1.439 . S
C1049 C303 1.254 . S
C1058 C157 1.439 . S
C1060 C317 1.242 . S
C1069 C171 1.438 . S
C1071 C247 1.254 . S
C1080 C185 1.440 . S
C1082 C261 1.249 . S
C1091 C199 1.439 . S
C1093 C275 1.252 . S
C1102 C289 1.247 . S
C1104 C213 1.440 . S
C1113 C9 1.238 . S
C1115 C227 1.440 . S
C1124 C241 1.438 . S
C1126 C65 1.250 . S
C1135 C255 1.438 . S
C1137 C79 1.252 . S
C1146 C269 1.440 . S
C1148 C93 1.248 . S
C1157 C107 1.256 . S
C1159 C283 1.438 . S
C1168 C297 1.440 . S
C1170 C37 1.245 . S
C1179 C311 1.440 . S
C1181 C51 1.240 . S
C1190 C23 1.238 . S
C1192 C325 1.440 . S
C1201 C457 1.255 . S
C1203 C339 1.438 . S
C1212 C353 1.439 . S
C1214 C471 1.254 . S
C1223 C367 1.438 . S
C1225 C485 1.254 . S
C1234 C499 1.253 . S
C1236 C381 1.438 . S
C1245 C513 1.248 . S
C1247 C395 1.440 . S
C1256 C409 1.438 . S
C1258 C527 1.249 . S
C1267 C541 1.256 . S
C1269 C423 1.438 . S
C1278 C555 1.255 . S
C1280 C437 1.439 . S
C1289 C451 1.438 . S
C1291 C569 1.253 . S
C1300 C465 1.438 . S
C1302 C667 1.251 . S
C1311 C479 1.438 . S
C1313 C639 1.254 . S
C1322 C653 1.252 . S
C1324 C493 1.439 . S
C1333 C507 1.438 . S
C1335 C583 1.254 . S
C1344 C521 1.439 . S
C1346 C597 1.253 . S
C1355 C611 1.255 . S
C1357 C535 1.439 . S
C1366 C625 1.251 . S
C1368 C549 1.438 . S
C1377 C563 1.438 . S
C1379 C345 1.253 . S
C1388 C577 1.439 . S
C1390 C401 1.243 . S
C1399 C415 1.247 . S
C1401 C591 1.438 . S
C1410 C605 1.439 . S
C1412 C429 1.252 . S
C1421 C619 1.440 . S
C1423 C443 1.247 . S
C1432 C373 1.251 . S
C1434 C633 1.438 . S
C1443 C647 1.440 . S
C1445 C387 1.240 . S
C1454 C359 1.255 . S
C1456 C661 1.438 . S
C1465 C441 1.460 . S
C1467 C7 1.458 . S
C1476 C21 1.459 . S
C1478 C399 1.458 . S
C1487 C413 1.446 . S
C1489 C35 1.448 . S
C1498 C427 1.456 . S
C1500 C49 1.456 . S
C1509 C63 1.459 . S
C1511 C357 1.458 . S
C1520 C371 1.457 . S
C1522 C77 1.457 . S
C1531 C385 1.447 . S
C1533 C91 1.448 . S
C1542 C105 1.458 . S
C1544 C343 1.457 . S
C1553 C623 1.453 . S
C1555 C119 1.452 . S
C1564 C133 1.453 . S
C1566 C581 1.453 . S
C1575 C147 1.454 . S
C1577 C595 1.454 . S
C1586 C609 1.452 . S
C1588 C161 1.453 . S
C1597 C665 1.459 . S
C1599 C175 1.457 . S
C1608 C637 1.446 . S
C1610 C189 1.447 . S
C1619 C203 1.450 . S
C1621 C651 1.450 . S
C1630 C567 1.458 . S
C1632 C217 1.456 . S
C1641 C231 1.459 . S
C1643 C553 1.458 . S
C1652 C469 1.448 . S
C1654 C245 1.449 . S
C1663 C259 1.446 . S
C1665 C483 1.448 . S
C1674 C497 1.446 . S
C1676 C273 1.448 . S
C1685 C455 1.458 . S
C1687 C287 1.457 . S
C1696 C301 1.459 . S
C1698 C525 1.458 . S
C1707 C539 1.456 . S
C1709 C315 1.454 . S
C1718 C511 1.446 . S
C1720 C329 1.447 . S
