# Generated by pormake.
# Topology wjw, (5)-cn, num edge types: 1
# Building blocks:
#     Node 0, Type 0, BuildingBlock: XOMCOT_clean_sbu_1, # of connection points: 5
#     Node 1, Type 0, BuildingBlock: XOMCOT_clean_sbu_1, # of connection points: 5
#     Node 2, Type 0, BuildingBlock: XOMCOT_clean_sbu_1, # of connection points: 5
#     Node 3, Type 0, BuildingBlock: XOMCOT_clean_sbu_1, # of connection points: 5
#     Node 4, Type 0, BuildingBlock: XOMCOT_clean_sbu_1, # of connection points: 5
#     Node 5, Type 0, BuildingBlock: XOMCOT_clean_sbu_1, # of connection points: 5
#     Node 6, Type 0, BuildingBlock: XOMCOT_clean_sbu_1, # of connection points: 5
#     Node 7, Type 0, BuildingBlock: XOMCOT_clean_sbu_1, # of connection points: 5
#     Node 8, Type 0, BuildingBlock: XOMCOT_clean_sbu_1, # of connection points: 5
#     Node 9, Type 0, BuildingBlock: XOMCOT_clean_sbu_1, # of connection points: 5
#     Node 10, Type 0, BuildingBlock: XOMCOT_clean_sbu_1, # of connection points: 5
#     Node 11, Type 0, BuildingBlock: XOMCOT_clean_sbu_1, # of connection points: 5
#     Edge 12, Type (0, 0), BuildingBlock: XUDNAN_clean_linker_2, # of connection points: 2
#     Edge 13, Type (0, 0), BuildingBlock: XUDNAN_clean_linker_2, # of connection points: 2
#     Edge 14, Type (0, 0), BuildingBlock: XUDNAN_clean_linker_2, # of connection points: 2
#     Edge 15, Type (0, 0), BuildingBlock: XUDNAN_clean_linker_2, # of connection points: 2
#     Edge 16, Type (0, 0), BuildingBlock: XUDNAN_clean_linker_2, # of connection points: 2
#     Edge 17, Type (0, 0), BuildingBlock: XUDNAN_clean_linker_2, # of connection points: 2
#     Edge 18, Type (0, 0), BuildingBlock: XUDNAN_clean_linker_2, # of connection points: 2
#     Edge 19, Type (0, 0), BuildingBlock: XUDNAN_clean_linker_2, # of connection points: 2
#     Edge 20, Type (0, 0), BuildingBlock: XUDNAN_clean_linker_2, # of connection points: 2
#     Edge 21, Type (0, 0), BuildingBlock: XUDNAN_clean_linker_2, # of connection points: 2
#     Edge 22, Type (0, 0), BuildingBlock: XUDNAN_clean_linker_2, # of connection points: 2
#     Edge 23, Type (0, 0), BuildingBlock: XUDNAN_clean_linker_2, # of connection points: 2
#     Edge 24, Type (0, 0), BuildingBlock: XUDNAN_clean_linker_2, # of connection points: 2
#     Edge 25, Type (0, 0), BuildingBlock: XUDNAN_clean_linker_2, # of connection points: 2
#     Edge 26, Type (0, 0), BuildingBlock: XUDNAN_clean_linker_2, # of connection points: 2
#     Edge 27, Type (0, 0), BuildingBlock: XUDNAN_clean_linker_2, # of connection points: 2
#     Edge 28, Type (0, 0), BuildingBlock: XUDNAN_clean_linker_2, # of connection points: 2
#     Edge 29, Type (0, 0), BuildingBlock: XUDNAN_clean_linker_2, # of connection points: 2
#     Edge 30, Type (0, 0), BuildingBlock: XUDNAN_clean_linker_2, # of connection points: 2
#     Edge 31, Type (0, 0), BuildingBlock: XUDNAN_clean_linker_2, # of connection points: 2
#     Edge 32, Type (0, 0), BuildingBlock: XUDNAN_clean_linker_2, # of connection points: 2
#     Edge 33, Type (0, 0), BuildingBlock: XUDNAN_clean_linker_2, # of connection points: 2
#     Edge 34, Type (0, 0), BuildingBlock: XUDNAN_clean_linker_2, # of connection points: 2
#     Edge 35, Type (0, 0), BuildingBlock: XUDNAN_clean_linker_2, # of connection points: 2
#     Edge 36, Type (0, 0), BuildingBlock: XUDNAN_clean_linker_2, # of connection points: 2
#     Edge 37, Type (0, 0), BuildingBlock: XUDNAN_clean_linker_2, # of connection points: 2
#     Edge 38, Type (0, 0), BuildingBlock: XUDNAN_clean_linker_2, # of connection points: 2
#     Edge 39, Type (0, 0), BuildingBlock: XUDNAN_clean_linker_2, # of connection points: 2
#     Edge 40, Type (0, 0), BuildingBlock: XUDNAN_clean_linker_2, # of connection points: 2
#     Edge 41, Type (0, 0), BuildingBlock: XUDNAN_clean_linker_2, # of connection points: 2
# Relax obj value: 0.184
# Max RMSD: 0.165
# Mean RMSD: 0.161
data_MOF--net-wjw--node1-XOMCOT_clean_sbu_1--edge1-XUDNAN_clean_linker_2
_symmetry_space_group_name_H-M    P1
_symmetry_Int_Tables_number       1
_symmetry_cell_setting            triclinic
loop_
_symmetry_equiv_pos_as_xyz
'x, y, z'
_cell_length_a     40.275071
_cell_length_b     40.227504
_cell_length_c     36.959447
_cell_angle_alpha  89.985796
_cell_angle_beta   90.027361
_cell_angle_gamma 120.10547
loop_
_atom_site_label
_atom_site_type_symbol
_atom_site_fract_x
_atom_site_fract_y
_atom_site_fract_z
_atom_type_partial_charge
C0 C 0.20003 0.3847 0.27873 0.0
C1 C 0.2174 0.36318 0.27254 0.0
N2 N 0.20356 0.33432 0.29676 0.0
N3 N 0.17525 0.36925 0.30658 0.0
C4 C 0.17781 0.33834 0.31671 0.0
H5 H 0.20596 0.41068 0.26464 0.0
Co6 Co 0.14721 0.3897 0.32764 0.0
C7 C 0.12096 0.34511 0.39833 0.0
O8 O 0.08713 0.34248 0.39975 0.0
N9 N 0.11952 0.41112 0.34862 0.0
C10 C 0.10356 0.44378 0.38636 0.0
C11 C 0.12499 0.4262 0.38215 0.0
C12 C 0.09486 0.42038 0.33278 0.0
N13 N 0.0845 0.4403 0.35527 0.0
O14 O 0.10116 0.34806 0.30828 0.0
H15 H 0.1447 0.42595 0.40188 0.0
H16 H 0.08565 0.41358 0.30495 0.0
O17 O 0.14336 0.36191 0.37181 0.0
C18 C 0.10038 0.35513 0.27476 0.0
O19 O 0.12742 0.38795 0.26157 0.0
N20 N 0.19274 0.43136 0.34358 0.0
C21 C 0.26164 0.49714 0.35965 0.0
C22 C 0.25199 0.46215 0.37633 0.0
C23 C 0.21743 0.42931 0.36759 0.0
C24 C 0.20179 0.46502 0.3269 0.0
C25 C 0.23611 0.49841 0.33467 0.0
H26 H 0.21116 0.40227 0.37951 0.0
H27 H 0.18225 0.46575 0.30725 0.0
H28 H 0.16133 0.31912 0.33835 0.0
H29 H 0.23973 0.36926 0.25296 0.0
H30 H 0.10368 0.45956 0.4101 0.0
H31 H 0.27143 0.45999 0.39517 0.0
H32 H 0.24257 0.52497 0.32133 0.0
C33 C 0.83189 0.20417 0.60924 0.0
C34 C 0.87049 0.21617 0.60945 0.0
N35 N 0.87603 0.19173 0.63002 0.0
N36 N 0.81301 0.17255 0.6302 0.0
C37 C 0.8405 0.16449 0.6404 0.0
H38 H 0.81939 0.21948 0.59657 0.0
Co39 Co 0.76214 0.14674 0.64903 0.0
C40 C 0.81285 0.17311 0.71406 0.0
O41 O 0.8338 0.20627 0.69768 0.0
N42 N 0.71182 0.12047 0.66752 0.0
C43 C 0.66225 0.09844 0.70515 0.0
C44 C 0.70148 0.11908 0.70243 0.0
C45 C 0.67811 0.10041 0.6495 0.0
N46 N 0.64727 0.0864 0.67185 0.0
O47 O 0.758 0.09874 0.63479 0.0
H48 H 0.72102 0.13275 0.72474 0.0
H49 H 0.6763 0.09615 0.62054 0.0
O50 O 0.78313 0.14624 0.698 0.0
C51 C 0.74822 0.09728 0.60162 0.0
O52 O 0.74444 0.12572 0.58899 0.0
N53 N 0.7633 0.19329 0.65766 0.0
C54 C 0.76557 0.2635 0.65497 0.0
C55 C 0.76909 0.24859 0.6882 0.0
C56 C 0.7667 0.21265 0.68911 0.0
C57 C 0.75528 0.2054 0.6262 0.0
C58 C 0.7567 0.24049 0.62408 0.0
H59 H 0.76794 0.20101 0.71499 0.0
H60 H 0.74912 0.18831 0.60201 0.0
H61 H 0.83498 0.14112 0.6585 0.0
H62 H 0.89303 0.24299 0.59841 0.0
H63 H 0.64618 0.09356 0.72993 0.0
H64 H 0.77441 0.26471 0.71306 0.0
H65 H 0.7514 0.24968 0.59824 0.0
C66 C 0.64067 0.81702 0.94552 0.0
C67 C 0.66774 0.85536 0.94737 0.0
N68 N 0.67635 0.86465 0.98236 0.0
N69 N 0.6327 0.80194 0.97918 0.0
C70 C 0.65468 0.83202 1.00119 0.0
H71 H 0.62766 0.80123 0.92102 0.0
Co72 Co 0.59921 0.7497 0.98879 0.0
C73 C 0.64255 0.74981 0.05727 0.0
O74 O 0.65789 0.72963 0.04578 0.0
N75 N 0.56491 0.6968 0.99695 0.0
C76 C 0.50961 0.6413 0.99545 0.0
C77 C 0.52737 0.67982 0.98796 0.0
C78 C 0.56956 0.66737 1.00867 0.0
N79 N 0.53608 0.63343 1.0083 0.0
O80 O 0.63514 0.73797 0.96684 0.0
H81 H 0.51367 0.69444 0.97609 0.0
H82 H 0.59677 0.67055 0.01687 0.0
O83 O 0.62158 0.75655 0.03627 0.0
C84 C 0.62565 0.72991 0.93371 0.0
O85 O 0.59357 0.72757 0.92251 0.0
N86 N 0.56316 0.76122 1.00773 0.0
C87 C 0.49557 0.76025 0.02472 0.0
C88 C 0.5138 0.74936 0.05054 0.0
C89 C 0.54771 0.75001 0.0415 0.0
C90 C 0.5475 0.77486 0.98336 0.0
C91 C 0.5137 0.77488 0.99142 0.0
H92 H 0.55929 0.73807 0.06051 0.0
H93 H 0.55941 0.78265 0.95643 0.0
H94 H 0.6557 0.83012 0.03025 0.0
H95 H 0.68006 0.87502 0.92482 0.0
H96 H 0.47967 0.62036 0.99091 0.0
H97 H 0.50061 0.738 0.07657 0.0
H98 H 0.50022 0.78309 0.97064 0.0
C99 C 0.8127 0.62834 0.29628 0.0
C100 C 0.7933 0.64853 0.29719 0.0
N101 N 0.81061 0.677 0.32165 0.0
N102 N 0.84199 0.64402 0.32014 0.0
C103 C 0.84054 0.6742 0.33425 0.0
H104 H 0.80402 0.60199 0.28155 0.0
Co105 Co 0.8701 0.62179 0.33769 0.0
C106 C 0.90439 0.66716 0.40728 0.0
O107 O 0.93679 0.66679 0.40656 0.0
N108 N 0.89769 0.59861 0.35553 0.0
C109 C 0.91416 0.56505 0.39166 0.0
C110 C 0.89342 0.58348 0.38895 0.0
C111 C 0.92101 0.58848 0.33824 0.0
N112 N 0.93167 0.56805 0.35974 0.0
O113 O 0.91522 0.66179 0.31502 0.0
H114 H 0.87514 0.58456 0.4098 0.0
H115 H 0.92925 0.59521 0.31019 0.0
O116 O 0.87951 0.65081 0.38238 0.0
C117 C 0.91361 0.65188 0.28197 0.0
O118 O 0.88499 0.61826 0.27202 0.0
N119 N 0.82508 0.58156 0.3565 0.0
C120 C 0.75474 0.51802 0.37407 0.0
C121 C 0.76746 0.5532 0.39183 0.0
C122 C 0.80278 0.5849 0.38242 0.0
C123 C 0.8133 0.54761 0.33917 0.0
C124 C 0.77834 0.51536 0.34773 0.0
H125 H 0.81143 0.61223 0.39513 0.0
H126 H 0.83101 0.54585 0.31813 0.0
H127 H 0.85953 0.69249 0.3552 0.0
H128 H 0.76659 0.6407 0.2835 0.0
H129 H 0.91476 0.54923 0.41507 0.0
H130 H 0.74975 0.55655 0.41188 0.0
H131 H 0.76979 0.48864 0.33365 0.0
C132 C 0.18118 0.81527 0.61106 0.0
C133 C 0.14192 0.79812 0.61501 0.0
N134 N 0.13456 0.81338 0.64428 0.0
N135 N 0.19856 0.84118 0.63774 0.0
C136 C 0.1694 0.84002 0.65687 0.0
H137 H 0.19606 0.8072 0.59174 0.0
Co138 Co 0.2507 0.86429 0.65039 0.0
C139 C 0.23404 0.89067 0.72397 0.0
O140 O 0.23582 0.92317 0.71524 0.0
N141 N 0.3031 0.88725 0.66392 0.0
C142 C 0.35391 0.89877 0.69699 0.0
C143 C 0.31474 0.87806 0.69466 0.0
C144 C 0.33622 0.91394 0.64792 0.0
N145 N 0.36771 0.92167 0.66771 0.0
O146 O 0.2584 0.91282 0.63394 0.0
H147 H 0.29591 0.85695 0.71408 0.0
H148 H 0.33729 0.92766 0.62246 0.0
O149 O 0.23918 0.87096 0.69993 0.0
C150 C 0.26552 0.91189 0.60034 0.0
O151 O 0.26675 0.88178 0.58822 0.0
N152 N 0.24315 0.81595 0.66206 0.0
C153 C 0.22986 0.74141 0.66878 0.0
C154 C 0.20904 0.75378 0.6897 0.0
C155 C 0.21594 0.79121 0.68574 0.0
C156 C 0.26351 0.8044 0.64142 0.0
C157 C 0.25759 0.76733 0.64459 0.0
H158 H 0.19846 0.7998 0.70073 0.0
H159 H 0.28385 0.82389 0.62176 0.0
H160 H 0.17345 0.85691 0.6808 0.0
H161 H 0.12066 0.77418 0.59928 0.0
H162 H 0.37084 0.89635 0.71845 0.0
H163 H 0.18729 0.73459 0.7086 0.0
H164 H 0.27365 0.75867 0.62732 0.0
C165 C 0.33753 0.17956 0.94992 0.0
C166 C 0.31621 0.14057 0.95622 0.0
N167 N 0.32805 0.1328 0.9876 0.0
N168 N 0.36262 0.19652 0.97731 0.0
C169 C 0.35621 0.16728 0.99962 0.0
H170 H 0.33493 0.19433 0.92664 0.0
Co171 Co 0.40001 0.24854 0.98343 0.0
C172 C 0.36576 0.25289 0.05541 0.0
O173 O 0.3505 0.27325 0.04424 0.0
N174 N 0.43776 0.30092 0.98918 0.0
C175 C 0.49255 0.35599 0.98144 0.0
C176 C 0.47369 0.31697 0.97575 0.0
C177 C 0.43536 0.33103 1.00253 0.0
N178 N 0.46841 0.36503 0.99818 0.0
O179 O 0.36415 0.26322 0.96729 0.0
H180 H 0.48525 0.30137 0.9618 0.0
H181 H 0.40931 0.32836 0.01354 0.0
O182 O 0.38449 0.24395 0.03362 0.0
C183 C 0.37197 0.27279 0.93412 0.0
O184 O 0.4014 0.27198 0.91969 0.0
N185 N 0.43583 0.23429 0.99588 0.0
C186 C 0.49136 0.21391 1.00664 0.0
C187 C 0.48371 0.23357 0.03368 0.0
C188 C 0.4555 0.24342 0.02783 0.0
C189 C 0.44332 0.21563 0.96921 0.0
C190 C 0.47062 0.20457 0.97427 0.0
H191 H 0.45039 0.25944 0.04838 0.0
H192 H 0.4282 0.20967 0.94371 0.0
H193 H 0.37305 0.17133 0.02367 0.0
H194 H 0.29363 0.11976 0.93899 0.0
H195 H 0.52175 0.37612 0.97347 0.0
H196 H 0.49976 0.24164 0.0588 0.0
H197 H 0.4765 0.19017 0.95255 0.0
C198 C 0.6204 0.80978 0.41613 0.0
C199 C 0.64099 0.79161 0.423 0.0
N200 N 0.66721 0.8011 0.39656 0.0
N201 N 0.63371 0.8307 0.38557 0.0
C202 C 0.66245 0.82505 0.37445 0.0
H203 H 0.59675 0.80739 0.43202 0.0
Co204 Co 0.61405 0.85918 0.36409 0.0
C205 C 0.64916 0.8734 0.28908 0.0
O206 O 0.65544 0.90864 0.28627 0.0
N207 N 0.59328 0.88751 0.34309 0.0
C208 C 0.55889 0.90372 0.30782 0.0
C209 C 0.57509 0.88081 0.31096 0.0
C210 C 0.58706 0.91414 0.35926 0.0
N211 N 0.56621 0.92464 0.33832 0.0
O212 O 0.66043 0.90534 0.3759 0.0
H213 H 0.57205 0.85917 0.29176 0.0
H214 H 0.59649 0.92462 0.38641 0.0
O215 O 0.63389 0.85384 0.31761 0.0
C216 C 0.65698 0.91098 0.40931 0.0
O217 O 0.62465 0.8878 0.42594 0.0
N218 N 0.56817 0.81427 0.35649 0.0
C219 C 0.50062 0.74454 0.36275 0.0
C220 C 0.52891 0.74881 0.33803 0.0
C221 C 0.56295 0.78408 0.33553 0.0
C222 C 0.54026 0.81102 0.37939 0.0
C223 C 0.50613 0.77635 0.38292 0.0
H224 H 0.58568 0.78629 0.3184 0.0
H225 H 0.54546 0.83505 0.39638 0.0
H226 H 0.67985 0.83846 0.35081 0.0
H227 H 0.63629 0.77204 0.44508 0.0
H228 H 0.54124 0.90332 0.28555 0.0
H229 H 0.52565 0.72461 0.32234 0.0
H230 H 0.48474 0.77412 0.40206 0.0
C231 C 0.81542 0.62275 0.75038 0.0
C232 C 0.85441 0.64412 0.75621 0.0
N233 N 0.87003 0.67029 0.72951 0.0
N234 N 0.80645 0.63563 0.72033 0.0
C235 C 0.8404 0.66475 0.70831 0.0
H236 H 0.79501 0.59861 0.76641 0.0
Co237 Co 0.75745 0.61412 0.69966 0.0
C238 C 0.77951 0.66625 0.63458 0.0
O239 O 0.75873 0.68165 0.644 0.0
N240 N 0.70812 0.59252 0.67902 0.0
C241 C 0.6594 0.5641 0.64045 0.0
C242 C 0.69854 0.58133 0.64436 0.0
C243 C 0.67422 0.58161 0.69567 0.0
N244 N 0.64389 0.56419 0.67279 0.0
O245 O 0.75228 0.65531 0.7191 0.0
H246 H 0.7186 0.58422 0.62345 0.0
H247 H 0.67187 0.58587 0.72421 0.0
O248 O 0.78012 0.64081 0.65465 0.0
C249 C 0.74192 0.64677 0.75204 0.0
O250 O 0.73683 0.61396 0.76459 0.0
N251 N 0.76156 0.57239 0.68381 0.0
C252 C 0.76698 0.50791 0.66673 0.0
C253 C 0.79584 0.54471 0.65621 0.0
C254 C 0.79261 0.57659 0.66509 0.0
C255 C 0.73361 0.53702 0.69495 0.0
C256 C 0.7354 0.50428 0.68616 0.0
H257 H 0.81588 0.60474 0.65827 0.0
H258 H 0.7099 0.53418 0.71103 0.0
H259 H 0.84366 0.68127 0.68415 0.0
H260 H 0.87024 0.63976 0.77757 0.0
H261 H 0.64366 0.55128 0.6158 0.0
H262 H 0.82138 0.54912 0.64225 0.0
H263 H 0.7123 0.47648 0.69471 0.0
C264 C 0.1966 0.80593 0.08196 0.0
C265 C 0.22053 0.84461 0.08773 0.0
N266 N 0.2121 0.86409 0.06322 0.0
N267 N 0.17321 0.80085 0.05383 0.0
C268 C 0.18316 0.83684 0.0432 0.0
H269 H 0.19657 0.78289 0.09706 0.0
Co270 Co 0.13684 0.75277 0.03544 0.0
C271 C 0.13059 0.79446 0.96809 0.0
O272 O 0.10852 0.80702 0.98101 0.0
N273 N 0.10023 0.70391 0.01745 0.0
C274 C 0.06026 0.6558 0.98177 0.0
C275 C 0.08393 0.69487 0.9843 0.0
C276 C 0.08533 0.66963 0.03473 0.0
N277 N 0.06127 0.63975 0.01342 0.0
O278 O 0.09644 0.76115 0.05096 0.0
H279 H 0.08884 0.71498 0.96282 0.0
H280 H 0.0927 0.66655 0.06217 0.0
O281 O 0.1406 0.77509 0.98804 0.0
C282 C 0.09139 0.75101 0.08413 0.0
O283 O 0.11254 0.73803 0.09847 0.0
N284 N 0.17636 0.74334 0.0239 0.0
C285 C 0.23911 0.73202 0.02065 0.0
C286 C 0.23515 0.75606 0.99559 0.0
C287 C 0.20376 0.7618 0.99798 0.0
C288 C 0.17952 0.71959 0.0481 0.0
C289 C 0.21052 0.71341 0.04694 0.0
H290 H 0.20274 0.78242 0.98006 0.0
H291 H 0.15893 0.70702 0.06979 0.0
H292 H 0.16933 0.84319 0.02151 0.0
H293 H 0.24294 0.85726 0.10795 0.0
H294 H 0.04349 0.64047 0.95829 0.0
H295 H 0.25655 0.77111 0.97488 0.0
H296 H 0.21288 0.69566 0.06763 0.0
C297 C 0.38477 0.2057 0.40967 0.0
C298 C 0.36006 0.22004 0.40716 0.0
N299 N 0.3348 0.20142 0.38024 0.0
N300 N 0.37528 0.17835 0.38427 0.0
C301 C 0.34415 0.17567 0.36766 0.0
H302 H 0.40964 0.21643 0.42709 0.0
Co303 Co 0.40266 0.15467 0.36819 0.0
C304 C 0.37544 0.14161 0.28956 0.0
O305 O 0.36741 0.10578 0.28681 0.0
N306 N 0.43007 0.13111 0.35116 0.0
C307 C 0.46882 0.11961 0.31728 0.0
C308 C 0.45167 0.14153 0.32087 0.0
C309 C 0.43508 0.10303 0.36587 0.0
N310 N 0.45844 0.09527 0.34556 0.0
O311 O 0.35784 0.10558 0.37562 0.0
H312 H 0.45547 0.16435 0.30282 0.0
H313 H 0.42202 0.08868 0.39102 0.0
O314 O 0.38863 0.15987 0.31909 0.0
C315 C 0.35882 0.10061 0.40966 0.0
O316 O 0.388 0.12661 0.4285 0.0
N317 N 0.447 0.20236 0.36549 0.0
C318 C 0.51197 0.27385 0.37588 0.0
C319 C 0.48557 0.26845 0.34847 0.0
C320 C 0.45291 0.23235 0.34387 0.0
C321 C 0.47277 0.20691 0.39161 0.0
C322 C 0.50555 0.2424 0.39722 0.0
H323 H 0.43185 0.22909 0.32405 0.0
H324 H 0.46714 0.18295 0.40892 0.0
H325 H 0.32976 0.15633 0.34536 0.0
H326 H 0.36249 0.2443 0.42211 0.0
H327 H 0.48846 0.12233 0.29598 0.0
H328 H 0.48937 0.29221 0.33172 0.0
H329 H 0.52547 0.24528 0.41835 0.0
C330 C 0.18733 0.37959 0.74673 0.0
C331 C 0.14844 0.35533 0.75084 0.0
N332 N 0.13566 0.33113 0.72243 0.0
N333 N 0.1991 0.37045 0.71607 0.0
C334 C 0.16686 0.34081 0.70183 0.0
H335 H 0.20576 0.40296 0.76457 0.0
Co336 Co 0.24933 0.396 0.6981 0.0
C337 C 0.23953 0.35105 0.63103 0.0
O338 O 0.26665 0.34371 0.64048 0.0
N339 N 0.29988 0.42193 0.6799 0.0
C340 C 0.34942 0.45611 0.64345 0.0
C341 C 0.31028 0.43855 0.64702 0.0
C342 C 0.33339 0.42995 0.6959 0.0
N343 N 0.3642 0.45072 0.67419 0.0
O344 O 0.25666 0.35581 0.71664 0.0
H345 H 0.29063 0.43851 0.62704 0.0
H346 H 0.33509 0.42078 0.72298 0.0
O347 O 0.23089 0.37076 0.65188 0.0
C348 C 0.26385 0.36257 0.75029 0.0
O349 O 0.26718 0.39423 0.76398 0.0
N350 N 0.24243 0.43631 0.68352 0.0
C351 C 0.23013 0.49782 0.67376 0.0
C352 C 0.20803 0.46333 0.65482 0.0
C353 C 0.21447 0.43271 0.66028 0.0
C354 C 0.26443 0.46966 0.70185 0.0
C355 C 0.25897 0.50093 0.69718 0.0
H356 H 0.19589 0.40575 0.64705 0.0
H357 H 0.28554 0.47149 0.72109 0.0
H358 H 0.16601 0.32658 0.67673 0.0
H359 H 0.1307 0.35628 0.77236 0.0
H360 H 0.36562 0.47243 0.62015 0.0
H361 H 0.18547 0.45977 0.6365 0.0
H362 H 0.27612 0.52672 0.71293 0.0
C363 C 0.8105 0.18151 0.0821 0.0
C364 C 0.79505 0.1424 0.08567 0.0
N365 N 0.8103 0.13039 0.05988 0.0
N366 N 0.83529 0.19414 0.05413 0.0
C367 C 0.83487 0.16245 0.04143 0.0
H368 H 0.80316 0.19943 0.09807 0.0
Co369 Co 0.85999 0.24401 0.03534 0.0
C370 C 0.89188 0.23283 0.9654 0.0
O371 O 0.92622 0.263 0.96959 0.0
N372 N 0.88432 0.29432 0.01653 0.0
C373 C 0.89931 0.34379 0.98 0.0
C374 C 0.87902 0.30447 0.98316 0.0
C375 C 0.90758 0.32815 0.03335 0.0
N376 N 0.91734 0.35884 1.01161 0.0
O377 O 0.9076 0.25183 0.05385 0.0
H378 H 0.86066 0.28454 0.96263 0.0
H379 H 0.91681 0.33027 0.06113 0.0
O380 O 0.86631 0.2244 0.98953 0.0
C381 C 0.90807 0.26033 0.08719 0.0
O382 O 0.87925 0.26354 0.09969 0.0
N383 N 0.81279 0.23671 0.02076 0.0
C384 C 0.73823 0.22261 1.01266 0.0
C385 C 0.75196 0.20356 0.99082 0.0
C386 C 0.78932 0.2107 0.99557 0.0
C387 C 0.8004 0.25621 0.04153 0.0
C388 C 0.76319 0.24962 0.03797 0.0
H389 H 0.79856 0.19415 0.97999 0.0
H390 H 0.81913 0.27586 0.06205 0.0
H391 H 0.85097 0.16255 0.01802 0.0
H392 H 0.77367 0.12422 0.10529 0.0
H393 H 0.89952 0.36 0.95655 0.0
H394 H 0.7338 0.18273 0.97074 0.0
H395 H 0.75368 0.26442 0.05596 0.0
H396 H 0.91399 0.27974 0.15824 0.0
H397 H 0.97273 0.2552 0.07302 0.0
H398 H 0.02485 0.26736 0.11617 0.0
H399 H 0.995 0.3571 0.19552 0.0
H400 H 0.97828 0.34644 0.2416 0.0
H401 H 0.94427 0.3315 0.2051 0.0
H402 H 0.91219 0.26118 0.22807 0.0
H403 H 0.9465 0.27591 0.26449 0.0
H404 H 0.94083 0.2386 0.23379 0.0
H405 H 0.07323 0.28899 0.16682 0.0
H406 H 0.11542 0.32149 0.21924 0.0
H407 H 0.02396 0.33027 0.27137 0.0
C408 C 0.93749 0.27633 0.14859 0.0
C409 C 0.93927 0.26639 0.11223 0.0
C410 C 0.97078 0.26271 0.10076 0.0
C411 C 1.00032 0.26933 0.12514 0.0
C412 C 0.99761 0.27924 0.16083 0.0
C413 C 0.96695 0.28275 0.17243 0.0
C414 C 0.97208 0.29681 0.21114 0.0
C415 C 0.97245 0.33524 0.21345 0.0
C416 C 0.94105 0.2663 0.23583 0.0
C417 C 0.0111 0.30186 0.21941 0.0
C418 C 0.02514 0.29105 0.1902 0.0
C419 C 0.06217 0.29663 0.1901 0.0
C420 C 0.08582 0.31488 0.21998 0.0
C421 C 0.07226 0.32705 0.24953 0.0
C422 C 0.03421 0.3196 0.24971 0.0
H423 H 0.66343 0.97974 0.42098 0.0
H424 H 0.7126 0.90929 0.44923 0.0
H425 H 0.74537 0.95142 0.50188 0.0
H426 H 0.74502 0.07471 0.45324 0.0
H427 H 0.71164 0.08875 0.46949 0.0
H428 H 0.69971 0.05787 0.43055 0.0
H429 H 0.63676 0.00826 0.46235 0.0
H430 H 0.64903 0.03818 0.50186 0.0
H431 H 0.6392 0.98942 0.50592 0.0
H432 H 0.76415 0.99634 0.55744 0.0
H433 H 0.77259 0.04358 0.60539 0.0
H434 H 0.70796 0.08082 0.53972 0.0
C435 C 0.68301 0.97471 0.43702 0.0
C436 C 0.68701 0.94251 0.43041 0.0
C437 C 0.71073 0.93499 0.45318 0.0
C438 C 0.72896 0.95845 0.48338 0.0
C439 C 0.7229 0.98909 0.49033 0.0
C440 C 0.70103 0.9976 0.46724 0.0
C441 C 0.6954 0.02931 0.48222 0.0
C442 C 0.71407 0.06477 0.4574 0.0
C443 C 0.65257 0.01543 0.48845 0.0
C444 C 0.71673 0.03683 0.51761 0.0
C445 C 0.73263 0.01368 0.5221 0.0
C446 C 0.75227 0.01501 0.55387 0.0
C447 C 0.75659 0.04152 0.58113 0.0
C448 C 0.74118 0.06601 0.57621 0.0
C449 C 0.72061 0.06292 0.54423 0.0
H450 H 0.66125 0.68688 0.93273 0.0
H451 H 0.64722 0.77118 0.87209 0.0
H452 H 0.68339 0.76536 0.82104 0.0
H453 H 0.75791 0.71155 0.89583 0.0
H454 H 0.74503 0.66172 0.89382 0.0
H455 H 0.72448 0.67778 0.92815 0.0
H456 H 0.65624 0.62662 0.90711 0.0
H457 H 0.67652 0.61061 0.87266 0.0
H458 H 0.64285 0.6258 0.86042 0.0
H459 H 0.71407 0.74489 0.77379 0.0
H460 H 0.73546 0.70978 0.73379 0.0
H461 H 0.72757 0.63739 0.82432 0.0
C462 C 0.66714 0.70503 0.90918 0.0
C463 C 0.65226 0.73 0.90643 0.0
C464 C 0.65894 0.75225 0.87473 0.0
C465 C 0.6795 0.74921 0.84564 0.0
C466 C 0.69294 0.7235 0.84855 0.0
C467 C 0.68711 0.7018 0.87952 0.0
C468 C 0.70043 0.67304 0.874 0.0
C469 C 0.73397 0.68155 0.89946 0.0
C470 C 0.66702 0.63159 0.87882 0.0
C471 C 0.71356 0.68129 0.83494 0.0
C472 C 0.70964 0.71089 0.82086 0.0
C473 C 0.71783 0.722 0.78463 0.0
C474 C 0.72992 0.70195 0.76209 0.0
C475 C 0.7332 0.67093 0.77588 0.0
C476 C 0.7255 0.66109 0.81291 0.0
H477 H 0.01974 0.69185 0.0931 0.0
H478 H 0.09914 0.80697 0.13 0.0
H479 H 0.05851 0.79662 0.18391 0.0
H480 H 0.92854 0.6847 0.13103 0.0
H481 H 0.91033 0.63503 0.14282 0.0
H482 H 0.94072 0.6552 0.10373 0.0
H483 H 0.9864 0.63317 0.12948 0.0
H484 H 0.957 0.61405 0.16912 0.0
H485 H 0.00716 0.64933 0.17374 0.0
H486 H 0.01547 0.7688 0.23928 0.0
H487 H 0.9703 0.72832 0.28753 0.0
H488 H 0.92054 0.63148 0.21361 0.0
C489 C 0.02709 0.71559 0.1114 0.0
C490 C 0.06147 0.75073 0.10685 0.0
C491 C 0.07192 0.78047 0.13244 0.0
C492 C 0.04924 0.77463 0.1633 0.0
C493 C 0.01632 0.73882 0.16806 0.0
C494 C 0.00488 0.71006 0.14233 0.0
C495 C 0.97114 0.6728 0.1555 0.0
C496 C 0.93557 0.66127 0.13187 0.0
C497 C 0.98105 0.64047 0.15705 0.0
C498 C 0.96613 0.68464 0.19301 0.0
C499 C 0.99218 0.7228 0.19989 0.0
C500 C 0.99442 0.73908 0.23387 0.0
C501 C 0.96893 0.71586 0.26122 0.0
C502 C 0.94176 0.67683 0.25433 0.0
C503 C 0.94061 0.66133 0.21973 0.0
H504 H 0.35316 0.03152 0.4202 0.0
H505 H 0.30175 0.10001 0.44837 0.0
H506 H 0.2686 0.05696 0.50019 0.0
H507 H 0.27077 0.93527 0.45072 0.0
H508 H 0.30388 0.92101 0.46729 0.0
H509 H 0.31647 0.95249 0.42873 0.0
H510 H 0.3788 1.00164 0.46166 0.0
H511 H 0.36587 0.97109 0.50079 0.0
H512 H 0.37559 0.01977 0.50535 0.0
H513 H 0.25067 0.0129 0.55536 0.0
H514 H 0.24205 0.96586 0.60341 0.0
H515 H 0.3059 0.92746 0.53819 0.0
C516 C 0.33297 0.03586 0.43597 0.0
C517 C 0.32858 0.06794 0.42959 0.0
C518 C 0.30405 0.07451 0.4521 0.0
C519 C 0.28556 0.05052 0.48186 0.0
C520 C 0.29203 0.02014 0.48866 0.0
C521 C 0.31445 0.01222 0.46577 0.0
C522 C 0.31984 0.98023 0.48065 0.0
C523 C 0.30164 0.94517 0.45535 0.0
C524 C 0.36255 0.99404 0.48751 0.0
C525 C 0.29787 0.97205 0.51581 0.0
C526 C 0.28199 0.99524 0.52018 0.0
C527 C 0.26237 0.99407 0.55185 0.0
C528 C 0.25795 0.96765 0.57916 0.0
C529 C 0.27303 0.94288 0.5744 0.0
C530 C 0.29353 0.94564 0.54245 0.0
H531 H 0.32204 0.34691 0.75395 0.0
H532 H 0.21544 0.32306 0.80451 0.0
H533 H 0.22925 0.29326 0.85663 0.0
H534 H 0.32426 0.26006 0.78894 0.0
H535 H 0.37548 0.28755 0.7955 0.0
H536 H 0.35345 0.3001 0.75963 0.0
H537 H 0.38497 0.36946 0.78492 0.0
H538 H 0.40629 0.35695 0.82133 0.0
H539 H 0.37601 0.37692 0.83116 0.0
H540 H 0.25914 0.27451 0.90689 0.0
H541 H 0.30058 0.26332 0.94896 0.0
H542 H 0.38809 0.30121 0.86567 0.0
C543 C 0.30084 0.33357 0.77519 0.0
C544 C 0.26713 0.33589 0.77496 0.0
C545 C 0.24087 0.32032 0.80401 0.0
C546 C 0.24861 0.30364 0.83375 0.0
C547 C 0.28292 0.3031 0.83403 0.0
C548 C 0.30838 0.31718 0.80527 0.0
C549 C 0.34484 0.31662 0.81375 0.0
C550 C 0.34978 0.28945 0.78793 0.0
C551 C 0.38009 0.35741 0.81273 0.0
C552 C 0.33624 0.30086 0.85191 0.0
C553 C 0.30037 0.29305 0.86318 0.0
C554 C 0.28708 0.27996 0.89816 0.0
C555 C 0.31086 0.27399 0.92197 0.0
C556 C 0.34743 0.28123 0.91058 0.0
C557 C 0.36013 0.29505 0.87516 0.0
H558 H 0.10785 0.35181 0.47008 0.0
H559 H 0.17232 0.31966 0.39856 0.0
H560 H 0.20594 0.31233 0.45093 0.0
H561 H 0.18633 0.40953 0.52675 0.0
H562 H 0.15877 0.39746 0.56797 0.0
H563 H 0.13627 0.39566 0.52536 0.0
H564 H 0.08481 0.32528 0.53803 0.0
H565 H 0.10769 0.32604 0.58021 0.0
H566 H 0.09921 0.29016 0.54653 0.0
H567 H 0.23564 0.31231 0.51088 0.0
H568 H 0.26114 0.32306 0.57332 0.0
H569 H 0.17815 0.35613 0.6057 0.0
C570 C 0.1281 0.34197 0.46558 0.0
C571 C 0.13681 0.33545 0.4302 0.0
C572 C 0.16472 0.32424 0.42533 0.0
C573 C 0.18397 0.31993 0.45498 0.0
C574 C 0.17525 0.32721 0.48946 0.0
C575 C 0.14811 0.33818 0.4949 0.0
C576 C 0.14675 0.34778 0.5343 0.0
C577 C 0.15769 0.39012 0.53884 0.0
C578 C 0.1072 0.32066 0.55071 0.0
C579 C 0.17724 0.34045 0.55008 0.0
C580 C 0.19323 0.32841 0.52384 0.0
C581 C 0.22309 0.32144 0.53175 0.0
C582 C 0.23735 0.32754 0.56732 0.0
C583 C 0.22189 0.34068 0.59449 0.0
C584 C 0.19093 0.34643 0.58565 0.0
H585 H 0.87684 0.22348 0.75162 0.0
H586 H 0.76981 0.11558 0.76314 0.0
H587 H 0.78315 0.11505 0.82854 0.0
H588 H 0.93283 0.20428 0.81965 0.0
H589 H 0.95749 0.25347 0.83494 0.0
H590 H 0.94211 0.24247 0.78851 0.0
H591 H 0.90444 0.27872 0.79468 0.0
H592 H 0.91963 0.28995 0.84099 0.0
H593 H 0.86921 0.26528 0.83009 0.0
H594 H 0.80447 0.13074 0.89373 0.0
H595 H 0.83116 0.1609 0.95278 0.0
H596 H 0.92427 0.25886 0.89836 0.0
C597 C 0.85644 0.19925 0.76765 0.0
C598 C 0.82221 0.16948 0.75218 0.0
C599 C 0.79631 0.13854 0.77429 0.0
C600 C 0.8037 0.13802 0.81146 0.0
C601 C 0.8373 0.16844 0.82596 0.0
C602 C 0.86338 0.19833 0.80459 0.0
C603 C 0.89572 0.22918 0.82699 0.0
C604 C 0.93432 0.23253 0.81692 0.0
C605 C 0.89731 0.26806 0.82295 0.0
C606 C 0.88312 0.21275 0.86464 0.0
C607 C 0.84964 0.17744 0.86342 0.0
C608 C 0.83095 0.15806 0.89491 0.0
C609 C 0.84631 0.17553 0.92838 0.0
C610 C 0.87995 0.21221 0.93027 0.0
C611 C 0.89901 0.2305 0.89789 0.0
H612 H 0.63478 0.87927 0.21759 0.0
H613 H 0.67526 0.82244 0.28993 0.0
H614 H 0.68133 0.78678 0.23838 0.0
H615 H 0.57581 0.79585 0.16538 0.0
H616 H 0.58433 0.82119 0.12309 0.0
H617 H 0.58718 0.84529 0.165 0.0
H618 H 0.65627 0.89877 0.14905 0.0
H619 H 0.65359 0.87482 0.10702 0.0
H620 H 0.69209 0.88597 0.13833 0.0
H621 H 0.68254 0.75678 0.17786 0.0
H622 H 0.6736 0.73152 0.11525 0.0
H623 H 0.62583 0.80312 0.08458 0.0
C624 C 0.64569 0.85993 0.22238 0.0
C625 C 0.65534 0.85421 0.25768 0.0
C626 C 0.66816 0.8276 0.26311 0.0
C627 C 0.67174 0.80723 0.23392 0.0
C628 C 0.66163 0.8132 0.19946 0.0
C629 C 0.64843 0.83859 0.19366 0.0
C630 C 0.63639 0.8374 0.15461 0.0
C631 C 0.59338 0.82414 0.15188 0.0
C632 C 0.66107 0.87657 0.13618 0.0
C633 C 0.64489 0.80749 0.1394 0.0
C634 C 0.66003 0.79427 0.16542 0.0
C635 C 0.67061 0.76692 0.15729 0.0
C636 C 0.66546 0.75273 0.12165 0.0
C637 C 0.64924 0.76539 0.09476 0.0
C638 C 0.63872 0.793 0.10414 0.0
H639 H 0.82376 0.63801 0.60711 0.0
H640 H 0.78306 0.71686 0.58217 0.0
H641 H 0.81599 0.73048 0.52286 0.0
H642 H 0.91723 0.69143 0.56352 0.0
H643 H 0.91579 0.64828 0.54797 0.0
H644 H 0.89128 0.64749 0.58904 0.0
H645 H 0.82796 0.59159 0.56334 0.0
H646 H 0.85218 0.59248 0.52215 0.0
H647 H 0.81023 0.59758 0.52045 0.0
H648 H 0.84994 0.73169 0.46429 0.0
H649 H 0.88093 0.71989 0.41193 0.0
H650 H 0.89916 0.64033 0.47597 0.0
C651 C 0.822 0.65851 0.58961 0.0
C652 C 0.80078 0.6764 0.59962 0.0
C653 C 0.79919 0.70284 0.57533 0.0
C654 C 0.81789 0.7108 0.54158 0.0
C655 C 0.83825 0.69227 0.53259 0.0
C656 C 0.84041 0.66671 0.55603 0.0
C657 C 0.86233 0.64896 0.53947 0.0
C658 C 0.89884 0.6597 0.5613 0.0
C659 C 0.83663 0.60506 0.53616 0.0
C660 C 0.87193 0.66816 0.50272 0.0
C661 C 0.85792 0.69318 0.49927 0.0
C662 C 0.86135 0.71251 0.46693 0.0
C663 C 0.87881 0.70552 0.43728 0.0
C664 C 0.89262 0.67949 0.44011 0.0
C665 C 0.88976 0.66117 0.47345 0.0
H666 H 0.13767 0.85272 0.9224 0.0
H667 H 0.15779 0.75638 0.92868 0.0
H668 H 0.18817 0.77283 0.86884 0.0
H669 H 0.11513 0.84267 0.82575 0.0
H670 H 0.13869 0.89369 0.81767 0.0
H671 H 0.11823 0.87468 0.86142 0.0
H672 H 0.18405 0.91959 0.89149 0.0
H673 H 0.20477 0.93845 0.84777 0.0
H674 H 0.22579 0.91786 0.8767 0.0
H675 H 0.21799 0.79961 0.81033 0.0
H676 H 0.24149 0.83244 0.75239 0.0
H677 H 0.2009 0.91105 0.77968 0.0
C678 C 0.14816 0.83494 0.91096 0.0
C679 C 0.14576 0.80351 0.93058 0.0
C680 C 0.15991 0.78101 0.91465 0.0
C681 C 0.17715 0.79003 0.88054 0.0
C682 C 0.1799 0.82155 0.86231 0.0
C683 C 0.16551 0.84351 0.87654 0.0
C684 C 0.17213 0.87561 0.85048 0.0
C685 C 0.13376 0.8714 0.8381 0.0
C686 C 0.19823 0.91522 0.86764 0.0
C687 C 0.19232 0.86795 0.81949 0.0
C688 C 0.19661 0.83674 0.82734 0.0
C689 C 0.21447 0.82386 0.80364 0.0
C690 C 0.22766 0.84275 0.77057 0.0
C691 C 0.22266 0.87408 0.76093 0.0
C692 C 0.20519 0.88721 0.78612 0.0
H693 H 0.36036 0.18665 0.08121 0.0
H694 H 0.36336 0.29098 0.11596 0.0
H695 H 0.36334 0.27244 0.17997 0.0
H696 H 0.29623 0.12574 0.15715 0.0
H697 H 0.31968 0.09757 0.15748 0.0
H698 H 0.3159 0.11904 0.11605 0.0
H699 H 0.39077 0.15134 0.10999 0.0
H700 H 0.3935 0.13144 0.15274 0.0
H701 H 0.42069 0.18266 0.14563 0.0
H702 H 0.36879 0.24498 0.23977 0.0
H703 H 0.37493 0.20929 0.2909 0.0
H704 H 0.3651 0.12073 0.21729 0.0
C705 C 0.36067 0.20542 0.10227 0.0
C706 C 0.36215 0.24041 0.09366 0.0
C707 C 0.36208 0.26401 0.12199 0.0
C708 C 0.36216 0.25372 0.15837 0.0
C709 C 0.36136 0.21929 0.16588 0.0
C710 C 0.35979 0.1951 0.13861 0.0
C711 C 0.35904 0.15969 0.15387 0.0
C712 C 0.32046 0.12335 0.14564 0.0
C713 C 0.39303 0.1561 0.13972 0.0
C714 C 0.36274 0.16874 0.19396 0.0
C715 C 0.36352 0.20303 0.20031 0.0
C716 C 0.36779 0.21794 0.23506 0.0
C717 C 0.37138 0.1974 0.26399 0.0
C718 C 0.37038 0.16201 0.25831 0.0
C719 C 0.36566 0.14746 0.22269 0.0
H720 H 0.96687 0.54323 0.40679 0.0
H721 H 0.94931 0.55297 0.29223 0.0
H722 H 0.98639 0.52087 0.27791 0.0
H723 H 0.06209 0.55899 0.40099 0.0
H724 H 0.05451 0.52446 0.43577 0.0
H725 H 0.02765 0.5492 0.43645 0.0
H726 H 0.96403 0.48384 0.43731 0.0
H727 H 0.99069 0.4589 0.43659 0.0
H728 H 0.95497 0.44899 0.4024 0.0
H729 H 0.02569 0.48617 0.27675 0.0
H730 H 0.06364 0.45453 0.28887 0.0
H731 H 0.05086 0.46495 0.40429 0.0
C732 C 0.97032 0.53848 0.37861 0.0
C733 C 0.9547 0.5507 0.35074 0.0
C734 C 0.96105 0.54435 0.31424 0.0
C735 C 0.98195 0.52585 0.3058 0.0
C736 C 0.99631 0.5137 0.3341 0.0
C737 C 0.99068 0.51987 0.36977 0.0
C738 C 0.0085 0.50388 0.39543 0.0
C739 C 0.04006 0.53606 0.41851 0.0
C740 C 0.97771 0.47201 0.41933 0.0
C741 C 0.02524 0.48776 0.36873 0.0
C742 C 0.01806 0.49364 0.33346 0.0
C743 C 0.03132 0.4814 0.30434 0.0
C744 C 0.05274 0.46316 0.31154 0.0
C745 C 0.06073 0.45718 0.34762 0.0
C746 C 0.04614 0.46941 0.37636 0.0
H747 H 0.58798 0.04393 0.71808 0.0
H748 H 0.61357 0.07628 0.60506 0.0
H749 H 0.54432 0.03803 0.59086 0.0
H750 H 0.51228 0.94836 0.70445 0.0
H751 H 0.48453 0.94946 0.74219 0.0
H752 H 0.53602 0.97889 0.74278 0.0
H753 H 0.53022 0.03951 0.75326 0.0
H754 H 0.4787 0.01026 0.75276 0.0
H755 H 0.50246 0.05036 0.72215 0.0
H756 H 0.47016 0.99493 0.58979 0.0
H757 H 0.4009 0.95177 0.60202 0.0
H758 H 0.4265 0.95262 0.71622 0.0
C759 C 0.57945 0.04363 0.69031 0.0
C760 C 0.6068 0.06362 0.66283 0.0
C761 C 0.59359 0.06119 0.62675 0.0
C762 C 0.55414 0.03963 0.61841 0.0
C763 C 0.5281 0.02071 0.64641 0.0
C764 C 0.54044 0.02268 0.68163 0.0
C765 C 0.50719 1.00013 0.70711 0.0
C766 C 0.5102 0.96726 0.72518 0.0
C767 C 0.50449 0.02665 0.73548 0.0
C768 C 0.47401 0.98487 0.68081 0.0
C769 C 0.48635 0.99686 0.64587 0.0
C770 C 0.46033 0.98556 0.61714 0.0
C771 C 0.42093 0.96116 0.62438 0.0
C772 C 0.40785 0.94829 0.66009 0.0
C773 C 0.4351 0.96101 0.68848 0.0
H774 H 0.52195 0.43343 0.96814 0.0
H775 H 0.43212 0.38397 0.04939 0.0
H776 H 0.44429 0.4489 0.06463 0.0
H777 H 0.58703 0.52067 0.01871 0.0
H778 H 0.60207 0.55045 0.97879 0.0
H779 H 0.58771 0.5003 0.97546 0.0
H780 H 0.53715 0.49054 0.92693 0.0
H781 H 0.55156 0.54064 0.92999 0.0
H782 H 0.50203 0.5045 0.93695 0.0
H783 H 0.46329 0.51866 0.06835 0.0
H784 H 0.4865 0.58786 0.05885 0.0
H785 H 0.56577 0.59285 0.97724 0.0
C786 C 0.50521 0.43611 0.98961 0.0
C787 C 0.47602 0.40321 1.00761 0.0
C788 C 0.45432 0.4084 0.03491 0.0
C789 C 0.46128 0.44529 0.04399 0.0
C790 C 0.49022 0.47694 0.02572 0.0
C791 C 0.51186 0.47274 0.99908 0.0
C792 C 0.54005 0.51129 0.98235 0.0
C793 C 0.58168 0.52126 0.98925 0.0
C794 C 0.53221 0.51176 0.94165 0.0
C795 C 0.53047 0.53783 1.00333 0.0
C796 C 0.50178 0.51737 0.02838 0.0
C797 C 0.48619 0.53501 0.04929 0.0
C798 C 0.49959 0.57426 0.0439 0.0
C799 C 0.5285 0.59564 0.0181 0.0
C800 C 0.54461 0.57733 0.99801 0.0
H801 H 0.54606 0.96379 0.29152 0.0
H802 H 0.5524 0.9429 0.40579 0.0
H803 H 0.52419 0.98346 0.42062 0.0
H804 H 0.56981 0.06217 0.29988 0.0
H805 H 0.53728 0.05863 0.26459 0.0
H806 H 0.55826 0.02828 0.26346 0.0
H807 H 0.49034 0.96805 0.2603 0.0
H808 H 0.46914 0.99821 0.26158 0.0
H809 H 0.45553 0.96065 0.29467 0.0
H810 H 0.49293 0.02571 0.42246 0.0
H811 H 0.46641 0.06861 0.4111 0.0
H812 H 0.4803 0.06033 0.29569 0.0
C813 C 0.54139 0.96749 0.3197 0.0
C814 C 0.55144 0.94986 0.34742 0.0
C815 C 0.54538 0.95624 0.38398 0.0
C816 C 0.52905 0.97906 0.39268 0.0
C817 C 0.519 0.99551 0.36457 0.0
C818 C 0.52524 0.99015 0.32882 0.0
C819 C 0.5124 0.01117 0.30353 0.0
C820 C 0.54647 0.04188 0.28158 0.0
C821 C 0.47992 0.98282 0.27855 0.0
C822 C 0.49795 0.02929 0.33053 0.0
C823 C 0.50171 0.01984 0.36564 0.0
C824 C 0.49 0.0333 0.39503 0.0
C825 C 0.4747 0.05748 0.38832 0.0
C826 C 0.47145 0.0682 0.35251 0.0
C827 C 0.4829 0.05333 0.32342 0.0
H828 H 0.58533 0.54539 0.62492 0.0
H829 H 0.60936 0.54458 0.7394 0.0
H830 H 0.54023 0.51514 0.75264 0.0
H831 H 0.51007 0.56708 0.634 0.0
H832 H 0.48215 0.53616 0.59728 0.0
H833 H 0.53359 0.55775 0.59715 0.0
H834 H 0.52673 0.49038 0.59112 0.0
H835 H 0.47526 0.46858 0.5912 0.0
H836 H 0.49848 0.45365 0.6238 0.0
H837 H 0.46695 0.48491 0.75302 0.0
H838 H 0.39797 0.45829 0.74046 0.0
H839 H 0.42311 0.47647 0.6255 0.0
C840 C 0.57637 0.53885 0.65282 0.0
C841 C 0.60336 0.54751 0.681 0.0
C842 C 0.58974 0.53882 0.71717 0.0
C843 C 0.55032 0.52179 0.72501 0.0
C844 C 0.52465 0.51341 0.69645 0.0
C845 C 0.53726 0.52168 0.66108 0.0
C846 C 0.50407 0.50978 0.63513 0.0
C847 C 0.50769 0.54478 0.6147 0.0
C848 C 0.50096 0.47875 0.60877 0.0
C849 C 0.47072 0.49361 0.66137 0.0
C850 C 0.48301 0.49589 0.69663 0.0
C851 C 0.4571 0.48294 0.72543 0.0
C852 C 0.41778 0.46761 0.71796 0.0
C853 C 0.40453 0.46523 0.68192 0.0
C854 C 0.43174 0.47821 0.65344 0.0
H855 H 0.95614 0.41789 0.96438 0.0
H856 H 0.93089 0.39229 0.07846 0.0
H857 H 0.96741 0.46182 0.09225 0.0
H858 H 0.05218 0.49904 0.97513 0.0
H859 H 0.04704 0.52519 0.93801 0.0
H860 H 0.02082 0.47343 0.93784 0.0
H861 H 0.95707 0.47389 0.93016 0.0
H862 H 0.98306 0.52561 0.93043 0.0
H863 H 0.94475 0.49963 0.96237 0.0
H864 H 0.00484 0.53573 0.09274 0.0
H865 H 0.03941 0.60559 0.07975 0.0
H866 H 0.03908 0.5811 0.96541 0.0
C867 C 0.95811 0.4267 0.99231 0.0
C868 C 0.94038 0.39932 0.02027 0.0
C869 C 0.94443 0.41246 0.05651 0.0
C870 C 0.965 0.452 0.0646 0.0
C871 C 0.98156 0.47815 0.03621 0.0
C872 C 0.97841 0.46588 1.0008 0.0
C873 C 0.99793 0.49948 0.97497 0.0
C874 C 0.03149 0.49926 0.95534 0.0
C875 C 0.96897 0.49965 0.9479 0.0
C876 C 0.01214 0.53272 1.00123 0.0
C877 C 1.0027 0.52003 0.03648 0.0
C878 C 0.01253 0.54587 0.0652 0.0
C879 C 0.03232 0.58555 0.0576 0.0
C880 C 0.04193 0.59907 0.02153 0.0
C881 C 0.03178 0.57199 0.99322 0.0
H882 H 0.22287 0.31694 0.36125 0.0
H883 H 0.21678 0.29398 0.2463 0.0
H884 H 0.24416 0.25162 0.25652 0.0
H885 H 0.31266 0.32548 0.37484 0.0
H886 H 0.30228 0.30329 0.4189 0.0
H887 H 0.27734 0.32727 0.40347 0.0
H888 H 0.21165 0.26512 0.41355 0.0
H889 H 0.23679 0.24162 0.43003 0.0
H890 H 0.20306 0.2208 0.39327 0.0
H891 H 0.27392 0.21398 0.27893 0.0
H892 H 0.31015 0.18871 0.31019 0.0
H893 H 0.30152 0.23953 0.41086 0.0
C894 C 0.22643 0.30211 0.33847 0.0
C895 C 0.21716 0.30794 0.30304 0.0
C896 C 0.2235 0.28944 0.27357 0.0
C897 C 0.2388 0.26528 0.2792 0.0
C898 C 0.24799 0.26036 0.31445 0.0
C899 C 0.24233 0.27846 0.34359 0.0
C900 C 0.25797 0.27117 0.3782 0.0
C901 C 0.28944 0.30906 0.39481 0.0
C902 C 0.22544 0.24832 0.40538 0.0
C903 C 0.27428 0.24703 0.36378 0.0
C904 C 0.26728 0.24038 0.32714 0.0
C905 C 0.27957 0.219 0.30763 0.0
C906 C 0.30025 0.20468 0.32582 0.0
C907 C 0.30939 0.21241 0.36312 0.0
C908 C 0.2955 0.2334 0.38234 0.0
H909 H 0.94789 0.23116 0.60155 0.0
H910 H 0.88524 0.17446 0.69918 0.0
H911 H 0.94589 0.20015 0.7326 0.0
H912 H 0.02914 0.2158 0.6205 0.0
H913 H 0.06577 0.2616 0.60401 0.0
H914 H 0.01869 0.23847 0.58362 0.0
H915 H 0.00894 0.2953 0.59539 0.0
H916 H 0.05618 0.32245 0.61464 0.0
H917 H 0.0151 0.31493 0.64036 0.0
H918 H 0.01251 0.23995 0.75759 0.0
H919 H 0.08103 0.28559 0.77052 0.0
H920 H 0.10126 0.31398 0.65658 0.0
C921 C 0.94706 0.22341 0.62972 0.0
C922 C 0.91164 0.20075 0.64757 0.0
C923 C 0.91178 0.19136 0.68459 0.0
C924 C 0.94622 0.20601 0.70397 0.0
C925 C 0.9805 0.22934 0.68585 0.0
C926 C 0.98127 0.23729 0.64937 0.0
C927 C 0.0219 0.26423 0.63668 0.0
C928 C 0.03459 0.24385 0.60954 0.0
C929 C 0.02575 0.30139 0.62081 0.0
C930 C 0.04357 0.27177 0.67204 0.0
C931 C 0.01918 0.25116 0.70007 0.0
C932 C 0.03204 0.25558 0.73573 0.0
C933 C 0.07087 0.2817 0.74288 0.0
C934 C 0.0964 0.30289 0.71452 0.0
C935 C 0.08253 0.29745 0.67863 0.0
H936 H 0.74267 0.0652 0.07546 0.0
H937 H 0.85296 0.10646 0.02302 0.0
H938 H 0.83204 0.04081 1.00185 0.0
H939 H 0.72871 0.96978 0.10367 0.0
H940 H 0.67784 0.94703 0.0952 0.0
H941 H 0.70411 0.99654 0.10924 0.0
H942 H 0.67783 0.014 0.05237 0.0
H943 H 0.6531 0.96457 0.03811 0.0
H944 H 0.68693 1.00135 1.00816 0.0
H945 H 0.79675 0.97293 0.98018 0.0
H946 H 0.75006 0.90613 0.96207 0.0
H947 H 0.66423 0.90723 0.03158 0.0
C948 C 0.76291 0.06039 0.06042 0.0
C949 C 0.79953 0.09129 0.05087 0.0
C950 C 0.82462 0.08357 0.03031 0.0
C951 C 0.8131 0.04624 0.01839 0.0
C952 C 0.77656 0.01671 0.02761 0.0
C953 C 0.75196 0.02322 0.0485 0.0
C954 C 0.71337 0.98682 0.05278 0.0
C955 C 0.7056 0.97431 0.09261 0.0
C956 C 0.68091 0.99201 0.0369 0.0
C957 C 0.71986 0.95902 0.03039 0.0
C958 C 0.75656 0.97694 0.01612 0.0
C959 C 0.76827 0.95834 0.99185 0.0
C960 C 0.7417 0.92058 0.98165 0.0
C961 C 0.70411 0.90173 0.99601 0.0
C962 C 0.69324 0.92093 0.02113 0.0
H963 H 0.77121 0.70742 0.28865 0.0
H964 H 0.81234 0.6933 0.39274 0.0
H965 H 0.78347 0.72737 0.42247 0.0
H966 H 0.78408 0.80317 0.30671 0.0
H967 H 0.74079 0.79321 0.28327 0.0
H968 H 0.76694 0.76987 0.26934 0.0
H969 H 0.70564 0.70339 0.27723 0.0
H970 H 0.6794 0.72661 0.29104 0.0
H971 H 0.68078 0.69126 0.32001 0.0
H972 H 0.74637 0.75832 0.44185 0.0
H973 H 0.70455 0.78652 0.44927 0.0
H974 H 0.68738 0.78179 0.33321 0.0
C975 C 0.77441 0.71195 0.3176 0.0
C976 C 0.79484 0.69849 0.33825 0.0
C977 C 0.79806 0.70452 0.37619 0.0
C978 C 0.7814 0.72353 0.39341 0.0
C979 C 0.76154 0.73649 0.37236 0.0
C980 C 0.75805 0.7312 0.33528 0.0
C981 C 0.73406 0.74707 0.31937 0.0
C982 C 0.7579 0.78031 0.29312 0.0
C983 C 0.69782 0.71517 0.30083 0.0
C984 C 0.72414 0.76135 0.3534 0.0
C985 C 0.74035 0.75495 0.38363 0.0
C986 C 0.73384 0.76389 0.41837 0.0
C987 C 0.70997 0.7797 0.42237 0.0
C988 C 0.69313 0.78662 0.39184 0.0
C989 C 0.70062 0.77758 0.35691 0.0
H990 H 0.06286 0.77409 0.61447 0.0
H991 H 0.12306 0.81814 0.71633 0.0
H992 H 0.06146 0.78959 0.74835 0.0
H993 H 0.98049 0.78577 0.63497 0.0
H994 H 0.94629 0.74136 0.61357 0.0
H995 H 0.99501 0.76753 0.59729 0.0
H996 H 1.00157 0.70758 0.60556 0.0
H997 H 0.95331 0.68046 0.62266 0.0
H998 H 0.99268 0.68477 0.64928 0.0
H999 H 0.99376 0.75166 0.77048 0.0
H1000 H 0.92406 0.70903 0.78039 0.0
H1001 H 0.9071 0.68959 0.66483 0.0
C1002 C 0.06311 0.77809 0.64344 0.0
C1003 C 0.09812 0.79891 0.66259 0.0
C1004 C 0.09695 0.80325 0.70063 0.0
C1005 C 0.06195 0.78683 0.71925 0.0
C1006 C 0.02814 0.76615 0.69961 0.0
C1007 C 0.02834 0.76191 0.66252 0.0
C1008 C 0.98791 0.73674 0.64819 0.0
C1009 C 0.97678 0.7592 0.62195 0.0
C1010 C 0.98364 0.70024 0.63036 0.0
C1011 C 0.96508 0.72736 0.68304 0.0
C1012 C 0.98889 0.74453 0.71239 0.0
C1013 C 0.97476 0.73844 0.74766 0.0
C1014 C 0.93525 0.71411 0.75307 0.0
C1015 C 0.91027 0.69643 0.7234 0.0
C1016 C 0.92546 0.70343 0.68793 0.0
H1017 H 0.28447 0.06128 0.95727 0.0
H1018 H 0.33945 0.11932 0.05745 0.0
H1019 H 0.31518 0.05695 0.08736 0.0
H1020 H 0.19904 0.98413 0.99782 0.0
H1021 H 0.1958 0.94828 0.96647 0.0
H1022 H 0.21749 0.99773 0.95249 0.0
H1023 H 0.27929 0.99721 0.93422 0.0
H1024 H 0.25766 0.94775 0.9481 0.0
H1025 H 0.3031 0.98315 0.96701 0.0
H1026 H 0.28436 0.98853 0.10709 0.0
H1027 H 0.25061 0.91825 0.11469 0.0
H1028 H 0.21629 0.90391 1.00174 0.0
C1029 C 0.29122 0.06111 0.98555 0.0
C1030 C 0.31386 0.09578 1.0049 0.0
C1031 C 0.32238 0.09363 0.04178 0.0
C1032 C 0.30856 0.05816 0.05917 0.0
C1033 C 0.28623 0.02479 0.03939 0.0
C1034 C 0.2777 0.02584 1.00336 0.0
C1035 C 0.25348 0.98552 0.98827 0.0
C1036 C 0.21412 0.97852 0.97552 0.0
C1037 C 0.27466 0.97797 0.95759 0.0
C1038 C 0.24969 0.9618 0.02156 0.0
C1039 C 0.26877 0.98508 0.05071 0.0
C1040 C 0.26946 0.96996 0.08441 0.0
C1041 C 0.25034 0.92992 0.0884 0.0
C1042 C 0.23081 0.90529 0.05886 0.0
C1043 C 0.23048 0.92171 0.02504 0.0
H1044 H 0.45187 0.69328 0.3126 0.0
H1045 H 0.47298 0.7106 0.42805 0.0
H1046 H 0.41528 0.64766 0.43989 0.0
H1047 H 0.35051 0.64989 0.31777 0.0
H1048 H 0.34103 0.61623 0.28159 0.0
H1049 H 0.38518 0.66164 0.28209 0.0
H1050 H 0.42403 0.62625 0.27891 0.0
H1051 H 0.37995 0.5807 0.27831 0.0
H1052 H 0.41577 0.5902 0.31228 0.0
H1053 H 0.35487 0.58386 0.43923 0.0
H1054 H 0.294 0.52405 0.42601 0.0
H1055 H 0.3122 0.54888 0.31112 0.0
C1056 C 0.44447 0.68353 0.3403 0.0
C1057 C 0.4666 0.70658 0.36944 0.0
C1058 C 0.45599 0.69334 0.40541 0.0
C1059 C 0.4235 0.65763 0.41239 0.0
C1060 C 0.40203 0.63568 0.38306 0.0
C1061 C 0.41197 0.6481 0.34775 0.0
C1062 C 0.38311 0.61968 0.32124 0.0
C1063 C 0.36382 0.63796 0.2994 0.0
C1064 C 0.40184 0.60323 0.29622 0.0
C1065 C 0.35524 0.58958 0.34722 0.0
C1066 C 0.36684 0.59914 0.38272 0.0
C1067 C 0.3455 0.57592 0.41154 0.0
C1068 C 0.31113 0.54204 0.4038 0.0
C1069 C 0.29852 0.53209 0.36762 0.0
C1070 C 0.32104 0.55608 0.33906 0.0
H1071 H 0.7454 0.44435 0.70952 0.0
H1072 H 0.79656 0.49398 0.60546 0.0
H1073 H 0.80464 0.43831 0.59296 0.0
H1074 H 0.80279 0.40196 0.73021 0.0
H1075 H 0.76372 0.35906 0.74968 0.0
H1076 H 0.76334 0.40362 0.75143 0.0
H1077 H 0.69693 0.37128 0.7198 0.0
H1078 H 0.69693 0.32654 0.71825 0.0
H1079 H 0.69087 0.34709 0.67717 0.0
H1080 H 0.80792 0.37826 0.59199 0.0
H1081 H 0.80168 0.3147 0.60018 0.0
H1082 H 0.7433 0.30149 0.70257 0.0
C1083 C 0.75789 0.44343 0.68388 0.0
C1084 C 0.77059 0.47378 0.65859 0.0
C1085 C 0.78732 0.47152 0.62562 0.0
C1086 C 0.79188 0.43994 0.61817 0.0
C1087 C 0.77922 0.41073 0.6438 0.0
C1088 C 0.76219 0.41193 0.67579 0.0
C1089 C 0.7498 0.37605 0.69813 0.0
C1090 C 0.7712 0.38577 0.73451 0.0
C1091 C 0.70603 0.35393 0.70364 0.0
C1092 C 0.76246 0.35442 0.67357 0.0
C1093 C 0.77972 0.37519 0.64259 0.0
C1094 C 0.79409 0.3615 0.61594 0.0
C1095 C 0.79014 0.32524 0.62076 0.0
C1096 C 0.77142 0.30279 0.65176 0.0
C1097 C 0.75788 0.31793 0.67869 0.0
H1098 H 0.46388 0.80579 1.01174 0.0
H1099 H 0.43638 0.69213 0.04789 0.0
H1100 H 0.36771 0.67233 0.04987 0.0
H1101 H 0.39153 0.8116 0.06708 0.0
H1102 H 0.38118 0.83693 0.03272 0.0
H1103 H 0.42836 0.84249 0.03559 0.0
H1104 H 0.42326 0.82176 0.96847 0.0
H1105 H 0.37583 0.81553 0.96557 0.0
H1106 H 0.38345 0.77628 0.95429 0.0
H1107 H 0.30213 0.66328 0.04348 0.0
H1108 H 0.24365 0.66768 0.03608 0.0
H1109 H 0.31377 0.78822 1.00719 0.0
C1110 C 0.44337 0.77693 0.0205 0.0
C1111 C 0.45534 0.75056 0.02997 0.0
C1112 C 0.4278 0.71297 0.04119 0.0
C1113 C 0.38874 0.70134 0.04206 0.0
C1114 C 0.37778 0.72775 0.0319 0.0
C1115 C 0.40424 0.76494 0.02192 0.0
C1116 C 0.38471 0.78761 1.01248 0.0
C1117 C 0.39718 0.82167 0.03853 0.0
C1118 C 0.39227 0.80108 0.97285 0.0
C1119 C 0.34314 0.75716 0.0183 0.0
C1120 C 0.33982 0.7228 0.02922 0.0
C1121 C 0.30433 0.6902 0.03547 0.0
C1122 C 0.27129 0.69304 0.0313 0.0
C1123 C 0.274 0.72836 0.02137 0.0
C1124 C 0.31052 0.76066 0.01441 0.0
H1125 H 0.56139 0.32544 0.32625 0.0
H1126 H 0.53854 0.30848 0.44149 0.0
H1127 H 0.59655 0.37109 0.45366 0.0
H1128 H 0.6616 0.36711 0.33221 0.0
H1129 H 0.67218 0.40102 0.29601 0.0
H1130 H 0.62741 0.35623 0.29623 0.0
H1131 H 0.59004 0.3931 0.29261 0.0
H1132 H 0.63475 0.43806 0.29221 0.0
H1133 H 0.59893 0.42941 0.32589 0.0
H1134 H 0.6587 0.43395 0.45337 0.0
H1135 H 0.72117 0.49205 0.44047 0.0
H1136 H 0.70237 0.46796 0.32546 0.0
C1137 C 0.56826 0.33523 0.35398 0.0
C1138 C 0.54561 0.3122 0.38293 0.0
C1139 C 0.55583 0.3256 0.41894 0.0
C1140 C 0.58852 0.36118 0.42611 0.0
C1141 C 0.61055 0.38299 0.39696 0.0
C1142 C 0.60082 0.37059 0.36161 0.0
C1143 C 0.63027 0.39863 0.33528 0.0
C1144 C 0.64897 0.3796 0.31368 0.0
C1145 C 0.61243 0.41582 0.31001 0.0
C1146 C 0.65839 0.42839 0.36138 0.0
C1147 C 0.64638 0.41907 0.39681 0.0
C1148 C 0.66828 0.44176 0.42571 0.0
C1149 C 0.70359 0.47471 0.41814 0.0
C1150 C 0.71662 0.48439 0.38201 0.0
C1151 C 0.69338 0.46106 0.35339 0.0
H1152 H 0.28181 0.7165 0.66984 0.0
H1153 H 0.15955 0.67574 0.67183 0.0
H1154 H 0.14608 0.60866 0.67236 0.0
H1155 H 0.27703 0.64399 0.61031 0.0
H1156 H 0.31449 0.64018 0.63322 0.0
H1157 H 0.31445 0.68492 0.63386 0.0
H1158 H 0.31583 0.68501 0.70401 0.0
H1159 H 0.31607 0.64037 0.70358 0.0
H1160 H 0.2795 0.64402 0.72837 0.0
H1161 H 0.14612 0.54616 0.67151 0.0
H1162 H 0.15971 0.49273 0.67247 0.0
H1163 H 0.28194 0.57488 0.66934 0.0
C1164 C 0.2522 0.69347 0.67028 0.0
C1165 C 0.22172 0.70126 0.67083 0.0
C1166 C 0.18335 0.67037 0.67188 0.0
C1167 C 0.17541 0.63222 0.6719 0.0
C1168 C 0.20617 0.62558 0.6709 0.0
C1169 C 0.24379 0.65533 0.67031 0.0
C1170 C 0.27165 0.64052 0.66945 0.0
C1171 C 0.29582 0.65315 0.63464 0.0
C1172 C 0.29726 0.65323 0.70337 0.0
C1173 C 0.24382 0.59774 0.66963 0.0
C1174 C 0.2062 0.58967 0.67034 0.0
C1175 C 0.17547 0.5521 0.67084 0.0
C1176 C 0.18347 0.52198 0.67109 0.0
C1177 C 0.22188 0.52968 0.67087 0.0
C1178 C 0.25231 0.56811 0.66981 0.0
H1179 H 0.56582 0.26572 0.02094 0.0
H1180 H 0.48827 0.14496 0.9991 0.0
H1181 H 0.54319 0.13336 0.99957 0.0
H1182 H 0.63947 0.27507 0.96288 0.0
H1183 H 0.67823 0.30847 0.99141 0.0
H1184 H 0.6326 0.3065 0.99281 0.0
H1185 H 0.6283 0.29424 0.06199 0.0
H1186 H 0.67413 0.29654 0.06087 0.0
H1187 H 0.63285 0.25482 0.07936 0.0
H1188 H 0.60676 0.13576 1.00069 0.0
H1189 H 0.67438 0.15166 1.00218 0.0
H1190 H 0.71014 0.27194 0.01888 0.0
C1191 C 0.56043 0.23672 0.01712 0.0
C1192 C 0.52308 0.20604 1.01055 0.0
C1193 C 0.51689 0.16863 1.00448 0.0
C1194 C 0.54779 0.16185 1.00469 0.0
C1195 C 0.5845 0.19292 1.01061 0.0
C1196 C 0.59093 0.22961 0.01667 0.0
C1197 C 0.63326 0.25843 0.02011 0.0
C1198 C 0.64666 0.2889 0.99001 0.0
C1199 C 0.64267 0.27709 0.05783 0.0
C1200 C 0.64966 0.23223 0.01506 0.0
C1201 C 0.62112 0.19455 1.00983 0.0
C1202 C 0.62939 0.16519 1.00464 0.0
C1203 C 0.66793 0.17459 1.00516 0.0
C1204 C 0.69766 0.2131 1.01048 0.0
C1205 C 0.68816 0.24218 0.0152 0.0
loop_
_geom_bond_atom_site_label_1
_geom_bond_atom_site_label_2
_geom_bond_distance
_geom_bond_site_symmetry_2
_ccdc_geom_bond_type
C0 C1 1.351 . S
C0 N3 1.368 . S
C0 H5 0.931 . S
C1 C0 1.351 . S
C1 N2 1.373 . S
C1 H29 0.930 . S
N2 C1 1.373 . S
N2 C4 1.340 . S
N3 C0 1.368 . S
N3 C4 1.321 . S
N3 Co6 2.135 . S
C4 N2 1.340 . S
C4 N3 1.321 . S
C4 H28 0.930 . S
H5 C0 0.931 . S
Co6 N3 2.135 . S
Co6 N9 2.121 . S
Co6 O14 2.055 . S
Co6 O17 2.039 . S
Co6 N20 2.140 . S
C7 O8 1.227 . S
C7 O17 1.265 . S
O8 C7 1.227 . S
N9 Co6 2.121 . S
N9 C11 1.375 . S
N9 C12 1.313 . S
C10 C11 1.338 . S
C10 N13 1.377 . S
C10 H30 0.930 . S
C11 N9 1.375 . S
C11 C10 1.338 . S
C11 H15 0.931 . S
C12 N9 1.313 . S
C12 N13 1.344 . S
C12 H16 0.930 . S
N13 C10 1.377 . S
N13 C12 1.344 . S
O14 Co6 2.055 . S
O14 C18 1.253 . S
H15 C11 0.931 . S
H16 C12 0.930 . S
O17 Co6 2.039 . S
O17 C7 1.265 . S
C18 O14 1.253 . S
C18 O19 1.227 . S
O19 C18 1.227 . S
N20 Co6 2.140 . S
N20 C23 1.346 . S
N20 C24 1.345 . S
C21 C22 1.387 . S
C21 C25 1.391 . S
C22 C21 1.387 . S
C22 C23 1.369 . S
C22 H31 0.929 . S
C23 N20 1.346 . S
C23 C22 1.369 . S
C23 H26 0.928 . S
C24 N20 1.345 . S
C24 C25 1.371 . S
C24 H27 0.931 . S
C25 C21 1.391 . S
C25 C24 1.371 . S
C25 H32 0.930 . S
H26 C23 0.928 . S
H27 C24 0.931 . S
H28 C4 0.930 . S
H29 C1 0.930 . S
H30 C10 0.930 . S
H31 C22 0.929 . S
H32 C25 0.930 . S
C33 C34 1.351 . S
C33 N36 1.368 . S
C33 H38 0.931 . S
C34 C33 1.351 . S
C34 N35 1.373 . S
C34 H62 0.930 . S
N35 C34 1.373 . S
N35 C37 1.340 . S
N36 C33 1.368 . S
N36 C37 1.321 . S
N36 Co39 2.135 . S
C37 N35 1.340 . S
C37 N36 1.321 . S
C37 H61 0.930 . S
H38 C33 0.931 . S
Co39 N36 2.135 . S
Co39 N42 2.121 . S
Co39 O47 2.055 . S
Co39 O50 2.039 . S
Co39 N53 2.140 . S
C40 O41 1.227 . S
C40 O50 1.265 . S
O41 C40 1.227 . S
N42 Co39 2.121 . S
N42 C44 1.375 . S
N42 C45 1.313 . S
C43 C44 1.338 . S
C43 N46 1.377 . S
C43 H63 0.930 . S
C44 N42 1.375 . S
C44 C43 1.338 . S
C44 H48 0.931 . S
C45 N42 1.313 . S
C45 N46 1.344 . S
C45 H49 0.930 . S
N46 C43 1.377 . S
N46 C45 1.344 . S
O47 Co39 2.055 . S
O47 C51 1.253 . S
H48 C44 0.931 . S
H49 C45 0.930 . S
O50 Co39 2.039 . S
O50 C40 1.265 . S
C51 O47 1.253 . S
C51 O52 1.227 . S
O52 C51 1.227 . S
N53 Co39 2.140 . S
N53 C56 1.346 . S
N53 C57 1.345 . S
C54 C55 1.387 . S
C54 C58 1.391 . S
C55 C54 1.387 . S
C55 C56 1.369 . S
C55 H64 0.929 . S
C56 N53 1.346 . S
C56 C55 1.369 . S
C56 H59 0.928 . S
C57 N53 1.345 . S
C57 C58 1.371 . S
C57 H60 0.931 . S
C58 C54 1.391 . S
C58 C57 1.371 . S
C58 H65 0.930 . S
H59 C56 0.928 . S
H60 C57 0.931 . S
H61 C37 0.930 . S
H62 C34 0.930 . S
H63 C43 0.930 . S
H64 C55 0.929 . S
H65 C58 0.930 . S
C66 C67 1.351 . S
C66 N69 1.368 . S
C66 H71 0.931 . S
C67 C66 1.351 . S
C67 N68 1.373 . S
C67 H95 0.930 . S
N68 C67 1.373 . S
N68 C70 1.340 1_556 S
N69 C66 1.368 . S
N69 C70 1.321 1_556 S
N69 Co72 2.135 1_556 S
C70 N68 1.340 1_554 S
C70 N69 1.321 1_554 S
C70 H94 0.930 . S
H71 C66 0.931 . S
Co72 N69 2.135 1_554 S
Co72 N75 2.121 . S
Co72 O80 2.055 1_554 S
Co72 O83 2.039 . S
Co72 N86 2.140 1_554 S
C73 O74 1.227 . S
C73 O83 1.265 . S
O74 C73 1.227 . S
N75 Co72 2.121 . S
N75 C77 1.375 . S
N75 C78 1.315 . S
C76 C77 1.338 . S
C76 N79 1.377 . S
C76 H96 0.930 . S
C77 N75 1.375 . S
C77 C76 1.338 . S
C77 H81 0.931 . S
C78 N75 1.315 . S
C78 N79 1.345 . S
C78 H82 0.928 1_554 S
N79 C76 1.377 . S
N79 C78 1.345 . S
O80 Co72 2.055 1_556 S
O80 C84 1.253 . S
H81 C77 0.931 . S
H82 C78 0.928 1_556 S
O83 Co72 2.039 . S
O83 C73 1.265 . S
C84 O80 1.253 . S
C84 O85 1.227 . S
O85 C84 1.227 . S
N86 Co72 2.140 1_556 S
N86 C89 1.346 1_556 S
N86 C90 1.345 . S
C87 C88 1.387 . S
C87 C91 1.391 . S
C88 C87 1.387 . S
C88 C89 1.369 1_556 S
C88 H97 0.929 1_556 S
C89 N86 1.346 1_554 S
C89 C88 1.369 1_554 S
C89 H92 0.928 . S
C90 N86 1.345 . S
C90 C91 1.371 . S
C90 H93 0.931 . S
C91 C87 1.391 . S
C91 C90 1.371 . S
C91 H98 0.930 . S
H92 C89 0.928 . S
H93 C90 0.931 . S
H94 C70 0.930 . S
H95 C67 0.930 . S
H96 C76 0.930 . S
H97 C88 0.929 1_554 S
H98 C91 0.930 . S
C99 C100 1.351 . S
C99 N102 1.368 . S
C99 H104 0.931 . S
C100 C99 1.351 . S
C100 N101 1.373 . S
C100 H128 0.930 . S
N101 C100 1.373 . S
N101 C103 1.340 . S
N102 C99 1.368 . S
N102 C103 1.321 . S
N102 Co105 2.135 . S
C103 N101 1.340 . S
C103 N102 1.321 . S
C103 H127 0.930 . S
H104 C99 0.931 . S
Co105 N102 2.135 . S
Co105 N108 2.121 . S
Co105 O113 2.055 . S
Co105 O116 2.039 . S
Co105 N119 2.140 . S
C106 O107 1.227 . S
C106 O116 1.265 . S
O107 C106 1.227 . S
N108 Co105 2.121 . S
N108 C110 1.375 . S
N108 C111 1.313 . S
C109 C110 1.338 . S
C109 N112 1.377 . S
C109 H129 0.930 . S
C110 N108 1.375 . S
C110 C109 1.338 . S
C110 H114 0.931 . S
C111 N108 1.313 . S
C111 N112 1.344 . S
C111 H115 0.930 . S
N112 C109 1.377 . S
N112 C111 1.344 . S
O113 Co105 2.055 . S
O113 C117 1.253 . S
H114 C110 0.931 . S
H115 C111 0.930 . S
O116 Co105 2.039 . S
O116 C106 1.265 . S
C117 O113 1.253 . S
C117 O118 1.227 . S
O118 C117 1.227 . S
N119 Co105 2.140 . S
N119 C122 1.346 . S
N119 C123 1.345 . S
C120 C121 1.387 . S
C120 C124 1.391 . S
C121 C120 1.387 . S
C121 C122 1.369 . S
C121 H130 0.929 . S
C122 N119 1.346 . S
C122 C121 1.369 . S
C122 H125 0.928 . S
C123 N119 1.345 . S
C123 C124 1.371 . S
C123 H126 0.931 . S
C124 C120 1.391 . S
C124 C123 1.371 . S
C124 H131 0.930 . S
H125 C122 0.928 . S
H126 C123 0.931 . S
H127 C103 0.930 . S
H128 C100 0.930 . S
H129 C109 0.930 . S
H130 C121 0.929 . S
H131 C124 0.930 . S
C132 C133 1.351 . S
C132 N135 1.368 . S
C132 H137 0.931 . S
C133 C132 1.351 . S
C133 N134 1.373 . S
C133 H161 0.930 . S
N134 C133 1.373 . S
N134 C136 1.340 . S
N135 C132 1.368 . S
N135 C136 1.321 . S
N135 Co138 2.135 . S
C136 N134 1.340 . S
C136 N135 1.321 . S
C136 H160 0.930 . S
H137 C132 0.931 . S
Co138 N135 2.135 . S
Co138 N141 2.121 . S
Co138 O146 2.055 . S
Co138 O149 2.039 . S
Co138 N152 2.140 . S
C139 O140 1.227 . S
C139 O149 1.265 . S
O140 C139 1.227 . S
N141 Co138 2.121 . S
N141 C143 1.375 . S
N141 C144 1.313 . S
C142 C143 1.338 . S
C142 N145 1.377 . S
C142 H162 0.930 . S
C143 N141 1.375 . S
C143 C142 1.338 . S
C143 H147 0.931 . S
C144 N141 1.313 . S
C144 N145 1.344 . S
C144 H148 0.930 . S
N145 C142 1.377 . S
N145 C144 1.344 . S
O146 Co138 2.055 . S
O146 C150 1.253 . S
H147 C143 0.931 . S
H148 C144 0.930 . S
O149 Co138 2.039 . S
O149 C139 1.265 . S
C150 O146 1.253 . S
C150 O151 1.227 . S
O151 C150 1.227 . S
N152 Co138 2.140 . S
N152 C155 1.346 . S
N152 C156 1.345 . S
C153 C154 1.387 . S
C153 C157 1.391 . S
C154 C153 1.387 . S
C154 C155 1.369 . S
C154 H163 0.929 . S
C155 N152 1.346 . S
C155 C154 1.369 . S
C155 H158 0.928 . S
C156 N152 1.345 . S
C156 C157 1.371 . S
C156 H159 0.931 . S
C157 C153 1.391 . S
C157 C156 1.371 . S
C157 H164 0.930 . S
H158 C155 0.928 . S
H159 C156 0.931 . S
H160 C136 0.930 . S
H161 C133 0.930 . S
H162 C142 0.930 . S
H163 C154 0.929 . S
H164 C157 0.930 . S
C165 C166 1.351 . S
C165 N168 1.368 . S
C165 H170 0.931 . S
C166 C165 1.351 . S
C166 N167 1.373 . S
C166 H194 0.930 . S
N167 C166 1.373 . S
N167 C169 1.340 1_556 S
N168 C165 1.368 . S
N168 C169 1.321 1_556 S
N168 Co171 2.135 1_556 S
C169 N167 1.340 1_554 S
C169 N168 1.321 1_554 S
C169 H193 0.930 . S
H170 C165 0.931 . S
Co171 N168 2.135 1_554 S
Co171 N174 2.121 . S
Co171 O179 2.055 1_554 S
Co171 O182 2.039 . S
Co171 N185 2.140 1_554 S
C172 O173 1.227 . S
C172 O182 1.265 . S
O173 C172 1.227 . S
N174 Co171 2.121 . S
N174 C176 1.375 . S
N174 C177 1.315 . S
C175 C176 1.338 . S
C175 N178 1.377 . S
C175 H195 0.930 . S
C176 N174 1.375 . S
C176 C175 1.338 . S
C176 H180 0.931 . S
C177 N174 1.315 . S
C177 N178 1.345 . S
C177 H181 0.928 1_554 S
N178 C175 1.377 . S
N178 C177 1.345 . S
O179 Co171 2.055 1_556 S
O179 C183 1.253 . S
H180 C176 0.931 . S
H181 C177 0.928 1_556 S
O182 Co171 2.039 . S
O182 C172 1.265 . S
C183 O179 1.253 . S
C183 O184 1.227 . S
O184 C183 1.227 . S
N185 Co171 2.140 1_556 S
N185 C188 1.346 1_556 S
N185 C189 1.345 . S
C186 C187 1.387 . S
C186 C190 1.391 . S
C187 C186 1.387 . S
C187 C188 1.369 1_556 S
C187 H196 0.929 1_556 S
C188 N185 1.346 1_554 S
C188 C187 1.369 1_554 S
C188 H191 0.928 . S
C189 N185 1.345 . S
C189 C190 1.371 . S
C189 H192 0.931 . S
C190 C186 1.391 . S
C190 C189 1.371 . S
C190 H197 0.930 . S
H191 C188 0.928 . S
H192 C189 0.931 . S
H193 C169 0.930 . S
H194 C166 0.930 . S
H195 C175 0.930 . S
H196 C187 0.929 1_554 S
H197 C190 0.930 . S
C198 C199 1.351 . S
C198 N201 1.368 . S
C198 H203 0.931 . S
C199 C198 1.351 . S
C199 N200 1.373 . S
C199 H227 0.930 . S
N200 C199 1.373 . S
N200 C202 1.340 . S
N201 C198 1.368 . S
N201 C202 1.321 . S
N201 Co204 2.135 . S
C202 N200 1.340 . S
C202 N201 1.321 . S
C202 H226 0.930 . S
H203 C198 0.931 . S
Co204 N201 2.135 . S
Co204 N207 2.121 . S
Co204 O212 2.055 . S
Co204 O215 2.039 . S
Co204 N218 2.140 . S
C205 O206 1.227 . S
C205 O215 1.265 . S
O206 C205 1.227 . S
N207 Co204 2.121 . S
N207 C209 1.375 . S
N207 C210 1.313 . S
C208 C209 1.338 . S
C208 N211 1.377 . S
C208 H228 0.930 . S
C209 N207 1.375 . S
C209 C208 1.338 . S
C209 H213 0.931 . S
C210 N207 1.313 . S
C210 N211 1.344 . S
C210 H214 0.930 . S
N211 C208 1.377 . S
N211 C210 1.344 . S
O212 Co204 2.055 . S
O212 C216 1.253 . S
H213 C209 0.931 . S
H214 C210 0.930 . S
O215 Co204 2.039 . S
O215 C205 1.265 . S
C216 O212 1.253 . S
C216 O217 1.227 . S
O217 C216 1.227 . S
N218 Co204 2.140 . S
N218 C221 1.346 . S
N218 C222 1.345 . S
C219 C220 1.387 . S
C219 C223 1.391 . S
C220 C219 1.387 . S
C220 C221 1.369 . S
C220 H229 0.929 . S
C221 N218 1.346 . S
C221 C220 1.369 . S
C221 H224 0.928 . S
C222 N218 1.345 . S
C222 C223 1.371 . S
C222 H225 0.931 . S
C223 C219 1.391 . S
C223 C222 1.371 . S
C223 H230 0.930 . S
H224 C221 0.928 . S
H225 C222 0.931 . S
H226 C202 0.930 . S
H227 C199 0.930 . S
H228 C208 0.930 . S
H229 C220 0.929 . S
H230 C223 0.930 . S
C231 C232 1.351 . S
C231 N234 1.368 . S
C231 H236 0.931 . S
C232 C231 1.351 . S
C232 N233 1.373 . S
C232 H260 0.930 . S
N233 C232 1.373 . S
N233 C235 1.340 . S
N234 C231 1.368 . S
N234 C235 1.321 . S
N234 Co237 2.135 . S
C235 N233 1.340 . S
C235 N234 1.321 . S
C235 H259 0.930 . S
H236 C231 0.931 . S
Co237 N234 2.135 . S
Co237 N240 2.121 . S
Co237 O245 2.055 . S
Co237 O248 2.039 . S
Co237 N251 2.140 . S
C238 O239 1.227 . S
C238 O248 1.265 . S
O239 C238 1.227 . S
N240 Co237 2.121 . S
N240 C242 1.375 . S
N240 C243 1.313 . S
C241 C242 1.338 . S
C241 N244 1.377 . S
C241 H261 0.930 . S
C242 N240 1.375 . S
C242 C241 1.338 . S
C242 H246 0.931 . S
C243 N240 1.313 . S
C243 N244 1.344 . S
C243 H247 0.930 . S
N244 C241 1.377 . S
N244 C243 1.344 . S
O245 Co237 2.055 . S
O245 C249 1.253 . S
H246 C242 0.931 . S
H247 C243 0.930 . S
O248 Co237 2.039 . S
O248 C238 1.265 . S
C249 O245 1.253 . S
C249 O250 1.227 . S
O250 C249 1.227 . S
N251 Co237 2.140 . S
N251 C254 1.346 . S
N251 C255 1.345 . S
C252 C253 1.387 . S
C252 C256 1.391 . S
C253 C252 1.387 . S
C253 C254 1.369 . S
C253 H262 0.929 . S
C254 N251 1.346 . S
C254 C253 1.369 . S
C254 H257 0.928 . S
C255 N251 1.345 . S
C255 C256 1.371 . S
C255 H258 0.931 . S
C256 C252 1.391 . S
C256 C255 1.371 . S
C256 H263 0.930 . S
H257 C254 0.928 . S
H258 C255 0.931 . S
H259 C235 0.930 . S
H260 C232 0.930 . S
H261 C241 0.930 . S
H262 C253 0.929 . S
H263 C256 0.930 . S
C264 C265 1.351 . S
C264 N267 1.368 . S
C264 H269 0.931 . S
C265 C264 1.351 . S
C265 N266 1.373 . S
C265 H293 0.930 . S
N266 C265 1.373 . S
N266 C268 1.340 1_554 S
N267 C264 1.368 . S
N267 C268 1.321 1_554 S
N267 Co270 2.135 1_554 S
C268 N266 1.340 1_556 S
C268 N267 1.321 1_556 S
C268 H292 0.930 . S
H269 C264 0.931 . S
Co270 N267 2.135 1_556 S
Co270 N273 2.121 . S
Co270 O278 2.055 1_556 S
Co270 O281 2.039 . S
Co270 N284 2.140 1_556 S
C271 O272 1.227 . S
C271 O281 1.265 . S
O272 C271 1.227 . S
N273 Co270 2.121 . S
N273 C275 1.375 . S
N273 C276 1.315 . S
C274 C275 1.338 . S
C274 N277 1.377 . S
C274 H294 0.930 . S
C275 N273 1.375 . S
C275 C274 1.338 . S
C275 H279 0.931 . S
C276 N273 1.315 . S
C276 N277 1.345 . S
C276 H280 0.928 1_556 S
N277 C274 1.377 . S
N277 C276 1.345 . S
O278 Co270 2.055 1_554 S
O278 C282 1.253 . S
H279 C275 0.931 . S
H280 C276 0.928 1_554 S
O281 Co270 2.039 . S
O281 C271 1.265 . S
C282 O278 1.253 . S
C282 O283 1.227 . S
O283 C282 1.227 . S
N284 Co270 2.140 1_554 S
N284 C287 1.346 1_554 S
N284 C288 1.345 . S
C285 C286 1.387 . S
C285 C289 1.391 . S
C286 C285 1.387 . S
C286 C287 1.369 1_554 S
C286 H295 0.929 1_554 S
C287 N284 1.346 1_556 S
C287 C286 1.369 1_556 S
C287 H290 0.928 . S
C288 N284 1.345 . S
C288 C289 1.371 . S
C288 H291 0.931 . S
C289 C285 1.391 . S
C289 C288 1.371 . S
C289 H296 0.930 . S
H290 C287 0.928 . S
H291 C288 0.931 . S
H292 C268 0.930 . S
H293 C265 0.930 . S
H294 C274 0.930 . S
H295 C286 0.929 1_556 S
H296 C289 0.930 . S
C297 C298 1.351 . S
C297 N300 1.368 . S
C297 H302 0.931 . S
C298 C297 1.351 . S
C298 N299 1.373 . S
C298 H326 0.930 . S
N299 C298 1.373 . S
N299 C301 1.340 . S
N300 C297 1.368 . S
N300 C301 1.321 . S
N300 Co303 2.135 . S
C301 N299 1.340 . S
C301 N300 1.321 . S
C301 H325 0.930 . S
H302 C297 0.931 . S
Co303 N300 2.135 . S
Co303 N306 2.121 . S
Co303 O311 2.055 . S
Co303 O314 2.039 . S
Co303 N317 2.140 . S
C304 O305 1.227 . S
C304 O314 1.265 . S
O305 C304 1.227 . S
N306 Co303 2.121 . S
N306 C308 1.375 . S
N306 C309 1.313 . S
C307 C308 1.338 . S
C307 N310 1.377 . S
C307 H327 0.930 . S
C308 N306 1.375 . S
C308 C307 1.338 . S
C308 H312 0.931 . S
C309 N306 1.313 . S
C309 N310 1.344 . S
C309 H313 0.930 . S
N310 C307 1.377 . S
N310 C309 1.344 . S
O311 Co303 2.055 . S
O311 C315 1.253 . S
H312 C308 0.931 . S
H313 C309 0.930 . S
O314 Co303 2.039 . S
O314 C304 1.265 . S
C315 O311 1.253 . S
C315 O316 1.227 . S
O316 C315 1.227 . S
N317 Co303 2.140 . S
N317 C320 1.346 . S
N317 C321 1.345 . S
C318 C319 1.387 . S
C318 C322 1.391 . S
C319 C318 1.387 . S
C319 C320 1.369 . S
C319 H328 0.929 . S
C320 N317 1.346 . S
C320 C319 1.369 . S
C320 H323 0.928 . S
C321 N317 1.345 . S
C321 C322 1.371 . S
C321 H324 0.931 . S
C322 C318 1.391 . S
C322 C321 1.371 . S
C322 H329 0.930 . S
H323 C320 0.928 . S
H324 C321 0.931 . S
H325 C301 0.930 . S
H326 C298 0.930 . S
H327 C307 0.930 . S
H328 C319 0.929 . S
H329 C322 0.930 . S
C330 C331 1.351 . S
C330 N333 1.368 . S
C330 H335 0.931 . S
C331 C330 1.351 . S
C331 N332 1.373 . S
C331 H359 0.930 . S
N332 C331 1.373 . S
N332 C334 1.340 . S
N333 C330 1.368 . S
N333 C334 1.321 . S
N333 Co336 2.135 . S
C334 N332 1.340 . S
C334 N333 1.321 . S
C334 H358 0.930 . S
H335 C330 0.931 . S
Co336 N333 2.135 . S
Co336 N339 2.121 . S
Co336 O344 2.055 . S
Co336 O347 2.039 . S
Co336 N350 2.140 . S
C337 O338 1.227 . S
C337 O347 1.265 . S
O338 C337 1.227 . S
N339 Co336 2.121 . S
N339 C341 1.375 . S
N339 C342 1.313 . S
C340 C341 1.338 . S
C340 N343 1.377 . S
C340 H360 0.930 . S
C341 N339 1.375 . S
C341 C340 1.338 . S
C341 H345 0.931 . S
C342 N339 1.313 . S
C342 N343 1.344 . S
C342 H346 0.930 . S
N343 C340 1.377 . S
N343 C342 1.344 . S
O344 Co336 2.055 . S
O344 C348 1.253 . S
H345 C341 0.931 . S
H346 C342 0.930 . S
O347 Co336 2.039 . S
O347 C337 1.265 . S
C348 O344 1.253 . S
C348 O349 1.227 . S
O349 C348 1.227 . S
N350 Co336 2.140 . S
N350 C353 1.346 . S
N350 C354 1.345 . S
C351 C352 1.387 . S
C351 C355 1.391 . S
C352 C351 1.387 . S
C352 C353 1.369 . S
C352 H361 0.929 . S
C353 N350 1.346 . S
C353 C352 1.369 . S
C353 H356 0.928 . S
C354 N350 1.345 . S
C354 C355 1.371 . S
C354 H357 0.931 . S
C355 C351 1.391 . S
C355 C354 1.371 . S
C355 H362 0.930 . S
H356 C353 0.928 . S
H357 C354 0.931 . S
H358 C334 0.930 . S
H359 C331 0.930 . S
H360 C340 0.930 . S
H361 C352 0.929 . S
H362 C355 0.930 . S
C363 C364 1.351 . S
C363 N366 1.368 . S
C363 H368 0.931 . S
C364 C363 1.351 . S
C364 N365 1.373 . S
C364 H392 0.930 . S
N365 C364 1.373 . S
N365 C367 1.340 1_554 S
N366 C363 1.368 . S
N366 C367 1.321 1_554 S
N366 Co369 2.135 1_554 S
C367 N365 1.340 1_556 S
C367 N366 1.321 1_556 S
C367 H391 0.930 . S
H368 C363 0.931 . S
Co369 N366 2.135 1_556 S
Co369 N372 2.121 . S
Co369 O377 2.055 1_556 S
Co369 O380 2.039 . S
Co369 N383 2.140 1_556 S
C370 O371 1.227 . S
C370 O380 1.265 . S
O371 C370 1.227 . S
N372 Co369 2.121 . S
N372 C374 1.375 . S
N372 C375 1.315 . S
C373 C374 1.338 . S
C373 N376 1.377 . S
C373 H393 0.930 . S
C374 N372 1.375 . S
C374 C373 1.338 . S
C374 H378 0.931 . S
C375 N372 1.315 . S
C375 N376 1.345 . S
C375 H379 0.928 1_556 S
N376 C373 1.377 . S
N376 C375 1.345 . S
O377 Co369 2.055 1_554 S
O377 C381 1.253 . S
H378 C374 0.931 . S
H379 C375 0.928 1_554 S
O380 Co369 2.039 . S
O380 C370 1.265 . S
C381 O377 1.253 . S
C381 O382 1.227 . S
O382 C381 1.227 . S
N383 Co369 2.140 1_554 S
N383 C386 1.346 1_554 S
N383 C387 1.345 . S
C384 C385 1.387 . S
C384 C388 1.391 . S
C385 C384 1.387 . S
C385 C386 1.369 1_554 S
C385 H394 0.929 1_554 S
C386 N383 1.346 1_556 S
C386 C385 1.369 1_556 S
C386 H389 0.928 . S
C387 N383 1.345 . S
C387 C388 1.371 . S
C387 H390 0.931 . S
C388 C384 1.391 . S
C388 C387 1.371 . S
C388 H395 0.930 . S
H389 C386 0.928 . S
H390 C387 0.931 . S
H391 C367 0.930 . S
H392 C364 0.930 . S
H393 C373 0.930 . S
H394 C385 0.929 1_556 S
H395 C388 0.930 . S
H396 C408 0.930 . S
H397 C410 0.930 . S
H398 C411 0.930 1_455 S
H399 C415 0.959 . S
H400 C415 0.959 . S
H401 C415 0.961 . S
H402 C416 0.960 1_655 S
H403 C416 0.961 . S
H404 C416 0.959 . S
H405 C419 0.929 . S
H406 C420 0.931 . S
H407 C422 0.930 . S
C408 H396 0.930 . S
C408 C409 1.399 . S
C408 C413 1.399 . S
C409 C408 1.399 . S
C409 C410 1.376 . S
C410 H397 0.930 . S
C410 C409 1.376 . S
C410 C411 1.388 . S
C411 H398 0.930 1_655 S
C411 C410 1.388 . S
C411 C412 1.390 . S
C412 C411 1.390 . S
C412 C413 1.394 . S
C412 C418 1.465 1_655 S
C413 C408 1.399 . S
C413 C412 1.394 . S
C413 C414 1.516 . S
C414 C413 1.516 . S
C414 C415 1.502 . S
C414 C416 1.561 1_655 S
C414 C417 1.526 1_655 S
C415 H399 0.959 . S
C415 H400 0.959 . S
C415 H401 0.961 . S
C415 C414 1.502 . S
C416 H402 0.960 1_455 S
C416 H403 0.961 . S
C416 H404 0.959 . S
C416 C414 1.561 1_455 S
C417 C414 1.526 1_455 S
C417 C418 1.396 . S
C417 C422 1.390 . S
C418 C412 1.465 1_455 S
C418 C417 1.396 . S
C418 C419 1.399 . S
C419 H405 0.929 . S
C419 C418 1.399 . S
C419 C420 1.385 . S
C420 H406 0.931 . S
C420 C419 1.385 . S
C420 C421 1.389 . S
C421 C420 1.389 . S
C421 C422 1.387 . S
C422 H407 0.930 . S
C422 C417 1.390 . S
C422 C421 1.387 . S
H423 C435 0.930 . S
H424 C437 0.930 . S
H425 C438 0.930 . S
H426 C442 0.959 . S
H427 C442 0.959 . S
H428 C442 0.961 . S
H429 C443 0.960 . S
H430 C443 0.961 . S
H431 C443 0.959 . S
H432 C446 0.929 . S
H433 C447 0.931 . S
H434 C449 0.930 . S
C435 H423 0.930 . S
C435 C436 1.399 . S
C435 C440 1.399 . S
C436 C435 1.399 . S
C436 C437 1.376 . S
C437 H424 0.930 . S
C437 C436 1.376 . S
C437 C438 1.388 . S
C438 H425 0.930 . S
C438 C437 1.388 . S
C438 C439 1.390 . S
C439 C438 1.390 . S
C439 C440 1.394 . S
C439 C445 1.465 . S
C440 C435 1.399 . S
C440 C439 1.394 . S
C440 C441 1.516 1_565 S
C441 C440 1.516 1_545 S
C441 C442 1.502 . S
C441 C443 1.561 . S
C441 C444 1.526 . S
C442 H426 0.959 . S
C442 H427 0.959 . S
C442 H428 0.961 . S
C442 C441 1.502 . S
C443 H429 0.960 . S
C443 H430 0.961 . S
C443 H431 0.959 . S
C443 C441 1.561 . S
C444 C441 1.526 . S
C444 C445 1.396 1_545 S
C444 C449 1.390 . S
C445 C439 1.465 . S
C445 C444 1.396 1_565 S
C445 C446 1.399 . S
C446 H432 0.929 . S
C446 C445 1.399 . S
C446 C447 1.385 1_565 S
C447 H433 0.931 . S
C447 C446 1.385 1_545 S
C447 C448 1.389 . S
C448 C447 1.389 . S
C448 C449 1.387 . S
C449 H434 0.930 . S
C449 C444 1.390 . S
C449 C448 1.387 . S
H450 C462 0.930 . S
H451 C464 0.930 . S
H452 C465 0.930 . S
H453 C469 0.959 . S
H454 C469 0.959 . S
H455 C469 0.961 . S
H456 C470 0.960 . S
H457 C470 0.961 . S
H458 C470 0.959 . S
H459 C473 0.929 . S
H460 C474 0.931 . S
H461 C476 0.930 . S
C462 H450 0.930 . S
C462 C463 1.399 . S
C462 C467 1.399 . S
C463 C462 1.399 . S
C463 C464 1.376 . S
C464 H451 0.930 . S
C464 C463 1.376 . S
C464 C465 1.388 . S
C465 H452 0.930 . S
C465 C464 1.388 . S
C465 C466 1.390 . S
C466 C465 1.390 . S
C466 C467 1.394 . S
C466 C472 1.465 . S
C467 C462 1.399 . S
C467 C466 1.394 . S
C467 C468 1.516 . S
C468 C467 1.516 . S
C468 C469 1.502 . S
C468 C470 1.561 . S
C468 C471 1.526 . S
C469 H453 0.959 . S
C469 H454 0.959 . S
C469 H455 0.961 . S
C469 C468 1.502 . S
C470 H456 0.960 . S
C470 H457 0.961 . S
C470 H458 0.959 . S
C470 C468 1.561 . S
C471 C468 1.526 . S
C471 C472 1.396 . S
C471 C476 1.390 . S
C472 C466 1.465 . S
C472 C471 1.396 . S
C472 C473 1.399 . S
C473 H459 0.929 . S
C473 C472 1.399 . S
C473 C474 1.385 . S
C474 H460 0.931 . S
C474 C473 1.385 . S
C474 C475 1.389 . S
C475 C474 1.389 . S
C475 C476 1.387 . S
C476 H461 0.930 . S
C476 C471 1.390 . S
C476 C475 1.387 . S
H477 C489 0.930 . S
H478 C491 0.930 . S
H479 C492 0.930 . S
H480 C496 0.959 . S
H481 C496 0.959 . S
H482 C496 0.961 . S
H483 C497 0.960 . S
H484 C497 0.961 . S
H485 C497 0.959 . S
H486 C500 0.929 . S
H487 C501 0.931 . S
H488 C503 0.930 . S
C489 H477 0.930 . S
C489 C490 1.399 . S
C489 C494 1.399 . S
C490 C489 1.399 . S
C490 C491 1.376 . S
C491 H478 0.930 . S
C491 C490 1.376 . S
C491 C492 1.388 . S
C492 H479 0.930 . S
C492 C491 1.388 . S
C492 C493 1.390 . S
C493 C492 1.390 . S
C493 C494 1.394 . S
C493 C499 1.465 . S
C494 C489 1.399 . S
C494 C493 1.394 . S
C494 C495 1.516 1_455 S
C495 C494 1.516 1_655 S
C495 C496 1.502 . S
C495 C497 1.561 . S
C495 C498 1.526 . S
C496 H480 0.959 . S
C496 H481 0.959 . S
C496 H482 0.961 . S
C496 C495 1.502 . S
C497 H483 0.960 . S
C497 H484 0.961 . S
C497 H485 0.959 . S
C497 C495 1.561 . S
C498 C495 1.526 . S
C498 C499 1.396 1_655 S
C498 C503 1.390 . S
C499 C493 1.465 . S
C499 C498 1.396 1_455 S
C499 C500 1.399 . S
C500 H486 0.929 . S
C500 C499 1.399 . S
C500 C501 1.385 1_455 S
C501 H487 0.931 . S
C501 C500 1.385 1_655 S
C501 C502 1.389 . S
C502 C501 1.389 . S
C502 C503 1.387 . S
C503 H488 0.930 . S
C503 C498 1.390 . S
C503 C502 1.387 . S
H504 C516 0.930 . S
H505 C518 0.930 . S
H506 C519 0.930 . S
H507 C523 0.959 . S
H508 C523 0.959 . S
H509 C523 0.961 . S
H510 C524 0.960 . S
H511 C524 0.961 . S
H512 C524 0.959 . S
H513 C527 0.929 . S
H514 C528 0.931 . S
H515 C530 0.930 . S
C516 H504 0.930 . S
C516 C517 1.399 . S
C516 C521 1.399 . S
C517 C516 1.399 . S
C517 C518 1.376 . S
C518 H505 0.930 . S
C518 C517 1.376 . S
C518 C519 1.388 . S
C519 H506 0.930 . S
C519 C518 1.388 . S
C519 C520 1.390 . S
C520 C519 1.390 . S
C520 C521 1.394 . S
C520 C526 1.465 . S
C521 C516 1.399 . S
C521 C520 1.394 . S
C521 C522 1.516 1_545 S
C522 C521 1.516 1_565 S
C522 C523 1.502 . S
C522 C524 1.561 . S
C522 C525 1.526 . S
C523 H507 0.959 . S
C523 H508 0.959 . S
C523 H509 0.961 . S
C523 C522 1.502 . S
C524 H510 0.960 . S
C524 H511 0.961 . S
C524 H512 0.959 . S
C524 C522 1.561 . S
C525 C522 1.526 . S
C525 C526 1.396 1_565 S
C525 C530 1.390 . S
C526 C520 1.465 . S
C526 C525 1.396 1_545 S
C526 C527 1.399 . S
C527 H513 0.929 . S
C527 C526 1.399 . S
C527 C528 1.385 1_545 S
C528 H514 0.931 . S
C528 C527 1.385 1_565 S
C528 C529 1.389 . S
C529 C528 1.389 . S
C529 C530 1.387 . S
C530 H515 0.930 . S
C530 C525 1.390 . S
C530 C529 1.387 . S
H531 C543 0.930 . S
H532 C545 0.930 . S
H533 C546 0.930 . S
H534 C550 0.959 . S
H535 C550 0.959 . S
H536 C550 0.961 . S
H537 C551 0.960 . S
H538 C551 0.961 . S
H539 C551 0.959 . S
H540 C554 0.929 . S
H541 C555 0.931 . S
H542 C557 0.930 . S
C543 H531 0.930 . S
C543 C544 1.399 . S
C543 C548 1.399 . S
C544 C543 1.399 . S
C544 C545 1.376 . S
C545 H532 0.930 . S
C545 C544 1.376 . S
C545 C546 1.388 . S
C546 H533 0.930 . S
C546 C545 1.388 . S
C546 C547 1.390 . S
C547 C546 1.390 . S
C547 C548 1.394 . S
C547 C553 1.465 . S
C548 C543 1.399 . S
C548 C547 1.394 . S
C548 C549 1.516 . S
C549 C548 1.516 . S
C549 C550 1.502 . S
C549 C551 1.561 . S
C549 C552 1.526 . S
C550 H534 0.959 . S
C550 H535 0.959 . S
C550 H536 0.961 . S
C550 C549 1.502 . S
C551 H537 0.960 . S
C551 H538 0.961 . S
C551 H539 0.959 . S
C551 C549 1.561 . S
C552 C549 1.526 . S
C552 C553 1.396 . S
C552 C557 1.390 . S
C553 C547 1.465 . S
C553 C552 1.396 . S
C553 C554 1.399 . S
C554 H540 0.929 . S
C554 C553 1.399 . S
C554 C555 1.385 . S
C555 H541 0.931 . S
C555 C554 1.385 . S
C555 C556 1.389 . S
C556 C555 1.389 . S
C556 C557 1.387 . S
C557 H542 0.930 . S
C557 C552 1.390 . S
C557 C556 1.387 . S
H558 C570 0.930 . S
H559 C572 0.930 . S
H560 C573 0.930 . S
H561 C577 0.959 . S
H562 C577 0.959 . S
H563 C577 0.961 . S
H564 C578 0.960 . S
H565 C578 0.961 . S
H566 C578 0.959 . S
H567 C581 0.929 . S
H568 C582 0.931 . S
H569 C584 0.930 . S
C570 H558 0.930 . S
C570 C571 1.399 . S
C570 C575 1.399 . S
C571 C570 1.399 . S
C571 C572 1.376 . S
C572 H559 0.930 . S
C572 C571 1.376 . S
C572 C573 1.388 . S
C573 H560 0.930 . S
C573 C572 1.388 . S
C573 C574 1.390 . S
C574 C573 1.390 . S
C574 C575 1.394 . S
C574 C580 1.465 . S
C575 C570 1.399 . S
C575 C574 1.394 . S
C575 C576 1.516 . S
C576 C575 1.516 . S
C576 C577 1.502 . S
C576 C578 1.561 . S
C576 C579 1.526 . S
C577 H561 0.959 . S
C577 H562 0.959 . S
C577 H563 0.961 . S
C577 C576 1.502 . S
C578 H564 0.960 . S
C578 H565 0.961 . S
C578 H566 0.959 . S
C578 C576 1.561 . S
C579 C576 1.526 . S
C579 C580 1.396 . S
C579 C584 1.390 . S
C580 C574 1.465 . S
C580 C579 1.396 . S
C580 C581 1.399 . S
C581 H567 0.929 . S
C581 C580 1.399 . S
C581 C582 1.385 . S
C582 H568 0.931 . S
C582 C581 1.385 . S
C582 C583 1.389 . S
C583 C582 1.389 . S
C583 C584 1.387 . S
C584 H569 0.930 . S
C584 C579 1.390 . S
C584 C583 1.387 . S
H585 C597 0.930 . S
H586 C599 0.930 . S
H587 C600 0.930 . S
H588 C604 0.959 . S
H589 C604 0.959 . S
H590 C604 0.961 . S
H591 C605 0.960 . S
H592 C605 0.961 . S
H593 C605 0.959 . S
H594 C608 0.929 . S
H595 C609 0.931 . S
H596 C611 0.930 . S
C597 H585 0.930 . S
C597 C598 1.399 . S
C597 C602 1.399 . S
C598 C597 1.399 . S
C598 C599 1.376 . S
C599 H586 0.930 . S
C599 C598 1.376 . S
C599 C600 1.388 . S
C600 H587 0.930 . S
C600 C599 1.388 . S
C600 C601 1.390 . S
C601 C600 1.390 . S
C601 C602 1.394 . S
C601 C607 1.465 . S
C602 C597 1.399 . S
C602 C601 1.394 . S
C602 C603 1.516 . S
C603 C602 1.516 . S
C603 C604 1.502 . S
C603 C605 1.561 . S
C603 C606 1.526 . S
C604 H588 0.959 . S
C604 H589 0.959 . S
C604 H590 0.961 . S
C604 C603 1.502 . S
C605 H591 0.960 . S
C605 H592 0.961 . S
C605 H593 0.959 . S
C605 C603 1.561 . S
C606 C603 1.526 . S
C606 C607 1.396 . S
C606 C611 1.390 . S
C607 C601 1.465 . S
C607 C606 1.396 . S
C607 C608 1.399 . S
C608 H594 0.929 . S
C608 C607 1.399 . S
C608 C609 1.385 . S
C609 H595 0.931 . S
C609 C608 1.385 . S
C609 C610 1.389 . S
C610 C609 1.389 . S
C610 C611 1.387 . S
C611 H596 0.930 . S
C611 C606 1.390 . S
C611 C610 1.387 . S
H612 C624 0.930 . S
H613 C626 0.930 . S
H614 C627 0.930 . S
H615 C631 0.959 . S
H616 C631 0.959 . S
H617 C631 0.961 . S
H618 C632 0.960 . S
H619 C632 0.961 . S
H620 C632 0.959 . S
H621 C635 0.929 . S
H622 C636 0.931 . S
H623 C638 0.930 . S
C624 H612 0.930 . S
C624 C625 1.399 . S
C624 C629 1.399 . S
C625 C624 1.399 . S
C625 C626 1.376 . S
C626 H613 0.930 . S
C626 C625 1.376 . S
C626 C627 1.388 . S
C627 H614 0.930 . S
C627 C626 1.388 . S
C627 C628 1.390 . S
C628 C627 1.390 . S
C628 C629 1.394 . S
C628 C634 1.465 . S
C629 C624 1.399 . S
C629 C628 1.394 . S
C629 C630 1.516 . S
C630 C629 1.516 . S
C630 C631 1.502 . S
C630 C632 1.561 . S
C630 C633 1.526 . S
C631 H615 0.959 . S
C631 H616 0.959 . S
C631 H617 0.961 . S
C631 C630 1.502 . S
C632 H618 0.960 . S
C632 H619 0.961 . S
C632 H620 0.959 . S
C632 C630 1.561 . S
C633 C630 1.526 . S
C633 C634 1.396 . S
C633 C638 1.390 . S
C634 C628 1.465 . S
C634 C633 1.396 . S
C634 C635 1.399 . S
C635 H621 0.929 . S
C635 C634 1.399 . S
C635 C636 1.385 . S
C636 H622 0.931 . S
C636 C635 1.385 . S
C636 C637 1.389 . S
C637 C636 1.389 . S
C637 C638 1.387 . S
C638 H623 0.930 . S
C638 C633 1.390 . S
C638 C637 1.387 . S
H639 C651 0.930 . S
H640 C653 0.930 . S
H641 C654 0.930 . S
H642 C658 0.959 . S
H643 C658 0.959 . S
H644 C658 0.961 . S
H645 C659 0.960 . S
H646 C659 0.961 . S
H647 C659 0.959 . S
H648 C662 0.929 . S
H649 C663 0.931 . S
H650 C665 0.930 . S
C651 H639 0.930 . S
C651 C652 1.399 . S
C651 C656 1.399 . S
C652 C651 1.399 . S
C652 C653 1.376 . S
C653 H640 0.930 . S
C653 C652 1.376 . S
C653 C654 1.388 . S
C654 H641 0.930 . S
C654 C653 1.388 . S
C654 C655 1.390 . S
C655 C654 1.390 . S
C655 C656 1.394 . S
C655 C661 1.465 . S
C656 C651 1.399 . S
C656 C655 1.394 . S
C656 C657 1.516 . S
C657 C656 1.516 . S
C657 C658 1.502 . S
C657 C659 1.561 . S
C657 C660 1.526 . S
C658 H642 0.959 . S
C658 H643 0.959 . S
C658 H644 0.961 . S
C658 C657 1.502 . S
C659 H645 0.960 . S
C659 H646 0.961 . S
C659 H647 0.959 . S
C659 C657 1.561 . S
C660 C657 1.526 . S
C660 C661 1.396 . S
C660 C665 1.390 . S
C661 C655 1.465 . S
C661 C660 1.396 . S
C661 C662 1.399 . S
C662 H648 0.929 . S
C662 C661 1.399 . S
C662 C663 1.385 . S
C663 H649 0.931 . S
C663 C662 1.385 . S
C663 C664 1.389 . S
C664 C663 1.389 . S
C664 C665 1.387 . S
C665 H650 0.930 . S
C665 C660 1.390 . S
C665 C664 1.387 . S
H666 C678 0.930 . S
H667 C680 0.930 . S
H668 C681 0.930 . S
H669 C685 0.959 . S
H670 C685 0.959 . S
H671 C685 0.961 . S
H672 C686 0.960 . S
H673 C686 0.961 . S
H674 C686 0.959 . S
H675 C689 0.929 . S
H676 C690 0.931 . S
H677 C692 0.930 . S
C678 H666 0.930 . S
C678 C679 1.399 . S
C678 C683 1.399 . S
C679 C678 1.399 . S
C679 C680 1.376 . S
C680 H667 0.930 . S
C680 C679 1.376 . S
C680 C681 1.388 . S
C681 H668 0.930 . S
C681 C680 1.388 . S
C681 C682 1.390 . S
C682 C681 1.390 . S
C682 C683 1.394 . S
C682 C688 1.465 . S
C683 C678 1.399 . S
C683 C682 1.394 . S
C683 C684 1.516 . S
C684 C683 1.516 . S
C684 C685 1.502 . S
C684 C686 1.561 . S
C684 C687 1.526 . S
C685 H669 0.959 . S
C685 H670 0.959 . S
C685 H671 0.961 . S
C685 C684 1.502 . S
C686 H672 0.960 . S
C686 H673 0.961 . S
C686 H674 0.959 . S
C686 C684 1.561 . S
C687 C684 1.526 . S
C687 C688 1.396 . S
C687 C692 1.390 . S
C688 C682 1.465 . S
C688 C687 1.396 . S
C688 C689 1.399 . S
C689 H675 0.929 . S
C689 C688 1.399 . S
C689 C690 1.385 . S
C690 H676 0.931 . S
C690 C689 1.385 . S
C690 C691 1.389 . S
C691 C690 1.389 . S
C691 C692 1.387 . S
C692 H677 0.930 . S
C692 C687 1.390 . S
C692 C691 1.387 . S
H693 C705 0.930 . S
H694 C707 0.930 . S
H695 C708 0.930 . S
H696 C712 0.959 . S
H697 C712 0.959 . S
H698 C712 0.961 . S
H699 C713 0.960 . S
H700 C713 0.961 . S
H701 C713 0.959 . S
H702 C716 0.929 . S
H703 C717 0.931 . S
H704 C719 0.930 . S
C705 H693 0.930 . S
C705 C706 1.399 . S
C705 C710 1.399 . S
C706 C705 1.399 . S
C706 C707 1.376 . S
C707 H694 0.930 . S
C707 C706 1.376 . S
C707 C708 1.388 . S
C708 H695 0.930 . S
C708 C707 1.388 . S
C708 C709 1.390 . S
C709 C708 1.390 . S
C709 C710 1.394 . S
C709 C715 1.465 . S
C710 C705 1.399 . S
C710 C709 1.394 . S
C710 C711 1.516 . S
C711 C710 1.516 . S
C711 C712 1.502 . S
C711 C713 1.561 . S
C711 C714 1.526 . S
C712 H696 0.959 . S
C712 H697 0.959 . S
C712 H698 0.961 . S
C712 C711 1.502 . S
C713 H699 0.960 . S
C713 H700 0.961 . S
C713 H701 0.959 . S
C713 C711 1.561 . S
C714 C711 1.526 . S
C714 C715 1.396 . S
C714 C719 1.390 . S
C715 C709 1.465 . S
C715 C714 1.396 . S
C715 C716 1.399 . S
C716 H702 0.929 . S
C716 C715 1.399 . S
C716 C717 1.385 . S
C717 H703 0.931 . S
C717 C716 1.385 . S
C717 C718 1.389 . S
C718 C717 1.389 . S
C718 C719 1.387 . S
C719 H704 0.930 . S
C719 C714 1.390 . S
C719 C718 1.387 . S
H720 C732 0.930 . S
H721 C734 0.930 . S
H722 C735 0.930 . S
H723 C739 0.959 . S
H724 C739 0.959 . S
H725 C739 0.961 . S
H726 C740 0.960 . S
H727 C740 0.961 . S
H728 C740 0.959 . S
H729 C743 0.930 . S
H730 C744 0.931 . S
H731 C746 0.930 . S
C732 H720 0.930 . S
C732 C733 1.399 . S
C732 C737 1.399 . S
C733 C732 1.399 . S
C733 C734 1.376 . S
C734 H721 0.930 . S
C734 C733 1.376 . S
C734 C735 1.388 . S
C735 H722 0.930 . S
C735 C734 1.388 . S
C735 C736 1.390 . S
C736 C735 1.390 . S
C736 C737 1.394 . S
C736 C742 1.465 1_655 S
C737 C732 1.399 . S
C737 C736 1.394 . S
C737 C738 1.516 1_655 S
C738 C737 1.516 1_455 S
C738 C739 1.502 . S
C738 C740 1.561 1_455 S
C738 C741 1.526 . S
C739 H723 0.959 . S
C739 H724 0.959 . S
C739 H725 0.961 . S
C739 C738 1.502 . S
C740 H726 0.960 . S
C740 H727 0.961 . S
C740 H728 0.959 . S
C740 C738 1.561 1_655 S
C741 C738 1.526 . S
C741 C742 1.396 . S
C741 C746 1.390 . S
C742 C736 1.465 1_455 S
C742 C741 1.396 . S
C742 C743 1.399 . S
C743 H729 0.930 . S
C743 C742 1.399 . S
C743 C744 1.385 . S
C744 H730 0.931 . S
C744 C743 1.385 . S
C744 C745 1.389 . S
C745 C744 1.389 . S
C745 C746 1.387 . S
C746 H731 0.930 . S
C746 C741 1.390 . S
C746 C745 1.387 . S
H747 C759 0.930 . S
H748 C761 0.930 . S
H749 C762 0.930 . S
H750 C766 0.959 . S
H751 C766 0.959 . S
H752 C766 0.961 . S
H753 C767 0.960 . S
H754 C767 0.961 . S
H755 C767 0.959 . S
H756 C770 0.929 . S
H757 C771 0.931 . S
H758 C773 0.930 . S
C759 H747 0.930 . S
C759 C760 1.399 . S
C759 C764 1.399 . S
C760 C759 1.399 . S
C760 C761 1.376 . S
C761 H748 0.930 . S
C761 C760 1.376 . S
C761 C762 1.388 . S
C762 H749 0.930 . S
C762 C761 1.388 . S
C762 C763 1.390 . S
C763 C762 1.390 . S
C763 C764 1.394 . S
C763 C769 1.465 1_545 S
C764 C759 1.399 . S
C764 C763 1.394 . S
C764 C765 1.516 1_545 S
C765 C764 1.516 1_565 S
C765 C766 1.506 . S
C765 C767 1.556 1_565 S
C765 C768 1.526 . S
C766 H750 0.959 . S
C766 H751 0.959 . S
C766 H752 0.961 . S
C766 C765 1.506 . S
C767 H753 0.960 . S
C767 H754 0.961 . S
C767 H755 0.959 . S
C767 C765 1.556 1_545 S
C768 C765 1.526 . S
C768 C769 1.396 . S
C768 C773 1.390 . S
C769 C763 1.465 1_565 S
C769 C768 1.396 . S
C769 C770 1.399 . S
C770 H756 0.929 . S
C770 C769 1.399 . S
C770 C771 1.385 . S
C771 H757 0.931 . S
C771 C770 1.385 . S
C771 C772 1.389 . S
C772 C771 1.389 . S
C772 C773 1.387 . S
C773 H758 0.930 . S
C773 C768 1.390 . S
C773 C772 1.387 . S
H774 C786 0.930 . S
H775 C788 0.930 . S
H776 C789 0.930 . S
H777 C793 0.959 . S
H778 C793 0.959 . S
H779 C793 0.961 . S
H780 C794 0.960 . S
H781 C794 0.961 . S
H782 C794 0.959 . S
H783 C797 0.929 . S
H784 C798 0.931 . S
H785 C800 0.930 . S
C786 H774 0.930 . S
C786 C787 1.399 1_556 S
C786 C791 1.399 . S
C787 C786 1.399 1_554 S
C787 C788 1.376 . S
C788 H775 0.930 . S
C788 C787 1.376 . S
C788 C789 1.388 . S
C789 H776 0.930 . S
C789 C788 1.388 . S
C789 C790 1.390 . S
C790 C789 1.390 . S
C790 C791 1.394 1_554 S
C790 C796 1.465 . S
C791 C786 1.399 . S
C791 C790 1.394 1_556 S
C791 C792 1.516 . S
C792 C791 1.516 . S
C792 C793 1.502 . S
C792 C794 1.561 . S
C792 C795 1.526 . S
C793 H777 0.959 . S
C793 H778 0.959 . S
C793 H779 0.961 . S
C793 C792 1.502 . S
C794 H780 0.960 . S
C794 H781 0.961 . S
C794 H782 0.959 . S
C794 C792 1.561 . S
C795 C792 1.526 . S
C795 C796 1.396 1_556 S
C795 C800 1.390 . S
C796 C790 1.465 . S
C796 C795 1.396 1_554 S
C796 C797 1.399 . S
C797 H783 0.929 . S
C797 C796 1.399 . S
C797 C798 1.385 . S
C798 H784 0.931 . S
C798 C797 1.385 . S
C798 C799 1.389 . S
C799 C798 1.389 . S
C799 C800 1.387 1_554 S
C800 H785 0.930 . S
C800 C795 1.390 . S
C800 C799 1.387 1_556 S
H801 C813 0.930 . S
H802 C815 0.930 . S
H803 C816 0.930 . S
H804 C820 0.959 . S
H805 C820 0.959 . S
H806 C820 0.961 . S
H807 C821 0.983 . S
H808 C821 0.947 1_545 S
H809 C821 0.944 1_545 S
H810 C824 0.929 . S
H811 C825 0.931 . S
H812 C827 0.930 . S
C813 H801 0.930 . S
C813 C814 1.399 . S
C813 C818 1.399 . S
C814 C813 1.399 . S
C814 C815 1.376 . S
C815 H802 0.930 . S
C815 C814 1.376 . S
C815 C816 1.388 1_565 S
C816 H803 0.930 . S
C816 C815 1.388 1_545 S
C816 C817 1.390 . S
C817 C816 1.390 . S
C817 C818 1.394 1_545 S
C817 C823 1.465 . S
C818 C813 1.399 . S
C818 C817 1.394 1_565 S
C818 C819 1.516 . S
C819 C818 1.516 . S
C819 C820 1.502 . S
C819 C821 1.568 . S
C819 C822 1.526 1_565 S
C820 H804 0.959 . S
C820 H805 0.959 . S
C820 H806 0.961 . S
C820 C819 1.502 . S
C821 H807 0.983 . S
C821 H808 0.947 1_565 S
C821 H809 0.944 1_565 S
C821 C819 1.568 . S
C822 C819 1.526 1_545 S
C822 C823 1.396 . S
C822 C827 1.390 . S
C823 C817 1.465 . S
C823 C822 1.396 . S
C823 C824 1.399 . S
C824 H810 0.929 . S
C824 C823 1.399 . S
C824 C825 1.385 . S
C825 H811 0.931 . S
C825 C824 1.385 . S
C825 C826 1.389 . S
C826 C825 1.389 . S
C826 C827 1.387 . S
C827 H812 0.930 . S
C827 C822 1.390 . S
C827 C826 1.387 . S
H828 C840 0.930 . S
H829 C842 0.930 . S
H830 C843 0.930 . S
H831 C847 0.959 . S
H832 C847 0.959 . S
H833 C847 0.961 . S
H834 C848 0.960 . S
H835 C848 0.961 . S
H836 C848 0.959 . S
H837 C851 0.929 . S
H838 C852 0.931 . S
H839 C854 0.930 . S
C840 H828 0.930 . S
C840 C841 1.399 . S
C840 C845 1.399 . S
C841 C840 1.399 . S
C841 C842 1.376 . S
C842 H829 0.930 . S
C842 C841 1.376 . S
C842 C843 1.388 . S
C843 H830 0.930 . S
C843 C842 1.388 . S
C843 C844 1.390 . S
C844 C843 1.390 . S
C844 C845 1.394 . S
C844 C850 1.465 . S
C845 C840 1.399 . S
C845 C844 1.394 . S
C845 C846 1.516 . S
C846 C845 1.516 . S
C846 C847 1.502 . S
C846 C848 1.561 . S
C846 C849 1.526 . S
C847 H831 0.959 . S
C847 H832 0.959 . S
C847 H833 0.961 . S
C847 C846 1.502 . S
C848 H834 0.960 . S
C848 H835 0.961 . S
C848 H836 0.959 . S
C848 C846 1.561 . S
C849 C846 1.526 . S
C849 C850 1.396 . S
C849 C854 1.390 . S
C850 C844 1.465 . S
C850 C849 1.396 . S
C850 C851 1.399 . S
C851 H837 0.929 . S
C851 C850 1.399 . S
C851 C852 1.385 . S
C852 H838 0.931 . S
C852 C851 1.385 . S
C852 C853 1.389 . S
C853 C852 1.389 . S
C853 C854 1.387 . S
C854 H839 0.930 . S
C854 C849 1.390 . S
C854 C853 1.387 . S
H855 C867 0.930 . S
H856 C869 0.930 . S
H857 C870 0.930 . S
H858 C874 0.959 . S
H859 C874 0.959 . S
H860 C874 0.961 . S
H861 C875 0.960 . S
H862 C875 0.961 . S
H863 C875 0.959 . S
H864 C878 0.929 . S
H865 C879 0.931 . S
H866 C881 0.930 . S
C867 H855 0.930 . S
C867 C868 1.399 . S
C867 C872 1.399 . S
C868 C867 1.399 . S
C868 C869 1.376 1_556 S
C869 H856 0.930 . S
C869 C868 1.376 1_554 S
C869 C870 1.388 . S
C870 H857 0.930 . S
C870 C869 1.388 . S
C870 C871 1.390 . S
C871 C870 1.390 . S
C871 C872 1.394 1_554 S
C871 C877 1.465 1_655 S
C872 C867 1.399 . S
C872 C871 1.394 1_556 S
C872 C873 1.516 1_655 S
C873 C872 1.516 1_455 S
C873 C874 1.502 . S
C873 C875 1.561 1_455 S
C873 C876 1.526 . S
C874 H858 0.959 . S
C874 H859 0.959 . S
C874 H860 0.961 . S
C874 C873 1.502 . S
C875 H861 0.960 . S
C875 H862 0.961 . S
C875 H863 0.959 . S
C875 C873 1.561 1_655 S
C876 C873 1.526 . S
C876 C877 1.396 1_556 S
C876 C881 1.390 . S
C877 C871 1.465 1_455 S
C877 C876 1.396 1_554 S
C877 C878 1.399 . S
C878 H864 0.929 . S
C878 C877 1.399 . S
C878 C879 1.385 . S
C879 H865 0.931 . S
C879 C878 1.385 . S
C879 C880 1.389 1_554 S
C880 C879 1.389 1_556 S
C880 C881 1.387 . S
C881 H866 0.930 . S
C881 C876 1.390 . S
C881 C880 1.387 . S
H882 C894 0.930 . S
H883 C896 0.930 . S
H884 C897 0.930 . S
H885 C901 0.959 . S
H886 C901 0.959 . S
H887 C901 0.961 . S
H888 C902 0.960 . S
H889 C902 0.961 . S
H890 C902 0.959 . S
H891 C905 0.929 . S
H892 C906 0.931 . S
H893 C908 0.930 . S
C894 H882 0.930 . S
C894 C895 1.399 . S
C894 C899 1.399 . S
C895 C894 1.399 . S
C895 C896 1.376 . S
C896 H883 0.930 . S
C896 C895 1.376 . S
C896 C897 1.388 . S
C897 H884 0.930 . S
C897 C896 1.388 . S
C897 C898 1.390 . S
C898 C897 1.390 . S
C898 C899 1.394 . S
C898 C904 1.465 . S
C899 C894 1.399 . S
C899 C898 1.394 . S
C899 C900 1.516 . S
C900 C899 1.516 . S
C900 C901 1.502 . S
C900 C902 1.561 . S
C900 C903 1.526 . S
C901 H885 0.959 . S
C901 H886 0.959 . S
C901 H887 0.961 . S
C901 C900 1.502 . S
C902 H888 0.960 . S
C902 H889 0.961 . S
C902 H890 0.959 . S
C902 C900 1.561 . S
C903 C900 1.526 . S
C903 C904 1.396 . S
C903 C908 1.390 . S
C904 C898 1.465 . S
C904 C903 1.396 . S
C904 C905 1.399 . S
C905 H891 0.929 . S
C905 C904 1.399 . S
C905 C906 1.385 . S
C906 H892 0.931 . S
C906 C905 1.385 . S
C906 C907 1.389 . S
C907 C906 1.389 . S
C907 C908 1.387 . S
C908 H893 0.930 . S
C908 C903 1.390 . S
C908 C907 1.387 . S
H909 C921 0.930 . S
H910 C923 0.930 . S
H911 C924 0.930 . S
H912 C928 0.959 . S
H913 C928 0.959 . S
H914 C928 0.961 1_655 S
H915 C929 0.960 1_655 S
H916 C929 0.961 . S
H917 C929 0.959 . S
H918 C932 0.929 . S
H919 C933 0.931 . S
H920 C935 0.930 . S
C921 H909 0.930 . S
C921 C922 1.399 . S
C921 C926 1.399 . S
C922 C921 1.399 . S
C922 C923 1.376 . S
C923 H910 0.930 . S
C923 C922 1.376 . S
C923 C924 1.388 . S
C924 H911 0.930 . S
C924 C923 1.388 . S
C924 C925 1.390 . S
C925 C924 1.390 . S
C925 C926 1.394 . S
C925 C931 1.465 1_655 S
C926 C921 1.399 . S
C926 C925 1.394 . S
C926 C927 1.497 1_655 S
C927 C926 1.497 1_455 S
C927 C928 1.514 . S
C927 C929 1.552 . S
C927 C930 1.542 . S
C928 H912 0.959 . S
C928 H913 0.959 . S
C928 H914 0.961 1_455 S
C928 C927 1.514 . S
C929 H915 0.960 1_455 S
C929 H916 0.961 . S
C929 H917 0.959 . S
C929 C927 1.552 . S
C930 C927 1.542 . S
C930 C931 1.396 . S
C930 C935 1.390 . S
C931 C925 1.465 1_455 S
C931 C930 1.396 . S
C931 C932 1.399 . S
C932 H918 0.929 . S
C932 C931 1.399 . S
C932 C933 1.385 . S
C933 H919 0.931 . S
C933 C932 1.385 . S
C933 C934 1.389 . S
C934 C933 1.389 . S
C934 C935 1.387 . S
C935 H920 0.930 . S
C935 C930 1.390 . S
C935 C934 1.387 . S
H936 C948 0.930 . S
H937 C950 0.930 . S
H938 C951 0.930 . S
H939 C955 0.959 . S
H940 C955 0.959 . S
H941 C955 0.961 1_545 S
H942 C956 0.960 1_545 S
H943 C956 0.961 . S
H944 C956 0.959 . S
H945 C959 0.929 . S
H946 C960 0.931 . S
H947 C962 0.930 . S
C948 H936 0.930 . S
C948 C949 1.399 . S
C948 C953 1.399 . S
C949 C948 1.399 . S
C949 C950 1.376 1_554 S
C950 H937 0.930 . S
C950 C949 1.376 1_556 S
C950 C951 1.388 . S
C951 H938 0.930 . S
C951 C950 1.388 . S
C951 C952 1.390 . S
C952 C951 1.390 . S
C952 C953 1.394 1_556 S
C952 C958 1.465 1_545 S
C953 C948 1.399 . S
C953 C952 1.394 1_554 S
C953 C954 1.516 1_545 S
C954 C953 1.516 1_565 S
C954 C955 1.502 . S
C954 C956 1.561 . S
C954 C957 1.526 . S
C955 H939 0.959 . S
C955 H940 0.959 . S
C955 H941 0.961 1_565 S
C955 C954 1.502 . S
C956 H942 0.960 1_565 S
C956 H943 0.961 . S
C956 H944 0.959 . S
C956 C954 1.561 . S
C957 C954 1.526 . S
C957 C958 1.396 1_554 S
C957 C962 1.390 . S
C958 C952 1.465 1_565 S
C958 C957 1.396 1_556 S
C958 C959 1.399 . S
C959 H945 0.929 . S
C959 C958 1.399 . S
C959 C960 1.385 . S
C960 H946 0.931 . S
C960 C959 1.385 . S
C960 C961 1.389 . S
C961 C960 1.389 . S
C961 C962 1.387 1_556 S
C962 H947 0.930 . S
C962 C957 1.390 . S
C962 C961 1.387 1_554 S
H963 C975 0.930 . S
H964 C977 0.930 . S
H965 C978 0.930 . S
H966 C982 0.959 . S
H967 C982 0.959 . S
H968 C982 0.961 . S
H969 C983 0.960 . S
H970 C983 0.961 . S
H971 C983 0.959 . S
H972 C986 0.929 . S
H973 C987 0.931 . S
H974 C989 0.930 . S
C975 H963 0.930 . S
C975 C976 1.399 . S
C975 C980 1.399 . S
C976 C975 1.399 . S
C976 C977 1.376 . S
C977 H964 0.930 . S
C977 C976 1.376 . S
C977 C978 1.388 . S
C978 H965 0.930 . S
C978 C977 1.388 . S
C978 C979 1.390 . S
C979 C978 1.390 . S
C979 C980 1.394 . S
C979 C985 1.465 . S
C980 C975 1.399 . S
C980 C979 1.394 . S
C980 C981 1.516 . S
C981 C980 1.516 . S
C981 C982 1.502 . S
C981 C983 1.561 . S
C981 C984 1.526 . S
C982 H966 0.959 . S
C982 H967 0.959 . S
C982 H968 0.961 . S
C982 C981 1.502 . S
C983 H969 0.960 . S
C983 H970 0.961 . S
C983 H971 0.959 . S
C983 C981 1.561 . S
C984 C981 1.526 . S
C984 C985 1.396 . S
C984 C989 1.390 . S
C985 C979 1.465 . S
C985 C984 1.396 . S
C985 C986 1.399 . S
C986 H972 0.929 . S
C986 C985 1.399 . S
C986 C987 1.385 . S
C987 H973 0.931 . S
C987 C986 1.385 . S
C987 C988 1.389 . S
C988 C987 1.389 . S
C988 C989 1.387 . S
C989 H974 0.930 . S
C989 C984 1.390 . S
C989 C988 1.387 . S
H990 C1002 0.930 . S
H991 C1004 0.930 . S
H992 C1005 0.930 . S
H993 C1009 0.959 . S
H994 C1009 0.959 . S
H995 C1009 0.961 1_455 S
H996 C1010 0.960 1_455 S
H997 C1010 0.961 . S
H998 C1010 0.959 . S
H999 C1013 0.929 . S
H1000 C1014 0.931 . S
H1001 C1016 0.930 . S
C1002 H990 0.930 . S
C1002 C1003 1.399 . S
C1002 C1007 1.399 . S
C1003 C1002 1.399 . S
C1003 C1004 1.376 . S
C1004 H991 0.930 . S
C1004 C1003 1.376 . S
C1004 C1005 1.388 . S
C1005 H992 0.930 . S
C1005 C1004 1.388 . S
C1005 C1006 1.390 . S
C1006 C1005 1.390 . S
C1006 C1007 1.394 . S
C1006 C1012 1.465 1_455 S
C1007 C1002 1.399 . S
C1007 C1006 1.394 . S
C1007 C1008 1.497 1_455 S
C1008 C1007 1.497 1_655 S
C1008 C1009 1.514 . S
C1008 C1010 1.551 . S
C1008 C1011 1.543 . S
C1009 H993 0.959 . S
C1009 H994 0.959 . S
C1009 H995 0.961 1_655 S
C1009 C1008 1.514 . S
C1010 H996 0.960 1_655 S
C1010 H997 0.961 . S
C1010 H998 0.959 . S
C1010 C1008 1.551 . S
C1011 C1008 1.543 . S
C1011 C1012 1.396 . S
C1011 C1016 1.390 . S
C1012 C1006 1.465 1_655 S
C1012 C1011 1.396 . S
C1012 C1013 1.399 . S
C1013 H999 0.929 . S
C1013 C1012 1.399 . S
C1013 C1014 1.385 . S
C1014 H1000 0.931 . S
C1014 C1013 1.385 . S
C1014 C1015 1.389 . S
C1015 C1014 1.389 . S
C1015 C1016 1.387 . S
C1016 H1001 0.930 . S
C1016 C1011 1.390 . S
C1016 C1015 1.387 . S
H1017 C1029 0.930 . S
H1018 C1031 0.930 . S
H1019 C1032 0.930 . S
H1020 C1036 0.958 1_554 S
H1021 C1036 0.974 . S
H1022 C1036 0.931 1_545 S
H1023 C1037 0.960 1_545 S
H1024 C1037 0.961 . S
H1025 C1037 0.959 . S
H1026 C1040 0.929 . S
H1027 C1041 0.931 . S
H1028 C1043 0.930 . S
C1029 H1017 0.930 . S
C1029 C1030 1.399 . S
C1029 C1034 1.399 . S
C1030 C1029 1.399 . S
C1030 C1031 1.376 1_556 S
C1031 H1018 0.930 . S
C1031 C1030 1.376 1_554 S
C1031 C1032 1.388 . S
C1032 H1019 0.930 . S
C1032 C1031 1.388 . S
C1032 C1033 1.393 . S
C1033 C1032 1.393 . S
C1033 C1034 1.389 1_554 S
C1033 C1039 1.467 1_545 S
C1034 C1029 1.399 . S
C1034 C1033 1.389 1_556 S
C1034 C1035 1.516 1_545 S
C1035 C1034 1.516 1_565 S
C1035 C1036 1.519 . S
C1035 C1037 1.561 . S
C1035 C1038 1.526 . S
C1036 H1020 0.958 1_556 S
C1036 H1021 0.974 . S
C1036 H1022 0.931 1_565 S
C1036 C1035 1.519 . S
C1037 H1023 0.960 1_565 S
C1037 H1024 0.961 . S
C1037 H1025 0.959 . S
C1037 C1035 1.561 . S
C1038 C1035 1.526 . S
C1038 C1039 1.396 1_556 S
C1038 C1043 1.390 . S
C1039 C1033 1.467 1_565 S
C1039 C1038 1.396 1_554 S
C1039 C1040 1.399 . S
C1040 H1026 0.929 . S
C1040 C1039 1.399 . S
C1040 C1041 1.385 . S
C1041 H1027 0.931 . S
C1041 C1040 1.385 . S
C1041 C1042 1.389 . S
C1042 C1041 1.389 . S
C1042 C1043 1.387 1_554 S
C1043 H1028 0.930 . S
C1043 C1038 1.390 . S
C1043 C1042 1.387 1_556 S
H1044 C1056 0.930 . S
H1045 C1058 0.930 . S
H1046 C1059 0.930 . S
H1047 C1063 0.959 . S
H1048 C1063 0.959 . S
H1049 C1063 0.961 . S
H1050 C1064 0.960 . S
H1051 C1064 0.961 . S
H1052 C1064 0.959 . S
H1053 C1067 0.929 . S
H1054 C1068 0.931 . S
H1055 C1070 0.930 . S
C1056 H1044 0.930 . S
C1056 C1057 1.399 . S
C1056 C1061 1.399 . S
C1057 C1056 1.399 . S
C1057 C1058 1.376 . S
C1058 H1045 0.930 . S
C1058 C1057 1.376 . S
C1058 C1059 1.388 . S
C1059 H1046 0.930 . S
C1059 C1058 1.388 . S
C1059 C1060 1.390 . S
C1060 C1059 1.390 . S
C1060 C1061 1.394 . S
C1060 C1066 1.465 . S
C1061 C1056 1.399 . S
C1061 C1060 1.394 . S
C1061 C1062 1.516 . S
C1062 C1061 1.516 . S
C1062 C1063 1.502 . S
C1062 C1064 1.561 . S
C1062 C1065 1.526 . S
C1063 H1047 0.959 . S
C1063 H1048 0.959 . S
C1063 H1049 0.961 . S
C1063 C1062 1.502 . S
C1064 H1050 0.960 . S
C1064 H1051 0.961 . S
C1064 H1052 0.959 . S
C1064 C1062 1.561 . S
C1065 C1062 1.526 . S
C1065 C1066 1.396 . S
C1065 C1070 1.390 . S
C1066 C1060 1.465 . S
C1066 C1065 1.396 . S
C1066 C1067 1.399 . S
C1067 H1053 0.929 . S
C1067 C1066 1.399 . S
C1067 C1068 1.385 . S
C1068 H1054 0.931 . S
C1068 C1067 1.385 . S
C1068 C1069 1.389 . S
C1069 C1068 1.389 . S
C1069 C1070 1.387 . S
C1070 H1055 0.930 . S
C1070 C1065 1.390 . S
C1070 C1069 1.387 . S
H1071 C1083 0.930 . S
H1072 C1085 0.930 . S
H1073 C1086 0.930 . S
H1074 C1090 0.959 . S
H1075 C1090 0.959 . S
H1076 C1090 0.961 . S
H1077 C1091 0.960 . S
H1078 C1091 0.961 . S
H1079 C1091 0.959 . S
H1080 C1094 0.929 . S
H1081 C1095 0.931 . S
H1082 C1097 0.930 . S
C1083 H1071 0.930 . S
C1083 C1084 1.399 . S
C1083 C1088 1.399 . S
C1084 C1083 1.399 . S
C1084 C1085 1.376 . S
C1085 H1072 0.930 . S
C1085 C1084 1.376 . S
C1085 C1086 1.388 . S
C1086 H1073 0.930 . S
C1086 C1085 1.388 . S
C1086 C1087 1.390 . S
C1087 C1086 1.390 . S
C1087 C1088 1.394 . S
C1087 C1093 1.465 . S
C1088 C1083 1.399 . S
C1088 C1087 1.394 . S
C1088 C1089 1.516 . S
C1089 C1088 1.516 . S
C1089 C1090 1.502 . S
C1089 C1091 1.561 . S
C1089 C1092 1.526 . S
C1090 H1074 0.959 . S
C1090 H1075 0.959 . S
C1090 H1076 0.961 . S
C1090 C1089 1.502 . S
C1091 H1077 0.960 . S
C1091 H1078 0.961 . S
C1091 H1079 0.959 . S
C1091 C1089 1.561 . S
C1092 C1089 1.526 . S
C1092 C1093 1.396 . S
C1092 C1097 1.390 . S
C1093 C1087 1.465 . S
C1093 C1092 1.396 . S
C1093 C1094 1.399 . S
C1094 H1080 0.929 . S
C1094 C1093 1.399 . S
C1094 C1095 1.385 . S
C1095 H1081 0.931 . S
C1095 C1094 1.385 . S
C1095 C1096 1.389 . S
C1096 C1095 1.389 . S
C1096 C1097 1.387 . S
C1097 H1082 0.930 . S
C1097 C1092 1.390 . S
C1097 C1096 1.387 . S
H1098 C1110 0.930 1_554 S
H1099 C1112 0.930 . S
H1100 C1113 0.930 . S
H1101 C1117 0.959 . S
H1102 C1117 0.959 . S
H1103 C1117 0.961 . S
H1104 C1118 0.960 . S
H1105 C1118 0.961 . S
H1106 C1118 0.959 . S
H1107 C1121 0.929 . S
H1108 C1122 0.928 1_556 S
H1109 C1124 0.930 . S
C1110 H1098 0.930 1_556 S
C1110 C1111 1.399 . S
C1110 C1115 1.399 . S
C1111 C1110 1.399 . S
C1111 C1112 1.376 . S
C1112 H1099 0.930 . S
C1112 C1111 1.376 . S
C1112 C1113 1.388 . S
C1113 H1100 0.930 . S
C1113 C1112 1.388 . S
C1113 C1114 1.390 . S
C1114 C1113 1.390 . S
C1114 C1115 1.394 . S
C1114 C1120 1.465 . S
C1115 C1110 1.399 . S
C1115 C1114 1.394 . S
C1115 C1116 1.516 1_556 S
C1116 C1115 1.516 1_554 S
C1116 C1117 1.502 . S
C1116 C1118 1.561 1_554 S
C1116 C1119 1.526 . S
C1117 H1101 0.959 . S
C1117 H1102 0.959 . S
C1117 H1103 0.961 . S
C1117 C1116 1.502 . S
C1118 H1104 0.960 . S
C1118 H1105 0.961 . S
C1118 H1106 0.959 . S
C1118 C1116 1.561 1_556 S
C1119 C1116 1.526 . S
C1119 C1120 1.396 1_554 S
C1119 C1124 1.390 . S
C1120 C1114 1.465 . S
C1120 C1119 1.396 1_556 S
C1120 C1121 1.399 . S
C1121 H1107 0.929 . S
C1121 C1120 1.399 . S
C1121 C1122 1.378 1_556 S
C1122 H1108 0.928 1_554 S
C1122 C1121 1.378 1_554 S
C1122 C1123 1.399 . S
C1123 C1122 1.399 . S
C1123 C1124 1.387 . S
C1124 H1109 0.930 . S
C1124 C1119 1.390 . S
C1124 C1123 1.387 . S
H1125 C1137 0.930 . S
H1126 C1139 0.930 . S
H1127 C1140 0.930 . S
H1128 C1144 0.959 . S
H1129 C1144 0.959 . S
H1130 C1144 0.961 . S
H1131 C1145 0.960 . S
H1132 C1145 0.961 . S
H1133 C1145 0.959 . S
H1134 C1148 0.929 . S
H1135 C1149 0.931 . S
H1136 C1151 0.930 . S
C1137 H1125 0.930 . S
C1137 C1138 1.399 . S
C1137 C1142 1.399 . S
C1138 C1137 1.399 . S
C1138 C1139 1.376 . S
C1139 H1126 0.930 . S
C1139 C1138 1.376 . S
C1139 C1140 1.388 . S
C1140 H1127 0.930 . S
C1140 C1139 1.388 . S
C1140 C1141 1.390 . S
C1141 C1140 1.390 . S
C1141 C1142 1.394 . S
C1141 C1147 1.465 . S
C1142 C1137 1.399 . S
C1142 C1141 1.394 . S
C1142 C1143 1.516 . S
C1143 C1142 1.516 . S
C1143 C1144 1.502 . S
C1143 C1145 1.561 . S
C1143 C1146 1.526 . S
C1144 H1128 0.959 . S
C1144 H1129 0.959 . S
C1144 H1130 0.961 . S
C1144 C1143 1.502 . S
C1145 H1131 0.960 . S
C1145 H1132 0.961 . S
C1145 H1133 0.959 . S
C1145 C1143 1.561 . S
C1146 C1143 1.526 . S
C1146 C1147 1.396 . S
C1146 C1151 1.390 . S
C1147 C1141 1.465 . S
C1147 C1146 1.396 . S
C1147 C1148 1.399 . S
C1148 H1134 0.929 . S
C1148 C1147 1.399 . S
C1148 C1149 1.385 . S
C1149 H1135 0.931 . S
C1149 C1148 1.385 . S
C1149 C1150 1.389 . S
C1150 C1149 1.389 . S
C1150 C1151 1.387 . S
C1151 H1136 0.930 . S
C1151 C1146 1.390 . S
C1151 C1150 1.387 . S
H1152 C1164 0.930 . S
H1153 C1166 0.930 . S
H1154 C1167 0.930 . S
H1155 C1171 0.959 . S
H1156 C1171 0.959 . S
H1157 C1171 0.961 . S
H1158 C1172 0.960 . S
H1159 C1172 0.961 . S
H1160 C1172 0.959 . S
H1161 C1175 0.929 . S
H1162 C1176 0.931 . S
H1163 C1178 0.930 . S
C1164 H1152 0.930 . S
C1164 C1165 1.399 . S
C1164 C1169 1.399 . S
C1165 C1164 1.399 . S
C1165 C1166 1.376 . S
C1166 H1153 0.930 . S
C1166 C1165 1.376 . S
C1166 C1167 1.388 . S
C1167 H1154 0.930 . S
C1167 C1166 1.388 . S
C1167 C1168 1.390 . S
C1168 C1167 1.390 . S
C1168 C1169 1.394 . S
C1168 C1174 1.465 . S
C1169 C1164 1.399 . S
C1169 C1168 1.394 . S
C1169 C1170 1.516 . S
C1170 C1169 1.516 . S
C1170 C1171 1.502 . S
C1170 C1172 1.561 . S
C1170 C1173 1.526 . S
C1171 H1155 0.959 . S
C1171 H1156 0.959 . S
C1171 H1157 0.961 . S
C1171 C1170 1.502 . S
C1172 H1158 0.960 . S
C1172 H1159 0.961 . S
C1172 H1160 0.959 . S
C1172 C1170 1.561 . S
C1173 C1170 1.526 . S
C1173 C1174 1.396 . S
C1173 C1178 1.390 . S
C1174 C1168 1.465 . S
C1174 C1173 1.396 . S
C1174 C1175 1.399 . S
C1175 H1161 0.929 . S
C1175 C1174 1.399 . S
C1175 C1176 1.385 . S
C1176 H1162 0.931 . S
C1176 C1175 1.385 . S
C1176 C1177 1.389 . S
C1177 C1176 1.389 . S
C1177 C1178 1.387 . S
C1178 H1163 0.930 . S
C1178 C1173 1.390 . S
C1178 C1177 1.387 . S
H1179 C1191 0.930 . S
H1180 C1193 0.930 1_554 S
H1181 C1194 0.930 . S
H1182 C1198 0.959 . S
H1183 C1198 0.959 . S
H1184 C1198 0.961 . S
H1185 C1199 0.960 . S
H1186 C1199 0.961 . S
H1187 C1199 0.959 . S
H1188 C1202 0.929 . S
H1189 C1203 0.931 . S
H1190 C1205 0.930 . S
C1191 H1179 0.930 . S
C1191 C1192 1.399 . S
C1191 C1196 1.399 . S
C1192 C1191 1.399 . S
C1192 C1193 1.376 . S
C1193 H1180 0.930 1_556 S
C1193 C1192 1.376 . S
C1193 C1194 1.388 1_556 S
C1194 H1181 0.930 . S
C1194 C1193 1.388 1_554 S
C1194 C1195 1.390 . S
C1195 C1194 1.390 . S
C1195 C1196 1.394 1_554 S
C1195 C1201 1.465 . S
C1196 C1191 1.399 . S
C1196 C1195 1.394 1_556 S
C1196 C1197 1.516 . S
C1197 C1196 1.516 . S
C1197 C1198 1.502 . S
C1197 C1199 1.561 1_556 S
C1197 C1200 1.526 1_556 S
C1198 H1182 0.959 . S
C1198 H1183 0.959 . S
C1198 H1184 0.961 . S
C1198 C1197 1.502 . S
C1199 H1185 0.960 . S
C1199 H1186 0.961 . S
C1199 H1187 0.959 . S
C1199 C1197 1.561 1_554 S
C1200 C1197 1.526 1_554 S
C1200 C1201 1.396 . S
C1200 C1205 1.390 . S
C1201 C1195 1.465 . S
C1201 C1200 1.396 . S
C1201 C1202 1.399 . S
C1202 H1188 0.929 . S
C1202 C1201 1.399 . S
C1202 C1203 1.385 . S
C1203 H1189 0.931 . S
C1203 C1202 1.385 . S
C1203 C1204 1.389 . S
C1204 C1203 1.389 . S
C1204 C1205 1.387 . S
C1205 H1190 0.930 . S
C1205 C1200 1.390 . S
C1205 C1204 1.387 . S
C409 C381 1.894 . S
C421 C18 1.878 . S
C436 C216 1.975 . S
C448 C51 1.994 . S
C463 C84 1.883 . S
C475 C249 1.883 . S
C490 C282 1.886 . S
C502 C117 1.902 . S
C517 C315 1.972 . S
C529 C150 1.992 . S
C544 C348 1.881 . S
C556 C183 1.887 . S
C571 C7 0.576 . S
C583 C337 0.677 . S
C598 C40 0.529 . S
C610 C370 0.534 . S
C625 C205 0.545 . S
C637 C73 0.720 . S
C652 C238 0.683 . S
C664 C106 0.563 . S
C679 C271 0.512 . S
C691 C139 0.551 . S
C706 C172 0.546 . S
C718 C304 0.518 . S
C733 N112 1.287 . S
C745 N13 1.305 . S
C760 N46 1.298 . S
C772 N145 1.311 . S
C787 N178 1.275 . S
C799 N79 1.252 . S
C814 N211 1.281 . S
C826 N310 1.254 . S
C841 N244 1.280 . S
C853 N343 1.305 . S
C868 N376 1.297 . S
C880 N277 1.312 . S
C895 N2 0.909 . S
C907 N299 0.969 . S
C922 N35 0.991 . S
C934 N332 0.925 . S
C949 N365 0.973 . S
C961 N68 0.921 . S
C976 N101 0.988 . S
C988 N200 0.934 . S
C1003 N134 0.991 . S
C1015 N233 0.924 . S
C1030 N167 0.955 . S
C1042 N266 0.953 . S
C1057 C219 1.701 . S
C1069 C21 1.665 . S
C1084 C252 1.681 . S
C1096 C54 1.699 . S
C1111 C87 1.700 . S
C1123 C285 1.670 . S
C1138 C318 1.698 . S
C1150 C120 1.667 . S
C1165 C153 1.680 . S
C1177 C351 1.682 . S
C1192 C186 1.661 . S
C1204 C384 1.691 . S
