# Generated by pormake.
# Topology qtz-e, (6)-cn, num edge types: 1
# Building blocks:
#     Node 0, Type 0, BuildingBlock: UKALOJ_clean_sbu_0, # of connection points: 6
#     Node 1, Type 0, BuildingBlock: UKALOJ_clean_sbu_0, # of connection points: 6
#     Node 2, Type 0, BuildingBlock: UKALOJ_clean_sbu_0, # of connection points: 6
#     Node 3, Type 0, BuildingBlock: UKALOJ_clean_sbu_0, # of connection points: 6
#     Node 4, Type 0, BuildingBlock: UKALOJ_clean_sbu_0, # of connection points: 6
#     Node 5, Type 0, BuildingBlock: UKALOJ_clean_sbu_0, # of connection points: 6
#     Edge 6, Type (0, 0), BuildingBlock: UVAHIK_clean_linker_0, # of connection points: 2
#     Edge 7, Type (0, 0), BuildingBlock: UVAHIK_clean_linker_0, # of connection points: 2
#     Edge 8, Type (0, 0), BuildingBlock: UVAHIK_clean_linker_0, # of connection points: 2
#     Edge 9, Type (0, 0), BuildingBlock: UVAHIK_clean_linker_0, # of connection points: 2
#     Edge 10, Type (0, 0), BuildingBlock: UVAHIK_clean_linker_0, # of connection points: 2
#     Edge 11, Type (0, 0), BuildingBlock: UVAHIK_clean_linker_0, # of connection points: 2
#     Edge 12, Type (0, 0), BuildingBlock: UVAHIK_clean_linker_0, # of connection points: 2
#     Edge 13, Type (0, 0), BuildingBlock: UVAHIK_clean_linker_0, # of connection points: 2
#     Edge 14, Type (0, 0), BuildingBlock: UVAHIK_clean_linker_0, # of connection points: 2
#     Edge 15, Type (0, 0), BuildingBlock: UVAHIK_clean_linker_0, # of connection points: 2
#     Edge 16, Type (0, 0), BuildingBlock: UVAHIK_clean_linker_0, # of connection points: 2
#     Edge 17, Type (0, 0), BuildingBlock: UVAHIK_clean_linker_0, # of connection points: 2
#     Edge 18, Type (0, 0), BuildingBlock: UVAHIK_clean_linker_0, # of connection points: 2
#     Edge 19, Type (0, 0), BuildingBlock: UVAHIK_clean_linker_0, # of connection points: 2
#     Edge 20, Type (0, 0), BuildingBlock: UVAHIK_clean_linker_0, # of connection points: 2
#     Edge 21, Type (0, 0), BuildingBlock: UVAHIK_clean_linker_0, # of connection points: 2
#     Edge 22, Type (0, 0), BuildingBlock: UVAHIK_clean_linker_0, # of connection points: 2
#     Edge 23, Type (0, 0), BuildingBlock: UVAHIK_clean_linker_0, # of connection points: 2
# Relax obj value: 0.452
# Max RMSD: 0.260
# Mean RMSD: 0.260
data_MOF--net-qtz-e--node1-UKALOJ_clean_sbu_0--edge1-UVAHIK_clean_linker_0
_symmetry_space_group_name_H-M    P1
_symmetry_Int_Tables_number       1
_symmetry_cell_setting            triclinic
loop_
_symmetry_equiv_pos_as_xyz
'x, y, z'
_cell_length_a     35.171816
_cell_length_b     35.241045
_cell_length_c     46.006737
_cell_angle_alpha  90.019114
_cell_angle_beta   90.059597
_cell_angle_gamma 120.16844
loop_
_atom_site_label
_atom_site_type_symbol
_atom_site_fract_x
_atom_site_fract_y
_atom_site_fract_z
_atom_type_partial_charge
Zn0 Zn 0.21594 0.40776 0.0147 0.0
O1 O 0.1605 0.41383 0.02333 0.0
C2 C 0.1662 0.31711 0.0344 0.0
Zn3 Zn 0.17966 0.36443 0.97747 0.0
C4 C 0.1266 0.39617 0.00727 0.0
O5 O 0.12507 0.37259 0.98593 0.0
C6 C 0.2707 0.37912 0.98452 0.0
O7 O 0.20326 0.41706 0.94808 0.0
O8 O 0.24017 0.46016 0.98451 0.0
N9 N 0.14399 0.32025 0.94586 0.0
C10 C 0.15548 0.31129 0.91998 0.0
C11 C 0.08901 0.26175 0.92798 0.0
N12 N 0.10252 0.28976 0.95064 0.0
N13 N 0.12151 0.27479 0.9083 0.0
C14 C 0.24809 0.48609 0.05675 0.0
C15 C 0.2939 0.47976 0.08377 0.0
N16 N 0.24986 0.45086 0.04728 0.0
N17 N 0.27853 0.44708 0.06396 0.0
N18 N 0.2751 0.50449 0.07968 0.0
H19 H 0.2165 0.49632 0.0195 0.0
H20 H 0.23757 0.53978 0.04602 0.0
H21 H 0.18858 0.48845 0.0535 0.0
C22 C 0.22135 0.50371 0.04299 0.0
C23 C 0.2013 0.33517 0.9079 0.0
H24 H 0.22051 0.36852 0.91719 0.0
H25 H 0.20087 0.33823 0.88398 0.0
H26 H 0.218 0.31636 0.91307 0.0
O27 O 0.23654 0.35863 0.96873 0.0
O28 O 0.27024 0.40132 0.00607 0.0
C29 C 0.22975 0.4552 0.95775 0.0
O30 O 0.19252 0.35535 0.04395 0.0
O31 O 0.15554 0.31181 0.00768 0.0
Zn32 Zn 0.82552 0.18577 0.31045 0.0
O33 O 0.79996 0.20836 0.27772 0.0
C34 C 0.90027 0.27644 0.32033 0.0
Zn35 Zn 0.8128 0.22005 0.34635 0.0
C36 C 0.78656 0.23393 0.28626 0.0
O37 O 0.78874 0.24346 0.31308 0.0
C38 C 0.85123 0.1719 0.37103 0.0
O39 O 0.74968 0.16549 0.35132 0.0
O40 O 0.76149 0.13065 0.31618 0.0
N41 N 0.79987 0.25575 0.37546 0.0
C42 C 0.77069 0.24358 0.39732 0.0
C43 C 0.7997 0.31281 0.39247 0.0
N44 N 0.81819 0.29888 0.37265 0.0
N45 N 0.76986 0.27863 0.40819 0.0
C46 C 0.86351 0.1609 0.25752 0.0
C47 C 0.84385 0.0944 0.26734 0.0
N48 N 0.83874 0.15 0.2817 0.0
N49 N 0.82622 0.10853 0.28761 0.0
N50 N 0.86693 0.12655 0.24806 0.0
H51 H 0.86971 0.22396 0.24901 0.0
H52 H 0.89144 0.20431 0.22085 0.0
H53 H 0.92074 0.22447 0.2545 0.0
C54 C 0.88747 0.20602 0.24465 0.0
C55 C 0.74315 0.19762 0.40834 0.0
H56 H 0.71196 0.18099 0.39584 0.0
H57 H 0.73487 0.19776 0.4316 0.0
H58 H 0.76072 0.17906 0.40579 0.0
O59 O 0.837 0.19698 0.37899 0.0
O60 O 0.85043 0.16261 0.34423 0.0
C61 C 0.73609 0.13186 0.33529 0.0
O62 O 0.88905 0.24334 0.30396 0.0
O63 O 0.87488 0.27394 0.34067 0.0
Zn64 Zn 0.58144 0.80356 0.67754 0.0
O65 O 0.57392 0.74167 0.68248 0.0
C66 C 0.66629 0.84227 0.7061 0.0
Zn67 Zn 0.63321 0.82132 0.6441 0.0
C68 C 0.59585 0.72988 0.66689 0.0
O69 O 0.62358 0.75664 0.64871 0.0
C70 C 0.61495 0.89326 0.65433 0.0
O71 O 0.58865 0.79877 0.60926 0.0
O72 O 0.53693 0.77957 0.64214 0.0
N73 N 0.68504 0.83712 0.61715 0.0
C74 C 0.7007 0.86408 0.59406 0.0
C75 C 0.7468 0.8434 0.60375 0.0
N76 N 0.71356 0.824 0.623 0.0
N77 N 0.73909 0.86826 0.58521 0.0
C78 C 0.51831 0.76899 0.73084 0.0
C79 C 0.46564 0.77744 0.71581 0.0
N80 N 0.5296 0.78771 0.70436 0.0
N81 N 0.49696 0.79318 0.69518 0.0
N82 N 0.47839 0.76239 0.73851 0.0
H83 H 0.5232 0.7221 0.75823 0.0
H84 H 0.56155 0.77862 0.76628 0.0
H85 H 0.57041 0.75343 0.73513 0.0
C86 C 0.54494 0.75477 0.74838 0.0
C87 C 0.68019 0.8887 0.5813 0.0
H88 H 0.64402 0.87019 0.58406 0.0
H89 H 0.68821 0.89509 0.55785 0.0
H90 H 0.69369 0.92083 0.59249 0.0
O91 O 0.63995 0.88481 0.63914 0.0
O92 O 0.58861 0.86507 0.67229 0.0
C93 C 0.54824 0.78167 0.61571 0.0
O94 O 0.62599 0.82717 0.71209 0.0
O95 O 0.67777 0.84369 0.67974 0.0
Zn96 Zn 0.77175 0.58488 0.01813 0.0
O97 O 0.82621 0.57745 0.02724 0.0
C98 C 0.8234 0.67634 0.03711 0.0
Zn99 Zn 0.80759 0.62764 0.98065 0.0
C100 C 0.85967 0.59428 0.01081 0.0
O101 O 0.86114 0.61778 0.98943 0.0
C102 C 0.7176 0.61457 0.98736 0.0
O103 O 0.78251 0.57419 0.95191 0.0
O104 O 0.74634 0.53127 0.98854 0.0
N105 N 0.84365 0.67056 0.94855 0.0
C106 C 0.83221 0.67913 0.9225 0.0
C107 C 0.89901 0.72813 0.93019 0.0
N108 N 0.88532 0.7007 0.95313 0.0
N109 N 0.86641 0.71505 0.91052 0.0
C110 C 0.73498 0.50705 0.06144 0.0
C111 C 0.69254 0.5195 0.08775 0.0
N112 N 0.73627 0.54337 0.05096 0.0
N113 N 0.70953 0.55078 0.06712 0.0
N114 N 0.7076 0.49135 0.08449 0.0
H115 H 0.77156 0.49709 0.02758 0.0
H116 H 0.7493 0.45447 0.05429 0.0
H117 H 0.79552 0.50674 0.06339 0.0
C118 C 0.76421 0.49019 0.051 0.0
C119 C 0.7863 0.65553 0.91047 0.0
H120 H 0.76656 0.62267 0.92032 0.0
H121 H 0.78655 0.65134 0.88665 0.0
H122 H 0.77031 0.67521 0.91496 0.0
O123 O 0.75161 0.63495 0.9715 0.0
O124 O 0.71841 0.59259 0.00889 0.0
C125 C 0.75617 0.53611 0.96168 0.0
O126 O 0.79666 0.6384 0.04689 0.0
O127 O 0.83332 0.68104 0.01029 0.0
Zn128 Zn 0.19362 0.78004 0.33888 0.0
O129 O 0.25581 0.83468 0.34561 0.0
C130 C 0.15221 0.82365 0.367 0.0
Zn131 Zn 0.17978 0.81728 0.30566 0.0
C132 C 0.26866 0.87022 0.33184 0.0
O133 O 0.24305 0.87315 0.31361 0.0
C134 C 0.1065 0.72494 0.31218 0.0
O135 O 0.20751 0.79985 0.27156 0.0
O136 O 0.21966 0.76135 0.30389 0.0
N137 N 0.16502 0.85409 0.27874 0.0
C138 C 0.14113 0.84407 0.25412 0.0
C139 C 0.15537 0.90799 0.26705 0.0
N140 N 0.17422 0.89402 0.28657 0.0
N141 N 0.13488 0.8774 0.24631 0.0
C142 C 0.22722 0.74985 0.3919 0.0
C143 C 0.21345 0.68672 0.3774 0.0
N144 N 0.20726 0.7426 0.3658 0.0
N145 N 0.19839 0.70321 0.357 0.0
N146 N 0.23161 0.71518 0.39965 0.0
H147 H 0.2431 0.81766 0.3963 0.0
H148 H 0.27796 0.80319 0.41667 0.0
H149 H 0.22253 0.78521 0.42819 0.0
C150 C 0.24393 0.79154 0.40899 0.0
C151 C 0.12003 0.80014 0.23943 0.0
H152 H 0.13847 0.78292 0.24382 0.0
H153 H 0.1182 0.80381 0.21562 0.0
H154 H 0.08596 0.77982 0.24768 0.0
O155 O 0.11715 0.75924 0.29728 0.0
O156 O 0.13232 0.72579 0.33169 0.0
C157 C 0.22229 0.77459 0.27787 0.0
O158 O 0.16768 0.79892 0.37313 0.0
O159 O 0.15282 0.83544 0.3408 0.0
Zn160 Zn 0.35705 0.17372 0.64236 0.0
O161 O 0.40121 0.1968 0.60749 0.0
C162 C 0.3771 0.1025 0.65298 0.0
Zn163 Zn 0.40978 0.19197 0.67534 0.0
C164 C 0.44178 0.21349 0.61341 0.0
O165 O 0.45378 0.2154 0.6397 0.0
C166 C 0.32492 0.15269 0.70425 0.0
O167 O 0.4161 0.25367 0.67949 0.0
O168 O 0.36482 0.23751 0.64662 0.0
N169 N 0.46202 0.20968 0.70235 0.0
C170 C 0.47237 0.22826 0.72894 0.0
C171 C 0.52643 0.22176 0.71451 0.0
N172 N 0.49556 0.20549 0.69352 0.0
N173 N 0.51254 0.23595 0.73706 0.0
C174 C 0.28906 0.12703 0.59312 0.0
C175 C 0.24193 0.14681 0.60142 0.0
N176 N 0.30465 0.15579 0.61532 0.0
N177 N 0.2755 0.16838 0.62029 0.0
N178 N 0.25 0.12097 0.58406 0.0
H179 H 0.34711 0.12339 0.5831 0.0
H180 H 0.30216 0.09531 0.55766 0.0
H181 H 0.29909 0.07203 0.59286 0.0
C182 C 0.3109 0.10334 0.58093 0.0
C183 C 0.44448 0.24123 0.74615 0.0
H184 H 0.46538 0.2733 0.75703 0.0
H185 H 0.42678 0.21624 0.76322 0.0
H186 H 0.41985 0.24331 0.73237 0.0
O187 O 0.36543 0.16852 0.71002 0.0
O188 O 0.31291 0.15089 0.67797 0.0
C189 C 0.39312 0.26477 0.66438 0.0
O190 O 0.35198 0.111 0.63795 0.0
O191 O 0.40373 0.13067 0.67088 0.0
C192 C 0.24522 0.77431 0.22639 0.0
C193 C 0.24156 0.75976 0.25523 0.0
C194 C 0.26078 0.75779 0.20475 0.0
C195 C 0.3144 0.69085 0.19247 0.0
H196 H 0.23811 0.64949 0.12494 0.0
C197 C 0.32096 0.57464 0.10515 0.0
C198 C 0.27936 0.53936 0.09791 0.0
C199 C 0.32456 0.60958 0.12177 0.0
C200 C 0.25989 0.66108 0.14359 0.0
H201 H 0.25316 0.71804 0.28425 0.0
H202 H 0.27905 0.68848 0.24652 0.0
H203 H 0.23163 0.69839 0.1592 0.0
H204 H 0.20926 0.51083 0.10389 0.0
H205 H 0.21521 0.57151 0.13269 0.0
H206 H 0.34057 0.65098 0.1776 0.0
C207 C 0.27076 0.71319 0.24059 0.0
C208 C 0.25658 0.68955 0.16305 0.0
C209 C 0.2554 0.72978 0.2622 0.0
C210 C 0.24157 0.53854 0.10836 0.0
C211 C 0.24506 0.57325 0.12479 0.0
C212 C 0.31763 0.6622 0.17297 0.0
C213 C 0.2728 0.72632 0.21153 0.0
C214 C 0.28266 0.70347 0.18826 0.0
C215 C 0.28651 0.60942 0.13134 0.0
C216 C 0.28918 0.64576 0.14898 0.0
H217 H 0.23522 0.79774 0.22041 0.0
H218 H 0.26246 0.76891 0.18259 0.0
H219 H 0.33547 0.70166 0.21147 0.0
H220 H 0.35043 0.57549 0.09739 0.0
H221 H 0.35691 0.63696 0.12672 0.0
C222 C 0.46164 0.21724 0.56095 0.0
C223 C 0.47474 0.22882 0.58999 0.0
C224 C 0.49307 0.22832 0.53917 0.0
C225 C 0.60973 0.29986 0.52085 0.0
H226 H 0.59311 0.20104 0.47417 0.0
C227 C 0.74901 0.30238 0.45263 0.0
C228 C 0.73714 0.27859 0.4266 0.0
C229 C 0.71649 0.3004 0.47108 0.0
C230 C 0.59798 0.22928 0.48655 0.0
H231 H 0.53088 0.26296 0.61883 0.0
H232 H 0.58572 0.28247 0.58068 0.0
H233 H 0.53646 0.19164 0.50835 0.0
H234 H 0.68337 0.23668 0.39809 0.0
H235 H 0.62642 0.23403 0.42968 0.0
H236 H 0.67133 0.33758 0.49901 0.0
C237 C 0.5512 0.26483 0.57482 0.0
C238 C 0.56549 0.2238 0.50618 0.0
C239 C 0.51981 0.25337 0.59665 0.0
C240 C 0.6928 0.2544 0.41851 0.0
C241 C 0.6604 0.25286 0.43663 0.0
C242 C 0.64214 0.30553 0.50093 0.0
C243 C 0.53809 0.25157 0.54602 0.0
C244 C 0.57123 0.25888 0.52369 0.0
C245 C 0.67173 0.2751 0.46343 0.0
C246 C 0.63678 0.27015 0.48374 0.0
H247 H 0.42713 0.19838 0.55517 0.0
H248 H 0.4822 0.21803 0.51704 0.0
H249 H 0.61475 0.32747 0.53406 0.0
H250 H 0.78326 0.32135 0.45897 0.0
H251 H 0.72636 0.3176 0.49167 0.0
C252 C 0.23755 0.48859 0.90855 0.0
C253 C 0.25048 0.4931 0.93784 0.0
C254 C 0.25985 0.52345 0.88921 0.0
C255 C 0.36827 0.61767 0.87754 0.0
H256 H 0.31047 0.65023 0.81902 0.0
C257 C 0.46817 0.74846 0.79122 0.0
C258 C 0.45154 0.73855 0.76282 0.0
C259 C 0.44229 0.72368 0.8146 0.0
C260 C 0.32711 0.6413 0.8351 0.0
H261 H 0.29589 0.53818 0.97008 0.0
H262 H 0.33508 0.59881 0.93613 0.0
H263 H 0.26659 0.59665 0.85627 0.0
H264 H 0.39503 0.69636 0.73634 0.0
H265 H 0.35004 0.65209 0.77688 0.0
H266 H 0.42852 0.66053 0.85584 0.0
C267 C 0.30777 0.56827 0.92821 0.0
C268 C 0.30197 0.61078 0.85645 0.0
C269 C 0.28521 0.5336 0.94761 0.0
C270 C 0.40832 0.70447 0.75816 0.0
C271 C 0.38259 0.6794 0.78142 0.0
C272 C 0.39336 0.6478 0.85603 0.0
C273 C 0.29571 0.56328 0.89876 0.0
C274 C 0.3223 0.59831 0.87763 0.0
C275 C 0.3994 0.68839 0.80992 0.0
C276 C 0.37304 0.65951 0.83429 0.0
H277 H 0.21087 0.45782 0.90039 0.0
H278 H 0.25014 0.51865 0.86655 0.0
H279 H 0.38471 0.60817 0.89342 0.0
H280 H 0.5011 0.77538 0.79526 0.0
H281 H 0.45595 0.73208 0.83632 0.0
C282 C 0.76247 0.28766 0.27482 0.0
C283 C 0.77019 0.25418 0.2654 0.0
C284 C 0.74977 0.30918 0.25514 0.0
C285 C 0.69939 0.30283 0.18509 0.0
H286 H 0.77363 0.42954 0.18582 0.0
C287 C 0.69231 0.4169 0.09703 0.0
C288 C 0.70364 0.45954 0.10549 0.0
C289 C 0.69482 0.38834 0.11697 0.0
C290 C 0.75194 0.39429 0.18566 0.0
H291 H 0.76896 0.21581 0.22814 0.0
H292 H 0.74612 0.25356 0.19356 0.0
H293 H 0.78853 0.38556 0.21948 0.0
H294 H 0.72135 0.50434 0.14174 0.0
H295 H 0.72358 0.45397 0.17707 0.0
H296 H 0.66223 0.31163 0.15155 0.0
C297 C 0.75016 0.26296 0.21627 0.0
C298 C 0.76076 0.36914 0.20481 0.0
C299 C 0.76342 0.24161 0.23598 0.0
C300 C 0.71335 0.47182 0.13471 0.0
C301 C 0.71512 0.44314 0.15476 0.0
C302 C 0.69012 0.32813 0.16608 0.0
C303 C 0.74409 0.29745 0.22567 0.0
C304 C 0.73454 0.32328 0.20477 0.0
C305 C 0.70766 0.40173 0.14589 0.0
C306 C 0.71625 0.37422 0.16626 0.0
H307 H 0.76724 0.29806 0.29735 0.0
H308 H 0.7449 0.33547 0.2629 0.0
H309 H 0.67866 0.26744 0.18482 0.0
H310 H 0.68282 0.40621 0.0748 0.0
H311 H 0.68854 0.3566 0.1094 0.0
C312 C 0.52477 0.78394 0.56489 0.0
C313 C 0.51448 0.76561 0.59282 0.0
C314 C 0.49178 0.77133 0.54398 0.0
C315 C 0.37046 0.71933 0.53797 0.0
H316 H 0.39635 0.7243 0.45579 0.0
C317 C 0.25763 0.7276 0.45072 0.0
C318 C 0.25706 0.71137 0.42278 0.0
C319 C 0.28598 0.72765 0.472 0.0
C320 C 0.3881 0.72185 0.47863 0.0
H321 H 0.46245 0.71819 0.6205 0.0
H322 H 0.40524 0.69447 0.58364 0.0
H323 H 0.45192 0.73445 0.49102 0.0
H324 H 0.28241 0.67845 0.39607 0.0
H325 H 0.32997 0.67614 0.43356 0.0
H326 H 0.30603 0.70492 0.52559 0.0
C327 C 0.43828 0.71987 0.57809 0.0
C328 C 0.4204 0.72853 0.49891 0.0
C329 C 0.47109 0.73319 0.59917 0.0
C330 C 0.28275 0.69193 0.41728 0.0
C331 C 0.31043 0.69113 0.43869 0.0
C332 C 0.33786 0.7118 0.51769 0.0
C333 C 0.44798 0.73944 0.55041 0.0
C334 C 0.41235 0.7283 0.52884 0.0
C335 C 0.31343 0.71019 0.46606 0.0
C336 C 0.34654 0.7139 0.48774 0.0
H337 H 0.55798 0.80927 0.55956 0.0
H338 H 0.5005 0.78776 0.52313 0.0
H339 H 0.36304 0.71937 0.56079 0.0
H340 H 0.23656 0.74062 0.45618 0.0
H341 H 0.28722 0.74264 0.49278 0.0
C342 C 0.69915 0.45827 0.95087 0.0
C343 C 0.73508 0.4983 0.94165 0.0
C344 C 0.67649 0.42395 0.93114 0.0
C345 C 0.68412 0.38179 0.85945 0.0
H346 H 0.55802 0.33446 0.85617 0.0
C347 C 0.58172 0.29314 0.75845 0.0
C348 C 0.53821 0.2591 0.76203 0.0
C349 C 0.60646 0.31725 0.78238 0.0
C350 C 0.59303 0.34655 0.8571 0.0
H351 H 0.77661 0.53308 0.90485 0.0
H352 H 0.73726 0.473 0.87051 0.0
H353 H 0.6008 0.38524 0.89489 0.0
H354 H 0.48712 0.22139 0.79332 0.0
H355 H 0.53043 0.26315 0.83549 0.0
H356 H 0.67654 0.34342 0.82157 0.0
C357 C 0.72665 0.4682 0.89298 0.0
C358 C 0.61754 0.37574 0.87928 0.0
C359 C 0.749 0.50267 0.91261 0.0
C360 C 0.52026 0.24834 0.79005 0.0
C361 C 0.5451 0.27221 0.8141 0.0
C362 C 0.65957 0.35228 0.83741 0.0
C363 C 0.68969 0.42883 0.90192 0.0
C364 C 0.66341 0.3943 0.88032 0.0
C365 C 0.58834 0.30736 0.81049 0.0
C366 C 0.61384 0.33503 0.83561 0.0
H367 H 0.68765 0.45387 0.97312 0.0
H368 H 0.64829 0.39379 0.93861 0.0
H369 H 0.7194 0.39525 0.85999 0.0
H370 H 0.59609 0.3019 0.73696 0.0
H371 H 0.63934 0.34449 0.77867 0.0
C372 C 0.3269 0.39542 0.94635 0.0
C373 C 0.31336 0.385 0.9754 0.0
C374 C 0.37165 0.41599 0.93931 0.0
C375 C 0.48204 0.44785 0.96915 0.0
H376 H 0.51974 0.56005 0.93179 0.0
C377 C 0.64174 0.59621 -0.00092 0.0
C378 C 0.67433 0.60701 0.97792 0.0
C379 C 0.59744 0.57161 0.9916 0.0
C380 C 0.50959 0.52855 0.94177 0.0
H381 H 0.33479 0.38378 0.01931 0.0
H382 H 0.4123 0.4182 0.00708 0.0
H383 H 0.44174 0.50289 0.93081 0.0
H384 H 0.68632 0.60514 0.93187 0.0
H385 H 0.60815 0.56231 0.91873 0.0
H386 H 0.54934 0.47457 0.98172 0.0
C387 C 0.38889 0.41101 0.98966 0.0
C388 C 0.46516 0.49573 0.94108 0.0
C389 C 0.34446 0.39121 -0.00327 0.0
C390 C 0.66185 0.59766 0.94855 0.0
C391 C 0.61723 0.57285 0.94104 0.0
C392 C 0.52616 0.4806 0.96997 0.0
C393 C 0.4032 0.42558 0.96116 0.0
C394 C 0.45075 0.45567 0.95574 0.0
C395 C 0.58503 0.55767 0.96284 0.0
C396 C 0.53994 0.52163 0.95719 0.0
H397 H 0.30354 0.39151 0.92958 0.0
H398 H 0.38176 0.42656 0.91714 0.0
H399 H 0.47203 0.41718 0.9803 0.0
H400 H 0.6505 0.60299 0.02185 0.0
H401 H 0.57294 0.56042 0.00867 0.0
C402 C 0.06446 0.66622 0.27587 0.0
C403 C 0.06891 0.68194 0.30444 0.0
C404 C 0.0406 0.62097 0.27037 0.0
C405 C 0.96631 0.51259 0.30493 0.0
H406 H 0.03828 0.47428 0.26481 0.0
C407 C 0.95441 0.35254 0.33435 0.0
C408 C 0.93597 0.32062 0.31239 0.0
C409 C 0.97308 0.39688 0.32758 0.0
C410 C 0.01767 0.48457 0.27572 0.0
H411 H 0.04905 0.66384 0.34912 0.0
H412 H 0.00664 0.58557 0.33965 0.0
H413 H 0.05757 0.5515 0.26221 0.0
H414 H 0.92733 0.3102 0.26584 0.0
H415 H 0.9612 0.38849 0.25393 0.0
H416 H 0.92808 0.44636 0.31986 0.0
C417 C 0.02137 0.60751 0.32136 0.0
C418 C 0.02837 0.52858 0.27406 0.0
C419 C 0.04558 0.65244 0.32686 0.0
C420 C 0.94172 0.33416 0.28317 0.0
C421 C 0.96063 0.37885 0.27636 0.0
C422 C 0.956 0.46898 0.30681 0.0
C423 C 0.02042 0.59107 0.29334 0.0
C424 C 0.00363 0.54334 0.28952 0.0
C425 C 0.97396 0.41011 0.29872 0.0
C426 C 0.98241 0.45495 0.29305 0.0
H427 H 0.08284 0.6884 0.25832 0.0
H428 H 0.04005 0.60928 0.24851 0.0
H429 H 0.94615 0.52269 0.31664 0.0
H430 H 0.95044 0.34298 0.35703 0.0
H431 H 0.98379 0.4206 0.34512 0.0
C432 C 0.38808 0.0555 0.61776 0.0
C433 C 0.38206 0.06447 0.64659 0.0
C434 C 0.40831 0.03076 0.61202 0.0
C435 C 0.44725 0.96123 0.64666 0.0
H436 H 0.55307 0.02951 0.60092 0.0
C437 C 0.59615 0.94843 0.67026 0.0
C438 C 0.60819 0.9301 0.64752 0.0
C439 C 0.57066 0.96758 0.66461 0.0
C440 C 0.5234 0.00993 0.61342 0.0
H441 H 0.38807 0.05158 0.69182 0.0
H442 H 0.42188 0.00744 0.68199 0.0
H443 H 0.49452 0.04808 0.59999 0.0
H444 H 0.60795 0.92207 0.60082 0.0
H445 H 0.56353 0.95649 0.59087 0.0
H446 H 0.47702 0.92467 0.66131 0.0
C447 C 0.41153 0.01947 0.66372 0.0
C448 C 0.48974 0.02017 0.61271 0.0
C449 C 0.39209 0.04469 0.66943 0.0
C450 C 0.59947 0.9365 0.61866 0.0
C451 C 0.5737 0.9557 0.61299 0.0
C452 C 0.48086 0.95131 0.64753 0.0
C453 C 0.42189 0.01412 0.63506 0.0
C454 C 0.45207 0.99688 0.6302 0.0
C455 C 0.55684 0.96867 0.63616 0.0
C456 C 0.51983 0.97658 0.63179 0.0
H457 H 0.38114 0.07103 0.59982 0.0
H458 H 0.41562 0.0268 0.58973 0.0
H459 H 0.41834 0.94232 0.65998 0.0
H460 H 0.60245 0.94376 0.69266 0.0
H461 H 0.5586 0.97816 0.68275 0.0
C462 C 0.58235 0.66161 0.64183 0.0
C463 C 0.58442 0.68369 0.66767 0.0
C464 C 0.56173 0.61583 0.64147 0.0
C465 C 0.47978 0.52027 0.68441 0.0
H466 H 0.51023 0.45436 0.63123 0.0
C467 C 0.41993 0.33479 0.69122 0.0
C468 C 0.40343 0.31062 0.66543 0.0
C469 C 0.43775 0.38016 0.69119 0.0
C470 C 0.5012 0.47255 0.64593 0.0
H471 H 0.5703 0.67624 0.71378 0.0
H472 H 0.537 0.59675 0.71366 0.0
H473 H 0.55558 0.53421 0.6329 0.0
H474 H 0.39102 0.31425 0.61966 0.0
H475 H 0.4235 0.3943 0.61947 0.0
H476 H 0.42658 0.45804 0.69829 0.0
C477 C 0.54912 0.6142 0.69333 0.0
C478 C 0.52709 0.51825 0.64692 0.0
C479 C 0.56876 0.65978 0.69354 0.0
C480 C 0.40316 0.33221 0.63987 0.0
C481 C 0.42199 0.37783 0.63969 0.0
C482 C 0.45448 0.47458 0.6838 0.0
C483 C 0.54362 0.59147 0.66709 0.0
C484 C 0.51679 0.54273 0.66624 0.0
C485 C 0.44021 0.40212 0.66523 0.0
C486 C 0.46499 0.45044 0.66455 0.0
H487 H 0.59377 0.6794 0.62154 0.0
H488 H 0.55793 0.5996 0.6208 0.0
H489 H 0.46998 0.53791 0.69899 0.0
H490 H 0.42056 0.31877 0.71118 0.0
H491 H 0.45178 0.39836 0.7111 0.0
C492 C 0.08753 0.42394 0.03821 0.0
C493 C 0.09213 0.40775 0.01136 0.0
C494 C 0.05982 0.44143 0.0409 0.0
C495 C 0.9736 0.45389 0.00141 0.0
H496 H 0.01684 0.55783 0.04975 0.0
C497 C 0.91664 0.58018 0.98981 0.0
C498 C 0.89317 0.58122 0.01419 0.0
C499 C 0.94199 0.55996 0.9915 0.0
C500 C 0.00447 0.52875 0.03629 0.0
H501 H 0.0704 0.39575 0.96651 0.0
H502 H 0.02351 0.42768 0.97073 0.0
H503 H 0.05612 0.51711 0.04899 0.0
H504 H 0.88009 0.56471 0.05989 0.0
H505 H 0.92601 0.53069 0.06301 0.0
H506 H 0.92329 0.46733 0.98769 0.0
C507 C 0.0401 0.42589 0.99006 0.0
C508 C 0.02658 0.50507 0.03602 0.0
C509 C 0.06714 0.40762 0.98755 0.0
C510 C 0.89781 0.56426 0.04077 0.0
C511 C 0.92397 0.54487 0.04259 0.0
C512 C 0.95215 0.47812 0.00124 0.0
C513 C 0.03678 0.44391 0.01662 0.0
C514 C 0.01158 0.46743 0.01841 0.0
C515 C 0.94506 0.54143 0.01773 0.0
C516 C 0.96761 0.5158 0.01853 0.0
H517 H 0.10619 0.42405 0.057 0.0
H518 H 0.05723 0.45384 0.06189 0.0
H519 H 0.9604 0.42462 0.98811 0.0
H520 H 0.91342 0.59268 0.969 0.0
H521 H 0.95826 0.5577 0.97213 0.0
C522 C 0.3383 0.92927 0.31022 0.0
C523 C 0.31485 0.90518 0.33467 0.0
C524 C 0.38411 0.9553 0.31132 0.0
C525 C 0.47838 0.96552 0.35446 0.0
H526 H 0.54544 0.06796 0.30599 0.0
C527 C 0.66618 0.08848 0.36268 0.0
C528 C 0.6894 0.09774 0.33638 0.0
C529 C 0.62043 0.06232 0.36293 0.0
C530 C 0.52695 0.03917 0.31946 0.0
H531 H 0.3199 0.89193 0.38004 0.0
H532 H 0.39935 0.93949 0.38262 0.0
H533 H 0.46542 0.03268 0.30701 0.0
H534 H 0.68358 0.08592 0.28992 0.0
H535 H 0.60317 0.04082 0.29032 0.0
H536 H 0.54051 0.97351 0.36767 0.0
C537 C 0.38301 0.93681 0.36213 0.0
C538 C 0.48113 0.01885 0.32003 0.0
C539 C 0.33741 0.91002 0.36082 0.0
C540 C 0.6664 0.07888 0.3105 0.0
C541 C 0.62054 0.05352 0.31067 0.0
C542 C 0.52423 0.98643 0.35432 0.0
C543 C 0.40719 0.9584 0.3371 0.0
C544 C 0.45616 0.98156 0.33743 0.0
C545 C 0.59723 0.04584 0.3368 0.0
C546 C 0.54878 0.02316 0.33665 0.0
H547 H 0.32164 0.92562 0.28971 0.0
H548 H 0.40141 0.971 0.2915 0.0
H549 H 0.46046 0.93628 0.36758 0.0
H550 H 0.6833 0.10253 0.3829 0.0
H551 H 0.60302 0.05674 0.38332 0.0
C552 C 0.30779 0.15295 0.7568 0.0
C553 C 0.29302 0.14261 0.72794 0.0
C554 C 0.28032 0.15411 0.77815 0.0
C555 C 0.23508 0.20119 0.80149 0.0
H556 H 0.11225 0.12261 0.82023 0.0
C557 C 0.13666 0.26649 0.85736 0.0
C558 C 0.12337 0.24861 0.88518 0.0
C559 C 0.14816 0.24501 0.83676 0.0
C560 C 0.1465 0.14471 0.815 0.0
H561 H 0.23631 0.12007 0.69956 0.0
H562 H 0.18836 0.12217 0.73705 0.0
H563 H 0.15183 0.09641 0.78951 0.0
H564 H 0.10669 0.19254 0.9126 0.0
H565 H 0.12621 0.15426 0.87623 0.0
H566 H 0.22994 0.24975 0.82612 0.0
C567 C 0.22121 0.12961 0.74301 0.0
C568 C 0.16904 0.12979 0.79764 0.0
C569 C 0.24879 0.12871 0.72155 0.0
C570 C 0.1171 0.20679 0.89119 0.0
C571 C 0.12817 0.185 0.87048 0.0
C572 C 0.2125 0.21622 0.81823 0.0
C573 C 0.23759 0.14459 0.77104 0.0
C574 C 0.21359 0.15798 0.79091 0.0
C575 C 0.14574 0.20502 0.84365 0.0
C576 C 0.16806 0.18826 0.82502 0.0
H577 H 0.34149 0.16324 0.76252 0.0
H578 H 0.29341 0.16528 0.79979 0.0
H579 H 0.26921 0.22378 0.79618 0.0
H580 H 0.14051 0.2982 0.85221 0.0
H581 H 0.16122 0.26072 0.81602 0.0
C582 C 0.88953 0.12637 0.19771 0.0
C583 C 0.89777 0.12741 0.22754 0.0
C584 C 0.92203 0.13259 0.17773 0.0
C585 C 0.03896 0.19557 0.17198 0.0
H586 H 0.02217 0.13538 0.09844 0.0
C587 C 0.16306 0.2817 0.08198 0.0
C588 C 0.1441 0.28024 0.05487 0.0
C589 C 0.1386 0.25109 0.10345 0.0
C590 C 0.02743 0.15266 0.11884 0.0
H591 H 0.94459 0.13396 0.26038 0.0
H592 H 0.00228 0.14583 0.2254 0.0
H593 H 0.96554 0.10276 0.13596 0.0
H594 H 0.08603 0.244 0.02806 0.0
H595 H 0.04256 0.19233 0.06575 0.0
H596 H 0.09852 0.24721 0.15455 0.0
C597 C 0.97069 0.13969 0.21741 0.0
C598 C 0.99511 0.13378 0.14033 0.0
C599 C 0.93797 0.13293 0.23731 0.0
C600 C 0.10145 0.24586 0.04883 0.0
C601 C 0.0766 0.21594 0.0705 0.0
C602 C 0.07078 0.21482 0.15039 0.0
C603 C 0.96332 0.14053 0.18747 0.0
C604 C 0.00014 0.15574 0.16674 0.0
C605 C 0.09425 0.21927 0.09849 0.0
C606 C 0.06483 0.19435 0.12314 0.0
H607 H 0.85859 0.12234 0.19005 0.0
H608 H 0.91581 0.13374 0.15477 0.0
H609 H 0.04339 0.21342 0.19206 0.0
H610 H 0.19622 0.30753 0.08698 0.0
H611 H 0.15382 0.25382 0.1244 0.0
C612 C 0.76882 0.89194 0.53621 0.0
C613 C 0.77023 0.90074 0.56596 0.0
C614 C 0.79448 0.9258 0.51683 0.0
C615 C 0.86288 0.00414 0.48122 0.0
H616 H 0.83774 0.09844 0.49189 0.0
C617 C 0.87619 0.16774 0.42109 0.0
C618 C 0.86389 0.14997 0.39306 0.0
C619 C 0.88068 0.14338 0.44336 0.0
C620 C 0.84647 0.07331 0.48881 0.0
H621 H 0.79991 0.95006 0.59945 0.0
H622 H 0.84502 0.00981 0.56562 0.0
H623 H 0.81718 0.0434 0.52929 0.0
H624 H 0.84947 0.09418 0.36575 0.0
H625 H 0.85501 0.05078 0.40472 0.0
H626 H 0.89149 0.03372 0.44039 0.0
C627 C 0.82439 0.97694 0.55716 0.0
C628 C 0.83441 0.04153 0.51032 0.0
C629 C 0.79891 0.94303 0.57645 0.0
C630 C 0.85902 0.10868 0.3872 0.0
C631 C 0.86252 0.08389 0.4096 0.0
C632 C 0.8756 0.03641 0.45978 0.0
C633 C 0.82145 0.96889 0.52709 0.0
C634 C 0.84127 0.00594 0.50637 0.0
C635 C 0.87177 0.10028 0.43821 0.0
C636 C 0.8662 0.07063 0.46289 0.0
H637 H 0.74636 0.85938 0.52795 0.0
H638 H 0.79113 0.91882 0.49374 0.0
H639 H 0.86887 0.97717 0.47782 0.0
H640 H 0.88081 0.19985 0.42605 0.0
H641 H 0.8892 0.15763 0.4649 0.0
C642 C 0.68374 0.84103 0.75851 0.0
C643 C 0.69833 0.85153 0.72965 0.0
C644 C 0.711 0.83883 0.77963 0.0
C645 C 0.75491 0.78997 0.8023 0.0
H646 H 0.87782 0.86716 0.82176 0.0
C647 C 0.85082 0.72255 0.85948 0.0
C648 C 0.86476 0.74099 0.88714 0.0
C649 C 0.83968 0.74405 0.83866 0.0
C650 C 0.84355 0.84542 0.81632 0.0
H651 H 0.75458 0.87319 0.70106 0.0
H652 H 0.80221 0.86937 0.73819 0.0
H653 H 0.83919 0.89436 0.79094 0.0
H654 H 0.88283 0.79795 0.91403 0.0
H655 H 0.86396 0.83623 0.87728 0.0
H656 H 0.75904 0.74081 0.8269 0.0
C657 C 0.76964 0.86257 0.7443 0.0
C658 C 0.82156 0.86092 0.79889 0.0
C659 C 0.74226 0.8645 0.72306 0.0
C660 C 0.87194 0.78325 0.89275 0.0
C661 C 0.86122 0.80505 0.87181 0.0
C662 C 0.77695 0.77435 0.81912 0.0
C663 C 0.75336 0.84748 0.77231 0.0
C664 C 0.77696 0.83327 0.79196 0.0
C665 C 0.84308 0.7846 0.84514 0.0
C666 C 0.82141 0.80181 0.82621 0.0
H667 H 0.65026 0.83137 0.76438 0.0
H668 H 0.69799 0.82757 0.80124 0.0
H669 H 0.72072 0.7678 0.79684 0.0
H670 H 0.8463 0.69048 0.85461 0.0
H671 H 0.82622 0.72799 0.81803 0.0
C672 C 0.11056 0.87588 0.19609 0.0
C673 C 0.10326 0.8757 0.22601 0.0
C674 C 0.07703 0.86785 0.17641 0.0
C675 C 0.95998 0.80165 0.17233 0.0
H676 H 0.97176 0.85891 0.09825 0.0
C677 C 0.83017 0.7122 0.08519 0.0
C678 C 0.8471 0.71335 0.0574 0.0
C679 C 0.85623 0.74297 0.10622 0.0
C680 C 0.96792 0.84239 0.11879 0.0
H681 H 0.05694 0.86902 0.25921 0.0
H682 H -0.00243 0.85406 0.2248 0.0
H683 H 0.03012 0.89382 0.1346 0.0
H684 H 0.90337 0.74918 0.02912 0.0
H685 H 0.94952 0.80118 0.06595 0.0
H686 H 0.90005 0.74863 0.15621 0.0
C687 C 0.0292 0.86085 0.21651 0.0
C688 C 0.00123 0.86259 0.13962 0.0
C689 C 0.06293 0.86946 0.2361 0.0
C690 C 0.88942 0.74753 0.05039 0.0
C691 C 0.91585 0.77764 0.07159 0.0
C692 C 0.92716 0.78109 0.15139 0.0
C693 C 0.03563 0.85893 0.18654 0.0
C694 C -0.00205 0.84183 0.16627 0.0
C695 C 0.9002 0.77475 0.10013 0.0
C696 C 0.9312 0.80055 0.12399 0.0
H697 H 0.14157 0.88049 0.18814 0.0
H698 H 0.08261 0.86599 0.15344 0.0
H699 H 0.95691 0.78468 0.19259 0.0
H700 H 0.79735 0.68652 0.09101 0.0
H701 H 0.84249 0.74053 0.12765 0.0
C702 C 0.21301 0.09421 0.53706 0.0
C703 C 0.21887 0.08616 0.56603 0.0
C704 C 0.18875 0.05906 0.51813 0.0
C705 C 0.12639 0.97633 0.48358 0.0
H706 H 0.17065 0.89559 0.48859 0.0
C707 C 0.13047 0.8244 0.41856 0.0
C708 C 0.1382 0.84236 0.3905 0.0
C709 C 0.1247 0.8464 0.44185 0.0
C710 C 0.15673 0.91682 0.48716 0.0
H711 H 0.20265 0.0366 0.59884 0.0
H712 H 0.15961 0.9748 0.56597 0.0
H713 H 0.18836 0.94935 0.52652 0.0
H714 H 0.14282 0.89573 0.36437 0.0
H715 H 0.1347 0.93503 0.40502 0.0
H716 H 0.09572 0.9443 0.44362 0.0
C717 C 0.17387 0.00794 0.55766 0.0
C718 C 0.16709 0.94789 0.50898 0.0
C719 C 0.19817 0.04302 0.57644 0.0
C720 C 0.13701 0.88112 0.3858 0.0
C721 C 0.13201 0.90353 0.40916 0.0
C722 C 0.11561 0.94483 0.46177 0.0
C723 C 0.17027 0.01555 0.52807 0.0
C724 C 0.15305 0.97872 0.50706 0.0
C725 C 0.12747 0.88728 0.43764 0.0
C726 C 0.13177 0.91551 0.46289 0.0
H727 H 0.22924 0.12748 0.52882 0.0
H728 H 0.18694 0.06592 0.49539 0.0
H729 H 0.1148 -0.00052 0.48173 0.0
H730 H 0.13056 0.79418 0.42274 0.0
H731 H 0.12004 0.83231 0.46337 0.0
loop_
_geom_bond_atom_site_label_1
_geom_bond_atom_site_label_2
_geom_bond_distance
_geom_bond_site_symmetry_2
_ccdc_geom_bond_type
Zn0 O1 2.055 . S
Zn0 O8 2.046 1_554 S
Zn0 N16 2.036 . S
Zn0 O28 2.053 . S
Zn0 O30 2.066 . S
O1 Zn0 2.055 . S
O1 C4 1.259 1_554 S
C2 O30 1.256 . S
C2 O31 1.244 . S
Zn3 O5 2.046 . S
Zn3 O7 2.055 . S
Zn3 N9 2.036 . S
Zn3 O27 2.066 . S
Zn3 O31 2.053 1_556 S
C4 O1 1.259 1_556 S
C4 O5 1.254 . S
O5 Zn3 2.046 . S
O5 C4 1.254 . S
C6 O27 1.256 1_554 S
C6 O28 1.244 . S
O7 Zn3 2.055 . S
O7 C29 1.259 . S
O8 Zn0 2.046 1_556 S
O8 C29 1.254 . S
N9 Zn3 2.036 . S
N9 C10 1.298 . S
N9 N12 1.398 . S
C10 N9 1.298 . S
C10 N13 1.367 . S
C10 C23 1.481 . S
C11 N12 1.299 . S
C11 N13 1.379 . S
N12 N9 1.398 . S
N12 C11 1.299 . S
N13 C10 1.367 . S
N13 C11 1.379 . S
C14 N16 1.298 . S
C14 N18 1.367 . S
C14 C22 1.481 . S
C15 N17 1.299 . S
C15 N18 1.379 . S
N16 Zn0 2.036 . S
N16 C14 1.298 . S
N16 N17 1.398 . S
N17 C15 1.299 . S
N17 N16 1.398 . S
N18 C14 1.367 . S
N18 C15 1.379 . S
H19 C22 0.980 . S
H20 C22 0.981 . S
H21 C22 0.981 . S
C22 C14 1.481 . S
C22 H19 0.980 . S
C22 H20 0.981 . S
C22 H21 0.981 . S
C23 C10 1.481 . S
C23 H24 0.980 . S
C23 H25 0.981 . S
C23 H26 0.981 . S
H24 C23 0.980 . S
H25 C23 0.981 . S
H26 C23 0.981 . S
O27 Zn3 2.066 . S
O27 C6 1.256 1_556 S
O28 Zn0 2.053 . S
O28 C6 1.244 . S
C29 O7 1.259 . S
C29 O8 1.254 . S
O30 Zn0 2.066 . S
O30 C2 1.256 . S
O31 C2 1.244 . S
O31 Zn3 2.053 1_554 S
Zn32 O33 2.055 . S
Zn32 O40 2.046 . S
Zn32 N48 2.036 . S
Zn32 O60 2.053 . S
Zn32 O62 2.066 . S
O33 Zn32 2.055 . S
O33 C36 1.259 . S
C34 O62 1.256 . S
C34 O63 1.244 . S
Zn35 O37 2.046 . S
Zn35 O39 2.055 . S
Zn35 N41 2.036 . S
Zn35 O59 2.066 . S
Zn35 O63 2.053 . S
C36 O33 1.259 . S
C36 O37 1.254 . S
O37 Zn35 2.046 . S
O37 C36 1.254 . S
C38 O59 1.256 . S
C38 O60 1.244 . S
O39 Zn35 2.055 . S
O39 C61 1.259 . S
O40 Zn32 2.046 . S
O40 C61 1.254 . S
N41 Zn35 2.036 . S
N41 C42 1.298 . S
N41 N44 1.398 . S
C42 N41 1.298 . S
C42 N45 1.367 . S
C42 C55 1.481 . S
C43 N44 1.299 . S
C43 N45 1.379 . S
N44 N41 1.398 . S
N44 C43 1.299 . S
N45 C42 1.367 . S
N45 C43 1.379 . S
C46 N48 1.298 . S
C46 N50 1.367 . S
C46 C54 1.481 . S
C47 N49 1.299 . S
C47 N50 1.379 . S
N48 Zn32 2.036 . S
N48 C46 1.298 . S
N48 N49 1.398 . S
N49 C47 1.299 . S
N49 N48 1.398 . S
N50 C46 1.367 . S
N50 C47 1.379 . S
H51 C54 0.980 . S
H52 C54 0.981 . S
H53 C54 0.981 . S
C54 C46 1.481 . S
C54 H51 0.980 . S
C54 H52 0.981 . S
C54 H53 0.981 . S
C55 C42 1.481 . S
C55 H56 0.980 . S
C55 H57 0.981 . S
C55 H58 0.981 . S
H56 C55 0.980 . S
H57 C55 0.981 . S
H58 C55 0.981 . S
O59 Zn35 2.066 . S
O59 C38 1.256 . S
O60 Zn32 2.053 . S
O60 C38 1.244 . S
C61 O39 1.259 . S
C61 O40 1.254 . S
O62 Zn32 2.066 . S
O62 C34 1.256 . S
O63 C34 1.244 . S
O63 Zn35 2.053 . S
Zn64 O65 2.055 . S
Zn64 O72 2.046 . S
Zn64 N80 2.036 . S
Zn64 O92 2.053 . S
Zn64 O94 2.066 . S
O65 Zn64 2.055 . S
O65 C68 1.259 . S
C66 O94 1.256 . S
C66 O95 1.244 . S
Zn67 O69 2.046 . S
Zn67 O71 2.055 . S
Zn67 N73 2.036 . S
Zn67 O91 2.066 . S
Zn67 O95 2.053 . S
C68 O65 1.259 . S
C68 O69 1.254 . S
O69 Zn67 2.046 . S
O69 C68 1.254 . S
C70 O91 1.256 . S
C70 O92 1.244 . S
O71 Zn67 2.055 . S
O71 C93 1.259 . S
O72 Zn64 2.046 . S
O72 C93 1.254 . S
N73 Zn67 2.036 . S
N73 C74 1.298 . S
N73 N76 1.398 . S
C74 N73 1.298 . S
C74 N77 1.367 . S
C74 C87 1.481 . S
C75 N76 1.299 . S
C75 N77 1.379 . S
N76 N73 1.398 . S
N76 C75 1.299 . S
N77 C74 1.367 . S
N77 C75 1.379 . S
C78 N80 1.298 . S
C78 N82 1.367 . S
C78 C86 1.481 . S
C79 N81 1.299 . S
C79 N82 1.379 . S
N80 Zn64 2.036 . S
N80 C78 1.298 . S
N80 N81 1.398 . S
N81 C79 1.299 . S
N81 N80 1.398 . S
N82 C78 1.367 . S
N82 C79 1.379 . S
H83 C86 0.980 . S
H84 C86 0.981 . S
H85 C86 0.981 . S
C86 C78 1.481 . S
C86 H83 0.980 . S
C86 H84 0.981 . S
C86 H85 0.981 . S
C87 C74 1.481 . S
C87 H88 0.980 . S
C87 H89 0.981 . S
C87 H90 0.981 . S
H88 C87 0.980 . S
H89 C87 0.981 . S
H90 C87 0.981 . S
O91 Zn67 2.066 . S
O91 C70 1.256 . S
O92 Zn64 2.053 . S
O92 C70 1.244 . S
C93 O71 1.259 . S
C93 O72 1.254 . S
O94 Zn64 2.066 . S
O94 C66 1.256 . S
O95 C66 1.244 . S
O95 Zn67 2.053 . S
Zn96 O97 2.055 . S
Zn96 O104 2.046 1_554 S
Zn96 N112 2.036 . S
Zn96 O124 2.053 . S
Zn96 O126 2.066 . S
O97 Zn96 2.055 . S
O97 C100 1.259 1_554 S
C98 O126 1.256 . S
C98 O127 1.244 . S
Zn99 O101 2.046 . S
Zn99 O103 2.055 . S
Zn99 N105 2.036 . S
Zn99 O123 2.066 . S
Zn99 O127 2.053 1_556 S
C100 O97 1.259 1_556 S
C100 O101 1.254 . S
O101 Zn99 2.046 . S
O101 C100 1.254 . S
C102 O123 1.256 1_554 S
C102 O124 1.244 . S
O103 Zn99 2.055 . S
O103 C125 1.259 . S
O104 Zn96 2.046 1_556 S
O104 C125 1.254 . S
N105 Zn99 2.036 . S
N105 C106 1.298 . S
N105 N108 1.398 . S
C106 N105 1.298 . S
C106 N109 1.367 . S
C106 C119 1.481 . S
C107 N108 1.299 . S
C107 N109 1.379 . S
N108 N105 1.398 . S
N108 C107 1.299 . S
N109 C106 1.367 . S
N109 C107 1.379 . S
C110 N112 1.298 . S
C110 N114 1.367 . S
C110 C118 1.481 . S
C111 N113 1.299 . S
C111 N114 1.379 . S
N112 Zn96 2.036 . S
N112 C110 1.298 . S
N112 N113 1.398 . S
N113 C111 1.299 . S
N113 N112 1.398 . S
N114 C110 1.367 . S
N114 C111 1.379 . S
H115 C118 0.980 . S
H116 C118 0.981 . S
H117 C118 0.981 . S
C118 C110 1.481 . S
C118 H115 0.980 . S
C118 H116 0.981 . S
C118 H117 0.981 . S
C119 C106 1.481 . S
C119 H120 0.980 . S
C119 H121 0.981 . S
C119 H122 0.981 . S
H120 C119 0.980 . S
H121 C119 0.981 . S
H122 C119 0.981 . S
O123 Zn99 2.066 . S
O123 C102 1.256 1_556 S
O124 Zn96 2.053 . S
O124 C102 1.244 . S
C125 O103 1.259 . S
C125 O104 1.254 . S
O126 Zn96 2.066 . S
O126 C98 1.256 . S
O127 C98 1.244 . S
O127 Zn99 2.053 1_554 S
Zn128 O129 2.055 . S
Zn128 O136 2.046 . S
Zn128 N144 2.036 . S
Zn128 O156 2.053 . S
Zn128 O158 2.066 . S
O129 Zn128 2.055 . S
O129 C132 1.259 . S
C130 O158 1.256 . S
C130 O159 1.244 . S
Zn131 O133 2.046 . S
Zn131 O135 2.055 . S
Zn131 N137 2.036 . S
Zn131 O155 2.066 . S
Zn131 O159 2.053 . S
C132 O129 1.259 . S
C132 O133 1.254 . S
O133 Zn131 2.046 . S
O133 C132 1.254 . S
C134 O155 1.256 . S
C134 O156 1.244 . S
O135 Zn131 2.055 . S
O135 C157 1.259 . S
O136 Zn128 2.046 . S
O136 C157 1.254 . S
N137 Zn131 2.036 . S
N137 C138 1.298 . S
N137 N140 1.398 . S
C138 N137 1.298 . S
C138 N141 1.367 . S
C138 C151 1.481 . S
C139 N140 1.299 . S
C139 N141 1.379 . S
N140 N137 1.398 . S
N140 C139 1.299 . S
N141 C138 1.367 . S
N141 C139 1.379 . S
C142 N144 1.298 . S
C142 N146 1.367 . S
C142 C150 1.481 . S
C143 N145 1.299 . S
C143 N146 1.379 . S
N144 Zn128 2.036 . S
N144 C142 1.298 . S
N144 N145 1.398 . S
N145 C143 1.299 . S
N145 N144 1.398 . S
N146 C142 1.367 . S
N146 C143 1.379 . S
H147 C150 0.980 . S
H148 C150 0.981 . S
H149 C150 0.981 . S
C150 C142 1.481 . S
C150 H147 0.980 . S
C150 H148 0.981 . S
C150 H149 0.981 . S
C151 C138 1.481 . S
C151 H152 0.980 . S
C151 H153 0.981 . S
C151 H154 0.981 . S
H152 C151 0.980 . S
H153 C151 0.981 . S
H154 C151 0.981 . S
O155 Zn131 2.066 . S
O155 C134 1.256 . S
O156 Zn128 2.053 . S
O156 C134 1.244 . S
C157 O135 1.259 . S
C157 O136 1.254 . S
O158 Zn128 2.066 . S
O158 C130 1.256 . S
O159 C130 1.244 . S
O159 Zn131 2.053 . S
Zn160 O161 2.055 . S
Zn160 O168 2.046 . S
Zn160 N176 2.036 . S
Zn160 O188 2.053 . S
Zn160 O190 2.066 . S
O161 Zn160 2.055 . S
O161 C164 1.259 . S
C162 O190 1.256 . S
C162 O191 1.244 . S
Zn163 O165 2.046 . S
Zn163 O167 2.055 . S
Zn163 N169 2.036 . S
Zn163 O187 2.066 . S
Zn163 O191 2.053 . S
C164 O161 1.259 . S
C164 O165 1.254 . S
O165 Zn163 2.046 . S
O165 C164 1.254 . S
C166 O187 1.256 . S
C166 O188 1.244 . S
O167 Zn163 2.055 . S
O167 C189 1.259 . S
O168 Zn160 2.046 . S
O168 C189 1.254 . S
N169 Zn163 2.036 . S
N169 C170 1.298 . S
N169 N172 1.398 . S
C170 N169 1.298 . S
C170 N173 1.367 . S
C170 C183 1.481 . S
C171 N172 1.299 . S
C171 N173 1.379 . S
N172 N169 1.398 . S
N172 C171 1.299 . S
N173 C170 1.367 . S
N173 C171 1.379 . S
C174 N176 1.298 . S
C174 N178 1.367 . S
C174 C182 1.481 . S
C175 N177 1.299 . S
C175 N178 1.379 . S
N176 Zn160 2.036 . S
N176 C174 1.298 . S
N176 N177 1.398 . S
N177 C175 1.299 . S
N177 N176 1.398 . S
N178 C174 1.367 . S
N178 C175 1.379 . S
H179 C182 0.980 . S
H180 C182 0.981 . S
H181 C182 0.981 . S
C182 C174 1.481 . S
C182 H179 0.980 . S
C182 H180 0.981 . S
C182 H181 0.981 . S
C183 C170 1.481 . S
C183 H184 0.980 . S
C183 H185 0.981 . S
C183 H186 0.981 . S
H184 C183 0.980 . S
H185 C183 0.981 . S
H186 C183 0.981 . S
O187 Zn163 2.066 . S
O187 C166 1.256 . S
O188 Zn160 2.053 . S
O188 C166 1.244 . S
C189 O167 1.259 . S
C189 O168 1.254 . S
O190 Zn160 2.066 . S
O190 C162 1.256 . S
O191 C162 1.244 . S
O191 Zn163 2.053 . S
C192 C193 1.349 . S
C192 C194 1.327 . S
C192 H217 0.950 . S
C193 C192 1.349 . S
C193 C209 1.349 . S
C194 C192 1.327 . S
C194 C213 1.429 . S
C194 H218 0.950 . S
C195 C212 1.574 . S
C195 C214 1.368 . S
C195 H219 0.949 . S
H196 C200 0.949 . S
C197 C198 1.349 . S
C197 C199 1.327 . S
C197 H220 0.950 . S
C198 C197 1.349 . S
C198 C210 1.349 . S
C199 C197 1.327 . S
C199 C215 1.429 . S
C199 H221 0.950 . S
C200 H196 0.949 . S
C200 C208 1.574 . S
C200 C216 1.368 . S
H201 C209 0.950 . S
H202 C207 0.950 . S
H203 C208 0.949 . S
H204 C210 0.950 . S
H205 C211 0.950 . S
H206 C212 0.949 . S
C207 H202 0.950 . S
C207 C209 1.327 . S
C207 C213 1.429 . S
C208 C200 1.574 . S
C208 H203 0.949 . S
C208 C214 1.368 . S
C209 C193 1.349 . S
C209 H201 0.950 . S
C209 C207 1.327 . S
C210 C198 1.349 . S
C210 H204 0.950 . S
C210 C211 1.327 . S
C211 H205 0.950 . S
C211 C210 1.327 . S
C211 C215 1.429 . S
C212 C195 1.574 . S
C212 H206 0.949 . S
C212 C216 1.368 . S
C213 C194 1.429 . S
C213 C207 1.429 . S
C213 C214 1.523 . S
C214 C195 1.368 . S
C214 C208 1.368 . S
C214 C213 1.523 . S
C215 C199 1.429 . S
C215 C211 1.429 . S
C215 C216 1.523 . S
C216 C200 1.368 . S
C216 C212 1.368 . S
C216 C215 1.523 . S
H217 C192 0.950 . S
H218 C194 0.950 . S
H219 C195 0.949 . S
H220 C197 0.950 . S
H221 C199 0.950 . S
C222 C223 1.349 . S
C222 C224 1.327 . S
C222 H247 0.950 . S
C223 C222 1.349 . S
C223 C239 1.349 . S
C224 C222 1.327 . S
C224 C243 1.429 . S
C224 H248 0.950 . S
C225 C242 1.574 . S
C225 C244 1.368 . S
C225 H249 0.949 . S
H226 C230 0.949 . S
C227 C228 1.349 . S
C227 C229 1.327 . S
C227 H250 0.950 . S
C228 C227 1.349 . S
C228 C240 1.349 . S
C229 C227 1.327 . S
C229 C245 1.429 . S
C229 H251 0.950 . S
C230 H226 0.949 . S
C230 C238 1.574 . S
C230 C246 1.368 . S
H231 C239 0.950 . S
H232 C237 0.950 . S
H233 C238 0.949 . S
H234 C240 0.950 . S
H235 C241 0.950 . S
H236 C242 0.949 . S
C237 H232 0.950 . S
C237 C239 1.327 . S
C237 C243 1.429 . S
C238 C230 1.574 . S
C238 H233 0.949 . S
C238 C244 1.368 . S
C239 C223 1.349 . S
C239 H231 0.950 . S
C239 C237 1.327 . S
C240 C228 1.349 . S
C240 H234 0.950 . S
C240 C241 1.327 . S
C241 H235 0.950 . S
C241 C240 1.327 . S
C241 C245 1.429 . S
C242 C225 1.574 . S
C242 H236 0.949 . S
C242 C246 1.368 . S
C243 C224 1.429 . S
C243 C237 1.429 . S
C243 C244 1.523 . S
C244 C225 1.368 . S
C244 C238 1.368 . S
C244 C243 1.523 . S
C245 C229 1.429 . S
C245 C241 1.429 . S
C245 C246 1.523 . S
C246 C230 1.368 . S
C246 C242 1.368 . S
C246 C245 1.523 . S
H247 C222 0.950 . S
H248 C224 0.950 . S
H249 C225 0.949 . S
H250 C227 0.950 . S
H251 C229 0.950 . S
C252 C253 1.349 . S
C252 C254 1.327 . S
C252 H277 0.950 . S
C253 C252 1.349 . S
C253 C269 1.349 . S
C254 C252 1.327 . S
C254 C273 1.429 . S
C254 H278 0.950 . S
C255 C272 1.574 . S
C255 C274 1.368 . S
C255 H279 0.949 . S
H256 C260 0.949 . S
C257 C258 1.349 . S
C257 C259 1.327 . S
C257 H280 0.950 . S
C258 C257 1.349 . S
C258 C270 1.349 . S
C259 C257 1.327 . S
C259 C275 1.429 . S
C259 H281 0.950 . S
C260 H256 0.949 . S
C260 C268 1.574 . S
C260 C276 1.368 . S
H261 C269 0.950 . S
H262 C267 0.950 . S
H263 C268 0.949 . S
H264 C270 0.950 . S
H265 C271 0.950 . S
H266 C272 0.949 . S
C267 H262 0.950 . S
C267 C269 1.327 . S
C267 C273 1.429 . S
C268 C260 1.574 . S
C268 H263 0.949 . S
C268 C274 1.368 . S
C269 C253 1.349 . S
C269 H261 0.950 . S
C269 C267 1.327 . S
C270 C258 1.349 . S
C270 H264 0.950 . S
C270 C271 1.327 . S
C271 H265 0.950 . S
C271 C270 1.327 . S
C271 C275 1.429 . S
C272 C255 1.574 . S
C272 H266 0.949 . S
C272 C276 1.368 . S
C273 C254 1.429 . S
C273 C267 1.429 . S
C273 C274 1.523 . S
C274 C255 1.368 . S
C274 C268 1.368 . S
C274 C273 1.523 . S
C275 C259 1.429 . S
C275 C271 1.429 . S
C275 C276 1.523 . S
C276 C260 1.368 . S
C276 C272 1.368 . S
C276 C275 1.523 . S
H277 C252 0.950 . S
H278 C254 0.950 . S
H279 C255 0.949 . S
H280 C257 0.950 . S
H281 C259 0.950 . S
C282 C283 1.349 . S
C282 C284 1.327 . S
C282 H307 0.950 . S
C283 C282 1.349 . S
C283 C299 1.349 . S
C284 C282 1.327 . S
C284 C303 1.429 . S
C284 H308 0.950 . S
C285 C302 1.574 . S
C285 C304 1.368 . S
C285 H309 0.949 . S
H286 C290 0.949 . S
C287 C288 1.349 . S
C287 C289 1.327 . S
C287 H310 0.950 . S
C288 C287 1.349 . S
C288 C300 1.349 . S
C289 C287 1.327 . S
C289 C305 1.429 . S
C289 H311 0.950 . S
C290 H286 0.949 . S
C290 C298 1.574 . S
C290 C306 1.368 . S
H291 C299 0.950 . S
H292 C297 0.950 . S
H293 C298 0.949 . S
H294 C300 0.950 . S
H295 C301 0.950 . S
H296 C302 0.949 . S
C297 H292 0.950 . S
C297 C299 1.327 . S
C297 C303 1.429 . S
C298 C290 1.574 . S
C298 H293 0.949 . S
C298 C304 1.368 . S
C299 C283 1.349 . S
C299 H291 0.950 . S
C299 C297 1.327 . S
C300 C288 1.349 . S
C300 H294 0.950 . S
C300 C301 1.327 . S
C301 H295 0.950 . S
C301 C300 1.327 . S
C301 C305 1.429 . S
C302 C285 1.574 . S
C302 H296 0.949 . S
C302 C306 1.368 . S
C303 C284 1.429 . S
C303 C297 1.429 . S
C303 C304 1.523 . S
C304 C285 1.368 . S
C304 C298 1.368 . S
C304 C303 1.523 . S
C305 C289 1.429 . S
C305 C301 1.429 . S
C305 C306 1.523 . S
C306 C290 1.368 . S
C306 C302 1.368 . S
C306 C305 1.523 . S
H307 C282 0.950 . S
H308 C284 0.950 . S
H309 C285 0.949 . S
H310 C287 0.950 . S
H311 C289 0.950 . S
C312 C313 1.349 . S
C312 C314 1.327 . S
C312 H337 0.950 . S
C313 C312 1.349 . S
C313 C329 1.349 . S
C314 C312 1.327 . S
C314 C333 1.429 . S
C314 H338 0.950 . S
C315 C332 1.574 . S
C315 C334 1.368 . S
C315 H339 0.949 . S
H316 C320 0.949 . S
C317 C318 1.349 . S
C317 C319 1.327 . S
C317 H340 0.950 . S
C318 C317 1.349 . S
C318 C330 1.349 . S
C319 C317 1.327 . S
C319 C335 1.429 . S
C319 H341 0.950 . S
C320 H316 0.949 . S
C320 C328 1.574 . S
C320 C336 1.368 . S
H321 C329 0.950 . S
H322 C327 0.950 . S
H323 C328 0.949 . S
H324 C330 0.950 . S
H325 C331 0.950 . S
H326 C332 0.949 . S
C327 H322 0.950 . S
C327 C329 1.327 . S
C327 C333 1.429 . S
C328 C320 1.574 . S
C328 H323 0.949 . S
C328 C334 1.368 . S
C329 C313 1.349 . S
C329 H321 0.950 . S
C329 C327 1.327 . S
C330 C318 1.349 . S
C330 H324 0.950 . S
C330 C331 1.327 . S
C331 H325 0.950 . S
C331 C330 1.327 . S
C331 C335 1.429 . S
C332 C315 1.574 . S
C332 H326 0.949 . S
C332 C336 1.368 . S
C333 C314 1.429 . S
C333 C327 1.429 . S
C333 C334 1.523 . S
C334 C315 1.368 . S
C334 C328 1.368 . S
C334 C333 1.523 . S
C335 C319 1.429 . S
C335 C331 1.429 . S
C335 C336 1.523 . S
C336 C320 1.368 . S
C336 C332 1.368 . S
C336 C335 1.523 . S
H337 C312 0.950 . S
H338 C314 0.950 . S
H339 C315 0.949 . S
H340 C317 0.950 . S
H341 C319 0.950 . S
C342 C343 1.349 . S
C342 C344 1.327 . S
C342 H367 0.950 . S
C343 C342 1.349 . S
C343 C359 1.349 . S
C344 C342 1.327 . S
C344 C363 1.429 . S
C344 H368 0.950 . S
C345 C362 1.574 . S
C345 C364 1.368 . S
C345 H369 0.949 . S
H346 C350 0.949 . S
C347 C348 1.349 . S
C347 C349 1.327 . S
C347 H370 0.950 . S
C348 C347 1.349 . S
C348 C360 1.349 . S
C349 C347 1.327 . S
C349 C365 1.429 . S
C349 H371 0.950 . S
C350 H346 0.949 . S
C350 C358 1.574 . S
C350 C366 1.368 . S
H351 C359 0.950 . S
H352 C357 0.950 . S
H353 C358 0.949 . S
H354 C360 0.950 . S
H355 C361 0.950 . S
H356 C362 0.949 . S
C357 H352 0.950 . S
C357 C359 1.327 . S
C357 C363 1.429 . S
C358 C350 1.574 . S
C358 H353 0.949 . S
C358 C364 1.368 . S
C359 C343 1.349 . S
C359 H351 0.950 . S
C359 C357 1.327 . S
C360 C348 1.349 . S
C360 H354 0.950 . S
C360 C361 1.327 . S
C361 H355 0.950 . S
C361 C360 1.327 . S
C361 C365 1.429 . S
C362 C345 1.574 . S
C362 H356 0.949 . S
C362 C366 1.368 . S
C363 C344 1.429 . S
C363 C357 1.429 . S
C363 C364 1.523 . S
C364 C345 1.368 . S
C364 C358 1.368 . S
C364 C363 1.523 . S
C365 C349 1.429 . S
C365 C361 1.429 . S
C365 C366 1.523 . S
C366 C350 1.368 . S
C366 C362 1.368 . S
C366 C365 1.523 . S
H367 C342 0.950 . S
H368 C344 0.950 . S
H369 C345 0.949 . S
H370 C347 0.950 . S
H371 C349 0.950 . S
C372 C373 1.349 1_556 S
C372 C374 1.327 . S
C372 H397 0.950 . S
C373 C372 1.349 1_554 S
C373 C389 1.349 . S
C374 C372 1.327 . S
C374 C393 1.429 1_556 S
C374 H398 0.950 . S
C375 C392 1.574 . S
C375 C394 1.368 . S
C375 H399 0.949 . S
H376 C380 0.949 . S
C377 C378 1.349 . S
C377 C379 1.327 . S
C377 H400 0.950 . S
C378 C377 1.349 . S
C378 C390 1.349 1_554 S
C379 C377 1.327 . S
C379 C395 1.429 . S
C379 H401 0.950 . S
C380 H376 0.949 . S
C380 C388 1.574 . S
C380 C396 1.368 1_556 S
H381 C389 0.950 . S
H382 C387 0.950 . S
H383 C388 0.949 . S
H384 C390 0.950 . S
H385 C391 0.950 . S
H386 C392 0.949 . S
C387 H382 0.950 . S
C387 C389 1.327 . S
C387 C393 1.429 . S
C388 C380 1.574 . S
C388 H383 0.949 . S
C388 C394 1.368 1_556 S
C389 C373 1.349 . S
C389 H381 0.950 . S
C389 C387 1.327 . S
C390 C378 1.349 1_556 S
C390 H384 0.950 . S
C390 C391 1.327 . S
C391 H385 0.950 . S
C391 C390 1.327 . S
C391 C395 1.429 1_556 S
C392 C375 1.574 . S
C392 H386 0.949 . S
C392 C396 1.368 . S
C393 C374 1.429 1_554 S
C393 C387 1.429 . S
C393 C394 1.523 . S
C394 C375 1.368 . S
C394 C388 1.368 1_554 S
C394 C393 1.523 . S
C395 C379 1.429 . S
C395 C391 1.429 1_554 S
C395 C396 1.523 . S
C396 C380 1.368 1_554 S
C396 C392 1.368 . S
C396 C395 1.523 . S
H397 C372 0.950 . S
H398 C374 0.950 . S
H399 C375 0.949 . S
H400 C377 0.950 . S
H401 C379 0.950 . S
C402 C403 1.349 . S
C402 C404 1.327 . S
C402 H427 0.950 . S
C403 C402 1.349 . S
C403 C419 1.349 . S
C404 C402 1.327 . S
C404 C423 1.429 . S
C404 H428 0.950 . S
C405 C422 1.574 . S
C405 C424 1.368 1_655 S
C405 H429 0.949 . S
H406 C410 0.949 . S
C407 C408 1.349 . S
C407 C409 1.327 . S
C407 H430 0.950 . S
C408 C407 1.349 . S
C408 C420 1.349 . S
C409 C407 1.327 . S
C409 C425 1.429 . S
C409 H431 0.950 . S
C410 H406 0.949 . S
C410 C418 1.574 . S
C410 C426 1.368 1_455 S
H411 C419 0.950 . S
H412 C417 0.950 . S
H413 C418 0.949 . S
H414 C420 0.950 . S
H415 C421 0.950 . S
H416 C422 0.949 . S
C417 H412 0.950 . S
C417 C419 1.327 . S
C417 C423 1.429 . S
C418 C410 1.574 . S
C418 H413 0.949 . S
C418 C424 1.368 . S
C419 C403 1.349 . S
C419 H411 0.950 . S
C419 C417 1.327 . S
C420 C408 1.349 . S
C420 H414 0.950 . S
C420 C421 1.327 . S
C421 H415 0.950 . S
C421 C420 1.327 . S
C421 C425 1.429 . S
C422 C405 1.574 . S
C422 H416 0.949 . S
C422 C426 1.368 . S
C423 C404 1.429 . S
C423 C417 1.429 . S
C423 C424 1.523 . S
C424 C405 1.368 1_455 S
C424 C418 1.368 . S
C424 C423 1.523 . S
C425 C409 1.429 . S
C425 C421 1.429 . S
C425 C426 1.523 . S
C426 C410 1.368 1_655 S
C426 C422 1.368 . S
C426 C425 1.523 . S
H427 C402 0.950 . S
H428 C404 0.950 . S
H429 C405 0.949 . S
H430 C407 0.950 . S
H431 C409 0.950 . S
C432 C433 1.349 . S
C432 C434 1.327 . S
C432 H457 0.950 . S
C433 C432 1.349 . S
C433 C449 1.349 . S
C434 C432 1.327 . S
C434 C453 1.429 . S
C434 H458 0.950 . S
C435 C452 1.574 . S
C435 C454 1.368 1_565 S
C435 H459 0.949 . S
H436 C440 0.949 . S
C437 C438 1.349 . S
C437 C439 1.327 . S
C437 H460 0.950 . S
C438 C437 1.349 . S
C438 C450 1.349 . S
C439 C437 1.327 . S
C439 C455 1.429 . S
C439 H461 0.950 . S
C440 H436 0.949 . S
C440 C448 1.574 . S
C440 C456 1.368 1_545 S
H441 C449 0.950 . S
H442 C447 0.950 . S
H443 C448 0.949 . S
H444 C450 0.950 . S
H445 C451 0.950 . S
H446 C452 0.949 . S
C447 H442 0.950 . S
C447 C449 1.327 . S
C447 C453 1.429 . S
C448 C440 1.574 . S
C448 H443 0.949 . S
C448 C454 1.368 . S
C449 C433 1.349 . S
C449 H441 0.950 . S
C449 C447 1.327 . S
C450 C438 1.349 . S
C450 H444 0.950 . S
C450 C451 1.327 . S
C451 H445 0.950 . S
C451 C450 1.327 . S
C451 C455 1.429 . S
C452 C435 1.574 . S
C452 H446 0.949 . S
C452 C456 1.368 . S
C453 C434 1.429 . S
C453 C447 1.429 . S
C453 C454 1.523 . S
C454 C435 1.368 1_545 S
C454 C448 1.368 . S
C454 C453 1.523 . S
C455 C439 1.429 . S
C455 C451 1.429 . S
C455 C456 1.523 . S
C456 C440 1.368 1_565 S
C456 C452 1.368 . S
C456 C455 1.523 . S
H457 C432 0.950 . S
H458 C434 0.950 . S
H459 C435 0.949 . S
H460 C437 0.950 . S
H461 C439 0.950 . S
C462 C463 1.349 . S
C462 C464 1.327 . S
C462 H487 0.950 . S
C463 C462 1.349 . S
C463 C479 1.349 . S
C464 C462 1.327 . S
C464 C483 1.429 . S
C464 H488 0.950 . S
C465 C482 1.574 . S
C465 C484 1.368 . S
C465 H489 0.949 . S
H466 C470 0.949 . S
C467 C468 1.349 . S
C467 C469 1.327 . S
C467 H490 0.950 . S
C468 C467 1.349 . S
C468 C480 1.349 . S
C469 C467 1.327 . S
C469 C485 1.429 . S
C469 H491 0.950 . S
C470 H466 0.949 . S
C470 C478 1.574 . S
C470 C486 1.368 . S
H471 C479 0.950 . S
H472 C477 0.950 . S
H473 C478 0.949 . S
H474 C480 0.950 . S
H475 C481 0.950 . S
H476 C482 0.949 . S
C477 H472 0.950 . S
C477 C479 1.327 . S
C477 C483 1.429 . S
C478 C470 1.574 . S
C478 H473 0.949 . S
C478 C484 1.368 . S
C479 C463 1.349 . S
C479 H471 0.950 . S
C479 C477 1.327 . S
C480 C468 1.349 . S
C480 H474 0.950 . S
C480 C481 1.327 . S
C481 H475 0.950 . S
C481 C480 1.327 . S
C481 C485 1.429 . S
C482 C465 1.574 . S
C482 H476 0.949 . S
C482 C486 1.368 . S
C483 C464 1.429 . S
C483 C477 1.429 . S
C483 C484 1.523 . S
C484 C465 1.368 . S
C484 C478 1.368 . S
C484 C483 1.523 . S
C485 C469 1.429 . S
C485 C481 1.429 . S
C485 C486 1.523 . S
C486 C470 1.368 . S
C486 C482 1.368 . S
C486 C485 1.523 . S
H487 C462 0.950 . S
H488 C464 0.950 . S
H489 C465 0.949 . S
H490 C467 0.950 . S
H491 C469 0.950 . S
C492 C493 1.349 1_554 S
C492 C494 1.327 . S
C492 H517 0.950 . S
C493 C492 1.349 1_556 S
C493 C509 1.349 . S
C494 C492 1.327 . S
C494 C513 1.429 1_554 S
C494 H518 0.950 . S
C495 C512 1.574 . S
C495 C514 1.368 1_655 S
C495 H519 0.949 . S
H496 C500 0.949 . S
C497 C498 1.349 . S
C497 C499 1.327 . S
C497 H520 0.950 . S
C498 C497 1.349 . S
C498 C510 1.349 1_556 S
C499 C497 1.327 . S
C499 C515 1.429 . S
C499 H521 0.950 . S
C500 H496 0.949 . S
C500 C508 1.574 . S
C500 C516 1.368 1_454 S
H501 C509 0.950 . S
H502 C507 0.950 . S
H503 C508 0.949 . S
H504 C510 0.950 . S
H505 C511 0.950 . S
H506 C512 0.949 . S
C507 H502 0.950 . S
C507 C509 1.327 . S
C507 C513 1.429 . S
C508 C500 1.574 . S
C508 H503 0.949 . S
C508 C514 1.368 1_554 S
C509 C493 1.349 . S
C509 H501 0.950 . S
C509 C507 1.327 . S
C510 C498 1.349 1_554 S
C510 H504 0.950 . S
C510 C511 1.327 . S
C511 H505 0.950 . S
C511 C510 1.327 . S
C511 C515 1.429 1_554 S
C512 C495 1.574 . S
C512 H506 0.949 . S
C512 C516 1.368 . S
C513 C494 1.429 1_556 S
C513 C507 1.429 . S
C513 C514 1.523 . S
C514 C495 1.368 1_455 S
C514 C508 1.368 1_556 S
C514 C513 1.523 . S
C515 C499 1.429 . S
C515 C511 1.429 1_556 S
C515 C516 1.523 . S
C516 C500 1.368 1_656 S
C516 C512 1.368 . S
C516 C515 1.523 . S
H517 C492 0.950 . S
H518 C494 0.950 . S
H519 C495 0.949 . S
H520 C497 0.950 . S
H521 C499 0.950 . S
C522 C523 1.349 . S
C522 C524 1.327 . S
C522 H547 0.950 . S
C523 C522 1.349 . S
C523 C539 1.349 . S
C524 C522 1.327 . S
C524 C543 1.429 . S
C524 H548 0.950 . S
C525 C542 1.574 . S
C525 C544 1.368 . S
C525 H549 0.949 . S
H526 C530 0.949 . S
C527 C528 1.349 . S
C527 C529 1.327 . S
C527 H550 0.950 . S
C528 C527 1.349 . S
C528 C540 1.349 . S
C529 C527 1.327 . S
C529 C545 1.429 . S
C529 H551 0.950 . S
C530 H526 0.949 . S
C530 C538 1.574 . S
C530 C546 1.368 . S
H531 C539 0.950 . S
H532 C537 0.950 . S
H533 C538 0.949 . S
H534 C540 0.950 . S
H535 C541 0.950 . S
H536 C542 0.949 . S
C537 H532 0.950 . S
C537 C539 1.327 . S
C537 C543 1.429 . S
C538 C530 1.574 . S
C538 H533 0.949 . S
C538 C544 1.368 1_545 S
C539 C523 1.349 . S
C539 H531 0.950 . S
C539 C537 1.327 . S
C540 C528 1.349 . S
C540 H534 0.950 . S
C540 C541 1.327 . S
C541 H535 0.950 . S
C541 C540 1.327 . S
C541 C545 1.429 . S
C542 C525 1.574 . S
C542 H536 0.949 . S
C542 C546 1.368 1_565 S
C543 C524 1.429 . S
C543 C537 1.429 . S
C543 C544 1.523 . S
C544 C525 1.368 . S
C544 C538 1.368 1_565 S
C544 C543 1.523 . S
C545 C529 1.429 . S
C545 C541 1.429 . S
C545 C546 1.523 . S
C546 C530 1.368 . S
C546 C542 1.368 1_545 S
C546 C545 1.523 . S
H547 C522 0.950 . S
H548 C524 0.950 . S
H549 C525 0.949 . S
H550 C527 0.950 . S
H551 C529 0.950 . S
C552 C553 1.349 . S
C552 C554 1.327 . S
C552 H577 0.950 . S
C553 C552 1.349 . S
C553 C569 1.349 . S
C554 C552 1.327 . S
C554 C573 1.429 . S
C554 H578 0.950 . S
C555 C572 1.574 . S
C555 C574 1.368 . S
C555 H579 0.949 . S
H556 C560 0.949 . S
C557 C558 1.349 . S
C557 C559 1.327 . S
C557 H580 0.950 . S
C558 C557 1.349 . S
C558 C570 1.349 . S
C559 C557 1.327 . S
C559 C575 1.429 . S
C559 H581 0.950 . S
C560 H556 0.949 . S
C560 C568 1.574 . S
C560 C576 1.368 . S
H561 C569 0.950 . S
H562 C567 0.950 . S
H563 C568 0.949 . S
H564 C570 0.950 . S
H565 C571 0.950 . S
H566 C572 0.949 . S
C567 H562 0.950 . S
C567 C569 1.327 . S
C567 C573 1.429 . S
C568 C560 1.574 . S
C568 H563 0.949 . S
C568 C574 1.368 . S
C569 C553 1.349 . S
C569 H561 0.950 . S
C569 C567 1.327 . S
C570 C558 1.349 . S
C570 H564 0.950 . S
C570 C571 1.327 . S
C571 H565 0.950 . S
C571 C570 1.327 . S
C571 C575 1.429 . S
C572 C555 1.574 . S
C572 H566 0.949 . S
C572 C576 1.368 . S
C573 C554 1.429 . S
C573 C567 1.429 . S
C573 C574 1.523 . S
C574 C555 1.368 . S
C574 C568 1.368 . S
C574 C573 1.523 . S
C575 C559 1.429 . S
C575 C571 1.429 . S
C575 C576 1.523 . S
C576 C560 1.368 . S
C576 C572 1.368 . S
C576 C575 1.523 . S
H577 C552 0.950 . S
H578 C554 0.950 . S
H579 C555 0.949 . S
H580 C557 0.950 . S
H581 C559 0.950 . S
C582 C583 1.349 . S
C582 C584 1.327 . S
C582 H607 0.950 . S
C583 C582 1.349 . S
C583 C599 1.349 . S
C584 C582 1.327 . S
C584 C603 1.429 . S
C584 H608 0.950 . S
C585 C602 1.574 . S
C585 C604 1.368 . S
C585 H609 0.949 . S
H586 C590 0.949 . S
C587 C588 1.349 . S
C587 C589 1.327 . S
C587 H610 0.950 . S
C588 C587 1.349 . S
C588 C600 1.349 . S
C589 C587 1.327 . S
C589 C605 1.429 . S
C589 H611 0.950 . S
C590 H586 0.949 . S
C590 C598 1.574 . S
C590 C606 1.368 . S
H591 C599 0.950 . S
H592 C597 0.950 . S
H593 C598 0.949 . S
H594 C600 0.950 . S
H595 C601 0.950 . S
H596 C602 0.949 . S
C597 H592 0.950 . S
C597 C599 1.327 . S
C597 C603 1.429 . S
C598 C590 1.574 . S
C598 H593 0.949 . S
C598 C604 1.368 . S
C599 C583 1.349 . S
C599 H591 0.950 . S
C599 C597 1.327 . S
C600 C588 1.349 . S
C600 H594 0.950 . S
C600 C601 1.327 . S
C601 H595 0.950 . S
C601 C600 1.327 . S
C601 C605 1.429 . S
C602 C585 1.574 . S
C602 H596 0.949 . S
C602 C606 1.368 . S
C603 C584 1.429 . S
C603 C597 1.429 . S
C603 C604 1.523 1_655 S
C604 C585 1.368 . S
C604 C598 1.368 . S
C604 C603 1.523 1_455 S
C605 C589 1.429 . S
C605 C601 1.429 . S
C605 C606 1.523 . S
C606 C590 1.368 . S
C606 C602 1.368 . S
C606 C605 1.523 . S
H607 C582 0.950 . S
H608 C584 0.950 . S
H609 C585 0.949 . S
H610 C587 0.950 . S
H611 C589 0.950 . S
C612 C613 1.349 . S
C612 C614 1.327 . S
C612 H637 0.950 . S
C613 C612 1.349 . S
C613 C629 1.349 . S
C614 C612 1.327 . S
C614 C633 1.429 . S
C614 H638 0.950 . S
C615 C632 1.574 . S
C615 C634 1.368 . S
C615 H639 0.949 . S
H616 C620 0.949 . S
C617 C618 1.349 . S
C617 C619 1.327 . S
C617 H640 0.950 . S
C618 C617 1.349 . S
C618 C630 1.349 . S
C619 C617 1.327 . S
C619 C635 1.429 . S
C619 H641 0.950 . S
C620 H616 0.949 . S
C620 C628 1.574 1_545 S
C620 C636 1.368 . S
H621 C629 0.950 . S
H622 C627 0.950 1_545 S
H623 C628 0.949 . S
H624 C630 0.950 . S
H625 C631 0.950 . S
H626 C632 0.949 . S
C627 H622 0.950 1_565 S
C627 C629 1.327 . S
C627 C633 1.429 . S
C628 C620 1.574 1_565 S
C628 H623 0.949 . S
C628 C634 1.368 1_565 S
C629 C613 1.349 . S
C629 H621 0.950 . S
C629 C627 1.327 . S
C630 C618 1.349 . S
C630 H624 0.950 . S
C630 C631 1.327 . S
C631 H625 0.950 . S
C631 C630 1.327 . S
C631 C635 1.429 . S
C632 C615 1.574 . S
C632 H626 0.949 . S
C632 C636 1.368 . S
C633 C614 1.429 . S
C633 C627 1.429 . S
C633 C634 1.523 1_565 S
C634 C615 1.368 . S
C634 C628 1.368 1_545 S
C634 C633 1.523 1_545 S
C635 C619 1.429 . S
C635 C631 1.429 . S
C635 C636 1.523 . S
C636 C620 1.368 . S
C636 C632 1.368 . S
C636 C635 1.523 . S
H637 C612 0.950 . S
H638 C614 0.950 . S
H639 C615 0.949 . S
H640 C617 0.950 . S
H641 C619 0.950 . S
C642 C643 1.349 . S
C642 C644 1.327 . S
C642 H667 0.950 . S
C643 C642 1.349 . S
C643 C659 1.349 . S
C644 C642 1.327 . S
C644 C663 1.429 . S
C644 H668 0.950 . S
C645 C662 1.574 . S
C645 C664 1.368 . S
C645 H669 0.949 . S
H646 C650 0.949 . S
C647 C648 1.349 . S
C647 C649 1.327 . S
C647 H670 0.950 . S
C648 C647 1.349 . S
C648 C660 1.349 . S
C649 C647 1.327 . S
C649 C665 1.429 . S
C649 H671 0.950 . S
C650 H646 0.949 . S
C650 C658 1.574 . S
C650 C666 1.368 . S
H651 C659 0.950 . S
H652 C657 0.950 . S
H653 C658 0.949 . S
H654 C660 0.950 . S
H655 C661 0.950 . S
H656 C662 0.949 . S
C657 H652 0.950 . S
C657 C659 1.327 . S
C657 C663 1.429 . S
C658 C650 1.574 . S
C658 H653 0.949 . S
C658 C664 1.368 . S
C659 C643 1.349 . S
C659 H651 0.950 . S
C659 C657 1.327 . S
C660 C648 1.349 . S
C660 H654 0.950 . S
C660 C661 1.327 . S
C661 H655 0.950 . S
C661 C660 1.327 . S
C661 C665 1.429 . S
C662 C645 1.574 . S
C662 H656 0.949 . S
C662 C666 1.368 . S
C663 C644 1.429 . S
C663 C657 1.429 . S
C663 C664 1.523 . S
C664 C645 1.368 . S
C664 C658 1.368 . S
C664 C663 1.523 . S
C665 C649 1.429 . S
C665 C661 1.429 . S
C665 C666 1.523 . S
C666 C650 1.368 . S
C666 C662 1.368 . S
C666 C665 1.523 . S
H667 C642 0.950 . S
H668 C644 0.950 . S
H669 C645 0.949 . S
H670 C647 0.950 . S
H671 C649 0.950 . S
C672 C673 1.349 . S
C672 C674 1.327 . S
C672 H697 0.950 . S
C673 C672 1.349 . S
C673 C689 1.349 . S
C674 C672 1.327 . S
C674 C693 1.429 . S
C674 H698 0.950 . S
C675 C692 1.574 . S
C675 C694 1.368 . S
C675 H699 0.949 . S
H676 C680 0.949 . S
C677 C678 1.349 . S
C677 C679 1.327 . S
C677 H700 0.950 . S
C678 C677 1.349 . S
C678 C690 1.349 . S
C679 C677 1.327 . S
C679 C695 1.429 . S
C679 H701 0.950 . S
C680 H676 0.949 . S
C680 C688 1.574 . S
C680 C696 1.368 . S
H681 C689 0.950 . S
H682 C687 0.949 1_655 S
H683 C688 0.949 1_455 S
H684 C690 0.950 . S
H685 C691 0.950 . S
H686 C692 0.949 . S
C687 H682 0.949 1_455 S
C687 C689 1.327 . S
C687 C693 1.429 . S
C688 C680 1.574 . S
C688 H683 0.949 1_655 S
C688 C694 1.368 . S
C689 C673 1.349 . S
C689 H681 0.950 . S
C689 C687 1.327 . S
C690 C678 1.349 . S
C690 H684 0.950 . S
C690 C691 1.327 . S
C691 H685 0.950 . S
C691 C690 1.327 . S
C691 C695 1.429 . S
C692 C675 1.574 . S
C692 H686 0.949 . S
C692 C696 1.368 . S
C693 C674 1.429 . S
C693 C687 1.429 . S
C693 C694 1.523 1_455 S
C694 C675 1.368 . S
C694 C688 1.368 . S
C694 C693 1.523 1_655 S
C695 C679 1.429 . S
C695 C691 1.429 . S
C695 C696 1.523 . S
C696 C680 1.368 . S
C696 C692 1.368 . S
C696 C695 1.523 . S
H697 C672 0.950 . S
H698 C674 0.950 . S
H699 C675 0.949 . S
H700 C677 0.950 . S
H701 C679 0.950 . S
C702 C703 1.349 . S
C702 C704 1.327 . S
C702 H727 0.950 . S
C703 C702 1.349 . S
C703 C719 1.349 . S
C704 C702 1.327 . S
C704 C723 1.429 . S
C704 H728 0.950 . S
C705 C722 1.574 . S
C705 C724 1.368 . S
C705 H729 0.949 . S
H706 C710 0.949 . S
C707 C708 1.349 . S
C707 C709 1.327 . S
C707 H730 0.950 . S
C708 C707 1.349 . S
C708 C720 1.349 . S
C709 C707 1.327 . S
C709 C725 1.429 . S
C709 H731 0.950 . S
C710 H706 0.949 . S
C710 C718 1.574 1_565 S
C710 C726 1.368 . S
H711 C719 0.950 . S
H712 C717 0.950 1_565 S
H713 C718 0.949 . S
H714 C720 0.950 . S
H715 C721 0.950 . S
H716 C722 0.949 . S
C717 H712 0.950 1_545 S
C717 C719 1.327 . S
C717 C723 1.429 . S
C718 C710 1.574 1_545 S
C718 H713 0.949 . S
C718 C724 1.368 1_545 S
C719 C703 1.349 . S
C719 H711 0.950 . S
C719 C717 1.327 . S
C720 C708 1.349 . S
C720 H714 0.950 . S
C720 C721 1.327 . S
C721 H715 0.950 . S
C721 C720 1.327 . S
C721 C725 1.429 . S
C722 C705 1.574 . S
C722 H716 0.949 . S
C722 C726 1.368 . S
C723 C704 1.429 . S
C723 C717 1.429 . S
C723 C724 1.523 1_545 S
C724 C705 1.368 . S
C724 C718 1.368 1_565 S
C724 C723 1.523 1_565 S
C725 C709 1.429 . S
C725 C721 1.429 . S
C725 C726 1.523 . S
C726 C710 1.368 . S
C726 C722 1.368 . S
C726 C725 1.523 . S
H727 C702 0.950 . S
H728 C704 0.950 . S
H729 C705 0.949 . S
H730 C707 0.950 . S
H731 C709 0.950 . S
C193 C157 0.515 . S
C198 N18 0.526 . S
C223 C164 0.515 . S
C228 N45 0.526 . S
C253 C29 0.515 . S
C258 N82 0.526 . S
C283 C36 0.515 . S
C288 N114 0.526 . S
C313 C93 0.515 . S
C318 N146 0.526 . S
C343 C125 0.515 . S
C348 N173 0.526 . S
C373 C6 1.348 . S
C378 C102 1.348 . S
C403 C134 1.348 . S
C408 C34 1.348 . S
C433 C162 1.348 . S
C438 C70 1.348 . S
C463 C68 1.279 . S
C468 C189 1.279 . S
C493 C4 1.279 . S
C498 C100 1.279 . S
C523 C132 1.279 . S
C528 C61 1.279 . S
C553 C166 0.669 . S
C558 N13 0.668 . S
C583 N50 0.667 . S
C588 C2 0.669 . S
C613 N77 0.667 . S
C618 C38 0.669 . S
C643 C66 0.669 . S
C648 N109 0.668 . S
C673 N141 0.667 . S
C678 C98 0.669 . S
C703 N178 0.667 . S
C708 C130 0.669 . S
