# Generated by pormake.
# Topology nov, (5)-cn, num edge types: 1
# Building blocks:
#     Node 0, Type 0, BuildingBlock: BEQFEK_clean_sbu_0, # of connection points: 5
#     Node 1, Type 0, BuildingBlock: BEQFEK_clean_sbu_0, # of connection points: 5
#     Node 2, Type 0, BuildingBlock: BEQFEK_clean_sbu_0, # of connection points: 5
#     Node 3, Type 0, BuildingBlock: BEQFEK_clean_sbu_0, # of connection points: 5
#     Node 4, Type 0, BuildingBlock: BEQFEK_clean_sbu_0, # of connection points: 5
#     Node 5, Type 0, BuildingBlock: BEQFEK_clean_sbu_0, # of connection points: 5
#     Node 6, Type 0, BuildingBlock: BEQFEK_clean_sbu_0, # of connection points: 5
#     Node 7, Type 0, BuildingBlock: BEQFEK_clean_sbu_0, # of connection points: 5
#     Edge 8, Type (0, 0), BuildingBlock: CIFDUS_clean_linker_0, # of connection points: 2
#     Edge 9, Type (0, 0), BuildingBlock: CIFDUS_clean_linker_0, # of connection points: 2
#     Edge 10, Type (0, 0), BuildingBlock: CIFDUS_clean_linker_0, # of connection points: 2
#     Edge 11, Type (0, 0), BuildingBlock: CIFDUS_clean_linker_0, # of connection points: 2
#     Edge 12, Type (0, 0), BuildingBlock: CIFDUS_clean_linker_0, # of connection points: 2
#     Edge 13, Type (0, 0), BuildingBlock: CIFDUS_clean_linker_0, # of connection points: 2
#     Edge 14, Type (0, 0), BuildingBlock: CIFDUS_clean_linker_0, # of connection points: 2
#     Edge 15, Type (0, 0), BuildingBlock: CIFDUS_clean_linker_0, # of connection points: 2
#     Edge 16, Type (0, 0), BuildingBlock: CIFDUS_clean_linker_0, # of connection points: 2
#     Edge 17, Type (0, 0), BuildingBlock: CIFDUS_clean_linker_0, # of connection points: 2
#     Edge 18, Type (0, 0), BuildingBlock: CIFDUS_clean_linker_0, # of connection points: 2
#     Edge 19, Type (0, 0), BuildingBlock: CIFDUS_clean_linker_0, # of connection points: 2
#     Edge 20, Type (0, 0), BuildingBlock: CIFDUS_clean_linker_0, # of connection points: 2
#     Edge 21, Type (0, 0), BuildingBlock: CIFDUS_clean_linker_0, # of connection points: 2
#     Edge 22, Type (0, 0), BuildingBlock: CIFDUS_clean_linker_0, # of connection points: 2
#     Edge 23, Type (0, 0), BuildingBlock: CIFDUS_clean_linker_0, # of connection points: 2
#     Edge 24, Type (0, 0), BuildingBlock: CIFDUS_clean_linker_0, # of connection points: 2
#     Edge 25, Type (0, 0), BuildingBlock: CIFDUS_clean_linker_0, # of connection points: 2
#     Edge 26, Type (0, 0), BuildingBlock: CIFDUS_clean_linker_0, # of connection points: 2
#     Edge 27, Type (0, 0), BuildingBlock: CIFDUS_clean_linker_0, # of connection points: 2
# Relax obj value: 0.076
# Max RMSD: 0.098
# Mean RMSD: 0.098
data_MOF--net-nov--node1-BEQFEK_clean_sbu_0--edge1-CIFDUS_clean_linker_0
_symmetry_space_group_name_H-M    P1
_symmetry_Int_Tables_number       1
_symmetry_cell_setting            triclinic
loop_
_symmetry_equiv_pos_as_xyz
'x, y, z'
_cell_length_a     34.459895
_cell_length_b     36.158191
_cell_length_c     22.820233
_cell_angle_alpha  90.035446
_cell_angle_beta   89.80594
_cell_angle_gamma 89.853457
loop_
_atom_site_label
_atom_site_type_symbol
_atom_site_fract_x
_atom_site_fract_y
_atom_site_fract_z
_atom_type_partial_charge
Co0 Co 0.96154 0.13857 0.17328 0.0
Co1 Co 0.05239 0.13042 0.16747 0.0
C2 C 1.00283 0.07025 0.12533 0.0
O3 O 0.97166 0.08857 0.13504 0.0
O4 O 0.03594 0.08321 0.13791 0.0
C5 C 0.88538 0.11536 0.21217 0.0
O6 O 0.90217 0.08281 0.21628 0.0
C7 C 0.1327 0.10601 0.19014 0.0
C8 C 0.16532 0.15552 0.16232 0.0
C9 C 0.16974 0.12049 0.1857 0.0
N10 N 0.10742 0.13152 0.17061 0.0
N11 N 0.1272 0.16081 0.15318 0.0
C12 C 0.12168 0.0682 0.21093 0.0
H13 H 0.08994 0.06643 0.21873 0.0
H14 H 0.13758 0.06106 0.25157 0.0
H15 H 0.13002 0.04766 0.17697 0.0
C16 C 0.98257 0.16056 0.29537 0.0
N17 N 0.99182 0.14614 0.24257 0.0
N18 N 0.02949 0.14024 0.24067 0.0
C19 C 0.04516 0.14902 0.29272 0.0
C20 C 0.0162 0.16294 0.329 0.0
C21 C 0.94347 0.17636 0.30973 0.0
H22 H 0.93053 0.18902 0.27007 0.0
H23 H 0.92412 0.15374 0.32466 0.0
H24 H 0.94518 0.19764 0.34463 0.0
O25 O 0.97419 0.1781 0.11577 0.0
O26 O 0.03787 0.16912 0.11101 0.0
H27 H 0.105 0.16366 0.28206 0.0
H28 H 0.09279 0.14731 0.35491 0.0
C29 C 0.08714 0.1438 0.30744 0.0
H30 H 0.09604 0.11543 0.29556 0.0
H31 H 0.11458 0.18481 0.13638 0.0
O32 O 0.90516 0.14273 0.19395 0.0
C33 C 1.0074 0.18605 0.09459 0.0
Co34 Co 0.59623 0.85294 0.68409 0.0
Co35 Co 0.50428 0.852 0.67225 0.0
C36 C 0.55319 0.91286 0.62176 0.0
O37 O 0.58425 0.89854 0.64115 0.0
O38 O 0.52027 0.89798 0.63101 0.0
C39 C 0.67591 0.87587 0.67725 0.0
O40 O 0.66187 0.89674 0.63527 0.0
C41 C 0.42173 0.87107 0.69863 0.0
C42 C 0.39199 0.82956 0.64381 0.0
C43 C 0.38515 0.85885 0.68159 0.0
N44 N 0.4487 0.84979 0.67205 0.0
N45 N 0.43059 0.82511 0.63939 0.0
C46 C 0.43115 0.90378 0.73603 0.0
H47 H 0.46118 0.91336 0.72708 0.0
H48 H 0.42916 0.89584 0.78286 0.0
H49 H 0.4101 0.92651 0.72807 0.0
C50 C 0.57518 0.83837 0.80644 0.0
N51 N 0.56456 0.84917 0.75251 0.0
N52 N 0.5266 0.84632 0.74761 0.0
C53 C 0.51218 0.83134 0.79722 0.0
C54 C 0.54254 0.82579 0.83647 0.0
C55 C 0.61649 0.83723 0.82649 0.0
H56 H 0.63183 0.81406 0.80438 0.0
H57 H 0.63122 0.8633 0.81388 0.0
H58 H 0.61837 0.8337 0.87471 0.0
O59 O 0.58623 0.80984 0.63067 0.0
O60 O 0.52163 0.80984 0.62589 0.0
H61 H 0.46234 0.80588 0.75756 0.0
H62 H 0.47176 0.79053 0.83088 0.0
C63 C 0.47237 0.81484 0.80134 0.0
H64 H 0.45191 0.8359 0.81869 0.0
H65 H 0.44461 0.80532 0.61357 0.0
O66 O 0.65318 0.85397 0.70437 0.0
C67 C 0.55438 0.79596 0.61272 0.0
Co68 Co 0.97381 0.84721 0.8205 0.0
Co69 Co 0.06428 0.85512 0.84122 0.0
C70 C 1.00524 0.91036 0.88744 0.0
O71 O 0.97654 0.89401 0.86428 0.0
O72 O 0.03979 0.8982 0.88141 0.0
C73 C 0.89777 0.8677 0.78029 0.0
O74 O 0.91384 0.90055 0.77696 0.0
C75 C 0.14575 0.88016 0.81799 0.0
C76 C 0.17677 0.84648 0.88376 0.0
C77 C 0.18257 0.8721 0.83961 0.0
N78 N 0.1196 0.85977 0.8478 0.0
N79 N 0.13846 0.84008 0.88735 0.0
C80 C 0.13527 0.90857 0.7731 0.0
H81 H 0.1035 0.9138 0.77347 0.0
H82 H 0.14395 0.89895 0.72889 0.0
H83 H 0.15119 0.93462 0.78197 0.0
C84 C 1.0017 0.83596 0.69937 0.0
N85 N 1.00856 0.84681 0.75478 0.0
N86 N 0.04637 0.84755 0.7635 0.0
C87 C 0.06454 0.83501 0.71484 0.0
C88 C 0.03687 0.82764 0.67229 0.0
C89 C 0.96193 0.83043 0.67477 0.0
H90 H 0.94775 0.80683 0.69729 0.0
H91 H 0.94425 0.85556 0.68286 0.0
H92 H 0.96285 0.82515 0.62689 0.0
O93 O 0.98705 0.80591 0.87579 0.0
O94 O 0.05109 0.81082 0.88531 0.0
H95 H 0.11679 0.81706 0.75852 0.0
H96 H 0.108 0.79499 0.68932 0.0
C97 C 0.1057 0.82149 0.71366 0.0
H98 H 0.12408 0.84195 0.69055 0.0
H99 H 0.12519 0.82182 0.91657 0.0
O100 O 0.9184 0.84033 0.79648 0.0
C101 C 0.01934 0.79449 0.89627 0.0
Co102 Co 0.58913 0.13794 0.33645 0.0
Co103 Co 0.49831 0.13143 0.32886 0.0
C104 C 0.54266 0.07125 0.38044 0.0
O105 O 0.57402 0.08967 0.37479 0.0
O106 O 0.51063 0.08343 0.36108 0.0
C107 C 0.66078 0.10589 0.3031 0.0
O108 O 0.63742 0.0777 0.29501 0.0
C109 C 0.41918 0.10961 0.29543 0.0
C110 C 0.3862 0.15993 0.3193 0.0
C111 C 0.38235 0.12485 0.2959 0.0
N112 N 0.4439 0.13467 0.31752 0.0
N113 N 0.42391 0.16453 0.33225 0.0
C114 C 0.43038 0.07147 0.27622 0.0
H115 H 0.46236 0.06886 0.27218 0.0
H116 H 0.41648 0.06471 0.23377 0.0
H117 H 0.41978 0.05125 0.30912 0.0
C118 C 0.57689 0.16021 0.21243 0.0
N119 N 0.56374 0.14597 0.26333 0.0
N120 N 0.5261 0.14079 0.2593 0.0
C121 C 0.51428 0.15007 0.2051 0.0
C122 C 0.54591 0.16334 0.17363 0.0
C123 C 0.61701 0.17529 0.2046 0.0
H124 H 0.62819 0.18575 0.24697 0.0
H125 H 0.63647 0.15279 0.18914 0.0
H126 H 0.61757 0.19809 0.17213 0.0
O127 O 0.57461 0.17823 0.39197 0.0
O128 O 0.51086 0.16904 0.38873 0.0
H129 H 0.45468 0.16703 0.20632 0.0
H130 H 0.47117 0.14968 0.13591 0.0
C131 C 0.47337 0.14628 0.18406 0.0
H132 H 0.46259 0.11839 0.19503 0.0
H133 H 0.43613 0.18826 0.35048 0.0
O134 O 0.64661 0.13613 0.3223 0.0
C135 C 0.54027 0.18572 0.40953 0.0
Co136 Co 0.46523 0.64126 0.18927 0.0
Co137 Co 0.55645 0.63518 0.16931 0.0
C138 C 0.50411 0.5767 0.12614 0.0
O139 O 0.47372 0.5935 0.14442 0.0
O140 O 0.5378 0.58942 0.13583 0.0
C141 C 0.38234 0.62586 0.19271 0.0
O142 O 0.39068 0.60537 0.14678 0.0
C143 C 0.63875 0.61209 0.18329 0.0
C144 C 0.66884 0.65888 0.14086 0.0
C145 C 0.67529 0.62581 0.16975 0.0
N146 N 0.61193 0.63625 0.16381 0.0
N147 N 0.63021 0.6639 0.13788 0.0
C148 C 0.6294 0.57594 0.21183 0.0
H149 H 0.59756 0.57277 0.21737 0.0
H150 H 0.64372 0.57401 0.25515 0.0
H151 H 0.64088 0.55305 0.18433 0.0
C152 C 0.49407 0.6625 0.30704 0.0
N153 N 0.50021 0.64692 0.25406 0.0
N154 N 0.5379 0.64313 0.2459 0.0
C155 C 0.55674 0.65566 0.29345 0.0
C156 C 0.52977 0.66879 0.33353 0.0
C157 C 0.45549 0.67712 0.32661 0.0
H158 H 0.44398 0.69632 0.2929 0.0
H159 H 0.43478 0.65381 0.33062 0.0
H160 H 0.45742 0.69173 0.36927 0.0
O161 O 0.47412 0.68296 0.13329 0.0
O162 O 0.53755 0.67536 0.11937 0.0
H163 H 0.61038 0.67817 0.26198 0.0
H164 H 0.60907 0.67095 0.34041 0.0
C165 C 0.5999 0.65971 0.29741 0.0
H166 H 0.6136 0.63226 0.29209 0.0
H167 H 0.61632 0.68656 0.11887 0.0
O168 O 0.40961 0.64353 0.21779 0.0
C169 C 0.50589 0.69213 0.10842 0.0
Co170 Co 0.11154 0.34801 0.67319 0.0
Co171 Co 0.02045 0.3478 0.66211 0.0
C172 C 0.07084 0.40937 0.61407 0.0
O173 O 0.10232 0.39561 0.63324 0.0
O174 O 0.03832 0.39375 0.62332 0.0
C175 C 0.18807 0.37312 0.7029 0.0
O176 O 0.17143 0.40579 0.69977 0.0
C177 C 0.94217 0.36845 0.70288 0.0
C178 C 0.90554 0.33405 0.64534 0.0
C179 C 0.90391 0.35901 0.69136 0.0
N180 N 0.96524 0.34947 0.66589 0.0
N181 N 0.94313 0.3293 0.6312 0.0
C182 C 0.95665 0.39644 0.74586 0.0
H183 H 0.98557 0.40682 0.73209 0.0
H184 H 0.95968 0.38359 0.78965 0.0
H185 H 0.93576 0.41975 0.74972 0.0
C186 C 0.09073 0.33037 0.79568 0.0
N187 N 0.08046 0.34227 0.74201 0.0
N188 N 0.04268 0.3388 0.73616 0.0
C189 C 0.02809 0.32211 0.78419 0.0
C190 C 0.05796 0.31669 0.82416 0.0
C191 C 0.13166 0.33001 0.81738 0.0
H192 H 0.14589 0.35653 0.80606 0.0
H193 H 0.13278 0.32618 0.86559 0.0
H194 H 0.14796 0.30732 0.79556 0.0
O195 O 0.0994 0.30787 0.61485 0.0
O196 O 0.0348 0.30694 0.61143 0.0
H197 H 0.99142 0.27601 0.8079 0.0
H198 H 0.96817 0.32038 0.80983 0.0
C199 C 0.98939 0.30315 0.78542 0.0
H200 H 0.97861 0.2983 0.74046 0.0
H201 H 0.95377 0.31171 0.59856 0.0
O202 O 0.16781 0.3444 0.69324 0.0
C203 C 0.06765 0.29441 0.59549 0.0
Co204 Co 0.48345 0.35778 0.82646 0.0
Co205 Co 0.57394 0.35083 0.84259 0.0
C206 C 0.52802 0.41553 0.88966 0.0
O207 O 0.49582 0.40346 0.87054 0.0
O208 O 0.55958 0.39816 0.88019 0.0
C209 C 0.41143 0.39116 0.79377 0.0
O210 O 0.43215 0.42144 0.79871 0.0
C211 C 0.65361 0.36955 0.80955 0.0
C212 C 0.68765 0.328 0.85846 0.0
C213 C 0.69116 0.35697 0.81907 0.0
N214 N 0.62913 0.34859 0.84114 0.0
N215 N 0.64967 0.32409 0.87083 0.0
C216 C 0.64107 0.40193 0.77335 0.0
H217 H 0.6134 0.41345 0.79053 0.0
H218 H 0.63611 0.39298 0.72755 0.0
H219 H 0.66384 0.42359 0.77313 0.0
C220 C 0.50669 0.34214 0.70326 0.0
N221 N 0.51582 0.3508 0.75901 0.0
N222 N 0.5532 0.34522 0.7667 0.0
C223 C 0.56865 0.33101 0.71721 0.0
C224 C 0.53988 0.32916 0.67481 0.0
C225 C 0.46644 0.34432 0.67909 0.0
H226 H 0.44858 0.32186 0.69831 0.0
H227 H 0.45311 0.37113 0.69155 0.0
H228 H 0.46643 0.34188 0.63062 0.0
O229 O 0.49043 0.31583 0.88279 0.0
O230 O 0.55457 0.31072 0.89199 0.0
H231 H 0.61599 0.3022 0.75882 0.0
H232 H 0.60616 0.28725 0.68539 0.0
C233 C 0.60723 0.31171 0.71471 0.0
H234 H 0.6295 0.33085 0.69725 0.0
H235 H 0.6377 0.30422 0.89863 0.0
O236 O 0.42761 0.36007 0.80319 0.0
C237 C 0.52036 0.3002 0.90464 0.0
Co238 Co 0.08579 0.63624 0.32776 0.0
Co239 Co 0.99447 0.62628 0.33799 0.0
C240 C 0.04554 0.56604 0.37308 0.0
O241 O 0.07545 0.58602 0.36357 0.0
O242 O 1.01157 0.5774 0.36103 0.0
C243 C 0.15451 0.61357 0.26761 0.0
O244 O 0.12956 0.58958 0.24665 0.0
C245 C 0.91137 0.60642 0.31914 0.0
C246 C 0.88271 0.65488 0.35961 0.0
C247 C 0.87529 0.62195 0.33098 0.0
N248 N 0.93892 0.62941 0.33956 0.0
N249 N 0.92143 0.65811 0.36411 0.0
C250 C 0.91938 0.56966 0.29147 0.0
H251 H 0.95105 0.56522 0.28587 0.0
H252 H 0.90484 0.56785 0.24829 0.0
H253 H 0.90717 0.5475 0.31961 0.0
C254 C 0.06056 0.66457 0.21094 0.0
N255 N 0.05321 0.64664 0.26163 0.0
N256 N 0.01562 0.64046 0.26533 0.0
C257 C 0.99814 0.65313 0.21669 0.0
C258 C 0.0258 0.66938 0.1809 0.0
C259 C 0.09895 0.68144 0.19599 0.0
H260 H 0.11451 0.68937 0.23654 0.0
H261 H 0.1168 0.66076 0.17204 0.0
H262 H 0.09541 0.70617 0.16772 0.0
O263 O 0.07498 0.67343 0.39014 0.0
O264 O 1.01206 0.66094 0.39897 0.0
H265 H 0.9397 0.66928 0.23633 0.0
H266 H 0.94804 0.65837 0.15987 0.0
C267 C 0.95544 0.65077 0.20556 0.0
H268 H 0.94573 0.62206 0.21298 0.0
H269 H 0.93599 0.68023 0.38343 0.0
O270 O 0.14238 0.63755 0.3043 0.0
C271 C 0.04231 0.67809 0.41555 0.0
H272 H 0.04701 0.92886 0.98234 0.0
H273 H 0.94571 0.96063 0.88394 0.0
H274 H 0.93274 0.01098 0.95342 0.0
H275 H 0.95269 0.04792 0.03983 0.0
H276 H 0.05351 0.0139 0.13791 0.0
H277 H 0.06353 0.96186 0.07187 0.0
C278 C 0.02225 0.94699 0.97583 0.0
C279 C 0.99784 0.94164 0.92753 0.0
C280 C 0.01453 0.97508 0.0165 0.0
C281 C 0.96521 0.9646 0.92053 0.0
C282 C 0.95768 -0.00678 0.96037 0.0
C283 C 0.97617 0.02851 0.04748 0.0
C284 C 1.00239 0.03477 0.09348 0.0
C285 C 0.9823 -0.00114 0.00845 0.0
C286 C 0.03302 0.00968 0.10261 0.0
C287 C 0.03898 0.98008 0.06464 0.0
H288 H 0.59571 0.04876 0.46111 0.0
H289 H 0.48658 0.01844 0.38224 0.0
H290 H 0.47923 0.96799 0.4521 0.0
H291 H 0.50249 0.93376 0.5376 0.0
H292 H 0.61183 0.96326 0.61623 0.0
H293 H 0.62004 0.01312 0.54508 0.0
C294 C 0.57067 0.03072 0.45859 0.0
C295 C 0.54177 0.03738 0.41655 0.0
C296 C 0.56622 0.00208 0.49959 0.0
C297 C 0.50926 0.01396 0.41425 0.0
C298 C 0.50487 0.98523 0.4544 0.0
C299 C 0.52787 0.9514 0.53961 0.0
C300 C 0.55627 0.94511 0.58246 0.0
C301 C 0.5328 0.97946 0.49789 0.0
C302 C 0.58943 0.96769 0.58378 0.0
C303 C 0.59426 -0.00393 0.54295 0.0
H304 H 0.5628 0.54329 0.06783 0.0
H305 H 0.43861 0.5384 0.09265 0.0
H306 H 0.43463 0.48921 0.01884 0.0
H307 H 0.46687 0.44803 0.94674 0.0
H308 H 0.59105 0.45537 0.92257 0.0
H309 H 0.59429 0.50401 0.99607 0.0
C310 C 0.53472 0.53143 0.05771 0.0
C311 C 0.50104 0.54446 0.08619 0.0
C312 C 0.53259 0.50401 0.01463 0.0
C313 C 0.46504 0.52875 0.07178 0.0
C314 C 0.46274 0.50082 0.02929 0.0
C315 C 0.49456 0.46062 0.95704 0.0
C316 C 0.52869 0.44803 0.92907 0.0
C317 C 0.49634 0.48845 1.00007 0.0
C318 C 0.56436 0.46443 0.94336 0.0
C319 C 0.56629 0.49215 0.98562 0.0
H320 H 0.01869 0.42666 0.53067 0.0
H321 H 0.1277 0.46195 0.6041 0.0
H322 H 0.13181 0.51164 0.53135 0.0
H323 H 0.10299 0.54612 0.4487 0.0
H324 H 0.99436 0.50915 0.37562 0.0
H325 H 0.99213 0.45834 0.44556 0.0
C326 C 0.04319 0.44544 0.53125 0.0
C327 C 0.07249 0.44109 0.57337 0.0
C328 C 0.04578 0.47319 0.48866 0.0
C329 C 0.10454 0.46505 0.57249 0.0
C330 C 0.10701 0.49328 0.53071 0.0
C331 C 0.07932 0.52643 0.44726 0.0
C332 C 0.04887 0.53143 0.40704 0.0
C333 C 0.07776 0.4976 0.48853 0.0
C334 C 0.01813 0.50595 0.40618 0.0
C335 C 0.01665 0.47705 0.44645 0.0
H336 H 0.31381 0.11019 0.34752 0.0
H337 H 0.37231 0.11133 0.18049 0.0
H338 H 0.31024 0.10411 0.1299 0.0
H339 H 0.23884 0.10823 0.13373 0.0
H340 H 0.18049 0.10687 0.30092 0.0
H341 H 0.24282 0.10255 0.35134 0.0
C342 C 0.31284 0.10765 0.30016 0.0
C343 C 0.34711 0.11117 0.26746 0.0
C344 C 0.27712 0.10373 0.27162 0.0
C345 C 0.34604 0.10817 0.20622 0.0
C346 C 0.3106 0.10441 0.17739 0.0
C347 C 0.23995 0.10567 0.18107 0.0
C348 C 0.20551 0.10756 0.21379 0.0
C349 C 0.27587 0.10365 0.20961 0.0
C350 C 0.20682 0.10471 0.27506 0.0
C351 C 0.24243 0.10272 0.30385 0.0
H352 H 0.36092 0.88068 0.79052 0.0
H353 H 0.32095 0.86287 0.61393 0.0
H354 H 0.25386 0.8714 0.64581 0.0
H355 H 0.20654 0.87458 0.72604 0.0
H356 H 0.24611 0.88966 0.90333 0.0
H357 H 0.31336 0.8922 0.86905 0.0
C358 C 0.3377 0.88002 0.75868 0.0
C359 C 0.34596 0.87132 0.6999 0.0
C360 C 0.29901 0.88409 0.77762 0.0
C361 C 0.3153 0.86941 0.65951 0.0
C362 C 0.27691 0.87423 0.67771 0.0
C363 C 0.22966 0.88007 0.75685 0.0
C364 C 0.22133 0.88246 0.81702 0.0
C365 C 0.26832 0.88036 0.73698 0.0
C366 C 0.25189 0.88795 0.8567 0.0
C367 C 0.29034 0.88919 0.83716 0.0
H368 H 0.85152 0.91582 0.72183 0.0
H369 H 0.85069 0.80854 0.80436 0.0
H370 H 0.7817 0.80171 0.7815 0.0
H371 H 0.72118 0.82662 0.73805 0.0
H372 H 0.72412 0.93283 0.65188 0.0
H373 H 0.79242 0.93965 0.67638 0.0
C374 C 0.8363 0.89092 0.7349 0.0
C375 C 0.85625 0.86284 0.76501 0.0
C376 C 0.79684 0.887 0.72102 0.0
C377 C 0.83607 0.8306 0.78105 0.0
C378 C 0.79656 0.82671 0.76812 0.0
C379 C 0.73681 0.85125 0.72481 0.0
C380 C 0.71746 0.87918 0.69326 0.0
C381 C 0.77656 0.85479 0.7382 0.0
C382 C 0.73823 0.91081 0.67598 0.0
C383 C 0.77736 0.9148 0.69004 0.0
H384 H 0.71394 0.16091 0.28466 0.0
H385 H 0.70155 0.04218 0.288 0.0
H386 H 0.76961 0.03472 0.26109 0.0
H387 H 0.83256 0.06154 0.23523 0.0
H388 H 0.8453 0.18014 0.2284 0.0
H389 H 0.77745 0.18794 0.25783 0.0
C390 C 0.72625 0.13344 0.27986 0.0
C391 C 0.70262 0.10217 0.28856 0.0
C392 C 0.7655 0.12926 0.26344 0.0
C393 C 0.71895 0.06675 0.28149 0.0
C394 C 0.75794 0.06241 0.26609 0.0
C395 C 0.82057 0.08913 0.24025 0.0
C396 C 0.84408 0.12017 0.22956 0.0
C397 C 0.78146 0.09343 0.2567 0.0
C398 C 0.82788 0.15571 0.23604 0.0
C399 C 0.78905 0.16022 0.25304 0.0
H400 H 0.85288 0.60937 0.21928 0.0
H401 H 0.81077 0.61258 0.39711 0.0
H402 H 0.74383 0.60765 0.36244 0.0
H403 H 0.69748 0.61216 0.2812 0.0
H404 H 0.73954 0.61466 0.10333 0.0
H405 H 0.8063 0.60713 0.13786 0.0
C406 C 0.82908 0.60749 0.25035 0.0
C407 C 0.83655 0.61061 0.31061 0.0
C408 C 0.79067 0.60618 0.22989 0.0
C409 C 0.80551 0.60976 0.35053 0.0
C410 C 0.7673 0.60718 0.3307 0.0
C411 C 0.72114 0.6095 0.25002 0.0
C412 C 0.71374 0.61317 0.18982 0.0
C413 C 0.75947 0.60665 0.27041 0.0
C414 C 0.74473 0.61143 0.14985 0.0
C415 C 0.78284 0.60735 0.16961 0.0
H416 H 0.83281 0.37302 0.64764 0.0
H417 H 0.89512 0.3624 0.8103 0.0
H418 H 0.83425 0.36526 0.86507 0.0
H419 H 0.76283 0.36279 0.86565 0.0
H420 H 0.70066 0.37152 0.70255 0.0
H421 H 0.76167 0.37783 0.64915 0.0
C422 C 0.83301 0.37215 0.69517 0.0
C423 C 0.86836 0.36785 0.7249 0.0
C424 C 0.79783 0.37317 0.72627 0.0
C425 C 0.86841 0.36661 0.78641 0.0
C426 C 0.83351 0.36773 0.81775 0.0
C427 C 0.76274 0.36683 0.81854 0.0
C428 C 0.72734 0.36706 0.78818 0.0
C429 C 0.79802 0.3699 0.788 0.0
C430 C 0.72743 0.37216 0.72716 0.0
C431 C 0.76238 0.3753 0.69647 0.0
H432 H 0.36113 0.33434 0.7726 0.0
H433 H 0.36848 0.45353 0.77638 0.0
H434 H 0.30046 0.4583 0.7486 0.0
H435 H 0.2388 0.42899 0.72345 0.0
H436 H 0.23072 0.30991 0.71926 0.0
H437 H 0.29901 0.30485 0.74689 0.0
C438 C 0.34785 0.36135 0.76739 0.0
C439 C 0.37 0.3935 0.77668 0.0
C440 C 0.30854 0.36398 0.75127 0.0
C441 C 0.35226 0.42828 0.76953 0.0
C442 C 0.31328 0.43108 0.75364 0.0
C443 C 0.2519 0.40188 0.72854 0.0
C444 C 0.22958 0.36991 0.71922 0.0
C445 C 0.29115 0.39915 0.74443 0.0
C446 C 0.24718 0.33503 0.72602 0.0
C447 C 0.28626 0.33209 0.74189 0.0
H448 H 0.21664 0.65381 0.30848 0.0
H449 H 0.18543 0.57053 0.1815 0.0
H450 H 0.25236 0.56718 0.1477 0.0
H451 H 0.31987 0.58738 0.15354 0.0
H452 H 0.35274 0.66974 0.2808 0.0
H453 H 0.28539 0.67382 0.31493 0.0
C454 C 0.22449 0.63499 0.27337 0.0
C455 C 0.19576 0.61249 0.24769 0.0
C456 C 0.26347 0.63294 0.25409 0.0
C457 C 0.20667 0.58817 0.20232 0.0
C458 C 0.24508 0.5862 0.18281 0.0
C459 C 0.31244 0.60629 0.18875 0.0
C460 C 0.34152 0.62827 0.21435 0.0
C461 C 0.27372 0.60838 0.20833 0.0
C462 C 0.33109 0.65246 0.26016 0.0
C463 C 0.29249 0.65484 0.27971 0.0
H464 H 1.00273 0.31601 0.9094 0.0
H465 H 0.10833 0.26155 0.85442 0.0
H466 H 0.10312 0.21856 0.93587 0.0
H467 H 0.06671 0.1937 0.01834 0.0
H468 H 0.95709 0.24266 0.06807 0.0
H469 H 0.96504 0.28987 0.99187 0.0
C470 C 0.02463 0.29479 0.91554 0.0
C471 C 0.05636 0.29262 0.87668 0.0
C472 C 0.02032 0.26876 0.96076 0.0
C473 C 0.08444 0.26488 0.88486 0.0
C474 C 0.08113 0.23981 0.93091 0.0
C475 C 0.04458 0.21481 0.01286 0.0
C476 C 1.0114 0.21476 0.0489 0.0
C477 C 0.04897 0.2412 0.96855 0.0
C478 C 0.98282 0.24203 0.04068 0.0
C479 C 0.98743 0.26907 0.99732 0.0
H480 H 0.58221 0.79651 0.50306 0.0
H481 H 0.52278 0.72836 0.629 0.0
H482 H 0.50999 0.68179 0.55333 0.0
H483 H 0.51202 0.66272 0.44915 0.0
H484 H 0.56643 0.73429 0.32251 0.0
H485 H 0.58449 0.77756 0.39991 0.0
C486 C 0.56748 0.77091 0.51395 0.0
C487 C 0.55431 0.76508 0.57126 0.0
C488 C 0.55858 0.74538 0.46976 0.0
C489 C 0.53387 0.7327 0.58505 0.0
C490 C 0.52618 0.7064 0.54177 0.0
C491 C 0.52773 0.68787 0.43892 0.0
C492 C 0.53822 0.69538 0.38077 0.0
C493 C 0.53763 0.71284 0.48364 0.0
C494 C 0.55842 0.72801 0.36736 0.0
C495 C 0.56883 0.75264 0.41149 0.0
H496 H 0.97397 0.78602 0.99136 0.0
H497 H 0.06932 0.73653 0.89704 0.0
H498 H 0.07892 0.6917 0.97617 0.0
H499 H 0.06283 0.66951 0.07562 0.0
H500 H 0.97245 0.7245 0.17375 0.0
H501 H 0.95817 0.76419 0.09024 0.0
C502 C 0.99617 0.76478 0.98774 0.0
C503 C 0.02048 0.76392 0.93847 0.0
C504 C 1.00271 0.74045 0.03452 0.0
C505 C 0.05002 0.73719 0.93461 0.0
C506 C 0.05569 0.71183 0.97993 0.0
C507 C 0.04006 0.69021 0.07841 0.0
C508 C 0.01821 0.69365 0.13009 0.0
C509 C 0.03276 0.71373 0.03071 0.0
C510 C 0.98897 0.72073 0.13372 0.0
C511 C 0.9809 0.74356 0.08614 0.0
H512 H 0.49127 0.27663 0.63297 0.0
H513 H 0.59614 0.33584 0.59133 0.0
H514 H 0.60617 0.29675 0.50481 0.0
H515 H 0.58639 0.24338 0.44382 0.0
H516 H 0.47896 0.18748 0.484 0.0
H517 H 0.46825 0.22815 0.5674 0.0
C518 C 0.51564 0.28182 0.60399 0.0
C519 C 0.54277 0.30921 0.6182 0.0
C520 C 0.52094 0.25958 0.55425 0.0
C521 C 0.5749 0.31478 0.58116 0.0
C522 C 0.58067 0.29242 0.53183 0.0
C523 C 0.56061 0.24029 0.47075 0.0
C524 C 0.53373 0.21226 0.45793 0.0
C525 C 0.55418 0.26427 0.51846 0.0
C526 C 0.50016 0.20884 0.49278 0.0
C527 C 0.49397 0.23204 0.54065 0.0
H528 H 0.49137 0.82466 0.92819 0.0
H529 H 0.5914 0.76822 0.85664 0.0
H530 H 0.59001 0.72418 0.93662 0.0
H531 H 0.55902 0.69951 0.02325 0.0
H532 H 0.45468 0.74993 0.09161 0.0
H533 H 0.45837 0.79795 0.01558 0.0
C534 C 0.51292 0.80281 0.93058 0.0
C535 C 0.54222 0.80051 0.88755 0.0
C536 C 0.51077 0.77616 0.97541 0.0
C537 C 0.56961 0.77174 0.89043 0.0
C538 C 0.56846 0.74607 0.93569 0.0
C539 C 0.53713 0.72112 0.02199 0.0
C540 C 0.50679 0.72136 0.06323 0.0
C541 C 0.53905 0.74786 0.97799 0.0
C542 C 0.47832 0.74918 0.06022 0.0
C543 C 0.48052 0.77664 0.01693 0.0
H544 H 0.01525 0.2402 0.57704 0.0
H545 H 0.12008 0.2881 0.5068 0.0
H546 H 0.11273 0.25174 0.41715 0.0
H547 H 0.07278 0.21185 0.35555 0.0
H548 H 0.9717 0.15857 0.42832 0.0
H549 H 0.9802 0.19305 0.51993 0.0
C550 C 0.03687 0.24204 0.54249 0.0
C551 C 0.06805 0.26683 0.54811 0.0
C552 C 0.0325 0.22102 0.49133 0.0
C553 C 0.09605 0.26896 0.50349 0.0
C554 C 0.09159 0.24854 0.45204 0.0
C555 C 0.05326 0.2068 0.39201 0.0
C556 C 0.02177 0.18252 0.38536 0.0
C557 C 0.05941 0.22526 0.44503 0.0
C558 C 0.99592 0.17743 0.43229 0.0
C559 C 1.00098 0.19684 0.48472 0.0
H560 H 0.56979 0.24429 0.93128 0.0
H561 H 0.46126 0.29451 0.98327 0.0
H562 H 0.45973 0.25625 0.07143 0.0
H563 H 0.49265 0.21368 0.13797 0.0
H564 H 0.59771 0.15851 0.08283 0.0
H565 H 0.59811 0.19479 0.99214 0.0
C566 C 0.5455 0.24634 0.96149 0.0
C567 C 0.51581 0.27231 0.95117 0.0
C568 C 0.5447 0.22412 0.01184 0.0
C569 C 0.48431 0.27457 0.99018 0.0
C570 C 0.48362 0.25299 0.04083 0.0
C571 C 0.51497 0.20859 0.10536 0.0
C572 C 0.54501 0.18329 0.11694 0.0
C573 C 0.51411 0.22835 0.05267 0.0
C574 C 0.57449 0.17813 0.07509 0.0
C575 C 0.57456 0.19865 0.02316 0.0
H576 H 0.08389 0.74052 0.44182 0.0
H577 H 0.99181 0.67007 0.50498 0.0
H578 H 0.98229 0.71001 0.5895 0.0
H579 H 0.99982 0.76438 0.64586 0.0
H580 H 0.08877 0.83791 0.58289 0.0
H581 H 0.10034 0.79717 0.49833 0.0
C582 C 0.06195 0.73396 0.47434 0.0
C583 C 0.0386 0.70244 0.46717 0.0
C584 C 0.05597 0.7576 0.52264 0.0
C585 C 1.01 0.69432 0.5093 0.0
C586 C 1.00452 0.71709 0.55772 0.0
C587 C 0.02107 0.772 0.61288 0.0
C588 C 0.04273 0.80446 0.61954 0.0
C589 C 0.02709 0.74886 0.56459 0.0
C590 C 0.07142 0.81317 0.57797 0.0
C591 C 0.07805 0.78989 0.52984 0.0
loop_
_geom_bond_atom_site_label_1
_geom_bond_atom_site_label_2
_geom_bond_distance
_geom_bond_site_symmetry_2
_ccdc_geom_bond_type
Co0 O3 1.970 . S
Co0 N17 1.989 . S
Co0 O25 1.967 . S
Co0 O32 1.920 . S
Co1 O4 1.966 . S
Co1 N10 2.022 . S
Co1 N18 1.993 . S
Co1 O26 1.941 . S
C2 O3 1.258 1_455 S
C2 O4 1.263 . S
O3 Co0 1.970 . S
O3 C2 1.258 1_655 S
O4 Co1 1.966 . S
O4 C2 1.263 . S
C5 O6 1.235 . S
C5 O32 1.289 . S
O6 C5 1.235 . S
C7 C9 1.400 . S
C7 N10 1.351 . S
C7 C12 1.501 . S
C8 C9 1.387 . S
C8 N11 1.341 . S
C9 C7 1.400 . S
C9 C8 1.387 . S
N10 Co1 2.022 . S
N10 C7 1.351 . S
N10 N11 1.365 . S
N11 C8 1.341 . S
N11 N10 1.365 . S
N11 H31 0.862 . S
C12 C7 1.501 . S
C12 H13 0.961 . S
C12 H14 0.961 . S
C12 H15 0.960 . S
H13 C12 0.961 . S
H14 C12 0.961 . S
H15 C12 0.960 . S
C16 N17 1.342 . S
C16 C20 1.401 1_655 S
C16 C21 1.499 . S
N17 Co0 1.989 . S
N17 C16 1.342 . S
N17 N18 1.388 1_655 S
N18 Co1 1.993 . S
N18 N17 1.388 1_455 S
N18 C19 1.346 . S
C19 N18 1.346 . S
C19 C20 1.396 . S
C19 C29 1.510 . S
C20 C16 1.401 1_455 S
C20 C19 1.396 . S
C21 C16 1.499 . S
C21 H22 0.959 . S
C21 H23 0.960 . S
C21 H24 0.961 . S
H22 C21 0.959 . S
H23 C21 0.960 . S
H24 C21 0.961 . S
O25 Co0 1.967 . S
O25 C33 1.258 1_655 S
O26 Co1 1.941 . S
O26 C33 1.266 . S
H27 C29 0.959 . S
H28 C29 0.961 . S
C29 C19 1.510 . S
C29 H27 0.959 . S
C29 H28 0.961 . S
C29 H30 0.960 . S
H30 C29 0.960 . S
H31 N11 0.862 . S
O32 Co0 1.920 . S
O32 C5 1.289 . S
C33 O25 1.258 1_455 S
C33 O26 1.266 . S
Co34 O37 1.970 . S
Co34 N51 1.989 . S
Co34 O59 1.967 . S
Co34 O66 1.920 . S
Co35 O38 1.966 . S
Co35 N44 2.022 . S
Co35 N52 1.993 . S
Co35 O60 1.941 . S
C36 O37 1.258 . S
C36 O38 1.263 . S
O37 Co34 1.970 . S
O37 C36 1.258 . S
O38 Co35 1.966 . S
O38 C36 1.263 . S
C39 O40 1.235 . S
C39 O66 1.289 . S
O40 C39 1.235 . S
C41 C43 1.400 . S
C41 N44 1.351 . S
C41 C46 1.501 . S
C42 C43 1.387 . S
C42 N45 1.341 . S
C43 C41 1.400 . S
C43 C42 1.387 . S
N44 Co35 2.022 . S
N44 C41 1.351 . S
N44 N45 1.365 . S
N45 C42 1.341 . S
N45 N44 1.365 . S
N45 H65 0.862 . S
C46 C41 1.501 . S
C46 H47 0.961 . S
C46 H48 0.961 . S
C46 H49 0.960 . S
H47 C46 0.961 . S
H48 C46 0.961 . S
H49 C46 0.960 . S
C50 N51 1.342 . S
C50 C54 1.401 . S
C50 C55 1.499 . S
N51 Co34 1.989 . S
N51 C50 1.342 . S
N51 N52 1.388 . S
N52 Co35 1.993 . S
N52 N51 1.388 . S
N52 C53 1.346 . S
C53 N52 1.346 . S
C53 C54 1.396 . S
C53 C63 1.510 . S
C54 C50 1.401 . S
C54 C53 1.396 . S
C55 C50 1.499 . S
C55 H56 0.959 . S
C55 H57 0.960 . S
C55 H58 0.961 . S
H56 C55 0.959 . S
H57 C55 0.960 . S
H58 C55 0.961 . S
O59 Co34 1.967 . S
O59 C67 1.258 . S
O60 Co35 1.941 . S
O60 C67 1.266 . S
H61 C63 0.959 . S
H62 C63 0.961 . S
C63 C53 1.510 . S
C63 H61 0.959 . S
C63 H62 0.961 . S
C63 H64 0.960 . S
H64 C63 0.960 . S
H65 N45 0.862 . S
O66 Co34 1.920 . S
O66 C39 1.289 . S
C67 O59 1.258 . S
C67 O60 1.266 . S
Co68 O71 1.970 . S
Co68 N85 1.989 . S
Co68 O93 1.967 . S
Co68 O100 1.920 . S
Co69 O72 1.966 . S
Co69 N78 2.022 . S
Co69 N86 1.993 . S
Co69 O94 1.941 . S
C70 O71 1.258 1_455 S
C70 O72 1.263 . S
O71 Co68 1.970 . S
O71 C70 1.258 1_655 S
O72 Co69 1.966 . S
O72 C70 1.263 . S
C73 O74 1.235 . S
C73 O100 1.289 . S
O74 C73 1.235 . S
C75 C77 1.400 . S
C75 N78 1.351 . S
C75 C80 1.501 . S
C76 C77 1.387 . S
C76 N79 1.341 . S
C77 C75 1.400 . S
C77 C76 1.387 . S
N78 Co69 2.022 . S
N78 C75 1.351 . S
N78 N79 1.365 . S
N79 C76 1.341 . S
N79 N78 1.365 . S
N79 H99 0.862 . S
C80 C75 1.501 . S
C80 H81 0.961 . S
C80 H82 0.961 . S
C80 H83 0.960 . S
H81 C80 0.961 . S
H82 C80 0.961 . S
H83 C80 0.960 . S
C84 N85 1.342 . S
C84 C88 1.401 1_655 S
C84 C89 1.499 . S
N85 Co68 1.989 . S
N85 C84 1.342 . S
N85 N86 1.388 1_655 S
N86 Co69 1.993 . S
N86 N85 1.388 1_455 S
N86 C87 1.346 . S
C87 N86 1.346 . S
C87 C88 1.396 . S
C87 C97 1.510 . S
C88 C84 1.401 1_455 S
C88 C87 1.396 . S
C89 C84 1.499 . S
C89 H90 0.959 . S
C89 H91 0.960 . S
C89 H92 0.961 . S
H90 C89 0.959 . S
H91 C89 0.960 . S
H92 C89 0.961 . S
O93 Co68 1.967 . S
O93 C101 1.258 1_655 S
O94 Co69 1.941 . S
O94 C101 1.266 . S
H95 C97 0.959 . S
H96 C97 0.961 . S
C97 C87 1.510 . S
C97 H95 0.959 . S
C97 H96 0.961 . S
C97 H98 0.960 . S
H98 C97 0.960 . S
H99 N79 0.862 . S
O100 Co68 1.920 . S
O100 C73 1.289 . S
C101 O93 1.258 1_455 S
C101 O94 1.266 . S
Co102 O105 1.970 . S
Co102 N119 1.989 . S
Co102 O127 1.967 . S
Co102 O134 1.920 . S
Co103 O106 1.966 . S
Co103 N112 2.022 . S
Co103 N120 1.993 . S
Co103 O128 1.941 . S
C104 O105 1.258 . S
C104 O106 1.263 . S
O105 Co102 1.970 . S
O105 C104 1.258 . S
O106 Co103 1.966 . S
O106 C104 1.263 . S
C107 O108 1.235 . S
C107 O134 1.289 . S
O108 C107 1.235 . S
C109 C111 1.400 . S
C109 N112 1.351 . S
C109 C114 1.501 . S
C110 C111 1.387 . S
C110 N113 1.341 . S
C111 C109 1.400 . S
C111 C110 1.387 . S
N112 Co103 2.022 . S
N112 C109 1.351 . S
N112 N113 1.365 . S
N113 C110 1.341 . S
N113 N112 1.365 . S
N113 H133 0.862 . S
C114 C109 1.501 . S
C114 H115 0.961 . S
C114 H116 0.961 . S
C114 H117 0.960 . S
H115 C114 0.961 . S
H116 C114 0.961 . S
H117 C114 0.960 . S
C118 N119 1.342 . S
C118 C122 1.401 . S
C118 C123 1.499 . S
N119 Co102 1.989 . S
N119 C118 1.342 . S
N119 N120 1.388 . S
N120 Co103 1.993 . S
N120 N119 1.388 . S
N120 C121 1.346 . S
C121 N120 1.346 . S
C121 C122 1.396 . S
C121 C131 1.510 . S
C122 C118 1.401 . S
C122 C121 1.396 . S
C123 C118 1.499 . S
C123 H124 0.959 . S
C123 H125 0.960 . S
C123 H126 0.961 . S
H124 C123 0.959 . S
H125 C123 0.960 . S
H126 C123 0.961 . S
O127 Co102 1.967 . S
O127 C135 1.258 . S
O128 Co103 1.941 . S
O128 C135 1.266 . S
H129 C131 0.959 . S
H130 C131 0.961 . S
C131 C121 1.510 . S
C131 H129 0.959 . S
C131 H130 0.961 . S
C131 H132 0.960 . S
H132 C131 0.960 . S
H133 N113 0.862 . S
O134 Co102 1.920 . S
O134 C107 1.289 . S
C135 O127 1.258 . S
C135 O128 1.266 . S
Co136 O139 1.970 . S
Co136 N153 1.989 . S
Co136 O161 1.967 . S
Co136 O168 1.920 . S
Co137 O140 1.966 . S
Co137 N146 2.022 . S
Co137 N154 1.993 . S
Co137 O162 1.941 . S
C138 O139 1.258 . S
C138 O140 1.263 . S
O139 Co136 1.970 . S
O139 C138 1.258 . S
O140 Co137 1.966 . S
O140 C138 1.263 . S
C141 O142 1.235 . S
C141 O168 1.289 . S
O142 C141 1.235 . S
C143 C145 1.400 . S
C143 N146 1.351 . S
C143 C148 1.501 . S
C144 C145 1.387 . S
C144 N147 1.341 . S
C145 C143 1.400 . S
C145 C144 1.387 . S
N146 Co137 2.022 . S
N146 C143 1.351 . S
N146 N147 1.365 . S
N147 C144 1.341 . S
N147 N146 1.365 . S
N147 H167 0.862 . S
C148 C143 1.501 . S
C148 H149 0.961 . S
C148 H150 0.961 . S
C148 H151 0.960 . S
H149 C148 0.961 . S
H150 C148 0.961 . S
H151 C148 0.960 . S
C152 N153 1.342 . S
C152 C156 1.401 . S
C152 C157 1.499 . S
N153 Co136 1.989 . S
N153 C152 1.342 . S
N153 N154 1.388 . S
N154 Co137 1.993 . S
N154 N153 1.388 . S
N154 C155 1.346 . S
C155 N154 1.346 . S
C155 C156 1.396 . S
C155 C165 1.510 . S
C156 C152 1.401 . S
C156 C155 1.396 . S
C157 C152 1.499 . S
C157 H158 0.959 . S
C157 H159 0.960 . S
C157 H160 0.961 . S
H158 C157 0.959 . S
H159 C157 0.960 . S
H160 C157 0.961 . S
O161 Co136 1.967 . S
O161 C169 1.258 . S
O162 Co137 1.941 . S
O162 C169 1.266 . S
H163 C165 0.959 . S
H164 C165 0.961 . S
C165 C155 1.510 . S
C165 H163 0.959 . S
C165 H164 0.961 . S
C165 H166 0.960 . S
H166 C165 0.960 . S
H167 N147 0.862 . S
O168 Co136 1.920 . S
O168 C141 1.289 . S
C169 O161 1.258 . S
C169 O162 1.266 . S
Co170 O173 1.970 . S
Co170 N187 1.989 . S
Co170 O195 1.967 . S
Co170 O202 1.920 . S
Co171 O174 1.970 . S
Co171 N180 2.022 . S
Co171 N188 1.993 1_655 S
Co171 O196 1.941 . S
C172 O173 1.258 . S
C172 O174 1.249 1_455 S
O173 Co170 1.970 . S
O173 C172 1.258 . S
O174 Co171 1.970 . S
O174 C172 1.249 1_655 S
C175 O176 1.235 . S
C175 O202 1.289 . S
O176 C175 1.235 . S
C177 C179 1.400 . S
C177 N180 1.351 . S
C177 C182 1.501 . S
C178 C179 1.387 . S
C178 N181 1.341 . S
C179 C177 1.400 . S
C179 C178 1.387 . S
N180 Co171 2.022 . S
N180 C177 1.351 . S
N180 N181 1.365 . S
N181 C178 1.341 . S
N181 N180 1.365 . S
N181 H201 0.862 . S
C182 C177 1.501 . S
C182 H183 0.961 . S
C182 H184 0.961 . S
C182 H185 0.960 . S
H183 C182 0.961 . S
H184 C182 0.961 . S
H185 C182 0.960 . S
C186 N187 1.342 . S
C186 C190 1.401 . S
C186 C191 1.499 . S
N187 Co170 1.989 . S
N187 C186 1.342 . S
N187 N188 1.388 . S
N188 Co171 1.993 1_455 S
N188 N187 1.388 . S
N188 C189 1.346 1_455 S
C189 N188 1.346 1_655 S
C189 C190 1.396 1_655 S
C189 C199 1.510 . S
C190 C186 1.401 . S
C190 C189 1.396 1_455 S
C191 C186 1.499 . S
C191 H192 0.959 . S
C191 H193 0.960 . S
C191 H194 0.961 . S
H192 C191 0.959 . S
H193 C191 0.960 . S
H194 C191 0.961 . S
O195 Co170 1.967 . S
O195 C203 1.258 . S
O196 Co171 1.941 . S
O196 C203 1.266 1_655 S
H197 C199 0.959 . S
H198 C199 0.961 . S
C199 C189 1.510 . S
C199 H197 0.959 . S
C199 H198 0.961 . S
C199 H200 0.960 . S
H200 C199 0.960 . S
H201 N181 0.862 . S
O202 Co170 1.920 . S
O202 C175 1.289 . S
C203 O195 1.258 . S
C203 O196 1.266 1_455 S
Co204 O207 1.970 . S
Co204 N221 1.989 . S
Co204 O229 1.967 . S
Co204 O236 1.920 . S
Co205 O208 1.966 . S
Co205 N214 2.022 . S
Co205 N222 1.993 . S
Co205 O230 1.941 . S
C206 O207 1.258 . S
C206 O208 1.263 . S
O207 Co204 1.970 . S
O207 C206 1.258 . S
O208 Co205 1.966 . S
O208 C206 1.263 . S
C209 O210 1.235 . S
C209 O236 1.289 . S
O210 C209 1.235 . S
C211 C213 1.400 . S
C211 N214 1.351 . S
C211 C216 1.501 . S
C212 C213 1.387 . S
C212 N215 1.341 . S
C213 C211 1.400 . S
C213 C212 1.387 . S
N214 Co205 2.022 . S
N214 C211 1.351 . S
N214 N215 1.365 . S
N215 C212 1.341 . S
N215 N214 1.365 . S
N215 H235 0.862 . S
C216 C211 1.501 . S
C216 H217 0.961 . S
C216 H218 0.961 . S
C216 H219 0.960 . S
H217 C216 0.961 . S
H218 C216 0.961 . S
H219 C216 0.960 . S
C220 N221 1.342 . S
C220 C224 1.401 . S
C220 C225 1.499 . S
N221 Co204 1.989 . S
N221 C220 1.342 . S
N221 N222 1.388 . S
N222 Co205 1.993 . S
N222 N221 1.388 . S
N222 C223 1.346 . S
C223 N222 1.346 . S
C223 C224 1.396 . S
C223 C233 1.510 . S
C224 C220 1.401 . S
C224 C223 1.396 . S
C225 C220 1.499 . S
C225 H226 0.959 . S
C225 H227 0.960 . S
C225 H228 0.961 . S
H226 C225 0.959 . S
H227 C225 0.960 . S
H228 C225 0.961 . S
O229 Co204 1.967 . S
O229 C237 1.258 . S
O230 Co205 1.941 . S
O230 C237 1.266 . S
H231 C233 0.959 . S
H232 C233 0.961 . S
C233 C223 1.510 . S
C233 H231 0.959 . S
C233 H232 0.961 . S
C233 H234 0.960 . S
H234 C233 0.960 . S
H235 N215 0.862 . S
O236 Co204 1.920 . S
O236 C209 1.289 . S
C237 O229 1.258 . S
C237 O230 1.266 . S
Co238 O241 1.970 . S
Co238 N255 1.989 . S
Co238 O263 1.967 . S
Co238 O270 1.920 . S
Co239 O242 1.970 . S
Co239 N248 2.022 . S
Co239 N256 1.993 1_655 S
Co239 O264 1.941 . S
C240 O241 1.258 . S
C240 O242 1.249 1_455 S
O241 Co238 1.970 . S
O241 C240 1.258 . S
O242 Co239 1.970 . S
O242 C240 1.249 1_655 S
C243 O244 1.235 . S
C243 O270 1.289 . S
O244 C243 1.235 . S
C245 C247 1.400 . S
C245 N248 1.351 . S
C245 C250 1.501 . S
C246 C247 1.387 . S
C246 N249 1.341 . S
C247 C245 1.400 . S
C247 C246 1.387 . S
N248 Co239 2.022 . S
N248 C245 1.351 . S
N248 N249 1.365 . S
N249 C246 1.341 . S
N249 N248 1.365 . S
N249 H269 0.862 . S
C250 C245 1.501 . S
C250 H251 0.961 . S
C250 H252 0.961 . S
C250 H253 0.960 . S
H251 C250 0.961 . S
H252 C250 0.961 . S
H253 C250 0.960 . S
C254 N255 1.342 . S
C254 C258 1.401 . S
C254 C259 1.499 . S
N255 Co238 1.989 . S
N255 C254 1.342 . S
N255 N256 1.388 . S
N256 Co239 1.993 1_455 S
N256 N255 1.388 . S
N256 C257 1.346 1_455 S
C257 N256 1.346 1_655 S
C257 C258 1.396 1_655 S
C257 C267 1.510 . S
C258 C254 1.401 . S
C258 C257 1.396 1_455 S
C259 C254 1.499 . S
C259 H260 0.959 . S
C259 H261 0.960 . S
C259 H262 0.961 . S
H260 C259 0.959 . S
H261 C259 0.960 . S
H262 C259 0.961 . S
O263 Co238 1.967 . S
O263 C271 1.258 . S
O264 Co239 1.941 . S
O264 C271 1.266 1_655 S
H265 C267 0.959 . S
H266 C267 0.961 . S
C267 C257 1.510 . S
C267 H265 0.959 . S
C267 H266 0.961 . S
C267 H268 0.960 . S
H268 C267 0.960 . S
H269 N249 0.862 . S
O270 Co238 1.920 . S
O270 C243 1.289 . S
C271 O263 1.258 . S
C271 O264 1.266 1_455 S
H272 C278 0.930 . S
H273 C281 0.930 1_545 S
H274 C282 0.930 . S
H275 C283 0.930 . S
H276 C286 0.930 1_565 S
H277 C287 0.930 . S
C278 H272 0.930 . S
C278 C279 1.355 . S
C278 C280 1.415 1_556 S
C279 C278 1.355 . S
C279 C281 1.419 . S
C280 C278 1.415 1_554 S
C280 C285 1.425 1_564 S
C280 C287 1.409 . S
C281 H273 0.930 1_565 S
C281 C279 1.419 . S
C281 C282 1.362 1_565 S
C282 H274 0.930 . S
C282 C281 1.362 1_545 S
C282 C285 1.409 . S
C283 H275 0.930 . S
C283 C284 1.355 . S
C283 C285 1.415 1_554 S
C284 C283 1.355 . S
C284 C286 1.419 . S
C285 C280 1.425 1_546 S
C285 C282 1.409 . S
C285 C283 1.415 1_556 S
C286 H276 0.930 1_545 S
C286 C284 1.419 . S
C286 C287 1.362 1_545 S
C287 H277 0.930 . S
C287 C280 1.409 . S
C287 C286 1.362 1_565 S
H288 C294 0.930 1_565 S
H289 C297 0.930 . S
H290 C298 0.930 . S
H291 C299 0.930 1_545 S
H292 C302 0.930 . S
H293 C303 0.930 . S
C294 H288 0.930 1_545 S
C294 C295 1.355 . S
C294 C296 1.415 1_545 S
C295 C294 1.355 . S
C295 C297 1.419 . S
C296 C294 1.415 1_565 S
C296 C301 1.425 1_565 S
C296 C303 1.409 . S
C297 H289 0.930 . S
C297 C295 1.419 . S
C297 C298 1.362 . S
C298 H290 0.930 . S
C298 C297 1.362 . S
C298 C301 1.409 . S
C299 H291 0.930 1_565 S
C299 C300 1.355 . S
C299 C301 1.415 1_565 S
C300 C299 1.355 . S
C300 C302 1.419 . S
C301 C296 1.425 1_545 S
C301 C298 1.409 . S
C301 C299 1.415 1_545 S
C302 H292 0.930 . S
C302 C300 1.419 . S
C302 C303 1.362 . S
C303 H293 0.930 . S
C303 C296 1.409 . S
C303 C302 1.362 . S
H304 C310 0.930 . S
H305 C313 0.930 . S
H306 C314 0.930 1_556 S
H307 C315 0.930 . S
H308 C318 0.930 . S
H309 C319 0.930 1_554 S
C310 H304 0.930 . S
C310 C311 1.355 . S
C310 C312 1.415 . S
C311 C310 1.355 . S
C311 C313 1.419 . S
C312 C310 1.415 . S
C312 C317 1.425 1_554 S
C312 C319 1.409 1_554 S
C313 H305 0.930 . S
C313 C311 1.419 . S
C313 C314 1.362 . S
C314 H306 0.930 1_554 S
C314 C313 1.362 . S
C314 C317 1.409 1_554 S
C315 H307 0.930 . S
C315 C316 1.355 . S
C315 C317 1.415 . S
C316 C315 1.355 . S
C316 C318 1.419 . S
C317 C312 1.425 1_556 S
C317 C314 1.409 1_556 S
C317 C315 1.415 . S
C318 H308 0.930 . S
C318 C316 1.419 . S
C318 C319 1.362 . S
C319 H309 0.930 1_556 S
C319 C312 1.409 1_556 S
C319 C318 1.362 . S
H320 C326 0.930 . S
H321 C329 0.930 . S
H322 C330 0.930 . S
H323 C331 0.930 . S
H324 C334 0.930 1_655 S
H325 C335 0.930 1_655 S
C326 H320 0.930 . S
C326 C327 1.355 . S
C326 C328 1.415 . S
C327 C326 1.355 . S
C327 C329 1.419 . S
C328 C326 1.415 . S
C328 C333 1.425 . S
C328 C335 1.409 . S
C329 H321 0.930 . S
C329 C327 1.419 . S
C329 C330 1.362 . S
C330 H322 0.930 . S
C330 C329 1.362 . S
C330 C333 1.409 . S
C331 H323 0.930 . S
C331 C332 1.355 . S
C331 C333 1.415 . S
C332 C331 1.355 . S
C332 C334 1.419 . S
C333 C328 1.425 . S
C333 C330 1.409 . S
C333 C331 1.415 . S
C334 H324 0.930 1_455 S
C334 C332 1.419 . S
C334 C335 1.362 . S
C335 H325 0.930 1_455 S
C335 C328 1.409 . S
C335 C334 1.362 . S
H336 C342 0.930 . S
H337 C345 0.930 . S
H338 C346 0.930 . S
H339 C347 0.930 . S
H340 C350 0.930 . S
H341 C351 0.930 . S
C342 H336 0.930 . S
C342 C343 1.355 . S
C342 C344 1.415 . S
C343 C342 1.355 . S
C343 C345 1.419 . S
C344 C342 1.415 . S
C344 C349 1.425 . S
C344 C351 1.409 . S
C345 H337 0.930 . S
C345 C343 1.419 . S
C345 C346 1.362 . S
C346 H338 0.930 . S
C346 C345 1.362 . S
C346 C349 1.409 . S
C347 H339 0.930 . S
C347 C348 1.355 . S
C347 C349 1.415 . S
C348 C347 1.355 . S
C348 C350 1.419 . S
C349 C344 1.425 . S
C349 C346 1.409 . S
C349 C347 1.415 . S
C350 H340 0.930 . S
C350 C348 1.419 . S
C350 C351 1.362 . S
C351 H341 0.930 . S
C351 C344 1.409 . S
C351 C350 1.362 . S
H352 C358 0.930 . S
H353 C361 0.930 . S
H354 C362 0.930 . S
H355 C363 0.930 . S
H356 C366 0.930 . S
H357 C367 0.930 . S
C358 H352 0.930 . S
C358 C359 1.355 . S
C358 C360 1.415 . S
C359 C358 1.355 . S
C359 C361 1.419 . S
C360 C358 1.415 . S
C360 C365 1.425 . S
C360 C367 1.409 . S
C361 H353 0.930 . S
C361 C359 1.419 . S
C361 C362 1.362 . S
C362 H354 0.930 . S
C362 C361 1.362 . S
C362 C365 1.409 . S
C363 H355 0.930 . S
C363 C364 1.355 . S
C363 C365 1.415 . S
C364 C363 1.355 . S
C364 C366 1.419 . S
C365 C360 1.425 . S
C365 C362 1.409 . S
C365 C363 1.415 . S
C366 H356 0.930 . S
C366 C364 1.419 . S
C366 C367 1.362 . S
C367 H357 0.930 . S
C367 C360 1.409 . S
C367 C366 1.362 . S
H368 C374 0.930 . S
H369 C377 0.930 . S
H370 C378 0.930 . S
H371 C379 0.930 . S
H372 C382 0.930 . S
H373 C383 0.930 . S
C374 H368 0.930 . S
C374 C375 1.355 . S
C374 C376 1.415 . S
C375 C374 1.355 . S
C375 C377 1.419 . S
C376 C374 1.415 . S
C376 C381 1.425 . S
C376 C383 1.409 . S
C377 H369 0.930 . S
C377 C375 1.419 . S
C377 C378 1.362 . S
C378 H370 0.930 . S
C378 C377 1.362 . S
C378 C381 1.409 . S
C379 H371 0.930 . S
C379 C380 1.355 . S
C379 C381 1.415 . S
C380 C379 1.355 . S
C380 C382 1.419 . S
C381 C376 1.425 . S
C381 C378 1.409 . S
C381 C379 1.415 . S
C382 H372 0.930 . S
C382 C380 1.419 . S
C382 C383 1.362 . S
C383 H373 0.930 . S
C383 C376 1.409 . S
C383 C382 1.362 . S
H384 C390 0.930 . S
H385 C393 0.930 . S
H386 C394 0.930 . S
H387 C395 0.930 . S
H388 C398 0.930 . S
H389 C399 0.930 . S
C390 H384 0.930 . S
C390 C391 1.355 . S
C390 C392 1.415 . S
C391 C390 1.355 . S
C391 C393 1.419 . S
C392 C390 1.415 . S
C392 C397 1.425 . S
C392 C399 1.409 . S
C393 H385 0.930 . S
C393 C391 1.419 . S
C393 C394 1.362 . S
C394 H386 0.930 . S
C394 C393 1.362 . S
C394 C397 1.409 . S
C395 H387 0.930 . S
C395 C396 1.355 . S
C395 C397 1.415 . S
C396 C395 1.355 . S
C396 C398 1.419 . S
C397 C392 1.425 . S
C397 C394 1.409 . S
C397 C395 1.415 . S
C398 H388 0.930 . S
C398 C396 1.419 . S
C398 C399 1.362 . S
C399 H389 0.930 . S
C399 C392 1.409 . S
C399 C398 1.362 . S
H400 C406 0.930 . S
H401 C409 0.930 . S
H402 C410 0.930 . S
H403 C411 0.930 . S
H404 C414 0.930 . S
H405 C415 0.930 . S
C406 H400 0.930 . S
C406 C407 1.355 . S
C406 C408 1.415 . S
C407 C406 1.355 . S
C407 C409 1.419 . S
C408 C406 1.415 . S
C408 C413 1.425 . S
C408 C415 1.409 . S
C409 H401 0.930 . S
C409 C407 1.419 . S
C409 C410 1.362 . S
C410 H402 0.930 . S
C410 C409 1.362 . S
C410 C413 1.409 . S
C411 H403 0.930 . S
C411 C412 1.355 . S
C411 C413 1.415 . S
C412 C411 1.355 . S
C412 C414 1.419 . S
C413 C408 1.425 . S
C413 C410 1.409 . S
C413 C411 1.415 . S
C414 H404 0.930 . S
C414 C412 1.419 . S
C414 C415 1.362 . S
C415 H405 0.930 . S
C415 C408 1.409 . S
C415 C414 1.362 . S
H416 C422 0.930 . S
H417 C425 0.930 . S
H418 C426 0.930 . S
H419 C427 0.930 . S
H420 C430 0.930 . S
H421 C431 0.930 . S
C422 H416 0.930 . S
C422 C423 1.355 . S
C422 C424 1.415 . S
C423 C422 1.355 . S
C423 C425 1.419 . S
C424 C422 1.415 . S
C424 C429 1.425 . S
C424 C431 1.409 . S
C425 H417 0.930 . S
C425 C423 1.419 . S
C425 C426 1.362 . S
C426 H418 0.930 . S
C426 C425 1.362 . S
C426 C429 1.409 . S
C427 H419 0.930 . S
C427 C428 1.355 . S
C427 C429 1.415 . S
C428 C427 1.355 . S
C428 C430 1.419 . S
C429 C424 1.425 . S
C429 C426 1.409 . S
C429 C427 1.415 . S
C430 H420 0.930 . S
C430 C428 1.419 . S
C430 C431 1.362 . S
C431 H421 0.930 . S
C431 C424 1.409 . S
C431 C430 1.362 . S
H432 C438 0.930 . S
H433 C441 0.930 . S
H434 C442 0.930 . S
H435 C443 0.930 . S
H436 C446 0.930 . S
H437 C447 0.930 . S
C438 H432 0.930 . S
C438 C439 1.355 . S
C438 C440 1.415 . S
C439 C438 1.355 . S
C439 C441 1.419 . S
C440 C438 1.415 . S
C440 C445 1.425 . S
C440 C447 1.409 . S
C441 H433 0.930 . S
C441 C439 1.419 . S
C441 C442 1.362 . S
C442 H434 0.930 . S
C442 C441 1.362 . S
C442 C445 1.409 . S
C443 H435 0.930 . S
C443 C444 1.355 . S
C443 C445 1.415 . S
C444 C443 1.355 . S
C444 C446 1.419 . S
C445 C440 1.425 . S
C445 C442 1.409 . S
C445 C443 1.415 . S
C446 H436 0.930 . S
C446 C444 1.419 . S
C446 C447 1.362 . S
C447 H437 0.930 . S
C447 C440 1.409 . S
C447 C446 1.362 . S
H448 C454 0.930 . S
H449 C457 0.930 . S
H450 C458 0.930 . S
H451 C459 0.930 . S
H452 C462 0.930 . S
H453 C463 0.930 . S
C454 H448 0.930 . S
C454 C455 1.355 . S
C454 C456 1.415 . S
C455 C454 1.355 . S
C455 C457 1.419 . S
C456 C454 1.415 . S
C456 C461 1.425 . S
C456 C463 1.409 . S
C457 H449 0.930 . S
C457 C455 1.419 . S
C457 C458 1.362 . S
C458 H450 0.930 . S
C458 C457 1.362 . S
C458 C461 1.409 . S
C459 H451 0.930 . S
C459 C460 1.355 . S
C459 C461 1.415 . S
C460 C459 1.355 . S
C460 C462 1.419 . S
C461 C456 1.425 . S
C461 C458 1.409 . S
C461 C459 1.415 . S
C462 H452 0.930 . S
C462 C460 1.419 . S
C462 C463 1.362 . S
C463 H453 0.930 . S
C463 C456 1.409 . S
C463 C462 1.362 . S
H464 C470 0.930 1_655 S
H465 C473 0.930 . S
H466 C474 0.930 . S
H467 C475 0.930 . S
H468 C478 0.930 . S
H469 C479 0.930 . S
C470 H464 0.930 1_455 S
C470 C471 1.355 . S
C470 C472 1.415 . S
C471 C470 1.355 . S
C471 C473 1.419 . S
C472 C470 1.415 . S
C472 C477 1.425 . S
C472 C479 1.409 1_456 S
C473 H465 0.930 . S
C473 C471 1.419 . S
C473 C474 1.362 . S
C474 H466 0.930 . S
C474 C473 1.362 . S
C474 C477 1.409 . S
C475 H467 0.930 . S
C475 C476 1.355 . S
C475 C477 1.415 1_554 S
C476 C475 1.355 . S
C476 C478 1.419 1_455 S
C477 C472 1.425 . S
C477 C474 1.409 . S
C477 C475 1.415 1_556 S
C478 H468 0.930 . S
C478 C476 1.419 1_655 S
C478 C479 1.362 . S
C479 H469 0.930 . S
C479 C472 1.409 1_654 S
C479 C478 1.362 . S
H480 C486 0.930 . S
H481 C489 0.930 . S
H482 C490 0.930 . S
H483 C491 0.930 . S
H484 C494 0.930 . S
H485 C495 0.930 . S
C486 H480 0.930 . S
C486 C487 1.355 . S
C486 C488 1.415 . S
C487 C486 1.355 . S
C487 C489 1.419 . S
C488 C486 1.415 . S
C488 C493 1.425 . S
C488 C495 1.409 . S
C489 H481 0.930 . S
C489 C487 1.419 . S
C489 C490 1.362 . S
C490 H482 0.930 . S
C490 C489 1.362 . S
C490 C493 1.409 . S
C491 H483 0.930 . S
C491 C492 1.355 . S
C491 C493 1.415 . S
C492 C491 1.355 . S
C492 C494 1.419 . S
C493 C488 1.425 . S
C493 C490 1.409 . S
C493 C491 1.415 . S
C494 H484 0.930 . S
C494 C492 1.419 . S
C494 C495 1.362 . S
C495 H485 0.930 . S
C495 C488 1.409 . S
C495 C494 1.362 . S
H496 C502 0.928 1_655 S
H497 C505 0.930 . S
H498 C506 0.930 . S
H499 C507 0.930 . S
H500 C510 0.930 . S
H501 C511 0.930 1_655 S
C502 H496 0.928 1_455 S
C502 C503 1.355 1_554 S
C502 C504 1.415 . S
C503 C502 1.355 1_556 S
C503 C505 1.419 . S
C504 C502 1.415 . S
C504 C509 1.425 . S
C504 C511 1.409 . S
C505 H497 0.930 . S
C505 C503 1.419 . S
C505 C506 1.362 . S
C506 H498 0.930 . S
C506 C505 1.362 . S
C506 C509 1.409 1_556 S
C507 H499 0.930 . S
C507 C508 1.355 . S
C507 C509 1.415 . S
C508 C507 1.355 . S
C508 C510 1.419 . S
C509 C504 1.425 . S
C509 C506 1.409 1_554 S
C509 C507 1.415 . S
C510 H500 0.930 . S
C510 C508 1.419 . S
C510 C511 1.362 . S
C511 H501 0.930 1_455 S
C511 C504 1.409 . S
C511 C510 1.362 . S
H512 C518 0.930 . S
H513 C521 0.930 . S
H514 C522 0.930 . S
H515 C523 0.930 . S
H516 C526 0.930 . S
H517 C527 0.930 . S
C518 H512 0.930 . S
C518 C519 1.355 . S
C518 C520 1.415 . S
C519 C518 1.355 . S
C519 C521 1.419 . S
C520 C518 1.415 . S
C520 C525 1.425 . S
C520 C527 1.409 . S
C521 H513 0.930 . S
C521 C519 1.419 . S
C521 C522 1.362 . S
C522 H514 0.930 . S
C522 C521 1.362 . S
C522 C525 1.409 . S
C523 H515 0.930 . S
C523 C524 1.355 . S
C523 C525 1.415 . S
C524 C523 1.355 . S
C524 C526 1.419 . S
C525 C520 1.425 . S
C525 C522 1.409 . S
C525 C523 1.415 . S
C526 H516 0.930 . S
C526 C524 1.419 . S
C526 C527 1.362 . S
C527 H517 0.930 . S
C527 C520 1.409 . S
C527 C526 1.362 . S
H528 C534 0.930 . S
H529 C537 0.930 . S
H530 C538 0.930 . S
H531 C539 0.930 . S
H532 C542 0.930 . S
H533 C543 0.930 . S
C534 H528 0.930 . S
C534 C535 1.355 . S
C534 C536 1.415 . S
C535 C534 1.355 . S
C535 C537 1.419 . S
C536 C534 1.415 . S
C536 C541 1.425 . S
C536 C543 1.409 1_556 S
C537 H529 0.930 . S
C537 C535 1.419 . S
C537 C538 1.362 . S
C538 H530 0.930 . S
C538 C537 1.362 . S
C538 C541 1.409 . S
C539 H531 0.930 . S
C539 C540 1.355 1_556 S
C539 C541 1.415 . S
C540 C539 1.355 1_554 S
C540 C542 1.419 . S
C541 C536 1.425 . S
C541 C538 1.409 . S
C541 C539 1.415 . S
C542 H532 0.930 . S
C542 C540 1.419 . S
C542 C543 1.362 . S
C543 H533 0.930 . S
C543 C536 1.409 1_554 S
C543 C542 1.362 . S
H544 C550 0.930 . S
H545 C553 0.930 . S
H546 C554 0.930 . S
H547 C555 0.930 . S
H548 C558 0.928 1_655 S
H549 C559 0.930 1_655 S
C550 H544 0.930 . S
C550 C551 1.355 . S
C550 C552 1.415 . S
C551 C550 1.355 . S
C551 C553 1.419 . S
C552 C550 1.415 . S
C552 C557 1.425 . S
C552 C559 1.409 . S
C553 H545 0.930 . S
C553 C551 1.419 . S
C553 C554 1.362 . S
C554 H546 0.930 . S
C554 C553 1.362 . S
C554 C557 1.409 . S
C555 H547 0.930 . S
C555 C556 1.355 . S
C555 C557 1.415 . S
C556 C555 1.355 . S
C556 C558 1.421 . S
C557 C552 1.425 . S
C557 C554 1.409 . S
C557 C555 1.415 . S
C558 H548 0.928 1_455 S
C558 C556 1.421 . S
C558 C559 1.362 . S
C559 H549 0.930 1_455 S
C559 C552 1.409 . S
C559 C558 1.362 . S
H560 C566 0.930 . S
H561 C569 0.930 . S
H562 C570 0.930 . S
H563 C571 0.930 . S
H564 C574 0.930 . S
H565 C575 0.930 1_556 S
C566 H560 0.930 . S
C566 C567 1.355 . S
C566 C568 1.415 1_556 S
C567 C566 1.355 . S
C567 C569 1.419 1_556 S
C568 C566 1.415 1_554 S
C568 C573 1.425 . S
C568 C575 1.409 . S
C569 H561 0.930 . S
C569 C567 1.419 1_554 S
C569 C570 1.362 . S
C570 H562 0.930 . S
C570 C569 1.362 . S
C570 C573 1.409 . S
C571 H563 0.930 . S
C571 C572 1.355 . S
C571 C573 1.415 . S
C572 C571 1.355 . S
C572 C574 1.419 . S
C573 C568 1.425 . S
C573 C570 1.409 . S
C573 C571 1.415 . S
C574 H564 0.930 . S
C574 C572 1.419 . S
C574 C575 1.362 . S
C575 H565 0.930 1_554 S
C575 C568 1.409 . S
C575 C574 1.362 . S
H576 C582 0.930 . S
H577 C585 0.930 . S
H578 C586 0.930 1_655 S
H579 C587 0.930 1_655 S
H580 C590 0.930 . S
H581 C591 0.930 . S
C582 H576 0.930 . S
C582 C583 1.355 . S
C582 C584 1.415 . S
C583 C582 1.355 . S
C583 C585 1.419 . S
C584 C582 1.415 . S
C584 C589 1.425 . S
C584 C591 1.409 . S
C585 H577 0.930 . S
C585 C583 1.419 . S
C585 C586 1.362 . S
C586 H578 0.930 1_455 S
C586 C585 1.362 . S
C586 C589 1.409 . S
C587 H579 0.930 1_455 S
C587 C588 1.355 . S
C587 C589 1.415 . S
C588 C587 1.355 . S
C588 C590 1.419 . S
C589 C584 1.425 . S
C589 C586 1.409 . S
C589 C587 1.415 . S
C590 H580 0.930 . S
C590 C588 1.419 . S
C590 C591 1.362 . S
C591 H581 0.930 . S
C591 C584 1.409 . S
C591 C590 1.362 . S
C279 C70 1.691 . S
C284 C2 1.693 . S
C295 C104 1.646 . S
C300 C36 1.643 . S
C311 C138 1.647 . S
C316 C206 1.652 . S
C327 C172 1.681 . S
C332 C240 1.687 . S
C343 C111 1.203 . S
C348 C9 1.163 . S
C359 C43 1.113 . S
C364 C77 1.210 . S
C375 C73 1.859 . S
C380 C39 1.872 . S
C391 C107 1.833 . S
C396 C5 1.845 . S
C407 C247 1.135 . S
C412 C145 1.161 . S
C423 C179 1.192 . S
C428 C213 1.177 . S
C439 C209 1.865 . S
C444 C175 1.873 . S
C455 C243 1.844 . S
C460 C141 1.861 . S
C471 C190 1.320 . S
C476 C33 1.333 . S
C487 C67 1.298 . S
C492 C156 1.314 . S
C503 C101 1.302 . S
C508 C258 1.302 . S
C519 C224 1.326 . S
C524 C135 1.307 . S
C535 C54 1.308 . S
C540 C169 1.322 . S
C551 C203 1.332 . S
C556 C20 1.333 . S
C567 C237 1.332 . S
C572 C122 1.332 . S
C583 C271 1.319 . S
C588 C88 1.333 . S
