# Generated by pormake.
# Topology uox, (4)-cn, num edge types: 1
# Building blocks:
#     Node 0, Type 0, BuildingBlock: NAHDIM_clean_sbu_0, # of connection points: 4
#     Node 1, Type 0, BuildingBlock: NAHDIM_clean_sbu_0, # of connection points: 4
#     Node 2, Type 0, BuildingBlock: NAHDIM_clean_sbu_0, # of connection points: 4
#     Node 3, Type 0, BuildingBlock: NAHDIM_clean_sbu_0, # of connection points: 4
#     Node 4, Type 0, BuildingBlock: NAHDIM_clean_sbu_0, # of connection points: 4
#     Node 5, Type 0, BuildingBlock: NAHDIM_clean_sbu_0, # of connection points: 4
#     Node 6, Type 0, BuildingBlock: NAHDIM_clean_sbu_0, # of connection points: 4
#     Node 7, Type 0, BuildingBlock: NAHDIM_clean_sbu_0, # of connection points: 4
#     Node 8, Type 0, BuildingBlock: NAHDIM_clean_sbu_0, # of connection points: 4
#     Node 9, Type 0, BuildingBlock: NAHDIM_clean_sbu_0, # of connection points: 4
#     Node 10, Type 0, BuildingBlock: NAHDIM_clean_sbu_0, # of connection points: 4
#     Node 11, Type 0, BuildingBlock: NAHDIM_clean_sbu_0, # of connection points: 4
#     Node 12, Type 0, BuildingBlock: NAHDIM_clean_sbu_0, # of connection points: 4
#     Node 13, Type 0, BuildingBlock: NAHDIM_clean_sbu_0, # of connection points: 4
#     Node 14, Type 0, BuildingBlock: NAHDIM_clean_sbu_0, # of connection points: 4
#     Node 15, Type 0, BuildingBlock: NAHDIM_clean_sbu_0, # of connection points: 4
#     Node 16, Type 0, BuildingBlock: NAHDIM_clean_sbu_0, # of connection points: 4
#     Node 17, Type 0, BuildingBlock: NAHDIM_clean_sbu_0, # of connection points: 4
#     Node 18, Type 0, BuildingBlock: NAHDIM_clean_sbu_0, # of connection points: 4
#     Node 19, Type 0, BuildingBlock: NAHDIM_clean_sbu_0, # of connection points: 4
#     Node 20, Type 0, BuildingBlock: NAHDIM_clean_sbu_0, # of connection points: 4
#     Node 21, Type 0, BuildingBlock: NAHDIM_clean_sbu_0, # of connection points: 4
#     Node 22, Type 0, BuildingBlock: NAHDIM_clean_sbu_0, # of connection points: 4
#     Node 23, Type 0, BuildingBlock: NAHDIM_clean_sbu_0, # of connection points: 4
#     Node 24, Type 0, BuildingBlock: NAHDIM_clean_sbu_0, # of connection points: 4
#     Node 25, Type 0, BuildingBlock: NAHDIM_clean_sbu_0, # of connection points: 4
#     Node 26, Type 0, BuildingBlock: NAHDIM_clean_sbu_0, # of connection points: 4
#     Node 27, Type 0, BuildingBlock: NAHDIM_clean_sbu_0, # of connection points: 4
#     Node 28, Type 0, BuildingBlock: NAHDIM_clean_sbu_0, # of connection points: 4
#     Node 29, Type 0, BuildingBlock: NAHDIM_clean_sbu_0, # of connection points: 4
#     Node 30, Type 0, BuildingBlock: NAHDIM_clean_sbu_0, # of connection points: 4
#     Node 31, Type 0, BuildingBlock: NAHDIM_clean_sbu_0, # of connection points: 4
#     Edge 32, Type (0, 0), BuildingBlock: KIFKEQ_clean_linker_1, # of connection points: 2
#     Edge 33, Type (0, 0), BuildingBlock: KIFKEQ_clean_linker_1, # of connection points: 2
#     Edge 34, Type (0, 0), BuildingBlock: KIFKEQ_clean_linker_1, # of connection points: 2
#     Edge 35, Type (0, 0), BuildingBlock: KIFKEQ_clean_linker_1, # of connection points: 2
#     Edge 36, Type (0, 0), BuildingBlock: KIFKEQ_clean_linker_1, # of connection points: 2
#     Edge 37, Type (0, 0), BuildingBlock: KIFKEQ_clean_linker_1, # of connection points: 2
#     Edge 38, Type (0, 0), BuildingBlock: KIFKEQ_clean_linker_1, # of connection points: 2
#     Edge 39, Type (0, 0), BuildingBlock: KIFKEQ_clean_linker_1, # of connection points: 2
#     Edge 40, Type (0, 0), BuildingBlock: KIFKEQ_clean_linker_1, # of connection points: 2
#     Edge 41, Type (0, 0), BuildingBlock: KIFKEQ_clean_linker_1, # of connection points: 2
#     Edge 42, Type (0, 0), BuildingBlock: KIFKEQ_clean_linker_1, # of connection points: 2
#     Edge 43, Type (0, 0), BuildingBlock: KIFKEQ_clean_linker_1, # of connection points: 2
#     Edge 44, Type (0, 0), BuildingBlock: KIFKEQ_clean_linker_1, # of connection points: 2
#     Edge 45, Type (0, 0), BuildingBlock: KIFKEQ_clean_linker_1, # of connection points: 2
#     Edge 46, Type (0, 0), BuildingBlock: KIFKEQ_clean_linker_1, # of connection points: 2
#     Edge 47, Type (0, 0), BuildingBlock: KIFKEQ_clean_linker_1, # of connection points: 2
#     Edge 48, Type (0, 0), BuildingBlock: KIFKEQ_clean_linker_1, # of connection points: 2
#     Edge 49, Type (0, 0), BuildingBlock: KIFKEQ_clean_linker_1, # of connection points: 2
#     Edge 50, Type (0, 0), BuildingBlock: KIFKEQ_clean_linker_1, # of connection points: 2
#     Edge 51, Type (0, 0), BuildingBlock: KIFKEQ_clean_linker_1, # of connection points: 2
#     Edge 52, Type (0, 0), BuildingBlock: KIFKEQ_clean_linker_1, # of connection points: 2
#     Edge 53, Type (0, 0), BuildingBlock: KIFKEQ_clean_linker_1, # of connection points: 2
#     Edge 54, Type (0, 0), BuildingBlock: KIFKEQ_clean_linker_1, # of connection points: 2
#     Edge 55, Type (0, 0), BuildingBlock: KIFKEQ_clean_linker_1, # of connection points: 2
#     Edge 56, Type (0, 0), BuildingBlock: KIFKEQ_clean_linker_1, # of connection points: 2
#     Edge 57, Type (0, 0), BuildingBlock: KIFKEQ_clean_linker_1, # of connection points: 2
#     Edge 58, Type (0, 0), BuildingBlock: KIFKEQ_clean_linker_1, # of connection points: 2
#     Edge 59, Type (0, 0), BuildingBlock: KIFKEQ_clean_linker_1, # of connection points: 2
#     Edge 60, Type (0, 0), BuildingBlock: KIFKEQ_clean_linker_1, # of connection points: 2
#     Edge 61, Type (0, 0), BuildingBlock: KIFKEQ_clean_linker_1, # of connection points: 2
#     Edge 62, Type (0, 0), BuildingBlock: KIFKEQ_clean_linker_1, # of connection points: 2
#     Edge 63, Type (0, 0), BuildingBlock: KIFKEQ_clean_linker_1, # of connection points: 2
#     Edge 64, Type (0, 0), BuildingBlock: KIFKEQ_clean_linker_1, # of connection points: 2
#     Edge 65, Type (0, 0), BuildingBlock: KIFKEQ_clean_linker_1, # of connection points: 2
#     Edge 66, Type (0, 0), BuildingBlock: KIFKEQ_clean_linker_1, # of connection points: 2
#     Edge 67, Type (0, 0), BuildingBlock: KIFKEQ_clean_linker_1, # of connection points: 2
#     Edge 68, Type (0, 0), BuildingBlock: KIFKEQ_clean_linker_1, # of connection points: 2
#     Edge 69, Type (0, 0), BuildingBlock: KIFKEQ_clean_linker_1, # of connection points: 2
#     Edge 70, Type (0, 0), BuildingBlock: KIFKEQ_clean_linker_1, # of connection points: 2
#     Edge 71, Type (0, 0), BuildingBlock: KIFKEQ_clean_linker_1, # of connection points: 2
#     Edge 72, Type (0, 0), BuildingBlock: KIFKEQ_clean_linker_1, # of connection points: 2
#     Edge 73, Type (0, 0), BuildingBlock: KIFKEQ_clean_linker_1, # of connection points: 2
#     Edge 74, Type (0, 0), BuildingBlock: KIFKEQ_clean_linker_1, # of connection points: 2
#     Edge 75, Type (0, 0), BuildingBlock: KIFKEQ_clean_linker_1, # of connection points: 2
#     Edge 76, Type (0, 0), BuildingBlock: KIFKEQ_clean_linker_1, # of connection points: 2
#     Edge 77, Type (0, 0), BuildingBlock: KIFKEQ_clean_linker_1, # of connection points: 2
#     Edge 78, Type (0, 0), BuildingBlock: KIFKEQ_clean_linker_1, # of connection points: 2
#     Edge 79, Type (0, 0), BuildingBlock: KIFKEQ_clean_linker_1, # of connection points: 2
#     Edge 80, Type (0, 0), BuildingBlock: KIFKEQ_clean_linker_1, # of connection points: 2
#     Edge 81, Type (0, 0), BuildingBlock: KIFKEQ_clean_linker_1, # of connection points: 2
#     Edge 82, Type (0, 0), BuildingBlock: KIFKEQ_clean_linker_1, # of connection points: 2
#     Edge 83, Type (0, 0), BuildingBlock: KIFKEQ_clean_linker_1, # of connection points: 2
#     Edge 84, Type (0, 0), BuildingBlock: KIFKEQ_clean_linker_1, # of connection points: 2
#     Edge 85, Type (0, 0), BuildingBlock: KIFKEQ_clean_linker_1, # of connection points: 2
#     Edge 86, Type (0, 0), BuildingBlock: KIFKEQ_clean_linker_1, # of connection points: 2
#     Edge 87, Type (0, 0), BuildingBlock: KIFKEQ_clean_linker_1, # of connection points: 2
#     Edge 88, Type (0, 0), BuildingBlock: KIFKEQ_clean_linker_1, # of connection points: 2
#     Edge 89, Type (0, 0), BuildingBlock: KIFKEQ_clean_linker_1, # of connection points: 2
#     Edge 90, Type (0, 0), BuildingBlock: KIFKEQ_clean_linker_1, # of connection points: 2
#     Edge 91, Type (0, 0), BuildingBlock: KIFKEQ_clean_linker_1, # of connection points: 2
#     Edge 92, Type (0, 0), BuildingBlock: KIFKEQ_clean_linker_1, # of connection points: 2
#     Edge 93, Type (0, 0), BuildingBlock: KIFKEQ_clean_linker_1, # of connection points: 2
#     Edge 94, Type (0, 0), BuildingBlock: KIFKEQ_clean_linker_1, # of connection points: 2
#     Edge 95, Type (0, 0), BuildingBlock: KIFKEQ_clean_linker_1, # of connection points: 2
# Relax obj value: 0.106
# Max RMSD: 0.136
# Mean RMSD: 0.136
data_MOF--net-uox--node1-NAHDIM_clean_sbu_0--edge1-KIFKEQ_clean_linker_1
_symmetry_space_group_name_H-M    P1
_symmetry_Int_Tables_number       1
_symmetry_cell_setting            triclinic
loop_
_symmetry_equiv_pos_as_xyz
'x, y, z'
_cell_length_a     45.334773
_cell_length_b     45.322876
_cell_length_c     82.673116
_cell_angle_alpha  90.002691
_cell_angle_beta   90.046154
_cell_angle_gamma 89.954084
loop_
_atom_site_label
_atom_site_type_symbol
_atom_site_fract_x
_atom_site_fract_y
_atom_site_fract_z
_atom_type_partial_charge
C0 C 0.43632 0.00302 0.18866 0.0
O1 O 0.44841 0.98399 0.17867 0.0
O2 O 0.46407 0.04475 0.15156 0.0
Zn3 Zn 0.42375 0.03188 0.15885 0.0
O4 O 0.4103 0.99461 0.14808 0.0
C5 C 0.39537 0.08933 0.1584 0.0
O6 O 0.415 0.09577 0.16956 0.0
O7 O 0.42402 0.02596 0.18293 0.0
C8 C 0.40624 0.99409 0.13288 0.0
O9 O 0.41317 0.01747 0.12428 0.0
C10 C 0.48232 0.02964 0.14334 0.0
O11 O 0.47546 0.00263 0.139 0.0
O12 O 0.39481 0.06346 0.15252 0.0
C13 C 0.24332 0.20395 0.43217 0.0
O14 O 0.26497 0.21239 0.42269 0.0
O15 O 0.21312 0.23233 0.39194 0.0
Zn16 Zn 0.21742 0.1917 0.4016 0.0
O17 O 0.25388 0.17074 0.39362 0.0
C18 C 0.17318 0.14417 0.40091 0.0
O19 O 0.18777 0.13271 0.41313 0.0
O20 O 0.21965 0.19437 0.42582 0.0
C21 C 0.25274 0.1541 0.38127 0.0
O22 O 0.22789 0.15207 0.37316 0.0
C23 C 0.20412 0.23451 0.37742 0.0
O24 O 0.20002 0.21033 0.36895 0.0
O25 O 0.18169 0.16848 0.39486 0.0
C26 C 0.05796 0.99127 0.6865 0.0
O27 O 0.05719 0.01387 0.67656 0.0
O28 O 0.03996 0.95356 0.6435 0.0
Zn29 Zn 0.07545 0.9609 0.65758 0.0
O30 O 0.09913 0.99604 0.65048 0.0
C31 C 0.10987 0.91926 0.64085 0.0
O32 O 0.10202 0.93688 0.62897 0.0
O33 O 0.06447 0.96591 0.68098 0.0
C34 C 0.09237 0.01439 0.63947 0.0
O35 O 0.06748 0.01125 0.63153 0.0
C36 C 0.01563 0.96747 0.64324 0.0
O37 O 0.01179 0.9902 0.65288 0.0
O38 O 0.10132 0.92521 0.65512 0.0
C39 C 0.2573 0.80824 0.93748 0.0
O40 O 0.23485 0.80555 0.92752 0.0
O41 O 0.29237 0.79139 0.89447 0.0
Zn42 Zn 0.28599 0.82735 0.90845 0.0
O43 O 0.24976 0.85002 0.90194 0.0
C44 C 0.32231 0.87308 0.89472 0.0
O45 O 0.29885 0.87734 0.88567 0.0
O46 O 0.28204 0.81671 0.93196 0.0
C47 C 0.23094 0.84173 0.89151 0.0
O48 O 0.23468 0.81647 0.88399 0.0
C49 C 0.29503 0.7655 0.9002 0.0
O50 O 0.29179 0.76135 0.91582 0.0
O51 O 0.32169 0.85322 0.90557 0.0
C52 C 0.43359 0.96905 0.30923 0.0
O53 O 0.43997 0.99088 0.31908 0.0
O54 O 0.45277 0.93209 0.35109 0.0
Zn55 Zn 0.41581 0.94351 0.33908 0.0
O56 O 0.39951 0.98294 0.34579 0.0
C57 C 0.38231 0.90587 0.35897 0.0
O58 O 0.39806 0.92018 0.36975 0.0
O59 O 0.42332 0.94523 0.31508 0.0
C60 C 0.40119 0.99527 0.35956 0.0
O61 O 0.41549 0.98213 0.37136 0.0
C62 C 0.47545 0.94769 0.35396 0.0
O63 O 0.47645 0.97507 0.34878 0.0
O64 O 0.3855 0.91228 0.3441 0.0
C65 C 0.27163 0.19082 0.55297 0.0
O66 O 0.25072 0.19892 0.56303 0.0
O67 O 0.31054 0.20705 0.59432 0.0
Zn68 Zn 0.29761 0.17056 0.58242 0.0
O69 O 0.25882 0.15523 0.59049 0.0
C70 C 0.35537 0.14644 0.58436 0.0
O71 O 0.36158 0.17216 0.57785 0.0
O72 O 0.29461 0.17836 0.55855 0.0
C73 C 0.25331 0.15272 0.60549 0.0
O74 O 0.2731 0.16149 0.61606 0.0
C75 C 0.29448 0.22694 0.60063 0.0
O76 O 0.26566 0.22526 0.59929 0.0
O77 O 0.32855 0.13986 0.58692 0.0
C78 C 0.05948 0.02304 0.80699 0.0
O79 O 0.05092 0.00217 0.81696 0.0
O80 O 0.04275 0.06354 0.84781 0.0
Zn81 Zn 0.0794 0.04898 0.83664 0.0
O82 O 0.09323 0.00944 0.84473 0.0
C83 C 0.12386 0.07988 0.85456 0.0
O84 O 0.11676 0.06006 0.86547 0.0
O85 O 0.07214 0.04581 0.81269 0.0
C86 C 0.08773 0.99827 0.8585 0.0
O87 O 0.07098 0.01276 0.86875 0.0
C88 C 0.01895 0.04941 0.8502 0.0
O89 O 0.01689 0.02186 0.84541 0.0
O90 O 0.11114 0.07922 0.84085 0.0
C91 C 0.23112 0.79607 0.05818 0.0
O92 O 0.25114 0.78373 0.06749 0.0
O93 O 0.20426 0.77329 0.09849 0.0
Zn94 Zn 0.20954 0.8137 0.08889 0.0
O95 O 0.2476 0.83213 0.096 0.0
C96 C 0.14961 0.83151 0.09495 0.0
O97 O 0.144 0.80522 0.089 0.0
O98 O 0.21009 0.81027 0.0647 0.0
C99 C 0.25403 0.85638 0.08914 0.0
O100 O 0.23594 0.86704 0.07817 0.0
C101 C 0.19369 0.76964 0.11257 0.0
O102 O 0.1873 0.79288 0.1214 0.0
O103 O 0.17621 0.84015 0.09586 0.0
C104 C 0.55391 0.97671 0.81128 0.0
O105 O 0.5478 0.99806 0.82149 0.0
O106 O 0.53317 0.94028 0.85218 0.0
Zn107 Zn 0.57122 0.94871 0.84064 0.0
O108 O 0.59068 0.98587 0.84853 0.0
C109 C 0.60815 0.9126 0.85965 0.0
O110 O 0.59995 0.93238 0.87037 0.0
O111 O 0.56408 0.9525 0.81671 0.0
C112 C 0.61558 0.9911 0.8421 0.0
O113 O 0.62579 0.97263 0.8312 0.0
C114 C 0.51384 0.95909 0.85636 0.0
O115 O 0.51817 0.98717 0.85324 0.0
O116 O 0.59864 0.91482 0.84524 0.0
C117 C 0.76991 0.81552 0.55625 0.0
O118 O 0.75015 0.80561 0.56652 0.0
O119 O 0.81059 0.7968 0.59626 0.0
Zn120 Zn 0.79611 0.83406 0.58574 0.0
O121 O 0.75679 0.84703 0.59427 0.0
C122 C 0.85023 0.86788 0.58405 0.0
O123 O 0.8561 0.85019 0.57188 0.0
O124 O 0.79266 0.82857 0.56168 0.0
C125 C 0.75374 0.85547 0.60881 0.0
O126 O 0.77643 0.8539 0.61868 0.0
C127 C 0.79535 0.77825 0.60417 0.0
O128 O 0.76677 0.78222 0.60561 0.0
O129 O 0.82562 0.86556 0.59126 0.0
C130 C 0.94433 0.01419 0.31658 0.0
O131 O 0.9521 0.9937 0.32698 0.0
O132 O 0.97159 0.04915 0.35644 0.0
Zn133 Zn 0.93167 0.04719 0.34569 0.0
O134 O 0.90574 0.01668 0.35604 0.0
C135 C 0.8843 0.08929 0.34957 0.0
O136 O 0.86774 0.06574 0.34779 0.0
O137 O 0.93508 0.03888 0.32182 0.0
C138 C 0.91352 0.99192 0.36185 0.0
O139 O 0.94146 0.98421 0.36157 0.0
C140 C 0.99439 0.05537 0.34819 0.0
O141 O 0.99183 0.0587 0.33247 0.0
O142 O 0.9122 0.0867 0.3488 0.0
C143 C 0.73859 0.17403 0.05967 0.0
O144 O 0.762 0.17617 0.06898 0.0
O145 O 0.70569 0.19835 0.10259 0.0
Zn146 Zn 0.71187 0.16053 0.0901 0.0
O147 O 0.74895 0.13936 0.09685 0.0
C148 C 0.67039 0.13114 0.10992 0.0
O149 O 0.68621 0.14478 0.12094 0.0
O150 O 0.71383 0.16798 0.06608 0.0
C151 C 0.76091 0.14123 0.11071 0.0
O152 O 0.74925 0.15862 0.12169 0.0
C153 C 0.71016 0.22412 0.09706 0.0
O154 O 0.72106 0.22722 0.08244 0.0
O155 O 0.67725 0.1342 0.09511 0.0
C156 C 0.55178 0.01293 0.69109 0.0
O157 O 0.54294 0.99261 0.68084 0.0
O158 O 0.53493 0.05245 0.65012 0.0
Zn159 Zn 0.57157 0.03945 0.6618 0.0
O160 O 0.58723 0.00093 0.65355 0.0
C161 C 0.59679 0.09728 0.66001 0.0
O162 O 0.57159 0.10446 0.66681 0.0
O163 O 0.56437 0.03594 0.68567 0.0
C164 C 0.59639 -0.00118 0.63909 0.0
O165 O 0.59345 0.02155 0.62935 0.0
C166 C 0.51741 0.03662 0.64183 0.0
O167 O 0.52192 0.00804 0.64083 0.0
O168 O 0.60229 0.07025 0.6573 0.0
C169 C 0.73397 0.80647 0.43592 0.0
O170 O 0.75467 0.79715 0.42604 0.0
O171 O 0.69981 0.7787 0.39676 0.0
Zn172 Zn 0.70695 0.81925 0.40576 0.0
O173 O 0.74416 0.83764 0.39727 0.0
C174 C 0.64784 0.84367 0.40585 0.0
O175 O 0.64377 0.82466 0.41763 0.0
O176 O 0.71025 0.81686 0.43 0.0
C177 C 0.7499 0.8626 0.40353 0.0
O178 O 0.73177 0.87332 0.41445 0.0
C179 C 0.69265 0.77514 0.38203 0.0
O180 O 0.69179 0.79822 0.37242 0.0
O181 O 0.67305 0.84538 0.39923 0.0
C182 C 0.94645 0.97529 0.19644 0.0
O183 O 0.9569 0.99488 0.18623 0.0
O184 O 0.96961 0.9335 0.15762 0.0
Zn185 Zn 0.93065 0.94595 0.16699 0.0
O186 O 0.91466 0.98293 0.15674 0.0
C187 C 0.87558 0.91304 0.16043 0.0
O188 O 0.86181 0.93849 0.1614 0.0
O189 O 0.93435 0.95208 0.19094 0.0
C190 C 0.90438 0.98292 0.14244 0.0
O191 O 0.90563 0.95855 0.13386 0.0
C192 C 0.98513 0.94698 0.14718 0.0
O193 O 0.97679 0.97313 0.14206 0.0
O194 O 0.90329 0.91194 0.16271 0.0
C195 C 0.76121 0.18635 0.9384 0.0
O196 O 0.74173 0.20001 0.9293 0.0
O197 O 0.79306 0.21812 0.90085 0.0
Zn198 Zn 0.788 0.17558 0.90758 0.0
O199 O 0.75286 0.15602 0.89725 0.0
C200 C 0.84169 0.16211 0.89032 0.0
O201 O 0.8356 0.18728 0.8832 0.0
O202 O 0.78324 0.17403 0.93171 0.0
C203 C 0.75379 0.14759 0.8826 0.0
O204 O 0.77738 0.15333 0.87394 0.0
C205 C 0.78127 0.23069 0.88871 0.0
O206 O 0.76249 0.216 0.87969 0.0
O207 O 0.82454 0.15259 0.90131 0.0
C208 C 0.94374 0.52139 0.68626 0.0
O209 O 0.95239 0.50099 0.67601 0.0
O210 O 0.9634 0.55627 0.64482 0.0
Zn211 Zn 0.92545 0.54871 0.65684 0.0
O212 O 0.90623 0.51146 0.64909 0.0
C213 C 0.90605 0.60889 0.65483 0.0
O214 O 0.93198 0.61366 0.66144 0.0
O215 O 0.93192 0.54482 0.68082 0.0
C216 C 0.89264 0.5107 0.63567 0.0
O217 O 0.89251 0.5343 0.62644 0.0
C218 C 0.98655 0.56537 0.65192 0.0
O219 O 0.98632 0.56859 0.66771 0.0
O220 O 0.898 0.58251 0.65214 0.0
C221 C 0.73511 0.69649 0.94491 0.0
O222 O 0.74444 0.71805 0.93561 0.0
O223 O 0.70434 0.71485 0.90679 0.0
Zn224 Zn 0.71586 0.67419 0.91444 0.0
O225 O 0.75325 0.6594 0.90426 0.0
C226 C 0.65645 0.65373 0.9117 0.0
O227 O 0.65145 0.67854 0.91946 0.0
O228 O 0.72161 0.67486 0.93852 0.0
C229 C 0.75349 0.6505 0.8897 0.0
O230 O 0.72928 0.65266 0.88102 0.0
C231 C 0.71572 0.72921 0.89516 0.0
O232 O 0.73798 0.71784 0.88714 0.0
O233 O 0.68289 0.64652 0.90852 0.0
C234 C 0.55446 0.47038 0.18103 0.0
O235 O 0.54469 0.49072 0.17103 0.0
O236 O 0.52982 0.44294 0.14113 0.0
Zn237 Zn 0.57025 0.44628 0.15098 0.0
O238 O 0.5903 0.4838 0.14426 0.0
C239 C 0.61112 0.39564 0.1522 0.0
O240 O 0.61222 0.40037 0.16787 0.0
O241 O 0.56643 0.44734 0.17521 0.0
C242 C 0.61436 0.48925 0.15157 0.0
O243 O 0.62405 0.47031 0.16238 0.0
C244 C 0.52637 0.43171 0.12717 0.0
O245 O 0.54972 0.42364 0.11887 0.0
O246 O 0.59503 0.41204 0.14338 0.0
C247 C 0.75591 0.30383 0.44036 0.0
O248 O 0.73597 0.29276 0.43055 0.0
O249 O 0.78741 0.28567 0.39944 0.0
Zn250 Zn 0.78036 0.32473 0.41054 0.0
O251 O 0.74288 0.34397 0.40281 0.0
C252 C 0.81364 0.37777 0.4014 0.0
O253 O 0.78766 0.39028 0.39977 0.0
O254 O 0.77734 0.3183 0.43447 0.0
C255 C 0.73723 0.348 0.38792 0.0
O256 O 0.75599 0.33844 0.37701 0.0
C257 C 0.80339 0.28461 0.38682 0.0
O258 O 0.81397 0.30926 0.38082 0.0
O259 O 0.81526 0.3511 0.40609 0.0
C260 C 0.93794 0.48236 0.8062 0.0
O261 O 0.94131 0.5041 0.81655 0.0
O262 O 0.95826 0.44207 0.84748 0.0
Zn263 Zn 0.92124 0.45224 0.83516 0.0
O264 O 0.90033 0.48857 0.84313 0.0
C265 C 0.88197 0.41675 0.85276 0.0
O266 O 0.88868 0.4371 0.86347 0.0
O267 O 0.92976 0.45725 0.81139 0.0
C268 C 0.90934 0.50906 0.85237 0.0
O269 O 0.93633 0.50821 0.85814 0.0
C270 C 0.98293 0.45535 0.8475 0.0
O271 O 0.986 0.47986 0.8392 0.0
O272 O 0.89335 0.41831 0.83873 0.0
C273 C 0.77596 0.69712 0.06485 0.0
O274 O 0.7656 0.71838 0.07403 0.0
O275 O 0.80249 0.7128 0.10499 0.0
Zn276 Zn 0.79253 0.67307 0.09562 0.0
O277 O 0.75471 0.65686 0.10437 0.0
C278 C 0.84325 0.63298 0.09275 0.0
O279 O 0.84221 0.63904 0.07723 0.0
O280 O 0.78903 0.67541 0.07143 0.0
C281 C 0.75211 0.65117 0.11934 0.0
O282 O 0.77371 0.65825 0.12921 0.0
C283 C 0.78497 0.73004 0.1124 0.0
O284 O 0.75718 0.72252 0.11418 0.0
O285 O 0.82467 0.64486 0.10224 0.0
C286 C 0.55456 0.51016 0.3011 0.0
O287 O 0.54521 0.49026 0.31145 0.0
O288 O 0.52386 0.54995 0.33794 0.0
Zn289 Zn 0.56518 0.54097 0.33047 0.0
O290 O 0.5821 0.50425 0.34067 0.0
C291 C 0.5856 0.59092 0.34848 0.0
O292 O 0.56308 0.58338 0.35757 0.0
O293 O 0.56433 0.53458 0.30642 0.0
C294 C 0.59158 0.50314 0.35512 0.0
O295 O 0.58909 0.5265 0.36441 0.0
C296 C 0.50886 0.5357 0.3483 0.0
O297 O 0.52003 0.51184 0.35492 0.0
O298 O 0.59115 0.57592 0.33584 0.0
C299 C 0.73126 0.3031 0.56133 0.0
O300 O 0.75409 0.29987 0.57097 0.0
O301 O 0.70084 0.28375 0.60464 0.0
Zn302 Zn 0.70406 0.32048 0.59101 0.0
O303 O 0.73976 0.3441 0.59716 0.0
C304 C 0.66668 0.37165 0.59818 0.0
O305 O 0.6914 0.38674 0.59806 0.0
O306 O 0.70672 0.31119 0.56729 0.0
C307 C 0.74636 0.35013 0.61171 0.0
O308 O 0.72962 0.34004 0.62344 0.0
C309 C 0.69754 0.25808 0.59873 0.0
O310 O 0.69807 0.25463 0.58296 0.0
O311 O 0.66725 0.34413 0.5952 0.0
C312 C 0.03526 0.48729 0.30637 0.0
O313 O 0.0313 0.50844 0.31703 0.0
O314 O 0.01568 0.44728 0.34687 0.0
Zn315 Zn 0.05304 0.45628 0.33478 0.0
O316 O 0.07339 0.49286 0.34278 0.0
C317 C 0.10667 0.42311 0.34233 0.0
O318 O 0.11805 0.44925 0.34514 0.0
O319 O 0.04408 0.46215 0.3112 0.0
C320 C 0.07362 0.50244 0.35721 0.0
O321 O 0.05886 0.48824 0.36844 0.0
C322 C 0.99637 0.46545 0.35187 0.0
O323 O 5e-05 0.49382 0.34933 0.0
O324 O 0.08005 0.42117 0.33757 0.0
C325 C 0.25694 0.28894 0.05521 0.0
O326 O 0.2362 0.28518 0.0661 0.0
O327 O 0.30058 0.27299 0.09633 0.0
Zn328 Zn 0.289 0.30836 0.08305 0.0
O329 O 0.25252 0.3286 0.09129 0.0
C330 C 0.32998 0.3445 0.09913 0.0
O331 O 0.31433 0.33452 0.11133 0.0
O332 O 0.28223 0.29784 0.05972 0.0
C333 C 0.2411 0.32575 0.10522 0.0
O334 O 0.25328 0.30777 0.11575 0.0
C335 C 0.28563 0.25018 0.09984 0.0
O336 O 0.2585 0.2476 0.09443 0.0
O337 O 0.32293 0.33677 0.08487 0.0
C338 C 0.45005 0.52143 0.81068 0.0
O339 O 0.45824 0.50162 0.82138 0.0
O340 O 0.46849 0.56379 0.85069 0.0
Zn341 Zn 0.43163 0.55016 0.83943 0.0
O342 O 0.41665 0.5116 0.848 0.0
C343 C 0.40552 0.60784 0.8411 0.0
O344 O 0.4309 0.61556 0.83472 0.0
O345 O 0.43846 0.54537 0.81558 0.0
C346 C 0.40399 0.50996 0.86165 0.0
O347 O 0.40276 0.53357 0.87085 0.0
C348 C 0.48701 0.54783 0.85821 0.0
O349 O 0.48316 0.51912 0.85877 0.0
O350 O 0.40041 0.58068 0.84364 0.0
C351 C 0.24312 0.69256 0.55991 0.0
O352 O 0.26235 0.70392 0.57004 0.0
O353 O 0.21032 0.71867 0.59881 0.0
Zn354 Zn 0.21661 0.67792 0.58969 0.0
O355 O 0.25382 0.65956 0.59811 0.0
C356 C 0.1562 0.6574 0.59213 0.0
O357 O 0.15072 0.68003 0.58266 0.0
O358 O 0.22019 0.68013 0.56553 0.0
C359 C 0.25505 0.64857 0.61222 0.0
O360 O 0.23205 0.65094 0.62179 0.0
C361 C 0.19651 0.72212 0.61205 0.0
O362 O 0.18749 0.69874 0.62002 0.0
O363 O 0.18267 0.65195 0.5962 0.0
C364 C 0.04483 0.53552 0.18774 0.0
O365 O 0.02946 0.5568 0.18097 0.0
O366 O 0.03717 0.53663 0.14282 0.0
Zn367 Zn 0.07358 0.52896 0.15611 0.0
O368 O 0.09643 0.49385 0.14826 0.0
C369 C 0.1063 0.57219 0.1397 0.0
O370 O 0.09724 0.55574 0.12759 0.0
O371 O 0.06389 0.52167 0.17943 0.0
C372 C 0.08977 0.47734 0.1364 0.0
O373 O 0.06594 0.483 0.12789 0.0
C374 C 0.01187 0.52535 0.14509 0.0
O375 O 0.00826 0.50588 0.15669 0.0
O376 O 0.09922 0.56485 0.15401 0.0
C377 C 0.20413 0.29791 0.93695 0.0
O378 O 0.18813 0.27787 0.92954 0.0
O379 O 0.20673 0.28576 0.89364 0.0
Zn380 Zn 0.21149 0.32488 0.90486 0.0
O381 O 0.24853 0.34536 0.89798 0.0
C382 C 0.16178 0.345 0.88657 0.0
O383 O 0.17007 0.32285 0.8774 0.0
O384 O 0.21489 0.31919 0.92889 0.0
C385 C 0.25439 0.35278 0.88354 0.0
O386 O 0.2358 0.34594 0.87193 0.0
C387 C 0.22208 0.26259 0.8956 0.0
O388 O 0.24435 0.2629 0.90577 0.0
O389 O 0.17636 0.3507 0.89935 0.0
C390 C 0.44386 0.47406 0.69171 0.0
O391 O 0.45413 0.49268 0.68091 0.0
O392 O 0.46256 0.43769 0.65234 0.0
Zn393 Zn 0.42396 0.44775 0.66291 0.0
O394 O 0.40764 0.48613 0.65489 0.0
C395 C 0.40162 0.38882 0.65992 0.0
O396 O 0.42667 0.38256 0.66716 0.0
O397 O 0.42977 0.45147 0.68689 0.0
C398 C 0.39885 0.48948 0.64043 0.0
O399 O 0.4017 0.46755 0.63015 0.0
C400 C 0.47898 0.45538 0.64455 0.0
O401 O 0.47113 0.48315 0.64307 0.0
O402 O 0.39508 0.41567 0.65735 0.0
C403 C 0.28588 0.68707 0.44017 0.0
O404 O 0.29609 0.71036 0.43257 0.0
O405 O 0.29221 0.70139 0.39862 0.0
Zn406 Zn 0.2823 0.66151 0.40787 0.0
O407 O 0.24399 0.64443 0.39994 0.0
C408 C 0.32109 0.63181 0.3866 0.0
O409 O 0.30492 0.64662 0.3762 0.0
O410 O 0.2794 0.66406 0.43213 0.0
C411 C 0.23122 0.64813 0.38641 0.0
O412 O 0.243 0.66571 0.37557 0.0
C413 C 0.27555 0.7224 0.39411 0.0
O414 O 0.24677 0.71945 0.3949 0.0
O415 O 0.31539 0.63413 0.4016 0.0
H416 H 0.45097 0.01857 0.29309 0.0
H417 H 0.42223 0.92876 0.28531 0.0
H418 H 0.45283 0.02636 0.26396 0.0
H419 H 0.42379 0.93675 0.25612 0.0
H420 H 0.45784 0.95475 0.20464 0.0
H421 H 0.45882 0.94606 0.23376 0.0
H422 H 0.41691 0.03044 0.24172 0.0
H423 H 0.4162 0.03933 0.21265 0.0
C424 C 0.44515 0.00043 0.28517 0.0
C425 C 0.43634 0.97306 0.29153 0.0
C426 C 0.44604 0.00498 0.26848 0.0
C427 C 0.43826 0.98224 0.25775 0.0
C428 C 0.43012 0.95464 0.26408 0.0
C429 C 0.42911 0.95011 0.28081 0.0
C430 C 0.44887 0.97148 0.2126 0.0
C431 C 0.43695 0.99774 0.20632 0.0
C432 C 0.44931 0.96641 0.22928 0.0
C433 C 0.43799 0.98757 0.24003 0.0
C434 C 0.42615 0.01387 0.23375 0.0
C435 C 0.42559 0.01888 0.21709 0.0
H436 H 0.31084 0.17735 0.52895 0.0
H437 H 0.22383 0.21349 0.53707 0.0
H438 H 0.3037 0.18211 0.49984 0.0
H439 H 0.21691 0.21863 0.50794 0.0
H440 H 0.20316 0.18775 0.45521 0.0
H441 H 0.21022 0.18616 0.48444 0.0
H442 H 0.29877 0.21963 0.47863 0.0
H443 H 0.29192 0.22083 0.44939 0.0
C444 C 0.29027 0.18651 0.52454 0.0
C445 C 0.26787 0.19496 0.53533 0.0
C446 C 0.28625 0.18939 0.50785 0.0
C447 C 0.25972 0.20071 0.50159 0.0
C448 C 0.23746 0.20949 0.51239 0.0
C449 C 0.24151 0.2067 0.52908 0.0
C450 C 0.22409 0.1949 0.46016 0.0
C451 C 0.24701 0.20431 0.44996 0.0
C452 C 0.22808 0.19414 0.47692 0.0
C453 C 0.25508 0.20271 0.48384 0.0
C454 C 0.27784 0.21252 0.47365 0.0
C455 C 0.27384 0.21336 0.45689 0.0
H456 H 0.07823 0.05997 0.78296 0.0
H457 H 0.03238 0.97772 0.79105 0.0
H458 H 0.07479 0.05233 0.75386 0.0
H459 H 0.02834 0.97042 0.76193 0.0
H460 H 0.06318 0.9503 0.71062 0.0
H461 H 0.06086 0.95863 0.73967 0.0
H462 H 0.04076 0.05059 0.73131 0.0
H463 H 0.04377 0.04242 0.70221 0.0
C464 C 0.06713 0.04041 0.77853 0.0
C465 C 0.05575 0.01936 0.78933 0.0
C466 C 0.06498 0.03612 0.76184 0.0
C467 C 0.05134 0.01072 0.75556 0.0
C468 C 0.03936 0.99001 0.76637 0.0
C469 C 0.04156 0.99428 0.78306 0.0
C470 C 0.05802 0.97225 0.71496 0.0
C471 C 0.05387 0.99574 0.70409 0.0
C472 C 0.05653 0.977 0.73163 0.0
C473 C 0.05077 0.00532 0.73783 0.0
C474 C 0.04571 0.02861 0.72694 0.0
C475 C 0.04727 0.02388 0.71025 0.0
H476 H 0.29918 0.81156 0.9612 0.0
H477 H 0.20668 0.79328 0.95342 0.0
H478 H 0.29213 0.80619 0.99026 0.0
H479 H 0.19978 0.78746 0.9825 0.0
H480 H 0.19388 0.81955 0.03555 0.0
H481 H 0.20005 0.81987 0.00628 0.0
H482 H 0.28063 0.76971 0.01121 0.0
H483 H 0.27475 0.76977 0.04052 0.0
C484 C 0.2774 0.80611 0.96567 0.0
C485 C 0.25345 0.80301 0.955 0.0
C486 C 0.27341 0.80286 0.98233 0.0
C487 C 0.24538 0.79649 0.98868 0.0
C488 C 0.22156 0.79275 0.97798 0.0
C489 C 0.22556 0.79593 0.96132 0.0
C490 C 0.21283 0.80844 0.0304 0.0
C491 C 0.2339 0.79477 0.04037 0.0
C492 C 0.21626 0.80847 0.01361 0.0
C493 C 0.24087 0.79487 0.00643 0.0
C494 C 0.26164 0.7807 0.01639 0.0
C495 C 0.25817 0.78061 0.03318 0.0
H496 H 0.53424 0.02631 0.79593 0.0
H497 H 0.56597 0.93791 0.78679 0.0
H498 H 0.53091 0.03511 0.7669 0.0
H499 H 0.56305 0.94693 0.75775 0.0
H500 H 0.52991 0.96442 0.70663 0.0
H501 H 0.52773 0.95553 0.7357 0.0
H502 H 0.56555 0.04152 0.74447 0.0
H503 H 0.56734 0.05062 0.71545 0.0
C504 C 0.54043 0.00872 0.78774 0.0
C505 C 0.55049 0.98144 0.79367 0.0
C506 C 0.53865 0.01383 0.7711 0.0
C507 C 0.54684 0.99178 0.76003 0.0
C508 C 0.55628 0.96427 0.76597 0.0
C509 C 0.55811 0.95916 0.78261 0.0
C510 C 0.53755 0.98152 0.71476 0.0
C511 C 0.54889 0.00819 0.70872 0.0
C512 C 0.53646 0.97634 0.73141 0.0
C513 C 0.54656 0.99776 0.74238 0.0
C514 C 0.55729 0.02469 0.73634 0.0
C515 C 0.55847 0.02984 0.7197 0.0
H516 H 0.69534 0.82253 0.45977 0.0
H517 H 0.78378 0.7897 0.45209 0.0
H518 H 0.70429 0.82363 0.48888 0.0
H519 H 0.79254 0.79053 0.48118 0.0
H520 H 0.80728 0.83121 0.53174 0.0
H521 H 0.79836 0.82791 0.50269 0.0
H522 H 0.71272 0.7897 0.51183 0.0
H523 H 0.72145 0.79325 0.54087 0.0
C524 C 0.71662 0.81538 0.46429 0.0
C525 C 0.73887 0.80609 0.45361 0.0
C526 C 0.72168 0.81588 0.48097 0.0
C527 C 0.74914 0.80722 0.48731 0.0
C528 C 0.77128 0.79767 0.47664 0.0
C529 C 0.76618 0.79704 0.45998 0.0
C530 C 0.78659 0.82202 0.52756 0.0
C531 C 0.76506 0.81255 0.53862 0.0
C532 C 0.78155 0.81999 0.51092 0.0
C533 C 0.75481 0.80859 0.50498 0.0
C534 C 0.73339 0.7989 0.51604 0.0
C535 C 0.73849 0.80079 0.53268 0.0
H536 H 0.93254 0.05265 0.29193 0.0
H537 H 0.96009 0.96297 0.30141 0.0
H538 H 0.93427 0.04298 0.26295 0.0
H539 H 0.96223 0.95348 0.2724 0.0
H540 H 0.92714 0.93912 0.22067 0.0
H541 H 0.92773 0.94861 0.24967 0.0
H542 H 0.96972 0.03273 0.24121 0.0
H543 H 0.96875 0.02348 0.21214 0.0
C544 C 0.9391 0.03091 0.28784 0.0
C545 C 0.94609 0.00855 0.29898 0.0
C546 C 0.94028 0.02544 0.27122 0.0
C547 C 0.94838 0.99746 0.26538 0.0
C548 C 0.95557 0.97516 0.27653 0.0
C549 C 0.95449 0.98066 0.29315 0.0
C550 C 0.9366 0.95961 0.22498 0.0
C551 C 0.94783 0.98058 0.21408 0.0
C552 C 0.93708 0.96496 0.24162 0.0
C553 C 0.94875 0.99143 0.24773 0.0
C554 C 0.96026 0.01228 0.23685 0.0
C555 C 0.95984 0.0069 0.2202 0.0
H556 H 0.71663 0.21009 0.95652 0.0
H557 H 0.7976 0.16019 0.96052 0.0
H558 H 0.71092 0.20849 0.98586 0.0
H559 H 0.79159 0.15817 0.98976 0.0
H560 H 0.78833 0.18656 0.04242 0.0
H561 H 0.79343 0.19066 0.0132 0.0
H562 H 0.70036 0.1731 0.00748 0.0
H563 H 0.6951 0.16951 0.03678 0.0
C564 C 0.73317 0.19872 0.96364 0.0
C565 C 0.75759 0.1853 0.95618 0.0
C566 C 0.7298 0.19768 0.98045 0.0
C567 C 0.75082 0.18326 0.99015 0.0
C568 C 0.77522 0.16984 0.98266 0.0
C569 C 0.77857 0.17084 0.96588 0.0
C570 C 0.7689 0.18369 0.03496 0.0
C571 C 0.74132 0.17761 0.04194 0.0
C572 C 0.77188 0.18587 0.01819 0.0
C573 C 0.74734 0.18202 0.008 0.0
C574 C 0.71964 0.17644 0.015 0.0
C575 C 0.71666 0.17424 0.03179 0.0
H576 H 0.92601 0.55804 0.71066 0.0
H577 H 0.9666 0.47326 0.70178 0.0
H578 H 0.92689 0.54833 0.73963 0.0
H579 H 0.96802 0.46382 0.73081 0.0
H580 H 0.92935 0.44346 0.78131 0.0
H581 H 0.93307 0.45326 0.75239 0.0
H582 H 0.95996 0.54281 0.76254 0.0
H583 H 0.95567 0.53322 0.79144 0.0
C584 C 0.93541 0.53746 0.7149 0.0
C585 C 0.9461 0.51637 0.7039 0.0
C586 C 0.93607 0.53196 0.73152 0.0
C587 C 0.94746 0.50526 0.73753 0.0
C588 C 0.95872 0.48443 0.72655 0.0
C589 C 0.95806 0.48993 0.70992 0.0
C590 C 0.93622 0.46518 0.77738 0.0
C591 C 0.94203 0.4876 0.78868 0.0
C592 C 0.93852 0.47076 0.7608 0.0
C593 C 0.9467 0.49886 0.75516 0.0
C594 C 0.95316 0.52106 0.76648 0.0
C595 C 0.95085 0.5155 0.78305 0.0
H596 H 0.78866 0.65379 0.04293 0.0
H597 H 0.7523 0.74172 0.04674 0.0
H598 H 0.77899 0.65404 0.0139 0.0
H599 H 0.7425 0.74181 0.01771 0.0
H600 H 0.7592 0.74129 0.96264 0.0
H601 H 0.76987 0.74178 0.99158 0.0
H602 H 0.7349 0.65353 0.99592 0.0
H603 H 0.72438 0.65288 0.96698 0.0
C604 C 0.77869 0.6732 0.03758 0.0
C605 C 0.77119 0.69772 0.04715 0.0
C606 C 0.77299 0.67325 0.02097 0.0
C607 C 0.75988 0.69789 0.01356 0.0
C608 C 0.75283 0.7226 0.02308 0.0
C609 C 0.75834 0.72248 0.03971 0.0
C610 C 0.75375 0.722 0.96977 0.0
C611 C 0.74097 0.69704 0.96251 0.0
C612 C 0.75975 0.72235 0.98635 0.0
C613 C 0.75329 0.69767 0.99599 0.0
C614 C 0.74045 0.67274 0.98875 0.0
C615 C 0.73426 0.67246 0.97219 0.0
H616 H 0.5695 0.54739 0.27641 0.0
H617 H 0.53831 0.45902 0.28602 0.0
H618 H 0.56886 0.53708 0.24747 0.0
H619 H 0.53736 0.44888 0.25704 0.0
H620 H 0.57261 0.43318 0.20519 0.0
H621 H 0.57225 0.44257 0.23429 0.0
H622 H 0.53262 0.5279 0.22586 0.0
H623 H 0.53326 0.51874 0.19684 0.0
C624 C 0.56243 0.5258 0.27235 0.0
C625 C 0.55395 0.50404 0.28352 0.0
C626 C 0.56191 0.51995 0.25577 0.0
C627 C 0.55301 0.49218 0.24998 0.0
C628 C 0.54461 0.47038 0.26114 0.0
C629 C 0.545 0.47627 0.27774 0.0
C630 C 0.5637 0.45388 0.20956 0.0
C631 C 0.55303 0.47524 0.1987 0.0
C632 C 0.56339 0.4592 0.22622 0.0
C633 C 0.55253 0.48604 0.23235 0.0
C634 C 0.54152 0.5072 0.22149 0.0
C635 C 0.54172 0.50184 0.20486 0.0
H636 H 0.6888 0.30908 0.53805 0.0
H637 H 0.78117 0.28859 0.54461 0.0
H638 H 0.69514 0.3066 0.50881 0.0
H639 H 0.78735 0.28562 0.51537 0.0
H640 H 0.79338 0.32391 0.46378 0.0
H641 H 0.78728 0.32079 0.49297 0.0
H642 H 0.70578 0.27294 0.48635 0.0
H643 H 0.71159 0.27648 0.45707 0.0
C644 C 0.71038 0.30372 0.53326 0.0
C645 C 0.73453 0.29925 0.54366 0.0
C646 C 0.71397 0.30213 0.5165 0.0
C647 C 0.74178 0.29606 0.50978 0.0
C648 C 0.76574 0.29077 0.52018 0.0
C649 C 0.76215 0.29232 0.53694 0.0
C650 C 0.77422 0.31259 0.46853 0.0
C651 C 0.7529 0.30056 0.45809 0.0
C652 C 0.77083 0.31063 0.48527 0.0
C653 C 0.74604 0.29662 0.49198 0.0
C654 C 0.72495 0.28416 0.48155 0.0
C655 C 0.72836 0.28607 0.46477 0.0
H656 H 0.03852 0.44804 0.28134 0.0
H657 H 0.0247 0.54043 0.29187 0.0
H658 H 0.03724 0.45883 0.25248 0.0
H659 H 0.02427 0.55133 0.26303 0.0
H660 H 0.00451 0.55833 0.2091 0.0
H661 H 0.99831 0.54548 0.2376 0.0
H662 H 0.06976 0.48269 0.23371 0.0
H663 H 0.07542 0.49489 0.20532 0.0
C664 C 0.0351 0.47064 0.2775 0.0
C665 C 0.03198 0.49341 0.2889 0.0
C666 C 0.03452 0.47685 0.26096 0.0
C667 C 0.03099 0.506 0.25544 0.0
C668 C 0.02678 0.52861 0.26685 0.0
C669 C 0.0272 0.52237 0.2834 0.0
C670 C 0.01877 0.54169 0.21433 0.0
C671 C 0.04047 0.52768 0.20494 0.0
C672 C 0.01529 0.5344 0.23067 0.0
C673 C 0.03348 0.51298 0.23793 0.0
C674 C 0.055 0.49888 0.22846 0.0
C675 C 0.0584 0.50608 0.21218 0.0
H676 H 0.20428 0.27348 0.04145 0.0
H677 H 0.29378 0.29803 0.02953 0.0
H678 H 0.19146 0.2739 0.01279 0.0
H679 H 0.28103 0.29796 0.0009 0.0
H680 H 0.23782 0.33484 0.95528 0.0
H681 H 0.2509 0.32984 0.98364 0.0
H682 H 0.20019 0.24937 0.98653 0.0
H683 H 0.18664 0.25455 0.95803 0.0
C684 C 0.22132 0.27858 0.03271 0.0
C685 C 0.24999 0.286 0.03779 0.0
C686 C 0.21398 0.27868 0.01629 0.0
C687 C 0.23515 0.28627 0.0046 0.0
C688 C 0.26409 0.29256 0.00964 0.0
C689 C 0.27144 0.29241 0.02605 0.0
C690 C 0.22937 0.31607 0.96192 0.0
C691 C 0.21118 0.29508 0.95437 0.0
C692 C 0.23709 0.31309 0.97817 0.0
C693 C 0.22682 0.28906 0.9873 0.0
C694 C 0.20833 0.2682 0.97983 0.0
C695 C 0.20063 0.27115 0.9635 0.0
H696 H 0.43703 0.55806 0.78536 0.0
H697 H 0.46768 0.46999 0.79643 0.0
H698 H 0.43749 0.54613 0.7566 0.0
H699 H 0.46836 0.45823 0.76764 0.0
H700 H 0.42731 0.43942 0.71726 0.0
H701 H 0.431 0.45103 0.74601 0.0
H702 H 0.47218 0.53427 0.73438 0.0
H703 H 0.46828 0.52286 0.70565 0.0
C704 C 0.44411 0.53625 0.78166 0.0
C705 C 0.45222 0.51495 0.79319 0.0
C706 C 0.4445 0.52947 0.76517 0.0
C707 C 0.45287 0.50121 0.75988 0.0
C708 C 0.46147 0.48007 0.77138 0.0
C709 C 0.46125 0.4869 0.78786 0.0
C710 C 0.43728 0.46012 0.72083 0.0
C711 C 0.44739 0.48026 0.70917 0.0
C712 C 0.43954 0.4667 0.73731 0.0
C713 C 0.45182 0.4936 0.74244 0.0
C714 C 0.46231 0.51352 0.73078 0.0
C715 C 0.4602 0.50689 0.71432 0.0
H716 H 0.20858 0.67018 0.53569 0.0
H717 H 0.29084 0.71573 0.5443 0.0
H718 H 0.2191 0.66942 0.50677 0.0
H719 H 0.30157 0.71446 0.51544 0.0
H720 H 0.29566 0.73306 0.46092 0.0
H721 H 0.28478 0.7352 0.48978 0.0
H722 H 0.25332 0.64529 0.48821 0.0
H723 H 0.26368 0.64328 0.45933 0.0
C724 C 0.22889 0.68004 0.53142 0.0
C725 C 0.24889 0.69298 0.5423 0.0
C726 C 0.23501 0.67943 0.51486 0.0
C727 C 0.26124 0.69175 0.50882 0.0
C728 C 0.28103 0.70504 0.51969 0.0
C729 C 0.27493 0.70564 0.53624 0.0
C730 C 0.2865 0.71372 0.46674 0.0
C731 C 0.28049 0.68802 0.45782 0.0
C732 C 0.28036 0.71492 0.48329 0.0
C733 C 0.26807 0.69046 0.49127 0.0
C734 C 0.26235 0.66467 0.48237 0.0
C735 C 0.2685 0.66346 0.46583 0.0
H736 H 0.39574 0.98466 0.10074 0.0
H737 H 0.37981 0.94766 0.14811 0.0
H738 H 0.36327 0.94774 0.0888 0.0
H739 H 0.34663 0.91151 0.13629 0.0
H740 H 0.2977 0.83977 0.1102 0.0
H741 H 0.33952 0.86927 0.11938 0.0
H742 H 0.31108 0.94097 0.08859 0.0
H743 H 0.27007 0.91127 0.07908 0.0
C744 C 0.38553 0.96848 0.10858 0.0
C745 C 0.39006 0.96931 0.12538 0.0
C746 C 0.36678 0.94743 0.10176 0.0
C747 C 0.35198 0.92692 0.1116 0.0
C748 C 0.35782 0.92678 0.12831 0.0
C749 C 0.37675 0.94766 0.13511 0.0
C750 C 0.30061 0.86172 0.10528 0.0
C751 C 0.28046 0.87327 0.09401 0.0
C752 C 0.3245 0.87867 0.11058 0.0
C753 C 0.32864 0.90754 0.10477 0.0
C754 C 0.30891 0.91867 0.09314 0.0
C755 C 0.28518 0.9017 0.08778 0.0
H756 H 0.30642 0.15021 0.39644 0.0
H757 H 0.2561 0.11435 0.35661 0.0
H758 H 0.34623 0.11541 0.39069 0.0
H759 H 0.29536 0.0793 0.35115 0.0
H760 H 0.37722 0.03197 0.33701 0.0
H761 H 0.34503 0.07411 0.34158 0.0
H762 H 0.35449 0.06263 0.39322 0.0
H763 H 0.38745 0.02086 0.38862 0.0
C764 C 0.30393 0.13507 0.38639 0.0
C765 C 0.27803 0.13497 0.37701 0.0
C766 C 0.32667 0.11502 0.38317 0.0
C767 C 0.32397 0.0945 0.37049 0.0
C768 C 0.2984 0.09506 0.36086 0.0
C769 C 0.27575 0.11507 0.36405 0.0
C770 C 0.37272 0.03864 0.34934 0.0
C771 C 0.38458 0.02285 0.36246 0.0
C772 C 0.35415 0.06273 0.35196 0.0
C773 C 0.34681 0.07149 0.36776 0.0
C774 C 0.35984 0.0566 0.38089 0.0
C775 C 0.37863 0.03256 0.37826 0.0
H776 H 0.08651 0.05691 0.61607 0.0
H777 H 0.14556 0.02591 0.65348 0.0
H778 H 0.12244 0.09463 0.60853 0.0
H779 H 0.18151 0.06289 0.64573 0.0
H780 H 0.21149 0.1262 0.58664 0.0
H781 H 0.17021 0.09605 0.59551 0.0
H782 H 0.19204 0.11491 0.64534 0.0
H783 H 0.23394 0.14445 0.63647 0.0
C784 C 0.10707 0.0582 0.62272 0.0
C785 C 0.11323 0.0383 0.63532 0.0
C786 C 0.12769 0.07972 0.61836 0.0
C787 C 0.15487 0.08178 0.62652 0.0
C788 C 0.16064 0.06228 0.63935 0.0
C789 C 0.14008 0.04085 0.64371 0.0
C790 C 0.20732 0.12419 0.5995 0.0
C791 C 0.22624 0.13741 0.61086 0.0
C792 C 0.18349 0.10705 0.60458 0.0
C793 C 0.17796 0.10285 0.62114 0.0
C794 C 0.19604 0.11725 0.63249 0.0
C795 C 0.21997 0.1343 0.62741 0.0
H796 H 0.09071 0.97389 0.88876 0.0
H797 H 0.11979 0.96102 0.83948 0.0
H798 H 0.12127 0.93234 0.89737 0.0
H799 H 0.15048 0.91987 0.84812 0.0
H800 H 0.19053 0.83527 0.86709 0.0
H801 H 0.15108 0.86946 0.8596 0.0
H802 H 0.17531 0.92631 0.89938 0.0
H803 H 0.21435 0.8922 0.90696 0.0
C804 C 0.10328 0.96197 0.87974 0.0
C805 C 0.1031 0.97096 0.86347 0.0
C806 C 0.12088 0.93828 0.88468 0.0
C807 C 0.13845 0.923 0.87344 0.0
C808 C 0.13703 0.93103 0.85705 0.0
C809 C 0.11959 0.95478 0.85213 0.0
C810 C 0.18721 0.85491 0.87433 0.0
C811 C 0.20573 0.86115 0.88753 0.0
C812 C 0.16469 0.87451 0.87001 0.0
C813 C 0.16012 0.90057 0.87889 0.0
C814 C 0.17801 0.90624 0.89242 0.0
C815 C 0.20058 0.88679 0.89667 0.0
H816 H 0.70814 0.1217 0.89885 0.0
H817 H 0.74573 0.13132 0.85113 0.0
H818 H 0.67267 0.08626 0.8883 0.0
H819 H 0.70959 0.09668 0.84045 0.0
H820 H 0.59999 0.03599 0.86264 0.0
H821 H 0.63053 0.07739 0.87143 0.0
H822 H 0.70236 0.04477 0.84206 0.0
H823 H 0.67169 0.0042 0.83294 0.0
C824 C 0.70847 0.11667 0.88604 0.0
C825 C 0.72997 0.12903 0.87586 0.0
C826 C 0.68801 0.09645 0.87997 0.0
C827 C 0.68845 0.08835 0.86355 0.0
C828 C 0.70904 0.10191 0.85323 0.0
C829 C 0.72966 0.12191 0.85933 0.0
C830 C 0.62224 0.03784 0.85799 0.0
C831 C 0.63345 0.01679 0.84713 0.0
C832 C 0.63979 0.06148 0.86307 0.0
C833 C 0.66892 0.06446 0.85745 0.0
C834 C 0.67988 0.04354 0.84642 0.0
C835 C 0.66233 0.02008 0.84128 0.0
H836 H 0.61102 0.95054 0.65727 0.0
H837 H 0.62146 0.98834 0.60961 0.0
H838 H 0.6451 0.911 0.6501 0.0
H839 H 0.65578 0.94906 0.60256 0.0
H840 H 0.74098 0.87937 0.63835 0.0
H841 H 0.69865 0.90985 0.64544 0.0
H842 H 0.66184 0.89591 0.59784 0.0
H843 H 0.70439 0.86573 0.59063 0.0
C844 C 0.62027 0.95022 0.64519 0.0
C845 C 0.61376 0.97277 0.63405 0.0
C846 C 0.63991 0.92764 0.64113 0.0
C847 C 0.65332 0.92705 0.62582 0.0
C848 C 0.64562 0.94874 0.61441 0.0
C849 C 0.62606 0.97136 0.61848 0.0
C850 C 0.72367 0.88243 0.62947 0.0
C851 C 0.72624 0.87042 0.61387 0.0
C852 C 0.6993 0.89977 0.63357 0.0
C853 C 0.67701 0.90547 0.62214 0.0
C854 C 0.67888 0.89226 0.60681 0.0
C855 C 0.70321 0.87486 0.60272 0.0
H856 H 0.76535 0.91766 0.41352 0.0
H857 H 0.79304 0.84695 0.38187 0.0
H858 H 0.80637 0.9477 0.4042 0.0
H859 H 0.83418 0.87737 0.37243 0.0
H860 H 0.91985 0.93425 0.37142 0.0
H861 H 0.88154 0.9016 0.38219 0.0
H862 H 0.81782 0.97208 0.37805 0.0
H863 H 0.85575 0.00457 0.36745 0.0
C864 C 0.78025 0.90846 0.40461 0.0
C865 C 0.77579 0.88 0.39833 0.0
C866 C 0.80369 0.92574 0.39923 0.0
C867 C 0.82331 0.91495 0.3875 0.0
C868 C 0.81946 0.88616 0.38156 0.0
C869 C 0.79583 0.86885 0.38688 0.0
C870 C 0.89768 0.94275 0.37287 0.0
C871 C 0.89086 0.972 0.36861 0.0
C872 C 0.87576 0.92403 0.37895 0.0
C873 C 0.84677 0.93437 0.38102 0.0
C874 C 0.84006 0.96361 0.37679 0.0
C875 C 0.8618 0.98218 0.37063 0.0
H876 H 0.79578 0.11022 0.08985 0.0
H877 H 0.78298 0.12839 0.14066 0.0
H878 H 0.8345 0.07501 0.09654 0.0
H879 H 0.8209 0.09237 0.14742 0.0
H880 H 0.90252 0.03833 0.15548 0.0
H881 H 0.87176 0.07966 0.14698 0.0
H882 H 0.83741 0.02694 0.10766 0.0
H883 H 0.86892 0.98616 0.11581 0.0
C884 C 0.8013 0.10674 0.10246 0.0
C885 C 0.78616 0.12192 0.11474 0.0
C886 C 0.82339 0.08642 0.1063 0.0
C887 C 0.83067 0.08055 0.12253 0.0
C888 C 0.81619 0.09654 0.13478 0.0
C889 C 0.79429 0.11711 0.13092 0.0
C890 C 0.88867 0.03574 0.14489 0.0
C891 C 0.88803 0.00892 0.13637 0.0
C892 C 0.87088 0.05937 0.14008 0.0
C893 C 0.85186 0.05662 0.12672 0.0
C894 C 0.85203 0.03007 0.11788 0.0
C895 C 0.87002 0.00656 0.1226 0.0
H896 H 0.76343 0.3722 0.64106 0.0
H897 H 0.78513 0.37415 0.59016 0.0
H898 H 0.80146 0.40897 0.64633 0.0
H899 H 0.8235 0.41044 0.5955 0.0
H900 H 0.85771 0.50329 0.60904 0.0
H901 H 0.82483 0.46222 0.60315 0.0
H902 H 0.85456 0.41767 0.64641 0.0
H903 H 0.88707 0.45904 0.65249 0.0
C904 C 0.77656 0.38017 0.63103 0.0
C905 C 0.77109 0.37042 0.61518 0.0
C906 C 0.79848 0.40113 0.63406 0.0
C907 C 0.8154 0.41274 0.62131 0.0
C908 C 0.81053 0.40227 0.60554 0.0
C909 C 0.78863 0.38136 0.60251 0.0
C910 C 0.85746 0.48463 0.61722 0.0
C911 C 0.87486 0.48454 0.63128 0.0
C912 C 0.83871 0.46099 0.6138 0.0
C913 C 0.83699 0.43673 0.62436 0.0
C914 C 0.85507 0.43624 0.63817 0.0
C915 C 0.87382 0.45988 0.64159 0.0
H916 H 0.92033 0.55782 0.87119 0.0
H917 H 0.85172 0.5146 0.84366 0.0
H918 H 0.88533 0.59636 0.87902 0.0
H919 H 0.81689 0.5523 0.85178 0.0
H920 H 0.76337 0.63326 0.85853 0.0
H921 H 0.80375 0.60296 0.84843 0.0
H922 H 0.84255 0.60159 0.8962 0.0
H923 H 0.8027 0.63269 0.90616 0.0
C924 C 0.89785 0.55656 0.86679 0.0
C925 C 0.88882 0.53311 0.85684 0.0
C926 C 0.87778 0.57856 0.87132 0.0
C927 C 0.84831 0.5775 0.86598 0.0
C928 C 0.83951 0.55421 0.85586 0.0
C929 C 0.8595 0.53238 0.85131 0.0
C930 C 0.78073 0.62682 0.86682 0.0
C931 C 0.77965 0.63508 0.88318 0.0
C932 C 0.80381 0.60933 0.86106 0.0
C933 C 0.82618 0.59947 0.87156 0.0
C934 C 0.82584 0.60895 0.88775 0.0
C935 C 0.80287 0.62666 0.89348 0.0
H936 H 0.73933 0.63516 0.15043 0.0
H937 H 0.70876 0.6256 0.10118 0.0
H938 H 0.70253 0.5995 0.15933 0.0
H939 H 0.67271 0.58935 0.10997 0.0
H940 H 0.59927 0.53501 0.13152 0.0
H941 H 0.62873 0.57851 0.12502 0.0
H942 H 0.69797 0.54706 0.15661 0.0
H943 H 0.66833 0.50427 0.16343 0.0
C944 C 0.72458 0.62568 0.14153 0.0
C945 C 0.72721 0.63293 0.12508 0.0
C946 C 0.70361 0.6051 0.14661 0.0
C947 C 0.68496 0.59123 0.13533 0.0
C948 C 0.68654 0.59974 0.11901 0.0
C949 C 0.70737 0.62044 0.11395 0.0
C950 C 0.62071 0.53754 0.13715 0.0
C951 C 0.63154 0.51612 0.14792 0.0
C952 C 0.63761 0.56241 0.1334 0.0
C953 C 0.66572 0.5663 0.14029 0.0
C954 C 0.67622 0.54509 0.15129 0.0
C955 C 0.65931 0.52036 0.15509 0.0
H956 H 0.72335 0.36799 0.35768 0.0
H957 H 0.69338 0.3696 0.40729 0.0
H958 H 0.68454 0.40259 0.35029 0.0
H959 H 0.65405 0.40367 0.3998 0.0
H960 H 0.61974 0.49567 0.38406 0.0
H961 H 0.65154 0.45496 0.39209 0.0
H962 H 0.63211 0.41017 0.34718 0.0
H963 H 0.60081 0.45128 0.33895 0.0
C964 C 0.70817 0.37532 0.36696 0.0
C965 C 0.71164 0.36626 0.3831 0.0
C966 C 0.68578 0.39505 0.3627 0.0
C967 C 0.66628 0.40606 0.37448 0.0
C968 C 0.66901 0.39601 0.39049 0.0
C969 C 0.69147 0.37636 0.39476 0.0
C970 C 0.62196 0.477 0.37597 0.0
C971 C 0.60799 0.47688 0.3608 0.0
C972 C 0.64008 0.45354 0.38062 0.0
C973 C 0.64454 0.42937 0.37023 0.0
C974 C 0.62953 0.42868 0.35535 0.0
C975 C 0.61147 0.45218 0.35068 0.0
H976 H 0.07796 0.5311 0.3863 0.0
H977 H 0.1124 0.53116 0.33757 0.0
H978 H 0.11226 0.57043 0.39355 0.0
H979 H 0.1472 0.56952 0.34491 0.0
H980 H 0.19664 0.65104 0.35923 0.0
H981 H 0.15459 0.61981 0.35241 0.0
H982 H 0.16405 0.57426 0.39806 0.0
H983 H 0.20518 0.60595 0.40506 0.0
C984 C 0.09275 0.53958 0.37713 0.0
C985 C 0.09261 0.52784 0.36141 0.0
C986 C 0.11251 0.56202 0.38129 0.0
C987 C 0.13267 0.57303 0.36985 0.0
C988 C 0.13176 0.56192 0.35398 0.0
C989 C 0.11191 0.53969 0.3498 0.0
C990 C 0.1895 0.63457 0.36786 0.0
C991 C 0.20441 0.63085 0.38262 0.0
C992 C 0.16548 0.61657 0.36393 0.0
C993 C 0.156 0.59437 0.37464 0.0
C994 C 0.1704 0.59136 0.38961 0.0
C995 C 0.19422 0.60943 0.39357 0.0
H996 H 0.21502 0.33096 0.13496 0.0
H997 H 0.20941 0.36258 0.08572 0.0
H998 H 0.17547 0.36472 0.14272 0.0
H999 H 0.17034 0.3965 0.09354 0.0
H1000 H 0.08547 0.43993 0.11043 0.0
H1001 H 0.1191 0.39991 0.10313 0.0
H1002 H 0.17182 0.41853 0.14547 0.0
H1003 H 0.1382 0.45806 0.15287 0.0
C1004 C 0.20522 0.34492 0.12577 0.0
C1005 C 0.21554 0.34427 0.10976 0.0
C1006 C 0.18267 0.36434 0.13023 0.0
C1007 C 0.16991 0.38339 0.11876 0.0
C1008 C 0.1795 0.38192 0.10263 0.0
C1009 C 0.20208 0.36262 0.09819 0.0
C1010 C 0.10412 0.43532 0.11823 0.0
C1011 C 0.10924 0.45229 0.13218 0.0
C1012 C 0.12342 0.41248 0.11402 0.0
C1013 C 0.1481 0.40607 0.12373 0.0
C1014 C 0.15279 0.42263 0.13785 0.0
C1015 C 0.13362 0.44548 0.14202 0.0
H1016 H 0.37153 0.50008 0.88896 0.0
H1017 H 0.39809 0.45928 0.84399 0.0
H1018 H 0.33864 0.45878 0.89432 0.0
H1019 H 0.36544 0.41776 0.84951 0.0
H1020 H 0.27156 0.37661 0.85461 0.0
H1021 H 0.31153 0.41156 0.84993 0.0
H1022 H 0.33632 0.40589 0.9003 0.0
H1023 H 0.29617 0.37132 0.90506 0.0
C1024 C 0.37074 0.48208 0.88035 0.0
C1025 C 0.38722 0.48312 0.86598 0.0
C1026 C 0.35198 0.45832 0.88346 0.0
C1027 C 0.34928 0.43511 0.87227 0.0
C1028 C 0.36673 0.43554 0.85824 0.0
C1029 C 0.38556 0.45925 0.85514 0.0
C1030 C 0.28574 0.38255 0.86465 0.0
C1031 C 0.28048 0.37141 0.88023 0.0
C1032 C 0.30876 0.40246 0.86195 0.0
C1033 C 0.32696 0.41163 0.87479 0.0
C1034 C 0.3224 0.39958 0.89023 0.0
C1035 C 0.29945 0.37967 0.89292 0.0
H1036 H 0.38698 0.53741 0.65937 0.0
H1037 H 0.3744 0.50297 0.61109 0.0
H1038 H 0.35615 0.57976 0.65271 0.0
H1039 H 0.34326 0.54518 0.60453 0.0
H1040 H 0.30334 0.6343 0.59401 0.0
H1041 H 0.34229 0.59922 0.60075 0.0
H1042 H 0.30293 0.58553 0.64772 0.0
H1043 H 0.26422 0.62081 0.64111 0.0
C1044 C 0.37788 0.53899 0.64729 0.0
C1045 C 0.3829 0.51666 0.6358 0.0
C1046 C 0.36012 0.56321 0.64351 0.0
C1047 C 0.34711 0.56567 0.62815 0.0
C1048 C 0.3532 0.54403 0.61643 0.0
C1049 C 0.3709 0.51975 0.62022 0.0
C1050 C 0.30322 0.62413 0.60587 0.0
C1051 C 0.28053 0.63015 0.61698 0.0
C1052 C 0.32545 0.60393 0.60967 0.0
C1053 C 0.32555 0.58948 0.6247 0.0
C1054 C 0.30362 0.59651 0.63608 0.0
C1055 C 0.28133 0.61661 0.63226 0.0
H1056 H 0.39179 0.14733 0.1674 0.0
H1057 H 0.35467 0.08374 0.13418 0.0
H1058 H 0.36248 0.1862 0.15481 0.0
H1059 H 0.3259 0.12269 0.12139 0.0
H1060 H 0.26195 0.19689 0.10884 0.0
H1061 H 0.28563 0.158 0.12474 0.0
H1062 H 0.36397 0.21167 0.12906 0.0
H1063 H 0.3403 0.25051 0.11356 0.0
C1064 C 0.37726 0.14159 0.15748 0.0
C1065 C 0.37577 0.11248 0.15172 0.0
C1066 C 0.36057 0.1639 0.15021 0.0
C1067 C 0.34204 0.15759 0.137 0.0
C1068 C 0.33973 0.12827 0.13163 0.0
C1069 C 0.3564 0.10596 0.13891 0.0
C1070 C 0.28415 0.20041 0.11328 0.0
C1071 C 0.29925 0.22675 0.10987 0.0
C1072 C 0.29775 0.1781 0.12234 0.0
C1073 C 0.32668 0.18174 0.12819 0.0
C1074 C 0.34152 0.20829 0.12497 0.0
C1075 C 0.32799 0.2305 0.11594 0.0
H1076 H 0.14384 0.15861 0.37329 0.0
H1077 H 0.14509 0.09441 0.41196 0.0
H1078 H 0.10236 0.1333 0.36096 0.0
H1079 H 0.1034 0.06877 0.3994 0.0
H1080 H 0.00541 0.05899 0.38075 0.0
H1081 H 0.04997 0.07771 0.39382 0.0
H1082 H 0.09164 0.0866 0.34712 0.0
H1083 H 0.0471 0.06838 0.33404 0.0
C1084 C 0.1353 0.13903 0.37916 0.0
C1085 C 0.14777 0.12855 0.39363 0.0
C1086 C 0.11166 0.12436 0.372 0.0
C1087 C 0.09977 0.09888 0.37912 0.0
C1088 C 0.11206 0.08841 0.39366 0.0
C1089 C 0.13596 0.10304 0.40081 0.0
C1090 C 0.02423 0.06454 0.37329 0.0
C1091 C 0.02257 0.0626 0.35633 0.0
C1092 C 0.04979 0.07516 0.38079 0.0
C1093 C 0.07414 0.08402 0.37147 0.0
C1094 C 0.073 0.08052 0.35459 0.0
C1095 C 0.04751 0.06994 0.34711 0.0
H1096 H 0.13125 0.87883 0.66253 0.0
H1097 H 0.12647 0.89796 0.61139 0.0
H1098 H 0.15636 0.83244 0.65659 0.0
H1099 H 0.15071 0.85138 0.60544 0.0
H1100 H 0.213 0.77523 0.59917 0.0
H1101 H 0.19604 0.82419 0.60713 0.0
H1102 H 0.14361 0.78534 0.64521 0.0
H1103 H 0.1612 0.7366 0.63757 0.0
C1104 C 0.13563 0.87319 0.65003 0.0
C1105 C 0.12672 0.89201 0.63743 0.0
C1106 C 0.14989 0.84654 0.64662 0.0
C1107 C 0.15545 0.8381 0.63053 0.0
C1108 C 0.14718 0.85733 0.61798 0.0
C1109 C 0.13306 0.88399 0.62139 0.0
C1110 C 0.19811 0.77719 0.60935 0.0
C1111 C 0.18829 0.752 0.61767 0.0
C1112 C 0.18826 0.80524 0.61386 0.0
C1113 C 0.16827 0.8087 0.62673 0.0
C1114 C 0.15926 0.78356 0.63537 0.0
C1115 C 0.16921 0.75555 0.63091 0.0
H1116 H 0.50097 0.90366 0.86697 0.0
H1117 H 0.46414 0.99138 0.86308 0.0
H1118 H 0.45466 0.88577 0.87801 0.0
H1119 H 0.41764 0.97337 0.87437 0.0
H1120 H 0.33105 0.91693 0.87253 0.0
H1121 H 0.3776 0.94012 0.86507 0.0
H1122 H 0.42255 0.88947 0.90186 0.0
H1123 H 0.3761 0.86597 0.90922 0.0
C1124 C 0.48306 0.91922 0.8686 0.0
C1125 C 0.4862 0.94893 0.86405 0.0
C1126 C 0.45656 0.90898 0.87506 0.0
C1127 C 0.4325 0.92816 0.87708 0.0
C1128 C 0.43575 0.95803 0.87283 0.0
C1129 C 0.4624 0.96835 0.86644 0.0
C1130 C 0.3508 0.91095 0.87915 0.0
C1131 C 0.34991 0.88937 0.89135 0.0
C1132 C 0.37744 0.9244 0.87494 0.0
C1133 C 0.40377 0.91646 0.8828 0.0
C1134 C 0.40268 0.89573 0.89543 0.0
C1135 C 0.37604 0.88237 0.89968 0.0
H1136 H 0.33205 0.74024 0.39886 0.0
H1137 H 0.24975 0.76776 0.37714 0.0
H1138 H 0.35499 0.78609 0.3903 0.0
H1139 H 0.27312 0.81398 0.3684 0.0
H1140 H 0.34471 0.87262 0.34032 0.0
H1141 H 0.31624 0.82936 0.34883 0.0
H1142 H 0.34815 0.84037 0.39765 0.0
H1143 H 0.37639 0.88339 0.38931 0.0
C1144 C 0.31884 0.75606 0.39221 0.0
C1145 C 0.28905 0.75039 0.38869 0.0
C1146 C 0.33198 0.7824 0.3874 0.0
C1147 C 0.31577 0.8036 0.37878 0.0
C1148 C 0.28607 0.79791 0.37502 0.0
C1149 C 0.27272 0.77159 0.38007 0.0
C1150 C 0.34539 0.86596 0.3529 0.0
C1151 C 0.36304 0.88126 0.3641 0.0
C1152 C 0.32899 0.84133 0.35776 0.0
C1153 C 0.33025 0.83146 0.37385 0.0
C1154 C 0.34709 0.84734 0.38513 0.0
C1155 C 0.3632 0.87203 0.38033 0.0
H1156 H 0.41468 0.15616 0.58267 0.0
H1157 H 0.35032 0.09337 0.60001 0.0
H1158 H 0.45385 0.12768 0.59545 0.0
H1159 H 0.38965 0.06505 0.61296 0.0
H1160 H 0.47405 0.01033 0.62361 0.0
H1161 H 0.43509 0.03479 0.60804 0.0
H1162 H 0.46724 0.1196 0.62403 0.0
H1163 H 0.50602 0.09546 0.63938 0.0
C1164 C 0.40889 0.13613 0.58907 0.0
C1165 C 0.37933 0.12721 0.59046 0.0
C1166 C 0.43134 0.11991 0.59646 0.0
C1167 C 0.42478 0.09435 0.60539 0.0
C1168 C 0.3954 0.08459 0.60612 0.0
C1169 C 0.37287 0.1009 0.59875 0.0
C1170 C 0.47275 0.03418 0.62379 0.0
C1171 C 0.49317 0.05092 0.63273 0.0
C1172 C 0.45042 0.04816 0.61491 0.0
C1173 C 0.44829 0.07912 0.61469 0.0
C1174 C 0.46861 0.09574 0.62371 0.0
C1175 C 0.49072 0.08184 0.63263 0.0
H1176 H 0.14097 0.12635 0.83559 0.0
H1177 H 0.1524 0.08878 0.88323 0.0
H1178 H 0.16987 0.16924 0.84374 0.0
H1179 H 0.18067 0.13186 0.89145 0.0
H1180 H 0.2443 0.20675 0.89985 0.0
H1181 H 0.22556 0.16088 0.88815 0.0
H1182 H 0.15992 0.21037 0.86164 0.0
H1183 H 0.17886 0.25594 0.87299 0.0
C1184 C 0.14987 0.1271 0.84775 0.0
C1185 C 0.14408 0.1043 0.85882 0.0
C1186 C 0.16632 0.15173 0.85243 0.0
C1187 C 0.17734 0.15411 0.86829 0.0
C1188 C 0.17275 0.13063 0.87911 0.0
C1189 C 0.15633 0.106 0.87442 0.0
C1190 C 0.22614 0.20782 0.89135 0.0
C1191 C 0.21293 0.23497 0.88746 0.0
C1192 C 0.21532 0.18155 0.88471 0.0
C1193 C 0.19118 0.18195 0.874 0.0
C1194 C 0.17878 0.20925 0.86967 0.0
C1195 C 0.18951 0.23541 0.8763 0.0
H1196 H 0.15285 0.88854 0.10575 0.0
H1197 H 0.09193 0.81619 0.09918 0.0
H1198 H 0.11364 0.91776 0.11822 0.0
H1199 H 0.05287 0.84544 0.11157 0.0
H1200 H 0.00363 0.89067 0.15278 0.0
H1201 H 0.04345 0.8641 0.13954 0.0
H1202 H 0.06449 0.94166 0.11153 0.0
H1203 H 0.02443 0.96857 0.12485 0.0
C1204 C 0.13107 0.87894 0.10687 0.0
C1205 C 0.12553 0.84997 0.10156 0.0
C1206 C 0.10862 0.89574 0.11394 0.0
C1207 C 0.08029 0.88379 0.11597 0.0
C1208 C 0.07462 0.85507 0.11036 0.0
C1209 C 0.09696 0.83839 0.10318 0.0
C1210 C 0.01678 0.90222 0.14387 0.0
C1211 C 0.01074 0.93176 0.13983 0.0
C1212 C 0.03948 0.88687 0.1362 0.0
C1213 C 0.05686 0.90071 0.12438 0.0
C1214 C 0.05145 0.93048 0.12063 0.0
C1215 C 0.0285 0.94584 0.12823 0.0
H1216 H 0.72962 0.76298 0.86874 0.0
H1217 H 0.67207 0.75995 0.91037 0.0
H1218 H 0.70605 0.80886 0.86004 0.0
H1219 H 0.64845 0.8054 0.90159 0.0
H1220 H 0.63003 0.90088 0.88972 0.0
H1221 H 0.65865 0.85818 0.8983 0.0
H1222 H 0.6572 0.82441 0.84945 0.0
H1223 H 0.62883 0.86741 0.84076 0.0
C1224 C 0.71208 0.77215 0.87607 0.0
C1225 C 0.7027 0.75779 0.89023 0.0
C1226 C 0.69849 0.79832 0.87104 0.0
C1227 C 0.6754 0.81073 0.88013 0.0
C1228 C 0.66642 0.79661 0.89443 0.0
C1229 C 0.67987 0.77044 0.89941 0.0
C1230 C 0.63595 0.88447 0.88077 0.0
C1231 C 0.62696 0.88745 0.86458 0.0
C1232 C 0.65226 0.85994 0.88571 0.0
C1233 C 0.66001 0.83783 0.87458 0.0
C1234 C 0.65177 0.8412 0.85829 0.0
C1235 C 0.63536 0.86574 0.85334 0.0
H1236 H 0.01628 0.91968 0.62324 0.0
H1237 H 0.9603 0.99109 0.63934 0.0
H1238 H 0.97589 0.89972 0.60742 0.0
H1239 H 0.91985 0.97143 0.62304 0.0
H1240 H 0.84739 0.90203 0.61125 0.0
H1241 H 0.88722 0.92952 0.62394 0.0
H1242 H 0.94492 0.90678 0.58425 0.0
H1243 H 0.90525 0.87849 0.57178 0.0
C1244 C 0.99543 0.93138 0.62324 0.0
C1245 C 0.99146 0.95688 0.63267 0.0
C1246 C 0.97229 0.92003 0.61402 0.0
C1247 C 0.94457 0.93395 0.61393 0.0
C1248 C 0.94081 0.95996 0.623 0.0
C1249 C 0.96402 0.9713 0.63229 0.0
C1250 C 0.86847 0.90317 0.60512 0.0
C1251 C 0.87325 0.88775 0.59059 0.0
C1252 C 0.89129 0.91912 0.61236 0.0
C1253 C 0.91939 0.92015 0.6052 0.0
C1254 C 0.92371 0.90596 0.59025 0.0
C1255 C 0.90091 0.88988 0.58304 0.0
H1256 H 0.83904 0.27507 0.36075 0.0
H1257 H 0.78764 0.22922 0.39687 0.0
H1258 H 0.8567 0.228 0.35034 0.0
H1259 H 0.80568 0.1821 0.38655 0.0
H1260 H 0.8261 0.10145 0.3553 0.0
H1261 H 0.80433 0.14875 0.36291 0.0
H1262 H 0.89026 0.18959 0.36034 0.0
H1263 H 0.91197 0.14253 0.35256 0.0
C1264 C 0.83135 0.25496 0.36641 0.0
C1265 C 0.81208 0.25591 0.37972 0.0
C1266 C 0.84161 0.22799 0.36049 0.0
C1267 C 0.83278 0.20135 0.3677 0.0
C1268 C 0.81271 0.20224 0.38065 0.0
C1269 C 0.80249 0.22925 0.38661 0.0
C1270 C 0.84031 0.12057 0.35623 0.0
C1271 C 0.87078 0.11821 0.35336 0.0
C1272 C 0.82785 0.14761 0.36068 0.0
C1273 C 0.84557 0.17288 0.36224 0.0
C1274 C 0.87594 0.17061 0.35905 0.0
C1275 C 0.88841 0.14358 0.35468 0.0
H1276 H 0.63261 0.09982 0.09048 0.0
H1277 H 0.64901 0.1231 0.14039 0.0
H1278 H 0.58791 0.07358 0.09864 0.0
H1279 H 0.60469 0.09674 0.14848 0.0
H1280 H 0.50506 0.08243 0.15301 0.0
H1281 H 0.55129 0.10505 0.14481 0.0
H1282 H 0.57062 0.02973 0.11461 0.0
H1283 H 0.52398 0.00699 0.12273 0.0
C1284 C 0.62682 0.09916 0.10318 0.0
C1285 C 0.64424 0.11374 0.11477 0.0
C1286 C 0.60133 0.084 0.10786 0.0
C1287 C 0.59271 0.08329 0.12418 0.0
C1288 C 0.61053 0.09728 0.13578 0.0
C1289 C 0.63601 0.11228 0.13113 0.0
C1290 C 0.51914 0.07059 0.14464 0.0
C1291 C 0.51083 0.04287 0.13853 0.0
C1292 C 0.54574 0.0835 0.14002 0.0
C1293 C 0.56464 0.06911 0.12912 0.0
C1294 C 0.55638 0.04141 0.12295 0.0
C1295 C 0.52977 0.02834 0.12767 0.0
H1296 H 0.6882 0.20063 0.59014 0.0
H1297 H 0.68771 0.25924 0.63139 0.0
H1298 H 0.6682 0.16127 0.6069 0.0
H1299 H 0.66803 0.21966 0.6482 0.0
H1300 H 0.59062 0.15705 0.6627 0.0
H1301 H 0.61983 0.19502 0.64941 0.0
H1302 H 0.6774 0.12801 0.6298 0.0
H1303 H 0.64792 0.0899 0.64291 0.0
C1304 C 0.6843 0.20499 0.60284 0.0
C1305 C 0.68926 0.23317 0.60938 0.0
C1306 C 0.67299 0.18235 0.61248 0.0
C1307 C 0.66633 0.18742 0.62886 0.0
C1308 C 0.67256 0.21521 0.63557 0.0
C1309 C 0.68398 0.23783 0.62595 0.0
C1310 C 0.60973 0.15041 0.65575 0.0
C1311 C 0.61675 0.12043 0.65374 0.0
C1312 C 0.6266 0.1722 0.6482 0.0
C1313 C 0.65083 0.1645 0.63846 0.0
C1314 C 0.65862 0.1346 0.63704 0.0
C1315 C 0.6418 0.11279 0.64463 0.0
H1316 H 0.47857 0.89282 0.36737 0.0
H1317 H 0.52935 0.97254 0.36056 0.0
H1318 H 0.52029 0.86995 0.38091 0.0
H1319 H 0.57114 0.94965 0.37446 0.0
H1320 H 0.6485 0.88325 0.38087 0.0
H1321 H 0.60688 0.91019 0.36945 0.0
H1322 H 0.54941 0.87224 0.40553 0.0
H1323 H 0.59092 0.84481 0.41678 0.0
C1324 C 0.49858 0.90558 0.36886 0.0
C1325 C 0.50065 0.9345 0.3628 0.0
C1326 C 0.52246 0.8925 0.37676 0.0
C1327 C 0.54904 0.90797 0.37881 0.0
C1328 C 0.55104 0.93705 0.37293 0.0
C1329 C 0.52706 0.9502 0.36504 0.0
C1330 C 0.62702 0.88079 0.38645 0.0
C1331 C 0.62299 0.86168 0.39967 0.0
C1332 C 0.6032 0.8964 0.37996 0.0
C1333 C 0.57479 0.89326 0.38652 0.0
C1334 C 0.57093 0.8748 0.40003 0.0
C1335 C 0.59476 0.85918 0.40653 0.0
H1336 H 0.75544 0.77046 0.13112 0.0
H1337 H 0.8405 0.75235 0.1097 0.0
H1338 H 0.77568 0.81482 0.14384 0.0
H1339 H 0.86037 0.79663 0.12209 0.0
H1340 H 0.89662 0.85678 0.16013 0.0
H1341 H 0.87304 0.81305 0.14915 0.0
H1342 H 0.79561 0.86436 0.13737 0.0
H1343 H 0.8191 0.90834 0.14871 0.0
C1344 C 0.77835 0.77602 0.12904 0.0
C1345 C 0.79641 0.75775 0.11949 0.0
C1346 C 0.7899 0.80147 0.13627 0.0
C1347 C 0.81971 0.80904 0.13412 0.0
C1348 C 0.83749 0.79108 0.12428 0.0
C1349 C 0.82601 0.76576 0.11708 0.0
C1350 C 0.87447 0.85878 0.15533 0.0
C1351 C 0.85984 0.88612 0.15516 0.0
C1352 C 0.86102 0.83371 0.14894 0.0
C1353 C 0.83264 0.83534 0.14215 0.0
C1354 C 0.81746 0.8624 0.14256 0.0
C1355 C 0.83095 0.88758 0.14901 0.0
H1356 H 0.96378 0.02719 0.85632 0.0
H1357 H 0.01633 0.10634 0.86077 0.0
H1358 H 0.921 0.05386 0.86686 0.0
H1359 H 0.97384 0.13267 0.87142 0.0
H1360 H 0.88413 0.17841 0.8688 0.0
H1361 H 0.9269 0.15022 0.86007 0.0
H1362 H 0.90168 0.0787 0.89168 0.0
H1363 H 0.85844 0.10687 0.90036 0.0
C1364 C 0.96629 0.05016 0.85967 0.0
C1365 C 0.9934 0.06469 0.85757 0.0
C1366 C 0.94183 0.06537 0.86578 0.0
C1367 C 0.94401 0.09542 0.86984 0.0
C1368 C 0.97133 0.10967 0.86814 0.0
C1369 C 0.99573 0.0945 0.8621 0.0
C1370 C 0.88766 0.1567 0.87394 0.0
C1371 C 0.86789 0.14492 0.8853 0.0
C1372 C 0.91229 0.14061 0.86899 0.0
C1373 C 0.91774 0.1123 0.87525 0.0
C1374 C 0.89793 0.10039 0.88657 0.0
C1375 C 0.87329 0.11659 0.8916 0.0
H1376 H 0.77029 0.73331 0.62168 0.0
H1377 H 0.85429 0.76637 0.60488 0.0
H1378 H 0.79561 0.69262 0.63533 0.0
H1379 H 0.87932 0.72576 0.6183 0.0
H1380 H 0.91836 0.66773 0.65704 0.0
H1381 H 0.89019 0.70869 0.64581 0.0
H1382 H 0.82424 0.64769 0.62841 0.0
H1383 H 0.85221 0.60666 0.63984 0.0
C1384 C 0.79409 0.73188 0.62086 0.0
C1385 C 0.81025 0.7531 0.6122 0.0
C1386 C 0.80857 0.70854 0.62864 0.0
C1387 C 0.83948 0.70611 0.62799 0.0
C1388 C 0.85554 0.72729 0.61927 0.0
C1389 C 0.84112 0.75046 0.61147 0.0
C1390 C 0.89773 0.66304 0.65096 0.0
C1391 C 0.88766 0.6339 0.64924 0.0
C1392 C 0.88166 0.68651 0.64444 0.0
C1393 C 0.85514 0.68139 0.63608 0.0
C1394 C 0.8445 0.65236 0.63487 0.0
C1395 C 0.86061 0.62885 0.64136 0.0
H1396 H 0.65898 0.60209 0.89452 0.0
H1397 H 0.59755 0.66495 0.91483 0.0
H1398 H 0.61795 0.57514 0.88236 0.0
H1399 H 0.55665 0.63782 0.90284 0.0
H1400 H 0.4982 0.60667 0.86109 0.0
H1401 H 0.53895 0.63038 0.87506 0.0
H1402 H 0.57348 0.54508 0.88868 0.0
H1403 H 0.53262 0.52109 0.87447 0.0
C1404 C 0.63673 0.60997 0.89655 0.0
C1405 C 0.63156 0.63582 0.90554 0.0
C1406 C 0.61322 0.59444 0.88964 0.0
C1407 C 0.5841 0.60451 0.89153 0.0
C1408 C 0.5789 0.62979 0.90095 0.0
C1409 C 0.60234 0.64525 0.9079 0.0
C1410 C 0.51444 0.59287 0.86704 0.0
C1411 C 0.51213 0.56194 0.86666 0.0
C1412 C 0.53769 0.60652 0.87516 0.0
C1413 C 0.55931 0.58962 0.88307 0.0
C1414 C 0.55721 0.55867 0.88261 0.0
C1415 C 0.53378 0.54496 0.87453 0.0
H1416 H 0.61557 0.38226 0.12012 0.0
H1417 H 0.64556 0.35416 0.16732 0.0
H1418 H 0.64259 0.34186 0.1077 0.0
H1419 H 0.67307 0.3138 0.15478 0.0
H1420 H 0.68372 0.22509 0.12679 0.0
H1421 H 0.66232 0.26742 0.14066 0.0
H1422 H 0.6926 0.32462 0.10233 0.0
H1423 H 0.71358 0.28222 0.08828 0.0
C1424 C 0.62808 0.36757 0.12786 0.0
C1425 C 0.62831 0.37141 0.14473 0.0
C1426 C 0.64379 0.34452 0.1207 0.0
C1427 C 0.66009 0.32466 0.13024 0.0
C1428 C 0.66053 0.32859 0.14711 0.0
C1429 C 0.64486 0.35178 0.15429 0.0
C1430 C 0.68611 0.24674 0.12139 0.0
C1431 C 0.70012 0.25022 0.10633 0.0
C1432 C 0.67396 0.27103 0.1294 0.0
C1433 C 0.67553 0.29936 0.12254 0.0
C1434 C 0.69058 0.303 0.1078 0.0
C1435 C 0.70275 0.27871 0.09979 0.0
H1436 H 0.87066 0.36078 0.40631 0.0
H1437 H 0.8179 0.43012 0.38504 0.0
H1438 H 0.91514 0.38394 0.39592 0.0
H1439 H 0.86244 0.45286 0.37418 0.0
H1440 H 0.95206 0.49735 0.36629 0.0
H1441 H 0.90837 0.47817 0.38007 0.0
H1442 H 0.93694 0.38914 0.36978 0.0
H1443 H 0.98064 0.40811 0.3565 0.0
C1444 C 0.86856 0.38104 0.39946 0.0
C1445 C 0.84072 0.39346 0.39637 0.0
C1446 C 0.89406 0.39424 0.39341 0.0
C1447 C 0.89235 0.42004 0.38401 0.0
C1448 C 0.86459 0.43312 0.38147 0.0
C1449 C 0.83903 0.42 0.38763 0.0
C1450 C 0.94901 0.47369 0.36704 0.0
C1451 C 0.96986 0.45428 0.36032 0.0
C1452 C 0.92394 0.46271 0.37488 0.0
C1453 C 0.91922 0.43211 0.37612 0.0
C1454 C 0.94013 0.41281 0.36937 0.0
C1455 C 0.96514 0.42373 0.36162 0.0
H1456 H 0.85424 0.40809 0.88161 0.0
H1457 H 0.86668 0.36857 0.83452 0.0
H1458 H 0.82597 0.36525 0.89019 0.0
H1459 H 0.8387 0.32539 0.84325 0.0
H1460 H 0.76861 0.26062 0.86073 0.0
H1461 H 0.78948 0.30753 0.8517 0.0
H1462 H 0.83855 0.31413 0.89636 0.0
H1463 H 0.81753 0.2677 0.90546 0.0
C1464 C 0.85084 0.39032 0.87305 0.0
C1465 C 0.86296 0.39163 0.85742 0.0
C1466 C 0.83471 0.36572 0.878 0.0
C1467 C 0.8303 0.34182 0.86745 0.0
C1468 C 0.8415 0.34355 0.85162 0.0
C1469 C 0.85769 0.36821 0.84665 0.0
C1470 C 0.78356 0.2723 0.8687 0.0
C1471 C 0.79148 0.26037 0.88379 0.0
C1472 C 0.79566 0.29905 0.86347 0.0
C1473 C 0.81573 0.31449 0.87329 0.0
C1474 C 0.82289 0.30297 0.88858 0.0
C1475 C 0.81094 0.27624 0.89376 0.0
H1476 H 0.9533 0.51283 0.14953 0.0
H1477 H 0.01271 0.56333 0.11949 0.0
H1478 H 0.91123 0.53521 0.13568 0.0
H1479 H 0.97081 0.58593 0.1059 0.0
H1480 H 0.88923 0.60716 0.07655 0.0
H1481 H 0.92882 0.57701 0.08792 0.0
H1482 H 0.88948 0.58476 0.1353 0.0
H1483 H 0.84979 0.61442 0.12397 0.0
C1484 C 0.9574 0.52845 0.13988 0.0
C1485 C 0.98635 0.53646 0.1357 0.0
C1486 C 0.93331 0.5414 0.13201 0.0
C1487 C 0.93768 0.56249 0.11976 0.0
C1488 C 0.96665 0.56956 0.11517 0.0
C1489 C 0.99069 0.55673 0.12305 0.0
C1490 C 0.88891 0.60222 0.08937 0.0
C1491 C 0.86646 0.61338 0.09937 0.0
C1492 C 0.91164 0.58504 0.09588 0.0
C1493 C 0.91233 0.57854 0.11252 0.0
C1494 C 0.88942 0.58903 0.12241 0.0
C1495 C 0.86678 0.60626 0.11592 0.0
H1496 H 0.62971 0.61718 0.3309 0.0
H1497 H 0.58343 0.62239 0.3765 0.0
H1498 H 0.65937 0.66007 0.33858 0.0
H1499 H 0.6128 0.66509 0.38405 0.0
H1500 H 0.68695 0.72436 0.39957 0.0
H1501 H 0.66416 0.67823 0.39106 0.0
H1502 H 0.65087 0.71399 0.34318 0.0
H1503 H 0.67395 0.76014 0.35162 0.0
C1504 C 0.62593 0.62739 0.34256 0.0
C1505 C 0.60416 0.61643 0.35307 0.0
C1506 C 0.64283 0.65198 0.34692 0.0
C1507 C 0.63849 0.66586 0.36194 0.0
C1508 C 0.61698 0.65463 0.3725 0.0
C1509 C 0.59997 0.63027 0.3681 0.0
C1510 C 0.67952 0.72231 0.38717 0.0
C1511 C 0.68201 0.74606 0.37632 0.0
C1512 C 0.66633 0.69592 0.38232 0.0
C1513 C 0.65544 0.69261 0.36651 0.0
C1514 C 0.65919 0.71582 0.35543 0.0
C1515 C 0.67228 0.74231 0.3603 0.0
H1516 H 0.61144 0.3479 0.59727 0.0
H1517 H 0.65851 0.42738 0.61022 0.0
H1518 H 0.56586 0.36944 0.60733 0.0
H1519 H 0.61287 0.4487 0.62067 0.0
H1520 H 0.51886 0.48606 0.62612 0.0
H1521 H 0.56376 0.46708 0.61347 0.0
H1522 H 0.54625 0.38097 0.63372 0.0
H1523 H 0.50134 0.39962 0.64601 0.0
C1524 C 0.61206 0.37002 0.60222 0.0
C1525 C 0.63866 0.38583 0.60307 0.0
C1526 C 0.58594 0.38231 0.60808 0.0
C1527 C 0.5858 0.41064 0.615 0.0
C1528 C 0.6122 0.42689 0.61532 0.0
C1529 C 0.63837 0.41462 0.60939 0.0
C1530 C 0.52462 0.46308 0.62784 0.0
C1531 C 0.50648 0.44435 0.63704 0.0
C1532 C 0.55039 0.45224 0.62065 0.0
C1533 C 0.55847 0.42247 0.6225 0.0
C1534 C 0.54038 0.40387 0.63179 0.0
C1535 C 0.51471 0.41465 0.63894 0.0
H1536 H 0.09023 0.36588 0.33718 0.0
H1537 H 0.16215 0.41909 0.35526 0.0
H1538 H 0.11712 0.32133 0.34448 0.0
H1539 H 0.18925 0.37435 0.36237 0.0
H1540 H 0.20545 0.28845 0.39237 0.0
H1541 H 0.18448 0.33467 0.38253 0.0
H1542 H 0.1608 0.29219 0.33759 0.0
H1543 H 0.18133 0.24589 0.34749 0.0
C1544 C 0.11191 0.36809 0.34256 0.0
C1545 C 0.12397 0.39606 0.34571 0.0
C1546 C 0.12743 0.34252 0.34664 0.0
C1547 C 0.15533 0.3443 0.35401 0.0
C1548 C 0.16767 0.37226 0.35686 0.0
C1549 C 0.15219 0.39788 0.35271 0.0
C1550 C 0.19611 0.28906 0.38031 0.0
C1551 C 0.19482 0.26341 0.37078 0.0
C1552 C 0.1842 0.31559 0.37464 0.0
C1553 C 0.17074 0.31702 0.35933 0.0
C1554 C 0.17058 0.29167 0.34955 0.0
C1555 C 0.18251 0.26518 0.3552 0.0
H1556 H 0.35221 0.36132 0.12832 0.0
H1557 H 0.36838 0.36789 0.07694 0.0
H1558 H 0.39834 0.38656 0.13374 0.0
H1559 H 0.41442 0.39405 0.08238 0.0
H1560 H 0.51141 0.39883 0.10071 0.0
H1561 H 0.46246 0.38192 0.09296 0.0
H1562 H 0.42445 0.43231 0.13215 0.0
H1563 H 0.47355 0.44849 0.1402 0.0
C1564 C 0.3654 0.36856 0.11815 0.0
C1565 C 0.35671 0.36237 0.1022 0.0
C1566 C 0.39181 0.38328 0.12127 0.0
C1567 C 0.41016 0.39234 0.1085 0.0
C1568 C 0.40099 0.38702 0.0925 0.0
C1569 C 0.37454 0.37217 0.08938 0.0
C1570 C 0.49258 0.40661 0.10755 0.0
C1571 C 0.49641 0.42469 0.1212 0.0
C1572 C 0.46445 0.39704 0.10304 0.0
C1573 C 0.43951 0.40551 0.11203 0.0
C1574 C 0.44324 0.42488 0.12516 0.0
C1575 C 0.47138 0.43428 0.12973 0.0
H1576 H 0.30484 0.70811 0.90875 0.0
H1577 H 0.30887 0.76769 0.86799 0.0
H1578 H 0.32766 0.66957 0.89251 0.0
H1579 H 0.3313 0.72888 0.85165 0.0
H1580 H 0.41081 0.66777 0.83894 0.0
H1581 H 0.37971 0.70498 0.85161 0.0
H1582 H 0.32181 0.63661 0.86935 0.0
H1583 H 0.3532 0.59927 0.8569 0.0
C1584 C 0.31014 0.71285 0.89624 0.0
C1585 C 0.3053 0.74108 0.88973 0.0
C1586 C 0.32307 0.69068 0.88689 0.0
C1587 C 0.33148 0.69622 0.87081 0.0
C1588 C 0.32546 0.72406 0.86407 0.0
C1589 C 0.31246 0.74624 0.87342 0.0
C1590 C 0.39125 0.66066 0.84536 0.0
C1591 C 0.38467 0.63053 0.84704 0.0
C1592 C 0.3733 0.68203 0.85255 0.0
C1593 C 0.34838 0.67374 0.86158 0.0
C1594 C 0.3411 0.64367 0.86267 0.0
C1595 C 0.35902 0.6223 0.85545 0.0
H1596 H 0.04032 0.58287 0.66328 0.0
H1597 H 0.9914 0.56957 0.61899 0.0
H1598 H 0.08167 0.60229 0.64779 0.0
H1599 H 0.03297 0.58879 0.60348 0.0
H1600 H 0.09703 0.66302 0.58629 0.0
H1601 H 0.0567 0.6377 0.60002 0.0
H1602 H 0.11973 0.58762 0.62802 0.0
H1603 H 0.16006 0.61309 0.61445 0.0
C1604 C 0.03849 0.58379 0.65023 0.0
C1605 C 0.01251 0.57479 0.64239 0.0
C1606 C 0.06227 0.59477 0.64134 0.0
C1607 C 0.06054 0.59714 0.62441 0.0
C1608 C 0.03482 0.58752 0.61652 0.0
C1609 C 0.01109 0.57636 0.62541 0.0
C1610 C 0.1023 0.64641 0.59526 0.0
C1611 C 0.13176 0.64022 0.59934 0.0
C1612 C 0.07919 0.63179 0.60306 0.0
C1613 C 0.08505 0.61078 0.61516 0.0
C1614 C 0.11452 0.60398 0.6189 0.0
C1615 C 0.13761 0.61848 0.61105 0.0
H1616 H 0.12058 0.59579 0.11043 0.0
H1617 H 0.12947 0.61086 0.16182 0.0
H1618 H 0.14491 0.64245 0.10501 0.0
H1619 H 0.15469 0.65739 0.15637 0.0
H1620 H 0.16071 0.75464 0.13899 0.0
H1621 H 0.14268 0.70583 0.1463 0.0
H1622 H 0.19098 0.668 0.10628 0.0
H1623 H 0.20826 0.71694 0.09869 0.0
C1624 C 0.12807 0.60889 0.12059 0.0
C1625 C 0.12294 0.59967 0.13656 0.0
C1626 C 0.14225 0.6356 0.11748 0.0
C1627 C 0.15181 0.65371 0.13026 0.0
C1628 C 0.14728 0.64416 0.14625 0.0
C1629 C 0.13296 0.61743 0.14937 0.0
C1630 C 0.16775 0.73587 0.13186 0.0
C1631 C 0.18566 0.7397 0.11816 0.0
C1632 C 0.15753 0.70783 0.1361 0.0
C1633 C 0.16515 0.683 0.12679 0.0
C1634 C 0.18419 0.68673 0.11352 0.0
C1635 C 0.19423 0.71476 0.10922 0.0
H1636 H 0.14507 0.39956 0.89781 0.0
H1637 H 0.1191 0.32994 0.86505 0.0
H1638 H 0.10141 0.42815 0.88979 0.0
H1639 H 0.07569 0.35822 0.85727 0.0
H1640 H 0.98555 0.40073 0.86121 0.0
H1641 H 0.02871 0.37546 0.87194 0.0
H1642 H 0.08184 0.45262 0.86278 0.0
H1643 H 0.03851 0.47816 0.85184 0.0
C1644 C 0.13003 0.39034 0.88897 0.0
C1645 C 0.13548 0.3625 0.88207 0.0
C1646 C 0.10519 0.40673 0.88435 0.0
C1647 C 0.08517 0.39527 0.87299 0.0
C1648 C 0.09061 0.36742 0.86618 0.0
C1649 C 0.11556 0.35132 0.87059 0.0
C1650 C 0.00631 0.41252 0.86161 0.0
C1651 C 0.00863 0.4414 0.85551 0.0
C1652 C 0.03103 0.39797 0.86771 0.0
C1653 C 0.05859 0.41202 0.86805 0.0
C1654 C 0.06078 0.44135 0.86268 0.0
C1655 C 0.03602 0.45587 0.85637 0.0
H1656 H 0.35319 0.23512 0.60609 0.0
H1657 H 0.26775 0.27313 0.61639 0.0
H1658 H 0.37679 0.27389 0.62166 0.0
H1659 H 0.29158 0.31194 0.63229 0.0
H1660 H 0.35124 0.39427 0.64185 0.0
H1661 H 0.3238 0.35506 0.62838 0.0
H1662 H 0.38205 0.29018 0.64954 0.0
H1663 H 0.40983 0.32934 0.66276 0.0
C1664 C 0.33938 0.25171 0.61172 0.0
C1665 C 0.30854 0.251 0.60998 0.0
C1666 C 0.35295 0.27383 0.62078 0.0
C1667 C 0.33606 0.29587 0.62834 0.0
C1668 C 0.30521 0.29535 0.62653 0.0
C1669 C 0.29156 0.27309 0.61747 0.0
C1670 C 0.35801 0.37161 0.64377 0.0
C1671 C 0.38293 0.36495 0.65326 0.0
C1672 C 0.34218 0.34913 0.6361 0.0
C1673 C 0.35093 0.31953 0.63774 0.0
C1674 C 0.37509 0.31282 0.64778 0.0
C1675 C 0.39091 0.33527 0.65544 0.0
H1676 H 0.47118 0.51269 0.371 0.0
H1677 H 0.48078 0.58498 0.33731 0.0
H1678 H 0.4241 0.53324 0.38005 0.0
H1679 H 0.43432 0.60563 0.34652 0.0
H1680 H 0.3381 0.62222 0.35543 0.0
H1681 H 0.38174 0.59629 0.34589 0.0
H1682 H 0.40594 0.57624 0.39524 0.0
H1683 H 0.36183 0.60177 0.40482 0.0
C1684 C 0.46324 0.53288 0.3655 0.0
C1685 C 0.47975 0.54717 0.35343 0.0
C1686 C 0.43637 0.54472 0.37074 0.0
C1687 C 0.42544 0.57104 0.36398 0.0
C1688 C 0.44184 0.58508 0.3518 0.0
C1689 C 0.46861 0.5733 0.34658 0.0
C1690 C 0.35257 0.61211 0.36426 0.0
C1691 C 0.3466 0.61427 0.38089 0.0
C1692 C 0.37768 0.59735 0.35879 0.0
C1693 C 0.39747 0.58444 0.36981 0.0
C1694 C 0.39102 0.58576 0.38643 0.0
C1695 C 0.36583 0.60053 0.39192 0.0
loop_
_geom_bond_atom_site_label_1
_geom_bond_atom_site_label_2
_geom_bond_distance
_geom_bond_site_symmetry_2
_ccdc_geom_bond_type
C0 O1 1.160 . S
C0 O7 1.185 . S
O1 C0 1.160 . S
O2 Zn3 1.899 . S
O2 C10 1.284 . S
Zn3 O2 1.899 . S
Zn3 O4 2.032 . S
Zn3 O7 2.086 . S
Zn3 O12 1.977 . S
O4 Zn3 2.032 . S
O4 C8 1.278 . S
C5 O6 1.203 . S
C5 O12 1.267 . S
O6 C5 1.203 . S
O7 C0 1.185 . S
O7 Zn3 2.086 . S
C8 O4 1.278 . S
C8 O9 1.211 . S
O9 C8 1.211 . S
C10 O2 1.284 . S
C10 O11 1.273 . S
O11 C10 1.273 . S
O12 Zn3 1.977 . S
O12 C5 1.267 . S
C13 O14 1.160 . S
C13 O20 1.185 . S
O14 C13 1.160 . S
O15 Zn16 1.899 . S
O15 C23 1.284 . S
Zn16 O15 1.899 . S
Zn16 O17 2.032 . S
Zn16 O20 2.086 . S
Zn16 O25 1.977 . S
O17 Zn16 2.032 . S
O17 C21 1.278 . S
C18 O19 1.203 . S
C18 O25 1.267 . S
O19 C18 1.203 . S
O20 C13 1.185 . S
O20 Zn16 2.086 . S
C21 O17 1.278 . S
C21 O22 1.211 . S
O22 C21 1.211 . S
C23 O15 1.284 . S
C23 O24 1.273 . S
O24 C23 1.273 . S
O25 Zn16 1.977 . S
O25 C18 1.267 . S
C26 O27 1.160 . S
C26 O33 1.185 . S
O27 C26 1.160 . S
O28 Zn29 1.899 . S
O28 C36 1.284 . S
Zn29 O28 1.899 . S
Zn29 O30 2.032 . S
Zn29 O33 2.086 . S
Zn29 O38 1.977 . S
O30 Zn29 2.032 . S
O30 C34 1.278 . S
C31 O32 1.203 . S
C31 O38 1.267 . S
O32 C31 1.203 . S
O33 C26 1.185 . S
O33 Zn29 2.086 . S
C34 O30 1.278 . S
C34 O35 1.211 . S
O35 C34 1.211 . S
C36 O28 1.284 . S
C36 O37 1.273 . S
O37 C36 1.273 . S
O38 Zn29 1.977 . S
O38 C31 1.267 . S
C39 O40 1.160 . S
C39 O46 1.185 . S
O40 C39 1.160 . S
O41 Zn42 1.899 . S
O41 C49 1.284 . S
Zn42 O41 1.899 . S
Zn42 O43 2.032 . S
Zn42 O46 2.086 . S
Zn42 O51 1.977 . S
O43 Zn42 2.032 . S
O43 C47 1.278 . S
C44 O45 1.203 . S
C44 O51 1.267 . S
O45 C44 1.203 . S
O46 C39 1.185 . S
O46 Zn42 2.086 . S
C47 O43 1.278 . S
C47 O48 1.211 . S
O48 C47 1.211 . S
C49 O41 1.284 . S
C49 O50 1.273 . S
O50 C49 1.273 . S
O51 Zn42 1.977 . S
O51 C44 1.267 . S
C52 O53 1.160 . S
C52 O59 1.185 . S
O53 C52 1.160 . S
O54 Zn55 1.899 . S
O54 C62 1.284 . S
Zn55 O54 1.899 . S
Zn55 O56 2.032 . S
Zn55 O59 2.086 . S
Zn55 O64 1.977 . S
O56 Zn55 2.032 . S
O56 C60 1.278 . S
C57 O58 1.203 . S
C57 O64 1.267 . S
O58 C57 1.203 . S
O59 C52 1.185 . S
O59 Zn55 2.086 . S
C60 O56 1.278 . S
C60 O61 1.211 . S
O61 C60 1.211 . S
C62 O54 1.284 . S
C62 O63 1.273 . S
O63 C62 1.273 . S
O64 Zn55 1.977 . S
O64 C57 1.267 . S
C65 O66 1.160 . S
C65 O72 1.185 . S
O66 C65 1.160 . S
O67 Zn68 1.899 . S
O67 C75 1.284 . S
Zn68 O67 1.899 . S
Zn68 O69 2.032 . S
Zn68 O72 2.086 . S
Zn68 O77 1.977 . S
O69 Zn68 2.032 . S
O69 C73 1.278 . S
C70 O71 1.203 . S
C70 O77 1.267 . S
O71 C70 1.203 . S
O72 C65 1.185 . S
O72 Zn68 2.086 . S
C73 O69 1.278 . S
C73 O74 1.211 . S
O74 C73 1.211 . S
C75 O67 1.284 . S
C75 O76 1.273 . S
O76 C75 1.273 . S
O77 Zn68 1.977 . S
O77 C70 1.267 . S
C78 O79 1.160 . S
C78 O85 1.185 . S
O79 C78 1.160 . S
O80 Zn81 1.899 . S
O80 C88 1.284 . S
Zn81 O80 1.899 . S
Zn81 O82 2.032 . S
Zn81 O85 2.086 . S
Zn81 O90 1.977 . S
O82 Zn81 2.032 . S
O82 C86 1.278 . S
C83 O84 1.203 . S
C83 O90 1.267 . S
O84 C83 1.203 . S
O85 C78 1.185 . S
O85 Zn81 2.086 . S
C86 O82 1.278 . S
C86 O87 1.211 . S
O87 C86 1.211 . S
C88 O80 1.284 . S
C88 O89 1.273 . S
O89 C88 1.273 . S
O90 Zn81 1.977 . S
O90 C83 1.267 . S
C91 O92 1.160 . S
C91 O98 1.185 . S
O92 C91 1.160 . S
O93 Zn94 1.899 . S
O93 C101 1.284 . S
Zn94 O93 1.899 . S
Zn94 O95 2.032 . S
Zn94 O98 2.086 . S
Zn94 O103 1.977 . S
O95 Zn94 2.032 . S
O95 C99 1.278 . S
C96 O97 1.203 . S
C96 O103 1.267 . S
O97 C96 1.203 . S
O98 C91 1.185 . S
O98 Zn94 2.086 . S
C99 O95 1.278 . S
C99 O100 1.211 . S
O100 C99 1.211 . S
C101 O93 1.284 . S
C101 O102 1.273 . S
O102 C101 1.273 . S
O103 Zn94 1.977 . S
O103 C96 1.267 . S
C104 O105 1.160 . S
C104 O111 1.185 . S
O105 C104 1.160 . S
O106 Zn107 1.899 . S
O106 C114 1.284 . S
Zn107 O106 1.899 . S
Zn107 O108 2.032 . S
Zn107 O111 2.086 . S
Zn107 O116 1.977 . S
O108 Zn107 2.032 . S
O108 C112 1.278 . S
C109 O110 1.203 . S
C109 O116 1.267 . S
O110 C109 1.203 . S
O111 C104 1.185 . S
O111 Zn107 2.086 . S
C112 O108 1.278 . S
C112 O113 1.211 . S
O113 C112 1.211 . S
C114 O106 1.284 . S
C114 O115 1.273 . S
O115 C114 1.273 . S
O116 Zn107 1.977 . S
O116 C109 1.267 . S
C117 O118 1.160 . S
C117 O124 1.185 . S
O118 C117 1.160 . S
O119 Zn120 1.899 . S
O119 C127 1.284 . S
Zn120 O119 1.899 . S
Zn120 O121 2.032 . S
Zn120 O124 2.086 . S
Zn120 O129 1.977 . S
O121 Zn120 2.032 . S
O121 C125 1.278 . S
C122 O123 1.203 . S
C122 O129 1.267 . S
O123 C122 1.203 . S
O124 C117 1.185 . S
O124 Zn120 2.086 . S
C125 O121 1.278 . S
C125 O126 1.211 . S
O126 C125 1.211 . S
C127 O119 1.284 . S
C127 O128 1.273 . S
O128 C127 1.273 . S
O129 Zn120 1.977 . S
O129 C122 1.267 . S
C130 O131 1.160 . S
C130 O137 1.185 . S
O131 C130 1.160 . S
O132 Zn133 1.899 . S
O132 C140 1.284 . S
Zn133 O132 1.899 . S
Zn133 O134 2.032 . S
Zn133 O137 2.086 . S
Zn133 O142 1.977 . S
O134 Zn133 2.032 . S
O134 C138 1.278 . S
C135 O136 1.203 . S
C135 O142 1.267 . S
O136 C135 1.203 . S
O137 C130 1.185 . S
O137 Zn133 2.086 . S
C138 O134 1.278 . S
C138 O139 1.211 . S
O139 C138 1.211 . S
C140 O132 1.284 . S
C140 O141 1.273 . S
O141 C140 1.273 . S
O142 Zn133 1.977 . S
O142 C135 1.267 . S
C143 O144 1.160 . S
C143 O150 1.185 . S
O144 C143 1.160 . S
O145 Zn146 1.899 . S
O145 C153 1.284 . S
Zn146 O145 1.899 . S
Zn146 O147 2.032 . S
Zn146 O150 2.086 . S
Zn146 O155 1.977 . S
O147 Zn146 2.032 . S
O147 C151 1.278 . S
C148 O149 1.203 . S
C148 O155 1.267 . S
O149 C148 1.203 . S
O150 C143 1.185 . S
O150 Zn146 2.086 . S
C151 O147 1.278 . S
C151 O152 1.211 . S
O152 C151 1.211 . S
C153 O145 1.284 . S
C153 O154 1.273 . S
O154 C153 1.273 . S
O155 Zn146 1.977 . S
O155 C148 1.267 . S
C156 O157 1.160 . S
C156 O163 1.185 . S
O157 C156 1.160 . S
O158 Zn159 1.899 . S
O158 C166 1.284 . S
Zn159 O158 1.899 . S
Zn159 O160 2.032 . S
Zn159 O163 2.086 . S
Zn159 O168 1.977 . S
O160 Zn159 2.032 . S
O160 C164 1.278 . S
C161 O162 1.203 . S
C161 O168 1.267 . S
O162 C161 1.203 . S
O163 C156 1.185 . S
O163 Zn159 2.086 . S
C164 O160 1.278 . S
C164 O165 1.211 . S
O165 C164 1.211 . S
C166 O158 1.284 . S
C166 O167 1.273 . S
O167 C166 1.273 . S
O168 Zn159 1.977 . S
O168 C161 1.267 . S
C169 O170 1.160 . S
C169 O176 1.185 . S
O170 C169 1.160 . S
O171 Zn172 1.899 . S
O171 C179 1.284 . S
Zn172 O171 1.899 . S
Zn172 O173 2.032 . S
Zn172 O176 2.086 . S
Zn172 O181 1.977 . S
O173 Zn172 2.032 . S
O173 C177 1.278 . S
C174 O175 1.203 . S
C174 O181 1.267 . S
O175 C174 1.203 . S
O176 C169 1.185 . S
O176 Zn172 2.086 . S
C177 O173 1.278 . S
C177 O178 1.211 . S
O178 C177 1.211 . S
C179 O171 1.284 . S
C179 O180 1.273 . S
O180 C179 1.273 . S
O181 Zn172 1.977 . S
O181 C174 1.267 . S
C182 O183 1.160 . S
C182 O189 1.185 . S
O183 C182 1.160 . S
O184 Zn185 1.899 . S
O184 C192 1.284 . S
Zn185 O184 1.899 . S
Zn185 O186 2.032 . S
Zn185 O189 2.086 . S
Zn185 O194 1.977 . S
O186 Zn185 2.032 . S
O186 C190 1.278 . S
C187 O188 1.203 . S
C187 O194 1.267 . S
O188 C187 1.203 . S
O189 C182 1.185 . S
O189 Zn185 2.086 . S
C190 O186 1.278 . S
C190 O191 1.211 . S
O191 C190 1.211 . S
C192 O184 1.284 . S
C192 O193 1.273 . S
O193 C192 1.273 . S
O194 Zn185 1.977 . S
O194 C187 1.267 . S
C195 O196 1.160 . S
C195 O202 1.185 . S
O196 C195 1.160 . S
O197 Zn198 1.899 . S
O197 C205 1.284 . S
Zn198 O197 1.899 . S
Zn198 O199 2.032 . S
Zn198 O202 2.086 . S
Zn198 O207 1.977 . S
O199 Zn198 2.032 . S
O199 C203 1.278 . S
C200 O201 1.203 . S
C200 O207 1.267 . S
O201 C200 1.203 . S
O202 C195 1.185 . S
O202 Zn198 2.086 . S
C203 O199 1.278 . S
C203 O204 1.211 . S
O204 C203 1.211 . S
C205 O197 1.284 . S
C205 O206 1.273 . S
O206 C205 1.273 . S
O207 Zn198 1.977 . S
O207 C200 1.267 . S
C208 O209 1.160 . S
C208 O215 1.185 . S
O209 C208 1.160 . S
O210 Zn211 1.899 . S
O210 C218 1.284 . S
Zn211 O210 1.899 . S
Zn211 O212 2.032 . S
Zn211 O215 2.086 . S
Zn211 O220 1.977 . S
O212 Zn211 2.032 . S
O212 C216 1.278 . S
C213 O214 1.203 . S
C213 O220 1.267 . S
O214 C213 1.203 . S
O215 C208 1.185 . S
O215 Zn211 2.086 . S
C216 O212 1.278 . S
C216 O217 1.211 . S
O217 C216 1.211 . S
C218 O210 1.284 . S
C218 O219 1.273 . S
O219 C218 1.273 . S
O220 Zn211 1.977 . S
O220 C213 1.267 . S
C221 O222 1.160 . S
C221 O228 1.185 . S
O222 C221 1.160 . S
O223 Zn224 1.899 . S
O223 C231 1.284 . S
Zn224 O223 1.899 . S
Zn224 O225 2.032 . S
Zn224 O228 2.086 . S
Zn224 O233 1.977 . S
O225 Zn224 2.032 . S
O225 C229 1.278 . S
C226 O227 1.203 . S
C226 O233 1.267 . S
O227 C226 1.203 . S
O228 C221 1.185 . S
O228 Zn224 2.086 . S
C229 O225 1.278 . S
C229 O230 1.211 . S
O230 C229 1.211 . S
C231 O223 1.284 . S
C231 O232 1.273 . S
O232 C231 1.273 . S
O233 Zn224 1.977 . S
O233 C226 1.267 . S
C234 O235 1.160 . S
C234 O241 1.185 . S
O235 C234 1.160 . S
O236 Zn237 1.899 . S
O236 C244 1.284 . S
Zn237 O236 1.899 . S
Zn237 O238 2.032 . S
Zn237 O241 2.086 . S
Zn237 O246 1.977 . S
O238 Zn237 2.032 . S
O238 C242 1.278 . S
C239 O240 1.203 . S
C239 O246 1.267 . S
O240 C239 1.203 . S
O241 C234 1.185 . S
O241 Zn237 2.086 . S
C242 O238 1.278 . S
C242 O243 1.211 . S
O243 C242 1.211 . S
C244 O236 1.284 . S
C244 O245 1.273 . S
O245 C244 1.273 . S
O246 Zn237 1.977 . S
O246 C239 1.267 . S
C247 O248 1.160 . S
C247 O254 1.185 . S
O248 C247 1.160 . S
O249 Zn250 1.899 . S
O249 C257 1.284 . S
Zn250 O249 1.899 . S
Zn250 O251 2.032 . S
Zn250 O254 2.086 . S
Zn250 O259 1.977 . S
O251 Zn250 2.032 . S
O251 C255 1.278 . S
C252 O253 1.203 . S
C252 O259 1.267 . S
O253 C252 1.203 . S
O254 C247 1.185 . S
O254 Zn250 2.086 . S
C255 O251 1.278 . S
C255 O256 1.211 . S
O256 C255 1.211 . S
C257 O249 1.284 . S
C257 O258 1.273 . S
O258 C257 1.273 . S
O259 Zn250 1.977 . S
O259 C252 1.267 . S
C260 O261 1.160 . S
C260 O267 1.185 . S
O261 C260 1.160 . S
O262 Zn263 1.899 . S
O262 C270 1.284 . S
Zn263 O262 1.899 . S
Zn263 O264 2.032 . S
Zn263 O267 2.086 . S
Zn263 O272 1.977 . S
O264 Zn263 2.032 . S
O264 C268 1.278 . S
C265 O266 1.203 . S
C265 O272 1.267 . S
O266 C265 1.203 . S
O267 C260 1.185 . S
O267 Zn263 2.086 . S
C268 O264 1.278 . S
C268 O269 1.211 . S
O269 C268 1.211 . S
C270 O262 1.284 . S
C270 O271 1.273 . S
O271 C270 1.273 . S
O272 Zn263 1.977 . S
O272 C265 1.267 . S
C273 O274 1.160 . S
C273 O280 1.185 . S
O274 C273 1.160 . S
O275 Zn276 1.899 . S
O275 C283 1.284 . S
Zn276 O275 1.899 . S
Zn276 O277 2.032 . S
Zn276 O280 2.086 . S
Zn276 O285 1.977 . S
O277 Zn276 2.032 . S
O277 C281 1.278 . S
C278 O279 1.203 . S
C278 O285 1.267 . S
O279 C278 1.203 . S
O280 C273 1.185 . S
O280 Zn276 2.086 . S
C281 O277 1.278 . S
C281 O282 1.211 . S
O282 C281 1.211 . S
C283 O275 1.284 . S
C283 O284 1.273 . S
O284 C283 1.273 . S
O285 Zn276 1.977 . S
O285 C278 1.267 . S
C286 O287 1.160 . S
C286 O293 1.185 . S
O287 C286 1.160 . S
O288 Zn289 1.899 . S
O288 C296 1.284 . S
Zn289 O288 1.899 . S
Zn289 O290 2.032 . S
Zn289 O293 2.086 . S
Zn289 O298 1.977 . S
O290 Zn289 2.032 . S
O290 C294 1.278 . S
C291 O292 1.203 . S
C291 O298 1.267 . S
O292 C291 1.203 . S
O293 C286 1.185 . S
O293 Zn289 2.086 . S
C294 O290 1.278 . S
C294 O295 1.211 . S
O295 C294 1.211 . S
C296 O288 1.284 . S
C296 O297 1.273 . S
O297 C296 1.273 . S
O298 Zn289 1.977 . S
O298 C291 1.267 . S
C299 O300 1.160 . S
C299 O306 1.185 . S
O300 C299 1.160 . S
O301 Zn302 1.899 . S
O301 C309 1.284 . S
Zn302 O301 1.899 . S
Zn302 O303 2.032 . S
Zn302 O306 2.086 . S
Zn302 O311 1.977 . S
O303 Zn302 2.032 . S
O303 C307 1.278 . S
C304 O305 1.203 . S
C304 O311 1.267 . S
O305 C304 1.203 . S
O306 C299 1.185 . S
O306 Zn302 2.086 . S
C307 O303 1.278 . S
C307 O308 1.211 . S
O308 C307 1.211 . S
C309 O301 1.284 . S
C309 O310 1.273 . S
O310 C309 1.273 . S
O311 Zn302 1.977 . S
O311 C304 1.267 . S
C312 O313 1.160 . S
C312 O319 1.185 . S
O313 C312 1.160 . S
O314 Zn315 1.899 . S
O314 C322 1.284 . S
Zn315 O314 1.899 . S
Zn315 O316 2.032 . S
Zn315 O319 2.086 . S
Zn315 O324 1.977 . S
O316 Zn315 2.032 . S
O316 C320 1.278 . S
C317 O318 1.203 . S
C317 O324 1.267 . S
O318 C317 1.203 . S
O319 C312 1.185 . S
O319 Zn315 2.086 . S
C320 O316 1.278 . S
C320 O321 1.211 . S
O321 C320 1.211 . S
C322 O314 1.284 . S
C322 O323 1.273 . S
O323 C322 1.273 . S
O324 Zn315 1.977 . S
O324 C317 1.267 . S
C325 O326 1.160 . S
C325 O332 1.185 . S
O326 C325 1.160 . S
O327 Zn328 1.899 . S
O327 C335 1.284 . S
Zn328 O327 1.899 . S
Zn328 O329 2.032 . S
Zn328 O332 2.086 . S
Zn328 O337 1.977 . S
O329 Zn328 2.032 . S
O329 C333 1.278 . S
C330 O331 1.203 . S
C330 O337 1.267 . S
O331 C330 1.203 . S
O332 C325 1.185 . S
O332 Zn328 2.086 . S
C333 O329 1.278 . S
C333 O334 1.211 . S
O334 C333 1.211 . S
C335 O327 1.284 . S
C335 O336 1.273 . S
O336 C335 1.273 . S
O337 Zn328 1.977 . S
O337 C330 1.267 . S
C338 O339 1.160 . S
C338 O345 1.185 . S
O339 C338 1.160 . S
O340 Zn341 1.899 . S
O340 C348 1.284 . S
Zn341 O340 1.899 . S
Zn341 O342 2.032 . S
Zn341 O345 2.086 . S
Zn341 O350 1.977 . S
O342 Zn341 2.032 . S
O342 C346 1.278 . S
C343 O344 1.203 . S
C343 O350 1.267 . S
O344 C343 1.203 . S
O345 C338 1.185 . S
O345 Zn341 2.086 . S
C346 O342 1.278 . S
C346 O347 1.211 . S
O347 C346 1.211 . S
C348 O340 1.284 . S
C348 O349 1.273 . S
O349 C348 1.273 . S
O350 Zn341 1.977 . S
O350 C343 1.267 . S
C351 O352 1.160 . S
C351 O358 1.185 . S
O352 C351 1.160 . S
O353 Zn354 1.899 . S
O353 C361 1.284 . S
Zn354 O353 1.899 . S
Zn354 O355 2.032 . S
Zn354 O358 2.086 . S
Zn354 O363 1.977 . S
O355 Zn354 2.032 . S
O355 C359 1.278 . S
C356 O357 1.203 . S
C356 O363 1.267 . S
O357 C356 1.203 . S
O358 C351 1.185 . S
O358 Zn354 2.086 . S
C359 O355 1.278 . S
C359 O360 1.211 . S
O360 C359 1.211 . S
C361 O353 1.284 . S
C361 O362 1.273 . S
O362 C361 1.273 . S
O363 Zn354 1.977 . S
O363 C356 1.267 . S
C364 O365 1.160 . S
C364 O371 1.185 . S
O365 C364 1.160 . S
O366 Zn367 1.899 . S
O366 C374 1.284 . S
Zn367 O366 1.899 . S
Zn367 O368 2.032 . S
Zn367 O371 2.086 . S
Zn367 O376 1.977 . S
O368 Zn367 2.032 . S
O368 C372 1.278 . S
C369 O370 1.203 . S
C369 O376 1.267 . S
O370 C369 1.203 . S
O371 C364 1.185 . S
O371 Zn367 2.086 . S
C372 O368 1.278 . S
C372 O373 1.211 . S
O373 C372 1.211 . S
C374 O366 1.284 . S
C374 O375 1.273 . S
O375 C374 1.273 . S
O376 Zn367 1.977 . S
O376 C369 1.267 . S
C377 O378 1.160 . S
C377 O384 1.185 . S
O378 C377 1.160 . S
O379 Zn380 1.899 . S
O379 C387 1.284 . S
Zn380 O379 1.899 . S
Zn380 O381 2.032 . S
Zn380 O384 2.086 . S
Zn380 O389 1.977 . S
O381 Zn380 2.032 . S
O381 C385 1.278 . S
C382 O383 1.203 . S
C382 O389 1.267 . S
O383 C382 1.203 . S
O384 C377 1.185 . S
O384 Zn380 2.086 . S
C385 O381 1.278 . S
C385 O386 1.211 . S
O386 C385 1.211 . S
C387 O379 1.284 . S
C387 O388 1.273 . S
O388 C387 1.273 . S
O389 Zn380 1.977 . S
O389 C382 1.267 . S
C390 O391 1.160 . S
C390 O397 1.185 . S
O391 C390 1.160 . S
O392 Zn393 1.899 . S
O392 C400 1.284 . S
Zn393 O392 1.899 . S
Zn393 O394 2.032 . S
Zn393 O397 2.086 . S
Zn393 O402 1.977 . S
O394 Zn393 2.032 . S
O394 C398 1.278 . S
C395 O396 1.203 . S
C395 O402 1.267 . S
O396 C395 1.203 . S
O397 C390 1.185 . S
O397 Zn393 2.086 . S
C398 O394 1.278 . S
C398 O399 1.211 . S
O399 C398 1.211 . S
C400 O392 1.284 . S
C400 O401 1.273 . S
O401 C400 1.273 . S
O402 Zn393 1.977 . S
O402 C395 1.267 . S
C403 O404 1.160 . S
C403 O410 1.185 . S
O404 C403 1.160 . S
O405 Zn406 1.899 . S
O405 C413 1.284 . S
Zn406 O405 1.899 . S
Zn406 O407 2.032 . S
Zn406 O410 2.086 . S
Zn406 O415 1.977 . S
O407 Zn406 2.032 . S
O407 C411 1.278 . S
C408 O409 1.203 . S
C408 O415 1.267 . S
O409 C408 1.203 . S
O410 C403 1.185 . S
O410 Zn406 2.086 . S
C411 O407 1.278 . S
C411 O412 1.211 . S
O412 C411 1.211 . S
C413 O405 1.284 . S
C413 O414 1.273 . S
O414 C413 1.273 . S
O415 Zn406 1.977 . S
O415 C408 1.267 . S
H416 C424 0.950 . S
H417 C429 0.950 . S
H418 C426 0.950 . S
H419 C428 0.950 . S
H420 C430 0.950 . S
H421 C432 0.950 . S
H422 C434 0.950 . S
H423 C435 0.950 . S
C424 H416 0.950 . S
C424 C425 1.386 1_545 S
C424 C426 1.391 . S
C425 C424 1.386 1_565 S
C425 C429 1.393 . S
C426 H418 0.950 . S
C426 C424 1.391 . S
C426 C427 1.400 1_545 S
C427 C426 1.400 1_565 S
C427 C428 1.398 . S
C427 C433 1.491 1_565 S
C428 H419 0.950 . S
C428 C427 1.398 . S
C428 C429 1.391 . S
C429 H417 0.950 . S
C429 C425 1.393 . S
C429 C428 1.391 . S
C430 H420 0.950 . S
C430 C431 1.386 1_565 S
C430 C432 1.391 . S
C431 C430 1.386 1_545 S
C431 C435 1.393 . S
C432 H421 0.950 . S
C432 C430 1.391 . S
C432 C433 1.400 1_565 S
C433 C427 1.491 1_545 S
C433 C432 1.400 1_545 S
C433 C434 1.398 . S
C434 H422 0.950 . S
C434 C433 1.398 . S
C434 C435 1.391 . S
C435 H423 0.950 . S
C435 C431 1.393 . S
C435 C434 1.391 . S
H436 C444 0.950 . S
H437 C449 0.950 . S
H438 C446 0.950 . S
H439 C448 0.950 . S
H440 C450 0.950 . S
H441 C452 0.950 . S
H442 C454 0.950 . S
H443 C455 0.950 . S
C444 H436 0.950 . S
C444 C445 1.386 . S
C444 C446 1.391 . S
C445 C444 1.386 . S
C445 C449 1.393 . S
C446 H438 0.950 . S
C446 C444 1.391 . S
C446 C447 1.400 . S
C447 C446 1.400 . S
C447 C448 1.398 . S
C447 C453 1.491 . S
C448 H439 0.950 . S
C448 C447 1.398 . S
C448 C449 1.391 . S
C449 H437 0.950 . S
C449 C445 1.393 . S
C449 C448 1.391 . S
C450 H440 0.950 . S
C450 C451 1.386 . S
C450 C452 1.391 . S
C451 C450 1.386 . S
C451 C455 1.393 . S
C452 H441 0.950 . S
C452 C450 1.391 . S
C452 C453 1.400 . S
C453 C447 1.491 . S
C453 C452 1.400 . S
C453 C454 1.398 . S
C454 H442 0.950 . S
C454 C453 1.398 . S
C454 C455 1.391 . S
C455 H443 0.950 . S
C455 C451 1.393 . S
C455 C454 1.391 . S
H456 C464 0.950 . S
H457 C469 0.957 . S
H458 C466 0.950 . S
H459 C468 0.950 . S
H460 C470 0.950 . S
H461 C472 0.950 . S
H462 C474 0.950 . S
H463 C475 0.957 . S
C464 H456 0.950 . S
C464 C465 1.386 . S
C464 C466 1.391 . S
C465 C464 1.386 . S
C465 C469 1.393 . S
C466 H458 0.950 . S
C466 C464 1.391 . S
C466 C467 1.400 . S
C467 C466 1.400 . S
C467 C468 1.398 1_545 S
C467 C473 1.491 1_545 S
C468 H459 0.950 . S
C468 C467 1.398 1_565 S
C468 C469 1.391 1_565 S
C469 H457 0.957 . S
C469 C465 1.393 . S
C469 C468 1.391 1_545 S
C470 H460 0.950 . S
C470 C471 1.386 . S
C470 C472 1.391 . S
C471 C470 1.386 . S
C471 C475 1.393 . S
C472 H461 0.950 . S
C472 C470 1.391 . S
C472 C473 1.400 . S
C473 C467 1.491 1_565 S
C473 C472 1.400 . S
C473 C474 1.398 1_565 S
C474 H462 0.950 . S
C474 C473 1.398 1_545 S
C474 C475 1.391 1_545 S
C475 H463 0.957 . S
C475 C471 1.393 . S
C475 C474 1.391 1_565 S
H476 C484 0.950 . S
H477 C489 0.950 . S
H478 C486 0.950 . S
H479 C488 0.950 . S
H480 C490 0.950 . S
H481 C492 0.950 . S
H482 C494 0.950 . S
H483 C495 0.950 . S
C484 H476 0.950 . S
C484 C485 1.386 . S
C484 C486 1.391 . S
C485 C484 1.386 . S
C485 C489 1.393 . S
C486 H478 0.950 . S
C486 C484 1.391 . S
C486 C487 1.400 . S
C487 C486 1.400 . S
C487 C488 1.398 . S
C487 C493 1.491 1_556 S
C488 H479 0.950 . S
C488 C487 1.398 . S
C488 C489 1.391 . S
C489 H477 0.950 . S
C489 C485 1.393 . S
C489 C488 1.391 . S
C490 H480 0.950 . S
C490 C491 1.386 . S
C490 C492 1.391 . S
C491 C490 1.386 . S
C491 C495 1.393 . S
C492 H481 0.950 . S
C492 C490 1.391 . S
C492 C493 1.400 . S
C493 C487 1.491 1_554 S
C493 C492 1.400 . S
C493 C494 1.398 . S
C494 H482 0.950 . S
C494 C493 1.398 . S
C494 C495 1.391 . S
C495 H483 0.950 . S
C495 C491 1.393 . S
C495 C494 1.391 . S
H496 C504 0.950 . S
H497 C509 0.950 . S
H498 C506 0.950 . S
H499 C508 0.950 . S
H500 C510 0.950 . S
H501 C512 0.950 . S
H502 C514 0.950 . S
H503 C515 0.950 . S
C504 H496 0.950 . S
C504 C505 1.386 1_545 S
C504 C506 1.391 . S
C505 C504 1.386 1_565 S
C505 C509 1.393 . S
C506 H498 0.950 . S
C506 C504 1.391 . S
C506 C507 1.400 1_545 S
C507 C506 1.400 1_565 S
C507 C508 1.398 . S
C507 C513 1.491 1_565 S
C508 H499 0.950 . S
C508 C507 1.398 . S
C508 C509 1.391 . S
C509 H497 0.950 . S
C509 C505 1.393 . S
C509 C508 1.391 . S
C510 H500 0.950 . S
C510 C511 1.386 1_565 S
C510 C512 1.391 . S
C511 C510 1.386 1_545 S
C511 C515 1.393 . S
C512 H501 0.950 . S
C512 C510 1.391 . S
C512 C513 1.400 1_565 S
C513 C507 1.491 1_545 S
C513 C512 1.400 1_545 S
C513 C514 1.398 . S
C514 H502 0.950 . S
C514 C513 1.398 . S
C514 C515 1.391 . S
C515 H503 0.950 . S
C515 C511 1.393 . S
C515 C514 1.391 . S
H516 C524 0.950 . S
H517 C529 0.950 . S
H518 C526 0.950 . S
H519 C528 0.950 . S
H520 C530 0.950 . S
H521 C532 0.950 . S
H522 C534 0.950 . S
H523 C535 0.950 . S
C524 H516 0.950 . S
C524 C525 1.386 . S
C524 C526 1.391 . S
C525 C524 1.386 . S
C525 C529 1.393 . S
C526 H518 0.950 . S
C526 C524 1.391 . S
C526 C527 1.400 . S
C527 C526 1.400 . S
C527 C528 1.398 . S
C527 C533 1.491 . S
C528 H519 0.950 . S
C528 C527 1.398 . S
C528 C529 1.391 . S
C529 H517 0.950 . S
C529 C525 1.393 . S
C529 C528 1.391 . S
C530 H520 0.950 . S
C530 C531 1.386 . S
C530 C532 1.391 . S
C531 C530 1.386 . S
C531 C535 1.393 . S
C532 H521 0.950 . S
C532 C530 1.391 . S
C532 C533 1.400 . S
C533 C527 1.491 . S
C533 C532 1.400 . S
C533 C534 1.398 . S
C534 H522 0.950 . S
C534 C533 1.398 . S
C534 C535 1.391 . S
C535 H523 0.950 . S
C535 C531 1.393 . S
C535 C534 1.391 . S
H536 C544 0.950 . S
H537 C549 0.950 1_565 S
H538 C546 0.950 . S
H539 C548 0.950 . S
H540 C550 0.950 . S
H541 C552 0.950 . S
H542 C554 0.950 . S
H543 C555 0.950 1_545 S
C544 H536 0.950 . S
C544 C545 1.386 . S
C544 C546 1.391 . S
C545 C544 1.386 . S
C545 C549 1.393 . S
C546 H538 0.950 . S
C546 C544 1.391 . S
C546 C547 1.400 . S
C547 C546 1.400 . S
C547 C548 1.398 1_545 S
C547 C553 1.491 1_545 S
C548 H539 0.950 . S
C548 C547 1.398 1_565 S
C548 C549 1.391 1_565 S
C549 H537 0.950 1_545 S
C549 C545 1.393 . S
C549 C548 1.391 1_545 S
C550 H540 0.950 . S
C550 C551 1.386 . S
C550 C552 1.391 . S
C551 C550 1.386 . S
C551 C555 1.393 . S
C552 H541 0.950 . S
C552 C550 1.391 . S
C552 C553 1.400 . S
C553 C547 1.491 1_565 S
C553 C552 1.400 . S
C553 C554 1.398 1_565 S
C554 H542 0.950 . S
C554 C553 1.398 1_545 S
C554 C555 1.391 1_545 S
C555 H543 0.950 1_565 S
C555 C551 1.393 . S
C555 C554 1.391 1_565 S
H556 C564 0.950 . S
H557 C569 0.950 . S
H558 C566 0.950 . S
H559 C568 0.950 . S
H560 C570 0.950 . S
H561 C572 0.950 . S
H562 C574 0.950 . S
H563 C575 0.950 . S
C564 H556 0.950 . S
C564 C565 1.386 . S
C564 C566 1.391 . S
C565 C564 1.386 . S
C565 C569 1.393 . S
C566 H558 0.950 . S
C566 C564 1.391 . S
C566 C567 1.400 . S
C567 C566 1.400 . S
C567 C568 1.398 . S
C567 C573 1.491 1_556 S
C568 H559 0.950 . S
C568 C567 1.398 . S
C568 C569 1.391 . S
C569 H557 0.950 . S
C569 C565 1.393 . S
C569 C568 1.391 . S
C570 H560 0.950 . S
C570 C571 1.386 . S
C570 C572 1.391 . S
C571 C570 1.386 . S
C571 C575 1.393 . S
C572 H561 0.950 . S
C572 C570 1.391 . S
C572 C573 1.400 . S
C573 C567 1.491 1_554 S
C573 C572 1.400 . S
C573 C574 1.398 . S
C574 H562 0.950 . S
C574 C573 1.398 . S
C574 C575 1.391 . S
C575 H563 0.950 . S
C575 C571 1.393 . S
C575 C574 1.391 . S
H576 C584 0.950 . S
H577 C589 0.950 . S
H578 C586 0.950 . S
H579 C588 0.950 . S
H580 C590 0.950 . S
H581 C592 0.950 . S
H582 C594 0.950 . S
H583 C595 0.950 . S
C584 H576 0.950 . S
C584 C585 1.386 . S
C584 C586 1.391 . S
C585 C584 1.386 . S
C585 C589 1.393 . S
C586 H578 0.950 . S
C586 C584 1.391 . S
C586 C587 1.400 . S
C587 C586 1.400 . S
C587 C588 1.398 . S
C587 C593 1.491 . S
C588 H579 0.950 . S
C588 C587 1.398 . S
C588 C589 1.391 . S
C589 H577 0.950 . S
C589 C585 1.393 . S
C589 C588 1.391 . S
C590 H580 0.950 . S
C590 C591 1.386 . S
C590 C592 1.391 . S
C591 C590 1.386 . S
C591 C595 1.393 . S
C592 H581 0.950 . S
C592 C590 1.391 . S
C592 C593 1.400 . S
C593 C587 1.491 . S
C593 C592 1.400 . S
C593 C594 1.398 . S
C594 H582 0.950 . S
C594 C593 1.398 . S
C594 C595 1.391 . S
C595 H583 0.950 . S
C595 C591 1.393 . S
C595 C594 1.391 . S
H596 C604 0.950 . S
H597 C609 0.950 . S
H598 C606 0.950 . S
H599 C608 0.950 . S
H600 C610 0.950 . S
H601 C612 0.950 . S
H602 C614 0.950 . S
H603 C615 0.950 . S
C604 H596 0.950 . S
C604 C605 1.386 . S
C604 C606 1.391 . S
C605 C604 1.386 . S
C605 C609 1.393 . S
C606 H598 0.950 . S
C606 C604 1.391 . S
C606 C607 1.400 . S
C607 C606 1.400 . S
C607 C608 1.398 . S
C607 C613 1.491 1_554 S
C608 H599 0.950 . S
C608 C607 1.398 . S
C608 C609 1.391 . S
C609 H597 0.950 . S
C609 C605 1.393 . S
C609 C608 1.391 . S
C610 H600 0.950 . S
C610 C611 1.386 . S
C610 C612 1.391 . S
C611 C610 1.386 . S
C611 C615 1.393 . S
C612 H601 0.950 . S
C612 C610 1.391 . S
C612 C613 1.400 . S
C613 C607 1.491 1_556 S
C613 C612 1.400 . S
C613 C614 1.398 . S
C614 H602 0.950 . S
C614 C613 1.398 . S
C614 C615 1.391 . S
C615 H603 0.950 . S
C615 C611 1.393 . S
C615 C614 1.391 . S
H616 C624 0.950 . S
H617 C629 0.950 . S
H618 C626 0.950 . S
H619 C628 0.950 . S
H620 C630 0.950 . S
H621 C632 0.950 . S
H622 C634 0.950 . S
H623 C635 0.950 . S
C624 H616 0.950 . S
C624 C625 1.386 . S
C624 C626 1.391 . S
C625 C624 1.386 . S
C625 C629 1.393 . S
C626 H618 0.950 . S
C626 C624 1.391 . S
C626 C627 1.400 . S
C627 C626 1.400 . S
C627 C628 1.398 . S
C627 C633 1.491 . S
C628 H619 0.950 . S
C628 C627 1.398 . S
C628 C629 1.391 . S
C629 H617 0.950 . S
C629 C625 1.393 . S
C629 C628 1.391 . S
C630 H620 0.950 . S
C630 C631 1.386 . S
C630 C632 1.391 . S
C631 C630 1.386 . S
C631 C635 1.393 . S
C632 H621 0.950 . S
C632 C630 1.391 . S
C632 C633 1.400 . S
C633 C627 1.491 . S
C633 C632 1.400 . S
C633 C634 1.398 . S
C634 H622 0.950 . S
C634 C633 1.398 . S
C634 C635 1.391 . S
C635 H623 0.950 . S
C635 C631 1.393 . S
C635 C634 1.391 . S
H636 C644 0.950 . S
H637 C649 0.950 . S
H638 C646 0.950 . S
H639 C648 0.950 . S
H640 C650 0.950 . S
H641 C652 0.950 . S
H642 C654 0.950 . S
H643 C655 0.950 . S
C644 H636 0.950 . S
C644 C645 1.386 . S
C644 C646 1.391 . S
C645 C644 1.386 . S
C645 C649 1.393 . S
C646 H638 0.950 . S
C646 C644 1.391 . S
C646 C647 1.400 . S
C647 C646 1.400 . S
C647 C648 1.398 . S
C647 C653 1.491 . S
C648 H639 0.950 . S
C648 C647 1.398 . S
C648 C649 1.391 . S
C649 H637 0.950 . S
C649 C645 1.393 . S
C649 C648 1.391 . S
C650 H640 0.950 . S
C650 C651 1.386 . S
C650 C652 1.391 . S
C651 C650 1.386 . S
C651 C655 1.393 . S
C652 H641 0.950 . S
C652 C650 1.391 . S
C652 C653 1.400 . S
C653 C647 1.491 . S
C653 C652 1.400 . S
C653 C654 1.398 . S
C654 H642 0.950 . S
C654 C653 1.398 . S
C654 C655 1.391 . S
C655 H643 0.950 . S
C655 C651 1.393 . S
C655 C654 1.391 . S
H656 C664 0.950 . S
H657 C669 0.950 . S
H658 C666 0.950 . S
H659 C668 0.950 . S
H660 C670 0.950 . S
H661 C672 0.950 . S
H662 C674 0.950 . S
H663 C675 0.950 . S
C664 H656 0.950 . S
C664 C665 1.386 . S
C664 C666 1.391 . S
C665 C664 1.386 . S
C665 C669 1.393 . S
C666 H658 0.950 . S
C666 C664 1.391 . S
C666 C667 1.400 . S
C667 C666 1.400 . S
C667 C668 1.398 . S
C667 C673 1.491 . S
C668 H659 0.950 . S
C668 C667 1.398 . S
C668 C669 1.391 . S
C669 H657 0.950 . S
C669 C665 1.393 . S
C669 C668 1.391 . S
C670 H660 0.950 . S
C670 C671 1.386 . S
C670 C672 1.391 . S
C671 C670 1.386 . S
C671 C675 1.393 . S
C672 H661 0.950 . S
C672 C670 1.391 . S
C672 C673 1.400 . S
C673 C667 1.491 . S
C673 C672 1.400 . S
C673 C674 1.398 . S
C674 H662 0.950 . S
C674 C673 1.398 . S
C674 C675 1.391 . S
C675 H663 0.950 . S
C675 C671 1.393 . S
C675 C674 1.391 . S
H676 C684 0.950 . S
H677 C689 0.950 . S
H678 C686 0.950 . S
H679 C688 0.950 . S
H680 C690 0.950 . S
H681 C692 0.950 . S
H682 C694 0.950 . S
H683 C695 0.950 . S
C684 H676 0.950 . S
C684 C685 1.386 . S
C684 C686 1.391 . S
C685 C684 1.386 . S
C685 C689 1.393 . S
C686 H678 0.950 . S
C686 C684 1.391 . S
C686 C687 1.400 . S
C687 C686 1.400 . S
C687 C688 1.398 . S
C687 C693 1.491 1_554 S
C688 H679 0.950 . S
C688 C687 1.398 . S
C688 C689 1.391 . S
C689 H677 0.950 . S
C689 C685 1.393 . S
C689 C688 1.391 . S
C690 H680 0.950 . S
C690 C691 1.386 . S
C690 C692 1.391 . S
C691 C690 1.386 . S
C691 C695 1.393 . S
C692 H681 0.950 . S
C692 C690 1.391 . S
C692 C693 1.400 . S
C693 C687 1.491 1_556 S
C693 C692 1.400 . S
C693 C694 1.398 . S
C694 H682 0.950 . S
C694 C693 1.398 . S
C694 C695 1.391 . S
C695 H683 0.950 . S
C695 C691 1.393 . S
C695 C694 1.391 . S
H696 C704 0.950 . S
H697 C709 0.950 . S
H698 C706 0.950 . S
H699 C708 0.950 . S
H700 C710 0.950 . S
H701 C712 0.950 . S
H702 C714 0.950 . S
H703 C715 0.950 . S
C704 H696 0.950 . S
C704 C705 1.386 . S
C704 C706 1.391 . S
C705 C704 1.386 . S
C705 C709 1.393 . S
C706 H698 0.950 . S
C706 C704 1.391 . S
C706 C707 1.400 . S
C707 C706 1.400 . S
C707 C708 1.398 . S
C707 C713 1.491 . S
C708 H699 0.950 . S
C708 C707 1.398 . S
C708 C709 1.391 . S
C709 H697 0.950 . S
C709 C705 1.393 . S
C709 C708 1.391 . S
C710 H700 0.950 . S
C710 C711 1.386 . S
C710 C712 1.391 . S
C711 C710 1.386 . S
C711 C715 1.393 . S
C712 H701 0.950 . S
C712 C710 1.391 . S
C712 C713 1.400 . S
C713 C707 1.491 . S
C713 C712 1.400 . S
C713 C714 1.398 . S
C714 H702 0.950 . S
C714 C713 1.398 . S
C714 C715 1.391 . S
C715 H703 0.950 . S
C715 C711 1.393 . S
C715 C714 1.391 . S
H716 C724 0.950 . S
H717 C729 0.950 . S
H718 C726 0.950 . S
H719 C728 0.950 . S
H720 C730 0.950 . S
H721 C732 0.950 . S
H722 C734 0.950 . S
H723 C735 0.950 . S
C724 H716 0.950 . S
C724 C725 1.386 . S
C724 C726 1.391 . S
C725 C724 1.386 . S
C725 C729 1.393 . S
C726 H718 0.950 . S
C726 C724 1.391 . S
C726 C727 1.400 . S
C727 C726 1.400 . S
C727 C728 1.398 . S
C727 C733 1.491 . S
C728 H719 0.950 . S
C728 C727 1.398 . S
C728 C729 1.391 . S
C729 H717 0.950 . S
C729 C725 1.393 . S
C729 C728 1.391 . S
C730 H720 0.950 . S
C730 C731 1.386 . S
C730 C732 1.391 . S
C731 C730 1.386 . S
C731 C735 1.393 . S
C732 H721 0.950 . S
C732 C730 1.391 . S
C732 C733 1.400 . S
C733 C727 1.491 . S
C733 C732 1.400 . S
C733 C734 1.398 . S
C734 H722 0.950 . S
C734 C733 1.398 . S
C734 C735 1.391 . S
C735 H723 0.950 . S
C735 C731 1.393 . S
C735 C734 1.391 . S
H736 C744 0.950 . S
H737 C749 0.950 . S
H738 C746 0.950 . S
H739 C748 0.950 . S
H740 C750 0.950 . S
H741 C752 0.950 . S
H742 C754 0.950 . S
H743 C755 0.950 . S
C744 H736 0.950 . S
C744 C745 1.386 1_545 S
C744 C746 1.391 1_545 S
C745 C744 1.386 1_565 S
C745 C749 1.393 . S
C746 H738 0.950 . S
C746 C744 1.391 1_565 S
C746 C747 1.400 . S
C747 C746 1.400 . S
C747 C748 1.398 . S
C747 C753 1.491 . S
C748 H739 0.950 . S
C748 C747 1.398 . S
C748 C749 1.391 . S
C749 H737 0.950 . S
C749 C745 1.393 . S
C749 C748 1.391 . S
C750 H740 0.950 . S
C750 C751 1.386 . S
C750 C752 1.391 . S
C751 C750 1.386 . S
C751 C755 1.393 . S
C752 H741 0.950 . S
C752 C750 1.391 . S
C752 C753 1.400 . S
C753 C747 1.491 . S
C753 C752 1.400 . S
C753 C754 1.398 . S
C754 H742 0.950 . S
C754 C753 1.398 . S
C754 C755 1.391 . S
C755 H743 0.950 . S
C755 C751 1.393 . S
C755 C754 1.391 . S
H756 C764 0.950 . S
H757 C769 0.950 . S
H758 C766 0.950 . S
H759 C768 0.950 . S
H760 C770 0.950 1_565 S
H761 C772 0.950 . S
H762 C774 0.950 . S
H763 C775 0.950 . S
C764 H756 0.950 . S
C764 C765 1.386 . S
C764 C766 1.391 . S
C765 C764 1.386 . S
C765 C769 1.393 . S
C766 H758 0.950 . S
C766 C764 1.391 . S
C766 C767 1.400 . S
C767 C766 1.400 . S
C767 C768 1.398 . S
C767 C773 1.491 . S
C768 H759 0.950 . S
C768 C767 1.398 . S
C768 C769 1.391 . S
C769 H757 0.950 . S
C769 C765 1.393 . S
C769 C768 1.391 . S
C770 H760 0.950 1_545 S
C770 C771 1.386 . S
C770 C772 1.391 . S
C771 C770 1.386 . S
C771 C775 1.393 . S
C772 H761 0.950 . S
C772 C770 1.391 . S
C772 C773 1.400 . S
C773 C767 1.491 . S
C773 C772 1.400 . S
C773 C774 1.398 . S
C774 H762 0.950 . S
C774 C773 1.398 . S
C774 C775 1.391 . S
C775 H763 0.950 . S
C775 C771 1.393 . S
C775 C774 1.391 . S
H776 C784 0.950 . S
H777 C789 0.950 . S
H778 C786 0.950 . S
H779 C788 0.950 . S
H780 C790 0.950 . S
H781 C792 0.950 . S
H782 C794 0.950 . S
H783 C795 0.950 . S
C784 H776 0.950 . S
C784 C785 1.386 . S
C784 C786 1.391 . S
C785 C784 1.386 . S
C785 C789 1.393 1_545 S
C786 H778 0.950 . S
C786 C784 1.391 . S
C786 C787 1.400 . S
C787 C786 1.400 . S
C787 C788 1.398 . S
C787 C793 1.491 . S
C788 H779 0.950 . S
C788 C787 1.398 . S
C788 C789 1.391 1_545 S
C789 H777 0.950 . S
C789 C785 1.393 1_565 S
C789 C788 1.391 1_565 S
C790 H780 0.950 . S
C790 C791 1.386 . S
C790 C792 1.391 . S
C791 C790 1.386 . S
C791 C795 1.393 . S
C792 H781 0.950 . S
C792 C790 1.391 . S
C792 C793 1.400 . S
C793 C787 1.491 . S
C793 C792 1.400 . S
C793 C794 1.398 . S
C794 H782 0.950 . S
C794 C793 1.398 . S
C794 C795 1.391 . S
C795 H783 0.950 . S
C795 C791 1.393 . S
C795 C794 1.391 . S
H796 C804 0.950 1_545 S
H797 C809 0.950 . S
H798 C806 0.950 . S
H799 C808 0.950 . S
H800 C810 0.950 . S
H801 C812 0.950 . S
H802 C814 0.950 . S
H803 C815 0.950 . S
C804 H796 0.950 1_565 S
C804 C805 1.386 . S
C804 C806 1.391 . S
C805 C804 1.386 . S
C805 C809 1.393 . S
C806 H798 0.950 . S
C806 C804 1.391 . S
C806 C807 1.400 . S
C807 C806 1.400 . S
C807 C808 1.398 . S
C807 C813 1.491 . S
C808 H799 0.950 . S
C808 C807 1.398 . S
C808 C809 1.391 . S
C809 H797 0.950 . S
C809 C805 1.393 . S
C809 C808 1.391 . S
C810 H800 0.950 . S
C810 C811 1.386 . S
C810 C812 1.391 . S
C811 C810 1.386 . S
C811 C815 1.393 . S
C812 H801 0.950 . S
C812 C810 1.391 . S
C812 C813 1.400 . S
C813 C807 1.491 . S
C813 C812 1.400 . S
C813 C814 1.398 . S
C814 H802 0.950 . S
C814 C813 1.398 . S
C814 C815 1.391 . S
C815 H803 0.950 . S
C815 C811 1.393 . S
C815 C814 1.391 . S
H816 C824 0.950 . S
H817 C829 0.950 . S
H818 C826 0.950 . S
H819 C828 0.950 . S
H820 C830 0.950 . S
H821 C832 0.950 . S
H822 C834 0.950 . S
H823 C835 0.950 . S
C824 H816 0.950 . S
C824 C825 1.386 . S
C824 C826 1.391 . S
C825 C824 1.386 . S
C825 C829 1.393 . S
C826 H818 0.950 . S
C826 C824 1.391 . S
C826 C827 1.400 . S
C827 C826 1.400 . S
C827 C828 1.398 . S
C827 C833 1.491 . S
C828 H819 0.950 . S
C828 C827 1.398 . S
C828 C829 1.391 . S
C829 H817 0.950 . S
C829 C825 1.393 . S
C829 C828 1.391 . S
C830 H820 0.950 . S
C830 C831 1.386 . S
C830 C832 1.391 . S
C831 C830 1.386 . S
C831 C835 1.393 1_545 S
C832 H821 0.950 . S
C832 C830 1.391 . S
C832 C833 1.400 . S
C833 C827 1.491 . S
C833 C832 1.400 . S
C833 C834 1.398 . S
C834 H822 0.950 . S
C834 C833 1.398 . S
C834 C835 1.391 1_545 S
C835 H823 0.950 . S
C835 C831 1.393 1_565 S
C835 C834 1.391 1_565 S
H836 C844 0.950 . S
H837 C849 0.950 . S
H838 C846 0.950 . S
H839 C848 0.950 . S
H840 C850 0.950 . S
H841 C852 0.950 . S
H842 C854 0.950 . S
H843 C855 0.950 . S
C844 H836 0.950 . S
C844 C845 1.386 . S
C844 C846 1.391 . S
C845 C844 1.386 . S
C845 C849 1.393 1_565 S
C846 H838 0.950 . S
C846 C844 1.391 . S
C846 C847 1.400 . S
C847 C846 1.400 . S
C847 C848 1.398 . S
C847 C853 1.491 . S
C848 H839 0.950 . S
C848 C847 1.398 . S
C848 C849 1.391 1_565 S
C849 H837 0.950 . S
C849 C845 1.393 1_545 S
C849 C848 1.391 1_545 S
C850 H840 0.950 . S
C850 C851 1.386 . S
C850 C852 1.391 . S
C851 C850 1.386 . S
C851 C855 1.393 . S
C852 H841 0.950 . S
C852 C850 1.391 . S
C852 C853 1.400 . S
C853 C847 1.491 . S
C853 C852 1.400 . S
C853 C854 1.398 . S
C854 H842 0.950 . S
C854 C853 1.398 . S
C854 C855 1.391 . S
C855 H843 0.950 . S
C855 C851 1.393 . S
C855 C854 1.391 . S
H856 C864 0.950 . S
H857 C869 0.950 . S
H858 C866 0.950 . S
H859 C868 0.950 . S
H860 C870 0.950 . S
H861 C872 0.950 . S
H862 C874 0.950 . S
H863 C875 0.950 . S
C864 H856 0.950 . S
C864 C865 1.386 . S
C864 C866 1.391 . S
C865 C864 1.386 . S
C865 C869 1.393 . S
C866 H858 0.950 . S
C866 C864 1.391 . S
C866 C867 1.400 . S
C867 C866 1.400 . S
C867 C868 1.398 . S
C867 C873 1.491 . S
C868 H859 0.950 . S
C868 C867 1.398 . S
C868 C869 1.391 . S
C869 H857 0.950 . S
C869 C865 1.393 . S
C869 C868 1.391 . S
C870 H860 0.950 . S
C870 C871 1.386 . S
C870 C872 1.391 . S
C871 C870 1.386 . S
C871 C875 1.393 1_565 S
C872 H861 0.950 . S
C872 C870 1.391 . S
C872 C873 1.400 . S
C873 C867 1.491 . S
C873 C872 1.400 . S
C873 C874 1.398 . S
C874 H862 0.950 . S
C874 C873 1.398 . S
C874 C875 1.391 1_565 S
C875 H863 0.950 . S
C875 C871 1.393 1_545 S
C875 C874 1.391 1_545 S
H876 C884 0.950 . S
H877 C889 0.950 . S
H878 C886 0.950 . S
H879 C888 0.950 . S
H880 C890 0.950 . S
H881 C892 0.950 . S
H882 C894 0.950 . S
H883 C895 0.950 . S
C884 H876 0.950 . S
C884 C885 1.386 . S
C884 C886 1.391 . S
C885 C884 1.386 . S
C885 C889 1.393 . S
C886 H878 0.950 . S
C886 C884 1.391 . S
C886 C887 1.400 . S
C887 C886 1.400 . S
C887 C888 1.398 . S
C887 C893 1.491 . S
C888 H879 0.950 . S
C888 C887 1.398 . S
C888 C889 1.391 . S
C889 H877 0.950 . S
C889 C885 1.393 . S
C889 C888 1.391 . S
C890 H880 0.950 . S
C890 C891 1.386 . S
C890 C892 1.391 . S
C891 C890 1.386 . S
C891 C895 1.393 . S
C892 H881 0.950 . S
C892 C890 1.391 . S
C892 C893 1.400 . S
C893 C887 1.491 . S
C893 C892 1.400 . S
C893 C894 1.398 . S
C894 H882 0.950 . S
C894 C893 1.398 . S
C894 C895 1.391 . S
C895 H883 0.950 . S
C895 C891 1.393 . S
C895 C894 1.391 . S
H896 C904 0.950 . S
H897 C909 0.950 . S
H898 C906 0.950 . S
H899 C908 0.950 . S
H900 C910 0.950 . S
H901 C912 0.950 . S
H902 C914 0.950 . S
H903 C915 0.950 . S
C904 H896 0.950 . S
C904 C905 1.386 . S
C904 C906 1.391 . S
C905 C904 1.386 . S
C905 C909 1.393 . S
C906 H898 0.950 . S
C906 C904 1.391 . S
C906 C907 1.400 . S
C907 C906 1.400 . S
C907 C908 1.398 . S
C907 C913 1.491 . S
C908 H899 0.950 . S
C908 C907 1.398 . S
C908 C909 1.391 . S
C909 H897 0.950 . S
C909 C905 1.393 . S
C909 C908 1.391 . S
C910 H900 0.950 . S
C910 C911 1.386 . S
C910 C912 1.391 . S
C911 C910 1.386 . S
C911 C915 1.393 . S
C912 H901 0.950 . S
C912 C910 1.391 . S
C912 C913 1.400 . S
C913 C907 1.491 . S
C913 C912 1.400 . S
C913 C914 1.398 . S
C914 H902 0.950 . S
C914 C913 1.398 . S
C914 C915 1.391 . S
C915 H903 0.950 . S
C915 C911 1.393 . S
C915 C914 1.391 . S
H916 C924 0.950 . S
H917 C929 0.950 . S
H918 C926 0.950 . S
H919 C928 0.950 . S
H920 C930 0.950 . S
H921 C932 0.950 . S
H922 C934 0.950 . S
H923 C935 0.950 . S
C924 H916 0.950 . S
C924 C925 1.386 . S
C924 C926 1.391 . S
C925 C924 1.386 . S
C925 C929 1.393 . S
C926 H918 0.950 . S
C926 C924 1.391 . S
C926 C927 1.400 . S
C927 C926 1.400 . S
C927 C928 1.398 . S
C927 C933 1.491 . S
C928 H919 0.950 . S
C928 C927 1.398 . S
C928 C929 1.391 . S
C929 H917 0.950 . S
C929 C925 1.393 . S
C929 C928 1.391 . S
C930 H920 0.950 . S
C930 C931 1.386 . S
C930 C932 1.391 . S
C931 C930 1.386 . S
C931 C935 1.393 . S
C932 H921 0.950 . S
C932 C930 1.391 . S
C932 C933 1.400 . S
C933 C927 1.491 . S
C933 C932 1.400 . S
C933 C934 1.398 . S
C934 H922 0.950 . S
C934 C933 1.398 . S
C934 C935 1.391 . S
C935 H923 0.950 . S
C935 C931 1.393 . S
C935 C934 1.391 . S
H936 C944 0.950 . S
H937 C949 0.950 . S
H938 C946 0.950 . S
H939 C948 0.950 . S
H940 C950 0.950 . S
H941 C952 0.950 . S
H942 C954 0.950 . S
H943 C955 0.950 . S
C944 H936 0.950 . S
C944 C945 1.386 . S
C944 C946 1.391 . S
C945 C944 1.386 . S
C945 C949 1.393 . S
C946 H938 0.950 . S
C946 C944 1.391 . S
C946 C947 1.400 . S
C947 C946 1.400 . S
C947 C948 1.398 . S
C947 C953 1.491 . S
C948 H939 0.950 . S
C948 C947 1.398 . S
C948 C949 1.391 . S
C949 H937 0.950 . S
C949 C945 1.393 . S
C949 C948 1.391 . S
C950 H940 0.950 . S
C950 C951 1.386 . S
C950 C952 1.391 . S
C951 C950 1.386 . S
C951 C955 1.393 . S
C952 H941 0.950 . S
C952 C950 1.391 . S
C952 C953 1.400 . S
C953 C947 1.491 . S
C953 C952 1.400 . S
C953 C954 1.398 . S
C954 H942 0.950 . S
C954 C953 1.398 . S
C954 C955 1.391 . S
C955 H943 0.950 . S
C955 C951 1.393 . S
C955 C954 1.391 . S
H956 C964 0.950 . S
H957 C969 0.950 . S
H958 C966 0.950 . S
H959 C968 0.950 . S
H960 C970 0.950 . S
H961 C972 0.950 . S
H962 C974 0.950 . S
H963 C975 0.950 . S
C964 H956 0.950 . S
C964 C965 1.386 . S
C964 C966 1.391 . S
C965 C964 1.386 . S
C965 C969 1.393 . S
C966 H958 0.950 . S
C966 C964 1.391 . S
C966 C967 1.400 . S
C967 C966 1.400 . S
C967 C968 1.398 . S
C967 C973 1.491 . S
C968 H959 0.950 . S
C968 C967 1.398 . S
C968 C969 1.391 . S
C969 H957 0.950 . S
C969 C965 1.393 . S
C969 C968 1.391 . S
C970 H960 0.950 . S
C970 C971 1.386 . S
C970 C972 1.391 . S
C971 C970 1.386 . S
C971 C975 1.393 . S
C972 H961 0.950 . S
C972 C970 1.391 . S
C972 C973 1.400 . S
C973 C967 1.491 . S
C973 C972 1.400 . S
C973 C974 1.398 . S
C974 H962 0.950 . S
C974 C973 1.398 . S
C974 C975 1.391 . S
C975 H963 0.950 . S
C975 C971 1.393 . S
C975 C974 1.391 . S
H976 C984 0.950 . S
H977 C989 0.950 . S
H978 C986 0.950 . S
H979 C988 0.950 . S
H980 C990 0.950 . S
H981 C992 0.950 . S
H982 C994 0.950 . S
H983 C995 0.950 . S
C984 H976 0.950 . S
C984 C985 1.386 . S
C984 C986 1.391 . S
C985 C984 1.386 . S
C985 C989 1.393 . S
C986 H978 0.950 . S
C986 C984 1.391 . S
C986 C987 1.400 . S
C987 C986 1.400 . S
C987 C988 1.398 . S
C987 C993 1.491 . S
C988 H979 0.950 . S
C988 C987 1.398 . S
C988 C989 1.391 . S
C989 H977 0.950 . S
C989 C985 1.393 . S
C989 C988 1.391 . S
C990 H980 0.950 . S
C990 C991 1.386 . S
C990 C992 1.391 . S
C991 C990 1.386 . S
C991 C995 1.393 . S
C992 H981 0.950 . S
C992 C990 1.391 . S
C992 C993 1.400 . S
C993 C987 1.491 . S
C993 C992 1.400 . S
C993 C994 1.398 . S
C994 H982 0.950 . S
C994 C993 1.398 . S
C994 C995 1.391 . S
C995 H983 0.950 . S
C995 C991 1.393 . S
C995 C994 1.391 . S
H996 C1004 0.950 . S
H997 C1009 0.950 . S
H998 C1006 0.950 . S
H999 C1008 0.950 . S
H1000 C1010 0.950 . S
H1001 C1012 0.950 . S
H1002 C1014 0.950 . S
H1003 C1015 0.950 . S
C1004 H996 0.950 . S
C1004 C1005 1.386 . S
C1004 C1006 1.391 . S
C1005 C1004 1.386 . S
C1005 C1009 1.393 . S
C1006 H998 0.950 . S
C1006 C1004 1.391 . S
C1006 C1007 1.400 . S
C1007 C1006 1.400 . S
C1007 C1008 1.398 . S
C1007 C1013 1.491 . S
C1008 H999 0.950 . S
C1008 C1007 1.398 . S
C1008 C1009 1.391 . S
C1009 H997 0.950 . S
C1009 C1005 1.393 . S
C1009 C1008 1.391 . S
C1010 H1000 0.950 . S
C1010 C1011 1.386 . S
C1010 C1012 1.391 . S
C1011 C1010 1.386 . S
C1011 C1015 1.393 . S
C1012 H1001 0.950 . S
C1012 C1010 1.391 . S
C1012 C1013 1.400 . S
C1013 C1007 1.491 . S
C1013 C1012 1.400 . S
C1013 C1014 1.398 . S
C1014 H1002 0.950 . S
C1014 C1013 1.398 . S
C1014 C1015 1.391 . S
C1015 H1003 0.950 . S
C1015 C1011 1.393 . S
C1015 C1014 1.391 . S
H1016 C1024 0.950 . S
H1017 C1029 0.950 . S
H1018 C1026 0.950 . S
H1019 C1028 0.950 . S
H1020 C1030 0.950 . S
H1021 C1032 0.950 . S
H1022 C1034 0.950 . S
H1023 C1035 0.950 . S
C1024 H1016 0.950 . S
C1024 C1025 1.386 . S
C1024 C1026 1.391 . S
C1025 C1024 1.386 . S
C1025 C1029 1.393 . S
C1026 H1018 0.950 . S
C1026 C1024 1.391 . S
C1026 C1027 1.400 . S
C1027 C1026 1.400 . S
C1027 C1028 1.398 . S
C1027 C1033 1.491 . S
C1028 H1019 0.950 . S
C1028 C1027 1.398 . S
C1028 C1029 1.391 . S
C1029 H1017 0.950 . S
C1029 C1025 1.393 . S
C1029 C1028 1.391 . S
C1030 H1020 0.950 . S
C1030 C1031 1.386 . S
C1030 C1032 1.391 . S
C1031 C1030 1.386 . S
C1031 C1035 1.393 . S
C1032 H1021 0.950 . S
C1032 C1030 1.391 . S
C1032 C1033 1.400 . S
C1033 C1027 1.491 . S
C1033 C1032 1.400 . S
C1033 C1034 1.398 . S
C1034 H1022 0.950 . S
C1034 C1033 1.398 . S
C1034 C1035 1.391 . S
C1035 H1023 0.950 . S
C1035 C1031 1.393 . S
C1035 C1034 1.391 . S
H1036 C1044 0.950 . S
H1037 C1049 0.950 . S
H1038 C1046 0.950 . S
H1039 C1048 0.950 . S
H1040 C1050 0.950 . S
H1041 C1052 0.950 . S
H1042 C1054 0.950 . S
H1043 C1055 0.950 . S
C1044 H1036 0.950 . S
C1044 C1045 1.386 . S
C1044 C1046 1.391 . S
C1045 C1044 1.386 . S
C1045 C1049 1.393 . S
C1046 H1038 0.950 . S
C1046 C1044 1.391 . S
C1046 C1047 1.400 . S
C1047 C1046 1.400 . S
C1047 C1048 1.398 . S
C1047 C1053 1.491 . S
C1048 H1039 0.950 . S
C1048 C1047 1.398 . S
C1048 C1049 1.391 . S
C1049 H1037 0.950 . S
C1049 C1045 1.393 . S
C1049 C1048 1.391 . S
C1050 H1040 0.950 . S
C1050 C1051 1.386 . S
C1050 C1052 1.391 . S
C1051 C1050 1.386 . S
C1051 C1055 1.393 . S
C1052 H1041 0.950 . S
C1052 C1050 1.391 . S
C1052 C1053 1.400 . S
C1053 C1047 1.491 . S
C1053 C1052 1.400 . S
C1053 C1054 1.398 . S
C1054 H1042 0.950 . S
C1054 C1053 1.398 . S
C1054 C1055 1.391 . S
C1055 H1043 0.950 . S
C1055 C1051 1.393 . S
C1055 C1054 1.391 . S
H1056 C1064 0.950 . S
H1057 C1069 0.950 . S
H1058 C1066 0.950 . S
H1059 C1068 0.950 . S
H1060 C1070 0.950 . S
H1061 C1072 0.950 . S
H1062 C1074 0.950 . S
H1063 C1075 0.950 . S
C1064 H1056 0.950 . S
C1064 C1065 1.386 . S
C1064 C1066 1.391 . S
C1065 C1064 1.386 . S
C1065 C1069 1.393 . S
C1066 H1058 0.950 . S
C1066 C1064 1.391 . S
C1066 C1067 1.400 . S
C1067 C1066 1.400 . S
C1067 C1068 1.398 . S
C1067 C1073 1.491 . S
C1068 H1059 0.950 . S
C1068 C1067 1.398 . S
C1068 C1069 1.391 . S
C1069 H1057 0.950 . S
C1069 C1065 1.393 . S
C1069 C1068 1.391 . S
C1070 H1060 0.950 . S
C1070 C1071 1.386 . S
C1070 C1072 1.391 . S
C1071 C1070 1.386 . S
C1071 C1075 1.393 . S
C1072 H1061 0.950 . S
C1072 C1070 1.391 . S
C1072 C1073 1.400 . S
C1073 C1067 1.491 . S
C1073 C1072 1.400 . S
C1073 C1074 1.398 . S
C1074 H1062 0.950 . S
C1074 C1073 1.398 . S
C1074 C1075 1.391 . S
C1075 H1063 0.950 . S
C1075 C1071 1.393 . S
C1075 C1074 1.391 . S
H1076 C1084 0.950 . S
H1077 C1089 0.950 . S
H1078 C1086 0.950 . S
H1079 C1088 0.950 . S
H1080 C1090 0.950 . S
H1081 C1092 0.950 . S
H1082 C1094 0.950 . S
H1083 C1095 0.950 . S
C1084 H1076 0.950 . S
C1084 C1085 1.386 . S
C1084 C1086 1.391 . S
C1085 C1084 1.386 . S
C1085 C1089 1.393 . S
C1086 H1078 0.950 . S
C1086 C1084 1.391 . S
C1086 C1087 1.400 . S
C1087 C1086 1.400 . S
C1087 C1088 1.398 . S
C1087 C1093 1.491 . S
C1088 H1079 0.950 . S
C1088 C1087 1.398 . S
C1088 C1089 1.391 . S
C1089 H1077 0.950 . S
C1089 C1085 1.393 . S
C1089 C1088 1.391 . S
C1090 H1080 0.950 . S
C1090 C1091 1.386 . S
C1090 C1092 1.391 1_655 S
C1091 C1090 1.386 . S
C1091 C1095 1.393 1_655 S
C1092 H1081 0.950 . S
C1092 C1090 1.391 1_455 S
C1092 C1093 1.400 . S
C1093 C1087 1.491 . S
C1093 C1092 1.400 . S
C1093 C1094 1.398 . S
C1094 H1082 0.950 . S
C1094 C1093 1.398 . S
C1094 C1095 1.391 . S
C1095 H1083 0.950 . S
C1095 C1091 1.393 1_455 S
C1095 C1094 1.391 . S
H1096 C1104 0.950 . S
H1097 C1109 0.950 . S
H1098 C1106 0.950 . S
H1099 C1108 0.950 . S
H1100 C1110 0.950 . S
H1101 C1112 0.950 . S
H1102 C1114 0.950 . S
H1103 C1115 0.950 . S
C1104 H1096 0.950 . S
C1104 C1105 1.386 . S
C1104 C1106 1.391 . S
C1105 C1104 1.386 . S
C1105 C1109 1.393 . S
C1106 H1098 0.950 . S
C1106 C1104 1.391 . S
C1106 C1107 1.400 . S
C1107 C1106 1.400 . S
C1107 C1108 1.398 . S
C1107 C1113 1.491 . S
C1108 H1099 0.950 . S
C1108 C1107 1.398 . S
C1108 C1109 1.391 . S
C1109 H1097 0.950 . S
C1109 C1105 1.393 . S
C1109 C1108 1.391 . S
C1110 H1100 0.950 . S
C1110 C1111 1.386 . S
C1110 C1112 1.391 . S
C1111 C1110 1.386 . S
C1111 C1115 1.393 . S
C1112 H1101 0.950 . S
C1112 C1110 1.391 . S
C1112 C1113 1.400 . S
C1113 C1107 1.491 . S
C1113 C1112 1.400 . S
C1113 C1114 1.398 . S
C1114 H1102 0.950 . S
C1114 C1113 1.398 . S
C1114 C1115 1.391 . S
C1115 H1103 0.950 . S
C1115 C1111 1.393 . S
C1115 C1114 1.391 . S
H1116 C1124 0.950 . S
H1117 C1129 0.950 . S
H1118 C1126 0.950 . S
H1119 C1128 0.950 . S
H1120 C1130 0.950 . S
H1121 C1132 0.950 . S
H1122 C1134 0.950 . S
H1123 C1135 0.950 . S
C1124 H1116 0.950 . S
C1124 C1125 1.386 . S
C1124 C1126 1.391 . S
C1125 C1124 1.386 . S
C1125 C1129 1.393 . S
C1126 H1118 0.950 . S
C1126 C1124 1.391 . S
C1126 C1127 1.400 . S
C1127 C1126 1.400 . S
C1127 C1128 1.398 . S
C1127 C1133 1.491 . S
C1128 H1119 0.950 . S
C1128 C1127 1.398 . S
C1128 C1129 1.391 . S
C1129 H1117 0.950 . S
C1129 C1125 1.393 . S
C1129 C1128 1.391 . S
C1130 H1120 0.950 . S
C1130 C1131 1.386 . S
C1130 C1132 1.391 . S
C1131 C1130 1.386 . S
C1131 C1135 1.393 . S
C1132 H1121 0.950 . S
C1132 C1130 1.391 . S
C1132 C1133 1.400 . S
C1133 C1127 1.491 . S
C1133 C1132 1.400 . S
C1133 C1134 1.398 . S
C1134 H1122 0.950 . S
C1134 C1133 1.398 . S
C1134 C1135 1.391 . S
C1135 H1123 0.950 . S
C1135 C1131 1.393 . S
C1135 C1134 1.391 . S
H1136 C1144 0.950 . S
H1137 C1149 0.950 . S
H1138 C1146 0.950 . S
H1139 C1148 0.950 . S
H1140 C1150 0.950 . S
H1141 C1152 0.950 . S
H1142 C1154 0.950 . S
H1143 C1155 0.950 . S
C1144 H1136 0.950 . S
C1144 C1145 1.386 . S
C1144 C1146 1.391 . S
C1145 C1144 1.386 . S
C1145 C1149 1.393 . S
C1146 H1138 0.950 . S
C1146 C1144 1.391 . S
C1146 C1147 1.400 . S
C1147 C1146 1.400 . S
C1147 C1148 1.398 . S
C1147 C1153 1.491 . S
C1148 H1139 0.950 . S
C1148 C1147 1.398 . S
C1148 C1149 1.391 . S
C1149 H1137 0.950 . S
C1149 C1145 1.393 . S
C1149 C1148 1.391 . S
C1150 H1140 0.950 . S
C1150 C1151 1.386 . S
C1150 C1152 1.391 . S
C1151 C1150 1.386 . S
C1151 C1155 1.393 . S
C1152 H1141 0.950 . S
C1152 C1150 1.391 . S
C1152 C1153 1.400 . S
C1153 C1147 1.491 . S
C1153 C1152 1.400 . S
C1153 C1154 1.398 . S
C1154 H1142 0.950 . S
C1154 C1153 1.398 . S
C1154 C1155 1.391 . S
C1155 H1143 0.950 . S
C1155 C1151 1.393 . S
C1155 C1154 1.391 . S
H1156 C1164 0.950 . S
H1157 C1169 0.950 . S
H1158 C1166 0.950 . S
H1159 C1168 0.950 . S
H1160 C1170 0.950 . S
H1161 C1172 0.950 . S
H1162 C1174 0.950 . S
H1163 C1175 0.950 . S
C1164 H1156 0.950 . S
C1164 C1165 1.386 . S
C1164 C1166 1.391 . S
C1165 C1164 1.386 . S
C1165 C1169 1.393 . S
C1166 H1158 0.950 . S
C1166 C1164 1.391 . S
C1166 C1167 1.400 . S
C1167 C1166 1.400 . S
C1167 C1168 1.398 . S
C1167 C1173 1.491 . S
C1168 H1159 0.950 . S
C1168 C1167 1.398 . S
C1168 C1169 1.391 . S
C1169 H1157 0.950 . S
C1169 C1165 1.393 . S
C1169 C1168 1.391 . S
C1170 H1160 0.950 . S
C1170 C1171 1.386 . S
C1170 C1172 1.391 . S
C1171 C1170 1.386 . S
C1171 C1175 1.393 . S
C1172 H1161 0.950 . S
C1172 C1170 1.391 . S
C1172 C1173 1.400 . S
C1173 C1167 1.491 . S
C1173 C1172 1.400 . S
C1173 C1174 1.398 . S
C1174 H1162 0.950 . S
C1174 C1173 1.398 . S
C1174 C1175 1.391 . S
C1175 H1163 0.950 . S
C1175 C1171 1.393 . S
C1175 C1174 1.391 . S
H1176 C1184 0.950 . S
H1177 C1189 0.950 . S
H1178 C1186 0.950 . S
H1179 C1188 0.950 . S
H1180 C1190 0.950 . S
H1181 C1192 0.950 . S
H1182 C1194 0.950 . S
H1183 C1195 0.950 . S
C1184 H1176 0.950 . S
C1184 C1185 1.386 . S
C1184 C1186 1.391 . S
C1185 C1184 1.386 . S
C1185 C1189 1.393 . S
C1186 H1178 0.950 . S
C1186 C1184 1.391 . S
C1186 C1187 1.400 . S
C1187 C1186 1.400 . S
C1187 C1188 1.398 . S
C1187 C1193 1.491 . S
C1188 H1179 0.950 . S
C1188 C1187 1.398 . S
C1188 C1189 1.391 . S
C1189 H1177 0.950 . S
C1189 C1185 1.393 . S
C1189 C1188 1.391 . S
C1190 H1180 0.950 . S
C1190 C1191 1.386 . S
C1190 C1192 1.391 . S
C1191 C1190 1.386 . S
C1191 C1195 1.393 . S
C1192 H1181 0.950 . S
C1192 C1190 1.391 . S
C1192 C1193 1.400 . S
C1193 C1187 1.491 . S
C1193 C1192 1.400 . S
C1193 C1194 1.398 . S
C1194 H1182 0.950 . S
C1194 C1193 1.398 . S
C1194 C1195 1.391 . S
C1195 H1183 0.950 . S
C1195 C1191 1.393 . S
C1195 C1194 1.391 . S
H1196 C1204 0.950 . S
H1197 C1209 0.950 . S
H1198 C1206 0.950 . S
H1199 C1208 0.950 . S
H1200 C1210 0.950 . S
H1201 C1212 0.950 . S
H1202 C1214 0.950 . S
H1203 C1215 0.950 . S
C1204 H1196 0.950 . S
C1204 C1205 1.386 . S
C1204 C1206 1.391 . S
C1205 C1204 1.386 . S
C1205 C1209 1.393 . S
C1206 H1198 0.950 . S
C1206 C1204 1.391 . S
C1206 C1207 1.400 . S
C1207 C1206 1.400 . S
C1207 C1208 1.398 . S
C1207 C1213 1.491 . S
C1208 H1199 0.950 . S
C1208 C1207 1.398 . S
C1208 C1209 1.391 . S
C1209 H1197 0.950 . S
C1209 C1205 1.393 . S
C1209 C1208 1.391 . S
C1210 H1200 0.950 . S
C1210 C1211 1.386 . S
C1210 C1212 1.391 1_655 S
C1211 C1210 1.386 . S
C1211 C1215 1.393 1_655 S
C1212 H1201 0.950 . S
C1212 C1210 1.391 1_455 S
C1212 C1213 1.400 . S
C1213 C1207 1.491 . S
C1213 C1212 1.400 . S
C1213 C1214 1.398 . S
C1214 H1202 0.950 . S
C1214 C1213 1.398 . S
C1214 C1215 1.391 . S
C1215 H1203 0.950 . S
C1215 C1211 1.393 1_455 S
C1215 C1214 1.391 . S
H1216 C1224 0.950 . S
H1217 C1229 0.950 . S
H1218 C1226 0.950 . S
H1219 C1228 0.950 . S
H1220 C1230 0.950 . S
H1221 C1232 0.950 . S
H1222 C1234 0.950 . S
H1223 C1235 0.950 . S
C1224 H1216 0.950 . S
C1224 C1225 1.386 . S
C1224 C1226 1.391 . S
C1225 C1224 1.386 . S
C1225 C1229 1.393 . S
C1226 H1218 0.950 . S
C1226 C1224 1.391 . S
C1226 C1227 1.400 . S
C1227 C1226 1.400 . S
C1227 C1228 1.398 . S
C1227 C1233 1.491 . S
C1228 H1219 0.950 . S
C1228 C1227 1.398 . S
C1228 C1229 1.391 . S
C1229 H1217 0.950 . S
C1229 C1225 1.393 . S
C1229 C1228 1.391 . S
C1230 H1220 0.950 . S
C1230 C1231 1.386 . S
C1230 C1232 1.391 . S
C1231 C1230 1.386 . S
C1231 C1235 1.393 . S
C1232 H1221 0.950 . S
C1232 C1230 1.391 . S
C1232 C1233 1.400 . S
C1233 C1227 1.491 . S
C1233 C1232 1.400 . S
C1233 C1234 1.398 . S
C1234 H1222 0.950 . S
C1234 C1233 1.398 . S
C1234 C1235 1.391 . S
C1235 H1223 0.950 . S
C1235 C1231 1.393 . S
C1235 C1234 1.391 . S
H1236 C1244 0.950 . S
H1237 C1249 0.950 . S
H1238 C1246 0.950 . S
H1239 C1248 0.950 . S
H1240 C1250 0.950 . S
H1241 C1252 0.950 . S
H1242 C1254 0.950 . S
H1243 C1255 0.950 . S
C1244 H1236 0.950 . S
C1244 C1245 1.386 . S
C1244 C1246 1.391 1_455 S
C1245 C1244 1.386 . S
C1245 C1249 1.393 1_455 S
C1246 H1238 0.950 . S
C1246 C1244 1.391 1_655 S
C1246 C1247 1.400 . S
C1247 C1246 1.400 . S
C1247 C1248 1.398 . S
C1247 C1253 1.491 . S
C1248 H1239 0.950 . S
C1248 C1247 1.398 . S
C1248 C1249 1.391 . S
C1249 H1237 0.950 . S
C1249 C1245 1.393 1_655 S
C1249 C1248 1.391 . S
C1250 H1240 0.950 . S
C1250 C1251 1.386 . S
C1250 C1252 1.391 . S
C1251 C1250 1.386 . S
C1251 C1255 1.393 . S
C1252 H1241 0.950 . S
C1252 C1250 1.391 . S
C1252 C1253 1.400 . S
C1253 C1247 1.491 . S
C1253 C1252 1.400 . S
C1253 C1254 1.398 . S
C1254 H1242 0.950 . S
C1254 C1253 1.398 . S
C1254 C1255 1.391 . S
C1255 H1243 0.950 . S
C1255 C1251 1.393 . S
C1255 C1254 1.391 . S
H1256 C1264 0.950 . S
H1257 C1269 0.950 . S
H1258 C1266 0.950 . S
H1259 C1268 0.950 . S
H1260 C1270 0.950 . S
H1261 C1272 0.950 . S
H1262 C1274 0.950 . S
H1263 C1275 0.950 . S
C1264 H1256 0.950 . S
C1264 C1265 1.386 . S
C1264 C1266 1.391 . S
C1265 C1264 1.386 . S
C1265 C1269 1.393 . S
C1266 H1258 0.950 . S
C1266 C1264 1.391 . S
C1266 C1267 1.400 . S
C1267 C1266 1.400 . S
C1267 C1268 1.398 . S
C1267 C1273 1.491 . S
C1268 H1259 0.950 . S
C1268 C1267 1.398 . S
C1268 C1269 1.391 . S
C1269 H1257 0.950 . S
C1269 C1265 1.393 . S
C1269 C1268 1.391 . S
C1270 H1260 0.950 . S
C1270 C1271 1.386 . S
C1270 C1272 1.391 . S
C1271 C1270 1.386 . S
C1271 C1275 1.393 . S
C1272 H1261 0.950 . S
C1272 C1270 1.391 . S
C1272 C1273 1.400 . S
C1273 C1267 1.491 . S
C1273 C1272 1.400 . S
C1273 C1274 1.398 . S
C1274 H1262 0.950 . S
C1274 C1273 1.398 . S
C1274 C1275 1.391 . S
C1275 H1263 0.950 . S
C1275 C1271 1.393 . S
C1275 C1274 1.391 . S
H1276 C1284 0.950 . S
H1277 C1289 0.950 . S
H1278 C1286 0.950 . S
H1279 C1288 0.950 . S
H1280 C1290 0.950 . S
H1281 C1292 0.950 . S
H1282 C1294 0.950 . S
H1283 C1295 0.950 . S
C1284 H1276 0.950 . S
C1284 C1285 1.386 . S
C1284 C1286 1.391 . S
C1285 C1284 1.386 . S
C1285 C1289 1.393 . S
C1286 H1278 0.950 . S
C1286 C1284 1.391 . S
C1286 C1287 1.400 . S
C1287 C1286 1.400 . S
C1287 C1288 1.398 . S
C1287 C1293 1.491 . S
C1288 H1279 0.950 . S
C1288 C1287 1.398 . S
C1288 C1289 1.391 . S
C1289 H1277 0.950 . S
C1289 C1285 1.393 . S
C1289 C1288 1.391 . S
C1290 H1280 0.950 . S
C1290 C1291 1.386 . S
C1290 C1292 1.391 . S
C1291 C1290 1.386 . S
C1291 C1295 1.393 . S
C1292 H1281 0.950 . S
C1292 C1290 1.391 . S
C1292 C1293 1.400 . S
C1293 C1287 1.491 . S
C1293 C1292 1.400 . S
C1293 C1294 1.398 . S
C1294 H1282 0.950 . S
C1294 C1293 1.398 . S
C1294 C1295 1.391 . S
C1295 H1283 0.950 . S
C1295 C1291 1.393 . S
C1295 C1294 1.391 . S
H1296 C1304 0.950 . S
H1297 C1309 0.950 . S
H1298 C1306 0.950 . S
H1299 C1308 0.950 . S
H1300 C1310 0.950 . S
H1301 C1312 0.950 . S
H1302 C1314 0.950 . S
H1303 C1315 0.950 . S
C1304 H1296 0.950 . S
C1304 C1305 1.386 . S
C1304 C1306 1.391 . S
C1305 C1304 1.386 . S
C1305 C1309 1.393 . S
C1306 H1298 0.950 . S
C1306 C1304 1.391 . S
C1306 C1307 1.400 . S
C1307 C1306 1.400 . S
C1307 C1308 1.398 . S
C1307 C1313 1.491 . S
C1308 H1299 0.950 . S
C1308 C1307 1.398 . S
C1308 C1309 1.391 . S
C1309 H1297 0.950 . S
C1309 C1305 1.393 . S
C1309 C1308 1.391 . S
C1310 H1300 0.950 . S
C1310 C1311 1.386 . S
C1310 C1312 1.391 . S
C1311 C1310 1.386 . S
C1311 C1315 1.393 . S
C1312 H1301 0.950 . S
C1312 C1310 1.391 . S
C1312 C1313 1.400 . S
C1313 C1307 1.491 . S
C1313 C1312 1.400 . S
C1313 C1314 1.398 . S
C1314 H1302 0.950 . S
C1314 C1313 1.398 . S
C1314 C1315 1.391 . S
C1315 H1303 0.950 . S
C1315 C1311 1.393 . S
C1315 C1314 1.391 . S
H1316 C1324 0.950 . S
H1317 C1329 0.950 . S
H1318 C1326 0.950 . S
H1319 C1328 0.950 . S
H1320 C1330 0.950 . S
H1321 C1332 0.950 . S
H1322 C1334 0.950 . S
H1323 C1335 0.950 . S
C1324 H1316 0.950 . S
C1324 C1325 1.386 . S
C1324 C1326 1.391 . S
C1325 C1324 1.386 . S
C1325 C1329 1.393 . S
C1326 H1318 0.950 . S
C1326 C1324 1.391 . S
C1326 C1327 1.400 . S
C1327 C1326 1.400 . S
C1327 C1328 1.398 . S
C1327 C1333 1.491 . S
C1328 H1319 0.950 . S
C1328 C1327 1.398 . S
C1328 C1329 1.391 . S
C1329 H1317 0.950 . S
C1329 C1325 1.393 . S
C1329 C1328 1.391 . S
C1330 H1320 0.950 . S
C1330 C1331 1.386 . S
C1330 C1332 1.391 . S
C1331 C1330 1.386 . S
C1331 C1335 1.393 . S
C1332 H1321 0.950 . S
C1332 C1330 1.391 . S
C1332 C1333 1.400 . S
C1333 C1327 1.491 . S
C1333 C1332 1.400 . S
C1333 C1334 1.398 . S
C1334 H1322 0.950 . S
C1334 C1333 1.398 . S
C1334 C1335 1.391 . S
C1335 H1323 0.950 . S
C1335 C1331 1.393 . S
C1335 C1334 1.391 . S
H1336 C1344 0.950 . S
H1337 C1349 0.950 . S
H1338 C1346 0.950 . S
H1339 C1348 0.950 . S
H1340 C1350 0.950 . S
H1341 C1352 0.950 . S
H1342 C1354 0.950 . S
H1343 C1355 0.950 . S
C1344 H1336 0.950 . S
C1344 C1345 1.386 . S
C1344 C1346 1.391 . S
C1345 C1344 1.386 . S
C1345 C1349 1.393 . S
C1346 H1338 0.950 . S
C1346 C1344 1.391 . S
C1346 C1347 1.400 . S
C1347 C1346 1.400 . S
C1347 C1348 1.398 . S
C1347 C1353 1.491 . S
C1348 H1339 0.950 . S
C1348 C1347 1.398 . S
C1348 C1349 1.391 . S
C1349 H1337 0.950 . S
C1349 C1345 1.393 . S
C1349 C1348 1.391 . S
C1350 H1340 0.950 . S
C1350 C1351 1.386 . S
C1350 C1352 1.391 . S
C1351 C1350 1.386 . S
C1351 C1355 1.393 . S
C1352 H1341 0.950 . S
C1352 C1350 1.391 . S
C1352 C1353 1.400 . S
C1353 C1347 1.491 . S
C1353 C1352 1.400 . S
C1353 C1354 1.398 . S
C1354 H1342 0.950 . S
C1354 C1353 1.398 . S
C1354 C1355 1.391 . S
C1355 H1343 0.950 . S
C1355 C1351 1.393 . S
C1355 C1354 1.391 . S
H1356 C1364 0.950 . S
H1357 C1369 0.950 . S
H1358 C1366 0.950 . S
H1359 C1368 0.950 . S
H1360 C1370 0.950 . S
H1361 C1372 0.950 . S
H1362 C1374 0.950 . S
H1363 C1375 0.950 . S
C1364 H1356 0.950 . S
C1364 C1365 1.386 . S
C1364 C1366 1.391 1_455 S
C1365 C1364 1.386 . S
C1365 C1369 1.393 1_455 S
C1366 H1358 0.950 . S
C1366 C1364 1.391 1_655 S
C1366 C1367 1.400 . S
C1367 C1366 1.400 . S
C1367 C1368 1.398 . S
C1367 C1373 1.491 . S
C1368 H1359 0.950 . S
C1368 C1367 1.398 . S
C1368 C1369 1.391 . S
C1369 H1357 0.950 . S
C1369 C1365 1.393 1_655 S
C1369 C1368 1.391 . S
C1370 H1360 0.950 . S
C1370 C1371 1.386 . S
C1370 C1372 1.391 . S
C1371 C1370 1.386 . S
C1371 C1375 1.393 . S
C1372 H1361 0.950 . S
C1372 C1370 1.391 . S
C1372 C1373 1.400 . S
C1373 C1367 1.491 . S
C1373 C1372 1.400 . S
C1373 C1374 1.398 . S
C1374 H1362 0.950 . S
C1374 C1373 1.398 . S
C1374 C1375 1.391 . S
C1375 H1363 0.950 . S
C1375 C1371 1.393 . S
C1375 C1374 1.391 . S
H1376 C1384 0.950 . S
H1377 C1389 0.950 . S
H1378 C1386 0.950 . S
H1379 C1388 0.950 . S
H1380 C1390 0.950 . S
H1381 C1392 0.950 . S
H1382 C1394 0.950 . S
H1383 C1395 0.950 . S
C1384 H1376 0.950 . S
C1384 C1385 1.386 . S
C1384 C1386 1.391 . S
C1385 C1384 1.386 . S
C1385 C1389 1.393 . S
C1386 H1378 0.950 . S
C1386 C1384 1.391 . S
C1386 C1387 1.400 . S
C1387 C1386 1.400 . S
C1387 C1388 1.398 . S
C1387 C1393 1.491 . S
C1388 H1379 0.950 . S
C1388 C1387 1.398 . S
C1388 C1389 1.391 . S
C1389 H1377 0.950 . S
C1389 C1385 1.393 . S
C1389 C1388 1.391 . S
C1390 H1380 0.950 . S
C1390 C1391 1.386 . S
C1390 C1392 1.391 . S
C1391 C1390 1.386 . S
C1391 C1395 1.393 . S
C1392 H1381 0.950 . S
C1392 C1390 1.391 . S
C1392 C1393 1.400 . S
C1393 C1387 1.491 . S
C1393 C1392 1.400 . S
C1393 C1394 1.398 . S
C1394 H1382 0.950 . S
C1394 C1393 1.398 . S
C1394 C1395 1.391 . S
C1395 H1383 0.950 . S
C1395 C1391 1.393 . S
C1395 C1394 1.391 . S
H1396 C1404 0.950 . S
H1397 C1409 0.950 . S
H1398 C1406 0.950 . S
H1399 C1408 0.950 . S
H1400 C1410 0.950 . S
H1401 C1412 0.950 . S
H1402 C1414 0.950 . S
H1403 C1415 0.950 . S
C1404 H1396 0.950 . S
C1404 C1405 1.386 . S
C1404 C1406 1.391 . S
C1405 C1404 1.386 . S
C1405 C1409 1.393 . S
C1406 H1398 0.950 . S
C1406 C1404 1.391 . S
C1406 C1407 1.400 . S
C1407 C1406 1.400 . S
C1407 C1408 1.398 . S
C1407 C1413 1.491 . S
C1408 H1399 0.950 . S
C1408 C1407 1.398 . S
C1408 C1409 1.391 . S
C1409 H1397 0.950 . S
C1409 C1405 1.393 . S
C1409 C1408 1.391 . S
C1410 H1400 0.950 . S
C1410 C1411 1.386 . S
C1410 C1412 1.391 . S
C1411 C1410 1.386 . S
C1411 C1415 1.393 . S
C1412 H1401 0.950 . S
C1412 C1410 1.391 . S
C1412 C1413 1.400 . S
C1413 C1407 1.491 . S
C1413 C1412 1.400 . S
C1413 C1414 1.398 . S
C1414 H1402 0.950 . S
C1414 C1413 1.398 . S
C1414 C1415 1.391 . S
C1415 H1403 0.950 . S
C1415 C1411 1.393 . S
C1415 C1414 1.391 . S
H1416 C1424 0.950 . S
H1417 C1429 0.950 . S
H1418 C1426 0.950 . S
H1419 C1428 0.950 . S
H1420 C1430 0.950 . S
H1421 C1432 0.950 . S
H1422 C1434 0.950 . S
H1423 C1435 0.950 . S
C1424 H1416 0.950 . S
C1424 C1425 1.386 . S
C1424 C1426 1.391 . S
C1425 C1424 1.386 . S
C1425 C1429 1.393 . S
C1426 H1418 0.950 . S
C1426 C1424 1.391 . S
C1426 C1427 1.400 . S
C1427 C1426 1.400 . S
C1427 C1428 1.398 . S
C1427 C1433 1.491 . S
C1428 H1419 0.950 . S
C1428 C1427 1.398 . S
C1428 C1429 1.391 . S
C1429 H1417 0.950 . S
C1429 C1425 1.393 . S
C1429 C1428 1.391 . S
C1430 H1420 0.950 . S
C1430 C1431 1.386 . S
C1430 C1432 1.391 . S
C1431 C1430 1.386 . S
C1431 C1435 1.393 . S
C1432 H1421 0.950 . S
C1432 C1430 1.391 . S
C1432 C1433 1.400 . S
C1433 C1427 1.491 . S
C1433 C1432 1.400 . S
C1433 C1434 1.398 . S
C1434 H1422 0.950 . S
C1434 C1433 1.398 . S
C1434 C1435 1.391 . S
C1435 H1423 0.950 . S
C1435 C1431 1.393 . S
C1435 C1434 1.391 . S
H1436 C1444 0.950 . S
H1437 C1449 0.950 . S
H1438 C1446 0.950 . S
H1439 C1448 0.950 . S
H1440 C1450 0.950 . S
H1441 C1452 0.950 . S
H1442 C1454 0.950 . S
H1443 C1455 0.950 . S
C1444 H1436 0.950 . S
C1444 C1445 1.386 . S
C1444 C1446 1.391 . S
C1445 C1444 1.386 . S
C1445 C1449 1.393 . S
C1446 H1438 0.950 . S
C1446 C1444 1.391 . S
C1446 C1447 1.400 . S
C1447 C1446 1.400 . S
C1447 C1448 1.398 . S
C1447 C1453 1.491 . S
C1448 H1439 0.950 . S
C1448 C1447 1.398 . S
C1448 C1449 1.391 . S
C1449 H1437 0.950 . S
C1449 C1445 1.393 . S
C1449 C1448 1.391 . S
C1450 H1440 0.950 . S
C1450 C1451 1.386 1_655 S
C1450 C1452 1.391 . S
C1451 C1450 1.386 1_455 S
C1451 C1455 1.393 . S
C1452 H1441 0.950 . S
C1452 C1450 1.391 . S
C1452 C1453 1.400 . S
C1453 C1447 1.491 . S
C1453 C1452 1.400 . S
C1453 C1454 1.398 . S
C1454 H1442 0.950 . S
C1454 C1453 1.398 . S
C1454 C1455 1.391 1_655 S
C1455 H1443 0.950 . S
C1455 C1451 1.393 . S
C1455 C1454 1.391 1_455 S
H1456 C1464 0.950 . S
H1457 C1469 0.950 . S
H1458 C1466 0.950 . S
H1459 C1468 0.950 . S
H1460 C1470 0.950 . S
H1461 C1472 0.950 . S
H1462 C1474 0.950 . S
H1463 C1475 0.950 . S
C1464 H1456 0.950 . S
C1464 C1465 1.386 . S
C1464 C1466 1.391 . S
C1465 C1464 1.386 . S
C1465 C1469 1.393 . S
C1466 H1458 0.950 . S
C1466 C1464 1.391 . S
C1466 C1467 1.400 . S
C1467 C1466 1.400 . S
C1467 C1468 1.398 . S
C1467 C1473 1.491 . S
C1468 H1459 0.950 . S
C1468 C1467 1.398 . S
C1468 C1469 1.391 . S
C1469 H1457 0.950 . S
C1469 C1465 1.393 . S
C1469 C1468 1.391 . S
C1470 H1460 0.950 . S
C1470 C1471 1.386 . S
C1470 C1472 1.391 . S
C1471 C1470 1.386 . S
C1471 C1475 1.393 . S
C1472 H1461 0.950 . S
C1472 C1470 1.391 . S
C1472 C1473 1.400 . S
C1473 C1467 1.491 . S
C1473 C1472 1.400 . S
C1473 C1474 1.398 . S
C1474 H1462 0.950 . S
C1474 C1473 1.398 . S
C1474 C1475 1.391 . S
C1475 H1463 0.950 . S
C1475 C1471 1.393 . S
C1475 C1474 1.391 . S
H1476 C1484 0.950 . S
H1477 C1489 0.950 . S
H1478 C1486 0.950 . S
H1479 C1488 0.950 . S
H1480 C1490 0.950 . S
H1481 C1492 0.950 . S
H1482 C1494 0.950 . S
H1483 C1495 0.950 . S
C1484 H1476 0.950 . S
C1484 C1485 1.386 1_655 S
C1484 C1486 1.391 . S
C1485 C1484 1.386 1_455 S
C1485 C1489 1.393 . S
C1486 H1478 0.950 . S
C1486 C1484 1.391 . S
C1486 C1487 1.400 . S
C1487 C1486 1.400 . S
C1487 C1488 1.398 . S
C1487 C1493 1.491 . S
C1488 H1479 0.950 . S
C1488 C1487 1.398 . S
C1488 C1489 1.391 1_655 S
C1489 H1477 0.950 . S
C1489 C1485 1.393 . S
C1489 C1488 1.391 1_455 S
C1490 H1480 0.950 . S
C1490 C1491 1.386 . S
C1490 C1492 1.391 . S
C1491 C1490 1.386 . S
C1491 C1495 1.393 . S
C1492 H1481 0.950 . S
C1492 C1490 1.391 . S
C1492 C1493 1.400 . S
C1493 C1487 1.491 . S
C1493 C1492 1.400 . S
C1493 C1494 1.398 . S
C1494 H1482 0.950 . S
C1494 C1493 1.398 . S
C1494 C1495 1.391 . S
C1495 H1483 0.950 . S
C1495 C1491 1.393 . S
C1495 C1494 1.391 . S
H1496 C1504 0.950 . S
H1497 C1509 0.950 . S
H1498 C1506 0.950 . S
H1499 C1508 0.950 . S
H1500 C1510 0.950 . S
H1501 C1512 0.950 . S
H1502 C1514 0.950 . S
H1503 C1515 0.950 . S
C1504 H1496 0.950 . S
C1504 C1505 1.386 . S
C1504 C1506 1.391 . S
C1505 C1504 1.386 . S
C1505 C1509 1.393 . S
C1506 H1498 0.950 . S
C1506 C1504 1.391 . S
C1506 C1507 1.400 . S
C1507 C1506 1.400 . S
C1507 C1508 1.398 . S
C1507 C1513 1.491 . S
C1508 H1499 0.950 . S
C1508 C1507 1.398 . S
C1508 C1509 1.391 . S
C1509 H1497 0.950 . S
C1509 C1505 1.393 . S
C1509 C1508 1.391 . S
C1510 H1500 0.950 . S
C1510 C1511 1.386 . S
C1510 C1512 1.391 . S
C1511 C1510 1.386 . S
C1511 C1515 1.393 . S
C1512 H1501 0.950 . S
C1512 C1510 1.391 . S
C1512 C1513 1.400 . S
C1513 C1507 1.491 . S
C1513 C1512 1.400 . S
C1513 C1514 1.398 . S
C1514 H1502 0.950 . S
C1514 C1513 1.398 . S
C1514 C1515 1.391 . S
C1515 H1503 0.950 . S
C1515 C1511 1.393 . S
C1515 C1514 1.391 . S
H1516 C1524 0.950 . S
H1517 C1529 0.950 . S
H1518 C1526 0.950 . S
H1519 C1528 0.950 . S
H1520 C1530 0.950 . S
H1521 C1532 0.950 . S
H1522 C1534 0.950 . S
H1523 C1535 0.950 . S
C1524 H1516 0.950 . S
C1524 C1525 1.386 . S
C1524 C1526 1.391 . S
C1525 C1524 1.386 . S
C1525 C1529 1.393 . S
C1526 H1518 0.950 . S
C1526 C1524 1.391 . S
C1526 C1527 1.400 . S
C1527 C1526 1.400 . S
C1527 C1528 1.398 . S
C1527 C1533 1.491 . S
C1528 H1519 0.950 . S
C1528 C1527 1.398 . S
C1528 C1529 1.391 . S
C1529 H1517 0.950 . S
C1529 C1525 1.393 . S
C1529 C1528 1.391 . S
C1530 H1520 0.950 . S
C1530 C1531 1.386 . S
C1530 C1532 1.391 . S
C1531 C1530 1.386 . S
C1531 C1535 1.393 . S
C1532 H1521 0.950 . S
C1532 C1530 1.391 . S
C1532 C1533 1.400 . S
C1533 C1527 1.491 . S
C1533 C1532 1.400 . S
C1533 C1534 1.398 . S
C1534 H1522 0.950 . S
C1534 C1533 1.398 . S
C1534 C1535 1.391 . S
C1535 H1523 0.950 . S
C1535 C1531 1.393 . S
C1535 C1534 1.391 . S
H1536 C1544 0.950 . S
H1537 C1549 0.950 . S
H1538 C1546 0.950 . S
H1539 C1548 0.950 . S
H1540 C1550 0.950 . S
H1541 C1552 0.950 . S
H1542 C1554 0.950 . S
H1543 C1555 0.950 . S
C1544 H1536 0.950 . S
C1544 C1545 1.386 . S
C1544 C1546 1.391 . S
C1545 C1544 1.386 . S
C1545 C1549 1.393 . S
C1546 H1538 0.950 . S
C1546 C1544 1.391 . S
C1546 C1547 1.400 . S
C1547 C1546 1.400 . S
C1547 C1548 1.398 . S
C1547 C1553 1.491 . S
C1548 H1539 0.950 . S
C1548 C1547 1.398 . S
C1548 C1549 1.391 . S
C1549 H1537 0.950 . S
C1549 C1545 1.393 . S
C1549 C1548 1.391 . S
C1550 H1540 0.950 . S
C1550 C1551 1.386 . S
C1550 C1552 1.391 . S
C1551 C1550 1.386 . S
C1551 C1555 1.393 . S
C1552 H1541 0.950 . S
C1552 C1550 1.391 . S
C1552 C1553 1.400 . S
C1553 C1547 1.491 . S
C1553 C1552 1.400 . S
C1553 C1554 1.398 . S
C1554 H1542 0.950 . S
C1554 C1553 1.398 . S
C1554 C1555 1.391 . S
C1555 H1543 0.950 . S
C1555 C1551 1.393 . S
C1555 C1554 1.391 . S
H1556 C1564 0.950 . S
H1557 C1569 0.950 . S
H1558 C1566 0.950 . S
H1559 C1568 0.950 . S
H1560 C1570 0.950 . S
H1561 C1572 0.950 . S
H1562 C1574 0.950 . S
H1563 C1575 0.950 . S
C1564 H1556 0.950 . S
C1564 C1565 1.386 . S
C1564 C1566 1.391 . S
C1565 C1564 1.386 . S
C1565 C1569 1.393 . S
C1566 H1558 0.950 . S
C1566 C1564 1.391 . S
C1566 C1567 1.400 . S
C1567 C1566 1.400 . S
C1567 C1568 1.398 . S
C1567 C1573 1.491 . S
C1568 H1559 0.950 . S
C1568 C1567 1.398 . S
C1568 C1569 1.391 . S
C1569 H1557 0.950 . S
C1569 C1565 1.393 . S
C1569 C1568 1.391 . S
C1570 H1560 0.950 . S
C1570 C1571 1.386 . S
C1570 C1572 1.391 . S
C1571 C1570 1.386 . S
C1571 C1575 1.393 . S
C1572 H1561 0.950 . S
C1572 C1570 1.391 . S
C1572 C1573 1.400 . S
C1573 C1567 1.491 . S
C1573 C1572 1.400 . S
C1573 C1574 1.398 . S
C1574 H1562 0.950 . S
C1574 C1573 1.398 . S
C1574 C1575 1.391 . S
C1575 H1563 0.950 . S
C1575 C1571 1.393 . S
C1575 C1574 1.391 . S
H1576 C1584 0.950 . S
H1577 C1589 0.950 . S
H1578 C1586 0.950 . S
H1579 C1588 0.950 . S
H1580 C1590 0.950 . S
H1581 C1592 0.950 . S
H1582 C1594 0.950 . S
H1583 C1595 0.950 . S
C1584 H1576 0.950 . S
C1584 C1585 1.386 . S
C1584 C1586 1.391 . S
C1585 C1584 1.386 . S
C1585 C1589 1.393 . S
C1586 H1578 0.950 . S
C1586 C1584 1.391 . S
C1586 C1587 1.400 . S
C1587 C1586 1.400 . S
C1587 C1588 1.398 . S
C1587 C1593 1.491 . S
C1588 H1579 0.950 . S
C1588 C1587 1.398 . S
C1588 C1589 1.391 . S
C1589 H1577 0.950 . S
C1589 C1585 1.393 . S
C1589 C1588 1.391 . S
C1590 H1580 0.950 . S
C1590 C1591 1.386 . S
C1590 C1592 1.391 . S
C1591 C1590 1.386 . S
C1591 C1595 1.393 . S
C1592 H1581 0.950 . S
C1592 C1590 1.391 . S
C1592 C1593 1.400 . S
C1593 C1587 1.491 . S
C1593 C1592 1.400 . S
C1593 C1594 1.398 . S
C1594 H1582 0.950 . S
C1594 C1593 1.398 . S
C1594 C1595 1.391 . S
C1595 H1583 0.950 . S
C1595 C1591 1.393 . S
C1595 C1594 1.391 . S
H1596 C1604 0.950 . S
H1597 C1609 0.950 . S
H1598 C1606 0.950 . S
H1599 C1608 0.950 . S
H1600 C1610 0.950 . S
H1601 C1612 0.950 . S
H1602 C1614 0.950 . S
H1603 C1615 0.950 . S
C1604 H1596 0.950 . S
C1604 C1605 1.386 . S
C1604 C1606 1.391 1_655 S
C1605 C1604 1.386 . S
C1605 C1609 1.393 . S
C1606 H1598 0.950 . S
C1606 C1604 1.391 1_455 S
C1606 C1607 1.400 . S
C1607 C1606 1.400 . S
C1607 C1608 1.398 . S
C1607 C1613 1.491 . S
C1608 H1599 0.950 . S
C1608 C1607 1.398 . S
C1608 C1609 1.391 1_455 S
C1609 H1597 0.950 . S
C1609 C1605 1.393 . S
C1609 C1608 1.391 1_655 S
C1610 H1600 0.950 . S
C1610 C1611 1.386 . S
C1610 C1612 1.391 . S
C1611 C1610 1.386 . S
C1611 C1615 1.393 . S
C1612 H1601 0.950 . S
C1612 C1610 1.391 . S
C1612 C1613 1.400 . S
C1613 C1607 1.491 . S
C1613 C1612 1.400 . S
C1613 C1614 1.398 . S
C1614 H1602 0.950 . S
C1614 C1613 1.398 . S
C1614 C1615 1.391 . S
C1615 H1603 0.950 . S
C1615 C1611 1.393 . S
C1615 C1614 1.391 . S
H1616 C1624 0.950 . S
H1617 C1629 0.950 . S
H1618 C1626 0.950 . S
H1619 C1628 0.950 . S
H1620 C1630 0.950 . S
H1621 C1632 0.950 . S
H1622 C1634 0.950 . S
H1623 C1635 0.950 . S
C1624 H1616 0.950 . S
C1624 C1625 1.386 . S
C1624 C1626 1.391 . S
C1625 C1624 1.386 . S
C1625 C1629 1.393 . S
C1626 H1618 0.950 . S
C1626 C1624 1.391 . S
C1626 C1627 1.400 . S
C1627 C1626 1.400 . S
C1627 C1628 1.398 . S
C1627 C1633 1.491 . S
C1628 H1619 0.950 . S
C1628 C1627 1.398 . S
C1628 C1629 1.391 . S
C1629 H1617 0.950 . S
C1629 C1625 1.393 . S
C1629 C1628 1.391 . S
C1630 H1620 0.950 . S
C1630 C1631 1.386 . S
C1630 C1632 1.391 . S
C1631 C1630 1.386 . S
C1631 C1635 1.393 . S
C1632 H1621 0.950 . S
C1632 C1630 1.391 . S
C1632 C1633 1.400 . S
C1633 C1627 1.491 . S
C1633 C1632 1.400 . S
C1633 C1634 1.398 . S
C1634 H1622 0.950 . S
C1634 C1633 1.398 . S
C1634 C1635 1.391 . S
C1635 H1623 0.950 . S
C1635 C1631 1.393 . S
C1635 C1634 1.391 . S
H1636 C1644 0.950 . S
H1637 C1649 0.950 . S
H1638 C1646 0.950 . S
H1639 C1648 0.950 . S
H1640 C1650 0.950 . S
H1641 C1652 0.950 . S
H1642 C1654 0.950 . S
H1643 C1655 0.950 . S
C1644 H1636 0.950 . S
C1644 C1645 1.386 . S
C1644 C1646 1.391 . S
C1645 C1644 1.386 . S
C1645 C1649 1.393 . S
C1646 H1638 0.950 . S
C1646 C1644 1.391 . S
C1646 C1647 1.400 . S
C1647 C1646 1.400 . S
C1647 C1648 1.398 . S
C1647 C1653 1.491 . S
C1648 H1639 0.950 . S
C1648 C1647 1.398 . S
C1648 C1649 1.391 . S
C1649 H1637 0.950 . S
C1649 C1645 1.393 . S
C1649 C1648 1.391 . S
C1650 H1640 0.950 . S
C1650 C1651 1.386 . S
C1650 C1652 1.391 1_655 S
C1651 C1650 1.386 . S
C1651 C1655 1.393 1_655 S
C1652 H1641 0.950 . S
C1652 C1650 1.391 1_455 S
C1652 C1653 1.400 . S
C1653 C1647 1.491 . S
C1653 C1652 1.400 . S
C1653 C1654 1.398 . S
C1654 H1642 0.950 . S
C1654 C1653 1.398 . S
C1654 C1655 1.391 . S
C1655 H1643 0.950 . S
C1655 C1651 1.393 1_455 S
C1655 C1654 1.391 . S
H1656 C1664 0.950 . S
H1657 C1669 0.950 . S
H1658 C1666 0.950 . S
H1659 C1668 0.950 . S
H1660 C1670 0.950 . S
H1661 C1672 0.950 . S
H1662 C1674 0.950 . S
H1663 C1675 0.950 . S
C1664 H1656 0.950 . S
C1664 C1665 1.386 . S
C1664 C1666 1.391 . S
C1665 C1664 1.386 . S
C1665 C1669 1.393 . S
C1666 H1658 0.950 . S
C1666 C1664 1.391 . S
C1666 C1667 1.400 . S
C1667 C1666 1.400 . S
C1667 C1668 1.398 . S
C1667 C1673 1.491 . S
C1668 H1659 0.950 . S
C1668 C1667 1.398 . S
C1668 C1669 1.391 . S
C1669 H1657 0.950 . S
C1669 C1665 1.393 . S
C1669 C1668 1.391 . S
C1670 H1660 0.950 . S
C1670 C1671 1.386 . S
C1670 C1672 1.391 . S
C1671 C1670 1.386 . S
C1671 C1675 1.393 . S
C1672 H1661 0.950 . S
C1672 C1670 1.391 . S
C1672 C1673 1.400 . S
C1673 C1667 1.491 . S
C1673 C1672 1.400 . S
C1673 C1674 1.398 . S
C1674 H1662 0.950 . S
C1674 C1673 1.398 . S
C1674 C1675 1.391 . S
C1675 H1663 0.950 . S
C1675 C1671 1.393 . S
C1675 C1674 1.391 . S
H1676 C1684 0.950 . S
H1677 C1689 0.950 . S
H1678 C1686 0.950 . S
H1679 C1688 0.950 . S
H1680 C1690 0.950 . S
H1681 C1692 0.950 . S
H1682 C1694 0.950 . S
H1683 C1695 0.950 . S
C1684 H1676 0.950 . S
C1684 C1685 1.386 . S
C1684 C1686 1.391 . S
C1685 C1684 1.386 . S
C1685 C1689 1.393 . S
C1686 H1678 0.950 . S
C1686 C1684 1.391 . S
C1686 C1687 1.400 . S
C1687 C1686 1.400 . S
C1687 C1688 1.398 . S
C1687 C1693 1.491 . S
C1688 H1679 0.950 . S
C1688 C1687 1.398 . S
C1688 C1689 1.391 . S
C1689 H1677 0.950 . S
C1689 C1685 1.393 . S
C1689 C1688 1.391 . S
C1690 H1680 0.950 . S
C1690 C1691 1.386 . S
C1690 C1692 1.391 . S
C1691 C1690 1.386 . S
C1691 C1695 1.393 . S
C1692 H1681 0.950 . S
C1692 C1690 1.391 . S
C1692 C1693 1.400 . S
C1693 C1687 1.491 . S
C1693 C1692 1.400 . S
C1693 C1694 1.398 . S
C1694 H1682 0.950 . S
C1694 C1693 1.398 . S
C1694 C1695 1.391 . S
C1695 H1683 0.950 . S
C1695 C1691 1.393 . S
C1695 C1694 1.391 . S
C425 C52 1.450 . S
C431 C0 1.467 . S
C445 C65 1.467 . S
C451 C13 1.449 . S
C465 C78 1.464 . S
C471 C26 1.453 . S
C485 C39 1.465 . S
C491 C91 1.453 . S
C505 C104 1.466 . S
C511 C156 1.451 . S
C525 C169 1.449 . S
C531 C117 1.465 . S
C545 C130 1.451 . S
C551 C182 1.466 . S
C565 C195 1.466 . S
C571 C143 1.449 . S
C585 C208 1.464 . S
C591 C260 1.450 . S
C605 C273 1.454 . S
C611 C221 1.459 . S
C625 C286 1.467 . S
C631 C234 1.450 . S
C645 C299 1.467 . S
C651 C247 1.450 . S
C665 C312 1.458 . S
C671 C364 1.460 . S
C685 C325 1.456 . S
C691 C377 1.457 . S
C705 C338 1.449 . S
C711 C390 1.465 . S
C725 C351 1.455 . S
C731 C403 1.463 . S
C745 C8 0.850 1_565 S
C751 C99 0.855 . S
C765 C21 0.839 . S
C771 C60 0.873 1_545 S
C785 C34 0.856 1_545 S
C791 C73 0.859 . S
C805 C86 0.872 1_565 S
C811 C47 0.836 . S
C825 C203 0.863 . S
C831 C112 0.852 1_545 S
C845 C164 0.845 1_565 S
C851 C125 0.861 . S
C865 C177 0.862 . S
C871 C138 0.852 1_565 S
C885 C151 0.872 . S
C891 C190 0.836 1_545 S
C905 C307 0.872 . S
C911 C216 0.840 . S
C925 C268 0.872 . S
C931 C229 0.836 . S
C945 C281 0.865 . S
C951 C242 0.841 . S
C965 C255 0.860 . S
C971 C294 0.854 . S
C985 C320 0.838 . S
C991 C411 0.869 . S
C1005 C333 0.836 . S
C1011 C372 0.873 . S
C1025 C346 0.836 . S
C1031 C385 0.874 . S
C1045 C398 0.872 . S
C1051 C359 0.840 . S
C1065 C5 1.394 . S
C1071 C335 1.432 . S
C1085 C18 1.414 . S
C1091 C140 1.442 . S
C1105 C31 1.397 . S
C1111 C361 1.441 . S
C1125 C114 1.438 . S
C1131 C44 1.392 . S
C1145 C413 1.434 . S
C1151 C57 1.411 . S
C1165 C70 1.397 . S
C1171 C166 1.432 . S
C1185 C83 1.391 . S
C1191 C387 1.435 . S
C1205 C96 1.413 . S
C1211 C192 1.442 . S
C1225 C231 1.434 . S
C1231 C109 1.411 . S
C1245 C36 1.442 . S
C1251 C122 1.414 . S
C1265 C257 1.432 . S
C1271 C135 1.404 . S
C1285 C148 1.399 . S
C1291 C10 1.432 . S
C1305 C309 1.435 . S
C1311 C161 1.391 . S
C1325 C62 1.441 . S
C1331 C174 1.415 . S
C1345 C283 1.436 . S
C1351 C187 1.391 . S
C1365 C88 1.438 . S
C1371 C200 1.415 . S
C1385 C127 1.443 . S
C1391 C213 1.411 . S
C1405 C226 1.407 . S
C1411 C348 1.443 . S
C1425 C239 1.415 . S
C1431 C153 1.441 . S
C1445 C252 1.392 . S
C1451 C322 1.434 . S
C1465 C265 1.415 . S
C1471 C205 1.437 . S
C1485 C374 1.440 . S
C1491 C278 1.416 . S
C1505 C291 1.399 . S
C1511 C179 1.441 . S
C1525 C304 1.392 . S
C1531 C400 1.437 . S
C1545 C317 1.399 . S
C1551 C23 1.432 . S
C1565 C330 1.410 . S
C1571 C244 1.443 . S
C1585 C49 1.432 . S
C1591 C343 1.404 . S
C1605 C218 1.432 . S
C1611 C356 1.403 . S
C1625 C369 1.394 . S
C1631 C101 1.439 . S
C1645 C382 1.392 . S
C1651 C270 1.434 . S
C1665 C75 1.443 . S
C1671 C395 1.412 . S
C1685 C296 1.432 . S
C1691 C408 1.403 . S
