# Generated by pormake.
# Topology umu, (4)-cn, num edge types: 1
# Building blocks:
#     Node 0, Type 0, BuildingBlock: QUQFOY_clean_sbu_3, # of connection points: 4
#     Node 1, Type 0, BuildingBlock: QUQFOY_clean_sbu_3, # of connection points: 4
#     Node 2, Type 0, BuildingBlock: QUQFOY_clean_sbu_3, # of connection points: 4
#     Node 3, Type 0, BuildingBlock: QUQFOY_clean_sbu_3, # of connection points: 4
#     Node 4, Type 0, BuildingBlock: QUQFOY_clean_sbu_3, # of connection points: 4
#     Node 5, Type 0, BuildingBlock: QUQFOY_clean_sbu_3, # of connection points: 4
#     Node 6, Type 0, BuildingBlock: QUQFOY_clean_sbu_3, # of connection points: 4
#     Node 7, Type 0, BuildingBlock: QUQFOY_clean_sbu_3, # of connection points: 4
#     Node 8, Type 0, BuildingBlock: QUQFOY_clean_sbu_3, # of connection points: 4
#     Node 9, Type 0, BuildingBlock: QUQFOY_clean_sbu_3, # of connection points: 4
#     Node 10, Type 0, BuildingBlock: QUQFOY_clean_sbu_3, # of connection points: 4
#     Node 11, Type 0, BuildingBlock: QUQFOY_clean_sbu_3, # of connection points: 4
#     Node 12, Type 0, BuildingBlock: QUQFOY_clean_sbu_3, # of connection points: 4
#     Node 13, Type 0, BuildingBlock: QUQFOY_clean_sbu_3, # of connection points: 4
#     Node 14, Type 0, BuildingBlock: QUQFOY_clean_sbu_3, # of connection points: 4
#     Node 15, Type 0, BuildingBlock: QUQFOY_clean_sbu_3, # of connection points: 4
#     Node 16, Type 0, BuildingBlock: QUQFOY_clean_sbu_3, # of connection points: 4
#     Node 17, Type 0, BuildingBlock: QUQFOY_clean_sbu_3, # of connection points: 4
#     Node 18, Type 0, BuildingBlock: QUQFOY_clean_sbu_3, # of connection points: 4
#     Node 19, Type 0, BuildingBlock: QUQFOY_clean_sbu_3, # of connection points: 4
#     Node 20, Type 0, BuildingBlock: QUQFOY_clean_sbu_3, # of connection points: 4
#     Node 21, Type 0, BuildingBlock: QUQFOY_clean_sbu_3, # of connection points: 4
#     Node 22, Type 0, BuildingBlock: QUQFOY_clean_sbu_3, # of connection points: 4
#     Node 23, Type 0, BuildingBlock: QUQFOY_clean_sbu_3, # of connection points: 4
#     Node 24, Type 0, BuildingBlock: QUQFOY_clean_sbu_3, # of connection points: 4
#     Node 25, Type 0, BuildingBlock: QUQFOY_clean_sbu_3, # of connection points: 4
#     Node 26, Type 0, BuildingBlock: QUQFOY_clean_sbu_3, # of connection points: 4
#     Node 27, Type 0, BuildingBlock: QUQFOY_clean_sbu_3, # of connection points: 4
#     Node 28, Type 0, BuildingBlock: QUQFOY_clean_sbu_3, # of connection points: 4
#     Node 29, Type 0, BuildingBlock: QUQFOY_clean_sbu_3, # of connection points: 4
#     Node 30, Type 0, BuildingBlock: QUQFOY_clean_sbu_3, # of connection points: 4
#     Node 31, Type 0, BuildingBlock: QUQFOY_clean_sbu_3, # of connection points: 4
#     Edge 32, Type (0, 0), BuildingBlock: UVAHIK_clean_linker_0, # of connection points: 2
#     Edge 33, Type (0, 0), BuildingBlock: UVAHIK_clean_linker_0, # of connection points: 2
#     Edge 34, Type (0, 0), BuildingBlock: UVAHIK_clean_linker_0, # of connection points: 2
#     Edge 35, Type (0, 0), BuildingBlock: UVAHIK_clean_linker_0, # of connection points: 2
#     Edge 36, Type (0, 0), BuildingBlock: UVAHIK_clean_linker_0, # of connection points: 2
#     Edge 37, Type (0, 0), BuildingBlock: UVAHIK_clean_linker_0, # of connection points: 2
#     Edge 38, Type (0, 0), BuildingBlock: UVAHIK_clean_linker_0, # of connection points: 2
#     Edge 39, Type (0, 0), BuildingBlock: UVAHIK_clean_linker_0, # of connection points: 2
#     Edge 40, Type (0, 0), BuildingBlock: UVAHIK_clean_linker_0, # of connection points: 2
#     Edge 41, Type (0, 0), BuildingBlock: UVAHIK_clean_linker_0, # of connection points: 2
#     Edge 42, Type (0, 0), BuildingBlock: UVAHIK_clean_linker_0, # of connection points: 2
#     Edge 43, Type (0, 0), BuildingBlock: UVAHIK_clean_linker_0, # of connection points: 2
#     Edge 44, Type (0, 0), BuildingBlock: UVAHIK_clean_linker_0, # of connection points: 2
#     Edge 45, Type (0, 0), BuildingBlock: UVAHIK_clean_linker_0, # of connection points: 2
#     Edge 46, Type (0, 0), BuildingBlock: UVAHIK_clean_linker_0, # of connection points: 2
#     Edge 47, Type (0, 0), BuildingBlock: UVAHIK_clean_linker_0, # of connection points: 2
#     Edge 48, Type (0, 0), BuildingBlock: UVAHIK_clean_linker_0, # of connection points: 2
#     Edge 49, Type (0, 0), BuildingBlock: UVAHIK_clean_linker_0, # of connection points: 2
#     Edge 50, Type (0, 0), BuildingBlock: UVAHIK_clean_linker_0, # of connection points: 2
#     Edge 51, Type (0, 0), BuildingBlock: UVAHIK_clean_linker_0, # of connection points: 2
#     Edge 52, Type (0, 0), BuildingBlock: UVAHIK_clean_linker_0, # of connection points: 2
#     Edge 53, Type (0, 0), BuildingBlock: UVAHIK_clean_linker_0, # of connection points: 2
#     Edge 54, Type (0, 0), BuildingBlock: UVAHIK_clean_linker_0, # of connection points: 2
#     Edge 55, Type (0, 0), BuildingBlock: UVAHIK_clean_linker_0, # of connection points: 2
#     Edge 56, Type (0, 0), BuildingBlock: UVAHIK_clean_linker_0, # of connection points: 2
#     Edge 57, Type (0, 0), BuildingBlock: UVAHIK_clean_linker_0, # of connection points: 2
#     Edge 58, Type (0, 0), BuildingBlock: UVAHIK_clean_linker_0, # of connection points: 2
#     Edge 59, Type (0, 0), BuildingBlock: UVAHIK_clean_linker_0, # of connection points: 2
#     Edge 60, Type (0, 0), BuildingBlock: UVAHIK_clean_linker_0, # of connection points: 2
#     Edge 61, Type (0, 0), BuildingBlock: UVAHIK_clean_linker_0, # of connection points: 2
#     Edge 62, Type (0, 0), BuildingBlock: UVAHIK_clean_linker_0, # of connection points: 2
#     Edge 63, Type (0, 0), BuildingBlock: UVAHIK_clean_linker_0, # of connection points: 2
#     Edge 64, Type (0, 0), BuildingBlock: UVAHIK_clean_linker_0, # of connection points: 2
#     Edge 65, Type (0, 0), BuildingBlock: UVAHIK_clean_linker_0, # of connection points: 2
#     Edge 66, Type (0, 0), BuildingBlock: UVAHIK_clean_linker_0, # of connection points: 2
#     Edge 67, Type (0, 0), BuildingBlock: UVAHIK_clean_linker_0, # of connection points: 2
#     Edge 68, Type (0, 0), BuildingBlock: UVAHIK_clean_linker_0, # of connection points: 2
#     Edge 69, Type (0, 0), BuildingBlock: UVAHIK_clean_linker_0, # of connection points: 2
#     Edge 70, Type (0, 0), BuildingBlock: UVAHIK_clean_linker_0, # of connection points: 2
#     Edge 71, Type (0, 0), BuildingBlock: UVAHIK_clean_linker_0, # of connection points: 2
#     Edge 72, Type (0, 0), BuildingBlock: UVAHIK_clean_linker_0, # of connection points: 2
#     Edge 73, Type (0, 0), BuildingBlock: UVAHIK_clean_linker_0, # of connection points: 2
#     Edge 74, Type (0, 0), BuildingBlock: UVAHIK_clean_linker_0, # of connection points: 2
#     Edge 75, Type (0, 0), BuildingBlock: UVAHIK_clean_linker_0, # of connection points: 2
#     Edge 76, Type (0, 0), BuildingBlock: UVAHIK_clean_linker_0, # of connection points: 2
#     Edge 77, Type (0, 0), BuildingBlock: UVAHIK_clean_linker_0, # of connection points: 2
#     Edge 78, Type (0, 0), BuildingBlock: UVAHIK_clean_linker_0, # of connection points: 2
#     Edge 79, Type (0, 0), BuildingBlock: UVAHIK_clean_linker_0, # of connection points: 2
#     Edge 80, Type (0, 0), BuildingBlock: UVAHIK_clean_linker_0, # of connection points: 2
#     Edge 81, Type (0, 0), BuildingBlock: UVAHIK_clean_linker_0, # of connection points: 2
#     Edge 82, Type (0, 0), BuildingBlock: UVAHIK_clean_linker_0, # of connection points: 2
#     Edge 83, Type (0, 0), BuildingBlock: UVAHIK_clean_linker_0, # of connection points: 2
#     Edge 84, Type (0, 0), BuildingBlock: UVAHIK_clean_linker_0, # of connection points: 2
#     Edge 85, Type (0, 0), BuildingBlock: UVAHIK_clean_linker_0, # of connection points: 2
#     Edge 86, Type (0, 0), BuildingBlock: UVAHIK_clean_linker_0, # of connection points: 2
#     Edge 87, Type (0, 0), BuildingBlock: UVAHIK_clean_linker_0, # of connection points: 2
#     Edge 88, Type (0, 0), BuildingBlock: UVAHIK_clean_linker_0, # of connection points: 2
#     Edge 89, Type (0, 0), BuildingBlock: UVAHIK_clean_linker_0, # of connection points: 2
#     Edge 90, Type (0, 0), BuildingBlock: UVAHIK_clean_linker_0, # of connection points: 2
#     Edge 91, Type (0, 0), BuildingBlock: UVAHIK_clean_linker_0, # of connection points: 2
#     Edge 92, Type (0, 0), BuildingBlock: UVAHIK_clean_linker_0, # of connection points: 2
#     Edge 93, Type (0, 0), BuildingBlock: UVAHIK_clean_linker_0, # of connection points: 2
#     Edge 94, Type (0, 0), BuildingBlock: UVAHIK_clean_linker_0, # of connection points: 2
#     Edge 95, Type (0, 0), BuildingBlock: UVAHIK_clean_linker_0, # of connection points: 2
# Relax obj value: 0.125
# Max RMSD: 0.094
# Mean RMSD: 0.094
data_MOF--net-umu--node1-QUQFOY_clean_sbu_3--edge1-UVAHIK_clean_linker_0
_symmetry_space_group_name_H-M    P1
_symmetry_Int_Tables_number       1
_symmetry_cell_setting            triclinic
loop_
_symmetry_equiv_pos_as_xyz
'x, y, z'
_cell_length_a     108.81941
_cell_length_b     108.86684
_cell_length_c     33.699801
_cell_angle_alpha  90.027898
_cell_angle_beta   89.975425
_cell_angle_gamma 90.015125
loop_
_atom_site_label
_atom_site_type_symbol
_atom_site_fract_x
_atom_site_fract_y
_atom_site_fract_z
_atom_type_partial_charge
C0 C 0.22359 0.15219 0.14077 0.0
O1 O 0.23126 0.15576 0.11486 0.0
Cd2 Cd 0.22706 0.1671 0.05704 0.0
O3 O 0.21209 0.15422 0.1364 0.0
Cd4 Cd 0.1993 0.16363 0.08163 0.0
C5 C 0.21111 0.1916 0.09777 0.0
O6 O 0.21107 0.15592 0.02614 0.0
O7 O 0.20014 0.17183 0.0134 0.0
O8 O 0.18401 0.14718 0.0831 0.0
C9 C 0.20675 0.16314 0.0004 0.0
O10 O 0.22049 0.18748 0.07943 0.0
C11 C 0.17483 0.15425 0.07876 0.0
O12 O 0.20204 0.18461 0.10556 0.0
O13 O 0.17695 0.16571 0.07997 0.0
C14 C 0.09919 0.98298 0.38356 0.0
O15 O 0.09578 0.99048 0.35694 0.0
Cd16 Cd 0.08821 0.98621 0.29322 0.0
O17 O 0.09867 0.97137 0.37762 0.0
Cd18 Cd 0.0918 0.95848 0.31924 0.0
C19 C 0.06283 0.96964 0.32121 0.0
O20 O 0.10214 0.97098 0.27104 0.0
O21 O 0.08864 0.95899 0.24602 0.0
O22 O 0.10761 0.9427 0.32842 0.0
C23 C 0.09741 0.96643 0.24025 0.0
O24 O 0.06724 0.97913 0.30433 0.0
C25 C 0.10045 0.93378 0.32077 0.0
O26 O 0.06985 0.96095 0.3324 0.0
O27 O 0.08914 0.93631 0.31698 0.0
C28 C 0.27278 0.85997 0.6415 0.0
O29 O 0.26453 0.85613 0.61797 0.0
Cd30 Cd 0.26737 0.84546 0.55803 0.0
O31 O 0.28417 0.85842 0.6335 0.0
Cd32 Cd 0.29563 0.84916 0.57543 0.0
C33 C 0.28438 0.82097 0.59314 0.0
O34 O 0.28237 0.85736 0.52465 0.0
O35 O 0.29306 0.84181 0.50641 0.0
O36 O 0.31094 0.86563 0.57575 0.0
C37 C 0.28604 0.85058 0.4967 0.0
O38 O 0.27459 0.82503 0.57715 0.0
C39 C 0.31999 0.85867 0.56788 0.0
O40 O 0.29352 0.82805 0.59913 0.0
O41 O 0.31787 0.84721 0.56727 0.0
C42 C 0.39287 0.03376 0.88792 0.0
O43 O 0.39531 0.02614 0.86055 0.0
Cd44 Cd 0.40405 0.03017 0.79804 0.0
O45 O 0.39476 0.04526 0.88298 0.0
Cd46 Cd 0.40225 0.05799 0.82504 0.0
C47 C 0.43038 0.0454 0.82805 0.0
O48 O 0.39211 0.04654 0.77298 0.0
O49 O 0.40763 0.05712 0.75396 0.0
O50 O 0.38657 0.07391 0.83253 0.0
C51 C 0.39842 0.05065 0.7445 0.0
O52 O 0.42532 0.03625 0.81102 0.0
C53 C 0.39387 0.0828 0.82626 0.0
O54 O 0.42397 0.05452 0.83961 0.0
O55 O 0.40522 0.0802 0.82378 0.0
C56 C 0.22238 0.86438 0.01709 0.0
O57 O 0.23041 0.86089 0.04193 0.0
Cd58 Cd 0.22707 0.84913 0.09946 0.0
O59 O 0.21099 0.86207 0.02265 0.0
Cd60 Cd 0.19905 0.85224 0.07867 0.0
C61 C 0.21102 0.82457 0.05948 0.0
O62 O 0.21134 0.85994 0.133 0.0
O63 O 0.2009 0.84375 0.14631 0.0
O64 O 0.18346 0.8684 0.07942 0.0
C65 C 0.20747 0.85252 0.15891 0.0
O66 O 0.22055 0.82874 0.07687 0.0
C67 C 0.17448 0.86115 0.08506 0.0
O68 O 0.20178 0.83147 0.05319 0.0
O69 O 0.1768 0.84974 0.08359 0.0
C70 C 0.39534 0.98213 0.2706 0.0
O71 O 0.39812 0.99027 0.29599 0.0
Cd72 Cd 0.40657 0.98741 0.3595 0.0
O73 O 0.39681 0.97072 0.27837 0.0
Cd74 Cd 0.40421 0.95917 0.33878 0.0
C75 C 0.43257 0.97119 0.33281 0.0
O76 O 0.39412 0.97185 0.38773 0.0
O77 O 0.40934 0.96147 0.40992 0.0
O78 O 0.38832 0.9433 0.33385 0.0
C79 C 0.4002 0.96828 0.41741 0.0
O80 O 0.42771 0.98074 0.34804 0.0
C81 C 0.39544 0.93446 0.34247 0.0
O82 O 0.42598 0.96198 0.32322 0.0
O83 O 0.40679 0.93696 0.34537 0.0
C84 C 0.27375 0.15491 0.51717 0.0
O85 O 0.26522 0.15855 0.53997 0.0
Cd86 Cd 0.26722 0.16942 0.59992 0.0
O87 O 0.28503 0.15676 0.52608 0.0
Cd88 Cd 0.29571 0.16629 0.58518 0.0
C89 C 0.28407 0.19421 0.56611 0.0
O90 O 0.28214 0.15798 0.63508 0.0
O91 O 0.29238 0.1738 0.6536 0.0
O92 O 0.31142 0.15021 0.58698 0.0
C93 C 0.28542 0.16495 0.66305 0.0
O94 O 0.27422 0.18998 0.58132 0.0
C95 C 0.32022 0.15743 0.59528 0.0
O96 O 0.29337 0.18729 0.56095 0.0
O97 O 0.31781 0.16884 0.59515 0.0
C98 C 0.10249 0.03601 0.76095 0.0
O99 O 0.09971 0.02737 0.78456 0.0
Cd100 Cd 0.09061 0.02852 0.84749 0.0
O101 O 0.10049 0.04725 0.77005 0.0
Cd102 Cd 0.09248 0.0576 0.83227 0.0
C103 C 0.0643 0.04482 0.82442 0.0
O104 O 0.10305 0.04384 0.87608 0.0
O105 O 0.08905 0.05435 0.90472 0.0
O106 O 0.10773 0.07412 0.82895 0.0
C107 C 0.09791 0.04689 0.90806 0.0
O108 O 0.06937 0.03502 0.83698 0.0
C109 C 0.10035 0.08249 0.83999 0.0
O110 O 0.07069 0.05438 0.8174 0.0
O111 O 0.08913 0.07948 0.84325 0.0
C112 C 0.77214 0.85878 0.00941 0.0
O113 O 0.76372 0.85483 0.03211 0.0
Cd114 Cd 0.76626 0.84388 0.09163 0.0
O115 O 0.78346 0.85718 0.01818 0.0
Cd116 Cd 0.79465 0.84786 0.07652 0.0
C117 C 0.78388 0.81965 0.05705 0.0
O118 O 0.78091 0.8558 0.12645 0.0
O119 O 0.79181 0.84048 0.14537 0.0
O120 O 0.80932 0.86479 0.07581 0.0
C121 C 0.78454 0.8491 0.15461 0.0
O122 O 0.77392 0.82365 0.07219 0.0
C123 C 0.81856 0.85831 0.0853 0.0
O124 O 0.79305 0.82678 0.05211 0.0
O125 O 0.81691 0.84678 0.08708 0.0
C126 C 0.89372 0.03328 0.77155 0.0
O127 O 0.89653 0.02534 0.79754 0.0
Cd128 Cd 0.90633 0.02871 0.85874 0.0
O129 O 0.89581 0.04471 0.77745 0.0
Cd130 Cd 0.90411 0.05681 0.83566 0.0
C131 C 0.93219 0.04446 0.8268 0.0
O132 O 0.89463 0.0447 0.88734 0.0
O133 O 0.91029 0.05517 0.90595 0.0
O134 O 0.88812 0.07253 0.83119 0.0
C135 C 0.90119 0.04856 0.91559 0.0
O136 O 0.92736 0.03506 0.84309 0.0
C137 C 0.89528 0.08148 0.83824 0.0
O138 O 0.92564 0.05373 0.81763 0.0
O139 O 0.90668 0.07907 0.83993 0.0
C140 C 0.72173 0.15311 0.52123 0.0
O141 O 0.72955 0.15588 0.54766 0.0
Cd142 Cd 0.72598 0.16613 0.60801 0.0
O143 O 0.71031 0.15545 0.52624 0.0
Cd144 Cd 0.69795 0.16426 0.58314 0.0
C145 C 0.71088 0.19202 0.57315 0.0
O146 O 0.70955 0.15507 0.63659 0.0
O147 O 0.69919 0.17104 0.65286 0.0
O148 O 0.68208 0.14842 0.57881 0.0
C149 C 0.70561 0.16197 0.66388 0.0
O150 O 0.72008 0.18711 0.59037 0.0
C151 C 0.67317 0.1557 0.58496 0.0
O152 O 0.70153 0.1856 0.5638 0.0
O153 O 0.67569 0.16708 0.58596 0.0
C154 C 0.60268 0.98175 0.26814 0.0
O155 O 0.60014 0.98953 0.29494 0.0
Cd156 Cd 0.59095 0.98593 0.35704 0.0
O157 O 0.60063 0.9703 0.27349 0.0
Cd158 Cd 0.5927 0.95796 0.33169 0.0
C159 C 0.56468 0.97067 0.32653 0.0
O160 O 0.60266 0.96962 0.38361 0.0
O161 O 0.58697 0.95924 0.40238 0.0
O162 O 0.60829 0.94188 0.32611 0.0
C163 C 0.59619 0.96567 0.41197 0.0
O164 O 0.56971 0.97989 0.34325 0.0
C165 C 0.6009 0.93309 0.33274 0.0
O166 O 0.57108 0.96145 0.31583 0.0
O167 O 0.58956 0.93578 0.3344 0.0
C168 C 0.77281 0.15461 0.14167 0.0
O169 O 0.76462 0.158 0.11724 0.0
Cd170 Cd 0.76746 0.1678 0.05577 0.0
O171 O 0.78421 0.15612 0.13385 0.0
Cd172 Cd 0.79573 0.1646 0.07472 0.0
C173 C 0.78414 0.19289 0.08797 0.0
O174 O 0.78271 0.15571 0.02438 0.0
O175 O 0.79329 0.17119 0.00501 0.0
O176 O 0.81138 0.14847 0.07621 0.0
C177 C 0.78638 0.16227 -0.0041 0.0
O178 O 0.77444 0.18855 0.07212 0.0
C179 C 0.82029 0.15562 0.06854 0.0
O180 O 0.79329 0.18596 0.09534 0.0
O181 O 0.81792 0.16703 0.06771 0.0
C182 C 0.59989 0.03343 0.88666 0.0
O183 O 0.59702 0.02536 0.86115 0.0
Cd184 Cd 0.58856 0.02828 0.79764 0.0
O185 O 0.59845 0.04487 0.8792 0.0
Cd186 Cd 0.59085 0.05652 0.81917 0.0
C187 C 0.56251 0.04434 0.82466 0.0
O188 O 0.60092 0.04394 0.76982 0.0
O189 O 0.58563 0.05437 0.74822 0.0
O190 O 0.60654 0.07259 0.82349 0.0
C191 C 0.59478 0.04762 0.74037 0.0
O192 O 0.56739 0.03486 0.80901 0.0
C193 C 0.59922 0.08134 0.81558 0.0
O194 O 0.5691 0.0535 0.83474 0.0
O195 O 0.58788 0.07866 0.81353 0.0
C196 C 0.72263 0.86384 0.63488 0.0
O197 O 0.73051 0.86016 0.60983 0.0
Cd198 Cd 0.72673 0.84817 0.55303 0.0
O199 O 0.71119 0.8616 0.62997 0.0
Cd200 Cd 0.69886 0.85163 0.57519 0.0
C201 C 0.71067 0.82393 0.59495 0.0
O202 O 0.71093 0.85898 0.51987 0.0
O203 O 0.70023 0.84286 0.50778 0.0
O204 O 0.68346 0.86798 0.57476 0.0
C205 C 0.70682 0.85151 0.49448 0.0
O206 O 0.72016 0.82794 0.57691 0.0
C207 C 0.67436 0.86082 0.57013 0.0
O208 O 0.70151 0.83094 0.60138 0.0
O209 O 0.67655 0.84938 0.57193 0.0
C210 C 0.89426 0.98203 0.39027 0.0
O211 O 0.89733 0.98998 0.36461 0.0
Cd212 Cd 0.90619 0.98637 0.30197 0.0
O213 O 0.89557 0.97056 0.38321 0.0
Cd214 Cd 0.90299 0.95829 0.32429 0.0
C215 C 0.93154 0.96959 0.3319 0.0
O216 O 0.89363 0.97094 0.27378 0.0
O217 O 0.90863 0.95982 0.25352 0.0
O218 O 0.88642 0.94334 0.33113 0.0
C219 C 0.89979 0.96688 0.24486 0.0
O220 O 0.92701 0.97917 0.31587 0.0
C221 C 0.893 0.93407 0.32268 0.0
O222 O 0.92468 0.96057 0.34138 0.0
O223 O 0.90446 0.93593 0.31892 0.0
C224 C 0.72337 0.6547 0.63859 0.0
O225 O 0.73148 0.65866 0.61477 0.0
Cd226 Cd 0.72822 0.6696 0.55558 0.0
O227 O 0.71193 0.65623 0.63126 0.0
Cd228 Cd 0.70017 0.66566 0.57419 0.0
C229 C 0.71126 0.69382 0.59288 0.0
O230 O 0.71316 0.65783 0.52191 0.0
O231 O 0.70231 0.67349 0.50566 0.0
O232 O 0.68501 0.64905 0.57406 0.0
C233 C 0.70922 0.66477 0.49475 0.0
O234 O 0.72099 0.68988 0.57618 0.0
C235 C 0.67587 0.65596 0.56701 0.0
O236 O 0.70218 0.68667 0.59895 0.0
O237 O 0.67788 0.66745 0.56721 0.0
C238 C 0.6029 0.48158 0.88604 0.0
O239 O 0.59991 0.48951 0.86022 0.0
Cd240 Cd 0.58955 0.48612 0.8 0.0
O241 O 0.60072 0.47016 0.88041 0.0
Cd242 Cd 0.59185 0.45811 0.82293 0.0
C243 C 0.56398 0.4707 0.8353 0.0
O244 O 0.60099 0.47008 0.77037 0.0
O245 O 0.585 0.45987 0.75329 0.0
O246 O 0.60761 0.44212 0.8259 0.0
C247 C 0.59415 0.46627 0.74276 0.0
O248 O 0.5686 0.48006 0.81813 0.0
C249 C 0.60024 0.43331 0.81914 0.0
O250 O 0.57063 0.46143 0.84367 0.0
O251 O 0.58888 0.43592 0.81845 0.0
C252 C 0.77395 0.36241 0.14476 0.0
O253 O 0.76559 0.35911 0.1208 0.0
Cd254 Cd 0.7679 0.34914 0.05932 0.0
O255 O 0.78529 0.36069 0.1364 0.0
Cd256 Cd 0.79634 0.35197 0.07672 0.0
C257 C 0.78441 0.32385 0.0907 0.0
O258 O 0.78316 0.36091 0.02681 0.0
O259 O 0.7935 0.34527 0.00732 0.0
O260 O 0.81229 0.36783 0.07691 0.0
C261 C 0.7866 0.35421 -0.00166 0.0
O262 O 0.77469 0.3283 0.07535 0.0
C263 C 0.82104 0.36048 0.06917 0.0
O264 O 0.79368 0.33068 0.09762 0.0
O265 O 0.81845 0.34912 0.06887 0.0
C266 C 0.89596 0.53369 0.39169 0.0
O267 O 0.89883 0.52554 0.36641 0.0
Cd268 Cd 0.90752 0.5284 0.30316 0.0
O269 O 0.89749 0.54509 0.38403 0.0
Cd270 Cd 0.90524 0.55665 0.32403 0.0
C271 C 0.93354 0.54449 0.33034 0.0
O272 O 0.89531 0.54401 0.27451 0.0
O273 O 0.91061 0.55451 0.25322 0.0
O274 O 0.88942 0.57255 0.32839 0.0
C275 C 0.90151 0.54771 0.2452 0.0
O276 O 0.92866 0.53497 0.31495 0.0
C277 C 0.89663 0.58138 0.32037 0.0
O278 O 0.92696 0.5537 0.34002 0.0
O279 O 0.908 0.57883 0.31822 0.0
C280 C 0.72303 0.36275 0.52409 0.0
O281 O 0.73069 0.3598 0.55079 0.0
Cd282 Cd 0.72672 0.34957 0.61089 0.0
O283 O 0.71155 0.36057 0.52853 0.0
Cd284 Cd 0.69885 0.35173 0.58458 0.0
C285 C 0.7116 0.32385 0.57495 0.0
O286 O 0.71026 0.36081 0.63867 0.0
O287 O 0.69969 0.34492 0.65435 0.0
O288 O 0.68299 0.36757 0.58001 0.0
C289 C 0.70611 0.35396 0.66574 0.0
O290 O 0.72076 0.32863 0.59279 0.0
C291 C 0.67406 0.36024 0.58532 0.0
O292 O 0.70237 0.33039 0.56517 0.0
O293 O 0.67659 0.34886 0.58591 0.0
C294 C 0.89354 0.4824 0.77284 0.0
O295 O 0.89625 0.49013 0.79963 0.0
Cd296 Cd 0.90577 0.48628 0.86102 0.0
O297 O 0.89557 0.47093 0.77789 0.0
Cd298 Cd 0.90368 0.45838 0.8353 0.0
C299 C 0.93176 0.4709 0.82849 0.0
O300 O 0.89408 0.47001 0.88797 0.0
O301 O 0.90974 0.45945 0.90579 0.0
O302 O 0.88786 0.44254 0.82953 0.0
C303 C 0.90063 0.46597 0.91595 0.0
O304 O 0.92688 0.48014 0.84562 0.0
C305 C 0.89514 0.43362 0.83563 0.0
O306 O 0.92523 0.46173 0.81816 0.0
O307 O 0.90651 0.43615 0.83729 0.0
C308 C 0.77395 0.64956 0.01364 0.0
O309 O 0.76575 0.65305 0.0379 0.0
Cd310 Cd 0.7686 0.6648 0.09572 0.0
O311 O 0.78531 0.65187 0.01999 0.0
Cd312 Cd 0.79685 0.66168 0.07699 0.0
C313 C 0.78496 0.68936 0.05708 0.0
O314 O 0.7841 0.65392 0.13002 0.0
O315 O 0.79443 0.67007 0.14473 0.0
O316 O 0.81255 0.64561 0.07857 0.0
C317 C 0.78767 0.66132 0.15646 0.0
O318 O 0.77529 0.6852 0.07369 0.0
C319 C 0.82145 0.65292 0.08455 0.0
O320 O 0.79424 0.68245 0.05152 0.0
O321 O 0.81905 0.66432 0.08315 0.0
C322 C 0.60204 0.53294 0.26654 0.0
O323 O 0.5992 0.52488 0.29212 0.0
Cd324 Cd 0.59022 0.52794 0.35484 0.0
O325 O 0.60039 0.54437 0.27371 0.0
Cd326 Cd 0.59248 0.5562 0.33305 0.0
C327 C 0.56428 0.54387 0.32543 0.0
O328 O 0.6021 0.54375 0.38369 0.0
O329 O 0.58663 0.55431 0.40345 0.0
O330 O 0.60846 0.57194 0.32882 0.0
C331 C 0.59566 0.54751 0.41239 0.0
O332 O 0.56915 0.53442 0.34125 0.0
C333 C 0.60131 0.58086 0.33643 0.0
O334 O 0.57082 0.55314 0.31606 0.0
O335 O 0.58992 0.57842 0.3383 0.0
C336 C 0.27461 0.36449 0.51458 0.0
O337 O 0.26649 0.36124 0.53947 0.0
Cd338 Cd 0.26948 0.34991 0.5981 0.0
O339 O 0.28597 0.36211 0.52052 0.0
Cd340 Cd 0.29771 0.3525 0.57731 0.0
C341 C 0.28524 0.32483 0.56048 0.0
O342 O 0.28537 0.3608 0.63051 0.0
O343 O 0.29568 0.34472 0.6459 0.0
O344 O 0.31362 0.36836 0.57657 0.0
C345 C 0.28904 0.35359 0.65731 0.0
O346 O 0.27574 0.32925 0.57742 0.0
C347 C 0.32248 0.36098 0.58225 0.0
O348 O 0.29458 0.33157 0.55369 0.0
O349 O 0.31993 0.3496 0.58182 0.0
C350 C 0.39344 0.53523 0.26619 0.0
O351 O 0.39547 0.52683 0.29141 0.0
Cd352 Cd 0.40582 0.52906 0.35245 0.0
O353 O 0.39635 0.5464 0.2733 0.0
Cd354 Cd 0.40469 0.55752 0.33322 0.0
C355 C 0.43224 0.54431 0.32219 0.0
O356 O 0.39507 0.54513 0.38427 0.0
O357 O 0.41103 0.55515 0.40291 0.0
O358 O 0.38916 0.5737 0.33043 0.0
C359 C 0.40189 0.54858 0.41245 0.0
O360 O 0.4271 0.53484 0.33706 0.0
C361 C 0.3966 0.5824 0.33778 0.0
O362 O 0.42601 0.55393 0.3146 0.0
O363 O 0.40793 0.57965 0.33905 0.0
C364 C 0.22455 0.65523 0.01931 0.0
O365 O 0.23264 0.65925 0.04307 0.0
Cd366 Cd 0.22935 0.67024 0.10221 0.0
O367 O 0.21311 0.65675 0.02665 0.0
Cd368 Cd 0.20135 0.66625 0.08363 0.0
C369 C 0.21241 0.69441 0.06475 0.0
O370 O 0.21431 0.65845 0.13596 0.0
O371 O 0.20348 0.67413 0.15211 0.0
O372 O 0.18609 0.64972 0.08402 0.0
C373 C 0.21036 0.6654 0.16309 0.0
O374 O 0.22214 0.69052 0.08155 0.0
C375 C 0.177 0.65672 0.09091 0.0
O376 O 0.20336 0.68721 0.05867 0.0
O377 O 0.17908 0.66819 0.09047 0.0
C378 C 0.10139 0.48159 0.76577 0.0
O379 O 0.09862 0.48981 0.79093 0.0
Cd380 Cd 0.08987 0.48719 0.85418 0.0
O381 O 0.09976 0.47021 0.77368 0.0
Cd382 Cd 0.09207 0.4588 0.83413 0.0
C383 C 0.06383 0.47102 0.82703 0.0
O384 O 0.10197 0.47159 0.8833 0.0
O385 O 0.0866 0.46122 0.90473 0.0
O386 O 0.10797 0.44296 0.83009 0.0
C387 C 0.0957 0.46803 0.91265 0.0
O388 O 0.06875 0.48056 0.84209 0.0
C389 C 0.10083 0.43414 0.83875 0.0
O390 O 0.07035 0.46172 0.81783 0.0
O391 O 0.08946 0.43663 0.84116 0.0
C392 C 0.27499 0.65059 0.64412 0.0
O393 O 0.26677 0.65395 0.61976 0.0
Cd394 Cd 0.2695 0.66558 0.56163 0.0
O395 O 0.28633 0.65302 0.63782 0.0
Cd396 Cd 0.29781 0.66288 0.58084 0.0
C397 C 0.28551 0.69048 0.59957 0.0
O398 O 0.28521 0.65486 0.52781 0.0
O399 O 0.29546 0.67103 0.51285 0.0
O400 O 0.31368 0.64698 0.57981 0.0
C401 C 0.28876 0.66222 0.50126 0.0
O402 O 0.27592 0.68614 0.58294 0.0
C403 C 0.32253 0.65437 0.57391 0.0
O404 O 0.29487 0.68371 0.60559 0.0
O405 O 0.32001 0.66575 0.5751 0.0
C406 C 0.10348 0.53313 0.38397 0.0
O407 O 0.10078 0.52553 0.35681 0.0
Cd408 Cd 0.09153 0.52965 0.29519 0.0
O409 O 0.1016 0.54464 0.37921 0.0
Cd410 Cd 0.0938 0.55745 0.32187 0.0
C411 C 0.0656 0.54517 0.32758 0.0
O412 O 0.10339 0.5459 0.26899 0.0
O413 O 0.0878 0.5566 0.25135 0.0
O414 O 0.10981 0.57309 0.32815 0.0
C415 C 0.09688 0.55006 0.24107 0.0
O416 O 0.07046 0.53596 0.31027 0.0
C417 C 0.10266 0.58211 0.32201 0.0
O418 O 0.07216 0.55427 0.33842 0.0
O419 O 0.09126 0.57972 0.32022 0.0
C420 C 0.2241 0.3609 0.13823 0.0
O421 O 0.23221 0.35703 0.11422 0.0
Cd422 Cd 0.22896 0.34632 0.05454 0.0
O423 O 0.21267 0.35938 0.13087 0.0
Cd424 Cd 0.20087 0.35015 0.07353 0.0
C425 C 0.21205 0.32194 0.09103 0.0
O426 O 0.21385 0.35818 0.02154 0.0
O427 O 0.20295 0.34262 0.00462 0.0
O428 O 0.18562 0.36668 0.07411 0.0
C429 C 0.20991 0.35135 -0.00592 0.0
O430 O 0.22177 0.32594 0.07437 0.0
C431 C 0.17651 0.35971 0.06726 0.0
O432 O 0.20298 0.32908 0.09743 0.0
O433 O 0.17858 0.34824 0.06715 0.0
C434 C 0.39359 0.47942 0.89349 0.0
O435 O 0.39582 0.48814 0.86962 0.0
Cd436 Cd 0.40662 0.48659 0.80917 0.0
O437 O 0.39652 0.46835 0.88505 0.0
Cd438 Cd 0.40519 0.45806 0.82409 0.0
C439 C 0.4327 0.47095 0.83969 0.0
O440 O 0.39577 0.47111 0.77453 0.0
O441 O 0.41189 0.46149 0.75504 0.0
O442 O 0.38969 0.44181 0.82455 0.0
C443 C 0.40268 0.46804 0.74611 0.0
O444 O 0.42781 0.48064 0.82553 0.0
C445 C 0.39714 0.43325 0.81588 0.0
O446 O 0.4263 0.4613 0.84526 0.0
O447 O 0.40845 0.43605 0.81476 0.0
C448 C 0.11733 0.0976 0.85147 0.0
C449 C 0.10493 0.09427 0.8561 0.0
C450 C 0.12242 0.10695 0.87471 0.0
C451 C 0.11959 0.11845 0.97399 0.0
H452 H 0.14267 0.14357 0.94078 0.0
C453 C 0.15487 0.15711 0.04352 0.0
C454 C 0.16288 0.14942 0.06485 0.0
C455 C 0.14531 0.1521 0.02104 0.0
C456 C 0.13611 0.13671 0.95048 0.0
H457 H 0.08794 0.09876 0.88659 0.0
H458 H 0.09693 0.11492 0.92762 0.0
H459 H 0.1308 0.13233 0.89079 0.0
H460 H 0.16646 0.13061 0.08237 0.0
H461 H 0.14947 0.1219 0.04412 0.0
H462 H 0.12544 0.12232 0.03351 0.0
C463 C 0.10266 0.1103 0.90597 0.0
C464 C 0.12939 0.13026 0.9219 0.0
C465 C 0.09752 0.10111 0.88225 0.0
C466 C 0.16044 0.13676 0.06623 0.0
C467 C 0.15072 0.13178 0.04435 0.0
C468 C 0.12649 0.12474 0.00251 0.0
C469 C 0.11525 0.113 0.90335 0.0
C470 C 0.1212 0.12095 0.93338 0.0
C471 C 0.14342 0.13935 0.02023 0.0
C472 C 0.13493 0.1338 0.99095 0.0
H473 H 0.12327 0.0925 0.8316 0.0
H474 H 0.13216 0.10884 0.87221 0.0
H475 H 0.11343 0.11122 0.98358 0.0
H476 H 0.15654 0.16691 0.04172 0.0
H477 H 0.13974 0.15813 0.00289 0.0
C478 C 0.09787 0.91379 0.28553 0.0
C479 C 0.10533 0.92172 0.30807 0.0
C480 C 0.1031 0.90428 0.26342 0.0
C481 C 0.11932 0.8959 0.19397 0.0
H482 H 0.14428 0.87267 0.22714 0.0
C483 C 0.15977 0.87831 0.09837 0.0
C484 C 0.16264 0.86575 0.10054 0.0
C485 C 0.15022 0.88318 0.12122 0.0
C486 C 0.1372 0.87899 0.21754 0.0
H487 H 0.12392 0.92506 0.32848 0.0
H488 H 0.13301 0.90816 0.29076 0.0
H489 H 0.13263 0.88411 0.27728 0.0
H490 H 0.15723 0.8483 0.12635 0.0
H491 H 0.14073 0.85691 0.16695 0.0
H492 H 0.12444 0.89137 0.13423 0.0
C493 C 0.12314 0.90946 0.28975 0.0
C494 C 0.1306 0.88555 0.24616 0.0
C495 C 0.11794 0.91913 0.31135 0.0
C496 C 0.15522 0.85801 0.12388 0.0
C497 C 0.14583 0.86293 0.14735 0.0
C498 C 0.1261 0.88953 0.16536 0.0
C499 C 0.11584 0.90235 0.26415 0.0
C500 C 0.12172 0.89418 0.23459 0.0
C501 C 0.14352 0.8756 0.14712 0.0
C502 C 0.13521 0.88116 0.17691 0.0
H503 H 0.08811 0.91552 0.28235 0.0
H504 H 0.09728 0.89884 0.24414 0.0
H505 H 0.11262 0.90262 0.18429 0.0
H506 H 0.16535 0.88449 0.08072 0.0
H507 H 0.14862 0.893 0.12065 0.0
C508 C 0.39771 0.91492 0.3805 0.0
C509 C 0.39049 0.92253 0.35613 0.0
C510 C 0.3923 0.90537 0.40205 0.0
C511 C 0.37519 0.89606 0.46805 0.0
H512 H 0.3514 0.87247 0.42891 0.0
C513 C 0.33433 0.87634 0.5573 0.0
C514 C 0.33172 0.86376 0.55305 0.0
C515 C 0.34393 0.88171 0.53585 0.0
C516 C 0.35815 0.8789 0.44022 0.0
H517 H 0.37221 0.9254 0.33241 0.0
H518 H 0.36284 0.90846 0.36917 0.0
H519 H 0.3635 0.8846 0.38175 0.0
H520 H 0.33758 0.84682 0.52484 0.0
H521 H 0.35417 0.85631 0.48677 0.0
H522 H 0.36932 0.89087 0.52649 0.0
C523 C 0.37264 0.91 0.37198 0.0
C524 C 0.365 0.88586 0.41327 0.0
C525 C 0.378 0.9197 0.35096 0.0
C526 C 0.33938 0.85653 0.52888 0.0
C527 C 0.34883 0.86195 0.50686 0.0
C528 C 0.36816 0.88928 0.49498 0.0
C529 C 0.37964 0.9031 0.39896 0.0
C530 C 0.37347 0.89462 0.42696 0.0
C531 C 0.35094 0.87464 0.50929 0.0
C532 C 0.35946 0.88076 0.48129 0.0
H533 H 0.40736 0.91687 0.38522 0.0
H534 H 0.3979 0.9001 0.42244 0.0
H535 H 0.38156 0.90286 0.47937 0.0
H536 H 0.32857 0.88214 0.57564 0.0
H537 H 0.34535 0.89153 0.53812 0.0
C538 C 0.3967 0.1028 0.79126 0.0
C539 C 0.38918 0.09496 0.81393 0.0
C540 C 0.39155 0.1125 0.7698 0.0
C541 C 0.36419 0.13175 0.75518 0.0
H542 H 0.37001 0.12679 0.64262 0.0
C543 C 0.33915 0.16023 0.63609 0.0
C544 C 0.33193 0.15271 0.6114 0.0
C545 C 0.34852 0.15513 0.65923 0.0
C546 C 0.36844 0.12838 0.67395 0.0
H547 H 0.37062 0.09191 0.83511 0.0
H548 H 0.3617 0.10911 0.79855 0.0
H549 H 0.3819 0.11509 0.69132 0.0
H550 H 0.32951 0.1342 0.58906 0.0
H551 H 0.34616 0.12538 0.62853 0.0
H552 H 0.35049 0.14482 0.73773 0.0
C553 C 0.37153 0.10762 0.79696 0.0
C554 C 0.37527 0.12176 0.70179 0.0
C555 C 0.37664 0.09778 0.81788 0.0
C556 C 0.33493 0.14021 0.60779 0.0
C557 C 0.34445 0.13517 0.63035 0.0
C558 C 0.35752 0.13855 0.72734 0.0
C559 C 0.37885 0.1147 0.77132 0.0
C560 C 0.37299 0.12316 0.74262 0.0
C561 C 0.351 0.1425 0.6574 0.0
C562 C 0.35937 0.13669 0.68647 0.0
H563 H 0.40639 0.10087 0.78754 0.0
H564 H 0.39739 0.1179 0.75049 0.0
H565 H 0.36225 0.13297 0.78647 0.0
H566 H 0.33704 0.16989 0.63967 0.0
H567 H 0.3535 0.16097 0.6797 0.0
C568 C 0.83751 0.8576 0.12706 0.0
C569 C 0.82984 0.86412 0.10092 0.0
C570 C 0.84614 0.86382 0.15039 0.0
C571 C 0.85002 0.89472 0.19281 0.0
H572 H 0.8808 0.88183 0.23293 0.0
C573 C 0.87471 0.92038 0.31608 0.0
C574 C 0.88729 0.92243 0.30966 0.0
C575 C 0.86849 0.91131 0.2947 0.0
C576 C 0.87224 0.88557 0.22193 0.0
H577 H 0.82612 0.882 0.07546 0.0
H578 H 0.84151 0.89277 0.11477 0.0
H579 H 0.86962 0.87055 0.18159 0.0
H580 H 0.90346 0.91584 0.27859 0.0
H581 H 0.89258 0.90026 0.24061 0.0
H582 H 0.85271 0.9099 0.23176 0.0
C583 C 0.84053 0.88294 0.11857 0.0
C584 C 0.86579 0.87907 0.19265 0.0
C585 C 0.8318 0.87675 0.09568 0.0
C586 C 0.89375 0.91448 0.28422 0.0
C587 C 0.8875 0.90552 0.26238 0.0
C588 C 0.85645 0.90122 0.22177 0.0
C589 C 0.84735 0.87665 0.14767 0.0
C590 C 0.85462 0.88362 0.17761 0.0
C591 C 0.87468 0.90424 0.26596 0.0
C592 C 0.86763 0.89674 0.23683 0.0
H593 H 0.8362 0.84785 0.13182 0.0
H594 H 0.85122 0.85867 0.17242 0.0
H595 H 0.84132 0.89839 0.18271 0.0
H596 H 0.86951 0.92627 0.33582 0.0
H597 H 0.85869 0.91029 0.29919 0.0
C598 C 0.87786 0.09617 0.84775 0.0
C599 C 0.89041 0.09343 0.85193 0.0
C600 C 0.87259 0.10581 0.86926 0.0
C601 C 0.8651 0.12981 0.91178 0.0
H602 H 0.87009 0.12431 0.02446 0.0
C603 C 0.8397 0.15826 0.02997 0.0
C604 C 0.83214 0.15079 0.05375 0.0
C605 C 0.84918 0.15308 0.00752 0.0
C606 C 0.86875 0.12605 0.99311 0.0
H607 H 0.90745 0.09921 0.87967 0.0
H608 H 0.89816 0.11588 0.9178 0.0
H609 H 0.88218 0.11267 0.976 0.0
H610 H 0.82926 0.13226 0.07535 0.0
H611 H 0.84611 0.12329 0.03706 0.0
H612 H 0.85146 0.14298 0.9289 0.0
C613 C 0.89245 0.11059 0.89777 0.0
C614 C 0.87569 0.11946 0.96542 0.0
C615 C 0.89776 0.1011 0.87571 0.0
C616 C 0.83493 0.13824 0.05732 0.0
C617 C 0.84457 0.13311 0.03542 0.0
C618 C 0.85833 0.13658 0.93948 0.0
C619 C 0.87975 0.11275 0.89576 0.0
C620 C 0.87371 0.12108 0.92452 0.0
C621 C 0.85144 0.1404 0.00912 0.0
C622 C 0.85989 0.13454 0.98037 0.0
H623 H 0.87196 0.09042 0.82968 0.0
H624 H 0.86276 0.10727 0.86728 0.0
H625 H 0.8634 0.13119 0.88042 0.0
H626 H 0.83776 0.16795 0.02647 0.0
H627 H 0.85442 0.15889 0.98764 0.0
C628 C 0.65826 0.13849 0.59482 0.0
C629 C 0.66114 0.15102 0.59862 0.0
C630 C 0.64855 0.1334 0.6165 0.0
C631 C 0.63497 0.13693 0.71261 0.0
H632 H 0.61133 0.11267 0.67692 0.0
C633 C 0.59632 0.10083 0.77775 0.0
C634 C 0.60386 0.09333 0.80145 0.0
C635 C 0.6014 0.11038 0.75542 0.0
C636 C 0.61776 0.11957 0.68727 0.0
H637 H 0.65554 0.1682 0.62582 0.0
H638 H 0.63876 0.15921 0.66425 0.0
H639 H 0.62311 0.12445 0.62804 0.0
H640 H 0.62241 0.09071 0.82326 0.0
H641 H 0.63121 0.10768 0.78518 0.0
H642 H 0.63016 0.1315 0.77184 0.0
C643 C 0.64399 0.15338 0.64439 0.0
C644 C 0.62452 0.12624 0.65934 0.0
C645 C 0.65354 0.15852 0.62214 0.0
C646 C 0.61637 0.09632 0.80526 0.0
C647 C 0.62141 0.10602 0.78347 0.0
C648 C 0.62838 0.13009 0.74054 0.0
C649 C 0.6417 0.14071 0.64279 0.0
C650 C 0.63332 0.13484 0.67177 0.0
C651 C 0.61405 0.11279 0.75708 0.0
C652 C 0.61986 0.12121 0.72811 0.0
H653 H 0.66395 0.13248 0.57697 0.0
H654 H 0.64699 0.12358 0.61483 0.0
H655 H 0.6418 0.14342 0.72296 0.0
H656 H 0.58665 0.09876 0.77408 0.0
H657 H 0.59553 0.11554 0.73551 0.0
C658 C 0.61796 0.91805 0.34318 0.0
C659 C 0.60544 0.92104 0.34661 0.0
C660 C 0.62295 0.90844 0.3655 0.0
C661 C 0.61919 0.89585 0.46258 0.0
H662 H 0.64326 0.87161 0.42995 0.0
C663 C 0.65472 0.85772 0.53329 0.0
C664 C 0.66246 0.86549 0.55538 0.0
C665 C 0.64524 0.86262 0.51025 0.0
C666 C 0.63642 0.87821 0.43945 0.0
H667 H 0.58815 0.91567 0.37365 0.0
H668 H 0.59696 0.89907 0.4132 0.0
H669 H 0.63162 0.88291 0.37957 0.0
H670 H 0.66563 0.88433 0.57356 0.0
H671 H 0.64875 0.89283 0.53436 0.0
H672 H 0.62457 0.89172 0.52238 0.0
C673 C 0.60286 0.90414 0.39315 0.0
C674 C 0.62983 0.88469 0.41067 0.0
C675 C 0.59783 0.91359 0.37027 0.0
C676 C 0.65981 0.87812 0.55686 0.0
C677 C 0.65017 0.88298 0.53444 0.0
C678 C 0.62597 0.88955 0.49133 0.0
C679 C 0.61553 0.9018 0.39205 0.0
C680 C 0.62129 0.8937 0.42199 0.0
C681 C 0.64314 0.87533 0.50966 0.0
C682 C 0.63477 0.88081 0.47997 0.0
H683 H 0.62405 0.92362 0.32522 0.0
H684 H 0.63276 0.90682 0.36421 0.0
H685 H 0.61276 0.90286 0.47205 0.0
H686 H 0.65655 0.84795 0.53139 0.0
H687 H 0.63988 0.85654 0.49154 0.0
C688 C 0.6617 0.63822 0.55527 0.0
C689 C 0.66418 0.65085 0.55193 0.0
C690 C 0.65218 0.63289 0.53335 0.0
C691 C 0.63818 0.63609 0.4377 0.0
H692 H 0.61472 0.61185 0.47479 0.0
C693 C 0.59888 0.60034 0.37466 0.0
C694 C 0.6062 0.59276 0.35045 0.0
C695 C 0.60421 0.6098 0.39681 0.0
C696 C 0.62111 0.61873 0.46406 0.0
H697 H 0.65817 0.6679 0.52487 0.0
H698 H 0.64172 0.65849 0.48595 0.0
H699 H 0.62678 0.62364 0.52296 0.0
H700 H 0.6246 0.58988 0.32765 0.0
H701 H 0.63383 0.6067 0.36539 0.0
H702 H 0.63304 0.63065 0.37876 0.0
C703 C 0.6471 0.65278 0.50572 0.0
C704 C 0.62803 0.6254 0.49158 0.0
C705 C 0.65646 0.65816 0.52822 0.0
C706 C 0.61874 0.59556 0.34603 0.0
C707 C 0.62402 0.60518 0.36762 0.0
C708 C 0.63144 0.62923 0.41016 0.0
C709 C 0.64513 0.64005 0.50721 0.0
C710 C 0.63673 0.63402 0.47862 0.0
C711 C 0.6169 0.61203 0.39446 0.0
C712 C 0.62296 0.62038 0.42311 0.0
H713 H 0.66751 0.63236 0.57323 0.0
H714 H 0.65087 0.62303 0.5349 0.0
H715 H 0.64494 0.6426 0.42697 0.0
H716 H 0.58921 0.5984 0.37883 0.0
H717 H 0.59853 0.61503 0.4171 0.0
C718 C 0.59716 0.41394 0.78079 0.0
C719 C 0.6048 0.42133 0.80458 0.0
C720 C 0.60215 0.40447 0.75788 0.0
C721 C 0.62899 0.38475 0.7413 0.0
H722 H 0.62383 0.39121 0.62923 0.0
C723 C 0.6591 0.37738 0.59578 0.0
C724 C 0.66195 0.36482 0.59866 0.0
C725 C 0.64933 0.38232 0.61748 0.0
C726 C 0.6252 0.3892 0.66039 0.0
H727 H 0.62341 0.42385 0.82592 0.0
H728 H 0.63206 0.407 0.78688 0.0
H729 H 0.61207 0.40269 0.67895 0.0
H730 H 0.6562 0.34744 0.62412 0.0
H731 H 0.6393 0.35615 0.66262 0.0
H732 H 0.64236 0.3715 0.72277 0.0
C733 C 0.62225 0.40868 0.78555 0.0
C734 C 0.61845 0.39569 0.6888 0.0
C735 C 0.61731 0.41831 0.80788 0.0
C736 C 0.65424 0.35715 0.62118 0.0
C737 C 0.64461 0.36213 0.64345 0.0
C738 C 0.63556 0.37808 0.71289 0.0
C739 C 0.61481 0.40204 0.75906 0.0
C740 C 0.62052 0.39375 0.7295 0.0
C741 C 0.64236 0.37482 0.64288 0.0
C742 C 0.63395 0.38047 0.67222 0.0
H743 H 0.58749 0.41606 0.77747 0.0
H744 H 0.59623 0.39941 0.73787 0.0
H745 H 0.63076 0.38312 0.77249 0.0
H746 H 0.66489 0.38352 0.5787 0.0
H747 H 0.64779 0.39215 0.61662 0.0
C748 C 0.87787 0.41874 0.84512 0.0
C749 C 0.89043 0.42154 0.84868 0.0
C750 C 0.87277 0.40901 0.86662 0.0
C751 C 0.87653 0.39537 0.9624 0.0
H752 H 0.85178 0.37209 0.92783 0.0
C753 C 0.84022 0.35735 0.02986 0.0
C754 C 0.83292 0.36503 0.05374 0.0
C755 C 0.84971 0.36227 0.00683 0.0
C756 C 0.85881 0.37842 0.93785 0.0
H757 H 0.90767 0.41572 0.87505 0.0
H758 H 0.89867 0.3989 0.91315 0.0
H759 H 0.86356 0.38366 0.8784 0.0
H760 H 0.8305 0.38368 0.07493 0.0
H761 H 0.84736 0.3922 0.03564 0.0
H762 H 0.87124 0.3907 0.02186 0.0
C763 C 0.89282 0.40422 0.89365 0.0
C764 C 0.86548 0.38506 0.90961 0.0
C765 C 0.89796 0.4138 0.8716 0.0
C766 C 0.83598 0.37753 0.05683 0.0
C767 C 0.84562 0.38241 0.03436 0.0
C768 C 0.86969 0.38891 0.99063 0.0
C769 C 0.88011 0.40204 0.89246 0.0
C770 C 0.87427 0.39373 0.92166 0.0
C771 C 0.85222 0.37491 0.00796 0.0
C772 C 0.86064 0.38053 0.9786 0.0
H773 H 0.87185 0.42454 0.82771 0.0
H774 H 0.86294 0.40754 0.86528 0.0
H775 H 0.88316 0.40212 0.97246 0.0
H776 H 0.83808 0.34768 0.02672 0.0
H777 H 0.85474 0.3563 0.98688 0.0
C778 C 0.83627 0.63585 0.09778 0.0
C779 C 0.83335 0.6484 0.09985 0.0
C780 C 0.84599 0.63109 0.12011 0.0
C781 C 0.85979 0.63575 0.21532 0.0
H782 H 0.88381 0.61169 0.18106 0.0
C783 C 0.89923 0.6008 0.28194 0.0
C784 C 0.89183 0.5933 0.30615 0.0
C785 C 0.89396 0.61019 0.25934 0.0
C786 C 0.87728 0.61854 0.191 0.0
H787 H 0.8388 0.66594 0.12495 0.0
H788 H 0.8556 0.65753 0.16462 0.0
H789 H 0.87166 0.62278 0.13154 0.0
H790 H 0.87338 0.59052 0.32866 0.0
H791 H 0.86426 0.60719 0.29007 0.0
H792 H 0.86486 0.63095 0.27486 0.0
C793 C 0.8504 0.65143 0.14553 0.0
C794 C 0.8703 0.62481 0.16271 0.0
C795 C 0.84085 0.65623 0.12259 0.0
C796 C 0.8793 0.59614 0.31025 0.0
C797 C 0.87408 0.60568 0.28818 0.0
C798 C 0.86659 0.6293 0.24365 0.0
C799 C 0.85281 0.63877 0.14539 0.0
C800 C 0.86136 0.63333 0.17465 0.0
C801 C 0.88127 0.61241 0.26121 0.0
C802 C 0.87526 0.6205 0.23173 0.0
H803 H 0.83065 0.6296 0.08056 0.0
H804 H 0.84764 0.62128 0.11963 0.0
H805 H 0.85285 0.64219 0.22528 0.0
H806 H 0.90891 0.59884 0.27805 0.0
H807 H 0.8997 0.61532 0.23897 0.0
C808 C 0.33752 0.37799 0.5936 0.0
C809 C 0.33455 0.36546 0.59623 0.0
C810 C 0.34741 0.38277 0.6151 0.0
C811 C 0.37172 0.38939 0.65673 0.0
H812 H 0.36691 0.38298 0.76899 0.0
C813 C 0.40023 0.41425 0.77558 0.0
C814 C 0.39266 0.42134 0.80052 0.0
C815 C 0.39524 0.40478 0.75268 0.0
C816 C 0.36848 0.3847 0.73774 0.0
H817 H 0.34014 0.34796 0.62119 0.0
H818 H 0.35726 0.3564 0.65935 0.0
H819 H 0.35497 0.3715 0.71981 0.0
H820 H 0.3742 0.42334 0.82379 0.0
H821 H 0.36556 0.40653 0.78465 0.0
H822 H 0.38495 0.40286 0.6747 0.0
C823 C 0.35196 0.36247 0.64053 0.0
C824 C 0.36172 0.37811 0.70962 0.0
C825 C 0.34221 0.35765 0.61847 0.0
C826 C 0.38025 0.41804 0.80482 0.0
C827 C 0.37531 0.40842 0.78246 0.0
C828 C 0.37865 0.39582 0.68482 0.0
C829 C 0.35438 0.37514 0.64005 0.0
C830 C 0.36303 0.38064 0.66892 0.0
C831 C 0.38265 0.40206 0.75497 0.0
C832 C 0.37684 0.39377 0.7256 0.0
H833 H 0.33179 0.38422 0.57673 0.0
H834 H 0.34906 0.39258 0.61434 0.0
H835 H 0.37289 0.3915 0.62554 0.0
H836 H 0.40983 0.41659 0.77152 0.0
H837 H 0.40109 0.39994 0.73189 0.0
C838 C 0.34196 0.65781 0.53615 0.0
C839 C 0.33449 0.64995 0.55887 0.0
C840 C 0.35157 0.65306 0.51329 0.0
C841 C 0.36099 0.63745 0.44345 0.0
H842 H 0.38483 0.61315 0.47719 0.0
C843 C 0.37964 0.59754 0.34824 0.0
C844 C 0.39211 0.59443 0.35209 0.0
C845 C 0.37468 0.60722 0.37036 0.0
C846 C 0.37836 0.62007 0.46739 0.0
H847 H 0.33192 0.63114 0.57826 0.0
H848 H 0.34898 0.62291 0.53931 0.0
H849 H 0.37287 0.62436 0.52696 0.0
H850 H 0.40936 0.59959 0.37974 0.0
H851 H 0.4006 0.61632 0.41893 0.0
H852 H 0.36593 0.6326 0.38381 0.0
C853 C 0.34728 0.63271 0.53879 0.0
C854 C 0.37149 0.62641 0.49583 0.0
C855 C 0.33751 0.63742 0.56106 0.0
C856 C 0.39972 0.60178 0.37606 0.0
C857 C 0.39471 0.6113 0.39871 0.0
C858 C 0.3677 0.63094 0.41498 0.0
C859 C 0.35405 0.64041 0.51347 0.0
C860 C 0.36259 0.635 0.48408 0.0
C861 C 0.38207 0.61381 0.39711 0.0
C862 C 0.37629 0.62204 0.4267 0.0
H863 H 0.33984 0.6675 0.53371 0.0
H864 H 0.35672 0.65918 0.49417 0.0
H865 H 0.35409 0.64394 0.43363 0.0
H866 H 0.37355 0.59205 0.33001 0.0
H867 H 0.36489 0.60894 0.36869 0.0
C868 C 0.12011 0.5968 0.31288 0.0
C869 C 0.10754 0.59413 0.30898 0.0
C870 C 0.12537 0.60648 0.29151 0.0
C871 C 0.12212 0.62019 0.19572 0.0
H872 H 0.14638 0.64378 0.23172 0.0
C873 C 0.15764 0.65915 0.12987 0.0
C874 C 0.16528 0.65173 0.1062 0.0
C875 C 0.14829 0.6539 0.15268 0.0
C876 C 0.1395 0.63735 0.22131 0.0
H877 H 0.09044 0.60009 0.28202 0.0
H878 H 0.09971 0.61681 0.24413 0.0
H879 H 0.13455 0.63197 0.28048 0.0
H880 H 0.16845 0.63317 0.08525 0.0
H881 H 0.15179 0.62406 0.1241 0.0
H882 H 0.12761 0.62502 0.13657 0.0
C883 C 0.10545 0.61144 0.26382 0.0
C884 C 0.1328 0.63058 0.24915 0.0
C885 C 0.10015 0.60192 0.28576 0.0
C886 C 0.1627 0.63912 0.10317 0.0
C887 C 0.15318 0.63391 0.12539 0.0
C888 C 0.129 0.62677 0.16789 0.0
C889 C 0.11817 0.61351 0.26544 0.0
C890 C 0.12416 0.62183 0.23658 0.0
C891 C 0.14623 0.64118 0.15151 0.0
C892 C 0.13786 0.63529 0.18046 0.0
H893 H 0.12603 0.59095 0.3305 0.0
H894 H 0.13521 0.60788 0.29318 0.0
H895 H 0.11561 0.61339 0.18529 0.0
H896 H 0.15943 0.6689 0.13299 0.0
H897 H 0.14299 0.65969 0.17244 0.0
C898 C 0.11823 0.4194 0.84805 0.0
C899 C 0.10574 0.42228 0.85312 0.0
C900 C 0.12359 0.40985 0.86971 0.0
C901 C 0.13113 0.38594 0.91261 0.0
H902 H 0.12715 0.3919 0.02549 0.0
C903 C 0.15687 0.35738 0.02969 0.0
C904 C 0.16472 0.36475 0.0528 0.0
C905 C 0.14737 0.36268 0.00769 0.0
C906 C 0.12821 0.39004 -0.00591 0.0
H907 H 0.08889 0.41687 0.88281 0.0
H908 H 0.09834 0.40035 0.92118 0.0
H909 H 0.11486 0.40358 0.97771 0.0
H910 H 0.1681 0.38328 0.07365 0.0
H911 H 0.15121 0.39249 0.03618 0.0
H912 H 0.14468 0.37259 0.92897 0.0
C913 C 0.10393 0.40546 0.90033 0.0
C914 C 0.12116 0.39665 0.9668 0.0
C915 C 0.09853 0.41486 0.87813 0.0
C916 C 0.16221 0.37737 0.05612 0.0
C917 C 0.15255 0.38264 0.0347 0.0
C918 C 0.138 0.37915 0.93993 0.0
C919 C 0.11659 0.40315 0.89727 0.0
C920 C 0.12277 0.39486 0.9258 0.0
C921 C 0.14537 0.37541 0.0091 0.0
C922 C 0.13681 0.38135 0.98087 0.0
H923 H 0.12402 0.42497 0.82904 0.0
H924 H 0.13338 0.40826 0.86691 0.0
H925 H 0.13254 0.38441 0.88116 0.0
H926 H 0.15859 0.34763 0.02638 0.0
H927 H 0.14189 0.35691 0.98836 0.0
C928 C 0.21363 0.17473 0.94056 0.0
C929 C 0.21217 0.1635 0.96052 0.0
C930 C 0.22071 0.17531 0.90606 0.0
C931 C 0.23352 0.15763 0.82442 0.0
H932 H 0.26192 0.17902 0.83313 0.0
C933 C 0.2731 0.15391 0.71364 0.0
C934 C 0.27857 0.16485 0.70059 0.0
C935 C 0.2651 0.15399 0.74592 0.0
C936 C 0.25395 0.17315 0.82985 0.0
H937 H 0.21616 0.14401 0.95907 0.0
H938 H 0.22823 0.14498 0.89796 0.0
H939 H 0.24633 0.17916 0.88516 0.0
H940 H 0.28036 0.18438 0.7115 0.0
H941 H 0.26604 0.18465 0.76711 0.0
H942 H 0.24088 0.15175 0.7689 0.0
C943 C 0.22405 0.15331 0.90928 0.0
C944 C 0.24505 0.17324 0.85964 0.0
C945 C 0.2172 0.15277 0.94416 0.0
C946 C 0.27632 0.1758 0.72126 0.0
C947 C 0.26812 0.17594 0.75314 0.0
C948 C 0.2423 0.15768 0.7943 0.0
C949 C 0.22616 0.16464 0.89069 0.0
C950 C 0.23486 0.16538 0.85733 0.0
C951 C 0.26221 0.16507 0.76528 0.0
C952 C 0.25273 0.1653 0.79693 0.0
H953 H 0.20989 0.18315 0.95273 0.0
H954 H 0.22221 0.18413 0.89195 0.0
H955 H 0.22568 0.15153 0.82208 0.0
H956 H 0.2748 0.14533 0.69831 0.0
H957 H 0.26102 0.14539 0.75521 0.0
C958 C 0.09179 0.96991 0.16914 0.0
C959 C 0.09962 0.97219 0.20142 0.0
C960 C 0.09278 0.97696 0.13465 0.0
C961 C 0.09041 -0.00025 0.08386 0.0
H962 H 0.12131 0.01192 0.04205 0.0
C963 C 0.09203 0.04078 0.97709 0.0
C964 C 0.09974 0.03943 0.94399 0.0
C965 C 0.09282 0.03252 0.00869 0.0
C966 C 0.1126 0.00854 0.05321 0.0
H967 H 0.11516 0.98293 0.22201 0.0
H968 H 0.11675 0.99529 0.16239 0.0
H969 H 0.12142 0.99597 0.09273 0.0
H970 H 0.11475 0.02884 0.91882 0.0
H971 H 0.11598 0.01439 0.97345 0.0
H972 H 0.08159 0.01213 0.04381 0.0
C973 C 0.10991 0.98807 0.16336 0.0
C974 C 0.11267 -0.00053 0.08239 0.0
C975 C 0.10894 0.98104 0.19768 0.0
C976 C 0.10864 0.03008 0.94389 0.0
C977 C 0.10939 0.02183 0.97531 0.0
C978 C 0.09034 0.00878 0.05455 0.0
C979 C 0.10161 0.98635 0.13196 0.0
C980 C 0.10158 0.99506 0.09828 0.0
C981 C 0.10132 0.0228 0.00764 0.0
C982 C 0.10144 0.01334 0.03917 0.0
H983 H 0.08458 0.96308 0.17114 0.0
H984 H 0.0864 0.97529 0.11056 0.0
H985 H 0.08171 0.99668 0.09593 0.0
H986 H 0.08514 0.04795 0.97803 0.0
H987 H 0.08664 0.03363 0.03363 0.0
C988 C 0.21832 0.86293 0.21426 0.0
C989 C 0.21328 0.85215 0.19819 0.0
C990 C 0.22541 0.86242 0.24865 0.0
C991 C 0.24672 0.84264 0.29787 0.0
H992 H 0.24237 0.86402 0.3888 0.0
C993 C 0.27747 0.83987 0.4374 0.0
C994 C 0.27958 0.85078 0.45849 0.0
C995 C 0.2695 0.83982 0.40494 0.0
C996 C 0.24385 0.85813 0.36334 0.0
H997 H 0.21127 0.83248 0.2059 0.0
H998 H 0.22398 0.83157 0.26582 0.0
H999 H 0.22723 0.86422 0.33555 0.0
H1000 H 0.27585 0.87031 0.46089 0.0
H1001 H 0.26248 0.87039 0.40302 0.0
H1002 H 0.26358 0.83689 0.32451 0.0
C1003 C 0.22232 0.84038 0.25186 0.0
C1004 C 0.2351 0.85817 0.33316 0.0
C1005 C 0.21502 0.84092 0.21787 0.0
C1006 C 0.27425 0.86176 0.44523 0.0
C1007 C 0.26649 0.86176 0.41239 0.0
C1008 C 0.25559 0.84274 0.32774 0.0
C1009 C 0.22773 0.8511 0.26702 0.0
C1010 C 0.23649 0.85045 0.3002 0.0
C1011 C 0.26368 0.85072 0.39267 0.0
C1012 C 0.2543 0.85054 0.36075 0.0
H1013 H 0.21709 0.87169 0.19957 0.0
H1014 H 0.22955 0.87079 0.25981 0.0
H1015 H 0.24803 0.83674 0.27232 0.0
H1016 H 0.28141 0.83127 0.44731 0.0
H1017 H 0.26749 0.83114 0.39067 0.0
C1018 C 0.40821 0.04269 0.68284 0.0
C1019 C 0.39757 0.04473 0.70542 0.0
C1020 C 0.40783 0.03491 0.64997 0.0
C1021 C 0.38906 0.00928 0.61057 0.0
H1022 H 0.41125 0.01212 0.52101 0.0
C1023 C 0.38787 0.98028 0.46577 0.0
C1024 C 0.39912 0.97489 0.45519 0.0
C1025 C 0.38722 0.98829 0.49801 0.0
C1026 C 0.40508 0.01123 0.54606 0.0
H1027 H 0.37804 0.04119 0.70982 0.0
H1028 H 0.37718 0.02816 0.65106 0.0
H1029 H 0.4104 0.02858 0.57006 0.0
H1030 H 0.41841 0.97319 0.47055 0.0
H1031 H 0.41729 0.9875 0.52652 0.0
H1032 H 0.38348 0.99207 0.58531 0.0
C1033 C 0.38595 0.03207 0.65962 0.0
C1034 C 0.40458 0.02061 0.57419 0.0
C1035 C 0.38638 0.03964 0.69297 0.0
C1036 C 0.4096 0.97718 0.47832 0.0
C1037 C 0.409 0.9854 0.51002 0.0
C1038 C 0.38938 2e-05 0.58197 0.0
C1039 C 0.39675 0.02922 0.63864 0.0
C1040 C 0.39666 0.0197 0.60705 0.0
C1041 C 0.39786 0.99119 0.51949 0.0
C1042 C 0.3975 0.00088 0.54985 0.0
H1043 H 0.41698 0.04644 0.69204 0.0
H1044 H 0.41637 0.03286 0.63489 0.0
H1045 H 0.38304 0.00809 0.63587 0.0
H1046 H 0.37968 0.97864 0.4483 0.0
H1047 H 0.37854 0.99269 0.50491 0.0
C1048 C 0.77597 0.83836 0.21386 0.0
C1049 C 0.77792 0.84925 0.19256 0.0
C1050 C 0.76795 0.83824 0.24623 0.0
C1051 C 0.74202 0.85626 0.28765 0.0
H1052 H 0.74677 0.83537 0.3795 0.0
C1053 C 0.71729 0.86166 0.43789 0.0
C1054 C 0.71237 0.85096 0.45481 0.0
C1055 C 0.72415 0.861 0.40305 0.0
C1056 C 0.74529 0.84112 0.35372 0.0
H1057 H 0.77383 0.8687 0.18961 0.0
H1058 H 0.76037 0.86868 0.2473 0.0
H1059 H 0.76214 0.83546 0.32675 0.0
H1060 H 0.71035 0.83124 0.44819 0.0
H1061 H 0.72269 0.83007 0.38746 0.0
H1062 H 0.72543 0.8623 0.31581 0.0
C1063 C 0.76454 0.8601 0.23817 0.0
C1064 C 0.75407 0.84119 0.32352 0.0
C1065 C 0.77235 0.86016 0.20544 0.0
C1066 C 0.714 0.83963 0.43555 0.0
C1067 C 0.7211 0.83894 0.40109 0.0
C1068 C 0.73337 0.85634 0.31815 0.0
C1069 C 0.76192 0.84907 0.25817 0.0
C1070 C 0.75258 0.84883 0.29024 0.0
C1071 C 0.72639 0.8496 0.38507 0.0
C1072 C 0.73497 0.84881 0.35143 0.0
H1073 H 0.7801 0.82981 0.20425 0.0
H1074 H 0.76609 0.82957 0.26072 0.0
H1075 H 0.74039 0.86202 0.26199 0.0
H1076 H 0.71613 0.87049 0.45226 0.0
H1077 H 0.7282 0.86932 0.39122 0.0
C1078 C 0.91136 0.04013 0.97595 0.0
C1079 C 0.90058 0.0424 0.95427 0.0
C1080 C 0.91108 0.03226 0.00861 0.0
C1081 C 0.89205 0.01852 0.08439 0.0
H1082 H 0.9124 0.98951 0.07196 0.0
C1083 C 0.88819 0.97875 0.19445 0.0
C1084 C 0.89919 0.9732 0.20645 0.0
C1085 C 0.888 0.98655 0.16167 0.0
C1086 C 0.90679 0.99762 0.07626 0.0
H1087 H 0.88099 0.03899 0.9509 0.0
H1088 H 0.88045 0.02555 0.00906 0.0
H1089 H 0.91326 0.00579 0.02232 0.0
H1090 H 0.91854 0.97095 0.19297 0.0
H1091 H 0.91837 0.98493 0.13672 0.0
H1092 H 0.88586 0.01071 0.13887 0.0
C1093 C 0.88909 0.02971 0.00037 0.0
C1094 C 0.90729 0.0069 0.04781 0.0
C1095 C 0.88941 0.03736 0.96723 0.0
C1096 C 0.9099 0.97506 0.18407 0.0
C1097 C 0.90978 0.98307 0.15176 0.0
C1098 C 0.89172 0.00935 0.11327 0.0
C1099 C 0.89999 0.02681 0.02045 0.0
C1100 C 0.89989 0.01738 0.05166 0.0
C1101 C 0.89889 0.98917 0.14081 0.0
C1102 C 0.89904 -0.00125 0.10947 0.0
H1103 H 0.92011 0.04385 0.96636 0.0
H1104 H 0.91957 0.03015 0.02396 0.0
H1105 H 0.88628 0.02657 0.08783 0.0
H1106 H 0.87979 0.97735 0.21115 0.0
H1107 H 0.87937 0.99078 0.15337 0.0
C1108 C 0.77451 0.15077 0.94521 0.0
C1109 C 0.77986 0.16182 0.9578 0.0
C1110 C 0.76665 0.1506 0.91261 0.0
C1111 C 0.75525 0.16946 0.8281 0.0
H1112 H 0.72683 0.14813 0.83805 0.0
C1113 C 0.71344 0.17263 0.72425 0.0
C1114 C 0.7115 0.16169 0.70306 0.0
C1115 C 0.72106 0.17268 0.75756 0.0
C1116 C 0.73472 0.15413 0.83507 0.0
H1117 H 0.78163 0.18128 0.94563 0.0
H1118 H 0.76753 0.18113 0.88959 0.0
H1119 H 0.74249 0.14808 0.88977 0.0
H1120 H 0.71521 0.14214 0.70126 0.0
H1121 H 0.72821 0.14218 0.76044 0.0
H1122 H 0.74716 0.17573 0.77382 0.0
C1123 C 0.76961 0.17251 0.90408 0.0
C1124 C 0.74377 0.15402 0.86435 0.0
C1125 C 0.77768 0.17262 0.93625 0.0
C1126 C 0.71659 0.15068 0.71716 0.0
C1127 C 0.724 0.1507 0.75091 0.0
C1128 C 0.74608 0.16972 0.79921 0.0
C1129 C 0.76376 0.16154 0.8925 0.0
C1130 C 0.75421 0.16161 0.86107 0.0
C1131 C 0.72658 0.16176 0.77053 0.0
C1132 C 0.7358 0.16201 0.80243 0.0
H1133 H 0.77616 0.14231 0.96126 0.0
H1134 H 0.76261 0.14193 0.90379 0.0
H1135 H 0.76323 0.17529 0.82424 0.0
H1136 H 0.70967 0.18126 0.71383 0.0
H1137 H 0.72291 0.1813 0.77254 0.0
C1138 C 0.60702 0.03568 0.69154 0.0
C1139 C 0.59581 0.04111 0.70235 0.0
C1140 C 0.60761 0.02776 0.65908 0.0
C1141 C 0.58953 0.00509 0.61045 0.0
H1142 H 0.61171 0.00815 0.52098 0.0
C1143 C 0.58632 0.97381 0.47323 0.0
C1144 C 0.59699 0.97165 0.45094 0.0
C1145 C 0.5867 0.98159 0.50611 0.0
C1146 C 0.60564 0.00699 0.54618 0.0
H1147 H 0.57653 0.04297 0.68708 0.0
H1148 H 0.57754 0.02882 0.63071 0.0
H1149 H 0.61138 0.02409 0.57183 0.0
H1150 H 0.61657 0.97501 0.447 0.0
H1151 H 0.61741 0.98803 0.50575 0.0
H1152 H 0.58406 0.98783 0.58605 0.0
C1153 C 0.58585 0.03082 0.64723 0.0
C1154 C 0.60538 0.0162 0.57495 0.0
C1155 C 0.58531 0.03895 0.67918 0.0
C1156 C 0.6082 0.97664 0.46362 0.0
C1157 C 0.60864 0.98421 0.49698 0.0
C1158 C 0.58996 0.99575 0.58215 0.0
C1159 C 0.59695 0.02498 0.63756 0.0
C1160 C 0.59723 0.01536 0.60697 0.0
C1161 C 0.59781 0.98716 0.51772 0.0
C1162 C 0.59794 0.99664 0.54942 0.0
H1163 H 0.61523 0.03723 0.70903 0.0
H1164 H 0.61625 0.02332 0.65202 0.0
H1165 H 0.58332 0.0042 0.63542 0.0
H1166 H 0.57754 0.97014 0.46384 0.0
H1167 H 0.57815 0.98372 0.52101 0.0
C1168 C 0.71673 0.67554 0.43405 0.0
C1169 C 0.7151 0.66461 0.45555 0.0
C1170 C 0.72401 0.67561 0.39992 0.0
C1171 C 0.73679 0.65658 0.32151 0.0
H1172 H 0.76518 0.67811 0.32581 0.0
C1173 C 0.77595 0.65106 0.21015 0.0
C1174 C 0.78123 0.66179 0.19471 0.0
C1175 C 0.76818 0.65165 0.24295 0.0
C1176 C 0.75722 0.67218 0.32378 0.0
H1177 H 0.7191 0.64512 0.45738 0.0
H1178 H 0.73151 0.64518 0.39695 0.0
H1179 H 0.74968 0.67912 0.37809 0.0
H1180 H 0.78297 0.68149 0.20204 0.0
H1181 H 0.76905 0.68263 0.25858 0.0
H1182 H 0.74405 0.64977 0.26698 0.0
C1183 C 0.72731 0.65368 0.40676 0.0
C1184 C 0.74837 0.67277 0.3537 0.0
C1185 C 0.72025 0.65365 0.44126 0.0
C1186 C 0.77907 0.67307 0.21363 0.0
C1187 C 0.7711 0.6737 0.24605 0.0
C1188 C 0.74552 0.65611 0.29127 0.0
C1189 C 0.7295 0.66471 0.38647 0.0
C1190 C 0.73818 0.66487 0.35298 0.0
C1191 C 0.76532 0.66303 0.26046 0.0
C1192 C 0.75594 0.66378 0.29234 0.0
H1193 H 0.7129 0.68412 0.44465 0.0
H1194 H 0.72557 0.68419 0.38448 0.0
H1195 H 0.72895 0.65045 0.32036 0.0
H1196 H 0.77758 0.64224 0.1962 0.0
H1197 H 0.7642 0.6432 0.25402 0.0
C1198 C 0.58549 0.53924 0.47297 0.0
C1199 C 0.59621 0.54108 0.45063 0.0
C1200 C 0.58555 0.53119 0.50517 0.0
C1201 C 0.60341 0.50477 0.54356 0.0
H1202 H 0.58206 0.50864 0.63487 0.0
C1203 C 0.60585 0.47702 0.68995 0.0
C1204 C 0.59465 0.47224 0.70376 0.0
C1205 C 0.60612 0.48452 0.65646 0.0
C1206 C 0.58797 0.50743 0.60926 0.0
H1207 H 0.61559 0.53681 0.44591 0.0
H1208 H 0.61591 0.52328 0.50346 0.0
H1209 H 0.58298 0.52485 0.58504 0.0
H1210 H 0.57505 0.47105 0.69276 0.0
H1211 H 0.57552 0.48449 0.63451 0.0
H1212 H 0.60872 0.48753 0.56909 0.0
C1213 C 0.60731 0.52758 0.49521 0.0
C1214 C 0.5885 0.51668 0.58072 0.0
C1215 C 0.60718 0.53543 0.46256 0.0
C1216 C 0.58381 0.47458 0.68253 0.0
C1217 C 0.58405 0.4823 0.6495 0.0
C1218 C 0.60303 0.49563 0.57253 0.0
C1219 C 0.59641 0.52502 0.51605 0.0
C1220 C 0.59619 0.51545 0.54741 0.0
C1221 C 0.59517 0.48752 0.63684 0.0
C1222 C 0.59526 0.49688 0.6054 0.0
H1223 H 0.57688 0.54341 0.46416 0.0
H1224 H 0.57695 0.52937 0.5202 0.0
H1225 H 0.60922 0.50335 0.51789 0.0
H1226 H 0.61432 0.47532 0.70591 0.0
H1227 H 0.61478 0.4885 0.64716 0.0
C1228 C 0.71355 0.34331 0.72661 0.0
C1229 C 0.71174 0.35424 0.7053 0.0
C1230 C 0.72098 0.34327 0.76033 0.0
C1231 C 0.73445 0.36183 0.83839 0.0
H1232 H 0.76304 0.34078 0.82781 0.0
C1233 C 0.77436 0.36553 0.94817 0.0
C1234 C 0.77986 0.35455 0.96064 0.0
C1235 C 0.76638 0.3656 0.91586 0.0
C1236 C 0.75504 0.34657 0.83163 0.0
H1237 H 0.71546 0.3738 0.70373 0.0
H1238 H 0.72815 0.37377 0.76362 0.0
H1239 H 0.74702 0.34025 0.77728 0.0
H1240 H 0.78172 0.33508 0.94859 0.0
H1241 H 0.76742 0.33505 0.89311 0.0
H1242 H 0.74216 0.36794 0.89314 0.0
C1243 C 0.72397 0.36525 0.75387 0.0
C1244 C 0.74589 0.34626 0.80267 0.0
C1245 C 0.71675 0.36526 0.71971 0.0
C1246 C 0.77766 0.3437 0.93931 0.0
C1247 C 0.76947 0.34371 0.90746 0.0
C1248 C 0.74347 0.36198 0.86775 0.0
C1249 C 0.72646 0.35419 0.7736 0.0
C1250 C 0.73559 0.35394 0.80575 0.0
C1251 C 0.76351 0.35461 0.89593 0.0
C1252 C 0.75394 0.35443 0.86455 0.0
H1253 H 0.70983 0.33469 0.71595 0.0
H1254 H 0.72277 0.33466 0.77538 0.0
H1255 H 0.72654 0.3678 0.84126 0.0
H1256 H 0.77601 0.37404 0.96405 0.0
H1257 H 0.76225 0.37423 0.90708 0.0
C1258 C 0.91115 0.5391 0.18418 0.0
C1259 C 0.90061 0.54119 0.20714 0.0
C1260 C 0.91073 0.53102 0.15208 0.0
C1261 C 0.89207 0.50496 0.11476 0.0
H1262 H 0.91321 0.50822 0.02273 0.0
C1263 C 0.88898 0.47707 0.96821 0.0
C1264 C 0.90008 0.47192 0.955 0.0
C1265 C 0.88879 0.48464 0.00159 0.0
C1266 C 0.90735 0.50719 0.04851 0.0
H1267 H 0.8812 0.53728 0.21317 0.0
H1268 H 0.88023 0.52372 0.15575 0.0
H1269 H 0.91279 0.52453 0.0723 0.0
H1270 H 0.91958 0.47014 0.96706 0.0
H1271 H 0.91927 0.48369 0.02503 0.0
H1272 H 0.88629 0.4878 0.08961 0.0
C1273 C 0.88897 0.52784 0.16343 0.0
C1274 C 0.90711 0.5165 0.07693 0.0
C1275 C 0.88946 0.53572 0.19602 0.0
C1276 C 0.91089 0.47395 0.97679 0.0
C1277 C 0.91074 0.48173 0.00968 0.0
C1278 C 0.89213 0.49578 0.08588 0.0
C1279 C 0.89969 0.52506 0.1419 0.0
C1280 C 0.89952 0.51547 0.11057 0.0
C1281 C 0.89974 0.48734 0.02166 0.0
C1282 C 0.89985 0.4968 0.05279 0.0
H1283 H 0.91991 0.54313 0.19241 0.0
H1284 H 0.91921 0.52901 0.13654 0.0
H1285 H 0.88632 0.5037 0.14066 0.0
H1286 H 0.88054 0.47562 0.95181 0.0
H1287 H 0.88023 0.48892 0.0104 0.0
C1288 C 0.28045 0.34223 0.71527 0.0
C1289 C 0.28271 0.35339 0.6958 0.0
C1290 C 0.27251 0.34184 0.74781 0.0
C1291 C 0.24713 0.3599 0.7922 0.0
H1292 H 0.25078 0.33695 0.87933 0.0
C1293 C 0.22119 0.36249 0.94121 0.0
C1294 C 0.21591 0.35154 0.95507 0.0
C1295 C 0.22841 0.36247 0.90706 0.0
C1296 C 0.24961 0.34329 0.85486 0.0
H1297 H 0.27931 0.37299 0.69646 0.0
H1298 H 0.26599 0.37245 0.7545 0.0
H1299 H 0.26646 0.33776 0.82759 0.0
H1300 H 0.21364 0.33207 0.94371 0.0
H1301 H 0.22659 0.332 0.88418 0.0
H1302 H 0.23052 0.36574 0.82067 0.0
C1303 C 0.26986 0.36391 0.74378 0.0
C1304 C 0.25857 0.34377 0.82525 0.0
C1305 C 0.2776 0.36425 0.71085 0.0
C1306 C 0.21757 0.34064 0.93345 0.0
C1307 C 0.22501 0.34057 0.89968 0.0
C1308 C 0.2383 0.35956 0.82216 0.0
C1309 C 0.26687 0.35264 0.76179 0.0
C1310 C 0.25746 0.35213 0.79362 0.0
C1311 C 0.23064 0.35146 0.88671 0.0
C1312 C 0.23949 0.35127 0.85369 0.0
H1313 H 0.28422 0.33371 0.70399 0.0
H1314 H 0.27036 0.33299 0.76071 0.0
H1315 H 0.24578 0.36622 0.76778 0.0
H1316 H 0.22002 0.37101 0.95743 0.0
H1317 H 0.23271 0.37096 0.8976 0.0
C1318 C 0.3903 0.5368 0.46342 0.0
C1319 C 0.40134 0.54224 0.45088 0.0
C1320 C 0.39011 0.52925 0.49684 0.0
C1321 C 0.40897 0.50751 0.54719 0.0
H1322 H 0.38713 0.5113 0.63724 0.0
C1323 C 0.41269 0.477 0.68619 0.0
C1324 C 0.402 0.47467 0.70821 0.0
C1325 C 0.41231 0.4849 0.65362 0.0
C1326 C 0.39312 0.50994 0.61196 0.0
H1327 H 0.42073 0.54445 0.464 0.0
H1328 H 0.42042 0.53095 0.52202 0.0
H1329 H 0.38698 0.5266 0.58441 0.0
H1330 H 0.38242 0.47801 0.71223 0.0
H1331 H 0.38159 0.49126 0.65408 0.0
H1332 H 0.41483 0.49066 0.57345 0.0
C1333 C 0.41194 0.53265 0.50609 0.0
C1334 C 0.3931 0.51879 0.58202 0.0
C1335 C 0.41209 0.54041 0.47316 0.0
C1336 C 0.39081 0.47977 0.69585 0.0
C1337 C 0.39038 0.48746 0.66281 0.0
C1338 C 0.40884 0.49853 0.57669 0.0
C1339 C 0.401 0.52685 0.51765 0.0
C1340 C 0.4011 0.51767 0.54965 0.0
C1341 C 0.40119 0.49042 0.642 0.0
C1342 C 0.40097 0.49967 0.60961 0.0
H1343 H 0.3819 0.5381 0.4467 0.0
H1344 H 0.38158 0.52482 0.50532 0.0
H1345 H 0.41508 0.5064 0.52203 0.0
H1346 H 0.42146 0.47325 0.69534 0.0
H1347 H 0.42085 0.48706 0.6387 0.0
C1348 C 0.28016 0.67386 0.44393 0.0
C1349 C 0.2823 0.66262 0.46303 0.0
C1350 C 0.27218 0.67444 0.41154 0.0
C1351 C 0.24658 0.65681 0.36664 0.0
H1352 H 0.25077 0.67971 0.27959 0.0
C1353 C 0.22131 0.65428 0.21666 0.0
C1354 C 0.2162 0.66525 0.20233 0.0
C1355 C 0.22834 0.65431 0.25119 0.0
C1356 C 0.24944 0.67339 0.30405 0.0
H1357 H 0.27863 0.64307 0.4619 0.0
H1358 H 0.26524 0.64394 0.40412 0.0
H1359 H 0.26627 0.67873 0.33178 0.0
H1360 H 0.21402 0.68476 0.21321 0.0
H1361 H 0.22666 0.68484 0.27342 0.0
H1362 H 0.22999 0.65114 0.33768 0.0
C1363 C 0.26923 0.6524 0.41503 0.0
C1364 C 0.2583 0.67281 0.33392 0.0
C1365 C 0.27701 0.65187 0.44781 0.0
C1366 C 0.21783 0.67618 0.22383 0.0
C1367 C 0.22509 0.67625 0.25799 0.0
C1368 C 0.23785 0.65725 0.33644 0.0
C1369 C 0.26639 0.66375 0.39734 0.0
C1370 C 0.25701 0.66445 0.36546 0.0
C1371 C 0.23055 0.66534 0.27147 0.0
C1372 C 0.23924 0.66551 0.3049 0.0
H1373 H 0.28407 0.6823 0.45535 0.0
H1374 H 0.27015 0.68335 0.39887 0.0
H1375 H 0.2451 0.6505 0.39099 0.0
H1376 H 0.22015 0.64574 0.20055 0.0
H1377 H 0.23253 0.64581 0.26103 0.0
C1378 C 0.10844 0.53895 0.18863 0.0
C1379 C 0.09739 0.54419 0.20188 0.0
C1380 C 0.10857 0.53143 0.15513 0.0
C1381 C 0.08979 0.5091 0.10814 0.0
H1382 H 0.11096 0.51229 0.01621 0.0
C1383 C 0.08598 0.4769 0.97312 0.0
C1384 C 0.09656 0.47468 0.95046 0.0
C1385 C 0.08639 0.48509 0.00494 0.0
C1386 C 0.10516 0.51111 0.04204 0.0
H1387 H 0.07792 0.5462 0.18976 0.0
H1388 H 0.07811 0.53273 0.13159 0.0
H1389 H 0.11107 0.52825 0.06707 0.0
H1390 H 0.11602 0.47844 0.94471 0.0
H1391 H 0.11693 0.49219 0.00168 0.0
H1392 H 0.08422 0.49178 0.08451 0.0
C1393 C 0.08665 0.53458 0.14699 0.0
C1394 C 0.10515 0.52033 0.07082 0.0
C1395 C 0.08657 0.54232 0.18 0.0
C1396 C 0.10772 0.48011 0.96164 0.0
C1397 C 0.10819 0.48809 -0.00604 0.0
C1398 C 0.08998 0.49976 0.07983 0.0
C1399 C 0.09759 0.52887 0.13498 0.0
C1400 C 0.09739 0.51941 0.10384 0.0
C1401 C 0.09744 0.49101 0.01516 0.0
C1402 C 0.09762 0.50067 0.04629 0.0
H1403 H 0.11689 0.54029 0.20508 0.0
H1404 H 0.11709 0.52707 0.1463 0.0
H1405 H 0.0839 0.50815 0.13388 0.0
H1406 H 0.07723 0.4729 0.96484 0.0
H1407 H 0.07789 0.48719 0.02023 0.0
C1408 C 0.19967 0.21025 0.12172 0.0
C1409 C 0.21064 0.2048 0.10834 0.0
C1410 C 0.19908 0.22293 0.12847 0.0
C1411 C 0.21846 0.25058 0.14323 0.0
H1412 H 0.19129 0.26798 0.0945 0.0
C1413 C 0.22162 0.30117 0.09766 0.0
C1414 C 0.21128 0.30878 0.10194 0.0
C1415 C 0.22086 0.28863 0.10583 0.0
C1416 C 0.19882 0.26326 0.10895 0.0
H1417 H 0.22969 0.20835 0.09296 0.0
H1418 H 0.22863 0.23034 0.10457 0.0
H1419 H 0.19117 0.24558 0.0962 0.0
H1420 H 0.19205 0.30921 0.11906 0.0
H1421 H 0.19074 0.28722 0.13336 0.0
H1422 H 0.22628 0.26824 0.15497 0.0
C1423 C 0.2205 0.22485 0.11012 0.0
C1424 C 0.19875 0.25042 0.10993 0.0
C1425 C 0.22108 0.21223 0.10317 0.0
C1426 C 0.20019 0.30359 0.11539 0.0
C1427 C 0.19942 0.291 0.12342 0.0
C1428 C 0.21852 0.2634 0.14227 0.0
C1429 C 0.20946 0.23038 0.12231 0.0
C1430 C 0.20872 0.24394 0.12617 0.0
C1431 C 0.20973 0.28337 0.11843 0.0
C1432 C 0.20886 0.26988 0.1242 0.0
H1433 H 0.19146 0.20479 0.12604 0.0
H1434 H 0.19047 0.22692 0.13817 0.0
H1435 H 0.22617 0.24585 0.15661 0.0
H1436 H 0.23031 0.30484 0.0874 0.0
H1437 H 0.22893 0.28299 0.10109 0.0
C1438 C 0.04184 0.97895 0.31948 0.0
C1439 C 0.04942 0.96885 0.3281 0.0
C1440 C 0.02919 0.97832 0.32582 0.0
C1441 C 0.00357 0.95669 0.33344 0.0
H1442 H 0.98652 0.98495 0.37689 0.0
C1443 C 0.95059 0.95809 0.3521 0.0
C1444 C 0.94498 0.96894 0.33853 0.0
C1445 C 0.96337 0.95746 0.35637 0.0
C1446 C 0.99114 0.977 0.36459 0.0
H1447 H 0.0496 0.95012 0.35018 0.0
H1448 H 0.02741 0.94903 0.36112 0.0
H1449 H 0.00889 0.98493 0.37386 0.0
H1450 H 0.94841 0.98769 0.31951 0.0
H1451 H 0.97055 0.98654 0.32664 0.0
H1452 H 0.98577 0.94891 0.32322 0.0
C1453 C 0.03132 0.95742 0.34936 0.0
C1454 C 0.00395 0.97699 0.36286 0.0
C1455 C 0.04403 0.95807 0.34323 0.0
C1456 C 0.9524 0.97919 0.33006 0.0
C1457 C 0.96512 0.97856 0.33443 0.0
C1458 C 0.99072 0.95671 0.3351 0.0
C1459 C 0.02379 0.96756 0.34081 0.0
C1460 C 0.01029 0.96696 0.34646 0.0
C1461 C 0.97077 0.96768 0.34739 0.0
C1462 C 0.98437 0.96699 0.34987 0.0
H1463 H 0.04566 0.98739 0.30776 0.0
H1464 H 0.02361 0.98622 0.31833 0.0
H1465 H 0.0082 0.94887 0.3204 0.0
H1466 H 0.94514 0.95004 0.35891 0.0
H1467 H 0.96747 0.94897 0.36669 0.0
C1468 C 0.29626 0.80253 0.61654 0.0
C1469 C 0.28514 0.80779 0.60376 0.0
C1470 C 0.29702 0.78992 0.62426 0.0
C1471 C 0.27791 0.76233 0.64354 0.0
H1472 H 0.30507 0.74455 0.59609 0.0
C1473 C 0.27537 0.71103 0.60553 0.0
C1474 C 0.28591 0.7037 0.61 0.0
C1475 C 0.2759 0.72366 0.6122 0.0
C1476 C 0.29755 0.74939 0.6102 0.0
H1477 H 0.26603 0.80393 0.5901 0.0
H1478 H 0.26738 0.78206 0.60325 0.0
H1479 H 0.30494 0.76695 0.59447 0.0
H1480 H 0.30521 0.70389 0.62626 0.0
H1481 H 0.3061 0.72602 0.63799 0.0
H1482 H 0.27035 0.74477 0.65827 0.0
C1483 C 0.27549 0.78766 0.6077 0.0
C1484 C 0.29747 0.76222 0.60926 0.0
C1485 C 0.27475 0.80021 0.59984 0.0
C1486 C 0.29692 0.70927 0.62246 0.0
C1487 C 0.29746 0.72195 0.62898 0.0
C1488 C 0.27799 0.74951 0.64447 0.0
C1489 C 0.28666 0.78234 0.61961 0.0
C1490 C 0.28751 0.76883 0.62507 0.0
C1491 C 0.28698 0.7293 0.62344 0.0
C1492 C 0.28766 0.74289 0.62697 0.0
H1493 H 0.30444 0.8081 0.61992 0.0
H1494 H 0.30573 0.78609 0.63369 0.0
H1495 H 0.27022 0.76717 0.65664 0.0
H1496 H 0.26673 0.70705 0.59602 0.0
H1497 H 0.26769 0.72908 0.60716 0.0
C1498 C 0.45005 0.056 0.84723 0.0
C1499 C 0.44391 0.04554 0.83281 0.0
C1500 C 0.46291 0.05629 0.84898 0.0
C1501 C 0.48994 0.04168 0.80314 0.0
H1502 H 0.50797 0.05535 0.89206 0.0
C1503 C 0.54179 0.03458 0.81889 0.0
C1504 C 0.54899 0.04476 0.82974 0.0
C1505 C 0.52901 0.03509 0.82127 0.0
C1506 C 0.50305 0.05163 0.86685 0.0
H1507 H 0.44649 0.02701 0.81038 0.0
H1508 H 0.46877 0.0275 0.81387 0.0
H1509 H 0.48547 0.05548 0.89285 0.0
H1510 H 0.54837 0.06338 0.85267 0.0
H1511 H 0.52595 0.06428 0.85663 0.0
H1512 H 0.50741 0.03779 0.7771 0.0
C1513 C 0.46369 0.03557 0.82307 0.0
C1514 C 0.49018 0.0517 0.8673 0.0
C1515 C 0.45089 0.03527 0.8213 0.0
C1516 C 0.5431 0.05538 0.84404 0.0
C1517 C 0.53026 0.05588 0.84646 0.0
C1518 C 0.50275 0.0416 0.8027 0.0
C1519 C 0.46986 0.04614 0.8363 0.0
C1520 C 0.4835 0.04658 0.83563 0.0
C1521 C 0.52308 0.04579 0.83453 0.0
C1522 C 0.50946 0.04643 0.83474 0.0
H1523 H 0.44496 0.06407 0.85634 0.0
H1524 H 0.4674 0.0646 0.85915 0.0
H1525 H 0.48508 0.03794 0.77784 0.0
H1526 H 0.546 0.02621 0.80804 0.0
H1527 H 0.52375 0.02708 0.81259 0.0
C1528 C 0.22109 0.80403 0.05247 0.0
C1529 C 0.21057 0.81141 0.04835 0.0
C1530 C 0.22052 0.79143 0.04512 0.0
C1531 C 0.19884 0.76578 0.04616 0.0
H1532 H 0.22618 0.74813 -0.00078 0.0
C1533 C 0.20042 0.71265 0.04035 0.0
C1534 C 0.21158 0.70752 0.0534 0.0
C1535 C 0.19958 0.72523 0.03219 0.0
C1536 C 0.21848 0.75293 0.01243 0.0
H1537 H 0.19128 0.81137 0.03202 0.0
H1538 H 0.19032 0.78929 0.01916 0.0
H1539 H 0.22599 0.77053 -0.00208 0.0
H1540 H 0.23066 0.71155 0.06693 0.0
H1541 H 0.22916 0.73337 0.05298 0.0
H1542 H 0.19152 0.74818 0.06176 0.0
C1543 C 0.19897 0.7933 0.02837 0.0
C1544 C 0.21837 0.76575 0.01168 0.0
C1545 C 0.19955 0.80595 0.03555 0.0
C1546 C 0.22192 0.71517 0.05702 0.0
C1547 C 0.22109 0.72769 0.04869 0.0
C1548 C 0.19896 0.75294 0.04692 0.0
C1549 C 0.20943 0.78589 0.03356 0.0
C1550 C 0.20871 0.77233 0.02945 0.0
C1551 C 0.20989 0.7329 0.03662 0.0
C1552 C 0.20893 0.74639 0.03098 0.0
H1553 H 0.22974 0.80793 0.06221 0.0
H1554 H 0.22871 0.78597 0.04992 0.0
H1555 H 0.19133 0.77058 0.06045 0.0
H1556 H 0.19228 0.70701 0.0372 0.0
H1557 H 0.19085 0.72897 0.02265 0.0
C1558 C 0.45325 0.98111 0.33721 0.0
C1559 C 0.44608 0.9708 0.32743 0.0
C1560 C 0.46602 0.98066 0.33437 0.0
C1561 C 0.49195 0.96394 0.28919 0.0
H1562 H 0.51014 0.97854 0.37621 0.0
C1563 C 0.54501 0.95994 0.30798 0.0
C1564 C 0.55115 0.97053 0.32142 0.0
C1565 C 0.53216 0.95962 0.3063 0.0
C1566 C 0.50521 0.97454 0.35144 0.0
H1567 H 0.44676 0.95201 0.30599 0.0
H1568 H 0.46917 0.95123 0.30129 0.0
H1569 H 0.48781 0.97853 0.37779 0.0
H1570 H 0.54858 0.98926 0.34199 0.0
H1571 H 0.5263 0.98873 0.33863 0.0
H1572 H 0.50947 0.95996 0.26292 0.0
C1573 C 0.46484 0.95968 0.31093 0.0
C1574 C 0.4924 0.97453 0.35236 0.0
C1575 C 0.452 0.96011 0.31379 0.0
C1576 C 0.54418 0.9809 0.33187 0.0
C1577 C 0.53138 0.98059 0.33016 0.0
C1578 C 0.50482 0.96395 0.28827 0.0
C1579 C 0.47198 0.9699 0.32176 0.0
C1580 C 0.48562 0.96937 0.32106 0.0
C1581 C 0.52521 0.96988 0.31807 0.0
C1582 C 0.51157 0.9694 0.31919 0.0
H1583 H 0.44902 0.98953 0.34751 0.0
H1584 H 0.47125 0.98878 0.34219 0.0
H1585 H 0.48697 0.95995 0.26453 0.0
H1586 H 0.55011 0.95179 0.2997 0.0
H1587 H 0.52767 0.95122 0.29701 0.0
C1588 C 0.29582 0.21276 0.5429 0.0
C1589 C 0.28474 0.20741 0.55565 0.0
C1590 C 0.29651 0.22539 0.53544 0.0
C1591 C 0.27726 0.25296 0.51732 0.0
H1592 H 0.30459 0.27067 0.56398 0.0
C1593 C 0.27501 0.30429 0.55557 0.0
C1594 C 0.28556 0.31159 0.55041 0.0
C1595 C 0.27546 0.29165 0.54904 0.0
C1596 C 0.29701 0.26586 0.55011 0.0
H1597 H 0.2656 0.21112 0.56954 0.0
H1598 H 0.26685 0.23304 0.55691 0.0
H1599 H 0.30444 0.24828 0.56533 0.0
H1600 H 0.30477 0.31132 0.53316 0.0
H1601 H 0.30553 0.28916 0.52172 0.0
H1602 H 0.26966 0.27055 0.50313 0.0
C1603 C 0.27498 0.22749 0.55224 0.0
C1604 C 0.29693 0.25302 0.55089 0.0
C1605 C 0.2743 0.21492 0.55979 0.0
C1606 C 0.29649 0.30597 0.53749 0.0
C1607 C 0.29695 0.29327 0.53113 0.0
C1608 C 0.27734 0.26578 0.51658 0.0
C1609 C 0.28611 0.23291 0.54038 0.0
C1610 C 0.28691 0.24644 0.5353 0.0
C1611 C 0.28647 0.28596 0.53728 0.0
C1612 C 0.28709 0.27238 0.53376 0.0
H1613 H 0.30403 0.20724 0.53932 0.0
H1614 H 0.30519 0.22928 0.526 0.0
H1615 H 0.26952 0.24814 0.50439 0.0
H1616 H 0.26643 0.30831 0.56544 0.0
H1617 H 0.26727 0.28626 0.55455 0.0
C1618 C 0.95273 0.03418 0.82812 0.0
C1619 C 0.94566 0.04472 0.82041 0.0
C1620 C 0.96551 0.03456 0.82535 0.0
C1621 C 0.99175 0.05214 0.78505 0.0
H1622 H 0.00942 0.03573 0.86972 0.0
C1623 C 0.04465 0.056 0.80863 0.0
C1624 C 0.05077 0.04511 0.81941 0.0
C1625 C 0.0318 0.05631 0.80637 0.0
C1626 C 0.00464 0.04025 0.84561 0.0
H1627 H 0.94651 0.06384 0.8024 0.0
H1628 H 0.96893 0.06451 0.79791 0.0
H1629 H 0.98709 0.03562 0.86973 0.0
H1630 H 0.04816 0.02593 0.83488 0.0
H1631 H 0.02589 0.02648 0.83063 0.0
H1632 H 0.00942 0.05679 0.76112 0.0
C1633 C 0.96452 0.05593 0.80585 0.0
C1634 C 0.99183 0.04018 0.8456 0.0
C1635 C 0.95168 0.05555 0.80855 0.0
C1636 C 0.04378 0.0345 0.82682 0.0
C1637 C 0.03099 0.03482 0.8246 0.0
C1638 C 0.00462 0.05222 0.78509 0.0
C1639 C 0.97158 0.04549 0.81494 0.0
C1640 C 0.98522 0.04599 0.81511 0.0
C1641 C 0.02484 0.04577 0.81495 0.0
C1642 C 0.01119 0.04615 0.81517 0.0
H1643 H 0.94841 0.02564 0.83693 0.0
H1644 H 0.97066 0.02627 0.83169 0.0
H1645 H 0.98692 0.05665 0.76104 0.0
H1646 H 0.04976 0.06434 0.8027 0.0
H1647 H 0.02732 0.0649 0.79904 0.0
C1648 C 0.77499 0.70992 0.04912 0.0
C1649 C 0.78552 0.7025 0.04592 0.0
C1650 C 0.77564 0.7225 0.04156 0.0
C1651 C 0.79734 0.74813 0.04353 0.0
H1652 H 0.77054 0.76563 0.99306 0.0
C1653 C 0.79606 0.80123 0.03499 0.0
C1654 C 0.78479 0.80648 0.04641 0.0
C1655 C 0.79693 0.7886 0.02759 0.0
C1656 C 0.77809 0.76088 0.00727 0.0
H1657 H 0.80493 0.70248 0.03109 0.0
H1658 H 0.80604 0.72452 0.01788 0.0
H1659 H 0.77064 0.74323 0.99297 0.0
H1660 H 0.76553 0.80261 0.05782 0.0
H1661 H 0.76708 0.78072 0.04525 0.0
H1662 H 0.80458 0.76578 0.05894 0.0
C1663 C 0.79731 0.72056 0.02652 0.0
C1664 C 0.77814 0.74805 0.00721 0.0
C1665 C 0.79665 0.70792 0.03389 0.0
C1666 C 0.77437 0.79889 0.04915 0.0
C1667 C 0.77523 0.78633 0.04162 0.0
C1668 C 0.79727 0.76097 0.04363 0.0
C1669 C 0.78683 0.728 0.03071 0.0
C1670 C 0.78761 0.74154 0.0262 0.0
C1671 C 0.78654 0.78101 0.03118 0.0
C1672 C 0.78748 0.76748 0.02638 0.0
H1673 H 0.76626 0.70606 0.05825 0.0
H1674 H 0.76743 0.72799 0.04557 0.0
H1675 H 0.8047 0.74338 0.05875 0.0
H1676 H 0.80426 0.80682 0.03254 0.0
H1677 H 0.80575 0.78478 0.0193 0.0
C1678 C 0.70034 0.21162 0.553 0.0
C1679 C 0.71096 0.20545 0.56596 0.0
C1680 C 0.70024 0.22445 0.54979 0.0
C1681 C 0.71607 0.25148 0.59077 0.0
H1682 H 0.70059 0.26933 0.50471 0.0
C1683 C 0.72208 0.30342 0.57578 0.0
C1684 C 0.71155 0.31043 0.56748 0.0
C1685 C 0.72185 0.29066 0.57217 0.0
C1686 C 0.70485 0.26446 0.5291 0.0
H1687 H 0.72998 0.20789 0.58379 0.0
H1688 H 0.72982 0.23011 0.57776 0.0
H1689 H 0.70044 0.24683 0.50438 0.0
H1690 H 0.69262 0.30953 0.54743 0.0
H1691 H 0.6922 0.28715 0.5415 0.0
H1692 H 0.72043 0.26897 0.61571 0.0
C1693 C 0.72149 0.2251 0.5709 0.0
C1694 C 0.70476 0.25159 0.52891 0.0
C1695 C 0.72159 0.21233 0.57415 0.0
C1696 C 0.70089 0.3044 0.55408 0.0
C1697 C 0.70066 0.29159 0.55054 0.0
C1698 C 0.71615 0.26428 0.59097 0.0
C1699 C 0.71076 0.23133 0.5595 0.0
C1700 C 0.71049 0.24497 0.55958 0.0
C1701 C 0.71107 0.28457 0.56032 0.0
C1702 C 0.71065 0.27093 0.55998 0.0
H1703 H 0.69199 0.2066 0.54644 0.0
H1704 H 0.69181 0.229 0.54107 0.0
H1705 H 0.7203 0.24666 0.61535 0.0
H1706 H 0.73049 0.30775 0.58575 0.0
H1707 H 0.73011 0.28555 0.5791 0.0
C1708 C 0.79601 0.30497 0.11174 0.0
C1709 C 0.78499 0.31053 0.09935 0.0
C1710 C 0.79661 0.29226 0.11761 0.0
C1711 C 0.77715 0.26471 0.13257 0.0
H1712 H 0.80438 0.24717 0.0846 0.0
C1713 C 0.77439 0.21367 0.09147 0.0
C1714 C 0.7848 0.2062 0.09689 0.0
C1715 C 0.77504 0.2263 0.09801 0.0
C1716 C 0.79683 0.25193 0.09879 0.0
H1717 H 0.76589 0.30708 0.08436 0.0
H1718 H 0.76698 0.28502 0.09433 0.0
H1719 H 0.80442 0.26958 0.08519 0.0
H1720 H 0.80401 0.20618 0.11415 0.0
H1721 H 0.80511 0.22833 0.12559 0.0
H1722 H 0.76941 0.24708 0.14526 0.0
C1723 C 0.77512 0.29047 0.09989 0.0
C1724 C 0.79685 0.26477 0.09913 0.0
C1725 C 0.77453 0.30313 0.09389 0.0
C1726 C 0.79583 0.21166 0.10966 0.0
C1727 C 0.79648 0.22435 0.11604 0.0
C1728 C 0.77713 0.25189 0.13222 0.0
C1729 C 0.78619 0.28487 0.11147 0.0
C1730 C 0.78687 0.2713 0.11523 0.0
C1731 C 0.7861 0.23181 0.11005 0.0
C1732 C 0.78683 0.24536 0.11452 0.0
H1733 H 0.80423 0.31041 0.11627 0.0
H1734 H 0.80524 0.28822 0.12685 0.0
H1735 H 0.76944 0.26947 0.14588 0.0
H1736 H 0.76574 0.20979 0.08167 0.0
H1737 H 0.76692 0.23181 0.09255 0.0
C1738 C 0.69935 0.71217 0.617 0.0
C1739 C 0.71048 0.70696 0.6041 0.0
C1740 C 0.69857 0.72477 0.62501 0.0
C1741 C 0.71763 0.75241 0.64436 0.0
H1742 H 0.6906 0.77011 0.59596 0.0
C1743 C 0.7206 0.80335 0.60263 0.0
C1744 C 0.71014 0.81083 0.60663 0.0
C1745 C 0.71995 0.79079 0.61045 0.0
C1746 C 0.69809 0.7653 0.61035 0.0
H1747 H 0.72961 0.71086 0.59068 0.0
H1748 H 0.72821 0.7327 0.60434 0.0
H1749 H 0.69064 0.74771 0.59519 0.0
H1750 H 0.69087 0.811 0.62324 0.0
H1751 H 0.68975 0.78897 0.63688 0.0
H1752 H 0.72526 0.77 0.65838 0.0
C1753 C 0.72011 0.72708 0.60864 0.0
C1754 C 0.69811 0.75246 0.60991 0.0
C1755 C 0.72087 0.71455 0.60048 0.0
C1756 C 0.69909 0.80549 0.6198 0.0
C1757 C 0.69843 0.79287 0.62743 0.0
C1758 C 0.71761 0.76523 0.64478 0.0
C1759 C 0.70892 0.73237 0.62056 0.0
C1760 C 0.70804 0.74588 0.62597 0.0
C1761 C 0.70882 0.78537 0.62235 0.0
C1762 C 0.708 0.77182 0.62686 0.0
H1763 H 0.69117 0.70658 0.62015 0.0
H1764 H 0.68984 0.72857 0.63443 0.0
H1765 H 0.7253 0.74759 0.65767 0.0
H1766 H 0.72926 0.80715 0.59263 0.0
H1767 H 0.72808 0.78524 0.60573 0.0
C1768 C 0.54342 0.48099 0.83699 0.0
C1769 C 0.55065 0.47053 0.84429 0.0
C1770 C 0.53074 0.48071 0.84328 0.0
C1771 C 0.50476 0.45933 0.84692 0.0
H1772 H 0.48737 0.48753 0.88927 0.0
C1773 C 0.45186 0.46001 0.86147 0.0
C1774 C 0.44607 0.47078 0.84807 0.0
C1775 C 0.4646 0.45968 0.86681 0.0
C1776 C 0.49209 0.47961 0.87722 0.0
H1777 H 0.55024 0.45165 0.86484 0.0
H1778 H 0.52806 0.45119 0.87589 0.0
H1779 H 0.50978 0.48747 0.88837 0.0
H1780 H 0.44911 0.48974 0.83075 0.0
H1781 H 0.47127 0.48912 0.83966 0.0
H1782 H 0.48707 0.45159 0.83487 0.0
C1783 C 0.53222 0.45956 0.86498 0.0
C1784 C 0.50492 0.47957 0.87673 0.0
C1785 C 0.54494 0.45986 0.85883 0.0
C1786 C 0.45326 0.48129 0.84113 0.0
C1787 C 0.46597 0.48096 0.84649 0.0
C1788 C 0.49191 0.45937 0.84736 0.0
C1789 C 0.52498 0.46996 0.85694 0.0
C1790 C 0.5114 0.46952 0.86095 0.0
C1791 C 0.47182 0.47012 0.85896 0.0
C1792 C 0.48543 0.4696 0.86189 0.0
H1793 H 0.5475 0.48937 0.8258 0.0
H1794 H 0.52541 0.48882 0.83629 0.0
H1795 H 0.50947 0.45151 0.83413 0.0
H1796 H 0.4466 0.45176 0.86724 0.0
H1797 H 0.46882 0.45123 0.87691 0.0
C1798 C 0.953 0.55561 0.34873 0.0
C1799 C 0.94706 0.5449 0.3354 0.0
C1800 C 0.96585 0.55611 0.3508 0.0
C1801 C 0.99315 0.5415 0.30697 0.0
H1802 H 0.01087 0.55596 0.39521 0.0
C1803 C 0.04502 0.53507 0.32324 0.0
C1804 C 0.05211 0.54539 0.33346 0.0
C1805 C 0.03224 0.53544 0.32585 0.0
C1806 C 0.00604 0.55201 0.37019 0.0
H1807 H 0.94996 0.52617 0.31523 0.0
H1808 H 0.97222 0.52703 0.31917 0.0
H1809 H 0.98836 0.55588 0.39554 0.0
H1810 H 0.0513 0.56409 0.35565 0.0
H1811 H 0.02887 0.56474 0.35991 0.0
H1812 H 0.01069 0.53762 0.2815 0.0
C1813 C 0.96699 0.53512 0.32733 0.0
C1814 C 0.99316 0.55197 0.37038 0.0
C1815 C 0.95421 0.53461 0.32529 0.0
C1816 C 0.04611 0.55598 0.34753 0.0
C1817 C 0.03327 0.55635 0.35011 0.0
C1818 C 0.00595 0.54155 0.30676 0.0
C1819 C 0.97297 0.54592 0.33947 0.0
C1820 C 0.9866 0.54655 0.33898 0.0
C1821 C 0.0262 0.54614 0.33862 0.0
C1822 C 0.01256 0.54664 0.33858 0.0
H1823 H 0.94777 0.5637 0.35677 0.0
H1824 H 0.97021 0.56458 0.36013 0.0
H1825 H 0.98836 0.53752 0.28188 0.0
H1826 H 0.04931 0.52672 0.31266 0.0
H1827 H 0.02707 0.52733 0.31759 0.0
C1828 C 0.95231 0.48112 0.83191 0.0
C1829 C 0.94524 0.47072 0.82237 0.0
C1830 C 0.96509 0.48077 0.82923 0.0
C1831 C 0.99133 0.4639 0.78609 0.0
H1832 H 0.00896 0.47887 0.87365 0.0
C1833 C 0.04429 0.45997 0.80891 0.0
C1834 C 0.05031 0.4707 0.82169 0.0
C1835 C 0.03144 0.45959 0.80656 0.0
C1836 C 0.00419 0.47476 0.84876 0.0
H1837 H 0.94609 0.45191 0.80124 0.0
H1838 H 0.96851 0.45129 0.79689 0.0
H1839 H 0.98663 0.47892 0.87366 0.0
H1840 H 0.04755 0.48958 0.84054 0.0
H1841 H 0.0253 0.48892 0.8361 0.0
H1842 H 0.00902 0.45973 0.76134 0.0
C1843 C 0.9641 0.45973 0.8062 0.0
C1844 C 0.99138 0.47479 0.84875 0.0
C1845 C 0.95126 0.46008 0.80884 0.0
C1846 C 0.04324 0.48112 0.83094 0.0
C1847 C 0.03046 0.48073 0.8286 0.0
C1848 C 0.0042 0.46385 0.78612 0.0
C1849 C 0.97115 0.47002 0.81707 0.0
C1850 C 0.98479 0.46951 0.81722 0.0
C1851 C 0.02439 0.46992 0.81703 0.0
C1852 C 0.01076 0.46943 0.81725 0.0
H1853 H 0.948 0.48952 0.84206 0.0
H1854 H 0.97025 0.48894 0.837 0.0
H1855 H 0.98651 0.4598 0.76129 0.0
H1856 H 0.04946 0.45178 0.80154 0.0
H1857 H 0.02702 0.45111 0.79769 0.0
C1858 C 0.45259 0.53364 0.32401 0.0
C1859 C 0.44572 0.54427 0.31591 0.0
C1860 C 0.46539 0.53381 0.32151 0.0
C1861 C 0.49196 0.55087 0.2813 0.0
H1862 H 0.50918 0.53497 0.3679 0.0
C1863 C 0.54474 0.55483 0.30691 0.0
C1864 C 0.55079 0.54409 0.31935 0.0
C1865 C 0.5319 0.55511 0.3039 0.0
C1866 C 0.50453 0.53933 0.34324 0.0
H1867 H 0.44692 0.56333 0.29743 0.0
H1868 H 0.46933 0.56363 0.29333 0.0
H1869 H 0.48686 0.5349 0.36681 0.0
H1870 H 0.5481 0.52508 0.33684 0.0
H1871 H 0.52588 0.52555 0.33112 0.0
H1872 H 0.50975 0.55531 0.25786 0.0
C1873 C 0.46478 0.55514 0.3014 0.0
C1874 C 0.49173 0.53929 0.34261 0.0
C1875 C 0.45194 0.55498 0.3039 0.0
C1876 C 0.54376 0.53355 0.32755 0.0
C1877 C 0.53099 0.53383 0.32449 0.0
C1878 C 0.50483 0.55091 0.28192 0.0
C1879 C 0.47164 0.54461 0.31091 0.0
C1880 C 0.48528 0.54495 0.31148 0.0
C1881 C 0.52489 0.54466 0.31328 0.0
C1882 C 0.51125 0.54503 0.31274 0.0
H1883 H 0.44812 0.5252 0.33302 0.0
H1884 H 0.47041 0.52547 0.32826 0.0
H1885 H 0.48725 0.55526 0.25681 0.0
H1886 H 0.54988 0.56311 0.30037 0.0
H1887 H 0.52746 0.56361 0.29537 0.0
C1888 C 0.24077 0.1424 0.17787 0.0
C1889 C 0.22849 0.14645 0.17725 0.0
C1890 C 0.24635 0.13902 0.2134 0.0
C1891 C 0.2414 0.13152 0.31877 0.0
H1892 H 0.27092 0.15089 0.33479 0.0
C1893 C 0.25773 0.14645 0.47204 0.0
C1894 C 0.27019 0.14907 0.47918 0.0
C1895 C 0.25382 0.14251 0.43488 0.0
C1896 C 0.26291 0.14513 0.3307 0.0
H1897 H 0.21215 0.14917 0.21295 0.0
H1898 H 0.22197 0.14326 0.2755 0.0
H1899 H 0.26134 0.15035 0.26984 0.0
H1900 H 0.28846 0.1487 0.45356 0.0
H1901 H 0.28162 0.14153 0.38833 0.0
H1902 H 0.24287 0.12644 0.37988 0.0
C1903 C 0.22724 0.14271 0.24826 0.0
C1904 C 0.25737 0.14488 0.29342 0.0
C1905 C 0.22162 0.14613 0.21253 0.0
C1906 C 0.27879 0.14687 0.44889 0.0
C1907 C 0.27485 0.14283 0.41149 0.0
C1908 C 0.24705 0.13164 0.35603 0.0
C1909 C 0.23978 0.13958 0.24914 0.0
C1910 C 0.24638 0.13836 0.28736 0.0
C1911 C 0.26225 0.14095 0.40376 0.0
C1912 C 0.25764 0.13879 0.36279 0.0
H1913 H 0.24627 0.14232 0.15108 0.0
H1914 H 0.25596 0.13643 0.21314 0.0
H1915 H 0.23302 0.1263 0.31471 0.0
H1916 H 0.25084 0.14791 0.49476 0.0
H1917 H 0.24405 0.14134 0.43012 0.0
C1918 C 0.10286 0.00089 0.42797 0.0
C1919 C 0.10347 0.98812 0.4218 0.0
C1920 C 0.10626 0.00601 0.46411 0.0
C1921 C 0.10896 -0.00195 0.56928 0.0
H1922 H 0.12206 0.03116 0.57643 0.0
C1923 C 0.11403 0.02126 0.71921 0.0
C1924 C 0.10773 0.03249 0.72224 0.0
C1925 C 0.11687 0.01632 0.68228 0.0
C1926 C 0.11843 0.0219 0.5748 0.0
H1927 H 0.10858 0.97075 0.44854 0.0
H1928 H 0.11476 0.97978 0.51206 0.0
H1929 H 0.12125 0.0208 0.51209 0.0
H1930 H 0.1004 0.04789 0.68923 0.0
H1931 H 0.10533 0.03915 0.62395 0.0
H1932 H 0.10602 -0.00081 0.63183 0.0
C1933 C 0.11143 0.98578 0.48882 0.0
C1934 C 0.11793 0.01597 0.53805 0.0
C1935 C 0.10792 0.9806 0.45246 0.0
C1936 C 0.10525 0.03922 0.68765 0.0
C1937 C 0.10808 0.03422 0.65041 0.0
C1938 C 0.1096 0.00392 0.60599 0.0
C1939 C 0.11048 -0.00145 0.49517 0.0
C1940 C 0.11287 0.00409 0.53472 0.0
C1941 C 0.11345 0.02248 0.64751 0.0
C1942 C 0.11409 0.01599 0.60899 0.0
H1943 H 0.09947 0.007 0.40511 0.0
H1944 H 0.10514 0.01582 0.46807 0.0
H1945 H 0.10482 0.98901 0.56784 0.0
H1946 H 0.11627 0.01597 0.74548 0.0
H1947 H 0.12124 0.00738 0.68088 0.0
C1948 C 0.23875 0.87518 0.97913 0.0
C1949 C 0.22678 0.8703 0.98027 0.0
C1950 C 0.2441 0.87853 0.9432 0.0
C1951 C 0.23882 0.88402 0.83659 0.0
H1952 H 0.26945 0.8662 0.82402 0.0
C1953 C 0.25616 0.86757 0.68602 0.0
C1954 C 0.26878 0.86577 0.67911 0.0
C1955 C 0.25196 0.87174 0.72261 0.0
C1956 C 0.26111 0.87153 0.82708 0.0
H1957 H 0.21064 0.86614 0.94509 0.0
H1958 H 0.22007 0.87198 0.88182 0.0
H1959 H 0.25981 0.86734 0.88883 0.0
H1960 H 0.28696 0.86773 0.70458 0.0
H1961 H 0.27961 0.87528 0.76879 0.0
H1962 H 0.24001 0.88804 0.77459 0.0
C1963 C 0.22528 0.8732 0.90893 0.0
C1964 C 0.25554 0.87214 0.8643 0.0
C1965 C 0.21988 0.86984 0.94509 0.0
C1966 C 0.27718 0.86891 0.70909 0.0
C1967 C 0.27295 0.87318 0.74589 0.0
C1968 C 0.24448 0.88355 0.79936 0.0
C1969 C 0.23761 0.87709 0.90758 0.0
C1970 C 0.24417 0.87808 0.8692 0.0
C1971 C 0.26025 0.87435 0.75337 0.0
C1972 C 0.25548 0.87694 0.79389 0.0
H1973 H 0.24423 0.87586 0.00587 0.0
H1974 H 0.25353 0.88171 0.94307 0.0
H1975 H 0.23013 0.88878 0.8397 0.0
H1976 H 0.24939 0.86535 0.66357 0.0
H1977 H 0.24213 0.87231 0.72726 0.0
C1978 C 0.38881 0.03585 0.96121 0.0
C1979 C 0.38848 0.02881 0.92628 0.0
C1980 C 0.38632 0.03036 -0.00204 0.0
C1981 C 0.38921 0.00044 0.04503 0.0
H1982 H 0.37088 0.01501 0.13166 0.0
C1983 C 0.38898 0.97804 0.19985 0.0
C1984 C 0.3909 0.98629 0.23132 0.0
C1985 C 0.3859 0.98244 0.16205 0.0
C1986 C 0.37608 0.01084 0.10779 0.0
H1987 H 0.38429 0.01075 0.90219 0.0
H1988 H 0.38002 0.00131 0.96592 0.0
H1989 H 0.37078 0.02488 0.06653 0.0
H1990 H 0.39049 0.00558 0.24811 0.0
H1991 H 0.38554 0.01313 0.18282 0.0
H1992 H 0.39504 0.98676 0.0863 0.0
C1993 C 0.38241 0.01097 0.96508 0.0
C1994 C 0.37599 0.01649 0.07056 0.0
C1995 C 0.38485 0.01642 0.92857 0.0
C1996 C 0.38917 -0.00108 0.22458 0.0
C1997 C 0.38617 0.00329 0.18704 0.0
C1998 C 0.38941 0.99486 0.08228 0.0
C1999 C 0.38347 0.01777 0.00021 0.0
C2000 C 0.3827 0.01143 0.039 0.0
C2001 C 0.38471 0.99515 0.15508 0.0
C2002 C 0.38304 0.00011 0.11434 0.0
H2003 H 0.39155 0.04541 0.9604 0.0
H2004 H 0.38723 0.0358 0.02471 0.0
H2005 H 0.39459 0.99641 0.02131 0.0
H2006 H 0.39017 0.96826 0.20412 0.0
H2007 H 0.38468 0.9759 0.13815 0.0
C2008 C 0.7559 0.86693 0.96453 0.0
C2009 C 0.76844 0.86483 0.97194 0.0
C2010 C 0.75198 0.87137 0.92798 0.0
C2011 C 0.76157 0.8712 0.82409 0.0
H2012 H 0.731 0.88908 0.81074 0.0
C2013 C 0.73929 0.87451 0.67193 0.0
C2014 C 0.72721 0.86989 0.67125 0.0
C2015 C 0.74474 0.87799 0.70757 0.0
C2016 C 0.73958 0.88415 0.81404 0.0
H2017 H 0.78679 0.86652 0.94749 0.0
H2018 H 0.77992 0.8745 0.88331 0.0
H2019 H 0.74072 0.88819 0.87605 0.0
H2020 H 0.71102 0.86635 0.70687 0.0
H2021 H 0.72062 0.8724 0.76959 0.0
H2022 H 0.76031 0.86692 0.76239 0.0
C2023 C 0.77311 0.87246 0.90579 0.0
C2024 C 0.74515 0.8836 0.85138 0.0
C2025 C 0.77706 0.86794 0.94257 0.0
C2026 C 0.72034 0.86983 0.70652 0.0
C2027 C 0.72583 0.87333 0.74237 0.0
C2028 C 0.7561 0.87187 0.78676 0.0
C2029 C 0.76049 0.87393 0.89777 0.0
C2030 C 0.75597 0.87673 0.85713 0.0
C2031 C 0.73825 0.87695 0.74334 0.0
C2032 C 0.74485 0.87802 0.78161 0.0
H2033 H 0.74898 0.86475 0.98654 0.0
H2034 H 0.74219 0.87218 0.92287 0.0
H2035 H 0.76979 0.86568 0.82737 0.0
H2036 H 0.74477 0.87488 0.6451 0.0
H2037 H 0.75425 0.88097 0.70739 0.0
C2038 C 0.88926 0.03585 0.69874 0.0
C2039 C 0.88863 0.02879 0.73356 0.0
C2040 C 0.88627 0.03057 0.66205 0.0
C2041 C 0.88735 0.00052 0.61523 0.0
H2042 H 0.87052 0.01626 0.52767 0.0
C2043 C 0.88703 0.97832 0.46032 0.0
C2044 C 0.8897 0.98645 0.42914 0.0
C2045 C 0.88384 0.98286 0.49784 0.0
C2046 C 0.87528 0.01175 0.55181 0.0
H2047 H 0.88327 0.01107 0.75773 0.0
H2048 H 0.87808 0.002 0.6941 0.0
H2049 H 0.87063 0.02608 0.59293 0.0
H2050 H 0.89053 0.00573 0.41251 0.0
H2051 H 0.88539 0.01353 0.47743 0.0
H2052 H 0.8926 0.98654 0.57417 0.0
C2053 C 0.88112 0.01147 0.69492 0.0
C2054 C 0.87532 0.01738 0.58911 0.0
C2055 C 0.8841 0.0167 0.73136 0.0
C2056 C 0.8886 -0.00084 0.43583 0.0
C2057 C 0.8855 0.00367 0.47314 0.0
C2058 C 0.88744 0.99497 0.57794 0.0
C2059 C 0.88258 0.0182 0.65979 0.0
C2060 C 0.88151 0.0119 0.621 0.0
C2061 C 0.8833 0.99562 0.50486 0.0
C2062 C 0.88162 0.00063 0.54554 0.0
H2063 H 0.8927 0.04518 0.69954 0.0
H2064 H 0.8875 0.03595 0.63531 0.0
H2065 H 0.89235 0.99615 0.63918 0.0
H2066 H 0.8877 0.96848 0.45606 0.0
H2067 H 0.88203 0.97639 0.52152 0.0
C2068 C 0.777 0.14706 0.21109 0.0
C2069 C 0.7687 0.14949 0.18016 0.0
C2070 C 0.77265 0.14355 0.24857 0.0
C2071 C 0.74409 0.13397 0.30296 0.0
H2072 H 0.75913 0.15174 0.38993 0.0
C2073 C 0.71942 0.14826 0.44856 0.0
C2074 C 0.72638 0.14785 0.48363 0.0
C2075 C 0.72484 0.14514 0.41217 0.0
C2076 C 0.75493 0.14654 0.36609 0.0
H2077 H 0.74937 0.14941 0.16377 0.0
H2078 H 0.7419 0.14375 0.22855 0.0
H2079 H 0.76879 0.15205 0.325 0.0
H2080 H 0.74409 0.14279 0.50856 0.0
H2081 H 0.75341 0.13743 0.44542 0.0
H2082 H 0.72983 0.12909 0.34405 0.0
C2083 C 0.75175 0.14431 0.22418 0.0
C2084 C 0.76052 0.14666 0.32884 0.0
C2085 C 0.75606 0.14772 0.18693 0.0
C2086 C 0.73853 0.14343 0.48199 0.0
C2087 C 0.7439 0.14035 0.44585 0.0
C2088 C 0.73841 0.13398 0.34019 0.0
C2089 C 0.75994 0.14245 0.25577 0.0
C2090 C 0.75503 0.14061 0.29655 0.0
C2091 C 0.73726 0.14158 0.41045 0.0
C2092 C 0.74369 0.14045 0.3719 0.0
H2093 H 0.78679 0.14824 0.20675 0.0
H2094 H 0.77923 0.142 0.27213 0.0
H2095 H 0.73973 0.129 0.27893 0.0
H2096 H 0.71005 0.1516 0.4489 0.0
H2097 H 0.71952 0.1462 0.38522 0.0
C2098 C 0.61153 -0.0013 0.22765 0.0
C2099 C 0.60737 0.98648 0.22988 0.0
C2100 C 0.61413 0.00408 0.19116 0.0
C2101 C 0.61975 -0.00149 0.08517 0.0
H2102 H 0.60152 0.02883 0.07109 0.0
C2103 C 0.60588 0.01647 0.93235 0.0
C2104 C 0.60444 0.02915 0.9257 0.0
C2105 C 0.60905 0.01204 0.96965 0.0
C2106 C 0.60693 0.02056 0.07462 0.0
H2107 H 0.60354 0.97005 0.1957 0.0
H2108 H 0.60811 0.97954 0.13138 0.0
H2109 H 0.60217 0.01913 0.13596 0.0
H2110 H 0.60587 0.04716 0.95276 0.0
H2111 H 0.61167 0.03938 0.01829 0.0
H2112 H 0.62444 -0.00012 0.02369 0.0
C2113 C 0.60933 0.9849 0.15817 0.0
C2114 C 0.60724 0.01496 0.11181 0.0
C2115 C 0.6067 0.97948 0.19491 0.0
C2116 C 0.60681 0.03734 0.95699 0.0
C2117 C 0.61008 0.03287 -0.00547 0.0
C2118 C 0.61956 0.0042 0.04799 0.0
C2119 C 0.61267 0.99738 0.15597 0.0
C2120 C 0.61344 0.00376 0.11726 0.0
C2121 C 0.61099 0.02014 0.00144 0.0
C2122 C 0.61287 0.01513 0.04202 0.0
H2123 H 0.61237 0.0043 0.25409 0.0
H2124 H 0.6169 0.01364 0.19035 0.0
H2125 H 0.62471 0.98996 0.08873 0.0
H2126 H 0.60418 0.00985 0.90897 0.0
H2127 H 0.60945 0.00218 0.97384 0.0
C2128 C 0.77672 0.64444 0.94146 0.0
C2129 C 0.7698 0.64362 0.97655 0.0
C2130 C 0.77144 0.64114 0.90507 0.0
C2131 C 0.74116 0.64177 0.86053 0.0
H2132 H 0.75704 0.62684 0.76963 0.0
C2133 C 0.7193 0.64535 0.7058 0.0
C2134 C 0.72757 0.64882 0.67583 0.0
C2135 C 0.72368 0.64101 0.74229 0.0
C2136 C 0.75248 0.63106 0.79473 0.0
H2137 H 0.75249 0.63748 0.00172 0.0
H2138 H 0.74339 0.63172 0.93853 0.0
H2139 H 0.76696 0.62593 0.83463 0.0
H2140 H 0.74692 0.64979 0.65998 0.0
H2141 H 0.75444 0.64271 0.72318 0.0
H2142 H 0.72709 0.64762 0.82077 0.0
C2143 C 0.75274 0.63514 0.9389 0.0
C2144 C 0.75816 0.6305 0.83189 0.0
C2145 C 0.75797 0.63843 0.97506 0.0
C2146 C 0.74024 0.6473 0.68243 0.0
C2147 C 0.7446 0.64306 0.71873 0.0
C2148 C 0.73556 0.64248 0.82339 0.0
C2149 C 0.7592 0.63696 0.90341 0.0
C2150 C 0.75267 0.63608 0.86496 0.0
C2151 C 0.73641 0.64011 0.74949 0.0
C2152 C 0.7413 0.63742 0.78979 0.0
H2153 H 0.78585 0.6484 0.94175 0.0
H2154 H 0.77662 0.64267 0.87807 0.0
H2155 H 0.73677 0.6463 0.88541 0.0
H2156 H 0.70948 0.64631 0.70153 0.0
H2157 H 0.71711 0.63864 0.76517 0.0
C2158 C 0.60818 0.51598 0.221 0.0
C2159 C 0.60671 0.52865 0.22763 0.0
C2160 C 0.61135 0.51153 0.18367 0.0
C2161 C 0.60908 0.52011 0.07875 0.0
H2162 H 0.62648 0.48932 0.064 0.0
C2163 C 0.61267 0.49821 0.92564 0.0
C2164 C 0.60818 0.48611 0.92373 0.0
C2165 C 0.61567 0.50352 0.96194 0.0
C2166 C 0.62163 0.49793 0.06775 0.0
H2167 H 0.60814 0.54665 0.20056 0.0
H2168 H 0.61396 0.53886 0.13505 0.0
H2169 H 0.62649 0.49924 0.12909 0.0
H2170 H 0.60424 0.46976 0.95812 0.0
H2171 H 0.6095 0.47912 0.02209 0.0
H2172 H 0.60415 0.51875 0.01756 0.0
C2173 C 0.61237 0.53236 0.15881 0.0
C2174 C 0.6216 0.50362 0.10496 0.0
C2175 C 0.6091 0.53684 0.19635 0.0
C2176 C 0.60764 0.4791 0.95869 0.0
C2177 C 0.61068 0.48445 -0.00477 0.0
C2178 C 0.60925 0.51452 0.04153 0.0
C2179 C 0.61326 0.51962 0.15185 0.0
C2180 C 0.61503 0.51461 0.11117 0.0
C2181 C 0.61428 0.49686 -0.00279 0.0
C2182 C 0.61529 0.50325 0.03586 0.0
H2183 H 0.60649 0.50936 0.24437 0.0
H2184 H 0.61174 0.50167 0.17947 0.0
H2185 H 0.60375 0.52843 0.08245 0.0
H2186 H 0.61341 0.5038 0.89915 0.0
H2187 H 0.61864 0.51302 0.96256 0.0
C2188 C 0.74022 0.37206 0.48567 0.0
C2189 C 0.72792 0.36805 0.48688 0.0
C2190 C 0.74571 0.37526 0.44983 0.0
C2191 C 0.7405 0.38287 0.34498 0.0
H2192 H 0.77022 0.36392 0.32772 0.0
C2193 C 0.75757 0.36989 0.19039 0.0
C2194 C 0.77011 0.36761 0.18344 0.0
C2195 C 0.75342 0.37324 0.22791 0.0
C2196 C 0.76214 0.36956 0.33218 0.0
H2197 H 0.7115 0.36515 0.45175 0.0
H2198 H 0.72119 0.37078 0.38862 0.0
H2199 H 0.76056 0.3639 0.39266 0.0
H2200 H 0.78825 0.36792 0.20995 0.0
H2201 H 0.781 0.37405 0.27582 0.0
H2202 H 0.742 0.38845 0.28433 0.0
C2203 C 0.72652 0.37141 0.41568 0.0
C2204 C 0.75655 0.36948 0.36942 0.0
C2205 C 0.72098 0.36816 0.45174 0.0
C2206 C 0.77852 0.36951 0.21443 0.0
C2207 C 0.77435 0.37294 0.25219 0.0
C2208 C 0.74618 0.38309 0.30777 0.0
C2209 C 0.73905 0.37458 0.41433 0.0
C2210 C 0.74553 0.37589 0.37592 0.0
C2211 C 0.76169 0.37451 0.2596 0.0
C2212 C 0.75688 0.37613 0.30059 0.0
H2213 H 0.74579 0.3723 0.51229 0.0
H2214 H 0.75532 0.37787 0.4497 0.0
H2215 H 0.73209 0.38801 0.34941 0.0
H2216 H 0.75081 0.36864 0.16717 0.0
H2217 H 0.74361 0.37417 0.23239 0.0
C2218 C 0.88467 0.49947 0.73294 0.0
C2219 C 0.88871 0.4872 0.73489 0.0
C2220 C 0.88193 0.50489 0.69662 0.0
C2221 C 0.87575 0.49937 0.59086 0.0
H2222 H 0.89432 0.52945 0.57585 0.0
C2223 C 0.88964 0.51689 0.43757 0.0
C2224 C 0.89129 0.52954 0.43071 0.0
C2225 C 0.8864 0.51257 0.47495 0.0
C2226 C 0.8888 0.52125 0.57965 0.0
H2227 H 0.89215 0.47074 0.70045 0.0
H2228 H 0.88734 0.48029 0.63645 0.0
H2229 H 0.89375 0.51983 0.64082 0.0
H2230 H 0.89012 0.54761 0.45743 0.0
H2231 H 0.88419 0.54004 0.5231 0.0
H2232 H 0.8709 0.50073 0.52953 0.0
C2233 C 0.88632 0.48567 0.66331 0.0
C2234 C 0.88854 0.51569 0.61691 0.0
C2235 C 0.8891 0.48021 0.69987 0.0
C2236 C 0.88902 0.53782 0.46183 0.0
C2237 C 0.88568 0.53347 0.49945 0.0
C2238 C 0.87589 0.50502 0.55362 0.0
C2239 C 0.88312 0.49818 0.66133 0.0
C2240 C 0.88224 0.50456 0.62267 0.0
C2241 C 0.88459 0.52076 0.5066 0.0
C2242 C 0.88271 0.51585 0.54731 0.0
H2243 H 0.88405 0.50508 0.75943 0.0
H2244 H 0.87926 0.51447 0.69599 0.0
H2245 H 0.8707 0.49088 0.59468 0.0
H2246 H 0.89124 0.51021 0.41431 0.0
H2247 H 0.88586 0.50273 0.47934 0.0
C2248 C 0.24098 0.36809 0.18247 0.0
C2249 C 0.22831 0.36659 0.17577 0.0
C2250 C 0.24533 0.3721 0.21906 0.0
C2251 C 0.23626 0.37198 0.32369 0.0
H2252 H 0.26763 0.38849 0.33635 0.0
C2253 C 0.25849 0.37539 0.47593 0.0
C2254 C 0.27036 0.37031 0.47742 0.0
C2255 C 0.25327 0.37873 0.43981 0.0
C2256 C 0.25884 0.38392 0.33322 0.0
H2257 H 0.21022 0.36895 0.2016 0.0
H2258 H 0.21783 0.37624 0.26574 0.0
H2259 H 0.25777 0.38798 0.27121 0.0
H2260 H 0.28648 0.36574 0.44263 0.0
H2261 H 0.27727 0.37155 0.37901 0.0
H2262 H 0.23742 0.36776 0.38544 0.0
C2263 C 0.22441 0.37401 0.24272 0.0
C2264 C 0.25319 0.38359 0.29597 0.0
C2265 C 0.22003 0.36989 0.20594 0.0
C2266 C 0.27731 0.3696 0.44236 0.0
C2267 C 0.27204 0.37295 0.406 0.0
C2268 C 0.24182 0.37245 0.36091 0.0
C2269 C 0.23714 0.37485 0.25 0.0
C2270 C 0.24201 0.37726 0.2905 0.0
C2271 C 0.25979 0.37708 0.40434 0.0
C2272 C 0.25332 0.37813 0.36585 0.0
H2273 H 0.24766 0.36573 0.15987 0.0
H2274 H 0.25517 0.37243 0.22355 0.0
H2275 H 0.22778 0.36685 0.32064 0.0
H2276 H 0.25298 0.37627 0.50256 0.0
H2277 H 0.2439 0.3821 0.43945 0.0
C2278 C 0.37993 0.49235 0.93499 0.0
C2279 C 0.38838 0.48265 0.9324 0.0
C2280 C 0.37693 0.49745 0.97168 0.0
C2281 C 0.3812 0.494 0.08106 0.0
H2282 H 0.38069 0.52962 0.07802 0.0
C2283 C 0.38031 0.52151 0.22546 0.0
C2284 C 0.38842 0.53152 0.22744 0.0
C2285 C 0.37737 0.51619 0.18905 0.0
C2286 C 0.38086 0.51968 0.07946 0.0
H2287 H 0.39979 0.47014 0.96597 0.0
H2288 H 0.39493 0.47929 0.03023 0.0
H2289 H 0.38109 0.51809 0.0164 0.0
H2290 H 0.3993 0.54429 0.19302 0.0
H2291 H 0.39454 0.53478 0.12924 0.0
H2292 H 0.38187 0.49561 0.1441 0.0
C2293 C 0.39035 0.48283 0.00411 0.0
C2294 C 0.38088 0.51303 0.04404 0.0
C2295 C 0.39317 0.47756 0.96731 0.0
C2296 C 0.39295 0.53663 0.19218 0.0
C2297 C 0.39019 0.53116 0.15566 0.0
C2298 C 0.38133 0.50065 0.11649 0.0
C2299 C 0.38255 0.49314 0.00654 0.0
C2300 C 0.38124 0.50009 0.04435 0.0
C2301 C 0.3827 0.5206 0.15383 0.0
C2302 C 0.38134 0.51359 0.11615 0.0
H2303 H 0.37602 0.49635 0.90838 0.0
H2304 H 0.37059 0.50511 0.97249 0.0
H2305 H 0.38132 0.48406 0.0825 0.0
H2306 H 0.37658 0.51749 0.25231 0.0
H2307 H 0.37128 0.50833 0.18871 0.0
C2308 C 0.24145 0.64787 0.97544 0.0
C2309 C 0.22877 0.64933 0.98212 0.0
C2310 C 0.24581 0.64364 0.93912 0.0
C2311 C 0.23671 0.64302 0.83455 0.0
H2312 H 0.26825 0.62676 0.82291 0.0
C2313 C 0.25911 0.63933 0.68271 0.0
C2314 C 0.27089 0.64463 0.68121 0.0
C2315 C 0.25391 0.63595 0.71885 0.0
C2316 C 0.25941 0.63125 0.82576 0.0
H2317 H 0.21068 0.6467 0.95656 0.0
H2318 H 0.21833 0.63904 0.89288 0.0
H2319 H 0.25835 0.62753 0.88798 0.0
H2320 H 0.2869 0.64952 0.71598 0.0
H2321 H 0.27774 0.64365 0.77965 0.0
H2322 H 0.23787 0.64691 0.77257 0.0
C2323 C 0.2249 0.64145 0.91571 0.0
C2324 C 0.25374 0.63173 0.86296 0.0
C2325 C 0.2205 0.64579 0.95222 0.0
C2326 C 0.2778 0.64549 0.71627 0.0
C2327 C 0.27256 0.6421 0.75265 0.0
C2328 C 0.2423 0.6424 0.79737 0.0
C2329 C 0.23763 0.64064 0.90841 0.0
C2330 C 0.24251 0.638 0.86805 0.0
C2331 C 0.26037 0.6378 0.75433 0.0
C2332 C 0.25386 0.63681 0.79279 0.0
H2333 H 0.24812 0.65042 -0.00217 0.0
H2334 H 0.25566 0.64335 0.93459 0.0
H2335 H 0.2282 0.64809 0.83729 0.0
H2336 H 0.25363 0.63833 0.65606 0.0
H2337 H 0.2446 0.63244 0.71923 0.0
C2338 C 0.11172 0.51575 0.42392 0.0
C2339 C 0.10811 0.52815 0.42198 0.0
C2340 C 0.11433 0.51025 0.46021 0.0
C2341 C 0.12117 0.51559 0.56552 0.0
H2342 H 0.10184 0.48606 0.5817 0.0
C2343 C 0.10798 0.49824 0.71976 0.0
C2344 C 0.106 0.48565 0.72655 0.0
C2345 C 0.11107 0.50253 0.68219 0.0
C2346 C 0.10755 0.4941 0.57755 0.0
H2347 H 0.10526 0.54472 0.45646 0.0
H2348 H 0.10986 0.53503 0.5204 0.0
H2349 H 0.10223 0.49572 0.51675 0.0
H2350 H 0.10641 0.46759 0.69945 0.0
H2351 H 0.11206 0.4751 0.63344 0.0
H2352 H 0.12642 0.51403 0.62645 0.0
C2353 C 0.11064 0.52962 0.49354 0.0
C2354 C 0.10772 0.49968 0.54032 0.0
C2355 C 0.10798 0.53516 0.457 0.0
C2356 C 0.10779 0.47735 0.69513 0.0
C2357 C 0.11096 0.48167 0.65731 0.0
C2358 C 0.12112 0.50992 0.60272 0.0
C2359 C 0.11345 0.51701 0.49549 0.0
C2360 C 0.11431 0.51062 0.53415 0.0
C2361 C 0.11237 0.49436 0.65026 0.0
C2362 C 0.11405 0.49927 0.60946 0.0
H2363 H 0.11212 0.51012 0.39744 0.0
H2364 H 0.11668 0.50058 0.46082 0.0
H2365 H 0.12645 0.52393 0.56137 0.0
H2366 H 0.10677 0.50493 0.74325 0.0
H2367 H 0.11187 0.51236 0.67793 0.0
loop_
_geom_bond_atom_site_label_1
_geom_bond_atom_site_label_2
_geom_bond_distance
_geom_bond_site_symmetry_2
_ccdc_geom_bond_type
C0 O1 1.306 . S
C0 O3 1.160 . S
O1 C0 1.306 . S
O1 Cd2 2.228 . S
Cd2 O1 2.228 . S
Cd2 O6 2.273 . S
Cd2 O10 2.277 . S
O3 C0 1.160 . S
O3 Cd4 2.203 . S
Cd4 O3 2.203 . S
Cd4 O6 2.411 . S
Cd4 O7 2.333 1_554 S
Cd4 O8 2.352 . S
Cd4 O12 2.277 . S
Cd4 O13 2.356 . S
C5 O10 1.209 . S
C5 O12 1.226 . S
O6 Cd2 2.273 . S
O6 Cd4 2.411 . S
O6 C9 1.320 1_554 S
O7 Cd4 2.333 1_556 S
O7 C9 1.214 . S
O8 Cd4 2.352 . S
O8 C11 1.258 . S
C9 O6 1.320 1_556 S
C9 O7 1.214 . S
O10 Cd2 2.277 . S
O10 C5 1.209 . S
C11 O8 1.258 . S
C11 O13 1.282 . S
O12 Cd4 2.277 . S
O12 C5 1.226 . S
O13 Cd4 2.356 . S
O13 C11 1.282 . S
C14 O15 1.306 . S
C14 O17 1.160 . S
O15 C14 1.306 . S
O15 Cd16 2.207 1_565 S
Cd16 O15 2.207 1_545 S
Cd16 O20 2.245 1_545 S
Cd16 O24 2.229 1_545 S
O17 C14 1.160 . S
O17 Cd18 2.203 . S
Cd18 O17 2.203 . S
Cd18 O20 2.411 . S
Cd18 O21 2.333 . S
Cd18 O22 2.352 . S
Cd18 O26 2.277 . S
Cd18 O27 2.356 . S
C19 O24 1.209 . S
C19 O26 1.226 . S
O20 Cd16 2.245 1_565 S
O20 Cd18 2.411 . S
O20 C23 1.320 . S
O21 Cd18 2.333 . S
O21 C23 1.214 . S
O22 Cd18 2.352 . S
O22 C25 1.258 . S
C23 O20 1.320 . S
C23 O21 1.214 . S
O24 Cd16 2.229 1_565 S
O24 C19 1.209 . S
C25 O22 1.258 . S
C25 O27 1.282 . S
O26 Cd18 2.277 . S
O26 C19 1.226 . S
O27 Cd18 2.356 . S
O27 C25 1.282 . S
C28 O29 1.306 . S
C28 O31 1.160 . S
O29 C28 1.306 . S
O29 Cd30 2.228 . S
Cd30 O29 2.228 . S
Cd30 O34 2.273 . S
Cd30 O38 2.277 . S
O31 C28 1.160 . S
O31 Cd32 2.203 . S
Cd32 O31 2.203 . S
Cd32 O34 2.411 . S
Cd32 O35 2.333 . S
Cd32 O36 2.352 . S
Cd32 O40 2.277 . S
Cd32 O41 2.356 . S
C33 O38 1.209 . S
C33 O40 1.226 . S
O34 Cd30 2.273 . S
O34 Cd32 2.411 . S
O34 C37 1.320 . S
O35 Cd32 2.333 . S
O35 C37 1.214 . S
O36 Cd32 2.352 . S
O36 C39 1.258 . S
C37 O34 1.320 . S
C37 O35 1.214 . S
O38 Cd30 2.277 . S
O38 C33 1.209 . S
C39 O36 1.258 . S
C39 O41 1.282 . S
O40 Cd32 2.277 . S
O40 C33 1.226 . S
O41 Cd32 2.356 . S
O41 C39 1.282 . S
C42 O43 1.306 . S
C42 O45 1.160 . S
O43 C42 1.306 . S
O43 Cd44 2.228 . S
Cd44 O43 2.228 . S
Cd44 O48 2.273 . S
Cd44 O52 2.277 . S
O45 C42 1.160 . S
O45 Cd46 2.203 . S
Cd46 O45 2.203 . S
Cd46 O48 2.411 . S
Cd46 O49 2.333 . S
Cd46 O50 2.352 . S
Cd46 O54 2.277 . S
Cd46 O55 2.356 . S
C47 O52 1.209 . S
C47 O54 1.226 . S
O48 Cd44 2.273 . S
O48 Cd46 2.411 . S
O48 C51 1.320 . S
O49 Cd46 2.333 . S
O49 C51 1.214 . S
O50 Cd46 2.352 . S
O50 C53 1.258 . S
C51 O48 1.320 . S
C51 O49 1.214 . S
O52 Cd44 2.277 . S
O52 C47 1.209 . S
C53 O50 1.258 . S
C53 O55 1.282 . S
O54 Cd46 2.277 . S
O54 C47 1.226 . S
O55 Cd46 2.356 . S
O55 C53 1.282 . S
C56 O57 1.306 . S
C56 O59 1.160 . S
O57 C56 1.306 . S
O57 Cd58 2.228 . S
Cd58 O57 2.228 . S
Cd58 O62 2.273 . S
Cd58 O66 2.277 . S
O59 C56 1.160 . S
O59 Cd60 2.203 . S
Cd60 O59 2.203 . S
Cd60 O62 2.411 . S
Cd60 O63 2.333 . S
Cd60 O64 2.352 . S
Cd60 O68 2.277 . S
Cd60 O69 2.356 . S
C61 O66 1.209 . S
C61 O68 1.226 . S
O62 Cd58 2.273 . S
O62 Cd60 2.411 . S
O62 C65 1.320 . S
O63 Cd60 2.333 . S
O63 C65 1.214 . S
O64 Cd60 2.352 . S
O64 C67 1.258 . S
C65 O62 1.320 . S
C65 O63 1.214 . S
O66 Cd58 2.277 . S
O66 C61 1.209 . S
C67 O64 1.258 . S
C67 O69 1.282 . S
O68 Cd60 2.277 . S
O68 C61 1.226 . S
O69 Cd60 2.356 . S
O69 C67 1.282 . S
C70 O71 1.306 . S
C70 O73 1.160 . S
O71 C70 1.306 . S
O71 Cd72 2.208 1_565 S
Cd72 O71 2.208 1_545 S
Cd72 O76 2.246 1_545 S
Cd72 O80 2.230 1_545 S
O73 C70 1.160 . S
O73 Cd74 2.203 . S
Cd74 O73 2.203 . S
Cd74 O76 2.411 . S
Cd74 O77 2.333 . S
Cd74 O78 2.352 . S
Cd74 O82 2.277 . S
Cd74 O83 2.356 . S
C75 O80 1.209 . S
C75 O82 1.226 . S
O76 Cd72 2.246 1_565 S
O76 Cd74 2.411 . S
O76 C79 1.320 . S
O77 Cd74 2.333 . S
O77 C79 1.214 . S
O78 Cd74 2.352 . S
O78 C81 1.258 . S
C79 O76 1.320 . S
C79 O77 1.214 . S
O80 Cd72 2.230 1_565 S
O80 C75 1.209 . S
C81 O78 1.258 . S
C81 O83 1.282 . S
O82 Cd74 2.277 . S
O82 C75 1.226 . S
O83 Cd74 2.356 . S
O83 C81 1.282 . S
C84 O85 1.306 . S
C84 O87 1.160 . S
O85 C84 1.306 . S
O85 Cd86 2.228 . S
Cd86 O85 2.228 . S
Cd86 O90 2.273 . S
Cd86 O94 2.277 . S
O87 C84 1.160 . S
O87 Cd88 2.203 . S
Cd88 O87 2.203 . S
Cd88 O90 2.411 . S
Cd88 O91 2.333 . S
Cd88 O92 2.352 . S
Cd88 O96 2.277 . S
Cd88 O97 2.356 . S
C89 O94 1.209 . S
C89 O96 1.226 . S
O90 Cd86 2.273 . S
O90 Cd88 2.411 . S
O90 C93 1.320 . S
O91 Cd88 2.333 . S
O91 C93 1.214 . S
O92 Cd88 2.352 . S
O92 C95 1.258 . S
C93 O90 1.320 . S
C93 O91 1.214 . S
O94 Cd86 2.277 . S
O94 C89 1.209 . S
C95 O92 1.258 . S
C95 O97 1.282 . S
O96 Cd88 2.277 . S
O96 C89 1.226 . S
O97 Cd88 2.356 . S
O97 C95 1.282 . S
C98 O99 1.306 . S
C98 O101 1.160 . S
O99 C98 1.306 . S
O99 Cd100 2.228 . S
Cd100 O99 2.228 . S
Cd100 O104 2.273 . S
Cd100 O108 2.277 . S
O101 C98 1.160 . S
O101 Cd102 2.203 . S
Cd102 O101 2.203 . S
Cd102 O104 2.411 . S
Cd102 O105 2.333 . S
Cd102 O106 2.352 . S
Cd102 O110 2.277 . S
Cd102 O111 2.356 . S
C103 O108 1.209 . S
C103 O110 1.226 . S
O104 Cd100 2.273 . S
O104 Cd102 2.411 . S
O104 C107 1.320 . S
O105 Cd102 2.333 . S
O105 C107 1.214 . S
O106 Cd102 2.352 . S
O106 C109 1.258 . S
C107 O104 1.320 . S
C107 O105 1.214 . S
O108 Cd100 2.277 . S
O108 C103 1.209 . S
C109 O106 1.258 . S
C109 O111 1.282 . S
O110 Cd102 2.277 . S
O110 C103 1.226 . S
O111 Cd102 2.356 . S
O111 C109 1.282 . S
C112 O113 1.306 . S
C112 O115 1.160 . S
O113 C112 1.306 . S
O113 Cd114 2.228 . S
Cd114 O113 2.228 . S
Cd114 O118 2.273 . S
Cd114 O122 2.277 . S
O115 C112 1.160 . S
O115 Cd116 2.203 . S
Cd116 O115 2.203 . S
Cd116 O118 2.411 . S
Cd116 O119 2.333 . S
Cd116 O120 2.352 . S
Cd116 O124 2.277 . S
Cd116 O125 2.356 . S
C117 O122 1.209 . S
C117 O124 1.226 . S
O118 Cd114 2.273 . S
O118 Cd116 2.411 . S
O118 C121 1.320 . S
O119 Cd116 2.333 . S
O119 C121 1.214 . S
O120 Cd116 2.352 . S
O120 C123 1.258 . S
C121 O118 1.320 . S
C121 O119 1.214 . S
O122 Cd114 2.277 . S
O122 C117 1.209 . S
C123 O120 1.258 . S
C123 O125 1.282 . S
O124 Cd116 2.277 . S
O124 C117 1.226 . S
O125 Cd116 2.356 . S
O125 C123 1.282 . S
C126 O127 1.306 . S
C126 O129 1.160 . S
O127 C126 1.306 . S
O127 Cd128 2.228 . S
Cd128 O127 2.228 . S
Cd128 O132 2.273 . S
Cd128 O136 2.277 . S
O129 C126 1.160 . S
O129 Cd130 2.203 . S
Cd130 O129 2.203 . S
Cd130 O132 2.411 . S
Cd130 O133 2.333 . S
Cd130 O134 2.352 . S
Cd130 O138 2.277 . S
Cd130 O139 2.356 . S
C131 O136 1.209 . S
C131 O138 1.226 . S
O132 Cd128 2.273 . S
O132 Cd130 2.411 . S
O132 C135 1.320 . S
O133 Cd130 2.333 . S
O133 C135 1.214 . S
O134 Cd130 2.352 . S
O134 C137 1.258 . S
C135 O132 1.320 . S
C135 O133 1.214 . S
O136 Cd128 2.277 . S
O136 C131 1.209 . S
C137 O134 1.258 . S
C137 O139 1.282 . S
O138 Cd130 2.277 . S
O138 C131 1.226 . S
O139 Cd130 2.356 . S
O139 C137 1.282 . S
C140 O141 1.306 . S
C140 O143 1.160 . S
O141 C140 1.306 . S
O141 Cd142 2.228 . S
Cd142 O141 2.228 . S
Cd142 O146 2.273 . S
Cd142 O150 2.277 . S
O143 C140 1.160 . S
O143 Cd144 2.203 . S
Cd144 O143 2.203 . S
Cd144 O146 2.411 . S
Cd144 O147 2.333 . S
Cd144 O148 2.352 . S
Cd144 O152 2.277 . S
Cd144 O153 2.356 . S
C145 O150 1.209 . S
C145 O152 1.226 . S
O146 Cd142 2.273 . S
O146 Cd144 2.411 . S
O146 C149 1.320 . S
O147 Cd144 2.333 . S
O147 C149 1.214 . S
O148 Cd144 2.352 . S
O148 C151 1.258 . S
C149 O146 1.320 . S
C149 O147 1.214 . S
O150 Cd142 2.277 . S
O150 C145 1.209 . S
C151 O148 1.258 . S
C151 O153 1.282 . S
O152 Cd144 2.277 . S
O152 C145 1.226 . S
O153 Cd144 2.356 . S
O153 C151 1.282 . S
C154 O155 1.306 . S
C154 O157 1.160 . S
O155 C154 1.306 . S
O155 Cd156 2.208 1_565 S
Cd156 O155 2.208 1_545 S
Cd156 O160 2.246 1_545 S
Cd156 O164 2.230 1_545 S
O157 C154 1.160 . S
O157 Cd158 2.203 . S
Cd158 O157 2.203 . S
Cd158 O160 2.411 . S
Cd158 O161 2.333 . S
Cd158 O162 2.352 . S
Cd158 O166 2.277 . S
Cd158 O167 2.356 . S
C159 O164 1.209 . S
C159 O166 1.226 . S
O160 Cd156 2.246 1_565 S
O160 Cd158 2.411 . S
O160 C163 1.320 . S
O161 Cd158 2.333 . S
O161 C163 1.214 . S
O162 Cd158 2.352 . S
O162 C165 1.258 . S
C163 O160 1.320 . S
C163 O161 1.214 . S
O164 Cd156 2.230 1_565 S
O164 C159 1.209 . S
C165 O162 1.258 . S
C165 O167 1.282 . S
O166 Cd158 2.277 . S
O166 C159 1.226 . S
O167 Cd158 2.356 . S
O167 C165 1.282 . S
C168 O169 1.306 . S
C168 O171 1.160 . S
O169 C168 1.306 . S
O169 Cd170 2.228 . S
Cd170 O169 2.228 . S
Cd170 O174 2.273 . S
Cd170 O178 2.277 . S
O171 C168 1.160 . S
O171 Cd172 2.203 . S
Cd172 O171 2.203 . S
Cd172 O174 2.411 . S
Cd172 O175 2.333 1_554 S
Cd172 O176 2.352 . S
Cd172 O180 2.277 . S
Cd172 O181 2.356 . S
C173 O178 1.209 . S
C173 O180 1.226 . S
O174 Cd170 2.273 . S
O174 Cd172 2.411 . S
O174 C177 1.320 1_554 S
O175 Cd172 2.333 1_556 S
O175 C177 1.214 . S
O176 Cd172 2.352 . S
O176 C179 1.258 . S
C177 O174 1.320 1_556 S
C177 O175 1.214 . S
O178 Cd170 2.277 . S
O178 C173 1.209 . S
C179 O176 1.258 . S
C179 O181 1.282 . S
O180 Cd172 2.277 . S
O180 C173 1.226 . S
O181 Cd172 2.356 . S
O181 C179 1.282 . S
C182 O183 1.306 . S
C182 O185 1.160 . S
O183 C182 1.306 . S
O183 Cd184 2.228 . S
Cd184 O183 2.228 . S
Cd184 O188 2.273 . S
Cd184 O192 2.277 . S
O185 C182 1.160 . S
O185 Cd186 2.203 . S
Cd186 O185 2.203 . S
Cd186 O188 2.411 . S
Cd186 O189 2.333 . S
Cd186 O190 2.352 . S
Cd186 O194 2.277 . S
Cd186 O195 2.356 . S
C187 O192 1.209 . S
C187 O194 1.226 . S
O188 Cd184 2.273 . S
O188 Cd186 2.411 . S
O188 C191 1.320 . S
O189 Cd186 2.333 . S
O189 C191 1.214 . S
O190 Cd186 2.352 . S
O190 C193 1.258 . S
C191 O188 1.320 . S
C191 O189 1.214 . S
O192 Cd184 2.277 . S
O192 C187 1.209 . S
C193 O190 1.258 . S
C193 O195 1.282 . S
O194 Cd186 2.277 . S
O194 C187 1.226 . S
O195 Cd186 2.356 . S
O195 C193 1.282 . S
C196 O197 1.306 . S
C196 O199 1.160 . S
O197 C196 1.306 . S
O197 Cd198 2.228 . S
Cd198 O197 2.228 . S
Cd198 O202 2.273 . S
Cd198 O206 2.277 . S
O199 C196 1.160 . S
O199 Cd200 2.203 . S
Cd200 O199 2.203 . S
Cd200 O202 2.411 . S
Cd200 O203 2.333 . S
Cd200 O204 2.352 . S
Cd200 O208 2.277 . S
Cd200 O209 2.356 . S
C201 O206 1.209 . S
C201 O208 1.226 . S
O202 Cd198 2.273 . S
O202 Cd200 2.411 . S
O202 C205 1.320 . S
O203 Cd200 2.333 . S
O203 C205 1.214 . S
O204 Cd200 2.352 . S
O204 C207 1.258 . S
C205 O202 1.320 . S
C205 O203 1.214 . S
O206 Cd198 2.277 . S
O206 C201 1.209 . S
C207 O204 1.258 . S
C207 O209 1.282 . S
O208 Cd200 2.277 . S
O208 C201 1.226 . S
O209 Cd200 2.356 . S
O209 C207 1.282 . S
C210 O211 1.306 . S
C210 O213 1.160 . S
O211 C210 1.306 . S
O211 Cd212 2.207 1_565 S
Cd212 O211 2.207 1_545 S
Cd212 O216 2.245 1_545 S
Cd212 O220 2.229 1_545 S
O213 C210 1.160 . S
O213 Cd214 2.203 . S
Cd214 O213 2.203 . S
Cd214 O216 2.411 . S
Cd214 O217 2.333 . S
Cd214 O218 2.352 . S
Cd214 O222 2.277 . S
Cd214 O223 2.356 . S
C215 O220 1.209 . S
C215 O222 1.226 . S
O216 Cd212 2.245 1_565 S
O216 Cd214 2.411 . S
O216 C219 1.320 . S
O217 Cd214 2.333 . S
O217 C219 1.214 . S
O218 Cd214 2.352 . S
O218 C221 1.258 . S
C219 O216 1.320 . S
C219 O217 1.214 . S
O220 Cd212 2.229 1_565 S
O220 C215 1.209 . S
C221 O218 1.258 . S
C221 O223 1.282 . S
O222 Cd214 2.277 . S
O222 C215 1.226 . S
O223 Cd214 2.356 . S
O223 C221 1.282 . S
C224 O225 1.306 . S
C224 O227 1.160 . S
O225 C224 1.306 . S
O225 Cd226 2.228 . S
Cd226 O225 2.228 . S
Cd226 O230 2.273 . S
Cd226 O234 2.277 . S
O227 C224 1.160 . S
O227 Cd228 2.203 . S
Cd228 O227 2.203 . S
Cd228 O230 2.411 . S
Cd228 O231 2.333 . S
Cd228 O232 2.352 . S
Cd228 O236 2.277 . S
Cd228 O237 2.356 . S
C229 O234 1.209 . S
C229 O236 1.226 . S
O230 Cd226 2.273 . S
O230 Cd228 2.411 . S
O230 C233 1.320 . S
O231 Cd228 2.333 . S
O231 C233 1.214 . S
O232 Cd228 2.352 . S
O232 C235 1.258 . S
C233 O230 1.320 . S
C233 O231 1.214 . S
O234 Cd226 2.277 . S
O234 C229 1.209 . S
C235 O232 1.258 . S
C235 O237 1.282 . S
O236 Cd228 2.277 . S
O236 C229 1.226 . S
O237 Cd228 2.356 . S
O237 C235 1.282 . S
C238 O239 1.306 . S
C238 O241 1.160 . S
O239 C238 1.306 . S
O239 Cd240 2.228 . S
Cd240 O239 2.228 . S
Cd240 O244 2.273 . S
Cd240 O248 2.277 . S
O241 C238 1.160 . S
O241 Cd242 2.203 . S
Cd242 O241 2.203 . S
Cd242 O244 2.411 . S
Cd242 O245 2.333 . S
Cd242 O246 2.352 . S
Cd242 O250 2.277 . S
Cd242 O251 2.356 . S
C243 O248 1.209 . S
C243 O250 1.226 . S
O244 Cd240 2.273 . S
O244 Cd242 2.411 . S
O244 C247 1.320 . S
O245 Cd242 2.333 . S
O245 C247 1.214 . S
O246 Cd242 2.352 . S
O246 C249 1.258 . S
C247 O244 1.320 . S
C247 O245 1.214 . S
O248 Cd240 2.277 . S
O248 C243 1.209 . S
C249 O246 1.258 . S
C249 O251 1.282 . S
O250 Cd242 2.277 . S
O250 C243 1.226 . S
O251 Cd242 2.356 . S
O251 C249 1.282 . S
C252 O253 1.306 . S
C252 O255 1.160 . S
O253 C252 1.306 . S
O253 Cd254 2.228 . S
Cd254 O253 2.228 . S
Cd254 O258 2.273 . S
Cd254 O262 2.277 . S
O255 C252 1.160 . S
O255 Cd256 2.203 . S
Cd256 O255 2.203 . S
Cd256 O258 2.411 . S
Cd256 O259 2.333 1_554 S
Cd256 O260 2.352 . S
Cd256 O264 2.277 . S
Cd256 O265 2.356 . S
C257 O262 1.209 . S
C257 O264 1.226 . S
O258 Cd254 2.273 . S
O258 Cd256 2.411 . S
O258 C261 1.320 1_554 S
O259 Cd256 2.333 1_556 S
O259 C261 1.214 . S
O260 Cd256 2.352 . S
O260 C263 1.258 . S
C261 O258 1.320 1_556 S
C261 O259 1.214 . S
O262 Cd254 2.277 . S
O262 C257 1.209 . S
C263 O260 1.258 . S
C263 O265 1.282 . S
O264 Cd256 2.277 . S
O264 C257 1.226 . S
O265 Cd256 2.356 . S
O265 C263 1.282 . S
C266 O267 1.306 . S
C266 O269 1.160 . S
O267 C266 1.306 . S
O267 Cd268 2.228 . S
Cd268 O267 2.228 . S
Cd268 O272 2.273 . S
Cd268 O276 2.277 . S
O269 C266 1.160 . S
O269 Cd270 2.203 . S
Cd270 O269 2.203 . S
Cd270 O272 2.411 . S
Cd270 O273 2.333 . S
Cd270 O274 2.352 . S
Cd270 O278 2.277 . S
Cd270 O279 2.356 . S
C271 O276 1.209 . S
C271 O278 1.226 . S
O272 Cd268 2.273 . S
O272 Cd270 2.411 . S
O272 C275 1.320 . S
O273 Cd270 2.333 . S
O273 C275 1.214 . S
O274 Cd270 2.352 . S
O274 C277 1.258 . S
C275 O272 1.320 . S
C275 O273 1.214 . S
O276 Cd268 2.277 . S
O276 C271 1.209 . S
C277 O274 1.258 . S
C277 O279 1.282 . S
O278 Cd270 2.277 . S
O278 C271 1.226 . S
O279 Cd270 2.356 . S
O279 C277 1.282 . S
C280 O281 1.306 . S
C280 O283 1.160 . S
O281 C280 1.306 . S
O281 Cd282 2.228 . S
Cd282 O281 2.228 . S
Cd282 O286 2.273 . S
Cd282 O290 2.277 . S
O283 C280 1.160 . S
O283 Cd284 2.203 . S
Cd284 O283 2.203 . S
Cd284 O286 2.411 . S
Cd284 O287 2.333 . S
Cd284 O288 2.352 . S
Cd284 O292 2.277 . S
Cd284 O293 2.356 . S
C285 O290 1.209 . S
C285 O292 1.226 . S
O286 Cd282 2.273 . S
O286 Cd284 2.411 . S
O286 C289 1.320 . S
O287 Cd284 2.333 . S
O287 C289 1.214 . S
O288 Cd284 2.352 . S
O288 C291 1.258 . S
C289 O286 1.320 . S
C289 O287 1.214 . S
O290 Cd282 2.277 . S
O290 C285 1.209 . S
C291 O288 1.258 . S
C291 O293 1.282 . S
O292 Cd284 2.277 . S
O292 C285 1.226 . S
O293 Cd284 2.356 . S
O293 C291 1.282 . S
C294 O295 1.306 . S
C294 O297 1.160 . S
O295 C294 1.306 . S
O295 Cd296 2.228 . S
Cd296 O295 2.228 . S
Cd296 O300 2.273 . S
Cd296 O304 2.277 . S
O297 C294 1.160 . S
O297 Cd298 2.203 . S
Cd298 O297 2.203 . S
Cd298 O300 2.411 . S
Cd298 O301 2.333 . S
Cd298 O302 2.352 . S
Cd298 O306 2.277 . S
Cd298 O307 2.356 . S
C299 O304 1.209 . S
C299 O306 1.226 . S
O300 Cd296 2.273 . S
O300 Cd298 2.411 . S
O300 C303 1.320 . S
O301 Cd298 2.333 . S
O301 C303 1.214 . S
O302 Cd298 2.352 . S
O302 C305 1.258 . S
C303 O300 1.320 . S
C303 O301 1.214 . S
O304 Cd296 2.277 . S
O304 C299 1.209 . S
C305 O302 1.258 . S
C305 O307 1.282 . S
O306 Cd298 2.277 . S
O306 C299 1.226 . S
O307 Cd298 2.356 . S
O307 C305 1.282 . S
C308 O309 1.306 . S
C308 O311 1.160 . S
O309 C308 1.306 . S
O309 Cd310 2.228 . S
Cd310 O309 2.228 . S
Cd310 O314 2.273 . S
Cd310 O318 2.277 . S
O311 C308 1.160 . S
O311 Cd312 2.203 . S
Cd312 O311 2.203 . S
Cd312 O314 2.411 . S
Cd312 O315 2.333 . S
Cd312 O316 2.352 . S
Cd312 O320 2.277 . S
Cd312 O321 2.356 . S
C313 O318 1.209 . S
C313 O320 1.226 . S
O314 Cd310 2.273 . S
O314 Cd312 2.411 . S
O314 C317 1.320 . S
O315 Cd312 2.333 . S
O315 C317 1.214 . S
O316 Cd312 2.352 . S
O316 C319 1.258 . S
C317 O314 1.320 . S
C317 O315 1.214 . S
O318 Cd310 2.277 . S
O318 C313 1.209 . S
C319 O316 1.258 . S
C319 O321 1.282 . S
O320 Cd312 2.277 . S
O320 C313 1.226 . S
O321 Cd312 2.356 . S
O321 C319 1.282 . S
C322 O323 1.306 . S
C322 O325 1.160 . S
O323 C322 1.306 . S
O323 Cd324 2.228 . S
Cd324 O323 2.228 . S
Cd324 O328 2.273 . S
Cd324 O332 2.277 . S
O325 C322 1.160 . S
O325 Cd326 2.203 . S
Cd326 O325 2.203 . S
Cd326 O328 2.411 . S
Cd326 O329 2.333 . S
Cd326 O330 2.352 . S
Cd326 O334 2.277 . S
Cd326 O335 2.356 . S
C327 O332 1.209 . S
C327 O334 1.226 . S
O328 Cd324 2.273 . S
O328 Cd326 2.411 . S
O328 C331 1.320 . S
O329 Cd326 2.333 . S
O329 C331 1.214 . S
O330 Cd326 2.352 . S
O330 C333 1.258 . S
C331 O328 1.320 . S
C331 O329 1.214 . S
O332 Cd324 2.277 . S
O332 C327 1.209 . S
C333 O330 1.258 . S
C333 O335 1.282 . S
O334 Cd326 2.277 . S
O334 C327 1.226 . S
O335 Cd326 2.356 . S
O335 C333 1.282 . S
C336 O337 1.306 . S
C336 O339 1.160 . S
O337 C336 1.306 . S
O337 Cd338 2.228 . S
Cd338 O337 2.228 . S
Cd338 O342 2.273 . S
Cd338 O346 2.277 . S
O339 C336 1.160 . S
O339 Cd340 2.203 . S
Cd340 O339 2.203 . S
Cd340 O342 2.411 . S
Cd340 O343 2.333 . S
Cd340 O344 2.352 . S
Cd340 O348 2.277 . S
Cd340 O349 2.356 . S
C341 O346 1.209 . S
C341 O348 1.226 . S
O342 Cd338 2.273 . S
O342 Cd340 2.411 . S
O342 C345 1.320 . S
O343 Cd340 2.333 . S
O343 C345 1.214 . S
O344 Cd340 2.352 . S
O344 C347 1.258 . S
C345 O342 1.320 . S
C345 O343 1.214 . S
O346 Cd338 2.277 . S
O346 C341 1.209 . S
C347 O344 1.258 . S
C347 O349 1.282 . S
O348 Cd340 2.277 . S
O348 C341 1.226 . S
O349 Cd340 2.356 . S
O349 C347 1.282 . S
C350 O351 1.306 . S
C350 O353 1.160 . S
O351 C350 1.306 . S
O351 Cd352 2.228 . S
Cd352 O351 2.228 . S
Cd352 O356 2.273 . S
Cd352 O360 2.277 . S
O353 C350 1.160 . S
O353 Cd354 2.203 . S
Cd354 O353 2.203 . S
Cd354 O356 2.411 . S
Cd354 O357 2.333 . S
Cd354 O358 2.352 . S
Cd354 O362 2.277 . S
Cd354 O363 2.356 . S
C355 O360 1.209 . S
C355 O362 1.226 . S
O356 Cd352 2.273 . S
O356 Cd354 2.411 . S
O356 C359 1.320 . S
O357 Cd354 2.333 . S
O357 C359 1.214 . S
O358 Cd354 2.352 . S
O358 C361 1.258 . S
C359 O356 1.320 . S
C359 O357 1.214 . S
O360 Cd352 2.277 . S
O360 C355 1.209 . S
C361 O358 1.258 . S
C361 O363 1.282 . S
O362 Cd354 2.277 . S
O362 C355 1.226 . S
O363 Cd354 2.356 . S
O363 C361 1.282 . S
C364 O365 1.306 . S
C364 O367 1.160 . S
O365 C364 1.306 . S
O365 Cd366 2.228 . S
Cd366 O365 2.228 . S
Cd366 O370 2.273 . S
Cd366 O374 2.277 . S
O367 C364 1.160 . S
O367 Cd368 2.203 . S
Cd368 O367 2.203 . S
Cd368 O370 2.411 . S
Cd368 O371 2.333 . S
Cd368 O372 2.352 . S
Cd368 O376 2.277 . S
Cd368 O377 2.356 . S
C369 O374 1.209 . S
C369 O376 1.226 . S
O370 Cd366 2.273 . S
O370 Cd368 2.411 . S
O370 C373 1.320 . S
O371 Cd368 2.333 . S
O371 C373 1.214 . S
O372 Cd368 2.352 . S
O372 C375 1.258 . S
C373 O370 1.320 . S
C373 O371 1.214 . S
O374 Cd366 2.277 . S
O374 C369 1.209 . S
C375 O372 1.258 . S
C375 O377 1.282 . S
O376 Cd368 2.277 . S
O376 C369 1.226 . S
O377 Cd368 2.356 . S
O377 C375 1.282 . S
C378 O379 1.306 . S
C378 O381 1.160 . S
O379 C378 1.306 . S
O379 Cd380 2.228 . S
Cd380 O379 2.228 . S
Cd380 O384 2.273 . S
Cd380 O388 2.277 . S
O381 C378 1.160 . S
O381 Cd382 2.203 . S
Cd382 O381 2.203 . S
Cd382 O384 2.411 . S
Cd382 O385 2.333 . S
Cd382 O386 2.352 . S
Cd382 O390 2.277 . S
Cd382 O391 2.356 . S
C383 O388 1.209 . S
C383 O390 1.226 . S
O384 Cd380 2.273 . S
O384 Cd382 2.411 . S
O384 C387 1.320 . S
O385 Cd382 2.333 . S
O385 C387 1.214 . S
O386 Cd382 2.352 . S
O386 C389 1.258 . S
C387 O384 1.320 . S
C387 O385 1.214 . S
O388 Cd380 2.277 . S
O388 C383 1.209 . S
C389 O386 1.258 . S
C389 O391 1.282 . S
O390 Cd382 2.277 . S
O390 C383 1.226 . S
O391 Cd382 2.356 . S
O391 C389 1.282 . S
C392 O393 1.306 . S
C392 O395 1.160 . S
O393 C392 1.306 . S
O393 Cd394 2.228 . S
Cd394 O393 2.228 . S
Cd394 O398 2.273 . S
Cd394 O402 2.277 . S
O395 C392 1.160 . S
O395 Cd396 2.203 . S
Cd396 O395 2.203 . S
Cd396 O398 2.411 . S
Cd396 O399 2.333 . S
Cd396 O400 2.352 . S
Cd396 O404 2.277 . S
Cd396 O405 2.356 . S
C397 O402 1.209 . S
C397 O404 1.226 . S
O398 Cd394 2.273 . S
O398 Cd396 2.411 . S
O398 C401 1.320 . S
O399 Cd396 2.333 . S
O399 C401 1.214 . S
O400 Cd396 2.352 . S
O400 C403 1.258 . S
C401 O398 1.320 . S
C401 O399 1.214 . S
O402 Cd394 2.277 . S
O402 C397 1.209 . S
C403 O400 1.258 . S
C403 O405 1.282 . S
O404 Cd396 2.277 . S
O404 C397 1.226 . S
O405 Cd396 2.356 . S
O405 C403 1.282 . S
C406 O407 1.306 . S
C406 O409 1.160 . S
O407 C406 1.306 . S
O407 Cd408 2.228 . S
Cd408 O407 2.228 . S
Cd408 O412 2.273 . S
Cd408 O416 2.277 . S
O409 C406 1.160 . S
O409 Cd410 2.203 . S
Cd410 O409 2.203 . S
Cd410 O412 2.411 . S
Cd410 O413 2.333 . S
Cd410 O414 2.352 . S
Cd410 O418 2.277 . S
Cd410 O419 2.356 . S
C411 O416 1.209 . S
C411 O418 1.226 . S
O412 Cd408 2.273 . S
O412 Cd410 2.411 . S
O412 C415 1.320 . S
O413 Cd410 2.333 . S
O413 C415 1.214 . S
O414 Cd410 2.352 . S
O414 C417 1.258 . S
C415 O412 1.320 . S
C415 O413 1.214 . S
O416 Cd408 2.277 . S
O416 C411 1.209 . S
C417 O414 1.258 . S
C417 O419 1.282 . S
O418 Cd410 2.277 . S
O418 C411 1.226 . S
O419 Cd410 2.356 . S
O419 C417 1.282 . S
C420 O421 1.306 . S
C420 O423 1.160 . S
O421 C420 1.306 . S
O421 Cd422 2.228 . S
Cd422 O421 2.228 . S
Cd422 O426 2.273 . S
Cd422 O430 2.277 . S
O423 C420 1.160 . S
O423 Cd424 2.203 . S
Cd424 O423 2.203 . S
Cd424 O426 2.411 . S
Cd424 O427 2.333 1_554 S
Cd424 O428 2.352 . S
Cd424 O432 2.277 . S
Cd424 O433 2.356 . S
C425 O430 1.209 . S
C425 O432 1.226 . S
O426 Cd422 2.273 . S
O426 Cd424 2.411 . S
O426 C429 1.320 1_554 S
O427 Cd424 2.333 1_556 S
O427 C429 1.214 . S
O428 Cd424 2.352 . S
O428 C431 1.258 . S
C429 O426 1.320 1_556 S
C429 O427 1.214 . S
O430 Cd422 2.277 . S
O430 C425 1.209 . S
C431 O428 1.258 . S
C431 O433 1.282 . S
O432 Cd424 2.277 . S
O432 C425 1.226 . S
O433 Cd424 2.356 . S
O433 C431 1.282 . S
C434 O435 1.306 . S
C434 O437 1.160 . S
O435 C434 1.306 . S
O435 Cd436 2.228 . S
Cd436 O435 2.228 . S
Cd436 O440 2.273 . S
Cd436 O444 2.277 . S
O437 C434 1.160 . S
O437 Cd438 2.203 . S
Cd438 O437 2.203 . S
Cd438 O440 2.411 . S
Cd438 O441 2.333 . S
Cd438 O442 2.352 . S
Cd438 O446 2.277 . S
Cd438 O447 2.356 . S
C439 O444 1.209 . S
C439 O446 1.226 . S
O440 Cd436 2.273 . S
O440 Cd438 2.411 . S
O440 C443 1.320 . S
O441 Cd438 2.333 . S
O441 C443 1.214 . S
O442 Cd438 2.352 . S
O442 C445 1.258 . S
C443 O440 1.320 . S
C443 O441 1.214 . S
O444 Cd436 2.277 . S
O444 C439 1.209 . S
C445 O442 1.258 . S
C445 O447 1.282 . S
O446 Cd438 2.277 . S
O446 C439 1.226 . S
O447 Cd438 2.356 . S
O447 C445 1.282 . S
C448 C449 1.349 . S
C448 C450 1.327 . S
C448 H473 0.950 . S
C449 C448 1.349 . S
C449 C465 1.349 . S
C450 C448 1.327 . S
C450 C469 1.429 . S
C450 H474 0.950 . S
C451 C468 1.574 . S
C451 C470 1.368 . S
C451 H475 0.949 . S
H452 C456 0.949 1_554 S
C453 C454 1.349 . S
C453 C455 1.327 1_554 S
C453 H476 0.950 . S
C454 C453 1.349 . S
C454 C466 1.349 . S
C455 C453 1.327 1_556 S
C455 C471 1.433 . S
C455 H477 0.950 . S
C456 H452 0.949 1_556 S
C456 C464 1.574 . S
C456 C472 1.368 . S
H457 C465 0.950 . S
H458 C463 0.950 . S
H459 C464 0.949 . S
H460 C466 0.950 . S
H461 C467 0.950 . S
H462 C468 0.949 . S
C463 H458 0.950 . S
C463 C465 1.327 . S
C463 C469 1.429 . S
C464 C456 1.574 . S
C464 H459 0.949 . S
C464 C470 1.368 . S
C465 C449 1.349 . S
C465 H457 0.950 . S
C465 C463 1.327 . S
C466 C454 1.349 . S
C466 H460 0.950 . S
C466 C467 1.327 . S
C467 H461 0.950 . S
C467 C466 1.327 . S
C467 C471 1.412 1_554 S
C468 C451 1.574 . S
C468 H462 0.949 . S
C468 C472 1.368 . S
C469 C450 1.429 . S
C469 C463 1.429 . S
C469 C470 1.523 . S
C470 C451 1.368 . S
C470 C464 1.368 . S
C470 C469 1.523 . S
C471 C455 1.433 . S
C471 C467 1.412 1_556 S
C471 C472 1.535 . S
C472 C456 1.368 . S
C472 C468 1.368 . S
C472 C471 1.535 . S
H473 C448 0.950 . S
H474 C450 0.950 . S
H475 C451 0.949 . S
H476 C453 0.950 . S
H477 C455 0.950 . S
C478 C479 1.349 . S
C478 C480 1.327 . S
C478 H503 0.950 . S
C479 C478 1.349 . S
C479 C495 1.349 . S
C480 C478 1.327 . S
C480 C499 1.429 . S
C480 H504 0.950 . S
C481 C498 1.574 . S
C481 C500 1.368 . S
C481 H505 0.949 . S
H482 C486 0.949 . S
C483 C484 1.349 . S
C483 C485 1.327 . S
C483 H506 0.950 . S
C484 C483 1.349 . S
C484 C496 1.349 . S
C485 C483 1.327 . S
C485 C501 1.429 . S
C485 H507 0.950 . S
C486 H482 0.949 . S
C486 C494 1.574 . S
C486 C502 1.368 . S
H487 C495 0.950 . S
H488 C493 0.950 . S
H489 C494 0.949 . S
H490 C496 0.950 . S
H491 C497 0.950 . S
H492 C498 0.949 . S
C493 H488 0.950 . S
C493 C495 1.327 . S
C493 C499 1.429 . S
C494 C486 1.574 . S
C494 H489 0.949 . S
C494 C500 1.368 . S
C495 C479 1.349 . S
C495 H487 0.950 . S
C495 C493 1.327 . S
C496 C484 1.349 . S
C496 H490 0.950 . S
C496 C497 1.327 . S
C497 H491 0.950 . S
C497 C496 1.327 . S
C497 C501 1.429 . S
C498 C481 1.574 . S
C498 H492 0.949 . S
C498 C502 1.368 . S
C499 C480 1.429 . S
C499 C493 1.429 . S
C499 C500 1.523 . S
C500 C481 1.368 . S
C500 C494 1.368 . S
C500 C499 1.523 . S
C501 C485 1.429 . S
C501 C497 1.429 . S
C501 C502 1.523 . S
C502 C486 1.368 . S
C502 C498 1.368 . S
C502 C501 1.523 . S
H503 C478 0.950 . S
H504 C480 0.950 . S
H505 C481 0.949 . S
H506 C483 0.950 . S
H507 C485 0.950 . S
C508 C509 1.349 . S
C508 C510 1.327 . S
C508 H533 0.950 . S
C509 C508 1.349 . S
C509 C525 1.349 . S
C510 C508 1.327 . S
C510 C529 1.429 . S
C510 H534 0.950 . S
C511 C528 1.574 . S
C511 C530 1.368 . S
C511 H535 0.949 . S
H512 C516 0.949 . S
C513 C514 1.349 . S
C513 C515 1.327 . S
C513 H536 0.950 . S
C514 C513 1.349 . S
C514 C526 1.349 . S
C515 C513 1.327 . S
C515 C531 1.429 . S
C515 H537 0.950 . S
C516 H512 0.949 . S
C516 C524 1.574 . S
C516 C532 1.368 . S
H517 C525 0.950 . S
H518 C523 0.950 . S
H519 C524 0.949 . S
H520 C526 0.950 . S
H521 C527 0.950 . S
H522 C528 0.949 . S
C523 H518 0.950 . S
C523 C525 1.327 . S
C523 C529 1.429 . S
C524 C516 1.574 . S
C524 H519 0.949 . S
C524 C530 1.368 . S
C525 C509 1.349 . S
C525 H517 0.950 . S
C525 C523 1.327 . S
C526 C514 1.349 . S
C526 H520 0.950 . S
C526 C527 1.327 . S
C527 H521 0.950 . S
C527 C526 1.327 . S
C527 C531 1.429 . S
C528 C511 1.574 . S
C528 H522 0.949 . S
C528 C532 1.368 . S
C529 C510 1.429 . S
C529 C523 1.429 . S
C529 C530 1.523 . S
C530 C511 1.368 . S
C530 C524 1.368 . S
C530 C529 1.523 . S
C531 C515 1.429 . S
C531 C527 1.429 . S
C531 C532 1.523 . S
C532 C516 1.368 . S
C532 C528 1.368 . S
C532 C531 1.523 . S
H533 C508 0.950 . S
H534 C510 0.950 . S
H535 C511 0.949 . S
H536 C513 0.950 . S
H537 C515 0.950 . S
C538 C539 1.349 . S
C538 C540 1.327 . S
C538 H563 0.950 . S
C539 C538 1.349 . S
C539 C555 1.349 . S
C540 C538 1.327 . S
C540 C559 1.429 . S
C540 H564 0.950 . S
C541 C558 1.574 . S
C541 C560 1.368 . S
C541 H565 0.949 . S
H542 C546 0.949 . S
C543 C544 1.349 . S
C543 C545 1.327 . S
C543 H566 0.950 . S
C544 C543 1.349 . S
C544 C556 1.349 . S
C545 C543 1.327 . S
C545 C561 1.429 . S
C545 H567 0.950 . S
C546 H542 0.949 . S
C546 C554 1.574 . S
C546 C562 1.368 . S
H547 C555 0.950 . S
H548 C553 0.950 . S
H549 C554 0.949 . S
H550 C556 0.950 . S
H551 C557 0.950 . S
H552 C558 0.949 . S
C553 H548 0.950 . S
C553 C555 1.327 . S
C553 C559 1.429 . S
C554 C546 1.574 . S
C554 H549 0.949 . S
C554 C560 1.368 . S
C555 C539 1.349 . S
C555 H547 0.950 . S
C555 C553 1.327 . S
C556 C544 1.349 . S
C556 H550 0.950 . S
C556 C557 1.327 . S
C557 H551 0.950 . S
C557 C556 1.327 . S
C557 C561 1.429 . S
C558 C541 1.574 . S
C558 H552 0.949 . S
C558 C562 1.368 . S
C559 C540 1.429 . S
C559 C553 1.429 . S
C559 C560 1.523 . S
C560 C541 1.368 . S
C560 C554 1.368 . S
C560 C559 1.523 . S
C561 C545 1.429 . S
C561 C557 1.429 . S
C561 C562 1.523 . S
C562 C546 1.368 . S
C562 C558 1.368 . S
C562 C561 1.523 . S
H563 C538 0.950 . S
H564 C540 0.950 . S
H565 C541 0.949 . S
H566 C543 0.950 . S
H567 C545 0.950 . S
C568 C569 1.349 . S
C568 C570 1.327 . S
C568 H593 0.950 . S
C569 C568 1.349 . S
C569 C585 1.349 . S
C570 C568 1.327 . S
C570 C589 1.429 . S
C570 H594 0.950 . S
C571 C588 1.574 . S
C571 C590 1.368 . S
C571 H595 0.949 . S
H572 C576 0.949 . S
C573 C574 1.349 . S
C573 C575 1.327 . S
C573 H596 0.950 . S
C574 C573 1.349 . S
C574 C586 1.349 . S
C575 C573 1.327 . S
C575 C591 1.429 . S
C575 H597 0.950 . S
C576 H572 0.949 . S
C576 C584 1.574 . S
C576 C592 1.368 . S
H577 C585 0.950 . S
H578 C583 0.950 . S
H579 C584 0.949 . S
H580 C586 0.950 . S
H581 C587 0.950 . S
H582 C588 0.949 . S
C583 H578 0.950 . S
C583 C585 1.327 . S
C583 C589 1.429 . S
C584 C576 1.574 . S
C584 H579 0.949 . S
C584 C590 1.368 . S
C585 C569 1.349 . S
C585 H577 0.950 . S
C585 C583 1.327 . S
C586 C574 1.349 . S
C586 H580 0.950 . S
C586 C587 1.327 . S
C587 H581 0.950 . S
C587 C586 1.327 . S
C587 C591 1.429 . S
C588 C571 1.574 . S
C588 H582 0.949 . S
C588 C592 1.368 . S
C589 C570 1.429 . S
C589 C583 1.429 . S
C589 C590 1.523 . S
C590 C571 1.368 . S
C590 C584 1.368 . S
C590 C589 1.523 . S
C591 C575 1.429 . S
C591 C587 1.429 . S
C591 C592 1.523 . S
C592 C576 1.368 . S
C592 C588 1.368 . S
C592 C591 1.523 . S
H593 C568 0.950 . S
H594 C570 0.950 . S
H595 C571 0.949 . S
H596 C573 0.950 . S
H597 C575 0.950 . S
C598 C599 1.349 . S
C598 C600 1.327 . S
C598 H623 0.950 . S
C599 C598 1.349 . S
C599 C615 1.349 . S
C600 C598 1.327 . S
C600 C619 1.429 . S
C600 H624 0.950 . S
C601 C618 1.574 . S
C601 C620 1.368 . S
C601 H625 0.949 . S
H602 C606 0.949 . S
C603 C604 1.349 1_556 S
C603 C605 1.327 . S
C603 H626 0.950 . S
C604 C603 1.349 1_554 S
C604 C616 1.349 . S
C605 C603 1.327 . S
C605 C621 1.442 . S
C605 H627 0.950 . S
C606 H602 0.949 . S
C606 C614 1.574 1_554 S
C606 C622 1.368 1_554 S
H607 C615 0.950 . S
H608 C613 0.950 . S
H609 C614 0.949 . S
H610 C616 0.950 . S
H611 C617 0.950 . S
H612 C618 0.949 . S
C613 H608 0.950 . S
C613 C615 1.327 . S
C613 C619 1.429 . S
C614 C606 1.574 1_556 S
C614 H609 0.949 . S
C614 C620 1.368 . S
C615 C599 1.349 . S
C615 H607 0.950 . S
C615 C613 1.327 . S
C616 C604 1.349 . S
C616 H610 0.950 . S
C616 C617 1.327 . S
C617 H611 0.950 . S
C617 C616 1.327 . S
C617 C621 1.402 1_554 S
C618 C601 1.574 . S
C618 H612 0.949 . S
C618 C622 1.368 . S
C619 C600 1.429 . S
C619 C613 1.429 . S
C619 C620 1.523 . S
C620 C601 1.368 . S
C620 C614 1.368 . S
C620 C619 1.523 . S
C621 C605 1.442 . S
C621 C617 1.402 1_556 S
C621 C622 1.535 . S
C622 C606 1.368 1_556 S
C622 C618 1.368 . S
C622 C621 1.535 . S
H623 C598 0.950 . S
H624 C600 0.950 . S
H625 C601 0.949 . S
H626 C603 0.950 . S
H627 C605 0.950 . S
C628 C629 1.349 . S
C628 C630 1.327 . S
C628 H653 0.950 . S
C629 C628 1.349 . S
C629 C645 1.349 . S
C630 C628 1.327 . S
C630 C649 1.429 . S
C630 H654 0.950 . S
C631 C648 1.574 . S
C631 C650 1.368 . S
C631 H655 0.949 . S
H632 C636 0.949 . S
C633 C634 1.349 . S
C633 C635 1.327 . S
C633 H656 0.950 . S
C634 C633 1.349 . S
C634 C646 1.349 . S
C635 C633 1.327 . S
C635 C651 1.429 . S
C635 H657 0.950 . S
C636 H632 0.949 . S
C636 C644 1.574 . S
C636 C652 1.368 . S
H637 C645 0.950 . S
H638 C643 0.950 . S
H639 C644 0.949 . S
H640 C646 0.950 . S
H641 C647 0.950 . S
H642 C648 0.949 . S
C643 H638 0.950 . S
C643 C645 1.327 . S
C643 C649 1.429 . S
C644 C636 1.574 . S
C644 H639 0.949 . S
C644 C650 1.368 . S
C645 C629 1.349 . S
C645 H637 0.950 . S
C645 C643 1.327 . S
C646 C634 1.349 . S
C646 H640 0.950 . S
C646 C647 1.327 . S
C647 H641 0.950 . S
C647 C646 1.327 . S
C647 C651 1.429 . S
C648 C631 1.574 . S
C648 H642 0.949 . S
C648 C652 1.368 . S
C649 C630 1.429 . S
C649 C643 1.429 . S
C649 C650 1.523 . S
C650 C631 1.368 . S
C650 C644 1.368 . S
C650 C649 1.523 . S
C651 C635 1.429 . S
C651 C647 1.429 . S
C651 C652 1.523 . S
C652 C636 1.368 . S
C652 C648 1.368 . S
C652 C651 1.523 . S
H653 C628 0.950 . S
H654 C630 0.950 . S
H655 C631 0.949 . S
H656 C633 0.950 . S
H657 C635 0.950 . S
C658 C659 1.349 . S
C658 C660 1.327 . S
C658 H683 0.950 . S
C659 C658 1.349 . S
C659 C675 1.349 . S
C660 C658 1.327 . S
C660 C679 1.429 . S
C660 H684 0.950 . S
C661 C678 1.574 . S
C661 C680 1.368 . S
C661 H685 0.949 . S
H662 C666 0.949 . S
C663 C664 1.349 . S
C663 C665 1.327 . S
C663 H686 0.950 . S
C664 C663 1.349 . S
C664 C676 1.349 . S
C665 C663 1.327 . S
C665 C681 1.429 . S
C665 H687 0.950 . S
C666 H662 0.949 . S
C666 C674 1.574 . S
C666 C682 1.368 . S
H667 C675 0.950 . S
H668 C673 0.950 . S
H669 C674 0.949 . S
H670 C676 0.950 . S
H671 C677 0.950 . S
H672 C678 0.949 . S
C673 H668 0.950 . S
C673 C675 1.327 . S
C673 C679 1.429 . S
C674 C666 1.574 . S
C674 H669 0.949 . S
C674 C680 1.368 . S
C675 C659 1.349 . S
C675 H667 0.950 . S
C675 C673 1.327 . S
C676 C664 1.349 . S
C676 H670 0.950 . S
C676 C677 1.327 . S
C677 H671 0.950 . S
C677 C676 1.327 . S
C677 C681 1.429 . S
C678 C661 1.574 . S
C678 H672 0.949 . S
C678 C682 1.368 . S
C679 C660 1.429 . S
C679 C673 1.429 . S
C679 C680 1.523 . S
C680 C661 1.368 . S
C680 C674 1.368 . S
C680 C679 1.523 . S
C681 C665 1.429 . S
C681 C677 1.429 . S
C681 C682 1.523 . S
C682 C666 1.368 . S
C682 C678 1.368 . S
C682 C681 1.523 . S
H683 C658 0.950 . S
H684 C660 0.950 . S
H685 C661 0.949 . S
H686 C663 0.950 . S
H687 C665 0.950 . S
C688 C689 1.349 . S
C688 C690 1.327 . S
C688 H713 0.950 . S
C689 C688 1.349 . S
C689 C705 1.349 . S
C690 C688 1.327 . S
C690 C709 1.429 . S
C690 H714 0.950 . S
C691 C708 1.574 . S
C691 C710 1.368 . S
C691 H715 0.949 . S
H692 C696 0.949 . S
C693 C694 1.349 . S
C693 C695 1.327 . S
C693 H716 0.950 . S
C694 C693 1.349 . S
C694 C706 1.349 . S
C695 C693 1.327 . S
C695 C711 1.429 . S
C695 H717 0.950 . S
C696 H692 0.949 . S
C696 C704 1.574 . S
C696 C712 1.368 . S
H697 C705 0.950 . S
H698 C703 0.950 . S
H699 C704 0.949 . S
H700 C706 0.950 . S
H701 C707 0.950 . S
H702 C708 0.949 . S
C703 H698 0.950 . S
C703 C705 1.327 . S
C703 C709 1.429 . S
C704 C696 1.574 . S
C704 H699 0.949 . S
C704 C710 1.368 . S
C705 C689 1.349 . S
C705 H697 0.950 . S
C705 C703 1.327 . S
C706 C694 1.349 . S
C706 H700 0.950 . S
C706 C707 1.327 . S
C707 H701 0.950 . S
C707 C706 1.327 . S
C707 C711 1.429 . S
C708 C691 1.574 . S
C708 H702 0.949 . S
C708 C712 1.368 . S
C709 C690 1.429 . S
C709 C703 1.429 . S
C709 C710 1.523 . S
C710 C691 1.368 . S
C710 C704 1.368 . S
C710 C709 1.523 . S
C711 C695 1.429 . S
C711 C707 1.429 . S
C711 C712 1.523 . S
C712 C696 1.368 . S
C712 C708 1.368 . S
C712 C711 1.523 . S
H713 C688 0.950 . S
H714 C690 0.950 . S
H715 C691 0.949 . S
H716 C693 0.950 . S
H717 C695 0.950 . S
C718 C719 1.349 . S
C718 C720 1.327 . S
C718 H743 0.950 . S
C719 C718 1.349 . S
C719 C735 1.349 . S
C720 C718 1.327 . S
C720 C739 1.429 . S
C720 H744 0.950 . S
C721 C738 1.574 . S
C721 C740 1.368 . S
C721 H745 0.949 . S
H722 C726 0.949 . S
C723 C724 1.349 . S
C723 C725 1.327 . S
C723 H746 0.950 . S
C724 C723 1.349 . S
C724 C736 1.349 . S
C725 C723 1.327 . S
C725 C741 1.429 . S
C725 H747 0.950 . S
C726 H722 0.949 . S
C726 C734 1.574 . S
C726 C742 1.368 . S
H727 C735 0.950 . S
H728 C733 0.950 . S
H729 C734 0.949 . S
H730 C736 0.950 . S
H731 C737 0.950 . S
H732 C738 0.949 . S
C733 H728 0.950 . S
C733 C735 1.327 . S
C733 C739 1.429 . S
C734 C726 1.574 . S
C734 H729 0.949 . S
C734 C740 1.368 . S
C735 C719 1.349 . S
C735 H727 0.950 . S
C735 C733 1.327 . S
C736 C724 1.349 . S
C736 H730 0.950 . S
C736 C737 1.327 . S
C737 H731 0.950 . S
C737 C736 1.327 . S
C737 C741 1.429 . S
C738 C721 1.574 . S
C738 H732 0.949 . S
C738 C742 1.368 . S
C739 C720 1.429 . S
C739 C733 1.429 . S
C739 C740 1.523 . S
C740 C721 1.368 . S
C740 C734 1.368 . S
C740 C739 1.523 . S
C741 C725 1.429 . S
C741 C737 1.429 . S
C741 C742 1.523 . S
C742 C726 1.368 . S
C742 C738 1.368 . S
C742 C741 1.523 . S
H743 C718 0.950 . S
H744 C720 0.950 . S
H745 C721 0.949 . S
H746 C723 0.950 . S
H747 C725 0.950 . S
C748 C749 1.349 . S
C748 C750 1.327 . S
C748 H773 0.950 . S
C749 C748 1.349 . S
C749 C765 1.349 . S
C750 C748 1.327 . S
C750 C769 1.429 . S
C750 H774 0.950 . S
C751 C768 1.574 . S
C751 C770 1.368 . S
C751 H775 0.949 . S
H752 C756 0.949 1_554 S
C753 C754 1.349 . S
C753 C755 1.327 1_554 S
C753 H776 0.950 . S
C754 C753 1.349 . S
C754 C766 1.349 . S
C755 C753 1.327 1_556 S
C755 C771 1.432 . S
C755 H777 0.950 . S
C756 H752 0.949 1_556 S
C756 C764 1.574 . S
C756 C772 1.368 . S
H757 C765 0.950 . S
H758 C763 0.950 . S
H759 C764 0.949 . S
H760 C766 0.950 . S
H761 C767 0.950 . S
H762 C768 0.949 . S
C763 H758 0.950 . S
C763 C765 1.327 . S
C763 C769 1.429 . S
C764 C756 1.574 . S
C764 H759 0.949 . S
C764 C770 1.368 . S
C765 C749 1.349 . S
C765 H757 0.950 . S
C765 C763 1.327 . S
C766 C754 1.349 . S
C766 H760 0.950 . S
C766 C767 1.327 . S
C767 H761 0.950 . S
C767 C766 1.327 . S
C767 C771 1.412 1_554 S
C768 C751 1.574 . S
C768 H762 0.949 . S
C768 C772 1.368 . S
C769 C750 1.429 . S
C769 C763 1.429 . S
C769 C770 1.523 . S
C770 C751 1.368 . S
C770 C764 1.368 . S
C770 C769 1.523 . S
C771 C755 1.432 . S
C771 C767 1.412 1_556 S
C771 C772 1.535 . S
C772 C756 1.368 . S
C772 C768 1.368 . S
C772 C771 1.535 . S
H773 C748 0.950 . S
H774 C750 0.950 . S
H775 C751 0.949 . S
H776 C753 0.950 . S
H777 C755 0.950 . S
C778 C779 1.349 . S
C778 C780 1.327 . S
C778 H803 0.950 . S
C779 C778 1.349 . S
C779 C795 1.349 . S
C780 C778 1.327 . S
C780 C799 1.429 . S
C780 H804 0.950 . S
C781 C798 1.574 . S
C781 C800 1.368 . S
C781 H805 0.949 . S
H782 C786 0.949 . S
C783 C784 1.349 . S
C783 C785 1.327 . S
C783 H806 0.950 . S
C784 C783 1.349 . S
C784 C796 1.349 . S
C785 C783 1.327 . S
C785 C801 1.429 . S
C785 H807 0.950 . S
C786 H782 0.949 . S
C786 C794 1.574 . S
C786 C802 1.368 . S
H787 C795 0.950 . S
H788 C793 0.950 . S
H789 C794 0.949 . S
H790 C796 0.950 . S
H791 C797 0.950 . S
H792 C798 0.949 . S
C793 H788 0.950 . S
C793 C795 1.327 . S
C793 C799 1.429 . S
C794 C786 1.574 . S
C794 H789 0.949 . S
C794 C800 1.368 . S
C795 C779 1.349 . S
C795 H787 0.950 . S
C795 C793 1.327 . S
C796 C784 1.349 . S
C796 H790 0.950 . S
C796 C797 1.327 . S
C797 H791 0.950 . S
C797 C796 1.327 . S
C797 C801 1.429 . S
C798 C781 1.574 . S
C798 H792 0.949 . S
C798 C802 1.368 . S
C799 C780 1.429 . S
C799 C793 1.429 . S
C799 C800 1.523 . S
C800 C781 1.368 . S
C800 C794 1.368 . S
C800 C799 1.523 . S
C801 C785 1.429 . S
C801 C797 1.429 . S
C801 C802 1.523 . S
C802 C786 1.368 . S
C802 C798 1.368 . S
C802 C801 1.523 . S
H803 C778 0.950 . S
H804 C780 0.950 . S
H805 C781 0.949 . S
H806 C783 0.950 . S
H807 C785 0.950 . S
C808 C809 1.349 . S
C808 C810 1.327 . S
C808 H833 0.950 . S
C809 C808 1.349 . S
C809 C825 1.349 . S
C810 C808 1.327 . S
C810 C829 1.429 . S
C810 H834 0.950 . S
C811 C828 1.574 . S
C811 C830 1.368 . S
C811 H835 0.949 . S
H812 C816 0.949 . S
C813 C814 1.349 . S
C813 C815 1.327 . S
C813 H836 0.950 . S
C814 C813 1.349 . S
C814 C826 1.349 . S
C815 C813 1.327 . S
C815 C831 1.429 . S
C815 H837 0.950 . S
C816 H812 0.949 . S
C816 C824 1.574 . S
C816 C832 1.368 . S
H817 C825 0.950 . S
H818 C823 0.950 . S
H819 C824 0.949 . S
H820 C826 0.950 . S
H821 C827 0.950 . S
H822 C828 0.949 . S
C823 H818 0.950 . S
C823 C825 1.327 . S
C823 C829 1.429 . S
C824 C816 1.574 . S
C824 H819 0.949 . S
C824 C830 1.368 . S
C825 C809 1.349 . S
C825 H817 0.950 . S
C825 C823 1.327 . S
C826 C814 1.349 . S
C826 H820 0.950 . S
C826 C827 1.327 . S
C827 H821 0.950 . S
C827 C826 1.327 . S
C827 C831 1.429 . S
C828 C811 1.574 . S
C828 H822 0.949 . S
C828 C832 1.368 . S
C829 C810 1.429 . S
C829 C823 1.429 . S
C829 C830 1.523 . S
C830 C811 1.368 . S
C830 C824 1.368 . S
C830 C829 1.523 . S
C831 C815 1.429 . S
C831 C827 1.429 . S
C831 C832 1.523 . S
C832 C816 1.368 . S
C832 C828 1.368 . S
C832 C831 1.523 . S
H833 C808 0.950 . S
H834 C810 0.950 . S
H835 C811 0.949 . S
H836 C813 0.950 . S
H837 C815 0.950 . S
C838 C839 1.349 . S
C838 C840 1.327 . S
C838 H863 0.950 . S
C839 C838 1.349 . S
C839 C855 1.349 . S
C840 C838 1.327 . S
C840 C859 1.429 . S
C840 H864 0.950 . S
C841 C858 1.574 . S
C841 C860 1.368 . S
C841 H865 0.949 . S
H842 C846 0.949 . S
C843 C844 1.349 . S
C843 C845 1.327 . S
C843 H866 0.950 . S
C844 C843 1.349 . S
C844 C856 1.349 . S
C845 C843 1.327 . S
C845 C861 1.429 . S
C845 H867 0.950 . S
C846 H842 0.949 . S
C846 C854 1.574 . S
C846 C862 1.368 . S
H847 C855 0.950 . S
H848 C853 0.950 . S
H849 C854 0.949 . S
H850 C856 0.950 . S
H851 C857 0.950 . S
H852 C858 0.949 . S
C853 H848 0.950 . S
C853 C855 1.327 . S
C853 C859 1.429 . S
C854 C846 1.574 . S
C854 H849 0.949 . S
C854 C860 1.368 . S
C855 C839 1.349 . S
C855 H847 0.950 . S
C855 C853 1.327 . S
C856 C844 1.349 . S
C856 H850 0.950 . S
C856 C857 1.327 . S
C857 H851 0.950 . S
C857 C856 1.327 . S
C857 C861 1.429 . S
C858 C841 1.574 . S
C858 H852 0.949 . S
C858 C862 1.368 . S
C859 C840 1.429 . S
C859 C853 1.429 . S
C859 C860 1.523 . S
C860 C841 1.368 . S
C860 C854 1.368 . S
C860 C859 1.523 . S
C861 C845 1.429 . S
C861 C857 1.429 . S
C861 C862 1.523 . S
C862 C846 1.368 . S
C862 C858 1.368 . S
C862 C861 1.523 . S
H863 C838 0.950 . S
H864 C840 0.950 . S
H865 C841 0.949 . S
H866 C843 0.950 . S
H867 C845 0.950 . S
C868 C869 1.349 . S
C868 C870 1.327 . S
C868 H893 0.950 . S
C869 C868 1.349 . S
C869 C885 1.349 . S
C870 C868 1.327 . S
C870 C889 1.429 . S
C870 H894 0.950 . S
C871 C888 1.574 . S
C871 C890 1.368 . S
C871 H895 0.949 . S
H872 C876 0.949 . S
C873 C874 1.349 . S
C873 C875 1.327 . S
C873 H896 0.950 . S
C874 C873 1.349 . S
C874 C886 1.349 . S
C875 C873 1.327 . S
C875 C891 1.429 . S
C875 H897 0.950 . S
C876 H872 0.949 . S
C876 C884 1.574 . S
C876 C892 1.368 . S
H877 C885 0.950 . S
H878 C883 0.950 . S
H879 C884 0.949 . S
H880 C886 0.950 . S
H881 C887 0.950 . S
H882 C888 0.949 . S
C883 H878 0.950 . S
C883 C885 1.327 . S
C883 C889 1.429 . S
C884 C876 1.574 . S
C884 H879 0.949 . S
C884 C890 1.368 . S
C885 C869 1.349 . S
C885 H877 0.950 . S
C885 C883 1.327 . S
C886 C874 1.349 . S
C886 H880 0.950 . S
C886 C887 1.327 . S
C887 H881 0.950 . S
C887 C886 1.327 . S
C887 C891 1.429 . S
C888 C871 1.574 . S
C888 H882 0.949 . S
C888 C892 1.368 . S
C889 C870 1.429 . S
C889 C883 1.429 . S
C889 C890 1.523 . S
C890 C871 1.368 . S
C890 C884 1.368 . S
C890 C889 1.523 . S
C891 C875 1.429 . S
C891 C887 1.429 . S
C891 C892 1.523 . S
C892 C876 1.368 . S
C892 C888 1.368 . S
C892 C891 1.523 . S
H893 C868 0.950 . S
H894 C870 0.950 . S
H895 C871 0.949 . S
H896 C873 0.950 . S
H897 C875 0.950 . S
C898 C899 1.349 . S
C898 C900 1.327 . S
C898 H923 0.950 . S
C899 C898 1.349 . S
C899 C915 1.349 . S
C900 C898 1.327 . S
C900 C919 1.429 . S
C900 H924 0.950 . S
C901 C918 1.574 . S
C901 C920 1.368 . S
C901 H925 0.949 . S
H902 C906 0.949 . S
C903 C904 1.349 . S
C903 C905 1.327 . S
C903 H926 0.950 . S
C904 C903 1.349 . S
C904 C916 1.349 . S
C905 C903 1.327 . S
C905 C921 1.416 1_554 S
C905 H927 0.950 . S
C906 H902 0.949 . S
C906 C914 1.574 . S
C906 C922 1.368 . S
H907 C915 0.950 . S
H908 C913 0.950 . S
H909 C914 0.949 . S
H910 C916 0.950 . S
H911 C917 0.950 . S
H912 C918 0.949 . S
C913 H908 0.950 . S
C913 C915 1.327 . S
C913 C919 1.429 . S
C914 C906 1.574 . S
C914 H909 0.949 . S
C914 C920 1.368 . S
C915 C899 1.349 . S
C915 H907 0.950 . S
C915 C913 1.327 . S
C916 C904 1.349 . S
C916 H910 0.950 . S
C916 C917 1.327 1_554 S
C917 H911 0.950 . S
C917 C916 1.327 1_556 S
C917 C921 1.428 . S
C918 C901 1.574 . S
C918 H912 0.949 . S
C918 C922 1.368 . S
C919 C900 1.429 . S
C919 C913 1.429 . S
C919 C920 1.523 . S
C920 C901 1.368 . S
C920 C914 1.368 . S
C920 C919 1.523 . S
C921 C905 1.416 1_556 S
C921 C917 1.428 . S
C921 C922 1.535 . S
C922 C906 1.368 . S
C922 C918 1.368 . S
C922 C921 1.535 . S
H923 C898 0.950 . S
H924 C900 0.950 . S
H925 C901 0.949 . S
H926 C903 0.950 . S
H927 C905 0.950 . S
C928 C929 1.349 . S
C928 C930 1.327 . S
C928 H953 0.950 . S
C929 C928 1.349 . S
C929 C945 1.349 . S
C930 C928 1.327 . S
C930 C949 1.429 . S
C930 H954 0.950 . S
C931 C948 1.574 . S
C931 C950 1.368 . S
C931 H955 0.949 . S
H932 C936 0.949 . S
C933 C934 1.349 . S
C933 C935 1.327 . S
C933 H956 0.950 . S
C934 C933 1.349 . S
C934 C946 1.349 . S
C935 C933 1.327 . S
C935 C951 1.429 . S
C935 H957 0.950 . S
C936 H932 0.949 . S
C936 C944 1.574 . S
C936 C952 1.368 . S
H937 C945 0.950 . S
H938 C943 0.950 . S
H939 C944 0.949 . S
H940 C946 0.950 . S
H941 C947 0.950 . S
H942 C948 0.949 . S
C943 H938 0.950 . S
C943 C945 1.327 . S
C943 C949 1.429 . S
C944 C936 1.574 . S
C944 H939 0.949 . S
C944 C950 1.368 . S
C945 C929 1.349 . S
C945 H937 0.950 . S
C945 C943 1.327 . S
C946 C934 1.349 . S
C946 H940 0.950 . S
C946 C947 1.327 . S
C947 H941 0.950 . S
C947 C946 1.327 . S
C947 C951 1.429 . S
C948 C931 1.574 . S
C948 H942 0.949 . S
C948 C952 1.368 . S
C949 C930 1.429 . S
C949 C943 1.429 . S
C949 C950 1.523 . S
C950 C931 1.368 . S
C950 C944 1.368 . S
C950 C949 1.523 . S
C951 C935 1.429 . S
C951 C947 1.429 . S
C951 C952 1.523 . S
C952 C936 1.368 . S
C952 C948 1.368 . S
C952 C951 1.523 . S
H953 C928 0.950 . S
H954 C930 0.950 . S
H955 C931 0.949 . S
H956 C933 0.950 . S
H957 C935 0.950 . S
C958 C959 1.349 . S
C958 C960 1.327 . S
C958 H983 0.950 . S
C959 C958 1.349 . S
C959 C975 1.355 . S
C960 C958 1.327 . S
C960 C979 1.429 . S
C960 H984 0.950 . S
C961 C978 1.574 . S
C961 C980 1.368 . S
C961 H985 0.949 . S
H962 C966 0.949 1_565 S
C963 C964 1.349 . S
C963 C965 1.327 1_556 S
C963 H986 0.950 . S
C964 C963 1.349 . S
C964 C976 1.349 . S
C965 C963 1.327 1_554 S
C965 C981 1.429 . S
C965 H987 0.950 . S
C966 H962 0.949 1_545 S
C966 C974 1.574 1_545 S
C966 C982 1.368 . S
H967 C975 0.947 1_545 S
H968 C973 0.950 . S
H969 C974 0.949 . S
H970 C976 0.950 . S
H971 C977 0.950 . S
H972 C978 0.949 . S
C973 H968 0.950 . S
C973 C975 1.324 1_545 S
C973 C979 1.429 1_545 S
C974 C966 1.574 1_565 S
C974 H969 0.949 . S
C974 C980 1.368 1_565 S
C975 C959 1.355 . S
C975 H967 0.947 1_565 S
C975 C973 1.324 1_565 S
C976 C964 1.349 . S
C976 H970 0.950 . S
C976 C977 1.327 . S
C977 H971 0.950 . S
C977 C976 1.327 . S
C977 C981 1.429 1_556 S
C978 C961 1.574 . S
C978 H972 0.949 . S
C978 C982 1.368 . S
C979 C960 1.429 . S
C979 C973 1.429 1_565 S
C979 C980 1.523 1_565 S
C980 C961 1.368 . S
C980 C974 1.368 1_545 S
C980 C979 1.523 1_545 S
C981 C965 1.429 . S
C981 C977 1.429 1_554 S
C981 C982 1.523 . S
C982 C966 1.368 . S
C982 C978 1.368 . S
C982 C981 1.523 . S
H983 C958 0.950 . S
H984 C960 0.950 . S
H985 C961 0.949 . S
H986 C963 0.950 . S
H987 C965 0.950 . S
C988 C989 1.349 . S
C988 C990 1.327 . S
C988 H1013 0.950 . S
C989 C988 1.349 . S
C989 C1005 1.349 . S
C990 C988 1.327 . S
C990 C1009 1.429 . S
C990 H1014 0.950 . S
C991 C1008 1.574 . S
C991 C1010 1.368 . S
C991 H1015 0.949 . S
H992 C996 0.949 . S
C993 C994 1.349 . S
C993 C995 1.327 . S
C993 H1016 0.950 . S
C994 C993 1.349 . S
C994 C1006 1.349 . S
C995 C993 1.327 . S
C995 C1011 1.429 . S
C995 H1017 0.950 . S
C996 H992 0.949 . S
C996 C1004 1.574 . S
C996 C1012 1.368 . S
H997 C1005 0.950 . S
H998 C1003 0.950 . S
H999 C1004 0.949 . S
H1000 C1006 0.950 . S
H1001 C1007 0.950 . S
H1002 C1008 0.949 . S
C1003 H998 0.950 . S
C1003 C1005 1.327 . S
C1003 C1009 1.429 . S
C1004 C996 1.574 . S
C1004 H999 0.949 . S
C1004 C1010 1.368 . S
C1005 C989 1.349 . S
C1005 H997 0.950 . S
C1005 C1003 1.327 . S
C1006 C994 1.349 . S
C1006 H1000 0.950 . S
C1006 C1007 1.327 . S
C1007 H1001 0.950 . S
C1007 C1006 1.327 . S
C1007 C1011 1.429 . S
C1008 C991 1.574 . S
C1008 H1002 0.949 . S
C1008 C1012 1.368 . S
C1009 C990 1.429 . S
C1009 C1003 1.429 . S
C1009 C1010 1.523 . S
C1010 C991 1.368 . S
C1010 C1004 1.368 . S
C1010 C1009 1.523 . S
C1011 C995 1.429 . S
C1011 C1007 1.429 . S
C1011 C1012 1.523 . S
C1012 C996 1.368 . S
C1012 C1008 1.368 . S
C1012 C1011 1.523 . S
H1013 C988 0.950 . S
H1014 C990 0.950 . S
H1015 C991 0.949 . S
H1016 C993 0.950 . S
H1017 C995 0.950 . S
C1018 C1019 1.349 . S
C1018 C1020 1.327 . S
C1018 H1043 0.950 . S
C1019 C1018 1.349 . S
C1019 C1035 1.349 . S
C1020 C1018 1.327 . S
C1020 C1039 1.429 . S
C1020 H1044 0.950 . S
C1021 C1038 1.574 1_545 S
C1021 C1040 1.368 . S
C1021 H1045 0.945 1_545 S
H1022 C1026 0.949 . S
C1023 C1024 1.349 . S
C1023 C1025 1.327 . S
C1023 H1046 0.950 . S
C1024 C1023 1.349 . S
C1024 C1036 1.424 . S
C1025 C1023 1.327 . S
C1025 C1041 1.429 . S
C1025 H1047 0.950 . S
C1026 H1022 0.949 . S
C1026 C1034 1.574 . S
C1026 C1042 1.368 . S
H1027 C1035 0.950 . S
H1028 C1033 0.950 . S
H1029 C1034 0.949 . S
H1030 C1036 0.914 1_545 S
H1031 C1037 0.950 . S
H1032 C1038 0.949 . S
C1033 H1028 0.950 . S
C1033 C1035 1.327 . S
C1033 C1039 1.429 . S
C1034 C1026 1.574 . S
C1034 H1029 0.949 . S
C1034 C1040 1.368 . S
C1035 C1019 1.349 . S
C1035 H1027 0.950 . S
C1035 C1033 1.327 . S
C1036 C1024 1.424 . S
C1036 H1030 0.914 1_565 S
C1036 C1037 1.293 1_565 S
C1037 H1031 0.950 . S
C1037 C1036 1.293 1_545 S
C1037 C1041 1.429 1_545 S
C1038 C1021 1.574 1_565 S
C1038 H1032 0.949 . S
C1038 C1042 1.368 1_565 S
C1039 C1020 1.429 . S
C1039 C1033 1.429 . S
C1039 C1040 1.523 . S
C1040 C1021 1.368 . S
C1040 C1034 1.368 . S
C1040 C1039 1.523 . S
C1041 C1025 1.429 . S
C1041 C1037 1.429 1_565 S
C1041 C1042 1.523 1_565 S
C1042 C1026 1.368 . S
C1042 C1038 1.368 1_545 S
C1042 C1041 1.523 1_545 S
H1043 C1018 0.950 . S
H1044 C1020 0.950 . S
H1045 C1021 0.945 1_565 S
H1046 C1023 0.950 . S
H1047 C1025 0.950 . S
C1048 C1049 1.349 . S
C1048 C1050 1.327 . S
C1048 H1073 0.950 . S
C1049 C1048 1.349 . S
C1049 C1065 1.349 . S
C1050 C1048 1.327 . S
C1050 C1069 1.429 . S
C1050 H1074 0.950 . S
C1051 C1068 1.574 . S
C1051 C1070 1.368 . S
C1051 H1075 0.949 . S
H1052 C1056 0.949 . S
C1053 C1054 1.349 . S
C1053 C1055 1.327 . S
C1053 H1076 0.950 . S
C1054 C1053 1.349 . S
C1054 C1066 1.349 . S
C1055 C1053 1.327 . S
C1055 C1071 1.429 . S
C1055 H1077 0.950 . S
C1056 H1052 0.949 . S
C1056 C1064 1.574 . S
C1056 C1072 1.368 . S
H1057 C1065 0.950 . S
H1058 C1063 0.950 . S
H1059 C1064 0.949 . S
H1060 C1066 0.950 . S
H1061 C1067 0.950 . S
H1062 C1068 0.949 . S
C1063 H1058 0.950 . S
C1063 C1065 1.327 . S
C1063 C1069 1.429 . S
C1064 C1056 1.574 . S
C1064 H1059 0.949 . S
C1064 C1070 1.368 . S
C1065 C1049 1.349 . S
C1065 H1057 0.950 . S
C1065 C1063 1.327 . S
C1066 C1054 1.349 . S
C1066 H1060 0.950 . S
C1066 C1067 1.327 . S
C1067 H1061 0.950 . S
C1067 C1066 1.327 . S
C1067 C1071 1.429 . S
C1068 C1051 1.574 . S
C1068 H1062 0.949 . S
C1068 C1072 1.368 . S
C1069 C1050 1.429 . S
C1069 C1063 1.429 . S
C1069 C1070 1.523 . S
C1070 C1051 1.368 . S
C1070 C1064 1.368 . S
C1070 C1069 1.523 . S
C1071 C1055 1.429 . S
C1071 C1067 1.429 . S
C1071 C1072 1.523 . S
C1072 C1056 1.368 . S
C1072 C1068 1.368 . S
C1072 C1071 1.523 . S
H1073 C1048 0.950 . S
H1074 C1050 0.950 . S
H1075 C1051 0.949 . S
H1076 C1053 0.950 . S
H1077 C1055 0.950 . S
C1078 C1079 1.349 . S
C1078 C1080 1.327 . S
C1078 H1103 0.950 . S
C1079 C1078 1.349 . S
C1079 C1095 1.349 . S
C1080 C1078 1.327 . S
C1080 C1099 1.429 1_556 S
C1080 H1104 0.950 . S
C1081 C1098 1.574 . S
C1081 C1100 1.368 . S
C1081 H1105 0.949 . S
H1082 C1086 0.949 . S
C1083 C1084 1.349 . S
C1083 C1085 1.327 1_565 S
C1083 H1106 0.950 1_565 S
C1084 C1083 1.349 . S
C1084 C1096 1.349 . S
C1085 C1083 1.327 1_545 S
C1085 C1101 1.429 1_545 S
C1085 H1107 0.950 . S
C1086 H1082 0.949 . S
C1086 C1094 1.574 1_565 S
C1086 C1102 1.368 1_565 S
H1087 C1095 0.950 . S
H1088 C1093 0.945 1_554 S
H1089 C1094 0.990 . S
H1090 C1096 0.950 . S
H1091 C1097 0.950 . S
H1092 C1098 0.949 . S
C1093 H1088 0.945 1_556 S
C1093 C1095 1.333 . S
C1093 C1099 1.427 1_556 S
C1094 C1086 1.574 1_545 S
C1094 H1089 0.990 . S
C1094 C1100 1.368 . S
C1095 C1079 1.349 . S
C1095 H1087 0.950 . S
C1095 C1093 1.333 . S
C1096 C1084 1.349 . S
C1096 H1090 0.950 . S
C1096 C1097 1.327 . S
C1097 H1091 0.950 . S
C1097 C1096 1.327 . S
C1097 C1101 1.429 . S
C1098 C1081 1.574 . S
C1098 H1092 0.949 . S
C1098 C1102 1.368 . S
C1099 C1080 1.429 1_554 S
C1099 C1093 1.427 1_554 S
C1099 C1100 1.523 . S
C1100 C1081 1.368 . S
C1100 C1094 1.368 . S
C1100 C1099 1.523 . S
C1101 C1085 1.429 1_565 S
C1101 C1097 1.429 . S
C1101 C1102 1.523 1_565 S
C1102 C1086 1.368 1_545 S
C1102 C1098 1.368 . S
C1102 C1101 1.523 1_545 S
H1103 C1078 0.950 . S
H1104 C1080 0.950 . S
H1105 C1081 0.949 . S
H1106 C1083 0.950 1_545 S
H1107 C1085 0.950 . S
C1108 C1109 1.349 . S
C1108 C1110 1.327 . S
C1108 H1133 0.950 . S
C1109 C1108 1.349 . S
C1109 C1125 1.349 . S
C1110 C1108 1.327 . S
C1110 C1129 1.429 . S
C1110 H1134 0.950 . S
C1111 C1128 1.574 . S
C1111 C1130 1.368 . S
C1111 H1135 0.949 . S
H1112 C1116 0.949 . S
C1113 C1114 1.349 . S
C1113 C1115 1.327 . S
C1113 H1136 0.950 . S
C1114 C1113 1.349 . S
C1114 C1126 1.349 . S
C1115 C1113 1.327 . S
C1115 C1131 1.429 . S
C1115 H1137 0.950 . S
C1116 H1112 0.949 . S
C1116 C1124 1.574 . S
C1116 C1132 1.368 . S
H1117 C1125 0.950 . S
H1118 C1123 0.950 . S
H1119 C1124 0.949 . S
H1120 C1126 0.950 . S
H1121 C1127 0.950 . S
H1122 C1128 0.949 . S
C1123 H1118 0.950 . S
C1123 C1125 1.327 . S
C1123 C1129 1.429 . S
C1124 C1116 1.574 . S
C1124 H1119 0.949 . S
C1124 C1130 1.368 . S
C1125 C1109 1.349 . S
C1125 H1117 0.950 . S
C1125 C1123 1.327 . S
C1126 C1114 1.349 . S
C1126 H1120 0.950 . S
C1126 C1127 1.327 . S
C1127 H1121 0.950 . S
C1127 C1126 1.327 . S
C1127 C1131 1.429 . S
C1128 C1111 1.574 . S
C1128 H1122 0.949 . S
C1128 C1132 1.368 . S
C1129 C1110 1.429 . S
C1129 C1123 1.429 . S
C1129 C1130 1.523 . S
C1130 C1111 1.368 . S
C1130 C1124 1.368 . S
C1130 C1129 1.523 . S
C1131 C1115 1.429 . S
C1131 C1127 1.429 . S
C1131 C1132 1.523 . S
C1132 C1116 1.368 . S
C1132 C1128 1.368 . S
C1132 C1131 1.523 . S
H1133 C1108 0.950 . S
H1134 C1110 0.950 . S
H1135 C1111 0.949 . S
H1136 C1113 0.950 . S
H1137 C1115 0.950 . S
C1138 C1139 1.349 . S
C1138 C1140 1.327 . S
C1138 H1163 0.950 . S
C1139 C1138 1.349 . S
C1139 C1155 1.349 . S
C1140 C1138 1.327 . S
C1140 C1159 1.429 . S
C1140 H1164 0.950 . S
C1141 C1158 1.574 1_545 S
C1141 C1160 1.368 . S
C1141 H1165 0.949 . S
H1142 C1146 0.949 . S
C1143 C1144 1.349 . S
C1143 C1145 1.327 . S
C1143 H1166 0.950 . S
C1144 C1143 1.349 . S
C1144 C1156 1.349 . S
C1145 C1143 1.327 . S
C1145 C1161 1.429 . S
C1145 H1167 0.950 . S
C1146 H1142 0.949 . S
C1146 C1154 1.574 . S
C1146 C1162 1.368 . S
H1147 C1155 0.950 . S
H1148 C1153 0.950 . S
H1149 C1154 0.949 . S
H1150 C1156 0.950 1_545 S
H1151 C1157 0.950 . S
H1152 C1158 0.949 . S
C1153 H1148 0.950 . S
C1153 C1155 1.327 . S
C1153 C1159 1.429 . S
C1154 C1146 1.574 . S
C1154 H1149 0.949 . S
C1154 C1160 1.368 . S
C1155 C1139 1.349 . S
C1155 H1147 0.950 . S
C1155 C1153 1.327 . S
C1156 C1144 1.349 . S
C1156 H1150 0.950 1_565 S
C1156 C1157 1.327 1_565 S
C1157 H1151 0.950 . S
C1157 C1156 1.327 1_545 S
C1157 C1161 1.429 1_545 S
C1158 C1141 1.574 1_565 S
C1158 H1152 0.949 . S
C1158 C1162 1.368 1_565 S
C1159 C1140 1.429 . S
C1159 C1153 1.429 . S
C1159 C1160 1.523 . S
C1160 C1141 1.368 . S
C1160 C1154 1.368 . S
C1160 C1159 1.523 . S
C1161 C1145 1.429 . S
C1161 C1157 1.429 1_565 S
C1161 C1162 1.523 1_565 S
C1162 C1146 1.368 . S
C1162 C1158 1.368 1_545 S
C1162 C1161 1.523 1_545 S
H1163 C1138 0.950 . S
H1164 C1140 0.950 . S
H1165 C1141 0.949 . S
H1166 C1143 0.950 . S
H1167 C1145 0.950 . S
C1168 C1169 1.349 . S
C1168 C1170 1.327 . S
C1168 H1193 0.950 . S
C1169 C1168 1.349 . S
C1169 C1185 1.349 . S
C1170 C1168 1.327 . S
C1170 C1189 1.429 . S
C1170 H1194 0.950 . S
C1171 C1188 1.574 . S
C1171 C1190 1.368 . S
C1171 H1195 0.949 . S
H1172 C1176 0.949 . S
C1173 C1174 1.349 . S
C1173 C1175 1.327 . S
C1173 H1196 0.950 . S
C1174 C1173 1.349 . S
C1174 C1186 1.349 . S
C1175 C1173 1.327 . S
C1175 C1191 1.429 . S
C1175 H1197 0.950 . S
C1176 H1172 0.949 . S
C1176 C1184 1.574 . S
C1176 C1192 1.368 . S
H1177 C1185 0.950 . S
H1178 C1183 0.950 . S
H1179 C1184 0.949 . S
H1180 C1186 0.950 . S
H1181 C1187 0.950 . S
H1182 C1188 0.949 . S
C1183 H1178 0.950 . S
C1183 C1185 1.327 . S
C1183 C1189 1.429 . S
C1184 C1176 1.574 . S
C1184 H1179 0.949 . S
C1184 C1190 1.368 . S
C1185 C1169 1.349 . S
C1185 H1177 0.950 . S
C1185 C1183 1.327 . S
C1186 C1174 1.349 . S
C1186 H1180 0.950 . S
C1186 C1187 1.327 . S
C1187 H1181 0.950 . S
C1187 C1186 1.327 . S
C1187 C1191 1.429 . S
C1188 C1171 1.574 . S
C1188 H1182 0.949 . S
C1188 C1192 1.368 . S
C1189 C1170 1.429 . S
C1189 C1183 1.429 . S
C1189 C1190 1.523 . S
C1190 C1171 1.368 . S
C1190 C1184 1.368 . S
C1190 C1189 1.523 . S
C1191 C1175 1.429 . S
C1191 C1187 1.429 . S
C1191 C1192 1.523 . S
C1192 C1176 1.368 . S
C1192 C1188 1.368 . S
C1192 C1191 1.523 . S
H1193 C1168 0.950 . S
H1194 C1170 0.950 . S
H1195 C1171 0.949 . S
H1196 C1173 0.950 . S
H1197 C1175 0.950 . S
C1198 C1199 1.349 . S
C1198 C1200 1.327 . S
C1198 H1223 0.950 . S
C1199 C1198 1.349 . S
C1199 C1215 1.349 . S
C1200 C1198 1.327 . S
C1200 C1219 1.429 . S
C1200 H1224 0.950 . S
C1201 C1218 1.574 . S
C1201 C1220 1.368 . S
C1201 H1225 0.949 . S
H1202 C1206 0.949 . S
C1203 C1204 1.349 . S
C1203 C1205 1.327 . S
C1203 H1226 0.950 . S
C1204 C1203 1.349 . S
C1204 C1216 1.349 . S
C1205 C1203 1.327 . S
C1205 C1221 1.429 . S
C1205 H1227 0.950 . S
C1206 H1202 0.949 . S
C1206 C1214 1.574 . S
C1206 C1222 1.368 . S
H1207 C1215 0.950 . S
H1208 C1213 0.950 . S
H1209 C1214 0.949 . S
H1210 C1216 0.950 . S
H1211 C1217 0.950 . S
H1212 C1218 0.949 . S
C1213 H1208 0.950 . S
C1213 C1215 1.327 . S
C1213 C1219 1.429 . S
C1214 C1206 1.574 . S
C1214 H1209 0.949 . S
C1214 C1220 1.368 . S
C1215 C1199 1.349 . S
C1215 H1207 0.950 . S
C1215 C1213 1.327 . S
C1216 C1204 1.349 . S
C1216 H1210 0.950 . S
C1216 C1217 1.327 . S
C1217 H1211 0.950 . S
C1217 C1216 1.327 . S
C1217 C1221 1.429 . S
C1218 C1201 1.574 . S
C1218 H1212 0.949 . S
C1218 C1222 1.368 . S
C1219 C1200 1.429 . S
C1219 C1213 1.429 . S
C1219 C1220 1.523 . S
C1220 C1201 1.368 . S
C1220 C1214 1.368 . S
C1220 C1219 1.523 . S
C1221 C1205 1.429 . S
C1221 C1217 1.429 . S
C1221 C1222 1.523 . S
C1222 C1206 1.368 . S
C1222 C1218 1.368 . S
C1222 C1221 1.523 . S
H1223 C1198 0.950 . S
H1224 C1200 0.950 . S
H1225 C1201 0.949 . S
H1226 C1203 0.950 . S
H1227 C1205 0.950 . S
C1228 C1229 1.349 . S
C1228 C1230 1.327 . S
C1228 H1253 0.950 . S
C1229 C1228 1.349 . S
C1229 C1245 1.349 . S
C1230 C1228 1.327 . S
C1230 C1249 1.429 . S
C1230 H1254 0.950 . S
C1231 C1248 1.574 . S
C1231 C1250 1.368 . S
C1231 H1255 0.949 . S
H1232 C1236 0.949 . S
C1233 C1234 1.349 . S
C1233 C1235 1.327 . S
C1233 H1256 0.950 . S
C1234 C1233 1.349 . S
C1234 C1246 1.349 . S
C1235 C1233 1.327 . S
C1235 C1251 1.429 . S
C1235 H1257 0.950 . S
C1236 H1232 0.949 . S
C1236 C1244 1.574 . S
C1236 C1252 1.368 . S
H1237 C1245 0.950 . S
H1238 C1243 0.950 . S
H1239 C1244 0.949 . S
H1240 C1246 0.950 . S
H1241 C1247 0.950 . S
H1242 C1248 0.949 . S
C1243 H1238 0.950 . S
C1243 C1245 1.327 . S
C1243 C1249 1.429 . S
C1244 C1236 1.574 . S
C1244 H1239 0.949 . S
C1244 C1250 1.368 . S
C1245 C1229 1.349 . S
C1245 H1237 0.950 . S
C1245 C1243 1.327 . S
C1246 C1234 1.349 . S
C1246 H1240 0.950 . S
C1246 C1247 1.327 . S
C1247 H1241 0.950 . S
C1247 C1246 1.327 . S
C1247 C1251 1.429 . S
C1248 C1231 1.574 . S
C1248 H1242 0.949 . S
C1248 C1252 1.368 . S
C1249 C1230 1.429 . S
C1249 C1243 1.429 . S
C1249 C1250 1.523 . S
C1250 C1231 1.368 . S
C1250 C1244 1.368 . S
C1250 C1249 1.523 . S
C1251 C1235 1.429 . S
C1251 C1247 1.429 . S
C1251 C1252 1.523 . S
C1252 C1236 1.368 . S
C1252 C1248 1.368 . S
C1252 C1251 1.523 . S
H1253 C1228 0.950 . S
H1254 C1230 0.950 . S
H1255 C1231 0.949 . S
H1256 C1233 0.950 . S
H1257 C1235 0.950 . S
C1258 C1259 1.349 . S
C1258 C1260 1.327 . S
C1258 H1283 0.950 . S
C1259 C1258 1.349 . S
C1259 C1275 1.349 . S
C1260 C1258 1.327 . S
C1260 C1279 1.429 . S
C1260 H1284 0.950 . S
C1261 C1278 1.574 . S
C1261 C1280 1.368 . S
C1261 H1285 0.949 . S
H1262 C1266 0.949 . S
C1263 C1264 1.349 . S
C1263 C1265 1.322 1_556 S
C1263 H1286 0.950 . S
C1264 C1263 1.349 . S
C1264 C1276 1.349 . S
C1265 C1263 1.322 1_554 S
C1265 C1281 1.430 . S
C1265 H1287 0.953 . S
C1266 H1262 0.949 . S
C1266 C1274 1.574 . S
C1266 C1282 1.368 . S
H1267 C1275 0.950 . S
H1268 C1273 0.950 . S
H1269 C1274 0.949 . S
H1270 C1276 0.950 . S
H1271 C1277 0.950 . S
H1272 C1278 0.949 . S
C1273 H1268 0.950 . S
C1273 C1275 1.327 . S
C1273 C1279 1.429 . S
C1274 C1266 1.574 . S
C1274 H1269 0.949 . S
C1274 C1280 1.368 . S
C1275 C1259 1.349 . S
C1275 H1267 0.950 . S
C1275 C1273 1.327 . S
C1276 C1264 1.349 . S
C1276 H1270 0.950 . S
C1276 C1277 1.327 . S
C1277 H1271 0.950 . S
C1277 C1276 1.327 . S
C1277 C1281 1.429 1_556 S
C1278 C1261 1.574 . S
C1278 H1272 0.949 . S
C1278 C1282 1.368 . S
C1279 C1260 1.429 . S
C1279 C1273 1.429 . S
C1279 C1280 1.523 . S
C1280 C1261 1.368 . S
C1280 C1274 1.368 . S
C1280 C1279 1.523 . S
C1281 C1265 1.430 . S
C1281 C1277 1.429 1_554 S
C1281 C1282 1.523 . S
C1282 C1266 1.368 . S
C1282 C1278 1.368 . S
C1282 C1281 1.523 . S
H1283 C1258 0.950 . S
H1284 C1260 0.950 . S
H1285 C1261 0.949 . S
H1286 C1263 0.950 . S
H1287 C1265 0.953 . S
C1288 C1289 1.349 . S
C1288 C1290 1.327 . S
C1288 H1313 0.950 . S
C1289 C1288 1.349 . S
C1289 C1305 1.349 . S
C1290 C1288 1.327 . S
C1290 C1309 1.429 . S
C1290 H1314 0.950 . S
C1291 C1308 1.574 . S
C1291 C1310 1.368 . S
C1291 H1315 0.949 . S
H1292 C1296 0.949 . S
C1293 C1294 1.349 . S
C1293 C1295 1.327 . S
C1293 H1316 0.950 . S
C1294 C1293 1.349 . S
C1294 C1306 1.349 . S
C1295 C1293 1.327 . S
C1295 C1311 1.429 . S
C1295 H1317 0.950 . S
C1296 H1292 0.949 . S
C1296 C1304 1.574 . S
C1296 C1312 1.368 . S
H1297 C1305 0.950 . S
H1298 C1303 0.950 . S
H1299 C1304 0.949 . S
H1300 C1306 0.950 . S
H1301 C1307 0.950 . S
H1302 C1308 0.949 . S
C1303 H1298 0.950 . S
C1303 C1305 1.327 . S
C1303 C1309 1.429 . S
C1304 C1296 1.574 . S
C1304 H1299 0.949 . S
C1304 C1310 1.368 . S
C1305 C1289 1.349 . S
C1305 H1297 0.950 . S
C1305 C1303 1.327 . S
C1306 C1294 1.349 . S
C1306 H1300 0.950 . S
C1306 C1307 1.327 . S
C1307 H1301 0.950 . S
C1307 C1306 1.327 . S
C1307 C1311 1.429 . S
C1308 C1291 1.574 . S
C1308 H1302 0.949 . S
C1308 C1312 1.368 . S
C1309 C1290 1.429 . S
C1309 C1303 1.429 . S
C1309 C1310 1.523 . S
C1310 C1291 1.368 . S
C1310 C1304 1.368 . S
C1310 C1309 1.523 . S
C1311 C1295 1.429 . S
C1311 C1307 1.429 . S
C1311 C1312 1.523 . S
C1312 C1296 1.368 . S
C1312 C1308 1.368 . S
C1312 C1311 1.523 . S
H1313 C1288 0.950 . S
H1314 C1290 0.950 . S
H1315 C1291 0.949 . S
H1316 C1293 0.950 . S
H1317 C1295 0.950 . S
C1318 C1319 1.349 . S
C1318 C1320 1.327 . S
C1318 H1343 0.950 . S
C1319 C1318 1.349 . S
C1319 C1335 1.349 . S
C1320 C1318 1.327 . S
C1320 C1339 1.429 . S
C1320 H1344 0.950 . S
C1321 C1338 1.574 . S
C1321 C1340 1.368 . S
C1321 H1345 0.949 . S
H1322 C1326 0.949 . S
C1323 C1324 1.349 . S
C1323 C1325 1.327 . S
C1323 H1346 0.950 . S
C1324 C1323 1.349 . S
C1324 C1336 1.349 . S
C1325 C1323 1.327 . S
C1325 C1341 1.429 . S
C1325 H1347 0.950 . S
C1326 H1322 0.949 . S
C1326 C1334 1.574 . S
C1326 C1342 1.368 . S
H1327 C1335 0.950 . S
H1328 C1333 0.950 . S
H1329 C1334 0.949 . S
H1330 C1336 0.950 . S
H1331 C1337 0.950 . S
H1332 C1338 0.949 . S
C1333 H1328 0.950 . S
C1333 C1335 1.327 . S
C1333 C1339 1.429 . S
C1334 C1326 1.574 . S
C1334 H1329 0.949 . S
C1334 C1340 1.368 . S
C1335 C1319 1.349 . S
C1335 H1327 0.950 . S
C1335 C1333 1.327 . S
C1336 C1324 1.349 . S
C1336 H1330 0.950 . S
C1336 C1337 1.327 . S
C1337 H1331 0.950 . S
C1337 C1336 1.327 . S
C1337 C1341 1.429 . S
C1338 C1321 1.574 . S
C1338 H1332 0.949 . S
C1338 C1342 1.368 . S
C1339 C1320 1.429 . S
C1339 C1333 1.429 . S
C1339 C1340 1.523 . S
C1340 C1321 1.368 . S
C1340 C1334 1.368 . S
C1340 C1339 1.523 . S
C1341 C1325 1.429 . S
C1341 C1337 1.429 . S
C1341 C1342 1.523 . S
C1342 C1326 1.368 . S
C1342 C1338 1.368 . S
C1342 C1341 1.523 . S
H1343 C1318 0.950 . S
H1344 C1320 0.950 . S
H1345 C1321 0.949 . S
H1346 C1323 0.950 . S
H1347 C1325 0.950 . S
C1348 C1349 1.349 . S
C1348 C1350 1.327 . S
C1348 H1373 0.950 . S
C1349 C1348 1.349 . S
C1349 C1365 1.349 . S
C1350 C1348 1.327 . S
C1350 C1369 1.429 . S
C1350 H1374 0.950 . S
C1351 C1368 1.574 . S
C1351 C1370 1.368 . S
C1351 H1375 0.949 . S
H1352 C1356 0.949 . S
C1353 C1354 1.349 . S
C1353 C1355 1.327 . S
C1353 H1376 0.950 . S
C1354 C1353 1.349 . S
C1354 C1366 1.349 . S
C1355 C1353 1.327 . S
C1355 C1371 1.429 . S
C1355 H1377 0.950 . S
C1356 H1352 0.949 . S
C1356 C1364 1.574 . S
C1356 C1372 1.368 . S
H1357 C1365 0.950 . S
H1358 C1363 0.950 . S
H1359 C1364 0.949 . S
H1360 C1366 0.950 . S
H1361 C1367 0.950 . S
H1362 C1368 0.949 . S
C1363 H1358 0.950 . S
C1363 C1365 1.327 . S
C1363 C1369 1.429 . S
C1364 C1356 1.574 . S
C1364 H1359 0.949 . S
C1364 C1370 1.368 . S
C1365 C1349 1.349 . S
C1365 H1357 0.950 . S
C1365 C1363 1.327 . S
C1366 C1354 1.349 . S
C1366 H1360 0.950 . S
C1366 C1367 1.327 . S
C1367 H1361 0.950 . S
C1367 C1366 1.327 . S
C1367 C1371 1.429 . S
C1368 C1351 1.574 . S
C1368 H1362 0.949 . S
C1368 C1372 1.368 . S
C1369 C1350 1.429 . S
C1369 C1363 1.429 . S
C1369 C1370 1.523 . S
C1370 C1351 1.368 . S
C1370 C1364 1.368 . S
C1370 C1369 1.523 . S
C1371 C1355 1.429 . S
C1371 C1367 1.429 . S
C1371 C1372 1.523 . S
C1372 C1356 1.368 . S
C1372 C1368 1.368 . S
C1372 C1371 1.523 . S
H1373 C1348 0.950 . S
H1374 C1350 0.950 . S
H1375 C1351 0.949 . S
H1376 C1353 0.950 . S
H1377 C1355 0.950 . S
C1378 C1379 1.349 . S
C1378 C1380 1.327 . S
C1378 H1403 0.950 . S
C1379 C1378 1.349 . S
C1379 C1395 1.349 . S
C1380 C1378 1.327 . S
C1380 C1399 1.429 . S
C1380 H1404 0.950 . S
C1381 C1398 1.574 . S
C1381 C1400 1.368 . S
C1381 H1405 0.949 . S
H1382 C1386 0.949 . S
C1383 C1384 1.349 . S
C1383 C1385 1.327 . S
C1383 H1406 0.950 . S
C1384 C1383 1.349 . S
C1384 C1396 1.349 . S
C1385 C1383 1.327 . S
C1385 C1401 1.429 1_556 S
C1385 H1407 0.950 1_556 S
C1386 H1382 0.949 . S
C1386 C1394 1.574 . S
C1386 C1402 1.368 . S
H1387 C1395 0.950 . S
H1388 C1393 0.950 . S
H1389 C1394 0.949 . S
H1390 C1396 0.950 . S
H1391 C1397 0.950 . S
H1392 C1398 0.949 . S
C1393 H1388 0.950 . S
C1393 C1395 1.327 . S
C1393 C1399 1.429 . S
C1394 C1386 1.574 . S
C1394 H1389 0.949 . S
C1394 C1400 1.368 . S
C1395 C1379 1.349 . S
C1395 H1387 0.950 . S
C1395 C1393 1.327 . S
C1396 C1384 1.349 . S
C1396 H1390 0.950 . S
C1396 C1397 1.327 . S
C1397 H1391 0.950 . S
C1397 C1396 1.327 . S
C1397 C1401 1.429 1_556 S
C1398 C1381 1.574 . S
C1398 H1392 0.949 . S
C1398 C1402 1.368 . S
C1399 C1380 1.429 . S
C1399 C1393 1.429 . S
C1399 C1400 1.523 . S
C1400 C1381 1.368 . S
C1400 C1394 1.368 . S
C1400 C1399 1.523 . S
C1401 C1385 1.429 1_554 S
C1401 C1397 1.429 1_554 S
C1401 C1402 1.523 . S
C1402 C1386 1.368 . S
C1402 C1398 1.368 . S
C1402 C1401 1.523 . S
H1403 C1378 0.950 . S
H1404 C1380 0.950 . S
H1405 C1381 0.949 . S
H1406 C1383 0.950 . S
H1407 C1385 0.950 1_554 S
C1408 C1409 1.349 . S
C1408 C1410 1.327 . S
C1408 H1433 0.950 . S
C1409 C1408 1.349 . S
C1409 C1425 1.349 . S
C1410 C1408 1.327 . S
C1410 C1429 1.429 . S
C1410 H1434 0.950 . S
C1411 C1428 1.574 . S
C1411 C1430 1.368 . S
C1411 H1435 0.949 . S
H1412 C1416 0.949 . S
C1413 C1414 1.349 . S
C1413 C1415 1.327 . S
C1413 H1436 0.950 . S
C1414 C1413 1.349 . S
C1414 C1426 1.349 . S
C1415 C1413 1.327 . S
C1415 C1431 1.429 . S
C1415 H1437 0.950 . S
C1416 H1412 0.949 . S
C1416 C1424 1.574 . S
C1416 C1432 1.368 . S
H1417 C1425 0.950 . S
H1418 C1423 0.950 . S
H1419 C1424 0.949 . S
H1420 C1426 0.950 . S
H1421 C1427 0.950 . S
H1422 C1428 0.949 . S
C1423 H1418 0.950 . S
C1423 C1425 1.327 . S
C1423 C1429 1.429 . S
C1424 C1416 1.574 . S
C1424 H1419 0.949 . S
C1424 C1430 1.368 . S
C1425 C1409 1.349 . S
C1425 H1417 0.950 . S
C1425 C1423 1.327 . S
C1426 C1414 1.349 . S
C1426 H1420 0.950 . S
C1426 C1427 1.327 . S
C1427 H1421 0.950 . S
C1427 C1426 1.327 . S
C1427 C1431 1.429 . S
C1428 C1411 1.574 . S
C1428 H1422 0.949 . S
C1428 C1432 1.368 . S
C1429 C1410 1.429 . S
C1429 C1423 1.429 . S
C1429 C1430 1.523 . S
C1430 C1411 1.368 . S
C1430 C1424 1.368 . S
C1430 C1429 1.523 . S
C1431 C1415 1.429 . S
C1431 C1427 1.429 . S
C1431 C1432 1.523 . S
C1432 C1416 1.368 . S
C1432 C1428 1.368 . S
C1432 C1431 1.523 . S
H1433 C1408 0.950 . S
H1434 C1410 0.950 . S
H1435 C1411 0.949 . S
H1436 C1413 0.950 . S
H1437 C1415 0.950 . S
C1438 C1439 1.349 . S
C1438 C1440 1.327 . S
C1438 H1463 0.950 . S
C1439 C1438 1.349 . S
C1439 C1455 1.349 . S
C1440 C1438 1.327 . S
C1440 C1459 1.429 . S
C1440 H1464 0.950 . S
C1441 C1458 1.574 1_455 S
C1441 C1460 1.368 . S
C1441 H1465 0.949 . S
H1442 C1446 0.949 . S
C1443 C1444 1.349 . S
C1443 C1445 1.327 . S
C1443 H1466 0.950 . S
C1444 C1443 1.349 . S
C1444 C1456 1.349 . S
C1445 C1443 1.327 . S
C1445 C1461 1.429 . S
C1445 H1467 0.950 . S
C1446 H1442 0.949 . S
C1446 C1454 1.574 1_655 S
C1446 C1462 1.368 . S
H1447 C1455 0.950 . S
H1448 C1453 0.950 . S
H1449 C1454 0.949 . S
H1450 C1456 0.950 . S
H1451 C1457 0.950 . S
H1452 C1458 0.949 . S
C1453 H1448 0.950 . S
C1453 C1455 1.327 . S
C1453 C1459 1.429 . S
C1454 C1446 1.574 1_455 S
C1454 H1449 0.949 . S
C1454 C1460 1.368 . S
C1455 C1439 1.349 . S
C1455 H1447 0.950 . S
C1455 C1453 1.327 . S
C1456 C1444 1.349 . S
C1456 H1450 0.950 . S
C1456 C1457 1.327 . S
C1457 H1451 0.950 . S
C1457 C1456 1.327 . S
C1457 C1461 1.429 . S
C1458 C1441 1.574 1_655 S
C1458 H1452 0.949 . S
C1458 C1462 1.368 . S
C1459 C1440 1.429 . S
C1459 C1453 1.429 . S
C1459 C1460 1.523 . S
C1460 C1441 1.368 . S
C1460 C1454 1.368 . S
C1460 C1459 1.523 . S
C1461 C1445 1.429 . S
C1461 C1457 1.429 . S
C1461 C1462 1.523 . S
C1462 C1446 1.368 . S
C1462 C1458 1.368 . S
C1462 C1461 1.523 . S
H1463 C1438 0.950 . S
H1464 C1440 0.950 . S
H1465 C1441 0.949 . S
H1466 C1443 0.950 . S
H1467 C1445 0.950 . S
C1468 C1469 1.349 . S
C1468 C1470 1.327 . S
C1468 H1493 0.950 . S
C1469 C1468 1.349 . S
C1469 C1485 1.349 . S
C1470 C1468 1.327 . S
C1470 C1489 1.429 . S
C1470 H1494 0.950 . S
C1471 C1488 1.574 . S
C1471 C1490 1.368 . S
C1471 H1495 0.949 . S
H1472 C1476 0.949 . S
C1473 C1474 1.349 . S
C1473 C1475 1.327 . S
C1473 H1496 0.950 . S
C1474 C1473 1.349 . S
C1474 C1486 1.349 . S
C1475 C1473 1.327 . S
C1475 C1491 1.429 . S
C1475 H1497 0.950 . S
C1476 H1472 0.949 . S
C1476 C1484 1.574 . S
C1476 C1492 1.368 . S
H1477 C1485 0.950 . S
H1478 C1483 0.950 . S
H1479 C1484 0.949 . S
H1480 C1486 0.950 . S
H1481 C1487 0.950 . S
H1482 C1488 0.949 . S
C1483 H1478 0.950 . S
C1483 C1485 1.327 . S
C1483 C1489 1.429 . S
C1484 C1476 1.574 . S
C1484 H1479 0.949 . S
C1484 C1490 1.368 . S
C1485 C1469 1.349 . S
C1485 H1477 0.950 . S
C1485 C1483 1.327 . S
C1486 C1474 1.349 . S
C1486 H1480 0.950 . S
C1486 C1487 1.327 . S
C1487 H1481 0.950 . S
C1487 C1486 1.327 . S
C1487 C1491 1.429 . S
C1488 C1471 1.574 . S
C1488 H1482 0.949 . S
C1488 C1492 1.368 . S
C1489 C1470 1.429 . S
C1489 C1483 1.429 . S
C1489 C1490 1.523 . S
C1490 C1471 1.368 . S
C1490 C1484 1.368 . S
C1490 C1489 1.523 . S
C1491 C1475 1.429 . S
C1491 C1487 1.429 . S
C1491 C1492 1.523 . S
C1492 C1476 1.368 . S
C1492 C1488 1.368 . S
C1492 C1491 1.523 . S
H1493 C1468 0.950 . S
H1494 C1470 0.950 . S
H1495 C1471 0.949 . S
H1496 C1473 0.950 . S
H1497 C1475 0.950 . S
C1498 C1499 1.349 . S
C1498 C1500 1.327 . S
C1498 H1523 0.950 . S
C1499 C1498 1.349 . S
C1499 C1515 1.349 . S
C1500 C1498 1.327 . S
C1500 C1519 1.429 . S
C1500 H1524 0.950 . S
C1501 C1518 1.574 . S
C1501 C1520 1.368 . S
C1501 H1525 0.949 . S
H1502 C1506 0.949 . S
C1503 C1504 1.349 . S
C1503 C1505 1.327 . S
C1503 H1526 0.950 . S
C1504 C1503 1.349 . S
C1504 C1516 1.349 . S
C1505 C1503 1.327 . S
C1505 C1521 1.429 . S
C1505 H1527 0.950 . S
C1506 H1502 0.949 . S
C1506 C1514 1.574 . S
C1506 C1522 1.368 . S
H1507 C1515 0.950 . S
H1508 C1513 0.950 . S
H1509 C1514 0.949 . S
H1510 C1516 0.950 . S
H1511 C1517 0.950 . S
H1512 C1518 0.949 . S
C1513 H1508 0.950 . S
C1513 C1515 1.327 . S
C1513 C1519 1.429 . S
C1514 C1506 1.574 . S
C1514 H1509 0.949 . S
C1514 C1520 1.368 . S
C1515 C1499 1.349 . S
C1515 H1507 0.950 . S
C1515 C1513 1.327 . S
C1516 C1504 1.349 . S
C1516 H1510 0.950 . S
C1516 C1517 1.327 . S
C1517 H1511 0.950 . S
C1517 C1516 1.327 . S
C1517 C1521 1.429 . S
C1518 C1501 1.574 . S
C1518 H1512 0.949 . S
C1518 C1522 1.368 . S
C1519 C1500 1.429 . S
C1519 C1513 1.429 . S
C1519 C1520 1.523 . S
C1520 C1501 1.368 . S
C1520 C1514 1.368 . S
C1520 C1519 1.523 . S
C1521 C1505 1.429 . S
C1521 C1517 1.429 . S
C1521 C1522 1.523 . S
C1522 C1506 1.368 . S
C1522 C1518 1.368 . S
C1522 C1521 1.523 . S
H1523 C1498 0.950 . S
H1524 C1500 0.950 . S
H1525 C1501 0.949 . S
H1526 C1503 0.950 . S
H1527 C1505 0.950 . S
C1528 C1529 1.349 . S
C1528 C1530 1.327 . S
C1528 H1553 0.950 . S
C1529 C1528 1.349 . S
C1529 C1545 1.349 . S
C1530 C1528 1.327 . S
C1530 C1549 1.429 . S
C1530 H1554 0.950 . S
C1531 C1548 1.574 . S
C1531 C1550 1.368 . S
C1531 H1555 0.949 . S
H1532 C1536 0.949 . S
C1533 C1534 1.349 . S
C1533 C1535 1.327 . S
C1533 H1556 0.950 . S
C1534 C1533 1.349 . S
C1534 C1546 1.349 . S
C1535 C1533 1.327 . S
C1535 C1551 1.429 . S
C1535 H1557 0.950 . S
C1536 H1532 0.949 . S
C1536 C1544 1.574 . S
C1536 C1552 1.368 . S
H1537 C1545 0.950 . S
H1538 C1543 0.950 . S
H1539 C1544 0.949 . S
H1540 C1546 0.950 . S
H1541 C1547 0.950 . S
H1542 C1548 0.949 . S
C1543 H1538 0.950 . S
C1543 C1545 1.327 . S
C1543 C1549 1.429 . S
C1544 C1536 1.574 . S
C1544 H1539 0.949 . S
C1544 C1550 1.368 . S
C1545 C1529 1.349 . S
C1545 H1537 0.950 . S
C1545 C1543 1.327 . S
C1546 C1534 1.349 . S
C1546 H1540 0.950 . S
C1546 C1547 1.327 . S
C1547 H1541 0.950 . S
C1547 C1546 1.327 . S
C1547 C1551 1.429 . S
C1548 C1531 1.574 . S
C1548 H1542 0.949 . S
C1548 C1552 1.368 . S
C1549 C1530 1.429 . S
C1549 C1543 1.429 . S
C1549 C1550 1.523 . S
C1550 C1531 1.368 . S
C1550 C1544 1.368 . S
C1550 C1549 1.523 . S
C1551 C1535 1.429 . S
C1551 C1547 1.429 . S
C1551 C1552 1.523 . S
C1552 C1536 1.368 . S
C1552 C1548 1.368 . S
C1552 C1551 1.523 . S
H1553 C1528 0.950 . S
H1554 C1530 0.950 . S
H1555 C1531 0.949 . S
H1556 C1533 0.950 . S
H1557 C1535 0.950 . S
C1558 C1559 1.349 . S
C1558 C1560 1.327 . S
C1558 H1583 0.950 . S
C1559 C1558 1.349 . S
C1559 C1575 1.349 . S
C1560 C1558 1.327 . S
C1560 C1579 1.429 . S
C1560 H1584 0.950 . S
C1561 C1578 1.574 . S
C1561 C1580 1.368 . S
C1561 H1585 0.949 . S
H1562 C1566 0.949 . S
C1563 C1564 1.349 . S
C1563 C1565 1.327 . S
C1563 H1586 0.950 . S
C1564 C1563 1.349 . S
C1564 C1576 1.349 . S
C1565 C1563 1.327 . S
C1565 C1581 1.429 . S
C1565 H1587 0.950 . S
C1566 H1562 0.949 . S
C1566 C1574 1.574 . S
C1566 C1582 1.368 . S
H1567 C1575 0.950 . S
H1568 C1573 0.950 . S
H1569 C1574 0.949 . S
H1570 C1576 0.950 . S
H1571 C1577 0.950 . S
H1572 C1578 0.949 . S
C1573 H1568 0.950 . S
C1573 C1575 1.327 . S
C1573 C1579 1.429 . S
C1574 C1566 1.574 . S
C1574 H1569 0.949 . S
C1574 C1580 1.368 . S
C1575 C1559 1.349 . S
C1575 H1567 0.950 . S
C1575 C1573 1.327 . S
C1576 C1564 1.349 . S
C1576 H1570 0.950 . S
C1576 C1577 1.327 . S
C1577 H1571 0.950 . S
C1577 C1576 1.327 . S
C1577 C1581 1.429 . S
C1578 C1561 1.574 . S
C1578 H1572 0.949 . S
C1578 C1582 1.368 . S
C1579 C1560 1.429 . S
C1579 C1573 1.429 . S
C1579 C1580 1.523 . S
C1580 C1561 1.368 . S
C1580 C1574 1.368 . S
C1580 C1579 1.523 . S
C1581 C1565 1.429 . S
C1581 C1577 1.429 . S
C1581 C1582 1.523 . S
C1582 C1566 1.368 . S
C1582 C1578 1.368 . S
C1582 C1581 1.523 . S
H1583 C1558 0.950 . S
H1584 C1560 0.950 . S
H1585 C1561 0.949 . S
H1586 C1563 0.950 . S
H1587 C1565 0.950 . S
C1588 C1589 1.349 . S
C1588 C1590 1.327 . S
C1588 H1613 0.950 . S
C1589 C1588 1.349 . S
C1589 C1605 1.349 . S
C1590 C1588 1.327 . S
C1590 C1609 1.429 . S
C1590 H1614 0.950 . S
C1591 C1608 1.574 . S
C1591 C1610 1.368 . S
C1591 H1615 0.949 . S
H1592 C1596 0.949 . S
C1593 C1594 1.349 . S
C1593 C1595 1.327 . S
C1593 H1616 0.950 . S
C1594 C1593 1.349 . S
C1594 C1606 1.349 . S
C1595 C1593 1.327 . S
C1595 C1611 1.429 . S
C1595 H1617 0.950 . S
C1596 H1592 0.949 . S
C1596 C1604 1.574 . S
C1596 C1612 1.368 . S
H1597 C1605 0.950 . S
H1598 C1603 0.950 . S
H1599 C1604 0.949 . S
H1600 C1606 0.950 . S
H1601 C1607 0.950 . S
H1602 C1608 0.949 . S
C1603 H1598 0.950 . S
C1603 C1605 1.327 . S
C1603 C1609 1.429 . S
C1604 C1596 1.574 . S
C1604 H1599 0.949 . S
C1604 C1610 1.368 . S
C1605 C1589 1.349 . S
C1605 H1597 0.950 . S
C1605 C1603 1.327 . S
C1606 C1594 1.349 . S
C1606 H1600 0.950 . S
C1606 C1607 1.327 . S
C1607 H1601 0.950 . S
C1607 C1606 1.327 . S
C1607 C1611 1.429 . S
C1608 C1591 1.574 . S
C1608 H1602 0.949 . S
C1608 C1612 1.368 . S
C1609 C1590 1.429 . S
C1609 C1603 1.429 . S
C1609 C1610 1.523 . S
C1610 C1591 1.368 . S
C1610 C1604 1.368 . S
C1610 C1609 1.523 . S
C1611 C1595 1.429 . S
C1611 C1607 1.429 . S
C1611 C1612 1.523 . S
C1612 C1596 1.368 . S
C1612 C1608 1.368 . S
C1612 C1611 1.523 . S
H1613 C1588 0.950 . S
H1614 C1590 0.950 . S
H1615 C1591 0.949 . S
H1616 C1593 0.950 . S
H1617 C1595 0.950 . S
C1618 C1619 1.349 . S
C1618 C1620 1.327 . S
C1618 H1643 0.950 . S
C1619 C1618 1.349 . S
C1619 C1635 1.349 . S
C1620 C1618 1.327 . S
C1620 C1639 1.429 . S
C1620 H1644 0.950 . S
C1621 C1638 1.574 1_655 S
C1621 C1640 1.368 . S
C1621 H1645 0.949 . S
H1622 C1626 0.949 . S
C1623 C1624 1.349 . S
C1623 C1625 1.327 . S
C1623 H1646 0.950 . S
C1624 C1623 1.349 . S
C1624 C1636 1.349 . S
C1625 C1623 1.327 . S
C1625 C1641 1.429 . S
C1625 H1647 0.950 . S
C1626 H1622 0.949 . S
C1626 C1634 1.574 1_455 S
C1626 C1642 1.368 . S
H1627 C1635 0.950 . S
H1628 C1633 0.950 . S
H1629 C1634 0.949 . S
H1630 C1636 0.950 . S
H1631 C1637 0.950 . S
H1632 C1638 0.949 . S
C1633 H1628 0.950 . S
C1633 C1635 1.327 . S
C1633 C1639 1.429 . S
C1634 C1626 1.574 1_655 S
C1634 H1629 0.949 . S
C1634 C1640 1.368 . S
C1635 C1619 1.349 . S
C1635 H1627 0.950 . S
C1635 C1633 1.327 . S
C1636 C1624 1.349 . S
C1636 H1630 0.950 . S
C1636 C1637 1.327 . S
C1637 H1631 0.950 . S
C1637 C1636 1.327 . S
C1637 C1641 1.429 . S
C1638 C1621 1.574 1_455 S
C1638 H1632 0.949 . S
C1638 C1642 1.368 . S
C1639 C1620 1.429 . S
C1639 C1633 1.429 . S
C1639 C1640 1.523 . S
C1640 C1621 1.368 . S
C1640 C1634 1.368 . S
C1640 C1639 1.523 . S
C1641 C1625 1.429 . S
C1641 C1637 1.429 . S
C1641 C1642 1.523 . S
C1642 C1626 1.368 . S
C1642 C1638 1.368 . S
C1642 C1641 1.523 . S
H1643 C1618 0.950 . S
H1644 C1620 0.950 . S
H1645 C1621 0.949 . S
H1646 C1623 0.950 . S
H1647 C1625 0.950 . S
C1648 C1649 1.349 . S
C1648 C1650 1.327 . S
C1648 H1673 0.950 . S
C1649 C1648 1.349 . S
C1649 C1665 1.349 . S
C1650 C1648 1.327 . S
C1650 C1669 1.429 . S
C1650 H1674 0.950 . S
C1651 C1668 1.574 . S
C1651 C1670 1.368 . S
C1651 H1675 0.949 . S
H1652 C1656 0.949 . S
C1653 C1654 1.349 . S
C1653 C1655 1.327 . S
C1653 H1676 0.950 . S
C1654 C1653 1.349 . S
C1654 C1666 1.349 . S
C1655 C1653 1.327 . S
C1655 C1671 1.429 . S
C1655 H1677 0.950 . S
C1656 H1652 0.949 . S
C1656 C1664 1.574 . S
C1656 C1672 1.368 . S
H1657 C1665 0.950 . S
H1658 C1663 0.950 . S
H1659 C1664 0.949 . S
H1660 C1666 0.950 . S
H1661 C1667 0.950 . S
H1662 C1668 0.949 . S
C1663 H1658 0.950 . S
C1663 C1665 1.327 . S
C1663 C1669 1.429 . S
C1664 C1656 1.574 . S
C1664 H1659 0.949 . S
C1664 C1670 1.368 . S
C1665 C1649 1.349 . S
C1665 H1657 0.950 . S
C1665 C1663 1.327 . S
C1666 C1654 1.349 . S
C1666 H1660 0.950 . S
C1666 C1667 1.327 . S
C1667 H1661 0.950 . S
C1667 C1666 1.327 . S
C1667 C1671 1.429 . S
C1668 C1651 1.574 . S
C1668 H1662 0.949 . S
C1668 C1672 1.368 . S
C1669 C1650 1.429 . S
C1669 C1663 1.429 . S
C1669 C1670 1.523 . S
C1670 C1651 1.368 . S
C1670 C1664 1.368 . S
C1670 C1669 1.523 . S
C1671 C1655 1.429 . S
C1671 C1667 1.429 . S
C1671 C1672 1.523 . S
C1672 C1656 1.368 . S
C1672 C1668 1.368 . S
C1672 C1671 1.523 . S
H1673 C1648 0.950 . S
H1674 C1650 0.950 . S
H1675 C1651 0.949 . S
H1676 C1653 0.950 . S
H1677 C1655 0.950 . S
C1678 C1679 1.349 . S
C1678 C1680 1.327 . S
C1678 H1703 0.950 . S
C1679 C1678 1.349 . S
C1679 C1695 1.349 . S
C1680 C1678 1.327 . S
C1680 C1699 1.429 . S
C1680 H1704 0.950 . S
C1681 C1698 1.574 . S
C1681 C1700 1.368 . S
C1681 H1705 0.949 . S
H1682 C1686 0.949 . S
C1683 C1684 1.349 . S
C1683 C1685 1.327 . S
C1683 H1706 0.950 . S
C1684 C1683 1.349 . S
C1684 C1696 1.349 . S
C1685 C1683 1.327 . S
C1685 C1701 1.429 . S
C1685 H1707 0.950 . S
C1686 H1682 0.949 . S
C1686 C1694 1.574 . S
C1686 C1702 1.368 . S
H1687 C1695 0.950 . S
H1688 C1693 0.950 . S
H1689 C1694 0.949 . S
H1690 C1696 0.950 . S
H1691 C1697 0.950 . S
H1692 C1698 0.949 . S
C1693 H1688 0.950 . S
C1693 C1695 1.327 . S
C1693 C1699 1.429 . S
C1694 C1686 1.574 . S
C1694 H1689 0.949 . S
C1694 C1700 1.368 . S
C1695 C1679 1.349 . S
C1695 H1687 0.950 . S
C1695 C1693 1.327 . S
C1696 C1684 1.349 . S
C1696 H1690 0.950 . S
C1696 C1697 1.327 . S
C1697 H1691 0.950 . S
C1697 C1696 1.327 . S
C1697 C1701 1.429 . S
C1698 C1681 1.574 . S
C1698 H1692 0.949 . S
C1698 C1702 1.368 . S
C1699 C1680 1.429 . S
C1699 C1693 1.429 . S
C1699 C1700 1.523 . S
C1700 C1681 1.368 . S
C1700 C1694 1.368 . S
C1700 C1699 1.523 . S
C1701 C1685 1.429 . S
C1701 C1697 1.429 . S
C1701 C1702 1.523 . S
C1702 C1686 1.368 . S
C1702 C1698 1.368 . S
C1702 C1701 1.523 . S
H1703 C1678 0.950 . S
H1704 C1680 0.950 . S
H1705 C1681 0.949 . S
H1706 C1683 0.950 . S
H1707 C1685 0.950 . S
C1708 C1709 1.349 . S
C1708 C1710 1.327 . S
C1708 H1733 0.950 . S
C1709 C1708 1.349 . S
C1709 C1725 1.349 . S
C1710 C1708 1.327 . S
C1710 C1729 1.429 . S
C1710 H1734 0.950 . S
C1711 C1728 1.574 . S
C1711 C1730 1.368 . S
C1711 H1735 0.949 . S
H1712 C1716 0.949 . S
C1713 C1714 1.349 . S
C1713 C1715 1.327 . S
C1713 H1736 0.950 . S
C1714 C1713 1.349 . S
C1714 C1726 1.349 . S
C1715 C1713 1.327 . S
C1715 C1731 1.429 . S
C1715 H1737 0.950 . S
C1716 H1712 0.949 . S
C1716 C1724 1.574 . S
C1716 C1732 1.368 . S
H1717 C1725 0.950 . S
H1718 C1723 0.950 . S
H1719 C1724 0.949 . S
H1720 C1726 0.950 . S
H1721 C1727 0.950 . S
H1722 C1728 0.949 . S
C1723 H1718 0.950 . S
C1723 C1725 1.327 . S
C1723 C1729 1.429 . S
C1724 C1716 1.574 . S
C1724 H1719 0.949 . S
C1724 C1730 1.368 . S
C1725 C1709 1.349 . S
C1725 H1717 0.950 . S
C1725 C1723 1.327 . S
C1726 C1714 1.349 . S
C1726 H1720 0.950 . S
C1726 C1727 1.327 . S
C1727 H1721 0.950 . S
C1727 C1726 1.327 . S
C1727 C1731 1.429 . S
C1728 C1711 1.574 . S
C1728 H1722 0.949 . S
C1728 C1732 1.368 . S
C1729 C1710 1.429 . S
C1729 C1723 1.429 . S
C1729 C1730 1.523 . S
C1730 C1711 1.368 . S
C1730 C1724 1.368 . S
C1730 C1729 1.523 . S
C1731 C1715 1.429 . S
C1731 C1727 1.429 . S
C1731 C1732 1.523 . S
C1732 C1716 1.368 . S
C1732 C1728 1.368 . S
C1732 C1731 1.523 . S
H1733 C1708 0.950 . S
H1734 C1710 0.950 . S
H1735 C1711 0.949 . S
H1736 C1713 0.950 . S
H1737 C1715 0.950 . S
C1738 C1739 1.349 . S
C1738 C1740 1.327 . S
C1738 H1763 0.950 . S
C1739 C1738 1.349 . S
C1739 C1755 1.349 . S
C1740 C1738 1.327 . S
C1740 C1759 1.429 . S
C1740 H1764 0.950 . S
C1741 C1758 1.574 . S
C1741 C1760 1.368 . S
C1741 H1765 0.949 . S
H1742 C1746 0.949 . S
C1743 C1744 1.349 . S
C1743 C1745 1.327 . S
C1743 H1766 0.950 . S
C1744 C1743 1.349 . S
C1744 C1756 1.349 . S
C1745 C1743 1.327 . S
C1745 C1761 1.429 . S
C1745 H1767 0.950 . S
C1746 H1742 0.949 . S
C1746 C1754 1.574 . S
C1746 C1762 1.368 . S
H1747 C1755 0.950 . S
H1748 C1753 0.950 . S
H1749 C1754 0.949 . S
H1750 C1756 0.950 . S
H1751 C1757 0.950 . S
H1752 C1758 0.949 . S
C1753 H1748 0.950 . S
C1753 C1755 1.327 . S
C1753 C1759 1.429 . S
C1754 C1746 1.574 . S
C1754 H1749 0.949 . S
C1754 C1760 1.368 . S
C1755 C1739 1.349 . S
C1755 H1747 0.950 . S
C1755 C1753 1.327 . S
C1756 C1744 1.349 . S
C1756 H1750 0.950 . S
C1756 C1757 1.327 . S
C1757 H1751 0.950 . S
C1757 C1756 1.327 . S
C1757 C1761 1.429 . S
C1758 C1741 1.574 . S
C1758 H1752 0.949 . S
C1758 C1762 1.368 . S
C1759 C1740 1.429 . S
C1759 C1753 1.429 . S
C1759 C1760 1.523 . S
C1760 C1741 1.368 . S
C1760 C1754 1.368 . S
C1760 C1759 1.523 . S
C1761 C1745 1.429 . S
C1761 C1757 1.429 . S
C1761 C1762 1.523 . S
C1762 C1746 1.368 . S
C1762 C1758 1.368 . S
C1762 C1761 1.523 . S
H1763 C1738 0.950 . S
H1764 C1740 0.950 . S
H1765 C1741 0.949 . S
H1766 C1743 0.950 . S
H1767 C1745 0.950 . S
C1768 C1769 1.349 . S
C1768 C1770 1.327 . S
C1768 H1793 0.950 . S
C1769 C1768 1.349 . S
C1769 C1785 1.349 . S
C1770 C1768 1.327 . S
C1770 C1789 1.429 . S
C1770 H1794 0.950 . S
C1771 C1788 1.574 . S
C1771 C1790 1.368 . S
C1771 H1795 0.949 . S
H1772 C1776 0.949 . S
C1773 C1774 1.349 . S
C1773 C1775 1.327 . S
C1773 H1796 0.950 . S
C1774 C1773 1.349 . S
C1774 C1786 1.349 . S
C1775 C1773 1.327 . S
C1775 C1791 1.429 . S
C1775 H1797 0.950 . S
C1776 H1772 0.949 . S
C1776 C1784 1.574 . S
C1776 C1792 1.368 . S
H1777 C1785 0.950 . S
H1778 C1783 0.950 . S
H1779 C1784 0.949 . S
H1780 C1786 0.950 . S
H1781 C1787 0.950 . S
H1782 C1788 0.949 . S
C1783 H1778 0.950 . S
C1783 C1785 1.327 . S
C1783 C1789 1.429 . S
C1784 C1776 1.574 . S
C1784 H1779 0.949 . S
C1784 C1790 1.368 . S
C1785 C1769 1.349 . S
C1785 H1777 0.950 . S
C1785 C1783 1.327 . S
C1786 C1774 1.349 . S
C1786 H1780 0.950 . S
C1786 C1787 1.327 . S
C1787 H1781 0.950 . S
C1787 C1786 1.327 . S
C1787 C1791 1.429 . S
C1788 C1771 1.574 . S
C1788 H1782 0.949 . S
C1788 C1792 1.368 . S
C1789 C1770 1.429 . S
C1789 C1783 1.429 . S
C1789 C1790 1.523 . S
C1790 C1771 1.368 . S
C1790 C1784 1.368 . S
C1790 C1789 1.523 . S
C1791 C1775 1.429 . S
C1791 C1787 1.429 . S
C1791 C1792 1.523 . S
C1792 C1776 1.368 . S
C1792 C1788 1.368 . S
C1792 C1791 1.523 . S
H1793 C1768 0.950 . S
H1794 C1770 0.950 . S
H1795 C1771 0.949 . S
H1796 C1773 0.950 . S
H1797 C1775 0.950 . S
C1798 C1799 1.349 . S
C1798 C1800 1.327 . S
C1798 H1823 0.950 . S
C1799 C1798 1.349 . S
C1799 C1815 1.349 . S
C1800 C1798 1.327 . S
C1800 C1819 1.429 . S
C1800 H1824 0.950 . S
C1801 C1818 1.574 1_655 S
C1801 C1820 1.368 . S
C1801 H1825 0.949 . S
H1802 C1806 0.949 . S
C1803 C1804 1.349 . S
C1803 C1805 1.327 . S
C1803 H1826 0.950 . S
C1804 C1803 1.349 . S
C1804 C1816 1.349 . S
C1805 C1803 1.327 . S
C1805 C1821 1.429 . S
C1805 H1827 0.950 . S
C1806 H1802 0.949 . S
C1806 C1814 1.574 1_455 S
C1806 C1822 1.368 . S
H1807 C1815 0.950 . S
H1808 C1813 0.950 . S
H1809 C1814 0.949 . S
H1810 C1816 0.950 . S
H1811 C1817 0.950 . S
H1812 C1818 0.949 . S
C1813 H1808 0.950 . S
C1813 C1815 1.327 . S
C1813 C1819 1.429 . S
C1814 C1806 1.574 1_655 S
C1814 H1809 0.949 . S
C1814 C1820 1.368 . S
C1815 C1799 1.349 . S
C1815 H1807 0.950 . S
C1815 C1813 1.327 . S
C1816 C1804 1.349 . S
C1816 H1810 0.950 . S
C1816 C1817 1.327 . S
C1817 H1811 0.950 . S
C1817 C1816 1.327 . S
C1817 C1821 1.429 . S
C1818 C1801 1.574 1_455 S
C1818 H1812 0.949 . S
C1818 C1822 1.368 . S
C1819 C1800 1.429 . S
C1819 C1813 1.429 . S
C1819 C1820 1.523 . S
C1820 C1801 1.368 . S
C1820 C1814 1.368 . S
C1820 C1819 1.523 . S
C1821 C1805 1.429 . S
C1821 C1817 1.429 . S
C1821 C1822 1.523 . S
C1822 C1806 1.368 . S
C1822 C1818 1.368 . S
C1822 C1821 1.523 . S
H1823 C1798 0.950 . S
H1824 C1800 0.950 . S
H1825 C1801 0.949 . S
H1826 C1803 0.950 . S
H1827 C1805 0.950 . S
C1828 C1829 1.349 . S
C1828 C1830 1.327 . S
C1828 H1853 0.950 . S
C1829 C1828 1.349 . S
C1829 C1845 1.349 . S
C1830 C1828 1.327 . S
C1830 C1849 1.429 . S
C1830 H1854 0.950 . S
C1831 C1848 1.574 1_655 S
C1831 C1850 1.368 . S
C1831 H1855 0.949 . S
H1832 C1836 0.949 . S
C1833 C1834 1.349 . S
C1833 C1835 1.327 . S
C1833 H1856 0.950 . S
C1834 C1833 1.349 . S
C1834 C1846 1.349 . S
C1835 C1833 1.327 . S
C1835 C1851 1.429 . S
C1835 H1857 0.950 . S
C1836 H1832 0.949 . S
C1836 C1844 1.574 1_455 S
C1836 C1852 1.368 . S
H1837 C1845 0.950 . S
H1838 C1843 0.950 . S
H1839 C1844 0.949 . S
H1840 C1846 0.950 . S
H1841 C1847 0.950 . S
H1842 C1848 0.949 . S
C1843 H1838 0.950 . S
C1843 C1845 1.327 . S
C1843 C1849 1.429 . S
C1844 C1836 1.574 1_655 S
C1844 H1839 0.949 . S
C1844 C1850 1.368 . S
C1845 C1829 1.349 . S
C1845 H1837 0.950 . S
C1845 C1843 1.327 . S
C1846 C1834 1.349 . S
C1846 H1840 0.950 . S
C1846 C1847 1.327 . S
C1847 H1841 0.950 . S
C1847 C1846 1.327 . S
C1847 C1851 1.429 . S
C1848 C1831 1.574 1_455 S
C1848 H1842 0.949 . S
C1848 C1852 1.368 . S
C1849 C1830 1.429 . S
C1849 C1843 1.429 . S
C1849 C1850 1.523 . S
C1850 C1831 1.368 . S
C1850 C1844 1.368 . S
C1850 C1849 1.523 . S
C1851 C1835 1.429 . S
C1851 C1847 1.429 . S
C1851 C1852 1.523 . S
C1852 C1836 1.368 . S
C1852 C1848 1.368 . S
C1852 C1851 1.523 . S
H1853 C1828 0.950 . S
H1854 C1830 0.950 . S
H1855 C1831 0.949 . S
H1856 C1833 0.950 . S
H1857 C1835 0.950 . S
C1858 C1859 1.349 . S
C1858 C1860 1.327 . S
C1858 H1883 0.950 . S
C1859 C1858 1.349 . S
C1859 C1875 1.349 . S
C1860 C1858 1.327 . S
C1860 C1879 1.429 . S
C1860 H1884 0.950 . S
C1861 C1878 1.574 . S
C1861 C1880 1.368 . S
C1861 H1885 0.949 . S
H1862 C1866 0.949 . S
C1863 C1864 1.349 . S
C1863 C1865 1.327 . S
C1863 H1886 0.950 . S
C1864 C1863 1.349 . S
C1864 C1876 1.349 . S
C1865 C1863 1.327 . S
C1865 C1881 1.429 . S
C1865 H1887 0.950 . S
C1866 H1862 0.949 . S
C1866 C1874 1.574 . S
C1866 C1882 1.368 . S
H1867 C1875 0.950 . S
H1868 C1873 0.950 . S
H1869 C1874 0.949 . S
H1870 C1876 0.950 . S
H1871 C1877 0.950 . S
H1872 C1878 0.949 . S
C1873 H1868 0.950 . S
C1873 C1875 1.327 . S
C1873 C1879 1.429 . S
C1874 C1866 1.574 . S
C1874 H1869 0.949 . S
C1874 C1880 1.368 . S
C1875 C1859 1.349 . S
C1875 H1867 0.950 . S
C1875 C1873 1.327 . S
C1876 C1864 1.349 . S
C1876 H1870 0.950 . S
C1876 C1877 1.327 . S
C1877 H1871 0.950 . S
C1877 C1876 1.327 . S
C1877 C1881 1.429 . S
C1878 C1861 1.574 . S
C1878 H1872 0.949 . S
C1878 C1882 1.368 . S
C1879 C1860 1.429 . S
C1879 C1873 1.429 . S
C1879 C1880 1.523 . S
C1880 C1861 1.368 . S
C1880 C1874 1.368 . S
C1880 C1879 1.523 . S
C1881 C1865 1.429 . S
C1881 C1877 1.429 . S
C1881 C1882 1.523 . S
C1882 C1866 1.368 . S
C1882 C1878 1.368 . S
C1882 C1881 1.523 . S
H1883 C1858 0.950 . S
H1884 C1860 0.950 . S
H1885 C1861 0.949 . S
H1886 C1863 0.950 . S
H1887 C1865 0.950 . S
C1888 C1889 1.349 . S
C1888 C1890 1.327 . S
C1888 H1913 0.950 . S
C1889 C1888 1.349 . S
C1889 C1905 1.349 . S
C1890 C1888 1.327 . S
C1890 C1909 1.429 . S
C1890 H1914 0.950 . S
C1891 C1908 1.574 . S
C1891 C1910 1.368 . S
C1891 H1915 0.949 . S
H1892 C1896 0.949 . S
C1893 C1894 1.349 . S
C1893 C1895 1.327 . S
C1893 H1916 0.950 . S
C1894 C1893 1.349 . S
C1894 C1906 1.349 . S
C1895 C1893 1.327 . S
C1895 C1911 1.429 . S
C1895 H1917 0.950 . S
C1896 H1892 0.949 . S
C1896 C1904 1.574 . S
C1896 C1912 1.368 . S
H1897 C1905 0.950 . S
H1898 C1903 0.950 . S
H1899 C1904 0.949 . S
H1900 C1906 0.950 . S
H1901 C1907 0.950 . S
H1902 C1908 0.949 . S
C1903 H1898 0.950 . S
C1903 C1905 1.327 . S
C1903 C1909 1.429 . S
C1904 C1896 1.574 . S
C1904 H1899 0.949 . S
C1904 C1910 1.368 . S
C1905 C1889 1.349 . S
C1905 H1897 0.950 . S
C1905 C1903 1.327 . S
C1906 C1894 1.349 . S
C1906 H1900 0.950 . S
C1906 C1907 1.327 . S
C1907 H1901 0.950 . S
C1907 C1906 1.327 . S
C1907 C1911 1.429 . S
C1908 C1891 1.574 . S
C1908 H1902 0.949 . S
C1908 C1912 1.368 . S
C1909 C1890 1.429 . S
C1909 C1903 1.429 . S
C1909 C1910 1.523 . S
C1910 C1891 1.368 . S
C1910 C1904 1.368 . S
C1910 C1909 1.523 . S
C1911 C1895 1.429 . S
C1911 C1907 1.429 . S
C1911 C1912 1.523 . S
C1912 C1896 1.368 . S
C1912 C1908 1.368 . S
C1912 C1911 1.523 . S
H1913 C1888 0.950 . S
H1914 C1890 0.950 . S
H1915 C1891 0.949 . S
H1916 C1893 0.950 . S
H1917 C1895 0.950 . S
C1918 C1919 1.349 . S
C1918 C1920 1.327 1_565 S
C1918 H1943 0.950 . S
C1919 C1918 1.349 . S
C1919 C1935 1.349 . S
C1920 C1918 1.327 1_545 S
C1920 C1939 1.429 1_545 S
C1920 H1944 0.950 . S
C1921 C1938 1.574 . S
C1921 C1940 1.368 . S
C1921 H1945 0.949 1_545 S
H1922 C1926 0.949 . S
C1923 C1924 1.349 . S
C1923 C1925 1.327 . S
C1923 H1946 0.950 . S
C1924 C1923 1.349 . S
C1924 C1936 1.349 . S
C1925 C1923 1.327 . S
C1925 C1941 1.429 . S
C1925 H1947 0.950 . S
C1926 H1922 0.949 . S
C1926 C1934 1.574 . S
C1926 C1942 1.368 . S
H1927 C1935 0.950 . S
H1928 C1933 0.950 . S
H1929 C1934 0.949 . S
H1930 C1936 0.950 . S
H1931 C1937 0.950 . S
H1932 C1938 0.949 . S
C1933 H1928 0.950 . S
C1933 C1935 1.327 . S
C1933 C1939 1.429 . S
C1934 C1926 1.574 . S
C1934 H1929 0.949 . S
C1934 C1940 1.368 . S
C1935 C1919 1.349 . S
C1935 H1927 0.950 . S
C1935 C1933 1.327 . S
C1936 C1924 1.349 . S
C1936 H1930 0.950 . S
C1936 C1937 1.327 . S
C1937 H1931 0.950 . S
C1937 C1936 1.327 . S
C1937 C1941 1.429 . S
C1938 C1921 1.574 . S
C1938 H1932 0.949 . S
C1938 C1942 1.368 . S
C1939 C1920 1.429 1_565 S
C1939 C1933 1.429 . S
C1939 C1940 1.523 1_565 S
C1940 C1921 1.368 . S
C1940 C1934 1.368 . S
C1940 C1939 1.523 1_545 S
C1941 C1925 1.429 . S
C1941 C1937 1.429 . S
C1941 C1942 1.523 . S
C1942 C1926 1.368 . S
C1942 C1938 1.368 . S
C1942 C1941 1.523 . S
H1943 C1918 0.950 . S
H1944 C1920 0.950 . S
H1945 C1921 0.949 1_565 S
H1946 C1923 0.950 . S
H1947 C1925 0.950 . S
C1948 C1949 1.349 . S
C1948 C1950 1.327 . S
C1948 H1973 0.950 . S
C1949 C1948 1.349 . S
C1949 C1965 1.349 . S
C1950 C1948 1.327 . S
C1950 C1969 1.429 . S
C1950 H1974 0.950 . S
C1951 C1968 1.574 . S
C1951 C1970 1.368 . S
C1951 H1975 0.949 . S
H1952 C1956 0.949 . S
C1953 C1954 1.349 . S
C1953 C1955 1.327 . S
C1953 H1976 0.950 . S
C1954 C1953 1.349 . S
C1954 C1966 1.349 . S
C1955 C1953 1.327 . S
C1955 C1971 1.429 . S
C1955 H1977 0.950 . S
C1956 H1952 0.949 . S
C1956 C1964 1.574 . S
C1956 C1972 1.368 . S
H1957 C1965 0.950 . S
H1958 C1963 0.950 . S
H1959 C1964 0.949 . S
H1960 C1966 0.950 . S
H1961 C1967 0.950 . S
H1962 C1968 0.949 . S
C1963 H1958 0.950 . S
C1963 C1965 1.327 . S
C1963 C1969 1.429 . S
C1964 C1956 1.574 . S
C1964 H1959 0.949 . S
C1964 C1970 1.368 . S
C1965 C1949 1.349 . S
C1965 H1957 0.950 . S
C1965 C1963 1.327 . S
C1966 C1954 1.349 . S
C1966 H1960 0.950 . S
C1966 C1967 1.327 . S
C1967 H1961 0.950 . S
C1967 C1966 1.327 . S
C1967 C1971 1.429 . S
C1968 C1951 1.574 . S
C1968 H1962 0.949 . S
C1968 C1972 1.368 . S
C1969 C1950 1.429 . S
C1969 C1963 1.429 . S
C1969 C1970 1.523 . S
C1970 C1951 1.368 . S
C1970 C1964 1.368 . S
C1970 C1969 1.523 . S
C1971 C1955 1.429 . S
C1971 C1967 1.429 . S
C1971 C1972 1.523 . S
C1972 C1956 1.368 . S
C1972 C1968 1.368 . S
C1972 C1971 1.523 . S
H1973 C1948 0.950 . S
H1974 C1950 0.950 . S
H1975 C1951 0.949 . S
H1976 C1953 0.950 . S
H1977 C1955 0.950 . S
C1978 C1979 1.349 . S
C1978 C1980 1.327 . S
C1978 H2003 0.950 . S
C1979 C1978 1.349 . S
C1979 C1995 1.349 . S
C1980 C1978 1.327 . S
C1980 C1999 1.429 1_556 S
C1980 H2004 0.958 . S
C1981 C1998 1.574 . S
C1981 C2000 1.368 . S
C1981 H2005 0.949 . S
H1982 C1986 0.949 . S
C1983 C1984 1.349 . S
C1983 C1985 1.327 . S
C1983 H2006 0.950 . S
C1984 C1983 1.349 . S
C1984 C1996 1.349 . S
C1985 C1983 1.327 . S
C1985 C2001 1.429 . S
C1985 H2007 0.950 . S
C1986 H1982 0.949 . S
C1986 C1994 1.574 . S
C1986 C2002 1.368 . S
H1987 C1995 0.950 . S
H1988 C1993 0.950 . S
H1989 C1994 0.949 . S
H1990 C1996 0.950 . S
H1991 C1997 0.950 . S
H1992 C1998 0.949 . S
C1993 H1988 0.950 . S
C1993 C1995 1.327 . S
C1993 C1999 1.429 1_556 S
C1994 C1986 1.574 . S
C1994 H1989 0.949 . S
C1994 C2000 1.368 . S
C1995 C1979 1.349 . S
C1995 H1987 0.950 . S
C1995 C1993 1.327 . S
C1996 C1984 1.349 . S
C1996 H1990 0.950 . S
C1996 C1997 1.327 . S
C1997 H1991 0.950 . S
C1997 C1996 1.327 . S
C1997 C2001 1.429 . S
C1998 C1981 1.574 . S
C1998 H1992 0.949 . S
C1998 C2002 1.368 . S
C1999 C1980 1.429 1_554 S
C1999 C1993 1.429 1_554 S
C1999 C2000 1.523 . S
C2000 C1981 1.368 . S
C2000 C1994 1.368 . S
C2000 C1999 1.523 . S
C2001 C1985 1.429 . S
C2001 C1997 1.429 . S
C2001 C2002 1.523 1_565 S
C2002 C1986 1.368 . S
C2002 C1998 1.368 . S
C2002 C2001 1.523 1_545 S
H2003 C1978 0.950 . S
H2004 C1980 0.958 . S
H2005 C1981 0.949 . S
H2006 C1983 0.950 . S
H2007 C1985 0.950 . S
C2008 C2009 1.349 . S
C2008 C2010 1.327 . S
C2008 H2033 0.950 . S
C2009 C2008 1.349 . S
C2009 C2025 1.349 . S
C2010 C2008 1.327 . S
C2010 C2029 1.429 . S
C2010 H2034 0.950 . S
C2011 C2028 1.574 . S
C2011 C2030 1.368 . S
C2011 H2035 0.949 . S
H2012 C2016 0.949 . S
C2013 C2014 1.349 . S
C2013 C2015 1.327 . S
C2013 H2036 0.950 . S
C2014 C2013 1.349 . S
C2014 C2026 1.349 . S
C2015 C2013 1.327 . S
C2015 C2031 1.429 . S
C2015 H2037 0.950 . S
C2016 H2012 0.949 . S
C2016 C2024 1.574 . S
C2016 C2032 1.368 . S
H2017 C2025 0.950 . S
H2018 C2023 0.950 . S
H2019 C2024 0.949 . S
H2020 C2026 0.950 . S
H2021 C2027 0.950 . S
H2022 C2028 0.949 . S
C2023 H2018 0.950 . S
C2023 C2025 1.327 . S
C2023 C2029 1.429 . S
C2024 C2016 1.574 . S
C2024 H2019 0.949 . S
C2024 C2030 1.368 . S
C2025 C2009 1.349 . S
C2025 H2017 0.950 . S
C2025 C2023 1.327 . S
C2026 C2014 1.349 . S
C2026 H2020 0.950 . S
C2026 C2027 1.327 . S
C2027 H2021 0.950 . S
C2027 C2026 1.327 . S
C2027 C2031 1.429 . S
C2028 C2011 1.574 . S
C2028 H2022 0.949 . S
C2028 C2032 1.368 . S
C2029 C2010 1.429 . S
C2029 C2023 1.429 . S
C2029 C2030 1.523 . S
C2030 C2011 1.368 . S
C2030 C2024 1.368 . S
C2030 C2029 1.523 . S
C2031 C2015 1.429 . S
C2031 C2027 1.429 . S
C2031 C2032 1.523 . S
C2032 C2016 1.368 . S
C2032 C2028 1.368 . S
C2032 C2031 1.523 . S
H2033 C2008 0.950 . S
H2034 C2010 0.950 . S
H2035 C2011 0.949 . S
H2036 C2013 0.950 . S
H2037 C2015 0.950 . S
C2038 C2039 1.349 . S
C2038 C2040 1.327 . S
C2038 H2063 0.950 . S
C2039 C2038 1.349 . S
C2039 C2055 1.349 . S
C2040 C2038 1.327 . S
C2040 C2059 1.429 . S
C2040 H2064 0.950 . S
C2041 C2058 1.574 1_545 S
C2041 C2060 1.368 . S
C2041 H2065 0.961 . S
H2042 C2046 0.949 . S
C2043 C2044 1.349 . S
C2043 C2045 1.327 . S
C2043 H2066 0.950 . S
C2044 C2043 1.349 . S
C2044 C2056 1.349 . S
C2045 C2043 1.327 . S
C2045 C2061 1.429 . S
C2045 H2067 0.950 . S
C2046 H2042 0.949 . S
C2046 C2054 1.574 . S
C2046 C2062 1.368 . S
H2047 C2055 0.950 . S
H2048 C2053 0.950 . S
H2049 C2054 0.949 . S
H2050 C2056 0.950 1_545 S
H2051 C2057 0.950 . S
H2052 C2058 0.949 . S
C2053 H2048 0.950 . S
C2053 C2055 1.327 . S
C2053 C2059 1.429 . S
C2054 C2046 1.574 . S
C2054 H2049 0.949 . S
C2054 C2060 1.368 . S
C2055 C2039 1.349 . S
C2055 H2047 0.950 . S
C2055 C2053 1.327 . S
C2056 C2044 1.349 . S
C2056 H2050 0.950 1_565 S
C2056 C2057 1.327 1_565 S
C2057 H2051 0.950 . S
C2057 C2056 1.327 1_545 S
C2057 C2061 1.429 1_545 S
C2058 C2041 1.574 1_565 S
C2058 H2052 0.949 . S
C2058 C2062 1.368 1_565 S
C2059 C2040 1.429 . S
C2059 C2053 1.429 . S
C2059 C2060 1.523 . S
C2060 C2041 1.368 . S
C2060 C2054 1.368 . S
C2060 C2059 1.523 . S
C2061 C2045 1.429 . S
C2061 C2057 1.429 1_565 S
C2061 C2062 1.523 1_565 S
C2062 C2046 1.368 . S
C2062 C2058 1.368 1_545 S
C2062 C2061 1.523 1_545 S
H2063 C2038 0.950 . S
H2064 C2040 0.950 . S
H2065 C2041 0.961 . S
H2066 C2043 0.950 . S
H2067 C2045 0.950 . S
C2068 C2069 1.349 . S
C2068 C2070 1.327 . S
C2068 H2093 0.950 . S
C2069 C2068 1.349 . S
C2069 C2085 1.349 . S
C2070 C2068 1.327 . S
C2070 C2089 1.429 . S
C2070 H2094 0.950 . S
C2071 C2088 1.574 . S
C2071 C2090 1.368 . S
C2071 H2095 0.949 . S
H2072 C2076 0.949 . S
C2073 C2074 1.349 . S
C2073 C2075 1.327 . S
C2073 H2096 0.950 . S
C2074 C2073 1.349 . S
C2074 C2086 1.349 . S
C2075 C2073 1.327 . S
C2075 C2091 1.429 . S
C2075 H2097 0.950 . S
C2076 H2072 0.949 . S
C2076 C2084 1.574 . S
C2076 C2092 1.368 . S
H2077 C2085 0.950 . S
H2078 C2083 0.950 . S
H2079 C2084 0.949 . S
H2080 C2086 0.950 . S
H2081 C2087 0.950 . S
H2082 C2088 0.949 . S
C2083 H2078 0.950 . S
C2083 C2085 1.327 . S
C2083 C2089 1.429 . S
C2084 C2076 1.574 . S
C2084 H2079 0.949 . S
C2084 C2090 1.368 . S
C2085 C2069 1.349 . S
C2085 H2077 0.950 . S
C2085 C2083 1.327 . S
C2086 C2074 1.349 . S
C2086 H2080 0.950 . S
C2086 C2087 1.327 . S
C2087 H2081 0.950 . S
C2087 C2086 1.327 . S
C2087 C2091 1.429 . S
C2088 C2071 1.574 . S
C2088 H2082 0.949 . S
C2088 C2092 1.368 . S
C2089 C2070 1.429 . S
C2089 C2083 1.429 . S
C2089 C2090 1.523 . S
C2090 C2071 1.368 . S
C2090 C2084 1.368 . S
C2090 C2089 1.523 . S
C2091 C2075 1.429 . S
C2091 C2087 1.429 . S
C2091 C2092 1.523 . S
C2092 C2076 1.368 . S
C2092 C2088 1.368 . S
C2092 C2091 1.523 . S
H2093 C2068 0.950 . S
H2094 C2070 0.950 . S
H2095 C2071 0.949 . S
H2096 C2073 0.950 . S
H2097 C2075 0.950 . S
C2098 C2099 1.349 . S
C2098 C2100 1.327 1_565 S
C2098 H2123 0.950 . S
C2099 C2098 1.349 . S
C2099 C2115 1.349 . S
C2100 C2098 1.327 1_545 S
C2100 C2119 1.429 1_545 S
C2100 H2124 0.950 . S
C2101 C2118 1.609 . S
C2101 C2120 1.394 . S
C2101 H2125 0.899 1_545 S
H2102 C2106 0.949 . S
C2103 C2104 1.349 . S
C2103 C2105 1.327 . S
C2103 H2126 0.950 . S
C2104 C2103 1.349 . S
C2104 C2116 1.349 . S
C2105 C2103 1.327 . S
C2105 C2121 1.429 1_556 S
C2105 H2127 0.950 . S
C2106 H2102 0.949 . S
C2106 C2114 1.574 . S
C2106 C2122 1.368 . S
H2107 C2115 0.950 . S
H2108 C2113 0.950 . S
H2109 C2114 0.949 . S
H2110 C2116 0.950 . S
H2111 C2117 0.950 1_554 S
H2112 C2118 0.949 . S
C2113 H2108 0.950 . S
C2113 C2115 1.327 . S
C2113 C2119 1.429 . S
C2114 C2106 1.574 . S
C2114 H2109 0.949 . S
C2114 C2120 1.368 . S
C2115 C2099 1.349 . S
C2115 H2107 0.950 . S
C2115 C2113 1.327 . S
C2116 C2104 1.349 . S
C2116 H2110 0.950 . S
C2116 C2117 1.327 . S
C2117 H2111 0.950 1_556 S
C2117 C2116 1.327 . S
C2117 C2121 1.429 1_556 S
C2118 C2101 1.609 . S
C2118 H2112 0.949 . S
C2118 C2122 1.368 . S
C2119 C2100 1.429 1_565 S
C2119 C2113 1.429 . S
C2119 C2120 1.523 1_565 S
C2120 C2101 1.394 . S
C2120 C2114 1.368 . S
C2120 C2119 1.523 1_545 S
C2121 C2105 1.429 1_554 S
C2121 C2117 1.429 1_554 S
C2121 C2122 1.523 . S
C2122 C2106 1.368 . S
C2122 C2118 1.368 . S
C2122 C2121 1.523 . S
H2123 C2098 0.950 . S
H2124 C2100 0.950 . S
H2125 C2101 0.899 1_565 S
H2126 C2103 0.950 . S
H2127 C2105 0.950 . S
C2128 C2129 1.349 . S
C2128 C2130 1.327 . S
C2128 H2153 0.950 . S
C2129 C2128 1.349 . S
C2129 C2145 1.349 . S
C2130 C2128 1.327 . S
C2130 C2149 1.429 . S
C2130 H2154 0.950 . S
C2131 C2148 1.574 . S
C2131 C2150 1.368 . S
C2131 H2155 0.949 . S
H2132 C2136 0.949 . S
C2133 C2134 1.349 . S
C2133 C2135 1.327 . S
C2133 H2156 0.950 . S
C2134 C2133 1.349 . S
C2134 C2146 1.349 . S
C2135 C2133 1.327 . S
C2135 C2151 1.429 . S
C2135 H2157 0.950 . S
C2136 H2132 0.949 . S
C2136 C2144 1.574 . S
C2136 C2152 1.368 . S
H2137 C2145 0.950 . S
H2138 C2143 0.950 . S
H2139 C2144 0.949 . S
H2140 C2146 0.950 . S
H2141 C2147 0.950 . S
H2142 C2148 0.949 . S
C2143 H2138 0.950 . S
C2143 C2145 1.327 . S
C2143 C2149 1.429 . S
C2144 C2136 1.574 . S
C2144 H2139 0.949 . S
C2144 C2150 1.368 . S
C2145 C2129 1.349 . S
C2145 H2137 0.950 . S
C2145 C2143 1.327 . S
C2146 C2134 1.349 . S
C2146 H2140 0.950 . S
C2146 C2147 1.327 . S
C2147 H2141 0.950 . S
C2147 C2146 1.327 . S
C2147 C2151 1.429 . S
C2148 C2131 1.574 . S
C2148 H2142 0.949 . S
C2148 C2152 1.368 . S
C2149 C2130 1.429 . S
C2149 C2143 1.429 . S
C2149 C2150 1.523 . S
C2150 C2131 1.368 . S
C2150 C2144 1.368 . S
C2150 C2149 1.523 . S
C2151 C2135 1.429 . S
C2151 C2147 1.429 . S
C2151 C2152 1.523 . S
C2152 C2136 1.368 . S
C2152 C2148 1.368 . S
C2152 C2151 1.523 . S
H2153 C2128 0.950 . S
H2154 C2130 0.950 . S
H2155 C2131 0.949 . S
H2156 C2133 0.950 . S
H2157 C2135 0.950 . S
C2158 C2159 1.349 . S
C2158 C2160 1.327 . S
C2158 H2183 0.950 . S
C2159 C2158 1.349 . S
C2159 C2175 1.349 . S
C2160 C2158 1.327 . S
C2160 C2179 1.429 . S
C2160 H2184 0.950 . S
C2161 C2178 1.574 . S
C2161 C2180 1.368 . S
C2161 H2185 0.949 . S
H2162 C2166 0.949 . S
C2163 C2164 1.349 . S
C2163 C2165 1.327 . S
C2163 H2186 0.950 . S
C2164 C2163 1.349 . S
C2164 C2176 1.349 . S
C2165 C2163 1.327 . S
C2165 C2181 1.429 1_556 S
C2165 H2187 0.950 . S
C2166 H2162 0.949 . S
C2166 C2174 1.574 . S
C2166 C2182 1.368 . S
H2167 C2175 0.950 . S
H2168 C2173 0.950 . S
H2169 C2174 0.949 . S
H2170 C2176 0.950 . S
H2171 C2177 0.970 . S
H2172 C2178 0.949 . S
C2173 H2168 0.950 . S
C2173 C2175 1.327 . S
C2173 C2179 1.429 . S
C2174 C2166 1.574 . S
C2174 H2169 0.949 . S
C2174 C2180 1.368 . S
C2175 C2159 1.349 . S
C2175 H2167 0.950 . S
C2175 C2173 1.327 . S
C2176 C2164 1.349 . S
C2176 H2170 0.950 . S
C2176 C2177 1.303 1_556 S
C2177 H2171 0.970 . S
C2177 C2176 1.303 1_554 S
C2177 C2181 1.434 . S
C2178 C2161 1.574 . S
C2178 H2172 0.949 . S
C2178 C2182 1.368 . S
C2179 C2160 1.429 . S
C2179 C2173 1.429 . S
C2179 C2180 1.523 . S
C2180 C2161 1.368 . S
C2180 C2174 1.368 . S
C2180 C2179 1.523 . S
C2181 C2165 1.429 1_554 S
C2181 C2177 1.434 . S
C2181 C2182 1.523 . S
C2182 C2166 1.368 . S
C2182 C2178 1.368 . S
C2182 C2181 1.523 . S
H2183 C2158 0.950 . S
H2184 C2160 0.950 . S
H2185 C2161 0.949 . S
H2186 C2163 0.950 . S
H2187 C2165 0.950 . S
C2188 C2189 1.349 . S
C2188 C2190 1.327 . S
C2188 H2213 0.950 . S
C2189 C2188 1.349 . S
C2189 C2205 1.349 . S
C2190 C2188 1.327 . S
C2190 C2209 1.429 . S
C2190 H2214 0.950 . S
C2191 C2208 1.574 . S
C2191 C2210 1.368 . S
C2191 H2215 0.949 . S
H2192 C2196 0.949 . S
C2193 C2194 1.349 . S
C2193 C2195 1.327 . S
C2193 H2216 0.950 . S
C2194 C2193 1.349 . S
C2194 C2206 1.349 . S
C2195 C2193 1.327 . S
C2195 C2211 1.429 . S
C2195 H2217 0.950 . S
C2196 H2192 0.949 . S
C2196 C2204 1.574 . S
C2196 C2212 1.368 . S
H2197 C2205 0.950 . S
H2198 C2203 0.950 . S
H2199 C2204 0.949 . S
H2200 C2206 0.950 . S
H2201 C2207 0.950 . S
H2202 C2208 0.949 . S
C2203 H2198 0.950 . S
C2203 C2205 1.327 . S
C2203 C2209 1.429 . S
C2204 C2196 1.574 . S
C2204 H2199 0.949 . S
C2204 C2210 1.368 . S
C2205 C2189 1.349 . S
C2205 H2197 0.950 . S
C2205 C2203 1.327 . S
C2206 C2194 1.349 . S
C2206 H2200 0.950 . S
C2206 C2207 1.327 . S
C2207 H2201 0.950 . S
C2207 C2206 1.327 . S
C2207 C2211 1.429 . S
C2208 C2191 1.574 . S
C2208 H2202 0.949 . S
C2208 C2212 1.368 . S
C2209 C2190 1.429 . S
C2209 C2203 1.429 . S
C2209 C2210 1.523 . S
C2210 C2191 1.368 . S
C2210 C2204 1.368 . S
C2210 C2209 1.523 . S
C2211 C2195 1.429 . S
C2211 C2207 1.429 . S
C2211 C2212 1.523 . S
C2212 C2196 1.368 . S
C2212 C2208 1.368 . S
C2212 C2211 1.523 . S
H2213 C2188 0.950 . S
H2214 C2190 0.950 . S
H2215 C2191 0.949 . S
H2216 C2193 0.950 . S
H2217 C2195 0.950 . S
C2218 C2219 1.349 . S
C2218 C2220 1.327 . S
C2218 H2243 0.950 . S
C2219 C2218 1.349 . S
C2219 C2235 1.349 . S
C2220 C2218 1.327 . S
C2220 C2239 1.429 . S
C2220 H2244 0.950 . S
C2221 C2238 1.574 . S
C2221 C2240 1.368 . S
C2221 H2245 0.949 . S
H2222 C2226 0.949 . S
C2223 C2224 1.349 . S
C2223 C2225 1.327 . S
C2223 H2246 0.950 . S
C2224 C2223 1.349 . S
C2224 C2236 1.349 . S
C2225 C2223 1.327 . S
C2225 C2241 1.429 . S
C2225 H2247 0.950 . S
C2226 H2222 0.949 . S
C2226 C2234 1.574 . S
C2226 C2242 1.368 . S
H2227 C2235 0.950 . S
H2228 C2233 0.950 . S
H2229 C2234 0.949 . S
H2230 C2236 0.950 . S
H2231 C2237 0.950 . S
H2232 C2238 0.949 . S
C2233 H2228 0.950 . S
C2233 C2235 1.327 . S
C2233 C2239 1.429 . S
C2234 C2226 1.574 . S
C2234 H2229 0.949 . S
C2234 C2240 1.368 . S
C2235 C2219 1.349 . S
C2235 H2227 0.950 . S
C2235 C2233 1.327 . S
C2236 C2224 1.349 . S
C2236 H2230 0.950 . S
C2236 C2237 1.327 . S
C2237 H2231 0.950 . S
C2237 C2236 1.327 . S
C2237 C2241 1.429 . S
C2238 C2221 1.574 . S
C2238 H2232 0.949 . S
C2238 C2242 1.368 . S
C2239 C2220 1.429 . S
C2239 C2233 1.429 . S
C2239 C2240 1.523 . S
C2240 C2221 1.368 . S
C2240 C2234 1.368 . S
C2240 C2239 1.523 . S
C2241 C2225 1.429 . S
C2241 C2237 1.429 . S
C2241 C2242 1.523 . S
C2242 C2226 1.368 . S
C2242 C2238 1.368 . S
C2242 C2241 1.523 . S
H2243 C2218 0.950 . S
H2244 C2220 0.950 . S
H2245 C2221 0.949 . S
H2246 C2223 0.950 . S
H2247 C2225 0.950 . S
C2248 C2249 1.349 . S
C2248 C2250 1.327 . S
C2248 H2273 0.950 . S
C2249 C2248 1.349 . S
C2249 C2265 1.349 . S
C2250 C2248 1.327 . S
C2250 C2269 1.429 . S
C2250 H2274 0.950 . S
C2251 C2268 1.574 . S
C2251 C2270 1.368 . S
C2251 H2275 0.949 . S
H2252 C2256 0.949 . S
C2253 C2254 1.349 . S
C2253 C2255 1.327 . S
C2253 H2276 0.950 . S
C2254 C2253 1.349 . S
C2254 C2266 1.349 . S
C2255 C2253 1.327 . S
C2255 C2271 1.429 . S
C2255 H2277 0.950 . S
C2256 H2252 0.949 . S
C2256 C2264 1.574 . S
C2256 C2272 1.368 . S
H2257 C2265 0.950 . S
H2258 C2263 0.950 . S
H2259 C2264 0.949 . S
H2260 C2266 0.950 . S
H2261 C2267 0.950 . S
H2262 C2268 0.949 . S
C2263 H2258 0.950 . S
C2263 C2265 1.327 . S
C2263 C2269 1.429 . S
C2264 C2256 1.574 . S
C2264 H2259 0.949 . S
C2264 C2270 1.368 . S
C2265 C2249 1.349 . S
C2265 H2257 0.950 . S
C2265 C2263 1.327 . S
C2266 C2254 1.349 . S
C2266 H2260 0.950 . S
C2266 C2267 1.327 . S
C2267 H2261 0.950 . S
C2267 C2266 1.327 . S
C2267 C2271 1.429 . S
C2268 C2251 1.574 . S
C2268 H2262 0.949 . S
C2268 C2272 1.368 . S
C2269 C2250 1.429 . S
C2269 C2263 1.429 . S
C2269 C2270 1.523 . S
C2270 C2251 1.368 . S
C2270 C2264 1.368 . S
C2270 C2269 1.523 . S
C2271 C2255 1.429 . S
C2271 C2267 1.429 . S
C2271 C2272 1.523 . S
C2272 C2256 1.368 . S
C2272 C2268 1.368 . S
C2272 C2271 1.523 . S
H2273 C2248 0.950 . S
H2274 C2250 0.950 . S
H2275 C2251 0.949 . S
H2276 C2253 0.950 . S
H2277 C2255 0.950 . S
C2278 C2279 1.349 . S
C2278 C2280 1.327 . S
C2278 H2303 0.950 . S
C2279 C2278 1.349 . S
C2279 C2295 1.349 . S
C2280 C2278 1.327 . S
C2280 C2299 1.429 1_556 S
C2280 H2304 0.950 . S
C2281 C2298 1.574 . S
C2281 C2300 1.368 . S
C2281 H2305 0.949 . S
H2282 C2286 0.949 . S
C2283 C2284 1.349 . S
C2283 C2285 1.327 . S
C2283 H2306 0.950 . S
C2284 C2283 1.349 . S
C2284 C2296 1.349 . S
C2285 C2283 1.327 . S
C2285 C2301 1.429 . S
C2285 H2307 0.950 . S
C2286 H2282 0.949 . S
C2286 C2294 1.574 . S
C2286 C2302 1.368 . S
H2287 C2295 0.950 . S
H2288 C2293 0.950 . S
H2289 C2294 0.949 . S
H2290 C2296 0.950 . S
H2291 C2297 0.950 . S
H2292 C2298 0.949 . S
C2293 H2288 0.950 . S
C2293 C2295 1.327 1_554 S
C2293 C2299 1.429 . S
C2294 C2286 1.574 . S
C2294 H2289 0.949 . S
C2294 C2300 1.368 . S
C2295 C2279 1.349 . S
C2295 H2287 0.950 . S
C2295 C2293 1.327 1_556 S
C2296 C2284 1.349 . S
C2296 H2290 0.950 . S
C2296 C2297 1.327 . S
C2297 H2291 0.950 . S
C2297 C2296 1.327 . S
C2297 C2301 1.429 . S
C2298 C2281 1.574 . S
C2298 H2292 0.949 . S
C2298 C2302 1.368 . S
C2299 C2280 1.429 1_554 S
C2299 C2293 1.429 . S
C2299 C2300 1.523 . S
C2300 C2281 1.368 . S
C2300 C2294 1.368 . S
C2300 C2299 1.523 . S
C2301 C2285 1.429 . S
C2301 C2297 1.429 . S
C2301 C2302 1.523 . S
C2302 C2286 1.368 . S
C2302 C2298 1.368 . S
C2302 C2301 1.523 . S
H2303 C2278 0.950 . S
H2304 C2280 0.950 . S
H2305 C2281 0.949 . S
H2306 C2283 0.950 . S
H2307 C2285 0.950 . S
C2308 C2309 1.349 . S
C2308 C2310 1.327 . S
C2308 H2333 0.950 . S
C2309 C2308 1.349 . S
C2309 C2325 1.349 . S
C2310 C2308 1.327 . S
C2310 C2329 1.429 . S
C2310 H2334 0.950 . S
C2311 C2328 1.574 . S
C2311 C2330 1.368 . S
C2311 H2335 0.949 . S
H2312 C2316 0.949 . S
C2313 C2314 1.349 . S
C2313 C2315 1.327 . S
C2313 H2336 0.950 . S
C2314 C2313 1.349 . S
C2314 C2326 1.349 . S
C2315 C2313 1.327 . S
C2315 C2331 1.429 . S
C2315 H2337 0.950 . S
C2316 H2312 0.949 . S
C2316 C2324 1.574 . S
C2316 C2332 1.368 . S
H2317 C2325 0.950 . S
H2318 C2323 0.950 . S
H2319 C2324 0.949 . S
H2320 C2326 0.950 . S
H2321 C2327 0.950 . S
H2322 C2328 0.949 . S
C2323 H2318 0.950 . S
C2323 C2325 1.327 . S
C2323 C2329 1.429 . S
C2324 C2316 1.574 . S
C2324 H2319 0.949 . S
C2324 C2330 1.368 . S
C2325 C2309 1.349 . S
C2325 H2317 0.950 . S
C2325 C2323 1.327 . S
C2326 C2314 1.349 . S
C2326 H2320 0.950 . S
C2326 C2327 1.327 . S
C2327 H2321 0.950 . S
C2327 C2326 1.327 . S
C2327 C2331 1.429 . S
C2328 C2311 1.574 . S
C2328 H2322 0.949 . S
C2328 C2332 1.368 . S
C2329 C2310 1.429 . S
C2329 C2323 1.429 . S
C2329 C2330 1.523 . S
C2330 C2311 1.368 . S
C2330 C2324 1.368 . S
C2330 C2329 1.523 . S
C2331 C2315 1.429 . S
C2331 C2327 1.429 . S
C2331 C2332 1.523 . S
C2332 C2316 1.368 . S
C2332 C2328 1.368 . S
C2332 C2331 1.523 . S
H2333 C2308 0.950 . S
H2334 C2310 0.950 . S
H2335 C2311 0.949 . S
H2336 C2313 0.950 . S
H2337 C2315 0.950 . S
C2338 C2339 1.349 . S
C2338 C2340 1.327 . S
C2338 H2363 0.950 . S
C2339 C2338 1.349 . S
C2339 C2355 1.349 . S
C2340 C2338 1.327 . S
C2340 C2359 1.429 . S
C2340 H2364 0.950 . S
C2341 C2358 1.574 . S
C2341 C2360 1.368 . S
C2341 H2365 0.949 . S
H2342 C2346 0.949 . S
C2343 C2344 1.349 . S
C2343 C2345 1.327 . S
C2343 H2366 0.950 . S
C2344 C2343 1.349 . S
C2344 C2356 1.349 . S
C2345 C2343 1.327 . S
C2345 C2361 1.429 . S
C2345 H2367 0.950 . S
C2346 H2342 0.949 . S
C2346 C2354 1.574 . S
C2346 C2362 1.368 . S
H2347 C2355 0.950 . S
H2348 C2353 0.950 . S
H2349 C2354 0.949 . S
H2350 C2356 0.950 . S
H2351 C2357 0.950 . S
H2352 C2358 0.949 . S
C2353 H2348 0.950 . S
C2353 C2355 1.327 . S
C2353 C2359 1.429 . S
C2354 C2346 1.574 . S
C2354 H2349 0.949 . S
C2354 C2360 1.368 . S
C2355 C2339 1.349 . S
C2355 H2347 0.950 . S
C2355 C2353 1.327 . S
C2356 C2344 1.349 . S
C2356 H2350 0.950 . S
C2356 C2357 1.327 . S
C2357 H2351 0.950 . S
C2357 C2356 1.327 . S
C2357 C2361 1.429 . S
C2358 C2341 1.574 . S
C2358 H2352 0.949 . S
C2358 C2362 1.368 . S
C2359 C2340 1.429 . S
C2359 C2353 1.429 . S
C2359 C2360 1.523 . S
C2360 C2341 1.368 . S
C2360 C2354 1.368 . S
C2360 C2359 1.523 . S
C2361 C2345 1.429 . S
C2361 C2357 1.429 . S
C2361 C2362 1.523 . S
C2362 C2346 1.368 . S
C2362 C2358 1.368 . S
C2362 C2361 1.523 . S
H2363 C2338 0.950 . S
H2364 C2340 0.950 . S
H2365 C2341 0.949 . S
H2366 C2343 0.950 . S
H2367 C2345 0.950 . S
C449 C109 1.496 . S
C454 C11 1.496 . S
C479 C25 1.496 . S
C484 C67 1.496 . S
C509 C81 1.495 . S
C514 C39 1.495 . S
C539 C53 1.495 . S
C544 C95 1.495 . S
C569 C123 1.496 . S
C574 C221 1.496 . S
C599 C137 1.496 . S
C604 C179 1.496 . S
C629 C151 1.495 . S
C634 C193 1.495 . S
C659 C165 1.495 . S
C664 C207 1.495 . S
C689 C235 1.496 . S
C694 C333 1.496 . S
C719 C249 1.496 . S
C724 C291 1.496 . S
C749 C305 1.496 . S
C754 C263 1.496 . S
C779 C319 1.495 . S
C784 C277 1.495 . S
C809 C347 1.496 . S
C814 C445 1.496 . S
C839 C403 1.496 . S
C844 C361 1.496 . S
C869 C417 1.495 . S
C874 C375 1.495 . S
C899 C389 1.496 . S
C904 C431 1.496 . S
C929 C9 0.363 . S
C934 C93 0.363 . S
C959 C23 0.363 . S
C964 C107 0.363 . S
C989 C65 0.363 . S
C994 C37 0.363 . S
C1019 C51 0.364 . S
C1024 C79 0.364 . S
C1049 C121 0.363 . S
C1054 C205 0.363 . S
C1079 C135 0.363 . S
C1084 C219 0.363 . S
C1109 C177 0.363 . S
C1114 C149 0.363 . S
C1139 C191 0.364 . S
C1144 C163 0.364 . S
C1169 C233 0.363 . S
C1174 C317 0.363 . S
C1199 C331 0.364 . S
C1204 C247 0.364 . S
C1229 C289 0.363 . S
C1234 C261 0.363 . S
C1259 C275 0.363 . S
C1264 C303 0.363 . S
C1289 C345 0.363 . S
C1294 C429 0.363 . S
C1319 C359 0.364 . S
C1324 C443 0.364 . S
C1349 C401 0.363 . S
C1354 C373 0.363 . S
C1379 C415 0.363 . S
C1384 C387 0.363 . S
C1409 C5 1.527 . S
C1414 C425 1.527 . S
C1439 C19 1.527 . S
C1444 C215 1.527 . S
C1469 C33 1.527 . S
C1474 C397 1.527 . S
C1499 C47 1.527 . S
C1504 C187 1.527 . S
C1529 C61 1.527 . S
C1534 C369 1.527 . S
C1559 C75 1.527 . S
C1564 C159 1.527 . S
C1589 C89 1.527 . S
C1594 C341 1.527 . S
C1619 C131 1.527 . S
C1624 C103 1.527 . S
C1649 C313 1.527 . S
C1654 C117 1.527 . S
C1679 C145 1.527 . S
C1684 C285 1.527 . S
C1709 C257 1.527 . S
C1714 C173 1.527 . S
C1739 C229 1.527 . S
C1744 C201 1.527 . S
C1769 C243 1.528 . S
C1774 C439 1.528 . S
C1799 C271 1.527 . S
C1804 C411 1.527 . S
C1829 C299 1.527 . S
C1834 C383 1.527 . S
C1859 C355 1.527 . S
C1864 C327 1.527 . S
C1889 C0 1.629 . S
C1894 C84 1.629 . S
C1919 C14 1.628 . S
C1924 C98 1.628 . S
C1949 C56 1.628 1_556 S
C1954 C28 1.628 . S
C1979 C42 1.628 . S
C1984 C70 1.628 . S
C2009 C112 1.628 1_556 S
C2014 C196 1.628 . S
C2039 C126 1.628 . S
C2044 C210 1.628 . S
C2069 C168 1.629 . S
C2074 C140 1.629 . S
C2099 C154 1.628 . S
C2104 C182 1.628 . S
C2129 C308 1.628 1_556 S
C2134 C224 1.628 . S
C2159 C322 1.628 . S
C2164 C238 1.628 . S
C2189 C280 1.629 . S
C2194 C252 1.629 . S
C2219 C294 1.628 . S
C2224 C266 1.628 . S
C2249 C420 1.629 . S
C2254 C336 1.629 . S
C2279 C434 1.628 . S
C2284 C350 1.628 . S
C2309 C364 1.628 1_556 S
C2314 C392 1.628 . S
C2339 C406 1.628 . S
C2344 C378 1.628 . S
