# Generated by pormake.
# Topology uoj, (4)-cn, num edge types: 1
# Building blocks:
#     Node 0, Type 0, BuildingBlock: QUQFOY_clean_sbu_1, # of connection points: 4
#     Node 1, Type 0, BuildingBlock: QUQFOY_clean_sbu_1, # of connection points: 4
#     Node 2, Type 0, BuildingBlock: QUQFOY_clean_sbu_1, # of connection points: 4
#     Node 3, Type 0, BuildingBlock: QUQFOY_clean_sbu_1, # of connection points: 4
#     Node 4, Type 0, BuildingBlock: QUQFOY_clean_sbu_1, # of connection points: 4
#     Node 5, Type 0, BuildingBlock: QUQFOY_clean_sbu_1, # of connection points: 4
#     Node 6, Type 0, BuildingBlock: QUQFOY_clean_sbu_1, # of connection points: 4
#     Node 7, Type 0, BuildingBlock: QUQFOY_clean_sbu_1, # of connection points: 4
#     Edge 8, Type (0, 0), BuildingBlock: FUNLAD_clean_linker_1, # of connection points: 2
#     Edge 9, Type (0, 0), BuildingBlock: FUNLAD_clean_linker_1, # of connection points: 2
#     Edge 10, Type (0, 0), BuildingBlock: FUNLAD_clean_linker_1, # of connection points: 2
#     Edge 11, Type (0, 0), BuildingBlock: FUNLAD_clean_linker_1, # of connection points: 2
#     Edge 12, Type (0, 0), BuildingBlock: FUNLAD_clean_linker_1, # of connection points: 2
#     Edge 13, Type (0, 0), BuildingBlock: FUNLAD_clean_linker_1, # of connection points: 2
#     Edge 14, Type (0, 0), BuildingBlock: FUNLAD_clean_linker_1, # of connection points: 2
#     Edge 15, Type (0, 0), BuildingBlock: FUNLAD_clean_linker_1, # of connection points: 2
#     Edge 16, Type (0, 0), BuildingBlock: FUNLAD_clean_linker_1, # of connection points: 2
#     Edge 17, Type (0, 0), BuildingBlock: FUNLAD_clean_linker_1, # of connection points: 2
#     Edge 18, Type (0, 0), BuildingBlock: FUNLAD_clean_linker_1, # of connection points: 2
#     Edge 19, Type (0, 0), BuildingBlock: FUNLAD_clean_linker_1, # of connection points: 2
#     Edge 20, Type (0, 0), BuildingBlock: FUNLAD_clean_linker_1, # of connection points: 2
#     Edge 21, Type (0, 0), BuildingBlock: FUNLAD_clean_linker_1, # of connection points: 2
#     Edge 22, Type (0, 0), BuildingBlock: FUNLAD_clean_linker_1, # of connection points: 2
#     Edge 23, Type (0, 0), BuildingBlock: FUNLAD_clean_linker_1, # of connection points: 2
# Relax obj value: 0.060
# Max RMSD: 0.096
# Mean RMSD: 0.096
data_MOF--net-uoj--node1-QUQFOY_clean_sbu_1--edge1-FUNLAD_clean_linker_1
_symmetry_space_group_name_H-M    P1
_symmetry_Int_Tables_number       1
_symmetry_cell_setting            triclinic
loop_
_symmetry_equiv_pos_as_xyz
'x, y, z'
_cell_length_a     33.734715
_cell_length_b     33.701003
_cell_length_c     44.306355
_cell_angle_alpha  90.299391
_cell_angle_beta   89.989155
_cell_angle_gamma 90.023578
loop_
_atom_site_label
_atom_site_type_symbol
_atom_site_fract_x
_atom_site_fract_y
_atom_site_fract_z
_atom_type_partial_charge
O0 O 0.0117 0.25297 0.47145 0.0
Cd1 Cd 0.06597 0.28037 0.47376 0.0
Cd2 Cd 0.04421 0.2935 0.41248 0.0
O3 O 0.0015 0.25124 0.42219 0.0
O4 O 0.08402 0.26481 0.51482 0.0
O5 O 0.11479 0.24589 0.47307 0.0
C6 C 0.1116 0.24443 0.5021 0.0
C7 C 0.07272 0.29623 0.36417 0.0
C8 C 0.99128 0.24189 0.44884 0.0
C9 C 0.0478 0.36282 0.45716 0.0
O10 O 0.03594 0.34863 0.43208 0.0
O11 O 0.06515 0.34107 0.47631 0.0
O12 O 0.0362 0.30533 0.36877 0.0
O13 O 0.09324 0.28385 0.38685 0.0
O14 O 0.24971 0.96127 0.54845 0.0
Cd15 Cd 0.2807 0.90882 0.54906 0.0
Cd16 Cd 0.28944 0.93669 0.61033 0.0
O17 O 0.24921 0.97917 0.5966 0.0
O18 O 0.26942 0.88791 0.5078 0.0
O19 O 0.24819 0.85853 0.54927 0.0
C20 C 0.2488 0.86036 0.52016 0.0
C21 C 0.28846 0.91081 0.65935 0.0
C22 C 0.23903 0.98485 0.56932 0.0
C23 C 0.36179 0.9311 0.56926 0.0
O24 O 0.34573 0.9434 0.59351 0.0
O25 O 0.34166 0.91303 0.54927 0.0
O26 O 0.29763 0.94722 0.65428 0.0
O27 O 0.27768 0.88908 0.63669 0.0
O28 O 0.95995 0.74495 0.46593 0.0
Cd29 Cd 0.9065 0.71628 0.46445 0.0
Cd30 Cd 0.93148 0.7068 0.40348 0.0
O31 O 0.97882 0.74134 0.41814 0.0
O32 O 0.88259 0.73159 0.50389 0.0
O33 O 0.85725 0.74936 0.45992 0.0
C34 C 0.85648 0.75137 0.48902 0.0
C35 C 0.90449 0.71252 0.35504 0.0
C36 C 0.98486 0.75233 0.44529 0.0
C37 C 0.92084 0.63386 0.44289 0.0
O38 O 0.93099 0.64905 0.41793 0.0
O39 O 0.90855 0.65524 0.46466 0.0
O40 O 0.94001 0.69982 0.35923 0.0
O41 O 0.88474 0.72472 0.37829 0.0
O42 O 0.73896 0.01026 0.58714 0.0
Cd43 Cd 0.71534 0.06601 0.58504 0.0
Cd44 Cd 0.70254 0.05086 0.64483 0.0
O45 O 0.73662 0.00058 0.63636 0.0
O46 O 0.73696 0.08755 0.54673 0.0
O47 O 0.7505 0.11332 0.59168 0.0
C48 C 0.75597 0.11322 0.56282 0.0
C49 C 0.71083 0.08971 0.68828 0.0
C50 C 0.74603 0.98882 0.60999 0.0
C51 C 0.63175 0.05782 0.60273 0.0
O52 O 0.6451 0.04968 0.62877 0.0
O53 O 0.65486 0.06786 0.58149 0.0
O54 O 0.69505 0.05491 0.68942 0.0
O55 O 0.72395 0.1019 0.66256 0.0
O56 O 0.4734 0.73911 0.94877 0.0
Cd57 Cd 0.42263 0.76702 0.96191 0.0
Cd58 Cd 0.4283 0.79486 0.9021 0.0
O59 O 0.47899 0.75963 0.9017 0.0
O60 O 0.41165 0.74114 1.00131 0.0
O61 O 0.37065 0.73763 0.96244 0.0
C62 C 0.37939 0.72754 0.9897 0.0
C63 C 0.38702 0.79538 0.85951 0.0
C64 C 0.49217 0.73998 0.92397 0.0
C65 C 0.43304 0.8539 0.95417 0.0
O66 O 0.43203 0.84776 0.92584 0.0
O67 O 0.42983 0.82561 0.97275 0.0
O68 O 0.42122 0.81241 0.85944 0.0
O69 O 0.37626 0.77711 0.8837 0.0
O70 O 0.72677 0.52472 0.06966 0.0
Cd71 Cd 0.76208 0.57162 0.05839 0.0
Cd72 Cd 0.78321 0.56415 0.11908 0.0
O73 O 0.74608 0.51499 0.11675 0.0
O74 O 0.74261 0.58507 1.01729 0.0
O75 O 0.73802 0.62621 0.05619 0.0
C76 C 0.7306 0.61844 0.0282 0.0
C77 C 0.78138 0.60736 0.16063 0.0
C78 C 0.72565 0.50482 0.09384 0.0
C79 C 0.84684 0.55348 0.0719 0.0
O80 O 0.83809 0.5568 0.09968 0.0
O81 O 0.82076 0.55774 0.05157 0.0
O82 O 0.79599 0.57215 0.16267 0.0
O83 O 0.7663 0.61785 0.1351 0.0
O84 O 0.52313 0.25267 0.98623 0.0
Cd85 Cd 0.56943 0.21574 0.99562 0.0
Cd86 Cd 0.55782 0.20032 0.93052 0.0
O87 O 0.51359 0.24237 0.93732 0.0
O88 O 0.58053 0.22906 0.03871 0.0
O89 O 0.62313 0.24085 1.0019 0.0
C90 C 0.61373 0.24383 0.03008 0.0
C91 C 0.58951 0.19606 0.88335 0.0
C92 C 0.50421 0.25929 0.96206 0.0
C93 C 0.54722 0.13347 0.97626 0.0
O94 O 0.5476 0.14547 0.94913 0.0
O95 O 0.55527 0.15656 0.9981 0.0
O96 O 0.55267 0.18746 0.88663 0.0
O97 O 0.60862 0.20895 0.90667 0.0
O98 O 0.24261 0.47018 0.06755 0.0
Cd99 Cd 0.21068 0.42083 0.05672 0.0
Cd100 Cd 0.19379 0.4286 0.12057 0.0
O101 O 0.2343 0.47502 0.11693 0.0
O102 O 0.22683 0.41195 1.01394 0.0
O103 O 0.24019 0.36946 0.05041 0.0
C104 C 0.24374 0.37977 0.0225 0.0
C105 C 0.19387 0.38876 0.16389 0.0
C106 C 0.24933 0.48766 0.09246 0.0
C107 C 0.12706 0.43686 0.07433 0.0
O108 O 0.13842 0.43741 0.10169 0.0
O109 O 0.15103 0.42988 0.05294 0.0
O110 O 0.18133 0.42485 0.16459 0.0
O111 O 0.20774 0.37532 0.13868 0.0
H112 H 0.20346 0.33343 0.18986 0.0
C113 C 0.19093 0.36311 0.19083 0.0
H114 H 0.15947 0.40514 0.21688 0.0
H115 H 0.09982 0.24624 0.28948 0.0
H116 H 0.07202 0.22333 0.24191 0.0
H117 H 0.08572 0.25909 0.1946 0.0
H118 H 0.12788 0.31721 0.19437 0.0
C119 C 0.17132 0.37519 0.21571 0.0
C120 C 0.16619 0.35017 0.24316 0.0
C121 C 0.14052 0.31676 0.24288 0.0
C122 C 0.13095 0.29725 0.2704 0.0
C123 C 0.10661 0.26305 0.26939 0.0
C124 C 0.09071 0.24945 0.24224 0.0
C125 C 0.09854 0.2695 0.21559 0.0
C126 C 0.12302 0.30281 0.21577 0.0
H127 H 0.07069 0.31502 0.31683 0.0
C128 C 0.09013 0.30279 0.33401 0.0
H129 H 0.14889 0.28697 0.34484 0.0
H130 H 0.22043 0.40951 0.25112 0.0
H131 H 0.2481 0.43223 0.29873 0.0
H132 H 0.22899 0.40055 0.34663 0.0
H133 H 0.1824 0.34587 0.34728 0.0
C134 C 0.12878 0.29774 0.32759 0.0
C135 C 0.14533 0.31232 0.29831 0.0
C136 C 0.17295 0.34408 0.29834 0.0
C137 C 0.18347 0.36285 0.27075 0.0
C138 C 0.21092 0.39465 0.27147 0.0
C139 C 0.22714 0.4079 0.29862 0.0
C140 C 0.21642 0.39002 0.32558 0.0
C141 C 0.18961 0.35857 0.32561 0.0
H142 H 0.30495 0.915 0.70718 0.0
C143 C 0.29394 0.89465 0.68999 0.0
H144 H 0.28099 0.835 0.67936 0.0
H145 H 0.40721 0.77142 0.77343 0.0
H146 H 0.43101 0.74425 0.72593 0.0
H147 H 0.39802 0.76089 0.67796 0.0
H148 H 0.341 0.80446 0.67714 0.0
C149 C 0.29043 0.85592 0.69665 0.0
C150 C 0.30589 0.8405 0.726 0.0
C151 C 0.33901 0.81454 0.72604 0.0
C152 C 0.35849 0.80544 0.75366 0.0
C153 C 0.39171 0.77976 0.75304 0.0
C154 C 0.4056 0.76386 0.72596 0.0
C155 C 0.38699 0.77318 0.69897 0.0
C156 C 0.35418 0.79827 0.69884 0.0
H157 H 0.33237 0.78207 0.83344 0.0
C158 C 0.3606 0.79757 0.83289 0.0
H159 H 0.39917 0.83391 0.8077 0.0
H160 H 0.23792 0.88306 0.73466 0.0
H161 H 0.21376 0.90988 0.78224 0.0
H162 H 0.25003 0.89791 0.82967 0.0
H163 H 0.31009 0.8585 0.82998 0.0
C164 C 0.37052 0.8192 0.80858 0.0
C165 C 0.34508 0.8224 0.78117 0.0
C166 C 0.31035 0.84613 0.7814 0.0
C167 C 0.2903 0.85447 0.75385 0.0
C168 C 0.25503 0.87716 0.7548 0.0
C169 C 0.24072 0.89247 0.78195 0.0
C170 C 0.26108 0.88563 0.80867 0.0
C171 C 0.29553 0.86282 0.80854 0.0
H172 H 0.9054 0.69681 0.30696 0.0
C173 C 0.88653 0.70852 0.3248 0.0
H174 H 0.82802 0.72269 0.33755 0.0
H175 H 0.84316 0.68605 0.187 0.0
H176 H 0.88266 0.74597 0.18468 0.0
H177 H 0.89678 0.785 0.2307 0.0
H178 H 0.87204 0.76367 0.27954 0.0
C179 C 0.84751 0.71274 0.31953 0.0
C180 C 0.82981 0.69638 0.2911 0.0
C181 C 0.84238 0.71037 0.2625 0.0
C182 C 0.83268 0.68878 0.23577 0.0
C183 C 0.84833 0.70189 0.20789 0.0
C184 C 0.87123 0.73623 0.20624 0.0
C185 C 0.87929 0.75814 0.23216 0.0
C186 C 0.86516 0.74547 0.26003 0.0
H187 H 0.76884 0.66404 0.18455 0.0
C188 C 0.7834 0.6354 0.1864 0.0
H189 H 0.81862 0.59785 0.21326 0.0
H190 H 0.79591 0.66431 0.34179 0.0
H191 H 0.75196 0.60759 0.34366 0.0
H192 H 0.73269 0.57209 0.2971 0.0
H193 H 0.75761 0.59305 0.24832 0.0
C194 C 0.80464 0.62676 0.21123 0.0
C195 C 0.80881 0.65416 0.2376 0.0
C196 C 0.79299 0.64255 0.26585 0.0
C197 C 0.80358 0.66352 0.29264 0.0
C198 C 0.78857 0.64998 0.32064 0.0
C199 C 0.76327 0.61736 0.32207 0.0
C200 C 0.75246 0.59734 0.29587 0.0
C201 C 0.7671 0.60959 0.26804 0.0
H202 H 0.59002 0.17654 0.83606 0.0
C203 C 0.60875 0.18829 0.85398 0.0
H204 H 0.66739 0.20137 0.86724 0.0
H205 H 0.73638 0.07131 0.77711 0.0
H206 H 0.76043 0.04897 0.8258 0.0
H207 H 0.74137 0.08393 0.87265 0.0
H208 H 0.69848 0.14152 0.87116 0.0
C209 C 0.64801 0.19127 0.8492 0.0
C210 C 0.66573 0.17505 0.82072 0.0
C211 C 0.69129 0.14169 0.82201 0.0
C212 C 0.70178 0.12109 0.79503 0.0
C213 C 0.72701 0.08763 0.79698 0.0
C214 C 0.74113 0.07458 0.82474 0.0
C215 C 0.73044 0.0943 0.85111 0.0
C216 C 0.70576 0.12739 0.84992 0.0
H217 H 0.72634 0.14441 0.71379 0.0
C218 C 0.71127 0.11597 0.71516 0.0
H219 H 0.67578 0.07808 0.74159 0.0
H220 H 0.62534 0.24362 0.80971 0.0
H221 H 0.60137 0.26636 0.76107 0.0
H222 H 0.61473 0.22779 0.7147 0.0
H223 H 0.65277 0.16702 0.71648 0.0
C224 C 0.69045 0.10672 0.74009 0.0
C225 C 0.68652 0.13359 0.76681 0.0
C226 C 0.66328 0.16866 0.76529 0.0
C227 C 0.65381 0.18992 0.79222 0.0
C228 C 0.6319 0.22559 0.79005 0.0
C229 C 0.61821 0.23908 0.76229 0.0
C230 C 0.62587 0.21744 0.73618 0.0
C231 C 0.64799 0.18259 0.73752 0.0
H232 H 0.20284 0.01996 0.53824 0.0
C233 C 0.2164 0.0202 0.56053 0.0
H234 H 0.23217 0.05589 0.598 0.0
H235 H 0.22946 0.20676 0.51152 0.0
H236 H 0.29954 0.2017 0.52361 0.0
H237 H 0.32487 0.14584 0.55379 0.0
H238 H 0.28034 0.09485 0.57224 0.0
C239 C 0.2163 0.05395 0.5767 0.0
C240 C 0.20015 0.09072 0.56293 0.0
C241 C 0.22656 0.12056 0.55274 0.0
C242 C 0.21205 0.15261 0.53515 0.0
C243 C 0.23904 0.18173 0.52489 0.0
C244 C 0.27929 0.17918 0.53166 0.0
C245 C 0.29355 0.14773 0.54866 0.0
C246 C 0.26766 0.11864 0.5591 0.0
H247 H 0.13223 0.21918 0.54496 0.0
C248 C 0.13563 0.21744 0.52058 0.0
H249 H 0.1593 0.18423 0.4842 0.0
H250 H 0.14112 0.04185 0.58287 0.0
H251 H 0.07114 0.04646 0.57048 0.0
H252 H 0.04631 0.10011 0.53786 0.0
H253 H 0.09107 0.14964 0.51777 0.0
C254 C 0.15622 0.18729 0.5085 0.0
C255 C 0.17124 0.15479 0.52793 0.0
C256 C 0.14461 0.12561 0.53893 0.0
C257 C 0.15904 0.09394 0.5569 0.0
C258 C 0.13178 0.06583 0.56837 0.0
C259 C 0.09155 0.06826 0.56158 0.0
C260 C 0.07756 0.09852 0.54329 0.0
C261 C 0.10362 0.1269 0.532 0.0
H262 H 0.22735 0.83693 0.47675 0.0
C263 C 0.22307 0.83548 0.50105 0.0
H264 H 0.18448 0.81765 0.53602 0.0
H265 H 0.05238 0.84281 0.43079 0.0
H266 H 0.06269 0.91267 0.442 0.0
H267 H 0.11612 0.93405 0.47645 0.0
H268 H 0.15982 0.88594 0.49952 0.0
C269 C 0.19033 0.81809 0.51191 0.0
C270 C 0.15817 0.80511 0.49114 0.0
C271 C 0.13234 0.83376 0.4784 0.0
C272 C 0.10065 0.82142 0.45941 0.0
C273 C 0.07609 0.8506 0.44616 0.0
C274 C 0.08183 0.89078 0.45225 0.0
C275 C 0.11198 0.90282 0.47157 0.0
C276 C 0.13699 0.87481 0.48457 0.0
H277 H 0.02199 0.78738 0.476 0.0
C278 C 0.02192 0.77203 0.45433 0.0
H279 H 0.05763 0.74926 0.41911 0.0
H280 H 0.20344 0.74323 0.51069 0.0
H281 H 0.19253 0.67327 0.49991 0.0
H282 H 0.13637 0.65166 0.46815 0.0
H283 H 0.09092 0.69974 0.44681 0.0
C284 C 0.05632 0.76712 0.43958 0.0
C285 C 0.09383 0.78047 0.45418 0.0
C286 C 0.12043 0.75194 0.46608 0.0
C287 C 0.15264 0.76432 0.48461 0.0
C288 C 0.17845 0.73529 0.49657 0.0
C289 C 0.17252 0.6951 0.49057 0.0
C290 C 0.14089 0.68293 0.47268 0.0
C291 C 0.11501 0.71086 0.46057 0.0
H292 H 0.77258 0.93184 0.62486 0.0
C293 C 0.76376 0.94917 0.60537 0.0
H294 H 0.75718 0.95043 0.55793 0.0
H295 H 0.89506 0.81596 0.55482 0.0
H296 H 0.9386 0.86656 0.5751 0.0
H297 H 0.91186 0.93027 0.59365 0.0
H298 H 0.84137 0.94363 0.59211 0.0
C299 C 0.76771 0.93396 0.57737 0.0
C300 C 0.78333 0.89354 0.57125 0.0
C301 C 0.8246 0.88602 0.5728 0.0
C302 C 0.83999 0.84933 0.56194 0.0
C303 C 0.88153 0.84305 0.56296 0.0
C304 C 0.90697 0.87194 0.57448 0.0
C305 C 0.89193 0.9078 0.58492 0.0
C306 C 0.85131 0.91502 0.58399 0.0
H307 H 0.81178 0.79907 0.49097 0.0
C308 C 0.82966 0.77925 0.50465 0.0
H309 H 0.84995 0.76544 0.54841 0.0
H310 H 0.70249 0.89739 0.56765 0.0
H311 H 0.65846 0.84598 0.54867 0.0
H312 H 0.68507 0.78191 0.53063 0.0
H313 H 0.7559 0.76898 0.53124 0.0
C314 C 0.83113 0.7844 0.53477 0.0
C315 C 0.81406 0.82047 0.54931 0.0
C316 C 0.7726 0.82714 0.54938 0.0
C317 C 0.75725 0.86386 0.56016 0.0
C318 C 0.71573 0.87008 0.55957 0.0
C319 C 0.69013 0.84077 0.54887 0.0
C320 C 0.70511 0.8047 0.53869 0.0
C321 C 0.74583 0.79776 0.53897 0.0
H322 H 0.80267 0.15911 0.5637 0.0
C323 C 0.78566 0.13958 0.549 0.0
H324 H 0.77886 0.11653 0.50488 0.0
H325 H 0.89608 0.27573 0.48889 0.0
H326 H 0.83863 0.31478 0.5034 0.0
H327 H 0.77641 0.28217 0.51888 0.0
H328 H 0.77136 0.21035 0.52016 0.0
C329 C 0.79472 0.13712 0.51948 0.0
C330 C 0.83038 0.15722 0.50703 0.0
C331 C 0.83249 0.19919 0.50585 0.0
C332 C 0.86814 0.21796 0.49648 0.0
C333 C 0.86973 0.25995 0.49591 0.0
C334 C 0.83693 0.28271 0.50407 0.0
C335 C 0.80191 0.26436 0.51281 0.0
C336 C 0.7995 0.2231 0.51365 0.0
H337 H 0.93811 0.20788 0.43453 0.0
C338 C 0.95433 0.21939 0.45388 0.0
H339 H 0.95488 0.22746 0.50125 0.0
H340 H 0.83532 0.07597 0.50455 0.0
H341 H 0.89211 0.03719 0.48863 0.0
H342 H 0.95388 0.06989 0.47233 0.0
H343 H 0.95913 0.14162 0.47176 0.0
C344 C 0.93979 0.21453 0.48189 0.0
C345 C 0.90129 0.19473 0.4878 0.0
C346 C 0.89859 0.15278 0.48757 0.0
C347 C 0.863 0.13398 0.49709 0.0
C348 C 0.86143 0.09195 0.49733 0.0
C349 C 0.89389 0.06926 0.48832 0.0
C350 C 0.92866 0.08766 0.47914 0.0
C351 C 0.93123 0.12891 0.47885 0.0
H352 H 0.27986 0.53942 0.11344 0.0
C353 C 0.27321 0.52442 0.09227 0.0
H354 H 0.27879 0.52508 0.04472 0.0
H355 H 0.3024 0.71481 0.05498 0.0
H356 H 0.23467 0.71716 0.07362 0.0
H357 H 0.19943 0.65569 0.08741 0.0
H358 H 0.23174 0.59164 0.08304 0.0
C359 C 0.28491 0.54029 0.06591 0.0
C360 C 0.30768 0.57777 0.06353 0.0
C361 C 0.28817 0.61489 0.06624 0.0
C362 C 0.30809 0.65025 0.05757 0.0
C363 C 0.28822 0.68702 0.06066 0.0
C364 C 0.24946 0.68878 0.07142 0.0
C365 C 0.22964 0.65417 0.07923 0.0
C366 C 0.24857 0.61757 0.07665 0.0
H367 H 0.32887 0.68649 0.99495 0.0
C368 C 0.35489 0.69863 1.00616 0.0
H369 H 0.39331 0.6947 0.04372 0.0
H370 H 0.35448 0.51186 0.05854 0.0
H371 H 0.42216 0.50954 0.03994 0.0
H372 H 0.45641 0.5707 0.0241 0.0
H373 H 0.42325 0.63445 0.02668 0.0
C374 C 0.36638 0.68399 0.03296 0.0
C375 C 0.34706 0.64822 0.04575 0.0
C376 C 0.36732 0.61138 0.04471 0.0
C377 C 0.34754 0.57611 0.05358 0.0
C378 C 0.36807 0.53951 0.05174 0.0
C379 C 0.40695 0.53778 0.04123 0.0
C380 C 0.42623 0.57221 0.03234 0.0
C381 C 0.40682 0.60865 0.03398 0.0
H382 H 0.68894 0.66806 0.02206 0.0
C383 C 0.70497 0.64469 1.01025 0.0
H384 H 0.71246 0.61311 0.96944 0.0
H385 H 0.53271 0.63258 0.93337 0.0
H386 H 0.54031 0.561 0.9363 0.0
H387 H 0.60349 0.5314 0.95288 0.0
H388 H 0.6593 0.5729 0.96654 0.0
C389 C 0.69689 0.6369 0.98107 0.0
C390 C 0.66155 0.65456 0.96616 0.0
C391 C 0.62953 0.62951 0.95766 0.0
C392 C 0.59293 0.64644 0.94846 0.0
C393 C 0.561 0.62105 0.9408 0.0
C394 C 0.565 0.57999 0.94229 0.0
C395 C 0.60059 0.56334 0.95159 0.0
C396 C 0.6325 0.58761 0.95931 0.0
H397 H 0.54755 0.72052 0.90099 0.0
C398 C 0.53131 0.72043 0.92217 0.0
H399 H 0.53196 0.70518 0.96843 0.0
H400 H 0.71975 0.71017 0.9739 0.0
H401 H 0.71217 0.78171 0.96988 0.0
H402 H 0.64775 0.81111 0.95599 0.0
H403 H 0.5907 0.76919 0.94559 0.0
C404 C 0.54795 0.70518 0.94714 0.0
C405 C 0.58841 0.68814 0.94791 0.0
C406 C 0.62134 0.71307 0.95385 0.0
C407 C 0.65817 0.6962 0.96263 0.0
C408 C 0.69082 0.72164 0.96804 0.0
C409 C 0.68691 0.76266 0.96562 0.0
C410 C 0.65065 0.77921 0.95775 0.0
C411 C 0.61813 0.75485 0.95191 0.0
H412 H 0.68212 0.46377 0.0748 0.0
C413 C 0.70352 0.46728 0.09299 0.0
H414 H 0.73784 0.43744 0.12555 0.0
H415 H 0.59107 0.32756 0.06145 0.0
H416 H 0.54573 0.36974 0.08904 0.0
H417 H 0.5706 0.4228 0.12262 0.0
H418 H 0.64142 0.43443 0.12806 0.0
C419 C 0.71436 0.43521 0.10885 0.0
C420 C 0.70059 0.39535 0.09848 0.0
C421 C 0.6595 0.38685 0.09728 0.0
C422 C 0.6454 0.3548 0.07927 0.0
C423 C 0.60386 0.34988 0.07605 0.0
C424 C 0.57734 0.37422 0.09159 0.0
C425 C 0.59131 0.40419 0.11039 0.0
C426 C 0.6319 0.41067 0.11319 0.0
H427 H 0.63146 0.26352 0.07556 0.0
C428 C 0.63724 0.26742 0.05162 0.0
H429 H 0.66388 0.30359 0.01861 0.0
H430 H 0.78178 0.39991 0.09961 0.0
H431 H 0.82777 0.35473 0.07529 0.0
H432 H 0.80353 0.29701 0.04621 0.0
H433 H 0.73296 0.28438 0.04104 0.0
C434 C 0.65859 0.29871 0.0425 0.0
C435 C 0.67283 0.32956 0.06412 0.0
C436 C 0.71408 0.33584 0.06776 0.0
C437 C 0.72803 0.36883 0.08489 0.0
C438 C 0.76944 0.37523 0.08708 0.0
C439 C 0.79622 0.34946 0.07325 0.0
C440 C 0.78258 0.31698 0.05686 0.0
C441 C 0.74202 0.31012 0.05403 0.0
H442 H 0.46528 0.30135 0.98523 0.0
C443 C 0.46847 0.28398 0.9646 0.0
H444 H 0.43871 0.26062 0.92658 0.0
H445 H 0.27949 0.26223 1.00351 0.0
H446 H 0.28682 0.19254 0.9904 0.0
H447 H 0.345 0.1691 0.96168 0.0
H448 H 0.39599 0.21509 0.94567 0.0
C449 C 0.43712 0.28007 0.94616 0.0
C450 C 0.3979 0.29531 0.95651 0.0
C451 C 0.36801 0.268 0.96516 0.0
C452 C 0.33468 0.28138 0.98204 0.0
C453 C 0.30555 0.2535 0.99087 0.0
C454 C 0.30937 0.21346 0.98347 0.0
C455 C 0.34212 0.20027 0.96728 0.0
C456 C 0.37123 0.22704 0.95825 0.0
H457 H 0.26852 0.3667 0.9776 0.0
C458 C 0.26971 0.35843 1.00127 0.0
H459 H 0.30128 0.32681 0.03454 0.0
H460 H 0.445 0.35595 0.93734 0.0
H461 H 0.43833 0.42572 0.95073 0.0
H462 H 0.38351 0.4485 0.98337 0.0
H463 H 0.33473 0.40214 1.00219 0.0
C464 C 0.29908 0.3349 1.01089 0.0
C465 C 0.33135 0.32191 0.99021 0.0
C466 C 0.36013 0.34961 0.98006 0.0
C467 C 0.39281 0.33633 0.96247 0.0
C468 C 0.42045 0.36452 0.95169 0.0
C469 C 0.41683 0.40458 0.95906 0.0
C470 C 0.38589 0.41741 0.97733 0.0
C471 C 0.35786 0.39041 0.98784 0.0
H472 H 0.92956 0.57313 0.42641 0.0
C473 C 0.92747 0.59123 0.44677 0.0
H474 H 0.94051 0.59425 0.4934 0.0
H475 H 0.9431 0.40194 0.4539 0.0
H476 H 0.8716 0.40602 0.45909 0.0
H477 H 0.83905 0.4698 0.47095 0.0
H478 H 0.87802 0.52991 0.47792 0.0
C479 C 0.93891 0.57585 0.47321 0.0
C480 C 0.95836 0.53642 0.47311 0.0
C481 C 0.93534 0.50168 0.46941 0.0
C482 C 0.95414 0.46511 0.46241 0.0
C483 C 0.93036 0.43072 0.45883 0.0
C484 C 0.88929 0.43261 0.46186 0.0
C485 C 0.87096 0.46851 0.46854 0.0
C486 C 0.89358 0.50276 0.47233 0.0
H487 H 0.04563 0.41448 0.48802 0.0
C488 C 0.03735 0.40379 0.4657 0.0
H489 H 0.00441 0.41494 0.42619 0.0
H490 H 0.01105 0.59678 0.4832 0.0
H491 H 0.08266 0.59314 0.4785 0.0
H492 H 0.11541 0.53035 0.46418 0.0
H493 H 0.07688 0.47088 0.4547 0.0
C494 C 0.01438 0.42625 0.44792 0.0
C495 C -0.00405 0.46355 0.45899 0.0
C496 C 0.01919 0.49793 0.46442 0.0
C497 C 0.00029 0.53432 0.47201 0.0
C498 C 0.02394 0.56845 0.47711 0.0
C499 C 0.06505 0.56677 0.47451 0.0
C500 C 0.08348 0.5314 0.4665 0.0
C501 C 0.06098 0.49735 0.46132 0.0
H502 H 0.56983 0.04844 0.61618 0.0
C503 C 0.58954 0.05069 0.59682 0.0
H504 H 0.59643 0.03831 0.55026 0.0
H505 H 0.46891 0.90151 0.57804 0.0
H506 H 0.52923 0.8628 0.5739 0.0
H507 H 0.59382 0.89548 0.56585 0.0
H508 H 0.59841 0.96719 0.56218 0.0
C509 C 0.57645 0.03948 0.56948 0.0
C510 C 0.53715 0.02008 0.56694 0.0
C511 C 0.53479 0.97809 0.56757 0.0
C512 C 0.49748 0.95923 0.57157 0.0
C513 C 0.49627 0.91738 0.57418 0.0
C514 C 0.53075 0.89478 0.572 0.0
C515 C 0.56712 0.91317 0.56752 0.0
C516 C 0.56933 0.95434 0.56546 0.0
H517 H 0.4161 0.9333 0.54126 0.0
C518 C 0.40338 0.94157 0.56294 0.0
H519 H 0.41091 0.97411 0.60337 0.0
H520 H 0.53162 0.10058 0.56214 0.0
H521 H 0.47103 0.13964 0.56369 0.0
H522 H 0.4059 0.10712 0.56939 0.0
H523 H 0.40093 0.03552 0.57374 0.0
C524 C 0.42418 0.96431 0.58226 0.0
C525 C 0.46266 0.98256 0.574 0.0
C526 C 0.46484 0.02442 0.57103 0.0
C527 C 0.50222 0.04319 0.56759 0.0
C528 C 0.50382 0.08501 0.56505 0.0
C529 C 0.46931 0.1077 0.56577 0.0
C530 C 0.43265 0.08938 0.56899 0.0
C531 C 0.43024 0.04826 0.57158 0.0
H532 H 0.50781 0.09251 0.99995 0.0
C533 C 0.53032 0.0943 0.98247 0.0
H534 H 0.56002 0.06627 0.94679 0.0
H535 H 0.43013 0.93927 1.01274 0.0
H536 H 0.46046 0.95522 0.06107 0.0
H537 H 0.517 0.0016 0.06404 0.0
H538 H 0.54176 0.03405 0.01908 0.0
C539 C 0.53724 0.06341 0.96401 0.0
C540 C 0.50956 0.02896 0.96211 0.0
C541 C 0.49872 0.0071 0.98815 0.0
C542 C 0.46935 0.97698 0.98599 0.0
C543 C 0.45475 0.95984 1.0129 0.0
C544 C 0.4716 0.96904 0.04077 0.0
C545 C 0.50322 -0.00464 0.04246 0.0
C546 C 0.51682 0.01417 1.01652 0.0
H547 H 0.47108 0.89277 0.98087 0.0
C548 C 0.44621 0.89267 0.9653 0.0
H549 H 0.40748 0.92555 0.9384 0.0
H550 H 0.51863 0.06835 0.90813 0.0
H551 H 0.49271 0.0483 0.85969 0.0
H552 H 0.45116 0.98848 0.8546 0.0
H553 H 0.43429 0.94928 0.89802 0.0
C554 C 0.43259 0.9267 0.9537 0.0
C555 C 0.45539 0.96446 0.95722 0.0
C556 C 0.46657 0.98595 0.93106 0.0
C557 C 0.49248 0.0191 0.9337 0.0
C558 C 0.50076 0.04174 0.9075 0.0
C559 C 0.48581 0.03076 0.87941 0.0
C560 C 0.46233 -0.00281 0.87657 0.0
C561 C 0.45274 0.97495 0.90192 0.0
H562 H 0.08632 0.4767 0.0513 0.0
C563 C 0.08767 0.45214 0.06705 0.0
H564 H 0.05738 0.41538 0.09718 0.0
H565 H 0.92158 0.53047 0.13657 0.0
H566 H 0.94785 0.50656 0.18368 0.0
H567 H 0.00772 0.46472 0.18481 0.0
H568 H 0.04074 0.44553 0.13879 0.0
C569 C 0.05506 0.44016 0.0817 0.0
C570 C 0.01773 0.46394 0.08073 0.0
C571 C 1e-05 0.47661 0.10823 0.0
C572 C 0.96687 0.5027 0.1077 0.0
C573 C 0.94796 0.51237 0.13542 0.0
C574 C 0.96258 0.49861 0.1628 0.0
C575 C -0.00383 0.47495 0.16342 0.0
C576 C 0.01478 0.46401 0.13661 0.0
H577 H 0.88609 0.51379 0.04664 0.0
C578 C 0.88562 0.53705 0.06371 0.0
H579 H 0.91674 0.56892 0.09676 0.0
H580 H 0.03524 0.43618 0.02392 0.0
H581 H 0.01365 0.46508 0.97656 0.0
H582 H 0.96788 0.52222 0.97622 0.0
H583 H 0.94155 0.54893 0.02307 0.0
C584 C 0.91819 0.54539 0.07992 0.0
C585 C 0.9533 0.51847 0.07985 0.0
C586 C 0.97182 0.50661 0.05247 0.0
C587 C 0.00177 0.47699 0.05282 0.0
C588 C 0.01513 0.46115 0.02495 0.0
C589 C 0.00265 0.47715 0.99764 0.0
C590 C 0.97667 0.5091 0.99744 0.0
C591 C 0.9614 0.52384 0.02448 0.0
loop_
_geom_bond_atom_site_label_1
_geom_bond_atom_site_label_2
_geom_bond_distance
_geom_bond_site_symmetry_2
_ccdc_geom_bond_type
O0 Cd1 2.223 . S
O0 C8 1.315 . S
Cd1 O0 2.223 . S
Cd1 O4 2.297 . S
Cd1 O5 2.439 . S
Cd1 O11 2.240 . S
Cd2 O3 2.240 . S
Cd2 O10 2.223 . S
Cd2 O12 2.297 . S
Cd2 O13 2.439 . S
O3 Cd2 2.240 . S
O3 C8 1.279 . S
O4 Cd1 2.297 . S
O4 C6 1.247 . S
O5 Cd1 2.439 . S
O5 C6 1.208 . S
C6 O4 1.247 . S
C6 O5 1.208 . S
C7 O12 1.247 . S
C7 O13 1.208 . S
C8 O0 1.315 . S
C8 O3 1.279 . S
C9 O10 1.315 . S
C9 O11 1.279 . S
O10 Cd2 2.223 . S
O10 C9 1.315 . S
O11 Cd1 2.240 . S
O11 C9 1.279 . S
O12 Cd2 2.297 . S
O12 C7 1.247 . S
O13 Cd2 2.439 . S
O13 C7 1.208 . S
O14 Cd15 2.223 . S
O14 C22 1.315 . S
Cd15 O14 2.223 . S
Cd15 O18 2.297 . S
Cd15 O19 2.439 . S
Cd15 O25 2.240 . S
Cd16 O17 2.240 . S
Cd16 O24 2.223 . S
Cd16 O26 2.297 . S
Cd16 O27 2.439 . S
O17 Cd16 2.240 . S
O17 C22 1.279 . S
O18 Cd15 2.297 . S
O18 C20 1.247 . S
O19 Cd15 2.439 . S
O19 C20 1.208 . S
C20 O18 1.247 . S
C20 O19 1.208 . S
C21 O26 1.247 . S
C21 O27 1.208 . S
C22 O14 1.315 . S
C22 O17 1.279 . S
C23 O24 1.315 . S
C23 O25 1.279 . S
O24 Cd16 2.223 . S
O24 C23 1.315 . S
O25 Cd15 2.240 . S
O25 C23 1.279 . S
O26 Cd16 2.297 . S
O26 C21 1.247 . S
O27 Cd16 2.439 . S
O27 C21 1.208 . S
O28 Cd29 2.223 . S
O28 C36 1.315 . S
Cd29 O28 2.223 . S
Cd29 O32 2.297 . S
Cd29 O33 2.439 . S
Cd29 O39 2.240 . S
Cd30 O31 2.240 . S
Cd30 O38 2.223 . S
Cd30 O40 2.297 . S
Cd30 O41 2.439 . S
O31 Cd30 2.240 . S
O31 C36 1.279 . S
O32 Cd29 2.297 . S
O32 C34 1.247 . S
O33 Cd29 2.439 . S
O33 C34 1.208 . S
C34 O32 1.247 . S
C34 O33 1.208 . S
C35 O40 1.247 . S
C35 O41 1.208 . S
C36 O28 1.315 . S
C36 O31 1.279 . S
C37 O38 1.315 . S
C37 O39 1.279 . S
O38 Cd30 2.223 . S
O38 C37 1.315 . S
O39 Cd29 2.240 . S
O39 C37 1.279 . S
O40 Cd30 2.297 . S
O40 C35 1.247 . S
O41 Cd30 2.439 . S
O41 C35 1.208 . S
O42 Cd43 2.223 . S
O42 C50 1.315 . S
Cd43 O42 2.223 . S
Cd43 O46 2.297 . S
Cd43 O47 2.439 . S
Cd43 O53 2.240 . S
Cd44 O45 2.240 . S
Cd44 O52 2.223 . S
Cd44 O54 2.297 . S
Cd44 O55 2.439 . S
O45 Cd44 2.240 . S
O45 C50 1.279 . S
O46 Cd43 2.297 . S
O46 C48 1.247 . S
O47 Cd43 2.439 . S
O47 C48 1.208 . S
C48 O46 1.247 . S
C48 O47 1.208 . S
C49 O54 1.247 . S
C49 O55 1.208 . S
C50 O42 1.315 . S
C50 O45 1.279 . S
C51 O52 1.315 . S
C51 O53 1.279 . S
O52 Cd44 2.223 . S
O52 C51 1.315 . S
O53 Cd43 2.240 . S
O53 C51 1.279 . S
O54 Cd44 2.297 . S
O54 C49 1.247 . S
O55 Cd44 2.439 . S
O55 C49 1.208 . S
O56 Cd57 2.223 . S
O56 C64 1.315 . S
Cd57 O56 2.223 . S
Cd57 O60 2.297 . S
Cd57 O61 2.439 . S
Cd57 O67 2.240 . S
Cd58 O59 2.240 . S
Cd58 O66 2.223 . S
Cd58 O68 2.297 . S
Cd58 O69 2.439 . S
O59 Cd58 2.240 . S
O59 C64 1.279 . S
O60 Cd57 2.297 . S
O60 C62 1.247 . S
O61 Cd57 2.439 . S
O61 C62 1.208 . S
C62 O60 1.247 . S
C62 O61 1.208 . S
C63 O68 1.247 . S
C63 O69 1.208 . S
C64 O56 1.315 . S
C64 O59 1.279 . S
C65 O66 1.315 . S
C65 O67 1.279 . S
O66 Cd58 2.223 . S
O66 C65 1.315 . S
O67 Cd57 2.240 . S
O67 C65 1.279 . S
O68 Cd58 2.297 . S
O68 C63 1.247 . S
O69 Cd58 2.439 . S
O69 C63 1.208 . S
O70 Cd71 2.223 . S
O70 C78 1.315 . S
Cd71 O70 2.223 . S
Cd71 O74 2.297 . S
Cd71 O75 2.439 . S
Cd71 O81 2.240 . S
Cd72 O73 2.240 . S
Cd72 O80 2.223 . S
Cd72 O82 2.297 . S
Cd72 O83 2.439 . S
O73 Cd72 2.240 . S
O73 C78 1.279 . S
O74 Cd71 2.297 . S
O74 C76 1.247 . S
O75 Cd71 2.439 . S
O75 C76 1.208 . S
C76 O74 1.247 . S
C76 O75 1.208 . S
C77 O82 1.247 . S
C77 O83 1.208 . S
C78 O70 1.315 . S
C78 O73 1.279 . S
C79 O80 1.315 . S
C79 O81 1.279 . S
O80 Cd72 2.223 . S
O80 C79 1.315 . S
O81 Cd71 2.240 . S
O81 C79 1.279 . S
O82 Cd72 2.297 . S
O82 C77 1.247 . S
O83 Cd72 2.439 . S
O83 C77 1.208 . S
O84 Cd85 2.223 . S
O84 C92 1.315 . S
Cd85 O84 2.223 . S
Cd85 O88 2.297 . S
Cd85 O89 2.439 . S
Cd85 O95 2.240 . S
Cd86 O87 2.240 . S
Cd86 O94 2.223 . S
Cd86 O96 2.297 . S
Cd86 O97 2.439 . S
O87 Cd86 2.240 . S
O87 C92 1.279 . S
O88 Cd85 2.297 . S
O88 C90 1.247 . S
O89 Cd85 2.439 . S
O89 C90 1.208 . S
C90 O88 1.247 . S
C90 O89 1.208 . S
C91 O96 1.247 . S
C91 O97 1.208 . S
C92 O84 1.315 . S
C92 O87 1.279 . S
C93 O94 1.315 . S
C93 O95 1.279 . S
O94 Cd86 2.223 . S
O94 C93 1.315 . S
O95 Cd85 2.240 . S
O95 C93 1.279 . S
O96 Cd86 2.297 . S
O96 C91 1.247 . S
O97 Cd86 2.439 . S
O97 C91 1.208 . S
O98 Cd99 2.223 . S
O98 C106 1.315 . S
Cd99 O98 2.223 . S
Cd99 O102 2.297 . S
Cd99 O103 2.439 . S
Cd99 O109 2.240 . S
Cd100 O101 2.240 . S
Cd100 O108 2.223 . S
Cd100 O110 2.297 . S
Cd100 O111 2.439 . S
O101 Cd100 2.240 . S
O101 C106 1.279 . S
O102 Cd99 2.297 . S
O102 C104 1.247 . S
O103 Cd99 2.439 . S
O103 C104 1.208 . S
C104 O102 1.247 . S
C104 O103 1.208 . S
C105 O110 1.247 . S
C105 O111 1.208 . S
C106 O98 1.315 . S
C106 O101 1.279 . S
C107 O108 1.315 . S
C107 O109 1.279 . S
O108 Cd100 2.223 . S
O108 C107 1.315 . S
O109 Cd99 2.240 . S
O109 C107 1.279 . S
O110 Cd100 2.297 . S
O110 C105 1.247 . S
O111 Cd100 2.439 . S
O111 C105 1.208 . S
H112 C113 0.951 . S
C113 H112 0.951 . S
C113 C119 1.265 . S
H114 C119 0.950 . S
H115 C123 0.949 . S
H116 C124 0.950 . S
H117 C125 0.951 . S
H118 C126 0.951 . S
C119 C113 1.265 . S
C119 H114 0.950 . S
C119 C120 1.478 . S
C120 C119 1.478 . S
C120 C121 1.397 . S
C120 C137 1.394 . S
C121 C120 1.397 . S
C121 C122 1.438 . S
C121 C126 1.429 . S
C122 C121 1.438 . S
C122 C123 1.428 . S
C122 C135 1.394 . S
C123 H115 0.949 . S
C123 C122 1.428 . S
C123 C124 1.345 . S
C124 H116 0.950 . S
C124 C123 1.345 . S
C124 C125 1.424 . S
C125 H117 0.951 . S
C125 C124 1.424 . S
C125 C126 1.347 . S
C126 H118 0.951 . S
C126 C121 1.429 . S
C126 C125 1.347 . S
H127 C128 0.951 . S
C128 H127 0.951 . S
C128 C134 1.265 . S
H129 C134 0.950 . S
H130 C138 0.949 . S
H131 C139 0.950 . S
H132 C140 0.951 . S
H133 C141 0.951 . S
C134 C128 1.265 . S
C134 H129 0.950 . S
C134 C135 1.478 . S
C135 C122 1.394 . S
C135 C134 1.478 . S
C135 C136 1.397 . S
C136 C135 1.397 . S
C136 C137 1.438 . S
C136 C141 1.429 . S
C137 C120 1.394 . S
C137 C136 1.438 . S
C137 C138 1.428 . S
C138 H130 0.949 . S
C138 C137 1.428 . S
C138 C139 1.345 . S
C139 H131 0.950 . S
C139 C138 1.345 . S
C139 C140 1.424 . S
C140 H132 0.951 . S
C140 C139 1.424 . S
C140 C141 1.347 . S
C141 H133 0.951 . S
C141 C136 1.429 . S
C141 C140 1.347 . S
H142 C143 0.951 . S
C143 H142 0.951 . S
C143 C149 1.265 . S
H144 C149 0.950 . S
H145 C153 0.949 . S
H146 C154 0.950 . S
H147 C155 0.951 . S
H148 C156 0.951 . S
C149 C143 1.265 . S
C149 H144 0.950 . S
C149 C150 1.478 . S
C150 C149 1.478 . S
C150 C151 1.397 . S
C150 C167 1.394 . S
C151 C150 1.397 . S
C151 C152 1.438 . S
C151 C156 1.429 . S
C152 C151 1.438 . S
C152 C153 1.428 . S
C152 C165 1.394 . S
C153 H145 0.949 . S
C153 C152 1.428 . S
C153 C154 1.345 . S
C154 H146 0.950 . S
C154 C153 1.345 . S
C154 C155 1.424 . S
C155 H147 0.951 . S
C155 C154 1.424 . S
C155 C156 1.347 . S
C156 H148 0.951 . S
C156 C151 1.429 . S
C156 C155 1.347 . S
H157 C158 0.951 . S
C158 H157 0.951 . S
C158 C164 1.265 . S
H159 C164 0.950 . S
H160 C168 0.949 . S
H161 C169 0.950 . S
H162 C170 0.951 . S
H163 C171 0.951 . S
C164 C158 1.265 . S
C164 H159 0.950 . S
C164 C165 1.478 . S
C165 C152 1.394 . S
C165 C164 1.478 . S
C165 C166 1.397 . S
C166 C165 1.397 . S
C166 C167 1.438 . S
C166 C171 1.429 . S
C167 C150 1.394 . S
C167 C166 1.438 . S
C167 C168 1.428 . S
C168 H160 0.949 . S
C168 C167 1.428 . S
C168 C169 1.345 . S
C169 H161 0.950 . S
C169 C168 1.345 . S
C169 C170 1.424 . S
C170 H162 0.951 . S
C170 C169 1.424 . S
C170 C171 1.347 . S
C171 H163 0.951 . S
C171 C166 1.429 . S
C171 C170 1.347 . S
H172 C173 0.951 . S
C173 H172 0.951 . S
C173 C179 1.265 . S
H174 C179 0.950 . S
H175 C183 0.949 . S
H176 C184 0.950 . S
H177 C185 0.951 . S
H178 C186 0.951 . S
C179 C173 1.265 . S
C179 H174 0.950 . S
C179 C180 1.478 . S
C180 C179 1.478 . S
C180 C181 1.397 . S
C180 C197 1.394 . S
C181 C180 1.397 . S
C181 C182 1.438 . S
C181 C186 1.429 . S
C182 C181 1.438 . S
C182 C183 1.428 . S
C182 C195 1.394 . S
C183 H175 0.949 . S
C183 C182 1.428 . S
C183 C184 1.345 . S
C184 H176 0.950 . S
C184 C183 1.345 . S
C184 C185 1.424 . S
C185 H177 0.951 . S
C185 C184 1.424 . S
C185 C186 1.347 . S
C186 H178 0.951 . S
C186 C181 1.429 . S
C186 C185 1.347 . S
H187 C188 0.951 . S
C188 H187 0.951 . S
C188 C194 1.265 . S
H189 C194 0.950 . S
H190 C198 0.949 . S
H191 C199 0.950 . S
H192 C200 0.951 . S
H193 C201 0.951 . S
C194 C188 1.265 . S
C194 H189 0.950 . S
C194 C195 1.478 . S
C195 C182 1.394 . S
C195 C194 1.478 . S
C195 C196 1.397 . S
C196 C195 1.397 . S
C196 C197 1.438 . S
C196 C201 1.429 . S
C197 C180 1.394 . S
C197 C196 1.438 . S
C197 C198 1.428 . S
C198 H190 0.949 . S
C198 C197 1.428 . S
C198 C199 1.345 . S
C199 H191 0.950 . S
C199 C198 1.345 . S
C199 C200 1.424 . S
C200 H192 0.951 . S
C200 C199 1.424 . S
C200 C201 1.347 . S
C201 H193 0.951 . S
C201 C196 1.429 . S
C201 C200 1.347 . S
H202 C203 0.951 . S
C203 H202 0.951 . S
C203 C209 1.265 . S
H204 C209 0.950 . S
H205 C213 0.949 . S
H206 C214 0.950 . S
H207 C215 0.951 . S
H208 C216 0.951 . S
C209 C203 1.265 . S
C209 H204 0.950 . S
C209 C210 1.478 . S
C210 C209 1.478 . S
C210 C211 1.397 . S
C210 C227 1.394 . S
C211 C210 1.397 . S
C211 C212 1.438 . S
C211 C216 1.429 . S
C212 C211 1.438 . S
C212 C213 1.428 . S
C212 C225 1.394 . S
C213 H205 0.949 . S
C213 C212 1.428 . S
C213 C214 1.345 . S
C214 H206 0.950 . S
C214 C213 1.345 . S
C214 C215 1.424 . S
C215 H207 0.951 . S
C215 C214 1.424 . S
C215 C216 1.347 . S
C216 H208 0.951 . S
C216 C211 1.429 . S
C216 C215 1.347 . S
H217 C218 0.951 . S
C218 H217 0.951 . S
C218 C224 1.265 . S
H219 C224 0.950 . S
H220 C228 0.949 . S
H221 C229 0.950 . S
H222 C230 0.951 . S
H223 C231 0.951 . S
C224 C218 1.265 . S
C224 H219 0.950 . S
C224 C225 1.478 . S
C225 C212 1.394 . S
C225 C224 1.478 . S
C225 C226 1.397 . S
C226 C225 1.397 . S
C226 C227 1.438 . S
C226 C231 1.429 . S
C227 C210 1.394 . S
C227 C226 1.438 . S
C227 C228 1.428 . S
C228 H220 0.949 . S
C228 C227 1.428 . S
C228 C229 1.345 . S
C229 H221 0.950 . S
C229 C228 1.345 . S
C229 C230 1.424 . S
C230 H222 0.951 . S
C230 C229 1.424 . S
C230 C231 1.347 . S
C231 H223 0.951 . S
C231 C226 1.429 . S
C231 C230 1.347 . S
H232 C233 0.951 . S
C233 H232 0.951 . S
C233 C239 1.265 1_565 S
H234 C239 0.950 . S
H235 C243 0.949 . S
H236 C244 0.950 . S
H237 C245 0.951 . S
H238 C246 0.951 . S
C239 C233 1.265 1_545 S
C239 H234 0.950 . S
C239 C240 1.478 . S
C240 C239 1.478 . S
C240 C241 1.397 . S
C240 C257 1.394 . S
C241 C240 1.397 . S
C241 C242 1.438 . S
C241 C246 1.429 . S
C242 C241 1.438 . S
C242 C243 1.428 . S
C242 C255 1.394 . S
C243 H235 0.949 . S
C243 C242 1.428 . S
C243 C244 1.345 . S
C244 H236 0.950 . S
C244 C243 1.345 . S
C244 C245 1.424 . S
C245 H237 0.951 . S
C245 C244 1.424 . S
C245 C246 1.347 . S
C246 H238 0.951 . S
C246 C241 1.429 . S
C246 C245 1.347 . S
H247 C248 0.951 . S
C248 H247 0.951 . S
C248 C254 1.265 . S
H249 C254 0.950 . S
H250 C258 0.949 . S
H251 C259 0.950 . S
H252 C260 0.951 . S
H253 C261 0.951 . S
C254 C248 1.265 . S
C254 H249 0.950 . S
C254 C255 1.478 . S
C255 C242 1.394 . S
C255 C254 1.478 . S
C255 C256 1.397 . S
C256 C255 1.397 . S
C256 C257 1.438 . S
C256 C261 1.429 . S
C257 C240 1.394 . S
C257 C256 1.438 . S
C257 C258 1.428 . S
C258 H250 0.949 . S
C258 C257 1.428 . S
C258 C259 1.345 . S
C259 H251 0.950 . S
C259 C258 1.345 . S
C259 C260 1.424 . S
C260 H252 0.951 . S
C260 C259 1.424 . S
C260 C261 1.347 . S
C261 H253 0.951 . S
C261 C256 1.429 . S
C261 C260 1.347 . S
H262 C263 0.951 . S
C263 H262 0.951 . S
C263 C269 1.265 . S
H264 C269 0.950 . S
H265 C273 0.949 . S
H266 C274 0.950 . S
H267 C275 0.951 . S
H268 C276 0.951 . S
C269 C263 1.265 . S
C269 H264 0.950 . S
C269 C270 1.478 . S
C270 C269 1.478 . S
C270 C271 1.397 . S
C270 C287 1.394 . S
C271 C270 1.397 . S
C271 C272 1.438 . S
C271 C276 1.429 . S
C272 C271 1.438 . S
C272 C273 1.428 . S
C272 C285 1.394 . S
C273 H265 0.949 . S
C273 C272 1.428 . S
C273 C274 1.345 . S
C274 H266 0.950 . S
C274 C273 1.345 . S
C274 C275 1.424 . S
C275 H267 0.951 . S
C275 C274 1.424 . S
C275 C276 1.347 . S
C276 H268 0.951 . S
C276 C271 1.429 . S
C276 C275 1.347 . S
H277 C278 0.951 . S
C278 H277 0.951 . S
C278 C284 1.265 1_655 S
H279 C284 0.950 . S
H280 C288 0.949 . S
H281 C289 0.950 . S
H282 C290 0.951 . S
H283 C291 0.951 . S
C284 C278 1.265 1_455 S
C284 H279 0.950 . S
C284 C285 1.478 . S
C285 C272 1.394 . S
C285 C284 1.478 . S
C285 C286 1.397 . S
C286 C285 1.397 . S
C286 C287 1.438 . S
C286 C291 1.429 . S
C287 C270 1.394 . S
C287 C286 1.438 . S
C287 C288 1.428 . S
C288 H280 0.949 . S
C288 C287 1.428 . S
C288 C289 1.345 . S
C289 H281 0.950 . S
C289 C288 1.345 . S
C289 C290 1.424 . S
C290 H282 0.951 . S
C290 C289 1.424 . S
C290 C291 1.347 . S
C291 H283 0.951 . S
C291 C286 1.429 . S
C291 C290 1.347 . S
H292 C293 0.951 1_565 S
C293 H292 0.951 1_545 S
C293 C299 1.265 1_545 S
H294 C299 0.951 . S
H295 C303 0.949 . S
H296 C304 0.950 . S
H297 C305 0.951 . S
H298 C306 0.951 . S
C299 C293 1.265 1_565 S
C299 H294 0.951 . S
C299 C300 1.478 . S
C300 C299 1.478 . S
C300 C301 1.397 . S
C300 C317 1.394 . S
C301 C300 1.397 . S
C301 C302 1.438 . S
C301 C306 1.429 . S
C302 C301 1.438 . S
C302 C303 1.428 . S
C302 C315 1.394 . S
C303 H295 0.949 . S
C303 C302 1.428 . S
C303 C304 1.345 . S
C304 H296 0.950 . S
C304 C303 1.345 . S
C304 C305 1.424 . S
C305 H297 0.951 . S
C305 C304 1.424 . S
C305 C306 1.347 . S
C306 H298 0.951 . S
C306 C301 1.429 . S
C306 C305 1.347 . S
H307 C308 0.951 . S
C308 H307 0.951 . S
C308 C314 1.265 . S
H309 C314 0.950 . S
H310 C318 0.949 . S
H311 C319 0.950 . S
H312 C320 0.951 . S
H313 C321 0.951 . S
C314 C308 1.265 . S
C314 H309 0.950 . S
C314 C315 1.478 . S
C315 C302 1.394 . S
C315 C314 1.478 . S
C315 C316 1.397 . S
C316 C315 1.397 . S
C316 C317 1.438 . S
C316 C321 1.429 . S
C317 C300 1.394 . S
C317 C316 1.438 . S
C317 C318 1.428 . S
C318 H310 0.949 . S
C318 C317 1.428 . S
C318 C319 1.345 . S
C319 H311 0.950 . S
C319 C318 1.345 . S
C319 C320 1.424 . S
C320 H312 0.951 . S
C320 C319 1.424 . S
C320 C321 1.347 . S
C321 H313 0.951 . S
C321 C316 1.429 . S
C321 C320 1.347 . S
H322 C323 0.951 . S
C323 H322 0.951 . S
C323 C329 1.265 . S
H324 C329 0.950 . S
H325 C333 0.949 . S
H326 C334 0.950 . S
H327 C335 0.951 . S
H328 C336 0.951 . S
C329 C323 1.265 . S
C329 H324 0.950 . S
C329 C330 1.478 . S
C330 C329 1.478 . S
C330 C331 1.397 . S
C330 C347 1.394 . S
C331 C330 1.397 . S
C331 C332 1.438 . S
C331 C336 1.429 . S
C332 C331 1.438 . S
C332 C333 1.428 . S
C332 C345 1.394 . S
C333 H325 0.949 . S
C333 C332 1.428 . S
C333 C334 1.345 . S
C334 H326 0.950 . S
C334 C333 1.345 . S
C334 C335 1.424 . S
C335 H327 0.951 . S
C335 C334 1.424 . S
C335 C336 1.347 . S
C336 H328 0.951 . S
C336 C331 1.429 . S
C336 C335 1.347 . S
H337 C338 0.951 1_655 S
C338 H337 0.951 1_455 S
C338 C344 1.265 1_455 S
H339 C344 0.950 1_455 S
H340 C348 0.949 . S
H341 C349 0.950 . S
H342 C350 0.951 . S
H343 C351 0.951 . S
C344 C338 1.265 1_655 S
C344 H339 0.950 1_655 S
C344 C345 1.478 . S
C345 C332 1.394 . S
C345 C344 1.478 . S
C345 C346 1.397 . S
C346 C345 1.397 . S
C346 C347 1.438 . S
C346 C351 1.429 . S
C347 C330 1.394 . S
C347 C346 1.438 . S
C347 C348 1.428 . S
C348 H340 0.949 . S
C348 C347 1.428 . S
C348 C349 1.345 . S
C349 H341 0.950 . S
C349 C348 1.345 . S
C349 C350 1.424 . S
C350 H342 0.951 . S
C350 C349 1.424 . S
C350 C351 1.347 . S
C351 H343 0.951 . S
C351 C346 1.429 . S
C351 C350 1.347 . S
H352 C353 0.951 . S
C353 H352 0.951 . S
C353 C359 1.265 . S
H354 C359 0.950 . S
H355 C363 0.949 . S
H356 C364 0.950 . S
H357 C365 0.951 . S
H358 C366 0.951 . S
C359 C353 1.265 . S
C359 H354 0.950 . S
C359 C360 1.478 . S
C360 C359 1.478 . S
C360 C361 1.397 . S
C360 C377 1.394 1_554 S
C361 C360 1.397 . S
C361 C362 1.438 . S
C361 C366 1.429 . S
C362 C361 1.438 . S
C362 C363 1.428 . S
C362 C375 1.394 1_554 S
C363 H355 0.949 . S
C363 C362 1.428 . S
C363 C364 1.345 . S
C364 H356 0.950 . S
C364 C363 1.345 . S
C364 C365 1.424 . S
C365 H357 0.951 . S
C365 C364 1.424 . S
C365 C366 1.347 . S
C366 H358 0.951 . S
C366 C361 1.429 . S
C366 C365 1.347 . S
H367 C368 0.951 . S
C368 H367 0.951 . S
C368 C374 1.265 . S
H369 C374 0.950 . S
H370 C378 0.949 . S
H371 C379 0.950 . S
H372 C380 0.951 . S
H373 C381 0.951 . S
C374 C368 1.265 . S
C374 H369 0.950 . S
C374 C375 1.478 . S
C375 C362 1.394 1_556 S
C375 C374 1.478 . S
C375 C376 1.397 . S
C376 C375 1.397 . S
C376 C377 1.438 . S
C376 C381 1.429 . S
C377 C360 1.394 1_556 S
C377 C376 1.438 . S
C377 C378 1.428 . S
C378 H370 0.949 . S
C378 C377 1.428 . S
C378 C379 1.345 . S
C379 H371 0.950 . S
C379 C378 1.345 . S
C379 C380 1.424 . S
C380 H372 0.951 . S
C380 C379 1.424 . S
C380 C381 1.347 . S
C381 H373 0.951 . S
C381 C376 1.429 . S
C381 C380 1.347 . S
H382 C383 0.951 . S
C383 H382 0.951 . S
C383 C389 1.265 . S
H384 C389 0.950 1_556 S
H385 C393 0.949 . S
H386 C394 0.950 . S
H387 C395 0.951 . S
H388 C396 0.951 . S
C389 C383 1.265 . S
C389 H384 0.950 1_554 S
C389 C390 1.479 . S
C390 C389 1.479 . S
C390 C391 1.391 1_554 S
C390 C407 1.399 . S
C391 C390 1.391 1_556 S
C391 C392 1.438 . S
C391 C396 1.429 . S
C392 C391 1.438 . S
C392 C393 1.428 . S
C392 C405 1.394 . S
C393 H385 0.949 . S
C393 C392 1.428 . S
C393 C394 1.345 . S
C394 H386 0.950 . S
C394 C393 1.345 . S
C394 C395 1.424 . S
C395 H387 0.951 . S
C395 C394 1.424 . S
C395 C396 1.347 . S
C396 H388 0.951 . S
C396 C391 1.429 . S
C396 C395 1.347 . S
H397 C398 0.951 . S
C398 H397 0.951 . S
C398 C404 1.265 . S
H399 C404 0.950 . S
H400 C408 0.949 . S
H401 C409 0.950 . S
H402 C410 0.951 . S
H403 C411 0.951 . S
C404 C398 1.265 . S
C404 H399 0.950 . S
C404 C405 1.478 . S
C405 C392 1.394 . S
C405 C404 1.478 . S
C405 C406 1.397 1_556 S
C406 C405 1.397 1_554 S
C406 C407 1.438 . S
C406 C411 1.429 . S
C407 C390 1.399 . S
C407 C406 1.438 . S
C407 C408 1.428 . S
C408 H400 0.949 . S
C408 C407 1.428 . S
C408 C409 1.345 . S
C409 H401 0.950 . S
C409 C408 1.345 . S
C409 C410 1.424 . S
C410 H402 0.951 . S
C410 C409 1.424 . S
C410 C411 1.347 . S
C411 H403 0.951 . S
C411 C406 1.429 . S
C411 C410 1.347 . S
H412 C413 0.951 . S
C413 H412 0.951 . S
C413 C419 1.265 . S
H414 C419 0.950 . S
H415 C423 0.949 . S
H416 C424 0.950 . S
H417 C425 0.951 . S
H418 C426 0.951 . S
C419 C413 1.265 . S
C419 H414 0.950 . S
C419 C420 1.478 . S
C420 C419 1.478 . S
C420 C421 1.397 . S
C420 C437 1.394 1_554 S
C421 C420 1.397 . S
C421 C422 1.438 . S
C421 C426 1.429 . S
C422 C421 1.438 . S
C422 C423 1.428 . S
C422 C435 1.394 1_554 S
C423 H415 0.949 . S
C423 C422 1.428 . S
C423 C424 1.345 . S
C424 H416 0.950 . S
C424 C423 1.345 . S
C424 C425 1.424 . S
C425 H417 0.951 . S
C425 C424 1.424 . S
C425 C426 1.347 . S
C426 H418 0.951 . S
C426 C421 1.429 . S
C426 C425 1.347 . S
H427 C428 0.980 . S
C428 H427 0.980 . S
C428 C434 1.265 . S
H429 C434 0.950 . S
H430 C438 0.949 . S
H431 C439 0.950 . S
H432 C440 0.951 . S
H433 C441 0.951 . S
C434 C428 1.265 . S
C434 H429 0.950 . S
C434 C435 1.478 . S
C435 C422 1.394 1_556 S
C435 C434 1.478 . S
C435 C436 1.397 . S
C436 C435 1.397 . S
C436 C437 1.438 . S
C436 C441 1.429 . S
C437 C420 1.394 1_556 S
C437 C436 1.438 . S
C437 C438 1.428 . S
C438 H430 0.949 . S
C438 C437 1.428 . S
C438 C439 1.345 . S
C439 H431 0.950 . S
C439 C438 1.345 . S
C439 C440 1.424 . S
C440 H432 0.951 . S
C440 C439 1.424 . S
C440 C441 1.347 . S
C441 H433 0.951 . S
C441 C436 1.429 . S
C441 C440 1.347 . S
H442 C443 0.951 . S
C443 H442 0.951 . S
C443 C449 1.265 . S
H444 C449 0.950 . S
H445 C453 0.949 . S
H446 C454 0.950 . S
H447 C455 0.951 . S
H448 C456 0.951 . S
C449 C443 1.265 . S
C449 H444 0.950 . S
C449 C450 1.478 . S
C450 C449 1.478 . S
C450 C451 1.397 1_556 S
C450 C467 1.394 . S
C451 C450 1.397 1_554 S
C451 C452 1.438 . S
C451 C456 1.429 . S
C452 C451 1.438 . S
C452 C453 1.428 . S
C452 C465 1.394 . S
C453 H445 0.949 . S
C453 C452 1.428 . S
C453 C454 1.345 . S
C454 H446 0.950 . S
C454 C453 1.345 . S
C454 C455 1.424 . S
C455 H447 0.951 . S
C455 C454 1.424 . S
C455 C456 1.347 . S
C456 H448 0.951 . S
C456 C451 1.429 . S
C456 C455 1.347 . S
H457 C458 0.951 . S
C458 H457 0.951 . S
C458 C464 1.265 . S
H459 C464 0.950 . S
H460 C468 0.949 . S
H461 C469 0.950 . S
H462 C470 0.951 . S
H463 C471 0.951 . S
C464 C458 1.265 . S
C464 H459 0.950 . S
C464 C465 1.478 . S
C465 C452 1.394 . S
C465 C464 1.478 . S
C465 C466 1.397 1_554 S
C466 C465 1.397 1_556 S
C466 C467 1.438 . S
C466 C471 1.429 . S
C467 C450 1.394 . S
C467 C466 1.438 . S
C467 C468 1.428 . S
C468 H460 0.949 . S
C468 C467 1.428 . S
C468 C469 1.345 . S
C469 H461 0.950 . S
C469 C468 1.345 . S
C469 C470 1.424 . S
C470 H462 0.951 . S
C470 C469 1.424 . S
C470 C471 1.347 . S
C471 H463 0.951 . S
C471 C466 1.429 . S
C471 C470 1.347 . S
H472 C473 0.951 . S
C473 H472 0.951 . S
C473 C479 1.265 . S
H474 C479 0.950 . S
H475 C483 0.949 . S
H476 C484 0.950 . S
H477 C485 0.951 . S
H478 C486 0.951 . S
C479 C473 1.265 . S
C479 H474 0.950 . S
C479 C480 1.478 . S
C480 C479 1.478 . S
C480 C481 1.397 . S
C480 C497 1.394 . S
C481 C480 1.397 . S
C481 C482 1.438 1_655 S
C481 C486 1.429 . S
C482 C481 1.438 1_455 S
C482 C483 1.428 . S
C482 C495 1.394 . S
C483 H475 0.949 . S
C483 C482 1.428 . S
C483 C484 1.345 1_455 S
C484 H476 0.950 . S
C484 C483 1.345 1_655 S
C484 C485 1.424 . S
C485 H477 0.951 . S
C485 C484 1.424 . S
C485 C486 1.347 . S
C486 H478 0.951 . S
C486 C481 1.429 . S
C486 C485 1.347 . S
H487 C488 0.951 . S
C488 H487 0.951 . S
C488 C494 1.265 . S
H489 C494 0.950 . S
H490 C498 0.949 . S
H491 C499 0.950 . S
H492 C500 0.951 . S
H493 C501 0.951 . S
C494 C488 1.265 . S
C494 H489 0.950 . S
C494 C495 1.478 . S
C495 C482 1.394 . S
C495 C494 1.478 . S
C495 C496 1.397 . S
C496 C495 1.397 . S
C496 C497 1.438 1_455 S
C496 C501 1.429 . S
C497 C480 1.394 . S
C497 C496 1.438 1_655 S
C497 C498 1.428 . S
C498 H490 0.949 . S
C498 C497 1.428 . S
C498 C499 1.345 1_655 S
C499 H491 0.950 . S
C499 C498 1.345 1_455 S
C499 C500 1.424 . S
C500 H492 0.951 . S
C500 C499 1.424 . S
C500 C501 1.347 . S
C501 H493 0.951 . S
C501 C496 1.429 . S
C501 C500 1.347 . S
H502 C503 0.951 . S
C503 H502 0.951 . S
C503 C509 1.265 . S
H504 C509 0.950 . S
H505 C513 0.949 . S
H506 C514 0.950 . S
H507 C515 0.951 . S
H508 C516 0.951 1_545 S
C509 C503 1.265 . S
C509 H504 0.950 . S
C509 C510 1.478 . S
C510 C509 1.478 . S
C510 C511 1.397 1_545 S
C510 C527 1.394 . S
C511 C510 1.397 1_565 S
C511 C512 1.438 . S
C511 C516 1.429 . S
C512 C511 1.438 . S
C512 C513 1.428 . S
C512 C525 1.394 . S
C513 H505 0.949 . S
C513 C512 1.428 . S
C513 C514 1.345 . S
C514 H506 0.950 . S
C514 C513 1.345 . S
C514 C515 1.424 . S
C515 H507 0.951 . S
C515 C514 1.424 . S
C515 C516 1.347 . S
C516 H508 0.951 1_565 S
C516 C511 1.429 . S
C516 C515 1.347 . S
H517 C518 0.951 . S
C518 H517 0.951 . S
C518 C524 1.265 . S
H519 C524 0.950 . S
H520 C528 0.949 . S
H521 C529 0.950 . S
H522 C530 0.951 . S
H523 C531 0.951 1_565 S
C524 C518 1.265 . S
C524 H519 0.950 . S
C524 C525 1.478 . S
C525 C512 1.394 . S
C525 C524 1.478 . S
C525 C526 1.397 1_565 S
C526 C525 1.397 1_545 S
C526 C527 1.438 . S
C526 C531 1.429 . S
C527 C510 1.394 . S
C527 C526 1.438 . S
C527 C528 1.428 . S
C528 H520 0.949 . S
C528 C527 1.428 . S
C528 C529 1.345 . S
C529 H521 0.950 . S
C529 C528 1.345 . S
C529 C530 1.424 . S
C530 H522 0.951 . S
C530 C529 1.424 . S
C530 C531 1.347 . S
C531 H523 0.951 1_545 S
C531 C526 1.429 . S
C531 C530 1.347 . S
H532 C533 0.951 . S
C533 H532 0.951 . S
C533 C539 1.265 . S
H534 C539 0.950 . S
H535 C543 0.949 . S
H536 C544 0.950 . S
H537 C545 0.951 . S
H538 C546 0.950 1_554 S
C539 C533 1.265 . S
C539 H534 0.950 . S
C539 C540 1.478 . S
C540 C539 1.478 . S
C540 C541 1.397 . S
C540 C557 1.394 . S
C541 C540 1.397 . S
C541 C542 1.438 1_545 S
C541 C546 1.458 . S
C542 C541 1.438 1_565 S
C542 C543 1.428 . S
C542 C555 1.394 . S
C543 H535 0.949 . S
C543 C542 1.428 . S
C543 C544 1.345 1_556 S
C544 H536 0.950 . S
C544 C543 1.345 1_554 S
C544 C545 1.424 . S
C545 H537 0.951 . S
C545 C544 1.424 . S
C545 C546 1.320 1_564 S
C546 H538 0.950 1_556 S
C546 C541 1.458 . S
C546 C545 1.320 1_546 S
H547 C548 0.951 . S
C548 H547 0.951 . S
C548 C554 1.265 . S
H549 C554 0.950 . S
H550 C558 0.949 . S
H551 C559 0.950 . S
H552 C560 0.951 . S
H553 C561 0.951 . S
C554 C548 1.265 . S
C554 H549 0.950 . S
C554 C555 1.478 . S
C555 C542 1.394 . S
C555 C554 1.478 . S
C555 C556 1.397 . S
C556 C555 1.397 . S
C556 C557 1.438 1_565 S
C556 C561 1.429 . S
C557 C540 1.394 . S
C557 C556 1.438 1_545 S
C557 C558 1.428 . S
C558 H550 0.949 . S
C558 C557 1.428 . S
C558 C559 1.345 . S
C559 H551 0.950 . S
C559 C558 1.345 . S
C559 C560 1.424 . S
C560 H552 0.951 . S
C560 C559 1.424 . S
C560 C561 1.347 1_545 S
C561 H553 0.951 . S
C561 C556 1.429 . S
C561 C560 1.347 1_565 S
H562 C563 0.951 . S
C563 H562 0.951 . S
C563 C569 1.265 . S
H564 C569 0.950 . S
H565 C573 0.949 . S
H566 C574 0.950 . S
H567 C575 0.951 . S
H568 C576 0.951 . S
C569 C563 1.265 . S
C569 H564 0.950 . S
C569 C570 1.478 . S
C570 C569 1.478 . S
C570 C571 1.397 . S
C570 C587 1.394 . S
C571 C570 1.397 . S
C571 C572 1.438 1_455 S
C571 C576 1.429 . S
C572 C571 1.438 1_655 S
C572 C573 1.428 . S
C572 C585 1.394 . S
C573 H565 0.949 . S
C573 C572 1.428 . S
C573 C574 1.345 . S
C574 H566 0.950 . S
C574 C573 1.345 . S
C574 C575 1.424 . S
C575 H567 0.951 . S
C575 C574 1.424 . S
C575 C576 1.347 1_655 S
C576 H568 0.951 . S
C576 C571 1.429 . S
C576 C575 1.347 1_455 S
H577 C578 0.951 . S
C578 H577 0.951 . S
C578 C584 1.265 . S
H579 C584 0.950 . S
H580 C588 0.949 . S
H581 C589 0.950 . S
H582 C590 0.951 . S
H583 C591 0.951 . S
C584 C578 1.265 . S
C584 H579 0.950 . S
C584 C585 1.478 . S
C585 C572 1.394 . S
C585 C584 1.478 . S
C585 C586 1.397 . S
C586 C585 1.397 . S
C586 C587 1.438 1_655 S
C586 C591 1.429 1_554 S
C587 C570 1.394 . S
C587 C586 1.438 1_455 S
C587 C588 1.428 . S
C588 H580 0.949 . S
C588 C587 1.428 . S
C588 C589 1.345 1_554 S
C589 H581 0.950 . S
C589 C588 1.345 1_556 S
C589 C590 1.424 . S
C590 H582 0.951 . S
C590 C589 1.424 . S
C590 C591 1.347 1_455 S
C591 H583 0.951 . S
C591 C586 1.429 1_556 S
C591 C590 1.347 1_655 S
C113 C105 1.541 . S
C128 C7 1.506 . S
C143 C21 1.555 . S
C158 C63 1.598 . S
C173 C35 1.506 . S
C188 C77 1.544 . S
C203 C91 1.507 . S
C218 C49 1.550 . S
C233 C22 1.470 . S
C248 C6 1.489 . S
C263 C20 1.486 . S
C278 C36 1.469 . S
C293 C50 1.491 . S
C308 C34 1.451 . S
C323 C48 1.457 . S
C338 C8 1.496 . S
C353 C106 1.473 . S
C368 C62 1.493 . S
C383 C76 1.467 . S
C398 C64 1.500 . S
C413 C78 1.465 . S
C428 C90 1.475 . S
C443 C92 1.466 . S
C458 C104 1.479 . S
C473 C37 1.217 . S
C488 C9 1.214 . S
C503 C51 1.297 . S
C518 C23 1.292 . S
C533 C93 1.212 . S
C548 C65 1.219 . S
C563 C107 1.225 . S
C578 C79 1.207 . S
