# Generated by pormake.
# Topology zfg, (5)-cn, num edge types: 1
# Building blocks:
#     Node 0, Type 0, BuildingBlock: XOMCOT_clean_sbu_0, # of connection points: 5
#     Node 1, Type 0, BuildingBlock: XOMCOT_clean_sbu_0, # of connection points: 5
#     Node 2, Type 0, BuildingBlock: XOMCOT_clean_sbu_0, # of connection points: 5
#     Node 3, Type 0, BuildingBlock: XOMCOT_clean_sbu_0, # of connection points: 5
#     Node 4, Type 0, BuildingBlock: XOMCOT_clean_sbu_0, # of connection points: 5
#     Node 5, Type 0, BuildingBlock: XOMCOT_clean_sbu_0, # of connection points: 5
#     Node 6, Type 0, BuildingBlock: XOMCOT_clean_sbu_0, # of connection points: 5
#     Node 7, Type 0, BuildingBlock: XOMCOT_clean_sbu_0, # of connection points: 5
#     Node 8, Type 0, BuildingBlock: XOMCOT_clean_sbu_0, # of connection points: 5
#     Node 9, Type 0, BuildingBlock: XOMCOT_clean_sbu_0, # of connection points: 5
#     Node 10, Type 0, BuildingBlock: XOMCOT_clean_sbu_0, # of connection points: 5
#     Node 11, Type 0, BuildingBlock: XOMCOT_clean_sbu_0, # of connection points: 5
#     Node 12, Type 0, BuildingBlock: XOMCOT_clean_sbu_0, # of connection points: 5
#     Node 13, Type 0, BuildingBlock: XOMCOT_clean_sbu_0, # of connection points: 5
#     Node 14, Type 0, BuildingBlock: XOMCOT_clean_sbu_0, # of connection points: 5
#     Node 15, Type 0, BuildingBlock: XOMCOT_clean_sbu_0, # of connection points: 5
#     Edge 16, Type (0, 0), BuildingBlock: CIFDUS_clean_linker_0, # of connection points: 2
#     Edge 17, Type (0, 0), BuildingBlock: CIFDUS_clean_linker_0, # of connection points: 2
#     Edge 18, Type (0, 0), BuildingBlock: CIFDUS_clean_linker_0, # of connection points: 2
#     Edge 19, Type (0, 0), BuildingBlock: CIFDUS_clean_linker_0, # of connection points: 2
#     Edge 20, Type (0, 0), BuildingBlock: CIFDUS_clean_linker_0, # of connection points: 2
#     Edge 21, Type (0, 0), BuildingBlock: CIFDUS_clean_linker_0, # of connection points: 2
#     Edge 22, Type (0, 0), BuildingBlock: CIFDUS_clean_linker_0, # of connection points: 2
#     Edge 23, Type (0, 0), BuildingBlock: CIFDUS_clean_linker_0, # of connection points: 2
#     Edge 24, Type (0, 0), BuildingBlock: CIFDUS_clean_linker_0, # of connection points: 2
#     Edge 25, Type (0, 0), BuildingBlock: CIFDUS_clean_linker_0, # of connection points: 2
#     Edge 26, Type (0, 0), BuildingBlock: CIFDUS_clean_linker_0, # of connection points: 2
#     Edge 27, Type (0, 0), BuildingBlock: CIFDUS_clean_linker_0, # of connection points: 2
#     Edge 28, Type (0, 0), BuildingBlock: CIFDUS_clean_linker_0, # of connection points: 2
#     Edge 29, Type (0, 0), BuildingBlock: CIFDUS_clean_linker_0, # of connection points: 2
#     Edge 30, Type (0, 0), BuildingBlock: CIFDUS_clean_linker_0, # of connection points: 2
#     Edge 31, Type (0, 0), BuildingBlock: CIFDUS_clean_linker_0, # of connection points: 2
#     Edge 32, Type (0, 0), BuildingBlock: CIFDUS_clean_linker_0, # of connection points: 2
#     Edge 33, Type (0, 0), BuildingBlock: CIFDUS_clean_linker_0, # of connection points: 2
#     Edge 34, Type (0, 0), BuildingBlock: CIFDUS_clean_linker_0, # of connection points: 2
#     Edge 35, Type (0, 0), BuildingBlock: CIFDUS_clean_linker_0, # of connection points: 2
#     Edge 36, Type (0, 0), BuildingBlock: CIFDUS_clean_linker_0, # of connection points: 2
#     Edge 37, Type (0, 0), BuildingBlock: CIFDUS_clean_linker_0, # of connection points: 2
#     Edge 38, Type (0, 0), BuildingBlock: CIFDUS_clean_linker_0, # of connection points: 2
#     Edge 39, Type (0, 0), BuildingBlock: CIFDUS_clean_linker_0, # of connection points: 2
#     Edge 40, Type (0, 0), BuildingBlock: CIFDUS_clean_linker_0, # of connection points: 2
#     Edge 41, Type (0, 0), BuildingBlock: CIFDUS_clean_linker_0, # of connection points: 2
#     Edge 42, Type (0, 0), BuildingBlock: CIFDUS_clean_linker_0, # of connection points: 2
#     Edge 43, Type (0, 0), BuildingBlock: CIFDUS_clean_linker_0, # of connection points: 2
#     Edge 44, Type (0, 0), BuildingBlock: CIFDUS_clean_linker_0, # of connection points: 2
#     Edge 45, Type (0, 0), BuildingBlock: CIFDUS_clean_linker_0, # of connection points: 2
#     Edge 46, Type (0, 0), BuildingBlock: CIFDUS_clean_linker_0, # of connection points: 2
#     Edge 47, Type (0, 0), BuildingBlock: CIFDUS_clean_linker_0, # of connection points: 2
#     Edge 48, Type (0, 0), BuildingBlock: CIFDUS_clean_linker_0, # of connection points: 2
#     Edge 49, Type (0, 0), BuildingBlock: CIFDUS_clean_linker_0, # of connection points: 2
#     Edge 50, Type (0, 0), BuildingBlock: CIFDUS_clean_linker_0, # of connection points: 2
#     Edge 51, Type (0, 0), BuildingBlock: CIFDUS_clean_linker_0, # of connection points: 2
#     Edge 52, Type (0, 0), BuildingBlock: CIFDUS_clean_linker_0, # of connection points: 2
#     Edge 53, Type (0, 0), BuildingBlock: CIFDUS_clean_linker_0, # of connection points: 2
#     Edge 54, Type (0, 0), BuildingBlock: CIFDUS_clean_linker_0, # of connection points: 2
#     Edge 55, Type (0, 0), BuildingBlock: CIFDUS_clean_linker_0, # of connection points: 2
# Relax obj value: 0.147
# Max RMSD: 0.176
# Mean RMSD: 0.176
data_MOF--net-zfg--node1-XOMCOT_clean_sbu_0--edge1-CIFDUS_clean_linker_0
_symmetry_space_group_name_H-M    P1
_symmetry_Int_Tables_number       1
_symmetry_cell_setting            triclinic
loop_
_symmetry_equiv_pos_as_xyz
'x, y, z'
_cell_length_a     37.377719
_cell_length_b     37.388538
_cell_length_c     46.540253
_cell_angle_alpha  89.729999
_cell_angle_beta   89.929523
_cell_angle_gamma 90.117362
loop_
_atom_site_label
_atom_site_type_symbol
_atom_site_fract_x
_atom_site_fract_y
_atom_site_fract_z
_atom_type_partial_charge
Co0 Co 0.08543 0.31802 0.13615 0.0
C1 C 0.12352 0.24669 0.14339 0.0
C2 C 0.15151 0.29134 0.16131 0.0
C3 C 0.17184 0.26125 0.16554 0.0
N4 N 0.12066 0.28236 0.14811 0.0
N5 N 0.15429 0.23317 0.15426 0.0
H6 H 0.10431 0.23076 0.13188 0.0
H7 H 0.15905 0.31831 0.16709 0.0
C8 C 0.09388 0.32917 0.19924 0.0
O9 O 0.09176 0.29433 0.20278 0.0
N10 N 0.05268 0.35546 0.12455 0.0
C11 C 0.02268 0.35364 0.10868 0.0
C12 C 1.01044 0.38812 0.1039 0.0
C13 C 0.05837 0.39066 0.12903 0.0
N14 N 0.03308 0.41147 0.11664 0.0
C15 C 0.03774 0.25854 0.13353 0.0
C16 C 0.99159 0.27749 0.17709 0.0
C17 C 0.98447 0.24603 0.16151 0.0
C18 C 1.00817 0.23709 0.13938 0.0
C19 C 0.02175 0.2986 0.17031 0.0
N20 N 0.04517 0.28836 0.14928 0.0
H21 H 0.05384 0.25151 0.11525 0.0
H22 H 0.02547 0.32361 0.18142 0.0
H23 H 1.01105 0.32918 0.10057 0.0
H24 H 0.08108 0.40067 0.14093 0.0
O25 O 0.08744 0.30036 0.09771 0.0
O26 O 0.12335 0.34252 0.11463 0.0
O27 O 0.09068 0.34296 0.17423 0.0
C28 C 0.11384 0.32211 0.09331 0.0
H29 H 0.19816 0.26031 0.17519 0.0
H30 H 0.9873 0.39532 0.09121 0.0
H31 H 0.97381 0.28614 0.19405 0.0
H32 H 1.00321 0.21443 0.12554 0.0
Co33 Co 0.71236 0.0909 0.12933 0.0
C34 C 0.77733 0.13456 0.14779 0.0
C35 C 0.73497 0.16589 0.12969 0.0
C36 C 0.76152 0.18857 0.13819 0.0
N37 N 0.74456 0.13173 0.13524 0.0
N38 N 0.78818 0.1692 0.14978 0.0
H39 H 0.79248 0.11219 0.15609 0.0
H40 H 0.70993 0.1746 0.12056 0.0
C41 C 0.67078 0.0837 0.18562 0.0
O42 O 0.65856 0.05201 0.17861 0.0
N43 N 0.67838 0.05216 0.12303 0.0
C44 C 0.68361 0.01743 0.11657 0.0
C45 C 0.65063 1.00171 0.11119 0.0
C46 C 0.6427 0.05712 0.1207 0.0
N47 N 0.62499 0.02693 0.1137 0.0
C48 C 0.7773 0.05198 0.12389 0.0
C49 C 0.76927 1.00641 0.17019 0.0
C50 C 0.79648 0.99899 0.15006 0.0
C51 C 0.80073 0.0232 0.12716 0.0
C52 C 0.74589 0.0354 0.16585 0.0
N53 N 0.74926 0.05711 0.14228 0.0
H54 H 0.78108 0.06949 0.10565 0.0
H55 H 0.72447 0.03909 0.1809 0.0
H56 H 0.70942 1.00454 0.11516 0.0
H57 H 0.62983 0.08248 0.12482 0.0
O58 O 0.72426 0.08994 0.08911 0.0
O59 O 0.67994 0.12172 0.10732 0.0
O60 O 0.69332 0.10019 0.16953 0.0
C61 C 0.69818 0.11201 0.08482 0.0
H62 H 0.7612 0.21737 0.13577 0.0
H63 H 0.64606 0.97417 0.10515 0.0
H64 H 0.76527 0.98946 0.18883 0.0
H65 H 0.82084 0.0192 0.11076 0.0
Co66 Co 0.93805 0.71471 0.12399 0.0
C67 C 0.90079 0.78592 0.13694 0.0
C68 C 0.86588 0.74123 0.12989 0.0
C69 C 0.8454 0.77017 0.13668 0.0
N70 N 0.90071 0.75064 0.12967 0.0
N71 N 0.86704 0.79838 0.14143 0.0
H72 H 0.92464 0.80182 0.13998 0.0
H73 H 0.85575 0.71454 0.12625 0.0
C74 C 0.93556 0.67036 0.17948 0.0
O75 O 0.96781 0.65731 0.17572 0.0
N76 N 0.97318 0.67698 0.11832 0.0
C77 C 1.00876 0.67923 0.11402 0.0
C78 C 0.02216 0.64504 0.11052 0.0
C79 C 0.96542 0.64168 0.11661 0.0
N80 N 0.99483 0.62136 0.11225 0.0
C81 C 0.9874 0.77295 0.12202 0.0
C82 C 0.02292 0.75995 0.17285 0.0
C83 C 0.03744 0.78511 0.15352 0.0
C84 C 0.0185 0.79215 0.12823 0.0
C85 C 0.99159 0.7411 0.16573 0.0
N86 N 0.97483 0.74666 0.13999 0.0
H87 H 0.97385 0.77901 0.10216 0.0
H88 H 0.98189 0.72156 0.18074 0.0
H89 H 0.02401 0.70382 0.11334 0.0
H90 H 0.93872 0.6311 0.11962 0.0
O91 O 0.94338 0.72883 0.08441 0.0
O92 O 0.90528 0.68755 0.09952 0.0
O93 O 0.92289 0.69404 0.16238 0.0
C94 C 0.91851 0.70599 0.07825 0.0
H95 H 0.8165 0.77027 0.13823 0.0
H96 H 0.04989 0.63832 0.10671 0.0
H97 H 0.03633 0.75384 0.19289 0.0
H98 H 0.02779 0.81222 0.11309 0.0
Co99 Co 0.32097 0.94025 0.14173 0.0
C100 C 0.25348 0.89537 0.14214 0.0
C101 C 0.27549 0.90308 0.18413 0.0
C102 C 0.2443 0.884 0.18681 0.0
N103 N 0.28166 0.91029 0.15614 0.0
N104 N 0.23 0.87933 0.16049 0.0
H105 H 0.24943 0.89753 0.11919 0.0
H106 H 0.29176 0.91188 0.20191 0.0
C107 C 0.37215 0.9467 0.19389 0.0
O108 O 0.38925 0.97479 0.18387 0.0
N109 N 0.36041 0.96931 0.12745 0.0
C110 C 0.35886 1.00151 0.11452 0.0
C111 C 0.39304 1.01161 0.10669 0.0
C112 C 0.3952 0.95962 0.12615 0.0
N113 N 0.41616 0.9854 0.11431 0.0
C114 C 0.26118 0.98714 0.14349 0.0
C115 C 0.29103 0.0411 0.17582 0.0
C116 C 0.25677 0.04643 0.16413 0.0
C117 C 0.24168 0.0184 0.14828 0.0
C118 C 0.30942 1.00907 0.17089 0.0
N119 N 0.29477 0.98265 0.15448 0.0
H120 H 0.24948 0.96681 0.13006 0.0
H121 H 0.33597 1.00674 0.1791 0.0
H122 H 0.3346 0.01659 0.1109 0.0
H123 H 0.40489 0.93457 0.1348 0.0
O124 O 0.30225 0.93871 0.10326 0.0
O125 O 0.34135 0.89996 0.12106 0.0
O126 O 0.34603 0.93261 0.1801 0.0
C127 C 0.32277 0.91122 0.09912 0.0
H128 H 0.23302 0.8746 0.20688 0.0
H129 H 0.39999 0.0365 0.09616 0.0
H130 H 0.30434 0.062 0.18779 0.0
H131 H 0.21513 0.02061 0.1392 0.0
Co132 Co 0.58999 0.19767 0.38097 0.0
C133 C 0.63 0.26654 0.37231 0.0
C134 C 0.65711 0.22075 0.3552 0.0
C135 C 0.67778 0.2505 0.35005 0.0
N136 N 0.62717 0.2307 0.36906 0.0
N137 N 0.66092 0.27939 0.36083 0.0
H138 H 0.61021 0.2827 0.38314 0.0
H139 H 0.66348 0.19358 0.34922 0.0
C140 C 0.57296 0.15617 0.32676 0.0
O141 O 0.53917 0.15318 0.33422 0.0
N142 N 0.55364 0.16309 0.39288 0.0
C143 C 0.52195 0.169 0.40588 0.0
C144 C 0.50503 0.13671 0.41041 0.0
C145 C 0.55596 0.12703 0.39067 0.0
N146 N 0.52627 0.11026 0.40066 0.0
C147 C 0.53735 0.25212 0.38875 0.0
C148 C 0.51253 0.25685 0.33315 0.0
C149 C 0.49395 0.27503 0.35493 0.0
C150 C 0.50774 0.27337 0.38281 0.0
C151 C 0.54262 0.23593 0.34006 0.0
N152 N 0.55317 0.23169 0.36802 0.0
H153 H 0.54592 0.25076 0.41078 0.0
H154 H 0.55687 0.22318 0.32283 0.0
H155 H 0.51159 0.19467 0.41213 0.0
H156 H 0.57853 0.1135 0.38104 0.0
O157 O 0.59424 0.21409 0.41983 0.0
O158 O 0.62538 0.16918 0.4019 0.0
O159 O 0.59482 0.17386 0.34229 0.0
C160 C 0.61779 0.18928 0.42386 0.0
H161 H 0.70311 0.25076 0.33878 0.0
H162 H 0.47915 0.13305 0.42047 0.0
H163 H 0.50368 0.25841 0.31103 0.0
H164 H 0.49463 0.28677 0.4005 0.0
Co165 Co 0.82105 0.57628 0.37825 0.0
C166 C 0.74974 0.61328 0.36987 0.0
C167 C 0.79362 0.64001 0.3494 0.0
C168 C 0.76342 0.66014 0.3452 0.0
N169 N 0.78512 0.60989 0.36404 0.0
N170 N 0.73583 0.6434 0.35811 0.0
H171 H 0.73458 0.59537 0.38339 0.0
H172 H 0.82043 0.64771 0.34316 0.0
C173 C 0.83738 0.58417 0.31591 0.0
O174 O 0.80326 0.57827 0.31097 0.0
N175 N 0.85838 0.54509 0.39234 0.0
C176 C 0.8556 0.51526 0.40849 0.0
C177 C 0.8897 0.5031 0.41459 0.0
C178 C 0.89377 0.55086 0.38904 0.0
N179 N 0.91372 0.52564 0.40239 0.0
C180 C 0.76398 0.5252 0.37658 0.0
C181 C 0.79621 0.47693 0.34023 0.0
C182 C 0.76418 0.46689 0.35406 0.0
C183 C 0.74787 0.49203 0.372 0.0
C184 C 0.81164 0.51052 0.34557 0.0
N185 N 0.79541 0.53447 0.36347 0.0
H186 H 0.75238 0.54203 0.39272 0.0
H187 H 0.83774 0.51621 0.33667 0.0
H188 H 0.83065 0.50349 0.41564 0.0
H189 H 0.90457 0.57328 0.37707 0.0
O190 O 0.79931 0.57698 0.41546 0.0
O191 O 0.84141 0.615 0.40109 0.0
O192 O 0.84941 0.58311 0.3416 0.0
C193 C 0.8195 0.6042 0.42119 0.0
H194 H 0.76224 0.68613 0.33489 0.0
H195 H 0.89619 0.47997 0.42762 0.0
H196 H 0.81007 0.45854 0.32621 0.0
H197 H 0.72402 0.48538 0.38414 0.0
Co198 Co 0.44683 0.80987 0.38669 0.0
C199 C 0.40414 0.74068 0.38368 0.0
C200 C 0.37956 0.78421 0.36132 0.0
C201 C 0.35822 0.75455 0.3582 0.0
N202 N 0.40945 0.77538 0.37608 0.0
N203 N 0.37373 0.72724 0.37225 0.0
H204 H 0.42082 0.72561 0.39815 0.0
H205 H 0.37308 0.8108 0.35377 0.0
C206 C 0.43502 0.82252 0.32472 0.0
O207 O 0.44111 0.78808 0.32209 0.0
N208 N 0.48206 0.84545 0.39753 0.0
C209 C 0.5126 0.83975 0.41212 0.0
C210 C 0.5301 0.87197 0.41534 0.0
C211 C 0.48111 0.88105 0.39235 0.0
N212 N 0.51032 0.89799 0.4029 0.0
C213 C 0.49217 0.74875 0.38022 0.0
C214 C 0.54148 0.77981 0.34365 0.0
C215 C 0.5488 0.7457 0.35509 0.0
C216 C 0.5229 0.72991 0.37285 0.0
C217 C 0.50967 0.79745 0.35102 0.0
N218 N 0.48523 0.78185 0.36911 0.0
H219 H 0.47564 0.73754 0.39677 0.0
H220 H 0.50576 0.82459 0.34357 0.0
H221 H 0.52156 0.81394 0.41982 0.0
H222 H 0.45967 0.89416 0.38081 0.0
O223 O 0.44982 0.78868 0.42404 0.0
O224 O 0.41237 0.83238 0.41273 0.0
O225 O 0.43725 0.83715 0.34953 0.0
C226 C 0.42459 0.81007 0.43205 0.0
H227 H 0.33256 0.75342 0.34747 0.0
H228 H 0.55523 0.87595 0.4264 0.0
H229 H 0.56091 0.79366 0.33038 0.0
H230 H 0.52686 0.70365 0.38219 0.0
Co231 Co 0.21625 0.43064 0.3925 0.0
C232 C 0.28941 0.39785 0.3812 0.0
C233 C 0.24553 0.3612 0.37792 0.0
C234 C 0.27647 0.34324 0.37135 0.0
N235 N 0.25335 0.3955 0.38416 0.0
N236 N 0.30412 0.36625 0.37334 0.0
H237 H 0.30488 0.42187 0.38401 0.0
H238 H 0.21884 0.34997 0.3779 0.0
C239 C 0.16971 0.42849 0.33804 0.0
O240 O 0.15353 0.45893 0.34319 0.0
N241 N 0.17783 0.46403 0.40076 0.0
C242 C 0.1801 0.49897 0.40747 0.0
C243 C 0.14603 0.51188 0.41214 0.0
C244 C 0.14262 0.45594 0.4025 0.0
N245 N 0.12239 0.48482 0.40883 0.0
C246 C 0.27327 0.48107 0.39401 0.0
C247 C 0.25393 0.5222 0.34732 0.0
C248 C 0.28146 0.53469 0.36536 0.0
C249 C 0.2919 0.51253 0.38819 0.0
C250 C 0.23677 0.4895 0.3533 0.0
N251 N 0.24575 0.46973 0.37699 0.0
H252 H 0.28099 0.46601 0.41281 0.0
H253 H 0.21524 0.48148 0.33958 0.0
H254 H 0.20467 0.51413 0.40899 0.0
H255 H 0.13203 0.42961 0.398 0.0
O256 O 0.23172 0.43404 0.43168 0.0
O257 O 0.19154 0.39505 0.41628 0.0
O258 O 0.19497 0.41721 0.35418 0.0
C259 C 0.20999 0.408 0.43756 0.0
H260 H 0.27843 0.31519 0.36595 0.0
H261 H 0.13933 0.53911 0.41775 0.0
H262 H 0.24449 0.53809 0.32939 0.0
H263 H 0.3139 0.51959 0.40216 0.0
Co264 Co 0.94354 0.71589 0.86779 0.0
C265 C 0.8922 0.77758 0.86303 0.0
C266 C 0.90522 0.7546 0.82225 0.0
C267 C 0.88289 0.78315 0.81768 0.0
N268 N 0.9111 0.75084 0.85069 0.0
N269 N 0.87484 0.7979 0.84327 0.0
H270 H 0.89247 0.78311 0.88578 0.0
H271 H 0.91717 0.73843 0.80563 0.0
C272 C 0.9487 0.6581 0.82066 0.0
O273 O 0.97855 0.64393 0.8301 0.0
N274 N 0.97487 0.68026 0.88468 0.0
C275 C 1.00768 0.68454 0.89614 0.0
C276 C 0.01943 0.65178 0.90616 0.0
C277 C 0.96643 0.64558 0.88921 0.0
N278 N 0.99346 0.62727 0.90162 0.0
C279 C 0.98562 0.77704 0.85598 0.0
C280 C 0.04382 0.74372 0.8315 0.0
C281 C 0.0467 0.77997 0.83907 0.0
C282 C 0.01638 0.79686 0.85023 0.0
C283 C 1.01204 0.72493 0.83709 0.0
N284 N 0.9838 0.74129 0.85021 0.0
H285 H 0.9639 0.79027 0.86685 0.0
H286 H 1.01167 0.6968 0.83302 0.0
H287 H 0.02211 0.70961 0.89709 0.0
H288 H 0.94144 0.63376 0.88233 0.0
O289 O 0.94431 0.74123 0.90339 0.0
O290 O 0.90549 0.6982 0.89281 0.0
O291 O 0.9342 0.68484 0.83312 0.0
C292 C 0.91768 0.72121 0.91141 0.0
H293 H 0.87371 0.7924 0.79692 0.0
H294 H 0.04508 0.64649 0.91605 0.0
H295 H 0.06657 0.7293 0.82304 0.0
H296 H 0.01678 0.82496 0.85576 0.0
Co297 Co 0.31546 0.94716 0.88996 0.0
C298 C 0.2433 0.91233 0.87679 0.0
C299 C 0.28943 0.88204 0.86455 0.0
C300 C 0.2596 0.8629 0.8572 0.0
N301 N 0.27956 0.91336 0.87642 0.0
N302 N 0.23059 0.88188 0.86481 0.0
H303 H 0.22632 0.93281 0.8855 0.0
H304 H 0.31684 0.87359 0.86156 0.0
C305 C 0.3259 0.94302 0.82726 0.0
O306 O 0.29133 0.94915 0.82596 0.0
N307 N 0.35331 0.9782 0.90305 0.0
C308 C 0.35161 1.00782 0.91933 0.0
C309 C 0.38612 0.01989 0.92408 0.0
C310 C 0.38836 0.97244 0.89837 0.0
N311 N 0.40917 0.99744 0.91095 0.0
C312 C 0.25817 0.99796 0.8902 0.0
C313 C 0.28916 0.04729 0.85355 0.0
C314 C 0.25731 0.05659 0.86777 0.0
C315 C 0.24166 0.03103 0.88598 0.0
C316 C 0.30505 0.01396 0.85865 0.0
N317 N 0.28921 0.98927 0.87638 0.0
H318 H 0.24706 0.98047 0.90636 0.0
H319 H 0.33109 1.00888 0.84947 0.0
H320 H 0.32716 0.01955 0.92739 0.0
H321 H 0.39831 0.95023 0.88591 0.0
O322 O 0.29517 0.9459 0.92768 0.0
O323 O 0.33663 0.90812 0.91268 0.0
O324 O 0.34142 0.94131 0.85177 0.0
C325 C 0.31534 0.9187 0.93322 0.0
H326 H 0.25929 0.83649 0.84775 0.0
H327 H 0.3936 0.04291 0.93675 0.0
H328 H 0.30254 0.06604 0.83935 0.0
H329 H 0.21799 0.03719 0.89842 0.0
Co330 Co 0.08459 0.32627 0.88751 0.0
C331 C 0.12196 0.25609 0.87983 0.0
C332 C 0.14791 0.3001 0.85842 0.0
C333 C 0.1679 0.26989 0.85409 0.0
N334 N 0.11912 0.29156 0.87444 0.0
N335 N 0.15181 0.24219 0.86761 0.0
H336 H 0.10321 0.24111 0.89294 0.0
H337 H 0.15428 0.32672 0.85079 0.0
C338 C 0.06451 0.36664 0.83386 0.0
O339 O 0.03102 0.36761 0.84244 0.0
N340 N 0.05158 0.3632 0.90034 0.0
C341 C 0.02084 0.36155 0.91558 0.0
C342 C 1.00923 0.39592 0.92093 0.0
C343 C 0.05845 0.39852 0.89739 0.0
N344 N 0.033 0.41915 0.90948 0.0
C345 C 0.02554 0.27873 0.89649 0.0
C346 C 1.01013 0.26463 0.83973 0.0
C347 C 0.98718 0.25087 0.86111 0.0
C348 C 0.99595 0.25759 0.88985 0.0
C349 C 0.03952 0.28601 0.8474 0.0
N350 N 0.0456 0.29467 0.87548 0.0
H351 H 0.03168 0.28292 0.91884 0.0
H352 H 0.05729 0.29538 0.83069 0.0
H353 H 1.0078 0.33762 0.92317 0.0
H354 H 0.08178 0.4088 0.88628 0.0
O355 O 0.08973 0.30914 0.92626 0.0
O356 O 0.12252 0.35248 0.90686 0.0
O357 O 0.08807 0.35042 0.84885 0.0
C358 C 0.11474 0.33294 0.92925 0.0
H359 H 0.19247 0.26849 0.84182 0.0
H360 H 0.98558 0.40315 0.93301 0.0
H361 H 1.0055 0.25897 0.81725 0.0
H362 H 0.97953 0.2476 0.90731 0.0
Co363 Co 0.70943 0.08898 0.8754 0.0
C364 C 0.78192 0.12267 0.86885 0.0
C365 C 0.74034 0.15202 0.8476 0.0
C366 C 0.77204 0.17011 0.84387 0.0
N367 N 0.74646 0.1221 0.863 0.0
N368 N 0.79834 0.1517 0.85716 0.0
H369 H 0.79533 0.10268 0.8817 0.0
H370 H 0.71434 0.16077 0.84027 0.0
C371 C 0.6576 0.08523 0.82425 0.0
O372 O 0.64217 0.05586 0.83364 0.0
N373 N 0.67176 0.0568 0.88819 0.0
C374 C 0.67444 0.02213 0.89588 0.0
C375 C 0.64115 1.00998 0.90418 0.0
C376 C 0.63717 0.06552 0.89282 0.0
N377 N 0.6176 0.03722 0.90204 0.0
C378 C 0.76342 0.03519 0.87772 0.0
C379 C 0.74746 0.99997 0.82741 0.0
C380 C 0.77289 0.98506 0.8461 0.0
C381 C 0.78135 1.00371 0.87113 0.0
C382 C 0.72992 0.03181 0.83486 0.0
N383 N 0.73717 0.04861 0.86028 0.0
H384 H 0.77035 0.04801 0.89759 0.0
H385 H 0.71026 0.04201 0.82024 0.0
H386 H 0.69873 1.00654 0.89562 0.0
H387 H 0.62633 0.09173 0.88822 0.0
O388 O 0.72846 0.08885 0.91365 0.0
O389 O 0.68763 0.12712 0.89816 0.0
O390 O 0.68436 0.09877 0.83751 0.0
C391 C 0.70783 0.11571 0.91905 0.0
H392 H 0.77507 0.19565 0.83312 0.0
H393 H 0.63494 0.9831 0.91133 0.0
H394 H 0.74036 0.98662 0.80761 0.0
H395 H 0.80158 0.99388 0.88581 0.0
Co396 Co 0.44846 0.82391 0.64364 0.0
C397 C 0.39255 0.76605 0.64655 0.0
C398 C 0.40901 0.78469 0.68797 0.0
C399 C 0.3855 0.75691 0.69184 0.0
N400 N 0.41344 0.79073 0.65961 0.0
N401 N 0.37511 0.74498 0.66584 0.0
H402 H 0.39109 0.76272 0.62352 0.0
H403 H 0.42345 0.79809 0.7049 0.0
C404 C 0.42013 0.87604 0.68459 0.0
O405 O 0.39811 0.88462 0.66375 0.0
N406 N 0.48341 0.85723 0.62843 0.0
C407 C 0.5133 0.8493 0.61357 0.0
C408 C 0.5308 0.88073 0.6068 0.0
C409 C 0.48273 0.89321 0.63007 0.0
N410 N 0.51147 0.90827 0.61715 0.0
C411 C 0.48825 0.76014 0.65213 0.0
C412 C 0.54534 0.7911 0.68042 0.0
C413 C 0.54852 0.75555 0.67088 0.0
C414 C 0.5187 0.73977 0.65769 0.0
C415 C 0.51393 0.81037 0.67498 0.0
N416 N 0.48656 0.79519 0.65997 0.0
H417 H 0.4666 0.74821 0.64014 0.0
H418 H 0.51267 0.83827 0.68091 0.0
H419 H 0.5218 0.82252 0.60816 0.0
H420 H 0.46184 0.90808 0.64071 0.0
O421 O 0.44619 0.80115 0.6065 0.0
O422 O 0.41236 0.84669 0.61954 0.0
O423 O 0.44455 0.8529 0.68005 0.0
C424 C 0.42204 0.82452 0.59956 0.0
H425 H 0.37844 0.74506 0.71233 0.0
H426 H 0.55555 0.88314 0.59483 0.0
H427 H 0.56755 0.80474 0.69051 0.0
H428 H 0.51921 0.7122 0.65069 0.0
Co429 Co 0.21297 0.45146 0.64548 0.0
C430 C 0.27693 0.40289 0.65048 0.0
C431 C 0.26148 0.42622 0.69057 0.0
C432 C 0.29122 0.40541 0.69514 0.0
N433 N 0.25233 0.42468 0.6626 0.0
N434 N 0.30106 0.39075 0.66992 0.0
H435 H 0.2779 0.39674 0.62786 0.0
H436 H 0.24784 0.44203 0.70659 0.0
C437 C 0.15644 0.45165 0.6941 0.0
O438 O 0.13709 0.47738 0.6829 0.0
N439 N 0.17363 0.47794 0.62844 0.0
C440 C 0.17523 0.51064 0.61624 0.0
C441 C 0.1415 0.52003 0.60711 0.0
C442 C 0.13941 0.46704 0.62502 0.0
N443 N 0.11881 0.4928 0.61301 0.0
C444 C 0.26838 0.5023 0.6516 0.0
C445 C 0.23049 0.55448 0.68026 0.0
C446 C 0.265 0.56254 0.67007 0.0
C447 C 0.2843 0.53544 0.65638 0.0
C448 C 0.21556 0.52065 0.67519 0.0
N449 N 0.23415 0.49538 0.66027 0.0
H450 H 0.28328 0.48239 0.63986 0.0
H451 H 0.18846 0.5159 0.68174 0.0
H452 H 0.19916 0.5268 0.61442 0.0
H453 H 0.12942 0.4416 0.63285 0.0
O454 O 0.23634 0.4523 0.60886 0.0
O455 O 0.19841 0.40995 0.62312 0.0
O456 O 0.18533 0.44108 0.68207 0.0
C457 C 0.2191 0.42307 0.60305 0.0
H458 H 0.30444 0.40137 0.71556 0.0
H459 H 0.13423 0.54522 0.59721 0.0
H460 H 0.21447 0.57458 0.69088 0.0
H461 H 0.31137 0.53995 0.64884 0.0
Co462 Co 0.58172 0.20885 0.63028 0.0
C463 C 0.61907 0.27843 0.6373 0.0
C464 C 0.64222 0.23697 0.66333 0.0
C465 C 0.66129 0.26799 0.66756 0.0
N466 N 0.61558 0.24358 0.64461 0.0
N467 N 0.6468 0.29399 0.65115 0.0
H468 H 0.60195 0.29196 0.622 0.0
H469 H 0.64819 0.21113 0.6726 0.0
C470 C 0.56374 0.16391 0.68283 0.0
O471 O 0.52998 0.16242 0.67506 0.0
N472 N 0.5485 0.1731 0.61571 0.0
C473 C 0.51909 0.1778 0.59934 0.0
C474 C 0.50387 0.14501 0.59393 0.0
C475 C 0.55152 0.13725 0.61886 0.0
N476 N 0.52412 0.11953 0.60639 0.0
C477 C 0.52374 0.25789 0.62401 0.0
C478 C 0.50493 0.26423 0.68105 0.0
C479 C 0.48361 0.28108 0.66012 0.0
C480 C 0.49423 0.2785 0.6314 0.0
C481 C 0.53466 0.24378 0.67261 0.0
N482 N 0.54238 0.23888 0.64415 0.0
H483 H 0.53115 0.25718 0.60167 0.0
H484 H 0.55138 0.23232 0.68909 0.0
H485 H 0.50925 0.20291 0.59123 0.0
H486 H 0.5728 0.12448 0.63084 0.0
O487 O 0.58611 0.2292 0.59252 0.0
O488 O 0.61997 0.18512 0.60898 0.0
O489 O 0.58634 0.18168 0.66782 0.0
C490 C 0.61183 0.20678 0.58799 0.0
H491 H 0.68492 0.27083 0.68079 0.0
H492 H 0.47986 0.14029 0.58153 0.0
H493 H 0.49856 0.26646 0.70367 0.0
H494 H 0.47999 0.29259 0.61455 0.0
Co495 Co 0.81732 0.58437 0.62994 0.0
C496 C 0.74597 0.62273 0.6383 0.0
C497 C 0.79234 0.65309 0.65004 0.0
C498 C 0.76262 0.67333 0.65571 0.0
N499 N 0.7822 0.62105 0.63954 0.0
N500 N 0.73351 0.65427 0.64835 0.0
H501 H 0.72871 0.60177 0.63069 0.0
H502 H 0.81979 0.66106 0.65368 0.0
C503 C 0.82222 0.59437 0.69274 0.0
O504 O 0.78723 0.59084 0.6931 0.0
N505 N 0.85419 0.55018 0.62065 0.0
C506 C 0.85191 0.51962 0.60555 0.0
C507 C 0.88613 0.50654 0.60143 0.0
C508 C 0.88935 0.55541 0.62531 0.0
N509 N 0.90964 0.52931 0.61371 0.0
C510 C 0.75687 0.53725 0.62741 0.0
C511 C 0.77932 0.48979 0.66921 0.0
C512 C 0.74784 0.48198 0.65393 0.0
C513 C 0.73657 0.50664 0.63303 0.0
C514 C 0.79848 0.5212 0.66327 0.0
N515 N 0.78676 0.54506 0.64302 0.0
H516 H 0.74916 0.55393 0.60951 0.0
H517 H 0.8238 0.5253 0.67393 0.0
H518 H 0.82733 0.50835 0.59729 0.0
H519 H 0.89982 0.57852 0.63642 0.0
O520 O 0.80218 0.58533 0.5906 0.0
O521 O 0.84442 0.6204 0.60864 0.0
O522 O 0.83942 0.59086 0.66915 0.0
C523 C 0.82574 0.61034 0.58646 0.0
H524 H 0.76244 0.70027 0.66413 0.0
H525 H 0.8932 0.483 0.58924 0.0
H526 H 0.79009 0.47109 0.68476 0.0
H527 H 0.71263 0.50209 0.6205 0.0
H528 H 0.13833 0.28387 0.96668 0.0
H529 H 0.12207 0.39708 0.95606 0.0
H530 H 0.12802 0.40572 1.00808 0.0
H531 H 0.12493 0.37849 0.05693 0.0
H532 H 0.13926 0.2647 0.06621 0.0
H533 H 0.14817 0.2588 0.01458 0.0
C534 C 0.13744 0.31056 0.97575 0.0
C535 C 0.1296 0.33975 0.95791 0.0
C536 C 0.14026 0.31508 1.00552 0.0
C537 C 0.1284 0.37428 0.96958 0.0
C538 C 0.13139 0.37913 0.99932 0.0
C539 C 0.13163 0.3528 0.04765 0.0
C540 C 0.13137 0.32202 0.06508 0.0
C541 C 0.13555 0.34944 0.01765 0.0
C542 C 0.13938 0.28866 0.053 0.0
C543 C 0.14416 0.28523 0.02348 0.0
H544 H 0.65168 0.12178 0.95609 0.0
H545 H 0.76497 0.14045 0.9472 0.0
H546 H 0.77082 0.14702 0.99909 0.0
H547 H 0.74604 0.13591 0.04681 0.0
H548 H 0.63355 0.11466 0.05724 0.0
H549 H 0.62465 0.12101 1.0051 0.0
C550 C 0.67723 0.12881 0.96557 0.0
C551 C 0.70788 0.13089 0.94808 0.0
C552 C 0.6806 0.13124 0.99569 0.0
C553 C 0.7411 0.13905 0.96042 0.0
C554 C 0.74449 0.14246 0.99006 0.0
C555 C 0.71942 0.13369 0.03766 0.0
C556 C 0.69053 0.12463 0.05549 0.0
C557 C 0.71481 0.13684 1.00791 0.0
C558 C 0.6561 0.12187 0.04373 0.0
C559 C 0.65113 0.12519 0.01395 0.0
H560 H 0.90026 0.66677 0.94818 0.0
H561 H 0.90828 0.78157 0.94139 0.0
H562 H 0.90405 0.78703 0.99341 0.0
H563 H 0.90862 0.75897 0.04058 0.0
H564 H 0.90256 0.64441 0.04906 0.0
H565 H 0.89514 0.63878 0.99675 0.0
C566 C 0.89972 0.69292 0.95816 0.0
C567 C 0.90466 0.72377 0.94116 0.0
C568 C 0.89844 0.69579 0.98835 0.0
C569 C 0.90457 0.75754 0.95417 0.0
C570 C 0.90241 0.76066 0.9839 0.0
C571 C 0.90491 0.73282 0.03097 0.0
C572 C 0.90656 0.70213 0.04831 0.0
C573 C 0.90104 0.72995 1.00117 0.0
C574 C 0.90133 0.66837 0.03593 0.0
C575 C 0.89733 0.6652 1.00606 0.0
H576 H 0.36933 0.90098 0.97066 0.0
H577 H 0.25474 0.90117 0.96036 0.0
H578 H 0.24666 0.89253 0.01185 0.0
H579 H 0.27171 0.89713 0.06021 0.0
H580 H 0.38589 0.89755 0.07198 0.0
H581 H 0.39479 0.89322 0.01984 0.0
C582 C 0.34275 0.89761 0.97966 0.0
C583 C 0.31263 0.90186 0.96187 0.0
C584 C 0.33823 0.8935 0.00966 0.0
C585 C 0.27826 0.89805 0.97375 0.0
C586 C 0.27359 0.89338 1.00322 0.0
C587 C 0.29849 0.895 0.05135 0.0
C588 C 0.32807 0.89773 0.0697 0.0
C589 C 0.30329 0.89292 0.02149 0.0
C590 C 0.36271 0.89509 0.05816 0.0
C591 C 0.36778 0.89303 0.02833 0.0
H592 H 0.64048 0.23959 0.46001 0.0
H593 H 0.62411 0.12599 0.45311 0.0
H594 H 0.62806 0.11979 0.50559 0.0
H595 H 0.62355 0.1492 0.5534 0.0
H596 H 0.63628 0.26358 0.55866 0.0
H597 H 0.6473 0.26708 0.50708 0.0
C598 C 0.63909 0.21332 0.47001 0.0
C599 C 0.63188 0.18332 0.453 0.0
C600 C 0.64032 0.21029 0.5 0.0
C601 C 0.63001 0.14938 0.46592 0.0
C602 C 0.63181 0.14596 0.49593 0.0
C603 C 0.6302 0.17456 0.54329 0.0
C604 C 0.62908 0.20615 0.55958 0.0
C605 C 0.63518 0.17652 0.51327 0.0
C606 C 0.63701 0.23903 0.54638 0.0
C607 C 0.64307 0.24106 0.51689 0.0
H608 H 0.87355 0.62019 0.45845 0.0
H609 H 0.75903 0.62284 0.44793 0.0
H610 H 0.75111 0.63214 0.49934 0.0
H611 H 0.77592 0.62702 0.54761 0.0
H612 H 0.88993 0.62169 0.55971 0.0
H613 H 0.8992 0.62653 0.50756 0.0
C614 C 0.84708 0.62426 0.46741 0.0
C615 C 0.81685 0.62072 0.44969 0.0
C616 C 0.84267 0.62839 0.49731 0.0
C617 C 0.78257 0.62541 0.46137 0.0
C618 C 0.77802 0.63048 0.49074 0.0
C619 C 0.80281 0.62808 0.53881 0.0
C620 C 0.83218 0.62376 0.55716 0.0
C621 C 0.80773 0.6301 0.50902 0.0
C622 C 0.86696 0.62523 0.54581 0.0
C623 C 0.8722 0.62761 0.516 0.0
H624 H 0.41305 0.77118 0.56169 0.0
H625 H 0.40553 0.88557 0.56991 0.0
H626 H 0.39985 0.89176 0.51758 0.0
H627 H 0.40686 0.86458 0.46899 0.0
H628 H 0.41494 0.74986 0.46238 0.0
H629 H 0.40973 0.74374 0.51428 0.0
C630 C 0.40927 0.79738 0.55203 0.0
C631 C 0.41002 0.82786 0.56945 0.0
C632 C 0.40636 0.80066 0.52209 0.0
C633 C 0.40487 0.86168 0.55683 0.0
C634 C 0.40194 0.86523 0.52689 0.0
C635 C 0.40625 0.8383 0.47895 0.0
C636 C 0.41164 0.80772 0.46199 0.0
C637 C 0.40399 0.83495 0.50917 0.0
C638 C 0.41117 0.77378 0.47509 0.0
C639 C 0.40834 0.77024 0.50479 0.0
H640 H 0.1669 0.39884 0.56704 0.0
H641 H 0.28093 0.41333 0.57497 0.0
H642 H 0.28865 0.40271 0.52377 0.0
H643 H 0.26224 0.40098 0.47606 0.0
H644 H 0.14823 0.39025 0.46615 0.0
H645 H 0.14101 0.38711 0.51863 0.0
C646 C 0.19344 0.39832 0.55758 0.0
C647 C 0.22335 0.40686 0.57455 0.0
C648 C 0.19754 0.39355 0.52772 0.0
C649 C 0.25761 0.40681 0.5622 0.0
C650 C 0.26201 0.40097 0.53291 0.0
C651 C 0.23592 0.39694 0.48544 0.0
C652 C 0.20579 0.39616 0.46756 0.0
C653 C 0.23207 0.3961 0.51533 0.0
C654 C 0.1718 0.39072 0.47968 0.0
C655 C 0.16769 0.38931 0.50965 0.0
H656 H 0.2125 0.08014 0.12549 0.0
H657 H 0.25748 0.09182 0.21044 0.0
H658 H 0.2293 0.15023 0.21488 0.0
H659 H 0.19299 0.19881 0.19436 0.0
H660 H 0.14564 0.18623 0.11066 0.0
H661 H 0.17257 0.12677 0.10647 0.0
C662 C 0.2157 0.09499 0.14526 0.0
C663 C 0.23757 0.08132 0.16748 0.0
C664 C 0.19878 0.12843 0.14797 0.0
C665 C 0.24163 0.10168 0.19265 0.0
C666 C 0.22523 0.13509 0.19535 0.0
C667 C 0.18855 0.18298 0.17523 0.0
C668 C 0.16754 0.19699 0.15276 0.0
C669 C 0.20407 0.14887 0.17305 0.0
C670 C 0.16147 0.17596 0.12831 0.0
C671 C 0.17709 0.14208 0.12586 0.0
H672 H 0.85429 0.13902 0.14982 0.0
H673 H 0.79656 0.2337 0.17475 0.0
H674 H 0.85246 0.26523 0.18317 0.0
H675 H 0.9174 0.26874 0.17705 0.0
H676 H 0.97628 0.17316 0.15592 0.0
H677 H 0.92058 0.13947 0.15267 0.0
C678 C 0.85399 0.16621 0.15777 0.0
C679 C 0.82117 0.18423 0.16068 0.0
C680 C 0.88654 0.18441 0.16282 0.0
C681 C 0.82138 0.21948 0.1713 0.0
C682 C 0.85341 0.2376 0.17626 0.0
C683 C 0.91837 0.24035 0.17254 0.0
C684 C 0.95124 0.22406 0.16584 0.0
C685 C 0.88617 0.22081 0.17106 0.0
C686 C 0.95142 0.18701 0.16011 0.0
C687 C 0.91949 0.16751 0.1584 0.0
H688 H 0.77713 0.93346 0.17217 0.0
H689 H 0.86576 0.98722 0.13068 0.0
H690 H 0.89664 0.93029 0.12548 0.0
H691 H 0.89627 0.86366 0.12899 0.0
H692 H 0.80952 0.8123 0.1745 0.0
H693 H 0.78111 0.86971 0.18246 0.0
C694 C 0.8036 0.93329 0.16267 0.0
C695 C 0.81829 0.96511 0.15127 0.0
C696 C 0.82178 0.90046 0.16025 0.0
C697 C 0.85274 0.96336 0.13882 0.0
C698 C 0.87077 0.93066 0.13601 0.0
C699 C 0.87156 0.86518 0.14113 0.0
C700 C 0.85463 0.83337 0.15032 0.0
C701 C 0.85518 0.89878 0.14599 0.0
C702 C 0.82267 0.83604 0.16626 0.0
C703 C 0.80636 0.869 0.17099 0.0
H704 H 0.17495 0.86717 0.19746 0.0
H705 H 0.20725 0.85273 0.10916 0.0
H706 H 0.15038 0.8229 0.09911 0.0
H707 H 0.09197 0.79944 0.11574 0.0
H708 H 0.06116 0.81283 0.20444 0.0
H709 H 0.11757 0.84357 0.2141 0.0
C710 C 0.17008 0.8572 0.17604 0.0
C711 C 0.19597 0.86219 0.15419 0.0
C712 C 0.13754 0.83955 0.17051 0.0
C713 C 0.18808 0.84967 0.12643 0.0
C714 C 0.15553 0.83236 0.12069 0.0
C715 C 0.09745 0.80932 0.13716 0.0
C716 C 0.07214 0.80376 0.15934 0.0
C717 C 0.1301 0.82703 0.1426 0.0
C718 C 0.08013 0.81629 0.18703 0.0
C719 C 0.11235 0.83409 0.19253 0.0
H720 H 0.69389 0.44465 0.35475 0.0
H721 H 0.80203 0.40429 0.35077 0.0
H722 H 0.77948 0.34325 0.35224 0.0
H723 H 0.72972 0.30116 0.35706 0.0
H724 H 0.6215 0.34047 0.36237 0.0
H725 H 0.64365 0.40203 0.35928 0.0
C726 C 0.71264 0.42258 0.35431 0.0
C727 C 0.74978 0.4295 0.3525 0.0
C728 C 0.69952 0.38724 0.35593 0.0
C729 C 0.77337 0.40021 0.35151 0.0
C730 C 0.7605 0.36512 0.35273 0.0
C731 C 0.7108 0.32305 0.35721 0.0
C732 C 0.67386 0.31593 0.35983 0.0
C733 C 0.72371 0.35832 0.35522 0.0
C734 C 0.65003 0.34497 0.36067 0.0
C735 C 0.6627 0.38023 0.35867 0.0
H736 H 0.58621 0.70426 0.3932 0.0
H737 H 0.59145 0.74666 0.30676 0.0
H738 H 0.64969 0.71834 0.30007 0.0
H739 H 0.69934 0.6817 0.31889 0.0
H740 H 0.69223 0.63718 0.40431 0.0
H741 H 0.63361 0.66497 0.41081 0.0
C742 C 0.59949 0.70679 0.37258 0.0
C743 C 0.58402 0.72763 0.35048 0.0
C744 C 0.63257 0.68977 0.36862 0.0
C745 C 0.60266 0.73128 0.32433 0.0
C746 C 0.63591 0.71484 0.32039 0.0
C747 C 0.68486 0.67807 0.33888 0.0
C748 C 0.70013 0.65746 0.36112 0.0
C749 C 0.65117 0.69413 0.34243 0.0
C750 C 0.68092 0.65255 0.38678 0.0
C751 C 0.64754 0.66869 0.39057 0.0
H752 H 0.30929 0.57873 0.40685 0.0
H753 H 0.29159 0.57337 0.31514 0.0
H754 H 0.31748 0.63287 0.3095 0.0
H755 H 0.34587 0.68656 0.33056 0.0
H756 H 0.36926 0.68853 0.42108 0.0
H757 H 0.3417 0.62939 0.42708 0.0
C758 C 0.31176 0.58981 0.3854 0.0
C759 C 0.2983 0.5709 0.36147 0.0
C760 C 0.32801 0.62349 0.38208 0.0
C761 C 0.30093 0.58706 0.33414 0.0
C762 C 0.31612 0.62111 0.3308 0.0
C763 C 0.34492 0.67383 0.35152 0.0
C764 C 0.35934 0.69172 0.37541 0.0
C765 C 0.32971 0.63957 0.35462 0.0
C766 C 0.35848 0.67504 0.40245 0.0
C767 C 0.34258 0.6414 0.40585 0.0
H768 H 0.33158 0.31542 0.33865 0.0
H769 H 0.36134 0.39831 0.39824 0.0
H770 H 0.42399 0.38037 0.39463 0.0
H771 H 0.46941 0.33761 0.37812 0.0
H772 H 0.43891 0.25252 0.32071 0.0
H773 H 0.37778 0.27534 0.3194 0.0
C774 C 0.35173 0.32958 0.35087 0.0
C775 C 0.34153 0.35791 0.36903 0.0
C776 C 0.38769 0.31876 0.34901 0.0
C777 C 0.36827 0.37653 0.38406 0.0
C778 C 0.40415 0.36613 0.38212 0.0
C779 C 0.44947 0.32412 0.36517 0.0
C780 C 0.45884 0.29303 0.34982 0.0
C781 C 0.41404 0.33676 0.36519 0.0
C782 C 0.43273 0.27656 0.3326 0.0
C783 C 0.39757 0.28938 0.3321 0.0
H784 H 0.85918 0.84991 0.8044 0.0
H785 H 0.8431 0.81889 0.89303 0.0
H786 H 0.80946 0.87365 0.90138 0.0
H787 H 0.78508 0.93064 0.88376 0.0
H788 H 0.80036 0.96117 0.79507 0.0
H789 H 0.83279 0.90548 0.78629 0.0
C790 C 0.84799 0.85462 0.82549 0.0
C791 C 0.85399 0.82996 0.84805 0.0
C792 C 0.82826 0.88604 0.8301 0.0
C793 C 0.83955 0.83736 0.87531 0.0
C794 C 0.82004 0.86865 0.88009 0.0
C795 C 0.79563 0.92518 0.86251 0.0
C796 C 0.79054 0.95021 0.84014 0.0
C797 C 0.81443 0.89327 0.85769 0.0
C798 C 0.80369 0.94233 0.81261 0.0
C799 C 0.82245 0.91059 0.80764 0.0
H800 H 0.20329 0.84137 0.8226 0.0
H801 H 0.17569 0.89555 0.90109 0.0
H802 H 0.11546 0.86987 0.89925 0.0
H803 H 0.07274 0.82834 0.87748 0.0
H804 H 0.09989 0.77467 0.79842 0.0
H805 H 0.15879 0.8031 0.79881 0.0
C806 C 0.18403 0.84759 0.83926 0.0
C807 C 0.19402 0.87007 0.86211 0.0
C808 C 0.14967 0.83245 0.83817 0.0
C809 C 0.1686 0.87853 0.88323 0.0
C810 C 0.13428 0.86361 0.88228 0.0
C811 C 0.09109 0.82338 0.8599 0.0
C812 C 0.08167 0.79924 0.83793 0.0
C813 C 0.12476 0.84008 0.86011 0.0
C814 C 0.10644 0.79265 0.81582 0.0
C815 C 0.14009 0.80908 0.81594 0.0
H816 H 0.18674 0.07753 0.86893 0.0
H817 H 0.29432 0.1197 0.86359 0.0
H818 H 0.27098 0.18029 0.86309 0.0
H819 H 0.22066 0.2216 0.86567 0.0
H820 H 0.11298 0.18093 0.87257 0.0
H821 H 0.1359 0.1195 0.87225 0.0
C822 C 0.20517 0.09992 0.86782 0.0
C823 C 0.24238 0.09365 0.86601 0.0
C824 C 0.19159 0.13505 0.86828 0.0
C825 C 0.2656 0.12327 0.86425 0.0
C826 C 0.25229 0.15812 0.86434 0.0
C827 C 0.20208 0.19936 0.86682 0.0
C828 C 0.16508 0.20594 0.86889 0.0
C829 C 0.21542 0.16431 0.86646 0.0
C830 C 0.14156 0.17668 0.87115 0.0
C831 C 0.15467 0.14156 0.87075 0.0
H832 H 0.83477 0.19643 0.82178 0.0
H833 H 0.84621 0.13177 0.89829 0.0
H834 H 0.90713 0.15396 0.90449 0.0
H835 H 0.95572 0.19476 0.89011 0.0
H836 H 0.94195 0.26295 0.81576 0.0
H837 H 0.88374 0.2359 0.80668 0.0
C838 C 0.85037 0.18726 0.83995 0.0
C839 C 0.8354 0.16268 0.85971 0.0
C840 C 0.88518 0.20075 0.84378 0.0
C841 C 0.85675 0.15047 0.88262 0.0
C842 C 0.89165 0.16336 0.8863 0.0
C843 C 0.94001 0.20393 0.87196 0.0
C844 C 0.95343 0.23127 0.85384 0.0
C845 C 0.9059 0.18902 0.86732 0.0
C846 C 0.93282 0.24182 0.82997 0.0
C847 C 0.89922 0.22658 0.8249 0.0
H848 H 0.327 0.71464 0.70193 0.0
H849 H 0.37467 0.7035 0.6179 0.0
H850 H 0.34295 0.6471 0.61125 0.0
H851 H 0.30461 0.59917 0.6304 0.0
H852 H 0.2603 0.60842 0.71575 0.0
H853 H 0.28795 0.66732 0.72077 0.0
C854 C 0.33074 0.69988 0.6822 0.0
C855 C 0.35371 0.71338 0.66062 0.0
C856 C 0.31313 0.66695 0.67881 0.0
C857 C 0.35716 0.69415 0.63486 0.0
C858 C 0.33921 0.66163 0.63113 0.0
C859 C 0.30122 0.61388 0.65024 0.0
C860 C 0.28066 0.59907 0.6728 0.0
C861 C 0.31768 0.64747 0.65317 0.0
C862 C 0.27577 0.61911 0.69798 0.0
C863 C 0.29175 0.65275 0.70092 0.0
H864 H 0.36165 0.38612 0.70167 0.0
H865 H 0.30927 0.34278 0.62685 0.0
H866 H 0.36056 0.30411 0.61806 0.0
H867 H 0.42029 0.28281 0.63131 0.0
H868 H 0.47328 0.3265 0.70568 0.0
H869 H 0.42102 0.36376 0.7156 0.0
C870 C 0.36114 0.36797 0.68362 0.0
C871 C 0.33141 0.3676 0.66493 0.0
C872 C 0.39073 0.34558 0.67875 0.0
C873 C 0.3318 0.34417 0.64138 0.0
C874 C 0.36108 0.3218 0.63644 0.0
C875 C 0.42058 0.30063 0.64963 0.0
C876 C 0.45093 0.30197 0.66759 0.0
C877 C 0.39073 0.32242 0.65489 0.0
C878 C 0.45031 0.32462 0.69161 0.0
C879 C 0.42051 0.34619 0.69715 0.0
H880 H 0.67696 0.33486 0.69188 0.0
H881 H 0.64804 0.3334 0.6023 0.0
H882 H 0.67634 0.3919 0.59526 0.0
H883 H 0.71237 0.44144 0.61398 0.0
H884 H 0.73865 0.44443 0.70435 0.0
H885 H 0.70921 0.38682 0.71144 0.0
C886 C 0.67681 0.34746 0.67085 0.0
C887 C 0.66061 0.32977 0.6476 0.0
C888 C 0.69308 0.38108 0.66703 0.0
C889 C 0.66007 0.3466 0.62056 0.0
C890 C 0.67649 0.37991 0.61651 0.0
C891 C 0.71112 0.43006 0.63542 0.0
C892 C 0.72809 0.44755 0.65854 0.0
C893 C 0.69343 0.39721 0.63953 0.0
C894 C 0.72662 0.43152 0.68596 0.0
C895 C 0.70948 0.39861 0.69012 0.0
H896 H 0.57633 0.70802 0.63226 0.0
H897 H 0.59983 0.75911 0.71319 0.0
H898 H 0.65885 0.73139 0.71361 0.0
H899 H 0.70478 0.69452 0.69006 0.0
H900 H 0.68026 0.64134 0.61055 0.0
H901 H 0.61998 0.66697 0.61108 0.0
C902 C 0.59384 0.71256 0.65042 0.0
C903 C 0.58337 0.73602 0.67259 0.0
C904 C 0.62759 0.69603 0.65081 0.0
C905 C 0.60717 0.74189 0.69551 0.0
C906 C 0.64093 0.72582 0.69589 0.0
C907 C 0.68612 0.68849 0.67293 0.0
C908 C 0.69699 0.66636 0.65014 0.0
C909 C 0.6516 0.70328 0.67345 0.0
C910 C 0.67242 0.65815 0.62835 0.0
C911 C 0.63809 0.67301 0.62857 0.0
H912 H 0.12922 0.44762 0.29151 0.0
H913 H 0.18374 0.35789 0.33031 0.0
H914 H 0.16338 0.31909 0.29182 0.0
H915 H 0.13067 0.31036 0.24689 0.0
H916 H 0.07915 0.40016 0.20592 0.0
H917 H 0.09748 0.43907 0.24549 0.0
C918 C 0.13663 0.41959 0.2915 0.0
C919 C 0.15799 0.40577 0.3138 0.0
C920 C 0.12521 0.39734 0.26897 0.0
C921 C 0.16754 0.36939 0.31336 0.0
C922 C 0.15577 0.34705 0.2914 0.0
C923 C 0.12314 0.33837 0.24678 0.0
C924 C 0.1033 0.35231 0.22373 0.0
C925 C 0.1346 0.3607 0.26912 0.0
C926 C 0.09435 0.38881 0.22354 0.0
C927 C 0.10486 0.41106 0.24612 0.0
H928 H 0.60978 0.0684 0.2149 0.0
H929 H 0.70229 0.13763 0.21613 0.0
H930 H 0.68018 0.16607 0.25993 0.0
H931 H 0.63455 0.17125 0.29781 0.0
H932 H 0.54077 0.10378 0.29524 0.0
H933 H 0.56333 0.07482 0.25189 0.0
C934 C 0.62525 0.08956 0.22484 0.0
C935 C 0.65782 0.10064 0.21241 0.0
C936 C 0.61204 0.10624 0.24968 0.0
C937 C 0.67719 0.12853 0.22529 0.0
C938 C 0.66455 0.14481 0.25033 0.0
C939 C 0.61903 0.1502 0.28778 0.0
C940 C 0.58604 0.13962 0.29984 0.0
C941 C 0.632 0.13389 0.26269 0.0
C942 C 0.56614 0.11255 0.28638 0.0
C943 C 0.5791 0.09587 0.26164 0.0
H944 H 0.81746 0.61959 0.2678 0.0
H945 H 0.90999 0.57763 0.31161 0.0
H946 H 0.94883 0.60038 0.27315 0.0
H947 H 0.95633 0.63271 0.22711 0.0
H948 H 0.86351 0.6777 0.18536 0.0
H949 H 0.82506 0.65351 0.22306 0.0
C950 C 0.8461 0.61512 0.26878 0.0
C951 C 0.86083 0.59657 0.29227 0.0
C952 C 0.86825 0.62911 0.24708 0.0
C953 C 0.89805 0.59169 0.29362 0.0
C954 C 0.92024 0.60474 0.27168 0.0
C955 C 0.9277 0.63726 0.2263 0.0
C956 C 0.91289 0.65695 0.20337 0.0
C957 C 0.90564 0.62361 0.24833 0.0
C958 C 0.87573 0.66281 0.20279 0.0
C959 C 0.85363 0.64884 0.22429 0.0
H960 H 0.44074 0.89395 0.31131 0.0
H961 H 0.39486 0.7945 0.28226 0.0
H962 H 0.36962 0.82443 0.24045 0.0
H963 H 0.36186 0.87813 0.21111 0.0
H964 H 0.41086 0.97724 0.23732 0.0
H965 H 0.43339 0.94841 0.28105 0.0
C966 C 0.42512 0.879 0.29582 0.0
C967 C 0.41985 0.84204 0.29983 0.0
C968 C 0.41123 0.89631 0.27124 0.0
C969 C 0.3997 0.82289 0.27953 0.0
C970 C 0.38509 0.84 0.25562 0.0
C971 C 0.37722 0.89354 0.22649 0.0
C972 C 0.38451 0.9298 0.221 0.0
C973 C 0.39088 0.87659 0.25112 0.0
C974 C 0.4049 0.94923 0.241 0.0
C975 C 0.4178 0.93275 0.26603 0.0
H976 H 0.8782 0.66064 0.80837 0.0
H977 H 0.97869 0.62037 0.77653 0.0
H978 H 0.94849 0.59659 0.73396 0.0
H979 H 0.89336 0.58867 0.70527 0.0
H980 H 0.79284 0.62651 0.73922 0.0
H981 H 0.8232 0.64962 0.78153 0.0
C982 C 0.89352 0.64667 0.7921 0.0
C983 C 0.93063 0.64255 0.79541 0.0
C984 C 0.87594 0.63257 0.76809 0.0
C985 C 0.95005 0.62388 0.77442 0.0
C986 C 0.93281 0.61036 0.75008 0.0
C987 C 0.87816 0.60183 0.72202 0.0
C988 C 0.84093 0.60597 0.71905 0.0
C989 C 0.89576 0.61473 0.7466 0.0
C990 C 0.82149 0.6228 0.74101 0.0
C991 C 0.83883 0.6362 0.76519 0.0
H992 H 0.37524 0.92947 0.69912 0.0
H993 H 0.44846 0.85316 0.73616 0.0
H994 H 0.4286 0.8699 0.78449 0.0
H995 H 0.38518 0.90186 0.81595 0.0
H996 H 0.31068 0.97559 0.77709 0.0
H997 H 0.3364 0.96442 0.72996 0.0
C998 C 0.38724 0.91671 0.71772 0.0
C999 C 0.41297 0.88977 0.71394 0.0
C1000 C 0.37518 0.92588 0.74526 0.0
C1001 C 0.42849 0.87391 0.7384 0.0
C1002 C 0.41699 0.88335 0.76607 0.0
C1003 C 0.37513 0.91588 0.79718 0.0
C1004 C 0.34583 0.93925 0.79995 0.0
C1005 C 0.38959 0.90865 0.76976 0.0
C1006 C 0.3329 0.95713 0.77547 0.0
C1007 C 0.34759 0.95079 0.74848 0.0
H1008 H 0.12896 0.36245 0.8073 0.0
H1009 H 0.02501 0.4117 0.7998 0.0
H1010 H 0.04448 0.44303 0.75622 0.0
H1011 H 0.09129 0.4566 0.72038 0.0
H1012 H 0.19464 0.40596 0.72803 0.0
H1013 H 0.17509 0.37525 0.77155 0.0
C1014 C 0.11047 0.38002 0.79619 0.0
C1015 C 0.07557 0.38473 0.80688 0.0
C1016 C 0.12179 0.39786 0.77121 0.0
C1017 C 0.05199 0.40747 0.79203 0.0
C1018 C 0.06315 0.4255 0.76715 0.0
C1019 C 0.1096 0.43899 0.73164 0.0
C1020 C 0.14447 0.43381 0.72095 0.0
C1021 C 0.09805 0.42098 0.75659 0.0
C1022 C 0.16769 0.41057 0.73571 0.0
C1023 C 0.15653 0.39292 0.76063 0.0
H1024 H 0.6274 0.17212 0.71026 0.0
H1025 H 0.52725 0.11489 0.71571 0.0
H1026 H 0.54769 0.08474 0.75947 0.0
H1027 H 0.59409 0.07493 0.79644 0.0
H1028 H 0.69342 0.13374 0.79099 0.0
H1029 H 0.67321 0.16282 0.74696 0.0
C1030 C 0.61 0.15301 0.7209 0.0
C1031 C 0.57583 0.14581 0.70959 0.0
C1032 C 0.62181 0.13599 0.74612 0.0
C1033 C 0.55363 0.12109 0.72393 0.0
C1034 C 0.56534 0.10375 0.74895 0.0
C1035 C 0.61138 0.09396 0.78553 0.0
C1036 C 0.64527 0.10206 0.79707 0.0
C1037 C 0.59941 0.111 0.76026 0.0
C1038 C 0.66717 0.12707 0.78276 0.0
C1039 C 0.65565 0.14372 0.7575 0.0
H1040 H 0.05253 0.57896 0.1221 0.0
H1041 H 0.94073 0.5754 0.09915 0.0
H1042 H 0.94253 0.51028 0.09874 0.0
H1043 H 0.97552 0.45385 0.10551 0.0
H1044 H 0.08797 0.45787 0.12648 0.0
H1045 H 0.08599 0.52278 0.12698 0.0
C1046 C 0.02859 0.56411 0.11667 0.0
C1047 C 0.99649 0.58257 0.11085 0.0
C1048 C 0.0298 0.52639 0.11625 0.0
C1049 C 0.96574 0.56234 0.10423 0.0
C1050 C 0.96676 0.52489 0.10382 0.0
C1051 C 0.99972 0.46878 0.10995 0.0
C1052 C 0.03176 0.45036 0.11621 0.0
C1053 C 0.9986 0.50655 0.10992 0.0
C1054 C 0.06266 0.47072 0.12214 0.0
C1055 C 0.06167 0.50813 0.12223 0.0
H1056 H 0.4588 0.04228 0.10117 0.0
H1057 H 0.46272 0.93002 0.12348 0.0
H1058 H 0.52771 0.93257 0.12443 0.0
H1059 H 0.58406 0.9674 0.12115 0.0
H1060 H 0.57909 0.07883 0.09692 0.0
H1061 H 0.51423 0.07551 0.09435 0.0
C1062 C 0.47348 0.01808 0.10591 0.0
C1063 C 0.45504 0.98611 0.11258 0.0
C1064 C 0.51111 0.01955 0.10625 0.0
C1065 C 0.47548 0.95532 0.11874 0.0
C1066 C 0.51296 0.95665 0.11918 0.0
C1067 C 0.56882 0.99081 0.11496 0.0
C1068 C 0.58669 0.02348 0.10978 0.0
C1069 C 0.53113 0.98874 0.11332 0.0
C1070 C 0.56628 0.05355 0.10181 0.0
C1071 C 0.52904 0.05165 0.10013 0.0
H1072 H 0.57285 0.05474 0.40149 0.0
H1073 H 0.4604 0.08008 0.39811 0.0
H1074 H 0.44545 0.01662 0.39802 0.0
H1075 H 0.46403 0.95351 0.39973 0.0
H1076 H 0.57642 0.92797 0.4028 0.0
H1077 H 0.5915 0.99148 0.40209 0.0
C1078 C 0.5451 0.04641 0.4005 0.0
C1079 C 0.51787 0.07241 0.40002 0.0
C1080 C 0.53658 1.00962 0.40046 0.0
C1081 C 0.48199 0.06088 0.39902 0.0
C1082 C 0.47336 0.02447 0.39877 0.0
C1083 C 0.49182 0.96179 0.39995 0.0
C1084 C 0.51897 0.93576 0.40144 0.0
C1085 C 0.50039 0.99854 0.39962 0.0
C1086 C 0.55487 0.94723 0.40208 0.0
C1087 C 0.56358 0.98365 0.40153 0.0
H1088 H 0.95475 0.46707 0.41249 0.0
H1089 H 0.96069 0.58058 0.39562 0.0
H1090 H 0.02568 0.57791 0.39633 0.0
H1091 H 0.08111 0.54346 0.40079 0.0
H1092 H 0.07575 0.43036 0.41927 0.0
H1093 H 1.01053 0.43292 0.41895 0.0
C1094 C 0.97016 0.49132 0.40925 0.0
C1095 C 0.95243 0.52392 0.40375 0.0
C1096 C 1.00784 0.48972 0.4099 0.0
C1097 C 0.97322 0.55493 0.39933 0.0
C1098 C 1.01058 0.55351 0.39993 0.0
C1099 C 0.06583 0.5194 0.40515 0.0
C1100 C 0.08368 0.48673 0.40996 0.0
C1101 C 0.0282 0.52105 0.40506 0.0
C1102 C 0.06302 0.45581 0.41508 0.0
C1103 C 0.02559 0.45727 0.41505 0.0
H1104 H 0.05269 0.58595 0.90242 0.0
H1105 H 0.93786 0.58208 0.9112 0.0
H1106 H 0.93996 0.51699 0.91512 0.0
H1107 H 0.9742 0.46087 0.91393 0.0
H1108 H 0.08917 0.46505 0.906 0.0
H1109 H 0.08717 0.53014 0.90393 0.0
C1110 C 0.02816 0.57099 0.90566 0.0
C1111 C 0.99515 0.58905 0.90634 0.0
C1112 C 0.02954 0.53346 0.90781 0.0
C1113 C 0.9636 0.56896 0.91015 0.0
C1114 C 0.96479 0.53168 0.9125 0.0
C1115 C 0.99887 0.47597 0.91213 0.0
C1116 C 0.03174 0.45782 0.90986 0.0
C1117 C 0.99757 0.51358 0.91101 0.0
C1118 C 0.06339 0.47806 0.90722 0.0
C1119 C 0.06232 0.5154 0.90622 0.0
H1120 H 0.57533 0.97858 0.89978 0.0
H1121 H 0.57283 0.09253 0.91388 0.0
H1122 H 0.50777 0.09035 0.91841 0.0
H1123 H 0.45117 0.05616 0.91692 0.0
H1124 H 0.45484 0.94193 0.90429 0.0
H1125 H 0.51972 0.94424 0.90086 0.0
C1126 C 0.56079 1.00293 0.90429 0.0
C1127 C 0.57926 0.03569 0.90636 0.0
C1128 C 0.52337 1.00149 0.90699 0.0
C1129 C 0.5595 0.06698 0.91174 0.0
C1130 C 0.5222 0.06574 0.91448 0.0
C1131 C 0.46616 0.03173 0.91375 0.0
C1132 C 0.44784 0.99899 0.91053 0.0
C1133 C 0.50378 0.03316 0.91191 0.0
C1134 C 0.46791 0.96764 0.90621 0.0
C1135 C 0.50517 0.96887 0.90443 0.0
H1136 H 0.46457 0.96258 0.61333 0.0
H1137 H 0.57726 0.93863 0.61588 0.0
H1138 H 0.5915 1.00242 0.61269 0.0
H1139 H 0.5717 0.0653 0.60951 0.0
H1140 H 0.4588 0.08858 0.60668 0.0
H1141 H 0.44487 0.02496 0.60964 0.0
C1142 C 0.49222 0.97135 0.61342 0.0
C1143 C 0.51978 0.94588 0.61496 0.0
C1144 C 0.50018 1.00802 0.61144 0.0
C1145 C 0.55554 0.95766 0.61446 0.0
C1146 C 0.56369 0.99415 0.61279 0.0
C1147 C 0.54409 0.05641 0.60969 0.0
C1148 C 0.51637 0.08173 0.6078 0.0
C1149 C 0.53622 0.01961 0.61132 0.0
C1150 C 0.48068 0.06971 0.60769 0.0
C1151 C 0.47266 0.0333 0.60957 0.0
H1152 H 0.95163 0.47047 0.60954 0.0
H1153 H 0.9552 0.58562 0.61518 0.0
H1154 H 0.02021 0.58429 0.61484 0.0
H1155 H 0.07613 0.55082 0.61412 0.0
H1156 H 0.07402 0.4358 0.60781 0.0
H1157 H 1.00854 0.43672 0.60714 0.0
C1158 C 0.96664 0.49526 0.61045 0.0
C1159 C 0.9483 0.52806 0.61271 0.0
C1160 C 1.00437 0.49437 0.61014 0.0
C1161 C 0.96834 0.55992 0.61408 0.0
C1162 C 1.00566 0.55924 0.61365 0.0
C1163 C 0.06151 0.52593 0.61209 0.0
C1164 C 0.08019 0.4933 0.61089 0.0
C1165 C 0.02395 0.52666 0.61184 0.0
C1166 C 0.06046 0.4613 0.60898 0.0
C1167 C 0.02296 0.46182 0.60852 0.0
loop_
_geom_bond_atom_site_label_1
_geom_bond_atom_site_label_2
_geom_bond_distance
_geom_bond_site_symmetry_2
_ccdc_geom_bond_type
Co0 N4 2.148 . S
Co0 N10 2.128 . S
Co0 N20 2.194 . S
Co0 O25 2.351 . S
Co0 O26 2.155 . S
Co0 O27 2.096 . S
C1 N4 1.301 . S
C1 N5 1.328 . S
C1 H6 0.930 . S
C2 C3 1.333 . S
C2 N4 1.317 . S
C2 H7 0.930 . S
C3 C2 1.333 . S
C3 N5 1.350 . S
C3 H29 0.931 . S
N4 Co0 2.148 . S
N4 C1 1.301 . S
N4 C2 1.317 . S
N5 C1 1.328 . S
N5 C3 1.350 . S
H6 C1 0.930 . S
H7 C2 0.930 . S
C8 O9 1.224 . S
C8 O27 1.247 . S
O9 C8 1.224 . S
N10 Co0 2.128 . S
N10 C11 1.355 . S
N10 C13 1.311 . S
C11 N10 1.355 . S
C11 C12 1.363 . S
C11 H23 0.929 . S
C12 C11 1.363 . S
C12 N14 1.375 . S
C12 H30 0.931 1_455 S
C13 N10 1.311 . S
C13 N14 1.347 . S
C13 H24 0.929 . S
N14 C12 1.375 . S
N14 C13 1.347 . S
C15 C18 1.365 1_455 S
C15 N20 1.328 . S
C15 H21 0.929 . S
C16 C17 1.362 . S
C16 C19 1.378 1_655 S
C16 H31 0.929 . S
C17 C16 1.362 . S
C17 C18 1.366 . S
C18 C15 1.365 1_655 S
C18 C17 1.366 . S
C18 H32 0.930 . S
C19 C16 1.378 1_455 S
C19 N20 1.315 . S
C19 H22 0.930 . S
N20 Co0 2.194 . S
N20 C15 1.328 . S
N20 C19 1.315 . S
H21 C15 0.929 . S
H22 C19 0.930 . S
H23 C11 0.929 . S
H24 C13 0.929 . S
O25 Co0 2.351 . S
O25 C28 1.244 . S
O26 Co0 2.155 . S
O26 C28 1.240 . S
O27 Co0 2.096 . S
O27 C8 1.247 . S
C28 O25 1.244 . S
C28 O26 1.240 . S
H29 C3 0.931 . S
H30 C12 0.931 1_655 S
H31 C16 0.929 . S
H32 C18 0.930 . S
Co33 N37 2.148 . S
Co33 N43 2.128 . S
Co33 N53 2.194 . S
Co33 O58 2.351 . S
Co33 O59 2.155 . S
Co33 O60 2.096 . S
C34 N37 1.301 . S
C34 N38 1.328 . S
C34 H39 0.930 . S
C35 C36 1.333 . S
C35 N37 1.317 . S
C35 H40 0.930 . S
C36 C35 1.333 . S
C36 N38 1.350 . S
C36 H62 0.931 . S
N37 Co33 2.148 . S
N37 C34 1.301 . S
N37 C35 1.317 . S
N38 C34 1.328 . S
N38 C36 1.350 . S
H39 C34 0.930 . S
H40 C35 0.930 . S
C41 O42 1.224 . S
C41 O60 1.247 . S
O42 C41 1.224 . S
N43 Co33 2.128 . S
N43 C44 1.355 . S
N43 C46 1.311 . S
C44 N43 1.355 . S
C44 C45 1.363 . S
C44 H56 0.929 . S
C45 C44 1.363 . S
C45 N47 1.375 . S
C45 H63 0.931 1_545 S
C46 N43 1.311 . S
C46 N47 1.347 . S
C46 H57 0.929 . S
N47 C45 1.375 . S
N47 C46 1.347 . S
C48 C51 1.365 1_545 S
C48 N53 1.328 . S
C48 H54 0.929 . S
C49 C50 1.362 . S
C49 C52 1.378 1_565 S
C49 H64 0.929 . S
C50 C49 1.362 . S
C50 C51 1.366 . S
C51 C48 1.365 1_565 S
C51 C50 1.366 . S
C51 H65 0.930 . S
C52 C49 1.378 1_545 S
C52 N53 1.315 . S
C52 H55 0.930 . S
N53 Co33 2.194 . S
N53 C48 1.328 . S
N53 C52 1.315 . S
H54 C48 0.929 . S
H55 C52 0.930 . S
H56 C44 0.929 . S
H57 C46 0.929 . S
O58 Co33 2.351 . S
O58 C61 1.244 . S
O59 Co33 2.155 . S
O59 C61 1.240 . S
O60 Co33 2.096 . S
O60 C41 1.247 . S
C61 O58 1.244 . S
C61 O59 1.240 . S
H62 C36 0.931 . S
H63 C45 0.931 1_565 S
H64 C49 0.929 . S
H65 C51 0.930 . S
Co66 N70 2.148 . S
Co66 N76 2.128 . S
Co66 N86 2.194 . S
Co66 O91 2.351 . S
Co66 O92 2.155 . S
Co66 O93 2.096 . S
C67 N70 1.301 . S
C67 N71 1.328 . S
C67 H72 0.930 . S
C68 C69 1.333 . S
C68 N70 1.317 . S
C68 H73 0.930 . S
C69 C68 1.333 . S
C69 N71 1.350 . S
C69 H95 0.931 . S
N70 Co66 2.148 . S
N70 C67 1.301 . S
N70 C68 1.317 . S
N71 C67 1.328 . S
N71 C69 1.350 . S
H72 C67 0.930 . S
H73 C68 0.930 . S
C74 O75 1.224 . S
C74 O93 1.247 . S
O75 C74 1.224 . S
N76 Co66 2.128 . S
N76 C77 1.355 . S
N76 C79 1.311 . S
C77 N76 1.355 . S
C77 C78 1.363 . S
C77 H89 0.929 . S
C78 C77 1.363 . S
C78 N80 1.375 . S
C78 H96 0.931 1_655 S
C79 N76 1.311 . S
C79 N80 1.347 . S
C79 H90 0.929 . S
N80 C78 1.375 . S
N80 C79 1.347 . S
C81 C84 1.365 1_655 S
C81 N86 1.328 . S
C81 H87 0.929 . S
C82 C83 1.362 . S
C82 C85 1.378 1_455 S
C82 H97 0.929 . S
C83 C82 1.362 . S
C83 C84 1.366 . S
C84 C81 1.365 1_455 S
C84 C83 1.366 . S
C84 H98 0.930 . S
C85 C82 1.378 1_655 S
C85 N86 1.315 . S
C85 H88 0.930 . S
N86 Co66 2.194 . S
N86 C81 1.328 . S
N86 C85 1.315 . S
H87 C81 0.929 . S
H88 C85 0.930 . S
H89 C77 0.929 . S
H90 C79 0.929 . S
O91 Co66 2.351 . S
O91 C94 1.244 . S
O92 Co66 2.155 . S
O92 C94 1.240 . S
O93 Co66 2.096 . S
O93 C74 1.247 . S
C94 O91 1.244 . S
C94 O92 1.240 . S
H95 C69 0.931 . S
H96 C78 0.931 1_455 S
H97 C82 0.929 . S
H98 C84 0.930 . S
Co99 N103 2.148 . S
Co99 N109 2.128 . S
Co99 N119 2.194 . S
Co99 O124 2.351 . S
Co99 O125 2.155 . S
Co99 O126 2.096 . S
C100 N103 1.301 . S
C100 N104 1.328 . S
C100 H105 0.930 . S
C101 C102 1.333 . S
C101 N103 1.317 . S
C101 H106 0.930 . S
C102 C101 1.333 . S
C102 N104 1.350 . S
C102 H128 0.931 . S
N103 Co99 2.148 . S
N103 C100 1.301 . S
N103 C101 1.317 . S
N104 C100 1.328 . S
N104 C102 1.350 . S
H105 C100 0.930 . S
H106 C101 0.930 . S
C107 O108 1.224 . S
C107 O126 1.247 . S
O108 C107 1.224 . S
N109 Co99 2.128 . S
N109 C110 1.355 . S
N109 C112 1.311 . S
C110 N109 1.355 . S
C110 C111 1.363 . S
C110 H122 0.929 . S
C111 C110 1.363 . S
C111 N113 1.375 . S
C111 H129 0.931 1_565 S
C112 N109 1.311 . S
C112 N113 1.347 . S
C112 H123 0.929 . S
N113 C111 1.375 . S
N113 C112 1.347 . S
C114 C117 1.365 1_565 S
C114 N119 1.328 . S
C114 H120 0.929 . S
C115 C116 1.362 . S
C115 C118 1.378 1_545 S
C115 H130 0.929 . S
C116 C115 1.362 . S
C116 C117 1.366 . S
C117 C114 1.365 1_545 S
C117 C116 1.366 . S
C117 H131 0.930 . S
C118 C115 1.378 1_565 S
C118 N119 1.315 . S
C118 H121 0.930 . S
N119 Co99 2.194 . S
N119 C114 1.328 . S
N119 C118 1.315 . S
H120 C114 0.929 . S
H121 C118 0.930 . S
H122 C110 0.929 . S
H123 C112 0.929 . S
O124 Co99 2.351 . S
O124 C127 1.244 . S
O125 Co99 2.155 . S
O125 C127 1.240 . S
O126 Co99 2.096 . S
O126 C107 1.247 . S
C127 O124 1.244 . S
C127 O125 1.240 . S
H128 C102 0.931 . S
H129 C111 0.931 1_545 S
H130 C115 0.929 . S
H131 C117 0.930 . S
Co132 N136 2.148 . S
Co132 N142 2.128 . S
Co132 N152 2.194 . S
Co132 O157 2.351 . S
Co132 O158 2.155 . S
Co132 O159 2.096 . S
C133 N136 1.301 . S
C133 N137 1.328 . S
C133 H138 0.930 . S
C134 C135 1.333 . S
C134 N136 1.317 . S
C134 H139 0.930 . S
C135 C134 1.333 . S
C135 N137 1.350 . S
C135 H161 0.931 . S
N136 Co132 2.148 . S
N136 C133 1.301 . S
N136 C134 1.317 . S
N137 C133 1.328 . S
N137 C135 1.350 . S
H138 C133 0.930 . S
H139 C134 0.930 . S
C140 O141 1.224 . S
C140 O159 1.247 . S
O141 C140 1.224 . S
N142 Co132 2.128 . S
N142 C143 1.355 . S
N142 C145 1.311 . S
C143 N142 1.355 . S
C143 C144 1.363 . S
C143 H155 0.929 . S
C144 C143 1.363 . S
C144 N146 1.375 . S
C144 H162 0.931 . S
C145 N142 1.311 . S
C145 N146 1.347 . S
C145 H156 0.929 . S
N146 C144 1.375 . S
N146 C145 1.347 . S
C147 C150 1.365 . S
C147 N152 1.328 . S
C147 H153 0.929 . S
C148 C149 1.362 . S
C148 C151 1.378 . S
C148 H163 0.929 . S
C149 C148 1.362 . S
C149 C150 1.366 . S
C150 C147 1.365 . S
C150 C149 1.366 . S
C150 H164 0.930 . S
C151 C148 1.378 . S
C151 N152 1.315 . S
C151 H154 0.930 . S
N152 Co132 2.194 . S
N152 C147 1.328 . S
N152 C151 1.315 . S
H153 C147 0.929 . S
H154 C151 0.930 . S
H155 C143 0.929 . S
H156 C145 0.929 . S
O157 Co132 2.351 . S
O157 C160 1.244 . S
O158 Co132 2.155 . S
O158 C160 1.240 . S
O159 Co132 2.096 . S
O159 C140 1.247 . S
C160 O157 1.244 . S
C160 O158 1.240 . S
H161 C135 0.931 . S
H162 C144 0.931 . S
H163 C148 0.929 . S
H164 C150 0.930 . S
Co165 N169 2.148 . S
Co165 N175 2.128 . S
Co165 N185 2.194 . S
Co165 O190 2.351 . S
Co165 O191 2.155 . S
Co165 O192 2.096 . S
C166 N169 1.301 . S
C166 N170 1.328 . S
C166 H171 0.930 . S
C167 C168 1.333 . S
C167 N169 1.317 . S
C167 H172 0.930 . S
C168 C167 1.333 . S
C168 N170 1.350 . S
C168 H194 0.931 . S
N169 Co165 2.148 . S
N169 C166 1.301 . S
N169 C167 1.317 . S
N170 C166 1.328 . S
N170 C168 1.350 . S
H171 C166 0.930 . S
H172 C167 0.930 . S
C173 O174 1.224 . S
C173 O192 1.247 . S
O174 C173 1.224 . S
N175 Co165 2.128 . S
N175 C176 1.355 . S
N175 C178 1.311 . S
C176 N175 1.355 . S
C176 C177 1.363 . S
C176 H188 0.929 . S
C177 C176 1.363 . S
C177 N179 1.375 . S
C177 H195 0.931 . S
C178 N175 1.311 . S
C178 N179 1.347 . S
C178 H189 0.929 . S
N179 C177 1.375 . S
N179 C178 1.347 . S
C180 C183 1.365 . S
C180 N185 1.328 . S
C180 H186 0.929 . S
C181 C182 1.362 . S
C181 C184 1.378 . S
C181 H196 0.929 . S
C182 C181 1.362 . S
C182 C183 1.366 . S
C183 C180 1.365 . S
C183 C182 1.366 . S
C183 H197 0.930 . S
C184 C181 1.378 . S
C184 N185 1.315 . S
C184 H187 0.930 . S
N185 Co165 2.194 . S
N185 C180 1.328 . S
N185 C184 1.315 . S
H186 C180 0.929 . S
H187 C184 0.930 . S
H188 C176 0.929 . S
H189 C178 0.929 . S
O190 Co165 2.351 . S
O190 C193 1.244 . S
O191 Co165 2.155 . S
O191 C193 1.240 . S
O192 Co165 2.096 . S
O192 C173 1.247 . S
C193 O190 1.244 . S
C193 O191 1.240 . S
H194 C168 0.931 . S
H195 C177 0.931 . S
H196 C181 0.929 . S
H197 C183 0.930 . S
Co198 N202 2.148 . S
Co198 N208 2.128 . S
Co198 N218 2.194 . S
Co198 O223 2.351 . S
Co198 O224 2.155 . S
Co198 O225 2.096 . S
C199 N202 1.301 . S
C199 N203 1.328 . S
C199 H204 0.930 . S
C200 C201 1.333 . S
C200 N202 1.317 . S
C200 H205 0.930 . S
C201 C200 1.333 . S
C201 N203 1.350 . S
C201 H227 0.931 . S
N202 Co198 2.148 . S
N202 C199 1.301 . S
N202 C200 1.317 . S
N203 C199 1.328 . S
N203 C201 1.350 . S
H204 C199 0.930 . S
H205 C200 0.930 . S
C206 O207 1.224 . S
C206 O225 1.247 . S
O207 C206 1.224 . S
N208 Co198 2.128 . S
N208 C209 1.355 . S
N208 C211 1.311 . S
C209 N208 1.355 . S
C209 C210 1.363 . S
C209 H221 0.929 . S
C210 C209 1.363 . S
C210 N212 1.375 . S
C210 H228 0.931 . S
C211 N208 1.311 . S
C211 N212 1.347 . S
C211 H222 0.929 . S
N212 C210 1.375 . S
N212 C211 1.347 . S
C213 C216 1.365 . S
C213 N218 1.328 . S
C213 H219 0.929 . S
C214 C215 1.362 . S
C214 C217 1.378 . S
C214 H229 0.929 . S
C215 C214 1.362 . S
C215 C216 1.366 . S
C216 C213 1.365 . S
C216 C215 1.366 . S
C216 H230 0.930 . S
C217 C214 1.378 . S
C217 N218 1.315 . S
C217 H220 0.930 . S
N218 Co198 2.194 . S
N218 C213 1.328 . S
N218 C217 1.315 . S
H219 C213 0.929 . S
H220 C217 0.930 . S
H221 C209 0.929 . S
H222 C211 0.929 . S
O223 Co198 2.351 . S
O223 C226 1.244 . S
O224 Co198 2.155 . S
O224 C226 1.240 . S
O225 Co198 2.096 . S
O225 C206 1.247 . S
C226 O223 1.244 . S
C226 O224 1.240 . S
H227 C201 0.931 . S
H228 C210 0.931 . S
H229 C214 0.929 . S
H230 C216 0.930 . S
Co231 N235 2.148 . S
Co231 N241 2.128 . S
Co231 N251 2.194 . S
Co231 O256 2.351 . S
Co231 O257 2.155 . S
Co231 O258 2.096 . S
C232 N235 1.301 . S
C232 N236 1.328 . S
C232 H237 0.930 . S
C233 C234 1.333 . S
C233 N235 1.317 . S
C233 H238 0.930 . S
C234 C233 1.333 . S
C234 N236 1.350 . S
C234 H260 0.931 . S
N235 Co231 2.148 . S
N235 C232 1.301 . S
N235 C233 1.317 . S
N236 C232 1.328 . S
N236 C234 1.350 . S
H237 C232 0.930 . S
H238 C233 0.930 . S
C239 O240 1.224 . S
C239 O258 1.247 . S
O240 C239 1.224 . S
N241 Co231 2.128 . S
N241 C242 1.355 . S
N241 C244 1.311 . S
C242 N241 1.355 . S
C242 C243 1.363 . S
C242 H254 0.929 . S
C243 C242 1.363 . S
C243 N245 1.375 . S
C243 H261 0.931 . S
C244 N241 1.311 . S
C244 N245 1.347 . S
C244 H255 0.929 . S
N245 C243 1.375 . S
N245 C244 1.347 . S
C246 C249 1.365 . S
C246 N251 1.328 . S
C246 H252 0.929 . S
C247 C248 1.362 . S
C247 C250 1.378 . S
C247 H262 0.929 . S
C248 C247 1.362 . S
C248 C249 1.366 . S
C249 C246 1.365 . S
C249 C248 1.366 . S
C249 H263 0.930 . S
C250 C247 1.378 . S
C250 N251 1.315 . S
C250 H253 0.930 . S
N251 Co231 2.194 . S
N251 C246 1.328 . S
N251 C250 1.315 . S
H252 C246 0.929 . S
H253 C250 0.930 . S
H254 C242 0.929 . S
H255 C244 0.929 . S
O256 Co231 2.351 . S
O256 C259 1.244 . S
O257 Co231 2.155 . S
O257 C259 1.240 . S
O258 Co231 2.096 . S
O258 C239 1.247 . S
C259 O256 1.244 . S
C259 O257 1.240 . S
H260 C234 0.931 . S
H261 C243 0.931 . S
H262 C247 0.929 . S
H263 C249 0.930 . S
Co264 N268 2.148 . S
Co264 N274 2.128 . S
Co264 N284 2.194 . S
Co264 O289 2.351 . S
Co264 O290 2.155 . S
Co264 O291 2.096 . S
C265 N268 1.301 . S
C265 N269 1.328 . S
C265 H270 0.930 . S
C266 C267 1.333 . S
C266 N268 1.317 . S
C266 H271 0.930 . S
C267 C266 1.333 . S
C267 N269 1.350 . S
C267 H293 0.931 . S
N268 Co264 2.148 . S
N268 C265 1.301 . S
N268 C266 1.317 . S
N269 C265 1.328 . S
N269 C267 1.350 . S
H270 C265 0.930 . S
H271 C266 0.930 . S
C272 O273 1.224 . S
C272 O291 1.247 . S
O273 C272 1.224 . S
N274 Co264 2.128 . S
N274 C275 1.355 . S
N274 C277 1.311 . S
C275 N274 1.355 . S
C275 C276 1.363 . S
C275 H287 0.929 . S
C276 C275 1.363 . S
C276 N278 1.375 . S
C276 H294 0.931 1_655 S
C277 N274 1.311 . S
C277 N278 1.347 . S
C277 H288 0.929 . S
N278 C276 1.375 . S
N278 C277 1.347 . S
C279 C282 1.365 1_655 S
C279 N284 1.328 . S
C279 H285 0.929 . S
C280 C281 1.362 . S
C280 C283 1.378 1_455 S
C280 H295 0.929 . S
C281 C280 1.362 . S
C281 C282 1.366 . S
C282 C279 1.365 1_455 S
C282 C281 1.366 . S
C282 H296 0.930 . S
C283 C280 1.378 1_655 S
C283 N284 1.315 . S
C283 H286 0.930 . S
N284 Co264 2.194 . S
N284 C279 1.328 . S
N284 C283 1.315 . S
H285 C279 0.929 . S
H286 C283 0.930 . S
H287 C275 0.929 . S
H288 C277 0.929 . S
O289 Co264 2.351 . S
O289 C292 1.244 . S
O290 Co264 2.155 . S
O290 C292 1.240 . S
O291 Co264 2.096 . S
O291 C272 1.247 . S
C292 O289 1.244 . S
C292 O290 1.240 . S
H293 C267 0.931 . S
H294 C276 0.931 1_455 S
H295 C280 0.929 . S
H296 C282 0.930 . S
Co297 N301 2.148 . S
Co297 N307 2.128 . S
Co297 N317 2.194 . S
Co297 O322 2.351 . S
Co297 O323 2.155 . S
Co297 O324 2.096 . S
C298 N301 1.301 . S
C298 N302 1.328 . S
C298 H303 0.930 . S
C299 C300 1.333 . S
C299 N301 1.317 . S
C299 H304 0.930 . S
C300 C299 1.333 . S
C300 N302 1.350 . S
C300 H326 0.931 . S
N301 Co297 2.148 . S
N301 C298 1.301 . S
N301 C299 1.317 . S
N302 C298 1.328 . S
N302 C300 1.350 . S
H303 C298 0.930 . S
H304 C299 0.930 . S
C305 O306 1.224 . S
C305 O324 1.247 . S
O306 C305 1.224 . S
N307 Co297 2.128 . S
N307 C308 1.355 . S
N307 C310 1.311 . S
C308 N307 1.355 . S
C308 C309 1.363 . S
C308 H320 0.929 . S
C309 C308 1.363 . S
C309 N311 1.375 . S
C309 H327 0.931 1_565 S
C310 N307 1.311 . S
C310 N311 1.347 . S
C310 H321 0.929 . S
N311 C309 1.375 . S
N311 C310 1.347 . S
C312 C315 1.365 1_565 S
C312 N317 1.328 . S
C312 H318 0.929 . S
C313 C314 1.362 . S
C313 C316 1.378 1_545 S
C313 H328 0.929 . S
C314 C313 1.362 . S
C314 C315 1.366 . S
C315 C312 1.365 1_545 S
C315 C314 1.366 . S
C315 H329 0.930 . S
C316 C313 1.378 1_565 S
C316 N317 1.315 . S
C316 H319 0.930 . S
N317 Co297 2.194 . S
N317 C312 1.328 . S
N317 C316 1.315 . S
H318 C312 0.929 . S
H319 C316 0.930 . S
H320 C308 0.929 . S
H321 C310 0.929 . S
O322 Co297 2.351 . S
O322 C325 1.244 . S
O323 Co297 2.155 . S
O323 C325 1.240 . S
O324 Co297 2.096 . S
O324 C305 1.247 . S
C325 O322 1.244 . S
C325 O323 1.240 . S
H326 C300 0.931 . S
H327 C309 0.931 1_545 S
H328 C313 0.929 . S
H329 C315 0.930 . S
Co330 N334 2.148 . S
Co330 N340 2.128 . S
Co330 N350 2.194 . S
Co330 O355 2.351 . S
Co330 O356 2.155 . S
Co330 O357 2.096 . S
C331 N334 1.301 . S
C331 N335 1.328 . S
C331 H336 0.930 . S
C332 C333 1.333 . S
C332 N334 1.317 . S
C332 H337 0.930 . S
C333 C332 1.333 . S
C333 N335 1.350 . S
C333 H359 0.931 . S
N334 Co330 2.148 . S
N334 C331 1.301 . S
N334 C332 1.317 . S
N335 C331 1.328 . S
N335 C333 1.350 . S
H336 C331 0.930 . S
H337 C332 0.930 . S
C338 O339 1.224 . S
C338 O357 1.247 . S
O339 C338 1.224 . S
N340 Co330 2.128 . S
N340 C341 1.355 . S
N340 C343 1.311 . S
C341 N340 1.355 . S
C341 C342 1.363 . S
C341 H353 0.929 . S
C342 C341 1.363 . S
C342 N344 1.375 . S
C342 H360 0.931 1_455 S
C343 N340 1.311 . S
C343 N344 1.347 . S
C343 H354 0.929 . S
N344 C342 1.375 . S
N344 C343 1.347 . S
C345 C348 1.365 1_455 S
C345 N350 1.328 . S
C345 H351 0.929 . S
C346 C347 1.362 . S
C346 C349 1.378 1_655 S
C346 H361 0.929 . S
C347 C346 1.362 . S
C347 C348 1.366 . S
C348 C345 1.365 1_655 S
C348 C347 1.366 . S
C348 H362 0.930 . S
C349 C346 1.378 1_455 S
C349 N350 1.315 . S
C349 H352 0.930 . S
N350 Co330 2.194 . S
N350 C345 1.328 . S
N350 C349 1.315 . S
H351 C345 0.929 . S
H352 C349 0.930 . S
H353 C341 0.929 . S
H354 C343 0.929 . S
O355 Co330 2.351 . S
O355 C358 1.244 . S
O356 Co330 2.155 . S
O356 C358 1.240 . S
O357 Co330 2.096 . S
O357 C338 1.247 . S
C358 O355 1.244 . S
C358 O356 1.240 . S
H359 C333 0.931 . S
H360 C342 0.931 1_655 S
H361 C346 0.929 . S
H362 C348 0.930 . S
Co363 N367 2.148 . S
Co363 N373 2.128 . S
Co363 N383 2.194 . S
Co363 O388 2.351 . S
Co363 O389 2.155 . S
Co363 O390 2.096 . S
C364 N367 1.301 . S
C364 N368 1.328 . S
C364 H369 0.930 . S
C365 C366 1.333 . S
C365 N367 1.317 . S
C365 H370 0.930 . S
C366 C365 1.333 . S
C366 N368 1.350 . S
C366 H392 0.931 . S
N367 Co363 2.148 . S
N367 C364 1.301 . S
N367 C365 1.317 . S
N368 C364 1.328 . S
N368 C366 1.350 . S
H369 C364 0.930 . S
H370 C365 0.930 . S
C371 O372 1.224 . S
C371 O390 1.247 . S
O372 C371 1.224 . S
N373 Co363 2.128 . S
N373 C374 1.355 . S
N373 C376 1.311 . S
C374 N373 1.355 . S
C374 C375 1.363 . S
C374 H386 0.929 . S
C375 C374 1.363 . S
C375 N377 1.375 . S
C375 H393 0.931 1_545 S
C376 N373 1.311 . S
C376 N377 1.347 . S
C376 H387 0.929 . S
N377 C375 1.375 . S
N377 C376 1.347 . S
C378 C381 1.365 1_545 S
C378 N383 1.328 . S
C378 H384 0.929 . S
C379 C380 1.362 . S
C379 C382 1.378 1_565 S
C379 H394 0.929 . S
C380 C379 1.362 . S
C380 C381 1.366 . S
C381 C378 1.365 1_565 S
C381 C380 1.366 . S
C381 H395 0.930 . S
C382 C379 1.378 1_545 S
C382 N383 1.315 . S
C382 H385 0.930 . S
N383 Co363 2.194 . S
N383 C378 1.328 . S
N383 C382 1.315 . S
H384 C378 0.929 . S
H385 C382 0.930 . S
H386 C374 0.929 . S
H387 C376 0.929 . S
O388 Co363 2.351 . S
O388 C391 1.244 . S
O389 Co363 2.155 . S
O389 C391 1.240 . S
O390 Co363 2.096 . S
O390 C371 1.247 . S
C391 O388 1.244 . S
C391 O389 1.240 . S
H392 C366 0.931 . S
H393 C375 0.931 1_565 S
H394 C379 0.929 . S
H395 C381 0.930 . S
Co396 N400 2.148 . S
Co396 N406 2.128 . S
Co396 N416 2.194 . S
Co396 O421 2.351 . S
Co396 O422 2.155 . S
Co396 O423 2.096 . S
C397 N400 1.301 . S
C397 N401 1.328 . S
C397 H402 0.930 . S
C398 C399 1.333 . S
C398 N400 1.317 . S
C398 H403 0.930 . S
C399 C398 1.333 . S
C399 N401 1.350 . S
C399 H425 0.931 . S
N400 Co396 2.148 . S
N400 C397 1.301 . S
N400 C398 1.317 . S
N401 C397 1.328 . S
N401 C399 1.350 . S
H402 C397 0.930 . S
H403 C398 0.930 . S
C404 O405 1.224 . S
C404 O423 1.247 . S
O405 C404 1.224 . S
N406 Co396 2.128 . S
N406 C407 1.355 . S
N406 C409 1.311 . S
C407 N406 1.355 . S
C407 C408 1.363 . S
C407 H419 0.929 . S
C408 C407 1.363 . S
C408 N410 1.375 . S
C408 H426 0.931 . S
C409 N406 1.311 . S
C409 N410 1.347 . S
C409 H420 0.929 . S
N410 C408 1.375 . S
N410 C409 1.347 . S
C411 C414 1.365 . S
C411 N416 1.328 . S
C411 H417 0.929 . S
C412 C413 1.362 . S
C412 C415 1.378 . S
C412 H427 0.929 . S
C413 C412 1.362 . S
C413 C414 1.366 . S
C414 C411 1.365 . S
C414 C413 1.366 . S
C414 H428 0.930 . S
C415 C412 1.378 . S
C415 N416 1.315 . S
C415 H418 0.930 . S
N416 Co396 2.194 . S
N416 C411 1.328 . S
N416 C415 1.315 . S
H417 C411 0.929 . S
H418 C415 0.930 . S
H419 C407 0.929 . S
H420 C409 0.929 . S
O421 Co396 2.351 . S
O421 C424 1.244 . S
O422 Co396 2.155 . S
O422 C424 1.240 . S
O423 Co396 2.096 . S
O423 C404 1.247 . S
C424 O421 1.244 . S
C424 O422 1.240 . S
H425 C399 0.931 . S
H426 C408 0.931 . S
H427 C412 0.929 . S
H428 C414 0.930 . S
Co429 N433 2.148 . S
Co429 N439 2.128 . S
Co429 N449 2.194 . S
Co429 O454 2.351 . S
Co429 O455 2.155 . S
Co429 O456 2.096 . S
C430 N433 1.301 . S
C430 N434 1.328 . S
C430 H435 0.930 . S
C431 C432 1.333 . S
C431 N433 1.317 . S
C431 H436 0.930 . S
C432 C431 1.333 . S
C432 N434 1.350 . S
C432 H458 0.931 . S
N433 Co429 2.148 . S
N433 C430 1.301 . S
N433 C431 1.317 . S
N434 C430 1.328 . S
N434 C432 1.350 . S
H435 C430 0.930 . S
H436 C431 0.930 . S
C437 O438 1.224 . S
C437 O456 1.247 . S
O438 C437 1.224 . S
N439 Co429 2.128 . S
N439 C440 1.355 . S
N439 C442 1.311 . S
C440 N439 1.355 . S
C440 C441 1.363 . S
C440 H452 0.929 . S
C441 C440 1.363 . S
C441 N443 1.375 . S
C441 H459 0.931 . S
C442 N439 1.311 . S
C442 N443 1.347 . S
C442 H453 0.929 . S
N443 C441 1.375 . S
N443 C442 1.347 . S
C444 C447 1.365 . S
C444 N449 1.328 . S
C444 H450 0.929 . S
C445 C446 1.362 . S
C445 C448 1.378 . S
C445 H460 0.929 . S
C446 C445 1.362 . S
C446 C447 1.366 . S
C447 C444 1.365 . S
C447 C446 1.366 . S
C447 H461 0.930 . S
C448 C445 1.378 . S
C448 N449 1.315 . S
C448 H451 0.930 . S
N449 Co429 2.194 . S
N449 C444 1.328 . S
N449 C448 1.315 . S
H450 C444 0.929 . S
H451 C448 0.930 . S
H452 C440 0.929 . S
H453 C442 0.929 . S
O454 Co429 2.351 . S
O454 C457 1.244 . S
O455 Co429 2.155 . S
O455 C457 1.240 . S
O456 Co429 2.096 . S
O456 C437 1.247 . S
C457 O454 1.244 . S
C457 O455 1.240 . S
H458 C432 0.931 . S
H459 C441 0.931 . S
H460 C445 0.929 . S
H461 C447 0.930 . S
Co462 N466 2.148 . S
Co462 N472 2.128 . S
Co462 N482 2.194 . S
Co462 O487 2.351 . S
Co462 O488 2.155 . S
Co462 O489 2.096 . S
C463 N466 1.301 . S
C463 N467 1.328 . S
C463 H468 0.930 . S
C464 C465 1.333 . S
C464 N466 1.317 . S
C464 H469 0.930 . S
C465 C464 1.333 . S
C465 N467 1.350 . S
C465 H491 0.931 . S
N466 Co462 2.148 . S
N466 C463 1.301 . S
N466 C464 1.317 . S
N467 C463 1.328 . S
N467 C465 1.350 . S
H468 C463 0.930 . S
H469 C464 0.930 . S
C470 O471 1.224 . S
C470 O489 1.247 . S
O471 C470 1.224 . S
N472 Co462 2.128 . S
N472 C473 1.355 . S
N472 C475 1.311 . S
C473 N472 1.355 . S
C473 C474 1.363 . S
C473 H485 0.929 . S
C474 C473 1.363 . S
C474 N476 1.375 . S
C474 H492 0.931 . S
C475 N472 1.311 . S
C475 N476 1.347 . S
C475 H486 0.929 . S
N476 C474 1.375 . S
N476 C475 1.347 . S
C477 C480 1.365 . S
C477 N482 1.328 . S
C477 H483 0.929 . S
C478 C479 1.362 . S
C478 C481 1.378 . S
C478 H493 0.929 . S
C479 C478 1.362 . S
C479 C480 1.366 . S
C480 C477 1.365 . S
C480 C479 1.366 . S
C480 H494 0.930 . S
C481 C478 1.378 . S
C481 N482 1.315 . S
C481 H484 0.930 . S
N482 Co462 2.194 . S
N482 C477 1.328 . S
N482 C481 1.315 . S
H483 C477 0.929 . S
H484 C481 0.930 . S
H485 C473 0.929 . S
H486 C475 0.929 . S
O487 Co462 2.351 . S
O487 C490 1.244 . S
O488 Co462 2.155 . S
O488 C490 1.240 . S
O489 Co462 2.096 . S
O489 C470 1.247 . S
C490 O487 1.244 . S
C490 O488 1.240 . S
H491 C465 0.931 . S
H492 C474 0.931 . S
H493 C478 0.929 . S
H494 C480 0.930 . S
Co495 N499 2.148 . S
Co495 N505 2.128 . S
Co495 N515 2.194 . S
Co495 O520 2.351 . S
Co495 O521 2.155 . S
Co495 O522 2.096 . S
C496 N499 1.301 . S
C496 N500 1.328 . S
C496 H501 0.930 . S
C497 C498 1.333 . S
C497 N499 1.317 . S
C497 H502 0.930 . S
C498 C497 1.333 . S
C498 N500 1.350 . S
C498 H524 0.931 . S
N499 Co495 2.148 . S
N499 C496 1.301 . S
N499 C497 1.317 . S
N500 C496 1.328 . S
N500 C498 1.350 . S
H501 C496 0.930 . S
H502 C497 0.930 . S
C503 O504 1.224 . S
C503 O522 1.247 . S
O504 C503 1.224 . S
N505 Co495 2.128 . S
N505 C506 1.355 . S
N505 C508 1.311 . S
C506 N505 1.355 . S
C506 C507 1.363 . S
C506 H518 0.929 . S
C507 C506 1.363 . S
C507 N509 1.375 . S
C507 H525 0.931 . S
C508 N505 1.311 . S
C508 N509 1.347 . S
C508 H519 0.929 . S
N509 C507 1.375 . S
N509 C508 1.347 . S
C510 C513 1.365 . S
C510 N515 1.328 . S
C510 H516 0.929 . S
C511 C512 1.362 . S
C511 C514 1.378 . S
C511 H526 0.929 . S
C512 C511 1.362 . S
C512 C513 1.366 . S
C513 C510 1.365 . S
C513 C512 1.366 . S
C513 H527 0.930 . S
C514 C511 1.378 . S
C514 N515 1.315 . S
C514 H517 0.930 . S
N515 Co495 2.194 . S
N515 C510 1.328 . S
N515 C514 1.315 . S
H516 C510 0.929 . S
H517 C514 0.930 . S
H518 C506 0.929 . S
H519 C508 0.929 . S
O520 Co495 2.351 . S
O520 C523 1.244 . S
O521 Co495 2.155 . S
O521 C523 1.240 . S
O522 Co495 2.096 . S
O522 C503 1.247 . S
C523 O520 1.244 . S
C523 O521 1.240 . S
H524 C498 0.931 . S
H525 C507 0.931 . S
H526 C511 0.929 . S
H527 C513 0.930 . S
H528 C534 0.930 . S
H529 C537 0.930 . S
H530 C538 0.930 . S
H531 C539 0.930 . S
H532 C542 0.930 . S
H533 C543 0.930 . S
C534 H528 0.930 . S
C534 C535 1.355 . S
C534 C536 1.415 . S
C535 C534 1.355 . S
C535 C537 1.419 . S
C536 C534 1.415 . S
C536 C541 1.425 1_556 S
C536 C543 1.409 1_556 S
C537 H529 0.930 . S
C537 C535 1.419 . S
C537 C538 1.362 . S
C538 H530 0.930 . S
C538 C537 1.362 . S
C538 C541 1.409 1_556 S
C539 H531 0.930 . S
C539 C540 1.355 . S
C539 C541 1.415 . S
C540 C539 1.355 . S
C540 C542 1.419 . S
C541 C536 1.425 1_554 S
C541 C538 1.409 1_554 S
C541 C539 1.415 . S
C542 H532 0.930 . S
C542 C540 1.419 . S
C542 C543 1.362 . S
C543 H533 0.930 . S
C543 C536 1.409 1_554 S
C543 C542 1.362 . S
H544 C550 0.930 . S
H545 C553 0.930 . S
H546 C554 0.930 . S
H547 C555 0.930 . S
H548 C558 0.930 . S
H549 C559 0.930 . S
C550 H544 0.930 . S
C550 C551 1.355 . S
C550 C552 1.415 . S
C551 C550 1.355 . S
C551 C553 1.419 . S
C552 C550 1.415 . S
C552 C557 1.425 1_556 S
C552 C559 1.409 1_556 S
C553 H545 0.930 . S
C553 C551 1.419 . S
C553 C554 1.362 . S
C554 H546 0.930 . S
C554 C553 1.362 . S
C554 C557 1.409 1_556 S
C555 H547 0.930 . S
C555 C556 1.355 . S
C555 C557 1.415 . S
C556 C555 1.355 . S
C556 C558 1.419 . S
C557 C552 1.425 1_554 S
C557 C554 1.409 1_554 S
C557 C555 1.415 . S
C558 H548 0.930 . S
C558 C556 1.419 . S
C558 C559 1.362 . S
C559 H549 0.930 . S
C559 C552 1.409 1_554 S
C559 C558 1.362 . S
H560 C566 0.930 . S
H561 C569 0.930 . S
H562 C570 0.930 . S
H563 C571 0.930 . S
H564 C574 0.930 . S
H565 C575 0.930 . S
C566 H560 0.930 . S
C566 C567 1.355 . S
C566 C568 1.415 . S
C567 C566 1.355 . S
C567 C569 1.419 . S
C568 C566 1.415 . S
C568 C573 1.425 1_556 S
C568 C575 1.409 1_556 S
C569 H561 0.930 . S
C569 C567 1.419 . S
C569 C570 1.362 . S
C570 H562 0.930 . S
C570 C569 1.362 . S
C570 C573 1.409 1_556 S
C571 H563 0.930 . S
C571 C572 1.355 . S
C571 C573 1.415 . S
C572 C571 1.355 . S
C572 C574 1.419 . S
C573 C568 1.425 1_554 S
C573 C570 1.409 1_554 S
C573 C571 1.415 . S
C574 H564 0.930 . S
C574 C572 1.419 . S
C574 C575 1.362 . S
C575 H565 0.930 . S
C575 C568 1.409 1_554 S
C575 C574 1.362 . S
H576 C582 0.930 . S
H577 C585 0.930 . S
H578 C586 0.930 . S
H579 C587 0.930 . S
H580 C590 0.930 . S
H581 C591 0.930 . S
C582 H576 0.930 . S
C582 C583 1.355 . S
C582 C584 1.415 . S
C583 C582 1.355 . S
C583 C585 1.419 . S
C584 C582 1.415 . S
C584 C589 1.425 1_556 S
C584 C591 1.409 1_556 S
C585 H577 0.930 . S
C585 C583 1.419 . S
C585 C586 1.362 . S
C586 H578 0.930 . S
C586 C585 1.362 . S
C586 C589 1.409 1_556 S
C587 H579 0.930 . S
C587 C588 1.355 . S
C587 C589 1.415 . S
C588 C587 1.355 . S
C588 C590 1.419 . S
C589 C584 1.425 1_554 S
C589 C586 1.409 1_554 S
C589 C587 1.415 . S
C590 H580 0.930 . S
C590 C588 1.419 . S
C590 C591 1.362 . S
C591 H581 0.930 . S
C591 C584 1.409 1_554 S
C591 C590 1.362 . S
H592 C598 0.930 . S
H593 C601 0.930 . S
H594 C602 0.930 . S
H595 C603 0.930 . S
H596 C606 0.930 . S
H597 C607 0.930 . S
C598 H592 0.930 . S
C598 C599 1.355 . S
C598 C600 1.415 . S
C599 C598 1.355 . S
C599 C601 1.419 . S
C600 C598 1.415 . S
C600 C605 1.425 . S
C600 C607 1.409 . S
C601 H593 0.930 . S
C601 C599 1.419 . S
C601 C602 1.362 . S
C602 H594 0.930 . S
C602 C601 1.362 . S
C602 C605 1.409 . S
C603 H595 0.930 . S
C603 C604 1.355 . S
C603 C605 1.415 . S
C604 C603 1.355 . S
C604 C606 1.419 . S
C605 C600 1.425 . S
C605 C602 1.409 . S
C605 C603 1.415 . S
C606 H596 0.930 . S
C606 C604 1.419 . S
C606 C607 1.362 . S
C607 H597 0.930 . S
C607 C600 1.409 . S
C607 C606 1.362 . S
H608 C614 0.930 . S
H609 C617 0.930 . S
H610 C618 0.930 . S
H611 C619 0.930 . S
H612 C622 0.930 . S
H613 C623 0.930 . S
C614 H608 0.930 . S
C614 C615 1.355 . S
C614 C616 1.415 . S
C615 C614 1.355 . S
C615 C617 1.419 . S
C616 C614 1.415 . S
C616 C621 1.425 . S
C616 C623 1.409 . S
C617 H609 0.930 . S
C617 C615 1.419 . S
C617 C618 1.362 . S
C618 H610 0.930 . S
C618 C617 1.362 . S
C618 C621 1.409 . S
C619 H611 0.930 . S
C619 C620 1.355 . S
C619 C621 1.415 . S
C620 C619 1.355 . S
C620 C622 1.419 . S
C621 C616 1.425 . S
C621 C618 1.409 . S
C621 C619 1.415 . S
C622 H612 0.930 . S
C622 C620 1.419 . S
C622 C623 1.362 . S
C623 H613 0.930 . S
C623 C616 1.409 . S
C623 C622 1.362 . S
H624 C630 0.930 . S
H625 C633 0.930 . S
H626 C634 0.930 . S
H627 C635 0.930 . S
H628 C638 0.930 . S
H629 C639 0.930 . S
C630 H624 0.930 . S
C630 C631 1.355 . S
C630 C632 1.415 . S
C631 C630 1.355 . S
C631 C633 1.419 . S
C632 C630 1.415 . S
C632 C637 1.425 . S
C632 C639 1.409 . S
C633 H625 0.930 . S
C633 C631 1.419 . S
C633 C634 1.362 . S
C634 H626 0.930 . S
C634 C633 1.362 . S
C634 C637 1.409 . S
C635 H627 0.930 . S
C635 C636 1.355 . S
C635 C637 1.415 . S
C636 C635 1.355 . S
C636 C638 1.419 . S
C637 C632 1.425 . S
C637 C634 1.409 . S
C637 C635 1.415 . S
C638 H628 0.930 . S
C638 C636 1.419 . S
C638 C639 1.362 . S
C639 H629 0.930 . S
C639 C632 1.409 . S
C639 C638 1.362 . S
H640 C646 0.930 . S
H641 C649 0.930 . S
H642 C650 0.930 . S
H643 C651 0.930 . S
H644 C654 0.930 . S
H645 C655 0.930 . S
C646 H640 0.930 . S
C646 C647 1.355 . S
C646 C648 1.415 . S
C647 C646 1.355 . S
C647 C649 1.419 . S
C648 C646 1.415 . S
C648 C653 1.425 . S
C648 C655 1.409 . S
C649 H641 0.930 . S
C649 C647 1.419 . S
C649 C650 1.362 . S
C650 H642 0.930 . S
C650 C649 1.362 . S
C650 C653 1.409 . S
C651 H643 0.930 . S
C651 C652 1.355 . S
C651 C653 1.415 . S
C652 C651 1.355 . S
C652 C654 1.419 . S
C653 C648 1.425 . S
C653 C650 1.409 . S
C653 C651 1.415 . S
C654 H644 0.930 . S
C654 C652 1.419 . S
C654 C655 1.362 . S
C655 H645 0.930 . S
C655 C648 1.409 . S
C655 C654 1.362 . S
H656 C662 0.930 . S
H657 C665 0.930 . S
H658 C666 0.930 . S
H659 C667 0.930 . S
H660 C670 0.930 . S
H661 C671 0.930 . S
C662 H656 0.930 . S
C662 C663 1.355 . S
C662 C664 1.415 . S
C663 C662 1.355 . S
C663 C665 1.419 . S
C664 C662 1.415 . S
C664 C669 1.425 . S
C664 C671 1.409 . S
C665 H657 0.930 . S
C665 C663 1.419 . S
C665 C666 1.362 . S
C666 H658 0.930 . S
C666 C665 1.362 . S
C666 C669 1.409 . S
C667 H659 0.930 . S
C667 C668 1.355 . S
C667 C669 1.415 . S
C668 C667 1.355 . S
C668 C670 1.419 . S
C669 C664 1.425 . S
C669 C666 1.409 . S
C669 C667 1.415 . S
C670 H660 0.930 . S
C670 C668 1.419 . S
C670 C671 1.362 . S
C671 H661 0.930 . S
C671 C664 1.409 . S
C671 C670 1.362 . S
H672 C678 0.930 . S
H673 C681 0.930 . S
H674 C682 0.930 . S
H675 C683 0.930 . S
H676 C686 0.930 . S
H677 C687 0.930 . S
C678 H672 0.930 . S
C678 C679 1.355 . S
C678 C680 1.415 . S
C679 C678 1.355 . S
C679 C681 1.419 . S
C680 C678 1.415 . S
C680 C685 1.425 . S
C680 C687 1.409 . S
C681 H673 0.930 . S
C681 C679 1.419 . S
C681 C682 1.362 . S
C682 H674 0.930 . S
C682 C681 1.362 . S
C682 C685 1.409 . S
C683 H675 0.930 . S
C683 C684 1.355 . S
C683 C685 1.415 . S
C684 C683 1.355 . S
C684 C686 1.419 . S
C685 C680 1.425 . S
C685 C682 1.409 . S
C685 C683 1.415 . S
C686 H676 0.930 . S
C686 C684 1.419 . S
C686 C687 1.362 . S
C687 H677 0.930 . S
C687 C680 1.409 . S
C687 C686 1.362 . S
H688 C694 0.930 . S
H689 C697 0.930 . S
H690 C698 0.930 . S
H691 C699 0.930 . S
H692 C702 0.930 . S
H693 C703 0.930 . S
C694 H688 0.930 . S
C694 C695 1.355 . S
C694 C696 1.415 . S
C695 C694 1.355 . S
C695 C697 1.419 . S
C696 C694 1.415 . S
C696 C701 1.425 . S
C696 C703 1.409 . S
C697 H689 0.930 . S
C697 C695 1.419 . S
C697 C698 1.362 . S
C698 H690 0.930 . S
C698 C697 1.362 . S
C698 C701 1.409 . S
C699 H691 0.930 . S
C699 C700 1.355 . S
C699 C701 1.415 . S
C700 C699 1.355 . S
C700 C702 1.419 . S
C701 C696 1.425 . S
C701 C698 1.409 . S
C701 C699 1.415 . S
C702 H692 0.930 . S
C702 C700 1.419 . S
C702 C703 1.362 . S
C703 H693 0.930 . S
C703 C696 1.409 . S
C703 C702 1.362 . S
H704 C710 0.930 . S
H705 C713 0.930 . S
H706 C714 0.930 . S
H707 C715 0.930 . S
H708 C718 0.930 . S
H709 C719 0.930 . S
C710 H704 0.930 . S
C710 C711 1.355 . S
C710 C712 1.415 . S
C711 C710 1.355 . S
C711 C713 1.419 . S
C712 C710 1.415 . S
C712 C717 1.425 . S
C712 C719 1.409 . S
C713 H705 0.930 . S
C713 C711 1.419 . S
C713 C714 1.362 . S
C714 H706 0.930 . S
C714 C713 1.362 . S
C714 C717 1.409 . S
C715 H707 0.930 . S
C715 C716 1.355 . S
C715 C717 1.415 . S
C716 C715 1.355 . S
C716 C718 1.419 . S
C717 C712 1.425 . S
C717 C714 1.409 . S
C717 C715 1.415 . S
C718 H708 0.930 . S
C718 C716 1.419 . S
C718 C719 1.362 . S
C719 H709 0.930 . S
C719 C712 1.409 . S
C719 C718 1.362 . S
H720 C726 0.930 . S
H721 C729 0.930 . S
H722 C730 0.930 . S
H723 C731 0.930 . S
H724 C734 0.930 . S
H725 C735 0.930 . S
C726 H720 0.930 . S
C726 C727 1.355 . S
C726 C728 1.415 . S
C727 C726 1.355 . S
C727 C729 1.419 . S
C728 C726 1.415 . S
C728 C733 1.425 . S
C728 C735 1.409 . S
C729 H721 0.930 . S
C729 C727 1.419 . S
C729 C730 1.362 . S
C730 H722 0.930 . S
C730 C729 1.362 . S
C730 C733 1.409 . S
C731 H723 0.930 . S
C731 C732 1.355 . S
C731 C733 1.415 . S
C732 C731 1.355 . S
C732 C734 1.419 . S
C733 C728 1.425 . S
C733 C730 1.409 . S
C733 C731 1.415 . S
C734 H724 0.930 . S
C734 C732 1.419 . S
C734 C735 1.362 . S
C735 H725 0.930 . S
C735 C728 1.409 . S
C735 C734 1.362 . S
H736 C742 0.930 . S
H737 C745 0.930 . S
H738 C746 0.930 . S
H739 C747 0.930 . S
H740 C750 0.930 . S
H741 C751 0.930 . S
C742 H736 0.930 . S
C742 C743 1.355 . S
C742 C744 1.415 . S
C743 C742 1.355 . S
C743 C745 1.419 . S
C744 C742 1.415 . S
C744 C749 1.425 . S
C744 C751 1.409 . S
C745 H737 0.930 . S
C745 C743 1.419 . S
C745 C746 1.362 . S
C746 H738 0.930 . S
C746 C745 1.362 . S
C746 C749 1.409 . S
C747 H739 0.930 . S
C747 C748 1.355 . S
C747 C749 1.415 . S
C748 C747 1.355 . S
C748 C750 1.419 . S
C749 C744 1.425 . S
C749 C746 1.409 . S
C749 C747 1.415 . S
C750 H740 0.930 . S
C750 C748 1.419 . S
C750 C751 1.362 . S
C751 H741 0.930 . S
C751 C744 1.409 . S
C751 C750 1.362 . S
H752 C758 0.930 . S
H753 C761 0.930 . S
H754 C762 0.930 . S
H755 C763 0.930 . S
H756 C766 0.930 . S
H757 C767 0.930 . S
C758 H752 0.930 . S
C758 C759 1.355 . S
C758 C760 1.415 . S
C759 C758 1.355 . S
C759 C761 1.419 . S
C760 C758 1.415 . S
C760 C765 1.425 . S
C760 C767 1.409 . S
C761 H753 0.930 . S
C761 C759 1.419 . S
C761 C762 1.362 . S
C762 H754 0.930 . S
C762 C761 1.362 . S
C762 C765 1.409 . S
C763 H755 0.930 . S
C763 C764 1.355 . S
C763 C765 1.415 . S
C764 C763 1.355 . S
C764 C766 1.419 . S
C765 C760 1.425 . S
C765 C762 1.409 . S
C765 C763 1.415 . S
C766 H756 0.930 . S
C766 C764 1.419 . S
C766 C767 1.362 . S
C767 H757 0.930 . S
C767 C760 1.409 . S
C767 C766 1.362 . S
H768 C774 0.930 . S
H769 C777 0.930 . S
H770 C778 0.930 . S
H771 C779 0.930 . S
H772 C782 0.930 . S
H773 C783 0.930 . S
C774 H768 0.930 . S
C774 C775 1.355 . S
C774 C776 1.415 . S
C775 C774 1.355 . S
C775 C777 1.419 . S
C776 C774 1.415 . S
C776 C781 1.425 . S
C776 C783 1.409 . S
C777 H769 0.930 . S
C777 C775 1.419 . S
C777 C778 1.362 . S
C778 H770 0.930 . S
C778 C777 1.362 . S
C778 C781 1.409 . S
C779 H771 0.930 . S
C779 C780 1.355 . S
C779 C781 1.415 . S
C780 C779 1.355 . S
C780 C782 1.419 . S
C781 C776 1.425 . S
C781 C778 1.409 . S
C781 C779 1.415 . S
C782 H772 0.930 . S
C782 C780 1.419 . S
C782 C783 1.362 . S
C783 H773 0.930 . S
C783 C776 1.409 . S
C783 C782 1.362 . S
H784 C790 0.930 . S
H785 C793 0.930 . S
H786 C794 0.930 . S
H787 C795 0.930 . S
H788 C798 0.930 . S
H789 C799 0.930 . S
C790 H784 0.930 . S
C790 C791 1.355 . S
C790 C792 1.415 . S
C791 C790 1.355 . S
C791 C793 1.419 . S
C792 C790 1.415 . S
C792 C797 1.425 . S
C792 C799 1.409 . S
C793 H785 0.930 . S
C793 C791 1.419 . S
C793 C794 1.362 . S
C794 H786 0.930 . S
C794 C793 1.362 . S
C794 C797 1.409 . S
C795 H787 0.930 . S
C795 C796 1.355 . S
C795 C797 1.415 . S
C796 C795 1.355 . S
C796 C798 1.419 . S
C797 C792 1.425 . S
C797 C794 1.409 . S
C797 C795 1.415 . S
C798 H788 0.930 . S
C798 C796 1.419 . S
C798 C799 1.362 . S
C799 H789 0.930 . S
C799 C792 1.409 . S
C799 C798 1.362 . S
H800 C806 0.930 . S
H801 C809 0.930 . S
H802 C810 0.930 . S
H803 C811 0.930 . S
H804 C814 0.930 . S
H805 C815 0.930 . S
C806 H800 0.930 . S
C806 C807 1.355 . S
C806 C808 1.415 . S
C807 C806 1.355 . S
C807 C809 1.419 . S
C808 C806 1.415 . S
C808 C813 1.425 . S
C808 C815 1.409 . S
C809 H801 0.930 . S
C809 C807 1.419 . S
C809 C810 1.362 . S
C810 H802 0.930 . S
C810 C809 1.362 . S
C810 C813 1.409 . S
C811 H803 0.930 . S
C811 C812 1.355 . S
C811 C813 1.415 . S
C812 C811 1.355 . S
C812 C814 1.419 . S
C813 C808 1.425 . S
C813 C810 1.409 . S
C813 C811 1.415 . S
C814 H804 0.930 . S
C814 C812 1.419 . S
C814 C815 1.362 . S
C815 H805 0.930 . S
C815 C808 1.409 . S
C815 C814 1.362 . S
H816 C822 0.930 . S
H817 C825 0.930 . S
H818 C826 0.930 . S
H819 C827 0.930 . S
H820 C830 0.930 . S
H821 C831 0.930 . S
C822 H816 0.930 . S
C822 C823 1.355 . S
C822 C824 1.415 . S
C823 C822 1.355 . S
C823 C825 1.419 . S
C824 C822 1.415 . S
C824 C829 1.425 . S
C824 C831 1.409 . S
C825 H817 0.930 . S
C825 C823 1.419 . S
C825 C826 1.362 . S
C826 H818 0.930 . S
C826 C825 1.362 . S
C826 C829 1.409 . S
C827 H819 0.930 . S
C827 C828 1.355 . S
C827 C829 1.415 . S
C828 C827 1.355 . S
C828 C830 1.419 . S
C829 C824 1.425 . S
C829 C826 1.409 . S
C829 C827 1.415 . S
C830 H820 0.930 . S
C830 C828 1.419 . S
C830 C831 1.362 . S
C831 H821 0.930 . S
C831 C824 1.409 . S
C831 C830 1.362 . S
H832 C838 0.930 . S
H833 C841 0.930 . S
H834 C842 0.930 . S
H835 C843 0.930 . S
H836 C846 0.930 . S
H837 C847 0.930 . S
C838 H832 0.930 . S
C838 C839 1.355 . S
C838 C840 1.415 . S
C839 C838 1.355 . S
C839 C841 1.419 . S
C840 C838 1.415 . S
C840 C845 1.425 . S
C840 C847 1.409 . S
C841 H833 0.930 . S
C841 C839 1.419 . S
C841 C842 1.362 . S
C842 H834 0.930 . S
C842 C841 1.362 . S
C842 C845 1.409 . S
C843 H835 0.930 . S
C843 C844 1.355 . S
C843 C845 1.415 . S
C844 C843 1.355 . S
C844 C846 1.419 . S
C845 C840 1.425 . S
C845 C842 1.409 . S
C845 C843 1.415 . S
C846 H836 0.930 . S
C846 C844 1.419 . S
C846 C847 1.362 . S
C847 H837 0.930 . S
C847 C840 1.409 . S
C847 C846 1.362 . S
H848 C854 0.930 . S
H849 C857 0.930 . S
H850 C858 0.930 . S
H851 C859 0.930 . S
H852 C862 0.930 . S
H853 C863 0.930 . S
C854 H848 0.930 . S
C854 C855 1.355 . S
C854 C856 1.415 . S
C855 C854 1.355 . S
C855 C857 1.419 . S
C856 C854 1.415 . S
C856 C861 1.425 . S
C856 C863 1.409 . S
C857 H849 0.930 . S
C857 C855 1.419 . S
C857 C858 1.362 . S
C858 H850 0.930 . S
C858 C857 1.362 . S
C858 C861 1.409 . S
C859 H851 0.930 . S
C859 C860 1.355 . S
C859 C861 1.415 . S
C860 C859 1.355 . S
C860 C862 1.419 . S
C861 C856 1.425 . S
C861 C858 1.409 . S
C861 C859 1.415 . S
C862 H852 0.930 . S
C862 C860 1.419 . S
C862 C863 1.362 . S
C863 H853 0.930 . S
C863 C856 1.409 . S
C863 C862 1.362 . S
H864 C870 0.930 . S
H865 C873 0.930 . S
H866 C874 0.930 . S
H867 C875 0.930 . S
H868 C878 0.930 . S
H869 C879 0.930 . S
C870 H864 0.930 . S
C870 C871 1.355 . S
C870 C872 1.415 . S
C871 C870 1.355 . S
C871 C873 1.419 . S
C872 C870 1.415 . S
C872 C877 1.425 . S
C872 C879 1.409 . S
C873 H865 0.930 . S
C873 C871 1.419 . S
C873 C874 1.362 . S
C874 H866 0.930 . S
C874 C873 1.362 . S
C874 C877 1.409 . S
C875 H867 0.930 . S
C875 C876 1.355 . S
C875 C877 1.415 . S
C876 C875 1.355 . S
C876 C878 1.419 . S
C877 C872 1.425 . S
C877 C874 1.409 . S
C877 C875 1.415 . S
C878 H868 0.930 . S
C878 C876 1.419 . S
C878 C879 1.362 . S
C879 H869 0.930 . S
C879 C872 1.409 . S
C879 C878 1.362 . S
H880 C886 0.930 . S
H881 C889 0.930 . S
H882 C890 0.930 . S
H883 C891 0.930 . S
H884 C894 0.930 . S
H885 C895 0.930 . S
C886 H880 0.930 . S
C886 C887 1.355 . S
C886 C888 1.415 . S
C887 C886 1.355 . S
C887 C889 1.419 . S
C888 C886 1.415 . S
C888 C893 1.425 . S
C888 C895 1.409 . S
C889 H881 0.930 . S
C889 C887 1.419 . S
C889 C890 1.362 . S
C890 H882 0.930 . S
C890 C889 1.362 . S
C890 C893 1.409 . S
C891 H883 0.930 . S
C891 C892 1.355 . S
C891 C893 1.415 . S
C892 C891 1.355 . S
C892 C894 1.419 . S
C893 C888 1.425 . S
C893 C890 1.409 . S
C893 C891 1.415 . S
C894 H884 0.930 . S
C894 C892 1.419 . S
C894 C895 1.362 . S
C895 H885 0.930 . S
C895 C888 1.409 . S
C895 C894 1.362 . S
H896 C902 0.930 . S
H897 C905 0.930 . S
H898 C906 0.930 . S
H899 C907 0.930 . S
H900 C910 0.930 . S
H901 C911 0.930 . S
C902 H896 0.930 . S
C902 C903 1.355 . S
C902 C904 1.415 . S
C903 C902 1.355 . S
C903 C905 1.419 . S
C904 C902 1.415 . S
C904 C909 1.425 . S
C904 C911 1.409 . S
C905 H897 0.930 . S
C905 C903 1.419 . S
C905 C906 1.362 . S
C906 H898 0.930 . S
C906 C905 1.362 . S
C906 C909 1.409 . S
C907 H899 0.930 . S
C907 C908 1.355 . S
C907 C909 1.415 . S
C908 C907 1.355 . S
C908 C910 1.419 . S
C909 C904 1.425 . S
C909 C906 1.409 . S
C909 C907 1.415 . S
C910 H900 0.930 . S
C910 C908 1.419 . S
C910 C911 1.362 . S
C911 H901 0.930 . S
C911 C904 1.409 . S
C911 C910 1.362 . S
H912 C918 0.930 . S
H913 C921 0.930 . S
H914 C922 0.930 . S
H915 C923 0.930 . S
H916 C926 0.930 . S
H917 C927 0.930 . S
C918 H912 0.930 . S
C918 C919 1.355 . S
C918 C920 1.415 . S
C919 C918 1.355 . S
C919 C921 1.419 . S
C920 C918 1.415 . S
C920 C925 1.425 . S
C920 C927 1.409 . S
C921 H913 0.930 . S
C921 C919 1.419 . S
C921 C922 1.362 . S
C922 H914 0.930 . S
C922 C921 1.362 . S
C922 C925 1.409 . S
C923 H915 0.930 . S
C923 C924 1.355 . S
C923 C925 1.415 . S
C924 C923 1.355 . S
C924 C926 1.419 . S
C925 C920 1.425 . S
C925 C922 1.409 . S
C925 C923 1.415 . S
C926 H916 0.930 . S
C926 C924 1.419 . S
C926 C927 1.362 . S
C927 H917 0.930 . S
C927 C920 1.409 . S
C927 C926 1.362 . S
H928 C934 0.930 . S
H929 C937 0.930 . S
H930 C938 0.930 . S
H931 C939 0.930 . S
H932 C942 0.930 . S
H933 C943 0.930 . S
C934 H928 0.930 . S
C934 C935 1.355 . S
C934 C936 1.415 . S
C935 C934 1.355 . S
C935 C937 1.419 . S
C936 C934 1.415 . S
C936 C941 1.425 . S
C936 C943 1.409 . S
C937 H929 0.930 . S
C937 C935 1.419 . S
C937 C938 1.362 . S
C938 H930 0.930 . S
C938 C937 1.362 . S
C938 C941 1.409 . S
C939 H931 0.930 . S
C939 C940 1.355 . S
C939 C941 1.415 . S
C940 C939 1.355 . S
C940 C942 1.419 . S
C941 C936 1.425 . S
C941 C938 1.409 . S
C941 C939 1.415 . S
C942 H932 0.930 . S
C942 C940 1.419 . S
C942 C943 1.362 . S
C943 H933 0.930 . S
C943 C936 1.409 . S
C943 C942 1.362 . S
H944 C950 0.930 . S
H945 C953 0.930 . S
H946 C954 0.930 . S
H947 C955 0.930 . S
H948 C958 0.930 . S
H949 C959 0.930 . S
C950 H944 0.930 . S
C950 C951 1.355 . S
C950 C952 1.415 . S
C951 C950 1.355 . S
C951 C953 1.419 . S
C952 C950 1.415 . S
C952 C957 1.425 . S
C952 C959 1.409 . S
C953 H945 0.930 . S
C953 C951 1.419 . S
C953 C954 1.362 . S
C954 H946 0.930 . S
C954 C953 1.362 . S
C954 C957 1.409 . S
C955 H947 0.930 . S
C955 C956 1.355 . S
C955 C957 1.415 . S
C956 C955 1.355 . S
C956 C958 1.419 . S
C957 C952 1.425 . S
C957 C954 1.409 . S
C957 C955 1.415 . S
C958 H948 0.930 . S
C958 C956 1.419 . S
C958 C959 1.362 . S
C959 H949 0.930 . S
C959 C952 1.409 . S
C959 C958 1.362 . S
H960 C966 0.930 . S
H961 C969 0.930 . S
H962 C970 0.930 . S
H963 C971 0.930 . S
H964 C974 0.930 . S
H965 C975 0.930 . S
C966 H960 0.930 . S
C966 C967 1.355 . S
C966 C968 1.415 . S
C967 C966 1.355 . S
C967 C969 1.419 . S
C968 C966 1.415 . S
C968 C973 1.425 . S
C968 C975 1.409 . S
C969 H961 0.930 . S
C969 C967 1.419 . S
C969 C970 1.362 . S
C970 H962 0.930 . S
C970 C969 1.362 . S
C970 C973 1.409 . S
C971 H963 0.930 . S
C971 C972 1.355 . S
C971 C973 1.415 . S
C972 C971 1.355 . S
C972 C974 1.419 . S
C973 C968 1.425 . S
C973 C970 1.409 . S
C973 C971 1.415 . S
C974 H964 0.930 . S
C974 C972 1.419 . S
C974 C975 1.362 . S
C975 H965 0.930 . S
C975 C968 1.409 . S
C975 C974 1.362 . S
H976 C982 0.930 . S
H977 C985 0.930 . S
H978 C986 0.930 . S
H979 C987 0.930 . S
H980 C990 0.930 . S
H981 C991 0.930 . S
C982 H976 0.930 . S
C982 C983 1.355 . S
C982 C984 1.415 . S
C983 C982 1.355 . S
C983 C985 1.419 . S
C984 C982 1.415 . S
C984 C989 1.425 . S
C984 C991 1.409 . S
C985 H977 0.930 . S
C985 C983 1.419 . S
C985 C986 1.362 . S
C986 H978 0.930 . S
C986 C985 1.362 . S
C986 C989 1.409 . S
C987 H979 0.930 . S
C987 C988 1.355 . S
C987 C989 1.415 . S
C988 C987 1.355 . S
C988 C990 1.419 . S
C989 C984 1.425 . S
C989 C986 1.409 . S
C989 C987 1.415 . S
C990 H980 0.930 . S
C990 C988 1.419 . S
C990 C991 1.362 . S
C991 H981 0.930 . S
C991 C984 1.409 . S
C991 C990 1.362 . S
H992 C998 0.930 . S
H993 C1001 0.930 . S
H994 C1002 0.930 . S
H995 C1003 0.930 . S
H996 C1006 0.930 . S
H997 C1007 0.930 . S
C998 H992 0.930 . S
C998 C999 1.355 . S
C998 C1000 1.415 . S
C999 C998 1.355 . S
C999 C1001 1.419 . S
C1000 C998 1.415 . S
C1000 C1005 1.425 . S
C1000 C1007 1.409 . S
C1001 H993 0.930 . S
C1001 C999 1.419 . S
C1001 C1002 1.362 . S
C1002 H994 0.930 . S
C1002 C1001 1.362 . S
C1002 C1005 1.409 . S
C1003 H995 0.930 . S
C1003 C1004 1.355 . S
C1003 C1005 1.415 . S
C1004 C1003 1.355 . S
C1004 C1006 1.419 . S
C1005 C1000 1.425 . S
C1005 C1002 1.409 . S
C1005 C1003 1.415 . S
C1006 H996 0.930 . S
C1006 C1004 1.419 . S
C1006 C1007 1.362 . S
C1007 H997 0.930 . S
C1007 C1000 1.409 . S
C1007 C1006 1.362 . S
H1008 C1014 0.930 . S
H1009 C1017 0.930 . S
H1010 C1018 0.930 . S
H1011 C1019 0.930 . S
H1012 C1022 0.930 . S
H1013 C1023 0.930 . S
C1014 H1008 0.930 . S
C1014 C1015 1.355 . S
C1014 C1016 1.415 . S
C1015 C1014 1.355 . S
C1015 C1017 1.419 . S
C1016 C1014 1.415 . S
C1016 C1021 1.425 . S
C1016 C1023 1.409 . S
C1017 H1009 0.930 . S
C1017 C1015 1.419 . S
C1017 C1018 1.362 . S
C1018 H1010 0.930 . S
C1018 C1017 1.362 . S
C1018 C1021 1.409 . S
C1019 H1011 0.930 . S
C1019 C1020 1.355 . S
C1019 C1021 1.415 . S
C1020 C1019 1.355 . S
C1020 C1022 1.419 . S
C1021 C1016 1.425 . S
C1021 C1018 1.409 . S
C1021 C1019 1.415 . S
C1022 H1012 0.930 . S
C1022 C1020 1.419 . S
C1022 C1023 1.362 . S
C1023 H1013 0.930 . S
C1023 C1016 1.409 . S
C1023 C1022 1.362 . S
H1024 C1030 0.930 . S
H1025 C1033 0.930 . S
H1026 C1034 0.930 . S
H1027 C1035 0.930 . S
H1028 C1038 0.930 . S
H1029 C1039 0.930 . S
C1030 H1024 0.930 . S
C1030 C1031 1.355 . S
C1030 C1032 1.415 . S
C1031 C1030 1.355 . S
C1031 C1033 1.419 . S
C1032 C1030 1.415 . S
C1032 C1037 1.425 . S
C1032 C1039 1.409 . S
C1033 H1025 0.930 . S
C1033 C1031 1.419 . S
C1033 C1034 1.362 . S
C1034 H1026 0.930 . S
C1034 C1033 1.362 . S
C1034 C1037 1.409 . S
C1035 H1027 0.930 . S
C1035 C1036 1.355 . S
C1035 C1037 1.415 . S
C1036 C1035 1.355 . S
C1036 C1038 1.419 . S
C1037 C1032 1.425 . S
C1037 C1034 1.409 . S
C1037 C1035 1.415 . S
C1038 H1028 0.930 . S
C1038 C1036 1.419 . S
C1038 C1039 1.362 . S
C1039 H1029 0.930 . S
C1039 C1032 1.409 . S
C1039 C1038 1.362 . S
H1040 C1046 0.930 . S
H1041 C1049 0.930 . S
H1042 C1050 0.930 . S
H1043 C1051 0.930 . S
H1044 C1054 0.930 . S
H1045 C1055 0.930 . S
C1046 H1040 0.930 . S
C1046 C1047 1.355 1_455 S
C1046 C1048 1.415 . S
C1047 C1046 1.355 1_655 S
C1047 C1049 1.419 . S
C1048 C1046 1.415 . S
C1048 C1053 1.425 1_455 S
C1048 C1055 1.409 . S
C1049 H1041 0.930 . S
C1049 C1047 1.419 . S
C1049 C1050 1.362 . S
C1050 H1042 0.930 . S
C1050 C1049 1.362 . S
C1050 C1053 1.409 . S
C1051 H1043 0.930 . S
C1051 C1052 1.355 1_655 S
C1051 C1053 1.415 . S
C1052 C1051 1.355 1_455 S
C1052 C1054 1.419 . S
C1053 C1048 1.425 1_655 S
C1053 C1050 1.409 . S
C1053 C1051 1.415 . S
C1054 H1044 0.930 . S
C1054 C1052 1.419 . S
C1054 C1055 1.362 . S
C1055 H1045 0.930 . S
C1055 C1048 1.409 . S
C1055 C1054 1.362 . S
H1056 C1062 0.930 . S
H1057 C1065 0.930 . S
H1058 C1066 0.930 . S
H1059 C1067 0.930 . S
H1060 C1070 0.930 . S
H1061 C1071 0.930 . S
C1062 H1056 0.930 . S
C1062 C1063 1.355 1_545 S
C1062 C1064 1.415 . S
C1063 C1062 1.355 1_565 S
C1063 C1065 1.419 . S
C1064 C1062 1.415 . S
C1064 C1069 1.425 1_545 S
C1064 C1071 1.409 . S
C1065 H1057 0.930 . S
C1065 C1063 1.419 . S
C1065 C1066 1.362 . S
C1066 H1058 0.930 . S
C1066 C1065 1.362 . S
C1066 C1069 1.409 . S
C1067 H1059 0.930 . S
C1067 C1068 1.355 1_565 S
C1067 C1069 1.415 . S
C1068 C1067 1.355 1_545 S
C1068 C1070 1.419 . S
C1069 C1064 1.425 1_565 S
C1069 C1066 1.409 . S
C1069 C1067 1.415 . S
C1070 H1060 0.930 . S
C1070 C1068 1.419 . S
C1070 C1071 1.362 . S
C1071 H1061 0.930 . S
C1071 C1064 1.409 . S
C1071 C1070 1.362 . S
H1072 C1078 0.930 . S
H1073 C1081 0.930 . S
H1074 C1082 0.930 . S
H1075 C1083 0.930 . S
H1076 C1086 0.930 . S
H1077 C1087 0.930 . S
C1078 H1072 0.930 . S
C1078 C1079 1.355 . S
C1078 C1080 1.415 . S
C1079 C1078 1.355 . S
C1079 C1081 1.419 . S
C1080 C1078 1.415 . S
C1080 C1085 1.425 1_545 S
C1080 C1087 1.409 1_545 S
C1081 H1073 0.930 . S
C1081 C1079 1.419 . S
C1081 C1082 1.362 . S
C1082 H1074 0.930 . S
C1082 C1081 1.362 . S
C1082 C1085 1.409 1_545 S
C1083 H1075 0.930 . S
C1083 C1084 1.355 . S
C1083 C1085 1.415 . S
C1084 C1083 1.355 . S
C1084 C1086 1.419 . S
C1085 C1080 1.425 1_565 S
C1085 C1082 1.409 1_565 S
C1085 C1083 1.415 . S
C1086 H1076 0.930 . S
C1086 C1084 1.419 . S
C1086 C1087 1.362 . S
C1087 H1077 0.930 . S
C1087 C1080 1.409 1_565 S
C1087 C1086 1.362 . S
H1088 C1094 0.930 . S
H1089 C1097 0.930 . S
H1090 C1098 0.930 1_455 S
H1091 C1099 0.930 . S
H1092 C1102 0.930 . S
H1093 C1103 0.930 1_655 S
C1094 H1088 0.930 . S
C1094 C1095 1.355 . S
C1094 C1096 1.415 . S
C1095 C1094 1.355 . S
C1095 C1097 1.419 . S
C1096 C1094 1.415 . S
C1096 C1101 1.425 1_655 S
C1096 C1103 1.409 1_655 S
C1097 H1089 0.930 . S
C1097 C1095 1.419 . S
C1097 C1098 1.362 . S
C1098 H1090 0.930 1_655 S
C1098 C1097 1.362 . S
C1098 C1101 1.409 1_655 S
C1099 H1091 0.930 . S
C1099 C1100 1.355 . S
C1099 C1101 1.415 . S
C1100 C1099 1.355 . S
C1100 C1102 1.419 . S
C1101 C1096 1.425 1_455 S
C1101 C1098 1.409 1_455 S
C1101 C1099 1.415 . S
C1102 H1092 0.930 . S
C1102 C1100 1.419 . S
C1102 C1103 1.362 . S
C1103 H1093 0.930 1_455 S
C1103 C1096 1.409 1_455 S
C1103 C1102 1.362 . S
H1104 C1110 0.930 . S
H1105 C1113 0.930 . S
H1106 C1114 0.930 . S
H1107 C1115 0.930 . S
H1108 C1118 0.930 . S
H1109 C1119 0.930 . S
C1110 H1104 0.930 . S
C1110 C1111 1.355 . S
C1110 C1112 1.415 . S
C1111 C1110 1.355 . S
C1111 C1113 1.419 . S
C1112 C1110 1.415 . S
C1112 C1117 1.425 1_655 S
C1112 C1119 1.409 1_655 S
C1113 H1105 0.930 . S
C1113 C1111 1.419 . S
C1113 C1114 1.362 . S
C1114 H1106 0.930 . S
C1114 C1113 1.362 . S
C1114 C1117 1.409 1_655 S
C1115 H1107 0.930 . S
C1115 C1116 1.355 . S
C1115 C1117 1.415 . S
C1116 C1115 1.355 . S
C1116 C1118 1.419 . S
C1117 C1112 1.425 1_455 S
C1117 C1114 1.409 1_455 S
C1117 C1115 1.415 . S
C1118 H1108 0.930 . S
C1118 C1116 1.419 . S
C1118 C1119 1.362 . S
C1119 H1109 0.930 . S
C1119 C1112 1.409 1_455 S
C1119 C1118 1.362 . S
H1120 C1126 0.930 . S
H1121 C1129 0.930 . S
H1122 C1130 0.930 1_565 S
H1123 C1131 0.930 . S
H1124 C1134 0.930 . S
H1125 C1135 0.930 1_545 S
C1126 H1120 0.930 . S
C1126 C1127 1.355 . S
C1126 C1128 1.415 . S
C1127 C1126 1.355 . S
C1127 C1129 1.419 . S
C1128 C1126 1.415 . S
C1128 C1133 1.425 1_545 S
C1128 C1135 1.409 1_545 S
C1129 H1121 0.930 . S
C1129 C1127 1.419 . S
C1129 C1130 1.362 . S
C1130 H1122 0.930 1_545 S
C1130 C1129 1.362 . S
C1130 C1133 1.409 1_545 S
C1131 H1123 0.930 . S
C1131 C1132 1.355 . S
C1131 C1133 1.415 . S
C1132 C1131 1.355 . S
C1132 C1134 1.419 . S
C1133 C1128 1.425 1_565 S
C1133 C1130 1.409 1_565 S
C1133 C1131 1.415 . S
C1134 H1124 0.930 . S
C1134 C1132 1.419 . S
C1134 C1135 1.362 . S
C1135 H1125 0.930 1_565 S
C1135 C1128 1.409 1_565 S
C1135 C1134 1.362 . S
H1136 C1142 0.930 . S
H1137 C1145 0.930 . S
H1138 C1146 0.930 . S
H1139 C1147 0.930 . S
H1140 C1150 0.930 . S
H1141 C1151 0.930 . S
C1142 H1136 0.930 . S
C1142 C1143 1.355 . S
C1142 C1144 1.415 . S
C1143 C1142 1.355 . S
C1143 C1145 1.419 . S
C1144 C1142 1.415 . S
C1144 C1149 1.425 1_565 S
C1144 C1151 1.409 1_565 S
C1145 H1137 0.930 . S
C1145 C1143 1.419 . S
C1145 C1146 1.362 . S
C1146 H1138 0.930 . S
C1146 C1145 1.362 . S
C1146 C1149 1.409 1_565 S
C1147 H1139 0.930 . S
C1147 C1148 1.355 . S
C1147 C1149 1.415 . S
C1148 C1147 1.355 . S
C1148 C1150 1.419 . S
C1149 C1144 1.425 1_545 S
C1149 C1146 1.409 1_545 S
C1149 C1147 1.415 . S
C1150 H1140 0.930 . S
C1150 C1148 1.419 . S
C1150 C1151 1.362 . S
C1151 H1141 0.930 . S
C1151 C1144 1.409 1_545 S
C1151 C1150 1.362 . S
H1152 C1158 0.930 . S
H1153 C1161 0.930 . S
H1154 C1162 0.930 . S
H1155 C1163 0.930 . S
H1156 C1166 0.930 . S
H1157 C1167 0.930 . S
C1158 H1152 0.930 . S
C1158 C1159 1.355 . S
C1158 C1160 1.415 . S
C1159 C1158 1.355 . S
C1159 C1161 1.419 . S
C1160 C1158 1.415 . S
C1160 C1165 1.425 1_655 S
C1160 C1167 1.409 1_655 S
C1161 H1153 0.930 . S
C1161 C1159 1.419 . S
C1161 C1162 1.362 . S
C1162 H1154 0.930 . S
C1162 C1161 1.362 . S
C1162 C1165 1.409 1_655 S
C1163 H1155 0.930 . S
C1163 C1164 1.355 . S
C1163 C1165 1.415 . S
C1164 C1163 1.355 . S
C1164 C1166 1.419 . S
C1165 C1160 1.425 1_455 S
C1165 C1162 1.409 1_455 S
C1165 C1163 1.415 . S
C1166 H1156 0.930 . S
C1166 C1164 1.419 . S
C1166 C1167 1.362 . S
C1167 H1157 0.930 . S
C1167 C1160 1.409 1_455 S
C1167 C1166 1.362 . S
C535 C358 1.382 . S
C540 C28 1.406 . S
C551 C391 1.387 . S
C556 C61 1.401 . S
C567 C292 1.395 . S
C572 C94 1.394 . S
C583 C325 1.415 . S
C588 C127 1.374 . S
C599 C160 1.390 . S
C604 C490 1.398 . S
C615 C193 1.415 . S
C620 C523 1.374 . S
C631 C424 1.379 . S
C636 C226 1.410 . S
C647 C457 1.411 . S
C652 C259 1.378 . S
C663 C116 1.542 . S
C668 N5 1.485 . S
C679 N38 1.464 . S
C684 C17 1.522 . S
C695 C50 1.527 . S
C700 N71 1.466 . S
C711 N104 1.464 . S
C716 C83 1.524 . S
C727 C182 1.524 . S
C732 N137 1.468 . S
C743 C215 1.579 . S
C748 N170 1.546 . S
C759 C248 1.542 . S
C764 N203 1.485 . S
C775 N236 1.547 . S
C780 C149 1.581 . S
C791 N269 1.526 . S
C796 C380 1.570 . S
C807 N302 1.535 . S
C812 C281 1.575 . S
C823 C314 1.577 . S
C828 N335 1.544 . S
C839 N368 1.515 . S
C844 C347 1.554 . S
C855 N401 1.546 . S
C860 C446 1.581 . S
C871 N434 1.532 . S
C876 C479 1.574 . S
C887 N467 1.543 . S
C892 C512 1.576 . S
C903 C413 1.529 . S
C908 N500 1.468 . S
C919 C239 0.951 . S
C924 C8 0.937 . S
C935 C41 0.998 . S
C940 C140 1.001 . S
C951 C173 1.001 . S
C956 C74 0.995 . S
C967 C206 0.999 . S
C972 C107 0.990 . S
C983 C272 0.987 . S
C988 C503 0.998 . S
C999 C404 0.931 . S
C1004 C305 0.928 . S
C1015 C338 0.928 . S
C1020 C437 0.935 . S
C1031 C470 1.000 . S
C1036 C371 1.000 . S
C1047 N80 1.577 . S
C1052 N14 1.617 . S
C1063 N113 1.591 . S
C1068 N47 1.610 . S
C1079 N146 1.588 . S
C1084 N212 1.584 . S
C1095 N179 1.577 . S
C1100 N245 1.617 . S
C1111 N278 1.613 . S
C1116 N344 1.569 . S
C1127 N377 1.573 . S
C1132 N311 1.617 . S
C1143 N410 1.571 . S
C1148 N476 1.607 . S
C1159 N509 1.617 . S
C1164 N443 1.571 . S
