# Generated by pormake.
# Topology umu, (4)-cn, num edge types: 1
# Building blocks:
#     Node 0, Type 0, BuildingBlock: GALJAG_clean_sbu_0, # of connection points: 4
#     Node 1, Type 0, BuildingBlock: GALJAG_clean_sbu_0, # of connection points: 4
#     Node 2, Type 0, BuildingBlock: GALJAG_clean_sbu_0, # of connection points: 4
#     Node 3, Type 0, BuildingBlock: GALJAG_clean_sbu_0, # of connection points: 4
#     Node 4, Type 0, BuildingBlock: GALJAG_clean_sbu_0, # of connection points: 4
#     Node 5, Type 0, BuildingBlock: GALJAG_clean_sbu_0, # of connection points: 4
#     Node 6, Type 0, BuildingBlock: GALJAG_clean_sbu_0, # of connection points: 4
#     Node 7, Type 0, BuildingBlock: GALJAG_clean_sbu_0, # of connection points: 4
#     Node 8, Type 0, BuildingBlock: GALJAG_clean_sbu_0, # of connection points: 4
#     Node 9, Type 0, BuildingBlock: GALJAG_clean_sbu_0, # of connection points: 4
#     Node 10, Type 0, BuildingBlock: GALJAG_clean_sbu_0, # of connection points: 4
#     Node 11, Type 0, BuildingBlock: GALJAG_clean_sbu_0, # of connection points: 4
#     Node 12, Type 0, BuildingBlock: GALJAG_clean_sbu_0, # of connection points: 4
#     Node 13, Type 0, BuildingBlock: GALJAG_clean_sbu_0, # of connection points: 4
#     Node 14, Type 0, BuildingBlock: GALJAG_clean_sbu_0, # of connection points: 4
#     Node 15, Type 0, BuildingBlock: GALJAG_clean_sbu_0, # of connection points: 4
#     Node 16, Type 0, BuildingBlock: GALJAG_clean_sbu_0, # of connection points: 4
#     Node 17, Type 0, BuildingBlock: GALJAG_clean_sbu_0, # of connection points: 4
#     Node 18, Type 0, BuildingBlock: GALJAG_clean_sbu_0, # of connection points: 4
#     Node 19, Type 0, BuildingBlock: GALJAG_clean_sbu_0, # of connection points: 4
#     Node 20, Type 0, BuildingBlock: GALJAG_clean_sbu_0, # of connection points: 4
#     Node 21, Type 0, BuildingBlock: GALJAG_clean_sbu_0, # of connection points: 4
#     Node 22, Type 0, BuildingBlock: GALJAG_clean_sbu_0, # of connection points: 4
#     Node 23, Type 0, BuildingBlock: GALJAG_clean_sbu_0, # of connection points: 4
#     Node 24, Type 0, BuildingBlock: GALJAG_clean_sbu_0, # of connection points: 4
#     Node 25, Type 0, BuildingBlock: GALJAG_clean_sbu_0, # of connection points: 4
#     Node 26, Type 0, BuildingBlock: GALJAG_clean_sbu_0, # of connection points: 4
#     Node 27, Type 0, BuildingBlock: GALJAG_clean_sbu_0, # of connection points: 4
#     Node 28, Type 0, BuildingBlock: GALJAG_clean_sbu_0, # of connection points: 4
#     Node 29, Type 0, BuildingBlock: GALJAG_clean_sbu_0, # of connection points: 4
#     Node 30, Type 0, BuildingBlock: GALJAG_clean_sbu_0, # of connection points: 4
#     Node 31, Type 0, BuildingBlock: GALJAG_clean_sbu_0, # of connection points: 4
#     Edge 32, Type (0, 0), BuildingBlock: AJUNOK_clean_linker_0, # of connection points: 2
#     Edge 33, Type (0, 0), BuildingBlock: AJUNOK_clean_linker_0, # of connection points: 2
#     Edge 34, Type (0, 0), BuildingBlock: AJUNOK_clean_linker_0, # of connection points: 2
#     Edge 35, Type (0, 0), BuildingBlock: AJUNOK_clean_linker_0, # of connection points: 2
#     Edge 36, Type (0, 0), BuildingBlock: AJUNOK_clean_linker_0, # of connection points: 2
#     Edge 37, Type (0, 0), BuildingBlock: AJUNOK_clean_linker_0, # of connection points: 2
#     Edge 38, Type (0, 0), BuildingBlock: AJUNOK_clean_linker_0, # of connection points: 2
#     Edge 39, Type (0, 0), BuildingBlock: AJUNOK_clean_linker_0, # of connection points: 2
#     Edge 40, Type (0, 0), BuildingBlock: AJUNOK_clean_linker_0, # of connection points: 2
#     Edge 41, Type (0, 0), BuildingBlock: AJUNOK_clean_linker_0, # of connection points: 2
#     Edge 42, Type (0, 0), BuildingBlock: AJUNOK_clean_linker_0, # of connection points: 2
#     Edge 43, Type (0, 0), BuildingBlock: AJUNOK_clean_linker_0, # of connection points: 2
#     Edge 44, Type (0, 0), BuildingBlock: AJUNOK_clean_linker_0, # of connection points: 2
#     Edge 45, Type (0, 0), BuildingBlock: AJUNOK_clean_linker_0, # of connection points: 2
#     Edge 46, Type (0, 0), BuildingBlock: AJUNOK_clean_linker_0, # of connection points: 2
#     Edge 47, Type (0, 0), BuildingBlock: AJUNOK_clean_linker_0, # of connection points: 2
#     Edge 48, Type (0, 0), BuildingBlock: AJUNOK_clean_linker_0, # of connection points: 2
#     Edge 49, Type (0, 0), BuildingBlock: AJUNOK_clean_linker_0, # of connection points: 2
#     Edge 50, Type (0, 0), BuildingBlock: AJUNOK_clean_linker_0, # of connection points: 2
#     Edge 51, Type (0, 0), BuildingBlock: AJUNOK_clean_linker_0, # of connection points: 2
#     Edge 52, Type (0, 0), BuildingBlock: AJUNOK_clean_linker_0, # of connection points: 2
#     Edge 53, Type (0, 0), BuildingBlock: AJUNOK_clean_linker_0, # of connection points: 2
#     Edge 54, Type (0, 0), BuildingBlock: AJUNOK_clean_linker_0, # of connection points: 2
#     Edge 55, Type (0, 0), BuildingBlock: AJUNOK_clean_linker_0, # of connection points: 2
#     Edge 56, Type (0, 0), BuildingBlock: AJUNOK_clean_linker_0, # of connection points: 2
#     Edge 57, Type (0, 0), BuildingBlock: AJUNOK_clean_linker_0, # of connection points: 2
#     Edge 58, Type (0, 0), BuildingBlock: AJUNOK_clean_linker_0, # of connection points: 2
#     Edge 59, Type (0, 0), BuildingBlock: AJUNOK_clean_linker_0, # of connection points: 2
#     Edge 60, Type (0, 0), BuildingBlock: AJUNOK_clean_linker_0, # of connection points: 2
#     Edge 61, Type (0, 0), BuildingBlock: AJUNOK_clean_linker_0, # of connection points: 2
#     Edge 62, Type (0, 0), BuildingBlock: AJUNOK_clean_linker_0, # of connection points: 2
#     Edge 63, Type (0, 0), BuildingBlock: AJUNOK_clean_linker_0, # of connection points: 2
#     Edge 64, Type (0, 0), BuildingBlock: AJUNOK_clean_linker_0, # of connection points: 2
#     Edge 65, Type (0, 0), BuildingBlock: AJUNOK_clean_linker_0, # of connection points: 2
#     Edge 66, Type (0, 0), BuildingBlock: AJUNOK_clean_linker_0, # of connection points: 2
#     Edge 67, Type (0, 0), BuildingBlock: AJUNOK_clean_linker_0, # of connection points: 2
#     Edge 68, Type (0, 0), BuildingBlock: AJUNOK_clean_linker_0, # of connection points: 2
#     Edge 69, Type (0, 0), BuildingBlock: AJUNOK_clean_linker_0, # of connection points: 2
#     Edge 70, Type (0, 0), BuildingBlock: AJUNOK_clean_linker_0, # of connection points: 2
#     Edge 71, Type (0, 0), BuildingBlock: AJUNOK_clean_linker_0, # of connection points: 2
#     Edge 72, Type (0, 0), BuildingBlock: AJUNOK_clean_linker_0, # of connection points: 2
#     Edge 73, Type (0, 0), BuildingBlock: AJUNOK_clean_linker_0, # of connection points: 2
#     Edge 74, Type (0, 0), BuildingBlock: AJUNOK_clean_linker_0, # of connection points: 2
#     Edge 75, Type (0, 0), BuildingBlock: AJUNOK_clean_linker_0, # of connection points: 2
#     Edge 76, Type (0, 0), BuildingBlock: AJUNOK_clean_linker_0, # of connection points: 2
#     Edge 77, Type (0, 0), BuildingBlock: AJUNOK_clean_linker_0, # of connection points: 2
#     Edge 78, Type (0, 0), BuildingBlock: AJUNOK_clean_linker_0, # of connection points: 2
#     Edge 79, Type (0, 0), BuildingBlock: AJUNOK_clean_linker_0, # of connection points: 2
#     Edge 80, Type (0, 0), BuildingBlock: AJUNOK_clean_linker_0, # of connection points: 2
#     Edge 81, Type (0, 0), BuildingBlock: AJUNOK_clean_linker_0, # of connection points: 2
#     Edge 82, Type (0, 0), BuildingBlock: AJUNOK_clean_linker_0, # of connection points: 2
#     Edge 83, Type (0, 0), BuildingBlock: AJUNOK_clean_linker_0, # of connection points: 2
#     Edge 84, Type (0, 0), BuildingBlock: AJUNOK_clean_linker_0, # of connection points: 2
#     Edge 85, Type (0, 0), BuildingBlock: AJUNOK_clean_linker_0, # of connection points: 2
#     Edge 86, Type (0, 0), BuildingBlock: AJUNOK_clean_linker_0, # of connection points: 2
#     Edge 87, Type (0, 0), BuildingBlock: AJUNOK_clean_linker_0, # of connection points: 2
#     Edge 88, Type (0, 0), BuildingBlock: AJUNOK_clean_linker_0, # of connection points: 2
#     Edge 89, Type (0, 0), BuildingBlock: AJUNOK_clean_linker_0, # of connection points: 2
#     Edge 90, Type (0, 0), BuildingBlock: AJUNOK_clean_linker_0, # of connection points: 2
#     Edge 91, Type (0, 0), BuildingBlock: AJUNOK_clean_linker_0, # of connection points: 2
#     Edge 92, Type (0, 0), BuildingBlock: AJUNOK_clean_linker_0, # of connection points: 2
#     Edge 93, Type (0, 0), BuildingBlock: AJUNOK_clean_linker_0, # of connection points: 2
#     Edge 94, Type (0, 0), BuildingBlock: AJUNOK_clean_linker_0, # of connection points: 2
#     Edge 95, Type (0, 0), BuildingBlock: AJUNOK_clean_linker_0, # of connection points: 2
# Relax obj value: 0.104
# Max RMSD: 0.078
# Mean RMSD: 0.078
data_MOF--net-umu--node1-GALJAG_clean_sbu_0--edge1-AJUNOK_clean_linker_0
_symmetry_space_group_name_H-M    P1
_symmetry_Int_Tables_number       1
_symmetry_cell_setting            triclinic
loop_
_symmetry_equiv_pos_as_xyz
'x, y, z'
_cell_length_a     59.030306
_cell_length_b     59.000395
_cell_length_c     20.098802
_cell_angle_alpha  89.988311
_cell_angle_beta   90.011385
_cell_angle_gamma 89.991309
loop_
_atom_site_label
_atom_site_type_symbol
_atom_site_fract_x
_atom_site_fract_y
_atom_site_fract_z
_atom_type_partial_charge
In0 In 0.21091 0.15845 0.07152 0.0
O1 O 0.24069 0.15369 0.9999 0.0
O2 O 0.21028 0.16865 0.96342 0.0
C3 C 0.22824 0.14316 0.18781 0.0
C4 C 0.18031 0.12839 0.02634 0.0
C5 C 0.20647 0.20283 0.10029 0.0
O6 O 0.24 0.14537 0.13572 0.0
O7 O 0.20748 0.14772 0.18032 0.0
O8 O 0.18951 0.18978 0.09772 0.0
O9 O 0.22523 0.19333 0.08936 0.0
C10 C 0.22995 0.16165 0.95067 0.0
O11 O 0.17481 0.14811 0.04495 0.0
O12 O 0.20078 0.12327 0.03677 0.0
In13 In 0.09292 0.96056 0.32318 0.0
O14 O 0.10006 0.99071 0.25488 0.0
O15 O 0.08375 0.96177 0.21384 0.0
C16 C 0.1076 0.9774 0.44081 0.0
C17 C 0.12241 0.92878 0.28154 0.0
C18 C 0.04832 0.95764 0.35022 0.0
O19 O 0.1064 0.98915 0.38842 0.0
O20 O 0.10225 0.95682 0.4332 0.0
O21 O 0.06072 0.94019 0.34771 0.0
O22 O 0.05849 0.97602 0.3391 0.0
C23 C 0.09178 0.98127 0.20396 0.0
O24 O 0.10189 0.9242 0.2935 0.0
O25 O 0.12819 0.94878 0.29582 0.0
In26 In 0.28735 0.84213 0.57168 0.0
O27 O 0.32314 0.85052 0.53382 0.0
O28 O 0.29898 0.87703 0.54105 0.0
C29 C 0.29262 0.7979 0.59919 0.0
C30 C 0.26494 0.84078 0.45562 0.0
C31 C 0.2701 0.85538 0.68997 0.0
O32 O 0.30951 0.81105 0.594 0.0
O33 O 0.27359 0.80732 0.59163 0.0
O34 O 0.25804 0.85218 0.63897 0.0
O35 O 0.2911 0.8527 0.68063 0.0
C36 C 0.31836 0.87101 0.52175 0.0
O37 O 0.26119 0.85594 0.49852 0.0
O38 O 0.27902 0.82586 0.47266 0.0
In39 In 0.40371 0.03653 0.81707 0.0
O40 O 0.39801 0.00715 0.74461 0.0
O41 O 0.41377 0.03721 0.70868 0.0
C42 C 0.38906 0.01793 0.93255 0.0
C43 C 0.37456 0.06852 0.77468 0.0
C44 C 0.4482 0.04037 0.84477 0.0
O45 O 0.39034 0.00694 0.87881 0.0
O46 O 0.39404 0.03869 0.92717 0.0
O47 O 0.43509 0.0573 0.8462 0.0
O48 O 0.43871 0.02189 0.83031 0.0
C49 C 0.40629 0.01774 0.69557 0.0
O50 O 0.39454 0.07313 0.79273 0.0
O51 O 0.36874 0.04818 0.78424 0.0
In52 In 0.21015 0.84199 0.06792 0.0
O53 O 0.23605 0.85529 0.14247 0.0
O54 O 0.21681 0.82611 0.16863 0.0
C55 C 0.22869 0.85534 0.95144 0.0
C56 C 0.17905 0.87114 0.11557 0.0
C57 C 0.2055 0.79774 0.03968 0.0
O58 O 0.24009 0.85239 0.00382 0.0
O59 O 0.2076 0.85234 0.95838 0.0
O60 O 0.18846 0.81078 0.04282 0.0
O61 O 0.22434 0.80726 0.0498 0.0
C62 C 0.23128 0.84062 0.18599 0.0
O63 O 0.17407 0.85075 0.10282 0.0
O64 O 0.19862 0.87697 0.09754 0.0
In65 In 0.40517 0.95898 0.31072 0.0
O66 O 0.3951 0.92277 0.33907 0.0
O67 O 0.36983 0.94843 0.34123 0.0
C68 C 0.44969 0.9554 0.2832 0.0
C69 C 0.40737 0.97968 0.42975 0.0
C70 C 0.39035 0.97568 0.19307 0.0
O71 O 0.43721 0.93806 0.28823 0.0
O72 O 0.43963 0.97398 0.29202 0.0
O73 O 0.3916 0.98749 0.24533 0.0
O74 O 0.39568 0.95509 0.20087 0.0
C75 C 0.37496 0.9281 0.35374 0.0
O76 O 0.39947 0.98948 0.37884 0.0
O77 O 0.4145 0.95984 0.41994 0.0
In78 In 0.28766 0.15724 0.56499 0.0
O79 O 0.32384 0.14698 0.59176 0.0
O80 O 0.29799 0.12207 0.59955 0.0
C81 C 0.29206 0.20148 0.53418 0.0
C82 C 0.26725 0.16097 0.68404 0.0
C83 C 0.27001 0.1422 0.44879 0.0
O84 O 0.30913 0.18868 0.54015 0.0
O85 O 0.27328 0.19189 0.54382 0.0
O86 O 0.2587 0.14347 0.50194 0.0
O87 O 0.29068 0.14741 0.45507 0.0
C88 C 0.31845 0.1272 0.6099 0.0
O89 O 0.25746 0.15219 0.63441 0.0
O90 O 0.28693 0.16827 0.67287 0.0
In91 In 0.09531 0.03845 0.81692 0.0
O92 O 0.10491 0.07501 0.83998 0.0
O93 O 0.13038 0.04977 0.84975 0.0
C94 C 0.05073 0.04266 0.79078 0.0
C95 C 0.09308 0.01954 0.93835 0.0
C96 C 0.1096 0.01984 0.70106 0.0
O97 O 0.06387 0.05956 0.79012 0.0
O98 O 0.06021 0.02404 0.80377 0.0
O99 O 0.10855 0.00889 0.75491 0.0
O100 O 0.1046 0.04059 0.70647 0.0
C101 C 0.1248 0.07022 0.85854 0.0
O102 O 0.10066 0.00879 0.88868 0.0
O103 O 0.08607 0.03925 0.92596 0.0
In104 In 0.78751 0.84356 0.0709 0.0
O105 O 0.75722 0.85036 0.13856 0.0
O106 O 0.78622 0.83418 0.17991 0.0
C107 C 0.77014 0.85746 0.95317 0.0
C108 C 0.8179 0.87416 0.11467 0.0
C109 C 0.79198 0.79884 0.04651 0.0
O110 O 0.75839 0.85549 0.0053 0.0
O111 O 0.79097 0.85322 0.96101 0.0
O112 O 0.80889 0.812 0.04615 0.0
O113 O 0.77332 0.8084 0.05824 0.0
C114 C 0.76667 0.8421 0.18956 0.0
O115 O 0.82344 0.85399 0.10082 0.0
O116 O 0.79767 0.87914 0.10069 0.0
In117 In 0.90834 0.03878 0.81665 0.0
O118 O 0.90331 0.00914 0.88837 0.0
O119 O 0.91904 0.03924 0.92437 0.0
C120 C 0.89326 0.02126 0.70048 0.0
C121 C 0.87761 0.06852 0.86261 0.0
C122 C 0.95273 0.04306 0.78901 0.0
O123 O 0.89576 0.00952 0.75251 0.0
O124 O 0.89752 0.04211 0.70785 0.0
O125 O 0.93976 0.06012 0.79116 0.0
O126 O 0.9431 0.02434 0.79959 0.0
C127 C 0.91168 0.01969 0.93737 0.0
O128 O 0.89696 0.07483 0.84284 0.0
O129 O 0.8733 0.04786 0.85262 0.0
In130 In 0.71048 0.15416 0.56658 0.0
O131 O 0.73604 0.14025 0.64197 0.0
O132 O 0.71817 0.17054 0.66554 0.0
C133 C 0.72734 0.14026 0.44829 0.0
C134 C 0.67753 0.12707 0.61432 0.0
C135 C 0.70823 0.1986 0.53839 0.0
O136 O 0.73934 0.14222 0.49994 0.0
O137 O 0.70653 0.14429 0.45715 0.0
O138 O 0.69048 0.18658 0.54258 0.0
O139 O 0.72651 0.18797 0.54752 0.0
C140 C 0.73229 0.15581 0.6837 0.0
O141 O 0.67392 0.14764 0.60031 0.0
O142 O 0.69697 0.12002 0.59868 0.0
In143 In 0.5916 0.96129 0.31688 0.0
O144 O 0.59563 0.99142 0.38749 0.0
O145 O 0.5816 0.96068 0.42508 0.0
C146 C 0.60648 0.97853 0.2002 0.0
C147 C 0.62266 0.93198 0.36337 0.0
C148 C 0.5474 0.95658 0.28704 0.0
O149 O 0.60435 0.99034 0.25223 0.0
O150 O 0.60215 0.95771 0.20798 0.0
O151 O 0.56034 0.93956 0.29186 0.0
O152 O 0.55684 0.97539 0.29746 0.0
C153 C 0.58816 0.98057 0.43715 0.0
O154 O 0.60323 0.92554 0.34456 0.0
O155 O 0.62691 0.95258 0.35208 0.0
In156 In 0.78812 0.15468 0.07109 0.0
O157 O 0.82433 0.14696 0.03584 0.0
O158 O 0.80132 0.11964 0.04739 0.0
C159 C 0.79226 0.19895 0.09998 0.0
C160 C 0.76737 0.15629 0.9521 0.0
C161 C 0.7691 0.14135 0.18707 0.0
O162 O 0.80939 0.18602 0.09758 0.0
O163 O 0.77353 0.18928 0.08928 0.0
O164 O 0.75795 0.14377 0.13394 0.0
O165 O 0.79013 0.14488 0.1811 0.0
C166 C 0.82059 0.12603 0.02811 0.0
O167 O 0.76292 0.14106 0.99424 0.0
O168 O 0.78161 0.1708 0.97082 0.0
In169 In 0.59089 0.03831 0.8231 0.0
O170 O 0.59968 0.07491 0.79591 0.0
O171 O 0.6258 0.05018 0.79172 0.0
C172 C 0.54624 0.04137 0.84902 0.0
C173 C 0.58891 0.01809 0.70344 0.0
C174 C 0.60568 0.02049 0.93942 0.0
O175 O 0.55895 0.05862 0.84984 0.0
O176 O 0.55623 0.023 0.83637 0.0
O177 O 0.60479 0.00933 0.88595 0.0
O178 O 0.60006 0.04107 0.93356 0.0
C179 C 0.61987 0.07035 0.77999 0.0
O180 O 0.59778 0.00855 0.75339 0.0
O181 O 0.58078 0.03746 0.71453 0.0
In182 In 0.70954 0.84513 0.57605 0.0
O183 O 0.7394 0.85011 0.50511 0.0
O184 O 0.70836 0.83722 0.46639 0.0
C185 C 0.72774 0.85875 0.69283 0.0
C186 C 0.67882 0.87582 0.53537 0.0
C187 C 0.70593 0.8003 0.59875 0.0
O188 O 0.73873 0.8585 0.63895 0.0
O189 O 0.70716 0.85314 0.68711 0.0
O190 O 0.68887 0.81324 0.60183 0.0
O191 O 0.72431 0.81014 0.58536 0.0
C192 C 0.72835 0.84353 0.45476 0.0
O193 O 0.67338 0.85566 0.54965 0.0
O194 O 0.69917 0.88082 0.54797 0.0
In195 In 0.906 0.96198 0.32285 0.0
O196 O 0.89482 0.92596 0.29628 0.0
O197 O 0.87062 0.95256 0.28963 0.0
C198 C 0.95044 0.95822 0.35075 0.0
C199 C 0.90975 0.98208 0.20356 0.0
C200 C 0.89145 0.97938 0.43975 0.0
O201 O 0.93783 0.94092 0.34684 0.0
O202 O 0.94051 0.9768 0.34073 0.0
O203 O 0.89184 0.99064 0.38634 0.0
O204 O 0.89731 0.95887 0.4334 0.0
C205 C 0.8751 0.93197 0.27893 0.0
O206 O 0.90206 0.99244 0.25379 0.0
O207 O 0.91581 0.96192 0.21413 0.0
In208 In 0.70982 0.65729 0.57149 0.0
O209 O 0.67322 0.64817 0.54634 0.0
O210 O 0.69795 0.62201 0.54341 0.0
C211 C 0.70623 0.70209 0.59544 0.0
C212 C 0.72877 0.65805 0.45 0.0
C213 C 0.72861 0.64321 0.68736 0.0
O214 O 0.68932 0.68903 0.59957 0.0
O215 O 0.72453 0.69242 0.58013 0.0
O216 O 0.73944 0.64413 0.63332 0.0
O217 O 0.7079 0.64839 0.68229 0.0
C218 C 0.67775 0.62784 0.5317 0.0
O219 O 0.73943 0.65096 0.50046 0.0
O220 O 0.7091 0.66532 0.46156 0.0
In221 In 0.59433 0.45948 0.82771 0.0
O222 O 0.60849 0.48517 0.75382 0.0
O223 O 0.57749 0.46868 0.72998 0.0
C224 C 0.60828 0.47667 0.94539 0.0
C225 C 0.62247 0.42803 0.77652 0.0
C226 C 0.55045 0.45464 0.8596 0.0
O227 O 0.605 0.48872 0.8944 0.0
O228 O 0.60541 0.45566 0.93623 0.0
O229 O 0.56321 0.43756 0.85159 0.0
O230 O 0.55999 0.47358 0.85156 0.0
C231 C 0.59287 0.48211 0.71193 0.0
O232 O 0.60178 0.42379 0.78709 0.0
O233 O 0.629 0.44697 0.79812 0.0
In234 In 0.78796 0.34171 0.06908 0.0
O235 O 0.75844 0.34777 0.99752 0.0
O236 O 0.7884 0.33218 0.96025 0.0
C237 C 0.76923 0.35615 0.18456 0.0
C238 C 0.81951 0.3713 0.02633 0.0
C239 C 0.792 0.29709 0.09588 0.0
O240 O 0.75827 0.35466 0.13082 0.0
O241 O 0.79004 0.35142 0.1793 0.0
O242 O 0.80889 0.31026 0.09763 0.0
O243 O 0.77351 0.30658 0.08145 0.0
C244 C 0.76892 0.33981 0.94787 0.0
O245 O 0.82437 0.35123 0.04307 0.0
O246 O 0.79925 0.37696 0.03765 0.0
In247 In 0.90615 0.53661 0.31987 0.0
O248 O 0.90135 0.50606 0.25146 0.0
O249 O 0.91693 0.53568 0.21193 0.0
C250 C 0.8911 0.51992 0.43738 0.0
C251 C 0.87554 0.56647 0.27298 0.0
C252 C 0.9505 0.54104 0.34892 0.0
O253 O 0.8929 0.508 0.38549 0.0
O254 O 0.89592 0.54062 0.42918 0.0
O255 O 0.93782 0.55816 0.34191 0.0
O256 O 0.94071 0.52225 0.34143 0.0
C257 C 0.90986 0.51585 0.2014 0.0
O258 O 0.895 0.57259 0.29228 0.0
O259 O 0.87108 0.54585 0.2833 0.0
In260 In 0.71012 0.34176 0.56321 0.0
O261 O 0.67384 0.35136 0.59237 0.0
O262 O 0.69902 0.37711 0.59165 0.0
C263 C 0.70802 0.29689 0.53927 0.0
C264 C 0.73059 0.34052 0.68248 0.0
C265 C 0.72675 0.35595 0.44484 0.0
O266 O 0.69037 0.30908 0.53896 0.0
O267 O 0.72608 0.30745 0.5513 0.0
O268 O 0.73845 0.35551 0.49745 0.0
O269 O 0.70631 0.35015 0.45262 0.0
C270 C 0.67888 0.37171 0.60558 0.0
O271 O 0.7404 0.34827 0.63137 0.0
O272 O 0.71081 0.33319 0.67279 0.0
In273 In 0.9056 0.45968 0.81367 0.0
O274 O 0.89556 0.42325 0.83787 0.0
O275 O 0.87067 0.449 0.8492 0.0
C276 C 0.94983 0.45589 0.78284 0.0
C277 C 0.90932 0.47844 0.93489 0.0
C278 C 0.89037 0.47797 0.69842 0.0
O279 O 0.93712 0.43868 0.78661 0.0
O280 O 0.94015 0.47449 0.79457 0.0
O281 O 0.89179 0.48906 0.75197 0.0
O282 O 0.89545 0.45723 0.70396 0.0
C283 C 0.87593 0.42847 0.85785 0.0
O284 O 0.90089 0.48916 0.88633 0.0
O285 O 0.91647 0.45887 0.92137 0.0
In286 In 0.78841 0.65569 0.06637 0.0
O287 O 0.82437 0.64515 0.09577 0.0
O288 O 0.79869 0.61992 0.09435 0.0
C289 C 0.7925 0.70057 0.04397 0.0
C290 C 0.76762 0.65707 0.18522 0.0
C291 C 0.77133 0.64247 0.94754 0.0
O292 O 0.80956 0.68759 0.0435 0.0
O293 O 0.77391 0.69075 0.05475 0.0
O294 O 0.75961 0.64337 1.00002 0.0
O295 O 0.792 0.64733 0.95561 0.0
C296 C 0.81892 0.62488 0.10848 0.0
O297 O 0.75794 0.64931 0.13392 0.0
O298 O 0.78741 0.6644 0.17587 0.0
In299 In 0.59369 0.53631 0.32286 0.0
O300 O 0.60029 0.57303 0.3551 0.0
O301 O 0.62799 0.55012 0.35257 0.0
C302 C 0.54947 0.53927 0.29223 0.0
C303 C 0.59278 0.51543 0.44161 0.0
C304 C 0.60799 0.51805 0.20686 0.0
O305 O 0.56173 0.5568 0.29776 0.0
O306 O 0.55966 0.52075 0.30187 0.0
O307 O 0.60545 0.50664 0.25942 0.0
O308 O 0.6042 0.53902 0.21351 0.0
C309 C 0.62094 0.56956 0.36817 0.0
O310 O 0.60783 0.51123 0.39874 0.0
O311 O 0.57776 0.52923 0.42328 0.0
In312 In 0.28915 0.34317 0.56435 0.0
O313 O 0.26381 0.35681 0.64057 0.0
O314 O 0.28033 0.32557 0.66108 0.0
C315 C 0.27221 0.35811 0.44712 0.0
C316 C 0.32188 0.37002 0.615 0.0
C317 C 0.29302 0.29924 0.53119 0.0
O318 O 0.26012 0.35502 0.49811 0.0
O319 O 0.29311 0.35465 0.45618 0.0
O320 O 0.31032 0.31155 0.54049 0.0
O321 O 0.27428 0.30927 0.53819 0.0
C322 C 0.26685 0.34065 0.68078 0.0
O323 O 0.32548 0.34948 0.60058 0.0
O324 O 0.30259 0.37721 0.59826 0.0
In325 In 0.40711 0.53474 0.32185 0.0
O326 O 0.40087 0.50466 0.39123 0.0
O327 O 0.41772 0.53366 0.43006 0.0
C328 C 0.39223 0.51769 0.20449 0.0
C329 C 0.37784 0.56648 0.36572 0.0
C330 C 0.4516 0.53838 0.29314 0.0
O331 O 0.39376 0.50595 0.25682 0.0
O332 O 0.39713 0.53837 0.21222 0.0
O333 O 0.43902 0.55564 0.29806 0.0
O334 O 0.44166 0.51977 0.30265 0.0
C335 C 0.40985 0.51417 0.44105 0.0
O336 O 0.39775 0.57127 0.34741 0.0
O337 O 0.37222 0.54608 0.35636 0.0
In338 In 0.21066 0.65498 0.06425 0.0
O339 O 0.17464 0.64377 0.09005 0.0
O340 O 0.20092 0.61916 0.09328 0.0
C341 C 0.20589 0.69962 0.03916 0.0
C342 C 0.22955 0.65725 0.18566 0.0
C343 C 0.22929 0.64116 0.94799 0.0
O344 O 0.18908 0.68633 0.03856 0.0
O345 O 0.2246 0.69024 0.05152 0.0
O346 O 0.24024 0.64211 1.00186 0.0
O347 O 0.20855 0.6462 0.95342 0.0
C348 C 0.18042 0.62376 0.10498 0.0
O349 O 0.2406 0.65055 0.13545 0.0
O350 O 0.20953 0.66341 0.17382 0.0
In351 In 0.09196 0.45912 0.80842 0.0
O352 O 0.0978 0.48936 0.87727 0.0
O353 O 0.08157 0.4601 0.9167 0.0
C354 C 0.10652 0.47598 0.69084 0.0
C355 C 0.12259 0.42872 0.85198 0.0
C356 C 0.04757 0.45542 0.77967 0.0
O357 O 0.10509 0.48781 0.74304 0.0
O358 O 0.10152 0.45531 0.69871 0.0
O359 O 0.06011 0.4381 0.78455 0.0
O360 O 0.05752 0.47402 0.78919 0.0
C361 C 0.08913 0.47973 0.92736 0.0
O362 O 0.10242 0.42314 0.83843 0.0
O363 O 0.12748 0.44901 0.83826 0.0
In364 In 0.28902 0.65514 0.56965 0.0
O365 O 0.25879 0.64843 0.50136 0.0
O366 O 0.28755 0.6653 0.46113 0.0
C367 C 0.27182 0.64097 0.68755 0.0
C368 C 0.3204 0.6255 0.52565 0.0
C369 C 0.29329 0.69978 0.59581 0.0
O370 O 0.26009 0.64256 0.63526 0.0
O371 O 0.29257 0.64552 0.67962 0.0
O372 O 0.3103 0.68678 0.59386 0.0
O373 O 0.27459 0.69013 0.58534 0.0
C374 C 0.26809 0.65724 0.45095 0.0
O375 O 0.32529 0.64561 0.54177 0.0
O376 O 0.30014 0.61991 0.53736 0.0
In377 In 0.09241 0.53629 0.31448 0.0
O378 O 0.10409 0.57227 0.2893 0.0
O379 O 0.12781 0.54533 0.28046 0.0
C380 C 0.0482 0.54084 0.34473 0.0
C381 C 0.08871 0.51743 0.19352 0.0
C382 C 0.10719 0.51803 0.43007 0.0
O383 O 0.06106 0.55791 0.33983 0.0
O384 O 0.05769 0.52207 0.33414 0.0
O385 O 0.10575 0.50689 0.37662 0.0
O386 O 0.10228 0.53881 0.42435 0.0
C387 C 0.12359 0.56602 0.27063 0.0
O388 O 0.09613 0.50641 0.2429 0.0
O389 O 0.08241 0.53737 0.20611 0.0
In390 In 0.21244 0.34471 0.06917 0.0
O391 O 0.17618 0.35329 0.03562 0.0
O392 O 0.20097 0.37931 0.03486 0.0
C393 C 0.2071 0.3008 0.10073 0.0
C394 C 0.23366 0.34125 0.9513 0.0
C395 C 0.23101 0.35879 0.1852 0.0
O396 O 0.19025 0.31397 0.09478 0.0
O397 O 0.22615 0.31005 0.09189 0.0
O398 O 0.24241 0.35553 0.13299 0.0
O399 O 0.20992 0.35587 0.17815 0.0
C400 C 0.18114 0.37341 0.01959 0.0
O401 O 0.23821 0.35686 0.99215 0.0
O402 O 0.21918 0.32712 0.97099 0.0
In403 In 0.40844 0.4573 0.82854 0.0
O404 O 0.39879 0.42076 0.80349 0.0
O405 O 0.37341 0.44618 0.79578 0.0
C406 C 0.45278 0.45375 0.85848 0.0
C407 C 0.41107 0.47633 0.70724 0.0
C408 C 0.39311 0.47543 0.94391 0.0
O409 O 0.44018 0.43647 0.85469 0.0
O410 O 0.44296 0.47231 0.84709 0.0
O411 O 0.39437 0.48651 0.89031 0.0
O412 O 0.39851 0.45477 0.93849 0.0
C413 C 0.37888 0.42578 0.78564 0.0
O414 O 0.40324 0.487 0.75673 0.0
O415 O 0.41824 0.4567 0.71982 0.0
C416 C 0.15996 0.07856 0.92319 0.0
C417 C 0.13904 0.08605 0.89778 0.0
C418 C 0.17279 0.09211 0.96629 0.0
C419 C 0.16522 0.11369 0.98609 0.0
H420 H 0.16643 0.06195 0.91038 0.0
H421 H 0.18887 0.0856 0.98389 0.0
S422 S 0.11173 0.14146 0.933 0.0
N423 N 0.11141 0.11664 0.89513 0.0
N424 N 0.13552 0.1421 0.97613 0.0
C425 C 0.14435 0.12146 0.96097 0.0
C426 C 0.1313 0.10768 0.91674 0.0
C427 C 0.12869 0.89368 0.21355 0.0
C428 C 0.13752 0.91329 0.24401 0.0
C429 C 0.14206 0.88027 0.17116 0.0
C430 C 0.16467 0.88608 0.15723 0.0
H431 H 0.11118 0.88887 0.22136 0.0
H432 H 0.13457 0.86533 0.14886 0.0
S433 S 0.1964 0.93477 0.22865 0.0
N434 N 0.17071 0.93707 0.26021 0.0
N435 N 0.19569 0.91213 0.18056 0.0
C436 C 0.17382 0.9054 0.18852 0.0
C437 C 0.1603 0.91891 0.23195 0.0
C438 C 0.36789 0.89233 0.41797 0.0
C439 C 0.35974 0.91298 0.39221 0.0
C440 C 0.35463 0.87901 0.46087 0.0
C441 C 0.33276 0.88593 0.48001 0.0
H442 H 0.38482 0.88656 0.40591 0.0
H443 H 0.36159 0.86322 0.47925 0.0
S444 S 0.30299 0.93801 0.42344 0.0
N445 N 0.32798 0.93921 0.38689 0.0
N446 N 0.3032 0.91442 0.4675 0.0
C447 C 0.32429 0.90639 0.45378 0.0
C448 C 0.33771 0.91983 0.40984 0.0
C449 C 0.33878 0.07752 0.71382 0.0
C450 C 0.36033 0.08446 0.73577 0.0
C451 C 0.32574 0.09117 0.67154 0.0
C452 C 0.33369 0.11232 0.64917 0.0
H453 H 0.33195 0.06127 0.72889 0.0
H454 H 0.30917 0.0851 0.65677 0.0
S455 S 0.38908 0.1384 0.69169 0.0
N456 N 0.38911 0.11395 0.73165 0.0
N457 N 0.36458 0.1396 0.65222 0.0
C458 C 0.35524 0.1195 0.67056 0.0
C459 C 0.36852 0.10561 0.71392 0.0
C460 C 0.8536 0.8818 0.1784 0.0
C461 C 0.8327 0.88959 0.15353 0.0
C462 C 0.86688 0.89531 0.22066 0.0
C463 C 0.85976 0.91713 0.23985 0.0
H464 H 0.85967 0.86502 0.1658 0.0
H465 H 0.88295 0.88866 0.23783 0.0
S466 S 0.8064 0.94555 0.18831 0.0
N467 N 0.80557 0.92064 0.15108 0.0
N468 N 0.83038 0.94591 0.23045 0.0
C469 C 0.83888 0.92511 0.21537 0.0
C470 C 0.82542 0.91141 0.17218 0.0
C471 C 0.86779 0.10615 0.91331 0.0
C472 C 0.86257 0.08312 0.90342 0.0
C473 C 0.85465 0.11979 0.95569 0.0
C474 C 0.83589 0.11086 0.99012 0.0
H475 H 0.88213 0.11374 0.88814 0.0
H476 H 0.85901 0.13754 0.96053 0.0
S477 S 0.81585 0.05121 0.98464 0.0
N478 N 0.83776 0.05181 0.93371 0.0
N479 N 0.81333 0.07727 0.01339 0.0
C480 C 0.83078 0.08774 0.98166 0.0
C481 C 0.84401 0.07394 0.93825 0.0
C482 C 0.66905 0.09154 0.67643 0.0
C483 C 0.66181 0.11299 0.65439 0.0
C484 C 0.6557 0.07837 0.71892 0.0
C485 C 0.63443 0.08599 0.74116 0.0
H486 H 0.68535 0.08485 0.66132 0.0
H487 H 0.66205 0.06189 0.73369 0.0
S488 S 0.60749 0.14094 0.6981 0.0
N489 N 0.63196 0.14138 0.65828 0.0
N490 N 0.60666 0.11645 0.73781 0.0
C491 C 0.62692 0.10744 0.7197 0.0
C492 C 0.64062 0.12094 0.67635 0.0
C493 C 0.63106 0.89555 0.42268 0.0
C494 C 0.63769 0.91768 0.40518 0.0
C495 C 0.64395 0.88245 0.46704 0.0
C496 C 0.66397 0.89097 0.49576 0.0
H497 H 0.6157 0.88829 0.4023 0.0
H498 H 0.63838 0.86535 0.47786 0.0
S499 S 0.68838 0.94821 0.46826 0.0
N500 N 0.66543 0.94771 0.42143 0.0
N501 N 0.68952 0.92317 0.50467 0.0
C502 C 0.67065 0.91317 0.47931 0.0
C503 C 0.65759 0.92647 0.43401 0.0
C504 C 0.66957 0.59162 0.47268 0.0
C505 C 0.66208 0.61309 0.49361 0.0
C506 C 0.6564 0.5781 0.43058 0.0
C507 C 0.63508 0.5854 0.40765 0.0
H508 H 0.68595 0.58522 0.48816 0.0
H509 H 0.66297 0.56164 0.41653 0.0
S510 S 0.60752 0.64027 0.44764 0.0
N511 N 0.63189 0.64113 0.48796 0.0
N512 N 0.60698 0.61554 0.40919 0.0
C513 C 0.62726 0.6068 0.42829 0.0
C514 C 0.64076 0.62065 0.47123 0.0
C515 C 0.62999 0.39198 0.71369 0.0
C516 C 0.63713 0.41368 0.73378 0.0
C517 C 0.64315 0.37879 0.67012 0.0
C518 C 0.66383 0.3869 0.64448 0.0
H519 H 0.61417 0.38507 0.73197 0.0
H520 H 0.63724 0.36195 0.65745 0.0
S521 S 0.68931 0.44334 0.67781 0.0
N522 N 0.6658 0.44308 0.72214 0.0
N523 N 0.69025 0.41852 0.64016 0.0
C524 C 0.67084 0.40882 0.66289 0.0
C525 C 0.6576 0.42212 0.70761 0.0
C526 C 0.84071 0.42073 0.92289 0.0
C527 C 0.86158 0.41295 0.8979 0.0
C528 C 0.82767 0.40744 0.96616 0.0
C529 C 0.83495 0.38582 0.98654 0.0
H530 H 0.8344 0.43735 0.90944 0.0
H531 H 0.8116 0.41416 0.98321 0.0
S532 S 0.88838 0.35747 0.93564 0.0
N533 N 0.88899 0.38215 0.89695 0.0
N534 N 0.86447 0.35716 0.9782 0.0
C535 C 0.85583 0.37781 0.96213 0.0
C536 C 0.8691 0.39133 0.91776 0.0
C537 C 0.85401 0.61732 0.17519 0.0
C538 C 0.83378 0.60926 0.14659 0.0
C539 C 0.8671 0.6036 0.21744 0.0
C540 C 0.86047 0.5813 0.23287 0.0
H541 H 0.85963 0.6345 0.16581 0.0
H542 H 0.88261 0.61053 0.23784 0.0
S543 S 0.80922 0.55183 0.16924 0.0
N544 N 0.808 0.57732 0.13561 0.0
N545 N 0.83246 0.55164 0.21486 0.0
C546 C 0.84034 0.57298 0.20416 0.0
C547 C 0.82707 0.58691 0.16103 0.0
C548 C 0.33033 0.40544 0.67784 0.0
C549 C 0.33739 0.38385 0.65655 0.0
C550 C 0.34348 0.41839 0.72154 0.0
C551 C 0.36435 0.41037 0.74585 0.0
H552 H 0.31434 0.41244 0.66112 0.0
H553 H 0.33732 0.43501 0.73557 0.0
S554 S 0.39064 0.35486 0.70564 0.0
N555 N 0.36663 0.35489 0.66349 0.0
N556 N 0.39152 0.37935 0.74531 0.0
C557 C 0.37165 0.38876 0.72523 0.0
C558 C 0.35817 0.3755 0.68061 0.0
C559 C 0.32873 0.58885 0.46834 0.0
C560 C 0.33598 0.61062 0.4875 0.0
C561 C 0.3421 0.57505 0.42741 0.0
C562 C 0.36329 0.58242 0.40368 0.0
H563 H 0.31247 0.58241 0.48464 0.0
H564 H 0.3358 0.55835 0.41482 0.0
S565 S 0.39008 0.63809 0.43875 0.0
N566 N 0.36576 0.63899 0.47919 0.0
N567 N 0.3909 0.61303 0.40233 0.0
C568 C 0.37076 0.60418 0.42225 0.0
C569 C 0.35714 0.61825 0.4642 0.0
C570 C 0.13195 0.6028 0.21315 0.0
C571 C 0.13882 0.58075 0.23079 0.0
C572 C 0.14507 0.61628 0.17039 0.0
C573 C 0.16559 0.60826 0.14351 0.0
H574 H 0.1162 0.60968 0.23204 0.0
H575 H 0.13923 0.63327 0.15925 0.0
S576 S 0.19096 0.55153 0.17272 0.0
N577 N 0.16744 0.55141 0.21704 0.0
N578 N 0.19197 0.57667 0.13687 0.0
C579 C 0.17257 0.58619 0.16034 0.0
C580 C 0.15926 0.57249 0.20396 0.0
C581 C 0.13018 0.39391 0.92021 0.0
C582 C 0.1382 0.41396 0.89033 0.0
C583 C 0.14397 0.38108 0.96304 0.0
C584 C 0.16625 0.38789 0.9779 0.0
H585 H 0.11297 0.38828 0.91154 0.0
H586 H 0.13708 0.36575 0.98473 0.0
S587 S 0.19582 0.43838 0.90932 0.0
N588 N 0.17024 0.43944 0.8764 0.0
N589 N 0.196 0.41557 0.95682 0.0
C590 C 0.17457 0.40773 0.94748 0.0
C591 C 0.16061 0.42067 0.90367 0.0
C592 C 0.2625 0.16351 0.87178 0.0
C593 C 0.23908 0.16182 0.88248 0.0
C594 C 0.27138 0.16368 0.80715 0.0
C595 C 0.25717 0.16163 0.75117 0.0
H596 H 0.27403 0.16491 0.91354 0.0
H597 H 0.28957 0.16503 0.80111 0.0
S598 S 0.19462 0.156 0.75298 0.0
N599 N 0.20179 0.15784 0.8322 0.0
N600 N 0.21857 0.15759 0.71078 0.0
C601 C 0.23373 0.1597 0.76131 0.0
C602 C 0.22465 0.15996 0.82701 0.0
C603 C 0.09031 0.97759 0.08054 0.0
C604 C 0.09214 0.99157 0.13707 0.0
C605 C 0.09095 0.98671 0.01622 0.0
C606 C 0.0929 0.01017 0.00629 0.0
H607 H 0.08865 0.95939 0.08595 0.0
H608 H 0.08957 0.97535 0.97406 0.0
S609 S 0.09855 0.05409 0.13742 0.0
N610 N 0.09646 0.03 0.17881 0.0
N611 N 0.09708 0.04723 0.05788 0.0
C612 C 0.09469 0.02437 0.06228 0.0
C613 C 0.09448 0.01504 0.12773 0.0
C614 C 0.24335 0.8208 0.28902 0.0
C615 C 0.24043 0.84118 0.25391 0.0
C616 C 0.25106 0.82085 0.35483 0.0
C617 C 0.25535 0.84131 0.38825 0.0
H618 H 0.2399 0.80469 0.26521 0.0
H619 H 0.25358 0.80478 0.37986 0.0
S620 S 0.24974 0.89926 0.31881 0.0
N621 N 0.24225 0.88234 0.25712 0.0
N622 N 0.25612 0.88246 0.38184 0.0
C623 C 0.25215 0.86183 0.35411 0.0
C624 C 0.24487 0.86176 0.28651 0.0
C625 C 0.40705 0.98491 0.61746 0.0
C626 C 0.40669 0.00845 0.6275 0.0
C627 C 0.40763 0.97582 0.55312 0.0
C628 C 0.40734 0.98994 0.49665 0.0
H629 H 0.40714 0.97344 0.65956 0.0
H630 H 0.40796 0.95755 0.54763 0.0
S631 S 0.40578 0.05275 0.49632 0.0
N632 N 0.40591 0.04576 0.57588 0.0
N633 N 0.40642 0.02858 0.4549 0.0
C634 C 0.40671 0.0135 0.50601 0.0
C635 C 0.40656 0.02278 0.57151 0.0
C636 C 0.77019 0.83978 0.31284 0.0
C637 C 0.75633 0.8425 0.25635 0.0
C638 C 0.76108 0.8405 0.37711 0.0
C639 C 0.73775 0.84347 0.38697 0.0
H640 H 0.78829 0.83732 0.30748 0.0
H641 H 0.77233 0.83835 0.41925 0.0
S642 S 0.69422 0.85192 0.25604 0.0
N643 N 0.71819 0.84886 0.21464 0.0
N644 N 0.70096 0.84971 0.33551 0.0
C645 C 0.72368 0.84624 0.33106 0.0
C646 C 0.73301 0.84589 0.26567 0.0
C647 C 0.91076 0.98698 0.0159 0.0
C648 C 0.91182 0.01048 0.00555 0.0
C649 C 0.91049 0.97796 0.08035 0.0
C650 C 0.91076 0.99218 0.13658 0.0
H651 H 0.91026 0.97545 0.97396 0.0
H652 H 0.90965 0.95972 0.0861 0.0
S653 S 0.91318 0.05494 0.13627 0.0
N654 N 0.91317 0.04786 0.0568 0.0
N655 N 0.91214 0.03084 0.17792 0.0
C656 C 0.91169 0.0157 0.12697 0.0
C657 C 0.91238 0.02488 0.06139 0.0
C658 C 0.75315 0.13596 0.85175 0.0
C659 C 0.75795 0.15648 0.88437 0.0
C660 C 0.74566 0.13579 0.78553 0.0
C661 C 0.74224 0.15616 0.75071 0.0
H662 H 0.75559 0.11994 0.87711 0.0
H663 H 0.742 0.11968 0.76205 0.0
S664 S 0.75222 0.21431 0.81406 0.0
N665 N 0.75902 0.1976 0.87688 0.0
N666 N 0.74419 0.19729 0.75325 0.0
C667 C 0.74683 0.17676 0.78294 0.0
C668 C 0.75491 0.17691 0.84965 0.0
C669 C 0.58505 0.02196 0.58049 0.0
C670 C 0.58865 0.00797 0.63631 0.0
C671 C 0.58512 0.01305 0.51592 0.0
C672 C 0.58825 0.98977 0.50517 0.0
H673 H 0.58244 0.04002 0.58659 0.0
H674 H 0.58242 0.02439 0.47426 0.0
S675 S 0.59888 0.94596 0.63392 0.0
N676 N 0.596 0.96976 0.67628 0.0
N677 N 0.59559 0.95291 0.55493 0.0
C678 C 0.59183 0.97557 0.56038 0.0
C679 C 0.59218 0.9847 0.62601 0.0
C680 C 0.76177 0.65876 0.37273 0.0
C681 C 0.73825 0.65753 0.38223 0.0
C682 C 0.77104 0.65879 0.30861 0.0
C683 C 0.75715 0.6571 0.25187 0.0
H684 H 0.77307 0.66006 0.41505 0.0
H685 H 0.78928 0.65995 0.30356 0.0
S686 S 0.69452 0.65237 0.2504 0.0
N687 N 0.70122 0.65406 0.33001 0.0
N688 N 0.71874 0.6536 0.20946 0.0
C689 C 0.73362 0.65542 0.26078 0.0
C690 C 0.72415 0.6558 0.32602 0.0
C691 C 0.57303 0.5045 0.54598 0.0
C692 C 0.59332 0.50633 0.50975 0.0
C693 C 0.57306 0.49688 0.61191 0.0
C694 C 0.59344 0.49154 0.64435 0.0
H695 H 0.55698 0.50878 0.52303 0.0
H696 H 0.55704 0.49528 0.63781 0.0
S697 S 0.65112 0.49357 0.5717 0.0
N698 N 0.6343 0.50204 0.51087 0.0
N699 N 0.63439 0.4883 0.6357 0.0
C700 C 0.61387 0.49351 0.60904 0.0
C701 C 0.6138 0.50073 0.54137 0.0
C702 C 0.72686 0.33989 0.80583 0.0
C703 C 0.74091 0.34048 0.74926 0.0
C704 C 0.73603 0.33993 0.87008 0.0
C705 C 0.75957 0.34004 0.8799 0.0
H706 H 0.7086 0.33964 0.80048 0.0
H707 H 0.72462 0.33957 0.91228 0.0
S708 S 0.80369 0.34181 0.74842 0.0
N709 N 0.77949 0.34158 0.7072 0.0
N710 N 0.79681 0.34111 0.82802 0.0
C711 C 0.77383 0.34058 0.82381 0.0
C712 C 0.76447 0.34097 0.75842 0.0
C713 C 0.91145 0.51995 0.07819 0.0
C714 C 0.91032 0.50572 0.13435 0.0
C715 C 0.91098 0.51103 0.01365 0.0
C716 C 0.90992 0.48754 0.00311 0.0
H717 H 0.91226 0.53819 0.08406 0.0
H718 H 0.91164 0.52258 0.97178 0.0
S719 S 0.90675 0.44299 0.13321 0.0
N720 N 0.90792 0.46702 0.17519 0.0
N721 N 0.90764 0.45015 0.05383 0.0
C722 C 0.90904 0.47309 0.05876 0.0
C723 C 0.90907 0.48221 0.12445 0.0
C724 C 0.25411 0.36092 0.78273 0.0
C725 C 0.2574 0.34041 0.74848 0.0
C726 C 0.24716 0.36103 0.84939 0.0
C727 C 0.24278 0.34066 0.88325 0.0
H728 H 0.25745 0.37696 0.75839 0.0
H729 H 0.24476 0.37717 0.87411 0.0
S730 S 0.24843 0.28252 0.81528 0.0
N731 N 0.25583 0.29927 0.75313 0.0
N732 N 0.24197 0.29951 0.87777 0.0
C733 C 0.2457 0.32007 0.84929 0.0
C734 C 0.25324 0.31994 0.78199 0.0
C735 C 0.41234 0.51808 0.56426 0.0
C736 C 0.41036 0.50396 0.50806 0.0
C737 C 0.41236 0.50905 0.62874 0.0
C738 C 0.41097 0.48557 0.63911 0.0
H739 H 0.41354 0.5363 0.55849 0.0
H740 H 0.41374 0.52051 0.67066 0.0
S741 S 0.40538 0.44133 0.50888 0.0
N742 N 0.40663 0.46539 0.46706 0.0
N743 N 0.40728 0.44834 0.58822 0.0
C744 C 0.40913 0.47125 0.58341 0.0
C745 C 0.40864 0.48047 0.51784 0.0
C746 C 0.27156 0.6599 0.32768 0.0
C747 C 0.25769 0.65738 0.3842 0.0
C748 C 0.26238 0.65961 0.26343 0.0
C749 C 0.23896 0.65729 0.25358 0.0
H750 H 0.28972 0.66181 0.33301 0.0
H751 H 0.27366 0.66147 0.22128 0.0
S752 S 0.19532 0.64995 0.38477 0.0
N753 N 0.21941 0.65214 0.42604 0.0
N754 N 0.20204 0.65212 0.30528 0.0
C755 C 0.22486 0.65486 0.30959 0.0
C756 C 0.23426 0.65475 0.37494 0.0
C757 C 0.08601 0.48489 0.11491 0.0
C758 C 0.08846 0.50826 0.12541 0.0
C759 C 0.08585 0.47591 0.05042 0.0
C760 C 0.08867 0.48995 0.99434 0.0
H761 H 0.08399 0.47348 0.15674 0.0
H762 H 0.08386 0.45776 0.04459 0.0
S763 S 0.09663 0.55229 0.9957 0.0
N764 N 0.0941 0.54532 0.07491 0.0
N765 N 0.09435 0.52834 0.95369 0.0
C766 C 0.0914 0.51334 0.00428 0.0
C767 C 0.09114 0.52253 0.06987 0.0
C768 C 0.22503 0.23985 0.12177 0.0
C769 C 0.20497 0.22763 0.11031 0.0
C770 C 0.22516 0.26351 0.12208 0.0
C771 C 0.20525 0.27602 0.1108 0.0
H772 H 0.24101 0.2311 0.12845 0.0
H773 H 0.24125 0.27204 0.12893 0.0
S774 S 0.14777 0.25219 0.0846 0.0
N775 N 0.16427 0.22972 0.09245 0.0
N776 N 0.16452 0.27444 0.09285 0.0
C777 C 0.18478 0.26408 0.10307 0.0
C778 C 0.18464 0.23982 0.10286 0.0
C779 C 0.01117 0.937 0.34781 0.0
C780 C 0.02354 0.95693 0.36054 0.0
C781 C 0.98735 0.93713 0.348 0.0
C782 C 0.97522 0.95718 0.361 0.0
H783 H 0.01989 0.92149 0.33458 0.0
H784 H 0.97844 0.92172 0.33487 0.0
S785 S -0.00025 0.01286 0.40813 0.0
N786 N 0.0219 0.99648 0.39428 0.0
N787 N 0.97738 0.99672 0.39479 0.0
C788 C 0.98745 0.97678 0.37818 0.0
C789 C 0.01157 0.97665 0.3779 0.0
C790 C 0.27438 0.76046 0.61677 0.0
C791 C 0.29438 0.77302 0.60748 0.0
C792 C 0.27451 0.73681 0.61567 0.0
C793 C 0.29467 0.72461 0.60541 0.0
H794 H 0.25823 0.76895 0.6229 0.0
H795 H 0.25849 0.72804 0.62108 0.0
S796 S 0.35205 0.74926 0.58449 0.0
N797 N 0.33523 0.77149 0.59223 0.0
N798 N 0.3355 0.72677 0.59039 0.0
C799 C 0.31504 0.73684 0.59959 0.0
C800 C 0.3149 0.7611 0.60057 0.0
C801 C 0.48554 0.02153 0.85765 0.0
C802 C 0.47299 0.04175 0.85461 0.0
C803 C 0.50918 0.02177 0.8588 0.0
C804 C 0.52133 0.04225 0.85689 0.0
H805 H 0.47708 0.00523 0.85728 0.0
H806 H 0.51797 0.00565 0.85922 0.0
S807 S 0.49656 0.10005 0.85461 0.0
N808 N 0.4744 0.08297 0.85431 0.0
N809 N 0.51907 0.08343 0.85638 0.0
C810 C 0.50906 0.0627 0.8572 0.0
C811 C 0.48483 0.06245 0.85608 0.0
C812 C 0.2243 0.76058 0.02238 0.0
C813 C 0.20407 0.77288 0.03034 0.0
C814 C 0.2244 0.73693 0.02242 0.0
C815 C 0.20428 0.72447 0.03029 0.0
H816 H 0.2404 0.76926 0.0181 0.0
H817 H 0.24057 0.72836 0.01813 0.0
S818 S 0.14644 0.74842 0.04685 0.0
N819 N 0.16309 0.77086 0.04166 0.0
N820 N 0.16329 0.72613 0.04155 0.0
C821 C 0.18372 0.73645 0.03471 0.0
C822 C 0.18362 0.76072 0.03478 0.0
C823 C 0.48687 0.93495 0.29075 0.0
C824 C 0.47447 0.95443 0.27316 0.0
C825 C 0.51068 0.93523 0.29169 0.0
C826 C 0.52275 0.95501 0.27509 0.0
H827 H 0.47815 0.91978 0.30712 0.0
H828 H 0.51962 0.92028 0.30876 0.0
S829 S 0.49823 0.00907 0.21402 0.0
N830 N 0.47607 0.99297 0.23044 0.0
N831 N 0.52061 0.9935 0.23224 0.0
C832 C 0.51053 0.974 0.25283 0.0
C833 C 0.48643 0.97371 0.25185 0.0
C834 C 0.31326 0.23826 0.53954 0.0
C835 C 0.2936 0.22615 0.52216 0.0
C836 C 0.31351 0.26208 0.53865 0.0
C837 C 0.29412 0.27447 0.52023 0.0
H838 H 0.32813 0.22936 0.55727 0.0
H839 H 0.32856 0.2708 0.55581 0.0
S840 S 0.23982 0.25059 0.45887 0.0
N841 N 0.25533 0.22822 0.47776 0.0
N842 N 0.25581 0.27279 0.47584 0.0
C843 C 0.27498 0.26247 0.49801 0.0
C844 C 0.27471 0.23834 0.49906 0.0
C845 C 0.98987 0.0241 0.77341 0.0
C846 C 0.97758 0.04438 0.78023 0.0
C847 C 0.01351 0.02398 0.77405 0.0
C848 C 0.02593 0.04415 0.7814 0.0
H849 H 0.98119 0.00797 0.76957 0.0
H850 H 0.02209 0.00779 0.77062 0.0
S851 S 0.00198 0.1021 0.79521 0.0
N852 N 0.97957 0.08543 0.79006 0.0
N853 N 0.02426 0.08522 0.79108 0.0
C854 C 0.01396 0.06475 0.78474 0.0
C855 C 0.98972 0.06486 0.7842 0.0
C856 C 0.7733 0.73782 0.03321 0.0
C857 C 0.79367 0.72552 0.03676 0.0
C858 C 0.77317 0.76147 0.03385 0.0
C859 C 0.79341 0.77395 0.03804 0.0
H860 H 0.75714 0.72913 0.03161 0.0
H861 H 0.75692 0.77 0.0327 0.0
S862 S 0.85152 0.75002 0.04307 0.0
N863 N 0.83481 0.72758 0.04048 0.0
N864 N 0.83457 0.7723 0.04165 0.0
C865 C 0.81403 0.76198 0.03857 0.0
C866 C 0.81416 0.7377 0.03793 0.0
C867 C 0.68752 0.23579 0.53423 0.0
C868 C 0.70794 0.22354 0.52977 0.0
C869 C 0.68747 0.25963 0.53455 0.0
C870 C 0.70783 0.27196 0.53057 0.0
H871 H 0.67156 0.22696 0.5399 0.0
H872 H 0.67147 0.26839 0.54041 0.0
S873 S 0.76559 0.24793 0.51039 0.0
N874 N 0.74884 0.22563 0.51548 0.0
N875 N 0.74873 0.27012 0.51625 0.0
C876 C 0.72821 0.25988 0.52272 0.0
C877 C 0.72826 0.23574 0.52226 0.0
C878 C 0.77313 0.25987 0.11148 0.0
C879 C 0.79337 0.27227 0.10579 0.0
C880 C 0.77321 0.23622 0.11282 0.0
C881 C 0.79353 0.22386 0.10832 0.0
H882 H 0.75692 0.26848 0.1131 0.0
H883 H 0.75704 0.22757 0.11528 0.0
S884 S 0.85139 0.2482 0.09843 0.0
N885 N 0.8345 0.27052 0.10024 0.0
N886 N 0.83465 0.22581 0.10248 0.0
C887 C 0.81404 0.23599 0.10597 0.0
C888 C 0.81396 0.26025 0.10477 0.0
C889 C 0.72537 0.73939 0.60461 0.0
C890 C 0.70506 0.72697 0.60398 0.0
C891 C 0.72529 0.76304 0.60554 0.0
C892 C 0.70489 0.77535 0.60578 0.0
H893 H 0.74159 0.73083 0.60279 0.0
H894 H 0.74146 0.77171 0.60435 0.0
S895 S 0.64698 0.75096 0.60934 0.0
N896 N 0.6639 0.72866 0.60759 0.0
N897 N 0.66374 0.77337 0.60922 0.0
C898 C 0.68439 0.76321 0.60805 0.0
C899 C 0.68448 0.73896 0.60718 0.0
C900 C 0.51371 0.43338 0.85318 0.0
C901 C 0.52575 0.45305 0.87101 0.0
C902 C 0.4899 0.43317 0.85283 0.0
C903 C 0.47747 0.45265 0.87014 0.0
H904 H 0.52268 0.41846 0.83605 0.0
H905 H 0.48123 0.41811 0.83549 0.0
S906 S 0.50098 0.50698 0.93231 0.0
N907 N 0.52344 0.49139 0.91504 0.0
N908 N 0.47888 0.49102 0.91402 0.0
C909 C 0.48933 0.4718 0.89272 0.0
C910 C 0.51344 0.47199 0.89327 0.0
C911 C 0.98745 0.56187 0.3401 0.0
C912 C 0.97526 0.54242 0.35923 0.0
C913 C 0.01127 0.56182 0.33906 0.0
C914 C 0.02356 0.54232 0.35702 0.0
H915 H 0.97856 0.57678 0.32254 0.0
H916 H 0.02003 0.5767 0.32073 0.0
S917 S -0.00033 0.4886 0.42255 0.0
N918 N 0.97732 0.50431 0.40504 0.0
N919 N 0.02187 0.50422 0.40291 0.0
C920 C 0.01156 0.52342 0.38088 0.0
C921 C 0.98745 0.52348 0.38204 0.0
C922 C 0.9867 0.4348 0.78594 0.0
C923 C 0.9745 0.45465 0.77096 0.0
C924 C 0.01052 0.43468 0.78515 0.0
C925 C 0.02279 0.4544 0.76928 0.0
H926 H 0.97787 0.41962 0.80166 0.0
H927 H 0.01932 0.41941 0.8003 0.0
S928 S 0.99867 0.50946 0.71471 0.0
N929 N 0.97639 0.49356 0.73148 0.0
N930 N 0.02093 0.49334 0.72984 0.0
C931 C 0.01071 0.4738 0.74953 0.0
C932 C 0.9866 0.47393 0.75042 0.0
C933 C 0.48845 0.5595 0.29696 0.0
C934 C 0.47636 0.53955 0.28239 0.0
C935 C 0.51226 0.55974 0.2966 0.0
C936 C 0.52468 0.54003 0.28162 0.0
H937 H 0.47952 0.57472 0.31183 0.0
H938 H 0.52093 0.57512 0.31128 0.0
S939 S 0.50096 0.4846 0.22887 0.0
N940 N 0.47856 0.50046 0.24455 0.0
N941 N 0.52311 0.5009 0.24379 0.0
C942 C 0.51274 0.52047 0.26249 0.0
C943 C 0.48861 0.52023 0.26291 0.0
C944 C 0.26228 0.13971 0.26143 0.0
C945 C 0.23858 0.13873 0.25397 0.0
C946 C 0.27242 0.1395 0.3246 0.0
C947 C 0.25928 0.13818 0.38289 0.0
H948 H 0.2731 0.14177 0.21833 0.0
H949 H 0.29064 0.14139 0.32771 0.0
S950 S 0.1967 0.132 0.39026 0.0
N951 N 0.2024 0.13403 0.31007 0.0
N952 N 0.22139 0.13346 0.42862 0.0
C953 C 0.23567 0.1356 0.37595 0.0
C954 C 0.22534 0.13593 0.31158 0.0
C955 C 0.11197 0.01145 0.51394 0.0
C956 C 0.11202 0.9877 0.50703 0.0
C957 C 0.11245 0.02174 0.57686 0.0
C958 C 0.11316 0.00872 0.63549 0.0
H959 H 0.11048 0.02224 0.47055 0.0
H960 H 0.11133 0.04005 0.57949 0.0
S961 S 0.11664 0.94592 0.64443 0.0
N962 N 0.11503 0.95148 0.56406 0.0
N963 N 0.11615 0.97076 0.6822 0.0
C964 C 0.11474 0.98498 0.62915 0.0
C965 C 0.1141 0.97449 0.565 0.0
C966 C 0.22622 0.85848 0.82751 0.0
C967 C 0.23946 0.85918 0.88566 0.0
C968 C 0.23627 0.85848 0.76431 0.0
C969 C 0.25998 0.85917 0.75667 0.0
H970 H 0.20797 0.85694 0.8307 0.0
H971 H 0.22535 0.85697 0.72122 0.0
S972 S 0.30215 0.86417 0.89288 0.0
N973 N 0.27748 0.86287 0.93136 0.0
N974 N 0.29633 0.86281 0.81264 0.0
C975 C 0.27336 0.8613 0.81425 0.0
C976 C 0.26312 0.86132 0.87869 0.0
C977 C 0.38586 0.01993 0.05664 0.0
C978 C 0.38526 0.00686 0.99809 0.0
C979 C 0.38615 0.00968 0.11964 0.0
C980 C 0.38601 0.98593 0.12672 0.0
H981 H 0.38706 0.03822 0.05391 0.0
H982 H 0.38759 0.0205 0.16297 0.0
S983 S 0.38152 0.94408 0.98955 0.0
N984 N 0.38221 0.96889 0.9516 0.0
N985 N 0.38297 0.94969 0.06991 0.0
C986 C 0.384 0.9727 0.06881 0.0
C987 C 0.38356 0.98314 0.00457 0.0
C988 C 0.736 0.86046 0.87999 0.0
C989 C 0.75971 0.86157 0.887 0.0
C990 C 0.72572 0.86076 0.81707 0.0
C991 C 0.73871 0.86233 0.75856 0.0
H992 H 0.72528 0.85831 0.92326 0.0
H993 H 0.7075 0.85884 0.81432 0.0
S994 S 0.80125 0.86872 0.75004 0.0
N995 N 0.79576 0.86649 0.83031 0.0
N996 N 0.77648 0.86725 0.71213 0.0
C997 C 0.76234 0.86493 0.76505 0.0
C998 C 0.77282 0.86449 0.8292 0.0
C999 C 0.89019 0.98714 0.62711 0.0
C1000 C 0.88872 0.01083 0.63455 0.0
C1001 C 0.88975 0.97698 0.56402 0.0
C1002 C 0.88769 0.99007 0.5058 0.0
H1003 H 0.8928 0.97638 0.6701 0.0
H1004 H 0.89203 0.95879 0.56086 0.0
S1005 S 0.88002 0.05252 0.49864 0.0
N1006 N 0.88278 0.0469 0.5787 0.0
N1007 N 0.88177 0.02785 0.46025 0.0
C1008 C 0.88463 0.01364 0.51282 0.0
C1009 C 0.88521 0.024 0.57712 0.0
C1010 C 0.77129 0.1372 0.31087 0.0
C1011 C 0.75811 0.13734 0.25253 0.0
C1012 C 0.76117 0.13683 0.374 0.0
C1013 C 0.73745 0.13666 0.38142 0.0
H1014 H 0.78958 0.13828 0.30796 0.0
H1015 H 0.77207 0.13769 0.41728 0.0
S1016 S 0.69532 0.13411 0.2445 0.0
N1017 N 0.72005 0.13512 0.2063 0.0
N1018 N 0.70109 0.13454 0.32486 0.0
C1019 C 0.72409 0.13544 0.32355 0.0
C1020 C 0.7344 0.13575 0.25918 0.0
C1021 C 0.60923 0.01262 0.12656 0.0
C1022 C 0.61044 0.98891 0.13384 0.0
C1023 C 0.60894 0.02279 0.06346 0.0
C1024 C 0.60999 0.00969 0.00505 0.0
H1025 H 0.60739 0.02341 0.16981 0.0
H1026 H 0.60693 0.04102 0.06056 0.0
S1027 S 0.61647 0.94712 0.99699 0.0
N1028 N 0.61496 0.95276 0.07732 0.0
N1029 N 0.61461 0.97183 0.95885 0.0
C1030 C 0.61275 0.98607 0.01171 0.0
C1031 C 0.61292 0.9757 0.07603 0.0
C1032 C 0.73719 0.63933 0.87425 0.0
C1033 C 0.76094 0.63892 0.88098 0.0
C1034 C 0.72684 0.63957 0.8114 0.0
C1035 C 0.73979 0.63925 0.75264 0.0
H1036 H 0.72646 0.6405 0.91783 0.0
H1037 H 0.70855 0.64088 0.809 0.0
S1038 S 0.80252 0.63526 0.74292 0.0
N1039 N 0.79705 0.63613 0.82343 0.0
N1040 N 0.77766 0.63637 0.70541 0.0
C1041 C 0.76351 0.6374 0.75866 0.0
C1042 C 0.77406 0.63731 0.82275 0.0
C1043 C 0.61118 0.52057 0.08295 0.0
C1044 C 0.61206 0.50732 0.14109 0.0
C1045 C 0.61125 0.51052 0.01973 0.0
C1046 C 0.61217 0.48681 0.01204 0.0
H1047 H 0.60942 0.53881 0.08616 0.0
H1048 H 0.60956 0.52144 0.97667 0.0
S1049 S 0.61772 0.44466 0.14816 0.0
N1050 N 0.61619 0.46932 0.1867 0.0
N1051 N 0.61624 0.45048 0.06794 0.0
C1052 C 0.6145 0.47344 0.06959 0.0
C1053 C 0.61447 0.48368 0.13406 0.0
C1054 C 0.76078 0.36001 0.3715 0.0
C1055 C 0.73703 0.35992 0.37836 0.0
C1056 C 0.77108 0.36001 0.30858 0.0
C1057 C 0.75807 0.36007 0.2499 0.0
H1058 H 0.77156 0.359 0.41502 0.0
H1059 H 0.78938 0.35903 0.30605 0.0
S1060 S 0.69527 0.36292 0.24061 0.0
N1061 N 0.70082 0.36208 0.32108 0.0
N1062 N 0.72011 0.3623 0.20293 0.0
C1063 C 0.73433 0.36149 0.25608 0.0
C1064 C 0.72383 0.36134 0.32023 0.0
C1065 C 0.88692 0.47582 0.57436 0.0
C1066 C 0.88637 0.48894 0.6328 0.0
C1067 C 0.88708 0.48599 0.51124 0.0
C1068 C 0.88683 0.50973 0.50389 0.0
H1069 H 0.88822 0.45753 0.57726 0.0
H1070 H 0.88851 0.47512 0.46802 0.0
S1071 S 0.88242 0.55173 0.64073 0.0
N1072 N 0.88326 0.52697 0.67891 0.0
N1073 N 0.88374 0.54603 0.56041 0.0
C1074 C 0.88485 0.52303 0.56171 0.0
C1075 C 0.88456 0.51265 0.62607 0.0
C1076 C 0.22846 0.36208 0.30919 0.0
C1077 C 0.24175 0.36268 0.25112 0.0
C1078 C 0.23846 0.36193 0.37254 0.0
C1079 C 0.26216 0.36234 0.38043 0.0
H1080 H 0.21019 0.36071 0.30584 0.0
H1081 H 0.22748 0.36045 0.41551 0.0
S1082 S 0.30449 0.36706 0.24457 0.0
N1083 N 0.27984 0.36604 0.20584 0.0
N1084 N 0.29858 0.36569 0.32475 0.0
C1085 C 0.2756 0.36441 0.32294 0.0
C1086 C 0.26541 0.3646 0.25837 0.0
C1087 C 0.38942 0.47332 0.06798 0.0
C1088 C 0.38876 0.48637 0.00938 0.0
C1089 C 0.38913 0.48357 0.131 0.0
C1090 C 0.38831 0.50731 0.13806 0.0
H1091 H 0.39114 0.45506 0.0653 0.0
H1092 H 0.39069 0.47279 0.1744 0.0
S1093 S 0.38336 0.54904 1.00064 0.0
N1094 N 0.3849 0.52426 0.96276 0.0
N1095 N 0.38457 0.54346 0.08106 0.0
C1096 C 0.38622 0.52048 0.08004 0.0
C1097 C 0.38638 0.51004 0.01579 0.0
C1098 C 0.22738 0.63797 0.8238 0.0
C1099 C 0.24037 0.63728 0.88249 0.0
C1100 C 0.23769 0.63785 0.76088 0.0
C1101 C 0.26142 0.63716 0.75399 0.0
H1102 H 0.20911 0.63951 0.82634 0.0
H1103 H 0.22694 0.63934 0.7174 0.0
S1104 S 0.30304 0.63242 0.89172 0.0
N1105 N 0.27823 0.63371 0.9294 0.0
N1106 N 0.29753 0.63367 0.81127 0.0
C1107 C 0.27456 0.63514 0.81211 0.0
C1108 C 0.26405 0.63514 0.87626 0.0
C1109 C 0.11041 0.52019 0.55416 0.0
C1110 C 0.11114 0.50708 0.4957 0.0
C1111 C 0.11026 0.50999 0.61723 0.0
C1112 C 0.11071 0.48625 0.62446 0.0
H1113 H 0.10897 0.53847 0.5513 0.0
H1114 H 0.1087 0.52082 0.6605 0.0
S1115 S 0.11567 0.44434 0.48757 0.0
N1116 N 0.11465 0.46911 0.44946 0.0
N1117 N 0.11419 0.45 0.56789 0.0
C1118 C 0.11286 0.47299 0.56664 0.0
C1119 C 0.11313 0.48339 0.50234 0.0
loop_
_geom_bond_atom_site_label_1
_geom_bond_atom_site_label_2
_geom_bond_distance
_geom_bond_site_symmetry_2
_ccdc_geom_bond_type
In0 O1 2.294 1_554 S
In0 O2 2.326 1_554 S
In0 O6 2.266 . S
In0 O7 2.326 . S
In0 O8 2.266 . S
In0 O9 2.326 . S
In0 O11 2.294 . S
In0 O12 2.326 . S
O1 In0 2.294 1_556 S
O1 C10 1.240 . S
O2 In0 2.326 1_556 S
O2 C10 1.252 . S
C3 O6 1.252 . S
C3 O7 1.260 . S
C4 O11 1.240 . S
C4 O12 1.252 . S
C5 O8 1.252 . S
C5 O9 1.260 . S
O6 In0 2.266 . S
O6 C3 1.252 . S
O7 In0 2.326 . S
O7 C3 1.260 . S
O8 In0 2.266 . S
O8 C5 1.252 . S
O9 In0 2.326 . S
O9 C5 1.260 . S
C10 O1 1.240 . S
C10 O2 1.252 . S
O11 In0 2.294 . S
O11 C4 1.240 . S
O12 In0 2.326 . S
O12 C4 1.252 . S
In13 O14 2.294 . S
In13 O15 2.326 . S
In13 O19 2.266 . S
In13 O20 2.326 . S
In13 O21 2.266 . S
In13 O22 2.326 . S
In13 O24 2.294 . S
In13 O25 2.326 . S
O14 In13 2.294 . S
O14 C23 1.240 . S
O15 In13 2.326 . S
O15 C23 1.252 . S
C16 O19 1.252 . S
C16 O20 1.260 . S
C17 O24 1.240 . S
C17 O25 1.252 . S
C18 O21 1.252 . S
C18 O22 1.260 . S
O19 In13 2.266 . S
O19 C16 1.252 . S
O20 In13 2.326 . S
O20 C16 1.260 . S
O21 In13 2.266 . S
O21 C18 1.252 . S
O22 In13 2.326 . S
O22 C18 1.260 . S
C23 O14 1.240 . S
C23 O15 1.252 . S
O24 In13 2.294 . S
O24 C17 1.240 . S
O25 In13 2.326 . S
O25 C17 1.252 . S
In26 O27 2.294 . S
In26 O28 2.326 . S
In26 O32 2.266 . S
In26 O33 2.326 . S
In26 O34 2.266 . S
In26 O35 2.326 . S
In26 O37 2.294 . S
In26 O38 2.326 . S
O27 In26 2.294 . S
O27 C36 1.240 . S
O28 In26 2.326 . S
O28 C36 1.252 . S
C29 O32 1.252 . S
C29 O33 1.260 . S
C30 O37 1.240 . S
C30 O38 1.252 . S
C31 O34 1.252 . S
C31 O35 1.260 . S
O32 In26 2.266 . S
O32 C29 1.252 . S
O33 In26 2.326 . S
O33 C29 1.260 . S
O34 In26 2.266 . S
O34 C31 1.252 . S
O35 In26 2.326 . S
O35 C31 1.260 . S
C36 O27 1.240 . S
C36 O28 1.252 . S
O37 In26 2.294 . S
O37 C30 1.240 . S
O38 In26 2.326 . S
O38 C30 1.252 . S
In39 O40 2.294 . S
In39 O41 2.326 . S
In39 O45 2.266 . S
In39 O46 2.326 . S
In39 O47 2.266 . S
In39 O48 2.326 . S
In39 O50 2.294 . S
In39 O51 2.326 . S
O40 In39 2.294 . S
O40 C49 1.240 . S
O41 In39 2.326 . S
O41 C49 1.252 . S
C42 O45 1.252 . S
C42 O46 1.260 . S
C43 O50 1.240 . S
C43 O51 1.252 . S
C44 O47 1.252 . S
C44 O48 1.260 . S
O45 In39 2.266 . S
O45 C42 1.252 . S
O46 In39 2.326 . S
O46 C42 1.260 . S
O47 In39 2.266 . S
O47 C44 1.252 . S
O48 In39 2.326 . S
O48 C44 1.260 . S
C49 O40 1.240 . S
C49 O41 1.252 . S
O50 In39 2.294 . S
O50 C43 1.240 . S
O51 In39 2.326 . S
O51 C43 1.252 . S
In52 O53 2.294 . S
In52 O54 2.326 . S
In52 O58 2.267 . S
In52 O59 2.326 1_554 S
In52 O60 2.266 . S
In52 O61 2.326 . S
In52 O63 2.294 . S
In52 O64 2.326 . S
O53 In52 2.294 . S
O53 C62 1.240 . S
O54 In52 2.326 . S
O54 C62 1.252 . S
C55 O58 1.251 1_556 S
C55 O59 1.260 . S
C56 O63 1.240 . S
C56 O64 1.252 . S
C57 O60 1.252 . S
C57 O61 1.260 . S
O58 In52 2.267 . S
O58 C55 1.251 1_554 S
O59 In52 2.326 1_556 S
O59 C55 1.260 . S
O60 In52 2.266 . S
O60 C57 1.252 . S
O61 In52 2.326 . S
O61 C57 1.260 . S
C62 O53 1.240 . S
C62 O54 1.252 . S
O63 In52 2.294 . S
O63 C56 1.240 . S
O64 In52 2.326 . S
O64 C56 1.252 . S
In65 O66 2.294 . S
In65 O67 2.326 . S
In65 O71 2.266 . S
In65 O72 2.326 . S
In65 O73 2.266 . S
In65 O74 2.326 . S
In65 O76 2.294 . S
In65 O77 2.326 . S
O66 In65 2.294 . S
O66 C75 1.240 . S
O67 In65 2.326 . S
O67 C75 1.252 . S
C68 O71 1.252 . S
C68 O72 1.260 . S
C69 O76 1.240 . S
C69 O77 1.252 . S
C70 O73 1.252 . S
C70 O74 1.260 . S
O71 In65 2.266 . S
O71 C68 1.252 . S
O72 In65 2.326 . S
O72 C68 1.260 . S
O73 In65 2.266 . S
O73 C70 1.252 . S
O74 In65 2.326 . S
O74 C70 1.260 . S
C75 O66 1.240 . S
C75 O67 1.252 . S
O76 In65 2.294 . S
O76 C69 1.240 . S
O77 In65 2.326 . S
O77 C69 1.252 . S
In78 O79 2.294 . S
In78 O80 2.326 . S
In78 O84 2.266 . S
In78 O85 2.326 . S
In78 O86 2.266 . S
In78 O87 2.326 . S
In78 O89 2.294 . S
In78 O90 2.326 . S
O79 In78 2.294 . S
O79 C88 1.240 . S
O80 In78 2.326 . S
O80 C88 1.252 . S
C81 O84 1.252 . S
C81 O85 1.260 . S
C82 O89 1.240 . S
C82 O90 1.252 . S
C83 O86 1.252 . S
C83 O87 1.260 . S
O84 In78 2.266 . S
O84 C81 1.252 . S
O85 In78 2.326 . S
O85 C81 1.260 . S
O86 In78 2.266 . S
O86 C83 1.252 . S
O87 In78 2.326 . S
O87 C83 1.260 . S
C88 O79 1.240 . S
C88 O80 1.252 . S
O89 In78 2.294 . S
O89 C82 1.240 . S
O90 In78 2.326 . S
O90 C82 1.252 . S
In91 O92 2.294 . S
In91 O93 2.326 . S
In91 O97 2.266 . S
In91 O98 2.326 . S
In91 O99 2.266 . S
In91 O100 2.326 . S
In91 O102 2.294 . S
In91 O103 2.326 . S
O92 In91 2.294 . S
O92 C101 1.240 . S
O93 In91 2.326 . S
O93 C101 1.252 . S
C94 O97 1.252 . S
C94 O98 1.260 . S
C95 O102 1.240 . S
C95 O103 1.252 . S
C96 O99 1.252 . S
C96 O100 1.260 . S
O97 In91 2.266 . S
O97 C94 1.252 . S
O98 In91 2.326 . S
O98 C94 1.260 . S
O99 In91 2.266 . S
O99 C96 1.252 . S
O100 In91 2.326 . S
O100 C96 1.260 . S
C101 O92 1.240 . S
C101 O93 1.252 . S
O102 In91 2.294 . S
O102 C95 1.240 . S
O103 In91 2.326 . S
O103 C95 1.252 . S
In104 O105 2.294 . S
In104 O106 2.326 . S
In104 O110 2.267 . S
In104 O111 2.326 1_554 S
In104 O112 2.266 . S
In104 O113 2.326 . S
In104 O115 2.294 . S
In104 O116 2.326 . S
O105 In104 2.294 . S
O105 C114 1.240 . S
O106 In104 2.326 . S
O106 C114 1.252 . S
C107 O110 1.251 1_556 S
C107 O111 1.260 . S
C108 O115 1.240 . S
C108 O116 1.252 . S
C109 O112 1.252 . S
C109 O113 1.260 . S
O110 In104 2.267 . S
O110 C107 1.251 1_554 S
O111 In104 2.326 1_556 S
O111 C107 1.260 . S
O112 In104 2.266 . S
O112 C109 1.252 . S
O113 In104 2.326 . S
O113 C109 1.260 . S
C114 O105 1.240 . S
C114 O106 1.252 . S
O115 In104 2.294 . S
O115 C108 1.240 . S
O116 In104 2.326 . S
O116 C108 1.252 . S
In117 O118 2.294 . S
In117 O119 2.326 . S
In117 O123 2.266 . S
In117 O124 2.326 . S
In117 O125 2.266 . S
In117 O126 2.326 . S
In117 O128 2.294 . S
In117 O129 2.326 . S
O118 In117 2.294 . S
O118 C127 1.240 . S
O119 In117 2.326 . S
O119 C127 1.252 . S
C120 O123 1.252 . S
C120 O124 1.260 . S
C121 O128 1.240 . S
C121 O129 1.252 . S
C122 O125 1.252 . S
C122 O126 1.260 . S
O123 In117 2.266 . S
O123 C120 1.252 . S
O124 In117 2.326 . S
O124 C120 1.260 . S
O125 In117 2.266 . S
O125 C122 1.252 . S
O126 In117 2.326 . S
O126 C122 1.260 . S
C127 O118 1.240 . S
C127 O119 1.252 . S
O128 In117 2.294 . S
O128 C121 1.240 . S
O129 In117 2.326 . S
O129 C121 1.252 . S
In130 O131 2.294 . S
In130 O132 2.326 . S
In130 O136 2.266 . S
In130 O137 2.326 . S
In130 O138 2.266 . S
In130 O139 2.326 . S
In130 O141 2.294 . S
In130 O142 2.326 . S
O131 In130 2.294 . S
O131 C140 1.240 . S
O132 In130 2.326 . S
O132 C140 1.252 . S
C133 O136 1.252 . S
C133 O137 1.260 . S
C134 O141 1.240 . S
C134 O142 1.252 . S
C135 O138 1.252 . S
C135 O139 1.260 . S
O136 In130 2.266 . S
O136 C133 1.252 . S
O137 In130 2.326 . S
O137 C133 1.260 . S
O138 In130 2.266 . S
O138 C135 1.252 . S
O139 In130 2.326 . S
O139 C135 1.260 . S
C140 O131 1.240 . S
C140 O132 1.252 . S
O141 In130 2.294 . S
O141 C134 1.240 . S
O142 In130 2.326 . S
O142 C134 1.252 . S
In143 O144 2.294 . S
In143 O145 2.326 . S
In143 O149 2.266 . S
In143 O150 2.326 . S
In143 O151 2.266 . S
In143 O152 2.326 . S
In143 O154 2.294 . S
In143 O155 2.326 . S
O144 In143 2.294 . S
O144 C153 1.240 . S
O145 In143 2.326 . S
O145 C153 1.252 . S
C146 O149 1.252 . S
C146 O150 1.260 . S
C147 O154 1.240 . S
C147 O155 1.252 . S
C148 O151 1.252 . S
C148 O152 1.260 . S
O149 In143 2.266 . S
O149 C146 1.252 . S
O150 In143 2.326 . S
O150 C146 1.260 . S
O151 In143 2.266 . S
O151 C148 1.252 . S
O152 In143 2.326 . S
O152 C148 1.260 . S
C153 O144 1.240 . S
C153 O145 1.252 . S
O154 In143 2.294 . S
O154 C147 1.240 . S
O155 In143 2.326 . S
O155 C147 1.252 . S
In156 O157 2.294 . S
In156 O158 2.326 . S
In156 O162 2.266 . S
In156 O163 2.326 . S
In156 O164 2.266 . S
In156 O165 2.326 . S
In156 O167 2.294 1_554 S
In156 O168 2.326 1_554 S
O157 In156 2.294 . S
O157 C166 1.240 . S
O158 In156 2.326 . S
O158 C166 1.252 . S
C159 O162 1.252 . S
C159 O163 1.260 . S
C160 O167 1.240 . S
C160 O168 1.252 . S
C161 O164 1.252 . S
C161 O165 1.260 . S
O162 In156 2.266 . S
O162 C159 1.252 . S
O163 In156 2.326 . S
O163 C159 1.260 . S
O164 In156 2.266 . S
O164 C161 1.252 . S
O165 In156 2.326 . S
O165 C161 1.260 . S
C166 O157 1.240 . S
C166 O158 1.252 . S
O167 In156 2.294 1_556 S
O167 C160 1.240 . S
O168 In156 2.326 1_556 S
O168 C160 1.252 . S
In169 O170 2.294 . S
In169 O171 2.326 . S
In169 O175 2.266 . S
In169 O176 2.326 . S
In169 O177 2.266 . S
In169 O178 2.326 . S
In169 O180 2.294 . S
In169 O181 2.326 . S
O170 In169 2.294 . S
O170 C179 1.240 . S
O171 In169 2.326 . S
O171 C179 1.252 . S
C172 O175 1.252 . S
C172 O176 1.260 . S
C173 O180 1.240 . S
C173 O181 1.252 . S
C174 O177 1.252 . S
C174 O178 1.260 . S
O175 In169 2.266 . S
O175 C172 1.252 . S
O176 In169 2.326 . S
O176 C172 1.260 . S
O177 In169 2.266 . S
O177 C174 1.252 . S
O178 In169 2.326 . S
O178 C174 1.260 . S
C179 O170 1.240 . S
C179 O171 1.252 . S
O180 In169 2.294 . S
O180 C173 1.240 . S
O181 In169 2.326 . S
O181 C173 1.252 . S
In182 O183 2.294 . S
In182 O184 2.326 . S
In182 O188 2.266 . S
In182 O189 2.326 . S
In182 O190 2.266 . S
In182 O191 2.326 . S
In182 O193 2.294 . S
In182 O194 2.326 . S
O183 In182 2.294 . S
O183 C192 1.240 . S
O184 In182 2.326 . S
O184 C192 1.252 . S
C185 O188 1.252 . S
C185 O189 1.260 . S
C186 O193 1.240 . S
C186 O194 1.252 . S
C187 O190 1.252 . S
C187 O191 1.260 . S
O188 In182 2.266 . S
O188 C185 1.252 . S
O189 In182 2.326 . S
O189 C185 1.260 . S
O190 In182 2.266 . S
O190 C187 1.252 . S
O191 In182 2.326 . S
O191 C187 1.260 . S
C192 O183 1.240 . S
C192 O184 1.252 . S
O193 In182 2.294 . S
O193 C186 1.240 . S
O194 In182 2.326 . S
O194 C186 1.252 . S
In195 O196 2.294 . S
In195 O197 2.326 . S
In195 O201 2.266 . S
In195 O202 2.326 . S
In195 O203 2.266 . S
In195 O204 2.326 . S
In195 O206 2.294 . S
In195 O207 2.326 . S
O196 In195 2.294 . S
O196 C205 1.240 . S
O197 In195 2.326 . S
O197 C205 1.252 . S
C198 O201 1.252 . S
C198 O202 1.260 . S
C199 O206 1.240 . S
C199 O207 1.252 . S
C200 O203 1.252 . S
C200 O204 1.260 . S
O201 In195 2.266 . S
O201 C198 1.252 . S
O202 In195 2.326 . S
O202 C198 1.260 . S
O203 In195 2.266 . S
O203 C200 1.252 . S
O204 In195 2.326 . S
O204 C200 1.260 . S
C205 O196 1.240 . S
C205 O197 1.252 . S
O206 In195 2.294 . S
O206 C199 1.240 . S
O207 In195 2.326 . S
O207 C199 1.252 . S
In208 O209 2.294 . S
In208 O210 2.326 . S
In208 O214 2.266 . S
In208 O215 2.326 . S
In208 O216 2.266 . S
In208 O217 2.326 . S
In208 O219 2.294 . S
In208 O220 2.326 . S
O209 In208 2.294 . S
O209 C218 1.240 . S
O210 In208 2.326 . S
O210 C218 1.252 . S
C211 O214 1.252 . S
C211 O215 1.260 . S
C212 O219 1.240 . S
C212 O220 1.252 . S
C213 O216 1.252 . S
C213 O217 1.260 . S
O214 In208 2.266 . S
O214 C211 1.252 . S
O215 In208 2.326 . S
O215 C211 1.260 . S
O216 In208 2.266 . S
O216 C213 1.252 . S
O217 In208 2.326 . S
O217 C213 1.260 . S
C218 O209 1.240 . S
C218 O210 1.252 . S
O219 In208 2.294 . S
O219 C212 1.240 . S
O220 In208 2.326 . S
O220 C212 1.252 . S
In221 O222 2.294 . S
In221 O223 2.326 . S
In221 O227 2.266 . S
In221 O228 2.326 . S
In221 O229 2.266 . S
In221 O230 2.326 . S
In221 O232 2.294 . S
In221 O233 2.326 . S
O222 In221 2.294 . S
O222 C231 1.240 . S
O223 In221 2.326 . S
O223 C231 1.252 . S
C224 O227 1.252 . S
C224 O228 1.260 . S
C225 O232 1.240 . S
C225 O233 1.252 . S
C226 O229 1.252 . S
C226 O230 1.260 . S
O227 In221 2.266 . S
O227 C224 1.252 . S
O228 In221 2.326 . S
O228 C224 1.260 . S
O229 In221 2.266 . S
O229 C226 1.252 . S
O230 In221 2.326 . S
O230 C226 1.260 . S
C231 O222 1.240 . S
C231 O223 1.252 . S
O232 In221 2.294 . S
O232 C225 1.240 . S
O233 In221 2.326 . S
O233 C225 1.252 . S
In234 O235 2.294 1_554 S
In234 O236 2.326 1_554 S
In234 O240 2.266 . S
In234 O241 2.326 . S
In234 O242 2.266 . S
In234 O243 2.326 . S
In234 O245 2.294 . S
In234 O246 2.326 . S
O235 In234 2.294 1_556 S
O235 C244 1.240 . S
O236 In234 2.326 1_556 S
O236 C244 1.252 . S
C237 O240 1.252 . S
C237 O241 1.260 . S
C238 O245 1.240 . S
C238 O246 1.252 . S
C239 O242 1.252 . S
C239 O243 1.260 . S
O240 In234 2.266 . S
O240 C237 1.252 . S
O241 In234 2.326 . S
O241 C237 1.260 . S
O242 In234 2.266 . S
O242 C239 1.252 . S
O243 In234 2.326 . S
O243 C239 1.260 . S
C244 O235 1.240 . S
C244 O236 1.252 . S
O245 In234 2.294 . S
O245 C238 1.240 . S
O246 In234 2.326 . S
O246 C238 1.252 . S
In247 O248 2.294 . S
In247 O249 2.326 . S
In247 O253 2.266 . S
In247 O254 2.326 . S
In247 O255 2.266 . S
In247 O256 2.326 . S
In247 O258 2.294 . S
In247 O259 2.326 . S
O248 In247 2.294 . S
O248 C257 1.240 . S
O249 In247 2.326 . S
O249 C257 1.252 . S
C250 O253 1.252 . S
C250 O254 1.260 . S
C251 O258 1.240 . S
C251 O259 1.252 . S
C252 O255 1.252 . S
C252 O256 1.260 . S
O253 In247 2.266 . S
O253 C250 1.252 . S
O254 In247 2.326 . S
O254 C250 1.260 . S
O255 In247 2.266 . S
O255 C252 1.252 . S
O256 In247 2.326 . S
O256 C252 1.260 . S
C257 O248 1.240 . S
C257 O249 1.252 . S
O258 In247 2.294 . S
O258 C251 1.240 . S
O259 In247 2.326 . S
O259 C251 1.252 . S
In260 O261 2.294 . S
In260 O262 2.326 . S
In260 O266 2.266 . S
In260 O267 2.326 . S
In260 O268 2.266 . S
In260 O269 2.326 . S
In260 O271 2.294 . S
In260 O272 2.326 . S
O261 In260 2.294 . S
O261 C270 1.240 . S
O262 In260 2.326 . S
O262 C270 1.252 . S
C263 O266 1.252 . S
C263 O267 1.260 . S
C264 O271 1.240 . S
C264 O272 1.252 . S
C265 O268 1.252 . S
C265 O269 1.260 . S
O266 In260 2.266 . S
O266 C263 1.252 . S
O267 In260 2.326 . S
O267 C263 1.260 . S
O268 In260 2.266 . S
O268 C265 1.252 . S
O269 In260 2.326 . S
O269 C265 1.260 . S
C270 O261 1.240 . S
C270 O262 1.252 . S
O271 In260 2.294 . S
O271 C264 1.240 . S
O272 In260 2.326 . S
O272 C264 1.252 . S
In273 O274 2.294 . S
In273 O275 2.326 . S
In273 O279 2.266 . S
In273 O280 2.326 . S
In273 O281 2.266 . S
In273 O282 2.326 . S
In273 O284 2.294 . S
In273 O285 2.326 . S
O274 In273 2.294 . S
O274 C283 1.240 . S
O275 In273 2.326 . S
O275 C283 1.252 . S
C276 O279 1.252 . S
C276 O280 1.260 . S
C277 O284 1.240 . S
C277 O285 1.252 . S
C278 O281 1.252 . S
C278 O282 1.260 . S
O279 In273 2.266 . S
O279 C276 1.252 . S
O280 In273 2.326 . S
O280 C276 1.260 . S
O281 In273 2.266 . S
O281 C278 1.252 . S
O282 In273 2.326 . S
O282 C278 1.260 . S
C283 O274 1.240 . S
C283 O275 1.252 . S
O284 In273 2.294 . S
O284 C277 1.240 . S
O285 In273 2.326 . S
O285 C277 1.252 . S
In286 O287 2.294 . S
In286 O288 2.326 . S
In286 O292 2.266 . S
In286 O293 2.326 . S
In286 O294 2.267 . S
In286 O295 2.326 1_554 S
In286 O297 2.294 . S
In286 O298 2.326 . S
O287 In286 2.294 . S
O287 C296 1.240 . S
O288 In286 2.326 . S
O288 C296 1.252 . S
C289 O292 1.252 . S
C289 O293 1.260 . S
C290 O297 1.240 . S
C290 O298 1.252 . S
C291 O294 1.251 1_556 S
C291 O295 1.260 . S
O292 In286 2.266 . S
O292 C289 1.252 . S
O293 In286 2.326 . S
O293 C289 1.260 . S
O294 In286 2.267 . S
O294 C291 1.251 1_554 S
O295 In286 2.326 1_556 S
O295 C291 1.260 . S
C296 O287 1.240 . S
C296 O288 1.252 . S
O297 In286 2.294 . S
O297 C290 1.240 . S
O298 In286 2.326 . S
O298 C290 1.252 . S
In299 O300 2.294 . S
In299 O301 2.326 . S
In299 O305 2.266 . S
In299 O306 2.326 . S
In299 O307 2.266 . S
In299 O308 2.326 . S
In299 O310 2.294 . S
In299 O311 2.326 . S
O300 In299 2.294 . S
O300 C309 1.240 . S
O301 In299 2.326 . S
O301 C309 1.252 . S
C302 O305 1.252 . S
C302 O306 1.260 . S
C303 O310 1.240 . S
C303 O311 1.252 . S
C304 O307 1.252 . S
C304 O308 1.260 . S
O305 In299 2.266 . S
O305 C302 1.252 . S
O306 In299 2.326 . S
O306 C302 1.260 . S
O307 In299 2.266 . S
O307 C304 1.252 . S
O308 In299 2.326 . S
O308 C304 1.260 . S
C309 O300 1.240 . S
C309 O301 1.252 . S
O310 In299 2.294 . S
O310 C303 1.240 . S
O311 In299 2.326 . S
O311 C303 1.252 . S
In312 O313 2.294 . S
In312 O314 2.326 . S
In312 O318 2.266 . S
In312 O319 2.326 . S
In312 O320 2.266 . S
In312 O321 2.326 . S
In312 O323 2.294 . S
In312 O324 2.326 . S
O313 In312 2.294 . S
O313 C322 1.240 . S
O314 In312 2.326 . S
O314 C322 1.252 . S
C315 O318 1.252 . S
C315 O319 1.260 . S
C316 O323 1.240 . S
C316 O324 1.252 . S
C317 O320 1.252 . S
C317 O321 1.260 . S
O318 In312 2.266 . S
O318 C315 1.252 . S
O319 In312 2.326 . S
O319 C315 1.260 . S
O320 In312 2.266 . S
O320 C317 1.252 . S
O321 In312 2.326 . S
O321 C317 1.260 . S
C322 O313 1.240 . S
C322 O314 1.252 . S
O323 In312 2.294 . S
O323 C316 1.240 . S
O324 In312 2.326 . S
O324 C316 1.252 . S
In325 O326 2.294 . S
In325 O327 2.326 . S
In325 O331 2.266 . S
In325 O332 2.326 . S
In325 O333 2.266 . S
In325 O334 2.326 . S
In325 O336 2.294 . S
In325 O337 2.326 . S
O326 In325 2.294 . S
O326 C335 1.240 . S
O327 In325 2.326 . S
O327 C335 1.252 . S
C328 O331 1.252 . S
C328 O332 1.260 . S
C329 O336 1.240 . S
C329 O337 1.252 . S
C330 O333 1.252 . S
C330 O334 1.260 . S
O331 In325 2.266 . S
O331 C328 1.252 . S
O332 In325 2.326 . S
O332 C328 1.260 . S
O333 In325 2.266 . S
O333 C330 1.252 . S
O334 In325 2.326 . S
O334 C330 1.260 . S
C335 O326 1.240 . S
C335 O327 1.252 . S
O336 In325 2.294 . S
O336 C329 1.240 . S
O337 In325 2.326 . S
O337 C329 1.252 . S
In338 O339 2.294 . S
In338 O340 2.326 . S
In338 O344 2.266 . S
In338 O345 2.326 . S
In338 O346 2.267 . S
In338 O347 2.326 1_554 S
In338 O349 2.294 . S
In338 O350 2.326 . S
O339 In338 2.294 . S
O339 C348 1.240 . S
O340 In338 2.326 . S
O340 C348 1.252 . S
C341 O344 1.252 . S
C341 O345 1.260 . S
C342 O349 1.240 . S
C342 O350 1.252 . S
C343 O346 1.251 1_556 S
C343 O347 1.260 . S
O344 In338 2.266 . S
O344 C341 1.252 . S
O345 In338 2.326 . S
O345 C341 1.260 . S
O346 In338 2.267 . S
O346 C343 1.251 1_554 S
O347 In338 2.326 1_556 S
O347 C343 1.260 . S
C348 O339 1.240 . S
C348 O340 1.252 . S
O349 In338 2.294 . S
O349 C342 1.240 . S
O350 In338 2.326 . S
O350 C342 1.252 . S
In351 O352 2.294 . S
In351 O353 2.326 . S
In351 O357 2.266 . S
In351 O358 2.326 . S
In351 O359 2.266 . S
In351 O360 2.326 . S
In351 O362 2.294 . S
In351 O363 2.326 . S
O352 In351 2.294 . S
O352 C361 1.240 . S
O353 In351 2.326 . S
O353 C361 1.252 . S
C354 O357 1.252 . S
C354 O358 1.260 . S
C355 O362 1.240 . S
C355 O363 1.252 . S
C356 O359 1.252 . S
C356 O360 1.260 . S
O357 In351 2.266 . S
O357 C354 1.252 . S
O358 In351 2.326 . S
O358 C354 1.260 . S
O359 In351 2.266 . S
O359 C356 1.252 . S
O360 In351 2.326 . S
O360 C356 1.260 . S
C361 O352 1.240 . S
C361 O353 1.252 . S
O362 In351 2.294 . S
O362 C355 1.240 . S
O363 In351 2.326 . S
O363 C355 1.252 . S
In364 O365 2.294 . S
In364 O366 2.326 . S
In364 O370 2.266 . S
In364 O371 2.326 . S
In364 O372 2.266 . S
In364 O373 2.326 . S
In364 O375 2.294 . S
In364 O376 2.326 . S
O365 In364 2.294 . S
O365 C374 1.240 . S
O366 In364 2.326 . S
O366 C374 1.252 . S
C367 O370 1.252 . S
C367 O371 1.260 . S
C368 O375 1.240 . S
C368 O376 1.252 . S
C369 O372 1.252 . S
C369 O373 1.260 . S
O370 In364 2.266 . S
O370 C367 1.252 . S
O371 In364 2.326 . S
O371 C367 1.260 . S
O372 In364 2.266 . S
O372 C369 1.252 . S
O373 In364 2.326 . S
O373 C369 1.260 . S
C374 O365 1.240 . S
C374 O366 1.252 . S
O375 In364 2.294 . S
O375 C368 1.240 . S
O376 In364 2.326 . S
O376 C368 1.252 . S
In377 O378 2.294 . S
In377 O379 2.326 . S
In377 O383 2.266 . S
In377 O384 2.326 . S
In377 O385 2.266 . S
In377 O386 2.326 . S
In377 O388 2.294 . S
In377 O389 2.326 . S
O378 In377 2.294 . S
O378 C387 1.240 . S
O379 In377 2.326 . S
O379 C387 1.252 . S
C380 O383 1.252 . S
C380 O384 1.260 . S
C381 O388 1.240 . S
C381 O389 1.252 . S
C382 O385 1.252 . S
C382 O386 1.260 . S
O383 In377 2.266 . S
O383 C380 1.252 . S
O384 In377 2.326 . S
O384 C380 1.260 . S
O385 In377 2.266 . S
O385 C382 1.252 . S
O386 In377 2.326 . S
O386 C382 1.260 . S
C387 O378 1.240 . S
C387 O379 1.252 . S
O388 In377 2.294 . S
O388 C381 1.240 . S
O389 In377 2.326 . S
O389 C381 1.252 . S
In390 O391 2.294 . S
In390 O392 2.326 . S
In390 O396 2.266 . S
In390 O397 2.326 . S
In390 O398 2.266 . S
In390 O399 2.326 . S
In390 O401 2.294 1_554 S
In390 O402 2.326 1_554 S
O391 In390 2.294 . S
O391 C400 1.240 . S
O392 In390 2.326 . S
O392 C400 1.252 . S
C393 O396 1.252 . S
C393 O397 1.260 . S
C394 O401 1.240 . S
C394 O402 1.252 . S
C395 O398 1.252 . S
C395 O399 1.260 . S
O396 In390 2.266 . S
O396 C393 1.252 . S
O397 In390 2.326 . S
O397 C393 1.260 . S
O398 In390 2.266 . S
O398 C395 1.252 . S
O399 In390 2.326 . S
O399 C395 1.260 . S
C400 O391 1.240 . S
C400 O392 1.252 . S
O401 In390 2.294 1_556 S
O401 C394 1.240 . S
O402 In390 2.326 1_556 S
O402 C394 1.252 . S
In403 O404 2.294 . S
In403 O405 2.326 . S
In403 O409 2.266 . S
In403 O410 2.326 . S
In403 O411 2.266 . S
In403 O412 2.326 . S
In403 O414 2.294 . S
In403 O415 2.326 . S
O404 In403 2.294 . S
O404 C413 1.240 . S
O405 In403 2.326 . S
O405 C413 1.252 . S
C406 O409 1.252 . S
C406 O410 1.260 . S
C407 O414 1.240 . S
C407 O415 1.252 . S
C408 O411 1.252 . S
C408 O412 1.260 . S
O409 In403 2.266 . S
O409 C406 1.252 . S
O410 In403 2.326 . S
O410 C406 1.260 . S
O411 In403 2.266 . S
O411 C408 1.252 . S
O412 In403 2.326 . S
O412 C408 1.260 . S
C413 O404 1.240 . S
C413 O405 1.252 . S
O414 In403 2.294 . S
O414 C407 1.240 . S
O415 In403 2.326 . S
O415 C407 1.252 . S
C416 C417 1.369 . S
C416 C418 1.419 1_556 S
C416 H420 0.930 . S
C417 C416 1.369 . S
C417 C426 1.429 . S
C418 C416 1.419 1_554 S
C418 C419 1.363 1_554 S
C418 H421 0.929 . S
C419 C418 1.363 1_556 S
C419 C425 1.428 . S
H420 C416 0.930 . S
H421 C418 0.929 . S
S422 N423 1.613 . S
S422 N424 1.610 . S
N423 S422 1.613 . S
N423 C426 1.350 . S
N424 S422 1.610 . S
N424 C425 1.351 . S
C425 C419 1.428 . S
C425 N424 1.351 . S
C425 C426 1.434 . S
C426 C417 1.429 . S
C426 N423 1.350 . S
C426 C425 1.434 . S
C427 C428 1.369 . S
C427 C429 1.419 . S
C427 H431 0.930 . S
C428 C427 1.369 . S
C428 C437 1.429 . S
C429 C427 1.419 . S
C429 C430 1.363 . S
C429 H432 0.929 . S
C430 C429 1.363 . S
C430 C436 1.428 . S
H431 C427 0.930 . S
H432 C429 0.929 . S
S433 N434 1.613 . S
S433 N435 1.610 . S
N434 S433 1.613 . S
N434 C437 1.350 . S
N435 S433 1.610 . S
N435 C436 1.351 . S
C436 C430 1.428 . S
C436 N435 1.351 . S
C436 C437 1.434 . S
C437 C428 1.429 . S
C437 N434 1.350 . S
C437 C436 1.434 . S
C438 C439 1.369 . S
C438 C440 1.419 . S
C438 H442 0.930 . S
C439 C438 1.369 . S
C439 C448 1.429 . S
C440 C438 1.419 . S
C440 C441 1.363 . S
C440 H443 0.929 . S
C441 C440 1.363 . S
C441 C447 1.428 . S
H442 C438 0.930 . S
H443 C440 0.929 . S
S444 N445 1.613 . S
S444 N446 1.610 . S
N445 S444 1.613 . S
N445 C448 1.350 . S
N446 S444 1.610 . S
N446 C447 1.351 . S
C447 C441 1.428 . S
C447 N446 1.351 . S
C447 C448 1.434 . S
C448 C439 1.429 . S
C448 N445 1.350 . S
C448 C447 1.434 . S
C449 C450 1.369 . S
C449 C451 1.419 . S
C449 H453 0.930 . S
C450 C449 1.369 . S
C450 C459 1.429 . S
C451 C449 1.419 . S
C451 C452 1.363 . S
C451 H454 0.929 . S
C452 C451 1.363 . S
C452 C458 1.428 . S
H453 C449 0.930 . S
H454 C451 0.929 . S
S455 N456 1.613 . S
S455 N457 1.610 . S
N456 S455 1.613 . S
N456 C459 1.350 . S
N457 S455 1.610 . S
N457 C458 1.351 . S
C458 C452 1.428 . S
C458 N457 1.351 . S
C458 C459 1.434 . S
C459 C450 1.429 . S
C459 N456 1.350 . S
C459 C458 1.434 . S
C460 C461 1.369 . S
C460 C462 1.419 . S
C460 H464 0.930 . S
C461 C460 1.369 . S
C461 C470 1.429 . S
C462 C460 1.419 . S
C462 C463 1.363 . S
C462 H465 0.929 . S
C463 C462 1.363 . S
C463 C469 1.428 . S
H464 C460 0.930 . S
H465 C462 0.929 . S
S466 N467 1.613 . S
S466 N468 1.610 . S
N467 S466 1.613 . S
N467 C470 1.350 . S
N468 S466 1.610 . S
N468 C469 1.351 . S
C469 C463 1.428 . S
C469 N468 1.351 . S
C469 C470 1.434 . S
C470 C461 1.429 . S
C470 N467 1.350 . S
C470 C469 1.434 . S
C471 C472 1.369 . S
C471 C473 1.419 . S
C471 H475 0.930 . S
C472 C471 1.369 . S
C472 C481 1.429 . S
C473 C471 1.419 . S
C473 C474 1.363 . S
C473 H476 0.929 . S
C474 C473 1.363 . S
C474 C480 1.428 1_556 S
H475 C471 0.930 . S
H476 C473 0.929 . S
S477 N478 1.613 1_554 S
S477 N479 1.610 . S
N478 S477 1.613 1_556 S
N478 C481 1.350 . S
N479 S477 1.610 . S
N479 C480 1.351 . S
C480 C474 1.428 1_554 S
C480 N479 1.351 . S
C480 C481 1.434 1_554 S
C481 C472 1.429 . S
C481 N478 1.350 . S
C481 C480 1.434 1_556 S
C482 C483 1.369 . S
C482 C484 1.419 . S
C482 H486 0.930 . S
C483 C482 1.369 . S
C483 C492 1.429 . S
C484 C482 1.419 . S
C484 C485 1.363 . S
C484 H487 0.929 . S
C485 C484 1.363 . S
C485 C491 1.428 . S
H486 C482 0.930 . S
H487 C484 0.929 . S
S488 N489 1.613 . S
S488 N490 1.610 . S
N489 S488 1.613 . S
N489 C492 1.350 . S
N490 S488 1.610 . S
N490 C491 1.351 . S
C491 C485 1.428 . S
C491 N490 1.351 . S
C491 C492 1.434 . S
C492 C483 1.429 . S
C492 N489 1.350 . S
C492 C491 1.434 . S
C493 C494 1.369 . S
C493 C495 1.419 . S
C493 H497 0.930 . S
C494 C493 1.369 . S
C494 C503 1.429 . S
C495 C493 1.419 . S
C495 C496 1.363 . S
C495 H498 0.929 . S
C496 C495 1.363 . S
C496 C502 1.428 . S
H497 C493 0.930 . S
H498 C495 0.929 . S
S499 N500 1.613 . S
S499 N501 1.610 . S
N500 S499 1.613 . S
N500 C503 1.350 . S
N501 S499 1.610 . S
N501 C502 1.351 . S
C502 C496 1.428 . S
C502 N501 1.351 . S
C502 C503 1.434 . S
C503 C494 1.429 . S
C503 N500 1.350 . S
C503 C502 1.434 . S
C504 C505 1.369 . S
C504 C506 1.419 . S
C504 H508 0.930 . S
C505 C504 1.369 . S
C505 C514 1.429 . S
C506 C504 1.419 . S
C506 C507 1.363 . S
C506 H509 0.929 . S
C507 C506 1.363 . S
C507 C513 1.428 . S
H508 C504 0.930 . S
H509 C506 0.929 . S
S510 N511 1.613 . S
S510 N512 1.610 . S
N511 S510 1.613 . S
N511 C514 1.350 . S
N512 S510 1.610 . S
N512 C513 1.351 . S
C513 C507 1.428 . S
C513 N512 1.351 . S
C513 C514 1.434 . S
C514 C505 1.429 . S
C514 N511 1.350 . S
C514 C513 1.434 . S
C515 C516 1.369 . S
C515 C517 1.419 . S
C515 H519 0.930 . S
C516 C515 1.369 . S
C516 C525 1.429 . S
C517 C515 1.419 . S
C517 C518 1.363 . S
C517 H520 0.929 . S
C518 C517 1.363 . S
C518 C524 1.428 . S
H519 C515 0.930 . S
H520 C517 0.929 . S
S521 N522 1.613 . S
S521 N523 1.610 . S
N522 S521 1.613 . S
N522 C525 1.350 . S
N523 S521 1.610 . S
N523 C524 1.351 . S
C524 C518 1.428 . S
C524 N523 1.351 . S
C524 C525 1.434 . S
C525 C516 1.429 . S
C525 N522 1.350 . S
C525 C524 1.434 . S
C526 C527 1.369 . S
C526 C528 1.419 . S
C526 H530 0.930 . S
C527 C526 1.369 . S
C527 C536 1.429 . S
C528 C526 1.419 . S
C528 C529 1.363 . S
C528 H531 0.929 . S
C529 C528 1.363 . S
C529 C535 1.428 . S
H530 C526 0.930 . S
H531 C528 0.929 . S
S532 N533 1.613 . S
S532 N534 1.610 . S
N533 S532 1.613 . S
N533 C536 1.350 . S
N534 S532 1.610 . S
N534 C535 1.351 . S
C535 C529 1.428 . S
C535 N534 1.351 . S
C535 C536 1.434 . S
C536 C527 1.429 . S
C536 N533 1.350 . S
C536 C535 1.434 . S
C537 C538 1.369 . S
C537 C539 1.419 . S
C537 H541 0.930 . S
C538 C537 1.369 . S
C538 C547 1.429 . S
C539 C537 1.419 . S
C539 C540 1.363 . S
C539 H542 0.929 . S
C540 C539 1.363 . S
C540 C546 1.428 . S
H541 C537 0.930 . S
H542 C539 0.929 . S
S543 N544 1.613 . S
S543 N545 1.610 . S
N544 S543 1.613 . S
N544 C547 1.350 . S
N545 S543 1.610 . S
N545 C546 1.351 . S
C546 C540 1.428 . S
C546 N545 1.351 . S
C546 C547 1.434 . S
C547 C538 1.429 . S
C547 N544 1.350 . S
C547 C546 1.434 . S
C548 C549 1.369 . S
C548 C550 1.419 . S
C548 H552 0.930 . S
C549 C548 1.369 . S
C549 C558 1.429 . S
C550 C548 1.419 . S
C550 C551 1.363 . S
C550 H553 0.929 . S
C551 C550 1.363 . S
C551 C557 1.428 . S
H552 C548 0.930 . S
H553 C550 0.929 . S
S554 N555 1.613 . S
S554 N556 1.610 . S
N555 S554 1.613 . S
N555 C558 1.350 . S
N556 S554 1.610 . S
N556 C557 1.351 . S
C557 C551 1.428 . S
C557 N556 1.351 . S
C557 C558 1.434 . S
C558 C549 1.429 . S
C558 N555 1.350 . S
C558 C557 1.434 . S
C559 C560 1.369 . S
C559 C561 1.419 . S
C559 H563 0.930 . S
C560 C559 1.369 . S
C560 C569 1.429 . S
C561 C559 1.419 . S
C561 C562 1.363 . S
C561 H564 0.929 . S
C562 C561 1.363 . S
C562 C568 1.428 . S
H563 C559 0.930 . S
H564 C561 0.929 . S
S565 N566 1.613 . S
S565 N567 1.610 . S
N566 S565 1.613 . S
N566 C569 1.350 . S
N567 S565 1.610 . S
N567 C568 1.351 . S
C568 C562 1.428 . S
C568 N567 1.351 . S
C568 C569 1.434 . S
C569 C560 1.429 . S
C569 N566 1.350 . S
C569 C568 1.434 . S
C570 C571 1.369 . S
C570 C572 1.419 . S
C570 H574 0.930 . S
C571 C570 1.369 . S
C571 C580 1.429 . S
C572 C570 1.419 . S
C572 C573 1.363 . S
C572 H575 0.929 . S
C573 C572 1.363 . S
C573 C579 1.428 . S
H574 C570 0.930 . S
H575 C572 0.929 . S
S576 N577 1.613 . S
S576 N578 1.610 . S
N577 S576 1.613 . S
N577 C580 1.350 . S
N578 S576 1.610 . S
N578 C579 1.351 . S
C579 C573 1.428 . S
C579 N578 1.351 . S
C579 C580 1.434 . S
C580 C571 1.429 . S
C580 N577 1.350 . S
C580 C579 1.434 . S
C581 C582 1.369 . S
C581 C583 1.419 1_556 S
C581 H585 0.930 . S
C582 C581 1.369 . S
C582 C591 1.429 . S
C583 C581 1.419 1_554 S
C583 C584 1.363 1_554 S
C583 H586 0.929 . S
C584 C583 1.363 1_556 S
C584 C590 1.428 . S
H585 C581 0.930 . S
H586 C583 0.929 . S
S587 N588 1.613 . S
S587 N589 1.610 . S
N588 S587 1.613 . S
N588 C591 1.350 . S
N589 S587 1.610 . S
N589 C590 1.351 . S
C590 C584 1.428 . S
C590 N589 1.351 . S
C590 C591 1.434 . S
C591 C582 1.429 . S
C591 N588 1.350 . S
C591 C590 1.434 . S
C592 C593 1.369 . S
C592 C594 1.419 . S
C592 H596 0.930 . S
C593 C592 1.369 . S
C593 C602 1.429 . S
C594 C592 1.419 . S
C594 C595 1.363 . S
C594 H597 0.929 . S
C595 C594 1.363 . S
C595 C601 1.428 . S
H596 C592 0.930 . S
H597 C594 0.929 . S
S598 N599 1.613 . S
S598 N600 1.610 . S
N599 S598 1.613 . S
N599 C602 1.350 . S
N600 S598 1.610 . S
N600 C601 1.351 . S
C601 C595 1.428 . S
C601 N600 1.351 . S
C601 C602 1.434 . S
C602 C593 1.429 . S
C602 N599 1.350 . S
C602 C601 1.434 . S
C603 C604 1.369 . S
C603 C605 1.419 . S
C603 H607 0.930 . S
C604 C603 1.369 . S
C604 C613 1.429 1_565 S
C605 C603 1.419 . S
C605 C606 1.363 1_564 S
C605 H608 0.929 1_554 S
C606 C605 1.363 1_546 S
C606 C612 1.428 1_556 S
H607 C603 0.930 . S
H608 C605 0.929 1_556 S
S609 N610 1.613 . S
S609 N611 1.610 . S
N610 S609 1.613 . S
N610 C613 1.350 . S
N611 S609 1.610 . S
N611 C612 1.351 . S
C612 C606 1.428 1_554 S
C612 N611 1.351 . S
C612 C613 1.434 . S
C613 C604 1.429 1_545 S
C613 N610 1.350 . S
C613 C612 1.434 . S
C614 C615 1.369 . S
C614 C616 1.419 . S
C614 H618 0.930 . S
C615 C614 1.369 . S
C615 C624 1.429 . S
C616 C614 1.419 . S
C616 C617 1.363 . S
C616 H619 0.929 . S
C617 C616 1.363 . S
C617 C623 1.428 . S
H618 C614 0.930 . S
H619 C616 0.929 . S
S620 N621 1.613 . S
S620 N622 1.610 . S
N621 S620 1.613 . S
N621 C624 1.350 . S
N622 S620 1.610 . S
N622 C623 1.351 . S
C623 C617 1.428 . S
C623 N622 1.351 . S
C623 C624 1.434 . S
C624 C615 1.429 . S
C624 N621 1.350 . S
C624 C623 1.434 . S
C625 C626 1.369 1_565 S
C625 C627 1.419 . S
C625 H629 0.930 . S
C626 C625 1.369 1_545 S
C626 C635 1.429 . S
C627 C625 1.419 . S
C627 C628 1.363 . S
C627 H630 0.929 . S
C628 C627 1.363 . S
C628 C634 1.428 1_565 S
H629 C625 0.930 . S
H630 C627 0.929 . S
S631 N632 1.613 . S
S631 N633 1.610 . S
N632 S631 1.613 . S
N632 C635 1.350 . S
N633 S631 1.610 . S
N633 C634 1.351 . S
C634 C628 1.428 1_545 S
C634 N633 1.351 . S
C634 C635 1.434 . S
C635 C626 1.429 . S
C635 N632 1.350 . S
C635 C634 1.434 . S
C636 C637 1.369 . S
C636 C638 1.419 . S
C636 H640 0.930 . S
C637 C636 1.369 . S
C637 C646 1.429 . S
C638 C636 1.419 . S
C638 C639 1.363 . S
C638 H641 0.929 . S
C639 C638 1.363 . S
C639 C645 1.428 . S
H640 C636 0.930 . S
H641 C638 0.929 . S
S642 N643 1.613 . S
S642 N644 1.610 . S
N643 S642 1.613 . S
N643 C646 1.350 . S
N644 S642 1.610 . S
N644 C645 1.351 . S
C645 C639 1.428 . S
C645 N644 1.351 . S
C645 C646 1.434 . S
C646 C637 1.429 . S
C646 N643 1.350 . S
C646 C645 1.434 . S
C647 C648 1.369 1_564 S
C647 C649 1.419 . S
C647 H651 0.930 . S
C648 C647 1.369 1_546 S
C648 C657 1.429 1_556 S
C649 C647 1.419 . S
C649 C650 1.363 . S
C649 H652 0.929 . S
C650 C649 1.363 . S
C650 C656 1.428 1_565 S
H651 C647 0.930 . S
H652 C649 0.929 . S
S653 N654 1.613 . S
S653 N655 1.610 . S
N654 S653 1.613 . S
N654 C657 1.350 . S
N655 S653 1.610 . S
N655 C656 1.351 . S
C656 C650 1.428 1_545 S
C656 N655 1.351 . S
C656 C657 1.434 . S
C657 C648 1.429 1_554 S
C657 N654 1.350 . S
C657 C656 1.434 . S
C658 C659 1.369 . S
C658 C660 1.419 . S
C658 H662 0.930 . S
C659 C658 1.369 . S
C659 C668 1.429 . S
C660 C658 1.419 . S
C660 C661 1.363 . S
C660 H663 0.929 . S
C661 C660 1.363 . S
C661 C667 1.428 . S
H662 C658 0.930 . S
H663 C660 0.929 . S
S664 N665 1.613 . S
S664 N666 1.610 . S
N665 S664 1.613 . S
N665 C668 1.350 . S
N666 S664 1.610 . S
N666 C667 1.351 . S
C667 C661 1.428 . S
C667 N666 1.351 . S
C667 C668 1.434 . S
C668 C659 1.429 . S
C668 N665 1.350 . S
C668 C667 1.434 . S
C669 C670 1.369 . S
C669 C671 1.419 . S
C669 H673 0.930 . S
C670 C669 1.369 . S
C670 C679 1.429 1_545 S
C671 C669 1.419 . S
C671 C672 1.363 1_545 S
C671 H674 0.929 . S
C672 C671 1.363 1_565 S
C672 C678 1.428 . S
H673 C669 0.930 . S
H674 C671 0.929 . S
S675 N676 1.613 . S
S675 N677 1.610 . S
N676 S675 1.613 . S
N676 C679 1.350 . S
N677 S675 1.610 . S
N677 C678 1.351 . S
C678 C672 1.428 . S
C678 N677 1.351 . S
C678 C679 1.434 . S
C679 C670 1.429 1_565 S
C679 N676 1.350 . S
C679 C678 1.434 . S
C680 C681 1.369 . S
C680 C682 1.419 . S
C680 H684 0.930 . S
C681 C680 1.369 . S
C681 C690 1.429 . S
C682 C680 1.419 . S
C682 C683 1.363 . S
C682 H685 0.929 . S
C683 C682 1.363 . S
C683 C689 1.428 . S
H684 C680 0.930 . S
H685 C682 0.929 . S
S686 N687 1.613 . S
S686 N688 1.610 . S
N687 S686 1.613 . S
N687 C690 1.350 . S
N688 S686 1.610 . S
N688 C689 1.351 . S
C689 C683 1.428 . S
C689 N688 1.351 . S
C689 C690 1.434 . S
C690 C681 1.429 . S
C690 N687 1.350 . S
C690 C689 1.434 . S
C691 C692 1.369 . S
C691 C693 1.419 . S
C691 H695 0.930 . S
C692 C691 1.369 . S
C692 C701 1.429 . S
C693 C691 1.419 . S
C693 C694 1.363 . S
C693 H696 0.929 . S
C694 C693 1.363 . S
C694 C700 1.428 . S
H695 C691 0.930 . S
H696 C693 0.929 . S
S697 N698 1.613 . S
S697 N699 1.610 . S
N698 S697 1.613 . S
N698 C701 1.350 . S
N699 S697 1.610 . S
N699 C700 1.351 . S
C700 C694 1.428 . S
C700 N699 1.351 . S
C700 C701 1.434 . S
C701 C692 1.429 . S
C701 N698 1.350 . S
C701 C700 1.434 . S
C702 C703 1.369 . S
C702 C704 1.419 . S
C702 H706 0.930 . S
C703 C702 1.369 . S
C703 C712 1.429 . S
C704 C702 1.419 . S
C704 C705 1.363 . S
C704 H707 0.929 . S
C705 C704 1.363 . S
C705 C711 1.428 . S
H706 C702 0.930 . S
H707 C704 0.929 . S
S708 N709 1.613 . S
S708 N710 1.610 . S
N709 S708 1.613 . S
N709 C712 1.350 . S
N710 S708 1.610 . S
N710 C711 1.351 . S
C711 C705 1.428 . S
C711 N710 1.351 . S
C711 C712 1.434 . S
C712 C703 1.429 . S
C712 N709 1.350 . S
C712 C711 1.434 . S
C713 C714 1.369 . S
C713 C715 1.419 . S
C713 H717 0.930 . S
C714 C713 1.369 . S
C714 C723 1.429 . S
C715 C713 1.419 . S
C715 C716 1.363 1_554 S
C715 H718 0.929 1_554 S
C716 C715 1.363 1_556 S
C716 C722 1.428 1_556 S
H717 C713 0.930 . S
H718 C715 0.929 1_556 S
S719 N720 1.613 . S
S719 N721 1.610 . S
N720 S719 1.613 . S
N720 C723 1.350 . S
N721 S719 1.610 . S
N721 C722 1.351 . S
C722 C716 1.428 1_554 S
C722 N721 1.351 . S
C722 C723 1.434 . S
C723 C714 1.429 . S
C723 N720 1.350 . S
C723 C722 1.434 . S
C724 C725 1.369 . S
C724 C726 1.419 . S
C724 H728 0.930 . S
C725 C724 1.369 . S
C725 C734 1.429 . S
C726 C724 1.419 . S
C726 C727 1.363 . S
C726 H729 0.929 . S
C727 C726 1.363 . S
C727 C733 1.428 . S
H728 C724 0.930 . S
H729 C726 0.929 . S
S730 N731 1.613 . S
S730 N732 1.610 . S
N731 S730 1.613 . S
N731 C734 1.350 . S
N732 S730 1.610 . S
N732 C733 1.351 . S
C733 C727 1.428 . S
C733 N732 1.351 . S
C733 C734 1.434 . S
C734 C725 1.429 . S
C734 N731 1.350 . S
C734 C733 1.434 . S
C735 C736 1.369 . S
C735 C737 1.419 . S
C735 H739 0.930 . S
C736 C735 1.369 . S
C736 C745 1.429 . S
C737 C735 1.419 . S
C737 C738 1.363 . S
C737 H740 0.929 . S
C738 C737 1.363 . S
C738 C744 1.428 . S
H739 C735 0.930 . S
H740 C737 0.929 . S
S741 N742 1.613 . S
S741 N743 1.610 . S
N742 S741 1.613 . S
N742 C745 1.350 . S
N743 S741 1.610 . S
N743 C744 1.351 . S
C744 C738 1.428 . S
C744 N743 1.351 . S
C744 C745 1.434 . S
C745 C736 1.429 . S
C745 N742 1.350 . S
C745 C744 1.434 . S
C746 C747 1.369 . S
C746 C748 1.419 . S
C746 H750 0.930 . S
C747 C746 1.369 . S
C747 C756 1.429 . S
C748 C746 1.419 . S
C748 C749 1.363 . S
C748 H751 0.929 . S
C749 C748 1.363 . S
C749 C755 1.428 . S
H750 C746 0.930 . S
H751 C748 0.929 . S
S752 N753 1.613 . S
S752 N754 1.610 . S
N753 S752 1.613 . S
N753 C756 1.350 . S
N754 S752 1.610 . S
N754 C755 1.351 . S
C755 C749 1.428 . S
C755 N754 1.351 . S
C755 C756 1.434 . S
C756 C747 1.429 . S
C756 N753 1.350 . S
C756 C755 1.434 . S
C757 C758 1.369 . S
C757 C759 1.419 . S
C757 H761 0.930 . S
C758 C757 1.369 . S
C758 C767 1.429 . S
C759 C757 1.419 . S
C759 C760 1.363 1_554 S
C759 H762 0.929 . S
C760 C759 1.363 1_556 S
C760 C766 1.428 1_556 S
H761 C757 0.930 . S
H762 C759 0.929 . S
S763 N764 1.613 . S
S763 N765 1.610 1_554 S
N764 S763 1.613 . S
N764 C767 1.350 . S
N765 S763 1.610 1_556 S
N765 C766 1.351 1_556 S
C766 C760 1.428 1_554 S
C766 N765 1.351 1_554 S
C766 C767 1.434 . S
C767 C758 1.429 . S
C767 N764 1.350 . S
C767 C766 1.434 . S
C768 C769 1.369 . S
C768 C770 1.419 . S
C768 H772 0.930 . S
C769 C768 1.369 . S
C769 C778 1.429 . S
C770 C768 1.419 . S
C770 C771 1.363 . S
C770 H773 0.929 . S
C771 C770 1.363 . S
C771 C777 1.428 . S
H772 C768 0.930 . S
H773 C770 0.929 . S
S774 N775 1.613 . S
S774 N776 1.610 . S
N775 S774 1.613 . S
N775 C778 1.350 1_556 S
N776 S774 1.610 . S
N776 C777 1.351 1_556 S
C777 C771 1.428 . S
C777 N776 1.351 1_554 S
C777 C778 1.434 . S
C778 C769 1.429 . S
C778 N775 1.350 1_554 S
C778 C777 1.434 . S
C779 C780 1.369 . S
C779 C781 1.419 1_455 S
C779 H783 0.930 . S
C780 C779 1.369 . S
C780 C789 1.429 . S
C781 C779 1.419 1_655 S
C781 C782 1.363 . S
C781 H784 0.929 . S
C782 C781 1.363 . S
C782 C788 1.428 . S
H783 C779 0.930 . S
H784 C781 0.929 . S
S785 N786 1.617 1_655 S
S785 N787 1.607 . S
N786 S785 1.617 1_455 S
N786 C789 1.350 1_545 S
N787 S785 1.607 . S
N787 C788 1.351 1_545 S
C788 C782 1.428 . S
C788 N787 1.351 1_565 S
C788 C789 1.434 1_655 S
C789 C780 1.429 . S
C789 N786 1.350 1_565 S
C789 C788 1.434 1_455 S
C790 C791 1.369 . S
C790 C792 1.419 . S
C790 H794 0.930 . S
C791 C790 1.369 . S
C791 C800 1.429 . S
C792 C790 1.419 . S
C792 C793 1.363 . S
C792 H795 0.929 . S
C793 C792 1.363 . S
C793 C799 1.428 . S
H794 C790 0.930 . S
H795 C792 0.929 . S
S796 N797 1.613 . S
S796 N798 1.610 . S
N797 S796 1.613 . S
N797 C800 1.350 . S
N798 S796 1.610 . S
N798 C799 1.351 . S
C799 C793 1.428 . S
C799 N798 1.351 . S
C799 C800 1.434 . S
C800 C791 1.429 . S
C800 N797 1.350 . S
C800 C799 1.434 . S
C801 C802 1.369 . S
C801 C803 1.419 . S
C801 H805 0.930 . S
C802 C801 1.369 . S
C802 C811 1.429 . S
C803 C801 1.419 . S
C803 C804 1.363 . S
C803 H806 0.929 . S
C804 C803 1.363 . S
C804 C810 1.428 . S
H805 C801 0.930 . S
H806 C803 0.929 . S
S807 N808 1.613 . S
S807 N809 1.610 . S
N808 S807 1.613 . S
N808 C811 1.350 . S
N809 S807 1.610 . S
N809 C810 1.351 . S
C810 C804 1.428 . S
C810 N809 1.351 . S
C810 C811 1.434 . S
C811 C802 1.429 . S
C811 N808 1.350 . S
C811 C810 1.434 . S
C812 C813 1.369 . S
C812 C814 1.419 . S
C812 H816 0.930 . S
C813 C812 1.369 . S
C813 C822 1.429 . S
C814 C812 1.419 . S
C814 C815 1.363 . S
C814 H817 0.929 . S
C815 C814 1.363 . S
C815 C821 1.428 . S
H816 C812 0.930 . S
H817 C814 0.929 . S
S818 N819 1.613 . S
S818 N820 1.610 . S
N819 S818 1.613 . S
N819 C822 1.350 . S
N820 S818 1.610 . S
N820 C821 1.351 . S
C821 C815 1.428 . S
C821 N820 1.351 . S
C821 C822 1.434 . S
C822 C813 1.429 . S
C822 N819 1.350 . S
C822 C821 1.434 . S
C823 C824 1.369 . S
C823 C825 1.419 . S
C823 H827 0.930 . S
C824 C823 1.369 . S
C824 C833 1.429 . S
C825 C823 1.419 . S
C825 C826 1.363 . S
C825 H828 0.929 . S
C826 C825 1.363 . S
C826 C832 1.428 . S
H827 C823 0.930 . S
H828 C825 0.929 . S
S829 N830 1.613 . S
S829 N831 1.610 . S
N830 S829 1.613 . S
N830 C833 1.350 . S
N831 S829 1.610 . S
N831 C832 1.351 . S
C832 C826 1.428 . S
C832 N831 1.351 . S
C832 C833 1.434 . S
C833 C824 1.429 . S
C833 N830 1.350 . S
C833 C832 1.434 . S
C834 C835 1.369 . S
C834 C836 1.419 . S
C834 H838 0.930 . S
C835 C834 1.369 . S
C835 C844 1.429 . S
C836 C834 1.419 . S
C836 C837 1.363 . S
C836 H839 0.929 . S
C837 C836 1.363 . S
C837 C843 1.428 . S
H838 C834 0.930 . S
H839 C836 0.929 . S
S840 N841 1.613 . S
S840 N842 1.610 . S
N841 S840 1.613 . S
N841 C844 1.350 . S
N842 S840 1.610 . S
N842 C843 1.351 . S
C843 C837 1.428 . S
C843 N842 1.351 . S
C843 C844 1.434 . S
C844 C835 1.429 . S
C844 N841 1.350 . S
C844 C843 1.434 . S
C845 C846 1.369 . S
C845 C847 1.419 1_655 S
C845 H849 0.930 . S
C846 C845 1.369 . S
C846 C855 1.429 . S
C847 C845 1.419 1_455 S
C847 C848 1.363 . S
C847 H850 0.929 . S
C848 C847 1.363 . S
C848 C854 1.428 . S
H849 C845 0.930 . S
H850 C847 0.929 . S
S851 N852 1.617 1_455 S
S851 N853 1.607 . S
N852 S851 1.617 1_655 S
N852 C855 1.350 . S
N853 S851 1.607 . S
N853 C854 1.351 . S
C854 C848 1.428 . S
C854 N853 1.351 . S
C854 C855 1.434 1_455 S
C855 C846 1.429 . S
C855 N852 1.350 . S
C855 C854 1.434 1_655 S
C856 C857 1.369 . S
C856 C858 1.419 . S
C856 H860 0.930 . S
C857 C856 1.369 . S
C857 C866 1.429 . S
C858 C856 1.419 . S
C858 C859 1.363 . S
C858 H861 0.929 . S
C859 C858 1.363 . S
C859 C865 1.428 . S
H860 C856 0.930 . S
H861 C858 0.929 . S
S862 N863 1.613 . S
S862 N864 1.610 . S
N863 S862 1.613 . S
N863 C866 1.350 . S
N864 S862 1.610 . S
N864 C865 1.351 . S
C865 C859 1.428 . S
C865 N864 1.351 . S
C865 C866 1.434 . S
C866 C857 1.429 . S
C866 N863 1.350 . S
C866 C865 1.434 . S
C867 C868 1.369 . S
C867 C869 1.419 . S
C867 H871 0.930 . S
C868 C867 1.369 . S
C868 C877 1.429 . S
C869 C867 1.419 . S
C869 C870 1.363 . S
C869 H872 0.929 . S
C870 C869 1.363 . S
C870 C876 1.428 . S
H871 C867 0.930 . S
H872 C869 0.929 . S
S873 N874 1.613 . S
S873 N875 1.610 . S
N874 S873 1.613 . S
N874 C877 1.350 . S
N875 S873 1.610 . S
N875 C876 1.351 . S
C876 C870 1.428 . S
C876 N875 1.351 . S
C876 C877 1.434 . S
C877 C868 1.429 . S
C877 N874 1.350 . S
C877 C876 1.434 . S
C878 C879 1.369 . S
C878 C880 1.419 . S
C878 H882 0.930 . S
C879 C878 1.369 . S
C879 C888 1.429 . S
C880 C878 1.419 . S
C880 C881 1.363 . S
C880 H883 0.929 . S
C881 C880 1.363 . S
C881 C887 1.428 . S
H882 C878 0.930 . S
H883 C880 0.929 . S
S884 N885 1.613 . S
S884 N886 1.610 . S
N885 S884 1.613 . S
N885 C888 1.350 . S
N886 S884 1.610 . S
N886 C887 1.351 . S
C887 C881 1.428 . S
C887 N886 1.351 . S
C887 C888 1.434 . S
C888 C879 1.429 . S
C888 N885 1.350 . S
C888 C887 1.434 . S
C889 C890 1.369 . S
C889 C891 1.419 . S
C889 H893 0.930 . S
C890 C889 1.369 . S
C890 C899 1.429 . S
C891 C889 1.419 . S
C891 C892 1.363 . S
C891 H894 0.929 . S
C892 C891 1.363 . S
C892 C898 1.428 . S
H893 C889 0.930 . S
H894 C891 0.929 . S
S895 N896 1.613 . S
S895 N897 1.610 . S
N896 S895 1.613 . S
N896 C899 1.350 . S
N897 S895 1.610 . S
N897 C898 1.351 . S
C898 C892 1.428 . S
C898 N897 1.351 . S
C898 C899 1.434 . S
C899 C890 1.429 . S
C899 N896 1.350 . S
C899 C898 1.434 . S
C900 C901 1.369 . S
C900 C902 1.419 . S
C900 H904 0.930 . S
C901 C900 1.369 . S
C901 C910 1.429 . S
C902 C900 1.419 . S
C902 C903 1.363 . S
C902 H905 0.929 . S
C903 C902 1.363 . S
C903 C909 1.428 . S
H904 C900 0.930 . S
H905 C902 0.929 . S
S906 N907 1.613 . S
S906 N908 1.610 . S
N907 S906 1.613 . S
N907 C910 1.350 . S
N908 S906 1.610 . S
N908 C909 1.351 . S
C909 C903 1.428 . S
C909 N908 1.351 . S
C909 C910 1.434 . S
C910 C901 1.429 . S
C910 N907 1.350 . S
C910 C909 1.434 . S
C911 C912 1.369 . S
C911 C913 1.419 1_655 S
C911 H915 0.930 . S
C912 C911 1.369 . S
C912 C921 1.429 . S
C913 C911 1.419 1_455 S
C913 C914 1.363 . S
C913 H916 0.929 . S
C914 C913 1.363 . S
C914 C920 1.428 . S
H915 C911 0.930 . S
H916 C913 0.929 . S
S917 N918 1.617 1_455 S
S917 N919 1.607 . S
N918 S917 1.617 1_655 S
N918 C921 1.350 . S
N919 S917 1.607 . S
N919 C920 1.351 . S
C920 C914 1.428 . S
C920 N919 1.351 . S
C920 C921 1.434 1_455 S
C921 C912 1.429 . S
C921 N918 1.350 . S
C921 C920 1.434 1_655 S
C922 C923 1.369 . S
C922 C924 1.419 1_655 S
C922 H926 0.930 . S
C923 C922 1.369 . S
C923 C932 1.429 . S
C924 C922 1.419 1_455 S
C924 C925 1.363 . S
C924 H927 0.929 . S
C925 C924 1.363 . S
C925 C931 1.428 . S
H926 C922 0.930 . S
H927 C924 0.929 . S
S928 N929 1.617 1_455 S
S928 N930 1.607 . S
N929 S928 1.617 1_655 S
N929 C932 1.350 . S
N930 S928 1.607 . S
N930 C931 1.351 . S
C931 C925 1.428 . S
C931 N930 1.351 . S
C931 C932 1.434 1_455 S
C932 C923 1.429 . S
C932 N929 1.350 . S
C932 C931 1.434 1_655 S
C933 C934 1.369 . S
C933 C935 1.419 . S
C933 H937 0.930 . S
C934 C933 1.369 . S
C934 C943 1.429 . S
C935 C933 1.419 . S
C935 C936 1.363 . S
C935 H938 0.929 . S
C936 C935 1.363 . S
C936 C942 1.428 . S
H937 C933 0.930 . S
H938 C935 0.929 . S
S939 N940 1.613 . S
S939 N941 1.610 . S
N940 S939 1.613 . S
N940 C943 1.350 . S
N941 S939 1.610 . S
N941 C942 1.351 . S
C942 C936 1.428 . S
C942 N941 1.351 . S
C942 C943 1.434 . S
C943 C934 1.429 . S
C943 N940 1.350 . S
C943 C942 1.434 . S
C944 C945 1.369 . S
C944 C946 1.419 . S
C944 H948 0.930 . S
C945 C944 1.369 . S
C945 C954 1.429 . S
C946 C944 1.419 . S
C946 C947 1.363 . S
C946 H949 0.929 . S
C947 C946 1.363 . S
C947 C953 1.428 . S
H948 C944 0.930 . S
H949 C946 0.929 . S
S950 N951 1.613 . S
S950 N952 1.610 . S
N951 S950 1.613 . S
N951 C954 1.350 . S
N952 S950 1.610 . S
N952 C953 1.351 . S
C953 C947 1.428 . S
C953 N952 1.351 . S
C953 C954 1.434 . S
C954 C945 1.429 . S
C954 N951 1.350 . S
C954 C953 1.434 . S
C955 C956 1.369 1_545 S
C955 C957 1.419 . S
C955 H959 0.930 . S
C956 C955 1.369 1_565 S
C956 C965 1.429 . S
C957 C955 1.419 . S
C957 C958 1.363 . S
C957 H960 0.929 . S
C958 C957 1.363 . S
C958 C964 1.428 1_545 S
H959 C955 0.930 . S
H960 C957 0.929 . S
S961 N962 1.613 . S
S961 N963 1.610 . S
N962 S961 1.613 . S
N962 C965 1.350 . S
N963 S961 1.610 . S
N963 C964 1.351 . S
C964 C958 1.428 1_565 S
C964 N963 1.351 . S
C964 C965 1.434 . S
C965 C956 1.429 . S
C965 N962 1.350 . S
C965 C964 1.434 . S
C966 C967 1.369 . S
C966 C968 1.419 . S
C966 H970 0.930 . S
C967 C966 1.369 . S
C967 C976 1.429 . S
C968 C966 1.419 . S
C968 C969 1.363 . S
C968 H971 0.929 . S
C969 C968 1.363 . S
C969 C975 1.428 . S
H970 C966 0.930 . S
H971 C968 0.929 . S
S972 N973 1.613 . S
S972 N974 1.610 . S
N973 S972 1.613 . S
N973 C976 1.350 . S
N974 S972 1.610 . S
N974 C975 1.351 . S
C975 C969 1.428 . S
C975 N974 1.351 . S
C975 C976 1.434 . S
C976 C967 1.429 . S
C976 N973 1.350 . S
C976 C975 1.434 . S
C977 C978 1.371 . S
C977 C979 1.418 1_545 S
C977 H981 0.930 . S
C978 C977 1.371 . S
C978 C987 1.432 1_545 S
C979 C977 1.418 1_565 S
C979 C980 1.363 . S
C979 H982 0.929 1_565 S
C980 C979 1.363 . S
C980 C986 1.428 . S
H981 C977 0.930 . S
H982 C979 0.929 1_545 S
S983 N984 1.623 . S
S983 N985 1.610 . S
N984 S983 1.623 . S
N984 C987 1.353 . S
N985 S983 1.610 . S
N985 C986 1.351 . S
C986 C980 1.428 . S
C986 N985 1.351 . S
C986 C987 1.432 . S
C987 C978 1.432 1_565 S
C987 N984 1.353 . S
C987 C986 1.432 . S
C988 C989 1.369 . S
C988 C990 1.419 . S
C988 H992 0.930 . S
C989 C988 1.369 . S
C989 C998 1.429 . S
C990 C988 1.419 . S
C990 C991 1.363 . S
C990 H993 0.929 . S
C991 C990 1.363 . S
C991 C997 1.428 . S
H992 C988 0.930 . S
H993 C990 0.929 . S
S994 N995 1.613 . S
S994 N996 1.610 . S
N995 S994 1.613 . S
N995 C998 1.350 . S
N996 S994 1.610 . S
N996 C997 1.351 . S
C997 C991 1.428 . S
C997 N996 1.351 . S
C997 C998 1.434 . S
C998 C989 1.429 . S
C998 N995 1.350 . S
C998 C997 1.434 . S
C999 C1000 1.369 1_565 S
C999 C1001 1.419 . S
C999 H1003 0.930 . S
C1000 C999 1.369 1_545 S
C1000 C1009 1.429 . S
C1001 C999 1.419 . S
C1001 C1002 1.363 . S
C1001 H1004 0.929 . S
C1002 C1001 1.363 . S
C1002 C1008 1.428 1_565 S
H1003 C999 0.930 . S
H1004 C1001 0.929 . S
S1005 N1006 1.613 . S
S1005 N1007 1.610 . S
N1006 S1005 1.613 . S
N1006 C1009 1.350 . S
N1007 S1005 1.610 . S
N1007 C1008 1.351 . S
C1008 C1002 1.428 1_545 S
C1008 N1007 1.351 . S
C1008 C1009 1.434 . S
C1009 C1000 1.429 . S
C1009 N1006 1.350 . S
C1009 C1008 1.434 . S
C1010 C1011 1.369 . S
C1010 C1012 1.419 . S
C1010 H1014 0.930 . S
C1011 C1010 1.369 . S
C1011 C1020 1.429 . S
C1012 C1010 1.419 . S
C1012 C1013 1.363 . S
C1012 H1015 0.929 . S
C1013 C1012 1.363 . S
C1013 C1019 1.428 . S
H1014 C1010 0.930 . S
H1015 C1012 0.929 . S
S1016 N1017 1.613 . S
S1016 N1018 1.610 . S
N1017 S1016 1.613 . S
N1017 C1020 1.350 . S
N1018 S1016 1.610 . S
N1018 C1019 1.351 . S
C1019 C1013 1.428 . S
C1019 N1018 1.351 . S
C1019 C1020 1.434 . S
C1020 C1011 1.429 . S
C1020 N1017 1.350 . S
C1020 C1019 1.434 . S
C1021 C1022 1.369 1_545 S
C1021 C1023 1.419 . S
C1021 H1025 0.930 . S
C1022 C1021 1.369 1_565 S
C1022 C1031 1.429 . S
C1023 C1021 1.419 . S
C1023 C1024 1.362 . S
C1023 H1026 0.929 . S
C1024 C1023 1.362 . S
C1024 C1030 1.428 1_545 S
H1025 C1021 0.930 . S
H1026 C1023 0.929 . S
S1027 N1028 1.613 . S
S1027 N1029 1.610 1_554 S
N1028 S1027 1.613 . S
N1028 C1031 1.350 . S
N1029 S1027 1.610 1_556 S
N1029 C1030 1.351 1_556 S
C1030 C1024 1.428 1_565 S
C1030 N1029 1.351 1_554 S
C1030 C1031 1.434 . S
C1031 C1022 1.429 . S
C1031 N1028 1.350 . S
C1031 C1030 1.434 . S
C1032 C1033 1.369 . S
C1032 C1034 1.419 . S
C1032 H1036 0.930 . S
C1033 C1032 1.369 . S
C1033 C1042 1.429 . S
C1034 C1032 1.419 . S
C1034 C1035 1.363 . S
C1034 H1037 0.929 . S
C1035 C1034 1.363 . S
C1035 C1041 1.428 . S
H1036 C1032 0.930 . S
H1037 C1034 0.929 . S
S1038 N1039 1.613 . S
S1038 N1040 1.610 . S
N1039 S1038 1.613 . S
N1039 C1042 1.350 . S
N1040 S1038 1.610 . S
N1040 C1041 1.351 . S
C1041 C1035 1.428 . S
C1041 N1040 1.351 . S
C1041 C1042 1.434 . S
C1042 C1033 1.429 . S
C1042 N1039 1.350 . S
C1042 C1041 1.434 . S
C1043 C1044 1.369 . S
C1043 C1045 1.419 . S
C1043 H1047 0.930 . S
C1044 C1043 1.369 . S
C1044 C1053 1.429 . S
C1045 C1043 1.419 . S
C1045 C1046 1.365 . S
C1045 H1048 0.929 1_554 S
C1046 C1045 1.365 . S
C1046 C1052 1.434 . S
H1047 C1043 0.930 . S
H1048 C1045 0.929 1_556 S
S1049 N1050 1.613 . S
S1049 N1051 1.610 . S
N1050 S1049 1.613 . S
N1050 C1053 1.350 . S
N1051 S1049 1.610 . S
N1051 C1052 1.351 . S
C1052 C1046 1.434 . S
C1052 N1051 1.351 . S
C1052 C1053 1.434 . S
C1053 C1044 1.429 . S
C1053 N1050 1.350 . S
C1053 C1052 1.434 . S
C1054 C1055 1.369 . S
C1054 C1056 1.419 . S
C1054 H1058 0.930 . S
C1055 C1054 1.369 . S
C1055 C1064 1.429 . S
C1056 C1054 1.419 . S
C1056 C1057 1.363 . S
C1056 H1059 0.929 . S
C1057 C1056 1.363 . S
C1057 C1063 1.428 . S
H1058 C1054 0.930 . S
H1059 C1056 0.929 . S
S1060 N1061 1.613 . S
S1060 N1062 1.610 . S
N1061 S1060 1.613 . S
N1061 C1064 1.350 . S
N1062 S1060 1.610 . S
N1062 C1063 1.351 . S
C1063 C1057 1.428 . S
C1063 N1062 1.351 . S
C1063 C1064 1.434 . S
C1064 C1055 1.429 . S
C1064 N1061 1.350 . S
C1064 C1063 1.434 . S
C1065 C1066 1.369 . S
C1065 C1067 1.419 . S
C1065 H1069 0.930 . S
C1066 C1065 1.369 . S
C1066 C1075 1.429 . S
C1067 C1065 1.419 . S
C1067 C1068 1.363 . S
C1067 H1070 0.929 . S
C1068 C1067 1.363 . S
C1068 C1074 1.428 . S
H1069 C1065 0.930 . S
H1070 C1067 0.929 . S
S1071 N1072 1.613 . S
S1071 N1073 1.610 . S
N1072 S1071 1.613 . S
N1072 C1075 1.350 . S
N1073 S1071 1.610 . S
N1073 C1074 1.351 . S
C1074 C1068 1.428 . S
C1074 N1073 1.351 . S
C1074 C1075 1.434 . S
C1075 C1066 1.429 . S
C1075 N1072 1.350 . S
C1075 C1074 1.434 . S
C1076 C1077 1.369 . S
C1076 C1078 1.419 . S
C1076 H1080 0.930 . S
C1077 C1076 1.369 . S
C1077 C1086 1.429 . S
C1078 C1076 1.419 . S
C1078 C1079 1.363 . S
C1078 H1081 0.929 . S
C1079 C1078 1.363 . S
C1079 C1085 1.428 . S
H1080 C1076 0.930 . S
H1081 C1078 0.929 . S
S1082 N1083 1.613 . S
S1082 N1084 1.610 . S
N1083 S1082 1.613 . S
N1083 C1086 1.350 . S
N1084 S1082 1.610 . S
N1084 C1085 1.351 . S
C1085 C1079 1.428 . S
C1085 N1084 1.351 . S
C1085 C1086 1.434 . S
C1086 C1077 1.429 . S
C1086 N1083 1.350 . S
C1086 C1085 1.434 . S
C1087 C1088 1.369 1_554 S
C1087 C1089 1.419 . S
C1087 H1091 0.930 . S
C1088 C1087 1.369 1_556 S
C1088 C1097 1.429 1_556 S
C1089 C1087 1.419 . S
C1089 C1090 1.363 . S
C1089 H1092 0.929 . S
C1090 C1089 1.363 . S
C1090 C1096 1.428 . S
H1091 C1087 0.930 . S
H1092 C1089 0.929 . S
S1093 N1094 1.613 1_554 S
S1093 N1095 1.610 . S
N1094 S1093 1.613 1_556 S
N1094 C1097 1.350 1_556 S
N1095 S1093 1.610 . S
N1095 C1096 1.351 . S
C1096 C1090 1.428 . S
C1096 N1095 1.351 . S
C1096 C1097 1.434 . S
C1097 C1088 1.429 1_554 S
C1097 N1094 1.350 1_554 S
C1097 C1096 1.434 . S
C1098 C1099 1.369 . S
C1098 C1100 1.419 . S
C1098 H1102 0.930 . S
C1099 C1098 1.369 . S
C1099 C1108 1.429 . S
C1100 C1098 1.419 . S
C1100 C1101 1.363 . S
C1100 H1103 0.929 . S
C1101 C1100 1.363 . S
C1101 C1107 1.428 . S
H1102 C1098 0.930 . S
H1103 C1100 0.929 . S
S1104 N1105 1.613 . S
S1104 N1106 1.610 . S
N1105 S1104 1.613 . S
N1105 C1108 1.350 . S
N1106 S1104 1.610 . S
N1106 C1107 1.351 . S
C1107 C1101 1.428 . S
C1107 N1106 1.351 . S
C1107 C1108 1.434 . S
C1108 C1099 1.429 . S
C1108 N1105 1.350 . S
C1108 C1107 1.434 . S
C1109 C1110 1.369 . S
C1109 C1111 1.419 . S
C1109 H1113 0.930 . S
C1110 C1109 1.369 . S
C1110 C1119 1.429 . S
C1111 C1109 1.419 . S
C1111 C1112 1.363 . S
C1111 H1114 0.929 . S
C1112 C1111 1.363 . S
C1112 C1118 1.428 . S
H1113 C1109 0.930 . S
H1114 C1111 0.929 . S
S1115 N1116 1.613 . S
S1115 N1117 1.610 . S
N1116 S1115 1.613 . S
N1116 C1119 1.350 . S
N1117 S1115 1.610 . S
N1117 C1118 1.351 . S
C1118 C1112 1.428 . S
C1118 N1117 1.351 . S
C1118 C1119 1.434 . S
C1119 C1110 1.429 . S
C1119 N1116 1.350 . S
C1119 C1118 1.434 . S
C417 C101 1.618 . S
C419 C4 1.611 1_556 S
C428 C17 1.617 . S
C430 C56 1.612 . S
C439 C75 1.612 . S
C441 C36 1.616 . S
C450 C43 1.615 . S
C452 C88 1.614 . S
C461 C108 1.617 . S
C463 C205 1.613 . S
C472 C121 1.611 . S
C474 C166 1.617 1_556 S
C483 C134 1.617 . S
C485 C179 1.612 . S
C494 C147 1.614 . S
C496 C186 1.615 . S
C505 C218 1.610 . S
C507 C309 1.617 . S
C516 C225 1.615 . S
C518 C270 1.613 . S
C527 C283 1.617 . S
C529 C238 1.613 1_556 S
C538 C296 1.618 . S
C540 C251 1.612 . S
C549 C316 1.613 . S
C551 C413 1.615 . S
C560 C368 1.610 . S
C562 C329 1.617 . S
C571 C387 1.613 . S
C573 C348 1.616 . S
C582 C355 1.618 . S
C584 C400 1.611 1_556 S
C593 C10 1.050 . S
C595 C82 1.054 . S
C604 C23 1.055 . S
C606 C95 1.050 . S
C615 C62 1.055 . S
C617 C30 1.051 . S
C626 C49 1.048 . S
C628 C69 1.053 . S
C637 C114 1.054 . S
C639 C192 1.052 . S
C648 C127 1.050 . S
C650 C199 1.051 . S
C659 C160 1.050 . S
C661 C140 1.051 . S
C670 C173 1.054 . S
C672 C153 1.052 . S
C681 C212 1.050 . S
C683 C290 1.054 . S
C692 C303 1.055 . S
C694 C231 1.050 . S
C703 C264 1.051 . S
C705 C244 1.049 . S
C714 C257 1.054 . S
C716 C277 1.049 . S
C725 C322 1.050 . S
C727 C394 1.051 . S
C736 C335 1.055 . S
C738 C407 1.049 . S
C747 C374 1.055 . S
C749 C342 1.050 . S
C758 C381 1.048 . S
C760 C361 1.054 . S
C769 C5 1.604 . S
C771 C393 1.604 . S
C780 C18 1.604 . S
C782 C198 1.604 . S
C791 C29 1.604 . S
C793 C369 1.604 . S
C802 C44 1.605 . S
C804 C172 1.605 . S
C813 C57 1.605 . S
C815 C341 1.605 . S
C824 C68 1.606 . S
C826 C148 1.606 . S
C835 C81 1.606 . S
C837 C317 1.606 . S
C846 C122 1.604 . S
C848 C94 1.604 . S
C857 C289 1.605 . S
C859 C109 1.605 . S
C868 C135 1.603 . S
C870 C263 1.604 . S
C879 C239 1.605 . S
C881 C159 1.605 . S
C890 C211 1.604 . S
C892 C187 1.604 . S
C901 C226 1.605 . S
C903 C406 1.605 . S
C912 C252 1.605 . S
C914 C380 1.605 . S
C923 C276 1.605 . S
C925 C356 1.605 . S
C934 C330 1.603 . S
C936 C302 1.604 . S
C945 C3 1.507 . S
C947 C83 1.507 . S
C956 C16 1.509 . S
C958 C96 1.508 . S
C967 C55 1.507 . S
C969 C31 1.507 . S
C978 C42 1.505 1_554 S
C980 C70 1.509 . S
C989 C107 1.509 . S
C991 C185 1.509 . S
C1000 C120 1.509 . S
C1002 C200 1.508 . S
C1011 C161 1.507 . S
C1013 C133 1.508 . S
C1022 C146 1.509 . S
C1024 C174 1.509 1_554 S
C1033 C291 1.507 . S
C1035 C213 1.507 . S
C1044 C304 1.508 . S
C1046 C224 1.502 1_554 S
C1055 C265 1.509 . S
C1057 C237 1.509 . S
C1066 C278 1.508 . S
C1068 C250 1.509 . S
C1077 C395 1.507 . S
C1079 C315 1.508 . S
C1088 C408 1.508 . S
C1090 C328 1.509 . S
C1099 C343 1.507 . S
C1101 C367 1.507 . S
C1110 C382 1.507 . S
C1112 C354 1.508 . S
