# Generated by pormake.
# Topology vbj, (5)-cn, num edge types: 1
# Building blocks:
#     Node 0, Type 0, BuildingBlock: XOMCOT_clean_sbu_1, # of connection points: 5
#     Node 1, Type 0, BuildingBlock: XOMCOT_clean_sbu_1, # of connection points: 5
#     Node 2, Type 0, BuildingBlock: XOMCOT_clean_sbu_1, # of connection points: 5
#     Node 3, Type 0, BuildingBlock: XOMCOT_clean_sbu_1, # of connection points: 5
#     Node 4, Type 0, BuildingBlock: XOMCOT_clean_sbu_1, # of connection points: 5
#     Node 5, Type 0, BuildingBlock: XOMCOT_clean_sbu_1, # of connection points: 5
#     Node 6, Type 0, BuildingBlock: XOMCOT_clean_sbu_1, # of connection points: 5
#     Node 7, Type 0, BuildingBlock: XOMCOT_clean_sbu_1, # of connection points: 5
#     Node 8, Type 0, BuildingBlock: XOMCOT_clean_sbu_1, # of connection points: 5
#     Node 9, Type 0, BuildingBlock: XOMCOT_clean_sbu_1, # of connection points: 5
#     Node 10, Type 0, BuildingBlock: XOMCOT_clean_sbu_1, # of connection points: 5
#     Node 11, Type 0, BuildingBlock: XOMCOT_clean_sbu_1, # of connection points: 5
#     Node 12, Type 0, BuildingBlock: XOMCOT_clean_sbu_1, # of connection points: 5
#     Node 13, Type 0, BuildingBlock: XOMCOT_clean_sbu_1, # of connection points: 5
#     Node 14, Type 0, BuildingBlock: XOMCOT_clean_sbu_1, # of connection points: 5
#     Node 15, Type 0, BuildingBlock: XOMCOT_clean_sbu_1, # of connection points: 5
#     Edge 16, Type (0, 0), BuildingBlock: OJICUG_clean_linker_0, # of connection points: 2
#     Edge 17, Type (0, 0), BuildingBlock: OJICUG_clean_linker_0, # of connection points: 2
#     Edge 18, Type (0, 0), BuildingBlock: OJICUG_clean_linker_0, # of connection points: 2
#     Edge 19, Type (0, 0), BuildingBlock: OJICUG_clean_linker_0, # of connection points: 2
#     Edge 20, Type (0, 0), BuildingBlock: OJICUG_clean_linker_0, # of connection points: 2
#     Edge 21, Type (0, 0), BuildingBlock: OJICUG_clean_linker_0, # of connection points: 2
#     Edge 22, Type (0, 0), BuildingBlock: OJICUG_clean_linker_0, # of connection points: 2
#     Edge 23, Type (0, 0), BuildingBlock: OJICUG_clean_linker_0, # of connection points: 2
#     Edge 24, Type (0, 0), BuildingBlock: OJICUG_clean_linker_0, # of connection points: 2
#     Edge 25, Type (0, 0), BuildingBlock: OJICUG_clean_linker_0, # of connection points: 2
#     Edge 26, Type (0, 0), BuildingBlock: OJICUG_clean_linker_0, # of connection points: 2
#     Edge 27, Type (0, 0), BuildingBlock: OJICUG_clean_linker_0, # of connection points: 2
#     Edge 28, Type (0, 0), BuildingBlock: OJICUG_clean_linker_0, # of connection points: 2
#     Edge 29, Type (0, 0), BuildingBlock: OJICUG_clean_linker_0, # of connection points: 2
#     Edge 30, Type (0, 0), BuildingBlock: OJICUG_clean_linker_0, # of connection points: 2
#     Edge 31, Type (0, 0), BuildingBlock: OJICUG_clean_linker_0, # of connection points: 2
#     Edge 32, Type (0, 0), BuildingBlock: OJICUG_clean_linker_0, # of connection points: 2
#     Edge 33, Type (0, 0), BuildingBlock: OJICUG_clean_linker_0, # of connection points: 2
#     Edge 34, Type (0, 0), BuildingBlock: OJICUG_clean_linker_0, # of connection points: 2
#     Edge 35, Type (0, 0), BuildingBlock: OJICUG_clean_linker_0, # of connection points: 2
#     Edge 36, Type (0, 0), BuildingBlock: OJICUG_clean_linker_0, # of connection points: 2
#     Edge 37, Type (0, 0), BuildingBlock: OJICUG_clean_linker_0, # of connection points: 2
#     Edge 38, Type (0, 0), BuildingBlock: OJICUG_clean_linker_0, # of connection points: 2
#     Edge 39, Type (0, 0), BuildingBlock: OJICUG_clean_linker_0, # of connection points: 2
#     Edge 40, Type (0, 0), BuildingBlock: OJICUG_clean_linker_0, # of connection points: 2
#     Edge 41, Type (0, 0), BuildingBlock: OJICUG_clean_linker_0, # of connection points: 2
#     Edge 42, Type (0, 0), BuildingBlock: OJICUG_clean_linker_0, # of connection points: 2
#     Edge 43, Type (0, 0), BuildingBlock: OJICUG_clean_linker_0, # of connection points: 2
#     Edge 44, Type (0, 0), BuildingBlock: OJICUG_clean_linker_0, # of connection points: 2
#     Edge 45, Type (0, 0), BuildingBlock: OJICUG_clean_linker_0, # of connection points: 2
#     Edge 46, Type (0, 0), BuildingBlock: OJICUG_clean_linker_0, # of connection points: 2
#     Edge 47, Type (0, 0), BuildingBlock: OJICUG_clean_linker_0, # of connection points: 2
#     Edge 48, Type (0, 0), BuildingBlock: OJICUG_clean_linker_0, # of connection points: 2
#     Edge 49, Type (0, 0), BuildingBlock: OJICUG_clean_linker_0, # of connection points: 2
#     Edge 50, Type (0, 0), BuildingBlock: OJICUG_clean_linker_0, # of connection points: 2
#     Edge 51, Type (0, 0), BuildingBlock: OJICUG_clean_linker_0, # of connection points: 2
#     Edge 52, Type (0, 0), BuildingBlock: OJICUG_clean_linker_0, # of connection points: 2
#     Edge 53, Type (0, 0), BuildingBlock: OJICUG_clean_linker_0, # of connection points: 2
#     Edge 54, Type (0, 0), BuildingBlock: OJICUG_clean_linker_0, # of connection points: 2
#     Edge 55, Type (0, 0), BuildingBlock: OJICUG_clean_linker_0, # of connection points: 2
# Relax obj value: 0.097
# Max RMSD: 0.142
# Mean RMSD: 0.142
data_MOF--net-vbj--node1-XOMCOT_clean_sbu_1--edge1-OJICUG_clean_linker_0
_symmetry_space_group_name_H-M    P1
_symmetry_Int_Tables_number       1
_symmetry_cell_setting            triclinic
loop_
_symmetry_equiv_pos_as_xyz
'x, y, z'
_cell_length_a     21.168063
_cell_length_b     49.22019
_cell_length_c     34.222159
_cell_angle_alpha  89.992158
_cell_angle_beta   90.261988
_cell_angle_gamma 89.838579
loop_
_atom_site_label
_atom_site_type_symbol
_atom_site_fract_x
_atom_site_fract_y
_atom_site_fract_z
_atom_type_partial_charge
C0 C 0.07947 0.19373 0.0857 0.0
C1 C 0.06074 0.22026 0.08179 0.0
N2 N 0.03298 0.2281 0.1152 0.0
N3 N 0.06354 0.18454 0.12144 0.0
C4 C 0.03538 0.20614 0.13902 0.0
H5 H 0.09996 0.18144 0.06287 0.0
Co6 Co 0.07174 0.14748 0.13424 0.0
C7 C -0.00084 0.14233 0.20751 0.0
O8 O 0.96416 0.12388 0.19027 0.0
N9 N 0.08208 0.10918 0.14693 0.0
C10 C 0.07395 0.0639 0.14815 0.0
C11 C 0.04298 0.08796 0.14028 0.0
C12 C 0.13578 0.09703 0.16046 0.0
N13 N 0.13304 0.06955 0.16038 0.0
O14 O 0.1583 0.15387 0.14727 0.0
H15 H -0.0046 0.08945 0.12895 0.0
H16 H 0.17736 0.10805 0.16935 0.0
O17 O 0.04344 0.1541 0.18852 0.0
C18 C 0.18403 0.14697 0.11498 0.0
O19 O 0.14829 0.13721 0.08688 0.0
N20 N -0.00936 0.14218 0.11342 0.0
C21 C 0.89859 0.15037 0.05561 0.0
C22 C 0.89118 0.16132 0.09337 0.0
C23 C 0.93823 0.15732 0.12176 0.0
C24 C -0.00334 0.13027 0.07762 0.0
C25 C 0.95141 0.13398 0.0485 0.0
H26 H 0.93494 0.16836 0.14894 0.0
H27 H 0.03963 0.1196 0.07032 0.0
H28 H 0.01295 0.20524 0.16734 0.0
H29 H 0.06406 0.23249 0.05557 0.0
H30 H 0.05514 0.04381 0.14294 0.0
H31 H 0.85072 0.17383 0.10053 0.0
H32 H 0.96016 0.12542 1.01989 0.0
C33 C 0.35276 0.86573 0.08512 0.0
C34 C 0.36823 0.83888 0.08035 0.0
N35 N 0.41209 0.8321 0.10727 0.0
N36 N 0.38626 0.87621 0.1151 0.0
C37 C 0.42177 0.85504 0.12839 0.0
H38 H 0.32108 0.87714 0.06649 0.0
Co39 Co 0.38509 0.91369 0.12658 0.0
C40 C 0.45819 0.91922 0.19973 0.0
O41 O 0.49096 0.93857 0.18295 0.0
N42 N 0.38199 0.95231 0.13811 0.0
C43 C 0.39003 0.99744 0.1337 0.0
C44 C 0.41764 0.97293 0.12433 0.0
C45 C 0.33451 0.9653 0.15733 0.0
N46 N 0.33674 0.99269 0.15394 0.0
O47 O 0.29814 0.91052 0.14157 0.0
H48 H 0.45968 0.97072 0.1069 0.0
H49 H 0.29692 0.95479 0.17216 0.0
O50 O 0.41515 0.90681 0.18031 0.0
C51 C 0.27057 0.91968 0.11093 0.0
O52 O 0.30513 0.92805 0.08161 0.0
N53 N 0.46558 0.91629 0.10434 0.0
C54 C 0.56232 0.91166 0.04931 0.0
C55 C 0.57084 0.90215 0.08786 0.0
C56 C 0.5213 0.90424 0.11489 0.0
C57 C 0.45711 0.9255 0.0671 0.0
C58 C 0.50451 0.92358 0.0394 0.0
H59 H 0.5269 0.89494 0.14326 0.0
H60 H 0.41211 0.93373 0.0582 0.0
H61 H 0.45674 0.85678 0.15139 0.0
H62 H 0.3503 0.82559 0.05769 0.0
H63 H 0.40606 1.01712 0.12381 0.0
H64 H 0.6148 0.89272 0.0969 0.0
H65 H 0.49474 0.93056 1.00997 0.0
C66 C 0.57182 0.86479 0.48489 0.0
C67 C 0.55548 0.83786 0.48282 0.0
N68 N 0.53666 0.83252 0.44607 0.0
N69 N 0.56423 0.87645 0.44943 0.0
C70 C 0.54238 0.85614 0.42633 0.0
H71 H 0.58565 0.87542 0.51118 0.0
Co72 Co 0.57802 0.91364 0.4388 0.0
C73 C 0.49169 0.91374 0.36696 0.0
O74 O 0.4431 0.9236 0.38596 0.0
N75 N 0.59357 0.95106 0.42766 0.0
C76 C 0.58656 0.9937 0.40597 0.0
C77 C 0.55572 0.9692 0.40933 0.0
C78 C 0.64665 0.96539 0.43573 0.0
N79 N 0.64419 0.99126 0.42248 0.0
O80 O 0.66185 0.90484 0.42214 0.0
H81 H 0.50833 0.96521 0.39929 0.0
H82 H 0.68674 0.95706 0.45096 0.0
O83 O 0.54431 0.90943 0.38473 0.0
C84 C 0.68951 0.90416 0.45542 0.0
O85 O 0.65744 0.91135 0.48655 0.0
N86 N 0.50019 0.92202 0.46251 0.0
C87 C 0.41217 0.92478 0.52308 0.0
C88 C 0.40362 0.90668 0.49184 0.0
C89 C 0.44852 0.90537 0.46207 0.0
C90 C 0.50805 0.94012 0.49241 0.0
C91 C 0.46439 0.94209 0.52256 0.0
H92 H 0.44364 0.8897 0.4402 0.0
H93 H 0.55126 0.95158 0.49515 0.0
H94 H 0.52854 0.85872 0.39609 0.0
H95 H 0.55372 0.82369 0.50699 0.0
H96 H 0.56742 1.01195 0.3928 0.0
H97 H 0.3635 0.89308 0.4909 0.0
H98 H 0.47348 0.95601 0.54643 0.0
C99 C 0.83392 0.20775 0.47074 0.0
C100 C 0.84833 0.23486 0.46776 0.0
N101 N 0.89627 0.23747 0.44247 0.0
N102 N 0.87221 0.19324 0.44713 0.0
C103 C 0.91003 0.21205 0.43038 0.0
H104 H 0.79975 0.19918 0.49051 0.0
Co105 Co 0.87376 0.15521 0.44398 0.0
C106 C 0.95163 0.14458 0.37321 0.0
O107 O -0.01351 0.12729 0.39308 0.0
N108 N 0.87409 0.11601 0.44086 0.0
C109 C 0.89211 0.07194 0.45231 0.0
C110 C 0.91577 0.09786 0.45594 0.0
C111 C 0.82668 0.1001 0.42692 0.0
N112 N 0.83544 0.0734 0.43446 0.0
O113 O 0.78783 0.15614 0.42589 0.0
H114 H 0.96013 0.10285 0.46984 0.0
H115 H 0.7844 0.10791 0.41318 0.0
O116 O 0.90631 0.1572 0.39006 0.0
C117 C 0.75782 0.15127 0.45743 0.0
O118 O 0.78996 0.14601 0.48942 0.0
N119 N 0.95284 0.15566 0.4687 0.0
C120 C 0.04665 0.16492 0.52482 0.0
C121 C 0.05753 0.17057 0.48503 0.0
C122 C 0.00952 0.16616 0.45736 0.0
C123 C 0.9421 0.15007 0.50712 0.0
C124 C -0.01202 0.15441 0.53546 0.0
H125 H 0.01732 0.17231 0.42754 0.0
H126 H 0.89653 0.14279 0.51621 0.0
H127 H 0.94835 0.20727 0.41076 0.0
H128 H 0.82826 0.25121 0.4849 0.0
H129 H 0.91439 0.05355 0.46296 0.0
H130 H 0.10235 0.17864 0.47537 0.0
H131 H -0.02339 0.15025 0.56569 0.0
C132 C 0.91134 0.87943 0.99187 0.0
C133 C 0.92969 0.85295 0.99624 0.0
N134 N 0.93802 0.84206 0.96057 0.0
N135 N 0.90773 0.88563 0.95352 0.0
C136 C 0.92349 0.86217 0.93493 0.0
H137 H 0.90461 0.89377 1.01541 0.0
Co138 Co 0.89252 0.92194 0.93737 0.0
C139 C 0.97192 0.91751 0.86325 0.0
O140 O 0.02042 0.92954 0.87968 0.0
N141 N 0.87472 0.95872 0.92184 0.0
C142 C 0.87251 0.99838 0.89007 0.0
C143 C 0.90475 0.97431 0.89523 0.0
C144 C 0.82519 0.9745 0.93324 0.0
N145 N 0.82248 0.99848 0.91405 0.0
O146 O 0.80733 0.91225 0.92544 0.0
H147 H 0.94698 0.9688 0.8798 0.0
H148 H 0.79026 0.96837 0.95432 0.0
O149 O 0.92081 0.91367 0.88268 0.0
C150 C 0.78287 0.91404 0.95943 0.0
O151 O 0.81749 0.92329 0.98844 0.0
N152 N 0.97319 0.93141 0.95638 0.0
C153 C 0.0598 0.93035 1.01808 0.0
C154 C 0.06663 0.91275 0.9862 0.0
C155 C 0.02273 0.91347 0.95578 0.0
C156 C 0.96938 0.95029 0.98555 0.0
C157 C 0.01238 0.95021 1.01659 0.0
H158 H 0.02455 0.89738 0.93437 0.0
H159 H 0.92854 0.96339 0.98769 0.0
H160 H 0.92808 0.86034 0.90355 0.0
H161 H 0.93818 0.84266 1.02375 0.0
H162 H 0.88456 1.0145 0.86993 0.0
H163 H 0.10359 0.89749 0.98574 0.0
H164 H 0.00551 0.96421 0.04062 0.0
C165 C 0.57018 0.2029 0.9972 0.0
C166 C 0.55214 0.22941 1.00183 0.0
N167 N 0.53166 0.23901 0.96717 0.0
N168 N 0.56227 0.19542 0.95958 0.0
C169 C 0.53949 0.21816 0.94171 0.0
H170 H 0.58388 0.18945 1.02069 0.0
Co171 Co 0.57185 0.15864 0.9435 0.0
C172 C 0.48879 0.16531 0.87065 0.0
O173 O 0.43921 0.15488 0.88784 0.0
N174 N 0.5837 0.12139 0.9275 0.0
C175 C 0.57951 0.08227 0.89441 0.0
C176 C 0.55056 0.10695 0.90078 0.0
C177 C 0.63145 0.10422 0.93789 0.0
N178 N 0.63049 0.08059 0.91779 0.0
O179 O 0.6577 0.16612 0.92978 0.0
H180 H 0.50855 0.11373 0.88592 0.0
H181 H 0.66779 0.10904 0.95889 0.0
O182 O 0.54128 0.16758 0.88945 0.0
C183 C 0.68436 0.16257 0.96301 0.0
O184 O 0.65012 0.15398 0.9924 0.0
N185 N 0.49154 0.15097 0.96437 0.0
C186 C 0.40172 0.14887 1.02399 0.0
C187 C 0.39686 0.16825 0.9941 0.0
C188 C 0.44255 0.16918 0.96488 0.0
C189 C 0.49513 0.13126 0.99241 0.0
C190 C 0.4506 0.12971 1.0222 0.0
H191 H 0.4406 0.18581 0.94438 0.0
H192 H 0.53606 0.11819 0.99431 0.0
H193 H 0.52349 0.21869 0.91165 0.0
H194 H 0.5507 0.24031 1.02928 0.0
H195 H 0.56477 0.06689 0.8737 0.0
H196 H 0.35919 0.18319 0.99391 0.0
H197 H 0.45674 0.1146 0.04492 0.0
C198 C 0.37879 0.20365 0.57796 0.0
C199 C 0.39785 0.2299 0.5725 0.0
N200 N 0.4242 0.23899 0.60589 0.0
N201 N 0.39195 0.19585 0.61488 0.0
C202 C 0.41929 0.21804 0.63147 0.0
H203 H 0.35935 0.19066 0.55554 0.0
Co204 Co 0.37926 0.15948 0.63113 0.0
C205 C 0.46168 0.15909 0.70321 0.0
O206 O 0.50161 0.14228 0.68669 0.0
N207 N 0.36471 0.12218 0.64722 0.0
C208 C 0.37682 0.0779 0.65972 0.0
C209 C 0.40736 0.10198 0.65226 0.0
C210 C 0.30839 0.10945 0.65258 0.0
N211 N 0.31397 0.08242 0.65965 0.0
O212 O 0.29543 0.16929 0.64617 0.0
H213 H 0.45775 0.10397 0.64864 0.0
H214 H 0.26366 0.11964 0.65033 0.0
O215 O 0.41312 0.16755 0.68412 0.0
C216 C 0.26721 0.16537 0.61353 0.0
O217 O 0.29793 0.15324 0.58517 0.0
N218 N 0.45716 0.15047 0.60876 0.0
C219 C 0.54462 0.14962 0.54802 0.0
C220 C 0.55492 0.16576 0.58131 0.0
C221 C 0.51035 0.16605 0.61134 0.0
C222 C 0.44806 0.13386 0.57729 0.0
C223 C 0.49154 0.13282 0.54692 0.0
H224 H 0.51608 0.18046 0.63487 0.0
H225 H 0.40402 0.12304 0.57394 0.0
H226 H 0.43915 0.21823 0.66067 0.0
H227 H 0.3948 0.24111 0.54533 0.0
H228 H 0.39989 0.05845 0.66338 0.0
H229 H 0.59584 0.17885 0.58346 0.0
H230 H 0.48146 0.12031 0.52162 0.0
C231 C 0.12215 0.87555 0.58424 0.0
C232 C 0.11113 0.84852 0.57792 0.0
N233 N 0.06342 0.84046 0.60113 0.0
N234 N 0.0827 0.88489 0.61194 0.0
C235 C 0.04761 0.8629 0.62201 0.0
H236 H 0.15518 0.88787 0.56815 0.0
Co237 Co 0.07862 0.92212 0.62433 0.0
C238 C 0.00331 0.92533 0.69685 0.0
O239 O 0.96976 0.94482 0.68061 0.0
N240 N 0.07634 0.96065 0.63647 0.0
C241 C 0.06411 1.00552 0.62991 0.0
C242 C 0.03912 0.98041 0.62124 0.0
C243 C 0.12193 0.97475 0.65589 0.0
N244 N 0.11732 1.002 0.65107 0.0
O245 O 0.16522 0.92025 0.64096 0.0
H246 H -0.00166 0.97715 0.60281 0.0
H247 H 0.16041 0.96514 0.67149 0.0
O248 O 0.04756 0.91384 0.67737 0.0
C249 C 0.19491 0.93097 0.61242 0.0
O250 O 0.16226 0.94149 0.58339 0.0
N251 N -0.00104 0.9232 0.60072 0.0
C252 C 0.90774 0.91325 0.54325 0.0
C253 C 0.89766 0.90547 0.58238 0.0
C254 C 0.94443 0.91024 0.61068 0.0
C255 C 0.00842 0.93142 0.56315 0.0
C256 C 0.96361 0.92685 0.53414 0.0
H257 H 0.9383 0.9018 0.6395 0.0
H258 H 0.05299 0.94032 0.55505 0.0
H259 H 0.00904 0.86366 0.64259 0.0
H260 H 0.13542 0.83602 0.55673 0.0
H261 H 0.0469 1.02472 0.61866 0.0
H262 H 0.85491 0.89505 0.59091 0.0
H263 H 0.97432 0.9328 0.50445 0.0
C264 C 0.59534 0.69545 0.07886 0.0
C265 C 0.58388 0.72274 0.07518 0.0
N266 N 0.54592 0.73068 0.10453 0.0
N267 N 0.56534 0.68578 0.11058 0.0
C268 C 0.53636 0.70796 0.12615 0.0
H269 H 0.6212 0.68318 0.0582 0.0
Co270 Co 0.56138 0.64796 0.12 0.0
C271 C 0.49836 0.64136 0.19543 0.0
O272 O 0.46104 0.62385 0.17796 0.0
N273 N 0.55988 0.60891 0.12898 0.0
C274 C 0.54981 0.56415 0.11993 0.0
C275 C 0.52262 0.58927 0.11368 0.0
C276 C 0.60762 0.59464 0.14619 0.0
N277 N 0.6044 0.56754 0.13969 0.0
O278 O 0.65049 0.64803 0.12954 0.0
H279 H 0.47996 0.59259 0.09701 0.0
H280 H 0.64641 0.60416 0.16146 0.0
O281 O 0.54116 0.65371 0.17586 0.0
C282 C 0.67146 0.63831 0.09745 0.0
O283 O 0.63103 0.63087 0.0703 0.0
N284 N 0.4772 0.64883 0.10306 0.0
C285 C 0.37324 0.66167 0.05547 0.0
C286 C 0.37699 0.67098 0.09441 0.0
C287 C 0.42908 0.66417 0.1178 0.0
C288 C 0.47471 0.64008 0.06531 0.0
C289 C 0.42273 0.64542 0.04157 0.0
H290 H 0.43237 0.67291 0.14662 0.0
H291 H 0.51454 0.62944 0.05293 0.0
H292 H 0.50547 0.70723 0.1512 0.0
H293 H 0.59982 0.73551 0.05146 0.0
H294 H 0.53264 0.54514 0.10819 0.0
H295 H 0.34145 0.6843 0.10657 0.0
H296 H 0.42237 0.63704 1.01237 0.0
C297 C 0.90914 0.37097 0.07247 0.0
C298 C 0.92313 0.34389 0.0695 0.0
N299 N 0.92797 0.33345 0.10575 0.0
N300 N 0.90465 0.37795 0.11049 0.0
C301 C 0.91685 0.35456 0.13027 0.0
H302 H 0.90384 0.38494 0.04828 0.0
Co303 Co 0.88452 0.41393 0.12605 0.0
C304 C 0.96611 0.41232 0.19972 0.0
O305 O 0.01285 0.42503 0.18267 0.0
N306 N 0.86197 0.45014 0.14163 0.0
C307 C 0.86244 0.49178 0.16746 0.0
C308 C 0.89679 0.46829 0.16196 0.0
C309 C 0.80666 0.46347 0.13487 0.0
N310 N 0.80538 0.48874 0.1505 0.0
O311 O 0.801 0.40199 0.13839 0.0
H312 H 0.94462 0.4651 0.17181 0.0
H313 H 0.76829 0.45518 0.11792 0.0
O314 O 0.91541 0.40687 0.18045 0.0
C315 C 0.77689 0.40245 0.10403 0.0
O316 O 0.81063 0.41228 0.07519 0.0
N317 N 0.96295 0.42569 0.1062 0.0
C318 C 0.05074 0.43071 0.04592 0.0
C319 C 0.06 0.4117 0.07594 0.0
C320 C 0.01549 0.40942 0.10575 0.0
C321 C 0.95553 0.44536 0.07832 0.0
C322 C -0.00078 0.44845 0.04829 0.0
H323 H 0.02015 0.39272 0.12609 0.0
H324 H 0.91221 0.45693 0.07651 0.0
H325 H 0.9174 0.353 0.16181 0.0
H326 H 0.93091 0.33282 0.0426 0.0
H327 H 0.87838 0.50962 0.18308 0.0
H328 H 0.09984 0.39784 0.07546 0.0
H329 H -0.00985 0.46329 1.02554 0.0
C330 C 0.05625 0.37093 0.49224 0.0
C331 C 0.04096 0.34385 0.49249 0.0
N332 N 0.02719 0.33638 0.45568 0.0
N333 N 0.05298 0.38053 0.4553 0.0
C334 C 0.03457 0.35889 0.43362 0.0
H335 H 0.06681 0.38307 0.51775 0.0
Co336 Co 0.06928 0.41697 0.44133 0.0
C337 C -0.01429 0.41513 0.3682 0.0
O338 O 0.93825 0.42733 0.38545 0.0
N339 N 0.08797 0.45363 0.42714 0.0
C340 C 0.08764 0.49496 0.40034 0.0
C341 C 0.05406 0.47126 0.40516 0.0
C342 C 0.14136 0.46757 0.43597 0.0
N343 N 0.14292 0.49257 0.41966 0.0
O344 O 0.15326 0.40648 0.42708 0.0
H345 H 0.00772 0.46747 0.39332 0.0
H346 H 0.17906 0.45954 0.45375 0.0
O347 O 0.03716 0.41045 0.38716 0.0
C348 C 0.17962 0.40659 0.46078 0.0
O349 O 0.147 0.41528 0.49089 0.0
N350 N -0.00922 0.42717 0.46263 0.0
C351 C 0.90334 0.43021 0.52343 0.0
C352 C 0.8947 0.41188 0.49248 0.0
C353 C 0.93914 0.41052 0.46251 0.0
C354 C -0.00234 0.44616 0.49147 0.0
C355 C 0.95422 0.44823 0.52183 0.0
H356 H 0.93478 0.39439 0.44127 0.0
H357 H 0.04041 0.45799 0.4936 0.0
H358 H 0.02502 0.35968 0.40256 0.0
H359 H 0.03685 0.33097 0.518 0.0
H360 H 0.0721 0.51266 0.38415 0.0
H361 H 0.85534 0.39786 0.49223 0.0
H362 H 0.96298 0.46253 0.54528 0.0
C363 C 0.32236 0.70817 0.44535 0.0
C364 C 0.33839 0.73513 0.44204 0.0
N365 N 0.3948 0.73663 0.42429 0.0
N366 N 0.36814 0.69266 0.42938 0.0
C367 C 0.41159 0.7107 0.41667 0.0
H368 H 0.28164 0.70048 0.46059 0.0
Co369 Co 0.37302 0.65463 0.43102 0.0
C370 C 0.44867 0.63978 0.36071 0.0
O371 O 0.47862 0.62082 0.38054 0.0
N372 N 0.3768 0.61558 0.43298 0.0
C373 C 0.38868 0.57327 0.45529 0.0
C374 C 0.41171 0.5994 0.45666 0.0
C375 C 0.33451 0.59826 0.41649 0.0
N376 N 0.33903 0.57265 0.43054 0.0
O377 O 0.28793 0.6527 0.4117 0.0
H378 H 0.4494 0.60612 0.47564 0.0
H379 H 0.29746 0.60474 0.39677 0.0
O380 O 0.40696 0.65449 0.37757 0.0
C381 C 0.2567 0.64757 0.44265 0.0
O382 O 0.2872 0.64512 0.47594 0.0
N383 N 0.45139 0.65777 0.45617 0.0
C384 C 0.54701 0.66944 0.50994 0.0
C385 C 0.55954 0.66891 0.46955 0.0
C386 C 0.51078 0.6632 0.44295 0.0
C387 C 0.43879 0.65858 0.4952 0.0
C388 C 0.48571 0.66409 0.52252 0.0
H389 H 0.52061 0.66448 0.41216 0.0
H390 H 0.39127 0.6553 0.50533 0.0
H391 H 0.456 0.70503 0.40348 0.0
H392 H 0.31295 0.75216 0.45444 0.0
H393 H 0.40555 0.5564 0.47276 0.0
H394 H 0.60648 0.67298 0.45859 0.0
H395 H 0.47363 0.66471 0.55323 0.0
C396 C 0.32964 0.37245 0.96939 0.0
C397 C 0.34166 0.34523 0.97323 0.0
N398 N 0.39389 0.33904 0.95266 0.0
N399 N 0.37313 0.38376 0.94589 0.0
C400 C 0.41158 0.36276 0.93579 0.0
H401 H 0.29346 0.3835 0.98485 0.0
Co402 Co 0.37892 0.42165 0.9391 0.0
C403 C 0.45066 0.42978 0.86593 0.0
O404 O 0.48395 0.44848 0.88397 0.0
N405 N 0.38305 0.4605 0.93266 0.0
C406 C 0.38729 0.50455 0.94776 0.0
C407 C 0.4127 0.47921 0.95502 0.0
C408 C 0.34182 0.47542 0.91091 0.0
N409 N 0.34138 0.50209 0.9206 0.0
O410 O 0.2912 0.42242 0.92357 0.0
H411 H 0.44683 0.47479 0.97767 0.0
H412 H 0.30886 0.46646 0.89047 0.0
O413 O 0.40778 0.41679 0.88451 0.0
C414 C 0.26331 0.43258 0.95331 0.0
O415 O 0.29754 0.44016 0.98344 0.0
N416 N 0.45946 0.42014 0.96174 0.0
C417 C 0.55506 0.40861 1.01599 0.0
C418 C 0.56512 0.40506 0.97557 0.0
C419 C 0.51616 0.41047 0.94884 0.0
C420 C 0.44944 0.42366 1.00073 0.0
C421 C 0.4962 0.41819 1.02818 0.0
H422 H 0.52308 0.40531 0.91853 0.0
H423 H 0.40341 0.42976 1.01091 0.0
H424 H 0.45392 0.36508 0.91858 0.0
H425 H 0.31533 0.3313 0.99137 0.0
H426 H 0.39789 0.52284 0.96403 0.0
H427 H 0.60989 0.39764 0.96467 0.0
H428 H 0.4852 0.42056 0.05886 0.0
C429 C 0.0126 0.69102 0.98557 0.0
C430 C -0.00042 0.71801 0.99112 0.0
N431 N 0.00477 0.73083 0.95657 0.0
N432 N 0.02637 0.68659 0.94761 0.0
C433 C 0.02097 0.71137 0.93047 0.0
H434 H 0.01213 0.6755 1.00792 0.0
Co435 Co 0.05138 0.65193 0.92892 0.0
C436 C -0.01536 0.65699 0.85103 0.0
O437 O 0.93894 0.64121 0.86308 0.0
N438 N 0.07923 0.61695 0.91022 0.0
C439 C 0.08396 0.57599 0.88234 0.0
C440 C 0.04708 0.59865 0.88852 0.0
C441 C 0.13585 0.60456 0.9168 0.0
N442 N 0.1401 0.57964 0.90022 0.0
O443 O 0.13637 0.6651 0.92669 0.0
H444 H -0.00104 0.60089 0.87874 0.0
H445 H 0.17307 0.61322 0.93439 0.0
O446 O 0.03135 0.66267 0.87377 0.0
C447 C 0.14876 0.66094 0.96298 0.0
O448 O 0.10781 0.64715 0.98388 0.0
N449 N 0.97003 0.63869 0.94027 0.0
C450 C 0.87727 0.63396 0.99727 0.0
C451 C 0.87088 0.65308 0.96715 0.0
C452 C 0.91784 0.65518 0.93888 0.0
C453 C 0.97316 0.61812 0.96704 0.0
C454 C 0.92706 0.6153 0.99568 0.0
H455 H 0.91624 0.67243 0.91932 0.0
H456 H 0.01559 0.60605 0.97 0.0
H457 H 0.03037 0.71522 0.89991 0.0
H458 H -0.01267 0.7276 1.01855 0.0
H459 H 0.06991 0.55814 0.86608 0.0
H460 H 0.83222 0.66755 0.96695 0.0
H461 H 0.93364 0.60024 1.01843 0.0
C462 C 0.89344 0.70257 0.55741 0.0
C463 C 0.91423 0.72858 0.55202 0.0
N464 N 0.93428 0.73848 0.5866 0.0
N465 N 0.89915 0.69573 0.59541 0.0
C466 C 0.92372 0.71825 0.61272 0.0
H467 H 0.87789 0.68905 0.53447 0.0
Co468 Co 0.881 0.65997 0.61273 0.0
C469 C 0.96662 0.66127 0.68428 0.0
O470 O 0.01039 0.64659 0.66732 0.0
N471 N 0.8607 0.62374 0.62999 0.0
C472 C 0.86655 0.58102 0.65188 0.0
C473 C 0.90002 0.60437 0.64412 0.0
C474 C 0.80345 0.61128 0.62944 0.0
N475 N 0.80549 0.58534 0.64256 0.0
O476 O 0.79878 0.67224 0.62754 0.0
H477 H 0.95046 0.60644 0.64719 0.0
H478 H 0.76061 0.62084 0.61946 0.0
O479 O 0.91599 0.66774 0.66559 0.0
C480 C 0.7711 0.67005 0.5944 0.0
O481 O 0.80095 0.65789 0.5657 0.0
N482 N 0.95768 0.64818 0.59091 0.0
C483 C 0.04293 0.64368 0.52941 0.0
C484 C 0.05404 0.66191 0.56013 0.0
C485 C 0.01076 0.66394 0.59057 0.0
C486 C 0.94834 0.62923 0.56226 0.0
C487 C -0.00904 0.62633 0.53155 0.0
H488 H 0.01706 0.67999 0.61173 0.0
H489 H 0.90446 0.6181 0.5608 0.0
H490 H 0.93734 0.71918 0.64321 0.0
H491 H 0.91623 0.73909 0.52427 0.0
H492 H 0.88633 0.56203 0.66222 0.0
H493 H 0.09437 0.67541 0.5597 0.0
H494 H -0.01917 0.61207 0.50825 0.0
C495 C 0.61945 0.37344 0.59477 0.0
C496 C 0.60774 0.34622 0.59135 0.0
N497 N 0.55895 0.33977 0.61466 0.0
N498 N 0.57923 0.38457 0.62071 0.0
C499 C 0.5431 0.36336 0.63274 0.0
H500 H 0.65315 0.38456 0.57752 0.0
Co501 Co 0.57454 0.42256 0.6281 0.0
C502 C 0.49803 0.42949 0.70007 0.0
O503 O 0.46232 0.44712 0.68143 0.0
N504 N 0.57141 0.46181 0.63491 0.0
C505 C 0.55199 0.50591 0.6245 0.0
C506 C 0.52893 0.4799 0.62061 0.0
C507 C 0.61854 0.47792 0.64896 0.0
N508 N 0.60928 0.50467 0.64168 0.0
O509 O 0.6611 0.42213 0.64518 0.0
H510 H 0.4848 0.47479 0.60651 0.0
H511 H 0.66135 0.47016 0.66209 0.0
O512 O 0.54351 0.41765 0.68216 0.0
C513 C 0.69025 0.43014 0.61464 0.0
O514 O 0.65717 0.43743 0.58383 0.0
N515 N 0.49488 0.422 0.60415 0.0
C516 C 0.4011 0.41216 0.54815 0.0
C517 C 0.39177 0.40527 0.58771 0.0
C518 C 0.43979 0.40995 0.61526 0.0
C519 C 0.504 0.42902 0.56605 0.0
C520 C 0.45803 0.42444 0.53776 0.0
H521 H 0.43366 0.40256 0.64467 0.0
H522 H 0.54867 0.43737 0.55708 0.0
H523 H 0.50353 0.36541 0.65238 0.0
H524 H 0.63175 0.33246 0.57168 0.0
H525 H 0.5291 0.52418 0.61391 0.0
H526 H 0.34833 0.39584 0.59723 0.0
H527 H 0.4683 0.42962 0.50771 0.0
C528 C 0.33186 0.17284 0.07251 0.0
C529 C 0.35564 0.14849 0.05655 0.0
H530 H 0.25831 0.1914 0.10639 0.0
C531 C 0.33124 0.12366 0.06973 0.0
H532 H 0.35075 0.19229 0.06358 0.0
C533 C 0.27967 0.12327 0.09481 0.0
C534 C 0.25184 0.1476 0.1075 0.0
H535 H 0.34812 0.10456 0.05798 0.0
H536 H 0.25697 0.10399 0.10051 0.0
C537 C 0.28014 0.17238 0.09786 0.0
C538 C 0.11946 0.90169 0.06656 0.0
C539 C 0.10164 0.92757 0.05271 0.0
H540 H 0.18757 0.87875 0.09948 0.0
C541 C 0.12897 0.95066 0.06972 0.0
H542 H 0.09782 0.88353 0.05473 0.0
C543 C 0.17907 0.94782 0.09598 0.0
C544 C 0.20232 0.92194 0.10581 0.0
H545 H 0.11621 0.97085 0.0598 0.0
H546 H 0.20517 0.96584 0.10416 0.0
C547 C 0.16954 0.8989 0.09306 0.0
C548 C 0.7741 0.87937 0.48803 0.0
C549 C 0.75716 0.89977 0.46129 0.0
H550 H 0.83521 0.86751 0.53496 0.0
C551 C 0.79751 0.922 0.45627 0.0
H552 H 0.74314 0.86217 0.49272 0.0
C553 C 0.84855 0.92582 0.48174 0.0
C554 C 0.86081 0.90705 0.51199 0.0
H555 H 0.78527 0.93811 0.43604 0.0
H556 H 0.87493 0.94457 0.47964 0.0
C557 C 0.82558 0.88292 0.51312 0.0
C558 C 0.65962 0.12732 0.47013 0.0
C559 C 0.68927 0.15202 0.46127 0.0
H560 H 0.59117 0.1071 0.50549 0.0
C561 C 0.66266 0.17633 0.4749 0.0
H562 H 0.68035 0.10827 0.46069 0.0
C563 C 0.61281 0.17569 0.50151 0.0
C564 C 0.58841 0.15071 0.51434 0.0
H565 H 0.6854 0.19558 0.46898 0.0
H566 H 0.59614 0.19463 0.51393 0.0
C567 C 0.60943 0.12665 0.49647 0.0
C568 C 0.67356 0.92959 0.96649 0.0
C569 C 0.71698 0.90813 0.96833 0.0
H570 H 0.59225 0.94815 0.9917 0.0
C571 C 0.70503 0.88612 0.99328 0.0
H572 H 0.68302 0.94721 0.94847 0.0
C573 C 0.65316 0.88659 1.0184 0.0
C574 C 0.61274 0.90928 1.01928 0.0
H575 H 0.73909 0.86973 0.99597 0.0
H576 H 0.64652 0.86977 0.03835 0.0
C577 C 0.62204 0.93024 0.99182 0.0
C578 C 0.78807 0.14092 0.9688 0.0
C579 C 0.75218 0.16486 0.9704 0.0
H580 H 0.86014 0.11686 0.99566 0.0
C581 C 0.77163 0.18581 0.99546 0.0
H582 H 0.77337 0.12425 0.95024 0.0
C583 C 0.82164 0.18173 1.02164 0.0
C584 C 0.85261 0.15642 1.02357 0.0
H585 H 0.7438 0.20426 0.9978 0.0
H586 H 0.83357 0.19789 0.0418 0.0
C587 C 0.83743 0.13659 0.99538 0.0
C588 C 0.10372 0.15065 0.58607 0.0
C589 C 0.09612 0.16932 0.55516 0.0
H590 H 0.16364 0.13614 0.63198 0.0
C591 C 0.13818 0.19127 0.55254 0.0
H592 H 0.07245 0.13342 0.58909 0.0
C593 C 0.19051 0.19274 0.57747 0.0
C594 C 0.20141 0.17244 0.60553 0.0
H595 H 0.13272 0.20646 0.52988 0.0
H596 H 0.22597 0.20812 0.57204 0.0
C597 C 0.15572 0.15234 0.61117 0.0
C598 C 0.29447 0.95255 0.59521 0.0
C599 C 0.26304 0.92882 0.60671 0.0
H600 H 0.36558 0.9699 0.55904 0.0
C601 C 0.28844 0.90347 0.59658 0.0
H602 H 0.27464 0.97232 0.60183 0.0
C603 C 0.33975 0.90199 0.57102 0.0
C604 C 0.36655 0.92588 0.5558 0.0
H605 H 0.26425 0.88492 0.60455 0.0
H606 H 0.35589 0.88222 0.56131 0.0
C607 C 0.34591 0.95112 0.57006 0.0
C608 C 0.76038 0.61155 0.07356 0.0
C609 C 0.73813 0.63667 0.08731 0.0
H610 H 0.82137 0.59099 0.03356 0.0
C611 C 0.76894 0.66056 0.07623 0.0
H612 H 0.73591 0.59294 0.08095 0.0
C613 C 0.81677 0.65955 0.04825 0.0
C614 C 0.83438 0.63461 1.03128 0.0
H615 H 0.7514 0.68017 0.08575 0.0
H616 H 0.83748 0.67842 0.0383 0.0
C617 C 0.8084 0.61049 0.04586 0.0
C618 C 0.7005 0.37796 0.06384 0.0
C619 C 0.71107 0.39612 0.0948 0.0
H620 H 0.6427 0.36741 1.01478 0.0
C621 C 0.6646 0.41536 0.10381 0.0
H622 H 0.73637 0.36318 0.05604 0.0
C623 C 0.61233 0.41872 0.07912 0.0
C624 C 0.60512 0.40244 0.04546 0.0
H625 H 0.67214 0.42981 0.1272 0.0
H626 H 0.5804 0.43545 0.08488 0.0
C627 C 0.64788 0.38097 0.03949 0.0
C628 C 0.2893 0.42249 0.46223 0.0
C629 C 0.24656 0.40121 0.46797 0.0
H630 H 0.37 0.44347 0.48426 0.0
C631 C 0.26102 0.38099 0.49554 0.0
H632 H 0.27863 0.43859 0.44163 0.0
C633 C 0.31345 0.38365 0.52014 0.0
C634 C 0.35206 0.40677 0.51779 0.0
H635 H 0.22798 0.36464 0.50094 0.0
H636 H 0.3215 0.36839 0.54242 0.0
C637 C 0.34133 0.42541 0.48716 0.0
C638 C 0.16432 0.62006 0.45694 0.0
C639 C 0.18816 0.64514 0.44419 0.0
H640 H 0.09918 0.59995 0.4949 0.0
C641 C 0.15398 0.66892 0.45196 0.0
H642 H 0.19069 0.6015 0.45175 0.0
C643 C 0.1029 0.66817 0.47759 0.0
C644 C 0.08489 0.64352 0.495 0.0
H645 H 0.17184 0.68849 0.44274 0.0
H646 H 0.08081 0.68711 0.48624 0.0
C647 C 0.11276 0.61923 0.48224 0.0
C648 C 0.16821 0.45708 0.97268 0.0
C649 C 0.19491 0.43275 0.95895 0.0
H650 H 0.1021 0.47551 1.0117 0.0
C651 C 0.16528 0.40808 0.96767 0.0
H652 H 0.19119 0.47632 0.96699 0.0
C653 C 0.11545 0.40748 0.99438 0.0
C654 C 0.09406 0.43163 1.01202 0.0
H655 H 0.18542 0.38904 0.9578 0.0
H656 H 0.09641 0.38801 1.00312 0.0
C657 C 0.11801 0.45656 0.99894 0.0
C658 C 0.26656 0.66741 0.96537 0.0
C659 C 0.20729 0.66896 0.98312 0.0
H660 H 0.36644 0.66526 0.97415 0.0
C661 C 0.20383 0.67286 1.02372 0.0
H662 H 0.2704 0.66452 0.93409 0.0
C663 C 0.25778 0.67181 0.04688 0.0
C664 C 0.31732 0.6677 1.02998 0.0
H665 H 0.15849 0.67454 0.03815 0.0
H666 H 0.2515 0.67233 0.0782 0.0
C667 C 0.32135 0.66714 0.98864 0.0
C668 C 0.64336 0.69484 0.53165 0.0
C669 C 0.5977 0.67489 0.53894 0.0
H670 H 0.73485 0.71007 0.54651 0.0
C671 C 0.60326 0.65888 0.57293 0.0
H672 H 0.63948 0.70796 0.50633 0.0
C673 C 0.65715 0.66067 0.59657 0.0
C674 C 0.70607 0.67838 0.5864 0.0
H675 H 0.56866 0.64339 0.57946 0.0
H676 H 0.66352 0.64608 0.61996 0.0
C677 C 0.69707 0.69657 0.55527 0.0
C678 C 0.83695 0.45473 0.57266 0.0
C679 C 0.85998 0.43016 0.55738 0.0
H680 H 0.76448 0.4738 0.60639 0.0
C681 C 0.8375 0.40553 0.57284 0.0
H682 H 0.85362 0.47404 0.56165 0.0
C683 C 0.78735 0.40547 0.59927 0.0
C684 C 0.75876 0.43001 0.61017 0.0
H685 H 0.85581 0.38626 0.5625 0.0
H686 H 0.76602 0.38625 0.60712 0.0
C687 C 0.78667 0.45462 0.59891 0.0
C688 C 0.24847 0.0591 0.16277 0.0
C689 C 0.18515 0.05044 0.16512 0.0
H690 H 0.34582 0.04791 0.15791 0.0
C691 C 0.17395 1.0224 0.16918 0.0
H692 H 0.26006 0.08038 0.16065 0.0
C693 C 0.22383 1.00359 0.16804 0.0
C694 C 0.28661 1.01215 0.16218 0.0
H695 H 0.12637 1.01478 0.17231 0.0
H696 H 0.21227 0.98229 0.17006 0.0
C697 C 0.29825 0.04028 0.16109 0.0
C698 C 0.69334 1.03418 0.39947 0.0
C699 C 0.69337 1.01166 0.42487 0.0
H700 H 0.73884 0.07096 0.38187 0.0
C701 C 0.74269 1.00941 0.45246 0.0
H702 H 0.65711 0.03647 0.37732 0.0
C703 C 0.78993 1.02921 0.4549 0.0
C704 C 0.78929 0.05193 0.42993 0.0
H705 H 0.74435 0.99267 0.4729 0.0
H706 H 0.8259 1.02704 0.47724 0.0
C707 C 0.74055 0.05401 0.40198 0.0
C708 C 0.69993 0.0491 0.88164 0.0
C709 C 0.67832 0.05958 0.91737 0.0
H710 H 0.76356 1.02175 0.85273 0.0
C711 C 0.70458 0.04941 0.95229 0.0
H712 H 0.68091 0.05671 0.85432 0.0
C713 C 0.75088 1.02885 0.95138 0.0
C714 C 0.7732 1.0188 0.91552 0.0
H715 H 0.68864 0.05714 0.98018 0.0
H716 H 0.77027 1.02119 0.97858 0.0
C717 C 0.74737 1.02923 0.88072 0.0
C718 C 0.22965 1.01468 0.66317 0.0
C719 C 0.16588 1.02227 0.65837 0.0
H720 H 0.3257 1.0271 0.66732 0.0
C721 C 0.15147 0.0502 0.65751 0.0
H722 H 0.24334 0.99352 0.66414 0.0
C723 C 0.19939 0.06982 0.65934 0.0
C724 C 0.26366 0.06224 0.66188 0.0
H725 H 0.10301 0.057 0.65474 0.0
H726 H 0.18541 0.09089 0.65799 0.0
C727 C 0.27759 1.03426 0.6648 0.0
C728 C 0.6911 0.50027 0.14404 0.0
C729 C 0.75427 0.50848 0.14911 0.0
H730 H 0.59415 0.51221 0.13825 0.0
C731 C 0.7666 0.53644 0.15287 0.0
H732 H 0.6794 0.47896 0.14178 0.0
C733 C 0.7176 0.55561 0.15096 0.0
C734 C 0.65439 0.54751 0.14517 0.0
H735 H 0.81449 0.54369 0.15636 0.0
H736 H 0.73006 0.57684 0.15288 0.0
C737 C 0.64194 0.51946 0.14218 0.0
C738 C 0.25002 0.55107 0.39452 0.0
C739 C 0.29246 0.55124 0.42632 0.0
H740 H 0.16985 0.53241 0.36731 0.0
C741 C 0.28552 0.53118 0.45535 0.0
H742 H 0.25415 0.56582 0.37125 0.0
C743 C 0.23701 0.51194 0.45304 0.0
C744 C 0.19376 0.51219 0.42171 0.0
H745 H 0.31626 0.53073 0.48066 0.0
H746 H 0.23254 0.49732 0.47646 0.0
C747 C 0.20132 0.53189 0.3923 0.0
C748 C 0.30293 0.54992 0.91735 0.0
C749 C 0.29234 0.52194 0.91188 0.0
H750 H 0.26389 0.59013 0.91742 0.0
C751 C 0.23123 0.51358 0.90083 0.0
H752 H 0.34935 0.55724 0.92541 0.0
C753 C 0.18198 0.53243 0.89655 0.0
C754 C 0.19206 0.56034 0.90298 0.0
H755 H 0.22037 0.4923 0.8969 0.0
H756 H 0.13549 0.52484 0.88936 0.0
C757 C 0.2536 0.56884 0.91293 0.0
C758 C 0.70019 0.5689 0.62027 0.0
C759 C 0.75406 0.56589 0.64419 0.0
H760 H 0.61278 0.55213 0.60045 0.0
C761 C 0.75733 0.54311 0.66903 0.0
H762 H 0.69587 0.58589 0.6004 0.0
C763 C 0.70909 0.52361 0.66922 0.0
C764 C 0.65605 0.52619 0.64446 0.0
H765 H 0.7973 0.54026 0.68843 0.0
H766 H 0.71378 0.5064 0.68868 0.0
C767 C 0.65204 0.54938 0.62039 0.0
C768 C -0.01134 0.29915 0.14414 0.0
C769 C 0.94487 0.30563 0.11445 0.0
H770 H 0.0515 0.26862 0.16782 0.0
C771 C 0.9239 0.2848 0.08951 0.0
H772 H 0.00591 0.31484 0.16359 0.0
C773 C 0.94972 0.25875 0.09193 0.0
C774 C -0.00308 0.25274 0.11949 0.0
H775 H 0.88957 0.28906 0.06676 0.0
H776 H 0.93529 0.24354 0.07085 0.0
C777 C 0.01466 0.27281 0.14659 0.0
C778 C 0.46594 0.79419 0.14285 0.0
C779 C 0.44776 0.80699 0.10772 0.0
H780 H 0.51076 0.75928 0.16948 0.0
C781 C 0.46306 0.79435 0.07221 0.0
H782 H 0.4545 0.80344 0.17064 0.0
C783 C 0.49505 0.76958 0.07153 0.0
C784 C 0.51275 0.75642 0.10637 0.0
H785 H 0.45042 0.80374 0.04465 0.0
H786 H 0.50497 0.76047 0.04344 0.0
C787 C 0.49759 0.76891 0.14218 0.0
C788 C 0.53163 0.78267 0.44305 0.0
C789 C 0.50543 0.8081 0.43375 0.0
H790 H 0.51696 0.73963 0.44629 0.0
C791 C 0.4447 0.80935 0.41719 0.0
H792 H 0.57824 0.78136 0.45611 0.0
C793 C 0.40916 0.78563 0.41241 0.0
C794 C 0.43446 0.76028 0.42314 0.0
H795 H 0.42337 0.82882 0.41036 0.0
H796 H 0.36111 0.78711 0.40161 0.0
C797 C 0.49677 0.7589 0.4373 0.0
C798 C 0.93901 0.31027 0.42772 0.0
C799 C -0.00056 0.31091 0.44472 0.0
H800 H 0.85786 0.28575 0.41422 0.0
C801 C 0.0282 0.28646 0.45635 0.0
H802 H 0.91574 0.32899 0.4192 0.0
C803 C -0.00402 0.26183 0.45254 0.0
C804 C 0.9339 0.26144 0.43806 0.0
H805 H 0.07451 0.28666 0.46993 0.0
H806 H 0.01769 0.24334 0.46341 0.0
C807 C 0.90605 0.28572 0.42498 0.0
C808 C 0.00959 0.80477 0.97897 0.0
C809 C 0.96342 0.81527 0.95344 0.0
H810 H 0.05933 0.76962 0.99942 0.0
C811 C 0.93814 0.79813 0.92443 0.0
H812 H 0.03095 0.8176 1.00105 0.0
C813 C 0.95514 0.77042 0.92329 0.0
C814 C -0.0025 0.75969 0.95114 0.0
H815 H 0.90245 0.80572 0.90444 0.0
H816 H 0.9322 0.75707 0.90251 0.0
C817 C 0.02614 0.77737 0.97795 0.0
C818 C 0.50022 0.27953 0.92754 0.0
C819 C 0.49614 0.26391 0.96191 0.0
H820 H 0.47124 0.31616 0.89769 0.0
C821 C 0.45733 0.27329 0.99226 0.0
H822 H 0.52981 0.2728 0.9037 0.0
C823 C 0.42435 0.29769 0.98893 0.0
C824 C 0.42859 0.31367 0.95501 0.0
H825 H 0.4521 0.26164 1.01887 0.0
H826 H 0.39625 0.30421 1.01354 0.0
C827 C 0.46713 0.30437 0.92425 0.0
C828 C 0.46047 0.27911 0.64469 0.0
C829 C 0.45941 0.26402 0.60972 0.0
H830 H 0.49254 0.31555 0.67368 0.0
C831 C 0.49204 0.27422 0.57725 0.0
H832 H 0.43558 0.27179 0.67015 0.0
C833 C 0.52398 0.29886 0.57919 0.0
C834 C 0.52492 0.31428 0.61376 0.0
H835 H 0.49315 0.26305 0.55003 0.0
H836 H 0.5472 0.30601 0.55306 0.0
C837 C 0.49255 0.3042 0.6466 0.0
C838 C 0.00349 0.77438 0.56085 0.0
C839 C 0.96801 0.76379 0.59189 0.0
H840 H 0.05927 0.80664 0.53889 0.0
C841 C 0.9652 0.77871 0.62696 0.0
H842 H 0.00795 0.76337 0.53364 0.0
C843 C -0.00379 0.80397 0.63032 0.0
C844 C 0.03118 0.81453 0.59882 0.0
H845 H 0.93817 0.77113 0.6514 0.0
H846 H -0.00687 0.8151 0.65752 0.0
C847 C 0.03411 0.79926 0.56415 0.0
C848 C 0.92597 0.14966 0.26373 0.0
C849 C -0.01188 0.14784 0.24952 0.0
H850 H 0.86576 0.15101 0.31409 0.0
C851 C 0.03843 0.14758 0.27637 0.0
H852 H 0.8863 0.14973 0.2436 0.0
C853 C 0.02654 0.14739 0.3167 0.0
C854 C 0.96424 0.14836 0.33092 0.0
H855 H 0.08668 0.14585 0.26622 0.0
H856 H 0.06605 0.14583 0.33682 0.0
C857 C 0.91419 0.15041 0.30402 0.0
C858 C 0.4192 0.90557 0.26609 0.0
C859 C 0.46915 0.91355 0.24184 0.0
H860 H 0.38726 0.89963 0.32488 0.0
C861 C 0.52857 0.91874 0.25891 0.0
H862 H 0.37286 0.90157 0.25386 0.0
C863 C 0.53726 0.91703 0.2995 0.0
C864 C 0.48622 0.91078 0.32393 0.0
H865 H 0.56805 0.92486 0.24093 0.0
H866 H 0.58293 0.92209 0.31187 0.0
C867 C 0.42745 0.90456 0.30674 0.0
C868 C 0.03227 0.90617 0.80281 0.0
C869 C 0.97461 0.9135 0.82032 0.0
H870 H 0.0862 0.90348 0.74997 0.0
C871 C 0.92416 0.9216 0.79623 0.0
H872 H 0.07211 0.9 0.82075 0.0
C873 C 0.93276 0.92425 0.75575 0.0
C874 C -0.00846 0.9183 0.73847 0.0
H875 H 0.87955 0.92774 0.80891 0.0
H876 H 0.89399 0.93194 0.73815 0.0
C877 C 0.04041 0.90819 0.76228 0.0
C878 C 0.42649 0.17453 0.80962 0.0
C879 C 0.48526 0.16925 0.82763 0.0
H880 H 0.37301 0.17608 0.75619 0.0
C881 C 0.53768 0.16393 0.80383 0.0
H882 H 0.38517 0.17874 0.82719 0.0
C883 C 0.53041 0.16195 0.76315 0.0
C884 C 0.47084 0.16573 0.7453 0.0
H885 H 0.58341 0.15957 0.81675 0.0
H886 H 0.57114 0.15646 0.74578 0.0
C887 C 0.41946 0.17305 0.7689 0.0
C888 C 0.52474 0.63814 0.30458 0.0
C889 C 0.46381 0.64389 0.31879 0.0
H890 H 0.58424 0.63396 0.25409 0.0
C891 C 0.41665 0.65193 0.29216 0.0
H892 H 0.56212 0.63202 0.32445 0.0
C893 C 0.42907 0.65247 0.25196 0.0
C894 C 0.48945 0.64598 0.23772 0.0
H895 H 0.36927 0.65639 0.30219 0.0
H896 H 0.39092 0.65716 0.23182 0.0
C897 C 0.53766 0.63952 0.26443 0.0
C898 C 0.92121 0.40918 0.30692 0.0
C899 C -0.01914 0.40987 0.32543 0.0
H900 H 0.86948 0.40876 0.25275 0.0
C901 C 0.03514 0.40805 0.30216 0.0
H902 H 0.87835 0.41035 0.32401 0.0
C903 C 0.02993 0.40742 0.2613 0.0
C904 C 0.97035 0.40813 0.24272 0.0
H905 H 0.08172 0.40853 0.31537 0.0
H906 H 0.07282 0.40732 0.24415 0.0
C907 C 0.91599 0.40809 0.26606 0.0
C908 C 0.41236 0.4236 0.79695 0.0
C909 C 0.46261 0.42491 0.82379 0.0
H910 H 0.38442 0.42448 0.73652 0.0
C911 C 0.52488 0.42485 0.80949 0.0
H912 H 0.36397 0.42392 0.80712 0.0
C913 C 0.53667 0.42432 0.76916 0.0
C914 C 0.48636 0.42481 0.7423 0.0
H915 H 0.5645 0.42595 0.82958 0.0
H916 H 0.58503 0.42519 0.75902 0.0
C917 C 0.42412 0.42404 0.7566 0.0
C918 C 0.9243 0.66941 0.79092 0.0
C919 C -0.01689 0.66509 0.80936 0.0
H920 H 0.87293 0.67224 0.73692 0.0
C921 C 0.03757 0.66372 0.78629 0.0
H922 H 0.88148 0.67057 0.80807 0.0
C923 C 0.0325 0.66422 0.74539 0.0
C924 C 0.97302 0.66654 0.72688 0.0
H925 H 0.08335 0.66015 0.79965 0.0
H926 H 0.07492 0.66143 0.72825 0.0
C927 C 0.91934 0.67039 0.75014 0.0
loop_
_geom_bond_atom_site_label_1
_geom_bond_atom_site_label_2
_geom_bond_distance
_geom_bond_site_symmetry_2
_ccdc_geom_bond_type
C0 C1 1.351 . S
C0 N3 1.368 . S
C0 H5 0.931 . S
C1 C0 1.351 . S
C1 N2 1.373 . S
C1 H29 0.930 . S
N2 C1 1.373 . S
N2 C4 1.340 . S
N3 C0 1.368 . S
N3 C4 1.321 . S
N3 Co6 2.135 . S
C4 N2 1.340 . S
C4 N3 1.321 . S
C4 H28 0.930 . S
H5 C0 0.931 . S
Co6 N3 2.135 . S
Co6 N9 2.121 . S
Co6 O14 2.055 . S
Co6 O17 2.039 . S
Co6 N20 2.140 . S
C7 O8 1.227 1_455 S
C7 O17 1.265 . S
O8 C7 1.227 1_655 S
N9 Co6 2.121 . S
N9 C11 1.375 . S
N9 C12 1.313 . S
C10 C11 1.338 . S
C10 N13 1.377 . S
C10 H30 0.930 . S
C11 N9 1.375 . S
C11 C10 1.338 . S
C11 H15 0.931 . S
C12 N9 1.313 . S
C12 N13 1.344 . S
C12 H16 0.930 . S
N13 C10 1.377 . S
N13 C12 1.344 . S
O14 Co6 2.055 . S
O14 C18 1.253 . S
H15 C11 0.931 . S
H16 C12 0.930 . S
O17 Co6 2.039 . S
O17 C7 1.265 . S
C18 O14 1.253 . S
C18 O19 1.227 . S
O19 C18 1.227 . S
N20 Co6 2.140 . S
N20 C23 1.346 1_455 S
N20 C24 1.345 . S
C21 C22 1.387 . S
C21 C25 1.391 . S
C22 C21 1.387 . S
C22 C23 1.369 . S
C22 H31 0.929 . S
C23 N20 1.346 1_655 S
C23 C22 1.369 . S
C23 H26 0.928 . S
C24 N20 1.345 . S
C24 C25 1.371 1_455 S
C24 H27 0.931 . S
C25 C21 1.391 . S
C25 C24 1.371 1_655 S
C25 H32 0.930 . S
H26 C23 0.928 . S
H27 C24 0.931 . S
H28 C4 0.930 . S
H29 C1 0.930 . S
H30 C10 0.930 . S
H31 C22 0.929 . S
H32 C25 0.930 . S
C33 C34 1.351 . S
C33 N36 1.368 . S
C33 H38 0.931 . S
C34 C33 1.351 . S
C34 N35 1.373 . S
C34 H62 0.930 . S
N35 C34 1.373 . S
N35 C37 1.340 . S
N36 C33 1.368 . S
N36 C37 1.321 . S
N36 Co39 2.135 . S
C37 N35 1.340 . S
C37 N36 1.321 . S
C37 H61 0.930 . S
H38 C33 0.931 . S
Co39 N36 2.135 . S
Co39 N42 2.121 . S
Co39 O47 2.055 . S
Co39 O50 2.039 . S
Co39 N53 2.140 . S
C40 O41 1.227 . S
C40 O50 1.265 . S
O41 C40 1.227 . S
N42 Co39 2.121 . S
N42 C44 1.375 . S
N42 C45 1.313 . S
C43 C44 1.338 . S
C43 N46 1.377 . S
C43 H63 0.930 . S
C44 N42 1.375 . S
C44 C43 1.338 . S
C44 H48 0.931 . S
C45 N42 1.313 . S
C45 N46 1.344 . S
C45 H49 0.930 . S
N46 C43 1.377 . S
N46 C45 1.344 . S
O47 Co39 2.055 . S
O47 C51 1.253 . S
H48 C44 0.931 . S
H49 C45 0.930 . S
O50 Co39 2.039 . S
O50 C40 1.265 . S
C51 O47 1.253 . S
C51 O52 1.227 . S
O52 C51 1.227 . S
N53 Co39 2.140 . S
N53 C56 1.346 . S
N53 C57 1.345 . S
C54 C55 1.387 . S
C54 C58 1.391 . S
C55 C54 1.387 . S
C55 C56 1.369 . S
C55 H64 0.929 . S
C56 N53 1.346 . S
C56 C55 1.369 . S
C56 H59 0.928 . S
C57 N53 1.345 . S
C57 C58 1.371 . S
C57 H60 0.931 . S
C58 C54 1.391 . S
C58 C57 1.371 . S
C58 H65 0.930 . S
H59 C56 0.928 . S
H60 C57 0.931 . S
H61 C37 0.930 . S
H62 C34 0.930 . S
H63 C43 0.930 . S
H64 C55 0.929 . S
H65 C58 0.930 . S
C66 C67 1.351 . S
C66 N69 1.368 . S
C66 H71 0.931 . S
C67 C66 1.351 . S
C67 N68 1.373 . S
C67 H95 0.930 . S
N68 C67 1.373 . S
N68 C70 1.340 . S
N69 C66 1.368 . S
N69 C70 1.321 . S
N69 Co72 2.135 . S
C70 N68 1.340 . S
C70 N69 1.321 . S
C70 H94 0.930 . S
H71 C66 0.931 . S
Co72 N69 2.135 . S
Co72 N75 2.121 . S
Co72 O80 2.055 . S
Co72 O83 2.039 . S
Co72 N86 2.140 . S
C73 O74 1.227 . S
C73 O83 1.265 . S
O74 C73 1.227 . S
N75 Co72 2.121 . S
N75 C77 1.375 . S
N75 C78 1.313 . S
C76 C77 1.338 . S
C76 N79 1.377 . S
C76 H96 0.930 . S
C77 N75 1.375 . S
C77 C76 1.338 . S
C77 H81 0.931 . S
C78 N75 1.313 . S
C78 N79 1.344 . S
C78 H82 0.930 . S
N79 C76 1.377 . S
N79 C78 1.344 . S
O80 Co72 2.055 . S
O80 C84 1.253 . S
H81 C77 0.931 . S
H82 C78 0.930 . S
O83 Co72 2.039 . S
O83 C73 1.265 . S
C84 O80 1.253 . S
C84 O85 1.227 . S
O85 C84 1.227 . S
N86 Co72 2.140 . S
N86 C89 1.346 . S
N86 C90 1.345 . S
C87 C88 1.387 . S
C87 C91 1.391 . S
C88 C87 1.387 . S
C88 C89 1.369 . S
C88 H97 0.929 . S
C89 N86 1.346 . S
C89 C88 1.369 . S
C89 H92 0.928 . S
C90 N86 1.345 . S
C90 C91 1.371 . S
C90 H93 0.931 . S
C91 C87 1.391 . S
C91 C90 1.371 . S
C91 H98 0.930 . S
H92 C89 0.928 . S
H93 C90 0.931 . S
H94 C70 0.930 . S
H95 C67 0.930 . S
H96 C76 0.930 . S
H97 C88 0.929 . S
H98 C91 0.930 . S
C99 C100 1.351 . S
C99 N102 1.368 . S
C99 H104 0.931 . S
C100 C99 1.351 . S
C100 N101 1.373 . S
C100 H128 0.930 . S
N101 C100 1.373 . S
N101 C103 1.340 . S
N102 C99 1.368 . S
N102 C103 1.321 . S
N102 Co105 2.135 . S
C103 N101 1.340 . S
C103 N102 1.321 . S
C103 H127 0.930 . S
H104 C99 0.931 . S
Co105 N102 2.135 . S
Co105 N108 2.121 . S
Co105 O113 2.055 . S
Co105 O116 2.039 . S
Co105 N119 2.140 . S
C106 O107 1.227 1_655 S
C106 O116 1.265 . S
O107 C106 1.227 1_455 S
N108 Co105 2.121 . S
N108 C110 1.375 . S
N108 C111 1.313 . S
C109 C110 1.338 . S
C109 N112 1.377 . S
C109 H129 0.930 . S
C110 N108 1.375 . S
C110 C109 1.338 . S
C110 H114 0.931 . S
C111 N108 1.313 . S
C111 N112 1.344 . S
C111 H115 0.930 . S
N112 C109 1.377 . S
N112 C111 1.344 . S
O113 Co105 2.055 . S
O113 C117 1.253 . S
H114 C110 0.931 . S
H115 C111 0.930 . S
O116 Co105 2.039 . S
O116 C106 1.265 . S
C117 O113 1.253 . S
C117 O118 1.227 . S
O118 C117 1.227 . S
N119 Co105 2.140 . S
N119 C122 1.346 1_655 S
N119 C123 1.345 . S
C120 C121 1.387 . S
C120 C124 1.391 . S
C121 C120 1.387 . S
C121 C122 1.369 . S
C121 H130 0.929 . S
C122 N119 1.346 1_455 S
C122 C121 1.369 . S
C122 H125 0.928 . S
C123 N119 1.345 . S
C123 C124 1.371 1_655 S
C123 H126 0.931 . S
C124 C120 1.391 . S
C124 C123 1.371 1_455 S
C124 H131 0.930 . S
H125 C122 0.928 . S
H126 C123 0.931 . S
H127 C103 0.930 . S
H128 C100 0.930 . S
H129 C109 0.930 . S
H130 C121 0.929 . S
H131 C124 0.930 . S
C132 C133 1.351 . S
C132 N135 1.368 . S
C132 H137 0.931 . S
C133 C132 1.351 . S
C133 N134 1.373 . S
C133 H161 0.930 . S
N134 C133 1.373 . S
N134 C136 1.340 . S
N135 C132 1.368 . S
N135 C136 1.321 . S
N135 Co138 2.135 . S
C136 N134 1.340 . S
C136 N135 1.321 . S
C136 H160 0.930 . S
H137 C132 0.931 . S
Co138 N135 2.135 . S
Co138 N141 2.121 . S
Co138 O146 2.055 . S
Co138 O149 2.039 . S
Co138 N152 2.140 . S
C139 O140 1.227 1_655 S
C139 O149 1.265 . S
O140 C139 1.227 1_455 S
N141 Co138 2.121 . S
N141 C143 1.375 . S
N141 C144 1.313 . S
C142 C143 1.338 . S
C142 N145 1.377 . S
C142 H162 0.930 . S
C143 N141 1.375 . S
C143 C142 1.338 . S
C143 H147 0.931 . S
C144 N141 1.313 . S
C144 N145 1.344 . S
C144 H148 0.930 . S
N145 C142 1.377 . S
N145 C144 1.344 . S
O146 Co138 2.055 . S
O146 C150 1.253 . S
H147 C143 0.931 . S
H148 C144 0.930 . S
O149 Co138 2.039 . S
O149 C139 1.265 . S
C150 O146 1.253 . S
C150 O151 1.227 . S
O151 C150 1.227 . S
N152 Co138 2.140 . S
N152 C155 1.346 1_655 S
N152 C156 1.345 . S
C153 C154 1.387 . S
C153 C157 1.391 . S
C154 C153 1.387 . S
C154 C155 1.369 . S
C154 H163 0.929 . S
C155 N152 1.346 1_455 S
C155 C154 1.369 . S
C155 H158 0.928 . S
C156 N152 1.345 . S
C156 C157 1.371 1_655 S
C156 H159 0.931 . S
C157 C153 1.391 . S
C157 C156 1.371 1_455 S
C157 H164 0.930 . S
H158 C155 0.928 . S
H159 C156 0.931 . S
H160 C136 0.930 . S
H161 C133 0.930 . S
H162 C142 0.930 . S
H163 C154 0.929 . S
H164 C157 0.930 . S
C165 C166 1.351 . S
C165 N168 1.368 . S
C165 H170 0.931 . S
C166 C165 1.351 . S
C166 N167 1.373 . S
C166 H194 0.930 . S
N167 C166 1.373 . S
N167 C169 1.340 . S
N168 C165 1.368 . S
N168 C169 1.321 . S
N168 Co171 2.135 . S
C169 N167 1.340 . S
C169 N168 1.321 . S
C169 H193 0.930 . S
H170 C165 0.931 . S
Co171 N168 2.135 . S
Co171 N174 2.121 . S
Co171 O179 2.055 . S
Co171 O182 2.039 . S
Co171 N185 2.140 . S
C172 O173 1.227 . S
C172 O182 1.265 . S
O173 C172 1.227 . S
N174 Co171 2.121 . S
N174 C176 1.375 . S
N174 C177 1.313 . S
C175 C176 1.338 . S
C175 N178 1.377 . S
C175 H195 0.930 . S
C176 N174 1.375 . S
C176 C175 1.338 . S
C176 H180 0.931 . S
C177 N174 1.313 . S
C177 N178 1.344 . S
C177 H181 0.930 . S
N178 C175 1.377 . S
N178 C177 1.344 . S
O179 Co171 2.055 . S
O179 C183 1.253 . S
H180 C176 0.931 . S
H181 C177 0.930 . S
O182 Co171 2.039 . S
O182 C172 1.265 . S
C183 O179 1.253 . S
C183 O184 1.227 . S
O184 C183 1.227 . S
N185 Co171 2.140 . S
N185 C188 1.346 . S
N185 C189 1.345 . S
C186 C187 1.387 . S
C186 C190 1.391 . S
C187 C186 1.387 . S
C187 C188 1.369 . S
C187 H196 0.929 . S
C188 N185 1.346 . S
C188 C187 1.369 . S
C188 H191 0.928 . S
C189 N185 1.345 . S
C189 C190 1.371 . S
C189 H192 0.931 . S
C190 C186 1.391 . S
C190 C189 1.371 . S
C190 H197 0.930 . S
H191 C188 0.928 . S
H192 C189 0.931 . S
H193 C169 0.930 . S
H194 C166 0.930 . S
H195 C175 0.930 . S
H196 C187 0.929 . S
H197 C190 0.930 . S
C198 C199 1.351 . S
C198 N201 1.368 . S
C198 H203 0.931 . S
C199 C198 1.351 . S
C199 N200 1.373 . S
C199 H227 0.930 . S
N200 C199 1.373 . S
N200 C202 1.340 . S
N201 C198 1.368 . S
N201 C202 1.321 . S
N201 Co204 2.135 . S
C202 N200 1.340 . S
C202 N201 1.321 . S
C202 H226 0.930 . S
H203 C198 0.931 . S
Co204 N201 2.135 . S
Co204 N207 2.121 . S
Co204 O212 2.055 . S
Co204 O215 2.039 . S
Co204 N218 2.140 . S
C205 O206 1.227 . S
C205 O215 1.265 . S
O206 C205 1.227 . S
N207 Co204 2.121 . S
N207 C209 1.375 . S
N207 C210 1.313 . S
C208 C209 1.338 . S
C208 N211 1.377 . S
C208 H228 0.930 . S
C209 N207 1.375 . S
C209 C208 1.338 . S
C209 H213 0.931 . S
C210 N207 1.313 . S
C210 N211 1.344 . S
C210 H214 0.930 . S
N211 C208 1.377 . S
N211 C210 1.344 . S
O212 Co204 2.055 . S
O212 C216 1.253 . S
H213 C209 0.931 . S
H214 C210 0.930 . S
O215 Co204 2.039 . S
O215 C205 1.265 . S
C216 O212 1.253 . S
C216 O217 1.227 . S
O217 C216 1.227 . S
N218 Co204 2.140 . S
N218 C221 1.346 . S
N218 C222 1.345 . S
C219 C220 1.387 . S
C219 C223 1.391 . S
C220 C219 1.387 . S
C220 C221 1.369 . S
C220 H229 0.929 . S
C221 N218 1.346 . S
C221 C220 1.369 . S
C221 H224 0.928 . S
C222 N218 1.345 . S
C222 C223 1.371 . S
C222 H225 0.931 . S
C223 C219 1.391 . S
C223 C222 1.371 . S
C223 H230 0.930 . S
H224 C221 0.928 . S
H225 C222 0.931 . S
H226 C202 0.930 . S
H227 C199 0.930 . S
H228 C208 0.930 . S
H229 C220 0.929 . S
H230 C223 0.930 . S
C231 C232 1.351 . S
C231 N234 1.368 . S
C231 H236 0.931 . S
C232 C231 1.351 . S
C232 N233 1.373 . S
C232 H260 0.930 . S
N233 C232 1.373 . S
N233 C235 1.340 . S
N234 C231 1.368 . S
N234 C235 1.321 . S
N234 Co237 2.135 . S
C235 N233 1.340 . S
C235 N234 1.321 . S
C235 H259 0.930 . S
H236 C231 0.931 . S
Co237 N234 2.135 . S
Co237 N240 2.121 . S
Co237 O245 2.055 . S
Co237 O248 2.039 . S
Co237 N251 2.140 . S
C238 O239 1.227 1_455 S
C238 O248 1.265 . S
O239 C238 1.227 1_655 S
N240 Co237 2.121 . S
N240 C242 1.375 . S
N240 C243 1.313 . S
C241 C242 1.338 . S
C241 N244 1.377 . S
C241 H261 0.930 . S
C242 N240 1.375 . S
C242 C241 1.338 . S
C242 H246 0.931 . S
C243 N240 1.313 . S
C243 N244 1.344 . S
C243 H247 0.930 . S
N244 C241 1.377 . S
N244 C243 1.344 . S
O245 Co237 2.055 . S
O245 C249 1.253 . S
H246 C242 0.931 . S
H247 C243 0.930 . S
O248 Co237 2.039 . S
O248 C238 1.265 . S
C249 O245 1.253 . S
C249 O250 1.227 . S
O250 C249 1.227 . S
N251 Co237 2.140 . S
N251 C254 1.346 1_455 S
N251 C255 1.345 . S
C252 C253 1.387 . S
C252 C256 1.391 . S
C253 C252 1.387 . S
C253 C254 1.369 . S
C253 H262 0.929 . S
C254 N251 1.346 1_655 S
C254 C253 1.369 . S
C254 H257 0.928 . S
C255 N251 1.345 . S
C255 C256 1.371 1_455 S
C255 H258 0.931 . S
C256 C252 1.391 . S
C256 C255 1.371 1_655 S
C256 H263 0.930 . S
H257 C254 0.928 . S
H258 C255 0.931 . S
H259 C235 0.930 . S
H260 C232 0.930 . S
H261 C241 0.930 . S
H262 C253 0.929 . S
H263 C256 0.930 . S
C264 C265 1.351 . S
C264 N267 1.368 . S
C264 H269 0.931 . S
C265 C264 1.351 . S
C265 N266 1.373 . S
C265 H293 0.930 . S
N266 C265 1.373 . S
N266 C268 1.340 . S
N267 C264 1.368 . S
N267 C268 1.321 . S
N267 Co270 2.135 . S
C268 N266 1.340 . S
C268 N267 1.321 . S
C268 H292 0.930 . S
H269 C264 0.931 . S
Co270 N267 2.135 . S
Co270 N273 2.121 . S
Co270 O278 2.055 . S
Co270 O281 2.039 . S
Co270 N284 2.140 . S
C271 O272 1.227 . S
C271 O281 1.265 . S
O272 C271 1.227 . S
N273 Co270 2.121 . S
N273 C275 1.375 . S
N273 C276 1.313 . S
C274 C275 1.338 . S
C274 N277 1.377 . S
C274 H294 0.930 . S
C275 N273 1.375 . S
C275 C274 1.338 . S
C275 H279 0.931 . S
C276 N273 1.313 . S
C276 N277 1.344 . S
C276 H280 0.930 . S
N277 C274 1.377 . S
N277 C276 1.344 . S
O278 Co270 2.055 . S
O278 C282 1.253 . S
H279 C275 0.931 . S
H280 C276 0.930 . S
O281 Co270 2.039 . S
O281 C271 1.265 . S
C282 O278 1.253 . S
C282 O283 1.227 . S
O283 C282 1.227 . S
N284 Co270 2.140 . S
N284 C287 1.346 . S
N284 C288 1.345 . S
C285 C286 1.387 . S
C285 C289 1.391 . S
C286 C285 1.387 . S
C286 C287 1.369 . S
C286 H295 0.929 . S
C287 N284 1.346 . S
C287 C286 1.369 . S
C287 H290 0.928 . S
C288 N284 1.345 . S
C288 C289 1.371 . S
C288 H291 0.931 . S
C289 C285 1.391 . S
C289 C288 1.371 . S
C289 H296 0.930 . S
H290 C287 0.928 . S
H291 C288 0.931 . S
H292 C268 0.930 . S
H293 C265 0.930 . S
H294 C274 0.930 . S
H295 C286 0.929 . S
H296 C289 0.930 . S
C297 C298 1.351 . S
C297 N300 1.368 . S
C297 H302 0.931 . S
C298 C297 1.351 . S
C298 N299 1.373 . S
C298 H326 0.930 . S
N299 C298 1.373 . S
N299 C301 1.340 . S
N300 C297 1.368 . S
N300 C301 1.321 . S
N300 Co303 2.135 . S
C301 N299 1.340 . S
C301 N300 1.321 . S
C301 H325 0.930 . S
H302 C297 0.931 . S
Co303 N300 2.135 . S
Co303 N306 2.121 . S
Co303 O311 2.055 . S
Co303 O314 2.039 . S
Co303 N317 2.140 . S
C304 O305 1.227 1_655 S
C304 O314 1.265 . S
O305 C304 1.227 1_455 S
N306 Co303 2.121 . S
N306 C308 1.375 . S
N306 C309 1.313 . S
C307 C308 1.338 . S
C307 N310 1.377 . S
C307 H327 0.930 . S
C308 N306 1.375 . S
C308 C307 1.338 . S
C308 H312 0.931 . S
C309 N306 1.313 . S
C309 N310 1.344 . S
C309 H313 0.930 . S
N310 C307 1.377 . S
N310 C309 1.344 . S
O311 Co303 2.055 . S
O311 C315 1.253 . S
H312 C308 0.931 . S
H313 C309 0.930 . S
O314 Co303 2.039 . S
O314 C304 1.265 . S
C315 O311 1.253 . S
C315 O316 1.227 . S
O316 C315 1.227 . S
N317 Co303 2.140 . S
N317 C320 1.346 1_655 S
N317 C321 1.345 . S
C318 C319 1.387 . S
C318 C322 1.391 . S
C319 C318 1.387 . S
C319 C320 1.369 . S
C319 H328 0.929 . S
C320 N317 1.346 1_455 S
C320 C319 1.369 . S
C320 H323 0.928 . S
C321 N317 1.345 . S
C321 C322 1.371 1_655 S
C321 H324 0.931 . S
C322 C318 1.391 . S
C322 C321 1.371 1_455 S
C322 H329 0.930 . S
H323 C320 0.928 . S
H324 C321 0.931 . S
H325 C301 0.930 . S
H326 C298 0.930 . S
H327 C307 0.930 . S
H328 C319 0.929 . S
H329 C322 0.930 . S
C330 C331 1.351 . S
C330 N333 1.368 . S
C330 H335 0.931 . S
C331 C330 1.351 . S
C331 N332 1.373 . S
C331 H359 0.930 . S
N332 C331 1.373 . S
N332 C334 1.340 . S
N333 C330 1.368 . S
N333 C334 1.321 . S
N333 Co336 2.135 . S
C334 N332 1.340 . S
C334 N333 1.321 . S
C334 H358 0.930 . S
H335 C330 0.931 . S
Co336 N333 2.135 . S
Co336 N339 2.121 . S
Co336 O344 2.055 . S
Co336 O347 2.039 . S
Co336 N350 2.140 . S
C337 O338 1.227 1_455 S
C337 O347 1.265 . S
O338 C337 1.227 1_655 S
N339 Co336 2.121 . S
N339 C341 1.375 . S
N339 C342 1.313 . S
C340 C341 1.338 . S
C340 N343 1.377 . S
C340 H360 0.930 . S
C341 N339 1.375 . S
C341 C340 1.338 . S
C341 H345 0.931 . S
C342 N339 1.313 . S
C342 N343 1.344 . S
C342 H346 0.930 . S
N343 C340 1.377 . S
N343 C342 1.344 . S
O344 Co336 2.055 . S
O344 C348 1.253 . S
H345 C341 0.931 . S
H346 C342 0.930 . S
O347 Co336 2.039 . S
O347 C337 1.265 . S
C348 O344 1.253 . S
C348 O349 1.227 . S
O349 C348 1.227 . S
N350 Co336 2.140 . S
N350 C353 1.346 1_455 S
N350 C354 1.345 . S
C351 C352 1.387 . S
C351 C355 1.391 . S
C352 C351 1.387 . S
C352 C353 1.369 . S
C352 H361 0.929 . S
C353 N350 1.346 1_655 S
C353 C352 1.369 . S
C353 H356 0.928 . S
C354 N350 1.345 . S
C354 C355 1.371 1_455 S
C354 H357 0.931 . S
C355 C351 1.391 . S
C355 C354 1.371 1_655 S
C355 H362 0.930 . S
H356 C353 0.928 . S
H357 C354 0.931 . S
H358 C334 0.930 . S
H359 C331 0.930 . S
H360 C340 0.930 . S
H361 C352 0.929 . S
H362 C355 0.930 . S
C363 C364 1.351 . S
C363 N366 1.368 . S
C363 H368 0.931 . S
C364 C363 1.351 . S
C364 N365 1.373 . S
C364 H392 0.930 . S
N365 C364 1.373 . S
N365 C367 1.340 . S
N366 C363 1.368 . S
N366 C367 1.321 . S
N366 Co369 2.135 . S
C367 N365 1.340 . S
C367 N366 1.321 . S
C367 H391 0.930 . S
H368 C363 0.931 . S
Co369 N366 2.135 . S
Co369 N372 2.121 . S
Co369 O377 2.055 . S
Co369 O380 2.039 . S
Co369 N383 2.140 . S
C370 O371 1.227 . S
C370 O380 1.265 . S
O371 C370 1.227 . S
N372 Co369 2.121 . S
N372 C374 1.375 . S
N372 C375 1.313 . S
C373 C374 1.338 . S
C373 N376 1.377 . S
C373 H393 0.930 . S
C374 N372 1.375 . S
C374 C373 1.338 . S
C374 H378 0.931 . S
C375 N372 1.313 . S
C375 N376 1.344 . S
C375 H379 0.930 . S
N376 C373 1.377 . S
N376 C375 1.344 . S
O377 Co369 2.055 . S
O377 C381 1.253 . S
H378 C374 0.931 . S
H379 C375 0.930 . S
O380 Co369 2.039 . S
O380 C370 1.265 . S
C381 O377 1.253 . S
C381 O382 1.227 . S
O382 C381 1.227 . S
N383 Co369 2.140 . S
N383 C386 1.346 . S
N383 C387 1.345 . S
C384 C385 1.387 . S
C384 C388 1.391 . S
C385 C384 1.387 . S
C385 C386 1.369 . S
C385 H394 0.929 . S
C386 N383 1.346 . S
C386 C385 1.369 . S
C386 H389 0.928 . S
C387 N383 1.345 . S
C387 C388 1.371 . S
C387 H390 0.931 . S
C388 C384 1.391 . S
C388 C387 1.371 . S
C388 H395 0.930 . S
H389 C386 0.928 . S
H390 C387 0.931 . S
H391 C367 0.930 . S
H392 C364 0.930 . S
H393 C373 0.930 . S
H394 C385 0.929 . S
H395 C388 0.930 . S
C396 C397 1.351 . S
C396 N399 1.368 . S
C396 H401 0.931 . S
C397 C396 1.351 . S
C397 N398 1.373 . S
C397 H425 0.930 . S
N398 C397 1.373 . S
N398 C400 1.340 . S
N399 C396 1.368 . S
N399 C400 1.321 . S
N399 Co402 2.135 . S
C400 N398 1.340 . S
C400 N399 1.321 . S
C400 H424 0.930 . S
H401 C396 0.931 . S
Co402 N399 2.135 . S
Co402 N405 2.121 . S
Co402 O410 2.055 . S
Co402 O413 2.039 . S
Co402 N416 2.140 . S
C403 O404 1.227 . S
C403 O413 1.265 . S
O404 C403 1.227 . S
N405 Co402 2.121 . S
N405 C407 1.375 . S
N405 C408 1.313 . S
C406 C407 1.338 . S
C406 N409 1.377 . S
C406 H426 0.930 . S
C407 N405 1.375 . S
C407 C406 1.338 . S
C407 H411 0.931 . S
C408 N405 1.313 . S
C408 N409 1.344 . S
C408 H412 0.930 . S
N409 C406 1.377 . S
N409 C408 1.344 . S
O410 Co402 2.055 . S
O410 C414 1.253 . S
H411 C407 0.931 . S
H412 C408 0.930 . S
O413 Co402 2.039 . S
O413 C403 1.265 . S
C414 O410 1.253 . S
C414 O415 1.227 . S
O415 C414 1.227 . S
N416 Co402 2.140 . S
N416 C419 1.346 . S
N416 C420 1.345 . S
C417 C418 1.387 . S
C417 C421 1.391 . S
C418 C417 1.387 . S
C418 C419 1.369 . S
C418 H427 0.929 . S
C419 N416 1.346 . S
C419 C418 1.369 . S
C419 H422 0.928 . S
C420 N416 1.345 . S
C420 C421 1.371 . S
C420 H423 0.931 . S
C421 C417 1.391 . S
C421 C420 1.371 . S
C421 H428 0.930 . S
H422 C419 0.928 . S
H423 C420 0.931 . S
H424 C400 0.930 . S
H425 C397 0.930 . S
H426 C406 0.930 . S
H427 C418 0.929 . S
H428 C421 0.930 . S
C429 C430 1.351 . S
C429 N432 1.368 . S
C429 H434 0.931 . S
C430 C429 1.351 . S
C430 N431 1.373 . S
C430 H458 0.930 . S
N431 C430 1.373 . S
N431 C433 1.340 . S
N432 C429 1.368 . S
N432 C433 1.321 . S
N432 Co435 2.135 . S
C433 N431 1.340 . S
C433 N432 1.321 . S
C433 H457 0.930 . S
H434 C429 0.931 . S
Co435 N432 2.135 . S
Co435 N438 2.121 . S
Co435 O443 2.055 . S
Co435 O446 2.039 . S
Co435 N449 2.140 . S
C436 O437 1.227 1_455 S
C436 O446 1.265 . S
O437 C436 1.227 1_655 S
N438 Co435 2.121 . S
N438 C440 1.375 . S
N438 C441 1.313 . S
C439 C440 1.338 . S
C439 N442 1.377 . S
C439 H459 0.930 . S
C440 N438 1.375 . S
C440 C439 1.338 . S
C440 H444 0.931 . S
C441 N438 1.313 . S
C441 N442 1.344 . S
C441 H445 0.930 . S
N442 C439 1.377 . S
N442 C441 1.344 . S
O443 Co435 2.055 . S
O443 C447 1.253 . S
H444 C440 0.931 . S
H445 C441 0.930 . S
O446 Co435 2.039 . S
O446 C436 1.265 . S
C447 O443 1.253 . S
C447 O448 1.227 . S
O448 C447 1.227 . S
N449 Co435 2.140 . S
N449 C452 1.346 1_455 S
N449 C453 1.345 . S
C450 C451 1.387 . S
C450 C454 1.391 . S
C451 C450 1.387 . S
C451 C452 1.369 . S
C451 H460 0.929 . S
C452 N449 1.346 1_655 S
C452 C451 1.369 . S
C452 H455 0.928 . S
C453 N449 1.345 . S
C453 C454 1.371 1_455 S
C453 H456 0.931 . S
C454 C450 1.391 . S
C454 C453 1.371 1_655 S
C454 H461 0.930 . S
H455 C452 0.928 . S
H456 C453 0.931 . S
H457 C433 0.930 . S
H458 C430 0.930 . S
H459 C439 0.930 . S
H460 C451 0.929 . S
H461 C454 0.930 . S
C462 C463 1.351 . S
C462 N465 1.368 . S
C462 H467 0.931 . S
C463 C462 1.351 . S
C463 N464 1.373 . S
C463 H491 0.930 . S
N464 C463 1.373 . S
N464 C466 1.340 . S
N465 C462 1.368 . S
N465 C466 1.321 . S
N465 Co468 2.135 . S
C466 N464 1.340 . S
C466 N465 1.321 . S
C466 H490 0.930 . S
H467 C462 0.931 . S
Co468 N465 2.135 . S
Co468 N471 2.121 . S
Co468 O476 2.055 . S
Co468 O479 2.039 . S
Co468 N482 2.140 . S
C469 O470 1.227 1_655 S
C469 O479 1.265 . S
O470 C469 1.227 1_455 S
N471 Co468 2.121 . S
N471 C473 1.375 . S
N471 C474 1.313 . S
C472 C473 1.338 . S
C472 N475 1.377 . S
C472 H492 0.930 . S
C473 N471 1.375 . S
C473 C472 1.338 . S
C473 H477 0.931 . S
C474 N471 1.313 . S
C474 N475 1.344 . S
C474 H478 0.930 . S
N475 C472 1.377 . S
N475 C474 1.344 . S
O476 Co468 2.055 . S
O476 C480 1.253 . S
H477 C473 0.931 . S
H478 C474 0.930 . S
O479 Co468 2.039 . S
O479 C469 1.265 . S
C480 O476 1.253 . S
C480 O481 1.227 . S
O481 C480 1.227 . S
N482 Co468 2.140 . S
N482 C485 1.346 1_655 S
N482 C486 1.345 . S
C483 C484 1.387 . S
C483 C487 1.391 . S
C484 C483 1.387 . S
C484 C485 1.369 . S
C484 H493 0.929 . S
C485 N482 1.346 1_455 S
C485 C484 1.369 . S
C485 H488 0.928 . S
C486 N482 1.345 . S
C486 C487 1.371 1_655 S
C486 H489 0.931 . S
C487 C483 1.391 . S
C487 C486 1.371 1_455 S
C487 H494 0.930 . S
H488 C485 0.928 . S
H489 C486 0.931 . S
H490 C466 0.930 . S
H491 C463 0.930 . S
H492 C472 0.930 . S
H493 C484 0.929 . S
H494 C487 0.930 . S
C495 C496 1.351 . S
C495 N498 1.368 . S
C495 H500 0.931 . S
C496 C495 1.351 . S
C496 N497 1.373 . S
C496 H524 0.930 . S
N497 C496 1.373 . S
N497 C499 1.340 . S
N498 C495 1.368 . S
N498 C499 1.321 . S
N498 Co501 2.135 . S
C499 N497 1.340 . S
C499 N498 1.321 . S
C499 H523 0.930 . S
H500 C495 0.931 . S
Co501 N498 2.135 . S
Co501 N504 2.121 . S
Co501 O509 2.055 . S
Co501 O512 2.039 . S
Co501 N515 2.140 . S
C502 O503 1.227 . S
C502 O512 1.265 . S
O503 C502 1.227 . S
N504 Co501 2.121 . S
N504 C506 1.375 . S
N504 C507 1.313 . S
C505 C506 1.338 . S
C505 N508 1.377 . S
C505 H525 0.930 . S
C506 N504 1.375 . S
C506 C505 1.338 . S
C506 H510 0.931 . S
C507 N504 1.313 . S
C507 N508 1.344 . S
C507 H511 0.930 . S
N508 C505 1.377 . S
N508 C507 1.344 . S
O509 Co501 2.055 . S
O509 C513 1.253 . S
H510 C506 0.931 . S
H511 C507 0.930 . S
O512 Co501 2.039 . S
O512 C502 1.265 . S
C513 O509 1.253 . S
C513 O514 1.227 . S
O514 C513 1.227 . S
N515 Co501 2.140 . S
N515 C518 1.346 . S
N515 C519 1.345 . S
C516 C517 1.387 . S
C516 C520 1.391 . S
C517 C516 1.387 . S
C517 C518 1.369 . S
C517 H526 0.929 . S
C518 N515 1.346 . S
C518 C517 1.369 . S
C518 H521 0.928 . S
C519 N515 1.345 . S
C519 C520 1.371 . S
C519 H522 0.931 . S
C520 C516 1.391 . S
C520 C519 1.371 . S
C520 H527 0.930 . S
H521 C518 0.928 . S
H522 C519 0.931 . S
H523 C499 0.930 . S
H524 C496 0.930 . S
H525 C505 0.930 . S
H526 C517 0.929 . S
H527 C520 0.930 . S
C528 C529 1.387 . S
C528 H532 0.950 . S
C528 C537 1.390 1_556 S
C529 C528 1.387 . S
C529 C531 1.387 1_556 S
H530 C537 0.950 1_556 S
C531 C529 1.387 1_554 S
C531 C533 1.390 . S
C531 H535 0.950 . S
H532 C528 0.950 . S
C533 C531 1.390 . S
C533 C534 1.387 . S
C533 H536 0.950 . S
C534 C533 1.387 . S
C534 C537 1.387 . S
H535 C531 0.950 . S
H536 C533 0.950 . S
C537 C528 1.390 1_554 S
C537 H530 0.950 1_554 S
C537 C534 1.387 . S
C538 C539 1.387 . S
C538 H542 0.950 . S
C538 C547 1.390 1_556 S
C539 C538 1.387 . S
C539 C541 1.387 1_556 S
H540 C547 0.950 . S
C541 C539 1.387 1_554 S
C541 C543 1.390 . S
C541 H545 0.950 . S
H542 C538 0.950 . S
C543 C541 1.390 . S
C543 C544 1.387 . S
C543 H546 0.950 . S
C544 C543 1.387 . S
C544 C547 1.387 . S
H545 C541 0.950 . S
H546 C543 0.950 . S
C547 C538 1.390 1_554 S
C547 H540 0.950 . S
C547 C544 1.387 . S
C548 C549 1.387 . S
C548 H552 0.950 . S
C548 C557 1.390 . S
C549 C548 1.387 . S
C549 C551 1.387 . S
H550 C557 0.950 . S
C551 C549 1.387 . S
C551 C553 1.390 . S
C551 H555 0.950 . S
H552 C548 0.950 . S
C553 C551 1.390 . S
C553 C554 1.387 . S
C553 H556 0.950 . S
C554 C553 1.387 . S
C554 C557 1.387 . S
H555 C551 0.950 . S
H556 C553 0.950 . S
C557 C548 1.390 . S
C557 H550 0.950 . S
C557 C554 1.387 . S
C558 C559 1.387 . S
C558 H562 0.950 . S
C558 C567 1.390 . S
C559 C558 1.387 . S
C559 C561 1.387 . S
H560 C567 0.950 . S
C561 C559 1.387 . S
C561 C563 1.390 . S
C561 H565 0.950 . S
H562 C558 0.950 . S
C563 C561 1.390 . S
C563 C564 1.387 . S
C563 H566 0.950 . S
C564 C563 1.387 . S
C564 C567 1.387 . S
H565 C561 0.950 . S
H566 C563 0.950 . S
C567 C558 1.390 . S
C567 H560 0.950 . S
C567 C564 1.387 . S
C568 C569 1.387 . S
C568 H572 0.950 . S
C568 C577 1.390 . S
C569 C568 1.387 . S
C569 C571 1.387 . S
H570 C577 0.950 . S
C571 C569 1.387 . S
C571 C573 1.390 1_556 S
C571 H575 0.950 . S
H572 C568 0.950 . S
C573 C571 1.390 1_554 S
C573 C574 1.387 . S
C573 H576 0.950 . S
C574 C573 1.387 . S
C574 C577 1.387 1_554 S
H575 C571 0.950 . S
H576 C573 0.950 . S
C577 C568 1.390 . S
C577 H570 0.950 . S
C577 C574 1.387 1_556 S
C578 C579 1.387 . S
C578 H582 0.950 . S
C578 C587 1.390 . S
C579 C578 1.387 . S
C579 C581 1.387 . S
H580 C587 0.950 . S
C581 C579 1.387 . S
C581 C583 1.390 1_556 S
C581 H585 0.950 . S
H582 C578 0.950 . S
C583 C581 1.390 1_554 S
C583 C584 1.387 . S
C583 H586 0.950 . S
C584 C583 1.387 . S
C584 C587 1.387 1_554 S
H585 C581 0.950 . S
H586 C583 0.950 . S
C587 C578 1.390 . S
C587 H580 0.950 . S
C587 C584 1.387 1_556 S
C588 C589 1.387 . S
C588 H592 0.950 . S
C588 C597 1.390 . S
C589 C588 1.387 . S
C589 C591 1.387 . S
H590 C597 0.950 . S
C591 C589 1.387 . S
C591 C593 1.390 . S
C591 H595 0.950 . S
H592 C588 0.950 . S
C593 C591 1.390 . S
C593 C594 1.387 . S
C593 H596 0.950 . S
C594 C593 1.387 . S
C594 C597 1.387 . S
H595 C591 0.950 . S
H596 C593 0.950 . S
C597 C588 1.390 . S
C597 H590 0.950 . S
C597 C594 1.387 . S
C598 C599 1.387 . S
C598 H602 0.950 . S
C598 C607 1.390 . S
C599 C598 1.387 . S
C599 C601 1.387 . S
H600 C607 0.950 . S
C601 C599 1.387 . S
C601 C603 1.390 . S
C601 H605 0.950 . S
H602 C598 0.950 . S
C603 C601 1.390 . S
C603 C604 1.387 . S
C603 H606 0.950 . S
C604 C603 1.387 . S
C604 C607 1.387 . S
H605 C601 0.950 . S
H606 C603 0.950 . S
C607 C598 1.390 . S
C607 H600 0.950 . S
C607 C604 1.387 . S
C608 C609 1.387 . S
C608 H612 0.950 . S
C608 C617 1.390 1_554 S
C609 C608 1.387 . S
C609 C611 1.387 . S
H610 C617 0.950 . S
C611 C609 1.387 . S
C611 C613 1.390 . S
C611 H615 0.950 . S
H612 C608 0.950 . S
C613 C611 1.390 . S
C613 C614 1.387 1_554 S
C613 H616 0.950 1_554 S
C614 C613 1.387 1_556 S
C614 C617 1.387 . S
H615 C611 0.950 . S
H616 C613 0.950 1_556 S
C617 C608 1.390 1_556 S
C617 H610 0.950 . S
C617 C614 1.387 . S
C618 C619 1.387 . S
C618 H622 0.950 . S
C618 C627 1.390 1_554 S
C619 C618 1.387 . S
C619 C621 1.387 . S
H620 C627 0.950 . S
C621 C619 1.387 . S
C621 C623 1.390 . S
C621 H625 0.950 . S
H622 C618 0.950 . S
C623 C621 1.390 . S
C623 C624 1.387 1_554 S
C623 H626 0.950 . S
C624 C623 1.387 1_556 S
C624 C627 1.387 . S
H625 C621 0.950 . S
H626 C623 0.950 . S
C627 C618 1.390 1_556 S
C627 H620 0.950 . S
C627 C624 1.387 . S
C628 C629 1.387 . S
C628 H632 0.950 . S
C628 C637 1.390 . S
C629 C628 1.387 . S
C629 C631 1.387 . S
H630 C637 0.950 . S
C631 C629 1.387 . S
C631 C633 1.390 . S
C631 H635 0.950 . S
H632 C628 0.950 . S
C633 C631 1.390 . S
C633 C634 1.387 . S
C633 H636 0.950 . S
C634 C633 1.387 . S
C634 C637 1.387 . S
H635 C631 0.950 . S
H636 C633 0.950 . S
C637 C628 1.390 . S
C637 H630 0.950 . S
C637 C634 1.387 . S
C638 C639 1.387 . S
C638 H642 0.950 . S
C638 C647 1.390 . S
C639 C638 1.387 . S
C639 C641 1.387 . S
H640 C647 0.950 . S
C641 C639 1.387 . S
C641 C643 1.390 . S
C641 H645 0.950 . S
H642 C638 0.950 . S
C643 C641 1.390 . S
C643 C644 1.387 . S
C643 H646 0.950 . S
C644 C643 1.387 . S
C644 C647 1.387 . S
H645 C641 0.950 . S
H646 C643 0.950 . S
C647 C638 1.390 . S
C647 H640 0.950 . S
C647 C644 1.387 . S
C648 C649 1.387 . S
C648 H652 0.950 . S
C648 C657 1.390 . S
C649 C648 1.387 . S
C649 C651 1.387 . S
H650 C657 0.950 . S
C651 C649 1.387 . S
C651 C653 1.390 1_556 S
C651 H655 0.950 . S
H652 C648 0.950 . S
C653 C651 1.390 1_554 S
C653 C654 1.387 . S
C653 H656 0.950 . S
C654 C653 1.387 . S
C654 C657 1.387 1_554 S
H655 C651 0.950 . S
H656 C653 0.950 . S
C657 C648 1.390 . S
C657 H650 0.950 . S
C657 C654 1.387 1_556 S
C658 C659 1.387 . S
C658 H662 0.950 . S
C658 C667 1.390 . S
C659 C658 1.387 . S
C659 C661 1.387 . S
H660 C667 0.950 . S
C661 C659 1.387 . S
C661 C663 1.390 1_556 S
C661 H665 0.947 1_556 S
H662 C658 0.950 . S
C663 C661 1.390 1_554 S
C663 C664 1.387 . S
C663 H666 0.950 . S
C664 C663 1.387 . S
C664 C667 1.387 1_554 S
H665 C661 0.947 1_554 S
H666 C663 0.950 . S
C667 C658 1.390 . S
C667 H660 0.950 . S
C667 C664 1.387 1_556 S
C668 C669 1.387 . S
C668 H672 0.950 . S
C668 C677 1.390 . S
C669 C668 1.387 . S
C669 C671 1.387 . S
H670 C677 0.950 . S
C671 C669 1.387 . S
C671 C673 1.390 . S
C671 H675 0.950 . S
H672 C668 0.950 . S
C673 C671 1.390 . S
C673 C674 1.387 . S
C673 H676 0.950 . S
C674 C673 1.387 . S
C674 C677 1.387 . S
H675 C671 0.950 . S
H676 C673 0.950 . S
C677 C668 1.390 . S
C677 H670 0.950 . S
C677 C674 1.387 . S
C678 C679 1.387 . S
C678 H682 0.950 . S
C678 C687 1.390 . S
C679 C678 1.387 . S
C679 C681 1.387 . S
H680 C687 0.950 . S
C681 C679 1.387 . S
C681 C683 1.390 . S
C681 H685 0.950 . S
H682 C678 0.950 . S
C683 C681 1.390 . S
C683 C684 1.387 . S
C683 H686 0.950 . S
C684 C683 1.387 . S
C684 C687 1.387 . S
H685 C681 0.950 . S
H686 C683 0.950 . S
C687 C678 1.390 . S
C687 H680 0.950 . S
C687 C684 1.387 . S
C688 C689 1.387 . S
C688 H692 0.950 . S
C688 C697 1.390 1_545 S
C689 C688 1.387 . S
C689 C691 1.387 . S
H690 C697 0.950 . S
C691 C689 1.387 . S
C691 C693 1.390 1_545 S
C691 H695 0.950 . S
H692 C688 0.950 . S
C693 C691 1.390 1_565 S
C693 C694 1.387 . S
C693 H696 0.950 . S
C694 C693 1.387 . S
C694 C697 1.387 . S
H695 C691 0.950 . S
H696 C693 0.950 . S
C697 C688 1.390 1_565 S
C697 H690 0.950 . S
C697 C694 1.387 . S
C698 C699 1.387 . S
C698 H702 0.950 . S
C698 C707 1.390 1_565 S
C699 C698 1.387 . S
C699 C701 1.387 . S
H700 C707 0.950 . S
C701 C699 1.387 . S
C701 C703 1.390 1_565 S
C701 H705 0.950 . S
H702 C698 0.950 . S
C703 C701 1.390 1_545 S
C703 C704 1.387 . S
C703 H706 0.950 . S
C704 C703 1.387 . S
C704 C707 1.387 . S
H705 C701 0.950 . S
H706 C703 0.950 . S
C707 C698 1.390 1_545 S
C707 H700 0.950 . S
C707 C704 1.387 . S
C708 C709 1.387 . S
C708 H712 0.950 . S
C708 C717 1.390 1_545 S
C709 C708 1.387 . S
C709 C711 1.387 . S
H710 C717 0.950 . S
C711 C709 1.387 . S
C711 C713 1.390 1_545 S
C711 H715 0.950 . S
H712 C708 0.950 . S
C713 C711 1.390 1_565 S
C713 C714 1.387 . S
C713 H716 0.950 . S
C714 C713 1.387 . S
C714 C717 1.387 . S
H715 C711 0.950 . S
H716 C713 0.950 . S
C717 C708 1.390 1_565 S
C717 H710 0.950 . S
C717 C714 1.387 . S
C718 C719 1.387 . S
C718 H722 0.950 . S
C718 C727 1.390 1_565 S
C719 C718 1.387 . S
C719 C721 1.387 . S
H720 C727 0.950 . S
C721 C719 1.387 . S
C721 C723 1.390 1_565 S
C721 H725 0.950 . S
H722 C718 0.950 . S
C723 C721 1.390 1_545 S
C723 C724 1.387 . S
C723 H726 0.950 . S
C724 C723 1.387 . S
C724 C727 1.387 . S
H725 C721 0.950 . S
H726 C723 0.950 . S
C727 C718 1.390 1_545 S
C727 H720 0.950 . S
C727 C724 1.387 . S
C728 C729 1.387 . S
C728 H732 0.950 . S
C728 C737 1.390 . S
C729 C728 1.387 . S
C729 C731 1.387 . S
H730 C737 0.950 . S
C731 C729 1.387 . S
C731 C733 1.390 . S
C731 H735 0.950 . S
H732 C728 0.950 . S
C733 C731 1.390 . S
C733 C734 1.387 . S
C733 H736 0.950 . S
C734 C733 1.387 . S
C734 C737 1.387 . S
H735 C731 0.950 . S
H736 C733 0.950 . S
C737 C728 1.390 . S
C737 H730 0.950 . S
C737 C734 1.387 . S
C738 C739 1.387 . S
C738 H742 0.950 . S
C738 C747 1.390 . S
C739 C738 1.387 . S
C739 C741 1.387 . S
H740 C747 0.950 . S
C741 C739 1.387 . S
C741 C743 1.390 . S
C741 H745 0.950 . S
H742 C738 0.950 . S
C743 C741 1.390 . S
C743 C744 1.387 . S
C743 H746 0.950 . S
C744 C743 1.387 . S
C744 C747 1.387 . S
H745 C741 0.950 . S
H746 C743 0.950 . S
C747 C738 1.390 . S
C747 H740 0.950 . S
C747 C744 1.387 . S
C748 C749 1.387 . S
C748 H752 0.950 . S
C748 C757 1.390 . S
C749 C748 1.387 . S
C749 C751 1.387 . S
H750 C757 0.950 . S
C751 C749 1.387 . S
C751 C753 1.390 . S
C751 H755 0.950 . S
H752 C748 0.950 . S
C753 C751 1.390 . S
C753 C754 1.387 . S
C753 H756 0.950 . S
C754 C753 1.387 . S
C754 C757 1.387 . S
H755 C751 0.950 . S
H756 C753 0.950 . S
C757 C748 1.390 . S
C757 H750 0.950 . S
C757 C754 1.387 . S
C758 C759 1.387 . S
C758 H762 0.950 . S
C758 C767 1.390 . S
C759 C758 1.387 . S
C759 C761 1.387 . S
H760 C767 0.950 . S
C761 C759 1.387 . S
C761 C763 1.390 . S
C761 H765 0.950 . S
H762 C758 0.950 . S
C763 C761 1.390 . S
C763 C764 1.387 . S
C763 H766 0.950 . S
C764 C763 1.387 . S
C764 C767 1.387 . S
H765 C761 0.950 . S
H766 C763 0.950 . S
C767 C758 1.390 . S
C767 H760 0.950 . S
C767 C764 1.387 . S
C768 C769 1.387 . S
C768 H772 0.950 . S
C768 C777 1.390 1_655 S
C769 C768 1.387 . S
C769 C771 1.387 . S
H770 C777 0.950 . S
C771 C769 1.387 . S
C771 C773 1.390 1_655 S
C771 H775 0.950 . S
H772 C768 0.950 . S
C773 C771 1.390 1_455 S
C773 C774 1.387 . S
C773 H776 0.950 . S
C774 C773 1.387 . S
C774 C777 1.387 . S
H775 C771 0.950 . S
H776 C773 0.950 . S
C777 C768 1.390 1_455 S
C777 H770 0.950 . S
C777 C774 1.387 . S
C778 C779 1.387 . S
C778 H782 0.950 . S
C778 C787 1.390 . S
C779 C778 1.387 . S
C779 C781 1.387 . S
H780 C787 0.950 . S
C781 C779 1.387 . S
C781 C783 1.390 . S
C781 H785 0.950 . S
H782 C778 0.950 . S
C783 C781 1.390 . S
C783 C784 1.387 . S
C783 H786 0.950 . S
C784 C783 1.387 . S
C784 C787 1.387 . S
H785 C781 0.950 . S
H786 C783 0.950 . S
C787 C778 1.390 . S
C787 H780 0.950 . S
C787 C784 1.387 . S
C788 C789 1.387 . S
C788 H792 0.950 . S
C788 C797 1.390 . S
C789 C788 1.387 . S
C789 C791 1.387 . S
H790 C797 0.950 . S
C791 C789 1.387 . S
C791 C793 1.390 . S
C791 H795 0.950 . S
H792 C788 0.950 . S
C793 C791 1.390 . S
C793 C794 1.387 . S
C793 H796 0.950 . S
C794 C793 1.387 . S
C794 C797 1.387 . S
H795 C791 0.950 . S
H796 C793 0.950 . S
C797 C788 1.390 . S
C797 H790 0.950 . S
C797 C794 1.387 . S
C798 C799 1.387 . S
C798 H802 0.950 . S
C798 C807 1.390 1_455 S
C799 C798 1.387 . S
C799 C801 1.387 . S
H800 C807 0.950 . S
C801 C799 1.387 . S
C801 C803 1.390 1_455 S
C801 H805 0.950 . S
H802 C798 0.950 . S
C803 C801 1.390 1_655 S
C803 C804 1.387 . S
C803 H806 0.950 . S
C804 C803 1.387 . S
C804 C807 1.387 . S
H805 C801 0.950 . S
H806 C803 0.950 . S
C807 C798 1.390 1_655 S
C807 H800 0.950 . S
C807 C804 1.387 . S
C808 C809 1.387 . S
C808 H812 0.950 . S
C808 C817 1.390 1_655 S
C809 C808 1.387 . S
C809 C811 1.387 . S
H810 C817 0.950 . S
C811 C809 1.387 . S
C811 C813 1.390 1_655 S
C811 H815 0.950 . S
H812 C808 0.950 . S
C813 C811 1.390 1_455 S
C813 C814 1.387 . S
C813 H816 0.950 . S
C814 C813 1.387 . S
C814 C817 1.387 . S
H815 C811 0.950 . S
H816 C813 0.950 . S
C817 C808 1.390 1_455 S
C817 H810 0.950 . S
C817 C814 1.387 . S
C818 C819 1.387 . S
C818 H822 0.950 . S
C818 C827 1.390 . S
C819 C818 1.387 . S
C819 C821 1.387 . S
H820 C827 0.950 . S
C821 C819 1.387 . S
C821 C823 1.390 . S
C821 H825 0.950 . S
H822 C818 0.950 . S
C823 C821 1.390 . S
C823 C824 1.387 . S
C823 H826 0.950 . S
C824 C823 1.387 . S
C824 C827 1.387 . S
H825 C821 0.950 . S
H826 C823 0.950 . S
C827 C818 1.390 . S
C827 H820 0.950 . S
C827 C824 1.387 . S
C828 C829 1.387 . S
C828 H832 0.950 . S
C828 C837 1.390 . S
C829 C828 1.387 . S
C829 C831 1.387 . S
H830 C837 0.950 . S
C831 C829 1.387 . S
C831 C833 1.390 . S
C831 H835 0.950 . S
H832 C828 0.950 . S
C833 C831 1.390 . S
C833 C834 1.387 . S
C833 H836 0.950 . S
C834 C833 1.387 . S
C834 C837 1.387 . S
H835 C831 0.950 . S
H836 C833 0.950 . S
C837 C828 1.390 . S
C837 H830 0.950 . S
C837 C834 1.387 . S
C838 C839 1.387 . S
C838 H842 0.950 . S
C838 C847 1.390 1_655 S
C839 C838 1.387 . S
C839 C841 1.387 . S
H840 C847 0.950 . S
C841 C839 1.387 . S
C841 C843 1.390 1_655 S
C841 H845 0.950 . S
H842 C838 0.950 . S
C843 C841 1.390 1_455 S
C843 C844 1.387 . S
C843 H846 0.950 . S
C844 C843 1.387 . S
C844 C847 1.387 . S
H845 C841 0.950 . S
H846 C843 0.950 . S
C847 C838 1.390 1_455 S
C847 H840 0.950 . S
C847 C844 1.387 . S
C848 C849 1.387 . S
C848 H852 0.950 . S
C848 C857 1.390 1_455 S
C849 C848 1.387 . S
C849 C851 1.387 . S
H850 C857 0.950 . S
C851 C849 1.387 . S
C851 C853 1.390 1_455 S
C851 H855 0.950 . S
H852 C848 0.950 . S
C853 C851 1.390 1_655 S
C853 C854 1.387 . S
C853 H856 0.950 . S
C854 C853 1.387 . S
C854 C857 1.387 . S
H855 C851 0.950 . S
H856 C853 0.950 . S
C857 C848 1.390 1_655 S
C857 H850 0.950 . S
C857 C854 1.387 . S
C858 C859 1.387 . S
C858 H862 0.950 . S
C858 C867 1.390 . S
C859 C858 1.387 . S
C859 C861 1.387 . S
H860 C867 0.950 . S
C861 C859 1.387 . S
C861 C863 1.390 . S
C861 H865 0.950 . S
H862 C858 0.950 . S
C863 C861 1.390 . S
C863 C864 1.387 . S
C863 H866 0.950 . S
C864 C863 1.387 . S
C864 C867 1.387 . S
H865 C861 0.950 . S
H866 C863 0.950 . S
C867 C858 1.390 . S
C867 H860 0.950 . S
C867 C864 1.387 . S
C868 C869 1.387 . S
C868 H872 0.950 . S
C868 C877 1.390 1_655 S
C869 C868 1.387 . S
C869 C871 1.387 . S
H870 C877 0.950 . S
C871 C869 1.387 . S
C871 C873 1.390 1_655 S
C871 H875 0.950 . S
H872 C868 0.950 . S
C873 C871 1.390 1_455 S
C873 C874 1.387 . S
C873 H876 0.950 . S
C874 C873 1.387 . S
C874 C877 1.387 . S
H875 C871 0.950 . S
H876 C873 0.950 . S
C877 C868 1.390 1_455 S
C877 H870 0.950 . S
C877 C874 1.387 . S
C878 C879 1.387 . S
C878 H882 0.950 . S
C878 C887 1.390 . S
C879 C878 1.387 . S
C879 C881 1.387 . S
H880 C887 0.950 . S
C881 C879 1.387 . S
C881 C883 1.390 . S
C881 H885 0.950 . S
H882 C878 0.950 . S
C883 C881 1.390 . S
C883 C884 1.387 . S
C883 H886 0.950 . S
C884 C883 1.387 . S
C884 C887 1.387 . S
H885 C881 0.950 . S
H886 C883 0.950 . S
C887 C878 1.390 . S
C887 H880 0.950 . S
C887 C884 1.387 . S
C888 C889 1.387 . S
C888 H892 0.950 . S
C888 C897 1.390 . S
C889 C888 1.387 . S
C889 C891 1.387 . S
H890 C897 0.950 . S
C891 C889 1.387 . S
C891 C893 1.390 . S
C891 H895 0.950 . S
H892 C888 0.950 . S
C893 C891 1.390 . S
C893 C894 1.387 . S
C893 H896 0.950 . S
C894 C893 1.387 . S
C894 C897 1.387 . S
H895 C891 0.950 . S
H896 C893 0.950 . S
C897 C888 1.390 . S
C897 H890 0.950 . S
C897 C894 1.387 . S
C898 C899 1.387 . S
C898 H902 0.950 . S
C898 C907 1.390 1_455 S
C899 C898 1.387 . S
C899 C901 1.387 . S
H900 C907 0.950 . S
C901 C899 1.387 . S
C901 C903 1.390 1_455 S
C901 H905 0.950 . S
H902 C898 0.950 . S
C903 C901 1.390 1_655 S
C903 C904 1.387 . S
C903 H906 0.950 . S
C904 C903 1.387 . S
C904 C907 1.387 . S
H905 C901 0.950 . S
H906 C903 0.950 . S
C907 C898 1.390 1_655 S
C907 H900 0.950 . S
C907 C904 1.387 . S
C908 C909 1.387 . S
C908 H912 0.950 . S
C908 C917 1.390 . S
C909 C908 1.387 . S
C909 C911 1.387 . S
H910 C917 0.950 . S
C911 C909 1.387 . S
C911 C913 1.390 . S
C911 H915 0.950 . S
H912 C908 0.950 . S
C913 C911 1.390 . S
C913 C914 1.387 . S
C913 H916 0.950 . S
C914 C913 1.387 . S
C914 C917 1.387 . S
H915 C911 0.950 . S
H916 C913 0.950 . S
C917 C908 1.390 . S
C917 H910 0.950 . S
C917 C914 1.387 . S
C918 C919 1.387 . S
C918 H922 0.950 . S
C918 C927 1.390 1_455 S
C919 C918 1.387 . S
C919 C921 1.387 . S
H920 C927 0.950 . S
C921 C919 1.387 . S
C921 C923 1.390 1_455 S
C921 H925 0.950 . S
H922 C918 0.950 . S
C923 C921 1.390 1_655 S
C923 C924 1.387 . S
C923 H926 0.950 . S
C924 C923 1.387 . S
C924 C927 1.387 . S
H925 C921 0.950 . S
H926 C923 0.950 . S
C927 C918 1.390 1_655 S
C927 H920 0.950 . S
C927 C924 1.387 . S
C529 C186 1.224 . S
C534 C18 1.219 . S
C539 C153 1.225 . S
C544 C51 1.219 . S
C549 C84 1.219 . S
C554 C252 1.225 . S
C559 C117 1.220 . S
C564 C219 1.225 . S
C569 C150 1.219 . S
C574 C54 1.225 . S
C579 C183 1.219 . S
C584 C21 1.225 . S
C589 C120 1.225 . S
C594 C216 1.220 . S
C599 C249 1.220 . S
C604 C87 1.226 . S
C609 C282 1.222 . S
C614 C450 1.226 . S
C619 C315 1.219 . S
C624 C417 1.225 . S
C629 C348 1.223 . S
C634 C516 1.228 . S
C639 C381 1.222 . S
C644 C483 1.227 . S
C649 C414 1.220 . S
C654 C318 1.225 . S
C659 C447 1.220 . S
C664 C285 1.225 . S
C669 C384 1.227 . S
C674 C480 1.223 . S
C679 C351 1.226 . S
C684 C513 1.220 . S
C689 N13 1.706 . S
C694 N46 1.706 . S
C699 N79 1.706 . S
C704 N112 1.706 . S
C709 N178 1.707 . S
C714 N145 1.707 . S
C719 N244 1.707 . S
C724 N211 1.707 . S
C729 N310 1.707 . S
C734 N277 1.707 . S
C739 N376 1.706 . S
C744 N343 1.706 . S
C749 N409 1.706 . S
C754 N442 1.706 . S
C759 N475 1.706 . S
C764 N508 1.706 . S
C769 N299 1.530 . S
C774 N2 1.530 . S
C779 N35 1.530 . S
C784 N266 1.530 . S
C789 N68 1.529 . S
C794 N365 1.529 . S
C799 N332 1.530 . S
C804 N101 1.530 . S
C809 N134 1.530 . S
C814 N431 1.530 . S
C819 N167 1.529 . S
C824 N398 1.529 . S
C829 N200 1.529 . S
C834 N497 1.529 . S
C839 N464 1.530 . S
C844 N233 1.530 . S
C849 C7 1.477 . S
C854 C106 1.477 . S
C859 C40 1.477 . S
C864 C73 1.477 . S
C869 C139 1.477 . S
C874 C238 1.477 . S
C879 C172 1.479 . S
C884 C205 1.479 . S
C889 C370 1.477 . S
C894 C271 1.477 . S
C899 C337 1.479 . S
C904 C304 1.479 . S
C909 C403 1.477 . S
C914 C502 1.477 . S
C919 C436 1.477 . S
C924 C469 1.477 . S
