# Generated by pormake.
# Topology soi, (5)-cn, num edge types: 1
# Building blocks:
#     Node 0, Type 0, BuildingBlock: XOMCOT_clean_sbu_1, # of connection points: 5
#     Node 1, Type 0, BuildingBlock: XOMCOT_clean_sbu_1, # of connection points: 5
#     Node 2, Type 0, BuildingBlock: XOMCOT_clean_sbu_1, # of connection points: 5
#     Node 3, Type 0, BuildingBlock: XOMCOT_clean_sbu_1, # of connection points: 5
#     Node 4, Type 0, BuildingBlock: XOMCOT_clean_sbu_1, # of connection points: 5
#     Node 5, Type 0, BuildingBlock: XOMCOT_clean_sbu_1, # of connection points: 5
#     Node 6, Type 0, BuildingBlock: XOMCOT_clean_sbu_1, # of connection points: 5
#     Node 7, Type 0, BuildingBlock: XOMCOT_clean_sbu_1, # of connection points: 5
#     Node 8, Type 0, BuildingBlock: XOMCOT_clean_sbu_1, # of connection points: 5
#     Node 9, Type 0, BuildingBlock: XOMCOT_clean_sbu_1, # of connection points: 5
#     Node 10, Type 0, BuildingBlock: XOMCOT_clean_sbu_1, # of connection points: 5
#     Node 11, Type 0, BuildingBlock: XOMCOT_clean_sbu_1, # of connection points: 5
#     Node 12, Type 0, BuildingBlock: XOMCOT_clean_sbu_1, # of connection points: 5
#     Node 13, Type 0, BuildingBlock: XOMCOT_clean_sbu_1, # of connection points: 5
#     Node 14, Type 0, BuildingBlock: XOMCOT_clean_sbu_1, # of connection points: 5
#     Node 15, Type 0, BuildingBlock: XOMCOT_clean_sbu_1, # of connection points: 5
#     Edge 16, Type (0, 0), BuildingBlock: TEMPAE_clean_linker_10, # of connection points: 2
#     Edge 17, Type (0, 0), BuildingBlock: TEMPAE_clean_linker_10, # of connection points: 2
#     Edge 18, Type (0, 0), BuildingBlock: TEMPAE_clean_linker_10, # of connection points: 2
#     Edge 19, Type (0, 0), BuildingBlock: TEMPAE_clean_linker_10, # of connection points: 2
#     Edge 20, Type (0, 0), BuildingBlock: TEMPAE_clean_linker_10, # of connection points: 2
#     Edge 21, Type (0, 0), BuildingBlock: TEMPAE_clean_linker_10, # of connection points: 2
#     Edge 22, Type (0, 0), BuildingBlock: TEMPAE_clean_linker_10, # of connection points: 2
#     Edge 23, Type (0, 0), BuildingBlock: TEMPAE_clean_linker_10, # of connection points: 2
#     Edge 24, Type (0, 0), BuildingBlock: TEMPAE_clean_linker_10, # of connection points: 2
#     Edge 25, Type (0, 0), BuildingBlock: TEMPAE_clean_linker_10, # of connection points: 2
#     Edge 26, Type (0, 0), BuildingBlock: TEMPAE_clean_linker_10, # of connection points: 2
#     Edge 27, Type (0, 0), BuildingBlock: TEMPAE_clean_linker_10, # of connection points: 2
#     Edge 28, Type (0, 0), BuildingBlock: TEMPAE_clean_linker_10, # of connection points: 2
#     Edge 29, Type (0, 0), BuildingBlock: TEMPAE_clean_linker_10, # of connection points: 2
#     Edge 30, Type (0, 0), BuildingBlock: TEMPAE_clean_linker_10, # of connection points: 2
#     Edge 31, Type (0, 0), BuildingBlock: TEMPAE_clean_linker_10, # of connection points: 2
#     Edge 32, Type (0, 0), BuildingBlock: TEMPAE_clean_linker_10, # of connection points: 2
#     Edge 33, Type (0, 0), BuildingBlock: TEMPAE_clean_linker_10, # of connection points: 2
#     Edge 34, Type (0, 0), BuildingBlock: TEMPAE_clean_linker_10, # of connection points: 2
#     Edge 35, Type (0, 0), BuildingBlock: TEMPAE_clean_linker_10, # of connection points: 2
#     Edge 36, Type (0, 0), BuildingBlock: TEMPAE_clean_linker_10, # of connection points: 2
#     Edge 37, Type (0, 0), BuildingBlock: TEMPAE_clean_linker_10, # of connection points: 2
#     Edge 38, Type (0, 0), BuildingBlock: TEMPAE_clean_linker_10, # of connection points: 2
#     Edge 39, Type (0, 0), BuildingBlock: TEMPAE_clean_linker_10, # of connection points: 2
#     Edge 40, Type (0, 0), BuildingBlock: TEMPAE_clean_linker_10, # of connection points: 2
#     Edge 41, Type (0, 0), BuildingBlock: TEMPAE_clean_linker_10, # of connection points: 2
#     Edge 42, Type (0, 0), BuildingBlock: TEMPAE_clean_linker_10, # of connection points: 2
#     Edge 43, Type (0, 0), BuildingBlock: TEMPAE_clean_linker_10, # of connection points: 2
#     Edge 44, Type (0, 0), BuildingBlock: TEMPAE_clean_linker_10, # of connection points: 2
#     Edge 45, Type (0, 0), BuildingBlock: TEMPAE_clean_linker_10, # of connection points: 2
#     Edge 46, Type (0, 0), BuildingBlock: TEMPAE_clean_linker_10, # of connection points: 2
#     Edge 47, Type (0, 0), BuildingBlock: TEMPAE_clean_linker_10, # of connection points: 2
#     Edge 48, Type (0, 0), BuildingBlock: TEMPAE_clean_linker_10, # of connection points: 2
#     Edge 49, Type (0, 0), BuildingBlock: TEMPAE_clean_linker_10, # of connection points: 2
#     Edge 50, Type (0, 0), BuildingBlock: TEMPAE_clean_linker_10, # of connection points: 2
#     Edge 51, Type (0, 0), BuildingBlock: TEMPAE_clean_linker_10, # of connection points: 2
#     Edge 52, Type (0, 0), BuildingBlock: TEMPAE_clean_linker_10, # of connection points: 2
#     Edge 53, Type (0, 0), BuildingBlock: TEMPAE_clean_linker_10, # of connection points: 2
#     Edge 54, Type (0, 0), BuildingBlock: TEMPAE_clean_linker_10, # of connection points: 2
#     Edge 55, Type (0, 0), BuildingBlock: TEMPAE_clean_linker_10, # of connection points: 2
# Relax obj value: 0.119
# Max RMSD: 0.165
# Mean RMSD: 0.165
data_MOF--net-soi--node1-XOMCOT_clean_sbu_1--edge1-TEMPAE_clean_linker_10
_symmetry_space_group_name_H-M    P1
_symmetry_Int_Tables_number       1
_symmetry_cell_setting            triclinic
loop_
_symmetry_equiv_pos_as_xyz
'x, y, z'
_cell_length_a     47.599691
_cell_length_b     26.085835
_cell_length_c     66.980978
_cell_angle_alpha  90.143184
_cell_angle_beta   90.037436
_cell_angle_gamma 90.027854
loop_
_atom_site_label
_atom_site_type_symbol
_atom_site_fract_x
_atom_site_fract_y
_atom_site_fract_z
_atom_type_partial_charge
C0 C 0.33224 0.98308 0.10736 0.0
C1 C 0.32056 0.98182 0.08868 0.0
N2 N 0.30426 0.02363 0.08645 0.0
N3 N 0.32349 0.02542 0.11704 0.0
C4 C 0.30628 0.0495 0.10397 0.0
H5 H 0.34618 0.95464 0.11363 0.0
Co6 Co 0.33527 0.03765 0.14302 0.0
C7 C 0.28379 0.09831 0.155 0.0
O8 O 0.27249 0.06164 0.16574 0.0
N9 N 0.34835 0.04722 0.16923 0.0
C10 C 0.37977 0.04591 0.19384 0.0
C11 C 0.37606 0.04825 0.17358 0.0
C12 C 0.33557 0.04381 0.18726 0.0
N13 N 0.35433 0.0428 0.20245 0.0
O14 O 0.30991 0.98507 0.15183 0.0
H15 H 0.39275 0.04761 0.16266 0.0
H16 H 0.31326 0.03791 0.18919 0.0
O17 O 0.30703 0.09071 0.14605 0.0
C18 C 0.32067 0.94132 0.15547 0.0
O19 O 0.34814 0.93656 0.15484 0.0
N20 N 0.36094 0.08723 0.13388 0.0
C21 C 0.40481 0.15333 0.1238 0.0
C22 C 0.38209 0.17068 0.1353 0.0
C23 C 0.36051 0.13697 0.14034 0.0
C24 C 0.38237 0.07007 0.12214 0.0
C25 C 0.40448 0.10255 0.11685 0.0
H26 H 0.3443 0.15047 0.15032 0.0
H27 H 0.38309 0.03025 0.11768 0.0
H28 H 0.29556 0.08515 0.10718 0.0
H29 H 0.32332 0.95157 0.07777 0.0
H30 H 0.39969 0.04431 0.20162 0.0
H31 H 0.38141 0.20964 0.14091 0.0
H32 H 0.42183 0.08723 0.10825 0.0
C33 C 0.65293 0.50129 0.10094 0.0
C34 C 0.66614 0.50766 0.08289 0.0
N35 N 0.69039 0.48108 0.08323 0.0
N36 N 0.66871 0.47082 0.11264 0.0
C37 C 0.69146 0.45894 0.10145 0.0
H38 H 0.6333 0.51864 0.10548 0.0
Co39 Co 0.6598 0.4574 0.1391 0.0
C40 C 0.68329 0.35376 0.14692 0.0
O41 O 0.66008 0.34111 0.15619 0.0
N42 N 0.65023 0.44565 0.16677 0.0
C43 C 0.62773 0.42224 0.19458 0.0
C44 C 0.62865 0.41769 0.17425 0.0
C45 C 0.66223 0.46646 0.1834 0.0
N46 N 0.6487 0.45324 0.20041 0.0
O47 O 0.6893 0.50286 0.1468 0.0
H48 H 0.61451 0.39371 0.16579 0.0
H49 H 0.68019 0.49182 0.18317 0.0
O50 O 0.68599 0.39854 0.13936 0.0
C51 C 0.68023 0.54877 0.14782 0.0
O52 O 0.65311 0.55667 0.14577 0.0
N53 N 0.6295 0.41731 0.13006 0.0
C54 C 0.58125 0.3647 0.11834 0.0
C55 C 0.60798 0.34602 0.11332 0.0
C56 C 0.63189 0.37369 0.11887 0.0
C57 C 0.60378 0.43908 0.13292 0.0
C58 C 0.57931 0.41286 0.12763 0.0
H59 H 0.65222 0.35989 0.11419 0.0
H60 H 0.60228 0.47579 0.1404 0.0
H61 H 0.70893 0.43623 0.10677 0.0
H62 H 0.65856 0.53033 0.07049 0.0
H63 H 0.61291 0.40341 0.20439 0.0
H64 H 0.6104 0.31028 0.10524 0.0
H65 H 0.55916 0.42928 0.13154 0.0
C66 C 0.35973 0.94811 0.4461 0.0
C67 C 0.35412 0.94184 0.46614 0.0
N68 N 0.32624 0.93435 0.46841 0.0
N69 N 0.33554 0.94432 0.43574 0.0
C70 C 0.31559 0.93594 0.4497 0.0
H71 H 0.38 0.95626 0.43955 0.0
Co72 Co 0.32939 0.95539 0.40851 0.0
C73 C 0.29861 0.86506 0.39458 0.0
O74 O 0.31491 0.86598 0.37876 0.0
N75 N 0.32156 0.96827 0.38098 0.0
C76 C 0.2931 0.9807 0.3549 0.0
C77 C 0.29446 0.97316 0.37507 0.0
C78 C 0.33639 0.97479 0.36381 0.0
N79 N 0.31941 0.98172 0.34782 0.0
O80 O 0.30145 0.0052 0.41511 0.0
H81 H 0.27645 0.97002 0.38482 0.0
H82 H 0.35897 0.97343 0.36267 0.0
O83 O 0.3016 0.89924 0.40822 0.0
C84 C 0.3123 0.04787 0.42027 0.0
O85 O 0.33977 0.051 0.42185 0.0
N86 N 0.35899 0.9095 0.40271 0.0
C87 C 0.40798 0.85069 0.39904 0.0
C88 C 0.38381 0.83052 0.40812 0.0
C89 C 0.35974 0.86062 0.41003 0.0
C90 C 0.38266 0.93066 0.39482 0.0
C91 C 0.40707 0.9016 0.39227 0.0
H92 H 0.34228 0.84537 0.41842 0.0
H93 H 0.38305 0.97102 0.39125 0.0
H94 H 0.29341 0.93376 0.44622 0.0
H95 H 0.36937 0.94363 0.47811 0.0
H96 H 0.2742 0.98507 0.34605 0.0
H97 H 0.38377 0.79253 0.4146 0.0
H98 H 0.42519 0.91946 0.38545 0.0
C99 C 0.64241 0.53238 0.44718 0.0
C100 C 0.65266 0.53784 0.46623 0.0
N101 N 0.68071 0.54448 0.46521 0.0
N102 N 0.66376 0.53626 0.43406 0.0
C103 C 0.68688 0.54371 0.44548 0.0
H104 H 0.62088 0.52401 0.44314 0.0
Co105 Co 0.66061 0.52128 0.4068 0.0
C106 C 0.68502 0.61534 0.38912 0.0
O107 O 0.66294 0.61987 0.37747 0.0
N108 N 0.65745 0.50162 0.37979 0.0
C109 C 0.64577 0.44514 0.35622 0.0
C110 C 0.64385 0.45723 0.37608 0.0
C111 C 0.66857 0.51475 0.36182 0.0
N112 N 0.66131 0.48133 0.34718 0.0
O113 O 0.69082 0.47318 0.40894 0.0
H114 H 0.63333 0.43467 0.38736 0.0
H115 H 0.68297 0.5461 0.35948 0.0
O116 O 0.68715 0.57679 0.40083 0.0
C117 C 0.68686 0.43199 0.41874 0.0
O118 O 0.66325 0.4258 0.42858 0.0
N119 N 0.62947 0.56726 0.40483 0.0
C120 C 0.58289 0.63211 0.40274 0.0
C121 C 0.60714 0.64754 0.4129 0.0
C122 C 0.63023 0.61458 0.41376 0.0
C123 C 0.60533 0.55103 0.39574 0.0
C124 C 0.58205 0.58329 0.39413 0.0
H125 H 0.64881 0.62718 0.42167 0.0
H126 H 0.6036 0.51271 0.38991 0.0
H127 H 0.708 0.545 0.43951 0.0
H128 H 0.64045 0.53553 0.47982 0.0
H129 H 0.63629 0.41227 0.34897 0.0
H130 H 0.6083 0.68488 0.41997 0.0
H131 H 0.56327 0.56972 0.38664 0.0
C132 C 0.64729 0.95952 0.94012 0.0
C133 C 0.65518 0.95437 0.95986 0.0
N134 N 0.68269 0.94211 0.96047 0.0
N135 N 0.66977 0.95061 0.92839 0.0
C136 C 0.69093 0.94005 0.9412 0.0
H137 H 0.62681 0.97085 0.9347 0.0
Co138 Co 0.67336 0.95978 0.90086 0.0
C139 C 0.70389 0.86964 0.88666 0.0
O140 O 0.68657 0.86855 0.87138 0.0
N141 N 0.67877 0.97035 0.87282 0.0
C142 C 0.70517 0.98196 0.84567 0.0
C143 C 0.70511 0.97926 0.86602 0.0
C144 C 0.66301 0.96861 0.85585 0.0
N145 N 0.67877 0.97485 0.83919 0.0
O146 O 0.7012 0.01083 0.90593 0.0
H147 H 0.72371 0.98153 0.87525 0.0
H148 H 0.64077 0.96087 0.85535 0.0
O149 O 0.7014 0.90465 0.89999 0.0
C150 C 0.68951 0.05353 0.90992 0.0
O151 O 0.66194 0.05519 0.91092 0.0
N152 N 0.64373 0.91324 0.89681 0.0
C153 C 0.59453 0.85469 0.89486 0.0
C154 C 0.61919 0.83456 0.9033 0.0
C155 C 0.64344 0.8646 0.90434 0.0
C156 C 0.61961 0.93442 0.88969 0.0
C157 C 0.59509 0.90546 0.88793 0.0
H158 H 0.66154 0.84947 0.91208 0.0
H159 H 0.61927 0.97455 0.88567 0.0
H160 H 0.71243 0.93393 0.93652 0.0
H161 H 0.64185 0.96026 0.97275 0.0
H162 H 0.72337 0.98837 0.83632 0.0
H163 H 0.61957 0.79664 0.90983 0.0
H164 H 0.57669 0.92321 0.88144 0.0
C165 C 0.36603 0.55047 0.94658 0.0
C166 C 0.36026 0.55577 0.96666 0.0
N167 N 0.3325 0.56458 0.96886 0.0
N168 N 0.34204 0.55613 0.93612 0.0
C169 C 0.32205 0.56474 0.95007 0.0
H170 H 0.38623 0.54153 0.94007 0.0
Co171 Co 0.33629 0.54607 0.90872 0.0
C172 C 0.30626 0.63662 0.89484 0.0
O173 O 0.32327 0.63603 0.8794 0.0
N174 N 0.32883 0.53448 0.88088 0.0
C175 C 0.30039 0.52294 0.85471 0.0
C176 C 0.30199 0.52572 0.87504 0.0
C177 C 0.34328 0.5361 0.86332 0.0
N178 N 0.32626 0.52996 0.84725 0.0
O179 O 0.30817 0.49626 0.9149 0.0
H180 H 0.28407 0.52393 0.8849 0.0
H181 H 0.36542 0.54413 0.862 0.0
O182 O 0.30872 0.60244 0.90846 0.0
C183 C 0.31911 0.45309 0.91914 0.0
O184 O 0.34663 0.44987 0.9202 0.0
N185 N 0.36615 0.59139 0.90346 0.0
C186 C 0.41528 0.64842 0.89964 0.0
C187 C 0.39171 0.66956 0.90901 0.0
C188 C 0.36736 0.64017 0.91097 0.0
C189 C 0.38956 0.56943 0.89544 0.0
C190 C 0.41414 0.59779 0.89278 0.0
H191 H 0.34996 0.65596 0.91929 0.0
H192 H 0.38933 0.5292 0.8915 0.0
H193 H 0.29995 0.56825 0.94652 0.0
H194 H 0.37532 0.5524 0.9787 0.0
H195 H 0.28146 0.51691 0.84605 0.0
H196 H 0.39233 0.70806 0.9151 0.0
H197 H 0.43243 0.57978 0.88618 0.0
C198 C 0.64961 0.03771 0.59424 0.0
C199 C 0.66217 0.03409 0.57579 0.0
N200 N 0.69012 0.03779 0.57835 0.0
N201 N 0.66957 0.04467 0.60831 0.0
C202 C 0.69414 0.04387 0.59817 0.0
H203 H 0.6273 0.03601 0.59714 0.0
Co204 Co 0.6636 0.05535 0.63559 0.0
C205 C 0.71202 0.11774 0.64766 0.0
O206 O 0.7173 0.085 0.66206 0.0
N207 N 0.6575 0.06701 0.66307 0.0
C208 C 0.65108 0.10996 0.69141 0.0
C209 C 0.65324 0.11394 0.67111 0.0
C210 C 0.65757 0.03488 0.67895 0.0
N211 N 0.65395 0.06034 0.69641 0.0
O212 O 0.69085 0.00324 0.64139 0.0
H213 H 0.65261 0.14938 0.66281 0.0
H214 H 0.6613 0.99406 0.67785 0.0
O215 O 0.69188 0.10902 0.63555 0.0
C216 C 0.67946 0.95936 0.63904 0.0
O217 O 0.65264 0.9577 0.63438 0.0
N218 N 0.63527 0.1023 0.62962 0.0
C219 C 0.58822 0.1627 0.62294 0.0
C220 C 0.61515 0.18192 0.61899 0.0
C221 C 0.63858 0.15058 0.6221 0.0
C222 C 0.6092 0.08298 0.63325 0.0
C223 C 0.58531 0.11247 0.62988 0.0
H224 H 0.6592 0.16537 0.61867 0.0
H225 H 0.60707 0.04437 0.63891 0.0
H226 H 0.71452 0.04876 0.6051 0.0
H227 H 0.65165 0.02884 0.5616 0.0
H228 H 0.64805 0.14141 0.70177 0.0
H229 H 0.61797 0.22059 0.61348 0.0
H230 H 0.56477 0.09663 0.63313 0.0
C231 C 0.34289 0.48306 0.60089 0.0
C232 C 0.33026 0.48518 0.58243 0.0
N233 N 0.30262 0.47665 0.58487 0.0
N234 N 0.32334 0.47225 0.61485 0.0
C235 C 0.29886 0.4692 0.60462 0.0
H236 H 0.36503 0.48821 0.60388 0.0
Co237 Co 0.33027 0.46106 0.64201 0.0
C238 C 0.28358 0.39446 0.65394 0.0
O239 O 0.2779 0.42629 0.66863 0.0
N240 N 0.3374 0.44882 0.66927 0.0
C241 C 0.34565 0.40514 0.69711 0.0
C242 C 0.34285 0.40188 0.67683 0.0
C243 C 0.33728 0.48029 0.68541 0.0
N244 N 0.34201 0.45433 0.70259 0.0
O245 O 0.30151 0.50976 0.64869 0.0
H246 H 0.34394 0.36688 0.66819 0.0
H247 H 0.33277 0.52091 0.68469 0.0
O248 O 0.30345 0.40482 0.64183 0.0
C249 C 0.30818 0.55596 0.64471 0.0
O250 O 0.33293 0.56561 0.63692 0.0
N251 N 0.35975 0.41713 0.63526 0.0
C252 C 0.40795 0.36095 0.62712 0.0
C253 C 0.38137 0.34008 0.62321 0.0
C254 C 0.35735 0.3693 0.62708 0.0
C255 C 0.38546 0.4381 0.63888 0.0
C256 C 0.40992 0.41073 0.6348 0.0
H257 H 0.33701 0.35328 0.6236 0.0
H258 H 0.38687 0.47637 0.64507 0.0
H259 H 0.27881 0.46036 0.61143 0.0
H260 H 0.34053 0.49236 0.56829 0.0
H261 H 0.3497 0.3735 0.70714 0.0
H262 H 0.37925 0.30177 0.61711 0.0
H263 H 0.43017 0.42785 0.63802 0.0
C264 C 0.84592 0.52048 0.60387 0.0
C265 C 0.8366 0.51673 0.58446 0.0
N266 N 0.81047 0.5365 0.58348 0.0
N267 N 0.8258 0.54248 0.61513 0.0
C268 C 0.80442 0.5517 0.60232 0.0
H269 H 0.86612 0.50803 0.60945 0.0
Co270 Co 0.82847 0.55567 0.64247 0.0
C271 C 0.77822 0.61765 0.65049 0.0
O272 O 0.77096 0.58576 0.66474 0.0
N273 N 0.83138 0.56963 0.67003 0.0
C274 C 0.83303 0.61404 0.69842 0.0
C275 C 0.83245 0.61726 0.678 0.0
C276 C 0.83198 0.53793 0.68603 0.0
N277 N 0.83272 0.5642 0.70348 0.0
O278 O 0.80071 0.50362 0.64724 0.0
H279 H 0.8322 0.65242 0.66949 0.0
H280 H 0.83113 0.49657 0.68498 0.0
O281 O 0.80014 0.60872 0.64014 0.0
C282 C 0.81238 0.45963 0.64653 0.0
O283 O 0.83981 0.45773 0.64436 0.0
N284 N 0.85722 0.60241 0.63746 0.0
C285 C 0.90509 0.6604 0.63011 0.0
C286 C 0.87839 0.6802 0.62581 0.0
C287 C 0.85457 0.65012 0.62931 0.0
C288 C 0.883 0.58278 0.64177 0.0
C289 C 0.90729 0.61103 0.6381 0.0
H290 H 0.83423 0.66519 0.62532 0.0
H291 H 0.88463 0.54459 0.64793 0.0
H292 H 0.78459 0.56842 0.60677 0.0
H293 H 0.84834 0.50123 0.572 0.0
H294 H 0.83364 0.64591 0.7088 0.0
H295 H 0.87605 0.71813 0.61947 0.0
H296 H 0.92759 0.59468 0.64166 0.0
C297 C 0.1583 0.98754 0.60048 0.0
C298 C 0.17257 0.9869 0.58273 0.0
N299 N 0.19746 0.96346 0.5856 0.0
N300 N 0.17382 0.96425 0.61461 0.0
C301 C 0.19769 0.9498 0.60512 0.0
H302 H 0.13803 0.005 0.60305 0.0
Co303 Co 0.16183 0.96253 0.64106 0.0
C304 C 0.18474 0.86764 0.65877 0.0
O305 O 0.16105 0.86271 0.66864 0.0
N306 N 0.14913 0.96362 0.66805 0.0
C307 C 0.12221 0.96733 0.69521 0.0
C308 C 0.12238 0.96592 0.67479 0.0
C309 C 0.16488 0.96569 0.68499 0.0
N310 N 0.14891 0.96691 0.70171 0.0
O311 O 0.18952 0.01309 0.64769 0.0
H312 H 0.10371 0.96806 0.66582 0.0
H313 H 0.18762 0.96565 0.68503 0.0
O314 O 0.18829 0.90613 0.64715 0.0
C315 C 0.17903 0.05757 0.64517 0.0
O316 O 0.15249 0.06072 0.63987 0.0
N317 N 0.13305 0.91637 0.63324 0.0
C318 C 0.08591 0.85819 0.6235 0.0
C319 C 0.11255 0.83546 0.62419 0.0
C320 C 0.13609 0.86577 0.62829 0.0
C321 C 0.10786 0.93986 0.63007 0.0
C322 C 0.08385 0.91143 0.62557 0.0
H323 H 0.15651 0.84819 0.62739 0.0
H324 H 0.10619 0.98098 0.63187 0.0
H325 H 0.21522 0.93141 0.61249 0.0
H326 H 0.16519 0.0028 0.56877 0.0
H327 H 0.10374 0.9703 0.70458 0.0
H328 H 0.11511 0.79473 0.62157 0.0
H329 H 0.06373 0.93065 0.62455 0.0
C330 C 0.85457 0.49656 0.94415 0.0
C331 C 0.84552 0.50125 0.96359 0.0
N332 N 0.82027 0.47802 0.96532 0.0
N333 N 0.83519 0.47056 0.93355 0.0
C334 C 0.81458 0.4599 0.94679 0.0
H335 H 0.8739 0.51165 0.93804 0.0
Co336 Co 0.837 0.45539 0.90635 0.0
C337 C 0.78552 0.39569 0.90029 0.0
O338 O 0.7776 0.42703 0.88602 0.0
N339 N 0.83886 0.43946 0.87889 0.0
C340 C 0.83804 0.39351 0.85084 0.0
C341 C 0.83858 0.39139 0.8713 0.0
C342 C 0.83915 0.47024 0.86261 0.0
N343 N 0.83839 0.44305 0.84539 0.0
O344 O 0.80967 0.50685 0.90153 0.0
H345 H 0.83796 0.35671 0.88009 0.0
H346 H 0.83895 0.51166 0.8633 0.0
O347 O 0.80842 0.40382 0.9096 0.0
C348 C 0.82104 0.55096 0.90062 0.0
O349 O 0.84856 0.55409 0.90173 0.0
N350 N 0.86533 0.40849 0.91139 0.0
C351 C 0.9127 0.34895 0.91736 0.0
C352 C 0.88606 0.3293 0.92176 0.0
C353 C 0.86245 0.3602 0.91898 0.0
C354 C 0.89113 0.42814 0.90721 0.0
C355 C 0.91524 0.39903 0.91021 0.0
H356 H 0.84208 0.34502 0.92281 0.0
H357 H 0.89287 0.46674 0.90148 0.0
H358 H 0.79572 0.43917 0.94286 0.0
H359 H 0.85658 0.52131 0.97536 0.0
H360 H 0.83724 0.36112 0.84071 0.0
H361 H 0.88361 0.29067 0.9274 0.0
H362 H 0.93562 0.41507 0.90664 0.0
C363 C 0.15029 0.01319 0.94294 0.0
C364 C 0.15745 0.01042 0.96285 0.0
N365 N 0.18266 0.0331 0.96531 0.0
N366 N 0.17094 0.03733 0.93292 0.0
C367 C 0.19041 0.04878 0.94693 0.0
H368 H 0.13122 0.99871 0.93619 0.0
Co369 Co 0.17142 0.05138 0.90568 0.0
C370 C 0.22242 0.11375 0.90177 0.0
O371 O 0.2318 0.08334 0.8876 0.0
N372 N 0.17176 0.06626 0.87819 0.0
C373 C 0.17085 0.11147 0.8501 0.0
C374 C 0.17104 0.1141 0.87053 0.0
C375 C 0.17199 0.03505 0.86198 0.0
N376 N 0.1714 0.06177 0.84467 0.0
O377 O 0.19975 0.00082 0.9023 0.0
H378 H 0.17069 0.14899 0.87928 0.0
H379 H 0.17198 0.99365 0.86282 0.0
O380 O 0.19899 0.10429 0.91013 0.0
C381 C 0.18864 0.95645 0.90142 0.0
O382 O 0.16108 0.95306 0.90143 0.0
N383 N 0.14211 0.09718 0.90931 0.0
C384 C 0.09336 0.15343 0.91475 0.0
C385 C 0.11937 0.17398 0.92039 0.0
C386 C 0.14366 0.14472 0.91784 0.0
C387 C 0.11699 0.07689 0.90367 0.0
C388 C 0.09222 0.10431 0.90637 0.0
H389 H 0.16344 0.16025 0.92289 0.0
H390 H 0.11627 0.0388 0.89726 0.0
H391 H 0.21019 0.06743 0.94372 0.0
H392 H 0.14493 0.99354 0.97461 0.0
H393 H 0.17051 0.14378 0.83999 0.0
H394 H 0.12077 0.21178 0.92706 0.0
H395 H 0.07238 0.08753 0.90183 0.0
C396 C 0.13807 0.46769 0.44572 0.0
C397 C 0.1454 0.47338 0.46555 0.0
N398 N 0.17362 0.47251 0.46685 0.0
N399 N 0.16161 0.46226 0.43471 0.0
C400 C 0.18291 0.46602 0.44799 0.0
H401 H 0.11694 0.46612 0.43981 0.0
Co402 Co 0.16496 0.44794 0.40745 0.0
C403 C 0.21741 0.38927 0.40666 0.0
O404 O 0.2279 0.42122 0.39348 0.0
N405 N 0.1688 0.4327 0.38004 0.0
C406 C 0.17223 0.38669 0.35217 0.0
C407 C 0.1705 0.38466 0.37257 0.0
C408 C 0.16955 0.46344 0.36376 0.0
N409 N 0.17156 0.43619 0.34656 0.0
O410 O 0.19263 0.50047 0.40545 0.0
H411 H 0.17024 0.35005 0.38143 0.0
H412 H 0.16791 0.50477 0.36445 0.0
O413 O 0.19285 0.39674 0.41359 0.0
C414 C 0.18139 0.54469 0.4045 0.0
O415 O 0.15383 0.54771 0.4041 0.0
N416 N 0.13627 0.39928 0.40934 0.0
C417 C 0.09053 0.33289 0.4097 0.0
C418 C 0.11414 0.32302 0.42163 0.0
C419 C 0.13696 0.3568 0.42122 0.0
C420 C 0.1131 0.4103 0.39822 0.0
C421 C 0.09012 0.37725 0.39796 0.0
H422 H 0.15495 0.34917 0.43059 0.0
H423 H 0.11263 0.44488 0.38934 0.0
H424 H 0.20485 0.46226 0.444 0.0
H425 H 0.13114 0.47751 0.47803 0.0
H426 H 0.17386 0.35409 0.34221 0.0
H427 H 0.11505 0.28929 0.43101 0.0
H428 H 0.07202 0.38666 0.38887 0.0
C429 C 0.85744 0.00598 0.44161 0.0
C430 C 0.84939 0.00615 0.4614 0.0
N431 N 0.82134 0.01247 0.46213 0.0
N432 N 0.83458 0.01331 0.43002 0.0
C433 C 0.8129 0.01648 0.44297 0.0
H434 H 0.87864 0.00158 0.43606 0.0
Co435 Co 0.83222 0.01933 0.40231 0.0
C436 C 0.80627 0.12009 0.39592 0.0
O437 O 0.82534 0.1283 0.38211 0.0
N438 N 0.82841 0.02427 0.37402 0.0
C439 C 0.80443 0.03047 0.34552 0.0
C440 C 0.80254 0.02911 0.36587 0.0
C441 C 0.84573 0.02114 0.35791 0.0
N442 N 0.8316 0.02563 0.34044 0.0
O443 O 0.80208 0.97068 0.40238 0.0
H444 H 0.78318 0.0312 0.37429 0.0
H445 H 0.86811 0.01531 0.35865 0.0
O446 O 0.80596 0.07759 0.40549 0.0
C447 C 0.81136 0.92574 0.39888 0.0
O448 O 0.83846 0.92003 0.39582 0.0
N449 N 0.86376 0.06339 0.40282 0.0
C450 C 0.91407 0.11844 0.40555 0.0
C451 C 0.88973 0.13577 0.41526 0.0
C452 C 0.86499 0.10722 0.41405 0.0
C453 C 0.88771 0.04395 0.39468 0.0
C454 C 0.91286 0.07145 0.39532 0.0
H455 H 0.84713 0.11955 0.42275 0.0
H456 H 0.88756 0.00599 0.38821 0.0
H457 H 0.79132 0.02259 0.43846 0.0
H458 H 0.86298 0.00159 0.47423 0.0
H459 H 0.78698 0.03321 0.33521 0.0
H460 H 0.88996 0.17028 0.42428 0.0
H461 H 0.93119 0.05566 0.38799 0.0
C462 C 0.16309 0.52482 0.10094 0.0
C463 C 0.17714 0.52614 0.08311 0.0
N464 N 0.20332 0.54381 0.08642 0.0
N465 N 0.18004 0.542 0.11562 0.0
C466 C 0.20457 0.55343 0.10632 0.0
H467 H 0.14203 0.51048 0.10314 0.0
Co468 Co 0.16872 0.5394 0.14233 0.0
C469 C 0.1972 0.62685 0.16296 0.0
O470 O 0.1752 0.63247 0.1746 0.0
N471 N 0.15648 0.53357 0.16929 0.0
C472 C 0.1285 0.52287 0.1956 0.0
C473 C 0.1296 0.52689 0.17526 0.0
C474 C 0.17151 0.53039 0.18653 0.0
N475 N 0.1548 0.5256 0.2028 0.0
O476 O 0.19521 0.4849 0.14707 0.0
H477 H 0.11158 0.52316 0.1657 0.0
H478 H 0.1942 0.53271 0.18716 0.0
O479 O 0.19721 0.59163 0.14955 0.0
C480 C 0.18514 0.44112 0.14243 0.0
O481 O 0.15932 0.43908 0.13551 0.0
N482 N 0.14101 0.59025 0.13672 0.0
C483 C 0.09494 0.65492 0.13081 0.0
C484 C 0.12209 0.67515 0.13276 0.0
C485 C 0.14501 0.64202 0.135 0.0
C486 C 0.11519 0.57011 0.1326 0.0
C487 C 0.09179 0.60161 0.12993 0.0
H488 H 0.16572 0.65855 0.13518 0.0
H489 H 0.11254 0.52895 0.13205 0.0
H490 H 0.22329 0.56621 0.11405 0.0
H491 H 0.1688 0.51425 0.06879 0.0
H492 H 0.10973 0.5168 0.2044 0.0
H493 H 0.12557 0.71618 0.13245 0.0
H494 H 0.07129 0.58431 0.12789 0.0
C495 C 0.85315 0.95536 0.09558 0.0
C496 C 0.84341 0.9515 0.07625 0.0
N497 N 0.81589 0.93927 0.07681 0.0
N498 N 0.83188 0.94554 0.10828 0.0
C499 C 0.80951 0.93564 0.09641 0.0
H500 H 0.87407 0.96675 0.1001 0.0
Co501 Co 0.83163 0.95425 0.13596 0.0
C502 C 0.80592 0.86055 0.1521 0.0
O503 O 0.82524 0.86165 0.16612 0.0
N504 N 0.82992 0.9644 0.16415 0.0
C505 C 0.80732 0.97252 0.19314 0.0
C506 C 0.80441 0.96909 0.17293 0.0
C507 C 0.84825 0.96621 0.17977 0.0
N508 N 0.83479 0.97042 0.19751 0.0
O509 O 0.80091 0.00167 0.13324 0.0
H510 H 0.7845 0.96763 0.16518 0.0
H511 H 0.87075 0.96241 0.17848 0.0
O512 O 0.8057 0.89534 0.13859 0.0
C513 C 0.80727 0.04589 0.12653 0.0
O514 O 0.83308 0.05437 0.12045 0.0
N515 N 0.86357 0.9115 0.13779 0.0
C516 C 0.91475 0.85904 0.13646 0.0
C517 C 0.88966 0.83442 0.13112 0.0
C518 C 0.86441 0.86173 0.13132 0.0
C519 C 0.88795 0.93654 0.14221 0.0
C520 C 0.91375 0.91095 0.14187 0.0
H521 H 0.84581 0.84322 0.12554 0.0
H522 H 0.88743 0.9771 0.14559 0.0
H523 H 0.78853 0.92909 0.10208 0.0
H524 H 0.85549 0.95847 0.06285 0.0
H525 H 0.79045 0.97538 0.20393 0.0
H526 H 0.88974 0.79495 0.12605 0.0
H527 H 0.93275 0.93167 0.14566 0.0
C528 C 0.31512 0.84883 0.16447 0.0
C529 C 0.3029 0.89504 0.15817 0.0
C530 C 0.29931 0.80345 0.16565 0.0
C531 C 0.27057 0.80401 0.16024 0.0
C532 C 0.258 0.85065 0.15408 0.0
C533 C 0.27427 0.89566 0.15323 0.0
C534 C 0.31343 0.75479 0.17256 0.0
C535 C 0.22743 0.85284 0.14812 0.0
C536 C 0.23431 0.67889 0.14563 0.0
C537 C 0.21863 0.66818 0.16285 0.0
C538 C 0.25161 0.72261 0.14463 0.0
C539 C 0.25352 0.756 0.16133 0.0
C540 C 0.23863 0.7441 0.179 0.0
C541 C 0.22128 0.70058 0.1795 0.0
C542 C 0.26706 0.73401 0.12548 0.0
C543 C 0.24041 0.7781 0.19724 0.0
H544 H 0.33722 0.84797 0.16837 0.0
H545 H 0.2647 0.93107 0.14821 0.0
H546 H 0.30232 0.73923 0.18578 0.0
H547 H 0.31228 0.72526 0.16064 0.0
H548 H 0.33585 0.76094 0.17654 0.0
H549 H 0.22086 0.89194 0.14354 0.0
H550 H 0.22347 0.82602 0.13555 0.0
H551 H 0.21403 0.8404 0.16076 0.0
H552 H 0.23216 0.65435 0.13264 0.0
H553 H 0.20933 0.69241 0.19289 0.0
H554 H 0.28984 0.73867 0.12847 0.0
H555 H 0.25939 0.7707 0.11915 0.0
H556 H 0.26422 0.70331 0.11412 0.0
H557 H 0.26267 0.78368 0.20166 0.0
H558 H 0.22874 0.76201 0.21015 0.0
H559 H 0.23165 0.81646 0.19377 0.0
C560 C 0.72796 0.58898 0.14476 0.0
C561 C 0.69939 0.59328 0.14954 0.0
C562 C 0.74546 0.63247 0.14458 0.0
C563 C 0.73415 0.68115 0.14952 0.0
C564 C 0.70544 0.68541 0.15472 0.0
C565 C 0.68842 0.64153 0.15457 0.0
C566 C 0.77596 0.62649 0.13887 0.0
C567 C 0.69266 0.73638 0.16042 0.0
C568 C 0.78359 0.78484 0.16819 0.0
C569 C 0.78648 0.81625 0.15133 0.0
C570 C 0.7667 0.74085 0.16776 0.0
C571 C 0.75244 0.7275 0.14996 0.0
C572 C 0.75509 0.75916 0.13287 0.0
C573 C 0.77198 0.80341 0.13379 0.0
C574 C 0.76411 0.70865 0.18639 0.0
C575 C 0.74028 0.74601 0.11359 0.0
H576 H 0.73647 0.55189 0.14066 0.0
H577 H 0.66636 0.64513 0.15832 0.0
H578 H 0.78079 0.65105 0.12581 0.0
H579 H 0.7896 0.63944 0.15133 0.0
H580 H 0.7814 0.5862 0.13512 0.0
H581 H 0.66999 0.73313 0.16413 0.0
H582 H 0.70386 0.75266 0.17351 0.0
H583 H 0.69507 0.764 0.14797 0.0
H584 H 0.7946 0.79465 0.18185 0.0
H585 H 0.77429 0.82731 0.12068 0.0
H586 H 0.77136 0.66899 0.18332 0.0
H587 H 0.74177 0.70623 0.19101 0.0
H588 H 0.77654 0.7244 0.19904 0.0
H589 H 0.74683 0.70738 0.10843 0.0
H590 H 0.7448 0.77415 0.10159 0.0
H591 H 0.71725 0.74469 0.11605 0.0
C592 C 0.26975 0.09981 0.4118 0.0
C593 C 0.29531 0.09503 0.42201 0.0
C594 C 0.25597 0.14737 0.41071 0.0
C595 C 0.26789 0.19073 0.42031 0.0
C596 C 0.2928 0.18524 0.43163 0.0
C597 C 0.30631 0.13754 0.43222 0.0
C598 C 0.2295 0.15181 0.39842 0.0
C599 C 0.30591 0.23027 0.44237 0.0
C600 C 0.25314 0.32224 0.39851 0.0
C601 C 0.23181 0.34035 0.41109 0.0
C602 C 0.26499 0.27356 0.40135 0.0
C603 C 0.25554 0.24253 0.41733 0.0
C604 C 0.23455 0.26116 0.43041 0.0
C605 C 0.22284 0.30977 0.42708 0.0
C606 C 0.28727 0.25492 0.38702 0.0
C607 C 0.22427 0.22955 0.44779 0.0
H608 H 0.26129 0.0671 0.40379 0.0
H609 H 0.32597 0.13386 0.44027 0.0
H610 H 0.21265 0.17057 0.40722 0.0
H611 H 0.23359 0.17627 0.3852 0.0
H612 H 0.2218 0.11389 0.39316 0.0
H613 H 0.32368 0.21853 0.4521 0.0
H614 H 0.31384 0.25832 0.43129 0.0
H615 H 0.29 0.25023 0.45165 0.0
H616 H 0.26003 0.34548 0.38604 0.0
H617 H 0.20646 0.32368 0.43694 0.0
H618 H 0.28017 0.21904 0.37965 0.0
H619 H 0.30686 0.24592 0.39527 0.0
H620 H 0.29219 0.28363 0.37531 0.0
H621 H 0.21485 0.19331 0.44225 0.0
H622 H 0.20836 0.25018 0.45689 0.0
H623 H 0.24218 0.21903 0.45757 0.0
C624 C 0.75945 0.16074 0.4014 0.0
C625 C 0.78874 0.16347 0.40232 0.0
C626 C 0.74298 0.2046 0.40497 0.0
C627 C 0.75625 0.25153 0.41015 0.0
C628 C 0.78585 0.25345 0.41205 0.0
C629 C 0.80176 0.20959 0.40774 0.0
C630 C 0.71154 0.20132 0.40233 0.0
C631 C 0.80077 0.30212 0.41817 0.0
C632 C 0.71945 0.37755 0.39878 0.0
C633 C 0.70661 0.38866 0.41709 0.0
C634 C 0.73542 0.33273 0.39628 0.0
C635 C 0.73938 0.29921 0.41267 0.0
C636 C 0.72729 0.31142 0.43141 0.0
C637 C 0.7106 0.35556 0.43328 0.0
C638 C 0.74737 0.32051 0.37594 0.0
C639 C 0.73186 0.27773 0.44942 0.0
H640 H 0.74955 0.12502 0.39698 0.0
H641 H 0.82451 0.21138 0.40847 0.0
H642 H 0.70073 0.21423 0.41611 0.0
H643 H 0.70487 0.22728 0.39011 0.0
H644 H 0.70443 0.1618 0.39871 0.0
H645 H 0.82356 0.29586 0.42079 0.0
H646 H 0.79835 0.33146 0.40634 0.0
H647 H 0.79127 0.31795 0.43199 0.0
H648 H 0.71596 0.40275 0.38617 0.0
H649 H 0.70063 0.36426 0.44744 0.0
H650 H 0.73951 0.28266 0.37079 0.0
H651 H 0.7706 0.31792 0.37678 0.0
H652 H 0.74172 0.34982 0.36462 0.0
H653 H 0.72255 0.23934 0.44674 0.0
H654 H 0.72236 0.29419 0.46316 0.0
H655 H 0.75468 0.27213 0.452 0.0
C656 C 0.69298 0.1451 0.92002 0.0
C657 C 0.7057 0.10166 0.91158 0.0
C658 C 0.70632 0.19296 0.91968 0.0
C659 C 0.73294 0.19762 0.91051 0.0
C660 C 0.74641 0.15354 0.90264 0.0
C661 C 0.73266 0.10588 0.90336 0.0
C662 C 0.69144 0.23887 0.92849 0.0
C663 C 0.7748 0.15713 0.8927 0.0
C664 C 0.75183 0.32786 0.88916 0.0
C665 C 0.7705 0.34682 0.90358 0.0
C666 C 0.73956 0.27923 0.89122 0.0
C667 C 0.7459 0.24913 0.90821 0.0
C668 C 0.7642 0.26859 0.92306 0.0
C669 C 0.77634 0.31716 0.92054 0.0
C670 C 0.72013 0.25973 0.87506 0.0
C671 C 0.77114 0.23794 0.94151 0.0
H672 H 0.67222 0.14193 0.92656 0.0
H673 H 0.7425 0.07243 0.89676 0.0
H674 H 0.70545 0.25926 0.93912 0.0
H675 H 0.68602 0.26626 0.91645 0.0
H676 H 0.67183 0.22805 0.93642 0.0
H677 H 0.78317 0.11891 0.88843 0.0
H678 H 0.77314 0.18102 0.87907 0.0
H679 H 0.79009 0.17615 0.9028 0.0
H680 H 0.74737 0.3504 0.87596 0.0
H681 H 0.79059 0.33179 0.93183 0.0
H682 H 0.69916 0.25115 0.88145 0.0
H683 H 0.72848 0.22345 0.86874 0.0
H684 H 0.71749 0.28776 0.86274 0.0
H685 H 0.75158 0.22828 0.94968 0.0
H686 H 0.78544 0.25891 0.95179 0.0
H687 H 0.78124 0.20123 0.93719 0.0
C688 C 0.27553 0.40288 0.9114 0.0
C689 C 0.30213 0.40573 0.92031 0.0
C690 C 0.26141 0.3557 0.90973 0.0
C691 C 0.27412 0.31068 0.91736 0.0
C692 C 0.30022 0.314 0.92738 0.0
C693 C 0.31396 0.36143 0.92864 0.0
C694 C 0.2336 0.35362 0.89892 0.0
C695 C 0.31428 0.26707 0.93597 0.0
C696 C 0.22987 0.19045 0.92359 0.0
C697 C 0.2369 0.16258 0.90635 0.0
C698 C 0.24188 0.23863 0.92745 0.0
C699 C 0.26119 0.25959 0.91365 0.0
C700 C 0.26862 0.23135 0.89634 0.0
C701 C 0.2565 0.18304 0.89296 0.0
C702 C 0.23377 0.2672 0.94621 0.0
C703 C 0.28912 0.25248 0.88125 0.0
H704 H 0.26636 0.43697 0.90487 0.0
H705 H 0.33443 0.36351 0.93571 0.0
H706 H 0.23601 0.33156 0.88484 0.0
H707 H 0.21772 0.33344 0.90813 0.0
H708 H 0.22553 0.39242 0.89524 0.0
H709 H 0.33325 0.27688 0.94487 0.0
H710 H 0.29943 0.2457 0.94562 0.0
H711 H 0.32063 0.24094 0.92368 0.0
H712 H 0.21487 0.17467 0.93409 0.0
H713 H 0.26188 0.16187 0.87955 0.0
H714 H 0.22387 0.3043 0.94226 0.0
H715 H 0.25278 0.27601 0.95517 0.0
H716 H 0.2189 0.24506 0.95563 0.0
H717 H 0.28132 0.2896 0.8754 0.0
H718 H 0.29246 0.22593 0.86847 0.0
H719 H 0.30969 0.25994 0.88849 0.0
C720 C 0.683 0.86496 0.63399 0.0
C721 C 0.69547 0.91075 0.64062 0.0
C722 C 0.6971 0.81797 0.63532 0.0
C723 C 0.72437 0.81632 0.64368 0.0
C724 C 0.73724 0.86237 0.65034 0.0
C725 C 0.72267 0.90919 0.64863 0.0
C726 C 0.6827 0.76998 0.62784 0.0
C727 C 0.76623 0.86201 0.65946 0.0
C728 C 0.74674 0.68646 0.66391 0.0
C729 C 0.76378 0.66773 0.64845 0.0
C730 C 0.73445 0.73532 0.66278 0.0
C731 C 0.73898 0.76602 0.64567 0.0
C732 C 0.75603 0.7472 0.62995 0.0
C733 C 0.76832 0.69841 0.63157 0.0
C734 C 0.71651 0.75405 0.6799 0.0
C735 C 0.76102 0.77835 0.61132 0.0
H736 H 0.66206 0.86571 0.62762 0.0
H737 H 0.73242 0.94438 0.65378 0.0
H738 H 0.69591 0.75087 0.61639 0.0
H739 H 0.67995 0.7425 0.6403 0.0
H740 H 0.66176 0.77803 0.62122 0.0
H741 H 0.77344 0.90105 0.66371 0.0
H742 H 0.76634 0.83745 0.67296 0.0
H743 H 0.78152 0.8453 0.64878 0.0
H744 H 0.74338 0.66328 0.6771 0.0
H745 H 0.78141 0.68417 0.61954 0.0
H746 H 0.69463 0.76011 0.6747 0.0
H747 H 0.72444 0.79151 0.6854 0.0
H748 H 0.71616 0.72661 0.69255 0.0
H749 H 0.74075 0.78543 0.60361 0.0
H750 H 0.77549 0.7589 0.60073 0.0
H751 H 0.76999 0.81628 0.61529 0.0
C752 C 0.19109 0.7734 0.65634 0.0
C753 C 0.20324 0.82235 0.65718 0.0
C754 C 0.20768 0.72931 0.65435 0.0
C755 C 0.23728 0.73404 0.65388 0.0
C756 C 0.24973 0.78342 0.65505 0.0
C757 C 0.23249 0.8272 0.65629 0.0
C758 C 0.19347 0.67774 0.65235 0.0
C759 C 0.28123 0.78992 0.65511 0.0
C760 C 0.27912 0.6135 0.6661 0.0
C761 C 0.28814 0.59835 0.64712 0.0
C762 C 0.26294 0.65819 0.66859 0.0
C763 C 0.25502 0.68726 0.65162 0.0
C764 C 0.26347 0.67088 0.63236 0.0
C765 C 0.28038 0.62711 0.63039 0.0
C766 C 0.2549 0.675 0.6894 0.0
C767 C 0.25469 0.69958 0.61382 0.0
H768 H 0.1684 0.76963 0.65669 0.0
H769 H 0.24185 0.86506 0.65698 0.0
H770 H 0.19995 0.6591 0.63817 0.0
H771 H 0.20007 0.6522 0.6647 0.0
H772 H 0.17019 0.68083 0.65253 0.0
H773 H 0.28762 0.83052 0.6573 0.0
H774 H 0.29065 0.76642 0.66717 0.0
H775 H 0.29011 0.77606 0.64078 0.0
H776 H 0.28564 0.59152 0.67901 0.0
H777 H 0.2876 0.61523 0.61574 0.0
H778 H 0.23171 0.67623 0.69086 0.0
H779 H 0.26283 0.71437 0.69223 0.0
H780 H 0.26343 0.64904 0.70104 0.0
H781 H 0.23147 0.70316 0.61331 0.0
H782 H 0.26187 0.68029 0.59992 0.0
H783 H 0.26346 0.73896 0.61414 0.0
C784 C 0.76789 0.40947 0.65272 0.0
C785 C 0.79612 0.41107 0.64679 0.0
C786 C 0.75301 0.36271 0.65303 0.0
C787 C 0.7666 0.31682 0.64699 0.0
C788 C 0.79495 0.31854 0.64074 0.0
C789 C 0.80935 0.36541 0.64085 0.0
C790 C 0.72288 0.36227 0.66001 0.0
C791 C 0.81018 0.27078 0.63393 0.0
C792 C 0.74122 0.18574 0.66409 0.0
C793 C 0.72647 0.16817 0.64726 0.0
C794 C 0.7536 0.23465 0.66442 0.0
C795 C 0.75157 0.2666 0.64741 0.0
C796 C 0.73678 0.24902 0.63035 0.0
C797 C 0.72427 0.20018 0.63053 0.0
C798 C 0.76901 0.25204 0.68295 0.0
C799 C 0.73453 0.28149 0.61179 0.0
H800 H 0.75756 0.44456 0.65734 0.0
H801 H 0.83109 0.36621 0.63605 0.0
H802 H 0.7091 0.34663 0.6481 0.0
H803 H 0.72074 0.33675 0.67315 0.0
H804 H 0.7153 0.40113 0.66415 0.0
H805 H 0.832 0.2789 0.62898 0.0
H806 H 0.811 0.24253 0.64627 0.0
H807 H 0.79862 0.25255 0.62139 0.0
H808 H 0.74274 0.16157 0.67718 0.0
H809 H 0.71292 0.1869 0.61747 0.0
H810 H 0.76055 0.28938 0.68815 0.0
H811 H 0.79157 0.25787 0.67949 0.0
H812 H 0.76731 0.22391 0.69532 0.0
H813 H 0.72524 0.31932 0.61551 0.0
H814 H 0.7215 0.26302 0.60003 0.0
H815 H 0.7558 0.2887 0.60564 0.0
C816 C 0.25291 0.32652 0.66886 0.0
C817 C 0.26917 0.34404 0.65279 0.0
C818 C 0.23989 0.27818 0.66831 0.0
C819 C 0.24291 0.2467 0.65119 0.0
C820 C 0.25944 0.26402 0.63496 0.0
C821 C 0.27244 0.31236 0.63599 0.0
C822 C 0.22256 0.26109 0.68596 0.0
C823 C 0.26291 0.23193 0.61634 0.0
C824 C 0.22341 0.10487 0.65452 0.0
C825 C 0.19592 0.10522 0.64696 0.0
C826 C 0.23907 0.15061 0.65602 0.0
C827 C 0.22701 0.19754 0.64965 0.0
C828 C 0.19937 0.19788 0.64191 0.0
C829 C 0.18419 0.15193 0.64075 0.0
C830 C 0.26842 0.14884 0.66451 0.0
C831 C 0.18575 0.24688 0.63481 0.0
H832 H 0.25049 0.35044 0.682 0.0
H833 H 0.28495 0.32556 0.6235 0.0
H834 H 0.20025 0.257 0.68144 0.0
H835 H 0.22978 0.22298 0.69119 0.0
H836 H 0.22374 0.28857 0.69863 0.0
H837 H 0.27756 0.2497 0.60546 0.0
H838 H 0.27089 0.19329 0.62025 0.0
H839 H 0.24221 0.22662 0.60899 0.0
H840 H 0.2326 0.06898 0.65936 0.0
H841 H 0.16303 0.15272 0.63477 0.0
H842 H 0.26979 0.17393 0.67788 0.0
H843 H 0.28364 0.16375 0.65341 0.0
H844 H 0.27478 0.1094 0.66879 0.0
H845 H 0.18444 0.27479 0.64729 0.0
H846 H 0.16425 0.24045 0.62884 0.0
H847 H 0.19872 0.26466 0.62293 0.0
C848 C 0.7749 0.5971 0.9015 0.0
C849 C 0.80414 0.59827 0.89913 0.0
C850 C 0.75904 0.64241 0.90061 0.0
C851 C 0.77277 0.68974 0.8971 0.0
C852 C 0.80227 0.69111 0.89479 0.0
C853 C 0.8176 0.64539 0.89589 0.0
C854 C 0.72757 0.63962 0.90322 0.0
C855 C 0.81762 0.74075 0.8908 0.0
C856 C 0.72984 0.79484 0.87302 0.0
C857 C 0.72349 0.82643 0.88937 0.0
C858 C 0.74611 0.75061 0.87535 0.0
C859 C 0.75614 0.73741 0.89454 0.0
C860 C 0.75033 0.76969 0.91107 0.0
C861 C 0.73414 0.81412 0.90827 0.0
C862 C 0.75222 0.71759 0.85729 0.0
C863 C 0.76066 0.75669 0.93176 0.0
H864 H 0.76443 0.56084 0.90416 0.0
H865 H 0.84021 0.64663 0.89404 0.0
H866 H 0.7208 0.66608 0.91528 0.0
H867 H 0.717 0.65212 0.88929 0.0
H868 H 0.72029 0.60029 0.90689 0.0
H869 H 0.84076 0.73549 0.89014 0.0
H870 H 0.81044 0.75716 0.87641 0.0
H871 H 0.81274 0.76922 0.90263 0.0
H872 H 0.7218 0.8044 0.85835 0.0
H873 H 0.72908 0.83827 0.92097 0.0
H874 H 0.7432 0.67878 0.85945 0.0
H875 H 0.77524 0.71295 0.85542 0.0
H876 H 0.74344 0.73401 0.84333 0.0
H877 H 0.75167 0.71941 0.93652 0.0
H878 H 0.75484 0.78637 0.94295 0.0
H879 H 0.78384 0.75241 0.93172 0.0
C880 C 0.23489 0.91098 0.90429 0.0
C881 C 0.20574 0.90915 0.90145 0.0
C882 C 0.25087 0.86573 0.90475 0.0
C883 C 0.23735 0.81774 0.90218 0.0
C884 C 0.20791 0.81573 0.89953 0.0
C885 C 0.19248 0.86141 0.89922 0.0
C886 C 0.28227 0.86926 0.90762 0.0
C887 C 0.19276 0.76537 0.89654 0.0
C888 C 0.28038 0.70981 0.88009 0.0
C889 C 0.28674 0.68023 0.89695 0.0
C890 C 0.2642 0.75436 0.88164 0.0
C891 C 0.25417 0.76997 0.90056 0.0
C892 C 0.25996 0.73976 0.91764 0.0
C893 C 0.27614 0.69494 0.91562 0.0
C894 C 0.25816 0.78508 0.86302 0.0
C895 C 0.24954 0.75534 0.93804 0.0
H896 H 0.24521 0.94773 0.90619 0.0
H897 H 0.16993 0.8596 0.89706 0.0
H898 H 0.28895 0.84436 0.92017 0.0
H899 H 0.29313 0.85527 0.89401 0.0
H900 H 0.28932 0.9091 0.91072 0.0
H901 H 0.16959 0.77021 0.89581 0.0
H902 H 0.19992 0.74712 0.88245 0.0
H903 H 0.19782 0.73863 0.90887 0.0
H904 H 0.28834 0.69838 0.86558 0.0
H905 H 0.28118 0.67234 0.92871 0.0
H906 H 0.26694 0.82428 0.86459 0.0
H907 H 0.23515 0.78904 0.8609 0.0
H908 H 0.26721 0.76718 0.8494 0.0
H909 H 0.25848 0.7932 0.94218 0.0
H910 H 0.25534 0.7271 0.94974 0.0
H911 H 0.22635 0.75954 0.93785 0.0
C912 C 0.18518 0.63975 0.40185 0.0
C913 C 0.19842 0.59216 0.40443 0.0
C914 C 0.20066 0.68545 0.40162 0.0
C915 C 0.23014 0.68364 0.40411 0.0
C916 C 0.24363 0.63585 0.40714 0.0
C917 C 0.2276 0.59058 0.4072 0.0
C918 C 0.18552 0.73555 0.39818 0.0
C919 C 0.27505 0.63249 0.40991 0.0
C920 C 0.27299 0.79 0.38069 0.0
C921 C 0.2794 0.82105 0.3972 0.0
C922 C 0.25689 0.74543 0.38279 0.0
C923 C 0.24701 0.73129 0.4019 0.0
C924 C 0.25296 0.76289 0.41863 0.0
C925 C 0.26904 0.80766 0.41607 0.0
C926 C 0.2507 0.71319 0.36452 0.0
C927 C 0.24276 0.74893 0.43925 0.0
H928 H 0.16262 0.64139 0.39974 0.0
H929 H 0.23793 0.55398 0.40937 0.0
H930 H 0.19078 0.76333 0.41018 0.0
H931 H 0.19251 0.75256 0.38385 0.0
H932 H 0.16234 0.7307 0.39767 0.0
H933 H 0.28207 0.59294 0.41346 0.0
H934 H 0.28578 0.64514 0.39607 0.0
H935 H 0.28189 0.65854 0.4221 0.0
H936 H 0.28078 0.8003 0.36604 0.0
H937 H 0.27411 0.83135 0.4289 0.0
H938 H 0.22766 0.70909 0.36253 0.0
H939 H 0.25945 0.67411 0.36649 0.0
H940 H 0.25967 0.72994 0.35069 0.0
H941 H 0.21956 0.74489 0.43923 0.0
H942 H 0.24877 0.77799 0.45063 0.0
H943 H 0.25164 0.71132 0.44368 0.0
C944 C 0.76492 0.88244 0.40495 0.0
C945 C 0.79263 0.8804 0.39791 0.0
C946 C 0.74751 0.83882 0.40424 0.0
C947 C 0.75798 0.79241 0.39607 0.0
C948 C 0.7859 0.7903 0.38892 0.0
C949 C 0.80288 0.83414 0.39002 0.0
C950 C 0.71791 0.84239 0.41219 0.0
C951 C 0.79778 0.74185 0.37985 0.0
C952 C 0.72198 0.66533 0.40747 0.0
C953 C 0.70513 0.65857 0.39048 0.0
C954 C 0.73905 0.70902 0.40964 0.0
C955 C 0.73955 0.74639 0.39432 0.0
C956 C 0.723 0.73916 0.37697 0.0
C957 C 0.70589 0.69555 0.37532 0.0
C958 C 0.75625 0.71551 0.42842 0.0
C959 C 0.7233 0.77761 0.36014 0.0
H960 H 0.75693 0.91796 0.41117 0.0
H961 H 0.82424 0.83221 0.38447 0.0
H962 H 0.70268 0.83484 0.39998 0.0
H963 H 0.71448 0.81272 0.42377 0.0
H964 H 0.71329 0.88063 0.41875 0.0
H965 H 0.82002 0.74641 0.37516 0.0
H966 H 0.79651 0.70997 0.39073 0.0
H967 H 0.78516 0.73052 0.36662 0.0
H968 H 0.72124 0.63721 0.41935 0.0
H969 H 0.69296 0.69052 0.36213 0.0
H970 H 0.75048 0.75192 0.43597 0.0
H971 H 0.77888 0.71796 0.42462 0.0
H972 H 0.75317 0.6834 0.43907 0.0
H973 H 0.71642 0.81566 0.36572 0.0
H974 H 0.70938 0.76611 0.34759 0.0
H975 H 0.74499 0.78216 0.35436 0.0
C976 C 0.2794 0.18538 0.13944 0.0
C977 C 0.27026 0.14966 0.1537 0.0
C978 C 0.26704 0.23418 0.13798 0.0
C979 C 0.24514 0.24811 0.15123 0.0
C980 C 0.23615 0.21259 0.16589 0.0
C981 C 0.24866 0.16374 0.16686 0.0
C982 C 0.27701 0.27042 0.12192 0.0
C983 C 0.21305 0.226 0.18042 0.0
C984 C 0.22559 0.38988 0.15645 0.0
C985 C 0.20151 0.39283 0.14443 0.0
C986 C 0.24003 0.34306 0.1589 0.0
C987 C 0.23038 0.2984 0.14887 0.0
C988 C 0.20639 0.30158 0.13644 0.0
C989 C 0.19222 0.34847 0.13449 0.0
C990 C 0.26537 0.34118 0.17242 0.0
C991 C 0.19557 0.2553 0.12521 0.0
H992 H 0.29604 0.17497 0.12916 0.0
H993 H 0.24162 0.13668 0.17805 0.0
H994 H 0.25957 0.2784 0.11138 0.0
H995 H 0.28338 0.30756 0.12864 0.0
H996 H 0.29504 0.25468 0.11335 0.0
H997 H 0.20966 0.19549 0.19171 0.0
H998 H 0.21814 0.26233 0.18828 0.0
H999 H 0.19309 0.23216 0.17221 0.0
H1000 H 0.23283 0.42388 0.16425 0.0
H1001 H 0.17375 0.35034 0.12504 0.0
H1002 H 0.28398 0.3277 0.16394 0.0
H1003 H 0.2617 0.31329 0.18462 0.0
H1004 H 0.27027 0.37915 0.17912 0.0
H1005 H 0.21235 0.23951 0.11549 0.0
H1006 H 0.17702 0.26442 0.11579 0.0
H1007 H 0.18958 0.22475 0.13589 0.0
C1008 C 0.7305 0.31188 0.14796 0.0
C1009 C 0.70264 0.31216 0.14134 0.0
C1010 C 0.74763 0.26858 0.14488 0.0
C1011 C 0.73674 0.22545 0.13447 0.0
C1012 C 0.70893 0.22685 0.12699 0.0
C1013 C 0.69209 0.26984 0.13083 0.0
C1014 C 0.77697 0.26815 0.15344 0.0
C1015 C 0.69675 0.18252 0.11531 0.0
C1016 C 0.78914 0.12911 0.11363 0.0
C1017 C 0.78731 0.08919 0.12755 0.0
C1018 C 0.77238 0.17317 0.11544 0.0
C1019 C 0.754 0.17816 0.13194 0.0
C1020 C 0.75194 0.1377 0.14597 0.0
C1021 C 0.76832 0.09333 0.14343 0.0
C1022 C 0.7745 0.21454 0.09978 0.0
C1023 C 0.73301 0.14191 0.16398 0.0
H1024 H 0.73843 0.3445 0.1563 0.0
H1025 H 0.67045 0.27022 0.12576 0.0
H1026 H 0.77886 0.23682 0.16454 0.0
H1027 H 0.79252 0.26042 0.14149 0.0
H1028 H 0.78246 0.30499 0.16083 0.0
H1029 H 0.67565 0.19145 0.10913 0.0
H1030 H 0.71092 0.17204 0.1028 0.0
H1031 H 0.69489 0.14842 0.12508 0.0
H1032 H 0.80381 0.12589 0.10131 0.0
H1033 H 0.76718 0.06283 0.15437 0.0
H1034 H 0.78244 0.25049 0.10663 0.0
H1035 H 0.75339 0.22293 0.09355 0.0
H1036 H 0.78871 0.2036 0.08733 0.0
H1037 H 0.73885 0.17619 0.17291 0.0
H1038 H 0.73426 0.10757 0.17372 0.0
H1039 H 0.71089 0.14701 0.15917 0.0
C1040 C 0.26174 0.06137 0.07093 0.0
C1041 C 0.28739 0.03529 0.06912 0.0
C1042 C 0.24378 0.06716 0.05437 0.0
C1043 C 0.25165 0.04615 0.03565 0.0
C1044 C 0.27809 0.02201 0.03358 0.0
C1045 C 0.29564 0.01721 0.05026 0.0
C1046 C 0.21592 0.09384 0.05709 0.0
C1047 C 0.28741 -0.0008 1.0139 0.0
C1048 C 0.19672 0.00079 0.99844 0.0
C1049 C 0.19845 0.03841 0.98359 0.0
C1050 C 0.2132 0.00386 1.01579 0.0
C1051 C 0.23169 0.0459 1.01848 0.0
C1052 C 0.23277 0.08503 1.00388 0.0
C1053 C 0.21626 0.08065 0.98656 0.0
C1054 C 0.21166 0.96098 0.03086 0.0
C1055 C 0.25191 0.13079 1.0063 0.0
H1056 H 0.25518 0.07538 0.08543 0.0
H1057 H 0.31573 0.99823 0.04861 0.0
H1058 H 0.21269 0.12273 0.04519 0.0
H1059 H 0.19866 0.06543 0.05584 0.0
H1060 H 0.21433 0.11315 0.07185 0.0
H1061 H 0.30916 0.98389 1.01456 0.0
H1062 H 0.27304 0.96752 1.00961 0.0
H1063 H 0.28635 0.02844 1.00194 0.0
H1064 H 0.18319 0.9679 0.99615 0.0
H1065 H 0.21731 0.1103 0.97528 0.0
H1066 H 0.20749 0.97668 0.04597 0.0
H1067 H 0.23215 0.94075 0.03148 0.0
H1068 H 0.19503 0.9326 0.02715 0.0
H1069 H 0.24873 0.1488 1.02115 0.0
H1070 H 0.24835 0.16012 0.99457 0.0
H1071 H 0.27414 0.1182 1.00554 0.0
C1072 C 0.77416 0.46157 0.98149 0.0
C1073 C 0.80277 0.47458 0.983 0.0
C1074 C 0.75681 0.45948 0.99843 0.0
C1075 C 0.76806 0.47148 1.01744 0.0
C1076 C 0.7969 0.48386 1.01922 0.0
C1077 C 0.8139 0.48488 1.00206 0.0
C1078 C 0.7262 0.44562 0.99589 0.0
C1079 C 0.80968 0.49729 0.0392 0.0
C1080 C 0.71588 0.52219 0.05556 0.0
C1081 C 0.71109 0.47906 0.06754 0.0
C1082 C 0.73486 0.5205 0.03956 0.0
C1083 C 0.7492 0.47427 0.0352 0.0
C1084 C 0.74481 0.43072 0.04744 0.0
C1085 C 0.72595 0.43378 0.06358 0.0
C1086 C 0.73927 0.5681 0.02715 0.0
C1087 C 0.75942 0.38056 0.04315 0.0
H1088 H 0.76496 0.45397 0.96703 0.0
H1089 H 0.83595 0.49401 1.00368 0.0
H1090 H 0.72042 0.41425 1.00627 0.0
H1091 H 0.7129 0.47917 0.99968 0.0
H1092 H 0.72119 0.4333 0.98041 0.0
H1093 H 0.83268 0.50406 0.03822 0.0
H1094 H 0.79956 0.53239 0.04522 0.0
H1095 H 0.80579 0.46606 0.05006 0.0
H1096 H 0.70477 0.55748 0.05879 0.0
H1097 H 0.72212 0.40032 0.07274 0.0
H1098 H 0.73237 0.56089 1.01157 0.0
H1099 H 0.76194 0.57798 0.02665 0.0
H1100 H 0.72749 0.60159 0.03307 0.0
H1101 H 0.7528 0.36594 0.0283 0.0
H1102 H 0.75465 0.35093 0.05454 0.0
H1103 H 0.78249 0.38632 0.04258 0.0
C1104 C 0.28401 0.90765 0.48729 0.0
C1105 C 0.31057 0.93106 0.48688 0.0
C1106 C 0.26734 0.90851 0.5046 0.0
C1107 C 0.27743 0.93326 0.52204 0.0
C1108 C 0.30477 0.95472 0.52205 0.0
C1109 C 0.32096 0.95344 0.5045 0.0
C1110 C 0.23836 0.88501 0.50392 0.0
C1111 C 0.31639 0.98138 0.54031 0.0
C1112 C 0.22187 0.99324 0.55534 0.0
C1113 C 0.21915 0.95711 0.57071 0.0
C1114 C 0.24105 0.9862 0.5397 0.0
C1115 C 0.2582 0.94191 0.53935 0.0
C1116 C 0.25628 0.90596 0.55515 0.0
C1117 C 0.23679 0.91404 0.57069 0.0
C1118 C 0.24249 0.02581 0.5233 0.0
C1119 C 0.2743 0.8584 0.55536 0.0
H1120 H 0.27601 0.88928 0.47393 0.0
H1121 H 0.34132 0.97193 0.50441 0.0
H1122 H 0.2352 0.85915 0.51684 0.0
H1123 H 0.22232 0.91575 0.50495 0.0
H1124 H 0.23468 0.86295 0.48995 0.0
H1125 H 0.33907 0.99055 0.53873 0.0
H1126 H 0.30476 0.01765 0.54287 0.0
H1127 H 0.31348 0.9572 0.55375 0.0
H1128 H 0.20881 0.0272 0.55547 0.0
H1129 H 0.23471 0.88593 0.58247 0.0
H1130 H 0.23674 0.00797 0.50881 0.0
H1131 H 0.26425 0.04057 0.52186 0.0
H1132 H 0.2282 0.05874 0.52606 0.0
H1133 H 0.26884 0.83369 0.54242 0.0
H1134 H 0.27154 0.83582 0.56927 0.0
H1135 H 0.29679 0.86888 0.55384 0.0
C1136 C 0.77279 0.57939 0.56425 0.0
C1137 C 0.79277 0.5401 0.56599 0.0
C1138 C 0.75529 0.58292 0.54737 0.0
C1139 C 0.75764 0.54607 0.53189 0.0
C1140 C 0.77798 0.50666 0.53346 0.0
C1141 C 0.79529 0.50424 0.55043 0.0
C1142 C 0.734 0.6257 0.54625 0.0
C1143 C 0.781 0.46626 0.51741 0.0
C1144 C 0.69353 0.51957 0.49959 0.0
C1145 C 0.70006 0.54556 0.48185 0.0
C1146 C 0.71199 0.51975 0.51593 0.0
C1147 C 0.73773 0.54673 0.51464 0.0
C1148 C 0.7445 0.5732 0.49681 0.0
C1149 C 0.72564 0.5721 0.48059 0.0
C1150 C 0.70402 0.49055 0.53454 0.0
C1151 C 0.77165 0.60264 0.49488 0.0
H1152 H 0.77098 0.6077 0.57604 0.0
H1153 H 0.8104 0.47342 0.55173 0.0
H1154 H 0.73668 0.64737 0.53214 0.0
H1155 H 0.71246 0.60943 0.54614 0.0
H1156 H 0.7358 0.65282 0.559 0.0
H1157 H 0.79865 0.43953 0.52044 0.0
H1158 H 0.76131 0.44368 0.51627 0.0
H1159 H 0.78453 0.48461 0.5027 0.0
H1160 H 0.67412 0.4981 0.50059 0.0
H1161 H 0.73073 0.59254 0.46701 0.0
H1162 H 0.70373 0.51678 0.5476 0.0
H1163 H 0.71993 0.4605 0.53762 0.0
H1164 H 0.6831 0.47197 0.53323 0.0
H1165 H 0.77317 0.63184 0.5069 0.0
H1166 H 0.77353 0.62217 0.48022 0.0
H1167 H 0.78974 0.57625 0.49669 0.0
C1168 C 0.69558 0.96766 0.99487 0.0
C1169 C 0.70048 0.93747 0.97786 0.0
C1170 C 0.71387 0.96609 1.01137 0.0
C1171 C 0.73748 0.93299 1.011 0.0
C1172 C 0.74204 0.90129 0.9941 0.0
C1173 C 0.72363 0.90419 0.9777 0.0
C1174 C 0.70841 0.00106 0.02894 0.0
C1175 C 0.76666 0.86489 0.99318 0.0
C1176 C 0.80053 0.96783 0.04337 0.0
C1177 C 0.79664 0.93649 0.06014 0.0
C1178 C 0.78149 0.96695 0.02733 0.0
C1179 C 0.75808 0.93342 0.02787 0.0
C1180 C 0.75423 0.90114 0.04464 0.0
C1181 C 0.77342 0.90336 0.06063 0.0
C1182 C 0.78622 0.00257 1.0099 0.0
C1183 C 0.72981 0.86432 0.04571 0.0
H1184 H 0.67795 0.99389 0.99501 0.0
H1185 H 0.72731 0.88035 0.9647 0.0
H1186 H 0.70716 0.97842 0.0429 0.0
H1187 H 0.72611 0.02841 0.03066 0.0
H1188 H 0.68864 0.02324 0.02722 0.0
H1189 H 0.7663 0.84062 0.97953 0.0
H1190 H 0.7866 0.88692 0.99341 0.0
H1191 H 0.76669 0.83958 1.00647 0.0
H1192 H 0.81815 0.99409 0.04302 0.0
H1193 H 0.77045 0.87875 0.07347 0.0
H1194 H 0.76792 0.02853 1.0082 0.0
H1195 H 0.78808 0.98015 0.99587 0.0
H1196 H 0.80546 0.02625 1.01173 0.0
H1197 H 0.70973 0.88585 0.04527 0.0
H1198 H 0.73023 0.84073 0.0595 0.0
H1199 H 0.73004 0.83836 0.03257 0.0
C1200 C 0.22604 0.51266 0.05566 0.0
C1201 C 0.22518 0.54784 0.07154 0.0
C1202 C 0.24527 0.51797 0.03995 0.0
C1203 C 0.26433 0.55964 0.03998 0.0
C1204 C 0.26424 0.59454 0.05628 0.0
C1205 C 0.24472 0.58809 0.07193 0.0
C1206 C 0.24476 0.4794 1.02308 0.0
C1207 C 0.28422 0.63942 0.05689 0.0
C1208 C 0.32631 0.54268 1.00461 0.0
C1209 C 0.31675 0.56766 0.98732 0.0
C1210 C 0.31012 0.54189 1.02218 0.0
C1211 C 0.28367 0.56673 1.02258 0.0
C1212 C 0.27443 0.59381 1.00547 0.0
C1213 C 0.29102 0.59387 0.98809 0.0
C1214 C 0.32075 0.51235 0.04 0.0
C1215 C 0.24647 0.62107 1.00524 0.0
H1216 H 0.2114 0.48086 0.05546 0.0
H1217 H 0.24408 0.61546 0.08412 0.0
H1218 H 0.2394 0.49891 1.00888 0.0
H1219 H 0.26584 0.46196 1.02118 0.0
H1220 H 0.22926 0.44825 0.02564 0.0
H1221 H 0.28263 0.66136 0.07109 0.0
H1222 H 0.30617 0.62598 0.05504 0.0
H1223 H 0.27963 0.66566 0.04429 0.0
H1224 H 0.34598 0.52192 1.0042 0.0
H1225 H 0.28367 0.61405 0.97497 0.0
H1226 H 0.30749 0.47785 0.04227 0.0
H1227 H 0.3192 0.53601 0.05374 0.0
H1228 H 0.34289 0.49983 0.0381 0.0
H1229 H 0.22924 0.59249 1.00609 0.0
H1230 H 0.2435 0.64433 0.99153 0.0
H1231 H 0.24453 0.64655 1.01845 0.0
C1232 C 0.70811 0.0678 0.54607 0.0
C1233 C 0.71099 0.03643 0.56287 0.0
C1234 C 0.72742 0.0652 0.53026 0.0
C1235 C 0.74958 0.029 0.53098 0.0
C1236 C 0.75263 0.99734 0.54803 0.0
C1237 C 0.73351 0.00207 0.56395 0.0
C1238 C 0.72388 0.10078 0.51269 0.0
C1239 C 0.77545 0.95731 0.54916 0.0
C1240 C 0.77852 0.98833 0.48041 0.0
C1241 C 0.80393 0.01531 0.47964 0.0
C1242 C 0.76109 0.99116 0.4973 0.0
C1243 C 0.76885 0.02312 0.51354 0.0
C1244 C 0.79449 0.05068 0.51276 0.0
C1245 C 0.81195 0.04578 0.49593 0.0
C1246 C 0.73434 0.96007 0.49771 0.0
C1247 C 0.80311 0.0864 0.52944 0.0
H1248 H 0.69072 0.09453 0.54541 0.0
H1249 H 0.73543 0.97756 0.57692 0.0
H1250 H 0.74382 0.1215 0.50975 0.0
H1251 H 0.71878 0.07829 0.49909 0.0
H1252 H 0.70694 0.12937 0.51516 0.0
H1253 H 0.77521 0.93627 0.56356 0.0
H1254 H 0.77279 0.92928 0.53681 0.0
H1255 H 0.79636 0.9754 0.54726 0.0
H1256 H 0.77253 0.96447 0.46784 0.0
H1257 H 0.8315 0.06699 0.49518 0.0
H1258 H 0.71591 0.98604 0.49814 0.0
H1259 H 0.73364 0.93628 0.51142 0.0
H1260 H 0.73231 0.93453 0.48449 0.0
H1261 H 0.78703 0.11682 0.53132 0.0
H1262 H 0.82376 0.10486 0.52659 0.0
H1263 H 0.80432 0.0652 0.54374 0.0
C1264 C 0.25867 0.50665 0.56943 0.0
C1265 C 0.28198 0.47401 0.56925 0.0
C1266 C 0.23979 0.50763 0.55325 0.0
C1267 C 0.24395 0.47397 0.53684 0.0
C1268 C 0.267 0.43958 0.53705 0.0
C1269 C 0.28599 0.44069 0.55309 0.0
C1270 C 0.21599 0.54583 0.55338 0.0
C1271 C 0.27179 0.402 0.52021 0.0
C1272 C 0.18293 0.44611 0.50155 0.0
C1273 C 0.19047 0.47468 0.4847 0.0
C1274 C 0.20005 0.44561 0.51868 0.0
C1275 C 0.22486 0.47565 0.51915 0.0
C1276 C 0.23207 0.50578 0.50232 0.0
C1277 C 0.21501 0.50426 0.48519 0.0
C1278 C 0.19205 0.41174 0.53601 0.0
C1279 C 0.25792 0.53934 0.50234 0.0
H1280 H 0.25591 0.53271 0.5819 0.0
H1281 H 0.30406 0.41543 0.55312 0.0
H1282 H 0.21819 0.57226 0.54052 0.0
H1283 H 0.19559 0.52577 0.55167 0.0
H1284 H 0.21546 0.56889 0.56735 0.0
H1285 H 0.28942 0.37531 0.52336 0.0
H1286 H 0.25248 0.37918 0.51748 0.0
H1287 H 0.27657 0.42304 0.50625 0.0
H1288 H 0.1641 0.42278 0.50104 0.0
H1289 H 0.22066 0.52661 0.47217 0.0
H1290 H 0.19017 0.43485 0.54986 0.0
H1291 H 0.2088 0.3829 0.53858 0.0
H1292 H 0.17189 0.3913 0.53342 0.0
H1293 H 0.25777 0.56497 0.51559 0.0
H1294 H 0.25944 0.56324 0.48868 0.0
H1295 H 0.27704 0.5152 0.50336 0.0
C1296 C 0.32736 0.0577 0.2334 0.0
C1297 C 0.34914 0.03278 0.22326 0.0
C1298 C 0.32328 0.05003 0.25399 0.0
C1299 C 0.341 0.01566 0.2645 0.0
C1300 C 0.36264 0.98962 0.25415 0.0
C1301 C 0.3666 0.99888 0.23373 0.0
C1302 C 0.30021 0.07905 0.26455 0.0
C1303 C 0.38147 0.95159 0.26461 0.0
C1304 C 0.34655 0.02421 0.32123 0.0
C1305 C 0.32687 0.98743 0.32715 0.0
C1306 C 0.35128 0.03415 0.30086 0.0
C1307 C 0.33643 0.00567 0.28617 0.0
C1308 C 0.31727 0.96718 0.29219 0.0
C1309 C 0.31249 0.95903 0.3126 0.0
C1310 C 0.37156 0.07602 0.29504 0.0
C1311 C 0.30162 0.93491 0.27709 0.0
H1312 H 0.31403 0.08411 0.22529 0.0
H1313 H 0.3832 0.97902 0.22581 0.0
H1314 H 0.28481 0.05176 0.27097 0.0
H1315 H 0.30916 0.10149 0.27713 0.0
H1316 H 0.2889 0.10562 0.2544 0.0
H1317 H 0.39714 0.93418 0.25436 0.0
H1318 H 0.39283 0.97068 0.27703 0.0
H1319 H 0.36861 0.92047 0.27123 0.0
H1320 H 0.35734 0.04651 0.33256 0.0
H1321 H 0.29735 0.93045 0.31728 0.0
H1322 H 0.36041 0.10563 0.2862 0.0
H1323 H 0.38843 0.06014 0.28543 0.0
H1324 H 0.38136 0.09471 0.30824 0.0
H1325 H 0.28791 0.95966 0.26782 0.0
H1326 H 0.2884 0.90507 0.28426 0.0
H1327 H 0.31671 0.91581 0.26687 0.0
C1328 C 0.63221 0.47362 0.23433 0.0
C1329 C 0.65446 0.46859 0.22075 0.0
C1330 C 0.6371 0.48197 0.25471 0.0
C1331 C 0.66503 0.48564 0.26185 0.0
C1332 C 0.68763 0.48372 0.24807 0.0
C1333 C 0.68207 0.47524 0.22763 0.0
C1334 C 0.61229 0.48416 0.26875 0.0
C1335 C 0.71769 0.48802 0.25502 0.0
C1336 C 0.66853 0.53044 0.31598 0.0
C1337 C 0.6676 0.48345 0.3261 0.0
C1338 C 0.66977 0.53212 0.29497 0.0
C1339 C 0.67011 0.48572 0.28388 0.0
C1340 C 0.67133 0.4384 0.29416 0.0
C1341 C 0.67008 0.43789 0.31508 0.0
C1342 C 0.66881 0.58341 0.28464 0.0
C1343 C 0.67193 0.38795 0.28305 0.0
H1344 H 0.61081 0.46981 0.22903 0.0
H1345 H 0.69935 0.47145 0.21721 0.0
H1346 H 0.61267 0.45036 0.27878 0.0
H1347 H 0.61351 0.5189 0.27829 0.0
H1348 H 0.5919 0.48448 0.26067 0.0
H1349 H 0.73241 0.49394 0.24237 0.0
H1350 H 0.72008 0.52017 0.26576 0.0
H1351 H 0.72377 0.45233 0.26289 0.0
H1352 H 0.66663 0.56577 0.32441 0.0
H1353 H 0.67006 0.40151 0.32284 0.0
H1354 H 0.64748 0.58964 0.27841 0.0
H1355 H 0.68386 0.58448 0.27201 0.0
H1356 H 0.67367 0.61543 0.29505 0.0
H1357 H 0.65147 0.38183 0.27544 0.0
H1358 H 0.67585 0.35499 0.29314 0.0
H1359 H 0.68844 0.38843 0.27137 0.0
C1360 C 0.68886 0.95487 0.80401 0.0
C1361 C 0.67027 0.97375 0.81852 0.0
C1362 C 0.68363 0.96156 0.78359 0.0
C1363 C 0.65905 0.98761 0.77745 0.0
C1364 C 0.63901 0.00293 0.79196 0.0
C1365 C 0.64487 0.9958 0.81239 0.0
C1366 C 0.70557 0.94442 0.76873 0.0
C1367 C 0.61238 0.03025 0.78602 0.0
C1368 C 0.66767 0.07079 0.73156 0.0
C1369 C 0.65541 0.04079 0.7165 0.0
C1370 C 0.66858 0.05403 0.75139 0.0
C1371 C 0.65679 0.00596 0.75644 0.0
C1372 C 0.64438 0.97523 0.74132 0.0
C1373 C 0.64402 0.99289 0.72144 0.0
C1374 C 0.68253 0.08769 0.7669 0.0
C1375 C 0.63144 0.92396 0.74618 0.0
H1376 H 0.70819 0.93657 0.80869 0.0
H1377 H 0.63041 0.01026 0.82354 0.0
H1378 H 0.69567 0.92402 0.75599 0.0
H1379 H 0.71652 0.97853 0.76263 0.0
H1380 H 0.7215 0.91883 0.7756 0.0
H1381 H 0.59701 0.03192 0.79848 0.0
H1382 H 0.61749 0.07005 0.78147 0.0
H1383 H 0.6024 0.01099 0.77304 0.0
H1384 H 0.67695 0.10739 0.72775 0.0
H1385 H 0.63437 0.96984 0.70984 0.0
H1386 H 0.70056 0.06713 0.77367 0.0
H1387 H 0.66751 0.09663 0.77907 0.0
H1388 H 0.69031 0.12434 0.76054 0.0
H1389 H 0.64756 0.89808 0.75258 0.0
H1390 H 0.6221 0.9052 0.73282 0.0
H1391 H 0.61483 0.92885 0.75764 0.0
C1392 C 0.32989 0.44156 0.73788 0.0
C1393 C 0.34119 0.4728 0.7229 0.0
C1394 C 0.33007 0.4568 0.75794 0.0
C1395 C 0.34202 0.50459 0.76332 0.0
C1396 C 0.35334 0.53668 0.74826 0.0
C1397 C 0.3526 0.52053 0.72815 0.0
C1398 C 0.31723 0.42173 0.77338 0.0
C1399 C 0.3664 0.58772 0.75342 0.0
C1400 C 0.31334 0.55165 0.8127 0.0
C1401 C 0.33307 0.53208 0.82627 0.0
C1402 C 0.31704 0.5464 0.79204 0.0
C1403 C 0.34119 0.5211 0.78466 0.0
C1404 C 0.3623 0.50492 0.79822 0.0
C1405 C 0.35799 0.51063 0.81893 0.0
C1406 C 0.294 0.56441 0.77822 0.0
C1407 C 0.38852 0.47832 0.79096 0.0
H1408 H 0.32061 0.40505 0.73384 0.0
H1409 H 0.36153 0.54453 0.7166 0.0
H1410 H 0.33308 0.41184 0.78488 0.0
H1411 H 0.29967 0.44157 0.78106 0.0
H1412 H 0.30906 0.38561 0.76673 0.0
H1413 H 0.37449 0.60796 0.74003 0.0
H1414 H 0.35073 0.61261 0.76093 0.0
H1415 H 0.38398 0.58204 0.76407 0.0
H1416 H 0.29438 0.56952 0.81831 0.0
H1417 H 0.37332 0.49564 0.82935 0.0
H1418 H 0.28276 0.53067 0.77201 0.0
H1419 H 0.3029 0.58602 0.76547 0.0
H1420 H 0.27847 0.58916 0.78601 0.0
H1421 H 0.38312 0.43896 0.78593 0.0
H1422 H 0.40472 0.47555 0.80285 0.0
H1423 H 0.39757 0.49886 0.77798 0.0
C1424 C 0.81819 0.4388 0.8116 0.0
C1425 C 0.83667 0.46189 0.82523 0.0
C1426 C 0.81695 0.45485 0.79163 0.0
C1427 C 0.83517 0.49415 0.78496 0.0
C1428 C 0.85393 0.51761 0.79869 0.0
C1429 C 0.85418 0.50164 0.81876 0.0
C1430 C 0.79603 0.42988 0.7777 0.0
C1431 C 0.87405 0.55898 0.79211 0.0
C1432 C 0.84902 0.50258 0.72894 0.0
C1433 C 0.83232 0.54452 0.72356 0.0
C1434 C 0.85041 0.48602 0.74891 0.0
C1435 C 0.83416 0.51128 0.76371 0.0
C1436 C 0.81665 0.55274 0.75818 0.0
C1437 C 0.8162 0.56915 0.73824 0.0
C1438 C 0.86967 0.44221 0.75425 0.0
C1439 C 0.79839 0.57983 0.77331 0.0
H1440 H 0.80446 0.40838 0.8167 0.0
H1441 H 0.86863 0.51906 0.82928 0.0
H1442 H 0.78204 0.45943 0.77116 0.0
H1443 H 0.8072 0.411 0.76516 0.0
H1444 H 0.78286 0.40081 0.78537 0.0
H1445 H 0.88781 0.57236 0.80447 0.0
H1446 H 0.88746 0.54442 0.77979 0.0
H1447 H 0.86218 0.59227 0.78623 0.0
H1448 H 0.86168 0.48391 0.71762 0.0
H1449 H 0.80305 0.60125 0.73402 0.0
H1450 H 0.8574 0.41047 0.76096 0.0
H1451 H 0.88516 0.45505 0.76561 0.0
H1452 H 0.88122 0.42714 0.74108 0.0
H1453 H 0.78433 0.55183 0.78075 0.0
H1454 H 0.78529 0.61031 0.76645 0.0
H1455 H 0.81168 0.59746 0.78508 0.0
C1456 C 0.15579 0.06973 0.80975 0.0
C1457 C 0.17054 0.04254 0.82444 0.0
C1458 C 0.15526 0.05312 0.78984 0.0
C1459 C 0.16999 0.00815 0.7843 0.0
C1460 C 0.18502 0.9804 0.79903 0.0
C1461 C 0.18496 0.99776 0.81898 0.0
C1462 C 0.13855 0.08349 0.77476 0.0
C1463 C 0.20115 0.93253 0.79369 0.0
C1464 C 0.14048 0.94817 0.73721 0.0
C1465 C 0.15746 0.97 0.72237 0.0
C1466 C 0.14547 0.95751 0.75753 0.0
C1467 C 0.16815 0.9894 0.76325 0.0
C1468 C 0.18664 0.00855 0.74842 0.0
C1469 C 0.18108 0.99858 0.72811 0.0
C1470 C 0.12524 0.93611 0.77275 0.0
C1471 C 0.21122 0.04228 0.75391 0.0
H1472 H 0.14424 0.10388 0.81393 0.0
H1473 H 0.19661 0.97693 0.83024 0.0
H1474 H 0.15234 0.09566 0.7623 0.0
H1475 H 0.12172 0.05909 0.7683 0.0
H1476 H 0.12871 0.11814 0.78142 0.0
H1477 H 0.21238 0.91612 0.80673 0.0
H1478 H 0.18662 0.90311 0.78762 0.0
H1479 H 0.2167 0.94118 0.78182 0.0
H1480 H 0.12257 0.92506 0.73285 0.0
H1481 H 0.19427 0.01553 0.71672 0.0
H1482 H 0.11256 0.96781 0.77917 0.0
H1483 H 0.13682 0.91787 0.78522 0.0
H1484 H 0.11069 0.90743 0.76612 0.0
H1485 H 0.2034 0.08045 0.75868 0.0
H1486 H 0.22585 0.04771 0.74117 0.0
H1487 H 0.22302 0.02571 0.76664 0.0
C1488 C 0.18485 0.50073 0.3211 0.0
C1489 C 0.17161 0.45454 0.32624 0.0
C1490 C 0.18578 0.51735 0.30109 0.0
C1491 C 0.17282 0.4874 0.28596 0.0
C1492 C 0.15934 0.44092 0.29116 0.0
C1493 C 0.15898 0.42512 0.31115 0.0
C1494 C 0.20055 0.56688 0.29612 0.0
C1495 C 0.14478 0.40816 0.27565 0.0
C1496 C 0.14379 0.54304 0.23805 0.0
C1497 C 0.16229 0.52318 0.22367 0.0
C1498 C 0.14801 0.53451 0.25849 0.0
C1499 C 0.17147 0.50554 0.26484 0.0
C1500 C 0.19137 0.48849 0.25051 0.0
C1501 C 0.18654 0.49754 0.23005 0.0
C1502 C 0.12624 0.55357 0.27313 0.0
C1503 C 0.21682 0.45795 0.25668 0.0
H1504 H 0.19487 0.52332 0.33268 0.0
H1505 H 0.14834 0.38983 0.31504 0.0
H1506 H 0.21691 0.55991 0.28464 0.0
H1507 H 0.18536 0.59455 0.28971 0.0
H1508 H 0.21058 0.58465 0.30943 0.0
H1509 H 0.13591 0.37243 0.28207 0.0
H1510 H 0.12746 0.43018 0.26865 0.0
H1511 H 0.15974 0.3976 0.26364 0.0
H1512 H 0.12537 0.56401 0.23322 0.0
H1513 H 0.20092 0.48222 0.21901 0.0
H1514 H 0.13645 0.57358 0.28584 0.0
H1515 H 0.1145 0.52045 0.27932 0.0
H1516 H 0.11096 0.58013 0.26608 0.0
H1517 H 0.22729 0.47611 0.26971 0.0
H1518 H 0.23228 0.4542 0.24435 0.0
H1519 H 0.21017 0.41895 0.26128 0.0
C1520 C 0.82835 0.05021 0.30513 0.0
C1521 C 0.84209 0.02289 0.32025 0.0
C1522 C 0.83438 0.04149 0.28495 0.0
C1523 C 0.85497 0.00473 0.27963 0.0
C1524 C 0.87074 0.98032 0.29485 0.0
C1525 C 0.86403 0.98955 0.31505 0.0
C1526 C 0.81707 0.06878 0.26932 0.0
C1527 C 0.89334 0.9419 0.28985 0.0
C1528 C 0.83248 0.93979 0.23193 0.0
C1529 C 0.84589 0.96983 0.21749 0.0
C1530 C 0.83732 0.94762 0.25232 0.0
C1531 C 0.85619 0.98655 0.25849 0.0
C1532 C 0.87201 0.01341 0.24392 0.0
C1533 C 0.8666 0.0048 0.22348 0.0
C1534 C 0.82005 0.91768 0.26719 0.0
C1535 C 0.8929 0.05416 0.24986 0.0
H1536 H 0.8119 0.07704 0.30911 0.0
H1537 H 0.87484 0.96848 0.32666 0.0
H1538 H 0.83089 0.08621 0.25788 0.0
H1539 H 0.80324 0.04073 0.26162 0.0
H1540 H 0.80367 0.09937 0.27586 0.0
H1541 H 0.90784 0.93583 0.30264 0.0
H1542 H 0.88348 0.90459 0.28607 0.0
H1543 H 0.90571 0.95445 0.2767 0.0
H1544 H 0.81674 0.91227 0.22719 0.0
H1545 H 0.87698 0.02799 0.21228 0.0
H1546 H 0.8043 0.94344 0.27418 0.0
H1547 H 0.83358 0.90249 0.27928 0.0
H1548 H 0.80875 0.8851 0.2601 0.0
H1549 H 0.88153 0.09011 0.25348 0.0
H1550 H 0.90793 0.06238 0.23759 0.0
H1551 H 0.90483 0.04253 0.26334 0.0
C1552 C 0.5304 0.35562 0.10884 0.0
C1553 C 0.55568 0.33305 0.11506 0.0
C1554 C 0.50541 0.32707 0.10802 0.0
C1555 C 0.50572 0.27474 0.11357 0.0
C1556 C 0.5314 0.25118 0.11896 0.0
C1557 C 0.55605 0.2806 0.11965 0.0
C1558 C 0.47846 0.35346 0.10208 0.0
C1559 C 0.53262 0.19548 0.12501 0.0
C1560 C 0.44025 0.21647 0.13635 0.0
C1561 C 0.42974 0.18665 0.12056 0.0
C1562 C 0.4646 0.24609 0.13408 0.0
C1563 C 0.47894 0.24582 0.11558 0.0
C1564 C 0.46826 0.21651 0.09945 0.0
C1565 C 0.44378 0.18717 0.10215 0.0
C1566 C 0.47535 0.27669 0.15168 0.0
C1567 C 0.48296 0.21545 0.0795 0.0
H1568 H 0.53004 0.39593 0.10497 0.0
H1569 H 0.5754 0.26298 0.12469 0.0
H1570 H 0.46733 0.33088 0.09046 0.0
H1571 H 0.46431 0.35605 0.1152 0.0
H1572 H 0.48219 0.39279 0.09633 0.0
H1573 H 0.55453 0.18181 0.12705 0.0
H1574 H 0.52112 0.19015 0.13926 0.0
H1575 H 0.52219 0.17109 0.11362 0.0
H1576 H 0.42988 0.21554 0.15075 0.0
H1577 H 0.43563 0.16455 0.08984 0.0
H1578 H 0.47776 0.31757 0.1475 0.0
H1579 H 0.4964 0.26243 0.15614 0.0
H1580 H 0.46115 0.27429 0.16481 0.0
H1581 H 0.48568 0.25503 0.0738 0.0
H1582 H 0.47126 0.19263 0.0682 0.0
H1583 H 0.50425 0.19875 0.08124 0.0
C1584 C 0.43313 0.76637 0.39524 0.0
C1585 C 0.43434 0.81977 0.39793 0.0
C1586 C 0.45755 0.73626 0.39564 0.0
C1587 C 0.484 0.76014 0.39822 0.0
C1588 C 0.48557 0.81407 0.40023 0.0
C1589 C 0.46075 0.84313 0.40033 0.0
C1590 C 0.45496 0.67874 0.39374 0.0
C1591 C 0.51346 0.84105 0.40262 0.0
C1592 C 0.54423 0.68104 0.41906 0.0
C1593 C 0.55817 0.66613 0.40161 0.0
C1594 C 0.51997 0.71151 0.41816 0.0
C1595 C 0.50995 0.72847 0.39938 0.0
C1596 C 0.52444 0.7144 0.38173 0.0
C1597 C 0.5482 0.68271 0.38305 0.0
C1598 C 0.50475 0.7247 0.43727 0.0
C1599 C 0.51486 0.73281 0.36149 0.0
H1600 H 0.413 0.74785 0.39294 0.0
H1601 H 0.46211 0.8841 0.40279 0.0
H1602 H 0.46722 0.66496 0.38072 0.0
H1603 H 0.46385 0.66008 0.4072 0.0
H1604 H 0.43281 0.66609 0.39194 0.0
H1605 H 0.51125 0.88344 0.40248 0.0
H1606 H 0.52338 0.8296 0.41691 0.0
H1607 H 0.52796 0.82955 0.39044 0.0
H1608 H 0.55196 0.66776 0.43337 0.0
H1609 H 0.5592 0.6712 0.36959 0.0
H1610 H 0.48284 0.71025 0.43656 0.0
H1611 H 0.50365 0.7669 0.43916 0.0
H1612 H 0.51515 0.70808 0.45062 0.0
H1613 H 0.49349 0.71799 0.35825 0.0
H1614 H 0.52919 0.72033 0.34934 0.0
H1615 H 0.51359 0.77529 0.36141 0.0
C1616 C 0.56895 0.77051 0.89165 0.0
C1617 C 0.56807 0.82393 0.89433 0.0
C1618 C 0.54432 0.74089 0.8921 0.0
C1619 C 0.51805 0.76534 0.89473 0.0
C1620 C 0.51685 0.81925 0.89688 0.0
C1621 C 0.54185 0.84775 0.89696 0.0
C1622 C 0.54647 0.68334 0.89013 0.0
C1623 C 0.48917 0.84682 0.89936 0.0
C1624 C 0.452 0.69297 0.87965 0.0
C1625 C 0.44159 0.67792 0.89826 0.0
C1626 C 0.47684 0.72179 0.87825 0.0
C1627 C 0.49184 0.73447 0.89586 0.0
C1628 C 0.48155 0.71836 0.91467 0.0
C1629 C 0.4563 0.69077 0.91566 0.0
C1630 C 0.48679 0.73934 0.85799 0.0
C1631 C 0.49725 0.73011 0.93374 0.0
H1632 H 0.58892 0.75163 0.88923 0.0
H1633 H 0.54074 0.88871 0.8995 0.0
H1634 H 0.53747 0.66478 0.90357 0.0
H1635 H 0.53407 0.66996 0.8771 0.0
H1636 H 0.56852 0.6702 0.8883 0.0
H1637 H 0.49168 0.88916 0.89941 0.0
H1638 H 0.47458 0.83601 0.88712 0.0
H1639 H 0.47916 0.83522 0.9136 0.0
H1640 H 0.44041 0.68293 0.86626 0.0
H1641 H 0.44817 0.6786 0.93001 0.0
H1642 H 0.50817 0.72434 0.85499 0.0
H1643 H 0.48814 0.78181 0.85771 0.0
H1644 H 0.47258 0.72657 0.84578 0.0
H1645 H 0.51907 0.71534 0.93273 0.0
H1646 H 0.487 0.71296 0.94704 0.0
H1647 H 0.49862 0.77218 0.93597 0.0
C1648 C 0.43791 0.28536 0.63469 0.0
C1649 C 0.43369 0.33059 0.62392 0.0
C1650 C 0.4634 0.25864 0.63333 0.0
C1651 C 0.4848 0.27708 0.62053 0.0
C1652 C 0.48016 0.32181 0.60906 0.0
C1653 C 0.45474 0.34852 0.61112 0.0
C1654 C 0.46777 0.2117 0.64612 0.0
C1655 C 0.50219 0.34185 0.59487 0.0
C1656 C 0.55961 0.2382 0.63291 0.0
C1657 C 0.56309 0.19512 0.62069 0.0
C1658 C 0.53433 0.26581 0.63278 0.0
C1659 C 0.51239 0.25049 0.61975 0.0
C1660 C 0.51636 0.20826 0.60674 0.0
C1661 C 0.54159 0.18054 0.60758 0.0
C1662 C 0.53067 0.30995 0.64717 0.0
C1663 C 0.49375 0.1916 0.5923 0.0
H1664 H 0.42162 0.272 0.64472 0.0
H1665 H 0.45129 0.38355 0.6028 0.0
H1666 H 0.47303 0.17819 0.63661 0.0
H1667 H 0.48577 0.21805 0.65637 0.0
H1668 H 0.44893 0.20219 0.65516 0.0
H1669 H 0.49449 0.37491 0.58599 0.0
H1670 H 0.52105 0.35412 0.60336 0.0
H1671 H 0.50888 0.31101 0.58447 0.0
H1672 H 0.57624 0.24888 0.64318 0.0
H1673 H 0.54445 0.14708 0.59816 0.0
H1674 H 0.51333 0.30128 0.6577 0.0
H1675 H 0.52478 0.34524 0.63898 0.0
H1676 H 0.55004 0.31777 0.65593 0.0
H1677 H 0.47533 0.17699 0.60068 0.0
H1678 H 0.50111 0.161 0.582 0.0
H1679 H 0.48649 0.22476 0.58333 0.0
C1680 C 0.95245 0.67105 0.61475 0.0
C1681 C 0.93072 0.69096 0.62654 0.0
C1682 C 0.9777 0.69807 0.61231 0.0
C1683 C 0.98148 0.74542 0.62234 0.0
C1684 C 0.95936 0.76602 0.63401 0.0
C1685 C 0.93407 0.73873 0.63578 0.0
C1686 C 0.00053 0.67547 0.59937 0.0
C1687 C 0.96279 0.81589 0.64525 0.0
C1688 C 0.05568 0.78672 0.63543 0.0
C1689 C 0.06023 0.82653 0.62182 0.0
C1690 C 0.03023 0.75967 0.63561 0.0
C1691 C 0.00908 0.77208 0.62155 0.0
C1692 C 0.014 0.81101 0.60727 0.0
C1693 C 0.03944 0.83829 0.60774 0.0
C1694 C 0.02559 0.71908 0.65131 0.0
C1695 C 0.99224 0.8244 0.59174 0.0
H1696 H 0.94968 0.63415 0.60752 0.0
H1697 H 0.91727 0.75378 0.64502 0.0
H1698 H 0.00777 0.70413 0.58829 0.0
H1699 H 0.01891 0.66518 0.60872 0.0
H1700 H 0.99338 0.64058 0.59128 0.0
H1701 H 0.94331 0.82731 0.65323 0.0
H1702 H 0.98002 0.81219 0.65632 0.0
H1703 H 0.96873 0.84705 0.63484 0.0
H1704 H 0.07166 0.77814 0.64648 0.0
H1705 H 0.04307 0.86901 0.59718 0.0
H1706 H 0.02036 0.68191 0.64415 0.0
H1707 H 0.0075 0.72992 0.66088 0.0
H1708 H 0.04432 0.71362 0.66099 0.0
H1709 H 0.98566 0.78942 0.58351 0.0
H1710 H 0.00012 0.85301 0.58083 0.0
H1711 H 0.97326 0.84024 0.59911 0.0
C1712 C 0.04557 0.1634 0.92918 0.0
C1713 C 0.06734 0.183 0.91741 0.0
C1714 C 0.02005 0.18977 0.93096 0.0
C1715 C 0.01616 0.23595 0.92026 0.0
C1716 C 0.03828 0.25607 0.90851 0.0
C1717 C 0.06382 0.22953 0.90742 0.0
C1718 C 0.99716 0.16791 0.94401 0.0
C1719 C 0.03466 0.30469 0.89658 0.0
C1720 C 0.94224 0.27598 0.9064 0.0
C1721 C 0.93792 0.31707 0.91947 0.0
C1722 C 0.96757 0.24865 0.90669 0.0
C1723 C 0.9886 0.26231 0.9207 0.0
C1724 C 0.98376 0.30259 0.93447 0.0
C1725 C 0.95851 0.33008 0.93349 0.0
C1726 C 0.97223 0.20658 0.89153 0.0
C1727 C 0.00545 0.31733 0.94991 0.0
H1728 H 0.04856 0.12739 0.93695 0.0
H1729 H 0.08074 0.24419 0.89822 0.0
H1730 H 0.98985 0.19729 0.95483 0.0
H1731 H 0.97883 0.15695 0.9347 0.0
H1732 H 0.00429 0.13361 0.95241 0.0
H1733 H 0.05405 0.3154 0.88836 0.0
H1734 H 0.01734 0.29976 0.88565 0.0
H1735 H 0.02878 0.33687 0.90659 0.0
H1736 H 0.92622 0.26659 0.89547 0.0
H1737 H 0.9549 0.36207 0.94354 0.0
H1738 H 0.97756 0.17017 0.89915 0.0
H1739 H 0.99027 0.21663 0.88181 0.0
H1740 H 0.95348 0.20004 0.88196 0.0
H1741 H 0.0121 0.28305 0.95847 0.0
H1742 H 0.99745 0.34666 0.96054 0.0
H1743 H 0.02439 0.33283 0.94242 0.0
C1744 C 0.05461 0.28134 0.39135 0.0
C1745 C 0.06612 0.2977 0.40954 0.0
C1746 C 0.03059 0.25024 0.39083 0.0
C1747 C 0.01754 0.23584 0.40896 0.0
C1748 C 0.02931 0.25168 0.4274 0.0
C1749 C 0.05364 0.28215 0.42747 0.0
C1750 C 0.01895 0.23342 0.37088 0.0
C1751 C 0.01576 0.23766 0.44702 0.0
C1752 C 0.94005 0.2022 0.40609 0.0
C1753 C 0.94067 0.14842 0.40666 0.0
C1754 C 0.96487 0.23108 0.40717 0.0
C1755 C 0.99105 0.20562 0.40854 0.0
C1756 C 0.99192 0.15143 0.40909 0.0
C1757 C 0.96672 0.1235 0.40831 0.0
C1758 C 0.96309 0.28887 0.40671 0.0
C1759 C 0.01947 0.12295 0.41034 0.0
H1760 H 0.06445 0.29298 0.37748 0.0
H1761 H 0.06242 0.29519 0.44154 0.0
H1762 H 0.01691 0.19105 0.37043 0.0
H1763 H 0.99761 0.24962 0.36875 0.0
H1764 H 0.03239 0.24579 0.35823 0.0
H1765 H 0.02802 0.2517 0.46005 0.0
H1766 H 0.99433 0.25427 0.44775 0.0
H1767 H 0.01352 0.19545 0.44818 0.0
H1768 H 0.92013 0.22187 0.40452 0.0
H1769 H 0.96748 0.08206 0.40917 0.0
H1770 H 0.97404 0.30368 0.39329 0.0
H1771 H 0.97381 0.30537 0.41996 0.0
H1772 H 0.94104 0.3028 0.40646 0.0
H1773 H 0.03293 0.13313 0.39743 0.0
H1774 H 0.01654 0.0807 0.41051 0.0
H1775 H 0.03096 0.13444 0.42405 0.0
C1776 C 0.94474 0.78306 0.14458 0.0
C1777 C 0.94192 0.83117 0.13553 0.0
C1778 C 0.97021 0.75596 0.14367 0.0
C1779 C 0.99325 0.77702 0.1331 0.0
C1780 C 0.99045 0.82551 0.12384 0.0
C1781 C 0.9649 0.85222 0.12533 0.0
C1782 C 0.97247 0.70482 0.15406 0.0
C1783 C 0.01433 0.84885 0.11214 0.0
C1784 C 0.06628 0.72638 0.14517 0.0
C1785 C 0.06991 0.68887 0.13037 0.0
C1786 C 0.04158 0.75574 0.14612 0.0
C1787 C 0.0202 0.74805 0.1317 0.0
C1788 C 0.02419 0.71137 0.11632 0.0
C1789 C 0.04887 0.68185 0.11596 0.0
C1790 C 0.03797 0.7938 0.16294 0.0
C1791 C 0.00217 0.70272 0.10042 0.0
H1792 H 0.92706 0.76692 0.1526 0.0
H1793 H 0.96265 0.88916 0.11812 0.0
H1794 H 0.97714 0.67427 0.143 0.0
H1795 H 0.9901 0.7056 0.1649 0.0
H1796 H 0.95289 0.69448 0.16212 0.0
H1797 H 0.00871 0.8867 0.10572 0.0
H1798 H 0.03298 0.85375 0.1219 0.0
H1799 H 0.0205 0.82272 0.0998 0.0
H1800 H 0.08238 0.73144 0.15646 0.0
H1801 H 0.05173 0.65311 0.10442 0.0
H1802 H 0.01971 0.78263 0.17227 0.0
H1803 H 0.0335 0.83247 0.15688 0.0
H1804 H 0.05687 0.7962 0.17265 0.0
H1805 H 0.98266 0.68777 0.10734 0.0
H1806 H 0.00922 0.67511 0.08881 0.0
H1807 H 0.9968 0.73955 0.0931 0.0
loop_
_geom_bond_atom_site_label_1
_geom_bond_atom_site_label_2
_geom_bond_distance
_geom_bond_site_symmetry_2
_ccdc_geom_bond_type
C0 C1 1.351 . S
C0 N3 1.368 . S
C0 H5 0.931 . S
C1 C0 1.351 . S
C1 N2 1.373 . S
C1 H29 0.930 . S
N2 C1 1.373 . S
N2 C4 1.340 . S
N3 C0 1.368 . S
N3 C4 1.321 . S
N3 Co6 2.135 . S
C4 N2 1.340 . S
C4 N3 1.321 . S
C4 H28 0.930 . S
H5 C0 0.931 . S
Co6 N3 2.135 . S
Co6 N9 2.121 . S
Co6 O14 2.055 . S
Co6 O17 2.039 . S
Co6 N20 2.140 . S
C7 O8 1.227 . S
C7 O17 1.265 . S
O8 C7 1.227 . S
N9 Co6 2.121 . S
N9 C11 1.375 . S
N9 C12 1.313 . S
C10 C11 1.338 . S
C10 N13 1.377 . S
C10 H30 0.930 . S
C11 N9 1.375 . S
C11 C10 1.338 . S
C11 H15 0.931 . S
C12 N9 1.313 . S
C12 N13 1.344 . S
C12 H16 0.930 . S
N13 C10 1.377 . S
N13 C12 1.344 . S
O14 Co6 2.055 . S
O14 C18 1.253 . S
H15 C11 0.931 . S
H16 C12 0.930 . S
O17 Co6 2.039 . S
O17 C7 1.265 . S
C18 O14 1.253 . S
C18 O19 1.227 . S
O19 C18 1.227 . S
N20 Co6 2.140 . S
N20 C23 1.346 . S
N20 C24 1.345 . S
C21 C22 1.387 . S
C21 C25 1.391 . S
C22 C21 1.387 . S
C22 C23 1.369 . S
C22 H31 0.929 . S
C23 N20 1.346 . S
C23 C22 1.369 . S
C23 H26 0.928 . S
C24 N20 1.345 . S
C24 C25 1.371 . S
C24 H27 0.931 . S
C25 C21 1.391 . S
C25 C24 1.371 . S
C25 H32 0.930 . S
H26 C23 0.928 . S
H27 C24 0.931 . S
H28 C4 0.930 . S
H29 C1 0.930 . S
H30 C10 0.930 . S
H31 C22 0.929 . S
H32 C25 0.930 . S
C33 C34 1.351 . S
C33 N36 1.368 . S
C33 H38 0.931 . S
C34 C33 1.351 . S
C34 N35 1.373 . S
C34 H62 0.930 . S
N35 C34 1.373 . S
N35 C37 1.340 . S
N36 C33 1.368 . S
N36 C37 1.321 . S
N36 Co39 2.135 . S
C37 N35 1.340 . S
C37 N36 1.321 . S
C37 H61 0.930 . S
H38 C33 0.931 . S
Co39 N36 2.135 . S
Co39 N42 2.121 . S
Co39 O47 2.055 . S
Co39 O50 2.039 . S
Co39 N53 2.140 . S
C40 O41 1.227 . S
C40 O50 1.265 . S
O41 C40 1.227 . S
N42 Co39 2.121 . S
N42 C44 1.375 . S
N42 C45 1.313 . S
C43 C44 1.338 . S
C43 N46 1.377 . S
C43 H63 0.930 . S
C44 N42 1.375 . S
C44 C43 1.338 . S
C44 H48 0.931 . S
C45 N42 1.313 . S
C45 N46 1.344 . S
C45 H49 0.930 . S
N46 C43 1.377 . S
N46 C45 1.344 . S
O47 Co39 2.055 . S
O47 C51 1.253 . S
H48 C44 0.931 . S
H49 C45 0.930 . S
O50 Co39 2.039 . S
O50 C40 1.265 . S
C51 O47 1.253 . S
C51 O52 1.227 . S
O52 C51 1.227 . S
N53 Co39 2.140 . S
N53 C56 1.346 . S
N53 C57 1.345 . S
C54 C55 1.387 . S
C54 C58 1.391 . S
C55 C54 1.387 . S
C55 C56 1.369 . S
C55 H64 0.929 . S
C56 N53 1.346 . S
C56 C55 1.369 . S
C56 H59 0.928 . S
C57 N53 1.345 . S
C57 C58 1.371 . S
C57 H60 0.931 . S
C58 C54 1.391 . S
C58 C57 1.371 . S
C58 H65 0.930 . S
H59 C56 0.928 . S
H60 C57 0.931 . S
H61 C37 0.930 . S
H62 C34 0.930 . S
H63 C43 0.930 . S
H64 C55 0.929 . S
H65 C58 0.930 . S
C66 C67 1.351 . S
C66 N69 1.368 . S
C66 H71 0.931 . S
C67 C66 1.351 . S
C67 N68 1.373 . S
C67 H95 0.930 . S
N68 C67 1.373 . S
N68 C70 1.340 . S
N69 C66 1.368 . S
N69 C70 1.321 . S
N69 Co72 2.135 . S
C70 N68 1.340 . S
C70 N69 1.321 . S
C70 H94 0.930 . S
H71 C66 0.931 . S
Co72 N69 2.135 . S
Co72 N75 2.121 . S
Co72 O80 2.055 . S
Co72 O83 2.039 . S
Co72 N86 2.140 . S
C73 O74 1.227 . S
C73 O83 1.265 . S
O74 C73 1.227 . S
N75 Co72 2.121 . S
N75 C77 1.375 . S
N75 C78 1.313 . S
C76 C77 1.338 . S
C76 N79 1.377 . S
C76 H96 0.930 . S
C77 N75 1.375 . S
C77 C76 1.338 . S
C77 H81 0.931 . S
C78 N75 1.313 . S
C78 N79 1.344 . S
C78 H82 0.930 . S
N79 C76 1.377 . S
N79 C78 1.344 . S
O80 Co72 2.055 . S
O80 C84 1.253 . S
H81 C77 0.931 . S
H82 C78 0.930 . S
O83 Co72 2.039 . S
O83 C73 1.265 . S
C84 O80 1.253 . S
C84 O85 1.227 . S
O85 C84 1.227 . S
N86 Co72 2.140 . S
N86 C89 1.346 . S
N86 C90 1.345 . S
C87 C88 1.387 . S
C87 C91 1.391 . S
C88 C87 1.387 . S
C88 C89 1.369 . S
C88 H97 0.929 . S
C89 N86 1.346 . S
C89 C88 1.369 . S
C89 H92 0.928 . S
C90 N86 1.345 . S
C90 C91 1.371 . S
C90 H93 0.931 . S
C91 C87 1.391 . S
C91 C90 1.371 . S
C91 H98 0.930 . S
H92 C89 0.928 . S
H93 C90 0.931 . S
H94 C70 0.930 . S
H95 C67 0.930 . S
H96 C76 0.930 . S
H97 C88 0.929 . S
H98 C91 0.930 . S
C99 C100 1.351 . S
C99 N102 1.368 . S
C99 H104 0.931 . S
C100 C99 1.351 . S
C100 N101 1.373 . S
C100 H128 0.930 . S
N101 C100 1.373 . S
N101 C103 1.340 . S
N102 C99 1.368 . S
N102 C103 1.321 . S
N102 Co105 2.135 . S
C103 N101 1.340 . S
C103 N102 1.321 . S
C103 H127 0.930 . S
H104 C99 0.931 . S
Co105 N102 2.135 . S
Co105 N108 2.121 . S
Co105 O113 2.055 . S
Co105 O116 2.039 . S
Co105 N119 2.140 . S
C106 O107 1.227 . S
C106 O116 1.265 . S
O107 C106 1.227 . S
N108 Co105 2.121 . S
N108 C110 1.375 . S
N108 C111 1.313 . S
C109 C110 1.338 . S
C109 N112 1.377 . S
C109 H129 0.930 . S
C110 N108 1.375 . S
C110 C109 1.338 . S
C110 H114 0.931 . S
C111 N108 1.313 . S
C111 N112 1.344 . S
C111 H115 0.930 . S
N112 C109 1.377 . S
N112 C111 1.344 . S
O113 Co105 2.055 . S
O113 C117 1.253 . S
H114 C110 0.931 . S
H115 C111 0.930 . S
O116 Co105 2.039 . S
O116 C106 1.265 . S
C117 O113 1.253 . S
C117 O118 1.227 . S
O118 C117 1.227 . S
N119 Co105 2.140 . S
N119 C122 1.346 . S
N119 C123 1.345 . S
C120 C121 1.387 . S
C120 C124 1.391 . S
C121 C120 1.387 . S
C121 C122 1.369 . S
C121 H130 0.929 . S
C122 N119 1.346 . S
C122 C121 1.369 . S
C122 H125 0.928 . S
C123 N119 1.345 . S
C123 C124 1.371 . S
C123 H126 0.931 . S
C124 C120 1.391 . S
C124 C123 1.371 . S
C124 H131 0.930 . S
H125 C122 0.928 . S
H126 C123 0.931 . S
H127 C103 0.930 . S
H128 C100 0.930 . S
H129 C109 0.930 . S
H130 C121 0.929 . S
H131 C124 0.930 . S
C132 C133 1.351 . S
C132 N135 1.368 . S
C132 H137 0.931 . S
C133 C132 1.351 . S
C133 N134 1.373 . S
C133 H161 0.930 . S
N134 C133 1.373 . S
N134 C136 1.340 . S
N135 C132 1.368 . S
N135 C136 1.321 . S
N135 Co138 2.135 . S
C136 N134 1.340 . S
C136 N135 1.321 . S
C136 H160 0.930 . S
H137 C132 0.931 . S
Co138 N135 2.135 . S
Co138 N141 2.121 . S
Co138 O146 2.055 . S
Co138 O149 2.039 . S
Co138 N152 2.140 . S
C139 O140 1.227 . S
C139 O149 1.265 . S
O140 C139 1.227 . S
N141 Co138 2.121 . S
N141 C143 1.375 . S
N141 C144 1.313 . S
C142 C143 1.338 . S
C142 N145 1.377 . S
C142 H162 0.930 . S
C143 N141 1.375 . S
C143 C142 1.338 . S
C143 H147 0.931 . S
C144 N141 1.313 . S
C144 N145 1.344 . S
C144 H148 0.930 . S
N145 C142 1.377 . S
N145 C144 1.344 . S
O146 Co138 2.055 . S
O146 C150 1.253 . S
H147 C143 0.931 . S
H148 C144 0.930 . S
O149 Co138 2.039 . S
O149 C139 1.265 . S
C150 O146 1.253 . S
C150 O151 1.227 . S
O151 C150 1.227 . S
N152 Co138 2.140 . S
N152 C155 1.346 . S
N152 C156 1.345 . S
C153 C154 1.387 . S
C153 C157 1.391 . S
C154 C153 1.387 . S
C154 C155 1.369 . S
C154 H163 0.929 . S
C155 N152 1.346 . S
C155 C154 1.369 . S
C155 H158 0.928 . S
C156 N152 1.345 . S
C156 C157 1.371 . S
C156 H159 0.931 . S
C157 C153 1.391 . S
C157 C156 1.371 . S
C157 H164 0.930 . S
H158 C155 0.928 . S
H159 C156 0.931 . S
H160 C136 0.930 . S
H161 C133 0.930 . S
H162 C142 0.930 . S
H163 C154 0.929 . S
H164 C157 0.930 . S
C165 C166 1.351 . S
C165 N168 1.368 . S
C165 H170 0.931 . S
C166 C165 1.351 . S
C166 N167 1.373 . S
C166 H194 0.930 . S
N167 C166 1.373 . S
N167 C169 1.340 . S
N168 C165 1.368 . S
N168 C169 1.321 . S
N168 Co171 2.135 . S
C169 N167 1.340 . S
C169 N168 1.321 . S
C169 H193 0.930 . S
H170 C165 0.931 . S
Co171 N168 2.135 . S
Co171 N174 2.121 . S
Co171 O179 2.055 . S
Co171 O182 2.039 . S
Co171 N185 2.140 . S
C172 O173 1.227 . S
C172 O182 1.265 . S
O173 C172 1.227 . S
N174 Co171 2.121 . S
N174 C176 1.375 . S
N174 C177 1.313 . S
C175 C176 1.338 . S
C175 N178 1.377 . S
C175 H195 0.930 . S
C176 N174 1.375 . S
C176 C175 1.338 . S
C176 H180 0.931 . S
C177 N174 1.313 . S
C177 N178 1.344 . S
C177 H181 0.930 . S
N178 C175 1.377 . S
N178 C177 1.344 . S
O179 Co171 2.055 . S
O179 C183 1.253 . S
H180 C176 0.931 . S
H181 C177 0.930 . S
O182 Co171 2.039 . S
O182 C172 1.265 . S
C183 O179 1.253 . S
C183 O184 1.227 . S
O184 C183 1.227 . S
N185 Co171 2.140 . S
N185 C188 1.346 . S
N185 C189 1.345 . S
C186 C187 1.387 . S
C186 C190 1.391 . S
C187 C186 1.387 . S
C187 C188 1.369 . S
C187 H196 0.929 . S
C188 N185 1.346 . S
C188 C187 1.369 . S
C188 H191 0.928 . S
C189 N185 1.345 . S
C189 C190 1.371 . S
C189 H192 0.931 . S
C190 C186 1.391 . S
C190 C189 1.371 . S
C190 H197 0.930 . S
H191 C188 0.928 . S
H192 C189 0.931 . S
H193 C169 0.930 . S
H194 C166 0.930 . S
H195 C175 0.930 . S
H196 C187 0.929 . S
H197 C190 0.930 . S
C198 C199 1.351 . S
C198 N201 1.368 . S
C198 H203 0.931 . S
C199 C198 1.351 . S
C199 N200 1.373 . S
C199 H227 0.930 . S
N200 C199 1.373 . S
N200 C202 1.340 . S
N201 C198 1.368 . S
N201 C202 1.321 . S
N201 Co204 2.135 . S
C202 N200 1.340 . S
C202 N201 1.321 . S
C202 H226 0.930 . S
H203 C198 0.931 . S
Co204 N201 2.135 . S
Co204 N207 2.121 . S
Co204 O212 2.055 . S
Co204 O215 2.039 . S
Co204 N218 2.140 . S
C205 O206 1.227 . S
C205 O215 1.265 . S
O206 C205 1.227 . S
N207 Co204 2.121 . S
N207 C209 1.375 . S
N207 C210 1.313 . S
C208 C209 1.338 . S
C208 N211 1.377 . S
C208 H228 0.930 . S
C209 N207 1.375 . S
C209 C208 1.338 . S
C209 H213 0.931 . S
C210 N207 1.313 . S
C210 N211 1.344 . S
C210 H214 0.930 . S
N211 C208 1.377 . S
N211 C210 1.344 . S
O212 Co204 2.055 . S
O212 C216 1.253 . S
H213 C209 0.931 . S
H214 C210 0.930 . S
O215 Co204 2.039 . S
O215 C205 1.265 . S
C216 O212 1.253 . S
C216 O217 1.227 . S
O217 C216 1.227 . S
N218 Co204 2.140 . S
N218 C221 1.346 . S
N218 C222 1.345 . S
C219 C220 1.387 . S
C219 C223 1.391 . S
C220 C219 1.387 . S
C220 C221 1.369 . S
C220 H229 0.929 . S
C221 N218 1.346 . S
C221 C220 1.369 . S
C221 H224 0.928 . S
C222 N218 1.345 . S
C222 C223 1.371 . S
C222 H225 0.931 . S
C223 C219 1.391 . S
C223 C222 1.371 . S
C223 H230 0.930 . S
H224 C221 0.928 . S
H225 C222 0.931 . S
H226 C202 0.930 . S
H227 C199 0.930 . S
H228 C208 0.930 . S
H229 C220 0.929 . S
H230 C223 0.930 . S
C231 C232 1.351 . S
C231 N234 1.368 . S
C231 H236 0.931 . S
C232 C231 1.351 . S
C232 N233 1.373 . S
C232 H260 0.930 . S
N233 C232 1.373 . S
N233 C235 1.340 . S
N234 C231 1.368 . S
N234 C235 1.321 . S
N234 Co237 2.135 . S
C235 N233 1.340 . S
C235 N234 1.321 . S
C235 H259 0.930 . S
H236 C231 0.931 . S
Co237 N234 2.135 . S
Co237 N240 2.121 . S
Co237 O245 2.055 . S
Co237 O248 2.039 . S
Co237 N251 2.140 . S
C238 O239 1.227 . S
C238 O248 1.265 . S
O239 C238 1.227 . S
N240 Co237 2.121 . S
N240 C242 1.375 . S
N240 C243 1.313 . S
C241 C242 1.338 . S
C241 N244 1.377 . S
C241 H261 0.930 . S
C242 N240 1.375 . S
C242 C241 1.338 . S
C242 H246 0.931 . S
C243 N240 1.313 . S
C243 N244 1.344 . S
C243 H247 0.930 . S
N244 C241 1.377 . S
N244 C243 1.344 . S
O245 Co237 2.055 . S
O245 C249 1.253 . S
H246 C242 0.931 . S
H247 C243 0.930 . S
O248 Co237 2.039 . S
O248 C238 1.265 . S
C249 O245 1.253 . S
C249 O250 1.227 . S
O250 C249 1.227 . S
N251 Co237 2.140 . S
N251 C254 1.346 . S
N251 C255 1.345 . S
C252 C253 1.387 . S
C252 C256 1.391 . S
C253 C252 1.387 . S
C253 C254 1.369 . S
C253 H262 0.929 . S
C254 N251 1.346 . S
C254 C253 1.369 . S
C254 H257 0.928 . S
C255 N251 1.345 . S
C255 C256 1.371 . S
C255 H258 0.931 . S
C256 C252 1.391 . S
C256 C255 1.371 . S
C256 H263 0.930 . S
H257 C254 0.928 . S
H258 C255 0.931 . S
H259 C235 0.930 . S
H260 C232 0.930 . S
H261 C241 0.930 . S
H262 C253 0.929 . S
H263 C256 0.930 . S
C264 C265 1.351 . S
C264 N267 1.368 . S
C264 H269 0.931 . S
C265 C264 1.351 . S
C265 N266 1.373 . S
C265 H293 0.930 . S
N266 C265 1.373 . S
N266 C268 1.340 . S
N267 C264 1.368 . S
N267 C268 1.321 . S
N267 Co270 2.135 . S
C268 N266 1.340 . S
C268 N267 1.321 . S
C268 H292 0.930 . S
H269 C264 0.931 . S
Co270 N267 2.135 . S
Co270 N273 2.121 . S
Co270 O278 2.055 . S
Co270 O281 2.039 . S
Co270 N284 2.140 . S
C271 O272 1.227 . S
C271 O281 1.265 . S
O272 C271 1.227 . S
N273 Co270 2.121 . S
N273 C275 1.375 . S
N273 C276 1.313 . S
C274 C275 1.338 . S
C274 N277 1.377 . S
C274 H294 0.930 . S
C275 N273 1.375 . S
C275 C274 1.338 . S
C275 H279 0.931 . S
C276 N273 1.313 . S
C276 N277 1.344 . S
C276 H280 0.930 . S
N277 C274 1.377 . S
N277 C276 1.344 . S
O278 Co270 2.055 . S
O278 C282 1.253 . S
H279 C275 0.931 . S
H280 C276 0.930 . S
O281 Co270 2.039 . S
O281 C271 1.265 . S
C282 O278 1.253 . S
C282 O283 1.227 . S
O283 C282 1.227 . S
N284 Co270 2.140 . S
N284 C287 1.346 . S
N284 C288 1.345 . S
C285 C286 1.387 . S
C285 C289 1.391 . S
C286 C285 1.387 . S
C286 C287 1.369 . S
C286 H295 0.929 . S
C287 N284 1.346 . S
C287 C286 1.369 . S
C287 H290 0.928 . S
C288 N284 1.345 . S
C288 C289 1.371 . S
C288 H291 0.931 . S
C289 C285 1.391 . S
C289 C288 1.371 . S
C289 H296 0.930 . S
H290 C287 0.928 . S
H291 C288 0.931 . S
H292 C268 0.930 . S
H293 C265 0.930 . S
H294 C274 0.930 . S
H295 C286 0.929 . S
H296 C289 0.930 . S
C297 C298 1.351 . S
C297 N300 1.368 . S
C297 H302 0.931 . S
C298 C297 1.351 . S
C298 N299 1.373 . S
C298 H326 0.930 . S
N299 C298 1.373 . S
N299 C301 1.340 . S
N300 C297 1.368 . S
N300 C301 1.321 . S
N300 Co303 2.135 . S
C301 N299 1.340 . S
C301 N300 1.321 . S
C301 H325 0.930 . S
H302 C297 0.931 . S
Co303 N300 2.135 . S
Co303 N306 2.121 . S
Co303 O311 2.055 . S
Co303 O314 2.039 . S
Co303 N317 2.140 . S
C304 O305 1.227 . S
C304 O314 1.265 . S
O305 C304 1.227 . S
N306 Co303 2.121 . S
N306 C308 1.375 . S
N306 C309 1.313 . S
C307 C308 1.338 . S
C307 N310 1.377 . S
C307 H327 0.930 . S
C308 N306 1.375 . S
C308 C307 1.338 . S
C308 H312 0.931 . S
C309 N306 1.313 . S
C309 N310 1.344 . S
C309 H313 0.930 . S
N310 C307 1.377 . S
N310 C309 1.344 . S
O311 Co303 2.055 . S
O311 C315 1.253 . S
H312 C308 0.931 . S
H313 C309 0.930 . S
O314 Co303 2.039 . S
O314 C304 1.265 . S
C315 O311 1.253 . S
C315 O316 1.227 . S
O316 C315 1.227 . S
N317 Co303 2.140 . S
N317 C320 1.346 . S
N317 C321 1.345 . S
C318 C319 1.387 . S
C318 C322 1.391 . S
C319 C318 1.387 . S
C319 C320 1.369 . S
C319 H328 0.929 . S
C320 N317 1.346 . S
C320 C319 1.369 . S
C320 H323 0.928 . S
C321 N317 1.345 . S
C321 C322 1.371 . S
C321 H324 0.931 . S
C322 C318 1.391 . S
C322 C321 1.371 . S
C322 H329 0.930 . S
H323 C320 0.928 . S
H324 C321 0.931 . S
H325 C301 0.930 . S
H326 C298 0.930 . S
H327 C307 0.930 . S
H328 C319 0.929 . S
H329 C322 0.930 . S
C330 C331 1.351 . S
C330 N333 1.368 . S
C330 H335 0.931 . S
C331 C330 1.351 . S
C331 N332 1.373 . S
C331 H359 0.930 . S
N332 C331 1.373 . S
N332 C334 1.340 . S
N333 C330 1.368 . S
N333 C334 1.321 . S
N333 Co336 2.135 . S
C334 N332 1.340 . S
C334 N333 1.321 . S
C334 H358 0.930 . S
H335 C330 0.931 . S
Co336 N333 2.135 . S
Co336 N339 2.121 . S
Co336 O344 2.055 . S
Co336 O347 2.039 . S
Co336 N350 2.140 . S
C337 O338 1.227 . S
C337 O347 1.265 . S
O338 C337 1.227 . S
N339 Co336 2.121 . S
N339 C341 1.375 . S
N339 C342 1.313 . S
C340 C341 1.338 . S
C340 N343 1.377 . S
C340 H360 0.930 . S
C341 N339 1.375 . S
C341 C340 1.338 . S
C341 H345 0.931 . S
C342 N339 1.313 . S
C342 N343 1.344 . S
C342 H346 0.930 . S
N343 C340 1.377 . S
N343 C342 1.344 . S
O344 Co336 2.055 . S
O344 C348 1.253 . S
H345 C341 0.931 . S
H346 C342 0.930 . S
O347 Co336 2.039 . S
O347 C337 1.265 . S
C348 O344 1.253 . S
C348 O349 1.227 . S
O349 C348 1.227 . S
N350 Co336 2.140 . S
N350 C353 1.346 . S
N350 C354 1.345 . S
C351 C352 1.387 . S
C351 C355 1.391 . S
C352 C351 1.387 . S
C352 C353 1.369 . S
C352 H361 0.929 . S
C353 N350 1.346 . S
C353 C352 1.369 . S
C353 H356 0.928 . S
C354 N350 1.345 . S
C354 C355 1.371 . S
C354 H357 0.931 . S
C355 C351 1.391 . S
C355 C354 1.371 . S
C355 H362 0.930 . S
H356 C353 0.928 . S
H357 C354 0.931 . S
H358 C334 0.930 . S
H359 C331 0.930 . S
H360 C340 0.930 . S
H361 C352 0.929 . S
H362 C355 0.930 . S
C363 C364 1.351 . S
C363 N366 1.368 . S
C363 H368 0.931 . S
C364 C363 1.351 . S
C364 N365 1.373 . S
C364 H392 0.930 . S
N365 C364 1.373 . S
N365 C367 1.340 . S
N366 C363 1.368 . S
N366 C367 1.321 . S
N366 Co369 2.135 . S
C367 N365 1.340 . S
C367 N366 1.321 . S
C367 H391 0.930 . S
H368 C363 0.931 . S
Co369 N366 2.135 . S
Co369 N372 2.121 . S
Co369 O377 2.055 . S
Co369 O380 2.039 . S
Co369 N383 2.140 . S
C370 O371 1.227 . S
C370 O380 1.265 . S
O371 C370 1.227 . S
N372 Co369 2.121 . S
N372 C374 1.375 . S
N372 C375 1.313 . S
C373 C374 1.338 . S
C373 N376 1.377 . S
C373 H393 0.930 . S
C374 N372 1.375 . S
C374 C373 1.338 . S
C374 H378 0.931 . S
C375 N372 1.313 . S
C375 N376 1.344 . S
C375 H379 0.930 . S
N376 C373 1.377 . S
N376 C375 1.344 . S
O377 Co369 2.055 . S
O377 C381 1.253 . S
H378 C374 0.931 . S
H379 C375 0.930 . S
O380 Co369 2.039 . S
O380 C370 1.265 . S
C381 O377 1.253 . S
C381 O382 1.227 . S
O382 C381 1.227 . S
N383 Co369 2.140 . S
N383 C386 1.346 . S
N383 C387 1.345 . S
C384 C385 1.387 . S
C384 C388 1.391 . S
C385 C384 1.387 . S
C385 C386 1.369 . S
C385 H394 0.929 . S
C386 N383 1.346 . S
C386 C385 1.369 . S
C386 H389 0.928 . S
C387 N383 1.345 . S
C387 C388 1.371 . S
C387 H390 0.931 . S
C388 C384 1.391 . S
C388 C387 1.371 . S
C388 H395 0.930 . S
H389 C386 0.928 . S
H390 C387 0.931 . S
H391 C367 0.930 . S
H392 C364 0.930 . S
H393 C373 0.930 . S
H394 C385 0.929 . S
H395 C388 0.930 . S
C396 C397 1.351 . S
C396 N399 1.368 . S
C396 H401 0.931 . S
C397 C396 1.351 . S
C397 N398 1.373 . S
C397 H425 0.930 . S
N398 C397 1.373 . S
N398 C400 1.340 . S
N399 C396 1.368 . S
N399 C400 1.321 . S
N399 Co402 2.135 . S
C400 N398 1.340 . S
C400 N399 1.321 . S
C400 H424 0.930 . S
H401 C396 0.931 . S
Co402 N399 2.135 . S
Co402 N405 2.121 . S
Co402 O410 2.055 . S
Co402 O413 2.039 . S
Co402 N416 2.140 . S
C403 O404 1.227 . S
C403 O413 1.265 . S
O404 C403 1.227 . S
N405 Co402 2.121 . S
N405 C407 1.375 . S
N405 C408 1.313 . S
C406 C407 1.338 . S
C406 N409 1.377 . S
C406 H426 0.930 . S
C407 N405 1.375 . S
C407 C406 1.338 . S
C407 H411 0.931 . S
C408 N405 1.313 . S
C408 N409 1.344 . S
C408 H412 0.930 . S
N409 C406 1.377 . S
N409 C408 1.344 . S
O410 Co402 2.055 . S
O410 C414 1.253 . S
H411 C407 0.931 . S
H412 C408 0.930 . S
O413 Co402 2.039 . S
O413 C403 1.265 . S
C414 O410 1.253 . S
C414 O415 1.227 . S
O415 C414 1.227 . S
N416 Co402 2.140 . S
N416 C419 1.346 . S
N416 C420 1.345 . S
C417 C418 1.387 . S
C417 C421 1.391 . S
C418 C417 1.387 . S
C418 C419 1.369 . S
C418 H427 0.929 . S
C419 N416 1.346 . S
C419 C418 1.369 . S
C419 H422 0.928 . S
C420 N416 1.345 . S
C420 C421 1.371 . S
C420 H423 0.931 . S
C421 C417 1.391 . S
C421 C420 1.371 . S
C421 H428 0.930 . S
H422 C419 0.928 . S
H423 C420 0.931 . S
H424 C400 0.930 . S
H425 C397 0.930 . S
H426 C406 0.930 . S
H427 C418 0.929 . S
H428 C421 0.930 . S
C429 C430 1.351 . S
C429 N432 1.368 . S
C429 H434 0.931 . S
C430 C429 1.351 . S
C430 N431 1.373 . S
C430 H458 0.930 . S
N431 C430 1.373 . S
N431 C433 1.340 . S
N432 C429 1.368 . S
N432 C433 1.321 . S
N432 Co435 2.135 . S
C433 N431 1.340 . S
C433 N432 1.321 . S
C433 H457 0.930 . S
H434 C429 0.931 . S
Co435 N432 2.135 . S
Co435 N438 2.121 . S
Co435 O443 2.055 . S
Co435 O446 2.039 . S
Co435 N449 2.140 . S
C436 O437 1.227 . S
C436 O446 1.265 . S
O437 C436 1.227 . S
N438 Co435 2.121 . S
N438 C440 1.375 . S
N438 C441 1.313 . S
C439 C440 1.338 . S
C439 N442 1.377 . S
C439 H459 0.930 . S
C440 N438 1.375 . S
C440 C439 1.338 . S
C440 H444 0.931 . S
C441 N438 1.313 . S
C441 N442 1.344 . S
C441 H445 0.930 . S
N442 C439 1.377 . S
N442 C441 1.344 . S
O443 Co435 2.055 . S
O443 C447 1.253 . S
H444 C440 0.931 . S
H445 C441 0.930 . S
O446 Co435 2.039 . S
O446 C436 1.265 . S
C447 O443 1.253 . S
C447 O448 1.227 . S
O448 C447 1.227 . S
N449 Co435 2.140 . S
N449 C452 1.346 . S
N449 C453 1.345 . S
C450 C451 1.387 . S
C450 C454 1.391 . S
C451 C450 1.387 . S
C451 C452 1.369 . S
C451 H460 0.929 . S
C452 N449 1.346 . S
C452 C451 1.369 . S
C452 H455 0.928 . S
C453 N449 1.345 . S
C453 C454 1.371 . S
C453 H456 0.931 . S
C454 C450 1.391 . S
C454 C453 1.371 . S
C454 H461 0.930 . S
H455 C452 0.928 . S
H456 C453 0.931 . S
H457 C433 0.930 . S
H458 C430 0.930 . S
H459 C439 0.930 . S
H460 C451 0.929 . S
H461 C454 0.930 . S
C462 C463 1.351 . S
C462 N465 1.368 . S
C462 H467 0.931 . S
C463 C462 1.351 . S
C463 N464 1.373 . S
C463 H491 0.930 . S
N464 C463 1.373 . S
N464 C466 1.340 . S
N465 C462 1.368 . S
N465 C466 1.321 . S
N465 Co468 2.135 . S
C466 N464 1.340 . S
C466 N465 1.321 . S
C466 H490 0.930 . S
H467 C462 0.931 . S
Co468 N465 2.135 . S
Co468 N471 2.121 . S
Co468 O476 2.055 . S
Co468 O479 2.039 . S
Co468 N482 2.140 . S
C469 O470 1.227 . S
C469 O479 1.265 . S
O470 C469 1.227 . S
N471 Co468 2.121 . S
N471 C473 1.375 . S
N471 C474 1.313 . S
C472 C473 1.338 . S
C472 N475 1.377 . S
C472 H492 0.930 . S
C473 N471 1.375 . S
C473 C472 1.338 . S
C473 H477 0.931 . S
C474 N471 1.313 . S
C474 N475 1.344 . S
C474 H478 0.930 . S
N475 C472 1.377 . S
N475 C474 1.344 . S
O476 Co468 2.055 . S
O476 C480 1.253 . S
H477 C473 0.931 . S
H478 C474 0.930 . S
O479 Co468 2.039 . S
O479 C469 1.265 . S
C480 O476 1.253 . S
C480 O481 1.227 . S
O481 C480 1.227 . S
N482 Co468 2.140 . S
N482 C485 1.346 . S
N482 C486 1.345 . S
C483 C484 1.387 . S
C483 C487 1.391 . S
C484 C483 1.387 . S
C484 C485 1.369 . S
C484 H493 0.929 . S
C485 N482 1.346 . S
C485 C484 1.369 . S
C485 H488 0.928 . S
C486 N482 1.345 . S
C486 C487 1.371 . S
C486 H489 0.931 . S
C487 C483 1.391 . S
C487 C486 1.371 . S
C487 H494 0.930 . S
H488 C485 0.928 . S
H489 C486 0.931 . S
H490 C466 0.930 . S
H491 C463 0.930 . S
H492 C472 0.930 . S
H493 C484 0.929 . S
H494 C487 0.930 . S
C495 C496 1.351 . S
C495 N498 1.368 . S
C495 H500 0.931 . S
C496 C495 1.351 . S
C496 N497 1.373 . S
C496 H524 0.930 . S
N497 C496 1.373 . S
N497 C499 1.340 . S
N498 C495 1.368 . S
N498 C499 1.321 . S
N498 Co501 2.135 . S
C499 N497 1.340 . S
C499 N498 1.321 . S
C499 H523 0.930 . S
H500 C495 0.931 . S
Co501 N498 2.135 . S
Co501 N504 2.121 . S
Co501 O509 2.055 . S
Co501 O512 2.039 . S
Co501 N515 2.140 . S
C502 O503 1.227 . S
C502 O512 1.265 . S
O503 C502 1.227 . S
N504 Co501 2.121 . S
N504 C506 1.375 . S
N504 C507 1.313 . S
C505 C506 1.338 . S
C505 N508 1.377 . S
C505 H525 0.930 . S
C506 N504 1.375 . S
C506 C505 1.338 . S
C506 H510 0.931 . S
C507 N504 1.313 . S
C507 N508 1.344 . S
C507 H511 0.930 . S
N508 C505 1.377 . S
N508 C507 1.344 . S
O509 Co501 2.055 . S
O509 C513 1.253 . S
H510 C506 0.931 . S
H511 C507 0.930 . S
O512 Co501 2.039 . S
O512 C502 1.265 . S
C513 O509 1.253 . S
C513 O514 1.227 . S
O514 C513 1.227 . S
N515 Co501 2.140 . S
N515 C518 1.346 . S
N515 C519 1.345 . S
C516 C517 1.387 . S
C516 C520 1.391 . S
C517 C516 1.387 . S
C517 C518 1.369 . S
C517 H526 0.929 . S
C518 N515 1.346 . S
C518 C517 1.369 . S
C518 H521 0.928 . S
C519 N515 1.345 . S
C519 C520 1.371 . S
C519 H522 0.931 . S
C520 C516 1.391 . S
C520 C519 1.371 . S
C520 H527 0.930 . S
H521 C518 0.928 . S
H522 C519 0.931 . S
H523 C499 0.930 . S
H524 C496 0.930 . S
H525 C505 0.930 . S
H526 C517 0.929 . S
H527 C520 0.930 . S
C528 C529 1.391 1_565 S
C528 C530 1.394 . S
C528 H544 0.931 . S
C529 C528 1.391 1_545 S
C529 C533 1.376 . S
C530 C528 1.394 . S
C530 C531 1.369 . S
C530 C534 1.531 . S
C531 C530 1.369 . S
C531 C532 1.410 . S
C531 C539 1.503 . S
C532 C531 1.410 . S
C532 C533 1.392 1_565 S
C532 C535 1.511 . S
C533 C529 1.376 . S
C533 C532 1.392 1_545 S
C533 H545 0.929 . S
C534 C530 1.531 . S
C534 H546 0.960 . S
C534 H547 0.962 . S
C534 H548 0.960 . S
C535 C532 1.511 . S
C535 H549 0.961 . S
C535 H550 0.961 . S
C535 H551 0.961 . S
C536 C537 1.370 . S
C536 C538 1.363 . S
C536 H552 0.931 . S
C537 C536 1.370 . S
C537 C541 1.408 . S
C538 C536 1.363 . S
C538 C539 1.370 . S
C538 C542 1.524 . S
C539 C531 1.503 . S
C539 C538 1.370 . S
C539 C540 1.403 . S
C540 C539 1.403 . S
C540 C541 1.404 . S
C540 C543 1.539 . S
C541 C537 1.408 . S
C541 C540 1.404 . S
C541 H553 0.930 . S
C542 C538 1.524 . S
C542 H554 0.956 . S
C542 H555 0.961 . S
C542 H556 0.961 . S
C543 C540 1.539 . S
C543 H557 0.958 . S
C543 H558 0.961 . S
C543 H559 0.960 . S
H544 C528 0.931 . S
H545 C533 0.929 . S
H546 C534 0.960 . S
H547 C534 0.962 . S
H548 C534 0.960 . S
H549 C535 0.961 . S
H550 C535 0.961 . S
H551 C535 0.961 . S
H552 C536 0.931 . S
H553 C541 0.930 . S
H554 C542 0.956 . S
H555 C542 0.961 . S
H556 C542 0.961 . S
H557 C543 0.958 . S
H558 C543 0.961 . S
H559 C543 0.960 . S
C560 C561 1.391 . S
C560 C562 1.394 . S
C560 H576 0.931 . S
C561 C560 1.391 . S
C561 C565 1.376 . S
C562 C560 1.394 . S
C562 C563 1.369 . S
C562 C566 1.531 . S
C563 C562 1.369 . S
C563 C564 1.410 . S
C563 C571 1.503 . S
C564 C563 1.410 . S
C564 C565 1.392 . S
C564 C567 1.511 . S
C565 C561 1.376 . S
C565 C564 1.392 . S
C565 H577 0.929 . S
C566 C562 1.531 . S
C566 H578 0.960 . S
C566 H579 0.962 . S
C566 H580 0.960 . S
C567 C564 1.511 . S
C567 H581 0.961 . S
C567 H582 0.961 . S
C567 H583 0.961 . S
C568 C569 1.370 . S
C568 C570 1.363 . S
C568 H584 0.931 . S
C569 C568 1.370 . S
C569 C573 1.408 . S
C570 C568 1.363 . S
C570 C571 1.370 . S
C570 C574 1.524 . S
C571 C563 1.503 . S
C571 C570 1.370 . S
C571 C572 1.403 . S
C572 C571 1.403 . S
C572 C573 1.404 . S
C572 C575 1.539 . S
C573 C569 1.408 . S
C573 C572 1.404 . S
C573 H585 0.930 . S
C574 C570 1.524 . S
C574 H586 0.956 . S
C574 H587 0.961 . S
C574 H588 0.961 . S
C575 C572 1.539 . S
C575 H589 0.958 . S
C575 H590 0.961 . S
C575 H591 0.960 . S
H576 C560 0.931 . S
H577 C565 0.929 . S
H578 C566 0.960 . S
H579 C566 0.962 . S
H580 C566 0.960 . S
H581 C567 0.961 . S
H582 C567 0.961 . S
H583 C567 0.961 . S
H584 C568 0.931 . S
H585 C573 0.930 . S
H586 C574 0.956 . S
H587 C574 0.961 . S
H588 C574 0.961 . S
H589 C575 0.958 . S
H590 C575 0.961 . S
H591 C575 0.960 . S
C592 C593 1.391 . S
C592 C594 1.394 1_565 S
C592 H608 0.931 . S
C593 C592 1.391 . S
C593 C597 1.376 1_565 S
C594 C592 1.394 1_545 S
C594 C595 1.369 . S
C594 C598 1.531 . S
C595 C594 1.369 . S
C595 C596 1.410 . S
C595 C603 1.503 . S
C596 C595 1.410 . S
C596 C597 1.392 . S
C596 C599 1.511 . S
C597 C593 1.376 1_545 S
C597 C596 1.392 . S
C597 H609 0.929 . S
C598 C594 1.531 . S
C598 H610 0.960 . S
C598 H611 0.962 . S
C598 H612 0.960 . S
C599 C596 1.511 . S
C599 H613 0.961 . S
C599 H614 0.961 . S
C599 H615 0.961 . S
C600 C601 1.370 . S
C600 C602 1.363 . S
C600 H616 0.931 . S
C601 C600 1.370 . S
C601 C605 1.408 . S
C602 C600 1.363 . S
C602 C603 1.370 . S
C602 C606 1.524 . S
C603 C595 1.503 . S
C603 C602 1.370 . S
C603 C604 1.403 . S
C604 C603 1.403 . S
C604 C605 1.404 . S
C604 C607 1.539 . S
C605 C601 1.408 . S
C605 C604 1.404 . S
C605 H617 0.930 . S
C606 C602 1.524 . S
C606 H618 0.956 . S
C606 H619 0.961 . S
C606 H620 0.961 . S
C607 C604 1.539 . S
C607 H621 0.958 . S
C607 H622 0.961 . S
C607 H623 0.960 . S
H608 C592 0.931 . S
H609 C597 0.929 . S
H610 C598 0.960 . S
H611 C598 0.962 . S
H612 C598 0.960 . S
H613 C599 0.961 . S
H614 C599 0.961 . S
H615 C599 0.961 . S
H616 C600 0.931 . S
H617 C605 0.930 . S
H618 C606 0.956 . S
H619 C606 0.961 . S
H620 C606 0.961 . S
H621 C607 0.958 . S
H622 C607 0.961 . S
H623 C607 0.960 . S
C624 C625 1.391 . S
C624 C626 1.394 . S
C624 H640 0.931 . S
C625 C624 1.391 . S
C625 C629 1.376 . S
C626 C624 1.394 . S
C626 C627 1.369 . S
C626 C630 1.531 . S
C627 C626 1.369 . S
C627 C628 1.410 . S
C627 C635 1.503 . S
C628 C627 1.410 . S
C628 C629 1.392 . S
C628 C631 1.511 . S
C629 C625 1.376 . S
C629 C628 1.392 . S
C629 H641 0.929 . S
C630 C626 1.531 . S
C630 H642 0.960 . S
C630 H643 0.962 . S
C630 H644 0.960 . S
C631 C628 1.511 . S
C631 H645 0.961 . S
C631 H646 0.961 . S
C631 H647 0.961 . S
C632 C633 1.370 . S
C632 C634 1.363 . S
C632 H648 0.931 . S
C633 C632 1.370 . S
C633 C637 1.408 . S
C634 C632 1.363 . S
C634 C635 1.370 . S
C634 C638 1.524 . S
C635 C627 1.503 . S
C635 C634 1.370 . S
C635 C636 1.403 . S
C636 C635 1.403 . S
C636 C637 1.404 . S
C636 C639 1.539 . S
C637 C633 1.408 . S
C637 C636 1.404 . S
C637 H649 0.930 . S
C638 C634 1.524 . S
C638 H650 0.956 . S
C638 H651 0.961 . S
C638 H652 0.961 . S
C639 C636 1.539 . S
C639 H653 0.958 . S
C639 H654 0.961 . S
C639 H655 0.960 . S
H640 C624 0.931 . S
H641 C629 0.929 . S
H642 C630 0.960 . S
H643 C630 0.962 . S
H644 C630 0.960 . S
H645 C631 0.961 . S
H646 C631 0.961 . S
H647 C631 0.961 . S
H648 C632 0.931 . S
H649 C637 0.930 . S
H650 C638 0.956 . S
H651 C638 0.961 . S
H652 C638 0.961 . S
H653 C639 0.958 . S
H654 C639 0.961 . S
H655 C639 0.960 . S
C656 C657 1.391 1_545 S
C656 C658 1.394 . S
C656 H672 0.931 . S
C657 C656 1.391 1_565 S
C657 C661 1.374 1_565 S
C658 C656 1.394 . S
C658 C659 1.369 . S
C658 C662 1.531 . S
C659 C658 1.369 . S
C659 C660 1.410 . S
C659 C667 1.503 . S
C660 C659 1.410 . S
C660 C661 1.403 . S
C660 C663 1.511 . S
C661 C657 1.374 1_545 S
C661 C660 1.403 . S
C661 H673 0.920 1_545 S
C662 C658 1.531 . S
C662 H674 0.960 . S
C662 H675 0.962 . S
C662 H676 0.960 . S
C663 C660 1.511 . S
C663 H677 0.961 . S
C663 H678 0.961 . S
C663 H679 0.961 . S
C664 C665 1.370 . S
C664 C666 1.363 . S
C664 H680 0.931 . S
C665 C664 1.370 . S
C665 C669 1.408 . S
C666 C664 1.363 . S
C666 C667 1.370 . S
C666 C670 1.524 . S
C667 C659 1.503 . S
C667 C666 1.370 . S
C667 C668 1.403 . S
C668 C667 1.403 . S
C668 C669 1.404 . S
C668 C671 1.539 . S
C669 C665 1.408 . S
C669 C668 1.404 . S
C669 H681 0.930 . S
C670 C666 1.524 . S
C670 H682 0.956 . S
C670 H683 0.961 . S
C670 H684 0.961 . S
C671 C668 1.539 . S
C671 H685 0.958 . S
C671 H686 0.961 . S
C671 H687 0.960 . S
H672 C656 0.931 . S
H673 C661 0.920 1_565 S
H674 C662 0.960 . S
H675 C662 0.962 . S
H676 C662 0.960 . S
H677 C663 0.961 . S
H678 C663 0.961 . S
H679 C663 0.961 . S
H680 C664 0.931 . S
H681 C669 0.930 . S
H682 C670 0.956 . S
H683 C670 0.961 . S
H684 C670 0.961 . S
H685 C671 0.958 . S
H686 C671 0.961 . S
H687 C671 0.960 . S
C688 C689 1.391 . S
C688 C690 1.394 . S
C688 H704 0.931 . S
C689 C688 1.391 . S
C689 C693 1.376 . S
C690 C688 1.394 . S
C690 C691 1.369 . S
C690 C694 1.531 . S
C691 C690 1.369 . S
C691 C692 1.410 . S
C691 C699 1.503 . S
C692 C691 1.410 . S
C692 C693 1.392 . S
C692 C695 1.511 . S
C693 C689 1.376 . S
C693 C692 1.392 . S
C693 H705 0.929 . S
C694 C690 1.531 . S
C694 H706 0.960 . S
C694 H707 0.962 . S
C694 H708 0.960 . S
C695 C692 1.511 . S
C695 H709 0.961 . S
C695 H710 0.961 . S
C695 H711 0.961 . S
C696 C697 1.370 . S
C696 C698 1.363 . S
C696 H712 0.931 . S
C697 C696 1.370 . S
C697 C701 1.408 . S
C698 C696 1.363 . S
C698 C699 1.370 . S
C698 C702 1.524 . S
C699 C691 1.503 . S
C699 C698 1.370 . S
C699 C700 1.403 . S
C700 C699 1.403 . S
C700 C701 1.404 . S
C700 C703 1.539 . S
C701 C697 1.408 . S
C701 C700 1.404 . S
C701 H713 0.930 . S
C702 C698 1.524 . S
C702 H714 0.956 . S
C702 H715 0.961 . S
C702 H716 0.961 . S
C703 C700 1.539 . S
C703 H717 0.958 . S
C703 H718 0.961 . S
C703 H719 0.960 . S
H704 C688 0.931 . S
H705 C693 0.929 . S
H706 C694 0.960 . S
H707 C694 0.962 . S
H708 C694 0.960 . S
H709 C695 0.961 . S
H710 C695 0.961 . S
H711 C695 0.961 . S
H712 C696 0.931 . S
H713 C701 0.930 . S
H714 C702 0.956 . S
H715 C702 0.961 . S
H716 C702 0.961 . S
H717 C703 0.958 . S
H718 C703 0.961 . S
H719 C703 0.960 . S
C720 C721 1.391 1_565 S
C720 C722 1.394 . S
C720 H736 0.931 . S
C721 C720 1.391 1_545 S
C721 C725 1.376 . S
C722 C720 1.394 . S
C722 C723 1.369 . S
C722 C726 1.531 . S
C723 C722 1.369 . S
C723 C724 1.410 . S
C723 C731 1.503 . S
C724 C723 1.410 . S
C724 C725 1.392 1_565 S
C724 C727 1.511 . S
C725 C721 1.376 . S
C725 C724 1.392 1_545 S
C725 H737 0.929 . S
C726 C722 1.531 . S
C726 H738 0.960 . S
C726 H739 0.962 . S
C726 H740 0.960 . S
C727 C724 1.511 . S
C727 H741 0.961 . S
C727 H742 0.961 . S
C727 H743 0.961 . S
C728 C729 1.370 . S
C728 C730 1.363 . S
C728 H744 0.931 . S
C729 C728 1.370 . S
C729 C733 1.408 . S
C730 C728 1.363 . S
C730 C731 1.370 . S
C730 C734 1.524 . S
C731 C723 1.503 . S
C731 C730 1.370 . S
C731 C732 1.403 . S
C732 C731 1.403 . S
C732 C733 1.404 . S
C732 C735 1.539 . S
C733 C729 1.408 . S
C733 C732 1.404 . S
C733 H745 0.930 . S
C734 C730 1.524 . S
C734 H746 0.956 . S
C734 H747 0.961 . S
C734 H748 0.961 . S
C735 C732 1.539 . S
C735 H749 0.958 . S
C735 H750 0.961 . S
C735 H751 0.960 . S
H736 C720 0.931 . S
H737 C725 0.929 . S
H738 C726 0.960 . S
H739 C726 0.962 . S
H740 C726 0.960 . S
H741 C727 0.961 . S
H742 C727 0.961 . S
H743 C727 0.961 . S
H744 C728 0.931 . S
H745 C733 0.930 . S
H746 C734 0.956 . S
H747 C734 0.961 . S
H748 C734 0.961 . S
H749 C735 0.958 . S
H750 C735 0.961 . S
H751 C735 0.960 . S
C752 C753 1.391 . S
C752 C754 1.394 . S
C752 H768 0.931 . S
C753 C752 1.391 . S
C753 C757 1.376 . S
C754 C752 1.394 . S
C754 C755 1.369 . S
C754 C758 1.531 . S
C755 C754 1.369 . S
C755 C756 1.410 . S
C755 C763 1.503 . S
C756 C755 1.410 . S
C756 C757 1.392 . S
C756 C759 1.511 . S
C757 C753 1.376 . S
C757 C756 1.392 . S
C757 H769 0.929 . S
C758 C754 1.531 . S
C758 H770 0.960 . S
C758 H771 0.962 . S
C758 H772 0.960 . S
C759 C756 1.511 . S
C759 H773 0.961 . S
C759 H774 0.961 . S
C759 H775 0.961 . S
C760 C761 1.370 . S
C760 C762 1.363 . S
C760 H776 0.931 . S
C761 C760 1.370 . S
C761 C765 1.408 . S
C762 C760 1.363 . S
C762 C763 1.370 . S
C762 C766 1.524 . S
C763 C755 1.503 . S
C763 C762 1.370 . S
C763 C764 1.403 . S
C764 C763 1.403 . S
C764 C765 1.404 . S
C764 C767 1.539 . S
C765 C761 1.408 . S
C765 C764 1.404 . S
C765 H777 0.930 . S
C766 C762 1.524 . S
C766 H778 0.956 . S
C766 H779 0.961 . S
C766 H780 0.961 . S
C767 C764 1.539 . S
C767 H781 0.958 . S
C767 H782 0.961 . S
C767 H783 0.960 . S
H768 C752 0.931 . S
H769 C757 0.929 . S
H770 C758 0.960 . S
H771 C758 0.962 . S
H772 C758 0.960 . S
H773 C759 0.961 . S
H774 C759 0.961 . S
H775 C759 0.961 . S
H776 C760 0.931 . S
H777 C765 0.930 . S
H778 C766 0.956 . S
H779 C766 0.961 . S
H780 C766 0.961 . S
H781 C767 0.958 . S
H782 C767 0.961 . S
H783 C767 0.960 . S
C784 C785 1.391 . S
C784 C786 1.394 . S
C784 H800 0.931 . S
C785 C784 1.391 . S
C785 C789 1.376 . S
C786 C784 1.394 . S
C786 C787 1.369 . S
C786 C790 1.531 . S
C787 C786 1.369 . S
C787 C788 1.410 . S
C787 C795 1.503 . S
C788 C787 1.410 . S
C788 C789 1.392 . S
C788 C791 1.511 . S
C789 C785 1.376 . S
C789 C788 1.392 . S
C789 H801 0.929 . S
C790 C786 1.531 . S
C790 H802 0.960 . S
C790 H803 0.962 . S
C790 H804 0.960 . S
C791 C788 1.511 . S
C791 H805 0.961 . S
C791 H806 0.961 . S
C791 H807 0.961 . S
C792 C793 1.370 . S
C792 C794 1.363 . S
C792 H808 0.931 . S
C793 C792 1.370 . S
C793 C797 1.408 . S
C794 C792 1.363 . S
C794 C795 1.370 . S
C794 C798 1.524 . S
C795 C787 1.503 . S
C795 C794 1.370 . S
C795 C796 1.403 . S
C796 C795 1.403 . S
C796 C797 1.404 . S
C796 C799 1.539 . S
C797 C793 1.408 . S
C797 C796 1.404 . S
C797 H809 0.930 . S
C798 C794 1.524 . S
C798 H810 0.956 . S
C798 H811 0.961 . S
C798 H812 0.961 . S
C799 C796 1.539 . S
C799 H813 0.958 . S
C799 H814 0.961 . S
C799 H815 0.960 . S
H800 C784 0.931 . S
H801 C789 0.929 . S
H802 C790 0.960 . S
H803 C790 0.962 . S
H804 C790 0.960 . S
H805 C791 0.961 . S
H806 C791 0.961 . S
H807 C791 0.961 . S
H808 C792 0.931 . S
H809 C797 0.930 . S
H810 C798 0.956 . S
H811 C798 0.961 . S
H812 C798 0.961 . S
H813 C799 0.958 . S
H814 C799 0.961 . S
H815 C799 0.960 . S
C816 C817 1.391 . S
C816 C818 1.394 . S
C816 H832 0.931 . S
C817 C816 1.391 . S
C817 C821 1.376 . S
C818 C816 1.394 . S
C818 C819 1.369 . S
C818 C822 1.531 . S
C819 C818 1.369 . S
C819 C820 1.410 . S
C819 C827 1.503 . S
C820 C819 1.410 . S
C820 C821 1.392 . S
C820 C823 1.511 . S
C821 C817 1.376 . S
C821 C820 1.392 . S
C821 H833 0.929 . S
C822 C818 1.531 . S
C822 H834 0.960 . S
C822 H835 0.962 . S
C822 H836 0.960 . S
C823 C820 1.511 . S
C823 H837 0.961 . S
C823 H838 0.961 . S
C823 H839 0.961 . S
C824 C825 1.370 1_545 S
C824 C826 1.363 . S
C824 H840 0.931 1_545 S
C825 C824 1.370 1_565 S
C825 C829 1.408 1_565 S
C826 C824 1.363 . S
C826 C827 1.370 . S
C826 C830 1.524 . S
C827 C819 1.503 . S
C827 C826 1.370 . S
C827 C828 1.403 . S
C828 C827 1.403 . S
C828 C829 1.404 . S
C828 C831 1.539 . S
C829 C825 1.408 1_545 S
C829 C828 1.404 . S
C829 H841 0.930 . S
C830 C826 1.524 . S
C830 H842 0.956 . S
C830 H843 0.961 . S
C830 H844 0.961 . S
C831 C828 1.539 . S
C831 H845 0.958 . S
C831 H846 0.961 . S
C831 H847 0.960 . S
H832 C816 0.931 . S
H833 C821 0.929 . S
H834 C822 0.960 . S
H835 C822 0.962 . S
H836 C822 0.960 . S
H837 C823 0.961 . S
H838 C823 0.961 . S
H839 C823 0.961 . S
H840 C824 0.931 1_565 S
H841 C829 0.930 . S
H842 C830 0.956 . S
H843 C830 0.961 . S
H844 C830 0.961 . S
H845 C831 0.958 . S
H846 C831 0.961 . S
H847 C831 0.960 . S
C848 C849 1.391 . S
C848 C850 1.394 . S
C848 H864 0.931 . S
C849 C848 1.391 . S
C849 C853 1.376 . S
C850 C848 1.394 . S
C850 C851 1.369 . S
C850 C854 1.531 . S
C851 C850 1.369 . S
C851 C852 1.410 . S
C851 C859 1.503 . S
C852 C851 1.410 . S
C852 C853 1.392 . S
C852 C855 1.511 . S
C853 C849 1.376 . S
C853 C852 1.392 . S
C853 H865 0.929 . S
C854 C850 1.531 . S
C854 H866 0.960 . S
C854 H867 0.962 . S
C854 H868 0.960 . S
C855 C852 1.511 . S
C855 H869 0.961 . S
C855 H870 0.961 . S
C855 H871 0.961 . S
C856 C857 1.370 . S
C856 C858 1.363 . S
C856 H872 0.931 . S
C857 C856 1.370 . S
C857 C861 1.408 . S
C858 C856 1.363 . S
C858 C859 1.370 . S
C858 C862 1.524 . S
C859 C851 1.503 . S
C859 C858 1.370 . S
C859 C860 1.403 . S
C860 C859 1.403 . S
C860 C861 1.404 . S
C860 C863 1.539 . S
C861 C857 1.408 . S
C861 C860 1.404 . S
C861 H873 0.930 . S
C862 C858 1.524 . S
C862 H874 0.956 . S
C862 H875 0.961 . S
C862 H876 0.961 . S
C863 C860 1.539 . S
C863 H877 0.958 . S
C863 H878 0.961 . S
C863 H879 0.960 . S
H864 C848 0.931 . S
H865 C853 0.929 . S
H866 C854 0.960 . S
H867 C854 0.962 . S
H868 C854 0.960 . S
H869 C855 0.961 . S
H870 C855 0.961 . S
H871 C855 0.961 . S
H872 C856 0.931 . S
H873 C861 0.930 . S
H874 C862 0.956 . S
H875 C862 0.961 . S
H876 C862 0.961 . S
H877 C863 0.958 . S
H878 C863 0.961 . S
H879 C863 0.960 . S
C880 C881 1.391 1_565 S
C880 C882 1.394 . S
C880 H896 0.931 1_565 S
C881 C880 1.391 1_545 S
C881 C885 1.376 1_545 S
C882 C880 1.394 . S
C882 C883 1.369 . S
C882 C886 1.531 . S
C883 C882 1.369 . S
C883 C884 1.410 . S
C883 C891 1.503 . S
C884 C883 1.410 . S
C884 C885 1.392 . S
C884 C887 1.511 . S
C885 C881 1.376 1_565 S
C885 C884 1.392 . S
C885 H897 0.929 . S
C886 C882 1.531 . S
C886 H898 0.960 . S
C886 H899 0.962 . S
C886 H900 0.960 . S
C887 C884 1.511 . S
C887 H901 0.961 . S
C887 H902 0.961 . S
C887 H903 0.961 . S
C888 C889 1.370 . S
C888 C890 1.363 . S
C888 H904 0.931 . S
C889 C888 1.370 . S
C889 C893 1.408 . S
C890 C888 1.363 . S
C890 C891 1.370 . S
C890 C894 1.524 . S
C891 C883 1.503 . S
C891 C890 1.370 . S
C891 C892 1.403 . S
C892 C891 1.403 . S
C892 C893 1.404 . S
C892 C895 1.539 . S
C893 C889 1.408 . S
C893 C892 1.404 . S
C893 H905 0.930 . S
C894 C890 1.524 . S
C894 H906 0.956 . S
C894 H907 0.961 . S
C894 H908 0.961 . S
C895 C892 1.539 . S
C895 H909 0.958 . S
C895 H910 0.961 . S
C895 H911 0.960 . S
H896 C880 0.931 1_545 S
H897 C885 0.929 . S
H898 C886 0.960 . S
H899 C886 0.962 . S
H900 C886 0.960 . S
H901 C887 0.961 . S
H902 C887 0.961 . S
H903 C887 0.961 . S
H904 C888 0.931 . S
H905 C893 0.930 . S
H906 C894 0.956 . S
H907 C894 0.961 . S
H908 C894 0.961 . S
H909 C895 0.958 . S
H910 C895 0.961 . S
H911 C895 0.960 . S
C912 C913 1.391 . S
C912 C914 1.394 . S
C912 H928 0.931 . S
C913 C912 1.391 . S
C913 C917 1.376 . S
C914 C912 1.394 . S
C914 C915 1.369 . S
C914 C918 1.531 . S
C915 C914 1.369 . S
C915 C916 1.410 . S
C915 C923 1.503 . S
C916 C915 1.410 . S
C916 C917 1.392 . S
C916 C919 1.511 . S
C917 C913 1.376 . S
C917 C916 1.392 . S
C917 H929 0.929 . S
C918 C914 1.531 . S
C918 H930 0.960 . S
C918 H931 0.962 . S
C918 H932 0.960 . S
C919 C916 1.511 . S
C919 H933 0.961 . S
C919 H934 0.961 . S
C919 H935 0.961 . S
C920 C921 1.370 . S
C920 C922 1.363 . S
C920 H936 0.931 . S
C921 C920 1.370 . S
C921 C925 1.408 . S
C922 C920 1.363 . S
C922 C923 1.370 . S
C922 C926 1.524 . S
C923 C915 1.503 . S
C923 C922 1.370 . S
C923 C924 1.403 . S
C924 C923 1.403 . S
C924 C925 1.404 . S
C924 C927 1.539 . S
C925 C921 1.408 . S
C925 C924 1.404 . S
C925 H937 0.930 . S
C926 C922 1.524 . S
C926 H938 0.956 . S
C926 H939 0.961 . S
C926 H940 0.961 . S
C927 C924 1.539 . S
C927 H941 0.958 . S
C927 H942 0.961 . S
C927 H943 0.960 . S
H928 C912 0.931 . S
H929 C917 0.929 . S
H930 C918 0.960 . S
H931 C918 0.962 . S
H932 C918 0.960 . S
H933 C919 0.961 . S
H934 C919 0.961 . S
H935 C919 0.961 . S
H936 C920 0.931 . S
H937 C925 0.930 . S
H938 C926 0.956 . S
H939 C926 0.961 . S
H940 C926 0.961 . S
H941 C927 0.958 . S
H942 C927 0.961 . S
H943 C927 0.960 . S
C944 C945 1.391 . S
C944 C946 1.394 1_545 S
C944 H960 0.931 . S
C945 C944 1.391 . S
C945 C949 1.376 1_545 S
C946 C944 1.394 1_565 S
C946 C947 1.369 . S
C946 C950 1.531 . S
C947 C946 1.369 . S
C947 C948 1.410 . S
C947 C955 1.503 . S
C948 C947 1.410 . S
C948 C949 1.392 . S
C948 C951 1.511 . S
C949 C945 1.376 1_565 S
C949 C948 1.392 . S
C949 H961 0.929 . S
C950 C946 1.531 . S
C950 H962 0.960 . S
C950 H963 0.962 . S
C950 H964 0.960 . S
C951 C948 1.511 . S
C951 H965 0.961 . S
C951 H966 0.961 . S
C951 H967 0.961 . S
C952 C953 1.370 . S
C952 C954 1.363 . S
C952 H968 0.931 . S
C953 C952 1.370 . S
C953 C957 1.408 . S
C954 C952 1.363 . S
C954 C955 1.370 . S
C954 C958 1.524 . S
C955 C947 1.503 . S
C955 C954 1.370 . S
C955 C956 1.403 . S
C956 C955 1.403 . S
C956 C957 1.404 . S
C956 C959 1.539 . S
C957 C953 1.408 . S
C957 C956 1.404 . S
C957 H969 0.930 . S
C958 C954 1.524 . S
C958 H970 0.956 . S
C958 H971 0.961 . S
C958 H972 0.961 . S
C959 C956 1.539 . S
C959 H973 0.958 . S
C959 H974 0.961 . S
C959 H975 0.960 . S
H960 C944 0.931 . S
H961 C949 0.929 . S
H962 C950 0.960 . S
H963 C950 0.962 . S
H964 C950 0.960 . S
H965 C951 0.961 . S
H966 C951 0.961 . S
H967 C951 0.961 . S
H968 C952 0.931 . S
H969 C957 0.930 . S
H970 C958 0.956 . S
H971 C958 0.961 . S
H972 C958 0.961 . S
H973 C959 0.958 . S
H974 C959 0.961 . S
H975 C959 0.960 . S
C976 C977 1.391 . S
C976 C978 1.394 . S
C976 H992 0.931 . S
C977 C976 1.391 . S
C977 C981 1.376 . S
C978 C976 1.394 . S
C978 C979 1.369 . S
C978 C982 1.531 . S
C979 C978 1.369 . S
C979 C980 1.410 . S
C979 C987 1.503 . S
C980 C979 1.410 . S
C980 C981 1.392 . S
C980 C983 1.511 . S
C981 C977 1.376 . S
C981 C980 1.392 . S
C981 H993 0.929 . S
C982 C978 1.531 . S
C982 H994 0.960 . S
C982 H995 0.962 . S
C982 H996 0.960 . S
C983 C980 1.511 . S
C983 H997 0.961 . S
C983 H998 0.961 . S
C983 H999 0.961 . S
C984 C985 1.370 . S
C984 C986 1.363 . S
C984 H1000 0.931 . S
C985 C984 1.370 . S
C985 C989 1.408 . S
C986 C984 1.363 . S
C986 C987 1.370 . S
C986 C990 1.524 . S
C987 C979 1.503 . S
C987 C986 1.370 . S
C987 C988 1.403 . S
C988 C987 1.403 . S
C988 C989 1.404 . S
C988 C991 1.539 . S
C989 C985 1.408 . S
C989 C988 1.404 . S
C989 H1001 0.930 . S
C990 C986 1.524 . S
C990 H1002 0.956 . S
C990 H1003 0.961 . S
C990 H1004 0.961 . S
C991 C988 1.539 . S
C991 H1005 0.958 . S
C991 H1006 0.961 . S
C991 H1007 0.960 . S
H992 C976 0.931 . S
H993 C981 0.929 . S
H994 C982 0.960 . S
H995 C982 0.962 . S
H996 C982 0.960 . S
H997 C983 0.961 . S
H998 C983 0.961 . S
H999 C983 0.961 . S
H1000 C984 0.931 . S
H1001 C989 0.930 . S
H1002 C990 0.956 . S
H1003 C990 0.961 . S
H1004 C990 0.961 . S
H1005 C991 0.958 . S
H1006 C991 0.961 . S
H1007 C991 0.960 . S
C1008 C1009 1.391 . S
C1008 C1010 1.394 . S
C1008 H1024 0.931 . S
C1009 C1008 1.391 . S
C1009 C1013 1.376 . S
C1010 C1008 1.394 . S
C1010 C1011 1.369 . S
C1010 C1014 1.531 . S
C1011 C1010 1.369 . S
C1011 C1012 1.410 . S
C1011 C1019 1.503 . S
C1012 C1011 1.410 . S
C1012 C1013 1.392 . S
C1012 C1015 1.511 . S
C1013 C1009 1.376 . S
C1013 C1012 1.392 . S
C1013 H1025 0.929 . S
C1014 C1010 1.531 . S
C1014 H1026 0.960 . S
C1014 H1027 0.962 . S
C1014 H1028 0.960 . S
C1015 C1012 1.511 . S
C1015 H1029 0.961 . S
C1015 H1030 0.961 . S
C1015 H1031 0.961 . S
C1016 C1017 1.370 1_545 S
C1016 C1018 1.363 . S
C1016 H1032 0.931 . S
C1017 C1016 1.370 1_565 S
C1017 C1021 1.411 . S
C1018 C1016 1.363 . S
C1018 C1019 1.370 . S
C1018 C1022 1.524 . S
C1019 C1011 1.503 . S
C1019 C1018 1.370 . S
C1019 C1020 1.403 . S
C1020 C1019 1.403 . S
C1020 C1021 1.392 1_545 S
C1020 C1023 1.539 . S
C1021 C1017 1.411 . S
C1021 C1020 1.392 1_565 S
C1021 H1033 0.939 . S
C1022 C1018 1.524 . S
C1022 H1034 0.956 . S
C1022 H1035 0.961 . S
C1022 H1036 0.961 . S
C1023 C1020 1.539 . S
C1023 H1037 0.958 . S
C1023 H1038 0.961 . S
C1023 H1039 0.960 . S
H1024 C1008 0.931 . S
H1025 C1013 0.929 . S
H1026 C1014 0.960 . S
H1027 C1014 0.962 . S
H1028 C1014 0.960 . S
H1029 C1015 0.961 . S
H1030 C1015 0.961 . S
H1031 C1015 0.961 . S
H1032 C1016 0.931 . S
H1033 C1021 0.939 . S
H1034 C1022 0.956 . S
H1035 C1022 0.961 . S
H1036 C1022 0.961 . S
H1037 C1023 0.958 . S
H1038 C1023 0.961 . S
H1039 C1023 0.960 . S
C1040 C1041 1.391 . S
C1040 C1042 1.394 . S
C1040 H1056 0.931 . S
C1041 C1040 1.391 . S
C1041 C1045 1.376 . S
C1042 C1040 1.394 . S
C1042 C1043 1.369 . S
C1042 C1046 1.531 . S
C1043 C1042 1.369 . S
C1043 C1044 1.410 . S
C1043 C1051 1.503 1_554 S
C1044 C1043 1.410 . S
C1044 C1045 1.392 . S
C1044 C1047 1.511 1_554 S
C1045 C1041 1.376 . S
C1045 C1044 1.392 . S
C1045 H1057 0.929 . S
C1046 C1042 1.531 . S
C1046 H1058 0.960 . S
C1046 H1059 0.962 . S
C1046 H1060 0.960 . S
C1047 C1044 1.511 1_556 S
C1047 H1061 0.961 . S
C1047 H1062 0.961 . S
C1047 H1063 0.961 . S
C1048 C1049 1.370 . S
C1048 C1050 1.363 . S
C1048 H1064 0.931 . S
C1049 C1048 1.370 . S
C1049 C1053 1.408 . S
C1050 C1048 1.363 . S
C1050 C1051 1.370 . S
C1050 C1054 1.521 . S
C1051 C1043 1.503 1_556 S
C1051 C1050 1.370 . S
C1051 C1052 1.403 . S
C1052 C1051 1.403 . S
C1052 C1053 1.404 . S
C1052 C1055 1.539 . S
C1053 C1049 1.408 . S
C1053 C1052 1.404 . S
C1053 H1065 0.930 . S
C1054 C1050 1.521 . S
C1054 H1066 0.960 1_556 S
C1054 H1067 0.962 1_556 S
C1054 H1068 0.959 . S
C1055 C1052 1.539 . S
C1055 H1069 0.958 . S
C1055 H1070 0.961 . S
C1055 H1071 0.960 . S
H1056 C1040 0.931 . S
H1057 C1045 0.929 . S
H1058 C1046 0.960 . S
H1059 C1046 0.962 . S
H1060 C1046 0.960 . S
H1061 C1047 0.961 . S
H1062 C1047 0.961 . S
H1063 C1047 0.961 . S
H1064 C1048 0.931 . S
H1065 C1053 0.930 . S
H1066 C1054 0.960 1_554 S
H1067 C1054 0.962 1_554 S
H1068 C1054 0.959 . S
H1069 C1055 0.958 . S
H1070 C1055 0.961 . S
H1071 C1055 0.960 . S
C1072 C1073 1.391 . S
C1072 C1074 1.394 . S
C1072 H1088 0.931 . S
C1073 C1072 1.391 . S
C1073 C1077 1.376 . S
C1074 C1072 1.394 . S
C1074 C1075 1.369 . S
C1074 C1078 1.531 . S
C1075 C1074 1.369 . S
C1075 C1076 1.410 . S
C1075 C1083 1.503 1_556 S
C1076 C1075 1.410 . S
C1076 C1077 1.392 . S
C1076 C1079 1.511 1_556 S
C1077 C1073 1.376 . S
C1077 C1076 1.392 . S
C1077 H1089 0.929 . S
C1078 C1074 1.531 . S
C1078 H1090 0.960 . S
C1078 H1091 0.962 . S
C1078 H1092 0.960 . S
C1079 C1076 1.511 1_554 S
C1079 H1093 0.961 . S
C1079 H1094 0.961 . S
C1079 H1095 0.961 . S
C1080 C1081 1.370 . S
C1080 C1082 1.363 . S
C1080 H1096 0.931 . S
C1081 C1080 1.370 . S
C1081 C1085 1.408 . S
C1082 C1080 1.363 . S
C1082 C1083 1.370 . S
C1082 C1086 1.524 . S
C1083 C1075 1.503 1_554 S
C1083 C1082 1.370 . S
C1083 C1084 1.403 . S
C1084 C1083 1.403 . S
C1084 C1085 1.404 . S
C1084 C1087 1.539 . S
C1085 C1081 1.408 . S
C1085 C1084 1.404 . S
C1085 H1097 0.930 . S
C1086 C1082 1.524 . S
C1086 H1098 0.956 1_554 S
C1086 H1099 0.966 . S
C1086 H1100 0.961 . S
C1087 C1084 1.539 . S
C1087 H1101 0.958 . S
C1087 H1102 0.961 . S
C1087 H1103 0.960 . S
H1088 C1072 0.931 . S
H1089 C1077 0.929 . S
H1090 C1078 0.960 . S
H1091 C1078 0.962 . S
H1092 C1078 0.960 . S
H1093 C1079 0.961 . S
H1094 C1079 0.961 . S
H1095 C1079 0.961 . S
H1096 C1080 0.931 . S
H1097 C1085 0.930 . S
H1098 C1086 0.956 1_556 S
H1099 C1086 0.966 . S
H1100 C1086 0.961 . S
H1101 C1087 0.958 . S
H1102 C1087 0.961 . S
H1103 C1087 0.960 . S
C1104 C1105 1.391 . S
C1104 C1106 1.394 . S
C1104 H1120 0.931 . S
C1105 C1104 1.391 . S
C1105 C1109 1.376 . S
C1106 C1104 1.394 . S
C1106 C1107 1.369 . S
C1106 C1110 1.531 . S
C1107 C1106 1.369 . S
C1107 C1108 1.410 . S
C1107 C1115 1.503 . S
C1108 C1107 1.410 . S
C1108 C1109 1.392 . S
C1108 C1111 1.511 . S
C1109 C1105 1.376 . S
C1109 C1108 1.392 . S
C1109 H1121 0.929 . S
C1110 C1106 1.531 . S
C1110 H1122 0.960 . S
C1110 H1123 0.962 . S
C1110 H1124 0.960 . S
C1111 C1108 1.511 . S
C1111 H1125 0.961 . S
C1111 H1126 0.961 . S
C1111 H1127 0.961 . S
C1112 C1113 1.370 . S
C1112 C1114 1.363 . S
C1112 H1128 0.931 . S
C1113 C1112 1.370 . S
C1113 C1117 1.408 . S
C1114 C1112 1.363 . S
C1114 C1115 1.370 . S
C1114 C1118 1.524 . S
C1115 C1107 1.503 . S
C1115 C1114 1.370 . S
C1115 C1116 1.403 . S
C1116 C1115 1.403 . S
C1116 C1117 1.404 . S
C1116 C1119 1.539 . S
C1117 C1113 1.408 . S
C1117 C1116 1.404 . S
C1117 H1129 0.930 . S
C1118 C1114 1.524 . S
C1118 H1130 0.956 . S
C1118 H1131 0.961 . S
C1118 H1132 0.961 . S
C1119 C1116 1.539 . S
C1119 H1133 0.958 . S
C1119 H1134 0.961 . S
C1119 H1135 0.960 . S
H1120 C1104 0.931 . S
H1121 C1109 0.929 . S
H1122 C1110 0.960 . S
H1123 C1110 0.962 . S
H1124 C1110 0.960 . S
H1125 C1111 0.961 . S
H1126 C1111 0.961 . S
H1127 C1111 0.961 . S
H1128 C1112 0.931 . S
H1129 C1117 0.930 . S
H1130 C1118 0.956 . S
H1131 C1118 0.961 . S
H1132 C1118 0.961 . S
H1133 C1119 0.958 . S
H1134 C1119 0.961 . S
H1135 C1119 0.960 . S
C1136 C1137 1.391 . S
C1136 C1138 1.394 . S
C1136 H1152 0.931 . S
C1137 C1136 1.391 . S
C1137 C1141 1.376 . S
C1138 C1136 1.394 . S
C1138 C1139 1.369 . S
C1138 C1142 1.531 . S
C1139 C1138 1.369 . S
C1139 C1140 1.410 . S
C1139 C1147 1.503 . S
C1140 C1139 1.410 . S
C1140 C1141 1.392 . S
C1140 C1143 1.511 . S
C1141 C1137 1.376 . S
C1141 C1140 1.392 . S
C1141 H1153 0.929 . S
C1142 C1138 1.531 . S
C1142 H1154 0.960 . S
C1142 H1155 0.962 . S
C1142 H1156 0.960 . S
C1143 C1140 1.511 . S
C1143 H1157 0.961 . S
C1143 H1158 0.961 . S
C1143 H1159 0.961 . S
C1144 C1145 1.370 . S
C1144 C1146 1.363 . S
C1144 H1160 0.931 . S
C1145 C1144 1.370 . S
C1145 C1149 1.408 . S
C1146 C1144 1.363 . S
C1146 C1147 1.370 . S
C1146 C1150 1.524 . S
C1147 C1139 1.503 . S
C1147 C1146 1.370 . S
C1147 C1148 1.403 . S
C1148 C1147 1.403 . S
C1148 C1149 1.404 . S
C1148 C1151 1.539 . S
C1149 C1145 1.408 . S
C1149 C1148 1.404 . S
C1149 H1161 0.930 . S
C1150 C1146 1.524 . S
C1150 H1162 0.956 . S
C1150 H1163 0.961 . S
C1150 H1164 0.961 . S
C1151 C1148 1.539 . S
C1151 H1165 0.958 . S
C1151 H1166 0.961 . S
C1151 H1167 0.960 . S
H1152 C1136 0.931 . S
H1153 C1141 0.929 . S
H1154 C1142 0.960 . S
H1155 C1142 0.962 . S
H1156 C1142 0.960 . S
H1157 C1143 0.961 . S
H1158 C1143 0.961 . S
H1159 C1143 0.961 . S
H1160 C1144 0.931 . S
H1161 C1149 0.930 . S
H1162 C1150 0.956 . S
H1163 C1150 0.961 . S
H1164 C1150 0.961 . S
H1165 C1151 0.958 . S
H1166 C1151 0.961 . S
H1167 C1151 0.960 . S
C1168 C1169 1.391 . S
C1168 C1170 1.394 . S
C1168 H1184 0.931 . S
C1169 C1168 1.391 . S
C1169 C1173 1.376 . S
C1170 C1168 1.394 . S
C1170 C1171 1.369 . S
C1170 C1174 1.500 1_556 S
C1171 C1170 1.369 . S
C1171 C1172 1.410 . S
C1171 C1179 1.503 1_556 S
C1172 C1171 1.410 . S
C1172 C1173 1.392 . S
C1172 C1175 1.511 . S
C1173 C1169 1.376 . S
C1173 C1172 1.392 . S
C1173 H1185 0.929 . S
C1174 C1170 1.500 1_554 S
C1174 H1186 1.005 . S
C1174 H1187 0.957 1_554 S
C1174 H1188 0.952 1_554 S
C1175 C1172 1.511 . S
C1175 H1189 0.961 . S
C1175 H1190 0.961 . S
C1175 H1191 0.961 . S
C1176 C1177 1.370 . S
C1176 C1178 1.363 . S
C1176 H1192 0.931 . S
C1177 C1176 1.370 . S
C1177 C1181 1.408 . S
C1178 C1176 1.363 . S
C1178 C1179 1.370 . S
C1178 C1182 1.524 1_554 S
C1179 C1171 1.503 1_554 S
C1179 C1178 1.370 . S
C1179 C1180 1.403 . S
C1180 C1179 1.403 . S
C1180 C1181 1.404 . S
C1180 C1183 1.539 . S
C1181 C1177 1.408 . S
C1181 C1180 1.404 . S
C1181 H1193 0.930 . S
C1182 C1178 1.524 1_556 S
C1182 H1194 0.956 . S
C1182 H1195 0.961 . S
C1182 H1196 0.961 . S
C1183 C1180 1.539 . S
C1183 H1197 0.958 . S
C1183 H1198 0.961 . S
C1183 H1199 0.960 . S
H1184 C1168 0.931 . S
H1185 C1173 0.929 . S
H1186 C1174 1.005 . S
H1187 C1174 0.957 1_556 S
H1188 C1174 0.952 1_556 S
H1189 C1175 0.961 . S
H1190 C1175 0.961 . S
H1191 C1175 0.961 . S
H1192 C1176 0.931 . S
H1193 C1181 0.930 . S
H1194 C1182 0.956 . S
H1195 C1182 0.961 . S
H1196 C1182 0.961 . S
H1197 C1183 0.958 . S
H1198 C1183 0.961 . S
H1199 C1183 0.960 . S
C1200 C1201 1.391 . S
C1200 C1202 1.394 . S
C1200 H1216 0.931 . S
C1201 C1200 1.391 . S
C1201 C1205 1.376 . S
C1202 C1200 1.394 . S
C1202 C1203 1.369 . S
C1202 C1206 1.531 1_554 S
C1203 C1202 1.369 . S
C1203 C1204 1.410 . S
C1203 C1211 1.503 1_554 S
C1204 C1203 1.410 . S
C1204 C1205 1.392 . S
C1204 C1207 1.511 . S
C1205 C1201 1.376 . S
C1205 C1204 1.392 . S
C1205 H1217 0.929 . S
C1206 C1202 1.531 1_556 S
C1206 H1218 0.960 . S
C1206 H1219 0.962 . S
C1206 H1220 0.960 . S
C1207 C1204 1.511 . S
C1207 H1221 0.961 . S
C1207 H1222 0.961 . S
C1207 H1223 0.961 . S
C1208 C1209 1.370 . S
C1208 C1210 1.363 . S
C1208 H1224 0.931 . S
C1209 C1208 1.370 . S
C1209 C1213 1.408 . S
C1210 C1208 1.363 . S
C1210 C1211 1.370 . S
C1210 C1214 1.524 . S
C1211 C1203 1.503 1_556 S
C1211 C1210 1.370 . S
C1211 C1212 1.403 . S
C1212 C1211 1.403 . S
C1212 C1213 1.404 . S
C1212 C1215 1.539 . S
C1213 C1209 1.408 . S
C1213 C1212 1.404 . S
C1213 H1225 0.930 . S
C1214 C1210 1.524 . S
C1214 H1226 0.956 . S
C1214 H1227 0.961 1_556 S
C1214 H1228 0.961 . S
C1215 C1212 1.539 . S
C1215 H1229 0.958 . S
C1215 H1230 0.961 . S
C1215 H1231 0.960 1_556 S
H1216 C1200 0.931 . S
H1217 C1205 0.929 . S
H1218 C1206 0.960 . S
H1219 C1206 0.962 . S
H1220 C1206 0.960 . S
H1221 C1207 0.961 . S
H1222 C1207 0.961 . S
H1223 C1207 0.961 . S
H1224 C1208 0.931 . S
H1225 C1213 0.930 . S
H1226 C1214 0.956 . S
H1227 C1214 0.961 1_554 S
H1228 C1214 0.961 . S
H1229 C1215 0.958 . S
H1230 C1215 0.961 . S
H1231 C1215 0.960 1_554 S
C1232 C1233 1.391 . S
C1232 C1234 1.394 . S
C1232 H1248 0.931 . S
C1233 C1232 1.391 . S
C1233 C1237 1.376 . S
C1234 C1232 1.394 . S
C1234 C1235 1.369 . S
C1234 C1238 1.531 . S
C1235 C1234 1.369 . S
C1235 C1236 1.410 . S
C1235 C1243 1.503 . S
C1236 C1235 1.410 . S
C1236 C1237 1.392 . S
C1236 C1239 1.511 . S
C1237 C1233 1.376 . S
C1237 C1236 1.392 . S
C1237 H1249 0.929 . S
C1238 C1234 1.531 . S
C1238 H1250 0.960 . S
C1238 H1251 0.962 . S
C1238 H1252 0.960 . S
C1239 C1236 1.511 . S
C1239 H1253 0.961 . S
C1239 H1254 0.961 . S
C1239 H1255 0.961 . S
C1240 C1241 1.370 . S
C1240 C1242 1.363 . S
C1240 H1256 0.931 . S
C1241 C1240 1.370 . S
C1241 C1245 1.408 . S
C1242 C1240 1.363 . S
C1242 C1243 1.370 . S
C1242 C1246 1.524 . S
C1243 C1235 1.503 . S
C1243 C1242 1.370 . S
C1243 C1244 1.403 . S
C1244 C1243 1.403 . S
C1244 C1245 1.404 . S
C1244 C1247 1.539 . S
C1245 C1241 1.408 . S
C1245 C1244 1.404 . S
C1245 H1257 0.930 . S
C1246 C1242 1.524 . S
C1246 H1258 0.956 . S
C1246 H1259 0.961 . S
C1246 H1260 0.961 . S
C1247 C1244 1.539 . S
C1247 H1261 0.958 . S
C1247 H1262 0.961 . S
C1247 H1263 0.960 . S
H1248 C1232 0.931 . S
H1249 C1237 0.929 . S
H1250 C1238 0.960 . S
H1251 C1238 0.962 . S
H1252 C1238 0.960 . S
H1253 C1239 0.961 . S
H1254 C1239 0.961 . S
H1255 C1239 0.961 . S
H1256 C1240 0.931 . S
H1257 C1245 0.930 . S
H1258 C1246 0.956 . S
H1259 C1246 0.961 . S
H1260 C1246 0.961 . S
H1261 C1247 0.958 . S
H1262 C1247 0.961 . S
H1263 C1247 0.960 . S
C1264 C1265 1.391 . S
C1264 C1266 1.394 . S
C1264 H1280 0.931 . S
C1265 C1264 1.391 . S
C1265 C1269 1.376 . S
C1266 C1264 1.394 . S
C1266 C1267 1.369 . S
C1266 C1270 1.531 . S
C1267 C1266 1.369 . S
C1267 C1268 1.410 . S
C1267 C1275 1.503 . S
C1268 C1267 1.410 . S
C1268 C1269 1.392 . S
C1268 C1271 1.511 . S
C1269 C1265 1.376 . S
C1269 C1268 1.392 . S
C1269 H1281 0.929 . S
C1270 C1266 1.531 . S
C1270 H1282 0.960 . S
C1270 H1283 0.962 . S
C1270 H1284 0.960 . S
C1271 C1268 1.511 . S
C1271 H1285 0.961 . S
C1271 H1286 0.961 . S
C1271 H1287 0.961 . S
C1272 C1273 1.370 . S
C1272 C1274 1.363 . S
C1272 H1288 0.931 . S
C1273 C1272 1.370 . S
C1273 C1277 1.408 . S
C1274 C1272 1.363 . S
C1274 C1275 1.370 . S
C1274 C1278 1.524 . S
C1275 C1267 1.503 . S
C1275 C1274 1.370 . S
C1275 C1276 1.403 . S
C1276 C1275 1.403 . S
C1276 C1277 1.404 . S
C1276 C1279 1.539 . S
C1277 C1273 1.408 . S
C1277 C1276 1.404 . S
C1277 H1289 0.930 . S
C1278 C1274 1.524 . S
C1278 H1290 0.956 . S
C1278 H1291 0.961 . S
C1278 H1292 0.961 . S
C1279 C1276 1.539 . S
C1279 H1293 0.958 . S
C1279 H1294 0.961 . S
C1279 H1295 0.960 . S
H1280 C1264 0.931 . S
H1281 C1269 0.929 . S
H1282 C1270 0.960 . S
H1283 C1270 0.962 . S
H1284 C1270 0.960 . S
H1285 C1271 0.961 . S
H1286 C1271 0.961 . S
H1287 C1271 0.961 . S
H1288 C1272 0.931 . S
H1289 C1277 0.930 . S
H1290 C1278 0.956 . S
H1291 C1278 0.961 . S
H1292 C1278 0.961 . S
H1293 C1279 0.958 . S
H1294 C1279 0.961 . S
H1295 C1279 0.960 . S
C1296 C1297 1.391 . S
C1296 C1298 1.394 . S
C1296 H1312 0.931 . S
C1297 C1296 1.391 . S
C1297 C1301 1.376 . S
C1298 C1296 1.394 . S
C1298 C1299 1.369 . S
C1298 C1302 1.531 . S
C1299 C1298 1.369 . S
C1299 C1300 1.410 1_545 S
C1299 C1307 1.503 1_545 S
C1300 C1299 1.410 1_565 S
C1300 C1301 1.392 1_565 S
C1300 C1303 1.511 . S
C1301 C1297 1.376 . S
C1301 C1300 1.392 1_545 S
C1301 H1313 0.929 . S
C1302 C1298 1.531 . S
C1302 H1314 0.960 . S
C1302 H1315 0.962 . S
C1302 H1316 0.960 . S
C1303 C1300 1.511 . S
C1303 H1317 0.961 . S
C1303 H1318 0.961 . S
C1303 H1319 0.961 . S
C1304 C1305 1.370 . S
C1304 C1306 1.363 . S
C1304 H1320 0.931 . S
C1305 C1304 1.370 . S
C1305 C1309 1.408 . S
C1306 C1304 1.363 . S
C1306 C1307 1.370 . S
C1306 C1310 1.524 1_565 S
C1307 C1299 1.503 1_565 S
C1307 C1306 1.370 . S
C1307 C1308 1.403 . S
C1308 C1307 1.403 . S
C1308 C1309 1.404 . S
C1308 C1311 1.539 . S
C1309 C1305 1.408 . S
C1309 C1308 1.404 . S
C1309 H1321 0.930 . S
C1310 C1306 1.524 1_545 S
C1310 H1322 0.956 . S
C1310 H1323 0.961 . S
C1310 H1324 0.961 . S
C1311 C1308 1.539 . S
C1311 H1325 0.958 . S
C1311 H1326 0.961 . S
C1311 H1327 0.960 . S
H1312 C1296 0.931 . S
H1313 C1301 0.929 . S
H1314 C1302 0.960 . S
H1315 C1302 0.962 . S
H1316 C1302 0.960 . S
H1317 C1303 0.961 . S
H1318 C1303 0.961 . S
H1319 C1303 0.961 . S
H1320 C1304 0.931 . S
H1321 C1309 0.930 . S
H1322 C1310 0.956 . S
H1323 C1310 0.961 . S
H1324 C1310 0.961 . S
H1325 C1311 0.958 . S
H1326 C1311 0.961 . S
H1327 C1311 0.960 . S
C1328 C1329 1.391 . S
C1328 C1330 1.394 . S
C1328 H1344 0.931 . S
C1329 C1328 1.391 . S
C1329 C1333 1.376 . S
C1330 C1328 1.394 . S
C1330 C1331 1.369 . S
C1330 C1334 1.531 . S
C1331 C1330 1.369 . S
C1331 C1332 1.410 . S
C1331 C1339 1.503 . S
C1332 C1331 1.410 . S
C1332 C1333 1.392 . S
C1332 C1335 1.511 . S
C1333 C1329 1.376 . S
C1333 C1332 1.392 . S
C1333 H1345 0.929 . S
C1334 C1330 1.531 . S
C1334 H1346 0.960 . S
C1334 H1347 0.962 . S
C1334 H1348 0.960 . S
C1335 C1332 1.511 . S
C1335 H1349 0.961 . S
C1335 H1350 0.961 . S
C1335 H1351 0.961 . S
C1336 C1337 1.370 . S
C1336 C1338 1.363 . S
C1336 H1352 0.931 . S
C1337 C1336 1.370 . S
C1337 C1341 1.408 . S
C1338 C1336 1.363 . S
C1338 C1339 1.370 . S
C1338 C1342 1.524 . S
C1339 C1331 1.503 . S
C1339 C1338 1.370 . S
C1339 C1340 1.403 . S
C1340 C1339 1.403 . S
C1340 C1341 1.404 . S
C1340 C1343 1.539 . S
C1341 C1337 1.408 . S
C1341 C1340 1.404 . S
C1341 H1353 0.930 . S
C1342 C1338 1.524 . S
C1342 H1354 0.956 . S
C1342 H1355 0.961 . S
C1342 H1356 0.961 . S
C1343 C1340 1.539 . S
C1343 H1357 0.958 . S
C1343 H1358 0.961 . S
C1343 H1359 0.960 . S
H1344 C1328 0.931 . S
H1345 C1333 0.929 . S
H1346 C1334 0.960 . S
H1347 C1334 0.962 . S
H1348 C1334 0.960 . S
H1349 C1335 0.961 . S
H1350 C1335 0.961 . S
H1351 C1335 0.961 . S
H1352 C1336 0.931 . S
H1353 C1341 0.930 . S
H1354 C1342 0.956 . S
H1355 C1342 0.961 . S
H1356 C1342 0.961 . S
H1357 C1343 0.958 . S
H1358 C1343 0.961 . S
H1359 C1343 0.960 . S
C1360 C1361 1.391 . S
C1360 C1362 1.394 . S
C1360 H1376 0.931 . S
C1361 C1360 1.391 . S
C1361 C1365 1.376 . S
C1362 C1360 1.394 . S
C1362 C1363 1.369 . S
C1362 C1366 1.531 . S
C1363 C1362 1.369 . S
C1363 C1364 1.410 . S
C1363 C1371 1.503 1_565 S
C1364 C1363 1.410 . S
C1364 C1365 1.392 . S
C1364 C1367 1.511 1_565 S
C1365 C1361 1.376 . S
C1365 C1364 1.392 . S
C1365 H1377 0.929 . S
C1366 C1362 1.531 . S
C1366 H1378 0.960 . S
C1366 H1379 0.962 . S
C1366 H1380 0.960 . S
C1367 C1364 1.511 1_545 S
C1367 H1381 0.961 . S
C1367 H1382 0.961 . S
C1367 H1383 0.961 . S
C1368 C1369 1.370 . S
C1368 C1370 1.363 . S
C1368 H1384 0.931 . S
C1369 C1368 1.370 . S
C1369 C1373 1.408 . S
C1370 C1368 1.363 . S
C1370 C1371 1.370 . S
C1370 C1374 1.524 . S
C1371 C1363 1.503 1_545 S
C1371 C1370 1.370 . S
C1371 C1372 1.403 1_545 S
C1372 C1371 1.403 1_565 S
C1372 C1373 1.404 1_565 S
C1372 C1375 1.539 . S
C1373 C1369 1.408 . S
C1373 C1372 1.404 1_545 S
C1373 H1385 0.930 . S
C1374 C1370 1.524 . S
C1374 H1386 0.956 . S
C1374 H1387 0.961 . S
C1374 H1388 0.961 . S
C1375 C1372 1.539 . S
C1375 H1389 0.958 . S
C1375 H1390 0.961 . S
C1375 H1391 0.960 . S
H1376 C1360 0.931 . S
H1377 C1365 0.929 . S
H1378 C1366 0.960 . S
H1379 C1366 0.962 . S
H1380 C1366 0.960 . S
H1381 C1367 0.961 . S
H1382 C1367 0.961 . S
H1383 C1367 0.961 . S
H1384 C1368 0.931 . S
H1385 C1373 0.930 . S
H1386 C1374 0.956 . S
H1387 C1374 0.961 . S
H1388 C1374 0.961 . S
H1389 C1375 0.958 . S
H1390 C1375 0.961 . S
H1391 C1375 0.960 . S
C1392 C1393 1.391 . S
C1392 C1394 1.394 . S
C1392 H1408 0.931 . S
C1393 C1392 1.391 . S
C1393 C1397 1.376 . S
C1394 C1392 1.394 . S
C1394 C1395 1.369 . S
C1394 C1398 1.531 . S
C1395 C1394 1.369 . S
C1395 C1396 1.410 . S
C1395 C1403 1.503 . S
C1396 C1395 1.410 . S
C1396 C1397 1.392 . S
C1396 C1399 1.511 . S
C1397 C1393 1.376 . S
C1397 C1396 1.392 . S
C1397 H1409 0.929 . S
C1398 C1394 1.531 . S
C1398 H1410 0.960 . S
C1398 H1411 0.962 . S
C1398 H1412 0.960 . S
C1399 C1396 1.511 . S
C1399 H1413 0.961 . S
C1399 H1414 0.961 . S
C1399 H1415 0.961 . S
C1400 C1401 1.370 . S
C1400 C1402 1.363 . S
C1400 H1416 0.931 . S
C1401 C1400 1.370 . S
C1401 C1405 1.408 . S
C1402 C1400 1.363 . S
C1402 C1403 1.370 . S
C1402 C1406 1.524 . S
C1403 C1395 1.503 . S
C1403 C1402 1.370 . S
C1403 C1404 1.403 . S
C1404 C1403 1.403 . S
C1404 C1405 1.404 . S
C1404 C1407 1.539 . S
C1405 C1401 1.408 . S
C1405 C1404 1.404 . S
C1405 H1417 0.930 . S
C1406 C1402 1.524 . S
C1406 H1418 0.956 . S
C1406 H1419 0.961 . S
C1406 H1420 0.961 . S
C1407 C1404 1.539 . S
C1407 H1421 0.958 . S
C1407 H1422 0.961 . S
C1407 H1423 0.960 . S
H1408 C1392 0.931 . S
H1409 C1397 0.929 . S
H1410 C1398 0.960 . S
H1411 C1398 0.962 . S
H1412 C1398 0.960 . S
H1413 C1399 0.961 . S
H1414 C1399 0.961 . S
H1415 C1399 0.961 . S
H1416 C1400 0.931 . S
H1417 C1405 0.930 . S
H1418 C1406 0.956 . S
H1419 C1406 0.961 . S
H1420 C1406 0.961 . S
H1421 C1407 0.958 . S
H1422 C1407 0.961 . S
H1423 C1407 0.960 . S
C1424 C1425 1.391 . S
C1424 C1426 1.394 . S
C1424 H1440 0.931 . S
C1425 C1424 1.391 . S
C1425 C1429 1.376 . S
C1426 C1424 1.394 . S
C1426 C1427 1.369 . S
C1426 C1430 1.531 . S
C1427 C1426 1.369 . S
C1427 C1428 1.410 . S
C1427 C1435 1.503 . S
C1428 C1427 1.410 . S
C1428 C1429 1.392 . S
C1428 C1431 1.511 . S
C1429 C1425 1.376 . S
C1429 C1428 1.392 . S
C1429 H1441 0.929 . S
C1430 C1426 1.531 . S
C1430 H1442 0.960 . S
C1430 H1443 0.962 . S
C1430 H1444 0.960 . S
C1431 C1428 1.511 . S
C1431 H1445 0.961 . S
C1431 H1446 0.961 . S
C1431 H1447 0.961 . S
C1432 C1433 1.370 . S
C1432 C1434 1.363 . S
C1432 H1448 0.931 . S
C1433 C1432 1.370 . S
C1433 C1437 1.408 . S
C1434 C1432 1.363 . S
C1434 C1435 1.370 . S
C1434 C1438 1.524 . S
C1435 C1427 1.503 . S
C1435 C1434 1.370 . S
C1435 C1436 1.403 . S
C1436 C1435 1.403 . S
C1436 C1437 1.404 . S
C1436 C1439 1.539 . S
C1437 C1433 1.408 . S
C1437 C1436 1.404 . S
C1437 H1449 0.930 . S
C1438 C1434 1.524 . S
C1438 H1450 0.956 . S
C1438 H1451 0.961 . S
C1438 H1452 0.961 . S
C1439 C1436 1.539 . S
C1439 H1453 0.958 . S
C1439 H1454 0.961 . S
C1439 H1455 0.960 . S
H1440 C1424 0.931 . S
H1441 C1429 0.929 . S
H1442 C1430 0.960 . S
H1443 C1430 0.962 . S
H1444 C1430 0.960 . S
H1445 C1431 0.961 . S
H1446 C1431 0.961 . S
H1447 C1431 0.961 . S
H1448 C1432 0.931 . S
H1449 C1437 0.930 . S
H1450 C1438 0.956 . S
H1451 C1438 0.961 . S
H1452 C1438 0.961 . S
H1453 C1439 0.958 . S
H1454 C1439 0.961 . S
H1455 C1439 0.960 . S
C1456 C1457 1.391 . S
C1456 C1458 1.394 . S
C1456 H1472 0.931 . S
C1457 C1456 1.391 . S
C1457 C1461 1.376 . S
C1458 C1456 1.394 . S
C1458 C1459 1.369 . S
C1458 C1462 1.531 . S
C1459 C1458 1.369 . S
C1459 C1460 1.410 . S
C1459 C1467 1.503 1_545 S
C1460 C1459 1.410 . S
C1460 C1461 1.392 . S
C1460 C1463 1.511 . S
C1461 C1457 1.376 . S
C1461 C1460 1.392 . S
C1461 H1473 0.929 . S
C1462 C1458 1.531 . S
C1462 H1474 0.960 . S
C1462 H1475 0.962 1_545 S
C1462 H1476 0.960 . S
C1463 C1460 1.511 . S
C1463 H1477 0.961 . S
C1463 H1478 0.961 . S
C1463 H1479 0.961 . S
C1464 C1465 1.370 . S
C1464 C1466 1.363 . S
C1464 H1480 0.931 . S
C1465 C1464 1.370 . S
C1465 C1469 1.408 . S
C1466 C1464 1.363 . S
C1466 C1467 1.370 . S
C1466 C1470 1.524 . S
C1467 C1459 1.503 1_565 S
C1467 C1466 1.370 . S
C1467 C1468 1.403 1_565 S
C1468 C1467 1.403 1_545 S
C1468 C1469 1.404 1_545 S
C1468 C1471 1.539 . S
C1469 C1465 1.408 . S
C1469 C1468 1.404 1_565 S
C1469 H1481 0.930 . S
C1470 C1466 1.524 . S
C1470 H1482 0.956 . S
C1470 H1483 0.961 . S
C1470 H1484 0.961 . S
C1471 C1468 1.539 . S
C1471 H1485 0.958 . S
C1471 H1486 0.961 . S
C1471 H1487 0.960 . S
H1472 C1456 0.931 . S
H1473 C1461 0.929 . S
H1474 C1462 0.960 . S
H1475 C1462 0.962 1_565 S
H1476 C1462 0.960 . S
H1477 C1463 0.961 . S
H1478 C1463 0.961 . S
H1479 C1463 0.961 . S
H1480 C1464 0.931 . S
H1481 C1469 0.930 . S
H1482 C1470 0.956 . S
H1483 C1470 0.961 . S
H1484 C1470 0.961 . S
H1485 C1471 0.958 . S
H1486 C1471 0.961 . S
H1487 C1471 0.960 . S
C1488 C1489 1.391 . S
C1488 C1490 1.394 . S
C1488 H1504 0.931 . S
C1489 C1488 1.391 . S
C1489 C1493 1.376 . S
C1490 C1488 1.394 . S
C1490 C1491 1.369 . S
C1490 C1494 1.531 . S
C1491 C1490 1.369 . S
C1491 C1492 1.410 . S
C1491 C1499 1.503 . S
C1492 C1491 1.410 . S
C1492 C1493 1.392 . S
C1492 C1495 1.511 . S
C1493 C1489 1.376 . S
C1493 C1492 1.392 . S
C1493 H1505 0.929 . S
C1494 C1490 1.531 . S
C1494 H1506 0.960 . S
C1494 H1507 0.962 . S
C1494 H1508 0.960 . S
C1495 C1492 1.511 . S
C1495 H1509 0.961 . S
C1495 H1510 0.961 . S
C1495 H1511 0.961 . S
C1496 C1497 1.370 . S
C1496 C1498 1.363 . S
C1496 H1512 0.931 . S
C1497 C1496 1.370 . S
C1497 C1501 1.408 . S
C1498 C1496 1.363 . S
C1498 C1499 1.370 . S
C1498 C1502 1.524 . S
C1499 C1491 1.503 . S
C1499 C1498 1.370 . S
C1499 C1500 1.403 . S
C1500 C1499 1.403 . S
C1500 C1501 1.404 . S
C1500 C1503 1.539 . S
C1501 C1497 1.408 . S
C1501 C1500 1.404 . S
C1501 H1513 0.930 . S
C1502 C1498 1.524 . S
C1502 H1514 0.956 . S
C1502 H1515 0.961 . S
C1502 H1516 0.961 . S
C1503 C1500 1.539 . S
C1503 H1517 0.958 . S
C1503 H1518 0.961 . S
C1503 H1519 0.960 . S
H1504 C1488 0.931 . S
H1505 C1493 0.929 . S
H1506 C1494 0.960 . S
H1507 C1494 0.962 . S
H1508 C1494 0.960 . S
H1509 C1495 0.961 . S
H1510 C1495 0.961 . S
H1511 C1495 0.961 . S
H1512 C1496 0.931 . S
H1513 C1501 0.930 . S
H1514 C1502 0.956 . S
H1515 C1502 0.961 . S
H1516 C1502 0.961 . S
H1517 C1503 0.958 . S
H1518 C1503 0.961 . S
H1519 C1503 0.960 . S
C1520 C1521 1.391 . S
C1520 C1522 1.394 . S
C1520 H1536 0.931 . S
C1521 C1520 1.391 . S
C1521 C1525 1.376 . S
C1522 C1520 1.394 . S
C1522 C1523 1.369 . S
C1522 C1526 1.531 . S
C1523 C1522 1.369 . S
C1523 C1524 1.410 . S
C1523 C1531 1.503 1_545 S
C1524 C1523 1.410 . S
C1524 C1525 1.392 . S
C1524 C1527 1.511 1_545 S
C1525 C1521 1.376 . S
C1525 C1524 1.392 . S
C1525 H1537 0.929 . S
C1526 C1522 1.531 . S
C1526 H1538 0.960 . S
C1526 H1539 0.962 . S
C1526 H1540 0.960 . S
C1527 C1524 1.511 1_565 S
C1527 H1541 0.961 . S
C1527 H1542 0.961 . S
C1527 H1543 0.961 . S
C1528 C1529 1.370 . S
C1528 C1530 1.363 . S
C1528 H1544 0.931 . S
C1529 C1528 1.370 . S
C1529 C1533 1.408 . S
C1530 C1528 1.363 . S
C1530 C1531 1.370 . S
C1530 C1534 1.524 . S
C1531 C1523 1.503 1_565 S
C1531 C1530 1.370 . S
C1531 C1532 1.403 1_565 S
C1532 C1531 1.403 1_545 S
C1532 C1533 1.404 1_545 S
C1532 C1535 1.539 . S
C1533 C1529 1.408 . S
C1533 C1532 1.404 1_565 S
C1533 H1545 0.930 . S
C1534 C1530 1.524 . S
C1534 H1546 0.956 . S
C1534 H1547 0.961 . S
C1534 H1548 0.961 . S
C1535 C1532 1.539 . S
C1535 H1549 0.958 . S
C1535 H1550 0.961 . S
C1535 H1551 0.960 . S
H1536 C1520 0.931 . S
H1537 C1525 0.929 . S
H1538 C1526 0.960 . S
H1539 C1526 0.962 . S
H1540 C1526 0.960 . S
H1541 C1527 0.961 . S
H1542 C1527 0.961 . S
H1543 C1527 0.961 . S
H1544 C1528 0.931 . S
H1545 C1533 0.930 . S
H1546 C1534 0.956 . S
H1547 C1534 0.961 . S
H1548 C1534 0.961 . S
H1549 C1535 0.958 . S
H1550 C1535 0.961 . S
H1551 C1535 0.960 . S
C1552 C1553 1.391 . S
C1552 C1554 1.394 . S
C1552 H1568 0.931 . S
C1553 C1552 1.391 . S
C1553 C1557 1.376 . S
C1554 C1552 1.394 . S
C1554 C1555 1.369 . S
C1554 C1558 1.531 . S
C1555 C1554 1.369 . S
C1555 C1556 1.410 . S
C1555 C1563 1.503 . S
C1556 C1555 1.410 . S
C1556 C1557 1.392 . S
C1556 C1559 1.511 . S
C1557 C1553 1.376 . S
C1557 C1556 1.392 . S
C1557 H1569 0.929 . S
C1558 C1554 1.531 . S
C1558 H1570 0.960 . S
C1558 H1571 0.962 . S
C1558 H1572 0.960 . S
C1559 C1556 1.511 . S
C1559 H1573 0.961 . S
C1559 H1574 0.961 . S
C1559 H1575 0.961 . S
C1560 C1561 1.370 . S
C1560 C1562 1.363 . S
C1560 H1576 0.931 . S
C1561 C1560 1.370 . S
C1561 C1565 1.408 . S
C1562 C1560 1.363 . S
C1562 C1563 1.370 . S
C1562 C1566 1.524 . S
C1563 C1555 1.503 . S
C1563 C1562 1.370 . S
C1563 C1564 1.403 . S
C1564 C1563 1.403 . S
C1564 C1565 1.404 . S
C1564 C1567 1.539 . S
C1565 C1561 1.408 . S
C1565 C1564 1.404 . S
C1565 H1577 0.930 . S
C1566 C1562 1.524 . S
C1566 H1578 0.956 . S
C1566 H1579 0.961 . S
C1566 H1580 0.961 . S
C1567 C1564 1.539 . S
C1567 H1581 0.958 . S
C1567 H1582 0.961 . S
C1567 H1583 0.960 . S
H1568 C1552 0.931 . S
H1569 C1557 0.929 . S
H1570 C1558 0.960 . S
H1571 C1558 0.962 . S
H1572 C1558 0.960 . S
H1573 C1559 0.961 . S
H1574 C1559 0.961 . S
H1575 C1559 0.961 . S
H1576 C1560 0.931 . S
H1577 C1565 0.930 . S
H1578 C1566 0.956 . S
H1579 C1566 0.961 . S
H1580 C1566 0.961 . S
H1581 C1567 0.958 . S
H1582 C1567 0.961 . S
H1583 C1567 0.960 . S
C1584 C1585 1.391 . S
C1584 C1586 1.394 . S
C1584 H1600 0.931 . S
C1585 C1584 1.391 . S
C1585 C1589 1.376 . S
C1586 C1584 1.394 . S
C1586 C1587 1.369 . S
C1586 C1590 1.531 . S
C1587 C1586 1.369 . S
C1587 C1588 1.410 . S
C1587 C1595 1.503 . S
C1588 C1587 1.410 . S
C1588 C1589 1.392 . S
C1588 C1591 1.511 . S
C1589 C1585 1.376 . S
C1589 C1588 1.392 . S
C1589 H1601 0.929 . S
C1590 C1586 1.531 . S
C1590 H1602 0.960 . S
C1590 H1603 0.962 . S
C1590 H1604 0.960 . S
C1591 C1588 1.511 . S
C1591 H1605 0.961 . S
C1591 H1606 0.961 . S
C1591 H1607 0.961 . S
C1592 C1593 1.370 . S
C1592 C1594 1.363 . S
C1592 H1608 0.931 . S
C1593 C1592 1.370 . S
C1593 C1597 1.408 . S
C1594 C1592 1.363 . S
C1594 C1595 1.370 . S
C1594 C1598 1.524 . S
C1595 C1587 1.503 . S
C1595 C1594 1.370 . S
C1595 C1596 1.403 . S
C1596 C1595 1.403 . S
C1596 C1597 1.404 . S
C1596 C1599 1.539 . S
C1597 C1593 1.408 . S
C1597 C1596 1.404 . S
C1597 H1609 0.930 . S
C1598 C1594 1.524 . S
C1598 H1610 0.956 . S
C1598 H1611 0.961 . S
C1598 H1612 0.961 . S
C1599 C1596 1.539 . S
C1599 H1613 0.958 . S
C1599 H1614 0.961 . S
C1599 H1615 0.960 . S
H1600 C1584 0.931 . S
H1601 C1589 0.929 . S
H1602 C1590 0.960 . S
H1603 C1590 0.962 . S
H1604 C1590 0.960 . S
H1605 C1591 0.961 . S
H1606 C1591 0.961 . S
H1607 C1591 0.961 . S
H1608 C1592 0.931 . S
H1609 C1597 0.930 . S
H1610 C1598 0.956 . S
H1611 C1598 0.961 . S
H1612 C1598 0.961 . S
H1613 C1599 0.958 . S
H1614 C1599 0.961 . S
H1615 C1599 0.960 . S
C1616 C1617 1.391 . S
C1616 C1618 1.394 . S
C1616 H1632 0.931 . S
C1617 C1616 1.391 . S
C1617 C1621 1.376 . S
C1618 C1616 1.394 . S
C1618 C1619 1.369 . S
C1618 C1622 1.531 . S
C1619 C1618 1.369 . S
C1619 C1620 1.410 . S
C1619 C1627 1.503 . S
C1620 C1619 1.410 . S
C1620 C1621 1.392 . S
C1620 C1623 1.511 . S
C1621 C1617 1.376 . S
C1621 C1620 1.392 . S
C1621 H1633 0.929 . S
C1622 C1618 1.531 . S
C1622 H1634 0.960 . S
C1622 H1635 0.962 . S
C1622 H1636 0.960 . S
C1623 C1620 1.511 . S
C1623 H1637 0.961 . S
C1623 H1638 0.961 . S
C1623 H1639 0.961 . S
C1624 C1625 1.370 . S
C1624 C1626 1.363 . S
C1624 H1640 0.931 . S
C1625 C1624 1.370 . S
C1625 C1629 1.408 . S
C1626 C1624 1.363 . S
C1626 C1627 1.370 . S
C1626 C1630 1.524 . S
C1627 C1619 1.503 . S
C1627 C1626 1.370 . S
C1627 C1628 1.403 . S
C1628 C1627 1.403 . S
C1628 C1629 1.404 . S
C1628 C1631 1.539 . S
C1629 C1625 1.408 . S
C1629 C1628 1.404 . S
C1629 H1641 0.930 . S
C1630 C1626 1.524 . S
C1630 H1642 0.956 . S
C1630 H1643 0.961 . S
C1630 H1644 0.961 . S
C1631 C1628 1.539 . S
C1631 H1645 0.958 . S
C1631 H1646 0.961 . S
C1631 H1647 0.960 . S
H1632 C1616 0.931 . S
H1633 C1621 0.929 . S
H1634 C1622 0.960 . S
H1635 C1622 0.962 . S
H1636 C1622 0.960 . S
H1637 C1623 0.961 . S
H1638 C1623 0.961 . S
H1639 C1623 0.961 . S
H1640 C1624 0.931 . S
H1641 C1629 0.930 . S
H1642 C1630 0.956 . S
H1643 C1630 0.961 . S
H1644 C1630 0.961 . S
H1645 C1631 0.958 . S
H1646 C1631 0.961 . S
H1647 C1631 0.960 . S
C1648 C1649 1.391 . S
C1648 C1650 1.394 . S
C1648 H1664 0.931 . S
C1649 C1648 1.391 . S
C1649 C1653 1.376 . S
C1650 C1648 1.394 . S
C1650 C1651 1.369 . S
C1650 C1654 1.531 . S
C1651 C1650 1.369 . S
C1651 C1652 1.410 . S
C1651 C1659 1.503 . S
C1652 C1651 1.410 . S
C1652 C1653 1.392 . S
C1652 C1655 1.511 . S
C1653 C1649 1.376 . S
C1653 C1652 1.392 . S
C1653 H1665 0.929 . S
C1654 C1650 1.531 . S
C1654 H1666 0.960 . S
C1654 H1667 0.962 . S
C1654 H1668 0.960 . S
C1655 C1652 1.511 . S
C1655 H1669 0.961 . S
C1655 H1670 0.961 . S
C1655 H1671 0.961 . S
C1656 C1657 1.370 . S
C1656 C1658 1.363 . S
C1656 H1672 0.931 . S
C1657 C1656 1.370 . S
C1657 C1661 1.408 . S
C1658 C1656 1.363 . S
C1658 C1659 1.370 . S
C1658 C1662 1.524 . S
C1659 C1651 1.503 . S
C1659 C1658 1.370 . S
C1659 C1660 1.403 . S
C1660 C1659 1.403 . S
C1660 C1661 1.404 . S
C1660 C1663 1.539 . S
C1661 C1657 1.408 . S
C1661 C1660 1.404 . S
C1661 H1673 0.930 . S
C1662 C1658 1.524 . S
C1662 H1674 0.956 . S
C1662 H1675 0.961 . S
C1662 H1676 0.961 . S
C1663 C1660 1.539 . S
C1663 H1677 0.958 . S
C1663 H1678 0.961 . S
C1663 H1679 0.960 . S
H1664 C1648 0.931 . S
H1665 C1653 0.929 . S
H1666 C1654 0.960 . S
H1667 C1654 0.962 . S
H1668 C1654 0.960 . S
H1669 C1655 0.961 . S
H1670 C1655 0.961 . S
H1671 C1655 0.961 . S
H1672 C1656 0.931 . S
H1673 C1661 0.930 . S
H1674 C1662 0.956 . S
H1675 C1662 0.961 . S
H1676 C1662 0.961 . S
H1677 C1663 0.958 . S
H1678 C1663 0.961 . S
H1679 C1663 0.960 . S
C1680 C1681 1.391 . S
C1680 C1682 1.394 . S
C1680 H1696 0.931 . S
C1681 C1680 1.391 . S
C1681 C1685 1.376 . S
C1682 C1680 1.394 . S
C1682 C1683 1.369 . S
C1682 C1686 1.531 1_655 S
C1683 C1682 1.369 . S
C1683 C1684 1.410 . S
C1683 C1691 1.503 1_655 S
C1684 C1683 1.410 . S
C1684 C1685 1.392 . S
C1684 C1687 1.511 . S
C1685 C1681 1.376 . S
C1685 C1684 1.392 . S
C1685 H1697 0.929 . S
C1686 C1682 1.531 1_455 S
C1686 H1698 0.960 . S
C1686 H1699 0.962 . S
C1686 H1700 0.960 . S
C1687 C1684 1.511 . S
C1687 H1701 0.961 . S
C1687 H1702 0.961 . S
C1687 H1703 0.961 . S
C1688 C1689 1.370 . S
C1688 C1690 1.363 . S
C1688 H1704 0.931 . S
C1689 C1688 1.370 . S
C1689 C1693 1.408 . S
C1690 C1688 1.363 . S
C1690 C1691 1.370 . S
C1690 C1694 1.524 . S
C1691 C1683 1.503 1_455 S
C1691 C1690 1.370 . S
C1691 C1692 1.403 . S
C1692 C1691 1.403 . S
C1692 C1693 1.404 . S
C1692 C1695 1.539 . S
C1693 C1689 1.408 . S
C1693 C1692 1.404 . S
C1693 H1705 0.930 . S
C1694 C1690 1.524 . S
C1694 H1706 0.956 . S
C1694 H1707 0.961 1_455 S
C1694 H1708 0.961 . S
C1695 C1692 1.539 . S
C1695 H1709 0.958 . S
C1695 H1710 0.961 . S
C1695 H1711 0.960 1_455 S
H1696 C1680 0.931 . S
H1697 C1685 0.929 . S
H1698 C1686 0.960 . S
H1699 C1686 0.962 . S
H1700 C1686 0.960 . S
H1701 C1687 0.961 . S
H1702 C1687 0.961 . S
H1703 C1687 0.961 . S
H1704 C1688 0.931 . S
H1705 C1693 0.930 . S
H1706 C1694 0.956 . S
H1707 C1694 0.961 1_655 S
H1708 C1694 0.961 . S
H1709 C1695 0.958 . S
H1710 C1695 0.961 . S
H1711 C1695 0.960 1_655 S
C1712 C1713 1.391 . S
C1712 C1714 1.394 . S
C1712 H1728 0.931 . S
C1713 C1712 1.391 . S
C1713 C1717 1.376 . S
C1714 C1712 1.394 . S
C1714 C1715 1.369 . S
C1714 C1718 1.516 1_455 S
C1715 C1714 1.369 . S
C1715 C1716 1.410 . S
C1715 C1723 1.503 1_455 S
C1716 C1715 1.410 . S
C1716 C1717 1.392 . S
C1716 C1719 1.511 . S
C1717 C1713 1.376 . S
C1717 C1716 1.392 . S
C1717 H1729 0.929 . S
C1718 C1714 1.516 1_655 S
C1718 H1730 0.972 . S
C1718 H1731 0.975 . S
C1718 H1732 0.951 1_655 S
C1719 C1716 1.511 . S
C1719 H1733 0.961 . S
C1719 H1734 0.961 . S
C1719 H1735 0.961 . S
C1720 C1721 1.370 . S
C1720 C1722 1.363 . S
C1720 H1736 0.931 . S
C1721 C1720 1.370 . S
C1721 C1725 1.408 . S
C1722 C1720 1.363 . S
C1722 C1723 1.370 . S
C1722 C1726 1.524 . S
C1723 C1715 1.503 1_655 S
C1723 C1722 1.370 . S
C1723 C1724 1.403 . S
C1724 C1723 1.403 . S
C1724 C1725 1.404 . S
C1724 C1727 1.539 1_655 S
C1725 C1721 1.408 . S
C1725 C1724 1.404 . S
C1725 H1737 0.930 . S
C1726 C1722 1.524 . S
C1726 H1738 0.956 . S
C1726 H1739 0.961 . S
C1726 H1740 0.961 . S
C1727 C1724 1.539 1_455 S
C1727 H1741 0.958 . S
C1727 H1742 0.966 . S
C1727 H1743 0.960 . S
H1728 C1712 0.931 . S
H1729 C1717 0.929 . S
H1730 C1718 0.972 . S
H1731 C1718 0.975 . S
H1732 C1718 0.951 1_455 S
H1733 C1719 0.961 . S
H1734 C1719 0.961 . S
H1735 C1719 0.961 . S
H1736 C1720 0.931 . S
H1737 C1725 0.930 . S
H1738 C1726 0.956 . S
H1739 C1726 0.961 . S
H1740 C1726 0.961 . S
H1741 C1727 0.958 . S
H1742 C1727 0.966 . S
H1743 C1727 0.960 . S
C1744 C1745 1.391 . S
C1744 C1746 1.394 . S
C1744 H1760 0.931 . S
C1745 C1744 1.391 . S
C1745 C1749 1.376 . S
C1746 C1744 1.394 . S
C1746 C1747 1.369 . S
C1746 C1750 1.531 . S
C1747 C1746 1.369 . S
C1747 C1748 1.410 . S
C1747 C1755 1.503 1_455 S
C1748 C1747 1.410 . S
C1748 C1749 1.392 . S
C1748 C1751 1.511 . S
C1749 C1745 1.376 . S
C1749 C1748 1.392 . S
C1749 H1761 0.929 . S
C1750 C1746 1.531 . S
C1750 H1762 0.960 . S
C1750 H1763 0.962 . S
C1750 H1764 0.960 . S
C1751 C1748 1.511 . S
C1751 H1765 0.961 . S
C1751 H1766 0.961 1_455 S
C1751 H1767 0.961 . S
C1752 C1753 1.370 . S
C1752 C1754 1.363 . S
C1752 H1768 0.931 . S
C1753 C1752 1.370 . S
C1753 C1757 1.408 . S
C1754 C1752 1.363 . S
C1754 C1755 1.370 . S
C1754 C1758 1.524 . S
C1755 C1747 1.503 1_655 S
C1755 C1754 1.370 . S
C1755 C1756 1.403 . S
C1756 C1755 1.403 . S
C1756 C1757 1.404 . S
C1756 C1759 1.539 1_655 S
C1757 C1753 1.408 . S
C1757 C1756 1.404 . S
C1757 H1769 0.930 . S
C1758 C1754 1.524 . S
C1758 H1770 0.956 . S
C1758 H1771 0.961 . S
C1758 H1772 0.961 . S
C1759 C1756 1.539 1_455 S
C1759 H1773 0.958 . S
C1759 H1774 0.967 . S
C1759 H1775 0.960 . S
H1760 C1744 0.931 . S
H1761 C1749 0.929 . S
H1762 C1750 0.960 . S
H1763 C1750 0.962 . S
H1764 C1750 0.960 . S
H1765 C1751 0.961 . S
H1766 C1751 0.961 1_655 S
H1767 C1751 0.961 . S
H1768 C1752 0.931 . S
H1769 C1757 0.930 . S
H1770 C1758 0.956 . S
H1771 C1758 0.961 . S
H1772 C1758 0.961 . S
H1773 C1759 0.958 . S
H1774 C1759 0.967 . S
H1775 C1759 0.960 . S
C1776 C1777 1.391 . S
C1776 C1778 1.394 . S
C1776 H1792 0.931 . S
C1777 C1776 1.391 . S
C1777 C1781 1.376 . S
C1778 C1776 1.394 . S
C1778 C1779 1.369 . S
C1778 C1782 1.530 . S
C1779 C1778 1.369 . S
C1779 C1780 1.410 . S
C1779 C1787 1.503 1_655 S
C1780 C1779 1.410 . S
C1780 C1781 1.392 . S
C1780 C1783 1.511 . S
C1781 C1777 1.376 . S
C1781 C1780 1.392 . S
C1781 H1793 0.929 . S
C1782 C1778 1.530 . S
C1782 H1794 0.961 1_655 S
C1782 H1795 0.962 1_655 S
C1782 H1796 0.960 . S
C1783 C1780 1.511 . S
C1783 H1797 0.961 . S
C1783 H1798 0.961 . S
C1783 H1799 0.961 . S
C1784 C1785 1.370 . S
C1784 C1786 1.363 . S
C1784 H1800 0.931 . S
C1785 C1784 1.370 . S
C1785 C1789 1.408 . S
C1786 C1784 1.363 . S
C1786 C1787 1.370 . S
C1786 C1790 1.524 . S
C1787 C1779 1.503 1_455 S
C1787 C1786 1.370 . S
C1787 C1788 1.403 . S
C1788 C1787 1.403 . S
C1788 C1789 1.404 . S
C1788 C1791 1.539 1_455 S
C1789 C1785 1.408 . S
C1789 C1788 1.404 . S
C1789 H1801 0.930 . S
C1790 C1786 1.524 . S
C1790 H1802 0.956 . S
C1790 H1803 0.961 . S
C1790 H1804 0.961 . S
C1791 C1788 1.539 1_655 S
C1791 H1805 0.958 . S
C1791 H1806 0.961 . S
C1791 H1807 0.960 . S
H1792 C1776 0.931 . S
H1793 C1781 0.929 . S
H1794 C1782 0.961 1_455 S
H1795 C1782 0.962 1_455 S
H1796 C1782 0.960 . S
H1797 C1783 0.961 . S
H1798 C1783 0.961 . S
H1799 C1783 0.961 . S
H1800 C1784 0.931 . S
H1801 C1789 0.930 . S
H1802 C1790 0.956 . S
H1803 C1790 0.961 . S
H1804 C1790 0.961 . S
H1805 C1791 0.958 . S
H1806 C1791 0.961 . S
H1807 C1791 0.960 . S
C529 C18 0.752 . S
C537 C469 0.759 . S
C561 C51 0.763 . S
C569 C502 0.745 . S
C593 C84 0.762 . S
C601 C403 0.739 . S
C625 C436 0.730 . S
C633 C117 0.760 . S
C657 C150 0.762 . S
C665 C337 0.748 . S
C689 C183 0.752 . S
C697 C370 0.775 . S
C721 C216 0.763 . S
C729 C271 0.742 . S
C753 C304 0.747 . S
C761 C249 0.759 . S
C785 C282 0.763 . S
C793 C205 0.751 . S
C817 C238 0.762 . S
C825 C315 0.759 . S
C849 C348 0.762 . S
C857 C139 0.754 . S
C881 C381 0.762 . S
C889 C172 0.758 . S
C913 C414 0.763 . S
C921 C73 0.743 . S
C945 C447 0.751 . S
C953 C106 0.772 . S
C977 C7 0.759 . S
C985 C480 0.759 . S
C1009 C40 0.767 . S
C1017 C513 0.756 . S
C1041 N2 1.708 . S
C1049 N365 1.683 . S
C1073 N332 1.707 . S
C1081 N35 1.686 . S
C1105 N68 1.704 . S
C1113 N299 1.689 . S
C1137 N266 1.707 . S
C1145 N101 1.681 . S
C1169 N134 1.702 . S
C1177 N497 1.680 . S
C1201 N464 1.704 . S
C1209 N167 1.691 . S
C1233 N200 1.686 . S
C1241 N431 1.690 . S
C1265 N233 1.669 . S
C1273 N398 1.665 . S
C1297 N13 1.828 . S
C1305 N79 1.833 . S
C1329 N46 1.828 . S
C1337 N112 1.834 . S
C1361 N145 1.831 . S
C1369 N211 1.835 . S
C1393 N244 1.832 . S
C1401 N178 1.836 . S
C1425 N343 1.830 . S
C1433 N277 1.834 . S
C1457 N376 1.830 . S
C1465 N310 1.835 . S
C1489 N409 1.828 . S
C1497 N475 1.834 . S
C1521 N442 1.831 . S
C1529 N508 1.835 . S
C1553 C54 1.587 . S
C1561 C21 1.576 . S
C1585 C87 1.571 . S
C1593 C120 1.572 . S
C1617 C153 1.582 . S
C1625 C186 1.576 . S
C1649 C252 1.563 . S
C1657 C219 1.584 . S
C1681 C285 1.576 . S
C1689 C318 1.581 . S
C1713 C384 1.563 . S
C1721 C351 1.584 . S
C1745 C417 1.559 . S
C1753 C450 1.584 . S
C1777 C516 1.556 . S
C1785 C483 1.582 . S
