# Generated by pormake.
# Topology cag, (4)-cn, num edge types: 1
# Building blocks:
#     Node 0, Type 0, BuildingBlock: AZAVOO_clean_sbu_0, # of connection points: 4
#     Node 1, Type 0, BuildingBlock: AZAVOO_clean_sbu_0, # of connection points: 4
#     Node 2, Type 0, BuildingBlock: AZAVOO_clean_sbu_0, # of connection points: 4
#     Node 3, Type 0, BuildingBlock: AZAVOO_clean_sbu_0, # of connection points: 4
#     Node 4, Type 0, BuildingBlock: AZAVOO_clean_sbu_0, # of connection points: 4
#     Node 5, Type 0, BuildingBlock: AZAVOO_clean_sbu_0, # of connection points: 4
#     Node 6, Type 0, BuildingBlock: AZAVOO_clean_sbu_0, # of connection points: 4
#     Node 7, Type 0, BuildingBlock: AZAVOO_clean_sbu_0, # of connection points: 4
#     Node 8, Type 0, BuildingBlock: AZAVOO_clean_sbu_0, # of connection points: 4
#     Node 9, Type 0, BuildingBlock: AZAVOO_clean_sbu_0, # of connection points: 4
#     Node 10, Type 0, BuildingBlock: AZAVOO_clean_sbu_0, # of connection points: 4
#     Node 11, Type 0, BuildingBlock: AZAVOO_clean_sbu_0, # of connection points: 4
#     Node 12, Type 0, BuildingBlock: AZAVOO_clean_sbu_0, # of connection points: 4
#     Node 13, Type 0, BuildingBlock: AZAVOO_clean_sbu_0, # of connection points: 4
#     Node 14, Type 0, BuildingBlock: AZAVOO_clean_sbu_0, # of connection points: 4
#     Node 15, Type 0, BuildingBlock: AZAVOO_clean_sbu_0, # of connection points: 4
#     Edge 16, Type (0, 0), BuildingBlock: EZIPEK_clean_linker_0, # of connection points: 2
#     Edge 17, Type (0, 0), BuildingBlock: EZIPEK_clean_linker_0, # of connection points: 2
#     Edge 18, Type (0, 0), BuildingBlock: EZIPEK_clean_linker_0, # of connection points: 2
#     Edge 19, Type (0, 0), BuildingBlock: EZIPEK_clean_linker_0, # of connection points: 2
#     Edge 20, Type (0, 0), BuildingBlock: EZIPEK_clean_linker_0, # of connection points: 2
#     Edge 21, Type (0, 0), BuildingBlock: EZIPEK_clean_linker_0, # of connection points: 2
#     Edge 22, Type (0, 0), BuildingBlock: EZIPEK_clean_linker_0, # of connection points: 2
#     Edge 23, Type (0, 0), BuildingBlock: EZIPEK_clean_linker_0, # of connection points: 2
#     Edge 24, Type (0, 0), BuildingBlock: EZIPEK_clean_linker_0, # of connection points: 2
#     Edge 25, Type (0, 0), BuildingBlock: EZIPEK_clean_linker_0, # of connection points: 2
#     Edge 26, Type (0, 0), BuildingBlock: EZIPEK_clean_linker_0, # of connection points: 2
#     Edge 27, Type (0, 0), BuildingBlock: EZIPEK_clean_linker_0, # of connection points: 2
#     Edge 28, Type (0, 0), BuildingBlock: EZIPEK_clean_linker_0, # of connection points: 2
#     Edge 29, Type (0, 0), BuildingBlock: EZIPEK_clean_linker_0, # of connection points: 2
#     Edge 30, Type (0, 0), BuildingBlock: EZIPEK_clean_linker_0, # of connection points: 2
#     Edge 31, Type (0, 0), BuildingBlock: EZIPEK_clean_linker_0, # of connection points: 2
#     Edge 32, Type (0, 0), BuildingBlock: EZIPEK_clean_linker_0, # of connection points: 2
#     Edge 33, Type (0, 0), BuildingBlock: EZIPEK_clean_linker_0, # of connection points: 2
#     Edge 34, Type (0, 0), BuildingBlock: EZIPEK_clean_linker_0, # of connection points: 2
#     Edge 35, Type (0, 0), BuildingBlock: EZIPEK_clean_linker_0, # of connection points: 2
#     Edge 36, Type (0, 0), BuildingBlock: EZIPEK_clean_linker_0, # of connection points: 2
#     Edge 37, Type (0, 0), BuildingBlock: EZIPEK_clean_linker_0, # of connection points: 2
#     Edge 38, Type (0, 0), BuildingBlock: EZIPEK_clean_linker_0, # of connection points: 2
#     Edge 39, Type (0, 0), BuildingBlock: EZIPEK_clean_linker_0, # of connection points: 2
#     Edge 40, Type (0, 0), BuildingBlock: EZIPEK_clean_linker_0, # of connection points: 2
#     Edge 41, Type (0, 0), BuildingBlock: EZIPEK_clean_linker_0, # of connection points: 2
#     Edge 42, Type (0, 0), BuildingBlock: EZIPEK_clean_linker_0, # of connection points: 2
#     Edge 43, Type (0, 0), BuildingBlock: EZIPEK_clean_linker_0, # of connection points: 2
#     Edge 44, Type (0, 0), BuildingBlock: EZIPEK_clean_linker_0, # of connection points: 2
#     Edge 45, Type (0, 0), BuildingBlock: EZIPEK_clean_linker_0, # of connection points: 2
#     Edge 46, Type (0, 0), BuildingBlock: EZIPEK_clean_linker_0, # of connection points: 2
#     Edge 47, Type (0, 0), BuildingBlock: EZIPEK_clean_linker_0, # of connection points: 2
# Relax obj value: 0.058
# Max RMSD: 0.098
# Mean RMSD: 0.095
data_MOF--net-cag--node1-AZAVOO_clean_sbu_0--edge1-EZIPEK_clean_linker_0
_symmetry_space_group_name_H-M    P1
_symmetry_Int_Tables_number       1
_symmetry_cell_setting            triclinic
loop_
_symmetry_equiv_pos_as_xyz
'x, y, z'
_cell_length_a     33.021334
_cell_length_b     33.772749
_cell_length_c     32.193838
_cell_angle_alpha  89.964821
_cell_angle_beta   90.069522
_cell_angle_gamma 90.018008
loop_
_atom_site_label
_atom_site_type_symbol
_atom_site_fract_x
_atom_site_fract_y
_atom_site_fract_z
_atom_type_partial_charge
Mg0 Mg 0.353 0.11248 0.10668 0.0
O1 O 0.32976 0.06578 0.06123 0.0
O2 O 0.26192 0.06529 0.06454 0.0
Mg3 Mg 0.24202 0.11034 0.11358 0.0
C4 C 0.2953 0.05282 0.04946 0.0
C5 C 0.44438 0.11815 0.10435 0.0
O6 O 0.43521 0.12484 0.14341 0.0
O7 O 0.33267 0.16149 0.06254 0.0
O8 O 0.26528 0.16042 0.07205 0.0
O9 O 0.35361 0.06931 0.16032 0.0
O10 O 0.30183 0.10674 0.14207 0.0
C11 C 0.29717 0.17517 0.05582 0.0
C12 C 0.31667 0.08064 0.16659 0.0
O13 O 0.41619 0.11033 0.07875 0.0
Mg14 Mg 0.15166 0.86945 0.61222 0.0
O15 O 0.17024 0.91648 0.56486 0.0
O16 O 0.23758 0.91278 0.55652 0.0
Mg17 Mg 0.26276 0.86644 0.60157 0.0
C18 C 0.20307 0.92755 0.54744 0.0
C19 C 0.05867 0.86416 0.619 0.0
O20 O 0.06962 0.85221 0.65619 0.0
O21 O 0.16283 0.82113 0.56398 0.0
O22 O 0.23084 0.81848 0.56394 0.0
O23 O 0.16199 0.90952 0.66823 0.0
O24 O 0.20799 0.87229 0.63821 0.0
C25 C 0.19626 0.80575 0.55223 0.0
C26 C 0.19878 0.89625 0.6674 0.0
O27 O 0.08556 0.87494 0.59319 0.0
Mg28 Mg 0.35512 0.87903 0.86007 0.0
O29 O 0.33059 0.92476 0.90594 0.0
O30 O 0.2628 0.92051 0.90627 0.0
Mg31 Mg 0.24385 0.87333 0.85902 0.0
C32 C 0.29593 0.93561 0.9192 0.0
C33 C 0.44611 0.86686 0.86589 0.0
O34 O 0.43578 0.84646 0.8328 0.0
O35 O 0.34076 0.82902 0.9056 0.0
O36 O 0.27312 0.82558 0.89943 0.0
O37 O 0.3492 0.92058 0.80477 0.0
O38 O 0.3018 0.88029 0.82771 0.0
C39 C 0.30668 0.81303 0.91415 0.0
C40 C 0.31306 0.90612 0.80108 0.0
O41 O 0.41909 0.88597 0.8855 0.0
Mg42 Mg 0.15755 0.11167 0.35706 0.0
O43 O 0.17148 0.05987 0.40083 0.0
O44 O 0.23828 0.0617 0.41378 0.0
Mg45 Mg 0.26819 0.10881 0.37303 0.0
C46 C 0.20301 0.04725 0.41968 0.0
C47 C 0.06892 0.13837 0.36291 0.0
O48 O 0.0864 0.16939 0.34601 0.0
O49 O 0.16906 0.15583 0.4097 0.0
O50 O 0.2371 0.15609 0.41199 0.0
O51 O 0.16831 0.0762 0.29798 0.0
O52 O 0.21489 0.1076 0.33375 0.0
C53 C 0.20269 0.16948 0.42326 0.0
C54 C 0.20572 0.08714 0.30175 0.0
O55 O 0.09013 0.1081 0.37156 0.0
Mg56 Mg 0.70694 0.84941 0.90761 0.0
O57 O 0.7292 0.90581 0.93922 0.0
O58 O 0.79685 0.90626 0.93502 0.0
Mg59 Mg 0.81791 0.8501 0.90151 0.0
C60 C 0.76346 0.92193 0.94633 0.0
C61 C 0.61437 0.84695 0.90807 0.0
O62 O 0.62397 0.80973 0.91462 0.0
O63 O 0.72006 0.87626 0.84503 0.0
O64 O 0.78742 0.86921 0.84013 0.0
O65 O 0.71268 0.81401 0.96589 0.0
O66 O 0.76139 0.82085 0.91941 0.0
C67 C 0.75305 0.8786 0.82468 0.0
C68 C 0.74913 0.80583 0.95377 0.0
O69 O 0.64231 0.87272 0.90569 0.0
Mg70 Mg 0.80686 0.15592 0.40371 0.0
O71 O 0.78753 0.09912 0.43701 0.0
O72 O 0.71983 0.09949 0.44072 0.0
Mg73 Mg 0.69588 0.15648 0.41135 0.0
C74 C 0.75405 0.08324 0.4477 0.0
C75 C 0.89828 0.15866 0.39308 0.0
O76 O 0.88814 0.19616 0.39578 0.0
O77 O 0.78602 0.13042 0.34238 0.0
O78 O 0.71849 0.13666 0.34707 0.0
O79 O 0.80817 0.19072 0.46268 0.0
O80 O 0.75455 0.18494 0.42192 0.0
C81 C 0.75055 0.12778 0.32686 0.0
C82 C 0.77076 0.19949 0.45477 0.0
O83 O 0.87094 0.13228 0.39525 0.0
Mg84 Mg 0.70467 0.14532 0.0639 0.0
O85 O 0.72961 0.08994 0.03267 0.0
O86 O 0.79692 0.08996 0.04192 0.0
Mg87 Mg 0.81538 0.14841 0.07298 0.0
C88 C 0.76438 0.074 0.02853 0.0
C89 C 0.61327 0.14562 0.07138 0.0
O90 O 0.62339 0.18291 0.07656 0.0
O91 O 0.71743 0.11887 0.12703 0.0
O92 O 0.78385 0.13117 0.13412 0.0
O93 O 0.70953 0.18134 0.00613 0.0
O94 O 0.7583 0.17518 0.05269 0.0
C95 C 0.74971 0.12014 0.14878 0.0
C96 C 0.74569 0.19046 0.01853 0.0
O97 O 0.64075 0.12032 0.06387 0.0
Mg98 Mg 0.79841 0.85338 0.56696 0.0
O99 O 0.78129 0.91062 0.53336 0.0
O100 O 0.71363 0.91533 0.53499 0.0
Mg101 Mg 0.68752 0.85876 0.56382 0.0
C102 C 0.74843 0.92903 0.52551 0.0
C103 C 0.88895 0.84595 0.58064 0.0
O104 O 0.87618 0.80912 0.58144 0.0
O105 O 0.78135 0.88039 0.62858 0.0
O106 O 0.71367 0.8748 0.62797 0.0
O107 O 0.79652 0.81753 0.50889 0.0
O108 O 0.74406 0.82734 0.55014 0.0
C109 C 0.74699 0.88295 0.64636 0.0
C110 C 0.75882 0.81088 0.51757 0.0
O111 O 0.86371 0.87361 0.57396 0.0
Mg112 Mg 0.85566 0.6195 0.11317 0.0
O113 O 0.83369 0.57179 0.06801 0.0
O114 O 0.76604 0.57666 0.0634 0.0
Mg115 Mg 0.74424 0.62458 0.10836 0.0
C116 C 0.79968 0.56096 0.05293 0.0
C117 C 0.94797 0.62796 0.11427 0.0
O118 O 0.93751 0.64424 0.14971 0.0
O119 O 0.84289 0.6674 0.06467 0.0
O120 O 0.77505 0.6713 0.06816 0.0
O121 O 0.84737 0.5804 0.17033 0.0
O122 O 0.80077 0.61843 0.1422 0.0
C123 C 0.80917 0.68322 0.05439 0.0
C124 C 0.81089 0.59445 0.1711 0.0
O125 O 0.92082 0.61283 0.09122 0.0
Mg126 Mg 0.65222 0.38275 0.61073 0.0
O127 O 0.67428 0.4306 0.56585 0.0
O128 O 0.74216 0.4318 0.56874 0.0
Mg129 Mg 0.76335 0.38647 0.61696 0.0
C130 C 0.7085 0.44412 0.55408 0.0
C131 C 0.56323 0.36306 0.60337 0.0
O132 O 0.57539 0.34372 0.63654 0.0
O133 O 0.67306 0.33482 0.5656 0.0
O134 O 0.74049 0.33677 0.57484 0.0
O135 O 0.65165 0.42475 0.66557 0.0
O136 O 0.70372 0.38874 0.64555 0.0
C137 C 0.70873 0.3218 0.55852 0.0
C138 C 0.68886 0.41386 0.67105 0.0
O139 O 0.58855 0.38408 0.58347 0.0
Mg140 Mg 0.84741 0.3814 0.86245 0.0
O141 O 0.82894 0.42925 0.90909 0.0
O142 O 0.76163 0.42489 0.91804 0.0
Mg143 Mg 0.73618 0.37821 0.87362 0.0
C144 C 0.79604 0.44018 0.92646 0.0
C145 C 0.93998 0.37181 0.85662 0.0
O146 O 0.92829 0.3568 0.82094 0.0
O147 O 0.83637 0.33314 0.91089 0.0
O148 O 0.76842 0.32996 0.91049 0.0
O149 O 0.83674 0.42024 0.80539 0.0
O150 O 0.79086 0.38426 0.83701 0.0
C151 C 0.80302 0.31734 0.92226 0.0
C152 C 0.79991 0.40713 0.80687 0.0
O153 O 0.91375 0.38641 0.88103 0.0
Mg154 Mg 0.65327 0.61954 0.36311 0.0
O155 O 0.67554 0.57354 0.40999 0.0
O156 O 0.74331 0.57715 0.41305 0.0
Mg157 Mg 0.76466 0.62383 0.36634 0.0
C158 C 0.70958 0.56241 0.4247 0.0
C159 C 0.56199 0.63279 0.36589 0.0
O160 O 0.5732 0.65331 0.33319 0.0
O161 O 0.66674 0.66957 0.40888 0.0
O162 O 0.73458 0.67227 0.40494 0.0
O163 O 0.66064 0.57797 0.30797 0.0
O164 O 0.70771 0.61746 0.33301 0.0
C165 C 0.70074 0.68531 0.41834 0.0
C166 C 0.69705 0.59203 0.30573 0.0
O167 O 0.58842 0.61344 0.38617 0.0
Mg168 Mg 0.1997 0.3456 0.90592 0.0
O169 O 0.22135 0.40182 0.93847 0.0
O170 O 0.28914 0.40107 0.93762 0.0
Mg171 Mg 0.31071 0.34306 0.90817 0.0
C172 C 0.25554 0.41751 0.94686 0.0
C173 C 0.1083 0.34477 0.89512 0.0
O174 O 0.11786 0.30704 0.8965 0.0
O175 O 0.21821 0.37086 0.8438 0.0
O176 O 0.28545 0.36142 0.84429 0.0
O177 O 0.2 0.31065 0.96486 0.0
O178 O 0.25213 0.3156 0.92216 0.0
C179 C 0.2527 0.3717 0.82604 0.0
C180 C 0.23689 0.30115 0.95554 0.0
O181 O 0.13599 0.37058 0.89944 0.0
Mg182 Mg 0.2999 0.64259 0.40549 0.0
O183 O 0.28224 0.58493 0.4375 0.0
O184 O 0.21493 0.57883 0.43177 0.0
Mg185 Mg 0.18923 0.63453 0.40071 0.0
C186 C 0.24941 0.56594 0.44356 0.0
C187 C 0.39267 0.64992 0.40568 0.0
O188 O 0.38159 0.68658 0.4131 0.0
O189 O 0.2875 0.61554 0.34266 0.0
O190 O 0.21982 0.61935 0.33851 0.0
O191 O 0.2928 0.6774 0.46389 0.0
O192 O 0.24383 0.66756 0.41817 0.0
C193 C 0.25443 0.61208 0.32252 0.0
C194 C 0.25572 0.6834 0.45228 0.0
O195 O 0.36583 0.62313 0.40263 0.0
Mg196 Mg 0.20825 0.64633 0.06454 0.0
O197 O 0.22733 0.59001 0.03071 0.0
O198 O 0.29503 0.5865 0.03387 0.0
Mg199 Mg 0.31932 0.64357 0.06322 0.0
C200 C 0.26068 0.5723 0.02339 0.0
C201 C 0.11632 0.65051 0.07335 0.0
O202 O 0.12671 0.68796 0.07057 0.0
O203 O 0.22545 0.61897 0.12608 0.0
O204 O 0.29303 0.62577 0.12669 0.0
O205 O 0.21008 0.68236 0.00656 0.0
O206 O 0.26216 0.6737 0.04879 0.0
C207 C 0.25966 0.61647 0.14427 0.0
C208 C 0.24756 0.68963 0.0158 0.0
O209 O 0.14346 0.624 0.07053 0.0
Mg210 Mg 0.3012 0.3398 0.56679 0.0
O211 O 0.28243 0.39579 0.53233 0.0
O212 O 0.21489 0.40027 0.53595 0.0
Mg213 Mg 0.19029 0.34473 0.56819 0.0
C214 C 0.24929 0.41366 0.52468 0.0
C215 C 0.39466 0.33678 0.56483 0.0
O216 O 0.3856 0.30001 0.55532 0.0
O217 O 0.28655 0.36814 0.62864 0.0
O218 O 0.21889 0.36278 0.63059 0.0
O219 O 0.29634 0.30316 0.50942 0.0
O220 O 0.24622 0.31239 0.55386 0.0
C221 C 0.25279 0.37139 0.64753 0.0
C222 C 0.25921 0.29645 0.52028 0.0
O223 O 0.36636 0.36176 0.57002 0.0
C224 C 0.28184 0.24709 0.04783 0.0
C225 C 0.29178 0.21029 0.02923 0.0
C226 C 0.26968 0.23451 0.96145 0.0
C227 C 0.25937 0.27138 0.98003 0.0
N228 N 0.26468 0.31633 0.03772 0.0
N229 N 0.30546 0.17203 0.96785 0.0
C230 C 0.26829 0.2788 0.02234 0.0
C231 C 0.28941 0.20518 0.98574 0.0
N232 N 0.28432 0.25123 0.09 0.0
N233 N 0.25803 0.22633 0.92156 0.0
H234 H 0.31961 0.14981 0.98507 0.0
H235 H 0.30818 0.16825 0.93587 0.0
H236 H 0.24267 0.24641 0.90268 0.0
H237 H 0.26049 0.1984 0.90812 0.0
H238 H 0.27285 0.27548 0.10609 0.0
H239 H 0.29647 0.22935 0.10923 0.0
H240 H 0.27408 0.3246 0.06734 0.0
H241 H 0.2556 0.34015 0.01932 0.0
C242 C 0.21869 0.70218 0.51685 0.0
C243 C 0.22928 0.71093 0.47528 0.0
C244 C 0.19843 0.77658 0.48185 0.0
C245 C 0.1963 0.77072 0.52517 0.0
N246 N 0.20112 0.72803 0.5848 0.0
N247 N 0.22959 0.75659 0.41723 0.0
C248 C 0.20477 0.73322 0.54288 0.0
C249 C 0.21832 0.74782 0.45706 0.0
N250 N 0.22154 0.66416 0.53097 0.0
N251 N 0.18219 0.81007 0.46484 0.0
H252 H 0.24447 0.73666 0.39785 0.0
H253 H 0.22668 0.78463 0.40412 0.0
H254 H 0.16749 0.83135 0.48285 0.0
H255 H 0.17973 0.81488 0.43299 0.0
H256 H 0.21155 0.65503 0.56009 0.0
H257 H 0.23032 0.64095 0.51163 0.0
H258 H 0.2114 0.70303 0.60052 0.0
H259 H 0.18891 0.74977 0.60414 0.0
C260 C 0.29038 0.74141 0.92146 0.0
C261 C 0.30485 0.77687 0.93984 0.0
C262 C 0.28824 0.75216 0.00892 0.0
C263 C 0.272 0.71723 -0.00949 0.0
N264 N 0.26736 0.67377 0.93146 0.0
N265 N 0.33024 0.81055 0.00023 0.0
C266 C 0.2763 0.71027 0.94736 0.0
C267 C 0.30837 0.78021 0.98339 0.0
N268 N 0.28898 0.73825 0.87915 0.0
N269 N 0.28159 0.76026 0.04998 0.0
H270 H 0.34542 0.83131 0.98203 0.0
H271 H 0.33692 0.81267 0.03178 0.0
H272 H 0.2659 0.74145 0.06993 0.0
H273 H 0.28856 0.78735 0.06366 0.0
H274 H 0.27417 0.7155 0.86349 0.0
H275 H 0.30174 0.75949 0.85955 0.0
H276 H 0.27319 0.66554 0.9009 0.0
H277 H 0.25719 0.65041 0.94993 0.0
C278 C 0.23436 0.22685 0.51639 0.0
C279 C 0.23509 0.26565 0.49935 0.0
C280 C 0.20174 0.24228 0.43618 0.0
C281 C 0.20332 0.20318 0.4522 0.0
N282 N 0.20968 0.15932 0.51047 0.0
N283 N 0.20935 0.31265 0.44993 0.0
C284 C 0.21563 0.19596 0.49355 0.0
C285 C 0.21534 0.27416 0.46139 0.0
N286 N 0.2535 0.21917 0.55324 0.0
N287 N 0.18935 0.2485 0.39619 0.0
H288 H 0.21821 0.33622 0.46877 0.0
H289 H 0.19243 0.32117 0.42413 0.0
H290 H 0.17768 0.22589 0.37762 0.0
H291 H 0.19209 0.27553 0.38089 0.0
H292 H 0.25817 0.19078 0.56489 0.0
H293 H 0.26688 0.24113 0.57143 0.0
H294 H 0.21469 0.15262 0.54162 0.0
H295 H 0.19604 0.13642 0.49383 0.0
C296 C 0.80641 0.71255 0.98391 0.0
C297 C 0.80837 0.71828 0.02726 0.0
C298 C 0.78512 0.78661 0.01897 0.0
C299 C 0.77486 0.77792 0.97727 0.0
N300 N 0.77472 0.73215 0.91936 0.0
N301 N 0.80269 0.76071 0.08697 0.0
C302 C 0.78611 0.74111 0.95912 0.0
C303 C 0.79927 0.75561 0.045 0.0
N304 N 0.82325 0.67943 0.96683 0.0
N305 N 0.78184 0.82455 0.03325 0.0
H306 H 0.81522 0.73913 0.10634 0.0
H307 H 0.7919 0.78548 0.10269 0.0
H308 H 0.7727 0.84782 0.01411 0.0
H309 H 0.79176 0.83362 0.06243 0.0
H310 H 0.82586 0.67486 0.93496 0.0
H311 H 0.83835 0.65833 0.98478 0.0
H312 H 0.77795 0.70412 0.90633 0.0
H313 H 0.75922 0.75174 0.90006 0.0
C314 C 0.73598 0.26489 0.46268 0.0
C315 C 0.74832 0.22823 0.48046 0.0
C316 C 0.72656 0.25063 0.54911 0.0
C317 C 0.71459 0.28725 0.53129 0.0
N318 N 0.69779 0.32577 0.4708 0.0
N319 N 0.74657 0.18233 0.53763 0.0
C320 C 0.71565 0.29305 0.48784 0.0
C321 C 0.74086 0.21987 0.52287 0.0
N322 N 0.74623 0.27404 0.42263 0.0
N323 N 0.72521 0.2458 0.59125 0.0
H324 H 0.75638 0.15915 0.51877 0.0
H325 H 0.73827 0.17327 0.56734 0.0
H326 H 0.71248 0.26685 0.61105 0.0
H327 H 0.73811 0.22186 0.60675 0.0
H328 H 0.74224 0.302 0.40963 0.0
H329 H 0.76198 0.25485 0.40313 0.0
H330 H 0.6941 0.32985 0.43896 0.0
H331 H 0.68319 0.3472 0.48865 0.0
C332 C 0.79147 0.24493 0.92749 0.0
C333 C 0.80313 0.28072 0.94705 0.0
C334 C 0.78449 0.25446 0.01487 0.0
C335 C 0.7707 0.21913 -0.00482 0.0
N336 N 0.7707 0.1764 0.93529 0.0
N337 N 0.82359 0.31514 0.0087 0.0
C338 C 0.77749 0.21291 0.95221 0.0
C339 C 0.80434 0.28374 -0.00932 0.0
N340 N 0.79215 0.24243 0.88511 0.0
N341 N 0.77557 0.26175 0.05564 0.0
H342 H 0.83828 0.3368 -0.00884 0.0
H343 H 0.82862 0.31751 0.04054 0.0
H344 H 0.75976 0.24212 0.07457 0.0
H345 H 0.78081 0.28888 0.07002 0.0
H346 H 0.77933 0.21924 0.86836 0.0
H347 H 0.80458 0.26466 0.86652 0.0
H348 H 0.77849 0.16879 0.90502 0.0
H349 H 0.76016 0.15253 0.95276 0.0
C350 C 0.71773 0.74847 0.51166 0.0
C351 C 0.73454 0.78283 0.49258 0.0
C352 C 0.71719 0.75697 0.42387 0.0
C353 C 0.70219 0.72208 0.443 0.0
N354 N 0.67577 0.6899 0.50375 0.0
N355 N 0.74124 0.82444 0.43222 0.0
C356 C 0.69795 0.71984 0.48653 0.0
C357 C 0.73123 0.78861 0.44911 0.0
N358 N 0.72363 0.74134 0.55307 0.0
N359 N 0.71922 0.75902 0.38151 0.0
H360 H 0.75183 0.848 0.4501 0.0
H361 H 0.73611 0.83197 0.40131 0.0
H362 H 0.70651 0.7374 0.36232 0.0
H363 H 0.73442 0.78121 0.3654 0.0
H364 H 0.71621 0.71466 0.56738 0.0
H365 H 0.73916 0.76047 0.57281 0.0
H366 H 0.6685 0.68855 0.53519 0.0
H367 H 0.66099 0.66866 0.48579 0.0
C368 C 0.30577 0.98311 0.02553 0.0
C369 C 0.29408 0.02258 0.01636 0.0
C370 C 0.28458 0.0053 0.94295 0.0
C371 C 0.29428 0.96547 0.95261 0.0
N372 N 0.30737 0.9145 0.00327 0.0
N373 N 0.26782 0.07101 0.96819 0.0
C374 C 0.30308 0.95381 -0.00602 0.0
C375 C 0.28196 0.03358 0.97559 0.0
N376 N 0.31978 0.97375 0.06432 0.0
N377 N 0.2793 0.01627 0.90238 0.0
H378 H 0.26717 0.09307 -0.00918 0.0
H379 H 0.25439 0.07973 0.9404 0.0
H380 H 0.28028 0.99614 0.87783 0.0
H381 H 0.27665 0.04551 0.89255 0.0
H382 H 0.33331 0.9468 0.07167 0.0
H383 H 0.32017 0.99386 0.08889 0.0
H384 H 0.30963 0.90348 0.03338 0.0
H385 H 0.30533 0.89227 0.98089 0.0
C386 C 0.18553 0.99588 0.52276 0.0
C387 C 0.20083 0.95754 0.51402 0.0
C388 C 0.21568 0.97744 0.44235 0.0
C389 C 0.19879 0.01521 0.45066 0.0
N390 N 0.16012 0.05804 0.4957 0.0
N391 N 0.22235 0.90893 0.46372 0.0
C392 C 0.18112 0.0236 0.48986 0.0
C393 C 0.21369 0.94747 0.47328 0.0
N394 N 0.17734 0.00654 0.56288 0.0
N395 N 0.23386 0.97032 0.40494 0.0
H396 H 0.22085 0.88601 0.48538 0.0
H397 H 0.22758 0.89894 0.43361 0.0
H398 H 0.23338 0.99055 0.38043 0.0
H399 H 0.25123 0.94526 0.39887 0.0
H400 H 0.17052 0.03539 0.57184 0.0
H401 H 0.18089 0.98734 0.58801 0.0
H402 H 0.14292 0.06384 0.52208 0.0
H403 H 0.15695 0.07958 0.47275 0.0
C404 C 0.7811 0.99425 0.94682 0.0
C405 C 0.76448 0.96082 0.96768 0.0
C406 C 0.75241 0.00109 0.02997 0.0
C407 C 0.76669 0.03482 0.00828 0.0
N408 N 0.79329 0.06525 0.94643 0.0
N409 N 0.73117 0.93246 0.02758 0.0
C410 C 0.78108 0.0318 0.96691 0.0
C411 C 0.74916 0.96428 0.00881 0.0
N412 N 0.79644 0.9901 0.90758 0.0
N413 N 0.74357 0.00404 0.07139 0.0
H414 H 0.73047 0.90425 0.0146 0.0
H415 H 0.71478 0.93425 0.05508 0.0
H416 H 0.74564 0.03056 0.08788 0.0
H417 H 0.73733 0.9799 0.09045 0.0
H418 H 0.81354 0.01159 0.89247 0.0
H419 H 0.79321 0.9644 0.88999 0.0
H420 H 0.79961 0.06655 0.91485 0.0
H421 H 0.79566 0.09274 0.96089 0.0
C422 C 0.73698 0.01102 0.44516 0.0
C423 C 0.75456 0.04338 0.46691 0.0
C424 C 0.76702 0.00088 0.52746 0.0
C425 C 0.75079 0.96826 0.50519 0.0
N426 N 0.72489 0.94017 0.44173 0.0
N427 N 0.79134 0.06863 0.5261 0.0
C428 C 0.73684 0.97279 0.46376 0.0
C429 C 0.7713 0.0381 0.5072 0.0
N430 N 0.72046 0.0169 0.40663 0.0
N431 N 0.77644 0.9967 0.56864 0.0
H432 H 0.79331 0.09695 0.51343 0.0
H433 H 0.8084 0.06543 0.5531 0.0
H434 H 0.77377 0.96992 0.58456 0.0
H435 H 0.78393 0.02021 0.58807 0.0
H436 H 0.70249 0.9962 0.39135 0.0
H437 H 0.7233 0.04336 0.39018 0.0
H438 H 0.71883 0.94029 0.41002 0.0
H439 H 0.72341 0.91193 0.45466 0.0
C440 C 0.79728 0.51153 0.94694 0.0
C441 C 0.79791 0.4711 0.95875 0.0
C442 C 0.80304 0.48965 0.0322 0.0
C443 C 0.79934 0.53 0.02059 0.0
N444 N 0.78862 0.57995 0.96812 0.0
N445 N 0.79693 0.42071 0.01181 0.0
C446 C 0.79523 0.54114 0.97825 0.0
C447 C 0.79959 0.45986 0.0012 0.0
N448 N 0.7993 0.52152 0.9058 0.0
N449 N 0.81025 0.47994 0.07281 0.0
H450 H 0.7954 0.39805 -0.01013 0.0
H451 H 0.79355 0.41061 0.04215 0.0
H452 H 0.81127 0.50089 0.09659 0.0
H453 H 0.81774 0.45156 0.08277 0.0
H454 H 0.80347 0.55033 0.89514 0.0
H455 H 0.79956 0.50056 0.88201 0.0
H456 H 0.78098 0.5896 0.93842 0.0
H457 H 0.78813 0.60262 -0.00991 0.0
C458 C 0.69736 0.51388 0.53039 0.0
C459 C 0.70923 0.47451 0.52107 0.0
C460 C 0.71935 0.49236 0.44791 0.0
C461 C 0.70983 0.53217 0.45781 0.0
N462 N 0.69556 0.58267 0.50855 0.0
N463 N 0.73548 0.42634 0.47272 0.0
C464 C 0.7003 0.54345 0.49909 0.0
C465 C 0.72153 0.46379 0.48031 0.0
N466 N 0.68306 0.52289 0.56912 0.0
N467 N 0.72494 0.48173 0.40731 0.0
H468 H 0.73568 0.40401 0.4951 0.0
H469 H 0.74914 0.4178 0.44503 0.0
H470 H 0.72423 0.50207 0.3829 0.0
H471 H 0.72752 0.45257 0.39725 0.0
H472 H 0.66947 0.54976 0.57659 0.0
H473 H 0.6825 0.50256 0.59351 0.0
H474 H 0.69282 0.59347 0.53868 0.0
H475 H 0.69749 0.60507 0.48633 0.0
C476 C 0.24321 0.50028 0.02638 0.0
C477 C 0.25923 0.53277 0.00368 0.0
C478 C 0.27202 0.48981 0.94365 0.0
C479 C 0.25638 0.45718 0.96645 0.0
N480 N 0.22287 0.43118 0.02719 0.0
N481 N 0.293 0.55873 0.94314 0.0
C482 C 0.2407 0.46239 0.00717 0.0
C483 C 0.27485 0.52759 0.96299 0.0
N484 N 0.23269 0.50529 0.06718 0.0
N485 N 0.28178 0.4851 0.90262 0.0
H486 H 0.29372 0.58732 0.95527 0.0
H487 H 0.30947 0.55612 0.91577 0.0
H488 H 0.2796 0.45807 0.88715 0.0
H489 H 0.28907 0.50827 0.88269 0.0
H490 H 0.225 0.48232 0.0872 0.0
H491 H 0.23426 0.53249 0.08241 0.0
H492 H 0.20644 0.43367 0.05459 0.0
H493 H 0.2225 0.40252 0.0153 0.0
C494 C 0.24629 0.49198 0.44005 0.0
C495 C 0.25145 0.52685 0.46407 0.0
C496 C 0.25426 0.48737 0.52787 0.0
C497 C 0.25101 0.45246 0.50368 0.0
N498 N 0.25223 0.42045 0.43687 0.0
N499 N 0.26842 0.55776 0.52938 0.0
C500 C 0.24942 0.45442 0.45974 0.0
C501 C 0.25796 0.52456 0.50759 0.0
N502 N 0.23822 0.49479 0.39848 0.0
N503 N 0.25297 0.48499 0.57026 0.0
H504 H 0.2714 0.5855 0.5156 0.0
H505 H 0.2776 0.55734 0.56032 0.0
H506 H 0.25159 0.45813 0.58618 0.0
H507 H 0.25042 0.50955 0.58962 0.0
H508 H 0.22945 0.47084 0.38022 0.0
H509 H 0.23793 0.52166 0.3825 0.0
H510 H 0.25533 0.42001 0.4047 0.0
H511 H 0.25512 0.39256 0.45041 0.0
C512 C 0.54077 0.15251 0.05016 0.0
C513 C 0.57028 0.13371 0.07542 0.0
C514 C 0.51662 0.09711 0.11128 0.0
C515 C 0.48718 0.12072 0.09087 0.0
N516 N 0.4713 0.17447 0.04396 0.0
N517 N 0.58633 0.09131 0.13369 0.0
C518 C 0.49915 0.14911 0.06072 0.0
C519 C 0.55833 0.10647 0.1067 0.0
N520 N 0.55253 0.17303 0.01561 0.0
N521 N 0.5047 0.06526 0.13447 0.0
H522 H 0.61715 0.09776 0.13205 0.0
H523 H 0.57857 0.07499 0.15997 0.0
H524 H 0.47437 0.05719 0.13787 0.0
H525 H 0.5249 0.04464 0.14673 0.0
H526 H 0.5322 0.18405 -0.00629 0.0
H527 H 0.58278 0.17554 0.00661 0.0
H528 H 0.47916 0.19866 0.02558 0.0
H529 H 0.44055 0.17354 0.05113 0.0
C530 C 0.9445 0.87731 0.62282 0.0
C531 C 0.93234 0.85457 0.58789 0.0
C532 C 1.00312 0.83802 0.57322 0.0
C533 C 0.01548 0.86265 0.60666 0.0
N534 N 0.9989 0.9125 0.65745 0.0
N535 N 0.95004 0.8211 0.52434 0.0
C536 C 0.98643 0.88438 0.62971 0.0
C537 C 0.96169 0.83733 0.56138 0.0
N538 N 0.91628 0.89044 0.65064 0.0
N539 N 0.03043 0.8136 0.55421 0.0
H540 H 0.91997 0.82061 0.51437 0.0
H541 H 0.97049 0.81175 0.50178 0.0
H542 H 0.06097 0.8124 0.56237 0.0
H543 H 0.02215 0.79185 0.53291 0.0
H544 H 0.92379 0.90317 0.67908 0.0
H545 H 0.88528 0.8857 0.64705 0.0
H546 H 0.97919 0.93213 0.67202 0.0
H547 H 0.02938 0.91878 0.66293 0.0
C548 C 0.51908 0.88047 0.85135 0.0
C549 C 0.48897 0.86732 0.87953 0.0
C550 C 0.54176 0.85015 0.93007 0.0
C551 C 0.57167 0.8576 0.89947 0.0
N552 N 0.5887 0.87514 0.82878 0.0
N553 N 0.47126 0.8358 0.9444 0.0
C554 C 0.56042 0.87192 0.85961 0.0
C555 C 0.50012 0.85153 0.91881 0.0
N556 N 0.50817 0.90186 0.81705 0.0
N557 N 0.55323 0.84243 0.97008 0.0
H558 H 0.44045 0.83591 0.93733 0.0
H559 H 0.47809 0.81979 0.97116 0.0
H560 H 0.58351 0.8415 0.97935 0.0
H561 H 0.53289 0.8407 -0.00529 0.0
H562 H 0.52902 0.91568 0.79759 0.0
H563 H 0.47815 0.90919 0.8104 0.0
H564 H 0.58131 0.88093 0.79791 0.0
H565 H 0.61929 0.8687 0.83307 0.0
C566 C 0.00911 0.13476 0.41123 0.0
C567 C 0.02461 0.13859 0.37027 0.0
C568 C 0.95644 0.15269 0.34381 0.0
C569 C 0.94087 0.14795 0.38454 0.0
N570 N 0.95007 0.12682 0.45538 0.0
N571 N 0.01238 0.14168 0.29648 0.0
C572 C 0.9665 0.13629 0.4177 0.0
C573 C 0.99804 0.14479 0.33619 0.0
N574 N 0.03514 0.13208 0.44419 0.0
N575 N 0.93157 0.16544 0.31254 0.0
H576 H 0.04251 0.135 0.28974 0.0
H577 H 0.99387 0.14194 0.27028 0.0
H578 H 0.90046 0.16936 0.31636 0.0
H579 H 0.94204 0.17428 0.28349 0.0
H580 H 0.02592 0.13375 0.47505 0.0
H581 H 0.06654 0.13131 0.44092 0.0
H582 H 0.96654 0.11411 0.47954 0.0
H583 H 0.91908 0.12863 0.4614 0.0
C584 C 0.06247 0.6203 0.11859 0.0
C585 C 0.07348 0.63991 0.08124 0.0
C586 C 1.00187 0.65052 0.06445 0.0
C587 C 0.99083 0.62927 0.1008 0.0
N588 N 0.00998 0.58612 0.15714 0.0
N589 N 0.05425 0.66527 0.01407 0.0
C590 C 0.02099 0.6117 0.12622 0.0
C591 C 0.0433 0.65238 0.05273 0.0
N592 N 0.09123 0.61184 0.14788 0.0
N593 N 0.97319 0.67084 0.04238 0.0
H594 H 0.08434 0.66655 0.00429 0.0
H595 H 0.03348 0.67093 -0.00957 0.0
H596 H 0.94254 0.67083 0.05005 0.0
H597 H 0.98021 0.69051 0.01852 0.0
H598 H 0.08429 0.60181 0.17763 0.0
H599 H 0.12192 0.61794 0.1439 0.0
H600 H 0.0307 0.56925 0.17396 0.0
H601 H 0.97986 0.57882 0.16326 0.0
C602 C 0.49002 0.37212 0.62023 0.0
C603 C 0.52004 0.36122 0.59094 0.0
C604 C 0.46687 0.34249 0.54143 0.0
C605 C 0.43739 0.34783 0.57297 0.0
N606 N 0.42162 0.36207 0.64477 0.0
N607 N 0.53763 0.3318 0.52503 0.0
C608 C 0.44904 0.36146 0.61296 0.0
C609 C 0.50868 0.3456 0.55167 0.0
N610 N 0.50057 0.39352 0.65462 0.0
N611 N 0.45484 0.33534 0.50149 0.0
H612 H 0.56856 0.33329 0.53135 0.0
H613 H 0.53091 0.31599 0.49813 0.0
H614 H 0.42445 0.3333 0.49285 0.0
H615 H 0.47469 0.33518 0.47638 0.0
H616 H 0.47944 0.40574 0.6749 0.0
H617 H 0.53023 0.40259 0.66054 0.0
H618 H 0.42967 0.36742 0.67555 0.0
H619 H 0.39144 0.35362 0.64134 0.0
C620 C 0.03549 0.34343 0.91609 0.0
C621 C 0.06565 0.35648 0.88792 0.0
C622 C 0.01327 0.38691 0.84428 0.0
C623 C 0.98304 0.36895 0.86926 0.0
N624 N 0.96525 0.32538 0.92599 0.0
N625 N 0.08344 0.38676 0.82243 0.0
C626 C 0.99403 0.34621 0.90464 0.0
C627 C 0.05469 0.37755 0.85141 0.0
N628 N 0.0465 0.32912 0.9542 0.0
N629 N 1.00241 0.41359 0.81433 0.0
H630 H 0.11408 0.38028 0.8262 0.0
H631 H 0.07652 0.39794 0.79312 0.0
H632 H 0.97236 0.4214 0.80856 0.0
H633 H 0.02324 0.43073 0.79799 0.0
H634 H 0.02579 0.32293 0.9777 0.0
H635 H 0.07662 0.32716 0.96381 0.0
H636 H 0.9722 0.30478 0.94901 0.0
H637 H 0.93457 0.32588 0.91838 0.0
C638 C 0.48925 0.6193 0.3497 0.0
C639 C 0.51886 0.6325 0.37847 0.0
C640 C 0.46527 0.64879 0.4283 0.0
C641 C 0.4358 0.64096 0.39729 0.0
N642 N 0.4198 0.62395 0.3262 0.0
N643 N 0.5354 0.66413 0.4436 0.0
C644 C 0.44771 0.62725 0.35744 0.0
C645 C 0.50704 0.64807 0.41759 0.0
N646 N 0.50081 0.59834 0.31539 0.0
N647 N 0.45331 0.6561 0.4682 0.0
H648 H 0.56627 0.66452 0.43692 0.0
H649 H 0.52805 0.67997 0.47029 0.0
H650 H 0.42295 0.65654 0.47714 0.0
H651 H 0.47341 0.65801 0.49309 0.0
H652 H 0.48034 0.58444 0.29552 0.0
H653 H 0.53097 0.59144 0.30906 0.0
H654 H 0.4276 0.61853 0.29539 0.0
H655 H 0.3891 0.63004 0.33011 0.0
C656 C 0.26806 0.04342 0.21248 0.0
C657 C 0.2961 0.07461 0.20657 0.0
C658 C 0.26296 0.11369 0.2597 0.0
C659 C 0.23652 0.08153 0.26872 0.0
N660 N 0.22025 0.01228 0.25954 0.0
N661 N 0.32838 0.13314 0.23347 0.0
C662 C 0.24089 0.04516 0.24689 0.0
C663 C 0.29659 0.10724 0.2338 0.0
N664 N 0.26673 0.01293 0.18474 0.0
N665 N 0.25409 0.15137 0.27237 0.0
H666 H 0.35358 0.12919 0.21437 0.0
H667 H 0.33146 0.15582 0.25522 0.0
H668 H 0.22689 0.15912 0.28661 0.0
H669 H 0.2711 0.17594 0.26342 0.0
H670 H 0.24404 0.99148 0.18477 0.0
H671 H 0.28746 0.01049 0.16042 0.0
H672 H 0.22489 0.98434 0.24671 0.0
H673 H 0.20138 0.0122 0.28548 0.0
C674 C 0.26633 0.94252 0.7516 0.0
C675 C 0.28953 0.9087 0.76224 0.0
C676 C 0.24909 0.86788 0.71609 0.0
C677 C 0.22817 0.90196 0.70171 0.0
N678 N 0.22154 0.97317 0.70089 0.0
N679 N 0.31138 0.84271 0.74463 0.0
C680 C 0.23804 0.9399 0.71803 0.0
C681 C 0.28381 0.87269 0.74081 0.0
N682 N 0.27053 0.97647 0.77414 0.0
N683 N 0.2343 0.83069 0.70869 0.0
H684 H 0.33785 0.84554 0.76215 0.0
H685 H 0.31004 0.81698 0.72678 0.0
H686 H 0.20647 0.82548 0.69434 0.0
H687 H 0.24701 0.80529 0.72171 0.0
H688 H 0.25146 0.00084 0.77077 0.0
H689 H 0.29197 0.97923 0.79782 0.0
H690 H 0.23041 0.0017 0.70915 0.0
H691 H 0.20131 0.97217 0.67602 0.0
C692 C 0.74003 0.84651 0.75692 0.0
C693 C 0.74996 0.88142 0.77921 0.0
C694 C 0.75383 0.91909 0.71424 0.0
C695 C 0.74686 0.8835 0.69203 0.0
N696 N 0.74091 0.81212 0.69119 0.0
N697 N 0.76964 0.95001 0.78059 0.0
C698 C 0.74181 0.8469 0.71307 0.0
C699 C 0.75783 0.91757 0.7583 0.0
N700 N 0.72865 0.81289 0.77766 0.0
N701 N 0.75577 0.95418 0.69316 0.0
H702 H 0.77155 0.94987 0.81295 0.0
H703 H 0.77963 0.9763 0.7672 0.0
H704 H 0.75325 0.95585 0.66089 0.0
H705 H 0.75722 0.98174 0.70751 0.0
H706 H 0.71579 0.78842 0.76304 0.0
H707 H 0.72923 0.81014 0.80991 0.0
H708 H 0.74257 0.7843 0.70505 0.0
H709 H 0.74207 0.81064 0.65886 0.0
C710 C 0.75785 0.08751 0.26169 0.0
C711 C 0.74716 0.12352 0.28147 0.0
C712 C 0.73085 0.15355 0.21441 0.0
C713 C 0.74555 0.11907 0.19427 0.0
N714 N 0.7754 0.05413 0.19724 0.0
N715 N 0.73107 0.19327 0.27668 0.0
C716 C 0.75968 0.08617 0.21749 0.0
C717 C 0.73529 0.1571 0.25791 0.0
N718 N 0.76542 0.05462 0.28521 0.0
N719 N 0.71305 0.18329 0.19196 0.0
H720 H 0.73504 0.19791 0.30843 0.0
H721 H 0.7275 0.21965 0.26032 0.0
H722 H 0.71143 0.18362 0.15963 0.0
H723 H 0.69703 0.20644 0.20558 0.0
H724 H 0.76981 0.02649 0.27284 0.0
H725 H 0.7644 0.05497 0.31761 0.0
H726 H 0.79015 0.03089 0.21215 0.0
H727 H 0.77547 0.05178 0.16491 0.0
C728 C 0.74153 0.55294 0.25619 0.0
C729 C 0.72233 0.58874 0.26812 0.0
C730 C 0.76725 0.62636 0.22328 0.0
C731 C 0.78357 0.59072 0.20726 0.0
N732 N 0.78277 0.51936 0.20443 0.0
N733 N 0.70857 0.65749 0.253 0.0
C734 C 0.76985 0.55359 0.22259 0.0
C735 C 0.7325 0.62475 0.24831 0.0
N736 N 0.7336 0.51889 0.27752 0.0
N737 N 0.786 0.66185 0.21615 0.0
H738 H 0.68167 0.6571 0.26999 0.0
H739 H 0.71307 0.6835 0.23616 0.0
H740 H 0.81349 0.66426 0.20038 0.0
H741 H 0.7769 0.68813 0.23032 0.0
H742 H 0.74967 0.4927 0.27308 0.0
H743 H 0.71234 0.51767 0.30145 0.0
H744 H 0.77088 0.49164 0.21167 0.0
H745 H 0.8035 0.51908 0.18001 0.0
C746 C 0.73522 0.45153 0.71929 0.0
C747 C 0.70985 0.41864 0.71106 0.0
C748 C 0.74668 0.37886 0.76107 0.0
C749 C 0.77003 0.41242 0.77286 0.0
N750 N 0.7808 0.48309 0.7685 0.0
N751 N 0.68306 0.35585 0.73341 0.0
C752 C 0.7627 0.44967 0.75357 0.0
C753 C 0.7125 0.38422 0.73564 0.0
N754 N 0.73379 0.48383 0.69386 0.0
N755 N 0.75895 0.34132 0.77098 0.0
H756 H 0.65736 0.35903 0.71478 0.0
H757 H 0.68223 0.3315 0.75334 0.0
H758 H 0.78668 0.33509 0.78504 0.0
H759 H 0.74429 0.31606 0.75999 0.0
H760 H 0.75453 0.50702 0.69554 0.0
H761 H 0.71282 0.48617 0.66967 0.0
H762 H 0.77384 0.51138 0.75773 0.0
H763 H 0.80009 0.48285 0.79416 0.0
C764 C 0.25371 0.33646 0.71499 0.0
C765 C 0.25391 0.37295 0.69317 0.0
C766 C 0.25655 0.40952 0.75885 0.0
C767 C 0.25308 0.37307 0.7804 0.0
N768 N 0.24201 0.3023 0.77985 0.0
N769 N 0.25241 0.44416 0.69267 0.0
C770 C 0.2499 0.33666 0.75871 0.0
C771 C 0.25455 0.40959 0.71462 0.0
N772 N 0.25836 0.3015 0.69396 0.0
N773 N 0.26237 0.44372 0.78072 0.0
H774 H 0.25184 0.44483 0.66029 0.0
H775 H 0.2489 0.4719 0.70624 0.0
H776 H 0.26291 0.4444 0.81312 0.0
H777 H 0.26895 0.47089 0.76708 0.0
H778 H 0.26357 0.27446 0.70856 0.0
H779 H 0.26044 0.29965 0.66169 0.0
H780 H 0.23415 0.27585 0.76533 0.0
H781 H 0.2401 0.30063 0.81214 0.0
C782 C 0.26107 0.64865 0.25636 0.0
C783 C 0.2571 0.6117 0.27696 0.0
C784 C 0.25859 0.57679 0.21028 0.0
C785 C 0.25941 0.61396 0.18983 0.0
N786 N 0.25508 0.68537 0.19221 0.0
N787 N 0.24881 0.54095 0.27512 0.0
C788 C 0.25901 0.64992 0.21254 0.0
C789 C 0.25496 0.57574 0.25438 0.0
N790 N 0.26757 0.68256 0.27873 0.0
N791 N 0.26203 0.54281 0.18754 0.0
H792 H 0.24716 0.53945 0.30744 0.0
H793 H 0.24312 0.51404 0.26053 0.0
H794 H 0.26421 0.54295 0.1552 0.0
H795 H 0.26528 0.51477 0.20053 0.0
H796 H 0.27597 0.70939 0.26533 0.0
H797 H 0.26765 0.68355 0.31111 0.0
H798 H 0.24927 0.71206 0.20721 0.0
H799 H 0.25437 0.68802 0.15993 0.0
loop_
_geom_bond_atom_site_label_1
_geom_bond_atom_site_label_2
_geom_bond_distance
_geom_bond_site_symmetry_2
_ccdc_geom_bond_type
Mg0 O1 2.028 . S
Mg0 O7 1.986 . S
Mg0 O9 2.114 . S
Mg0 O10 2.251 . S
Mg0 O13 2.010 . S
O1 Mg0 2.028 . S
O1 C4 1.250 . S
O2 Mg3 2.028 . S
O2 C4 1.248 . S
Mg3 O2 2.028 . S
Mg3 O8 2.032 . S
Mg3 O10 2.079 . S
C4 O1 1.250 . S
C4 O2 1.248 . S
C5 O6 1.264 . S
C5 O13 1.249 . S
O6 C5 1.264 . S
O7 Mg0 1.986 . S
O7 C11 1.246 . S
O8 Mg3 2.032 . S
O8 C11 1.259 . S
O9 Mg0 2.114 . S
O9 C12 1.252 . S
O10 Mg0 2.251 . S
O10 Mg3 2.079 . S
O10 C12 1.273 . S
C11 O7 1.246 . S
C11 O8 1.259 . S
C12 O9 1.252 . S
C12 O10 1.273 . S
O13 Mg0 2.010 . S
O13 C5 1.249 . S
Mg14 O15 2.028 . S
Mg14 O21 1.986 . S
Mg14 O23 2.114 . S
Mg14 O24 2.251 . S
Mg14 O27 2.010 . S
O15 Mg14 2.028 . S
O15 C18 1.250 . S
O16 Mg17 2.028 . S
O16 C18 1.248 . S
Mg17 O16 2.028 . S
Mg17 O22 2.032 . S
Mg17 O24 2.079 . S
C18 O15 1.250 . S
C18 O16 1.248 . S
C19 O20 1.264 . S
C19 O27 1.249 . S
O20 C19 1.264 . S
O21 Mg14 1.986 . S
O21 C25 1.246 . S
O22 Mg17 2.032 . S
O22 C25 1.259 . S
O23 Mg14 2.114 . S
O23 C26 1.252 . S
O24 Mg14 2.251 . S
O24 Mg17 2.079 . S
O24 C26 1.273 . S
C25 O21 1.246 . S
C25 O22 1.259 . S
C26 O23 1.252 . S
C26 O24 1.273 . S
O27 Mg14 2.010 . S
O27 C19 1.249 . S
Mg28 O29 2.028 . S
Mg28 O35 1.986 . S
Mg28 O37 2.114 . S
Mg28 O38 2.251 . S
Mg28 O41 2.010 . S
O29 Mg28 2.028 . S
O29 C32 1.250 . S
O30 Mg31 2.028 . S
O30 C32 1.248 . S
Mg31 O30 2.028 . S
Mg31 O36 2.032 . S
Mg31 O38 2.079 . S
C32 O29 1.250 . S
C32 O30 1.248 . S
C33 O34 1.264 . S
C33 O41 1.249 . S
O34 C33 1.264 . S
O35 Mg28 1.986 . S
O35 C39 1.246 . S
O36 Mg31 2.032 . S
O36 C39 1.259 . S
O37 Mg28 2.114 . S
O37 C40 1.252 . S
O38 Mg28 2.251 . S
O38 Mg31 2.079 . S
O38 C40 1.273 . S
C39 O35 1.246 . S
C39 O36 1.259 . S
C40 O37 1.252 . S
C40 O38 1.273 . S
O41 Mg28 2.010 . S
O41 C33 1.249 . S
Mg42 O43 2.028 . S
Mg42 O49 1.986 . S
Mg42 O51 2.114 . S
Mg42 O52 2.251 . S
Mg42 O55 2.010 . S
O43 Mg42 2.028 . S
O43 C46 1.250 . S
O44 Mg45 2.028 . S
O44 C46 1.248 . S
Mg45 O44 2.028 . S
Mg45 O50 2.032 . S
Mg45 O52 2.079 . S
C46 O43 1.250 . S
C46 O44 1.248 . S
C47 O48 1.264 . S
C47 O55 1.249 . S
O48 C47 1.264 . S
O49 Mg42 1.986 . S
O49 C53 1.246 . S
O50 Mg45 2.032 . S
O50 C53 1.259 . S
O51 Mg42 2.114 . S
O51 C54 1.252 . S
O52 Mg42 2.251 . S
O52 Mg45 2.079 . S
O52 C54 1.273 . S
C53 O49 1.246 . S
C53 O50 1.259 . S
C54 O51 1.252 . S
C54 O52 1.273 . S
O55 Mg42 2.010 . S
O55 C47 1.249 . S
Mg56 O57 2.028 . S
Mg56 O63 1.986 . S
Mg56 O65 2.114 . S
Mg56 O66 2.251 . S
Mg56 O69 2.010 . S
O57 Mg56 2.028 . S
O57 C60 1.250 . S
O58 Mg59 2.028 . S
O58 C60 1.248 . S
Mg59 O58 2.028 . S
Mg59 O64 2.032 . S
Mg59 O66 2.079 . S
C60 O57 1.250 . S
C60 O58 1.248 . S
C61 O62 1.264 . S
C61 O69 1.249 . S
O62 C61 1.264 . S
O63 Mg56 1.986 . S
O63 C67 1.246 . S
O64 Mg59 2.032 . S
O64 C67 1.259 . S
O65 Mg56 2.114 . S
O65 C68 1.252 . S
O66 Mg56 2.251 . S
O66 Mg59 2.079 . S
O66 C68 1.273 . S
C67 O63 1.246 . S
C67 O64 1.259 . S
C68 O65 1.252 . S
C68 O66 1.273 . S
O69 Mg56 2.010 . S
O69 C61 1.249 . S
Mg70 O71 2.028 . S
Mg70 O77 1.986 . S
Mg70 O79 2.114 . S
Mg70 O80 2.251 . S
Mg70 O83 2.010 . S
O71 Mg70 2.028 . S
O71 C74 1.250 . S
O72 Mg73 2.028 . S
O72 C74 1.248 . S
Mg73 O72 2.028 . S
Mg73 O78 2.032 . S
Mg73 O80 2.079 . S
C74 O71 1.250 . S
C74 O72 1.248 . S
C75 O76 1.264 . S
C75 O83 1.249 . S
O76 C75 1.264 . S
O77 Mg70 1.986 . S
O77 C81 1.246 . S
O78 Mg73 2.032 . S
O78 C81 1.259 . S
O79 Mg70 2.114 . S
O79 C82 1.252 . S
O80 Mg70 2.251 . S
O80 Mg73 2.079 . S
O80 C82 1.273 . S
C81 O77 1.246 . S
C81 O78 1.259 . S
C82 O79 1.252 . S
C82 O80 1.273 . S
O83 Mg70 2.010 . S
O83 C75 1.249 . S
Mg84 O85 2.028 . S
Mg84 O91 1.986 . S
Mg84 O93 2.114 . S
Mg84 O94 2.251 . S
Mg84 O97 2.010 . S
O85 Mg84 2.028 . S
O85 C88 1.250 . S
O86 Mg87 2.028 . S
O86 C88 1.248 . S
Mg87 O86 2.028 . S
Mg87 O92 2.032 . S
Mg87 O94 2.079 . S
C88 O85 1.250 . S
C88 O86 1.248 . S
C89 O90 1.264 . S
C89 O97 1.249 . S
O90 C89 1.264 . S
O91 Mg84 1.986 . S
O91 C95 1.246 . S
O92 Mg87 2.032 . S
O92 C95 1.259 . S
O93 Mg84 2.114 . S
O93 C96 1.252 . S
O94 Mg84 2.251 . S
O94 Mg87 2.079 . S
O94 C96 1.273 . S
C95 O91 1.246 . S
C95 O92 1.259 . S
C96 O93 1.252 . S
C96 O94 1.273 . S
O97 Mg84 2.010 . S
O97 C89 1.249 . S
Mg98 O99 2.028 . S
Mg98 O105 1.986 . S
Mg98 O107 2.114 . S
Mg98 O108 2.251 . S
Mg98 O111 2.010 . S
O99 Mg98 2.028 . S
O99 C102 1.250 . S
O100 Mg101 2.028 . S
O100 C102 1.248 . S
Mg101 O100 2.028 . S
Mg101 O106 2.032 . S
Mg101 O108 2.079 . S
C102 O99 1.250 . S
C102 O100 1.248 . S
C103 O104 1.264 . S
C103 O111 1.249 . S
O104 C103 1.264 . S
O105 Mg98 1.986 . S
O105 C109 1.246 . S
O106 Mg101 2.032 . S
O106 C109 1.259 . S
O107 Mg98 2.114 . S
O107 C110 1.252 . S
O108 Mg98 2.251 . S
O108 Mg101 2.079 . S
O108 C110 1.273 . S
C109 O105 1.246 . S
C109 O106 1.259 . S
C110 O107 1.252 . S
C110 O108 1.273 . S
O111 Mg98 2.010 . S
O111 C103 1.249 . S
Mg112 O113 2.028 . S
Mg112 O119 1.986 . S
Mg112 O121 2.114 . S
Mg112 O122 2.251 . S
Mg112 O125 2.010 . S
O113 Mg112 2.028 . S
O113 C116 1.250 . S
O114 Mg115 2.028 . S
O114 C116 1.248 . S
Mg115 O114 2.028 . S
Mg115 O120 2.032 . S
Mg115 O122 2.079 . S
C116 O113 1.250 . S
C116 O114 1.248 . S
C117 O118 1.264 . S
C117 O125 1.249 . S
O118 C117 1.264 . S
O119 Mg112 1.986 . S
O119 C123 1.246 . S
O120 Mg115 2.032 . S
O120 C123 1.259 . S
O121 Mg112 2.114 . S
O121 C124 1.252 . S
O122 Mg112 2.251 . S
O122 Mg115 2.079 . S
O122 C124 1.273 . S
C123 O119 1.246 . S
C123 O120 1.259 . S
C124 O121 1.252 . S
C124 O122 1.273 . S
O125 Mg112 2.010 . S
O125 C117 1.249 . S
Mg126 O127 2.028 . S
Mg126 O133 1.986 . S
Mg126 O135 2.114 . S
Mg126 O136 2.251 . S
Mg126 O139 2.010 . S
O127 Mg126 2.028 . S
O127 C130 1.250 . S
O128 Mg129 2.028 . S
O128 C130 1.248 . S
Mg129 O128 2.028 . S
Mg129 O134 2.032 . S
Mg129 O136 2.079 . S
C130 O127 1.250 . S
C130 O128 1.248 . S
C131 O132 1.264 . S
C131 O139 1.249 . S
O132 C131 1.264 . S
O133 Mg126 1.986 . S
O133 C137 1.246 . S
O134 Mg129 2.032 . S
O134 C137 1.259 . S
O135 Mg126 2.114 . S
O135 C138 1.252 . S
O136 Mg126 2.251 . S
O136 Mg129 2.079 . S
O136 C138 1.273 . S
C137 O133 1.246 . S
C137 O134 1.259 . S
C138 O135 1.252 . S
C138 O136 1.273 . S
O139 Mg126 2.010 . S
O139 C131 1.249 . S
Mg140 O141 2.028 . S
Mg140 O147 1.986 . S
Mg140 O149 2.114 . S
Mg140 O150 2.251 . S
Mg140 O153 2.010 . S
O141 Mg140 2.028 . S
O141 C144 1.250 . S
O142 Mg143 2.028 . S
O142 C144 1.248 . S
Mg143 O142 2.028 . S
Mg143 O148 2.032 . S
Mg143 O150 2.079 . S
C144 O141 1.250 . S
C144 O142 1.248 . S
C145 O146 1.264 . S
C145 O153 1.249 . S
O146 C145 1.264 . S
O147 Mg140 1.986 . S
O147 C151 1.246 . S
O148 Mg143 2.032 . S
O148 C151 1.259 . S
O149 Mg140 2.114 . S
O149 C152 1.252 . S
O150 Mg140 2.251 . S
O150 Mg143 2.079 . S
O150 C152 1.273 . S
C151 O147 1.246 . S
C151 O148 1.259 . S
C152 O149 1.252 . S
C152 O150 1.273 . S
O153 Mg140 2.010 . S
O153 C145 1.249 . S
Mg154 O155 2.028 . S
Mg154 O161 1.986 . S
Mg154 O163 2.114 . S
Mg154 O164 2.251 . S
Mg154 O167 2.010 . S
O155 Mg154 2.028 . S
O155 C158 1.250 . S
O156 Mg157 2.028 . S
O156 C158 1.248 . S
Mg157 O156 2.028 . S
Mg157 O162 2.032 . S
Mg157 O164 2.079 . S
C158 O155 1.250 . S
C158 O156 1.248 . S
C159 O160 1.264 . S
C159 O167 1.249 . S
O160 C159 1.264 . S
O161 Mg154 1.986 . S
O161 C165 1.246 . S
O162 Mg157 2.032 . S
O162 C165 1.259 . S
O163 Mg154 2.114 . S
O163 C166 1.252 . S
O164 Mg154 2.251 . S
O164 Mg157 2.079 . S
O164 C166 1.273 . S
C165 O161 1.246 . S
C165 O162 1.259 . S
C166 O163 1.252 . S
C166 O164 1.273 . S
O167 Mg154 2.010 . S
O167 C159 1.249 . S
Mg168 O169 2.028 . S
Mg168 O175 1.986 . S
Mg168 O177 2.114 . S
Mg168 O178 2.251 . S
Mg168 O181 2.010 . S
O169 Mg168 2.028 . S
O169 C172 1.250 . S
O170 Mg171 2.028 . S
O170 C172 1.248 . S
Mg171 O170 2.028 . S
Mg171 O176 2.032 . S
Mg171 O178 2.079 . S
C172 O169 1.250 . S
C172 O170 1.248 . S
C173 O174 1.264 . S
C173 O181 1.249 . S
O174 C173 1.264 . S
O175 Mg168 1.986 . S
O175 C179 1.246 . S
O176 Mg171 2.032 . S
O176 C179 1.259 . S
O177 Mg168 2.114 . S
O177 C180 1.252 . S
O178 Mg168 2.251 . S
O178 Mg171 2.079 . S
O178 C180 1.273 . S
C179 O175 1.246 . S
C179 O176 1.259 . S
C180 O177 1.252 . S
C180 O178 1.273 . S
O181 Mg168 2.010 . S
O181 C173 1.249 . S
Mg182 O183 2.028 . S
Mg182 O189 1.986 . S
Mg182 O191 2.114 . S
Mg182 O192 2.251 . S
Mg182 O195 2.010 . S
O183 Mg182 2.028 . S
O183 C186 1.250 . S
O184 Mg185 2.028 . S
O184 C186 1.248 . S
Mg185 O184 2.028 . S
Mg185 O190 2.032 . S
Mg185 O192 2.079 . S
C186 O183 1.250 . S
C186 O184 1.248 . S
C187 O188 1.264 . S
C187 O195 1.249 . S
O188 C187 1.264 . S
O189 Mg182 1.986 . S
O189 C193 1.246 . S
O190 Mg185 2.032 . S
O190 C193 1.259 . S
O191 Mg182 2.114 . S
O191 C194 1.252 . S
O192 Mg182 2.251 . S
O192 Mg185 2.079 . S
O192 C194 1.273 . S
C193 O189 1.246 . S
C193 O190 1.259 . S
C194 O191 1.252 . S
C194 O192 1.273 . S
O195 Mg182 2.010 . S
O195 C187 1.249 . S
Mg196 O197 2.028 . S
Mg196 O203 1.986 . S
Mg196 O205 2.114 . S
Mg196 O206 2.251 . S
Mg196 O209 2.010 . S
O197 Mg196 2.028 . S
O197 C200 1.250 . S
O198 Mg199 2.028 . S
O198 C200 1.248 . S
Mg199 O198 2.028 . S
Mg199 O204 2.032 . S
Mg199 O206 2.079 . S
C200 O197 1.250 . S
C200 O198 1.248 . S
C201 O202 1.264 . S
C201 O209 1.249 . S
O202 C201 1.264 . S
O203 Mg196 1.986 . S
O203 C207 1.246 . S
O204 Mg199 2.032 . S
O204 C207 1.259 . S
O205 Mg196 2.114 . S
O205 C208 1.252 . S
O206 Mg196 2.251 . S
O206 Mg199 2.079 . S
O206 C208 1.273 . S
C207 O203 1.246 . S
C207 O204 1.259 . S
C208 O205 1.252 . S
C208 O206 1.273 . S
O209 Mg196 2.010 . S
O209 C201 1.249 . S
Mg210 O211 2.028 . S
Mg210 O217 1.986 . S
Mg210 O219 2.114 . S
Mg210 O220 2.251 . S
Mg210 O223 2.010 . S
O211 Mg210 2.028 . S
O211 C214 1.250 . S
O212 Mg213 2.028 . S
O212 C214 1.248 . S
Mg213 O212 2.028 . S
Mg213 O218 2.032 . S
Mg213 O220 2.079 . S
C214 O211 1.250 . S
C214 O212 1.248 . S
C215 O216 1.264 . S
C215 O223 1.249 . S
O216 C215 1.264 . S
O217 Mg210 1.986 . S
O217 C221 1.246 . S
O218 Mg213 2.032 . S
O218 C221 1.259 . S
O219 Mg210 2.114 . S
O219 C222 1.252 . S
O220 Mg210 2.251 . S
O220 Mg213 2.079 . S
O220 C222 1.273 . S
C221 O217 1.246 . S
C221 O218 1.259 . S
C222 O219 1.252 . S
C222 O220 1.273 . S
O223 Mg210 2.010 . S
O223 C215 1.249 . S
C224 C225 1.363 . S
C224 C230 1.379 . S
C224 N232 1.356 . S
C225 C224 1.363 . S
C225 C231 1.363 1_554 S
C226 C227 1.363 . S
C226 C231 1.379 . S
C226 N233 1.356 . S
C227 C226 1.363 . S
C227 C230 1.363 1_556 S
N228 C230 1.356 . S
N228 H240 0.984 . S
N228 H241 0.985 . S
N229 C231 1.356 . S
N229 H234 0.984 . S
N229 H235 0.985 . S
C230 C224 1.379 . S
C230 C227 1.363 1_554 S
C230 N228 1.356 . S
C231 C225 1.363 1_556 S
C231 C226 1.379 . S
C231 N229 1.356 . S
N232 C224 1.356 . S
N232 H238 0.984 . S
N232 H239 0.984 . S
N233 C226 1.356 . S
N233 H236 0.984 . S
N233 H237 0.985 . S
H234 N229 0.984 . S
H235 N229 0.985 . S
H236 N233 0.984 . S
H237 N233 0.985 . S
H238 N232 0.984 . S
H239 N232 0.984 . S
H240 N228 0.984 . S
H241 N228 0.985 . S
C242 C243 1.363 . S
C242 C248 1.379 . S
C242 N250 1.356 . S
C243 C242 1.363 . S
C243 C249 1.363 . S
C244 C245 1.363 . S
C244 C249 1.379 . S
C244 N251 1.356 . S
C245 C244 1.363 . S
C245 C248 1.363 . S
N246 C248 1.356 . S
N246 H258 0.984 . S
N246 H259 0.985 . S
N247 C249 1.356 . S
N247 H252 0.984 . S
N247 H253 0.985 . S
C248 C242 1.379 . S
C248 C245 1.363 . S
C248 N246 1.356 . S
C249 C243 1.363 . S
C249 C244 1.379 . S
C249 N247 1.356 . S
N250 C242 1.356 . S
N250 H256 0.984 . S
N250 H257 0.984 . S
N251 C244 1.356 . S
N251 H254 0.984 . S
N251 H255 0.985 . S
H252 N247 0.984 . S
H253 N247 0.985 . S
H254 N251 0.984 . S
H255 N251 0.985 . S
H256 N250 0.984 . S
H257 N250 0.984 . S
H258 N246 0.984 . S
H259 N246 0.985 . S
C260 C261 1.363 . S
C260 C266 1.379 . S
C260 N268 1.356 . S
C261 C260 1.363 . S
C261 C267 1.363 1_556 S
C262 C263 1.363 . S
C262 C267 1.379 . S
C262 N269 1.356 . S
C263 C262 1.363 . S
C263 C266 1.363 1_554 S
N264 C266 1.356 . S
N264 H276 0.984 . S
N264 H277 0.985 . S
N265 C267 1.356 . S
N265 H270 0.984 . S
N265 H271 0.985 . S
C266 C260 1.379 . S
C266 C263 1.363 1_556 S
C266 N264 1.356 . S
C267 C261 1.363 1_554 S
C267 C262 1.379 . S
C267 N265 1.356 . S
N268 C260 1.356 . S
N268 H274 0.984 . S
N268 H275 0.984 . S
N269 C262 1.356 . S
N269 H272 0.984 . S
N269 H273 0.985 . S
H270 N265 0.984 . S
H271 N265 0.985 . S
H272 N269 0.984 . S
H273 N269 0.985 . S
H274 N268 0.984 . S
H275 N268 0.984 . S
H276 N264 0.984 . S
H277 N264 0.985 . S
C278 C279 1.363 . S
C278 C284 1.379 . S
C278 N286 1.356 . S
C279 C278 1.363 . S
C279 C285 1.363 . S
C280 C281 1.363 . S
C280 C285 1.379 . S
C280 N287 1.356 . S
C281 C280 1.363 . S
C281 C284 1.363 . S
N282 C284 1.356 . S
N282 H294 0.984 . S
N282 H295 0.985 . S
N283 C285 1.356 . S
N283 H288 0.984 . S
N283 H289 0.985 . S
C284 C278 1.379 . S
C284 C281 1.363 . S
C284 N282 1.356 . S
C285 C279 1.363 . S
C285 C280 1.379 . S
C285 N283 1.356 . S
N286 C278 1.356 . S
N286 H292 0.984 . S
N286 H293 0.984 . S
N287 C280 1.356 . S
N287 H290 0.984 . S
N287 H291 0.985 . S
H288 N283 0.984 . S
H289 N283 0.985 . S
H290 N287 0.984 . S
H291 N287 0.985 . S
H292 N286 0.984 . S
H293 N286 0.984 . S
H294 N282 0.984 . S
H295 N282 0.985 . S
C296 C297 1.363 1_556 S
C296 C302 1.379 . S
C296 N304 1.356 . S
C297 C296 1.363 1_554 S
C297 C303 1.363 . S
C298 C299 1.363 1_554 S
C298 C303 1.379 . S
C298 N305 1.356 . S
C299 C298 1.363 1_556 S
C299 C302 1.363 . S
N300 C302 1.356 . S
N300 H312 0.984 . S
N300 H313 0.985 . S
N301 C303 1.356 . S
N301 H306 0.984 . S
N301 H307 0.985 . S
C302 C296 1.379 . S
C302 C299 1.363 . S
C302 N300 1.356 . S
C303 C297 1.363 . S
C303 C298 1.379 . S
C303 N301 1.356 . S
N304 C296 1.356 . S
N304 H310 0.984 . S
N304 H311 0.984 . S
N305 C298 1.356 . S
N305 H308 0.984 . S
N305 H309 0.985 . S
H306 N301 0.984 . S
H307 N301 0.985 . S
H308 N305 0.984 . S
H309 N305 0.985 . S
H310 N304 0.984 . S
H311 N304 0.984 . S
H312 N300 0.984 . S
H313 N300 0.985 . S
C314 C315 1.363 . S
C314 C320 1.379 . S
C314 N322 1.356 . S
C315 C314 1.363 . S
C315 C321 1.363 . S
C316 C317 1.363 . S
C316 C321 1.379 . S
C316 N323 1.356 . S
C317 C316 1.363 . S
C317 C320 1.363 . S
N318 C320 1.356 . S
N318 H330 0.984 . S
N318 H331 0.985 . S
N319 C321 1.356 . S
N319 H324 0.984 . S
N319 H325 0.985 . S
C320 C314 1.379 . S
C320 C317 1.363 . S
C320 N318 1.356 . S
C321 C315 1.363 . S
C321 C316 1.379 . S
C321 N319 1.356 . S
N322 C314 1.356 . S
N322 H328 0.984 . S
N322 H329 0.984 . S
N323 C316 1.356 . S
N323 H326 0.984 . S
N323 H327 0.985 . S
H324 N319 0.984 . S
H325 N319 0.985 . S
H326 N323 0.984 . S
H327 N323 0.985 . S
H328 N322 0.984 . S
H329 N322 0.984 . S
H330 N318 0.984 . S
H331 N318 0.985 . S
C332 C333 1.363 . S
C332 C338 1.379 . S
C332 N340 1.356 . S
C333 C332 1.363 . S
C333 C339 1.363 1_556 S
C334 C335 1.363 . S
C334 C339 1.379 . S
C334 N341 1.356 . S
C335 C334 1.363 . S
C335 C338 1.363 1_554 S
N336 C338 1.356 . S
N336 H348 0.984 . S
N336 H349 0.985 . S
N337 C339 1.356 . S
N337 H342 0.984 . S
N337 H343 0.985 . S
C338 C332 1.379 . S
C338 C335 1.363 1_556 S
C338 N336 1.356 . S
C339 C333 1.363 1_554 S
C339 C334 1.379 . S
C339 N337 1.356 . S
N340 C332 1.356 . S
N340 H346 0.984 . S
N340 H347 0.984 . S
N341 C334 1.356 . S
N341 H344 0.984 . S
N341 H345 0.985 . S
H342 N337 0.984 . S
H343 N337 0.985 . S
H344 N341 0.984 . S
H345 N341 0.985 . S
H346 N340 0.984 . S
H347 N340 0.984 . S
H348 N336 0.984 . S
H349 N336 0.985 . S
C350 C351 1.363 . S
C350 C356 1.379 . S
C350 N358 1.356 . S
C351 C350 1.363 . S
C351 C357 1.363 . S
C352 C353 1.363 . S
C352 C357 1.379 . S
C352 N359 1.356 . S
C353 C352 1.363 . S
C353 C356 1.363 . S
N354 C356 1.356 . S
N354 H366 0.984 . S
N354 H367 0.985 . S
N355 C357 1.356 . S
N355 H360 0.984 . S
N355 H361 0.985 . S
C356 C350 1.379 . S
C356 C353 1.363 . S
C356 N354 1.356 . S
C357 C351 1.363 . S
C357 C352 1.379 . S
C357 N355 1.356 . S
N358 C350 1.356 . S
N358 H364 0.984 . S
N358 H365 0.984 . S
N359 C352 1.356 . S
N359 H362 0.984 . S
N359 H363 0.985 . S
H360 N355 0.984 . S
H361 N355 0.985 . S
H362 N359 0.984 . S
H363 N359 0.985 . S
H364 N358 0.984 . S
H365 N358 0.984 . S
H366 N354 0.984 . S
H367 N354 0.985 . S
C368 C369 1.363 . S
C368 C374 1.379 1_544 S
C368 N376 1.356 . S
C369 C368 1.363 . S
C369 C375 1.363 . S
C370 C371 1.363 . S
C370 C375 1.379 1_566 S
C370 N377 1.356 . S
C371 C370 1.363 . S
C371 C374 1.363 . S
N372 C374 1.356 . S
N372 H384 0.984 . S
N372 H385 0.985 . S
N373 C375 1.356 . S
N373 H378 0.984 . S
N373 H379 0.985 . S
C374 C368 1.379 1_566 S
C374 C371 1.363 . S
C374 N372 1.356 . S
C375 C369 1.363 . S
C375 C370 1.379 1_544 S
C375 N373 1.356 . S
N376 C368 1.356 . S
N376 H382 0.984 . S
N376 H383 0.984 . S
N377 C370 1.356 . S
N377 H380 0.984 . S
N377 H381 0.985 . S
H378 N373 0.984 . S
H379 N373 0.985 . S
H380 N377 0.984 . S
H381 N377 0.985 . S
H382 N376 0.984 . S
H383 N376 0.984 . S
H384 N372 0.984 . S
H385 N372 0.985 . S
C386 C387 1.363 1_545 S
C386 C392 1.379 . S
C386 N394 1.356 1_545 S
C387 C386 1.363 1_565 S
C387 C393 1.363 . S
C388 C389 1.363 1_565 S
C388 C393 1.379 . S
C388 N395 1.356 1_565 S
C389 C388 1.363 1_545 S
C389 C392 1.363 . S
N390 C392 1.356 . S
N390 H402 0.984 . S
N390 H403 0.985 . S
N391 C393 1.356 . S
N391 H396 0.984 . S
N391 H397 0.985 . S
C392 C386 1.379 . S
C392 C389 1.363 . S
C392 N390 1.356 . S
C393 C387 1.363 . S
C393 C388 1.379 . S
C393 N391 1.356 . S
N394 C386 1.356 1_565 S
N394 H400 0.984 1_565 S
N394 H401 0.984 . S
N395 C388 1.356 1_545 S
N395 H398 0.984 . S
N395 H399 0.985 1_545 S
H396 N391 0.984 . S
H397 N391 0.985 . S
H398 N395 0.984 . S
H399 N395 0.985 1_565 S
H400 N394 0.984 1_545 S
H401 N394 0.984 . S
H402 N390 0.984 . S
H403 N390 0.985 . S
C404 C405 1.382 . S
C404 C410 1.360 1_565 S
C404 N412 1.363 . S
C405 C404 1.382 . S
C405 C411 1.363 1_556 S
C406 C407 1.382 . S
C406 C411 1.360 1_545 S
C406 N413 1.363 . S
C407 C406 1.382 . S
C407 C410 1.363 1_554 S
N408 C410 1.356 . S
N408 H420 0.984 . S
N408 H421 0.985 1_556 S
N409 C411 1.356 . S
N409 H414 0.984 1_554 S
N409 H415 0.985 . S
C410 C404 1.360 1_545 S
C410 C407 1.363 1_556 S
C410 N408 1.356 . S
C411 C405 1.363 1_554 S
C411 C406 1.360 1_565 S
C411 N409 1.356 . S
N412 C404 1.363 . S
N412 H418 0.984 1_565 S
N412 H419 0.984 . S
N413 C406 1.363 . S
N413 H416 0.984 . S
N413 H417 0.985 1_545 S
H414 N409 0.984 1_556 S
H415 N409 0.985 . S
H416 N413 0.984 . S
H417 N413 0.985 1_565 S
H418 N412 0.984 1_545 S
H419 N412 0.984 . S
H420 N408 0.984 . S
H421 N408 0.985 1_554 S
C422 C423 1.363 1_565 S
C422 C428 1.379 . S
C422 N430 1.356 1_565 S
C423 C422 1.363 1_545 S
C423 C429 1.363 . S
C424 C425 1.363 1_545 S
C424 C429 1.379 . S
C424 N431 1.356 1_545 S
C425 C424 1.363 1_565 S
C425 C428 1.363 . S
N426 C428 1.356 . S
N426 H438 0.984 . S
N426 H439 0.985 . S
N427 C429 1.356 . S
N427 H432 0.984 . S
N427 H433 0.985 . S
C428 C422 1.379 . S
C428 C425 1.363 . S
C428 N426 1.356 . S
C429 C423 1.363 . S
C429 C424 1.379 . S
C429 N427 1.356 . S
N430 C422 1.356 1_545 S
N430 H436 0.984 1_545 S
N430 H437 0.984 . S
N431 C424 1.356 1_565 S
N431 H434 0.984 . S
N431 H435 0.985 1_565 S
H432 N427 0.984 . S
H433 N427 0.985 . S
H434 N431 0.984 . S
H435 N431 0.985 1_545 S
H436 N430 0.984 1_565 S
H437 N430 0.984 . S
H438 N426 0.984 . S
H439 N426 0.985 . S
C440 C441 1.363 . S
C440 C446 1.379 . S
C440 N448 1.356 . S
C441 C440 1.363 . S
C441 C447 1.363 1_556 S
C442 C443 1.363 . S
C442 C447 1.379 . S
C442 N449 1.356 . S
C443 C442 1.363 . S
C443 C446 1.363 1_554 S
N444 C446 1.356 . S
N444 H456 0.984 . S
N444 H457 0.985 1_556 S
N445 C447 1.356 . S
N445 H450 0.984 1_554 S
N445 H451 0.985 . S
C446 C440 1.379 . S
C446 C443 1.363 1_556 S
C446 N444 1.356 . S
C447 C441 1.363 1_554 S
C447 C442 1.379 . S
C447 N445 1.356 . S
N448 C440 1.356 . S
N448 H454 0.984 . S
N448 H455 0.984 . S
N449 C442 1.356 . S
N449 H452 0.984 . S
N449 H453 0.985 . S
H450 N445 0.984 1_556 S
H451 N445 0.985 . S
H452 N449 0.984 . S
H453 N449 0.985 . S
H454 N448 0.984 . S
H455 N448 0.984 . S
H456 N444 0.984 . S
H457 N444 0.985 1_554 S
C458 C459 1.363 . S
C458 C464 1.379 . S
C458 N466 1.356 . S
C459 C458 1.363 . S
C459 C465 1.363 . S
C460 C461 1.363 . S
C460 C465 1.379 . S
C460 N467 1.356 . S
C461 C460 1.363 . S
C461 C464 1.363 . S
N462 C464 1.356 . S
N462 H474 0.984 . S
N462 H475 0.985 . S
N463 C465 1.356 . S
N463 H468 0.984 . S
N463 H469 0.985 . S
C464 C458 1.379 . S
C464 C461 1.363 . S
C464 N462 1.356 . S
C465 C459 1.363 . S
C465 C460 1.379 . S
C465 N463 1.356 . S
N466 C458 1.356 . S
N466 H472 0.984 . S
N466 H473 0.984 . S
N467 C460 1.356 . S
N467 H470 0.984 . S
N467 H471 0.985 . S
H468 N463 0.984 . S
H469 N463 0.985 . S
H470 N467 0.984 . S
H471 N467 0.985 . S
H472 N466 0.984 . S
H473 N466 0.984 . S
H474 N462 0.984 . S
H475 N462 0.985 . S
C476 C477 1.363 . S
C476 C482 1.379 . S
C476 N484 1.356 . S
C477 C476 1.363 . S
C477 C483 1.363 1_554 S
C478 C479 1.363 . S
C478 C483 1.379 . S
C478 N485 1.356 . S
C479 C478 1.363 . S
C479 C482 1.363 1_556 S
N480 C482 1.356 . S
N480 H492 0.984 . S
N480 H493 0.985 1_554 S
N481 C483 1.356 . S
N481 H486 0.984 1_556 S
N481 H487 0.985 . S
C482 C476 1.379 . S
C482 C479 1.363 1_554 S
C482 N480 1.356 . S
C483 C477 1.363 1_556 S
C483 C478 1.379 . S
C483 N481 1.356 . S
N484 C476 1.356 . S
N484 H490 0.984 . S
N484 H491 0.984 . S
N485 C478 1.356 . S
N485 H488 0.984 . S
N485 H489 0.985 . S
H486 N481 0.984 1_554 S
H487 N481 0.985 . S
H488 N485 0.984 . S
H489 N485 0.985 . S
H490 N484 0.984 . S
H491 N484 0.984 . S
H492 N480 0.984 . S
H493 N480 0.985 1_556 S
C494 C495 1.363 . S
C494 C500 1.379 . S
C494 N502 1.356 . S
C495 C494 1.363 . S
C495 C501 1.363 . S
C496 C497 1.363 . S
C496 C501 1.379 . S
C496 N503 1.356 . S
C497 C496 1.363 . S
C497 C500 1.363 . S
N498 C500 1.356 . S
N498 H510 0.984 . S
N498 H511 0.985 . S
N499 C501 1.356 . S
N499 H504 0.984 . S
N499 H505 0.985 . S
C500 C494 1.379 . S
C500 C497 1.363 . S
C500 N498 1.356 . S
C501 C495 1.363 . S
C501 C496 1.379 . S
C501 N499 1.356 . S
N502 C494 1.356 . S
N502 H508 0.984 . S
N502 H509 0.984 . S
N503 C496 1.356 . S
N503 H506 0.984 . S
N503 H507 0.985 . S
H504 N499 0.984 . S
H505 N499 0.985 . S
H506 N503 0.984 . S
H507 N503 0.985 . S
H508 N502 0.984 . S
H509 N502 0.984 . S
H510 N498 0.984 . S
H511 N498 0.985 . S
C512 C513 1.363 . S
C512 C518 1.379 . S
C512 N520 1.356 . S
C513 C512 1.363 . S
C513 C519 1.363 . S
C514 C515 1.363 . S
C514 C519 1.379 . S
C514 N521 1.356 . S
C515 C514 1.363 . S
C515 C518 1.363 . S
N516 C518 1.356 . S
N516 H528 0.984 . S
N516 H529 0.985 . S
N517 C519 1.356 . S
N517 H522 0.984 . S
N517 H523 0.985 . S
C518 C512 1.379 . S
C518 C515 1.363 . S
C518 N516 1.356 . S
C519 C513 1.363 . S
C519 C514 1.379 . S
C519 N517 1.356 . S
N520 C512 1.356 . S
N520 H526 0.984 . S
N520 H527 0.984 . S
N521 C514 1.356 . S
N521 H524 0.984 . S
N521 H525 0.985 . S
H522 N517 0.984 . S
H523 N517 0.985 . S
H524 N521 0.984 . S
H525 N521 0.985 . S
H526 N520 0.984 . S
H527 N520 0.984 . S
H528 N516 0.984 . S
H529 N516 0.985 . S
C530 C531 1.363 . S
C530 C536 1.379 1_655 S
C530 N538 1.356 . S
C531 C530 1.363 . S
C531 C537 1.363 . S
C532 C533 1.363 . S
C532 C537 1.379 1_455 S
C532 N539 1.356 . S
C533 C532 1.363 . S
C533 C536 1.363 . S
N534 C536 1.356 . S
N534 H546 0.984 . S
N534 H547 0.985 . S
N535 C537 1.356 . S
N535 H540 0.984 . S
N535 H541 0.985 . S
C536 C530 1.379 1_455 S
C536 C533 1.363 . S
C536 N534 1.356 . S
C537 C531 1.363 . S
C537 C532 1.379 1_655 S
C537 N535 1.356 . S
N538 C530 1.356 . S
N538 H544 0.984 . S
N538 H545 0.984 . S
N539 C532 1.356 . S
N539 H542 0.984 . S
N539 H543 0.985 . S
H540 N535 0.984 . S
H541 N535 0.985 . S
H542 N539 0.984 . S
H543 N539 0.985 . S
H544 N538 0.984 . S
H545 N538 0.984 . S
H546 N534 0.984 . S
H547 N534 0.985 . S
C548 C549 1.363 . S
C548 C554 1.379 . S
C548 N556 1.356 . S
C549 C548 1.363 . S
C549 C555 1.363 . S
C550 C551 1.363 . S
C550 C555 1.379 . S
C550 N557 1.356 . S
C551 C550 1.363 . S
C551 C554 1.363 . S
N552 C554 1.356 . S
N552 H564 0.984 . S
N552 H565 0.985 . S
N553 C555 1.356 . S
N553 H558 0.984 . S
N553 H559 0.985 . S
C554 C548 1.379 . S
C554 C551 1.363 . S
C554 N552 1.356 . S
C555 C549 1.363 . S
C555 C550 1.379 . S
C555 N553 1.356 . S
N556 C548 1.356 . S
N556 H562 0.984 . S
N556 H563 0.984 . S
N557 C550 1.356 . S
N557 H560 0.984 . S
N557 H561 0.985 . S
H558 N553 0.984 . S
H559 N553 0.985 . S
H560 N557 0.984 . S
H561 N557 0.985 . S
H562 N556 0.984 . S
H563 N556 0.984 . S
H564 N552 0.984 . S
H565 N552 0.985 . S
C566 C567 1.363 . S
C566 C572 1.379 1_455 S
C566 N574 1.356 . S
C567 C566 1.363 . S
C567 C573 1.363 . S
C568 C569 1.363 . S
C568 C573 1.379 1_655 S
C568 N575 1.356 . S
C569 C568 1.363 . S
C569 C572 1.363 . S
N570 C572 1.356 . S
N570 H582 0.984 . S
N570 H583 0.985 . S
N571 C573 1.356 . S
N571 H576 0.984 . S
N571 H577 0.985 . S
C572 C566 1.379 1_655 S
C572 C569 1.363 . S
C572 N570 1.356 . S
C573 C567 1.363 . S
C573 C568 1.379 1_455 S
C573 N571 1.356 . S
N574 C566 1.356 . S
N574 H580 0.984 . S
N574 H581 0.984 . S
N575 C568 1.356 . S
N575 H578 0.984 . S
N575 H579 0.985 . S
H576 N571 0.984 . S
H577 N571 0.985 . S
H578 N575 0.984 . S
H579 N575 0.985 . S
H580 N574 0.984 . S
H581 N574 0.984 . S
H582 N570 0.984 . S
H583 N570 0.985 . S
C584 C585 1.363 . S
C584 C590 1.379 1_455 S
C584 N592 1.356 . S
C585 C584 1.363 . S
C585 C591 1.363 . S
C586 C587 1.363 . S
C586 C591 1.379 1_655 S
C586 N593 1.356 . S
C587 C586 1.363 . S
C587 C590 1.363 . S
N588 C590 1.356 . S
N588 H600 0.984 . S
N588 H601 0.985 . S
N589 C591 1.356 . S
N589 H594 0.984 . S
N589 H595 0.985 . S
C590 C584 1.379 1_655 S
C590 C587 1.363 . S
C590 N588 1.356 . S
C591 C585 1.363 . S
C591 C586 1.379 1_455 S
C591 N589 1.356 . S
N592 C584 1.356 . S
N592 H598 0.984 . S
N592 H599 0.984 . S
N593 C586 1.356 . S
N593 H596 0.984 . S
N593 H597 0.985 . S
H594 N589 0.984 . S
H595 N589 0.985 . S
H596 N593 0.984 . S
H597 N593 0.985 . S
H598 N592 0.984 . S
H599 N592 0.984 . S
H600 N588 0.984 . S
H601 N588 0.985 . S
C602 C603 1.363 . S
C602 C608 1.379 . S
C602 N610 1.356 . S
C603 C602 1.363 . S
C603 C609 1.363 . S
C604 C605 1.363 . S
C604 C609 1.379 . S
C604 N611 1.356 . S
C605 C604 1.363 . S
C605 C608 1.363 . S
N606 C608 1.356 . S
N606 H618 0.984 . S
N606 H619 0.985 . S
N607 C609 1.356 . S
N607 H612 0.984 . S
N607 H613 0.985 . S
C608 C602 1.379 . S
C608 C605 1.363 . S
C608 N606 1.356 . S
C609 C603 1.363 . S
C609 C604 1.379 . S
C609 N607 1.356 . S
N610 C602 1.356 . S
N610 H616 0.984 . S
N610 H617 0.984 . S
N611 C604 1.356 . S
N611 H614 0.984 . S
N611 H615 0.985 . S
H612 N607 0.984 . S
H613 N607 0.985 . S
H614 N611 0.984 . S
H615 N611 0.985 . S
H616 N610 0.984 . S
H617 N610 0.984 . S
H618 N606 0.984 . S
H619 N606 0.985 . S
C620 C621 1.363 . S
C620 C626 1.379 1_455 S
C620 N628 1.356 . S
C621 C620 1.363 . S
C621 C627 1.363 . S
C622 C623 1.363 . S
C622 C627 1.379 1_655 S
C622 N629 1.356 . S
C623 C622 1.363 . S
C623 C626 1.363 . S
N624 C626 1.356 . S
N624 H636 0.984 . S
N624 H637 0.985 . S
N625 C627 1.356 . S
N625 H630 0.984 . S
N625 H631 0.985 . S
C626 C620 1.379 1_655 S
C626 C623 1.363 . S
C626 N624 1.356 . S
C627 C621 1.363 . S
C627 C622 1.379 1_455 S
C627 N625 1.356 . S
N628 C620 1.356 . S
N628 H634 0.984 . S
N628 H635 0.984 . S
N629 C622 1.356 . S
N629 H632 0.984 . S
N629 H633 0.985 . S
H630 N625 0.984 . S
H631 N625 0.985 . S
H632 N629 0.984 . S
H633 N629 0.985 . S
H634 N628 0.984 . S
H635 N628 0.984 . S
H636 N624 0.984 . S
H637 N624 0.985 . S
C638 C639 1.363 . S
C638 C644 1.379 . S
C638 N646 1.356 . S
C639 C638 1.363 . S
C639 C645 1.363 . S
C640 C641 1.363 . S
C640 C645 1.379 . S
C640 N647 1.356 . S
C641 C640 1.363 . S
C641 C644 1.363 . S
N642 C644 1.356 . S
N642 H654 0.984 . S
N642 H655 0.985 . S
N643 C645 1.356 . S
N643 H648 0.984 . S
N643 H649 0.985 . S
C644 C638 1.379 . S
C644 C641 1.363 . S
C644 N642 1.356 . S
C645 C639 1.363 . S
C645 C640 1.379 . S
C645 N643 1.356 . S
N646 C638 1.356 . S
N646 H652 0.984 . S
N646 H653 0.984 . S
N647 C640 1.356 . S
N647 H650 0.984 . S
N647 H651 0.985 . S
H648 N643 0.984 . S
H649 N643 0.985 . S
H650 N647 0.984 . S
H651 N647 0.985 . S
H652 N646 0.984 . S
H653 N646 0.984 . S
H654 N642 0.984 . S
H655 N642 0.985 . S
C656 C657 1.363 . S
C656 C662 1.379 . S
C656 N664 1.356 . S
C657 C656 1.363 . S
C657 C663 1.363 . S
C658 C659 1.363 . S
C658 C663 1.379 . S
C658 N665 1.356 . S
C659 C658 1.363 . S
C659 C662 1.363 . S
N660 C662 1.356 . S
N660 H672 0.984 . S
N660 H673 0.985 . S
N661 C663 1.356 . S
N661 H666 0.984 . S
N661 H667 0.985 . S
C662 C656 1.379 . S
C662 C659 1.363 . S
C662 N660 1.356 . S
C663 C657 1.363 . S
C663 C658 1.379 . S
C663 N661 1.356 . S
N664 C656 1.356 . S
N664 H670 0.984 . S
N664 H671 0.984 . S
N665 C658 1.356 . S
N665 H668 0.984 . S
N665 H669 0.985 . S
H666 N661 0.984 . S
H667 N661 0.985 . S
H668 N665 0.984 . S
H669 N665 0.985 . S
H670 N664 0.984 . S
H671 N664 0.984 . S
H672 N660 0.984 . S
H673 N660 0.985 . S
C674 C675 1.363 . S
C674 C680 1.379 . S
C674 N682 1.356 . S
C675 C674 1.363 . S
C675 C681 1.363 . S
C676 C677 1.363 . S
C676 C681 1.379 . S
C676 N683 1.356 . S
C677 C676 1.363 . S
C677 C680 1.363 . S
N678 C680 1.356 . S
N678 H690 0.984 . S
N678 H691 0.985 . S
N679 C681 1.356 . S
N679 H684 0.984 . S
N679 H685 0.985 . S
C680 C674 1.379 . S
C680 C677 1.363 . S
C680 N678 1.356 . S
C681 C675 1.363 . S
C681 C676 1.379 . S
C681 N679 1.356 . S
N682 C674 1.356 . S
N682 H688 0.984 . S
N682 H689 0.984 . S
N683 C676 1.356 . S
N683 H686 0.984 . S
N683 H687 0.985 . S
H684 N679 0.984 . S
H685 N679 0.985 . S
H686 N683 0.984 . S
H687 N683 0.985 . S
H688 N682 0.984 . S
H689 N682 0.984 . S
H690 N678 0.984 . S
H691 N678 0.985 . S
C692 C693 1.363 . S
C692 C698 1.379 . S
C692 N700 1.356 . S
C693 C692 1.363 . S
C693 C699 1.363 . S
C694 C695 1.363 . S
C694 C699 1.379 . S
C694 N701 1.356 . S
C695 C694 1.363 . S
C695 C698 1.363 . S
N696 C698 1.356 . S
N696 H708 0.984 . S
N696 H709 0.985 . S
N697 C699 1.356 . S
N697 H702 0.984 . S
N697 H703 0.985 . S
C698 C692 1.379 . S
C698 C695 1.363 . S
C698 N696 1.356 . S
C699 C693 1.363 . S
C699 C694 1.379 . S
C699 N697 1.356 . S
N700 C692 1.356 . S
N700 H706 0.984 . S
N700 H707 0.984 . S
N701 C694 1.356 . S
N701 H704 0.984 . S
N701 H705 0.985 . S
H702 N697 0.984 . S
H703 N697 0.985 . S
H704 N701 0.984 . S
H705 N701 0.985 . S
H706 N700 0.984 . S
H707 N700 0.984 . S
H708 N696 0.984 . S
H709 N696 0.985 . S
C710 C711 1.363 . S
C710 C716 1.379 . S
C710 N718 1.356 . S
C711 C710 1.363 . S
C711 C717 1.363 . S
C712 C713 1.363 . S
C712 C717 1.379 . S
C712 N719 1.356 . S
C713 C712 1.363 . S
C713 C716 1.363 . S
N714 C716 1.356 . S
N714 H726 0.984 . S
N714 H727 0.985 . S
N715 C717 1.356 . S
N715 H720 0.984 . S
N715 H721 0.985 . S
C716 C710 1.379 . S
C716 C713 1.363 . S
C716 N714 1.356 . S
C717 C711 1.363 . S
C717 C712 1.379 . S
C717 N715 1.356 . S
N718 C710 1.356 . S
N718 H724 0.984 . S
N718 H725 0.984 . S
N719 C712 1.356 . S
N719 H722 0.984 . S
N719 H723 0.985 . S
H720 N715 0.984 . S
H721 N715 0.985 . S
H722 N719 0.984 . S
H723 N719 0.985 . S
H724 N718 0.984 . S
H725 N718 0.984 . S
H726 N714 0.984 . S
H727 N714 0.985 . S
C728 C729 1.363 . S
C728 C734 1.379 . S
C728 N736 1.356 . S
C729 C728 1.363 . S
C729 C735 1.363 . S
C730 C731 1.363 . S
C730 C735 1.379 . S
C730 N737 1.356 . S
C731 C730 1.363 . S
C731 C734 1.363 . S
N732 C734 1.356 . S
N732 H744 0.984 . S
N732 H745 0.985 . S
N733 C735 1.356 . S
N733 H738 0.984 . S
N733 H739 0.985 . S
C734 C728 1.379 . S
C734 C731 1.363 . S
C734 N732 1.356 . S
C735 C729 1.363 . S
C735 C730 1.379 . S
C735 N733 1.356 . S
N736 C728 1.356 . S
N736 H742 0.984 . S
N736 H743 0.984 . S
N737 C730 1.356 . S
N737 H740 0.984 . S
N737 H741 0.985 . S
H738 N733 0.984 . S
H739 N733 0.985 . S
H740 N737 0.984 . S
H741 N737 0.985 . S
H742 N736 0.984 . S
H743 N736 0.984 . S
H744 N732 0.984 . S
H745 N732 0.985 . S
C746 C747 1.363 . S
C746 C752 1.379 . S
C746 N754 1.356 . S
C747 C746 1.363 . S
C747 C753 1.363 . S
C748 C749 1.363 . S
C748 C753 1.379 . S
C748 N755 1.356 . S
C749 C748 1.363 . S
C749 C752 1.363 . S
N750 C752 1.356 . S
N750 H762 0.984 . S
N750 H763 0.985 . S
N751 C753 1.356 . S
N751 H756 0.984 . S
N751 H757 0.985 . S
C752 C746 1.379 . S
C752 C749 1.363 . S
C752 N750 1.356 . S
C753 C747 1.363 . S
C753 C748 1.379 . S
C753 N751 1.356 . S
N754 C746 1.356 . S
N754 H760 0.984 . S
N754 H761 0.984 . S
N755 C748 1.356 . S
N755 H758 0.984 . S
N755 H759 0.985 . S
H756 N751 0.984 . S
H757 N751 0.985 . S
H758 N755 0.984 . S
H759 N755 0.985 . S
H760 N754 0.984 . S
H761 N754 0.984 . S
H762 N750 0.984 . S
H763 N750 0.985 . S
C764 C765 1.363 . S
C764 C770 1.379 . S
C764 N772 1.356 . S
C765 C764 1.363 . S
C765 C771 1.363 . S
C766 C767 1.363 . S
C766 C771 1.379 . S
C766 N773 1.356 . S
C767 C766 1.363 . S
C767 C770 1.363 . S
N768 C770 1.356 . S
N768 H780 0.984 . S
N768 H781 0.985 . S
N769 C771 1.356 . S
N769 H774 0.984 . S
N769 H775 0.985 . S
C770 C764 1.379 . S
C770 C767 1.363 . S
C770 N768 1.356 . S
C771 C765 1.363 . S
C771 C766 1.379 . S
C771 N769 1.356 . S
N772 C764 1.356 . S
N772 H778 0.984 . S
N772 H779 0.984 . S
N773 C766 1.356 . S
N773 H776 0.984 . S
N773 H777 0.985 . S
H774 N769 0.984 . S
H775 N769 0.985 . S
H776 N773 0.984 . S
H777 N773 0.985 . S
H778 N772 0.984 . S
H779 N772 0.984 . S
H780 N768 0.984 . S
H781 N768 0.985 . S
C782 C783 1.363 . S
C782 C788 1.379 . S
C782 N790 1.356 . S
C783 C782 1.363 . S
C783 C789 1.363 . S
C784 C785 1.363 . S
C784 C789 1.379 . S
C784 N791 1.356 . S
C785 C784 1.363 . S
C785 C788 1.363 . S
N786 C788 1.356 . S
N786 H798 0.984 . S
N786 H799 0.985 . S
N787 C789 1.356 . S
N787 H792 0.984 . S
N787 H793 0.985 . S
C788 C782 1.379 . S
C788 C785 1.363 . S
C788 N786 1.356 . S
C789 C783 1.363 . S
C789 C784 1.379 . S
C789 N787 1.356 . S
N790 C782 1.356 . S
N790 H796 0.984 . S
N790 H797 0.984 . S
N791 C784 1.356 . S
N791 H794 0.984 . S
N791 H795 0.985 . S
H792 N787 0.984 . S
H793 N787 0.985 . S
H794 N791 0.984 . S
H795 N791 0.985 . S
H796 N790 0.984 . S
H797 N790 0.984 . S
H798 N786 0.984 . S
H799 N786 0.985 . S
C225 C11 1.412 . S
C227 C180 1.425 . S
C243 C194 1.425 . S
C245 C25 1.412 . S
C261 C39 1.412 . S
C263 C208 1.425 . S
C279 C222 1.425 . S
C281 C53 1.412 . S
C297 C123 1.412 . S
C299 C68 1.425 . S
C315 C82 1.425 . S
C317 C137 1.412 . S
C333 C151 1.412 . S
C335 C96 1.425 . S
C351 C110 1.425 . S
C353 C165 1.412 . S
C369 C4 1.487 . S
C371 C32 1.487 . S
C387 C18 1.487 . S
C389 C46 1.487 . S
C405 C60 1.418 . S
C407 C88 1.418 . S
C423 C74 1.418 . S
C425 C102 1.418 . S
C441 C144 1.487 . S
C443 C116 1.487 . S
C459 C130 1.487 . S
C461 C158 1.487 . S
C477 C200 1.418 . S
C479 C172 1.418 . S
C495 C186 1.418 . S
C497 C214 1.418 . S
C513 C89 1.309 . S
C515 C5 1.310 . S
C531 C103 1.309 . S
C533 C19 1.310 . S
C549 C33 1.310 . S
C551 C61 1.309 . S
C567 C47 1.310 . S
C569 C75 1.309 . S
C585 C201 1.309 . S
C587 C117 1.310 . S
C603 C131 1.310 . S
C605 C215 1.309 . S
C621 C173 1.309 . S
C623 C145 1.310 . S
C639 C159 1.310 . S
C641 C187 1.309 . S
C657 C12 1.458 . S
C659 C54 1.458 . S
C675 C40 1.458 . S
C677 C26 1.458 . S
C693 C67 1.370 . S
C695 C109 1.370 . S
C711 C81 1.370 . S
C713 C95 1.370 . S
C729 C166 1.458 . S
C731 C124 1.458 . S
C747 C138 1.458 . S
C749 C152 1.458 . S
C765 C221 1.370 . S
C767 C179 1.370 . S
C783 C193 1.370 . S
C785 C207 1.370 . S
