# Generated by pormake.
# Topology wmi, (6)-cn, num edge types: 1
# Building blocks:
#     Node 0, Type 0, BuildingBlock: GEDQOX_clean_sbu_0, # of connection points: 6
#     Node 1, Type 0, BuildingBlock: GEDQOX_clean_sbu_0, # of connection points: 6
#     Node 2, Type 0, BuildingBlock: GEDQOX_clean_sbu_0, # of connection points: 6
#     Node 3, Type 0, BuildingBlock: GEDQOX_clean_sbu_0, # of connection points: 6
#     Node 4, Type 0, BuildingBlock: GEDQOX_clean_sbu_0, # of connection points: 6
#     Node 5, Type 0, BuildingBlock: GEDQOX_clean_sbu_0, # of connection points: 6
#     Node 6, Type 0, BuildingBlock: GEDQOX_clean_sbu_0, # of connection points: 6
#     Node 7, Type 0, BuildingBlock: GEDQOX_clean_sbu_0, # of connection points: 6
#     Node 8, Type 0, BuildingBlock: GEDQOX_clean_sbu_0, # of connection points: 6
#     Node 9, Type 0, BuildingBlock: GEDQOX_clean_sbu_0, # of connection points: 6
#     Node 10, Type 0, BuildingBlock: GEDQOX_clean_sbu_0, # of connection points: 6
#     Node 11, Type 0, BuildingBlock: GEDQOX_clean_sbu_0, # of connection points: 6
#     Node 12, Type 0, BuildingBlock: GEDQOX_clean_sbu_0, # of connection points: 6
#     Node 13, Type 0, BuildingBlock: GEDQOX_clean_sbu_0, # of connection points: 6
#     Node 14, Type 0, BuildingBlock: GEDQOX_clean_sbu_0, # of connection points: 6
#     Node 15, Type 0, BuildingBlock: GEDQOX_clean_sbu_0, # of connection points: 6
#     Node 16, Type 0, BuildingBlock: GEDQOX_clean_sbu_0, # of connection points: 6
#     Node 17, Type 0, BuildingBlock: GEDQOX_clean_sbu_0, # of connection points: 6
#     Edge 18, Type (0, 0), BuildingBlock: XIVTED_clean_linker_0, # of connection points: 2
#     Edge 19, Type (0, 0), BuildingBlock: XIVTED_clean_linker_0, # of connection points: 2
#     Edge 20, Type (0, 0), BuildingBlock: XIVTED_clean_linker_0, # of connection points: 2
#     Edge 21, Type (0, 0), BuildingBlock: XIVTED_clean_linker_0, # of connection points: 2
#     Edge 22, Type (0, 0), BuildingBlock: XIVTED_clean_linker_0, # of connection points: 2
#     Edge 23, Type (0, 0), BuildingBlock: XIVTED_clean_linker_0, # of connection points: 2
#     Edge 24, Type (0, 0), BuildingBlock: XIVTED_clean_linker_0, # of connection points: 2
#     Edge 25, Type (0, 0), BuildingBlock: XIVTED_clean_linker_0, # of connection points: 2
#     Edge 26, Type (0, 0), BuildingBlock: XIVTED_clean_linker_0, # of connection points: 2
#     Edge 27, Type (0, 0), BuildingBlock: XIVTED_clean_linker_0, # of connection points: 2
#     Edge 28, Type (0, 0), BuildingBlock: XIVTED_clean_linker_0, # of connection points: 2
#     Edge 29, Type (0, 0), BuildingBlock: XIVTED_clean_linker_0, # of connection points: 2
#     Edge 30, Type (0, 0), BuildingBlock: XIVTED_clean_linker_0, # of connection points: 2
#     Edge 31, Type (0, 0), BuildingBlock: XIVTED_clean_linker_0, # of connection points: 2
#     Edge 32, Type (0, 0), BuildingBlock: XIVTED_clean_linker_0, # of connection points: 2
#     Edge 33, Type (0, 0), BuildingBlock: XIVTED_clean_linker_0, # of connection points: 2
#     Edge 34, Type (0, 0), BuildingBlock: XIVTED_clean_linker_0, # of connection points: 2
#     Edge 35, Type (0, 0), BuildingBlock: XIVTED_clean_linker_0, # of connection points: 2
#     Edge 36, Type (0, 0), BuildingBlock: XIVTED_clean_linker_0, # of connection points: 2
#     Edge 37, Type (0, 0), BuildingBlock: XIVTED_clean_linker_0, # of connection points: 2
#     Edge 38, Type (0, 0), BuildingBlock: XIVTED_clean_linker_0, # of connection points: 2
#     Edge 39, Type (0, 0), BuildingBlock: XIVTED_clean_linker_0, # of connection points: 2
#     Edge 40, Type (0, 0), BuildingBlock: XIVTED_clean_linker_0, # of connection points: 2
#     Edge 41, Type (0, 0), BuildingBlock: XIVTED_clean_linker_0, # of connection points: 2
#     Edge 42, Type (0, 0), BuildingBlock: XIVTED_clean_linker_0, # of connection points: 2
#     Edge 43, Type (0, 0), BuildingBlock: XIVTED_clean_linker_0, # of connection points: 2
#     Edge 44, Type (0, 0), BuildingBlock: XIVTED_clean_linker_0, # of connection points: 2
#     Edge 45, Type (0, 0), BuildingBlock: XIVTED_clean_linker_0, # of connection points: 2
#     Edge 46, Type (0, 0), BuildingBlock: XIVTED_clean_linker_0, # of connection points: 2
#     Edge 47, Type (0, 0), BuildingBlock: XIVTED_clean_linker_0, # of connection points: 2
#     Edge 48, Type (0, 0), BuildingBlock: XIVTED_clean_linker_0, # of connection points: 2
#     Edge 49, Type (0, 0), BuildingBlock: XIVTED_clean_linker_0, # of connection points: 2
#     Edge 50, Type (0, 0), BuildingBlock: XIVTED_clean_linker_0, # of connection points: 2
#     Edge 51, Type (0, 0), BuildingBlock: XIVTED_clean_linker_0, # of connection points: 2
#     Edge 52, Type (0, 0), BuildingBlock: XIVTED_clean_linker_0, # of connection points: 2
#     Edge 53, Type (0, 0), BuildingBlock: XIVTED_clean_linker_0, # of connection points: 2
#     Edge 54, Type (0, 0), BuildingBlock: XIVTED_clean_linker_0, # of connection points: 2
#     Edge 55, Type (0, 0), BuildingBlock: XIVTED_clean_linker_0, # of connection points: 2
#     Edge 56, Type (0, 0), BuildingBlock: XIVTED_clean_linker_0, # of connection points: 2
#     Edge 57, Type (0, 0), BuildingBlock: XIVTED_clean_linker_0, # of connection points: 2
#     Edge 58, Type (0, 0), BuildingBlock: XIVTED_clean_linker_0, # of connection points: 2
#     Edge 59, Type (0, 0), BuildingBlock: XIVTED_clean_linker_0, # of connection points: 2
#     Edge 60, Type (0, 0), BuildingBlock: XIVTED_clean_linker_0, # of connection points: 2
#     Edge 61, Type (0, 0), BuildingBlock: XIVTED_clean_linker_0, # of connection points: 2
#     Edge 62, Type (0, 0), BuildingBlock: XIVTED_clean_linker_0, # of connection points: 2
#     Edge 63, Type (0, 0), BuildingBlock: XIVTED_clean_linker_0, # of connection points: 2
#     Edge 64, Type (0, 0), BuildingBlock: XIVTED_clean_linker_0, # of connection points: 2
#     Edge 65, Type (0, 0), BuildingBlock: XIVTED_clean_linker_0, # of connection points: 2
#     Edge 66, Type (0, 0), BuildingBlock: XIVTED_clean_linker_0, # of connection points: 2
#     Edge 67, Type (0, 0), BuildingBlock: XIVTED_clean_linker_0, # of connection points: 2
#     Edge 68, Type (0, 0), BuildingBlock: XIVTED_clean_linker_0, # of connection points: 2
#     Edge 69, Type (0, 0), BuildingBlock: XIVTED_clean_linker_0, # of connection points: 2
#     Edge 70, Type (0, 0), BuildingBlock: XIVTED_clean_linker_0, # of connection points: 2
#     Edge 71, Type (0, 0), BuildingBlock: XIVTED_clean_linker_0, # of connection points: 2
# Relax obj value: 0.096
# Max RMSD: 0.216
# Mean RMSD: 0.216
data_MOF--net-wmi--node1-GEDQOX_clean_sbu_0--edge1-XIVTED_clean_linker_0
_symmetry_space_group_name_H-M    P1
_symmetry_Int_Tables_number       1
_symmetry_cell_setting            triclinic
loop_
_symmetry_equiv_pos_as_xyz
'x, y, z'
_cell_length_a     40.325834
_cell_length_b     40.444217
_cell_length_c     78.763496
_cell_angle_alpha  89.943714
_cell_angle_beta   90.081854
_cell_angle_gamma 119.97321
loop_
_atom_site_label
_atom_site_type_symbol
_atom_site_fract_x
_atom_site_fract_y
_atom_site_fract_z
_atom_type_partial_charge
Nd0 Nd 0.49636 0.07199 0.10868 0.0
Nd1 Nd 0.53152 1.01891 0.11812 0.0
C2 C 0.47184 0.11701 0.09664 0.0
C3 C 0.48426 0.15755 0.09977 0.0
C4 C 0.52076 0.18218 0.1065 0.0
C5 C 0.53231 0.22038 0.10991 0.0
C6 C 0.50748 0.23476 0.1068 0.0
C7 C 0.47081 0.20988 0.10014 0.0
C8 C 0.45935 0.17164 0.09665 0.0
C9 C 0.49134 0.05179 0.1426 0.0
C10 C 0.58502 0.11087 0.12061 0.0
C11 C 0.5524 0.97378 0.1332 0.0
C12 C 0.56017 0.94314 0.12794 0.0
C13 C 0.5332 0.90488 0.13143 0.0
C14 C 0.53955 0.87553 0.12618 0.0
C15 C 0.57318 0.88374 0.11742 0.0
C16 C 0.60059 0.92205 0.11423 0.0
C17 C 0.59414 0.95146 0.1194 0.0
C18 C 0.54334 0.03839 0.08411 0.0
C19 C 0.44452 0.97852 0.10255 0.0
O20 O 0.49629 0.11032 0.08857 0.0
O21 O 0.45574 0.09396 0.1095 0.0
O22 O 0.49989 0.08557 0.13723 0.0
O23 O 0.48766 0.03105 0.13002 0.0
O24 O 0.56067 0.11448 0.11064 0.0
O25 O 0.57563 0.07823 0.12826 0.0
O26 O 0.51676 0.96596 0.1323 0.0
O27 O 0.57678 1.00865 0.12834 0.0
O28 O 0.555 1.01713 0.09129 0.0
O29 O 0.52735 0.04803 0.09507 0.0
O30 O 0.47223 0.97401 0.1091 0.0
O31 O 0.44719 1.01242 0.10046 0.0
H32 H 0.54029 0.17179 0.10923 0.0
H33 H 0.56049 0.2385 0.11525 0.0
H34 H 0.45111 0.22006 0.09745 0.0
H35 H 0.431 0.15306 0.09155 0.0
H36 H 0.50702 0.89758 0.13818 0.0
H37 H 0.51821 0.84634 0.12913 0.0
H38 H 0.62672 0.92927 0.10746 0.0
H39 H 0.61566 0.98066 0.11659 0.0
Nd40 Nd 1.02741 0.46132 0.11228 0.0
Nd41 Nd 0.08168 0.54858 0.12187 0.0
C42 C 0.98173 0.3918 0.10042 0.0
C43 C 0.94094 0.36371 0.1033 0.0
C44 C 0.91584 0.37548 0.10949 0.0
C45 C 0.87731 0.34878 0.1125 0.0
C46 C 0.8631 0.30966 0.10951 0.0
C47 C 0.88849 0.298 0.10341 0.0
C48 C 0.92702 0.32479 0.10032 0.0
C49 C 0.04605 0.47546 0.14639 0.0
C50 C 0.98961 0.5123 0.1231 0.0
C51 C 0.1272 0.61473 0.13678 0.0
C52 C 0.1566 0.65261 0.1307 0.0
C53 C 0.1686 0.68475 0.14107 0.0
C54 C 0.19641 0.72088 0.13532 0.0
C55 C 0.21273 0.72548 0.11908 0.0
C56 C 0.20022 0.6931 0.10867 0.0
C57 C 0.17236 0.65704 0.11442 0.0
C58 C 0.06398 0.54194 0.08765 0.0
C59 C 0.1209 0.5009 0.10667 0.0
O60 O 0.98883 0.42288 0.09224 0.0
O61 O 1.00448 0.39871 0.11343 0.0
O62 O 1.01187 0.45235 0.14062 0.0
O63 O 0.06799 0.49225 0.13406 0.0
O64 O 0.98609 0.48454 0.11313 0.0
O65 O 1.02195 0.53468 0.13124 0.0
O66 O 0.13545 0.58736 0.13548 0.0
O67 O 0.092 0.60391 0.13226 0.0
O68 O 0.08551 0.57448 0.095 0.0
O69 O 0.05312 0.51609 0.09855 0.0
O70 O 0.12608 0.53304 0.11345 0.0
O71 O 0.08662 0.47037 0.10427 0.0
H72 H 0.92607 0.40535 0.11208 0.0
H73 H 0.85879 0.35875 0.11742 0.0
H74 H 0.87847 0.26819 0.1008 0.0
H75 H 0.94595 0.31511 0.09561 0.0
H76 H 0.15663 0.68187 0.15365 0.0
H77 H 0.20571 0.74508 0.14374 0.0
H78 H 0.21181 0.69566 0.09603 0.0
H79 H 0.16316 0.63257 0.10616 0.0
Nd80 Nd 0.63741 0.60033 0.11182 0.0
Nd81 Nd 0.55055 0.56671 0.12229 0.0
C82 C 0.70669 0.62497 0.09939 0.0
C83 C 0.73709 0.61542 0.1028 0.0
C84 C 0.75392 0.60672 0.08923 0.0
C85 C 0.78075 0.59501 0.09225 0.0
C86 C 0.7915 0.59192 0.10893 0.0
C87 C 0.7751 0.60131 0.12251 0.0
C88 C 0.74803 0.61272 0.11949 0.0
C89 C 0.62463 0.60417 0.14619 0.0
C90 C 0.58733 0.51142 0.12253 0.0
C91 C 0.48519 0.54547 0.13813 0.0
C92 C 0.44696 0.53679 0.13242 0.0
C93 C 0.4153 0.51743 0.14317 0.0
C94 C 0.37883 0.5089 0.13769 0.0
C95 C 0.37348 0.51963 0.12135 0.0
C96 C 0.40536 0.53865 0.11056 0.0
C97 C 0.44174 0.5471 0.11604 0.0
C98 C 0.55512 0.55646 0.08784 0.0
C99 C 0.59634 0.65281 0.10642 0.0
O100 O 0.67563 0.59811 0.09214 0.0
O101 O 0.69942 0.64287 0.11139 0.0
O102 O 0.6483 0.59426 0.14006 0.0
O103 O 0.60732 0.60939 0.13409 0.0
O104 O 0.61495 0.53604 0.11256 0.0
O105 O 0.56491 0.52088 0.13091 0.0
O106 O 0.51238 0.58113 0.13674 0.0
O107 O 0.49598 0.5214 0.13322 0.0
O108 O 0.52299 0.54509 0.0957 0.0
O109 O 0.58189 0.57134 0.0984 0.0
O110 O 0.56507 0.62626 0.114 0.0
O111 O 0.62674 0.64912 0.1034 0.0
H112 H 0.74588 0.60844 0.07627 0.0
H113 H 0.79314 0.58842 0.08149 0.0
H114 H 0.78241 0.59886 0.13551 0.0
H115 H 0.73521 0.61878 0.13025 0.0
H116 H 0.41883 0.50912 0.15583 0.0
H117 H 0.355 0.49467 0.14639 0.0
H118 H 0.40219 0.5469 0.09784 0.0
H119 H 0.46585 0.56178 0.10751 0.0
Nd120 Nd 0.06882 0.46907 0.93984 0.0
Nd121 Nd 1.0246 0.51134 0.92646 0.0
C122 C 0.11859 0.44956 0.95141 0.0
C123 C 0.16059 0.46573 0.95145 0.0
C124 C 0.18509 0.50147 0.94412 0.0
C125 C 0.22415 0.51406 0.94195 0.0
C126 C 0.23949 0.49093 0.9469 0.0
C127 C 0.21494 0.45557 0.95467 0.0
C128 C 0.17596 0.44315 0.95691 0.0
C129 C 0.03791 0.44941 0.90814 0.0
C130 C 0.11671 0.56037 0.92759 0.0
C131 C 0.98359 0.53497 0.90958 0.0
C132 C 0.9526 0.54238 0.91439 0.0
C133 C 0.94051 0.56109 0.90311 0.0
C134 C 0.91199 0.56939 0.90792 0.0
C135 C 0.8951 0.55917 0.92414 0.0
C136 C 0.90759 0.54055 0.9354 0.0
C137 C 0.936 0.53223 0.93057 0.0
C138 C 0.03308 0.51767 0.96148 0.0
C139 C 0.97648 0.42354 0.94195 0.0
O140 O 0.10409 0.46573 0.96097 0.0
O141 O 0.10274 0.44043 0.93641 0.0
O142 O 0.03908 0.42594 0.91896 0.0
O143 O 0.05504 0.48355 0.9136 0.0
O144 O 0.11632 0.53205 0.9362 0.0
O145 O 0.08576 0.55704 0.92028 0.0
O146 O 0.97526 0.49919 0.90988 0.0
O147 O 1.01709 0.5582 0.91626 0.0
O148 O 1.01705 0.53313 0.95282 0.0
O149 O 0.04389 0.50118 0.95138 0.0
O150 O 0.97751 0.44967 0.93146 0.0
O151 O 1.00772 0.42649 0.94918 0.0
H152 H 0.17381 0.51908 0.9395 0.0
H153 H 0.24198 0.54124 0.93577 0.0
H154 H 0.22577 0.43723 0.95886 0.0
H155 H 0.15754 0.41529 0.96243 0.0
H156 H 0.95314 0.56931 0.8906 0.0
H157 H 0.90278 0.58327 0.89883 0.0
H158 H 0.89571 0.53272 0.94806 0.0
H159 H 0.94519 0.51805 0.93951 0.0
Nd160 Nd 0.60623 0.61994 0.93536 0.0
Nd161 Nd 0.57624 0.53257 0.92729 0.0
C162 C 0.62933 0.69063 0.94573 0.0
C163 C 0.61772 0.71945 0.9423 0.0
C164 C 0.58301 0.70935 0.93406 0.0
C165 C 0.57229 0.73689 0.93085 0.0
C166 C 0.59612 0.77524 0.93574 0.0
C167 C 0.63099 0.78514 0.94393 0.0
C168 C 0.64161 0.75756 0.94716 0.0
C169 C 0.6086 0.60283 0.90139 0.0
C170 C 0.51522 0.56356 0.92785 0.0
C171 C 0.55875 0.4668 0.91272 0.0
C172 C 0.53735 0.42562 0.91656 0.0
C173 C 0.53161 0.39942 0.90369 0.0
C174 C 0.51604 0.36065 0.90747 0.0
C175 C 0.50589 0.34721 0.92424 0.0
C176 C 0.51057 0.37352 0.93704 0.0
C177 C 0.52616 0.41237 0.93322 0.0
C178 C 0.56672 0.5404 0.96145 0.0
C179 C 0.66551 0.58671 0.93905 0.0
O180 O 0.60486 0.66015 0.95413 0.0
O181 O 0.64521 0.6826 0.93312 0.0
O182 O 0.59675 0.62547 0.90687 0.0
O183 O 0.61578 0.58823 0.91397 0.0
O184 O 0.54115 0.59478 0.93565 0.0
O185 O 0.52403 0.53922 0.9208 0.0
O186 O 0.58944 0.48692 0.92189 0.0
O187 O 0.53916 0.48423 0.91006 0.0
O188 O 0.55609 0.50781 0.95425 0.0
O189 O 0.58041 0.5663 0.95044 0.0
O190 O 0.63984 0.5552 0.93139 0.0
O191 O 0.65897 0.61475 0.94323 0.0
H192 H 0.56421 0.68014 0.93007 0.0
H193 H 0.54552 0.72816 0.92433 0.0
H194 H 0.64988 0.81415 0.9481 0.0
H195 H 0.66851 0.76601 0.95353 0.0
H196 H 0.54046 0.40913 0.89079 0.0
H197 H 0.51348 0.34148 0.89731 0.0
H198 H 0.50269 0.3642 0.95004 0.0
H199 H 0.53051 0.4322 0.94337 0.0
Nd200 Nd 0.46002 1.00598 0.93827 0.0
Nd201 Nd 0.5416 0.06651 0.92255 0.0
C202 C 0.4039 0.94998 0.95565 0.0
C203 C 0.37755 0.90924 0.95197 0.0
C204 C 0.35776 0.88358 0.96515 0.0
C205 C 0.33225 0.845 0.9616 0.0
C206 C 0.32595 0.83145 0.94476 0.0
C207 C 0.34636 0.8573 0.93163 0.0
C208 C 0.37199 0.89574 0.9352 0.0
C209 C 0.45547 0.02665 0.90571 0.0
C210 C 0.51835 0.97613 0.92405 0.0
C211 C 0.60168 0.11654 0.90496 0.0
C212 C 0.64139 0.14552 0.90957 0.0
C213 C 0.65848 0.18171 0.90199 0.0
C214 C 0.69501 0.21032 0.90701 0.0
C215 C 0.71537 0.20335 0.91973 0.0
C216 C 0.69848 0.16678 0.92707 0.0
C217 C 0.66179 0.13823 0.92212 0.0
C218 C 0.54485 0.06383 0.95781 0.0
C219 C 0.48339 0.0939 0.93639 0.0
O220 O 0.43995 0.96006 0.95771 0.0
O221 O 0.39936 0.97428 0.94637 0.0
O222 O 0.42767 1.01339 0.91658 0.0
O223 O 0.48357 0.02343 0.91117 0.0
O224 O 0.48467 0.96766 0.93046 0.0
O225 O 0.54422 1.01124 0.9195 0.0
O226 O 0.57483 0.12328 0.91021 0.0
O227 O 0.59226 0.08064 0.90662 0.0
O228 O 0.57448 0.08534 0.9486 0.0
O229 O 0.51726 0.04573 0.94805 0.0
O230 O 0.50638 0.09662 0.92386 0.0
O231 O 0.46785 0.06411 0.94681 0.0
H232 H 0.36178 0.89342 0.97818 0.0
H233 H 0.31681 0.82598 0.97201 0.0
H234 H 0.34268 0.84777 0.91856 0.0
H235 H 0.38734 0.91501 0.92485 0.0
H236 H 0.6433 0.18805 0.89233 0.0
H237 H 0.70732 0.238 0.90093 0.0
H238 H 0.71315 0.16054 0.937 0.0
H239 H 0.64913 0.11067 0.92833 0.0
Nd240 Nd 0.1493 0.39066 0.44125 0.0
Nd241 Nd 0.18856 0.34304 0.454 0.0
C242 C 0.13124 0.44187 0.43055 0.0
C243 C 0.14864 0.48376 0.43039 0.0
C244 C 0.12629 0.49994 0.42573 0.0
C245 C 0.14003 0.53897 0.42812 0.0
C246 C 0.17648 0.56262 0.43523 0.0
C247 C 0.19941 0.54651 0.43927 0.0
C248 C 0.18549 0.5074 0.43697 0.0
C249 C 0.12532 0.35518 0.47197 0.0
C250 C 0.23992 0.43487 0.45463 0.0
C251 C 0.20946 0.29962 0.47059 0.0
C252 C 0.2157 0.26801 0.46576 0.0
C253 C 0.23702 0.25772 0.47634 0.0
C254 C 0.24443 0.22873 0.47149 0.0
C255 C 0.23059 0.20952 0.45593 0.0
C256 C 0.20928 0.22012 0.44534 0.0
C257 C 0.20199 0.24915 0.4502 0.0
C258 C 0.19813 0.35606 0.41928 0.0
C259 C 0.10274 0.29919 0.43617 0.0
O260 O 0.1457 0.42642 0.42052 0.0
O261 O 0.12328 0.42658 0.44568 0.0
O262 O 0.10346 0.35847 0.46087 0.0
O263 O 0.16015 0.37245 0.46728 0.0
O264 O 0.21271 0.43639 0.44583 0.0
O265 O 0.23488 0.40292 0.46147 0.0
O266 O 0.17398 0.29259 0.47009 0.0
O267 O 0.23392 0.33294 0.46419 0.0
O268 O 0.21173 0.33762 0.42746 0.0
O269 O 0.18174 0.3663 0.42969 0.0
O270 O 0.12722 0.29771 0.44696 0.0
O271 O 0.10725 0.33176 0.42992 0.0
H272 H 0.09761 0.48213 0.42079 0.0
H273 H 0.12184 0.55052 0.42465 0.0
H274 H 0.22743 0.56377 0.44492 0.0
H275 H 0.20288 0.49536 0.44097 0.0
H276 H 0.24804 0.27217 0.48835 0.0
H277 H 0.26049 0.22098 0.48004 0.0
H278 H 0.1986 0.20628 0.4332 0.0
H279 H 0.18586 0.25706 0.44175 0.0
Nd280 Nd 0.6876 0.78548 0.4459 0.0
Nd281 Nd 0.73588 0.8673 0.45533 0.0
C282 C 0.63475 0.71465 0.43811 0.0
C283 C 0.59307 0.69056 0.43572 0.0
C284 C 0.56808 0.70416 0.43971 0.0
C285 C 0.52852 0.6789 0.44078 0.0
C286 C 0.5134 0.63954 0.43807 0.0
C287 C 0.53846 0.62647 0.43323 0.0
C288 C 0.57788 0.65174 0.43208 0.0
C289 C 0.7281 0.79626 0.47551 0.0
C290 C 0.6447 0.83261 0.4583 0.0
C291 C 0.77602 0.93786 0.46715 0.0
C292 C 0.80961 0.97388 0.46174 0.0
C293 C 0.81748 1.00817 0.46953 0.0
C294 C 0.84802 0.04293 0.46392 0.0
C295 C 0.8713 0.04406 0.45037 0.0
C296 C 0.86329 1.00945 0.44262 0.0
C297 C 0.83266 0.97468 0.44823 0.0
C298 C 0.72379 0.85506 0.42091 0.0
C299 C 0.77828 0.82495 0.43932 0.0
O300 O 0.65482 0.7403 0.42653 0.0
O301 O 0.64534 0.72704 0.45359 0.0
O302 O 0.72424 0.77276 0.46359 0.0
O303 O 0.71037 0.814 0.47189 0.0
O304 O 0.64116 0.80199 0.45069 0.0
O305 O 0.67829 0.86003 0.4634 0.0
O306 O 0.78204 0.91018 0.47185 0.0
O307 O 0.7456 0.926 0.45763 0.0
O308 O 0.7561 0.8799 0.42755 0.0
O309 O 0.69877 0.83869 0.43222 0.0
O310 O 0.78113 0.85034 0.45061 0.0
O311 O 0.74465 0.79896 0.43307 0.0
H312 H 0.57928 0.73392 0.44281 0.0
H313 H 0.51008 0.68988 0.44462 0.0
H314 H 0.5277 0.59644 0.4308 0.0
H315 H 0.5967 0.64061 0.42913 0.0
H316 H 0.79984 1.0081 0.47991 0.0
H317 H 0.85367 0.06889 0.47036 0.0
H318 H 0.88033 1.00925 0.43205 0.0
H319 H 0.82672 0.94848 0.44192 0.0
Nd320 Nd 0.29489 0.9248 0.44461 0.0
Nd321 Nd 0.21132 0.88954 0.45153 0.0
C322 C 0.36694 0.95265 0.435 0.0
C323 C 0.39564 0.94054 0.43833 0.0
C324 C 0.41127 0.93022 0.42479 0.0
C325 C 0.43703 0.91709 0.42785 0.0
C326 C 0.44798 0.91421 0.44453 0.0
C327 C 0.4325 0.92486 0.45805 0.0
C328 C 0.4066 0.93772 0.45501 0.0
C329 C 0.27914 0.92724 0.47866 0.0
C330 C 0.24995 0.8362 0.45453 0.0
C331 C 0.13889 0.85262 0.46154 0.0
C332 C 0.10231 0.84967 0.45669 0.0
C333 C 0.0686 0.82287 0.46482 0.0
C334 C 0.03326 0.81835 0.45986 0.0
C335 C 1.03098 0.84057 0.44664 0.0
C336 C 0.06502 0.86753 0.43854 0.0
C337 C 0.10038 0.872 0.44351 0.0
C338 C 0.22878 0.89618 0.41763 0.0
C339 C 0.25421 0.97786 0.44121 0.0
O340 O 0.33783 0.93017 0.42539 0.0
O341 O 0.35681 0.96596 0.44787 0.0
O342 O 0.30241 0.91641 0.47296 0.0
O343 O 0.26265 0.93286 0.46633 0.0
O344 O 0.27847 0.86198 0.44544 0.0
O345 O 0.22521 0.84427 0.46155 0.0
O346 O 0.16484 0.88485 0.46828 0.0
O347 O 0.15319 0.839 0.45054 0.0
O348 O 0.20252 0.90193 0.424 0.0
O349 O 0.24357 0.88533 0.42887 0.0
O350 O 0.22429 0.95059 0.44917 0.0
O351 O 0.28345 0.97364 0.4364 0.0
H352 H 0.40334 0.93205 0.41183 0.0
H353 H 0.44868 0.90956 0.41712 0.0
H354 H 0.43985 0.92257 0.47106 0.0
H355 H 0.39487 0.94503 0.46578 0.0
H356 H 0.06959 0.80529 0.47497 0.0
H357 H 1.00778 0.7978 0.46656 0.0
H358 H 0.0643 0.88486 0.42821 0.0
H359 H 0.12617 0.89261 0.43699 0.0
Nd360 Nd 0.74579 0.80467 0.27358 0.0
Nd361 Nd 0.68389 0.83063 0.25976 0.0
C362 C 0.79768 0.79603 0.29036 0.0
C363 C 0.83847 0.80917 0.28676 0.0
C364 C 0.86165 0.8443 0.27861 0.0
C365 C 0.90004 0.85652 0.27496 0.0
C366 C 0.9161 0.83369 0.27918 0.0
C367 C 0.89273 0.79836 0.28723 0.0
C368 C 0.85433 0.78629 0.29102 0.0
C369 C 0.73658 0.79796 0.2385 0.0
C370 C 0.77535 0.89561 0.26451 0.0
C371 C 0.63741 0.84762 0.24312 0.0
C372 C 0.60996 0.85969 0.24842 0.0
C373 C 0.59972 0.88007 0.23722 0.0
C374 C 0.57347 0.89134 0.24221 0.0
C375 C 0.55695 0.88238 0.25851 0.0
C376 C 0.56786 0.86246 0.26977 0.0
C377 C 0.59407 0.85127 0.26478 0.0
C378 C 0.6868 0.82801 0.29504 0.0
C379 C 0.65626 0.7411 0.26723 0.0
O380 O 0.78948 0.82284 0.29384 0.0
O381 O 0.77253 0.7697 0.28022 0.0
O382 O 0.75961 0.79049 0.24702 0.0
O383 O 0.72363 0.8127 0.24872 0.0
O384 O 0.78229 0.8699 0.27153 0.0
O385 O 0.74172 0.88696 0.25781 0.0
O386 O 0.62838 0.81263 0.24713 0.0
O387 O 0.67367 0.87235 0.2457 0.0
O388 O 0.66421 0.83683 0.287 0.0
O389 O 0.70526 0.82126 0.2842 0.0
O390 O 0.65381 0.7657 0.25694 0.0
O391 O 0.68597 0.75081 0.27755 0.0
H392 H 0.85003 0.86229 0.27492 0.0
H393 H 0.91696 0.88358 0.26854 0.0
H394 H 0.90423 0.78019 0.29077 0.0
H395 H 0.837 0.75903 0.29723 0.0
H396 H 0.61177 0.88698 0.22456 0.0
H397 H 0.56543 0.90627 0.23315 0.0
H398 H 0.5562 0.85554 0.28249 0.0
H399 H 0.60175 0.83582 0.2737 0.0
Nd400 Nd 0.28267 0.96037 0.26776 0.0
Nd401 Nd 0.24736 0.87328 0.25672 0.0
C402 C 0.29963 0.03013 0.27698 0.0
C403 C 0.28214 0.05455 0.27821 0.0
C404 C 0.24591 0.04303 0.27121 0.0
C405 C 0.23272 0.06909 0.26966 0.0
C406 C 0.2557 0.10728 0.27493 0.0
C407 C 0.29129 0.11812 0.28257 0.0
C408 C 0.30433 0.09203 0.28417 0.0
C409 C 0.30693 0.94792 0.23723 0.0
C410 C 0.19061 0.90835 0.25718 0.0
C411 C 0.22654 0.80838 0.24065 0.0
C412 C 0.21636 0.76902 0.24512 0.0
C413 C 0.21728 0.74493 0.23261 0.0
C414 C 0.20535 0.70677 0.23634 0.0
C415 C 0.19209 0.69184 0.25269 0.0
C416 C 0.19203 0.71641 0.26532 0.0
C417 C 0.20406 0.75464 0.26157 0.0
C418 C 0.24033 0.87874 0.2915 0.0
C419 C 0.33418 0.92038 0.27294 0.0
O420 O 0.28946 1.0022 0.28793 0.0
O421 O 0.30311 0.02055 0.26152 0.0
O422 O 0.32836 0.97412 0.24798 0.0
O423 O 0.2723 0.92948 0.2422 0.0
O424 O 0.21796 0.93927 0.26471 0.0
O425 O 0.19685 0.88185 0.25079 0.0
O426 O 0.26242 0.83497 0.2426 0.0
O427 O 0.20243 0.81916 0.24562 0.0
O428 O 0.22911 0.84652 0.28382 0.0
O429 O 0.25387 0.90471 0.28063 0.0
O430 O 0.31019 0.89313 0.26255 0.0
O431 O 0.32801 0.94758 0.27893 0.0
H432 H 0.22858 1.01439 0.26628 0.0
H433 H 0.20531 0.05977 0.26363 0.0
H434 H 0.30945 0.14706 0.28703 0.0
H435 H 0.33252 0.10161 0.28946 0.0
H436 H 0.22679 0.75551 0.21987 0.0
H437 H 0.20658 0.68898 0.22638 0.0
H438 H 0.18179 0.70591 0.27799 0.0
H439 H 0.20307 0.77278 0.27142 0.0
Nd440 Nd 0.12658 0.34402 0.27179 0.0
Nd441 Nd 0.20531 0.39835 0.25846 0.0
C442 C 0.06613 0.28953 0.28792 0.0
C443 C 0.03662 0.24926 0.28454 0.0
C444 C 1.02479 0.22223 0.29766 0.0
C445 C 0.99675 0.1841 0.29474 0.0
C446 C 0.97972 0.17212 0.27862 0.0
C447 C 0.99174 0.19932 0.26548 0.0
C448 C 1.01997 0.23739 0.26838 0.0
C449 C 0.12339 0.36052 0.23845 0.0
C450 C 0.18359 0.31077 0.2596 0.0
C451 C 0.26948 0.45563 0.24578 0.0
C452 C 0.31136 0.47642 0.24855 0.0
C453 C 0.33532 0.50179 0.23607 0.0
C454 C 0.37468 0.52476 0.239 0.0
C455 C 0.39113 0.52292 0.25452 0.0
C456 C 0.367 0.49675 0.2669 0.0
C457 C 0.32752 0.47375 0.26394 0.0
C458 C 0.20215 0.38239 0.2927 0.0
C459 C 0.14877 0.4301 0.26789 0.0
O460 O 0.10107 0.2965 0.2906 0.0
O461 O 0.06505 0.31561 0.27851 0.0
O462 O 0.09598 0.35078 0.24925 0.0
O463 O 0.15058 0.35674 0.24457 0.0
O464 O 0.15267 0.30509 0.26785 0.0
O465 O 0.2075 0.34415 0.2528 0.0
O466 O 0.24896 0.45963 0.25753 0.0
O467 O 0.25352 0.42077 0.23988 0.0
O468 O 0.22913 0.3856 0.28278 0.0
O469 O 0.17914 0.389 0.28473 0.0
O470 O 0.17133 0.42958 0.25597 0.0
O471 O 0.13311 0.4022 0.27916 0.0
H472 H 0.03717 0.23065 0.31023 0.0
H473 H 0.98799 0.16411 0.30521 0.0
H474 H 0.9797 0.19108 0.25285 0.0
H475 H 1.02878 0.25752 0.25796 0.0
H476 H 0.32341 0.50463 0.22418 0.0
H477 H 0.39197 0.5449 0.22925 0.0
H478 H 0.37857 0.49414 0.27892 0.0
H479 H 0.3095 0.45442 0.27379 0.0
Nd480 Nd 0.82145 0.73506 0.77467 0.0
Nd481 Nd 0.84101 0.67319 0.79018 0.0
C482 C 0.82095 0.79085 0.75738 0.0
C483 C 0.83267 0.83062 0.76173 0.0
C484 C 0.84223 0.85793 0.7489 0.0
C485 C 0.85431 0.89596 0.75306 0.0
C486 C 0.85694 0.90728 0.77014 0.0
C487 C 0.84737 0.87972 0.78295 0.0
C488 C 0.83554 0.84181 0.77879 0.0
C489 C 0.79854 0.71628 0.8076 0.0
C490 C 0.90987 0.76301 0.78788 0.0
C491 C 0.85164 0.62426 0.80833 0.0
C492 C 0.86314 0.59561 0.80445 0.0
C493 C 0.84255 0.55902 0.81155 0.0
C494 C 0.85134 0.53073 0.80723 0.0
C495 C 0.88108 0.53847 0.79574 0.0
C496 C 0.9023 0.57544 0.78892 0.0
C497 C 0.89326 0.60368 0.79315 0.0
C498 C 0.8447 0.67486 0.75482 0.0
C499 C 0.75537 0.64791 0.7774 0.0
O500 O 0.84868 0.78302 0.75631 0.0
O501 O 0.79104 0.7645 0.76547 0.0
O502 O 0.78434 0.73053 0.79705 0.0
O503 O 0.8286 0.7178 0.80157 0.0
O504 O 0.88498 0.77227 0.78181 0.0
O505 O 0.90003 0.72766 0.79229 0.0
O506 O 0.818 0.61667 0.80266 0.0
O507 O 0.8778 0.66025 0.80655 0.0
O508 O 0.85123 0.65195 0.76388 0.0
O509 O 0.83723 0.69417 0.76476 0.0
O510 O 0.77579 0.6451 0.78986 0.0
O511 O 0.77003 0.67709 0.76665 0.0
H512 H 0.8404 0.84985 0.73567 0.0
H513 H 0.86114 0.9164 0.74289 0.0
H514 H 0.84958 0.88757 0.79622 0.0
H515 H 0.82878 0.82123 0.7889 0.0
H516 H 0.81922 0.55213 0.82027 0.0
H517 H 0.83475 0.50268 0.81286 0.0
H518 H 0.92512 0.58221 0.77993 0.0
H519 H 0.90942 0.63159 0.78734 0.0
Nd520 Nd 0.35377 0.12249 0.7786 0.0
Nd521 Nd 0.41432 0.20966 0.78614 0.0
C522 C 0.30545 0.05211 0.76808 0.0
C523 C 0.2651 0.02317 0.77148 0.0
C524 C 0.24054 0.033 0.77987 0.0
C525 C 0.20224 1.00537 0.78292 0.0
C526 C 0.18767 0.96724 0.7777 0.0
C527 C 0.21263 0.95758 0.76941 0.0
C528 C 0.25089 0.98526 0.76634 0.0
C529 C 0.3763 0.13958 0.81231 0.0
C530 C 0.3223 0.18152 0.78618 0.0
C531 C 0.46372 0.2752 0.8005 0.0
C532 C 0.48174 0.31641 0.79707 0.0
C533 C 0.50321 0.34241 0.80985 0.0
C534 C 0.52494 0.38141 0.80625 0.0
C535 C 0.52571 0.39523 0.78974 0.0
C536 C 0.50297 0.36909 0.77709 0.0
C537 C 0.48115 0.33002 0.78072 0.0
C538 C 0.39527 0.20069 0.75207 0.0
C539 C 0.4459 0.1534 0.77396 0.0
O540 O 0.31129 0.08281 0.75993 0.0
O541 O 0.32953 0.05976 0.78062 0.0
O542 O 0.34119 0.11738 0.80732 0.0
O543 O 0.3972 0.15363 0.79942 0.0
O544 O 0.31501 0.14897 0.77905 0.0
O545 O 0.35658 0.20609 0.7923 0.0
O546 O 0.4735 0.25622 0.79018 0.0
O547 O 0.42722 0.25668 0.8044 0.0
O548 O 0.41994 0.23315 0.75871 0.0
O549 O 0.38249 0.17585 0.76353 0.0
O550 O 0.45321 0.18465 0.78226 0.0
O551 O 0.41069 0.12662 0.76968 0.0
H552 H 0.25099 0.06208 0.78406 0.0
H553 H 0.18415 1.01385 0.78954 0.0
H554 H 0.20244 0.92873 0.765 0.0
H555 H 0.26935 0.97707 0.75984 0.0
H556 H 0.50433 0.3324 0.82249 0.0
H557 H 0.54249 0.4005 0.81627 0.0
H558 H 0.50252 0.37874 0.7643 0.0
H559 H 0.4648 0.31033 0.77066 0.0
Nd560 Nd 0.96707 0.26786 0.77905 0.0
Nd561 Nd 0.88242 0.2282 0.78662 0.0
C562 C 0.03937 0.29877 0.76891 0.0
C563 C 0.06801 0.28612 0.77016 0.0
C564 C 0.1065 0.31117 0.76609 0.0
C565 C 0.13403 0.29988 0.76813 0.0
C566 C 0.12367 0.26321 0.77429 0.0
C567 C 0.08489 0.23812 0.77822 0.0
C568 C 0.05746 0.24949 0.77622 0.0
C569 C 0.95086 0.26741 0.8132 0.0
C570 C 0.92555 0.17909 0.78854 0.0
C571 C 0.81042 0.1882 0.7971 0.0
C572 C 0.77254 0.18287 0.79269 0.0
C573 C 0.74173 0.16289 0.80381 0.0
C574 C 0.70512 0.15596 0.79949 0.0
C575 C 0.69858 0.16886 0.7839 0.0
C576 C 0.72976 0.18907 0.77281 0.0
C577 C 0.76639 0.19603 0.77717 0.0
C578 C 0.89956 0.23647 0.7527 0.0
C579 C 0.92213 0.31742 0.77737 0.0
O580 O 1.01009 0.27906 0.75888 0.0
O581 O 1.0292 0.30702 0.78331 0.0
O582 O 0.97558 0.25882 0.80719 0.0
O583 O 0.93355 0.27252 0.80108 0.0
O584 O 0.95237 0.20558 0.77899 0.0
O585 O 0.90025 0.18548 0.79619 0.0
O586 O 0.83538 0.22102 0.80374 0.0
O587 O 0.82563 0.17583 0.78595 0.0
O588 O 0.87192 0.23979 0.75924 0.0
O589 O 0.91571 0.22683 0.76379 0.0
O590 O 0.8929 0.28854 0.785 0.0
O591 O 0.95263 0.31558 0.7723 0.0
H592 H 0.11535 0.33962 0.76146 0.0
H593 H 0.16344 0.31985 0.76476 0.0
H594 H 0.07577 0.20992 0.78323 0.0
H595 H 1.02803 0.22979 0.77965 0.0
H596 H 0.74594 0.15246 0.81583 0.0
H597 H 0.68205 0.14092 0.80848 0.0
H598 H 0.72581 0.19909 0.76064 0.0
H599 H 0.78982 0.21133 0.76836 0.0
Nd600 Nd 0.40746 0.13815 0.60498 0.0
Nd601 Nd 0.35662 0.17301 0.59097 0.0
C602 C 0.45857 0.12267 0.61825 0.0
C603 C 0.50042 0.13955 0.61775 0.0
C604 C 0.52411 0.1769 0.61183 0.0
C605 C 0.56302 0.19047 0.60881 0.0
C606 C 0.57878 0.16672 0.61149 0.0
C607 C 0.55514 0.12979 0.61801 0.0
C608 C 0.51633 0.11635 0.62108 0.0
C609 C 0.37486 0.11271 0.57374 0.0
C610 C 0.44919 0.22817 0.59131 0.0
C611 C 0.31313 0.19242 0.5735 0.0
C612 C 0.28059 0.19739 0.57806 0.0
C613 C 0.2706 0.21927 0.56772 0.0
C614 C 0.24129 0.22623 0.57263 0.0
C615 C 0.22154 0.21142 0.58799 0.0
C616 C 0.23171 0.18942 0.59829 0.0
C617 C 0.26102 0.18255 0.59339 0.0
C618 C 0.36571 0.18081 0.62601 0.0
C619 C 0.3154 0.08837 0.60882 0.0
O620 O 0.44464 0.1411 0.62654 0.0
O621 O 0.44148 0.10919 0.60372 0.0
O622 O 0.3798 0.09219 0.58496 0.0
O623 O 0.38963 0.14733 0.57848 0.0
O624 O 0.45238 0.20121 0.59945 0.0
O625 O 0.41637 0.22245 0.58504 0.0
O626 O 0.30712 0.15739 0.57396 0.0
O627 O 0.34586 0.21736 0.58028 0.0
O628 O 0.34472 0.19122 0.61766 0.0
O629 O 0.37928 0.16761 0.61559 0.0
O630 O 0.31323 0.11087 0.59718 0.0
O631 O 0.34822 0.09542 0.61595 0.0
H632 H 0.51226 0.19506 0.60894 0.0
H633 H 0.58035 0.21894 0.60368 0.0
H634 H 0.56651 0.11099 0.62047 0.0
H635 H 0.49843 0.08732 0.62551 0.0
H636 H 0.28567 0.23122 0.55592 0.0
H637 H 0.23384 0.24285 0.5643 0.0
H638 H 0.21744 0.17799 0.61029 0.0
H639 H 0.26875 0.16604 0.60167 0.0
Nd640 Nd 0.9388 0.27822 0.60085 0.0
Nd641 Nd 0.90196 0.19419 0.59317 0.0
C642 C 0.96757 0.34975 0.61108 0.0
C643 C 0.95577 0.37879 0.60827 0.0
C644 C 0.94563 0.39375 0.62213 0.0
C645 C 0.93255 0.41964 0.61957 0.0
C646 C 0.9295 0.4314 0.60309 0.0
C647 C 0.94013 0.41675 0.58925 0.0
C648 C 0.95295 0.3907 0.59179 0.0
C649 C 0.94032 0.26294 0.56673 0.0
C650 C 0.85017 0.23484 0.5906 0.0
C651 C 0.8648 0.12247 0.58245 0.0
C652 C 0.86195 0.0858 0.58688 0.0
C653 C 0.83675 0.05284 0.57785 0.0
C654 C 0.83237 1.01741 0.58237 0.0
C655 C 0.85315 1.01428 0.59605 0.0
C656 C 0.87852 0.04758 0.60505 0.0
C657 C 0.88286 0.08302 0.60051 0.0
C658 C 0.90861 0.21093 0.62711 0.0
C659 C 0.99051 0.23605 0.60384 0.0
O660 O 0.94501 0.32046 0.62055 0.0
O661 O 0.98043 0.33995 0.59791 0.0
O662 O 0.93029 0.2866 0.57266 0.0
O663 O 0.94586 0.24603 0.57889 0.0
O664 O 0.87618 0.26269 0.59992 0.0
O665 O 0.85745 0.20965 0.58349 0.0
O666 O 0.8971 0.14865 0.57582 0.0
O667 O 0.85116 0.13626 0.5937 0.0
O668 O 0.91308 0.18393 0.62071 0.0
O669 O 0.89854 0.22641 0.6159 0.0
O670 O 0.963 0.2066 0.59572 0.0
O671 O 0.98688 0.26546 0.60881 0.0
H672 H 0.94749 0.3851 0.63495 0.0
H673 H 0.92506 0.43067 0.63054 0.0
H674 H 0.93774 0.42478 0.57638 0.0
H675 H 0.96017 0.37955 0.58078 0.0
H676 H 0.8203 0.05448 0.56733 0.0
H677 H 0.81308 0.99256 0.57498 0.0
H678 H 0.89468 0.04621 0.61575 0.0
H679 H 0.90225 0.10818 0.60772 0.0
Nd680 Nd 0.80105 0.66958 0.60209 0.0
Nd681 Nd 0.88444 0.71858 0.59461 0.0
C682 C 0.72978 0.62469 0.61255 0.0
C683 C 0.70165 0.58368 0.60974 0.0
C684 C 0.683 0.55965 0.6236 0.0
C685 C 0.65736 0.52061 0.62111 0.0
C686 C 0.64962 0.50475 0.60468 0.0
C687 C 0.66829 0.52895 0.59082 0.0
C688 C 0.6941 0.56785 0.59332 0.0
C689 C 0.81544 0.69053 0.56819 0.0
C690 C 0.84664 0.62716 0.59056 0.0
C691 C 0.95648 0.75559 0.58414 0.0
C692 C 0.99237 0.78971 0.58913 0.0
C693 C 1.02667 0.79761 0.58126 0.0
C694 C 0.06136 0.82892 0.58642 0.0
C695 C 0.06235 0.85289 0.5996 0.0
C696 C 1.02771 0.84481 0.60743 0.0
C697 C 0.99302 0.81344 0.60225 0.0
C698 C 0.86835 0.70605 0.62857 0.0
C699 C 0.8412 0.76298 0.60648 0.0
O700 O 0.75963 0.63232 0.62186 0.0
O701 O 0.73867 0.64723 0.59939 0.0
O702 O 0.79199 0.65613 0.57347 0.0
O703 O 0.83236 0.71147 0.58075 0.0
O704 O 0.81838 0.62378 0.6001 0.0
O705 O 0.87072 0.66029 0.58364 0.0
O706 O 0.92971 0.76111 0.57767 0.0
O707 O 0.94314 0.72736 0.59496 0.0
O708 O 0.89422 0.73831 0.6223 0.0
O709 O 0.85319 0.68095 0.61715 0.0
O710 O 0.8709 0.76614 0.59808 0.0
O711 O 0.81228 0.72925 0.61115 0.0
H712 H 0.6884 0.57106 0.63638 0.0
H713 H 0.64324 0.50291 0.63206 0.0
H714 H 0.66347 0.51768 0.57803 0.0
H715 H 0.70837 0.58544 0.58236 0.0
H716 H 1.02666 0.77944 0.57115 0.0
H717 H 0.08735 0.83463 0.57993 0.0
H718 H 1.02746 0.86244 0.61771 0.0
H719 H 0.96676 0.80749 0.60858 0.0
H720 H 0.52148 0.81637 0.10255 0.0
H721 H 0.65812 0.72573 0.10671 0.0
H722 H 0.63906 0.87939 0.11923 0.0
H723 H 0.53635 0.66197 0.09774 0.0
H724 H 0.65543 0.78514 0.10587 0.0
H725 H 0.53011 0.76245 0.09558 0.0
C726 C 0.54917 0.81887 0.10473 0.0
C727 C 0.57939 0.85221 0.11176 0.0
C728 C 0.62945 0.75814 0.10381 0.0
C729 C 0.58964 0.7905 0.10369 0.0
C730 C 0.63105 0.72432 0.10414 0.0
C731 C 0.59734 0.68897 0.10246 0.0
C732 C 0.59395 0.75635 0.10164 0.0
C733 C 0.56295 0.68864 0.09931 0.0
C734 C 0.55417 0.78813 0.10066 0.0
C735 C 0.61496 0.85419 0.11387 0.0
N736 N 0.5621 0.72173 0.09914 0.0
N737 N 0.619 0.82357 0.11003 0.0
H738 H 0.43443 0.91018 0.09201 0.0
H739 H 0.21805 0.79558 0.12329 0.0
H740 H 0.37147 0.96598 0.10655 0.0
H741 H 0.27823 0.74243 0.10173 0.0
H742 H 0.2717 0.85817 0.11541 0.0
H743 H 0.3753 0.84878 0.09289 0.0
C744 C 0.40791 0.90953 0.09506 0.0
C745 C 0.40785 0.94318 0.09928 0.0
C746 C 0.27295 0.83278 0.11224 0.0
C747 C 0.33998 0.87269 0.10078 0.0
C748 C 0.24246 0.79703 0.11685 0.0
C749 C 0.24369 0.76361 0.1133 0.0
C750 C 0.30511 0.83522 0.10414 0.0
C751 C 0.2758 0.76727 0.10465 0.0
C752 C 0.37413 0.87441 0.09563 0.0
C753 C 0.37271 0.9407 0.10312 0.0
N754 N 0.30529 0.80236 0.10053 0.0
N755 N 0.34022 0.90594 0.10407 0.0
H756 H 0.18923 0.55814 0.09555 0.0
H757 H 0.30307 0.45564 0.12654 0.0
H758 H 0.13239 0.43998 0.11082 0.0
H759 H 0.35643 0.56757 0.10368 0.0
H760 H 0.24021 0.44699 0.11909 0.0
H761 H 0.25031 0.55948 0.09588 0.0
C762 C 0.1896 0.53221 0.09865 0.0
C763 C 0.15582 0.49895 0.10323 0.0
C764 C 0.26571 0.47324 0.11553 0.0
C765 C 0.22588 0.50049 0.10412 0.0
C766 C 0.3016 0.47833 0.1199 0.0
C767 C 0.33514 0.51252 0.11585 0.0
C768 C 0.26331 0.5027 0.10718 0.0
C769 C 0.33147 0.54065 0.10697 0.0
C770 C 0.22451 0.533 0.0989 0.0
C771 C 0.15783 0.46614 0.10713 0.0
N772 N 0.29628 0.53524 0.1031 0.0
N773 N 0.19245 0.4679 0.10779 0.0
H774 H 0.83042 0.51333 0.94255 0.0
H775 H 0.73732 0.64708 0.93203 0.0
H776 H 0.88821 0.62245 0.91714 0.0
H777 H 0.67854 0.53226 0.95163 0.0
H778 H 0.79682 0.64399 0.93067 0.0
H779 H 0.77853 0.52492 0.94989 0.0
C780 C 0.83249 0.53998 0.93866 0.0
C781 C 0.86387 0.56686 0.92914 0.0
C782 C 0.77103 0.61978 0.93558 0.0
C783 C 0.80375 0.58016 0.93734 0.0
C784 C 0.73728 0.62175 0.93654 0.0
C785 C 0.70315 0.58989 0.94198 0.0
C786 C 0.7704 0.5858 0.94018 0.0
C787 C 0.70431 0.55742 0.94735 0.0
C788 C 0.80263 0.54651 0.94278 0.0
C789 C 0.86436 0.6006 0.92425 0.0
N790 N 0.73721 0.55613 0.94621 0.0
N791 N 0.8347 0.60622 0.92833 0.0
H792 H 0.49094 0.13911 0.96385 0.0
H793 H 0.45819 0.2833 0.90565 0.0
H794 H 0.457 0.11978 0.91127 0.0
H795 H 0.52349 0.31776 0.95221 0.0
H796 H 0.44371 0.21787 0.91071 0.0
H797 H 0.48879 0.19902 0.96293 0.0
C798 C 0.48192 0.14695 0.9523 0.0
C799 C 0.47404 0.12468 0.93762 0.0
C800 C 0.46091 0.23969 0.91991 0.0
C801 C 0.47188 0.19276 0.93639 0.0
C802 C 0.46937 0.27715 0.91699 0.0
C803 C 0.49268 0.30641 0.92835 0.0
C804 C 0.47574 0.2311 0.93434 0.0
C805 C 0.50537 0.29627 0.94308 0.0
C806 C 0.48107 0.18121 0.95171 0.0
C807 C 0.46326 0.13629 0.92285 0.0
N808 N 0.49708 0.25957 0.94556 0.0
N809 N 0.46265 0.16954 0.92258 0.0
H810 H 0.73669 0.27783 0.92606 0.0
H811 H 0.95791 0.34796 0.944 0.0
H812 H 0.78071 0.20012 0.92715 0.0
H813 H 0.9083 0.42083 0.94385 0.0
H814 H 0.89319 0.2921 0.94083 0.0
H815 H 0.79919 0.32936 0.93486 0.0
C816 C 0.75959 0.27161 0.92808 0.0
C817 C 0.75342 0.23459 0.92564 0.0
C818 C 0.8965 0.3203 0.9418 0.0
C819 C 0.82561 0.29383 0.93595 0.0
C820 C 0.93336 0.35209 0.9438 0.0
C821 C 0.93842 0.38903 0.94416 0.0
C822 C 0.86472 0.32571 0.94019 0.0
C823 C 0.90572 0.39286 0.94353 0.0
C824 C 0.79534 0.30107 0.93325 0.0
C825 C 0.78411 0.2282 0.92888 0.0
N826 N 0.8705 0.36178 0.94145 0.0
N827 N 0.81896 0.25756 0.93373 0.0
H828 H 0.19364 0.98611 0.43311 0.0
H829 H 0.29633 0.20527 0.45966 0.0
H830 H 0.31449 0.05146 0.44391 0.0
H831 H 0.18038 0.14144 0.44095 0.0
H832 H 0.30525 0.15112 0.45278 0.0
H833 H 0.19015 0.04447 0.43401 0.0
C834 C 0.21964 1.01301 0.4354 0.0
C835 C 0.25439 1.01405 0.43849 0.0
C836 C 0.27801 0.14916 0.45003 0.0
C837 C 0.25048 0.08112 0.43998 0.0
C838 C 0.27277 0.17993 0.45408 0.0
C839 C 0.23744 0.17788 0.45098 0.0
C840 C 0.2476 0.11593 0.44295 0.0
C841 C 0.20819 0.14454 0.44345 0.0
C842 C 0.21763 0.04636 0.43596 0.0
C843 C 0.28721 0.04957 0.44136 0.0
N844 N 0.21385 0.11489 0.43984 0.0
N845 N 0.28436 0.08174 0.44231 0.0
H846 H 1.02909 0.28501 0.4314 0.0
H847 H 0.94299 0.05918 0.44088 0.0
H848 H 0.09674 0.22963 0.43355 0.0
H849 H 0.87495 0.11361 0.44679 0.0
H850 H 0.99775 0.12068 0.43314 0.0
H851 H 0.97067 0.22186 0.43176 0.0
C852 C 1.03163 0.25958 0.43148 0.0
C853 C 0.06771 0.26247 0.43253 0.0
C854 C 0.97079 0.1192 0.43602 0.0
C855 C 1.00139 0.19049 0.43319 0.0
C856 C 0.93938 0.08396 0.44036 0.0
C857 C 0.90426 0.08112 0.44464 0.0
C858 C 0.9673 0.15209 0.43593 0.0
C859 C 0.90162 0.1145 0.4439 0.0
C860 C 0.99835 0.2236 0.43187 0.0
C861 C 0.06945 0.22867 0.43286 0.0
N862 N 0.93273 0.14859 0.43974 0.0
N863 N 0.03685 0.1942 0.43331 0.0
H864 H 0.96117 0.77463 0.4437 0.0
H865 H 0.8473 0.88749 0.43425 0.0
H866 H 1.01486 0.89694 0.43841 0.0
H867 H 0.7908 0.76462 0.4346 0.0
H868 H 0.909 0.89043 0.4325 0.0
H869 H 0.89898 0.76924 0.43786 0.0
C870 C 0.95994 0.80035 0.44126 0.0
C871 C 0.99337 0.83637 0.44172 0.0
C872 C 0.88323 0.86272 0.4327 0.0
C873 C 0.92224 0.8303 0.43487 0.0
C874 C 0.84796 0.86105 0.43364 0.0
C875 C 0.81404 0.82576 0.43463 0.0
C876 C 0.88478 0.82882 0.4331 0.0
C877 C 0.81639 0.79237 0.43376 0.0
C878 C 0.92444 0.79719 0.4378 0.0
C879 C 0.99004 0.86858 0.43811 0.0
N880 N 0.85131 0.7947 0.43334 0.0
N881 N 0.95516 0.86478 0.435 0.0
H882 H 0.34073 0.86136 0.28479 0.0
H883 H 0.55495 0.94842 0.25195 0.0
H884 H 0.4081 0.97808 0.26825 0.0
H885 H 0.49105 0.83879 0.27653 0.0
H886 H 0.50377 0.96197 0.25917 0.0
H887 H 0.39786 0.85514 0.28411 0.0
C888 C 0.36795 0.88603 0.28147 0.0
C889 C 0.36994 0.92037 0.27675 0.0
C890 C 0.5012 0.93515 0.26314 0.0
C891 C 0.43534 0.91313 0.27521 0.0
C892 C 0.53026 0.92724 0.2589 0.0
C893 C 0.52732 0.89229 0.26356 0.0
C894 C 0.46875 0.90779 0.27197 0.0
C895 C 0.49488 0.86624 0.27278 0.0
C896 C 0.40054 0.88243 0.28094 0.0
C897 C 0.40565 0.95132 0.27225 0.0
N898 N 0.46686 0.87438 0.27654 0.0
N899 N 0.43693 0.9468 0.27131 0.0
H900 H 0.14921 0.63017 0.23216 0.0
H901 H 0.15412 0.47603 0.2947 0.0
H902 H 0.2021 0.65933 0.2817 0.0
H903 H 0.13118 0.45965 0.24101 0.0
H904 H 0.15831 0.53886 0.29243 0.0
H905 H 0.12989 0.56357 0.23743 0.0
C906 C 0.15689 0.62265 0.24414 0.0
C907 C 0.17799 0.65071 0.25636 0.0
C908 C 0.15162 0.52112 0.28123 0.0
C909 C 0.15522 0.57393 0.26262 0.0
C910 C 0.1488 0.48519 0.28258 0.0
C911 C 0.14227 0.46285 0.26802 0.0
C912 C 0.14746 0.53427 0.26525 0.0
C913 C 0.13633 0.47616 0.25252 0.0
C914 C 0.14556 0.58448 0.2472 0.0
C915 C 0.18591 0.63879 0.27189 0.0
N916 N 0.13925 0.51101 0.25153 0.0
N917 N 0.17481 0.60136 0.27452 0.0
H918 H 0.6255 0.6972 0.23941 0.0
H919 H 0.42659 0.55935 0.2844 0.0
H920 H 0.61093 0.69695 0.29357 0.0
H921 H 0.45152 0.54708 0.23227 0.0
H922 H 0.49427 0.60654 0.28872 0.0
H923 H 0.5632 0.63923 0.23716 0.0
C924 C 0.60945 0.68428 0.2509 0.0
C925 C 0.62349 0.70163 0.26671 0.0
C926 C 0.48496 0.59322 0.27639 0.0
C927 C 0.55116 0.63578 0.26422 0.0
C928 C 0.44625 0.56607 0.2739 0.0
C929 C 0.43292 0.54928 0.25786 0.0
C930 C 0.51069 0.60394 0.26272 0.0
C931 C 0.46001 0.55972 0.24475 0.0
C932 C 0.57372 0.65126 0.24962 0.0
C933 C 0.60134 0.68406 0.28118 0.0
N934 N 0.49731 0.58648 0.24744 0.0
N935 N 0.56594 0.65239 0.27957 0.0
H936 H 0.82895 0.46518 0.78713 0.0
H937 H 0.98045 0.39274 0.77865 0.0
H938 H 0.9506 0.54137 0.7921 0.0
H939 H 0.85833 0.32209 0.77241 0.0
H940 H 0.9723 0.44911 0.78091 0.0
H941 H 0.84093 0.41377 0.77955 0.0
C942 C 0.85826 0.47106 0.78669 0.0
C943 C 0.88876 0.50755 0.79048 0.0
C944 C 0.94742 0.42129 0.7788 0.0
C945 C 0.90292 0.44852 0.78165 0.0
C946 C 0.95212 0.38923 0.77737 0.0
C947 C 0.91998 0.35271 0.77548 0.0
C948 C 0.91036 0.41656 0.77826 0.0
C949 C 0.88386 0.34965 0.77407 0.0
C950 C 0.86516 0.4417 0.78223 0.0
C951 C 0.92622 0.51364 0.78928 0.0
N952 N 0.88006 0.38097 0.77561 0.0
N953 N 0.93227 0.48434 0.78513 0.0
H954 H 0.71536 0.6047 0.74981 0.0
H955 H 0.54248 0.45816 0.8091 0.0
H956 H 0.70465 0.62134 0.80311 0.0
H957 H 0.56965 0.42606 0.76108 0.0
H958 H 0.59262 0.52401 0.80406 0.0
H959 H 0.65274 0.54534 0.7508 0.0
C960 C 0.69926 0.59641 0.76155 0.0
C961 C 0.71494 0.61766 0.77641 0.0
C962 C 0.58733 0.50263 0.79453 0.0
C963 C 0.64408 0.55026 0.77771 0.0
C964 C 0.55878 0.46495 0.79744 0.0
C965 C 0.55217 0.43625 0.78566 0.0
C966 C 0.6096 0.51193 0.77972 0.0
C967 C 0.57363 0.44713 0.77054 0.0
C968 C 0.66382 0.56247 0.76217 0.0
C969 C 0.69345 0.60555 0.79141 0.0
N970 N 0.60167 0.48401 0.76809 0.0
N971 N 0.65927 0.57261 0.7917 0.0
H972 H 0.51209 0.20653 0.75992 0.0
H973 H 0.62838 0.10481 0.78987 0.0
H974 H 0.4566 0.09232 0.78017 0.0
H975 H 0.67971 0.21746 0.7678 0.0
H976 H 0.56492 0.09637 0.78402 0.0
H977 H 0.57271 0.20696 0.75944 0.0
C978 C 0.51264 0.18114 0.76392 0.0
C979 C 0.47941 0.1493 0.77004 0.0
C980 C 0.59009 0.12276 0.78032 0.0
C981 C 0.54914 0.14996 0.77011 0.0
C982 C 0.62639 0.12777 0.78378 0.0
C983 C 0.65966 0.16208 0.77946 0.0
C984 C 0.58691 0.1523 0.77253 0.0
C985 C 0.65511 0.19041 0.77126 0.0
C986 C 0.54732 0.18147 0.76375 0.0
C987 C 0.4816 0.11725 0.77519 0.0
N988 N 0.61955 0.18498 0.76819 0.0
N989 N 0.51611 0.11859 0.77536 0.0
H990 H 0.99802 0.17491 0.61124 0.0
H991 H 0.21808 0.27753 0.58534 0.0
H992 H 0.06444 0.2959 0.60172 0.0
H993 H 0.15278 0.16062 0.6023 0.0
H994 H 0.16404 0.28653 0.59264 0.0
H995 H 0.05629 0.171 0.61016 0.0
C996 C 1.02513 0.20082 0.60919 0.0
C997 C 1.02652 0.23575 0.60649 0.0
C998 C 0.16174 0.25905 0.59492 0.0
C999 C 0.09345 0.23141 0.6048 0.0
C1000 C 0.19243 0.25377 0.59062 0.0
C1001 C 0.18991 0.21816 0.5931 0.0
C1002 C 0.12816 0.2284 0.60162 0.0
C1003 C 0.15622 0.18864 0.60026 0.0
C1004 C 0.05842 0.19859 0.60853 0.0
C1005 C 0.0623 0.26848 0.60394 0.0
N1006 N 0.12667 0.19435 0.60413 0.0
N1007 N 0.09441 0.26543 0.60288 0.0
H1008 H 0.90227 0.83287 0.61241 0.0
H1009 H 0.78759 0.94369 0.59672 0.0
H1010 H 0.77941 0.77464 0.60732 0.0
H1011 H 0.90931 0.99872 0.60574 0.0
H1012 H 0.78255 0.88182 0.60252 0.0
H1013 H 0.90381 0.89378 0.61265 0.0
C1014 C 0.87547 0.83294 0.61158 0.0
C1015 C 0.84066 0.79869 0.60974 0.0
C1016 C 0.81028 0.90748 0.60338 0.0
C1017 C 0.84224 0.86868 0.60965 0.0
C1018 C 0.81326 0.94283 0.59994 0.0
C1019 C 0.84902 0.9766 0.6006 0.0
C1020 C 0.84331 0.90578 0.60744 0.0
C1021 C 0.88111 0.97366 0.60518 0.0
C1022 C 0.87637 0.86779 0.61168 0.0
C1023 C 0.80682 0.80043 0.60882 0.0
N1024 N 0.87751 0.93895 0.60829 0.0
N1025 N 0.80848 0.83496 0.60853 0.0
H1026 H 0.30342 1.01645 0.61569 0.0
H1027 H 0.07597 0.92452 0.60765 0.0
H1028 H 0.24502 0.08079 0.61069 0.0
H1029 H 0.13293 0.85857 0.60331 0.0
H1030 H 0.13727 0.98081 0.61426 0.0
H1031 H 0.24085 0.95727 0.61676 0.0
C1032 C 0.27746 1.01814 0.61525 0.0
C1033 C 0.27924 0.05338 0.61298 0.0
C1034 C 0.13639 0.95398 0.61198 0.0
C1035 C 0.20804 0.98631 0.61403 0.0
C1036 C 0.10128 0.92171 0.60829 0.0
C1037 C 0.09923 0.88674 0.60476 0.0
C1038 C 0.16991 0.95146 0.61215 0.0
C1039 C 0.13323 0.88509 0.60562 0.0
C1040 C 0.24183 0.98444 0.6157 0.0
C1041 C 0.24485 0.0541 0.61228 0.0
N1042 N 0.1672 0.91703 0.60912 0.0
N1043 N 0.21075 0.02112 0.61268 0.0
H1044 H 0.59489 0.03948 0.06177 0.0
H1045 H 0.48261 0.03475 0.97884 0.0
H1046 H 0.49616 0.05395 0.06485 0.0
H1047 H 0.60564 0.08727 0.97909 0.0
H1048 H 0.48289 0.0318 1.01005 0.0
H1049 H 0.59581 0.04772 0.0309 0.0
C1050 C 0.57357 0.04466 0.05591 0.0
C1051 C 0.54555 0.04629 0.06578 0.0
C1052 C 0.50976 0.04406 1.00322 0.0
C1053 C 0.54581 0.05468 0.03058 0.0
C1054 C 0.50961 0.04553 0.98548 0.0
C1055 C 0.54417 0.06122 0.97648 0.0
C1056 C 0.54462 0.05752 1.01189 0.0
C1057 C 0.57841 0.07497 0.98562 0.0
C1058 C 0.57414 0.04938 0.03836 0.0
C1059 C 0.51844 0.0529 0.05764 0.0
N1060 N 0.57777 0.07243 1.00283 0.0
N1061 N 0.51889 0.05636 0.04042 0.0
H1062 H 0.05043 0.47398 0.98234 0.0
H1063 H 0.07082 0.59528 0.06498 0.0
H1064 H 1.02534 0.56587 0.98276 0.0
H1065 H 0.04193 0.47748 0.06859 0.0
H1066 H 0.06267 0.58837 0.03418 0.0
H1067 H 0.05602 0.478 1.01352 0.0
C1068 C 0.04634 0.49508 0.989 0.0
C1069 C 0.0376 0.51976 0.98006 0.0
C1070 C 0.05787 0.56394 0.04171 0.0
C1071 C 0.04407 0.52462 1.0154 0.0
C1072 C 0.06254 0.56788 0.05925 0.0
C1073 C 0.05675 0.53681 0.06926 0.0
C1074 C 0.04813 0.52889 0.03407 0.0
C1075 C 0.04622 0.50195 0.06126 0.0
C1076 C 0.04924 0.49717 1.00673 0.0
C1077 C 0.03217 0.54637 0.98921 0.0
N1078 N 0.04257 0.49897 0.04405 0.0
N1079 N 0.03578 0.54829 1.00637 0.0
H1080 H 0.51833 0.4867 0.98336 0.0
H1081 H 0.61865 0.5985 0.06795 0.0
H1082 H 0.6093 0.60396 0.98129 0.0
H1083 H 0.49947 0.5117 0.06564 0.0
H1084 H 0.62159 0.59713 0.03669 0.0
H1085 H 0.51631 0.49156 1.01418 0.0
C1086 C 0.53773 0.5136 0.98943 0.0
C1087 C 0.56385 0.54505 0.97984 0.0
C1088 C 0.59489 0.57847 0.0431 0.0
C1089 C 0.56232 0.55056 1.01513 0.0
C1090 C 0.59329 0.57897 0.06086 0.0
C1091 C 0.5588 0.55501 0.06929 0.0
C1092 C 0.56197 0.55327 0.03388 0.0
C1093 C 0.52661 0.53055 0.0596 0.0
C1094 C 0.53657 0.51635 1.00701 0.0
C1095 C 0.5885 0.57921 0.98831 0.0
N1096 N 0.52904 0.5301 0.04243 0.0
N1097 N 0.58745 0.58099 1.00558 0.0
H1098 H 0.15901 0.38179 0.40025 0.0
H1099 H 0.2502 0.36855 0.31203 0.0
H1100 H 0.23964 0.34168 0.39624 0.0
H1101 H 0.15337 0.38613 0.31555 0.0
H1102 H 0.24995 0.36274 0.34301 0.0
H1103 H 0.16006 0.38838 0.36933 0.0
C1104 C 0.17717 0.37471 0.39284 0.0
C1105 C 0.19942 0.36141 0.40075 0.0
C1106 C 0.22872 0.3678 0.337 0.0
C1107 C 0.20063 0.36852 0.36542 0.0
C1108 C 0.22889 0.37114 0.31935 0.0
C1109 C 0.20183 0.37789 0.31128 0.0
C1110 C 0.20145 0.37152 0.34664 0.0
C1111 C 0.17477 0.38095 0.32131 0.0
C1112 C 0.1776 0.37822 0.3752 0.0
C1113 C 0.22209 0.35209 0.39059 0.0
N1114 N 0.17535 0.37789 0.33847 0.0
N1115 N 0.22219 0.3559 0.37344 0.0
H1116 H 0.7779 0.87525 0.39645 0.0
H1117 H 0.6355 0.82332 0.31866 0.0
H1118 H 0.65562 0.81825 0.40365 0.0
H1119 H 0.74583 0.83182 0.31372 0.0
H1120 H 0.64297 0.82627 0.34963 0.0
H1121 H 0.76783 0.8648 0.36582 0.0
C1122 C 0.74891 0.86053 0.39155 0.0
C1123 C 0.71752 0.84777 0.40252 0.0
C1124 C 0.66538 0.82709 0.34177 0.0
C1125 C 0.70582 0.83601 0.36754 0.0
C1126 C 0.6612 0.82552 0.32413 0.0
C1127 C 0.69013 0.82718 0.31367 0.0
C1128 C 0.69911 0.83122 0.34896 0.0
C1129 C 0.72282 0.83008 0.32135 0.0
C1130 C 0.74319 0.8544 0.3741 0.0
C1131 C 0.68055 0.82859 0.39556 0.0
N1132 N 0.72667 0.83246 0.33853 0.0
N1133 N 0.67569 0.82363 0.37846 0.0
H1134 H 0.24724 0.93996 0.30924 0.0
H1135 H 0.26035 0.85992 0.40023 0.0
H1136 H 0.23655 0.8292 0.31577 0.0
H1137 H 0.21226 0.93327 0.3933 0.0
H1138 H 0.26619 0.85755 0.36921 0.0
H1139 H 0.24834 0.94694 0.34029 0.0
C1140 C 0.24538 0.91729 0.31723 0.0
C1141 C 0.24162 0.88392 0.31004 0.0
C1142 C 0.25457 0.8743 0.37455 0.0
C1143 C 0.24348 0.89187 0.34531 0.0
C1144 C 0.25141 0.87579 0.39218 0.0
C1145 C 0.2355 0.89654 0.39923 0.0
C1146 C 0.24252 0.8944 0.36402 0.0
C1147 C 0.22434 0.91665 0.3883 0.0
C1148 C 0.2459 0.92121 0.33488 0.0
C1149 C 0.23919 0.85525 0.32088 0.0
N1150 N 0.22815 0.91518 0.37122 0.0
N1151 N 0.24036 0.85994 0.33799 0.0
H1152 H 0.84809 0.62571 0.732 0.0
H1153 H 0.88392 0.75963 0.65256 0.0
H1154 H 0.84178 0.7288 0.73515 0.0
H1155 H 0.83625 0.6383 0.64631 0.0
H1156 H 0.87512 0.7505 0.68323 0.0
H1157 H 0.85003 0.631 0.70087 0.0
C1158 C 0.84709 0.64942 0.72613 0.0
C1159 C 0.84501 0.67704 0.73611 0.0
C1160 C 0.86636 0.72581 0.67517 0.0
C1161 C 0.84759 0.68342 0.70071 0.0
C1162 C 0.87149 0.73101 0.65768 0.0
C1163 C 0.86088 0.69966 0.64695 0.0
C1164 C 0.85122 0.68907 0.68205 0.0
C1165 C 0.84473 0.66316 0.65421 0.0
C1166 C 0.84801 0.6523 0.70841 0.0
C1167 C 0.84358 0.70707 0.72791 0.0
N1168 N 0.84079 0.65886 0.67139 0.0
N1169 N 0.8453 0.70969 0.7107 0.0
H1170 H 0.42616 0.18785 0.6443 0.0
H1171 H 0.33059 0.1475 0.73533 0.0
H1172 H 0.31317 0.17296 0.6498 0.0
H1173 H 0.44633 0.23855 0.72715 0.0
H1174 H 0.32179 0.13969 0.70423 0.0
H1175 H 0.43236 0.18941 0.67541 0.0
C1176 C 0.40255 0.18445 0.65209 0.0
C1177 C 0.36921 0.18043 0.64461 0.0
C1178 C 0.34908 0.16117 0.70936 0.0
C1179 C 0.37572 0.18135 0.6799 0.0
C1180 C 0.35413 0.16551 0.72699 0.0
C1181 C 0.38913 0.19382 0.73368 0.0
C1182 C 0.37969 0.18445 0.69856 0.0
C1183 C 0.41881 0.2166 0.72243 0.0
C1184 C 0.40613 0.18548 0.66974 0.0
C1185 C 0.33945 0.17644 0.65518 0.0
N1186 N 0.41357 0.2112 0.70541 0.0
N1187 N 0.34326 0.17673 0.67236 0.0
H1188 H 0.88764 0.25698 0.64384 0.0
H1189 H 0.94415 0.214 0.7356 0.0
H1190 H 0.93597 0.18412 0.65186 0.0
H1191 H 0.86991 0.261 0.72802 0.0
H1192 H 0.95049 0.2118 0.7047 0.0
H1193 H 0.88981 0.26763 0.67458 0.0
C1194 C 0.89887 0.24341 0.65208 0.0
C1195 C 0.91127 0.21935 0.6454 0.0
C1196 C 0.93296 0.22275 0.70982 0.0
C1197 C 0.91406 0.23149 0.6804 0.0
C1198 C 0.92944 0.22409 0.72742 0.0
C1199 C 0.90617 0.23732 0.73428 0.0
C1200 C 0.91334 0.23506 0.6991 0.0
C1201 C 0.88784 0.25024 0.72318 0.0
C1202 C 0.90006 0.24943 0.66959 0.0
C1203 C 0.92576 0.20259 0.65656 0.0
N1204 N 0.89172 0.2487 0.70613 0.0
N1205 N 0.92669 0.2089 0.67353 0.0
H1206 H 0.30504 0.99123 0.21158 0.0
H1207 H 0.46606 0.98115 0.15651 0.0
H1208 H 0.34573 0.91442 0.22488 0.0
H1209 H 0.45733 0.08263 0.16206 0.0
H1210 H 0.41492 0.94902 0.17771 0.0
H1211 H 0.35077 1.01555 0.188 0.0
C1212 C 0.32231 0.97817 0.20898 0.0
C1213 C 0.32095 0.95008 0.21984 0.0
C1214 C 0.4245 0.97841 0.17435 0.0
C1215 C 0.37456 0.97893 0.19347 0.0
C1216 C 0.45388 0.99686 0.16241 0.0
C1217 C 0.46625 0.03475 0.15761 0.0
C1218 C 0.40677 0.9977 0.18122 0.0
C1219 C 0.44906 0.05358 0.16546 0.0
C1220 C 0.349 0.99263 0.19578 0.0
C1221 C 0.34522 0.93533 0.21644 0.0
N1222 N 0.41996 0.03474 0.1767 0.0
N1223 N 0.37126 0.95007 0.2036 0.0
H1224 H 0.12054 0.50447 0.15699 0.0
H1225 H 0.06247 0.32586 0.21798 0.0
H1226 H 1.00467 0.4187 0.16929 0.0
H1227 H 0.17441 0.42586 0.22112 0.0
H1228 H 0.0453 0.35627 0.19567 0.0
H1229 H 0.1441 0.47539 0.17769 0.0
C1230 C 0.10004 0.48001 0.16427 0.0
C1231 C 0.06049 0.46393 0.16133 0.0
C1232 C 0.07388 0.3715 0.20098 0.0
C1233 C 0.08736 0.42993 0.18456 0.0
C1234 C 0.08396 0.35383 0.2135 0.0
C1235 C 0.11999 0.37323 0.2213 0.0
C1236 C 0.0999 0.40919 0.19621 0.0
C1237 C 0.14651 0.40972 0.21524 0.0
C1238 C 0.11356 0.46327 0.17595 0.0
C1239 C 0.03533 0.4321 0.17105 0.0
N1240 N 0.13578 0.42683 0.20315 0.0
N1241 N 0.04918 0.41598 0.18203 0.0
H1242 H 0.6649 0.77568 0.22418 0.0
H1243 H 0.68068 0.61813 0.16933 0.0
H1244 H 0.76852 0.77125 0.2167 0.0
H1245 H 0.59333 0.64673 0.15788 0.0
H1246 H 0.7066 0.66826 0.19079 0.0
H1247 H 0.6333 0.72563 0.20231 0.0
C1248 C 0.68121 0.76486 0.21774 0.0
C1249 C 0.71924 0.7772 0.22248 0.0
C1250 C 0.68158 0.66346 0.18368 0.0
C1251 C 0.68326 0.71972 0.19794 0.0
C1252 C 0.66648 0.63447 0.17154 0.0
C1253 C 0.63498 0.62837 0.16166 0.0
C1254 C 0.66502 0.68654 0.18614 0.0
C1255 C 0.61779 0.65057 0.16517 0.0
C1256 C 0.66311 0.73613 0.20537 0.0
C1257 C 0.73904 0.76231 0.21362 0.0
N1258 N 0.63316 0.67888 0.17706 0.0
N1259 N 0.72074 0.73409 0.20204 0.0
H1260 H 0.08304 0.44919 0.88296 0.0
H1261 H 0.90737 0.29369 0.82806 0.0
H1262 H 0.96641 0.416 0.895 0.0
H1263 H 1.01657 0.29887 0.83223 0.0
H1264 H 0.92881 0.34501 0.84918 0.0
H1265 H 0.06021 0.40387 0.85926 0.0
C1266 C 0.05272 0.43372 0.88003 0.0
C1267 C 1.02657 0.43693 0.89059 0.0
C1268 C 0.94787 0.33461 0.84556 0.0
C1269 C 1.00008 0.3837 0.86418 0.0
C1270 C 0.93553 0.30508 0.83368 0.0
C1271 C 0.9601 0.29178 0.82846 0.0
C1272 C 0.98529 0.35142 0.85201 0.0
C1273 C 0.99651 0.30793 0.83596 0.0
C1274 C 0.03963 0.40722 0.8668 0.0
C1275 C 0.98745 0.415 0.8868 0.0
N1276 N 1.00813 0.33717 0.8472 0.0
N1277 N 0.97527 0.38901 0.87397 0.0
H1278 H 0.65393 0.57386 0.89071 0.0
H1279 H 0.76929 0.74884 0.82746 0.0
H1280 H 0.62107 0.65708 0.87751 0.0
H1281 H 0.7828 0.64981 0.82483 0.0
H1282 H 0.72184 0.71834 0.8497 0.0
H1283 H 0.70461 0.60147 0.86906 0.0
C1284 C 0.65683 0.59741 0.88304 0.0
C1285 C 0.6332 0.61326 0.88601 0.0
C1286 C 0.73534 0.70324 0.84447 0.0
C1287 C 0.69183 0.64557 0.86163 0.0
C1288 C 0.76295 0.72092 0.83192 0.0
C1289 C 0.78014 0.70193 0.8243 0.0
C1290 C 0.72435 0.66591 0.84953 0.0
C1291 C 0.77055 0.66563 0.8305 0.0
C1292 C 0.68597 0.6133 0.87079 0.0
C1293 C 0.63849 0.64389 0.87575 0.0
N1294 N 0.7429 0.64853 0.84269 0.0
N1295 N 0.66743 0.65924 0.86423 0.0
H1296 H 0.4513 0.16675 0.82177 0.0
H1297 H 0.39203 0.9947 0.88672 0.0
H1298 H 0.33547 0.08721 0.83703 0.0
H1299 H 0.50605 0.09206 0.88775 0.0
H1300 H 0.37457 0.02515 0.86462 0.0
H1301 H 0.47483 0.13928 0.84332 0.0
C1302 C 0.43082 0.14405 0.82986 0.0
C1303 C 0.39123 0.1292 0.8275 0.0
C1304 C 0.4036 0.03986 0.86945 0.0
C1305 C 0.41804 0.09701 0.85181 0.0
C1306 C 0.41381 0.02219 0.88192 0.0
C1307 C 0.45064 0.04069 0.88903 0.0
C1308 C 0.43031 0.07668 0.86391 0.0
C1309 C 0.47752 0.07652 0.88243 0.0
C1310 C 0.44433 0.12824 0.84205 0.0
C1311 C 0.36615 0.09961 0.83829 0.0
N1312 N 0.46673 0.09359 0.87029 0.0
N1313 N 0.37993 0.0843 0.84976 0.0
H1314 H 0.96245 0.32421 0.54558 0.0
H1315 H 0.09962 0.28581 0.48677 0.0
H1316 H 0.9758 0.22593 0.55363 0.0
H1317 H 0.1135 0.39722 0.495 0.0
H1318 H 0.05313 0.26082 0.51021 0.0
H1319 H 1.01349 0.34773 0.52445 0.0
C1320 C 0.97557 0.30716 0.54267 0.0
C1321 C 0.96484 0.27305 0.55142 0.0
C1322 C 0.06719 0.29096 0.50721 0.0
C1323 C 1.02392 0.30024 0.52741 0.0
C1324 C 0.09422 0.30532 0.49407 0.0
C1325 C 0.11111 0.3438 0.48935 0.0
C1326 C 0.05637 0.31516 0.51523 0.0
C1327 C 0.1018 0.3676 0.4986 0.0
C1328 C 1.00514 0.3209 0.53077 0.0
C1329 C 0.98316 0.25235 0.54716 0.0
N1330 N 0.07465 0.35281 0.51092 0.0
N1331 N 1.01187 0.26629 0.53546 0.0
H1332 H 0.68289 0.7423 0.49819 0.0
H1333 H 0.8571 0.76231 0.55489 0.0
H1334 H 0.79883 0.83219 0.48999 0.0
H1335 H 0.75033 0.65701 0.54857 0.0
H1336 H 0.83545 0.79279 0.53408 0.0
H1337 H 0.70531 0.7167 0.52089 0.0
C1338 C 0.71287 0.75761 0.50172 0.0
C1339 C 0.73891 0.79006 0.4926 0.0
C1340 C 0.81694 0.76293 0.53714 0.0
C1341 C 0.76516 0.75994 0.51797 0.0
C1342 C 0.8294 0.74542 0.5489 0.0
C1343 C 0.80567 0.70692 0.55339 0.0
C1344 C 0.78015 0.74204 0.53005 0.0
C1345 C 0.7698 0.68659 0.5454 0.0
C1346 C 0.7258 0.74255 0.51442 0.0
C1347 C 0.77774 0.8078 0.49711 0.0
N1348 N 0.75803 0.70447 0.53428 0.0
N1349 N 0.78976 0.79246 0.50944 0.0
H1350 H 0.24075 0.96098 0.4921 0.0
H1351 H 0.41767 0.10128 0.55088 0.0
H1352 H 0.34231 0.95242 0.49914 0.0
H1353 H 0.30499 0.08532 0.5587 0.0
H1354 H 0.39278 0.05523 0.52755 0.0
H1355 H 0.26469 1.0119 0.51355 0.0
C1356 C 0.26772 0.9693 0.49838 0.0
C1357 C 0.28943 0.9522 0.49386 0.0
C1358 C 0.37357 0.06237 0.53408 0.0
C1359 C 0.31757 1.01136 0.51791 0.0
C1360 C 0.38797 0.08927 0.54715 0.0
C1361 C 0.36355 0.09786 0.55638 0.0
C1362 C 0.33429 0.04357 0.53027 0.0
C1363 C 0.32493 0.08028 0.55153 0.0
C1364 C 0.2815 0.99859 0.51049 0.0
C1365 C 0.32441 0.96448 0.50226 0.0
N1366 N 0.31136 0.05373 0.53886 0.0
N1367 N 0.33752 0.99351 0.51371 0.0
H1368 H 0.63053 0.48222 0.10962 0.0
H1369 H 0.46585 0.26436 0.12129 0.0
H1370 H 0.52426 0.44853 0.13573 0.0
H1371 H 0.57752 0.29825 0.10077 0.0
H1372 H 0.48675 0.33149 0.12688 0.0
H1373 H 0.61227 0.41506 0.10698 0.0
C1374 C 0.60353 0.46076 0.11498 0.0
C1375 C 0.57888 0.47119 0.12288 0.0
C1376 C 0.50674 0.32424 0.12122 0.0
C1377 C 0.55748 0.39389 0.11966 0.0
C1378 C 0.49472 0.2859 0.1179 0.0
C1379 C 0.51989 0.27552 0.11048 0.0
C1380 C 0.54418 0.35262 0.117 0.0
C1381 C 0.5572 0.30476 0.10664 0.0
C1382 C 0.59307 0.42233 0.11343 0.0
C1383 C 0.54426 0.44196 0.12957 0.0
N1384 N 0.5681 0.34187 0.10985 0.0
N1385 N 0.53446 0.4047 0.12767 0.0
H1386 H 0.61469 0.184 0.10856 0.0
H1387 H 0.83255 0.23844 0.124 0.0
H1388 H 0.64728 0.11077 0.13478 0.0
H1389 H 0.79973 0.31596 0.10234 0.0
H1390 H 0.76492 0.19184 0.12856 0.0
H1391 H 0.68208 0.23353 0.10716 0.0
C1392 C 0.63592 0.17843 0.11421 0.0
C1393 C 0.62514 0.14297 0.12175 0.0
C1394 C 0.77249 0.21911 0.12287 0.0
C1395 C 0.70271 0.19962 0.11997 0.0
C1396 C 0.81115 0.24566 0.12015 0.0
C1397 C 0.82199 0.28122 0.1127 0.0
C1398 C 0.74424 0.22794 0.11803 0.0
C1399 C 0.79286 0.28911 0.10826 0.0
C1400 C 0.67449 0.20676 0.11336 0.0
C1401 C 0.6541 0.13758 0.12885 0.0
N1402 N 0.75543 0.26267 0.1109 0.0
N1403 N 0.69149 0.16541 0.12765 0.0
H1404 H 0.79456 0.53282 0.09345 0.0
H1405 H 0.98661 0.57009 0.14028 0.0
H1406 H 0.85115 0.61941 0.1318 0.0
H1407 H 0.92015 0.47457 0.10697 0.0
H1408 H 0.937 0.58796 0.13803 0.0
H1409 H 0.84045 0.51116 0.09847 0.0
C1410 C 0.81676 0.54742 0.10289 0.0
C1411 C 0.81908 0.57818 0.11213 0.0
C1412 C 0.93314 0.5629 0.13134 0.0
C1413 C 0.87179 0.55325 0.11807 0.0
C1414 C 0.96143 0.55257 0.13266 0.0
C1415 C 0.95777 0.52084 0.12374 0.0
C1416 C 0.90103 0.54152 0.12093 0.0
C1417 C 0.92444 0.49935 0.11404 0.0
C1418 C 0.84283 0.53483 0.10585 0.0
C1419 C 0.8481 0.59546 0.12443 0.0
N1420 N 0.89762 0.51025 0.11279 0.0
N1421 N 0.87343 0.58294 0.12697 0.0
H1422 H 0.45091 0.4967 0.9184 0.0
H1423 H 0.30328 0.56244 0.94999 0.0
H1424 H 0.48614 0.60848 0.93883 0.0
H1425 H 0.26937 0.4469 0.93558 0.0
H1426 H 0.36994 0.58123 0.94386 0.0
H1427 H 0.38401 0.47966 0.92223 0.0
C1428 C 0.44468 0.51786 0.92351 0.0
C1429 C 0.47444 0.55411 0.92833 0.0
C1430 C 0.34792 0.55175 0.94205 0.0
C1431 C 0.39753 0.53455 0.93289 0.0
C1432 C 0.30976 0.54101 0.94548 0.0
C1433 C 0.28047 0.50293 0.94341 0.0
C1434 C 0.35707 0.52434 0.93634 0.0
C1435 C 0.29089 0.47644 0.93766 0.0
C1436 C 0.40637 0.50799 0.92579 0.0
C1437 C 0.46432 0.58015 0.93497 0.0
N1438 N 0.32818 0.48763 0.93432 0.0
N1439 N 0.42685 0.56984 0.93709 0.0
H1440 H 0.47175 0.89945 0.93024 0.0
H1441 H 0.64143 0.85041 0.92598 0.0
H1442 H 0.58781 0.98191 0.91635 0.0
H1443 H 0.52434 0.76758 0.93806 0.0
H1444 H 0.62218 0.89837 0.92158 0.0
H1445 H 0.49004 0.85037 0.93188 0.0
C1446 C 0.50103 0.90728 0.92736 0.0
C1447 C 0.52824 0.94514 0.92317 0.0
C1448 C 0.60065 0.86967 0.92513 0.0
C1449 C 0.54957 0.88866 0.92523 0.0
C1450 C 0.61168 0.84223 0.92777 0.0
C1451 C 0.58457 0.80468 0.93249 0.0
C1452 C 0.56217 0.85977 0.92727 0.0
C1453 C 0.54629 0.7959 0.93428 0.0
C1454 C 0.51149 0.87912 0.92835 0.0
C1455 C 0.56574 0.95323 0.9196 0.0
N1456 N 0.53635 0.82316 0.93175 0.0
N1457 N 0.57531 0.92537 0.92082 0.0
H1458 H 0.27351 0.8035 0.91883 0.0
H1459 H 0.18188 0.58433 0.94674 0.0
H1460 H 0.31344 0.76664 0.96175 0.0
H1461 H 0.13157 0.62419 0.90932 0.0
H1462 H 0.23518 0.64962 0.94985 0.0
H1463 H 0.22609 0.73698 0.91292 0.0
C1464 C 0.27257 0.7814 0.92694 0.0
C1465 C 0.29756 0.79081 0.94084 0.0
C1466 C 0.21264 0.644 0.94085 0.0
C1467 C 0.24295 0.71429 0.93417 0.0
C1468 C 0.18227 0.6066 0.93895 0.0
C1469 C 0.15195 0.59858 0.92777 0.0
C1470 C 0.21288 0.6737 0.93147 0.0
C1471 C 0.1541 0.62889 0.91815 0.0
C1472 C 0.24531 0.74338 0.9236 0.0
C1473 C 0.29451 0.76084 0.95102 0.0
N1474 N 0.18385 0.66502 0.92029 0.0
N1475 N 0.26775 0.724 0.94749 0.0
H1476 H 0.18805 0.77278 0.46793 0.0
H1477 H 0.24793 0.62555 0.43052 0.0
H1478 H 0.29435 0.80833 0.4415 0.0
H1479 H 0.13513 0.59264 0.44929 0.0
H1480 H 0.26845 0.69221 0.43734 0.0
H1481 H 0.17178 0.70633 0.46452 0.0
C1482 C 0.20828 0.76672 0.46163 0.0
C1483 C 0.24257 0.79634 0.45492 0.0
C1484 C 0.23922 0.67037 0.43997 0.0
C1485 C 0.2238 0.71997 0.45079 0.0
C1486 C 0.22751 0.63229 0.43612 0.0
C1487 C 0.18963 0.6034 0.43919 0.0
C1488 C 0.21298 0.67968 0.4471 0.0
C1489 C 0.1644 0.61395 0.44641 0.0
C1490 C 0.19882 0.72866 0.45959 0.0
C1491 C 0.26753 0.78651 0.44683 0.0
N1492 N 0.17651 0.65111 0.45011 0.0
N1493 N 0.25756 0.74921 0.44491 0.0
H1494 H 0.4498 0.64446 0.42915 0.0
H1495 H 0.30287 0.44357 0.4719 0.0
H1496 H 0.48328 0.57166 0.45506 0.0
H1497 H 0.26678 0.50365 0.43803 0.0
H1498 H 0.36879 0.49533 0.46906 0.0
H1499 H 0.38246 0.59775 0.43509 0.0
C1500 C 0.44302 0.61874 0.43612 0.0
C1501 C 0.47226 0.61179 0.44144 0.0
C1502 C 0.34642 0.4974 0.46236 0.0
C1503 C 0.39537 0.55842 0.4484 0.0
C1504 C 0.30862 0.46786 0.46404 0.0
C1505 C 0.27898 0.46898 0.45514 0.0
C1506 C 0.35495 0.5285 0.45169 0.0
C1507 C 0.2885 0.50144 0.44519 0.0
C1508 C 0.4046 0.59207 0.43947 0.0
C1509 C 0.46174 0.57793 0.45041 0.0
N1510 N 0.32565 0.52975 0.44364 0.0
N1511 N 0.4243 0.55262 0.45359 0.0
H1512 H 0.57514 0.79254 0.44212 0.0
H1513 H 0.50712 0.94154 0.46756 0.0
H1514 H 0.63907 0.88877 0.47536 0.0
H1515 H 0.45137 0.85479 0.42919 0.0
H1516 H 0.55179 0.91837 0.4728 0.0
H1517 H 0.52538 0.81008 0.43984 0.0
C1518 C 0.57845 0.81691 0.44921 0.0
C1519 C 0.61152 0.83916 0.45896 0.0
C1520 C 0.52974 0.90431 0.46326 0.0
C1521 C 0.55471 0.85985 0.45614 0.0
C1522 C 0.50407 0.91744 0.4603 0.0
C1523 C 0.47538 0.9002 0.44787 0.0
C1524 C 0.52677 0.8735 0.45379 0.0
C1525 C 0.47328 0.86935 0.43873 0.0
C1526 C 0.55012 0.82714 0.44777 0.0
C1527 C 0.61423 0.87077 0.46766 0.0
N1528 N 0.49856 0.85701 0.44188 0.0
N1529 N 0.58639 0.88023 0.46598 0.0
H1530 H 0.97903 0.90533 0.28285 0.0
H1531 H 0.12616 0.84588 0.24482 0.0
H1532 H 0.94633 0.79163 0.26592 0.0
H1533 H 0.16274 0.9524 0.271 0.0
H1534 H 0.05973 0.82904 0.2492 0.0
H1535 H 0.04573 0.92587 0.27575 0.0
C1536 C 0.98581 0.88471 0.27756 0.0
C1537 C 0.95691 0.84661 0.27503 0.0
C1538 C 0.08226 0.85623 0.25389 0.0
C1539 C 0.03338 0.87004 0.26684 0.0
C1540 C 0.12037 0.86606 0.2513 0.0
C1541 C 0.15041 0.90065 0.25761 0.0
C1542 C 0.07377 0.88112 0.26281 0.0
C1543 C 0.14071 0.92544 0.26591 0.0
C1544 C 1.02395 0.89645 0.27358 0.0
C1545 C 0.9676 0.82113 0.2683 0.0
N1546 N 0.10329 0.91512 0.26834 0.0
N1547 N 1.00484 0.83331 0.26442 0.0
H1548 H 0.18405 0.09926 0.27858 0.0
H1549 H 0.25011 0.31365 0.24914 0.0
H1550 H 0.29959 0.18114 0.26382 0.0
H1551 H 0.13858 0.23652 0.26994 0.0
H1552 H 0.26688 0.26347 0.25187 0.0
H1553 H 0.16524 0.1473 0.27317 0.0
C1554 C 0.20545 0.12726 0.27415 0.0
C1555 C 0.24356 0.13614 0.27179 0.0
C1556 C 0.23865 0.25746 0.25574 0.0
C1557 C 0.22218 0.19144 0.26554 0.0
C1558 C 0.22896 0.28608 0.25409 0.0
C1559 C 0.19289 0.27948 0.25936 0.0
C1560 C 0.21208 0.22183 0.26266 0.0
C1561 C 0.16679 0.2431 0.26577 0.0
C1562 C 0.19472 0.15476 0.27111 0.0
C1563 C 0.27005 0.17311 0.26612 0.0
N1564 N 0.17693 0.21579 0.26728 0.0
N1565 N 0.25888 0.19929 0.2632 0.0
H1566 H 0.84745 0.92469 0.27788 0.0
H1567 H 0.91314 0.14427 0.25997 0.0
H1568 H 0.775 0.95992 0.25266 0.0
H1569 H 0.97764 0.10695 0.2902 0.0
H1570 H 0.86418 0.07738 0.25538 0.0
H1571 H 0.89706 0.99129 0.28054 0.0
C1572 C 0.84191 0.94633 0.27277 0.0
C1573 C 0.80666 0.93633 0.26503 0.0
C1574 C 0.88906 0.08384 0.263 0.0
C1575 C 0.86396 1.01345 0.26818 0.0
C1576 C 0.91718 0.12207 0.26557 0.0
C1577 C 0.94968 0.13145 0.27554 0.0
C1578 C 0.89346 0.05458 0.27035 0.0
C1579 C 0.95295 0.10129 0.28262 0.0
C1580 C 0.8704 0.98456 0.27437 0.0
C1581 C 0.80158 0.96607 0.25873 0.0
N1582 N 0.92533 0.06439 0.27987 0.0
N1583 N 0.82983 1.00321 0.26047 0.0
H1584 H 0.82698 0.93384 0.79428 0.0
H1585 H 0.96925 0.15419 0.77245 0.0
H1586 H 0.91548 0.97269 0.7562 0.0
H1587 H 0.87023 0.11504 0.8048 0.0
H1588 H 0.95517 0.08836 0.76942 0.0
H1589 H 0.8472 1.00032 0.801 0.0
C1590 C 0.85087 0.95635 0.78742 0.0
C1591 C 0.86944 0.94762 0.77459 0.0
C1592 C 0.93669 0.09419 0.7773 0.0
C1593 C 0.89267 0.02389 0.7822 0.0
C1594 C 0.94482 0.13186 0.77912 0.0
C1595 C 0.9207 0.14024 0.78879 0.0
C1596 C 0.90423 0.06455 0.78522 0.0
C1597 C 0.88954 0.10999 0.79715 0.0
C1598 C 0.86228 0.99431 0.79122 0.0
C1599 C 0.89996 0.97803 0.76601 0.0
N1600 N 0.88205 0.07349 0.79507 0.0
N1601 N 0.91058 1.01475 0.76995 0.0
H1602 H 0.1241 0.9755 0.77511 0.0
H1603 H 0.97282 0.75611 0.79585 0.0
H1604 H 0.15709 0.89166 0.7869 0.0
H1605 H 0.94104 0.8397 0.78162 0.0
H1606 H 0.04033 0.80596 0.79457 0.0
H1607 H 0.05712 0.92689 0.77931 0.0
C1608 C 0.11738 0.94698 0.77873 0.0
C1609 C 0.14657 0.93785 0.78061 0.0
C1610 C 1.01855 0.81341 0.79183 0.0
C1611 C 0.06934 0.88157 0.78529 0.0
C1612 C 0.9799 0.78495 0.79262 0.0
C1613 C 0.95094 0.7935 0.78879 0.0
C1614 C 1.0285 0.85084 0.78719 0.0
C1615 C 0.96216 0.83151 0.78464 0.0
C1616 C 0.07898 0.91909 0.78102 0.0
C1617 C 0.13571 0.90005 0.78505 0.0
N1618 N 0.99989 0.85859 0.78389 0.0
N1619 N 0.0981 0.87339 0.78721 0.0
H1620 H 0.24716 0.13765 0.77628 0.0
H1621 H 0.19776 0.30602 0.7861 0.0
H1622 H 0.32726 0.24943 0.79575 0.0
H1623 H 0.11698 0.19295 0.76822 0.0
H1624 H 0.24523 0.28581 0.79001 0.0
H1625 H 0.1988 0.15698 0.77401 0.0
C1626 C 0.2546 0.16619 0.78021 0.0
C1627 C 0.29158 0.1919 0.78622 0.0
C1628 C 0.2171 0.26539 0.78526 0.0
C1629 C 0.23599 0.21444 0.78346 0.0
C1630 C 0.18997 0.277 0.78289 0.0
C1631 C 0.1531 0.25126 0.77676 0.0
C1632 C 0.20756 0.2277 0.78143 0.0
C1633 C 0.14474 0.21378 0.77316 0.0
C1634 C 0.22687 0.17726 0.77886 0.0
C1635 C 0.29924 0.22852 0.79109 0.0
N1636 N 0.17168 0.20324 0.77549 0.0
N1637 N 0.27183 0.23871 0.78952 0.0
H1638 H 0.64282 0.23685 0.6169 0.0
H1639 H 0.78606 0.17501 0.57647 0.0
H1640 H 0.60672 0.12611 0.5951 0.0
H1641 H 0.8241 0.28035 0.60388 0.0
H1642 H 0.71996 0.16058 0.57978 0.0
H1643 H 0.70905 0.25667 0.60923 0.0
C1644 C 0.64878 0.21677 0.61043 0.0
C1645 C 0.61918 0.17962 0.6068 0.0
C1646 C 0.74279 0.18703 0.58494 0.0
C1647 C 0.6949 0.20212 0.59797 0.0
C1648 C 0.78063 0.19543 0.58296 0.0
C1649 C 0.81077 0.22881 0.59003 0.0
C1650 C 0.73492 0.21218 0.59406 0.0
C1651 C 0.80182 0.25414 0.59831 0.0
C1652 C 0.6866 0.22807 0.6061 0.0
C1653 C 0.62866 0.15477 0.59846 0.0
N1654 N 0.76472 0.24515 0.60021 0.0
N1655 N 0.66562 0.16643 0.59436 0.0
H1656 H 0.86969 0.43301 0.61903 0.0
H1657 H 0.90325 0.62369 0.5726 0.0
H1658 H 0.95601 0.49164 0.58071 0.0
H1659 H 0.8093 0.55785 0.60679 0.0
H1660 H 0.92165 0.57463 0.57458 0.0
H1661 H 0.84673 0.47801 0.61442 0.0
C1662 C 0.88396 0.45544 0.60969 0.0
C1663 C 0.915 0.45853 0.6003 0.0
C1664 C 0.89678 0.57072 0.58152 0.0
C1665 C 0.88852 0.51017 0.59483 0.0
C1666 C 0.88613 0.5987 0.58034 0.0
C1667 C 0.85469 0.59509 0.58958 0.0
C1668 C 0.87609 0.5389 0.59213 0.0
C1669 C 0.83374 0.56199 0.59943 0.0
C1670 C 0.87061 0.48098 0.60696 0.0
C1671 C 0.93183 0.48787 0.58816 0.0
N1672 N 0.845 0.53544 0.60056 0.0
N1673 N 0.91854 0.51259 0.58585 0.0
H1674 H 0.45845 0.28847 0.57179 0.0
H1675 H 0.64176 0.44358 0.62328 0.0
H1676 H 0.5156 0.25859 0.61008 0.0
H1677 H 0.59488 0.47107 0.5798 0.0
H1678 H 0.59602 0.37578 0.61867 0.0
H1679 H 0.50892 0.35516 0.57413 0.0
C1680 C 0.48186 0.29578 0.58053 0.0
C1681 C 0.48263 0.26765 0.59074 0.0
C1682 C 0.59584 0.39662 0.61009 0.0
C1683 C 0.54045 0.34448 0.59371 0.0
C1684 C 0.62178 0.43541 0.61279 0.0
C1685 C 0.62219 0.46323 0.60195 0.0
C1686 C 0.56974 0.38539 0.59652 0.0
C1687 C 0.59593 0.45073 0.58841 0.0
C1688 C 0.51069 0.33399 0.58189 0.0
C1689 C 0.51382 0.27908 0.60185 0.0
N1690 N 0.57072 0.41288 0.58615 0.0
N1691 N 0.5412 0.31659 0.60316 0.0
loop_
_geom_bond_atom_site_label_1
_geom_bond_atom_site_label_2
_geom_bond_distance
_geom_bond_site_symmetry_2
_ccdc_geom_bond_type
Nd0 C2 2.836 . S
Nd0 O20 2.500 . S
Nd0 O21 2.492 . S
Nd0 O22 2.487 . S
Nd0 O23 2.682 1_545 S
Nd0 O24 2.410 . S
Nd0 O29 2.414 . S
Nd0 O31 2.424 1_545 S
Nd1 C11 2.836 . S
Nd1 O23 2.414 . S
Nd1 O25 2.424 1_565 S
Nd1 O26 2.500 . S
Nd1 O27 2.492 . S
Nd1 O28 2.487 . S
Nd1 O29 2.682 1_565 S
Nd1 O30 2.410 . S
C2 Nd0 2.836 . S
C2 C3 1.498 . S
C2 O20 1.258 . S
C2 O21 1.239 . S
C3 C2 1.498 . S
C3 C4 1.366 . S
C3 C8 1.407 . S
C4 C3 1.366 . S
C4 C5 1.392 . S
C4 H32 0.930 . S
C5 C4 1.392 . S
C5 C6 1.398 . S
C5 H33 0.929 . S
C6 C5 1.398 . S
C6 C7 1.352 . S
C7 C6 1.352 . S
C7 C8 1.384 . S
C7 H34 0.930 . S
C8 C3 1.407 . S
C8 C7 1.384 . S
C8 H35 0.929 . S
C9 O22 1.268 . S
C9 O23 1.259 1_545 S
C10 O24 1.251 . S
C10 O25 1.268 . S
C11 Nd1 2.836 . S
C11 C12 1.498 . S
C11 O26 1.258 . S
C11 O27 1.239 . S
C12 C11 1.498 . S
C12 C13 1.366 . S
C12 C17 1.407 . S
C13 C12 1.366 . S
C13 C14 1.392 . S
C13 H36 0.930 . S
C14 C13 1.392 . S
C14 C15 1.398 . S
C14 H37 0.929 . S
C15 C14 1.398 . S
C15 C16 1.352 . S
C16 C15 1.352 . S
C16 C17 1.384 . S
C16 H38 0.930 . S
C17 C12 1.407 . S
C17 C16 1.384 . S
C17 H39 0.929 . S
C18 O28 1.241 1_545 S
C18 O29 1.273 . S
C19 O30 1.251 . S
C19 O31 1.268 . S
O20 Nd0 2.500 . S
O20 C2 1.258 . S
O21 Nd0 2.492 . S
O21 C2 1.239 . S
O22 Nd0 2.487 . S
O22 C9 1.268 . S
O23 Nd0 2.682 1_565 S
O23 Nd1 2.414 . S
O23 C9 1.259 1_565 S
O24 Nd0 2.410 . S
O24 C10 1.251 . S
O25 Nd1 2.424 1_545 S
O25 C10 1.268 . S
O26 Nd1 2.500 . S
O26 C11 1.258 . S
O27 Nd1 2.492 . S
O27 C11 1.239 . S
O28 Nd1 2.487 . S
O28 C18 1.241 1_565 S
O29 Nd0 2.414 . S
O29 Nd1 2.682 1_545 S
O29 C18 1.273 . S
O30 Nd1 2.410 . S
O30 C19 1.251 . S
O31 Nd0 2.424 1_565 S
O31 C19 1.268 . S
H32 C4 0.930 . S
H33 C5 0.929 . S
H34 C7 0.930 . S
H35 C8 0.929 . S
H36 C13 0.930 . S
H37 C14 0.929 . S
H38 C16 0.930 . S
H39 C17 0.929 . S
Nd40 C42 2.821 1_455 S
Nd40 O60 2.484 1_455 S
Nd40 O61 2.481 1_455 S
Nd40 O62 2.490 . S
Nd40 O63 2.685 . S
Nd40 O64 2.390 1_455 S
Nd40 O69 2.409 . S
Nd40 O71 2.445 . S
Nd41 C51 2.836 . S
Nd41 O63 2.414 . S
Nd41 O65 2.424 1_455 S
Nd41 O66 2.500 . S
Nd41 O67 2.492 . S
Nd41 O68 2.487 . S
Nd41 O69 2.682 . S
Nd41 O70 2.410 . S
C42 Nd40 2.821 1_655 S
C42 C43 1.498 . S
C42 O60 1.258 . S
C42 O61 1.239 . S
C43 C42 1.498 . S
C43 C44 1.366 . S
C43 C48 1.407 . S
C44 C43 1.366 . S
C44 C45 1.392 . S
C44 H72 0.930 . S
C45 C44 1.392 . S
C45 C46 1.398 . S
C45 H73 0.929 . S
C46 C45 1.398 . S
C46 C47 1.352 . S
C47 C46 1.352 . S
C47 C48 1.384 . S
C47 H74 0.930 . S
C48 C43 1.407 . S
C48 C47 1.384 . S
C48 H75 0.929 . S
C49 O62 1.241 . S
C49 O63 1.273 . S
C50 O64 1.251 . S
C50 O65 1.268 . S
C51 Nd41 2.836 . S
C51 C52 1.498 . S
C51 O66 1.258 . S
C51 O67 1.239 . S
C52 C51 1.498 . S
C52 C53 1.366 . S
C52 C57 1.407 . S
C53 C52 1.366 . S
C53 C54 1.392 . S
C53 H76 0.930 . S
C54 C53 1.392 . S
C54 C55 1.398 . S
C54 H77 0.929 . S
C55 C54 1.398 . S
C55 C56 1.352 . S
C56 C55 1.352 . S
C56 C57 1.384 . S
C56 H78 0.930 . S
C57 C52 1.407 . S
C57 C56 1.384 . S
C57 H79 0.929 . S
C58 O68 1.241 . S
C58 O69 1.273 . S
C59 O70 1.251 . S
C59 O71 1.268 . S
O60 Nd40 2.484 1_655 S
O60 C42 1.258 . S
O61 Nd40 2.481 1_655 S
O61 C42 1.239 . S
O62 Nd40 2.490 . S
O62 C49 1.241 . S
O63 Nd40 2.685 . S
O63 Nd41 2.414 . S
O63 C49 1.273 . S
O64 Nd40 2.390 1_655 S
O64 C50 1.251 . S
O65 Nd41 2.424 1_655 S
O65 C50 1.268 . S
O66 Nd41 2.500 . S
O66 C51 1.258 . S
O67 Nd41 2.492 . S
O67 C51 1.239 . S
O68 Nd41 2.487 . S
O68 C58 1.241 . S
O69 Nd40 2.409 . S
O69 Nd41 2.682 . S
O69 C58 1.273 . S
O70 Nd41 2.410 . S
O70 C59 1.251 . S
O71 Nd40 2.445 . S
O71 C59 1.268 . S
H72 C44 0.930 . S
H73 C45 0.929 . S
H74 C47 0.930 . S
H75 C48 0.929 . S
H76 C53 0.930 . S
H77 C54 0.929 . S
H78 C56 0.930 . S
H79 C57 0.929 . S
Nd80 C82 2.836 . S
Nd80 O100 2.500 . S
Nd80 O101 2.492 . S
Nd80 O102 2.487 . S
Nd80 O103 2.682 . S
Nd80 O104 2.410 . S
Nd80 O109 2.414 . S
Nd80 O111 2.424 . S
Nd81 C91 2.836 . S
Nd81 O103 2.414 . S
Nd81 O105 2.424 . S
Nd81 O106 2.500 . S
Nd81 O107 2.492 . S
Nd81 O108 2.487 . S
Nd81 O109 2.682 . S
Nd81 O110 2.410 . S
C82 Nd80 2.836 . S
C82 C83 1.498 . S
C82 O100 1.258 . S
C82 O101 1.239 . S
C83 C82 1.498 . S
C83 C84 1.366 . S
C83 C88 1.407 . S
C84 C83 1.366 . S
C84 C85 1.392 . S
C84 H112 0.930 . S
C85 C84 1.392 . S
C85 C86 1.398 . S
C85 H113 0.929 . S
C86 C85 1.398 . S
C86 C87 1.352 . S
C87 C86 1.352 . S
C87 C88 1.384 . S
C87 H114 0.930 . S
C88 C83 1.407 . S
C88 C87 1.384 . S
C88 H115 0.929 . S
C89 O102 1.241 . S
C89 O103 1.273 . S
C90 O104 1.251 . S
C90 O105 1.268 . S
C91 Nd81 2.836 . S
C91 C92 1.498 . S
C91 O106 1.258 . S
C91 O107 1.239 . S
C92 C91 1.498 . S
C92 C93 1.366 . S
C92 C97 1.407 . S
C93 C92 1.366 . S
C93 C94 1.392 . S
C93 H116 0.930 . S
C94 C93 1.392 . S
C94 C95 1.398 . S
C94 H117 0.929 . S
C95 C94 1.398 . S
C95 C96 1.352 . S
C96 C95 1.352 . S
C96 C97 1.384 . S
C96 H118 0.930 . S
C97 C92 1.407 . S
C97 C96 1.384 . S
C97 H119 0.929 . S
C98 O108 1.241 . S
C98 O109 1.273 . S
C99 O110 1.251 . S
C99 O111 1.268 . S
O100 Nd80 2.500 . S
O100 C82 1.258 . S
O101 Nd80 2.492 . S
O101 C82 1.239 . S
O102 Nd80 2.487 . S
O102 C89 1.241 . S
O103 Nd80 2.682 . S
O103 Nd81 2.414 . S
O103 C89 1.273 . S
O104 Nd80 2.410 . S
O104 C90 1.251 . S
O105 Nd81 2.424 . S
O105 C90 1.268 . S
O106 Nd81 2.500 . S
O106 C91 1.258 . S
O107 Nd81 2.492 . S
O107 C91 1.239 . S
O108 Nd81 2.487 . S
O108 C98 1.241 . S
O109 Nd80 2.414 . S
O109 Nd81 2.682 . S
O109 C98 1.273 . S
O110 Nd81 2.410 . S
O110 C99 1.251 . S
O111 Nd80 2.424 . S
O111 C99 1.268 . S
H112 C84 0.930 . S
H113 C85 0.929 . S
H114 C87 0.930 . S
H115 C88 0.929 . S
H116 C93 0.930 . S
H117 C94 0.929 . S
H118 C96 0.930 . S
H119 C97 0.929 . S
Nd120 C122 2.836 . S
Nd120 O140 2.500 . S
Nd120 O141 2.492 . S
Nd120 O142 2.487 . S
Nd120 O143 2.682 1_455 S
Nd120 O144 2.410 . S
Nd120 O149 2.414 . S
Nd120 O151 2.424 1_455 S
Nd121 C131 2.836 . S
Nd121 O143 2.414 . S
Nd121 O145 2.424 1_655 S
Nd121 O146 2.500 . S
Nd121 O147 2.492 . S
Nd121 O148 2.487 . S
Nd121 O149 2.682 1_655 S
Nd121 O150 2.410 . S
C122 Nd120 2.836 . S
C122 C123 1.498 . S
C122 O140 1.258 . S
C122 O141 1.239 . S
C123 C122 1.498 . S
C123 C124 1.366 . S
C123 C128 1.407 . S
C124 C123 1.366 . S
C124 C125 1.392 . S
C124 H152 0.930 . S
C125 C124 1.392 . S
C125 C126 1.398 . S
C125 H153 0.929 . S
C126 C125 1.398 . S
C126 C127 1.352 . S
C127 C126 1.352 . S
C127 C128 1.384 . S
C127 H154 0.930 . S
C128 C123 1.407 . S
C128 C127 1.384 . S
C128 H155 0.929 . S
C129 O142 1.268 . S
C129 O143 1.259 1_455 S
C130 O144 1.251 . S
C130 O145 1.268 . S
C131 Nd121 2.836 . S
C131 C132 1.498 . S
C131 O146 1.258 . S
C131 O147 1.239 . S
C132 C131 1.498 . S
C132 C133 1.366 . S
C132 C137 1.407 . S
C133 C132 1.366 . S
C133 C134 1.392 . S
C133 H156 0.930 . S
C134 C133 1.392 . S
C134 C135 1.398 . S
C134 H157 0.929 . S
C135 C134 1.398 . S
C135 C136 1.352 . S
C136 C135 1.352 . S
C136 C137 1.384 . S
C136 H158 0.930 . S
C137 C132 1.407 . S
C137 C136 1.384 . S
C137 H159 0.929 . S
C138 O148 1.241 1_455 S
C138 O149 1.273 . S
C139 O150 1.251 . S
C139 O151 1.268 . S
O140 Nd120 2.500 . S
O140 C122 1.258 . S
O141 Nd120 2.492 . S
O141 C122 1.239 . S
O142 Nd120 2.487 . S
O142 C129 1.268 . S
O143 Nd120 2.682 1_655 S
O143 Nd121 2.414 . S
O143 C129 1.259 1_655 S
O144 Nd120 2.410 . S
O144 C130 1.251 . S
O145 Nd121 2.424 1_455 S
O145 C130 1.268 . S
O146 Nd121 2.500 . S
O146 C131 1.258 . S
O147 Nd121 2.492 . S
O147 C131 1.239 . S
O148 Nd121 2.487 . S
O148 C138 1.241 1_655 S
O149 Nd120 2.414 . S
O149 Nd121 2.682 1_455 S
O149 C138 1.273 . S
O150 Nd121 2.410 . S
O150 C139 1.251 . S
O151 Nd120 2.424 1_655 S
O151 C139 1.268 . S
H152 C124 0.930 . S
H153 C125 0.929 . S
H154 C127 0.930 . S
H155 C128 0.929 . S
H156 C133 0.930 . S
H157 C134 0.929 . S
H158 C136 0.930 . S
H159 C137 0.929 . S
Nd160 C162 2.836 . S
Nd160 O180 2.500 . S
Nd160 O181 2.492 . S
Nd160 O182 2.487 . S
Nd160 O183 2.682 . S
Nd160 O184 2.410 . S
Nd160 O189 2.414 . S
Nd160 O191 2.424 . S
Nd161 C171 2.836 . S
Nd161 O183 2.414 . S
Nd161 O185 2.424 . S
Nd161 O186 2.500 . S
Nd161 O187 2.492 . S
Nd161 O188 2.487 . S
Nd161 O189 2.682 . S
Nd161 O190 2.410 . S
C162 Nd160 2.836 . S
C162 C163 1.498 . S
C162 O180 1.258 . S
C162 O181 1.239 . S
C163 C162 1.498 . S
C163 C164 1.366 . S
C163 C168 1.407 . S
C164 C163 1.366 . S
C164 C165 1.392 . S
C164 H192 0.930 . S
C165 C164 1.392 . S
C165 C166 1.398 . S
C165 H193 0.929 . S
C166 C165 1.398 . S
C166 C167 1.352 . S
C167 C166 1.352 . S
C167 C168 1.384 . S
C167 H194 0.930 . S
C168 C163 1.407 . S
C168 C167 1.384 . S
C168 H195 0.929 . S
C169 O182 1.241 . S
C169 O183 1.273 . S
C170 O184 1.251 . S
C170 O185 1.268 . S
C171 Nd161 2.836 . S
C171 C172 1.498 . S
C171 O186 1.258 . S
C171 O187 1.239 . S
C172 C171 1.498 . S
C172 C173 1.366 . S
C172 C177 1.407 . S
C173 C172 1.366 . S
C173 C174 1.392 . S
C173 H196 0.930 . S
C174 C173 1.392 . S
C174 C175 1.398 . S
C174 H197 0.929 . S
C175 C174 1.398 . S
C175 C176 1.352 . S
C176 C175 1.352 . S
C176 C177 1.384 . S
C176 H198 0.930 . S
C177 C172 1.407 . S
C177 C176 1.384 . S
C177 H199 0.929 . S
C178 O188 1.241 . S
C178 O189 1.273 . S
C179 O190 1.251 . S
C179 O191 1.268 . S
O180 Nd160 2.500 . S
O180 C162 1.258 . S
O181 Nd160 2.492 . S
O181 C162 1.239 . S
O182 Nd160 2.487 . S
O182 C169 1.241 . S
O183 Nd160 2.682 . S
O183 Nd161 2.414 . S
O183 C169 1.273 . S
O184 Nd160 2.410 . S
O184 C170 1.251 . S
O185 Nd161 2.424 . S
O185 C170 1.268 . S
O186 Nd161 2.500 . S
O186 C171 1.258 . S
O187 Nd161 2.492 . S
O187 C171 1.239 . S
O188 Nd161 2.487 . S
O188 C178 1.241 . S
O189 Nd160 2.414 . S
O189 Nd161 2.682 . S
O189 C178 1.273 . S
O190 Nd161 2.410 . S
O190 C179 1.251 . S
O191 Nd160 2.424 . S
O191 C179 1.268 . S
H192 C164 0.930 . S
H193 C165 0.929 . S
H194 C167 0.930 . S
H195 C168 0.929 . S
H196 C173 0.930 . S
H197 C174 0.929 . S
H198 C176 0.930 . S
H199 C177 0.929 . S
Nd200 C202 2.821 1_545 S
Nd200 O220 2.484 1_545 S
Nd200 O221 2.481 1_545 S
Nd200 O222 2.490 . S
Nd200 O223 2.685 . S
Nd200 O224 2.390 1_545 S
Nd200 O229 2.409 . S
Nd200 O231 2.445 . S
Nd201 C211 2.836 . S
Nd201 O223 2.414 . S
Nd201 O225 2.424 1_545 S
Nd201 O226 2.500 . S
Nd201 O227 2.492 . S
Nd201 O228 2.487 . S
Nd201 O229 2.682 . S
Nd201 O230 2.410 . S
C202 Nd200 2.821 1_565 S
C202 C203 1.498 . S
C202 O220 1.258 . S
C202 O221 1.239 . S
C203 C202 1.498 . S
C203 C204 1.366 . S
C203 C208 1.407 . S
C204 C203 1.366 . S
C204 C205 1.392 . S
C204 H232 0.930 . S
C205 C204 1.392 . S
C205 C206 1.398 . S
C205 H233 0.929 . S
C206 C205 1.398 . S
C206 C207 1.352 . S
C207 C206 1.352 . S
C207 C208 1.384 . S
C207 H234 0.930 . S
C208 C203 1.407 . S
C208 C207 1.384 . S
C208 H235 0.929 . S
C209 O222 1.241 . S
C209 O223 1.273 . S
C210 O224 1.251 . S
C210 O225 1.268 . S
C211 Nd201 2.836 . S
C211 C212 1.498 . S
C211 O226 1.258 . S
C211 O227 1.239 . S
C212 C211 1.498 . S
C212 C213 1.366 . S
C212 C217 1.407 . S
C213 C212 1.366 . S
C213 C214 1.392 . S
C213 H236 0.930 . S
C214 C213 1.392 . S
C214 C215 1.398 . S
C214 H237 0.929 . S
C215 C214 1.398 . S
C215 C216 1.352 . S
C216 C215 1.352 . S
C216 C217 1.384 . S
C216 H238 0.930 . S
C217 C212 1.407 . S
C217 C216 1.384 . S
C217 H239 0.929 . S
C218 O228 1.241 . S
C218 O229 1.273 . S
C219 O230 1.251 . S
C219 O231 1.268 . S
O220 Nd200 2.484 1_565 S
O220 C202 1.258 . S
O221 Nd200 2.481 1_565 S
O221 C202 1.239 . S
O222 Nd200 2.490 . S
O222 C209 1.241 . S
O223 Nd200 2.685 . S
O223 Nd201 2.414 . S
O223 C209 1.273 . S
O224 Nd200 2.390 1_565 S
O224 C210 1.251 . S
O225 Nd201 2.424 1_565 S
O225 C210 1.268 . S
O226 Nd201 2.500 . S
O226 C211 1.258 . S
O227 Nd201 2.492 . S
O227 C211 1.239 . S
O228 Nd201 2.487 . S
O228 C218 1.241 . S
O229 Nd200 2.409 . S
O229 Nd201 2.682 . S
O229 C218 1.273 . S
O230 Nd201 2.410 . S
O230 C219 1.251 . S
O231 Nd200 2.445 . S
O231 C219 1.268 . S
H232 C204 0.930 . S
H233 C205 0.929 . S
H234 C207 0.930 . S
H235 C208 0.929 . S
H236 C213 0.930 . S
H237 C214 0.929 . S
H238 C216 0.930 . S
H239 C217 0.929 . S
Nd240 C242 2.836 . S
Nd240 O260 2.500 . S
Nd240 O261 2.492 . S
Nd240 O262 2.487 . S
Nd240 O263 2.682 . S
Nd240 O264 2.410 . S
Nd240 O269 2.414 . S
Nd240 O271 2.424 . S
Nd241 C251 2.836 . S
Nd241 O263 2.414 . S
Nd241 O265 2.424 . S
Nd241 O266 2.500 . S
Nd241 O267 2.492 . S
Nd241 O268 2.487 . S
Nd241 O269 2.682 . S
Nd241 O270 2.410 . S
C242 Nd240 2.836 . S
C242 C243 1.498 . S
C242 O260 1.258 . S
C242 O261 1.239 . S
C243 C242 1.498 . S
C243 C244 1.366 . S
C243 C248 1.407 . S
C244 C243 1.366 . S
C244 C245 1.392 . S
C244 H272 0.930 . S
C245 C244 1.392 . S
C245 C246 1.398 . S
C245 H273 0.929 . S
C246 C245 1.398 . S
C246 C247 1.352 . S
C247 C246 1.352 . S
C247 C248 1.384 . S
C247 H274 0.930 . S
C248 C243 1.407 . S
C248 C247 1.384 . S
C248 H275 0.929 . S
C249 O262 1.241 . S
C249 O263 1.273 . S
C250 O264 1.251 . S
C250 O265 1.268 . S
C251 Nd241 2.836 . S
C251 C252 1.498 . S
C251 O266 1.258 . S
C251 O267 1.239 . S
C252 C251 1.498 . S
C252 C253 1.366 . S
C252 C257 1.407 . S
C253 C252 1.366 . S
C253 C254 1.392 . S
C253 H276 0.930 . S
C254 C253 1.392 . S
C254 C255 1.398 . S
C254 H277 0.929 . S
C255 C254 1.398 . S
C255 C256 1.352 . S
C256 C255 1.352 . S
C256 C257 1.384 . S
C256 H278 0.930 . S
C257 C252 1.407 . S
C257 C256 1.384 . S
C257 H279 0.929 . S
C258 O268 1.241 . S
C258 O269 1.273 . S
C259 O270 1.251 . S
C259 O271 1.268 . S
O260 Nd240 2.500 . S
O260 C242 1.258 . S
O261 Nd240 2.492 . S
O261 C242 1.239 . S
O262 Nd240 2.487 . S
O262 C249 1.241 . S
O263 Nd240 2.682 . S
O263 Nd241 2.414 . S
O263 C249 1.273 . S
O264 Nd240 2.410 . S
O264 C250 1.251 . S
O265 Nd241 2.424 . S
O265 C250 1.268 . S
O266 Nd241 2.500 . S
O266 C251 1.258 . S
O267 Nd241 2.492 . S
O267 C251 1.239 . S
O268 Nd241 2.487 . S
O268 C258 1.241 . S
O269 Nd240 2.414 . S
O269 Nd241 2.682 . S
O269 C258 1.273 . S
O270 Nd241 2.410 . S
O270 C259 1.251 . S
O271 Nd240 2.424 . S
O271 C259 1.268 . S
H272 C244 0.930 . S
H273 C245 0.929 . S
H274 C247 0.930 . S
H275 C248 0.929 . S
H276 C253 0.930 . S
H277 C254 0.929 . S
H278 C256 0.930 . S
H279 C257 0.929 . S
Nd280 C282 2.836 . S
Nd280 O300 2.500 . S
Nd280 O301 2.492 . S
Nd280 O302 2.487 . S
Nd280 O303 2.682 . S
Nd280 O304 2.410 . S
Nd280 O309 2.414 . S
Nd280 O311 2.424 . S
Nd281 C291 2.836 . S
Nd281 O303 2.414 . S
Nd281 O305 2.424 . S
Nd281 O306 2.500 . S
Nd281 O307 2.492 . S
Nd281 O308 2.487 . S
Nd281 O309 2.682 . S
Nd281 O310 2.410 . S
C282 Nd280 2.836 . S
C282 C283 1.498 . S
C282 O300 1.258 . S
C282 O301 1.239 . S
C283 C282 1.498 . S
C283 C284 1.366 . S
C283 C288 1.407 . S
C284 C283 1.366 . S
C284 C285 1.392 . S
C284 H312 0.930 . S
C285 C284 1.392 . S
C285 C286 1.398 . S
C285 H313 0.929 . S
C286 C285 1.398 . S
C286 C287 1.352 . S
C287 C286 1.352 . S
C287 C288 1.384 . S
C287 H314 0.930 . S
C288 C283 1.407 . S
C288 C287 1.384 . S
C288 H315 0.929 . S
C289 O302 1.241 . S
C289 O303 1.273 . S
C290 O304 1.251 . S
C290 O305 1.268 . S
C291 Nd281 2.836 . S
C291 C292 1.498 . S
C291 O306 1.258 . S
C291 O307 1.239 . S
C292 C291 1.498 . S
C292 C293 1.366 . S
C292 C297 1.407 . S
C293 C292 1.366 . S
C293 C294 1.392 . S
C293 H316 0.930 . S
C294 C293 1.392 . S
C294 C295 1.398 1_565 S
C294 H317 0.929 . S
C295 C294 1.398 1_545 S
C295 C296 1.352 . S
C296 C295 1.352 . S
C296 C297 1.384 1_545 S
C296 H318 0.930 . S
C297 C292 1.407 . S
C297 C296 1.384 1_565 S
C297 H319 0.929 . S
C298 O308 1.241 . S
C298 O309 1.273 . S
C299 O310 1.251 . S
C299 O311 1.268 . S
O300 Nd280 2.500 . S
O300 C282 1.258 . S
O301 Nd280 2.492 . S
O301 C282 1.239 . S
O302 Nd280 2.487 . S
O302 C289 1.241 . S
O303 Nd280 2.682 . S
O303 Nd281 2.414 . S
O303 C289 1.273 . S
O304 Nd280 2.410 . S
O304 C290 1.251 . S
O305 Nd281 2.424 . S
O305 C290 1.268 . S
O306 Nd281 2.500 . S
O306 C291 1.258 . S
O307 Nd281 2.492 . S
O307 C291 1.239 . S
O308 Nd281 2.487 . S
O308 C298 1.241 . S
O309 Nd280 2.414 . S
O309 Nd281 2.682 . S
O309 C298 1.273 . S
O310 Nd281 2.410 . S
O310 C299 1.251 . S
O311 Nd280 2.424 . S
O311 C299 1.268 . S
H312 C284 0.930 . S
H313 C285 0.929 . S
H314 C287 0.930 . S
H315 C288 0.929 . S
H316 C293 0.930 . S
H317 C294 0.929 . S
H318 C296 0.930 . S
H319 C297 0.929 . S
Nd320 C322 2.836 . S
Nd320 O340 2.500 . S
Nd320 O341 2.492 . S
Nd320 O342 2.487 . S
Nd320 O343 2.682 . S
Nd320 O344 2.410 . S
Nd320 O349 2.414 . S
Nd320 O351 2.424 . S
Nd321 C331 2.836 . S
Nd321 O343 2.414 . S
Nd321 O345 2.424 . S
Nd321 O346 2.500 . S
Nd321 O347 2.492 . S
Nd321 O348 2.487 . S
Nd321 O349 2.682 . S
Nd321 O350 2.410 . S
C322 Nd320 2.836 . S
C322 C323 1.498 . S
C322 O340 1.258 . S
C322 O341 1.239 . S
C323 C322 1.498 . S
C323 C324 1.366 . S
C323 C328 1.407 . S
C324 C323 1.366 . S
C324 C325 1.392 . S
C324 H352 0.930 . S
C325 C324 1.392 . S
C325 C326 1.398 . S
C325 H353 0.929 . S
C326 C325 1.398 . S
C326 C327 1.352 . S
C327 C326 1.352 . S
C327 C328 1.384 . S
C327 H354 0.930 . S
C328 C323 1.407 . S
C328 C327 1.384 . S
C328 H355 0.929 . S
C329 O342 1.241 . S
C329 O343 1.273 . S
C330 O344 1.251 . S
C330 O345 1.268 . S
C331 Nd321 2.836 . S
C331 C332 1.498 . S
C331 O346 1.258 . S
C331 O347 1.239 . S
C332 C331 1.498 . S
C332 C333 1.366 . S
C332 C337 1.407 . S
C333 C332 1.366 . S
C333 C334 1.392 . S
C333 H356 0.930 . S
C334 C333 1.392 . S
C334 C335 1.398 . S
C334 H357 0.929 . S
C335 C334 1.398 . S
C335 C336 1.352 . S
C336 C335 1.352 . S
C336 C337 1.384 . S
C336 H358 0.930 1_455 S
C337 C332 1.407 . S
C337 C336 1.384 . S
C337 H359 0.929 . S
C338 O348 1.241 . S
C338 O349 1.273 . S
C339 O350 1.251 . S
C339 O351 1.268 . S
O340 Nd320 2.500 . S
O340 C322 1.258 . S
O341 Nd320 2.492 . S
O341 C322 1.239 . S
O342 Nd320 2.487 . S
O342 C329 1.241 . S
O343 Nd320 2.682 . S
O343 Nd321 2.414 . S
O343 C329 1.273 . S
O344 Nd320 2.410 . S
O344 C330 1.251 . S
O345 Nd321 2.424 . S
O345 C330 1.268 . S
O346 Nd321 2.500 . S
O346 C331 1.258 . S
O347 Nd321 2.492 . S
O347 C331 1.239 . S
O348 Nd321 2.487 . S
O348 C338 1.241 . S
O349 Nd320 2.414 . S
O349 Nd321 2.682 . S
O349 C338 1.273 . S
O350 Nd321 2.410 . S
O350 C339 1.251 . S
O351 Nd320 2.424 . S
O351 C339 1.268 . S
H352 C324 0.930 . S
H353 C325 0.929 . S
H354 C327 0.930 . S
H355 C328 0.929 . S
H356 C333 0.930 . S
H357 C334 0.929 . S
H358 C336 0.930 1_655 S
H359 C337 0.929 . S
Nd360 C362 2.836 . S
Nd360 O380 2.500 . S
Nd360 O381 2.492 . S
Nd360 O382 2.487 . S
Nd360 O383 2.682 . S
Nd360 O384 2.410 . S
Nd360 O389 2.414 . S
Nd360 O391 2.424 . S
Nd361 C371 2.836 . S
Nd361 O383 2.414 . S
Nd361 O385 2.424 . S
Nd361 O386 2.500 . S
Nd361 O387 2.492 . S
Nd361 O388 2.487 . S
Nd361 O389 2.682 . S
Nd361 O390 2.410 . S
C362 Nd360 2.836 . S
C362 C363 1.498 . S
C362 O380 1.258 . S
C362 O381 1.239 . S
C363 C362 1.498 . S
C363 C364 1.366 . S
C363 C368 1.407 . S
C364 C363 1.366 . S
C364 C365 1.392 . S
C364 H392 0.930 . S
C365 C364 1.392 . S
C365 C366 1.398 . S
C365 H393 0.929 . S
C366 C365 1.398 . S
C366 C367 1.352 . S
C367 C366 1.352 . S
C367 C368 1.384 . S
C367 H394 0.930 . S
C368 C363 1.407 . S
C368 C367 1.384 . S
C368 H395 0.929 . S
C369 O382 1.241 . S
C369 O383 1.273 . S
C370 O384 1.251 . S
C370 O385 1.268 . S
C371 Nd361 2.836 . S
C371 C372 1.498 . S
C371 O386 1.258 . S
C371 O387 1.239 . S
C372 C371 1.498 . S
C372 C373 1.366 . S
C372 C377 1.407 . S
C373 C372 1.366 . S
C373 C374 1.392 . S
C373 H396 0.930 . S
C374 C373 1.392 . S
C374 C375 1.398 . S
C374 H397 0.929 . S
C375 C374 1.398 . S
C375 C376 1.352 . S
C376 C375 1.352 . S
C376 C377 1.384 . S
C376 H398 0.930 . S
C377 C372 1.407 . S
C377 C376 1.384 . S
C377 H399 0.929 . S
C378 O388 1.241 . S
C378 O389 1.273 . S
C379 O390 1.251 . S
C379 O391 1.268 . S
O380 Nd360 2.500 . S
O380 C362 1.258 . S
O381 Nd360 2.492 . S
O381 C362 1.239 . S
O382 Nd360 2.487 . S
O382 C369 1.241 . S
O383 Nd360 2.682 . S
O383 Nd361 2.414 . S
O383 C369 1.273 . S
O384 Nd360 2.410 . S
O384 C370 1.251 . S
O385 Nd361 2.424 . S
O385 C370 1.268 . S
O386 Nd361 2.500 . S
O386 C371 1.258 . S
O387 Nd361 2.492 . S
O387 C371 1.239 . S
O388 Nd361 2.487 . S
O388 C378 1.241 . S
O389 Nd360 2.414 . S
O389 Nd361 2.682 . S
O389 C378 1.273 . S
O390 Nd361 2.410 . S
O390 C379 1.251 . S
O391 Nd360 2.424 . S
O391 C379 1.268 . S
H392 C364 0.930 . S
H393 C365 0.929 . S
H394 C367 0.930 . S
H395 C368 0.929 . S
H396 C373 0.930 . S
H397 C374 0.929 . S
H398 C376 0.930 . S
H399 C377 0.929 . S
Nd400 C402 2.836 . S
Nd400 O420 2.500 . S
Nd400 O421 2.492 . S
Nd400 O422 2.487 . S
Nd400 O423 2.682 . S
Nd400 O424 2.410 . S
Nd400 O429 2.414 . S
Nd400 O431 2.424 . S
Nd401 C411 2.836 . S
Nd401 O423 2.414 . S
Nd401 O425 2.424 . S
Nd401 O426 2.500 . S
Nd401 O427 2.492 . S
Nd401 O428 2.487 . S
Nd401 O429 2.682 . S
Nd401 O430 2.410 . S
C402 Nd400 2.836 . S
C402 C403 1.498 1_565 S
C402 O420 1.258 . S
C402 O421 1.239 . S
C403 C402 1.498 1_545 S
C403 C404 1.366 . S
C403 C408 1.407 . S
C404 C403 1.366 . S
C404 C405 1.392 . S
C404 H432 0.930 1_545 S
C405 C404 1.392 . S
C405 C406 1.398 . S
C405 H433 0.929 . S
C406 C405 1.398 . S
C406 C407 1.352 . S
C407 C406 1.352 . S
C407 C408 1.384 . S
C407 H434 0.930 . S
C408 C403 1.407 . S
C408 C407 1.384 . S
C408 H435 0.929 . S
C409 O422 1.241 . S
C409 O423 1.273 . S
C410 O424 1.251 . S
C410 O425 1.268 . S
C411 Nd401 2.836 . S
C411 C412 1.498 . S
C411 O426 1.258 . S
C411 O427 1.239 . S
C412 C411 1.498 . S
C412 C413 1.366 . S
C412 C417 1.407 . S
C413 C412 1.366 . S
C413 C414 1.392 . S
C413 H436 0.930 . S
C414 C413 1.392 . S
C414 C415 1.398 . S
C414 H437 0.929 . S
C415 C414 1.398 . S
C415 C416 1.352 . S
C416 C415 1.352 . S
C416 C417 1.384 . S
C416 H438 0.930 . S
C417 C412 1.407 . S
C417 C416 1.384 . S
C417 H439 0.929 . S
C418 O428 1.241 . S
C418 O429 1.273 . S
C419 O430 1.251 . S
C419 O431 1.268 . S
O420 Nd400 2.500 . S
O420 C402 1.258 . S
O421 Nd400 2.492 . S
O421 C402 1.239 . S
O422 Nd400 2.487 . S
O422 C409 1.241 . S
O423 Nd400 2.682 . S
O423 Nd401 2.414 . S
O423 C409 1.273 . S
O424 Nd400 2.410 . S
O424 C410 1.251 . S
O425 Nd401 2.424 . S
O425 C410 1.268 . S
O426 Nd401 2.500 . S
O426 C411 1.258 . S
O427 Nd401 2.492 . S
O427 C411 1.239 . S
O428 Nd401 2.487 . S
O428 C418 1.241 . S
O429 Nd400 2.414 . S
O429 Nd401 2.682 . S
O429 C418 1.273 . S
O430 Nd401 2.410 . S
O430 C419 1.251 . S
O431 Nd400 2.424 . S
O431 C419 1.268 . S
H432 C404 0.930 1_565 S
H433 C405 0.929 . S
H434 C407 0.930 . S
H435 C408 0.929 . S
H436 C413 0.930 . S
H437 C414 0.929 . S
H438 C416 0.930 . S
H439 C417 0.929 . S
Nd440 C442 2.836 . S
Nd440 O460 2.500 . S
Nd440 O461 2.492 . S
Nd440 O462 2.487 . S
Nd440 O463 2.682 . S
Nd440 O464 2.410 . S
Nd440 O469 2.414 . S
Nd440 O471 2.424 . S
Nd441 C451 2.836 . S
Nd441 O463 2.414 . S
Nd441 O465 2.424 . S
Nd441 O466 2.500 . S
Nd441 O467 2.492 . S
Nd441 O468 2.487 . S
Nd441 O469 2.682 . S
Nd441 O470 2.410 . S
C442 Nd440 2.836 . S
C442 C443 1.498 . S
C442 O460 1.258 . S
C442 O461 1.239 . S
C443 C442 1.498 . S
C443 C444 1.366 . S
C443 C448 1.407 1_455 S
C444 C443 1.366 . S
C444 C445 1.392 1_455 S
C444 H472 0.930 . S
C445 C444 1.392 1_655 S
C445 C446 1.398 . S
C445 H473 0.929 . S
C446 C445 1.398 . S
C446 C447 1.352 . S
C447 C446 1.352 . S
C447 C448 1.384 . S
C447 H474 0.930 . S
C448 C443 1.407 1_655 S
C448 C447 1.384 . S
C448 H475 0.929 . S
C449 O462 1.241 . S
C449 O463 1.273 . S
C450 O464 1.251 . S
C450 O465 1.268 . S
C451 Nd441 2.836 . S
C451 C452 1.498 . S
C451 O466 1.258 . S
C451 O467 1.239 . S
C452 C451 1.498 . S
C452 C453 1.366 . S
C452 C457 1.407 . S
C453 C452 1.366 . S
C453 C454 1.392 . S
C453 H476 0.930 . S
C454 C453 1.392 . S
C454 C455 1.398 . S
C454 H477 0.929 . S
C455 C454 1.398 . S
C455 C456 1.352 . S
C456 C455 1.352 . S
C456 C457 1.384 . S
C456 H478 0.930 . S
C457 C452 1.407 . S
C457 C456 1.384 . S
C457 H479 0.929 . S
C458 O468 1.241 . S
C458 O469 1.273 . S
C459 O470 1.251 . S
C459 O471 1.268 . S
O460 Nd440 2.500 . S
O460 C442 1.258 . S
O461 Nd440 2.492 . S
O461 C442 1.239 . S
O462 Nd440 2.487 . S
O462 C449 1.241 . S
O463 Nd440 2.682 . S
O463 Nd441 2.414 . S
O463 C449 1.273 . S
O464 Nd440 2.410 . S
O464 C450 1.251 . S
O465 Nd441 2.424 . S
O465 C450 1.268 . S
O466 Nd441 2.500 . S
O466 C451 1.258 . S
O467 Nd441 2.492 . S
O467 C451 1.239 . S
O468 Nd441 2.487 . S
O468 C458 1.241 . S
O469 Nd440 2.414 . S
O469 Nd441 2.682 . S
O469 C458 1.273 . S
O470 Nd441 2.410 . S
O470 C459 1.251 . S
O471 Nd440 2.424 . S
O471 C459 1.268 . S
H472 C444 0.930 . S
H473 C445 0.929 . S
H474 C447 0.930 . S
H475 C448 0.929 . S
H476 C453 0.930 . S
H477 C454 0.929 . S
H478 C456 0.930 . S
H479 C457 0.929 . S
Nd480 C482 2.836 . S
Nd480 O500 2.500 . S
Nd480 O501 2.492 . S
Nd480 O502 2.487 . S
Nd480 O503 2.682 . S
Nd480 O504 2.410 . S
Nd480 O509 2.414 . S
Nd480 O511 2.424 . S
Nd481 C491 2.836 . S
Nd481 O503 2.414 . S
Nd481 O505 2.424 . S
Nd481 O506 2.500 . S
Nd481 O507 2.492 . S
Nd481 O508 2.487 . S
Nd481 O509 2.682 . S
Nd481 O510 2.410 . S
C482 Nd480 2.836 . S
C482 C483 1.498 . S
C482 O500 1.258 . S
C482 O501 1.239 . S
C483 C482 1.498 . S
C483 C484 1.366 . S
C483 C488 1.407 . S
C484 C483 1.366 . S
C484 C485 1.392 . S
C484 H512 0.930 . S
C485 C484 1.392 . S
C485 C486 1.398 . S
C485 H513 0.929 . S
C486 C485 1.398 . S
C486 C487 1.352 . S
C487 C486 1.352 . S
C487 C488 1.384 . S
C487 H514 0.930 . S
C488 C483 1.407 . S
C488 C487 1.384 . S
C488 H515 0.929 . S
C489 O502 1.241 . S
C489 O503 1.273 . S
C490 O504 1.251 . S
C490 O505 1.268 . S
C491 Nd481 2.836 . S
C491 C492 1.498 . S
C491 O506 1.258 . S
C491 O507 1.239 . S
C492 C491 1.498 . S
C492 C493 1.366 . S
C492 C497 1.407 . S
C493 C492 1.366 . S
C493 C494 1.392 . S
C493 H516 0.930 . S
C494 C493 1.392 . S
C494 C495 1.398 . S
C494 H517 0.929 . S
C495 C494 1.398 . S
C495 C496 1.352 . S
C496 C495 1.352 . S
C496 C497 1.384 . S
C496 H518 0.930 . S
C497 C492 1.407 . S
C497 C496 1.384 . S
C497 H519 0.929 . S
C498 O508 1.241 . S
C498 O509 1.273 . S
C499 O510 1.251 . S
C499 O511 1.268 . S
O500 Nd480 2.500 . S
O500 C482 1.258 . S
O501 Nd480 2.492 . S
O501 C482 1.239 . S
O502 Nd480 2.487 . S
O502 C489 1.241 . S
O503 Nd480 2.682 . S
O503 Nd481 2.414 . S
O503 C489 1.273 . S
O504 Nd480 2.410 . S
O504 C490 1.251 . S
O505 Nd481 2.424 . S
O505 C490 1.268 . S
O506 Nd481 2.500 . S
O506 C491 1.258 . S
O507 Nd481 2.492 . S
O507 C491 1.239 . S
O508 Nd481 2.487 . S
O508 C498 1.241 . S
O509 Nd480 2.414 . S
O509 Nd481 2.682 . S
O509 C498 1.273 . S
O510 Nd481 2.410 . S
O510 C499 1.251 . S
O511 Nd480 2.424 . S
O511 C499 1.268 . S
H512 C484 0.930 . S
H513 C485 0.929 . S
H514 C487 0.930 . S
H515 C488 0.929 . S
H516 C493 0.930 . S
H517 C494 0.929 . S
H518 C496 0.930 . S
H519 C497 0.929 . S
Nd520 C522 2.836 . S
Nd520 O540 2.500 . S
Nd520 O541 2.492 . S
Nd520 O542 2.487 . S
Nd520 O543 2.682 . S
Nd520 O544 2.410 . S
Nd520 O549 2.414 . S
Nd520 O551 2.424 . S
Nd521 C531 2.836 . S
Nd521 O543 2.414 . S
Nd521 O545 2.424 . S
Nd521 O546 2.500 . S
Nd521 O547 2.492 . S
Nd521 O548 2.487 . S
Nd521 O549 2.682 . S
Nd521 O550 2.410 . S
C522 Nd520 2.836 . S
C522 C523 1.498 . S
C522 O540 1.258 . S
C522 O541 1.239 . S
C523 C522 1.498 . S
C523 C524 1.366 . S
C523 C528 1.407 1_545 S
C524 C523 1.366 . S
C524 C525 1.392 1_545 S
C524 H552 0.930 . S
C525 C524 1.392 1_565 S
C525 C526 1.398 . S
C525 H553 0.929 . S
C526 C525 1.398 . S
C526 C527 1.352 . S
C527 C526 1.352 . S
C527 C528 1.384 . S
C527 H554 0.930 . S
C528 C523 1.407 1_565 S
C528 C527 1.384 . S
C528 H555 0.929 . S
C529 O542 1.241 . S
C529 O543 1.273 . S
C530 O544 1.251 . S
C530 O545 1.268 . S
C531 Nd521 2.836 . S
C531 C532 1.498 . S
C531 O546 1.258 . S
C531 O547 1.239 . S
C532 C531 1.498 . S
C532 C533 1.366 . S
C532 C537 1.407 . S
C533 C532 1.366 . S
C533 C534 1.392 . S
C533 H556 0.930 . S
C534 C533 1.392 . S
C534 C535 1.398 . S
C534 H557 0.929 . S
C535 C534 1.398 . S
C535 C536 1.352 . S
C536 C535 1.352 . S
C536 C537 1.384 . S
C536 H558 0.930 . S
C537 C532 1.407 . S
C537 C536 1.384 . S
C537 H559 0.929 . S
C538 O548 1.241 . S
C538 O549 1.273 . S
C539 O550 1.251 . S
C539 O551 1.268 . S
O540 Nd520 2.500 . S
O540 C522 1.258 . S
O541 Nd520 2.492 . S
O541 C522 1.239 . S
O542 Nd520 2.487 . S
O542 C529 1.241 . S
O543 Nd520 2.682 . S
O543 Nd521 2.414 . S
O543 C529 1.273 . S
O544 Nd520 2.410 . S
O544 C530 1.251 . S
O545 Nd521 2.424 . S
O545 C530 1.268 . S
O546 Nd521 2.500 . S
O546 C531 1.258 . S
O547 Nd521 2.492 . S
O547 C531 1.239 . S
O548 Nd521 2.487 . S
O548 C538 1.241 . S
O549 Nd520 2.414 . S
O549 Nd521 2.682 . S
O549 C538 1.273 . S
O550 Nd521 2.410 . S
O550 C539 1.251 . S
O551 Nd520 2.424 . S
O551 C539 1.268 . S
H552 C524 0.930 . S
H553 C525 0.929 . S
H554 C527 0.930 . S
H555 C528 0.929 . S
H556 C533 0.930 . S
H557 C534 0.929 . S
H558 C536 0.930 . S
H559 C537 0.929 . S
Nd560 C562 2.836 . S
Nd560 O580 2.500 . S
Nd560 O581 2.492 . S
Nd560 O582 2.487 . S
Nd560 O583 2.682 . S
Nd560 O584 2.410 . S
Nd560 O589 2.414 . S
Nd560 O591 2.424 . S
Nd561 C571 2.836 . S
Nd561 O583 2.414 . S
Nd561 O585 2.424 . S
Nd561 O586 2.500 . S
Nd561 O587 2.492 . S
Nd561 O588 2.487 . S
Nd561 O589 2.682 . S
Nd561 O590 2.410 . S
C562 Nd560 2.836 . S
C562 C563 1.498 1_655 S
C562 O580 1.258 . S
C562 O581 1.239 . S
C563 C562 1.498 1_455 S
C563 C564 1.366 . S
C563 C568 1.407 . S
C564 C563 1.366 . S
C564 C565 1.392 . S
C564 H592 0.930 1_455 S
C565 C564 1.392 . S
C565 C566 1.398 . S
C565 H593 0.929 . S
C566 C565 1.398 . S
C566 C567 1.352 . S
C567 C566 1.352 . S
C567 C568 1.384 . S
C567 H594 0.930 . S
C568 C563 1.407 . S
C568 C567 1.384 . S
C568 H595 0.929 . S
C569 O582 1.241 . S
C569 O583 1.273 . S
C570 O584 1.251 . S
C570 O585 1.268 . S
C571 Nd561 2.836 . S
C571 C572 1.498 . S
C571 O586 1.258 . S
C571 O587 1.239 . S
C572 C571 1.498 . S
C572 C573 1.366 . S
C572 C577 1.407 . S
C573 C572 1.366 . S
C573 C574 1.392 . S
C573 H596 0.930 . S
C574 C573 1.392 . S
C574 C575 1.398 . S
C574 H597 0.929 . S
C575 C574 1.398 . S
C575 C576 1.352 . S
C576 C575 1.352 . S
C576 C577 1.384 . S
C576 H598 0.930 . S
C577 C572 1.407 . S
C577 C576 1.384 . S
C577 H599 0.929 . S
C578 O588 1.241 . S
C578 O589 1.273 . S
C579 O590 1.251 . S
C579 O591 1.268 . S
O580 Nd560 2.500 . S
O580 C562 1.258 . S
O581 Nd560 2.492 . S
O581 C562 1.239 . S
O582 Nd560 2.487 . S
O582 C569 1.241 . S
O583 Nd560 2.682 . S
O583 Nd561 2.414 . S
O583 C569 1.273 . S
O584 Nd560 2.410 . S
O584 C570 1.251 . S
O585 Nd561 2.424 . S
O585 C570 1.268 . S
O586 Nd561 2.500 . S
O586 C571 1.258 . S
O587 Nd561 2.492 . S
O587 C571 1.239 . S
O588 Nd561 2.487 . S
O588 C578 1.241 . S
O589 Nd560 2.414 . S
O589 Nd561 2.682 . S
O589 C578 1.273 . S
O590 Nd561 2.410 . S
O590 C579 1.251 . S
O591 Nd560 2.424 . S
O591 C579 1.268 . S
H592 C564 0.930 1_655 S
H593 C565 0.929 . S
H594 C567 0.930 . S
H595 C568 0.929 . S
H596 C573 0.930 . S
H597 C574 0.929 . S
H598 C576 0.930 . S
H599 C577 0.929 . S
Nd600 C602 2.836 . S
Nd600 O620 2.500 . S
Nd600 O621 2.492 . S
Nd600 O622 2.487 . S
Nd600 O623 2.682 . S
Nd600 O624 2.410 . S
Nd600 O629 2.414 . S
Nd600 O631 2.424 . S
Nd601 C611 2.836 . S
Nd601 O623 2.414 . S
Nd601 O625 2.424 . S
Nd601 O626 2.500 . S
Nd601 O627 2.492 . S
Nd601 O628 2.487 . S
Nd601 O629 2.682 . S
Nd601 O630 2.410 . S
C602 Nd600 2.836 . S
C602 C603 1.498 . S
C602 O620 1.258 . S
C602 O621 1.239 . S
C603 C602 1.498 . S
C603 C604 1.366 . S
C603 C608 1.407 . S
C604 C603 1.366 . S
C604 C605 1.392 . S
C604 H632 0.930 . S
C605 C604 1.392 . S
C605 C606 1.398 . S
C605 H633 0.929 . S
C606 C605 1.398 . S
C606 C607 1.352 . S
C607 C606 1.352 . S
C607 C608 1.384 . S
C607 H634 0.930 . S
C608 C603 1.407 . S
C608 C607 1.384 . S
C608 H635 0.929 . S
C609 O622 1.241 . S
C609 O623 1.273 . S
C610 O624 1.251 . S
C610 O625 1.268 . S
C611 Nd601 2.836 . S
C611 C612 1.498 . S
C611 O626 1.258 . S
C611 O627 1.239 . S
C612 C611 1.498 . S
C612 C613 1.366 . S
C612 C617 1.407 . S
C613 C612 1.366 . S
C613 C614 1.392 . S
C613 H636 0.930 . S
C614 C613 1.392 . S
C614 C615 1.398 . S
C614 H637 0.929 . S
C615 C614 1.398 . S
C615 C616 1.352 . S
C616 C615 1.352 . S
C616 C617 1.384 . S
C616 H638 0.930 . S
C617 C612 1.407 . S
C617 C616 1.384 . S
C617 H639 0.929 . S
C618 O628 1.241 . S
C618 O629 1.273 . S
C619 O630 1.251 . S
C619 O631 1.268 . S
O620 Nd600 2.500 . S
O620 C602 1.258 . S
O621 Nd600 2.492 . S
O621 C602 1.239 . S
O622 Nd600 2.487 . S
O622 C609 1.241 . S
O623 Nd600 2.682 . S
O623 Nd601 2.414 . S
O623 C609 1.273 . S
O624 Nd600 2.410 . S
O624 C610 1.251 . S
O625 Nd601 2.424 . S
O625 C610 1.268 . S
O626 Nd601 2.500 . S
O626 C611 1.258 . S
O627 Nd601 2.492 . S
O627 C611 1.239 . S
O628 Nd601 2.487 . S
O628 C618 1.241 . S
O629 Nd600 2.414 . S
O629 Nd601 2.682 . S
O629 C618 1.273 . S
O630 Nd601 2.410 . S
O630 C619 1.251 . S
O631 Nd600 2.424 . S
O631 C619 1.268 . S
H632 C604 0.930 . S
H633 C605 0.929 . S
H634 C607 0.930 . S
H635 C608 0.929 . S
H636 C613 0.930 . S
H637 C614 0.929 . S
H638 C616 0.930 . S
H639 C617 0.929 . S
Nd640 C642 2.836 . S
Nd640 O660 2.500 . S
Nd640 O661 2.492 . S
Nd640 O662 2.487 . S
Nd640 O663 2.682 . S
Nd640 O664 2.410 . S
Nd640 O669 2.414 . S
Nd640 O671 2.424 . S
Nd641 C651 2.836 . S
Nd641 O663 2.414 . S
Nd641 O665 2.424 . S
Nd641 O666 2.500 . S
Nd641 O667 2.492 . S
Nd641 O668 2.487 . S
Nd641 O669 2.682 . S
Nd641 O670 2.410 . S
C642 Nd640 2.836 . S
C642 C643 1.498 . S
C642 O660 1.258 . S
C642 O661 1.239 . S
C643 C642 1.498 . S
C643 C644 1.366 . S
C643 C648 1.407 . S
C644 C643 1.366 . S
C644 C645 1.392 . S
C644 H672 0.930 . S
C645 C644 1.392 . S
C645 C646 1.398 . S
C645 H673 0.929 . S
C646 C645 1.398 . S
C646 C647 1.352 . S
C647 C646 1.352 . S
C647 C648 1.384 . S
C647 H674 0.930 . S
C648 C643 1.407 . S
C648 C647 1.384 . S
C648 H675 0.929 . S
C649 O662 1.241 . S
C649 O663 1.273 . S
C650 O664 1.251 . S
C650 O665 1.268 . S
C651 Nd641 2.836 . S
C651 C652 1.498 . S
C651 O666 1.258 . S
C651 O667 1.239 . S
C652 C651 1.498 . S
C652 C653 1.366 . S
C652 C657 1.407 . S
C653 C652 1.366 . S
C653 C654 1.392 . S
C653 H676 0.930 . S
C654 C653 1.392 . S
C654 C655 1.398 . S
C654 H677 0.929 . S
C655 C654 1.398 . S
C655 C656 1.352 . S
C656 C655 1.352 . S
C656 C657 1.384 . S
C656 H678 0.930 1_545 S
C657 C652 1.407 . S
C657 C656 1.384 . S
C657 H679 0.929 . S
C658 O668 1.241 . S
C658 O669 1.273 . S
C659 O670 1.251 . S
C659 O671 1.268 . S
O660 Nd640 2.500 . S
O660 C642 1.258 . S
O661 Nd640 2.492 . S
O661 C642 1.239 . S
O662 Nd640 2.487 . S
O662 C649 1.241 . S
O663 Nd640 2.682 . S
O663 Nd641 2.414 . S
O663 C649 1.273 . S
O664 Nd640 2.410 . S
O664 C650 1.251 . S
O665 Nd641 2.424 . S
O665 C650 1.268 . S
O666 Nd641 2.500 . S
O666 C651 1.258 . S
O667 Nd641 2.492 . S
O667 C651 1.239 . S
O668 Nd641 2.487 . S
O668 C658 1.241 . S
O669 Nd640 2.414 . S
O669 Nd641 2.682 . S
O669 C658 1.273 . S
O670 Nd641 2.410 . S
O670 C659 1.251 . S
O671 Nd640 2.424 . S
O671 C659 1.268 . S
H672 C644 0.930 . S
H673 C645 0.929 . S
H674 C647 0.930 . S
H675 C648 0.929 . S
H676 C653 0.930 . S
H677 C654 0.929 . S
H678 C656 0.930 1_565 S
H679 C657 0.929 . S
Nd680 C682 2.836 . S
Nd680 O700 2.500 . S
Nd680 O701 2.492 . S
Nd680 O702 2.487 . S
Nd680 O703 2.682 . S
Nd680 O704 2.410 . S
Nd680 O709 2.414 . S
Nd680 O711 2.424 . S
Nd681 C691 2.836 . S
Nd681 O703 2.414 . S
Nd681 O705 2.424 . S
Nd681 O706 2.500 . S
Nd681 O707 2.492 . S
Nd681 O708 2.487 . S
Nd681 O709 2.682 . S
Nd681 O710 2.410 . S
C682 Nd680 2.836 . S
C682 C683 1.498 . S
C682 O700 1.258 . S
C682 O701 1.239 . S
C683 C682 1.498 . S
C683 C684 1.366 . S
C683 C688 1.407 . S
C684 C683 1.366 . S
C684 C685 1.392 . S
C684 H712 0.930 . S
C685 C684 1.392 . S
C685 C686 1.398 . S
C685 H713 0.929 . S
C686 C685 1.398 . S
C686 C687 1.352 . S
C687 C686 1.352 . S
C687 C688 1.384 . S
C687 H714 0.930 . S
C688 C683 1.407 . S
C688 C687 1.384 . S
C688 H715 0.929 . S
C689 O702 1.241 . S
C689 O703 1.273 . S
C690 O704 1.251 . S
C690 O705 1.268 . S
C691 Nd681 2.836 . S
C691 C692 1.498 . S
C691 O706 1.258 . S
C691 O707 1.239 . S
C692 C691 1.498 . S
C692 C693 1.366 . S
C692 C697 1.407 . S
C693 C692 1.366 . S
C693 C694 1.392 . S
C693 H716 0.930 . S
C694 C693 1.392 . S
C694 C695 1.398 1_655 S
C694 H717 0.929 . S
C695 C694 1.398 1_455 S
C695 C696 1.352 . S
C696 C695 1.352 . S
C696 C697 1.384 1_455 S
C696 H718 0.930 . S
C697 C692 1.407 . S
C697 C696 1.384 1_655 S
C697 H719 0.929 . S
C698 O708 1.241 . S
C698 O709 1.273 . S
C699 O710 1.251 . S
C699 O711 1.268 . S
O700 Nd680 2.500 . S
O700 C682 1.258 . S
O701 Nd680 2.492 . S
O701 C682 1.239 . S
O702 Nd680 2.487 . S
O702 C689 1.241 . S
O703 Nd680 2.682 . S
O703 Nd681 2.414 . S
O703 C689 1.273 . S
O704 Nd680 2.410 . S
O704 C690 1.251 . S
O705 Nd681 2.424 . S
O705 C690 1.268 . S
O706 Nd681 2.500 . S
O706 C691 1.258 . S
O707 Nd681 2.492 . S
O707 C691 1.239 . S
O708 Nd681 2.487 . S
O708 C698 1.241 . S
O709 Nd680 2.414 . S
O709 Nd681 2.682 . S
O709 C698 1.273 . S
O710 Nd681 2.410 . S
O710 C699 1.251 . S
O711 Nd680 2.424 . S
O711 C699 1.268 . S
H712 C684 0.930 . S
H713 C685 0.929 . S
H714 C687 0.930 . S
H715 C688 0.929 . S
H716 C693 0.930 . S
H717 C694 0.929 . S
H718 C696 0.930 . S
H719 C697 0.929 . S
H720 C726 0.930 . S
H721 C730 0.930 . S
H722 C735 0.929 . S
H723 C733 0.929 . S
H724 C728 0.929 . S
H725 C734 0.929 . S
C726 H720 0.930 . S
C726 C727 1.367 . S
C726 C734 1.378 . S
C727 C726 1.367 . S
C727 C735 1.433 . S
C728 H724 0.929 . S
C728 C730 1.378 . S
C728 C732 1.350 . S
C729 C732 1.463 . S
C729 C734 1.350 . S
C729 N737 1.427 . S
C730 H721 0.930 . S
C730 C728 1.378 . S
C730 C731 1.367 . S
C731 C730 1.367 . S
C731 C733 1.433 . S
C732 C728 1.350 . S
C732 C729 1.463 . S
C732 N736 1.427 . S
C733 H723 0.929 . S
C733 C731 1.433 . S
C733 N736 1.384 . S
C734 H725 0.929 . S
C734 C726 1.378 . S
C734 C729 1.350 . S
C735 H722 0.929 . S
C735 C727 1.433 . S
C735 N737 1.384 . S
N736 C732 1.427 . S
N736 C733 1.384 . S
N737 C729 1.427 . S
N737 C735 1.384 . S
H738 C744 0.930 . S
H739 C748 0.930 . S
H740 C753 0.929 . S
H741 C751 0.929 . S
H742 C746 0.929 . S
H743 C752 0.929 . S
C744 H738 0.930 . S
C744 C745 1.367 . S
C744 C752 1.378 . S
C745 C744 1.367 . S
C745 C753 1.433 . S
C746 H742 0.929 . S
C746 C748 1.378 . S
C746 C750 1.350 . S
C747 C750 1.463 . S
C747 C752 1.350 . S
C747 N755 1.427 . S
C748 H739 0.930 . S
C748 C746 1.378 . S
C748 C749 1.367 . S
C749 C748 1.367 . S
C749 C751 1.433 . S
C750 C746 1.350 . S
C750 C747 1.463 . S
C750 N754 1.427 . S
C751 H741 0.929 . S
C751 C749 1.433 . S
C751 N754 1.384 . S
C752 H743 0.929 . S
C752 C744 1.378 . S
C752 C747 1.350 . S
C753 H740 0.929 . S
C753 C745 1.433 . S
C753 N755 1.384 . S
N754 C750 1.427 . S
N754 C751 1.384 . S
N755 C747 1.427 . S
N755 C753 1.384 . S
H756 C762 0.930 . S
H757 C766 0.930 . S
H758 C771 0.929 . S
H759 C769 0.929 . S
H760 C764 0.929 . S
H761 C770 0.929 . S
C762 H756 0.930 . S
C762 C763 1.367 . S
C762 C770 1.378 . S
C763 C762 1.367 . S
C763 C771 1.433 . S
C764 H760 0.929 . S
C764 C766 1.378 . S
C764 C768 1.350 . S
C765 C768 1.463 . S
C765 C770 1.350 . S
C765 N773 1.427 . S
C766 H757 0.930 . S
C766 C764 1.378 . S
C766 C767 1.367 . S
C767 C766 1.367 . S
C767 C769 1.433 . S
C768 C764 1.350 . S
C768 C765 1.463 . S
C768 N772 1.427 . S
C769 H759 0.929 . S
C769 C767 1.433 . S
C769 N772 1.384 . S
C770 H761 0.929 . S
C770 C762 1.378 . S
C770 C765 1.350 . S
C771 H758 0.929 . S
C771 C763 1.433 . S
C771 N773 1.384 . S
N772 C768 1.427 . S
N772 C769 1.384 . S
N773 C765 1.427 . S
N773 C771 1.384 . S
H774 C780 0.930 . S
H775 C784 0.930 . S
H776 C789 0.929 . S
H777 C787 0.929 . S
H778 C782 0.929 . S
H779 C788 0.929 . S
C780 H774 0.930 . S
C780 C781 1.367 . S
C780 C788 1.378 . S
C781 C780 1.367 . S
C781 C789 1.433 . S
C782 H778 0.929 . S
C782 C784 1.378 . S
C782 C786 1.350 . S
C783 C786 1.463 . S
C783 C788 1.350 . S
C783 N791 1.427 . S
C784 H775 0.930 . S
C784 C782 1.378 . S
C784 C785 1.367 . S
C785 C784 1.367 . S
C785 C787 1.433 . S
C786 C782 1.350 . S
C786 C783 1.463 . S
C786 N790 1.427 . S
C787 H777 0.929 . S
C787 C785 1.433 . S
C787 N790 1.384 . S
C788 H779 0.929 . S
C788 C780 1.378 . S
C788 C783 1.350 . S
C789 H776 0.929 . S
C789 C781 1.433 . S
C789 N791 1.384 . S
N790 C786 1.427 . S
N790 C787 1.384 . S
N791 C783 1.427 . S
N791 C789 1.384 . S
H792 C798 0.930 . S
H793 C802 0.930 . S
H794 C807 0.929 . S
H795 C805 0.929 . S
H796 C800 0.929 . S
H797 C806 0.929 . S
C798 H792 0.930 . S
C798 C799 1.367 . S
C798 C806 1.378 . S
C799 C798 1.367 . S
C799 C807 1.433 . S
C800 H796 0.929 . S
C800 C802 1.378 . S
C800 C804 1.350 . S
C801 C804 1.463 . S
C801 C806 1.350 . S
C801 N809 1.427 . S
C802 H793 0.930 . S
C802 C800 1.378 . S
C802 C803 1.367 . S
C803 C802 1.367 . S
C803 C805 1.433 . S
C804 C800 1.350 . S
C804 C801 1.463 . S
C804 N808 1.427 . S
C805 H795 0.929 . S
C805 C803 1.433 . S
C805 N808 1.384 . S
C806 H797 0.929 . S
C806 C798 1.378 . S
C806 C801 1.350 . S
C807 H794 0.929 . S
C807 C799 1.433 . S
C807 N809 1.384 . S
N808 C804 1.427 . S
N808 C805 1.384 . S
N809 C801 1.427 . S
N809 C807 1.384 . S
H810 C816 0.930 . S
H811 C820 0.930 . S
H812 C825 0.929 . S
H813 C823 0.929 . S
H814 C818 0.929 . S
H815 C824 0.929 . S
C816 H810 0.930 . S
C816 C817 1.367 . S
C816 C824 1.378 . S
C817 C816 1.367 . S
C817 C825 1.433 . S
C818 H814 0.929 . S
C818 C820 1.378 . S
C818 C822 1.350 . S
C819 C822 1.463 . S
C819 C824 1.350 . S
C819 N827 1.427 . S
C820 H811 0.930 . S
C820 C818 1.378 . S
C820 C821 1.367 . S
C821 C820 1.367 . S
C821 C823 1.433 . S
C822 C818 1.350 . S
C822 C819 1.463 . S
C822 N826 1.427 . S
C823 H813 0.929 . S
C823 C821 1.433 . S
C823 N826 1.384 . S
C824 H815 0.929 . S
C824 C816 1.378 . S
C824 C819 1.350 . S
C825 H812 0.929 . S
C825 C817 1.433 . S
C825 N827 1.384 . S
N826 C822 1.427 . S
N826 C823 1.384 . S
N827 C819 1.427 . S
N827 C825 1.384 . S
H828 C834 0.930 . S
H829 C838 0.930 . S
H830 C843 0.929 . S
H831 C841 0.929 . S
H832 C836 0.929 . S
H833 C842 0.929 . S
C834 H828 0.930 . S
C834 C835 1.367 . S
C834 C842 1.378 . S
C835 C834 1.367 . S
C835 C843 1.433 . S
C836 H832 0.929 . S
C836 C838 1.378 . S
C836 C840 1.350 . S
C837 C840 1.463 . S
C837 C842 1.350 1_545 S
C837 N845 1.427 . S
C838 H829 0.930 . S
C838 C836 1.378 . S
C838 C839 1.367 . S
C839 C838 1.367 . S
C839 C841 1.433 . S
C840 C836 1.350 . S
C840 C837 1.463 . S
C840 N844 1.427 . S
C841 H831 0.929 . S
C841 C839 1.433 . S
C841 N844 1.384 . S
C842 H833 0.929 . S
C842 C834 1.378 . S
C842 C837 1.350 1_565 S
C843 H830 0.929 . S
C843 C835 1.433 . S
C843 N845 1.384 1_565 S
N844 C840 1.427 . S
N844 C841 1.384 . S
N845 C837 1.427 . S
N845 C843 1.384 1_545 S
H846 C852 0.930 . S
H847 C856 0.930 . S
H848 C861 0.929 . S
H849 C859 0.929 . S
H850 C854 0.929 1_455 S
H851 C860 0.929 1_655 S
C852 H846 0.930 . S
C852 C853 1.367 . S
C852 C860 1.378 . S
C853 C852 1.367 . S
C853 C861 1.433 . S
C854 H850 0.929 1_655 S
C854 C856 1.378 . S
C854 C858 1.350 . S
C855 C858 1.463 1_455 S
C855 C860 1.350 . S
C855 N863 1.427 . S
C856 H847 0.930 . S
C856 C854 1.378 . S
C856 C857 1.367 . S
C857 C856 1.367 . S
C857 C859 1.433 . S
C858 C854 1.350 . S
C858 C855 1.463 1_655 S
C858 N862 1.427 . S
C859 H849 0.929 . S
C859 C857 1.433 . S
C859 N862 1.384 . S
C860 H851 0.929 1_455 S
C860 C852 1.378 . S
C860 C855 1.350 . S
C861 H848 0.929 . S
C861 C853 1.433 . S
C861 N863 1.384 . S
N862 C858 1.427 . S
N862 C859 1.384 . S
N863 C855 1.427 . S
N863 C861 1.384 . S
H864 C870 0.930 . S
H865 C874 0.930 . S
H866 C879 0.929 . S
H867 C877 0.929 . S
H868 C872 0.929 . S
H869 C878 0.929 . S
C870 H864 0.930 . S
C870 C871 1.367 . S
C870 C878 1.378 . S
C871 C870 1.367 . S
C871 C879 1.433 . S
C872 H868 0.929 . S
C872 C874 1.378 . S
C872 C876 1.350 . S
C873 C876 1.463 . S
C873 C878 1.350 . S
C873 N881 1.427 . S
C874 H865 0.930 . S
C874 C872 1.378 . S
C874 C875 1.367 . S
C875 C874 1.367 . S
C875 C877 1.433 . S
C876 C872 1.350 . S
C876 C873 1.463 . S
C876 N880 1.427 . S
C877 H867 0.929 . S
C877 C875 1.433 . S
C877 N880 1.384 . S
C878 H869 0.929 . S
C878 C870 1.378 . S
C878 C873 1.350 . S
C879 H866 0.929 . S
C879 C871 1.433 . S
C879 N881 1.384 . S
N880 C876 1.427 . S
N880 C877 1.384 . S
N881 C873 1.427 . S
N881 C879 1.384 . S
H882 C888 0.930 . S
H883 C892 0.930 . S
H884 C897 0.929 . S
H885 C895 0.929 . S
H886 C890 0.929 . S
H887 C896 0.929 . S
C888 H882 0.930 . S
C888 C889 1.367 . S
C888 C896 1.378 . S
C889 C888 1.367 . S
C889 C897 1.433 . S
C890 H886 0.929 . S
C890 C892 1.378 . S
C890 C894 1.350 . S
C891 C894 1.463 . S
C891 C896 1.350 . S
C891 N899 1.427 . S
C892 H883 0.930 . S
C892 C890 1.378 . S
C892 C893 1.367 . S
C893 C892 1.367 . S
C893 C895 1.433 . S
C894 C890 1.350 . S
C894 C891 1.463 . S
C894 N898 1.427 . S
C895 H885 0.929 . S
C895 C893 1.433 . S
C895 N898 1.384 . S
C896 H887 0.929 . S
C896 C888 1.378 . S
C896 C891 1.350 . S
C897 H884 0.929 . S
C897 C889 1.433 . S
C897 N899 1.384 . S
N898 C894 1.427 . S
N898 C895 1.384 . S
N899 C891 1.427 . S
N899 C897 1.384 . S
H900 C906 0.930 . S
H901 C910 0.930 . S
H902 C915 0.929 . S
H903 C913 0.929 . S
H904 C908 0.929 . S
H905 C914 0.929 . S
C906 H900 0.930 . S
C906 C907 1.367 . S
C906 C914 1.378 . S
C907 C906 1.367 . S
C907 C915 1.433 . S
C908 H904 0.929 . S
C908 C910 1.378 . S
C908 C912 1.350 . S
C909 C912 1.463 . S
C909 C914 1.350 . S
C909 N917 1.427 . S
C910 H901 0.930 . S
C910 C908 1.378 . S
C910 C911 1.367 . S
C911 C910 1.367 . S
C911 C913 1.433 . S
C912 C908 1.350 . S
C912 C909 1.463 . S
C912 N916 1.427 . S
C913 H903 0.929 . S
C913 C911 1.433 . S
C913 N916 1.384 . S
C914 H905 0.929 . S
C914 C906 1.378 . S
C914 C909 1.350 . S
C915 H902 0.929 . S
C915 C907 1.433 . S
C915 N917 1.384 . S
N916 C912 1.427 . S
N916 C913 1.384 . S
N917 C909 1.427 . S
N917 C915 1.384 . S
H918 C924 0.930 . S
H919 C928 0.930 . S
H920 C933 0.929 . S
H921 C931 0.929 . S
H922 C926 0.929 . S
H923 C932 0.929 . S
C924 H918 0.930 . S
C924 C925 1.367 . S
C924 C932 1.378 . S
C925 C924 1.367 . S
C925 C933 1.433 . S
C926 H922 0.929 . S
C926 C928 1.378 . S
C926 C930 1.350 . S
C927 C930 1.463 . S
C927 C932 1.350 . S
C927 N935 1.427 . S
C928 H919 0.930 . S
C928 C926 1.378 . S
C928 C929 1.367 . S
C929 C928 1.367 . S
C929 C931 1.433 . S
C930 C926 1.350 . S
C930 C927 1.463 . S
C930 N934 1.427 . S
C931 H921 0.929 . S
C931 C929 1.433 . S
C931 N934 1.384 . S
C932 H923 0.929 . S
C932 C924 1.378 . S
C932 C927 1.350 . S
C933 H920 0.929 . S
C933 C925 1.433 . S
C933 N935 1.384 . S
N934 C930 1.427 . S
N934 C931 1.384 . S
N935 C927 1.427 . S
N935 C933 1.384 . S
H936 C942 0.930 . S
H937 C946 0.930 . S
H938 C951 0.929 . S
H939 C949 0.929 . S
H940 C944 0.929 . S
H941 C950 0.929 . S
C942 H936 0.930 . S
C942 C943 1.367 . S
C942 C950 1.378 . S
C943 C942 1.367 . S
C943 C951 1.433 . S
C944 H940 0.929 . S
C944 C946 1.378 . S
C944 C948 1.350 . S
C945 C948 1.463 . S
C945 C950 1.350 . S
C945 N953 1.427 . S
C946 H937 0.930 . S
C946 C944 1.378 . S
C946 C947 1.367 . S
C947 C946 1.367 . S
C947 C949 1.433 . S
C948 C944 1.350 . S
C948 C945 1.463 . S
C948 N952 1.427 . S
C949 H939 0.929 . S
C949 C947 1.433 . S
C949 N952 1.384 . S
C950 H941 0.929 . S
C950 C942 1.378 . S
C950 C945 1.350 . S
C951 H938 0.929 . S
C951 C943 1.433 . S
C951 N953 1.384 . S
N952 C948 1.427 . S
N952 C949 1.384 . S
N953 C945 1.427 . S
N953 C951 1.384 . S
H954 C960 0.930 . S
H955 C964 0.930 . S
H956 C969 0.929 . S
H957 C967 0.929 . S
H958 C962 0.929 . S
H959 C968 0.929 . S
C960 H954 0.930 . S
C960 C961 1.367 . S
C960 C968 1.378 . S
C961 C960 1.367 . S
C961 C969 1.433 . S
C962 H958 0.929 . S
C962 C964 1.378 . S
C962 C966 1.350 . S
C963 C966 1.463 . S
C963 C968 1.350 . S
C963 N971 1.427 . S
C964 H955 0.930 . S
C964 C962 1.378 . S
C964 C965 1.367 . S
C965 C964 1.367 . S
C965 C967 1.433 . S
C966 C962 1.350 . S
C966 C963 1.463 . S
C966 N970 1.427 . S
C967 H957 0.929 . S
C967 C965 1.433 . S
C967 N970 1.384 . S
C968 H959 0.929 . S
C968 C960 1.378 . S
C968 C963 1.350 . S
C969 H956 0.929 . S
C969 C961 1.433 . S
C969 N971 1.384 . S
N970 C966 1.427 . S
N970 C967 1.384 . S
N971 C963 1.427 . S
N971 C969 1.384 . S
H972 C978 0.930 . S
H973 C982 0.930 . S
H974 C987 0.929 . S
H975 C985 0.929 . S
H976 C980 0.929 . S
H977 C986 0.929 . S
C978 H972 0.930 . S
C978 C979 1.367 . S
C978 C986 1.378 . S
C979 C978 1.367 . S
C979 C987 1.433 . S
C980 H976 0.929 . S
C980 C982 1.378 . S
C980 C984 1.350 . S
C981 C984 1.463 . S
C981 C986 1.350 . S
C981 N989 1.427 . S
C982 H973 0.930 . S
C982 C980 1.378 . S
C982 C983 1.367 . S
C983 C982 1.367 . S
C983 C985 1.433 . S
C984 C980 1.350 . S
C984 C981 1.463 . S
C984 N988 1.427 . S
C985 H975 0.929 . S
C985 C983 1.433 . S
C985 N988 1.384 . S
C986 H977 0.929 . S
C986 C978 1.378 . S
C986 C981 1.350 . S
C987 H974 0.929 . S
C987 C979 1.433 . S
C987 N989 1.384 . S
N988 C984 1.427 . S
N988 C985 1.384 . S
N989 C981 1.427 . S
N989 C987 1.384 . S
H990 C996 0.930 . S
H991 C1000 0.930 . S
H992 C1005 0.929 . S
H993 C1003 0.929 . S
H994 C998 0.929 . S
H995 C1004 0.929 . S
C996 H990 0.930 . S
C996 C997 1.367 . S
C996 C1004 1.378 1_655 S
C997 C996 1.367 . S
C997 C1005 1.433 . S
C998 H994 0.929 . S
C998 C1000 1.378 . S
C998 C1002 1.350 . S
C999 C1002 1.463 . S
C999 C1004 1.350 . S
C999 N1007 1.427 1_455 S
C1000 H991 0.930 . S
C1000 C998 1.378 . S
C1000 C1001 1.367 . S
C1001 C1000 1.367 . S
C1001 C1003 1.433 . S
C1002 C998 1.350 . S
C1002 C999 1.463 . S
C1002 N1006 1.427 . S
C1003 H993 0.929 . S
C1003 C1001 1.433 . S
C1003 N1006 1.384 . S
C1004 H995 0.929 . S
C1004 C996 1.378 1_455 S
C1004 C999 1.350 . S
C1005 H992 0.929 . S
C1005 C997 1.433 . S
C1005 N1007 1.384 . S
N1006 C1002 1.427 . S
N1006 C1003 1.384 . S
N1007 C999 1.427 1_655 S
N1007 C1005 1.384 . S
H1008 C1014 0.930 . S
H1009 C1018 0.930 . S
H1010 C1023 0.929 . S
H1011 C1021 0.929 . S
H1012 C1016 0.929 . S
H1013 C1022 0.929 . S
C1014 H1008 0.930 . S
C1014 C1015 1.367 . S
C1014 C1022 1.378 . S
C1015 C1014 1.367 . S
C1015 C1023 1.433 . S
C1016 H1012 0.929 . S
C1016 C1018 1.378 . S
C1016 C1020 1.350 . S
C1017 C1020 1.463 . S
C1017 C1022 1.350 . S
C1017 N1025 1.427 . S
C1018 H1009 0.930 . S
C1018 C1016 1.378 . S
C1018 C1019 1.367 . S
C1019 C1018 1.367 . S
C1019 C1021 1.433 . S
C1020 C1016 1.350 . S
C1020 C1017 1.463 . S
C1020 N1024 1.427 . S
C1021 H1011 0.929 . S
C1021 C1019 1.433 . S
C1021 N1024 1.384 . S
C1022 H1013 0.929 . S
C1022 C1014 1.378 . S
C1022 C1017 1.350 . S
C1023 H1010 0.929 . S
C1023 C1015 1.433 . S
C1023 N1025 1.384 . S
N1024 C1020 1.427 . S
N1024 C1021 1.384 . S
N1025 C1017 1.427 . S
N1025 C1023 1.384 . S
H1026 C1032 0.930 . S
H1027 C1036 0.930 . S
H1028 C1041 0.929 . S
H1029 C1039 0.929 . S
H1030 C1034 0.929 1_545 S
H1031 C1040 0.929 1_565 S
C1032 H1026 0.930 . S
C1032 C1033 1.367 . S
C1032 C1040 1.378 . S
C1033 C1032 1.367 . S
C1033 C1041 1.433 . S
C1034 H1030 0.929 1_565 S
C1034 C1036 1.378 . S
C1034 C1038 1.350 . S
C1035 C1038 1.463 1_545 S
C1035 C1040 1.350 . S
C1035 N1043 1.427 . S
C1036 H1027 0.930 . S
C1036 C1034 1.378 . S
C1036 C1037 1.367 . S
C1037 C1036 1.367 . S
C1037 C1039 1.433 . S
C1038 C1034 1.350 . S
C1038 C1035 1.463 1_565 S
C1038 N1042 1.427 . S
C1039 H1029 0.929 . S
C1039 C1037 1.433 . S
C1039 N1042 1.384 . S
C1040 H1031 0.929 1_545 S
C1040 C1032 1.378 . S
C1040 C1035 1.350 . S
C1041 H1028 0.929 . S
C1041 C1033 1.433 . S
C1041 N1043 1.384 . S
N1042 C1038 1.427 . S
N1042 C1039 1.384 . S
N1043 C1035 1.427 . S
N1043 C1041 1.384 . S
H1044 C1050 0.930 . S
H1045 C1054 0.930 . S
H1046 C1059 0.929 . S
H1047 C1057 0.929 . S
H1048 C1052 0.929 . S
H1049 C1058 0.929 . S
C1050 H1044 0.930 . S
C1050 C1051 1.367 . S
C1050 C1058 1.378 . S
C1051 C1050 1.367 . S
C1051 C1059 1.433 1_545 S
C1052 H1048 0.929 . S
C1052 C1054 1.378 . S
C1052 C1056 1.350 1_565 S
C1053 C1056 1.463 1_554 S
C1053 C1058 1.350 . S
C1053 N1061 1.427 1_545 S
C1054 H1045 0.930 . S
C1054 C1052 1.378 . S
C1054 C1055 1.367 1_565 S
C1055 C1054 1.367 1_545 S
C1055 C1057 1.433 . S
C1056 C1052 1.350 1_545 S
C1056 C1053 1.463 1_556 S
C1056 N1060 1.427 . S
C1057 H1047 0.929 . S
C1057 C1055 1.433 . S
C1057 N1060 1.384 . S
C1058 H1049 0.929 . S
C1058 C1050 1.378 . S
C1058 C1053 1.350 . S
C1059 H1046 0.929 . S
C1059 C1051 1.433 1_565 S
C1059 N1061 1.384 . S
N1060 C1056 1.427 . S
N1060 C1057 1.384 . S
N1061 C1053 1.427 1_565 S
N1061 C1059 1.384 . S
H1062 C1068 0.930 . S
H1063 C1072 0.930 . S
H1064 C1077 0.929 . S
H1065 C1075 0.929 . S
H1066 C1070 0.929 . S
H1067 C1076 0.929 . S
C1068 H1062 0.930 . S
C1068 C1069 1.367 . S
C1068 C1076 1.378 . S
C1069 C1068 1.367 . S
C1069 C1077 1.433 . S
C1070 H1066 0.929 . S
C1070 C1072 1.378 . S
C1070 C1074 1.350 . S
C1071 C1074 1.463 1_556 S
C1071 C1076 1.350 . S
C1071 N1079 1.427 . S
C1072 H1063 0.930 . S
C1072 C1070 1.378 . S
C1072 C1073 1.367 . S
C1073 C1072 1.367 . S
C1073 C1075 1.433 . S
C1074 C1070 1.350 . S
C1074 C1071 1.463 1_554 S
C1074 N1078 1.427 . S
C1075 H1065 0.929 . S
C1075 C1073 1.433 . S
C1075 N1078 1.384 . S
C1076 H1067 0.929 . S
C1076 C1068 1.378 . S
C1076 C1071 1.350 . S
C1077 H1064 0.929 . S
C1077 C1069 1.433 . S
C1077 N1079 1.384 . S
N1078 C1074 1.427 . S
N1078 C1075 1.384 . S
N1079 C1071 1.427 . S
N1079 C1077 1.384 . S
H1080 C1086 0.930 . S
H1081 C1090 0.930 . S
H1082 C1095 0.929 . S
H1083 C1093 0.929 . S
H1084 C1088 0.929 . S
H1085 C1094 0.929 . S
C1086 H1080 0.930 . S
C1086 C1087 1.367 . S
C1086 C1094 1.378 . S
C1087 C1086 1.367 . S
C1087 C1095 1.433 . S
C1088 H1084 0.929 . S
C1088 C1090 1.378 . S
C1088 C1092 1.350 . S
C1089 C1092 1.463 1_556 S
C1089 C1094 1.350 . S
C1089 N1097 1.427 . S
C1090 H1081 0.930 . S
C1090 C1088 1.378 . S
C1090 C1091 1.367 . S
C1091 C1090 1.367 . S
C1091 C1093 1.433 . S
C1092 C1088 1.350 . S
C1092 C1089 1.463 1_554 S
C1092 N1096 1.427 . S
C1093 H1083 0.929 . S
C1093 C1091 1.433 . S
C1093 N1096 1.384 . S
C1094 H1085 0.929 . S
C1094 C1086 1.378 . S
C1094 C1089 1.350 . S
C1095 H1082 0.929 . S
C1095 C1087 1.433 . S
C1095 N1097 1.384 . S
N1096 C1092 1.427 . S
N1096 C1093 1.384 . S
N1097 C1089 1.427 . S
N1097 C1095 1.384 . S
H1098 C1104 0.930 . S
H1099 C1108 0.930 . S
H1100 C1113 0.929 . S
H1101 C1111 0.929 . S
H1102 C1106 0.929 . S
H1103 C1112 0.929 . S
C1104 H1098 0.930 . S
C1104 C1105 1.367 . S
C1104 C1112 1.378 . S
C1105 C1104 1.367 . S
C1105 C1113 1.433 . S
C1106 H1102 0.929 . S
C1106 C1108 1.378 . S
C1106 C1110 1.350 . S
C1107 C1110 1.463 . S
C1107 C1112 1.350 . S
C1107 N1115 1.427 . S
C1108 H1099 0.930 . S
C1108 C1106 1.378 . S
C1108 C1109 1.367 . S
C1109 C1108 1.367 . S
C1109 C1111 1.433 . S
C1110 C1106 1.350 . S
C1110 C1107 1.463 . S
C1110 N1114 1.427 . S
C1111 H1101 0.929 . S
C1111 C1109 1.433 . S
C1111 N1114 1.384 . S
C1112 H1103 0.929 . S
C1112 C1104 1.378 . S
C1112 C1107 1.350 . S
C1113 H1100 0.929 . S
C1113 C1105 1.433 . S
C1113 N1115 1.384 . S
N1114 C1110 1.427 . S
N1114 C1111 1.384 . S
N1115 C1107 1.427 . S
N1115 C1113 1.384 . S
H1116 C1122 0.930 . S
H1117 C1126 0.930 . S
H1118 C1131 0.929 . S
H1119 C1129 0.929 . S
H1120 C1124 0.929 . S
H1121 C1130 0.929 . S
C1122 H1116 0.930 . S
C1122 C1123 1.367 . S
C1122 C1130 1.378 . S
C1123 C1122 1.367 . S
C1123 C1131 1.433 . S
C1124 H1120 0.929 . S
C1124 C1126 1.378 . S
C1124 C1128 1.350 . S
C1125 C1128 1.463 . S
C1125 C1130 1.350 . S
C1125 N1133 1.427 . S
C1126 H1117 0.930 . S
C1126 C1124 1.378 . S
C1126 C1127 1.367 . S
C1127 C1126 1.367 . S
C1127 C1129 1.433 . S
C1128 C1124 1.350 . S
C1128 C1125 1.463 . S
C1128 N1132 1.427 . S
C1129 H1119 0.929 . S
C1129 C1127 1.433 . S
C1129 N1132 1.384 . S
C1130 H1121 0.929 . S
C1130 C1122 1.378 . S
C1130 C1125 1.350 . S
C1131 H1118 0.929 . S
C1131 C1123 1.433 . S
C1131 N1133 1.384 . S
N1132 C1128 1.427 . S
N1132 C1129 1.384 . S
N1133 C1125 1.427 . S
N1133 C1131 1.384 . S
H1134 C1140 0.930 . S
H1135 C1144 0.930 . S
H1136 C1149 0.929 . S
H1137 C1147 0.929 . S
H1138 C1142 0.929 . S
H1139 C1148 0.929 . S
C1140 H1134 0.930 . S
C1140 C1141 1.367 . S
C1140 C1148 1.378 . S
C1141 C1140 1.367 . S
C1141 C1149 1.433 . S
C1142 H1138 0.929 . S
C1142 C1144 1.378 . S
C1142 C1146 1.350 . S
C1143 C1146 1.463 . S
C1143 C1148 1.350 . S
C1143 N1151 1.427 . S
C1144 H1135 0.930 . S
C1144 C1142 1.378 . S
C1144 C1145 1.367 . S
C1145 C1144 1.367 . S
C1145 C1147 1.433 . S
C1146 C1142 1.350 . S
C1146 C1143 1.463 . S
C1146 N1150 1.427 . S
C1147 H1137 0.929 . S
C1147 C1145 1.433 . S
C1147 N1150 1.384 . S
C1148 H1139 0.929 . S
C1148 C1140 1.378 . S
C1148 C1143 1.350 . S
C1149 H1136 0.929 . S
C1149 C1141 1.433 . S
C1149 N1151 1.384 . S
N1150 C1146 1.427 . S
N1150 C1147 1.384 . S
N1151 C1143 1.427 . S
N1151 C1149 1.384 . S
H1152 C1158 0.930 . S
H1153 C1162 0.930 . S
H1154 C1167 0.929 . S
H1155 C1165 0.929 . S
H1156 C1160 0.929 . S
H1157 C1166 0.929 . S
C1158 H1152 0.930 . S
C1158 C1159 1.367 . S
C1158 C1166 1.378 . S
C1159 C1158 1.367 . S
C1159 C1167 1.433 . S
C1160 H1156 0.929 . S
C1160 C1162 1.378 . S
C1160 C1164 1.350 . S
C1161 C1164 1.463 . S
C1161 C1166 1.350 . S
C1161 N1169 1.427 . S
C1162 H1153 0.930 . S
C1162 C1160 1.378 . S
C1162 C1163 1.367 . S
C1163 C1162 1.367 . S
C1163 C1165 1.433 . S
C1164 C1160 1.350 . S
C1164 C1161 1.463 . S
C1164 N1168 1.427 . S
C1165 H1155 0.929 . S
C1165 C1163 1.433 . S
C1165 N1168 1.384 . S
C1166 H1157 0.929 . S
C1166 C1158 1.378 . S
C1166 C1161 1.350 . S
C1167 H1154 0.929 . S
C1167 C1159 1.433 . S
C1167 N1169 1.384 . S
N1168 C1164 1.427 . S
N1168 C1165 1.384 . S
N1169 C1161 1.427 . S
N1169 C1167 1.384 . S
H1170 C1176 0.930 . S
H1171 C1180 0.930 . S
H1172 C1185 0.929 . S
H1173 C1183 0.929 . S
H1174 C1178 0.929 . S
H1175 C1184 0.929 . S
C1176 H1170 0.930 . S
C1176 C1177 1.367 . S
C1176 C1184 1.378 . S
C1177 C1176 1.367 . S
C1177 C1185 1.433 . S
C1178 H1174 0.929 . S
C1178 C1180 1.378 . S
C1178 C1182 1.350 . S
C1179 C1182 1.463 . S
C1179 C1184 1.350 . S
C1179 N1187 1.427 . S
C1180 H1171 0.930 . S
C1180 C1178 1.378 . S
C1180 C1181 1.367 . S
C1181 C1180 1.367 . S
C1181 C1183 1.433 . S
C1182 C1178 1.350 . S
C1182 C1179 1.463 . S
C1182 N1186 1.427 . S
C1183 H1173 0.929 . S
C1183 C1181 1.433 . S
C1183 N1186 1.384 . S
C1184 H1175 0.929 . S
C1184 C1176 1.378 . S
C1184 C1179 1.350 . S
C1185 H1172 0.929 . S
C1185 C1177 1.433 . S
C1185 N1187 1.384 . S
N1186 C1182 1.427 . S
N1186 C1183 1.384 . S
N1187 C1179 1.427 . S
N1187 C1185 1.384 . S
H1188 C1194 0.930 . S
H1189 C1198 0.930 . S
H1190 C1203 0.929 . S
H1191 C1201 0.929 . S
H1192 C1196 0.929 . S
H1193 C1202 0.929 . S
C1194 H1188 0.930 . S
C1194 C1195 1.367 . S
C1194 C1202 1.378 . S
C1195 C1194 1.367 . S
C1195 C1203 1.433 . S
C1196 H1192 0.929 . S
C1196 C1198 1.378 . S
C1196 C1200 1.350 . S
C1197 C1200 1.463 . S
C1197 C1202 1.350 . S
C1197 N1205 1.427 . S
C1198 H1189 0.930 . S
C1198 C1196 1.378 . S
C1198 C1199 1.367 . S
C1199 C1198 1.367 . S
C1199 C1201 1.433 . S
C1200 C1196 1.350 . S
C1200 C1197 1.463 . S
C1200 N1204 1.427 . S
C1201 H1191 0.929 . S
C1201 C1199 1.433 . S
C1201 N1204 1.384 . S
C1202 H1193 0.929 . S
C1202 C1194 1.378 . S
C1202 C1197 1.350 . S
C1203 H1190 0.929 . S
C1203 C1195 1.433 . S
C1203 N1205 1.384 . S
N1204 C1200 1.427 . S
N1204 C1201 1.384 . S
N1205 C1197 1.427 . S
N1205 C1203 1.384 . S
H1206 C1212 0.930 . S
H1207 C1216 0.930 . S
H1208 C1221 0.929 . S
H1209 C1219 0.929 . S
H1210 C1214 0.929 . S
H1211 C1220 0.929 . S
C1212 H1206 0.930 . S
C1212 C1213 1.367 . S
C1212 C1220 1.378 . S
C1213 C1212 1.367 . S
C1213 C1221 1.433 . S
C1214 H1210 0.929 . S
C1214 C1216 1.378 . S
C1214 C1218 1.350 . S
C1215 C1218 1.463 . S
C1215 C1220 1.350 . S
C1215 N1223 1.427 . S
C1216 H1207 0.930 . S
C1216 C1214 1.378 . S
C1216 C1217 1.367 . S
C1217 C1216 1.367 . S
C1217 C1219 1.433 . S
C1218 C1214 1.350 . S
C1218 C1215 1.463 . S
C1218 N1222 1.427 . S
C1219 H1209 0.929 . S
C1219 C1217 1.433 . S
C1219 N1222 1.384 . S
C1220 H1211 0.929 . S
C1220 C1212 1.378 . S
C1220 C1215 1.350 . S
C1221 H1208 0.929 . S
C1221 C1213 1.433 . S
C1221 N1223 1.384 . S
N1222 C1218 1.427 . S
N1222 C1219 1.384 . S
N1223 C1215 1.427 . S
N1223 C1221 1.384 . S
H1224 C1230 0.930 . S
H1225 C1234 0.930 . S
H1226 C1239 0.929 . S
H1227 C1237 0.929 . S
H1228 C1232 0.929 . S
H1229 C1238 0.929 . S
C1230 H1224 0.930 . S
C1230 C1231 1.367 . S
C1230 C1238 1.378 . S
C1231 C1230 1.367 . S
C1231 C1239 1.433 . S
C1232 H1228 0.929 . S
C1232 C1234 1.378 . S
C1232 C1236 1.350 . S
C1233 C1236 1.463 . S
C1233 C1238 1.350 . S
C1233 N1241 1.427 . S
C1234 H1225 0.930 . S
C1234 C1232 1.378 . S
C1234 C1235 1.367 . S
C1235 C1234 1.367 . S
C1235 C1237 1.433 . S
C1236 C1232 1.350 . S
C1236 C1233 1.463 . S
C1236 N1240 1.427 . S
C1237 H1227 0.929 . S
C1237 C1235 1.433 . S
C1237 N1240 1.384 . S
C1238 H1229 0.929 . S
C1238 C1230 1.378 . S
C1238 C1233 1.350 . S
C1239 H1226 0.929 . S
C1239 C1231 1.433 . S
C1239 N1241 1.384 . S
N1240 C1236 1.427 . S
N1240 C1237 1.384 . S
N1241 C1233 1.427 . S
N1241 C1239 1.384 . S
H1242 C1248 0.930 . S
H1243 C1252 0.930 . S
H1244 C1257 0.929 . S
H1245 C1255 0.929 . S
H1246 C1250 0.929 . S
H1247 C1256 0.929 . S
C1248 H1242 0.930 . S
C1248 C1249 1.367 . S
C1248 C1256 1.378 . S
C1249 C1248 1.367 . S
C1249 C1257 1.433 . S
C1250 H1246 0.929 . S
C1250 C1252 1.378 . S
C1250 C1254 1.350 . S
C1251 C1254 1.463 . S
C1251 C1256 1.350 . S
C1251 N1259 1.427 . S
C1252 H1243 0.930 . S
C1252 C1250 1.378 . S
C1252 C1253 1.367 . S
C1253 C1252 1.367 . S
C1253 C1255 1.433 . S
C1254 C1250 1.350 . S
C1254 C1251 1.463 . S
C1254 N1258 1.427 . S
C1255 H1245 0.929 . S
C1255 C1253 1.433 . S
C1255 N1258 1.384 . S
C1256 H1247 0.929 . S
C1256 C1248 1.378 . S
C1256 C1251 1.350 . S
C1257 H1244 0.929 . S
C1257 C1249 1.433 . S
C1257 N1259 1.384 . S
N1258 C1254 1.427 . S
N1258 C1255 1.384 . S
N1259 C1251 1.427 . S
N1259 C1257 1.384 . S
H1260 C1266 0.930 1_455 S
H1261 C1270 0.930 . S
H1262 C1275 0.929 . S
H1263 C1273 0.929 . S
H1264 C1268 0.929 . S
H1265 C1274 0.929 . S
C1266 H1260 0.930 1_655 S
C1266 C1267 1.367 . S
C1266 C1274 1.378 . S
C1267 C1266 1.367 . S
C1267 C1275 1.433 . S
C1268 H1264 0.929 . S
C1268 C1270 1.378 . S
C1268 C1272 1.350 . S
C1269 C1272 1.463 . S
C1269 C1274 1.350 . S
C1269 N1277 1.427 . S
C1270 H1261 0.930 . S
C1270 C1268 1.378 . S
C1270 C1271 1.367 . S
C1271 C1270 1.367 . S
C1271 C1273 1.433 . S
C1272 C1268 1.350 . S
C1272 C1269 1.463 . S
C1272 N1276 1.427 . S
C1273 H1263 0.929 . S
C1273 C1271 1.433 . S
C1273 N1276 1.384 . S
C1274 H1265 0.929 . S
C1274 C1266 1.378 . S
C1274 C1269 1.350 . S
C1275 H1262 0.929 . S
C1275 C1267 1.433 . S
C1275 N1277 1.384 . S
N1276 C1272 1.427 . S
N1276 C1273 1.384 . S
N1277 C1269 1.427 . S
N1277 C1275 1.384 . S
H1278 C1284 0.930 . S
H1279 C1288 0.930 . S
H1280 C1293 0.929 . S
H1281 C1291 0.929 . S
H1282 C1286 0.929 . S
H1283 C1292 0.929 . S
C1284 H1278 0.930 . S
C1284 C1285 1.367 . S
C1284 C1292 1.378 . S
C1285 C1284 1.367 . S
C1285 C1293 1.433 . S
C1286 H1282 0.929 . S
C1286 C1288 1.378 . S
C1286 C1290 1.350 . S
C1287 C1290 1.463 . S
C1287 C1292 1.350 . S
C1287 N1295 1.427 . S
C1288 H1279 0.930 . S
C1288 C1286 1.378 . S
C1288 C1289 1.367 . S
C1289 C1288 1.367 . S
C1289 C1291 1.433 . S
C1290 C1286 1.350 . S
C1290 C1287 1.463 . S
C1290 N1294 1.427 . S
C1291 H1281 0.929 . S
C1291 C1289 1.433 . S
C1291 N1294 1.384 . S
C1292 H1283 0.929 . S
C1292 C1284 1.378 . S
C1292 C1287 1.350 . S
C1293 H1280 0.929 . S
C1293 C1285 1.433 . S
C1293 N1295 1.384 . S
N1294 C1290 1.427 . S
N1294 C1291 1.384 . S
N1295 C1287 1.427 . S
N1295 C1293 1.384 . S
H1296 C1302 0.930 . S
H1297 C1306 0.930 . S
H1298 C1311 0.929 . S
H1299 C1309 0.929 . S
H1300 C1304 0.929 . S
H1301 C1310 0.929 . S
C1302 H1296 0.930 . S
C1302 C1303 1.367 . S
C1302 C1310 1.378 . S
C1303 C1302 1.367 . S
C1303 C1311 1.433 . S
C1304 H1300 0.929 . S
C1304 C1306 1.378 . S
C1304 C1308 1.350 . S
C1305 C1308 1.463 . S
C1305 C1310 1.350 . S
C1305 N1313 1.427 . S
C1306 H1297 0.930 . S
C1306 C1304 1.378 . S
C1306 C1307 1.367 . S
C1307 C1306 1.367 . S
C1307 C1309 1.433 . S
C1308 C1304 1.350 . S
C1308 C1305 1.463 . S
C1308 N1312 1.427 . S
C1309 H1299 0.929 . S
C1309 C1307 1.433 . S
C1309 N1312 1.384 . S
C1310 H1301 0.929 . S
C1310 C1302 1.378 . S
C1310 C1305 1.350 . S
C1311 H1298 0.929 . S
C1311 C1303 1.433 . S
C1311 N1313 1.384 . S
N1312 C1308 1.427 . S
N1312 C1309 1.384 . S
N1313 C1305 1.427 . S
N1313 C1311 1.384 . S
H1314 C1320 0.930 . S
H1315 C1324 0.930 . S
H1316 C1329 0.929 . S
H1317 C1327 0.929 . S
H1318 C1322 0.929 . S
H1319 C1328 0.929 1_455 S
C1320 H1314 0.930 . S
C1320 C1321 1.367 . S
C1320 C1328 1.378 . S
C1321 C1320 1.367 . S
C1321 C1329 1.433 . S
C1322 H1318 0.929 . S
C1322 C1324 1.378 . S
C1322 C1326 1.350 . S
C1323 C1326 1.460 . S
C1323 C1328 1.351 1_455 S
C1323 N1331 1.429 1_455 S
C1324 H1315 0.930 . S
C1324 C1322 1.378 . S
C1324 C1325 1.367 . S
C1325 C1324 1.367 . S
C1325 C1327 1.433 . S
C1326 C1322 1.350 . S
C1326 C1323 1.460 . S
C1326 N1330 1.427 . S
C1327 H1317 0.929 . S
C1327 C1325 1.433 . S
C1327 N1330 1.384 . S
C1328 H1319 0.929 1_655 S
C1328 C1320 1.378 . S
C1328 C1323 1.351 1_655 S
C1329 H1316 0.929 . S
C1329 C1321 1.433 . S
C1329 N1331 1.384 . S
N1330 C1326 1.427 . S
N1330 C1327 1.384 . S
N1331 C1323 1.429 1_655 S
N1331 C1329 1.384 . S
H1332 C1338 0.930 . S
H1333 C1342 0.930 . S
H1334 C1347 0.929 . S
H1335 C1345 0.929 . S
H1336 C1340 0.929 . S
H1337 C1346 0.929 . S
C1338 H1332 0.930 . S
C1338 C1339 1.367 . S
C1338 C1346 1.378 . S
C1339 C1338 1.367 . S
C1339 C1347 1.433 . S
C1340 H1336 0.929 . S
C1340 C1342 1.378 . S
C1340 C1344 1.350 . S
C1341 C1344 1.463 . S
C1341 C1346 1.350 . S
C1341 N1349 1.427 . S
C1342 H1333 0.930 . S
C1342 C1340 1.378 . S
C1342 C1343 1.367 . S
C1343 C1342 1.367 . S
C1343 C1345 1.433 . S
C1344 C1340 1.350 . S
C1344 C1341 1.463 . S
C1344 N1348 1.427 . S
C1345 H1335 0.929 . S
C1345 C1343 1.433 . S
C1345 N1348 1.384 . S
C1346 H1337 0.929 . S
C1346 C1338 1.378 . S
C1346 C1341 1.350 . S
C1347 H1334 0.929 . S
C1347 C1339 1.433 . S
C1347 N1349 1.384 . S
N1348 C1344 1.427 . S
N1348 C1345 1.384 . S
N1349 C1341 1.427 . S
N1349 C1347 1.384 . S
H1350 C1356 0.930 . S
H1351 C1360 0.930 . S
H1352 C1365 0.929 . S
H1353 C1363 0.929 . S
H1354 C1358 0.929 . S
H1355 C1364 0.929 . S
C1356 H1350 0.930 . S
C1356 C1357 1.367 . S
C1356 C1364 1.378 . S
C1357 C1356 1.367 . S
C1357 C1365 1.433 . S
C1358 H1354 0.929 . S
C1358 C1360 1.378 . S
C1358 C1362 1.350 . S
C1359 C1362 1.463 1_565 S
C1359 C1364 1.350 . S
C1359 N1367 1.427 1_565 S
C1360 H1351 0.930 . S
C1360 C1358 1.378 . S
C1360 C1361 1.367 . S
C1361 C1360 1.367 . S
C1361 C1363 1.433 . S
C1362 C1358 1.350 . S
C1362 C1359 1.463 1_545 S
C1362 N1366 1.427 . S
C1363 H1353 0.929 . S
C1363 C1361 1.433 . S
C1363 N1366 1.384 . S
C1364 H1355 0.929 . S
C1364 C1356 1.378 . S
C1364 C1359 1.350 . S
C1365 H1352 0.929 . S
C1365 C1357 1.433 . S
C1365 N1367 1.384 1_565 S
N1366 C1362 1.427 . S
N1366 C1363 1.384 . S
N1367 C1359 1.427 1_545 S
N1367 C1365 1.384 1_545 S
H1368 C1374 0.930 . S
H1369 C1378 0.930 . S
H1370 C1383 0.929 . S
H1371 C1381 0.929 . S
H1372 C1376 0.929 . S
H1373 C1382 0.929 . S
C1374 H1368 0.930 . S
C1374 C1375 1.367 . S
C1374 C1382 1.378 . S
C1375 C1374 1.367 . S
C1375 C1383 1.433 . S
C1376 H1372 0.929 . S
C1376 C1378 1.378 . S
C1376 C1380 1.350 . S
C1377 C1380 1.463 . S
C1377 C1382 1.350 . S
C1377 N1385 1.427 . S
C1378 H1369 0.930 . S
C1378 C1376 1.378 . S
C1378 C1379 1.367 . S
C1379 C1378 1.367 . S
C1379 C1381 1.433 . S
C1380 C1376 1.350 . S
C1380 C1377 1.463 . S
C1380 N1384 1.427 . S
C1381 H1371 0.929 . S
C1381 C1379 1.433 . S
C1381 N1384 1.384 . S
C1382 H1373 0.929 . S
C1382 C1374 1.378 . S
C1382 C1377 1.350 . S
C1383 H1370 0.929 . S
C1383 C1375 1.433 . S
C1383 N1385 1.384 . S
N1384 C1380 1.427 . S
N1384 C1381 1.384 . S
N1385 C1377 1.427 . S
N1385 C1383 1.384 . S
H1386 C1392 0.930 . S
H1387 C1396 0.930 . S
H1388 C1401 0.929 . S
H1389 C1399 0.929 . S
H1390 C1394 0.929 . S
H1391 C1400 0.929 . S
C1392 H1386 0.930 . S
C1392 C1393 1.367 . S
C1392 C1400 1.378 . S
C1393 C1392 1.367 . S
C1393 C1401 1.433 . S
C1394 H1390 0.929 . S
C1394 C1396 1.378 . S
C1394 C1398 1.350 . S
C1395 C1398 1.463 . S
C1395 C1400 1.350 . S
C1395 N1403 1.427 . S
C1396 H1387 0.930 . S
C1396 C1394 1.378 . S
C1396 C1397 1.367 . S
C1397 C1396 1.367 . S
C1397 C1399 1.433 . S
C1398 C1394 1.350 . S
C1398 C1395 1.463 . S
C1398 N1402 1.427 . S
C1399 H1389 0.929 . S
C1399 C1397 1.433 . S
C1399 N1402 1.384 . S
C1400 H1391 0.929 . S
C1400 C1392 1.378 . S
C1400 C1395 1.350 . S
C1401 H1388 0.929 . S
C1401 C1393 1.433 . S
C1401 N1403 1.384 . S
N1402 C1398 1.427 . S
N1402 C1399 1.384 . S
N1403 C1395 1.427 . S
N1403 C1401 1.384 . S
H1404 C1410 0.930 . S
H1405 C1414 0.930 . S
H1406 C1419 0.929 . S
H1407 C1417 0.929 . S
H1408 C1412 0.929 . S
H1409 C1418 0.929 . S
C1410 H1404 0.930 . S
C1410 C1411 1.367 . S
C1410 C1418 1.378 . S
C1411 C1410 1.367 . S
C1411 C1419 1.433 . S
C1412 H1408 0.929 . S
C1412 C1414 1.378 . S
C1412 C1416 1.350 . S
C1413 C1416 1.463 . S
C1413 C1418 1.350 . S
C1413 N1421 1.427 . S
C1414 H1405 0.930 . S
C1414 C1412 1.378 . S
C1414 C1415 1.367 . S
C1415 C1414 1.367 . S
C1415 C1417 1.433 . S
C1416 C1412 1.350 . S
C1416 C1413 1.463 . S
C1416 N1420 1.427 . S
C1417 H1407 0.929 . S
C1417 C1415 1.433 . S
C1417 N1420 1.384 . S
C1418 H1409 0.929 . S
C1418 C1410 1.378 . S
C1418 C1413 1.350 . S
C1419 H1406 0.929 . S
C1419 C1411 1.433 . S
C1419 N1421 1.384 . S
N1420 C1416 1.427 . S
N1420 C1417 1.384 . S
N1421 C1413 1.427 . S
N1421 C1419 1.384 . S
H1422 C1428 0.930 . S
H1423 C1432 0.930 . S
H1424 C1437 0.929 . S
H1425 C1435 0.929 . S
H1426 C1430 0.929 . S
H1427 C1436 0.929 . S
C1428 H1422 0.930 . S
C1428 C1429 1.367 . S
C1428 C1436 1.378 . S
C1429 C1428 1.367 . S
C1429 C1437 1.433 . S
C1430 H1426 0.929 . S
C1430 C1432 1.378 . S
C1430 C1434 1.350 . S
C1431 C1434 1.463 . S
C1431 C1436 1.350 . S
C1431 N1439 1.427 . S
C1432 H1423 0.930 . S
C1432 C1430 1.378 . S
C1432 C1433 1.367 . S
C1433 C1432 1.367 . S
C1433 C1435 1.433 . S
C1434 C1430 1.350 . S
C1434 C1431 1.463 . S
C1434 N1438 1.427 . S
C1435 H1425 0.929 . S
C1435 C1433 1.433 . S
C1435 N1438 1.384 . S
C1436 H1427 0.929 . S
C1436 C1428 1.378 . S
C1436 C1431 1.350 . S
C1437 H1424 0.929 . S
C1437 C1429 1.433 . S
C1437 N1439 1.384 . S
N1438 C1434 1.427 . S
N1438 C1435 1.384 . S
N1439 C1431 1.427 . S
N1439 C1437 1.384 . S
H1440 C1446 0.930 . S
H1441 C1450 0.930 . S
H1442 C1455 0.929 . S
H1443 C1453 0.929 . S
H1444 C1448 0.929 . S
H1445 C1454 0.929 . S
C1446 H1440 0.930 . S
C1446 C1447 1.367 . S
C1446 C1454 1.378 . S
C1447 C1446 1.367 . S
C1447 C1455 1.433 . S
C1448 H1444 0.929 . S
C1448 C1450 1.378 . S
C1448 C1452 1.350 . S
C1449 C1452 1.463 . S
C1449 C1454 1.350 . S
C1449 N1457 1.427 . S
C1450 H1441 0.930 . S
C1450 C1448 1.378 . S
C1450 C1451 1.367 . S
C1451 C1450 1.367 . S
C1451 C1453 1.433 . S
C1452 C1448 1.350 . S
C1452 C1449 1.463 . S
C1452 N1456 1.427 . S
C1453 H1443 0.929 . S
C1453 C1451 1.433 . S
C1453 N1456 1.384 . S
C1454 H1445 0.929 . S
C1454 C1446 1.378 . S
C1454 C1449 1.350 . S
C1455 H1442 0.929 . S
C1455 C1447 1.433 . S
C1455 N1457 1.384 . S
N1456 C1452 1.427 . S
N1456 C1453 1.384 . S
N1457 C1449 1.427 . S
N1457 C1455 1.384 . S
H1458 C1464 0.930 . S
H1459 C1468 0.930 . S
H1460 C1473 0.929 . S
H1461 C1471 0.929 . S
H1462 C1466 0.929 . S
H1463 C1472 0.929 . S
C1464 H1458 0.930 . S
C1464 C1465 1.367 . S
C1464 C1472 1.378 . S
C1465 C1464 1.367 . S
C1465 C1473 1.433 . S
C1466 H1462 0.929 . S
C1466 C1468 1.378 . S
C1466 C1470 1.350 . S
C1467 C1470 1.463 . S
C1467 C1472 1.350 . S
C1467 N1475 1.427 . S
C1468 H1459 0.930 . S
C1468 C1466 1.378 . S
C1468 C1469 1.367 . S
C1469 C1468 1.367 . S
C1469 C1471 1.433 . S
C1470 C1466 1.350 . S
C1470 C1467 1.463 . S
C1470 N1474 1.427 . S
C1471 H1461 0.929 . S
C1471 C1469 1.433 . S
C1471 N1474 1.384 . S
C1472 H1463 0.929 . S
C1472 C1464 1.378 . S
C1472 C1467 1.350 . S
C1473 H1460 0.929 . S
C1473 C1465 1.433 . S
C1473 N1475 1.384 . S
N1474 C1470 1.427 . S
N1474 C1471 1.384 . S
N1475 C1467 1.427 . S
N1475 C1473 1.384 . S
H1476 C1482 0.930 . S
H1477 C1486 0.930 . S
H1478 C1491 0.929 . S
H1479 C1489 0.929 . S
H1480 C1484 0.929 . S
H1481 C1490 0.929 . S
C1482 H1476 0.930 . S
C1482 C1483 1.367 . S
C1482 C1490 1.378 . S
C1483 C1482 1.367 . S
C1483 C1491 1.433 . S
C1484 H1480 0.929 . S
C1484 C1486 1.378 . S
C1484 C1488 1.350 . S
C1485 C1488 1.463 . S
C1485 C1490 1.350 . S
C1485 N1493 1.427 . S
C1486 H1477 0.930 . S
C1486 C1484 1.378 . S
C1486 C1487 1.367 . S
C1487 C1486 1.367 . S
C1487 C1489 1.433 . S
C1488 C1484 1.350 . S
C1488 C1485 1.463 . S
C1488 N1492 1.427 . S
C1489 H1479 0.929 . S
C1489 C1487 1.433 . S
C1489 N1492 1.384 . S
C1490 H1481 0.929 . S
C1490 C1482 1.378 . S
C1490 C1485 1.350 . S
C1491 H1478 0.929 . S
C1491 C1483 1.433 . S
C1491 N1493 1.384 . S
N1492 C1488 1.427 . S
N1492 C1489 1.384 . S
N1493 C1485 1.427 . S
N1493 C1491 1.384 . S
H1494 C1500 0.930 . S
H1495 C1504 0.930 . S
H1496 C1509 0.929 . S
H1497 C1507 0.929 . S
H1498 C1502 0.929 . S
H1499 C1508 0.929 . S
C1500 H1494 0.930 . S
C1500 C1501 1.367 . S
C1500 C1508 1.378 . S
C1501 C1500 1.367 . S
C1501 C1509 1.433 . S
C1502 H1498 0.929 . S
C1502 C1504 1.378 . S
C1502 C1506 1.350 . S
C1503 C1506 1.463 . S
C1503 C1508 1.350 . S
C1503 N1511 1.427 . S
C1504 H1495 0.930 . S
C1504 C1502 1.378 . S
C1504 C1505 1.367 . S
C1505 C1504 1.367 . S
C1505 C1507 1.433 . S
C1506 C1502 1.350 . S
C1506 C1503 1.463 . S
C1506 N1510 1.427 . S
C1507 H1497 0.929 . S
C1507 C1505 1.433 . S
C1507 N1510 1.384 . S
C1508 H1499 0.929 . S
C1508 C1500 1.378 . S
C1508 C1503 1.350 . S
C1509 H1496 0.929 . S
C1509 C1501 1.433 . S
C1509 N1511 1.384 . S
N1510 C1506 1.427 . S
N1510 C1507 1.384 . S
N1511 C1503 1.427 . S
N1511 C1509 1.384 . S
H1512 C1518 0.930 . S
H1513 C1522 0.930 . S
H1514 C1527 0.929 . S
H1515 C1525 0.929 . S
H1516 C1520 0.929 . S
H1517 C1526 0.929 . S
C1518 H1512 0.930 . S
C1518 C1519 1.367 . S
C1518 C1526 1.378 . S
C1519 C1518 1.367 . S
C1519 C1527 1.433 . S
C1520 H1516 0.929 . S
C1520 C1522 1.378 . S
C1520 C1524 1.350 . S
C1521 C1524 1.463 . S
C1521 C1526 1.350 . S
C1521 N1529 1.427 . S
C1522 H1513 0.930 . S
C1522 C1520 1.378 . S
C1522 C1523 1.367 . S
C1523 C1522 1.367 . S
C1523 C1525 1.433 . S
C1524 C1520 1.350 . S
C1524 C1521 1.463 . S
C1524 N1528 1.427 . S
C1525 H1515 0.929 . S
C1525 C1523 1.433 . S
C1525 N1528 1.384 . S
C1526 H1517 0.929 . S
C1526 C1518 1.378 . S
C1526 C1521 1.350 . S
C1527 H1514 0.929 . S
C1527 C1519 1.433 . S
C1527 N1529 1.384 . S
N1528 C1524 1.427 . S
N1528 C1525 1.384 . S
N1529 C1521 1.427 . S
N1529 C1527 1.384 . S
H1530 C1536 0.930 . S
H1531 C1540 0.930 . S
H1532 C1545 0.929 . S
H1533 C1543 0.929 . S
H1534 C1538 0.929 . S
H1535 C1544 0.929 1_455 S
C1536 H1530 0.930 . S
C1536 C1537 1.367 . S
C1536 C1544 1.378 . S
C1537 C1536 1.367 . S
C1537 C1545 1.433 . S
C1538 H1534 0.929 . S
C1538 C1540 1.378 . S
C1538 C1542 1.350 . S
C1539 C1542 1.472 . S
C1539 C1544 1.346 1_455 S
C1539 N1547 1.423 1_455 S
C1540 H1531 0.930 . S
C1540 C1538 1.378 . S
C1540 C1541 1.367 . S
C1541 C1540 1.367 . S
C1541 C1543 1.433 . S
C1542 C1538 1.350 . S
C1542 C1539 1.472 . S
C1542 N1546 1.427 . S
C1543 H1533 0.929 . S
C1543 C1541 1.433 . S
C1543 N1546 1.384 . S
C1544 H1535 0.929 1_655 S
C1544 C1536 1.378 . S
C1544 C1539 1.346 1_655 S
C1545 H1532 0.929 . S
C1545 C1537 1.433 . S
C1545 N1547 1.384 . S
N1546 C1542 1.427 . S
N1546 C1543 1.384 . S
N1547 C1539 1.423 1_655 S
N1547 C1545 1.384 . S
H1548 C1554 0.930 . S
H1549 C1558 0.930 . S
H1550 C1563 0.929 . S
H1551 C1561 0.929 . S
H1552 C1556 0.929 . S
H1553 C1562 0.929 . S
C1554 H1548 0.930 . S
C1554 C1555 1.367 . S
C1554 C1562 1.378 . S
C1555 C1554 1.367 . S
C1555 C1563 1.433 . S
C1556 H1552 0.929 . S
C1556 C1558 1.378 . S
C1556 C1560 1.350 . S
C1557 C1560 1.463 . S
C1557 C1562 1.350 . S
C1557 N1565 1.427 . S
C1558 H1549 0.930 . S
C1558 C1556 1.378 . S
C1558 C1559 1.367 . S
C1559 C1558 1.367 . S
C1559 C1561 1.433 . S
C1560 C1556 1.350 . S
C1560 C1557 1.463 . S
C1560 N1564 1.427 . S
C1561 H1551 0.929 . S
C1561 C1559 1.433 . S
C1561 N1564 1.384 . S
C1562 H1553 0.929 . S
C1562 C1554 1.378 . S
C1562 C1557 1.350 . S
C1563 H1550 0.929 . S
C1563 C1555 1.433 . S
C1563 N1565 1.384 . S
N1564 C1560 1.427 . S
N1564 C1561 1.384 . S
N1565 C1557 1.427 . S
N1565 C1563 1.384 . S
H1566 C1572 0.930 . S
H1567 C1576 0.930 . S
H1568 C1581 0.929 . S
H1569 C1579 0.929 . S
H1570 C1574 0.929 . S
H1571 C1580 0.929 . S
C1572 H1566 0.930 . S
C1572 C1573 1.367 . S
C1572 C1580 1.378 . S
C1573 C1572 1.367 . S
C1573 C1581 1.433 . S
C1574 H1570 0.929 . S
C1574 C1576 1.378 . S
C1574 C1578 1.350 . S
C1575 C1578 1.463 1_565 S
C1575 C1580 1.350 . S
C1575 N1583 1.427 . S
C1576 H1567 0.930 . S
C1576 C1574 1.378 . S
C1576 C1577 1.367 . S
C1577 C1576 1.367 . S
C1577 C1579 1.433 . S
C1578 C1574 1.350 . S
C1578 C1575 1.463 1_545 S
C1578 N1582 1.427 . S
C1579 H1569 0.929 . S
C1579 C1577 1.433 . S
C1579 N1582 1.384 . S
C1580 H1571 0.929 . S
C1580 C1572 1.378 . S
C1580 C1575 1.350 . S
C1581 H1568 0.929 . S
C1581 C1573 1.433 . S
C1581 N1583 1.384 . S
N1582 C1578 1.427 . S
N1582 C1579 1.384 . S
N1583 C1575 1.427 . S
N1583 C1581 1.384 . S
H1584 C1590 0.930 . S
H1585 C1594 0.930 . S
H1586 C1599 0.929 . S
H1587 C1597 0.929 . S
H1588 C1592 0.929 . S
H1589 C1598 0.929 . S
C1590 H1584 0.930 . S
C1590 C1591 1.367 . S
C1590 C1598 1.378 . S
C1591 C1590 1.367 . S
C1591 C1599 1.433 . S
C1592 H1588 0.929 . S
C1592 C1594 1.378 . S
C1592 C1596 1.350 . S
C1593 C1596 1.455 1_565 S
C1593 C1598 1.353 . S
C1593 N1601 1.432 . S
C1594 H1585 0.930 . S
C1594 C1592 1.378 . S
C1594 C1595 1.367 . S
C1595 C1594 1.367 . S
C1595 C1597 1.433 . S
C1596 C1592 1.350 . S
C1596 C1593 1.455 1_545 S
C1596 N1600 1.427 . S
C1597 H1587 0.929 . S
C1597 C1595 1.433 . S
C1597 N1600 1.384 . S
C1598 H1589 0.929 . S
C1598 C1590 1.378 . S
C1598 C1593 1.353 . S
C1599 H1586 0.929 . S
C1599 C1591 1.433 . S
C1599 N1601 1.384 . S
N1600 C1596 1.427 . S
N1600 C1597 1.384 . S
N1601 C1593 1.432 . S
N1601 C1599 1.384 . S
H1602 C1608 0.930 . S
H1603 C1612 0.930 . S
H1604 C1617 0.929 . S
H1605 C1615 0.929 . S
H1606 C1610 0.929 1_455 S
H1607 C1616 0.929 . S
C1608 H1602 0.930 . S
C1608 C1609 1.367 . S
C1608 C1616 1.378 . S
C1609 C1608 1.367 . S
C1609 C1617 1.433 . S
C1610 H1606 0.929 1_655 S
C1610 C1612 1.378 . S
C1610 C1614 1.350 . S
C1611 C1614 1.463 1_455 S
C1611 C1616 1.350 . S
C1611 N1619 1.427 . S
C1612 H1603 0.930 . S
C1612 C1610 1.378 . S
C1612 C1613 1.367 . S
C1613 C1612 1.367 . S
C1613 C1615 1.433 . S
C1614 C1610 1.350 . S
C1614 C1611 1.463 1_655 S
C1614 N1618 1.427 . S
C1615 H1605 0.929 . S
C1615 C1613 1.433 . S
C1615 N1618 1.384 . S
C1616 H1607 0.929 . S
C1616 C1608 1.378 . S
C1616 C1611 1.350 . S
C1617 H1604 0.929 . S
C1617 C1609 1.433 . S
C1617 N1619 1.384 . S
N1618 C1614 1.427 . S
N1618 C1615 1.384 . S
N1619 C1611 1.427 . S
N1619 C1617 1.384 . S
H1620 C1626 0.930 . S
H1621 C1630 0.930 . S
H1622 C1635 0.929 . S
H1623 C1633 0.929 . S
H1624 C1628 0.929 . S
H1625 C1634 0.929 . S
C1626 H1620 0.930 . S
C1626 C1627 1.367 . S
C1626 C1634 1.378 . S
C1627 C1626 1.367 . S
C1627 C1635 1.433 . S
C1628 H1624 0.929 . S
C1628 C1630 1.378 . S
C1628 C1632 1.350 . S
C1629 C1632 1.463 . S
C1629 C1634 1.350 . S
C1629 N1637 1.427 . S
C1630 H1621 0.930 . S
C1630 C1628 1.378 . S
C1630 C1631 1.367 . S
C1631 C1630 1.367 . S
C1631 C1633 1.433 . S
C1632 C1628 1.350 . S
C1632 C1629 1.463 . S
C1632 N1636 1.427 . S
C1633 H1623 0.929 . S
C1633 C1631 1.433 . S
C1633 N1636 1.384 . S
C1634 H1625 0.929 . S
C1634 C1626 1.378 . S
C1634 C1629 1.350 . S
C1635 H1622 0.929 . S
C1635 C1627 1.433 . S
C1635 N1637 1.384 . S
N1636 C1632 1.427 . S
N1636 C1633 1.384 . S
N1637 C1629 1.427 . S
N1637 C1635 1.384 . S
H1638 C1644 0.930 . S
H1639 C1648 0.930 . S
H1640 C1653 0.929 . S
H1641 C1651 0.929 . S
H1642 C1646 0.929 . S
H1643 C1652 0.929 . S
C1644 H1638 0.930 . S
C1644 C1645 1.367 . S
C1644 C1652 1.378 . S
C1645 C1644 1.367 . S
C1645 C1653 1.433 . S
C1646 H1642 0.929 . S
C1646 C1648 1.378 . S
C1646 C1650 1.350 . S
C1647 C1650 1.463 . S
C1647 C1652 1.350 . S
C1647 N1655 1.427 . S
C1648 H1639 0.930 . S
C1648 C1646 1.378 . S
C1648 C1649 1.367 . S
C1649 C1648 1.367 . S
C1649 C1651 1.433 . S
C1650 C1646 1.350 . S
C1650 C1647 1.463 . S
C1650 N1654 1.427 . S
C1651 H1641 0.929 . S
C1651 C1649 1.433 . S
C1651 N1654 1.384 . S
C1652 H1643 0.929 . S
C1652 C1644 1.378 . S
C1652 C1647 1.350 . S
C1653 H1640 0.929 . S
C1653 C1645 1.433 . S
C1653 N1655 1.384 . S
N1654 C1650 1.427 . S
N1654 C1651 1.384 . S
N1655 C1647 1.427 . S
N1655 C1653 1.384 . S
H1656 C1662 0.930 . S
H1657 C1666 0.930 . S
H1658 C1671 0.929 . S
H1659 C1669 0.929 . S
H1660 C1664 0.929 . S
H1661 C1670 0.929 . S
C1662 H1656 0.930 . S
C1662 C1663 1.367 . S
C1662 C1670 1.378 . S
C1663 C1662 1.367 . S
C1663 C1671 1.433 . S
C1664 H1660 0.929 . S
C1664 C1666 1.378 . S
C1664 C1668 1.350 . S
C1665 C1668 1.463 . S
C1665 C1670 1.350 . S
C1665 N1673 1.427 . S
C1666 H1657 0.930 . S
C1666 C1664 1.378 . S
C1666 C1667 1.367 . S
C1667 C1666 1.367 . S
C1667 C1669 1.433 . S
C1668 C1664 1.350 . S
C1668 C1665 1.463 . S
C1668 N1672 1.427 . S
C1669 H1659 0.929 . S
C1669 C1667 1.433 . S
C1669 N1672 1.384 . S
C1670 H1661 0.929 . S
C1670 C1662 1.378 . S
C1670 C1665 1.350 . S
C1671 H1658 0.929 . S
C1671 C1663 1.433 . S
C1671 N1673 1.384 . S
N1672 C1668 1.427 . S
N1672 C1669 1.384 . S
N1673 C1665 1.427 . S
N1673 C1671 1.384 . S
H1674 C1680 0.930 . S
H1675 C1684 0.930 . S
H1676 C1689 0.929 . S
H1677 C1687 0.929 . S
H1678 C1682 0.929 . S
H1679 C1688 0.929 . S
C1680 H1674 0.930 . S
C1680 C1681 1.367 . S
C1680 C1688 1.378 . S
C1681 C1680 1.367 . S
C1681 C1689 1.433 . S
C1682 H1678 0.929 . S
C1682 C1684 1.378 . S
C1682 C1686 1.350 . S
C1683 C1686 1.463 . S
C1683 C1688 1.350 . S
C1683 N1691 1.427 . S
C1684 H1675 0.930 . S
C1684 C1682 1.378 . S
C1684 C1685 1.367 . S
C1685 C1684 1.367 . S
C1685 C1687 1.433 . S
C1686 C1682 1.350 . S
C1686 C1683 1.463 . S
C1686 N1690 1.427 . S
C1687 H1677 0.929 . S
C1687 C1685 1.433 . S
C1687 N1690 1.384 . S
C1688 H1679 0.929 . S
C1688 C1680 1.378 . S
C1688 C1683 1.350 . S
C1689 H1676 0.929 . S
C1689 C1681 1.433 . S
C1689 N1691 1.384 . S
N1690 C1686 1.427 . S
N1690 C1687 1.384 . S
N1691 C1683 1.427 . S
N1691 C1689 1.384 . S
C727 C15 1.262 . S
C731 C99 1.290 . S
C745 C19 1.288 . S
C749 C55 1.256 . S
C763 C59 1.287 . S
C767 C95 1.251 . S
C781 C135 1.250 . S
C785 C179 1.287 . S
C799 C219 1.289 . S
C803 C175 1.258 . S
C817 C215 1.261 . S
C821 C139 1.290 . S
C835 C339 1.287 . S
C839 C255 1.252 . S
C853 C259 1.290 . S
C857 C295 1.259 . S
C871 C335 1.250 1_655 S
C875 C299 1.286 . S
C889 C419 1.286 . S
C893 C375 1.249 . S
C907 C415 1.259 . S
C911 C459 1.289 . S
C925 C379 1.289 . S
C929 C455 1.256 . S
C943 C495 1.262 . S
C947 C579 1.290 . S
C961 C499 1.288 . S
C965 C535 1.256 . S
C979 C539 1.287 . S
C983 C575 1.251 . S
C997 C659 1.289 . S
C1001 C615 1.259 . S
C1015 C699 1.289 . S
C1019 C655 1.258 1_565 S
C1033 C619 1.290 . S
C1037 C695 1.258 . S
C1051 C18 1.763 . S
C1055 C218 1.767 . S
C1069 C138 1.763 . S
C1073 C58 1.758 . S
C1087 C178 1.757 . S
C1091 C98 1.762 . S
C1105 C258 1.762 . S
C1109 C458 1.757 . S
C1123 C298 1.755 . S
C1127 C378 1.758 . S
C1141 C418 1.766 . S
C1145 C338 1.767 . S
C1159 C498 1.757 . S
C1163 C698 1.756 . S
C1177 C618 1.767 . S
C1181 C538 1.764 . S
C1195 C658 1.767 . S
C1199 C578 1.765 . S
C1213 C409 2.075 . S
C1217 C9 2.077 1_565 S
C1231 C49 2.064 . S
C1235 C449 2.068 . S
C1249 C369 2.073 . S
C1253 C89 2.065 . S
C1267 C129 2.069 1_655 S
C1271 C569 2.081 . S
C1285 C169 2.064 . S
C1289 C489 2.067 . S
C1303 C529 2.064 . S
C1307 C209 2.068 . S
C1321 C649 2.064 . S
C1325 C249 2.071 . S
C1339 C289 2.078 . S
C1343 C689 2.081 . S
C1357 C329 2.081 . S
C1361 C609 2.080 . S
C1375 C90 1.798 . S
C1379 C6 1.812 . S
C1393 C10 1.799 . S
C1397 C46 1.812 . S
C1411 C86 1.813 . S
C1415 C50 1.794 . S
C1429 C170 1.799 . S
C1433 C126 1.816 . S
C1447 C210 1.799 . S
C1451 C166 1.812 . S
C1465 C206 1.814 . S
C1469 C130 1.802 . S
C1483 C330 1.796 . S
C1487 C246 1.812 . S
C1501 C286 1.816 . S
C1505 C250 1.797 . S
C1519 C290 1.801 . S
C1523 C326 1.813 . S
C1537 C366 1.816 . S
C1541 C410 1.797 . S
C1555 C406 1.816 . S
C1559 C450 1.797 . S
C1573 C370 1.800 . S
C1577 C446 1.813 . S
C1591 C486 1.814 . S
C1595 C570 1.802 . S
C1609 C526 1.816 . S
C1613 C490 1.796 . S
C1627 C530 1.799 . S
C1631 C566 1.816 . S
C1645 C606 1.816 . S
C1649 C650 1.798 . S
C1663 C646 1.815 . S
C1667 C690 1.795 . S
C1681 C610 1.794 . S
C1685 C686 1.813 . S
