# Generated by pormake.
# Topology sra, (4)-cn, num edge types: 1
# Building blocks:
#     Node 0, Type 0, BuildingBlock: GALJAG_clean_sbu_0, # of connection points: 4
#     Node 1, Type 0, BuildingBlock: GALJAG_clean_sbu_0, # of connection points: 4
#     Node 2, Type 0, BuildingBlock: GALJAG_clean_sbu_0, # of connection points: 4
#     Node 3, Type 0, BuildingBlock: GALJAG_clean_sbu_0, # of connection points: 4
#     Node 4, Type 0, BuildingBlock: GALJAG_clean_sbu_0, # of connection points: 4
#     Node 5, Type 0, BuildingBlock: GALJAG_clean_sbu_0, # of connection points: 4
#     Node 6, Type 0, BuildingBlock: GALJAG_clean_sbu_0, # of connection points: 4
#     Node 7, Type 0, BuildingBlock: GALJAG_clean_sbu_0, # of connection points: 4
#     Edge 8, Type (0, 0), BuildingBlock: OJICUG_clean_linker_0, # of connection points: 2
#     Edge 9, Type (0, 0), BuildingBlock: OJICUG_clean_linker_0, # of connection points: 2
#     Edge 10, Type (0, 0), BuildingBlock: OJICUG_clean_linker_0, # of connection points: 2
#     Edge 11, Type (0, 0), BuildingBlock: OJICUG_clean_linker_0, # of connection points: 2
#     Edge 12, Type (0, 0), BuildingBlock: OJICUG_clean_linker_0, # of connection points: 2
#     Edge 13, Type (0, 0), BuildingBlock: OJICUG_clean_linker_0, # of connection points: 2
#     Edge 14, Type (0, 0), BuildingBlock: OJICUG_clean_linker_0, # of connection points: 2
#     Edge 15, Type (0, 0), BuildingBlock: OJICUG_clean_linker_0, # of connection points: 2
#     Edge 16, Type (0, 0), BuildingBlock: OJICUG_clean_linker_0, # of connection points: 2
#     Edge 17, Type (0, 0), BuildingBlock: OJICUG_clean_linker_0, # of connection points: 2
#     Edge 18, Type (0, 0), BuildingBlock: OJICUG_clean_linker_0, # of connection points: 2
#     Edge 19, Type (0, 0), BuildingBlock: OJICUG_clean_linker_0, # of connection points: 2
#     Edge 20, Type (0, 0), BuildingBlock: OJICUG_clean_linker_0, # of connection points: 2
#     Edge 21, Type (0, 0), BuildingBlock: OJICUG_clean_linker_0, # of connection points: 2
#     Edge 22, Type (0, 0), BuildingBlock: OJICUG_clean_linker_0, # of connection points: 2
#     Edge 23, Type (0, 0), BuildingBlock: OJICUG_clean_linker_0, # of connection points: 2
# Relax obj value: 0.076
# Max RMSD: 0.110
# Mean RMSD: 0.110
data_MOF--net-sra--node1-GALJAG_clean_sbu_0--edge1-OJICUG_clean_linker_0
_symmetry_space_group_name_H-M    P1
_symmetry_Int_Tables_number       1
_symmetry_cell_setting            triclinic
loop_
_symmetry_equiv_pos_as_xyz
'x, y, z'
_cell_length_a     20.689586
_cell_length_b     39.394476
_cell_length_c     22.356988
_cell_angle_alpha  89.996386
_cell_angle_beta   89.998856
_cell_angle_gamma 90.101196
loop_
_atom_site_label
_atom_site_type_symbol
_atom_site_fract_x
_atom_site_fract_y
_atom_site_fract_z
_atom_type_partial_charge
In0 In 0.03324 0.1042 0.12279 0.0
O1 O 0.03385 0.08308 0.02792 0.0
O2 O 0.03335 0.04822 0.10109 0.0
C3 C 0.03402 0.17235 0.11353 0.0
C4 C 0.9131 0.09575 0.16673 0.0
C5 C 0.15294 0.09573 0.16755 0.0
O6 O 0.03378 0.1536 0.06755 0.0
O7 O 0.03374 0.15661 0.16261 0.0
O8 O 0.10282 0.09194 0.19937 0.0
O9 O 0.14228 0.10346 0.11368 0.0
C10 C 0.03385 0.05243 0.04509 0.0
O11 O 0.96299 0.09161 0.19867 0.0
O12 O 0.92415 0.10381 0.11306 0.0
In13 In 0.03821 0.38718 0.12283 0.0
O14 O 0.03763 0.4083 0.02795 0.0
O15 O 0.03809 0.44316 0.10112 0.0
C16 C 0.03738 0.31902 0.11355 0.0
C17 C 0.15835 0.39562 0.16676 0.0
C18 C 0.91851 0.39565 0.1676 0.0
O19 O 0.03763 0.33779 0.06757 0.0
O20 O 0.03768 0.33476 0.16264 0.0
O21 O 0.96863 0.39942 0.19943 0.0
O22 O 0.92916 0.38795 0.11371 0.0
C23 C 0.03762 0.43895 0.04513 0.0
O24 O 0.10845 0.39978 0.1987 0.0
O25 O 0.14729 0.38754 0.11311 0.0
In26 In 0.03823 0.88719 0.80436 0.0
O27 O 0.96868 0.89943 0.72775 0.0
O28 O 0.92918 0.888 0.81348 0.0
C29 C 0.15839 0.8956 0.76044 0.0
C30 C 0.03766 0.93895 0.88206 0.0
C31 C 0.03732 0.81903 0.81364 0.0
O32 O 0.1085 0.89978 0.72851 0.0
O33 O 0.14732 0.8875 0.81409 0.0
O34 O 0.03764 0.83779 0.85962 0.0
O35 O 0.03759 0.83477 0.76455 0.0
C36 C 0.91855 0.89569 0.75958 0.0
O37 O 0.03761 0.9083 0.89924 0.0
O38 O 0.03818 0.94316 0.82607 0.0
In39 In 0.03321 0.6042 0.80438 0.0
O40 O 0.03379 0.58308 0.89926 0.0
O41 O 0.03339 0.54823 0.82609 0.0
C42 C 0.03392 0.67236 0.81364 0.0
C43 C 0.15292 0.59577 0.75962 0.0
C44 C 0.91309 0.59572 0.76044 0.0
O45 O 0.03376 0.6536 0.85963 0.0
O46 O 0.0336 0.65662 0.76456 0.0
O47 O 0.96299 0.59161 0.72849 0.0
O48 O 0.92413 0.60378 0.81411 0.0
C49 C 0.03384 0.55243 0.88208 0.0
O50 O 0.10281 0.59196 0.7278 0.0
O51 O 0.14226 0.6035 0.81349 0.0
In52 In 0.53323 0.6042 0.62282 0.0
O53 O 0.46299 0.59164 0.69871 0.0
O54 O 0.42414 0.60382 0.61309 0.0
C55 C 0.65293 0.59572 0.66757 0.0
C56 C 0.53381 0.55243 0.54512 0.0
C57 C 0.53405 0.67236 0.61355 0.0
O58 O 0.60281 0.59192 0.69939 0.0
O59 O 0.64228 0.60345 0.6137 0.0
O60 O 0.5338 0.6536 0.56756 0.0
O61 O 0.53377 0.65662 0.66263 0.0
C62 C 0.41309 0.59577 0.66677 0.0
O63 O 0.53382 0.58308 0.52794 0.0
O64 O 0.53333 0.54822 0.60112 0.0
In65 In 0.53825 0.88718 0.6228 0.0
O66 O 0.6085 0.89981 0.69865 0.0
O67 O 0.64734 0.88754 0.61307 0.0
C68 C 0.41856 0.89564 0.66759 0.0
C69 C 0.53764 0.93895 0.5451 0.0
C70 C 0.53745 0.81903 0.61354 0.0
O71 O 0.46868 0.89939 0.69941 0.0
O72 O 0.4292 0.88795 0.61369 0.0
O73 O 0.53768 0.83779 0.56756 0.0
O74 O 0.53775 0.83476 0.66262 0.0
C75 C 0.65839 0.89564 0.66672 0.0
O76 O 0.53765 0.9083 0.52793 0.0
O77 O 0.53812 0.94316 0.60109 0.0
In78 In 0.5382 0.38719 0.30439 0.0
O79 O 0.46863 0.39943 0.2278 0.0
O80 O 0.42915 0.38795 0.31351 0.0
C81 C 0.65835 0.39563 0.26046 0.0
C82 C 0.53761 0.43895 0.38209 0.0
C83 C 0.53738 0.31903 0.31365 0.0
O84 O 0.60845 0.39979 0.22852 0.0
O85 O 0.64729 0.38755 0.31412 0.0
O86 O 0.53764 0.33779 0.35964 0.0
O87 O 0.53766 0.33477 0.26457 0.0
C88 C 0.41851 0.39566 0.25963 0.0
O89 O 0.5376 0.4083 0.39927 0.0
O90 O 0.5381 0.44316 0.3261 0.0
In91 In 0.53323 0.1042 0.30435 0.0
O92 O 0.60281 0.09195 0.22777 0.0
O93 O 0.64228 0.10346 0.31347 0.0
C94 C 0.4131 0.09575 0.26041 0.0
C95 C 0.53383 0.05243 0.38206 0.0
C96 C 0.53401 0.17236 0.31363 0.0
O97 O 0.463 0.09162 0.22847 0.0
O98 O 0.42414 0.10381 0.31408 0.0
O99 O 0.53379 0.15359 0.35961 0.0
O100 O 0.53372 0.15662 0.26454 0.0
C101 C 0.65293 0.09574 0.25959 0.0
O102 O 0.53383 0.08308 0.39923 0.0
O103 O 0.53336 0.04823 0.32606 0.0
C104 C 0.03615 0.26352 0.05727 0.0
C105 C 0.03659 0.28152 0.1116 0.0
H106 H 0.03496 0.21447 0.01497 0.0
C107 C 0.03612 0.26334 0.1656 0.0
H108 H 0.03648 0.27692 0.01498 0.0
C109 C 0.03523 0.22803 0.16559 0.0
C110 C 0.0348 0.20986 0.11159 0.0
H111 H 0.03642 0.27638 0.20826 0.0
H112 H 0.0349 0.21498 0.20825 0.0
C113 C 0.03526 0.22787 0.05727 0.0
C114 C 0.03584 0.76335 0.76159 0.0
C115 C 0.03648 0.78153 0.81559 0.0
H116 H 0.03449 0.715 0.71893 0.0
C117 C 0.03617 0.76352 0.86991 0.0
H118 H 0.03602 0.7764 0.71893 0.0
C119 C 0.03528 0.72787 0.86991 0.0
C120 C 0.03467 0.70986 0.8156 0.0
H121 H 0.03663 0.77692 0.9122 0.0
H122 H 0.0351 0.71447 0.91221 0.0
C123 C 0.03494 0.72804 0.76159 0.0
C124 C 0.53531 0.72804 0.66559 0.0
C125 C 0.53485 0.70986 0.61159 0.0
H126 H 0.53654 0.77639 0.70825 0.0
C127 C 0.5353 0.72787 0.55727 0.0
H128 H 0.535 0.71499 0.70826 0.0
C129 C 0.53619 0.76352 0.55727 0.0
C130 C 0.53666 0.78152 0.61159 0.0
H131 H 0.53497 0.71447 0.51498 0.0
H132 H 0.5365 0.77692 0.51498 0.0
C133 C 0.53621 0.76334 0.66559 0.0
C134 C 0.53609 0.26335 0.26159 0.0
C135 C 0.53658 0.28153 0.3156 0.0
H136 H 0.53485 0.215 0.21893 0.0
C137 C 0.53616 0.26351 0.36991 0.0
H138 H 0.53637 0.2764 0.21893 0.0
C139 C 0.53528 0.22787 0.36991 0.0
C140 C 0.53479 0.20986 0.31559 0.0
H141 H 0.53651 0.27691 0.41221 0.0
H142 H 0.535 0.21446 0.4122 0.0
C143 C 0.53519 0.22805 0.26159 0.0
C144 C 0.29345 0.09305 0.27582 0.0
C145 C 0.34665 0.09302 0.23665 0.0
H146 H 0.19027 0.09345 0.28466 0.0
C147 C 0.33555 0.09198 0.17476 0.0
H148 H 0.30058 0.09373 0.32381 0.0
C149 C 0.27244 0.09219 0.15241 0.0
C150 C 0.21925 0.09299 0.19154 0.0
H151 H 0.37559 0.09195 0.14353 0.0
H152 H 0.26533 0.09218 0.1044 0.0
C153 C 0.23032 0.09281 0.25347 0.0
C154 C 0.7359 0.39945 0.17481 0.0
C155 C 0.7248 0.39836 0.23671 0.0
H156 H 0.80612 0.39929 0.10445 0.0
C157 C 0.77799 0.39828 0.27587 0.0
H158 H 0.69587 0.39952 0.14359 0.0
C159 C 0.84113 0.39852 0.25353 0.0
C160 C 0.8522 0.39839 0.19159 0.0
H161 H 0.77086 0.39756 0.32386 0.0
H162 H 0.88118 0.39784 0.28471 0.0
C163 C 0.79901 0.39924 0.15246 0.0
C164 C 0.27804 0.89821 0.77586 0.0
C165 C 0.22484 0.89832 0.7367 0.0
H166 H 0.38122 0.89775 0.7847 0.0
C167 C 0.23595 0.89946 0.6748 0.0
H168 H 0.2709 0.89746 0.82385 0.0
C169 C 0.29906 0.89925 0.65245 0.0
C170 C 0.35224 0.89837 0.69159 0.0
H171 H 0.19592 0.89955 0.64358 0.0
H172 H 0.30618 0.89933 0.60445 0.0
C173 C 0.34117 0.89846 0.75352 0.0
C174 C 0.73031 0.59276 0.75349 0.0
C175 C 0.71925 0.59297 0.69156 0.0
H176 H 0.80057 0.59366 0.82383 0.0
C177 C 0.77243 0.59218 0.65242 0.0
H178 H 0.69026 0.59339 0.78468 0.0
C179 C 0.83554 0.59197 0.67477 0.0
C180 C 0.84664 0.59299 0.73668 0.0
H181 H 0.76533 0.59219 0.60442 0.0
H182 H 0.87558 0.59196 0.64355 0.0
C183 C 0.79344 0.593 0.77584 0.0
C184 C 0.77804 0.89827 0.6513 0.0
C185 C 0.72484 0.89838 0.69046 0.0
H186 H 0.88122 0.89781 0.64246 0.0
C187 C 0.73595 0.89952 0.75236 0.0
H188 H 0.77091 0.89752 0.60331 0.0
C189 C 0.79906 0.89932 0.77471 0.0
C190 C 0.85224 0.89843 0.73558 0.0
H191 H 0.69591 0.89962 0.78358 0.0
H192 H 0.80617 0.8994 0.82272 0.0
C193 C 0.84117 0.89852 0.67365 0.0
C194 C 0.29345 0.59307 0.65136 0.0
C195 C 0.34664 0.59305 0.69053 0.0
H196 H 0.19027 0.59347 0.64252 0.0
C197 C 0.33554 0.59203 0.75243 0.0
H198 H 0.30058 0.59373 0.60337 0.0
C199 C 0.27243 0.59225 0.77478 0.0
C200 C 0.21924 0.59303 0.73564 0.0
H201 H 0.37557 0.59201 0.78365 0.0
H202 H 0.26531 0.59225 0.82278 0.0
C203 C 0.23032 0.59283 0.67371 0.0
C204 C 0.73032 0.09283 0.17367 0.0
C205 C 0.71925 0.093 0.2356 0.0
H206 H 0.80058 0.09375 0.10333 0.0
C207 C 0.77243 0.09219 0.27473 0.0
H208 H 0.69027 0.09348 0.14248 0.0
C209 C 0.83554 0.09197 0.25238 0.0
C210 C 0.84665 0.09302 0.19048 0.0
H211 H 0.76532 0.09217 0.32274 0.0
H212 H 0.87558 0.09193 0.28361 0.0
C213 C 0.79345 0.09307 0.15132 0.0
C214 C 0.27799 0.39828 0.15135 0.0
C215 C 0.2248 0.39835 0.19051 0.0
H216 H 0.38118 0.39785 0.14251 0.0
C217 C 0.2359 0.39944 0.25241 0.0
H218 H 0.27086 0.39757 0.10336 0.0
C219 C 0.29901 0.39924 0.27476 0.0
C220 C 0.35219 0.3984 0.23563 0.0
H221 H 0.19586 0.39951 0.28363 0.0
H222 H 0.30612 0.39929 0.32277 0.0
C223 C 0.34113 0.39853 0.1737 0.0
C224 C 0.03474 0.99003 0.02524 0.0
C225 C 0.03471 0.02348 0.00326 0.0
H226 H 0.03575 0.93701 0.00409 0.0
C227 C 0.03574 0.02889 0.94124 0.0
H228 H 0.03397 0.98509 0.0729 0.0
C229 C 0.03679 0.00135 0.90191 0.0
C230 C 0.03682 0.96791 0.92389 0.0
H231 H 0.03578 0.05438 0.92306 0.0
H232 H 0.03756 0.00629 0.85425 0.0
C233 C 0.03579 0.9625 -0.01409 0.0
C234 C 0.0348 0.49004 0.90194 0.0
C235 C 0.03469 0.52348 0.92392 0.0
H236 H 0.03586 0.43701 0.92309 0.0
C237 C 0.03564 0.52889 -0.01406 0.0
H238 H 0.0341 0.4851 0.85428 0.0
C239 C 0.03668 0.50135 0.02527 0.0
C240 C 0.03678 0.4679 0.00329 0.0
H241 H 0.03562 0.55437 0.00412 0.0
H242 H 0.03738 0.50629 0.07293 0.0
C243 C 0.03584 0.4625 0.94127 0.0
C244 C 0.53576 0.4625 0.48594 0.0
C245 C 0.53676 0.46791 0.42392 0.0
H246 H 0.53399 0.48509 0.57293 0.0
C247 C 0.53669 0.50135 0.40194 0.0
H248 H 0.53575 0.43701 0.50412 0.0
C249 C 0.53566 0.52889 0.44127 0.0
C250 C 0.53466 0.52348 0.50329 0.0
H251 H 0.53743 0.50629 0.35428 0.0
H252 H 0.53567 0.55438 0.42309 0.0
C253 C 0.53472 0.49004 0.52527 0.0
C254 C 0.5358 0.9625 0.44124 0.0
C255 C 0.53679 0.9679 0.50326 0.0
H256 H 0.53403 0.9851 0.35425 0.0
C257 C 0.53672 0.00135 0.52524 0.0
H258 H 0.5358 0.93701 0.42306 0.0
C259 C 0.53567 0.02889 0.48591 0.0
C260 C 0.53469 0.02348 0.42389 0.0
H261 H 0.53744 0.00629 0.5729 0.0
H262 H 0.53567 0.05437 0.50409 0.0
C263 C 0.53476 0.99004 0.40191 0.0
loop_
_geom_bond_atom_site_label_1
_geom_bond_atom_site_label_2
_geom_bond_distance
_geom_bond_site_symmetry_2
_ccdc_geom_bond_type
In0 O1 2.294 . S
In0 O2 2.326 . S
In0 O6 2.266 . S
In0 O7 2.326 . S
In0 O8 2.266 . S
In0 O9 2.326 . S
In0 O11 2.294 1_455 S
In0 O12 2.326 1_455 S
O1 In0 2.294 . S
O1 C10 1.240 . S
O2 In0 2.326 . S
O2 C10 1.252 . S
C3 O6 1.252 . S
C3 O7 1.260 . S
C4 O11 1.240 . S
C4 O12 1.252 . S
C5 O8 1.252 . S
C5 O9 1.260 . S
O6 In0 2.266 . S
O6 C3 1.252 . S
O7 In0 2.326 . S
O7 C3 1.260 . S
O8 In0 2.266 . S
O8 C5 1.252 . S
O9 In0 2.326 . S
O9 C5 1.260 . S
C10 O1 1.240 . S
C10 O2 1.252 . S
O11 In0 2.294 1_655 S
O11 C4 1.240 . S
O12 In0 2.326 1_655 S
O12 C4 1.252 . S
In13 O14 2.294 . S
In13 O15 2.326 . S
In13 O19 2.266 . S
In13 O20 2.326 . S
In13 O21 2.266 1_455 S
In13 O22 2.326 1_455 S
In13 O24 2.294 . S
In13 O25 2.326 . S
O14 In13 2.294 . S
O14 C23 1.240 . S
O15 In13 2.326 . S
O15 C23 1.252 . S
C16 O19 1.252 . S
C16 O20 1.260 . S
C17 O24 1.240 . S
C17 O25 1.252 . S
C18 O21 1.252 . S
C18 O22 1.260 . S
O19 In13 2.266 . S
O19 C16 1.252 . S
O20 In13 2.326 . S
O20 C16 1.260 . S
O21 In13 2.266 1_655 S
O21 C18 1.252 . S
O22 In13 2.326 1_655 S
O22 C18 1.260 . S
C23 O14 1.240 . S
C23 O15 1.252 . S
O24 In13 2.294 . S
O24 C17 1.240 . S
O25 In13 2.326 . S
O25 C17 1.252 . S
In26 O27 2.294 1_455 S
In26 O28 2.326 1_455 S
In26 O32 2.266 . S
In26 O33 2.326 . S
In26 O34 2.266 . S
In26 O35 2.326 . S
In26 O37 2.294 . S
In26 O38 2.326 . S
O27 In26 2.294 1_655 S
O27 C36 1.240 . S
O28 In26 2.326 1_655 S
O28 C36 1.252 . S
C29 O32 1.252 . S
C29 O33 1.260 . S
C30 O37 1.240 . S
C30 O38 1.252 . S
C31 O34 1.252 . S
C31 O35 1.260 . S
O32 In26 2.266 . S
O32 C29 1.252 . S
O33 In26 2.326 . S
O33 C29 1.260 . S
O34 In26 2.266 . S
O34 C31 1.252 . S
O35 In26 2.326 . S
O35 C31 1.260 . S
C36 O27 1.240 . S
C36 O28 1.252 . S
O37 In26 2.294 . S
O37 C30 1.240 . S
O38 In26 2.326 . S
O38 C30 1.252 . S
In39 O40 2.294 . S
In39 O41 2.326 . S
In39 O45 2.266 . S
In39 O46 2.326 . S
In39 O47 2.266 1_455 S
In39 O48 2.326 1_455 S
In39 O50 2.294 . S
In39 O51 2.326 . S
O40 In39 2.294 . S
O40 C49 1.240 . S
O41 In39 2.326 . S
O41 C49 1.252 . S
C42 O45 1.252 . S
C42 O46 1.260 . S
C43 O50 1.240 . S
C43 O51 1.252 . S
C44 O47 1.252 . S
C44 O48 1.260 . S
O45 In39 2.266 . S
O45 C42 1.252 . S
O46 In39 2.326 . S
O46 C42 1.260 . S
O47 In39 2.266 1_655 S
O47 C44 1.252 . S
O48 In39 2.326 1_655 S
O48 C44 1.260 . S
C49 O40 1.240 . S
C49 O41 1.252 . S
O50 In39 2.294 . S
O50 C43 1.240 . S
O51 In39 2.326 . S
O51 C43 1.252 . S
In52 O53 2.294 . S
In52 O54 2.326 . S
In52 O58 2.266 . S
In52 O59 2.326 . S
In52 O60 2.266 . S
In52 O61 2.326 . S
In52 O63 2.294 . S
In52 O64 2.326 . S
O53 In52 2.294 . S
O53 C62 1.240 . S
O54 In52 2.326 . S
O54 C62 1.252 . S
C55 O58 1.252 . S
C55 O59 1.260 . S
C56 O63 1.240 . S
C56 O64 1.252 . S
C57 O60 1.252 . S
C57 O61 1.260 . S
O58 In52 2.266 . S
O58 C55 1.252 . S
O59 In52 2.326 . S
O59 C55 1.260 . S
O60 In52 2.266 . S
O60 C57 1.252 . S
O61 In52 2.326 . S
O61 C57 1.260 . S
C62 O53 1.240 . S
C62 O54 1.252 . S
O63 In52 2.294 . S
O63 C56 1.240 . S
O64 In52 2.326 . S
O64 C56 1.252 . S
In65 O66 2.294 . S
In65 O67 2.326 . S
In65 O71 2.266 . S
In65 O72 2.326 . S
In65 O73 2.266 . S
In65 O74 2.326 . S
In65 O76 2.294 . S
In65 O77 2.326 . S
O66 In65 2.294 . S
O66 C75 1.240 . S
O67 In65 2.326 . S
O67 C75 1.252 . S
C68 O71 1.252 . S
C68 O72 1.260 . S
C69 O76 1.240 . S
C69 O77 1.252 . S
C70 O73 1.252 . S
C70 O74 1.260 . S
O71 In65 2.266 . S
O71 C68 1.252 . S
O72 In65 2.326 . S
O72 C68 1.260 . S
O73 In65 2.266 . S
O73 C70 1.252 . S
O74 In65 2.326 . S
O74 C70 1.260 . S
C75 O66 1.240 . S
C75 O67 1.252 . S
O76 In65 2.294 . S
O76 C69 1.240 . S
O77 In65 2.326 . S
O77 C69 1.252 . S
In78 O79 2.294 . S
In78 O80 2.326 . S
In78 O84 2.266 . S
In78 O85 2.326 . S
In78 O86 2.266 . S
In78 O87 2.326 . S
In78 O89 2.294 . S
In78 O90 2.326 . S
O79 In78 2.294 . S
O79 C88 1.240 . S
O80 In78 2.326 . S
O80 C88 1.252 . S
C81 O84 1.252 . S
C81 O85 1.260 . S
C82 O89 1.240 . S
C82 O90 1.252 . S
C83 O86 1.252 . S
C83 O87 1.260 . S
O84 In78 2.266 . S
O84 C81 1.252 . S
O85 In78 2.326 . S
O85 C81 1.260 . S
O86 In78 2.266 . S
O86 C83 1.252 . S
O87 In78 2.326 . S
O87 C83 1.260 . S
C88 O79 1.240 . S
C88 O80 1.252 . S
O89 In78 2.294 . S
O89 C82 1.240 . S
O90 In78 2.326 . S
O90 C82 1.252 . S
In91 O92 2.294 . S
In91 O93 2.326 . S
In91 O97 2.266 . S
In91 O98 2.326 . S
In91 O99 2.266 . S
In91 O100 2.326 . S
In91 O102 2.294 . S
In91 O103 2.326 . S
O92 In91 2.294 . S
O92 C101 1.240 . S
O93 In91 2.326 . S
O93 C101 1.252 . S
C94 O97 1.252 . S
C94 O98 1.260 . S
C95 O102 1.240 . S
C95 O103 1.252 . S
C96 O99 1.252 . S
C96 O100 1.260 . S
O97 In91 2.266 . S
O97 C94 1.252 . S
O98 In91 2.326 . S
O98 C94 1.260 . S
O99 In91 2.266 . S
O99 C96 1.252 . S
O100 In91 2.326 . S
O100 C96 1.260 . S
C101 O92 1.240 . S
C101 O93 1.252 . S
O102 In91 2.294 . S
O102 C95 1.240 . S
O103 In91 2.326 . S
O103 C95 1.252 . S
C104 C105 1.387 . S
C104 H108 0.950 . S
C104 C113 1.390 . S
C105 C104 1.387 . S
C105 C107 1.387 . S
H106 C113 0.950 . S
C107 C105 1.387 . S
C107 C109 1.390 . S
C107 H111 0.950 . S
H108 C104 0.950 . S
C109 C107 1.390 . S
C109 C110 1.387 . S
C109 H112 0.950 . S
C110 C109 1.387 . S
C110 C113 1.387 . S
H111 C107 0.950 . S
H112 C109 0.950 . S
C113 C104 1.390 . S
C113 H106 0.950 . S
C113 C110 1.387 . S
C114 C115 1.387 . S
C114 H118 0.950 . S
C114 C123 1.390 . S
C115 C114 1.387 . S
C115 C117 1.387 . S
H116 C123 0.950 . S
C117 C115 1.387 . S
C117 C119 1.390 . S
C117 H121 0.950 . S
H118 C114 0.950 . S
C119 C117 1.390 . S
C119 C120 1.387 . S
C119 H122 0.950 . S
C120 C119 1.387 . S
C120 C123 1.387 . S
H121 C117 0.950 . S
H122 C119 0.950 . S
C123 C114 1.390 . S
C123 H116 0.950 . S
C123 C120 1.387 . S
C124 C125 1.387 . S
C124 H128 0.950 . S
C124 C133 1.390 . S
C125 C124 1.387 . S
C125 C127 1.387 . S
H126 C133 0.950 . S
C127 C125 1.387 . S
C127 C129 1.390 . S
C127 H131 0.950 . S
H128 C124 0.950 . S
C129 C127 1.390 . S
C129 C130 1.387 . S
C129 H132 0.950 . S
C130 C129 1.387 . S
C130 C133 1.387 . S
H131 C127 0.950 . S
H132 C129 0.950 . S
C133 C124 1.390 . S
C133 H126 0.950 . S
C133 C130 1.387 . S
C134 C135 1.387 . S
C134 H138 0.950 . S
C134 C143 1.390 . S
C135 C134 1.387 . S
C135 C137 1.387 . S
H136 C143 0.950 . S
C137 C135 1.387 . S
C137 C139 1.390 . S
C137 H141 0.950 . S
H138 C134 0.950 . S
C139 C137 1.390 . S
C139 C140 1.387 . S
C139 H142 0.950 . S
C140 C139 1.387 . S
C140 C143 1.387 . S
H141 C137 0.950 . S
H142 C139 0.950 . S
C143 C134 1.390 . S
C143 H136 0.950 . S
C143 C140 1.387 . S
C144 C145 1.387 . S
C144 H148 0.950 . S
C144 C153 1.390 . S
C145 C144 1.387 . S
C145 C147 1.387 . S
H146 C153 0.950 . S
C147 C145 1.387 . S
C147 C149 1.390 . S
C147 H151 0.950 . S
H148 C144 0.950 . S
C149 C147 1.390 . S
C149 C150 1.387 . S
C149 H152 0.950 . S
C150 C149 1.387 . S
C150 C153 1.387 . S
H151 C147 0.950 . S
H152 C149 0.950 . S
C153 C144 1.390 . S
C153 H146 0.950 . S
C153 C150 1.387 . S
C154 C155 1.387 . S
C154 H158 0.950 . S
C154 C163 1.390 . S
C155 C154 1.387 . S
C155 C157 1.387 . S
H156 C163 0.950 . S
C157 C155 1.387 . S
C157 C159 1.390 . S
C157 H161 0.950 . S
H158 C154 0.950 . S
C159 C157 1.390 . S
C159 C160 1.387 . S
C159 H162 0.950 . S
C160 C159 1.387 . S
C160 C163 1.387 . S
H161 C157 0.950 . S
H162 C159 0.950 . S
C163 C154 1.390 . S
C163 H156 0.950 . S
C163 C160 1.387 . S
C164 C165 1.387 . S
C164 H168 0.950 . S
C164 C173 1.390 . S
C165 C164 1.387 . S
C165 C167 1.387 . S
H166 C173 0.950 . S
C167 C165 1.387 . S
C167 C169 1.390 . S
C167 H171 0.950 . S
H168 C164 0.950 . S
C169 C167 1.390 . S
C169 C170 1.387 . S
C169 H172 0.950 . S
C170 C169 1.387 . S
C170 C173 1.387 . S
H171 C167 0.950 . S
H172 C169 0.950 . S
C173 C164 1.390 . S
C173 H166 0.950 . S
C173 C170 1.387 . S
C174 C175 1.387 . S
C174 H178 0.950 . S
C174 C183 1.390 . S
C175 C174 1.387 . S
C175 C177 1.387 . S
H176 C183 0.950 . S
C177 C175 1.387 . S
C177 C179 1.390 . S
C177 H181 0.950 . S
H178 C174 0.950 . S
C179 C177 1.390 . S
C179 C180 1.387 . S
C179 H182 0.950 . S
C180 C179 1.387 . S
C180 C183 1.387 . S
H181 C177 0.950 . S
H182 C179 0.950 . S
C183 C174 1.390 . S
C183 H176 0.950 . S
C183 C180 1.387 . S
C184 C185 1.387 . S
C184 H188 0.950 . S
C184 C193 1.390 . S
C185 C184 1.387 . S
C185 C187 1.387 . S
H186 C193 0.950 . S
C187 C185 1.387 . S
C187 C189 1.390 . S
C187 H191 0.950 . S
H188 C184 0.950 . S
C189 C187 1.390 . S
C189 C190 1.387 . S
C189 H192 0.950 . S
C190 C189 1.387 . S
C190 C193 1.387 . S
H191 C187 0.950 . S
H192 C189 0.950 . S
C193 C184 1.390 . S
C193 H186 0.950 . S
C193 C190 1.387 . S
C194 C195 1.387 . S
C194 H198 0.950 . S
C194 C203 1.390 . S
C195 C194 1.387 . S
C195 C197 1.387 . S
H196 C203 0.950 . S
C197 C195 1.387 . S
C197 C199 1.390 . S
C197 H201 0.950 . S
H198 C194 0.950 . S
C199 C197 1.390 . S
C199 C200 1.387 . S
C199 H202 0.950 . S
C200 C199 1.387 . S
C200 C203 1.387 . S
H201 C197 0.950 . S
H202 C199 0.950 . S
C203 C194 1.390 . S
C203 H196 0.950 . S
C203 C200 1.387 . S
C204 C205 1.387 . S
C204 H208 0.950 . S
C204 C213 1.390 . S
C205 C204 1.387 . S
C205 C207 1.387 . S
H206 C213 0.950 . S
C207 C205 1.387 . S
C207 C209 1.390 . S
C207 H211 0.950 . S
H208 C204 0.950 . S
C209 C207 1.390 . S
C209 C210 1.387 . S
C209 H212 0.950 . S
C210 C209 1.387 . S
C210 C213 1.387 . S
H211 C207 0.950 . S
H212 C209 0.950 . S
C213 C204 1.390 . S
C213 H206 0.950 . S
C213 C210 1.387 . S
C214 C215 1.387 . S
C214 H218 0.950 . S
C214 C223 1.390 . S
C215 C214 1.387 . S
C215 C217 1.387 . S
H216 C223 0.950 . S
C217 C215 1.387 . S
C217 C219 1.390 . S
C217 H221 0.950 . S
H218 C214 0.950 . S
C219 C217 1.390 . S
C219 C220 1.387 . S
C219 H222 0.950 . S
C220 C219 1.387 . S
C220 C223 1.387 . S
H221 C217 0.950 . S
H222 C219 0.950 . S
C223 C214 1.390 . S
C223 H216 0.950 . S
C223 C220 1.387 . S
C224 C225 1.387 1_655 S
C224 H228 0.950 . S
C224 C233 1.390 1_544 S
C225 C224 1.387 1_455 S
C225 C227 1.387 . S
H226 C233 0.950 . S
C227 C225 1.387 . S
C227 C229 1.390 1_544 S
C227 H231 0.950 . S
H228 C224 0.950 . S
C229 C227 1.390 1_566 S
C229 C230 1.387 . S
C229 H232 0.950 . S
C230 C229 1.387 . S
C230 C233 1.387 1_455 S
H231 C227 0.950 . S
H232 C229 0.950 . S
C233 C224 1.390 1_566 S
C233 H226 0.950 . S
C233 C230 1.387 1_655 S
C234 C235 1.387 . S
C234 H238 0.950 1_455 S
C234 C243 1.390 1_556 S
C235 C234 1.387 . S
C235 C237 1.387 . S
H236 C243 0.950 1_655 S
C237 C235 1.387 . S
C237 C239 1.390 1_556 S
C237 H241 0.950 . S
H238 C234 0.950 1_655 S
C239 C237 1.390 1_554 S
C239 C240 1.387 . S
C239 H242 0.950 . S
C240 C239 1.387 . S
C240 C243 1.387 . S
H241 C237 0.950 . S
H242 C239 0.950 . S
C243 C234 1.390 1_554 S
C243 H236 0.950 1_455 S
C243 C240 1.387 . S
C244 C245 1.387 . S
C244 H248 0.950 . S
C244 C253 1.390 . S
C245 C244 1.387 . S
C245 C247 1.387 . S
H246 C253 0.950 . S
C247 C245 1.387 . S
C247 C249 1.390 . S
C247 H251 0.950 . S
H248 C244 0.950 . S
C249 C247 1.390 . S
C249 C250 1.387 . S
C249 H252 0.950 . S
C250 C249 1.387 . S
C250 C253 1.387 . S
H251 C247 0.950 . S
H252 C249 0.950 . S
C253 C244 1.390 . S
C253 H246 0.950 . S
C253 C250 1.387 . S
C254 C255 1.387 . S
C254 H258 0.950 . S
C254 C263 1.390 1_565 S
C255 C254 1.387 . S
C255 C257 1.387 . S
H256 C263 0.950 . S
C257 C255 1.387 . S
C257 C259 1.390 1_565 S
C257 H261 0.950 . S
H258 C254 0.950 . S
C259 C257 1.390 1_545 S
C259 C260 1.387 . S
C259 H262 0.950 . S
C260 C259 1.387 . S
C260 C263 1.387 . S
H261 C257 0.950 . S
H262 C259 0.950 . S
C263 C254 1.390 1_545 S
C263 H256 0.950 . S
C263 C260 1.387 . S
C105 C16 1.480 . S
C110 C3 1.480 . S
C115 C31 1.479 . S
C120 C42 1.479 . S
C125 C57 1.479 . S
C130 C70 1.479 . S
C135 C83 1.479 . S
C140 C96 1.479 . S
C145 C94 1.635 . S
C150 C5 1.635 . S
C155 C81 1.636 . S
C160 C18 1.636 . S
C165 C29 1.635 . S
C170 C68 1.635 . S
C175 C55 1.635 . S
C180 C44 1.635 . S
C185 C75 1.290 . S
C190 C36 1.290 . S
C195 C62 1.290 . S
C200 C43 1.290 . S
C205 C101 1.290 . S
C210 C4 1.290 . S
C215 C17 1.290 . S
C220 C88 1.290 . S
C225 C10 1.443 . S
C230 C30 1.443 . S
C235 C49 1.443 . S
C240 C23 1.443 . S
C245 C82 1.443 . S
C250 C56 1.443 . S
C255 C69 1.443 . S
C260 C95 1.443 . S
