# Generated by pormake.
# Topology uow, (4)-cn, num edge types: 1
# Building blocks:
#     Node 0, Type 0, BuildingBlock: NAHDIM_clean_sbu_0, # of connection points: 4
#     Node 1, Type 0, BuildingBlock: NAHDIM_clean_sbu_0, # of connection points: 4
#     Node 2, Type 0, BuildingBlock: NAHDIM_clean_sbu_0, # of connection points: 4
#     Node 3, Type 0, BuildingBlock: NAHDIM_clean_sbu_0, # of connection points: 4
#     Node 4, Type 0, BuildingBlock: NAHDIM_clean_sbu_0, # of connection points: 4
#     Node 5, Type 0, BuildingBlock: NAHDIM_clean_sbu_0, # of connection points: 4
#     Node 6, Type 0, BuildingBlock: NAHDIM_clean_sbu_0, # of connection points: 4
#     Node 7, Type 0, BuildingBlock: NAHDIM_clean_sbu_0, # of connection points: 4
#     Node 8, Type 0, BuildingBlock: NAHDIM_clean_sbu_0, # of connection points: 4
#     Node 9, Type 0, BuildingBlock: NAHDIM_clean_sbu_0, # of connection points: 4
#     Node 10, Type 0, BuildingBlock: NAHDIM_clean_sbu_0, # of connection points: 4
#     Node 11, Type 0, BuildingBlock: NAHDIM_clean_sbu_0, # of connection points: 4
#     Node 12, Type 0, BuildingBlock: NAHDIM_clean_sbu_0, # of connection points: 4
#     Node 13, Type 0, BuildingBlock: NAHDIM_clean_sbu_0, # of connection points: 4
#     Node 14, Type 0, BuildingBlock: NAHDIM_clean_sbu_0, # of connection points: 4
#     Node 15, Type 0, BuildingBlock: NAHDIM_clean_sbu_0, # of connection points: 4
#     Node 16, Type 0, BuildingBlock: NAHDIM_clean_sbu_0, # of connection points: 4
#     Node 17, Type 0, BuildingBlock: NAHDIM_clean_sbu_0, # of connection points: 4
#     Node 18, Type 0, BuildingBlock: NAHDIM_clean_sbu_0, # of connection points: 4
#     Node 19, Type 0, BuildingBlock: NAHDIM_clean_sbu_0, # of connection points: 4
#     Node 20, Type 0, BuildingBlock: NAHDIM_clean_sbu_0, # of connection points: 4
#     Node 21, Type 0, BuildingBlock: NAHDIM_clean_sbu_0, # of connection points: 4
#     Node 22, Type 0, BuildingBlock: NAHDIM_clean_sbu_0, # of connection points: 4
#     Node 23, Type 0, BuildingBlock: NAHDIM_clean_sbu_0, # of connection points: 4
#     Node 24, Type 0, BuildingBlock: NAHDIM_clean_sbu_0, # of connection points: 4
#     Node 25, Type 0, BuildingBlock: NAHDIM_clean_sbu_0, # of connection points: 4
#     Node 26, Type 0, BuildingBlock: NAHDIM_clean_sbu_0, # of connection points: 4
#     Node 27, Type 0, BuildingBlock: NAHDIM_clean_sbu_0, # of connection points: 4
#     Node 28, Type 0, BuildingBlock: NAHDIM_clean_sbu_0, # of connection points: 4
#     Node 29, Type 0, BuildingBlock: NAHDIM_clean_sbu_0, # of connection points: 4
#     Node 30, Type 0, BuildingBlock: NAHDIM_clean_sbu_0, # of connection points: 4
#     Node 31, Type 0, BuildingBlock: NAHDIM_clean_sbu_0, # of connection points: 4
#     Edge 32, Type (0, 0), BuildingBlock: OJICUG_clean_linker_0, # of connection points: 2
#     Edge 33, Type (0, 0), BuildingBlock: OJICUG_clean_linker_0, # of connection points: 2
#     Edge 34, Type (0, 0), BuildingBlock: OJICUG_clean_linker_0, # of connection points: 2
#     Edge 35, Type (0, 0), BuildingBlock: OJICUG_clean_linker_0, # of connection points: 2
#     Edge 36, Type (0, 0), BuildingBlock: OJICUG_clean_linker_0, # of connection points: 2
#     Edge 37, Type (0, 0), BuildingBlock: OJICUG_clean_linker_0, # of connection points: 2
#     Edge 38, Type (0, 0), BuildingBlock: OJICUG_clean_linker_0, # of connection points: 2
#     Edge 39, Type (0, 0), BuildingBlock: OJICUG_clean_linker_0, # of connection points: 2
#     Edge 40, Type (0, 0), BuildingBlock: OJICUG_clean_linker_0, # of connection points: 2
#     Edge 41, Type (0, 0), BuildingBlock: OJICUG_clean_linker_0, # of connection points: 2
#     Edge 42, Type (0, 0), BuildingBlock: OJICUG_clean_linker_0, # of connection points: 2
#     Edge 43, Type (0, 0), BuildingBlock: OJICUG_clean_linker_0, # of connection points: 2
#     Edge 44, Type (0, 0), BuildingBlock: OJICUG_clean_linker_0, # of connection points: 2
#     Edge 45, Type (0, 0), BuildingBlock: OJICUG_clean_linker_0, # of connection points: 2
#     Edge 46, Type (0, 0), BuildingBlock: OJICUG_clean_linker_0, # of connection points: 2
#     Edge 47, Type (0, 0), BuildingBlock: OJICUG_clean_linker_0, # of connection points: 2
#     Edge 48, Type (0, 0), BuildingBlock: OJICUG_clean_linker_0, # of connection points: 2
#     Edge 49, Type (0, 0), BuildingBlock: OJICUG_clean_linker_0, # of connection points: 2
#     Edge 50, Type (0, 0), BuildingBlock: OJICUG_clean_linker_0, # of connection points: 2
#     Edge 51, Type (0, 0), BuildingBlock: OJICUG_clean_linker_0, # of connection points: 2
#     Edge 52, Type (0, 0), BuildingBlock: OJICUG_clean_linker_0, # of connection points: 2
#     Edge 53, Type (0, 0), BuildingBlock: OJICUG_clean_linker_0, # of connection points: 2
#     Edge 54, Type (0, 0), BuildingBlock: OJICUG_clean_linker_0, # of connection points: 2
#     Edge 55, Type (0, 0), BuildingBlock: OJICUG_clean_linker_0, # of connection points: 2
#     Edge 56, Type (0, 0), BuildingBlock: OJICUG_clean_linker_0, # of connection points: 2
#     Edge 57, Type (0, 0), BuildingBlock: OJICUG_clean_linker_0, # of connection points: 2
#     Edge 58, Type (0, 0), BuildingBlock: OJICUG_clean_linker_0, # of connection points: 2
#     Edge 59, Type (0, 0), BuildingBlock: OJICUG_clean_linker_0, # of connection points: 2
#     Edge 60, Type (0, 0), BuildingBlock: OJICUG_clean_linker_0, # of connection points: 2
#     Edge 61, Type (0, 0), BuildingBlock: OJICUG_clean_linker_0, # of connection points: 2
#     Edge 62, Type (0, 0), BuildingBlock: OJICUG_clean_linker_0, # of connection points: 2
#     Edge 63, Type (0, 0), BuildingBlock: OJICUG_clean_linker_0, # of connection points: 2
#     Edge 64, Type (0, 0), BuildingBlock: OJICUG_clean_linker_0, # of connection points: 2
#     Edge 65, Type (0, 0), BuildingBlock: OJICUG_clean_linker_0, # of connection points: 2
#     Edge 66, Type (0, 0), BuildingBlock: OJICUG_clean_linker_0, # of connection points: 2
#     Edge 67, Type (0, 0), BuildingBlock: OJICUG_clean_linker_0, # of connection points: 2
#     Edge 68, Type (0, 0), BuildingBlock: OJICUG_clean_linker_0, # of connection points: 2
#     Edge 69, Type (0, 0), BuildingBlock: OJICUG_clean_linker_0, # of connection points: 2
#     Edge 70, Type (0, 0), BuildingBlock: OJICUG_clean_linker_0, # of connection points: 2
#     Edge 71, Type (0, 0), BuildingBlock: OJICUG_clean_linker_0, # of connection points: 2
#     Edge 72, Type (0, 0), BuildingBlock: OJICUG_clean_linker_0, # of connection points: 2
#     Edge 73, Type (0, 0), BuildingBlock: OJICUG_clean_linker_0, # of connection points: 2
#     Edge 74, Type (0, 0), BuildingBlock: OJICUG_clean_linker_0, # of connection points: 2
#     Edge 75, Type (0, 0), BuildingBlock: OJICUG_clean_linker_0, # of connection points: 2
#     Edge 76, Type (0, 0), BuildingBlock: OJICUG_clean_linker_0, # of connection points: 2
#     Edge 77, Type (0, 0), BuildingBlock: OJICUG_clean_linker_0, # of connection points: 2
#     Edge 78, Type (0, 0), BuildingBlock: OJICUG_clean_linker_0, # of connection points: 2
#     Edge 79, Type (0, 0), BuildingBlock: OJICUG_clean_linker_0, # of connection points: 2
#     Edge 80, Type (0, 0), BuildingBlock: OJICUG_clean_linker_0, # of connection points: 2
#     Edge 81, Type (0, 0), BuildingBlock: OJICUG_clean_linker_0, # of connection points: 2
#     Edge 82, Type (0, 0), BuildingBlock: OJICUG_clean_linker_0, # of connection points: 2
#     Edge 83, Type (0, 0), BuildingBlock: OJICUG_clean_linker_0, # of connection points: 2
#     Edge 84, Type (0, 0), BuildingBlock: OJICUG_clean_linker_0, # of connection points: 2
#     Edge 85, Type (0, 0), BuildingBlock: OJICUG_clean_linker_0, # of connection points: 2
#     Edge 86, Type (0, 0), BuildingBlock: OJICUG_clean_linker_0, # of connection points: 2
#     Edge 87, Type (0, 0), BuildingBlock: OJICUG_clean_linker_0, # of connection points: 2
#     Edge 88, Type (0, 0), BuildingBlock: OJICUG_clean_linker_0, # of connection points: 2
#     Edge 89, Type (0, 0), BuildingBlock: OJICUG_clean_linker_0, # of connection points: 2
#     Edge 90, Type (0, 0), BuildingBlock: OJICUG_clean_linker_0, # of connection points: 2
#     Edge 91, Type (0, 0), BuildingBlock: OJICUG_clean_linker_0, # of connection points: 2
#     Edge 92, Type (0, 0), BuildingBlock: OJICUG_clean_linker_0, # of connection points: 2
#     Edge 93, Type (0, 0), BuildingBlock: OJICUG_clean_linker_0, # of connection points: 2
#     Edge 94, Type (0, 0), BuildingBlock: OJICUG_clean_linker_0, # of connection points: 2
#     Edge 95, Type (0, 0), BuildingBlock: OJICUG_clean_linker_0, # of connection points: 2
# Relax obj value: 0.214
# Max RMSD: 0.240
# Mean RMSD: 0.240
data_MOF--net-uow--node1-NAHDIM_clean_sbu_0--edge1-OJICUG_clean_linker_0
_symmetry_space_group_name_H-M    P1
_symmetry_Int_Tables_number       1
_symmetry_cell_setting            triclinic
loop_
_symmetry_equiv_pos_as_xyz
'x, y, z'
_cell_length_a     46.100216
_cell_length_b     46.077152
_cell_length_c     28.700952
_cell_angle_alpha  89.942492
_cell_angle_beta   90.042396
_cell_angle_gamma 89.983027
loop_
_atom_site_label
_atom_site_type_symbol
_atom_site_fract_x
_atom_site_fract_y
_atom_site_fract_z
_atom_type_partial_charge
C0 C 0.99134 0.43529 0.22817 0.0
O1 O 0.97539 0.41779 0.20269 0.0
O2 O 0.97012 0.36719 0.29402 0.0
Zn3 Zn 0.00878 0.38244 0.27357 0.0
O4 O 0.0243 0.36091 0.2182 0.0
C5 C 0.02988 0.37653 0.36834 0.0
O6 O 0.00367 0.38502 0.38 0.0
O7 O 0.007 0.42481 0.26045 0.0
C8 C 0.03228 0.33466 0.22303 0.0
O9 O 0.02851 0.32175 0.26342 0.0
C10 C 0.9545 0.34921 0.27175 0.0
O11 O 0.96267 0.34059 0.23017 0.0
O12 O 0.03672 0.3752 0.32552 0.0
C13 C 0.80502 0.75468 0.4818 0.0
O14 O 0.82191 0.73872 0.45531 0.0
O15 O 0.87191 0.73092 0.54606 0.0
Zn16 Zn 0.85939 0.76998 0.52212 0.0
O17 O 0.87946 0.78007 0.4618 0.0
C18 C 0.8698 0.79364 0.61358 0.0
O19 O 0.85881 0.76873 0.62719 0.0
O20 O 0.81637 0.77033 0.51332 0.0
C21 C 0.90366 0.79332 0.4625 0.0
O22 O 0.91567 0.79949 0.5028 0.0
C23 C 0.89031 0.71434 0.52666 0.0
O24 O 0.90166 0.72194 0.4865 0.0
O25 O 0.87083 0.79939 0.5703 0.0
C26 C 0.49657 0.55618 0.72476 0.0
O27 O 0.51376 0.57168 0.69803 0.0
O28 O 0.5221 0.6253 0.77183 0.0
Zn29 Zn 0.48147 0.61242 0.75725 0.0
O30 O 0.4657 0.63007 0.69838 0.0
C31 C 0.46618 0.62939 0.85072 0.0
O32 O 0.49282 0.621 0.85988 0.0
O33 O 0.48013 0.56908 0.75355 0.0
C34 C 0.46627 0.65726 0.69091 0.0
O35 O 0.4789 0.6745 0.72118 0.0
C36 C 0.54052 0.63886 0.74713 0.0
O37 O 0.53433 0.64554 0.70374 0.0
O38 O 0.45633 0.62654 0.80959 0.0
C39 C 0.67038 0.22925 0.95889 0.0
O40 O 0.65438 0.24613 0.93233 0.0
O41 O 0.60583 0.2584 0.0224 0.0
Zn42 Zn 0.61546 0.21825 0.00037 0.0
O43 O 0.59434 0.20687 0.94198 0.0
C44 C 0.60376 0.198 0.09333 0.0
O45 O 0.61646 0.22247 0.10497 0.0
O46 O 0.65828 0.21469 0.99103 0.0
C47 C 0.56759 0.2118 0.93467 0.0
O48 O 0.55254 0.22675 0.9652 0.0
C49 C 0.59537 0.2801 0.00086 0.0
O50 O 0.58983 0.2783 0.95606 0.0
O51 O 0.60214 0.19109 0.05055 0.0
C52 C -0.00549 0.55869 0.19378 0.0
O53 O 0.97807 0.5708 0.16179 0.0
O54 O 0.9741 0.63351 0.19606 0.0
Zn55 Zn 0.01358 0.61734 0.20965 0.0
O56 O 0.03112 0.63524 0.26686 0.0
C57 C 0.02915 0.63091 0.11465 0.0
O58 O 0.00161 0.62556 0.10656 0.0
O59 O 0.01137 0.57444 0.21794 0.0
C60 C 0.04296 0.66013 0.265 0.0
O61 O 0.0426 0.67464 0.22556 0.0
C62 C 0.96191 0.65441 0.21718 0.0
O63 O 0.97464 0.66605 0.2536 0.0
O64 O 0.03915 0.62734 0.15554 0.0
C65 C 0.68045 0.75119 0.4601 0.0
O66 O 0.66852 0.73548 0.42708 0.0
O67 O 0.60902 0.7238 0.45761 0.0
Zn68 Zn 0.62096 0.76269 0.48258 0.0
O69 O 0.60193 0.77253 0.54342 0.0
C70 C 0.60483 0.78747 0.39372 0.0
O71 O 0.61588 0.76335 0.377 0.0
O72 O 0.66425 0.76501 0.48818 0.0
C73 C 0.57459 0.77078 0.54852 0.0
O74 O 0.55861 0.76015 0.5147 0.0
C75 C 0.59592 0.70304 0.47768 0.0
O76 O 0.58934 0.70497 0.52208 0.0
O77 O 0.60619 0.79227 0.43724 0.0
C78 C 0.49612 0.43099 0.71217 0.0
O79 O 0.51229 0.41779 0.68104 0.0
O80 O 0.51798 0.35798 0.70996 0.0
Zn81 Zn 0.47939 0.3725 0.73251 0.0
O82 O 0.4662 0.35342 0.79193 0.0
C83 C 0.45691 0.36081 0.64064 0.0
O84 O 0.4824 0.37049 0.62736 0.0
O85 O 0.48009 0.41592 0.73888 0.0
C86 C 0.46813 0.32618 0.79839 0.0
O87 O 0.48097 0.30995 0.76696 0.0
C88 C 0.53875 0.34548 0.73105 0.0
O89 O 0.53705 0.34068 0.77608 0.0
O90 O 0.45051 0.36097 0.6837 0.0
C91 C 0.79487 0.22548 0.93667 0.0
O92 O 0.80775 0.24169 0.9052 0.0
O93 O 0.86747 0.25009 0.93897 0.0
Zn94 Zn 0.85363 0.21095 0.96045 0.0
O95 O 0.87104 0.20079 0.02277 0.0
C96 C 0.86928 0.18708 0.87057 0.0
O97 O 0.85714 0.21082 0.85432 0.0
O98 O 0.81021 0.21015 0.96405 0.0
C99 C 0.89624 0.18958 0.02417 0.0
O100 O 0.91048 0.18555 0.98508 0.0
C101 C 0.88508 0.26617 0.96114 0.0
O102 O 0.89418 0.25809 0.00255 0.0
O103 O 0.86843 0.18199 0.91406 0.0
C104 C 0.97138 0.55507 0.77529 0.0
O105 O 0.98571 0.57136 0.80497 0.0
O106 O 0.00423 0.61839 0.71096 0.0
Zn107 Zn 0.96366 0.60999 0.73247 0.0
O108 O 0.95342 0.63127 0.79141 0.0
C109 C 0.94432 0.62691 0.64053 0.0
O110 O 0.9691 0.6154 0.62755 0.0
O111 O 0.95906 0.56702 0.74062 0.0
C112 C 0.96175 0.6571 0.79946 0.0
O113 O 0.97904 0.6702 0.76981 0.0
C114 C 0.02679 0.62527 0.73388 0.0
O115 O 0.0256 0.62741 0.77947 0.0
O116 O 0.93688 0.62548 0.68311 0.0
C117 C 0.17458 0.25417 0.51205 0.0
O118 O 0.15865 0.27049 0.5395 0.0
O119 O 0.10677 0.28117 0.45963 0.0
Zn120 Zn 0.11911 0.24059 0.47483 0.0
O121 O 0.10035 0.22538 0.53292 0.0
C122 C 0.10091 0.22461 0.38173 0.0
O123 O 0.1065 0.25194 0.37231 0.0
O124 O 0.16221 0.23897 0.48097 0.0
C125 C 0.07314 0.22663 0.53973 0.0
O126 O 0.05646 0.23978 0.50916 0.0
C127 C 0.09389 0.29992 0.48458 0.0
O128 O 0.08777 0.29406 0.52827 0.0
O129 O 0.10581 0.21494 0.42249 0.0
C130 C 0.51726 0.42822 0.26218 0.0
O131 O 0.51008 0.41165 0.29762 0.0
O132 O 0.48174 0.36131 0.19644 0.0
Zn133 Zn 0.52165 0.3733 0.21675 0.0
O134 O 0.53452 0.35365 0.27605 0.0
C135 C 0.54271 0.3625 0.12358 0.0
O136 O 0.51883 0.37604 0.11114 0.0
O137 O 0.52332 0.41651 0.22336 0.0
C138 C 0.5297 0.32702 0.28465 0.0
O139 O 0.51459 0.31147 0.25496 0.0
C140 C 0.46066 0.35173 0.22044 0.0
O141 O 0.46328 0.34922 0.26584 0.0
O142 O 0.54877 0.36012 0.16663 0.0
C143 C 0.3118 0.74099 0.01588 0.0
O144 O 0.32758 0.7248 0.04383 0.0
O145 O 0.38287 0.71977 0.95779 0.0
Zn146 Zn 0.36749 0.75793 0.98069 0.0
O147 O 0.38484 0.76907 0.04268 0.0
C148 C 0.37597 0.78396 0.8898 0.0
O149 O 0.36372 0.76003 0.8746 0.0
O150 O 0.32432 0.75677 0.98572 0.0
C151 C 0.4063 0.78637 0.04434 0.0
O152 O 0.41763 0.79599 0.0053 0.0
C153 C 0.40692 0.70921 0.97128 0.0
O154 O 0.42156 0.72248 0.00425 0.0
O155 O 0.37867 0.78788 0.9334 0.0
C156 C 0.975 0.43014 0.79247 0.0
O157 O 0.98827 0.41801 0.82803 0.0
O158 O 0.00908 0.36086 0.78844 0.0
Zn159 Zn 0.96908 0.3708 0.76556 0.0
O160 O 0.95913 0.3515 0.70486 0.0
C161 C 0.94742 0.35155 0.8551 0.0
O162 O 0.97257 0.36101 0.87034 0.0
O163 O 0.96465 0.41407 0.76059 0.0
C164 C 0.96382 0.32468 0.69765 0.0
O165 O 0.97756 0.30926 0.72924 0.0
C166 C 0.03098 0.35081 0.76698 0.0
O167 O 0.02956 0.34612 0.7219 0.0
O168 O 0.94099 0.35472 0.81233 0.0
C169 C 0.29916 0.25022 0.53261 0.0
O170 O 0.31208 0.26456 0.56628 0.0
O171 O 0.37335 0.26891 0.54009 0.0
Zn172 Zn 0.35737 0.23213 0.51291 0.0
O173 O 0.37663 0.22256 0.45189 0.0
C174 C 0.36645 0.20281 0.60138 0.0
O175 O 0.35627 0.22696 0.61939 0.0
O176 O 0.3143 0.23489 0.50505 0.0
C177 C 0.40109 0.2098 0.45291 0.0
O178 O 0.41339 0.20453 0.49336 0.0
C179 C 0.39189 0.28531 0.52067 0.0
O180 O 0.40092 0.27925 0.47839 0.0
O181 O 0.36724 0.20002 0.55737 0.0
C182 C 0.52199 0.55281 0.2827 0.0
O183 O 0.52303 0.56441 0.32442 0.0
O184 O 0.48389 0.63047 0.2624 0.0
Zn185 Zn 0.52337 0.61285 0.25312 0.0
O186 O 0.54154 0.63049 0.19622 0.0
C187 C 0.53776 0.62837 0.34861 0.0
O188 O 0.51045 0.62204 0.35668 0.0
O189 O 0.52183 0.56927 0.24713 0.0
C190 C 0.52703 0.63779 0.16043 0.0
O191 O 0.499 0.63268 0.15931 0.0
C192 C 0.46238 0.61707 0.27977 0.0
O193 O 0.46482 0.58932 0.28947 0.0
O194 O 0.54796 0.62502 0.30779 0.0
C195 C 0.18695 0.74432 0.03206 0.0
O196 O 0.1733 0.72747 0.06177 0.0
O197 O 0.11331 0.72294 0.02129 0.0
Zn198 Zn 0.12907 0.76294 0.01017 0.0
O199 O 0.11296 0.7809 0.95185 0.0
C200 C 0.11197 0.77674 0.10427 0.0
O201 O 0.11799 0.74923 0.11149 0.0
O202 O 0.17238 0.76149 0.00647 0.0
C203 C 0.0878 0.79224 0.95195 0.0
O204 O 0.07201 0.79089 0.98999 0.0
C205 C 0.09145 0.71152 0.00158 0.0
O206 O 0.07841 0.72542 0.96752 0.0
O207 O 0.11642 0.78761 0.06418 0.0
C208 C 0.49566 0.92742 0.72438 0.0
O209 O 0.48104 0.90951 0.69761 0.0
O210 O 0.47215 0.86106 0.79267 0.0
Zn211 Zn 0.51076 0.8743 0.76862 0.0
O212 O 0.52276 0.85345 0.71034 0.0
C213 C 0.53411 0.86034 0.85958 0.0
O214 O 0.50828 0.86814 0.8743 0.0
O215 O 0.51046 0.91721 0.75796 0.0
C216 C 0.51907 0.82637 0.70438 0.0
O217 O 0.505 0.81117 0.73581 0.0
C218 C 0.45085 0.84994 0.77102 0.0
O219 O 0.45207 0.84673 0.72559 0.0
O220 O 0.54027 0.86307 0.81664 0.0
C221 C 0.30261 0.25452 0.04014 0.0
O222 O 0.31461 0.23867 0.07298 0.0
O223 O 0.37404 0.22785 0.04349 0.0
Zn224 Zn 0.3621 0.26716 0.0201 0.0
O225 O 0.38226 0.27817 0.96044 0.0
C226 C 0.37614 0.29108 0.11112 0.0
O227 O 0.36496 0.2668 0.12708 0.0
O228 O 0.31878 0.26898 0.0128 0.0
C229 C 0.40908 0.27316 0.9538 0.0
O230 O 0.42385 0.25853 0.98514 0.0
C231 C 0.38297 0.20586 0.02104 0.0
O232 O 0.38507 0.20699 0.97544 0.0
O233 O 0.37571 0.29603 0.06755 0.0
C234 C 0.00053 0.05705 0.28015 0.0
O235 O 0.01751 0.07071 0.30965 0.0
O236 O 0.01585 0.13324 0.28044 0.0
Zn237 Zn 0.9783 0.11465 0.2611 0.0
O238 O 0.96402 0.13098 0.19989 0.0
C239 C 0.95517 0.12369 0.35398 0.0
O240 O 0.98077 0.11438 0.36755 0.0
O241 O 0.98251 0.07149 0.25592 0.0
C242 C 0.94452 0.15053 0.19916 0.0
O243 O 0.93426 0.16051 0.23869 0.0
C244 C 0.02331 0.15842 0.26692 0.0
O245 O 0.00717 0.17208 0.23618 0.0
O246 O 0.94922 0.12421 0.31076 0.0
C247 C 0.17674 0.69611 0.5048 0.0
O248 O 0.16582 0.67224 0.48697 0.0
O249 O 0.09429 0.74197 0.54057 0.0
Zn250 Zn 0.11717 0.70636 0.52498 0.0
O251 O 0.10304 0.69107 0.46376 0.0
C252 C 0.10942 0.68161 0.61681 0.0
O253 O 0.12129 0.70599 0.6309 0.0
O254 O 0.15982 0.71442 0.52353 0.0
C255 C 0.09908 0.70721 0.42844 0.0
O256 O 0.10574 0.73489 0.43101 0.0
C257 C 0.10467 0.76495 0.55835 0.0
O258 O 0.13273 0.76686 0.56567 0.0
O259 O 0.10724 0.67672 0.57339 0.0
C260 C 0.49224 0.05114 0.69151 0.0
O261 O 0.47721 0.06199 0.6567 0.0
O262 O 0.46644 0.12447 0.68541 0.0
Zn263 Zn 0.50515 0.11127 0.70935 0.0
O264 O 0.51626 0.13115 0.769 0.0
C265 C 0.5309 0.12388 0.6189 0.0
O266 O 0.50639 0.11386 0.60197 0.0
O267 O 0.50593 0.06818 0.71843 0.0
C268 C 0.51205 0.15799 0.77675 0.0
O269 O 0.49795 0.17376 0.74604 0.0
C270 C 0.44496 0.13361 0.70889 0.0
O271 O 0.4465 0.13428 0.75458 0.0
O272 O 0.53506 0.12346 0.66267 0.0
C273 C 0.17782 0.25818 0.02061 0.0
O274 O 0.16115 0.24296 0.04856 0.0
O275 O 0.10572 0.23619 0.97055 0.0
Zn276 Zn 0.1228 0.2754 0.9839 0.0
O277 O 0.10483 0.29178 0.04186 0.0
C278 C 0.11326 0.2966 0.88876 0.0
O279 O 0.12725 0.27319 0.87551 0.0
O280 O 0.16615 0.27392 0.98944 0.0
C281 C 0.09359 0.27669 0.07422 0.0
O282 O 0.09477 0.24824 0.072 0.0
C283 C 0.11868 0.21706 0.94648 0.0
O284 O 0.14529 0.22204 0.93218 0.0
O285 O 0.11043 0.30186 0.93198 0.0
C286 C 0.00308 0.93203 0.26441 0.0
O287 O 0.02116 0.9163 0.28925 0.0
O288 O 0.02235 0.86069 0.2109 0.0
Zn289 Zn 0.98366 0.87626 0.23115 0.0
O290 O 0.9703 0.85809 0.29155 0.0
C291 C 0.96194 0.86755 0.13774 0.0
O292 O 0.98758 0.87753 0.12581 0.0
O293 O 0.98527 0.91945 0.23736 0.0
C294 C 0.95322 0.83639 0.29096 0.0
O295 O 0.94509 0.82553 0.25072 0.0
C296 C 0.03217 0.83627 0.22416 0.0
O297 O 0.01777 0.82133 0.25554 0.0
O298 O 0.95528 0.86615 0.18065 0.0
C299 C 0.29985 0.71869 0.49435 0.0
O300 O 0.31127 0.74153 0.51466 0.0
O301 O 0.36721 0.7494 0.44561 0.0
Zn302 Zn 0.35881 0.70833 0.46548 0.0
O303 O 0.37929 0.69784 0.52504 0.0
C304 C 0.38122 0.68943 0.37594 0.0
O305 O 0.37672 0.71652 0.36356 0.0
O306 O 0.31612 0.7016 0.47157 0.0
C307 C 0.40569 0.70448 0.53215 0.0
O308 O 0.41969 0.72007 0.50112 0.0
C309 C 0.37459 0.7706 0.47132 0.0
O310 O 0.37621 0.76705 0.51667 0.0
O311 O 0.37448 0.68128 0.41682 0.0
C312 C 0.4792 0.05967 0.2737 0.0
O313 O 0.49428 0.07684 0.30105 0.0
O314 O 0.50654 0.12409 0.20065 0.0
Zn315 Zn 0.46776 0.11319 0.22707 0.0
O316 O 0.45918 0.13517 0.28615 0.0
C317 C 0.44234 0.12336 0.13607 0.0
O318 O 0.46629 0.11124 0.12072 0.0
O319 O 0.46586 0.07048 0.23905 0.0
C320 C 0.44643 0.15962 0.28404 0.0
O321 O 0.4401 0.17072 0.2431 0.0
C322 C 0.52342 0.14302 0.21792 0.0
O323 O 0.5166 0.15541 0.25763 0.0
O324 O 0.43791 0.12476 0.17971 0.0
C325 C 0.6827 0.73825 0.00107 0.0
O326 O 0.66385 0.75151 0.02798 0.0
O327 O 0.6155 0.75946 0.93734 0.0
Zn328 Zn 0.63098 0.72037 0.95548 0.0
O329 O 0.61051 0.70466 0.01188 0.0
C330 C 0.62111 0.70067 0.86068 0.0
O331 O 0.62846 0.7273 0.84932 0.0
O332 O 0.67357 0.7231 0.96716 0.0
C333 C 0.58434 0.69634 0.00781 0.0
O334 O 0.57112 0.69957 0.96756 0.0
C335 C 0.59883 0.7753 0.9617 0.0
O336 O 0.59116 0.76668 0.00355 0.0
O337 O 0.62235 0.69291 0.90314 0.0
C338 C 0.00738 0.93953 0.69557 0.0
O339 O -0.00414 0.92773 0.65823 0.0
O340 O 0.96746 0.87223 0.70752 0.0
Zn341 Zn 0.00894 0.88046 0.72476 0.0
O342 O 0.02012 0.8612 0.78517 0.0
C343 C 0.0255 0.8427 0.64963 0.0
O344 O -0.00152 0.83414 0.65399 0.0
O345 O 0.01507 0.92329 0.72914 0.0
C346 C 0.04683 0.85523 0.79066 0.0
O347 O 0.06539 0.863 0.75825 0.0
C348 C 0.95168 0.85358 0.72802 0.0
O349 O 0.96155 0.84072 0.76571 0.0
O350 O 0.0347 0.86337 0.67493 0.0
C351 C 0.80888 0.24163 0.51131 0.0
O352 O 0.825 0.22395 0.53626 0.0
O353 O 0.87758 0.21935 0.45109 0.0
Zn354 Zn 0.86412 0.25816 0.47433 0.0
O355 O 0.88385 0.27041 0.5336 0.0
C356 C 0.8764 0.28169 0.38298 0.0
O357 O 0.8672 0.25628 0.36844 0.0
O358 O 0.821 0.25847 0.4822 0.0
C359 C 0.91108 0.26819 0.53978 0.0
O360 O 0.92715 0.2556 0.50789 0.0
C361 C 0.88991 0.19885 0.47313 0.0
O362 O 0.8943 0.20117 0.51819 0.0
O363 O 0.87574 0.28743 0.42626 0.0
C364 C 0.47513 0.93602 0.30675 0.0
O365 O 0.49022 0.92421 0.34068 0.0
O366 O 0.5002 0.86331 0.31061 0.0
Zn367 Zn 0.46173 0.87648 0.28543 0.0
O368 O 0.45415 0.85821 0.223 0.0
C369 C 0.43416 0.86086 0.37294 0.0
O370 O 0.4576 0.87207 0.39177 0.0
O371 O 0.46088 0.91978 0.27929 0.0
C372 C 0.4435 0.83278 0.22122 0.0
O373 O 0.43839 0.81873 0.26021 0.0
C374 C 0.51882 0.84891 0.28761 0.0
O375 O 0.51373 0.84271 0.2437 0.0
O376 O 0.43085 0.86219 0.32904 0.0
C377 C 0.80588 0.74888 0.03378 0.0
O378 O 0.81596 0.76268 0.0704 0.0
O379 O 0.88002 0.7776 0.03462 0.0
Zn380 Zn 0.86643 0.73804 0.01504 0.0
O381 O 0.88602 0.72302 0.95745 0.0
C382 C 0.88055 0.71911 0.1084 0.0
O383 O 0.8739 0.74594 0.11955 0.0
O384 O 0.82352 0.7371 0.0056 0.0
C385 C 0.9134 0.72053 0.95402 0.0
O386 O 0.93013 0.73004 0.98778 0.0
C387 C 0.89709 0.79496 0.01391 0.0
O388 O 0.90631 0.78878 0.97179 0.0
O389 O 0.87758 0.71081 0.06645 0.0
C390 C 0.01346 0.06405 0.71566 0.0
O391 O 0.00136 0.08119 0.68461 0.0
O392 O 0.98212 0.1278 0.7866 0.0
Zn393 Zn 0.02182 0.1179 0.76264 0.0
O394 O 0.03141 0.13942 0.70379 0.0
C395 C 0.04504 0.1361 0.8519 0.0
O396 O 0.0185 0.13119 0.86659 0.0
O397 O 0.02429 0.07506 0.7523 0.0
C398 C 0.02395 0.16557 0.6962 0.0
O399 O 0.00763 0.17924 0.72659 0.0
C400 C 0.95962 0.13408 0.76307 0.0
O401 O 0.96088 0.13455 0.71736 0.0
O402 O 0.05143 0.13068 0.80974 0.0
C403 C 0.68425 0.24373 0.53306 0.0
O404 O 0.67138 0.22641 0.56298 0.0
O405 O 0.61028 0.22359 0.53554 0.0
Zn406 Zn 0.62566 0.26239 0.51531 0.0
O407 O 0.60728 0.27635 0.45564 0.0
C408 C 0.61547 0.28448 0.60823 0.0
O409 O 0.62661 0.25949 0.62117 0.0
O410 O 0.66898 0.26105 0.50878 0.0
C411 C 0.58029 0.27367 0.44758 0.0
O412 O 0.56375 0.26022 0.47797 0.0
C413 C 0.59931 0.20329 0.51135 0.0
O414 O 0.59754 0.206 0.46587 0.0
O415 O 0.61422 0.29067 0.5651 0.0
C416 C 0.05618 0.33493 0.14494 0.0
C417 C 0.04727 0.31948 0.18462 0.0
H418 H 0.07803 0.33364 0.07938 0.0
C419 C 0.05371 0.2897 0.18784 0.0
H420 H 0.05168 0.3579 0.14146 0.0
C421 C 0.06875 0.27569 0.152 0.0
C422 C 0.07791 0.29127 0.11255 0.0
H423 H 0.04716 0.27719 0.21803 0.0
H424 H 0.07336 0.25273 0.15538 0.0
C425 C 0.07145 0.32103 0.10944 0.0
C426 C 0.95261 0.8333 0.37815 0.0
C427 C 0.94161 0.82426 0.33488 0.0
H428 H 0.94945 0.83039 0.45238 0.0
C429 C 0.91877 0.80404 0.33392 0.0
H430 H 0.97028 0.84874 0.38006 0.0
C431 C 0.90667 0.79369 0.37535 0.0
C432 C 0.91736 0.8031 0.41863 0.0
H433 H 0.90981 0.7966 0.30114 0.0
H434 H 0.88879 0.77849 0.37343 0.0
C435 C 0.94071 0.82272 0.41959 0.0
C436 C 0.42716 0.65484 0.63106 0.0
C437 C 0.45111 0.66946 0.65009 0.0
H438 H 0.39362 0.65489 0.5795 0.0
C439 C 0.4599 0.69598 0.63045 0.0
H440 H 0.4198 0.63447 0.64576 0.0
C441 C 0.44523 0.70741 0.59186 0.0
C442 C 0.42105 0.69291 0.57325 0.0
H443 H 0.47832 0.70767 0.64451 0.0
H444 H 0.45259 0.72771 0.57691 0.0
C445 C 0.41205 0.66663 0.5934 0.0
C446 C 0.51433 0.19757 0.83662 0.0
C447 C 0.52555 0.17176 0.81775 0.0
H448 H 0.51866 0.23037 0.88929 0.0
C449 C 0.5506 0.15949 0.83744 0.0
H450 H 0.49504 0.20748 0.82201 0.0
C451 C 0.56444 0.1729 0.87484 0.0
C452 C 0.55314 0.1985 0.89412 0.0
H453 H 0.55987 0.13974 0.82337 0.0
H454 H 0.5838 0.16294 0.88911 0.0
C455 C 0.52781 0.21063 0.875 0.0
C456 C 0.06831 0.70083 0.30631 0.0
C457 C 0.05747 0.67231 0.30657 0.0
H458 H 0.09 0.73429 0.34464 0.0
C459 C 0.06089 0.65531 0.34685 0.0
H460 H 0.06604 0.71448 0.27576 0.0
C461 C 0.07478 0.66656 0.38606 0.0
C462 C 0.08541 0.69515 0.38605 0.0
H463 H 0.05289 0.63322 0.34814 0.0
H464 H 0.07691 0.65286 0.41657 0.0
C465 C 0.08207 0.71218 0.34574 0.0
C466 C 0.57335 0.80836 0.61061 0.0
C467 C 0.56069 0.78398 0.58954 0.0
H468 H 0.56959 0.84129 0.66272 0.0
C469 C 0.53413 0.77343 0.60654 0.0
H470 H 0.59369 0.81708 0.59789 0.0
C471 C 0.52061 0.78695 0.64442 0.0
C472 C 0.53301 0.81176 0.66467 0.0
H473 H 0.52394 0.75466 0.59076 0.0
H474 H 0.50026 0.77836 0.65729 0.0
C475 C 0.55944 0.82236 0.64738 0.0
C476 C 0.41394 0.31237 0.89445 0.0
C477 C 0.42407 0.28617 0.91348 0.0
H478 H 0.42046 0.3459 0.84392 0.0
C479 C 0.44912 0.27328 0.8948 0.0
H480 H 0.39484 0.32291 0.90848 0.0
C481 C 0.4635 0.28618 0.85714 0.0
C482 C 0.45355 0.31262 0.83863 0.0
H483 H 0.45739 0.25309 0.90894 0.0
H484 H 0.48255 0.27567 0.84289 0.0
C485 C 0.42875 0.32565 0.85781 0.0
C486 C 0.89604 0.18818 0.11139 0.0
C487 C 0.90913 0.18043 0.06901 0.0
H488 H 0.89711 0.18502 0.18572 0.0
C489 C 0.93441 0.16336 0.06979 0.0
H490 H 0.87661 0.2014 0.11195 0.0
C491 C 0.94605 0.15378 0.11206 0.0
C492 C 0.93281 0.16131 0.15442 0.0
H493 H 0.94501 0.15701 0.03772 0.0
H494 H 0.96537 0.1404 0.1115 0.0
C495 C 0.90784 0.17884 0.15366 0.0
C496 C 0.96592 0.69532 0.86105 0.0
C497 C 0.94991 0.67309 0.83962 0.0
H498 H 0.96703 0.72756 0.91501 0.0
C499 C 0.92191 0.66676 0.85588 0.0
H500 H 0.98758 0.70058 0.84908 0.0
C501 C 0.90991 0.68267 0.89243 0.0
C502 C 0.92598 0.70468 0.91428 0.0
H503 H 0.90902 0.64987 0.83972 0.0
H504 H 0.88819 0.6774 0.90409 0.0
C505 C 0.95421 0.71071 0.89864 0.0
C506 C 0.07462 0.18736 0.59921 0.0
C507 C 0.0603 0.21143 0.57993 0.0
H508 H 0.07396 0.15366 0.65039 0.0
C509 C 0.03357 0.22024 0.59872 0.0
H510 H 0.09514 0.17996 0.58517 0.0
C511 C 0.02165 0.20543 0.63678 0.0
C512 C 0.0359 0.18114 0.65564 0.0
H513 H 0.02212 0.23875 0.58443 0.0
H514 H 0.00119 0.21279 0.65112 0.0
C515 C 0.06238 0.17217 0.63631 0.0
C516 C 0.5417 0.27584 0.38623 0.0
C517 C 0.5674 0.28695 0.40559 0.0
H518 H 0.50982 0.27959 0.33204 0.0
C519 C 0.58044 0.31135 0.38507 0.0
H520 H 0.53123 0.25703 0.40138 0.0
C521 C 0.56784 0.32465 0.34629 0.0
C522 C 0.54236 0.31336 0.32652 0.0
H523 H 0.60015 0.32049 0.39949 0.0
H524 H 0.57831 0.34353 0.33133 0.0
C525 C 0.5295 0.2887 0.3466 0.0
C526 C 0.44496 0.83237 0.13409 0.0
C527 C 0.43546 0.8198 0.17599 0.0
H528 H 0.44347 0.83142 0.05964 0.0
C529 C 0.41737 0.79527 0.17426 0.0
H530 H 0.45905 0.85118 0.1343 0.0
C531 C 0.40821 0.7841 0.13147 0.0
C532 C 0.41726 0.79702 0.08958 0.0
H533 H 0.40969 0.78509 0.20597 0.0
H534 H 0.39381 0.76552 0.13125 0.0
C535 C 0.43609 0.82098 0.09132 0.0
C536 C 0.92527 0.32123 0.63718 0.0
C537 C 0.95107 0.31038 0.65653 0.0
H538 H 0.89207 0.31585 0.58583 0.0
C539 C 0.96368 0.2853 0.63745 0.0
H540 H 0.91494 0.34037 0.65149 0.0
C541 C 0.95085 0.27156 0.59912 0.0
C542 C 0.92476 0.28219 0.58038 0.0
H543 H 0.98357 0.2765 0.65184 0.0
H544 H 0.96109 0.25243 0.5846 0.0
C545 C 0.91204 0.30705 0.59989 0.0
C546 C 0.41549 0.19614 0.325 0.0
C547 C 0.43667 0.17422 0.32705 0.0
H548 H 0.38748 0.22451 0.36327 0.0
C549 C 0.44731 0.16542 0.3707 0.0
H550 H 0.40687 0.2034 0.29186 0.0
C551 C 0.43644 0.17776 0.41155 0.0
C552 C 0.4144 0.19883 0.40957 0.0
H553 H 0.46375 0.1487 0.37336 0.0
H554 H 0.44469 0.17011 0.44471 0.0
C555 C 0.40431 0.20818 0.36588 0.0
C556 C 0.57079 0.66111 0.12498 0.0
C557 C 0.54153 0.65282 0.12127 0.0
H558 H 0.60713 0.68155 0.09237 0.0
C559 C 0.52629 0.65939 0.08016 0.0
H560 H 0.58314 0.6565 0.15625 0.0
C561 C 0.54011 0.67375 0.04341 0.0
C562 C 0.5694 0.68196 0.04715 0.0
H563 H 0.50372 0.65336 0.07623 0.0
H564 H 0.52783 0.67833 0.01205 0.0
C565 C 0.58454 0.67558 0.0884 0.0
C566 C 0.08568 0.82871 0.8339 0.0
C567 C 0.05699 0.83897 0.83196 0.0
H568 H 0.11779 0.8057 0.87297 0.0
C569 C 0.03827 0.83325 0.86948 0.0
H570 H 0.10061 0.83259 0.80545 0.0
C571 C 0.04819 0.81789 0.90841 0.0
C572 C 0.07694 0.80774 0.91034 0.0
H573 H 0.01602 0.84081 0.86895 0.0
H574 H 0.03334 0.81401 0.93696 0.0
C575 C 0.0955 0.81317 0.87255 0.0
C576 C 0.0767 0.3529 0.38927 0.0
C577 C 0.04927 0.36297 0.40311 0.0
H578 H 0.11259 0.32525 0.40488 0.0
C579 C 0.03926 0.35639 0.44819 0.0
H580 H 0.08528 0.35795 0.35508 0.0
C581 C 0.05513 0.33768 0.47701 0.0
C582 C 0.0811 0.32528 0.46094 0.0
H583 H 0.0183 0.36403 0.46 0.0
H584 H 0.04597 0.33124 0.51019 0.0
C585 C 0.0924 0.33417 0.41783 0.0
C586 C 0.89818 0.83841 0.63167 0.0
C587 C 0.88577 0.81221 0.64683 0.0
H588 H 0.92837 0.87241 0.64591 0.0
C589 C 0.89171 0.80238 0.69223 0.0
H590 H 0.89377 0.84679 0.5971 0.0
C591 C 0.91168 0.81707 0.72031 0.0
C592 C 0.92598 0.8419 0.70349 0.0
H593 H 0.8823 0.78238 0.70511 0.0
H594 H 0.91712 0.808 0.75402 0.0
C595 C 0.91803 0.85313 0.65974 0.0
C596 C 0.4064 0.67394 0.90515 0.0
C597 C 0.42031 0.68514 0.94485 0.0
H598 H 0.40992 0.64737 0.84444 0.0
C599 C 0.44822 0.67509 0.95625 0.0
H600 H 0.38481 0.68106 0.89553 0.0
C601 C 0.46262 0.65562 0.92692 0.0
C602 C 0.4494 0.64597 0.88558 0.0
H603 H 0.45946 0.68314 0.98676 0.0
H604 H 0.48459 0.64925 0.9356 0.0
C605 C 0.42082 0.65462 0.87578 0.0
C606 C 0.58313 0.19208 0.17354 0.0
C607 C 0.58726 0.18118 0.12829 0.0
H608 H 0.55975 0.18843 0.23772 0.0
C609 C 0.573 0.1555 0.11523 0.0
H610 H 0.59393 0.21175 0.18476 0.0
C611 C 0.55349 0.14215 0.14554 0.0
C612 C 0.54776 0.1542 0.18956 0.0
H613 H 0.57593 0.14636 0.08079 0.0
H614 H 0.54193 0.12309 0.13356 0.0
C615 C 0.56352 0.17872 0.2039 0.0
C616 C 0.034 0.65808 0.0394 0.0
C617 C 0.04688 0.64635 0.07966 0.0
H618 H 0.03818 0.68789 0.98251 0.0
C619 C 0.0761 0.65264 0.08918 0.0
H620 H 0.01157 0.65347 0.03091 0.0
C621 C 0.09132 0.67227 0.06147 0.0
C622 C 0.07763 0.68607 0.02369 0.0
H623 H 0.08679 0.64364 0.11957 0.0
H624 H 0.11331 0.67784 0.07133 0.0
C625 C 0.04926 0.67781 0.01162 0.0
C626 C 0.55017 0.84433 0.3582 0.0
C627 C 0.54404 0.83623 0.31206 0.0
H628 H 0.57454 0.83563 0.41993 0.0
C629 C 0.56067 0.81425 0.29116 0.0
H630 H 0.53796 0.86142 0.37515 0.0
C631 C 0.58167 0.79933 0.31697 0.0
C632 C 0.58649 0.80625 0.36404 0.0
H633 H 0.55657 0.80761 0.25557 0.0
H634 H 0.59321 0.78159 0.30059 0.0
C635 C 0.57122 0.82957 0.38387 0.0
C636 C 0.39603 0.31462 0.59349 0.0
C637 C 0.406 0.30837 0.54834 0.0
H638 H 0.40408 0.3364 0.65785 0.0
C639 C 0.43102 0.32242 0.53184 0.0
H640 H 0.37664 0.3044 0.6071 0.0
C641 C 0.44683 0.34083 0.56108 0.0
C642 C 0.43786 0.34553 0.60727 0.0
H643 H 0.43917 0.31818 0.49712 0.0
H644 H 0.46675 0.3503 0.5481 0.0
C645 C 0.41177 0.33302 0.62262 0.0
C646 C 0.91349 0.1628 0.76655 0.0
C647 C 0.93341 0.14392 0.78791 0.0
H648 H 0.87731 0.1914 0.77611 0.0
C649 C 0.9296 0.13654 0.83498 0.0
H650 H 0.91591 0.16881 0.73026 0.0
C651 C 0.90741 0.14911 0.861 0.0
C652 C 0.88877 0.1697 0.84068 0.0
H653 H 0.94444 0.12177 0.85222 0.0
H654 H 0.90589 0.14379 0.89769 0.0
C655 C 0.89144 0.17574 0.79282 0.0
C656 C 0.93853 0.65179 0.56332 0.0
C657 C 0.9278 0.64569 0.60813 0.0
H658 H 0.93498 0.67821 0.50214 0.0
C659 C 0.90268 0.66007 0.62348 0.0
H660 H 0.95776 0.64099 0.55035 0.0
C661 C 0.88968 0.6814 0.59593 0.0
C662 C 0.90148 0.68882 0.55236 0.0
H663 H 0.8937 0.65575 0.65765 0.0
H664 H 0.87102 0.69283 0.60965 0.0
C665 C 0.92548 0.67315 0.53568 0.0
C666 C 0.05381 0.20273 0.27969 0.0
C667 C 0.04692 0.17391 0.29138 0.0
H668 H 0.07662 0.24137 0.29888 0.0
C669 C 0.06078 0.16095 0.32976 0.0
H670 H 0.04366 0.21328 0.25012 0.0
C671 C 0.07955 0.17707 0.35777 0.0
C672 C 0.08499 0.20643 0.34786 0.0
H673 H 0.05613 0.13873 0.33955 0.0
H674 H 0.08889 0.16679 0.38825 0.0
C675 C 0.07274 0.21883 0.30762 0.0
C676 C 0.56329 0.32348 0.01236 0.0
C677 C 0.58559 0.30527 0.02848 0.0
H678 H 0.5321 0.35616 0.02999 0.0
C679 C 0.59626 0.30909 0.07392 0.0
H680 H 0.55468 0.32105 0.97746 0.0
C681 C 0.5835 0.32916 0.10382 0.0
C682 C 0.55962 0.34574 0.08908 0.0
H683 H 0.6137 0.29562 0.08714 0.0
H684 H 0.59146 0.33056 0.13927 0.0
C685 C 0.55033 0.34353 0.04251 0.0
C686 C 0.39235 0.79765 0.8093 0.0
C687 C 0.39073 0.80393 0.85718 0.0
H688 H 0.41256 0.80764 0.74393 0.0
C689 C 0.4059 0.82804 0.87461 0.0
H690 H 0.38076 0.77933 0.79476 0.0
C691 C 0.42407 0.84409 0.84565 0.0
C692 C 0.42737 0.83655 0.79855 0.0
H693 H 0.40489 0.83372 0.91119 0.0
H694 H 0.43654 0.86167 0.86073 0.0
C695 C 0.41049 0.81391 0.78014 0.0
C696 C 0.88853 0.29969 0.8929 0.0
C697 C 0.8983 0.29137 0.93735 0.0
H698 H 0.89617 0.32551 0.83229 0.0
C699 C 0.9224 0.30561 0.95673 0.0
H700 H 0.86986 0.28935 0.87713 0.0
C701 C 0.93757 0.32638 0.9309 0.0
C702 C 0.92886 0.33333 0.88528 0.0
H703 H 0.93037 0.2998 0.99101 0.0
H704 H 0.95682 0.33605 0.94598 0.0
C705 C 0.90363 0.32048 0.86717 0.0
C706 C 0.41657 0.14193 0.6363 0.0
C707 C 0.42065 0.14752 0.68394 0.0
H708 H 0.39577 0.15459 0.57306 0.0
C709 C 0.40357 0.16882 0.70568 0.0
H710 H 0.4292 0.1254 0.61873 0.0
C711 C 0.38446 0.18583 0.67933 0.0
C712 C 0.38199 0.18159 0.63096 0.0
H713 H 0.40623 0.17355 0.74239 0.0
H714 H 0.37276 0.20319 0.69645 0.0
C715 C 0.39735 0.15867 0.61014 0.0
C716 C 0.55877 0.66468 0.46191 0.0
C717 C 0.58404 0.67951 0.44855 0.0
H718 H 0.52412 0.63675 0.44047 0.0
C719 C 0.59588 0.67434 0.40425 0.0
H720 H 0.54916 0.66828 0.49584 0.0
C721 C 0.58173 0.6562 0.37273 0.0
C722 C 0.55523 0.64314 0.38468 0.0
H723 H 0.6155 0.68531 0.39318 0.0
H724 H 0.59082 0.6537 0.33817 0.0
C725 C 0.54438 0.64675 0.4301 0.0
C726 C 0.08834 0.82263 0.13099 0.0
C727 C 0.09572 0.79352 0.13954 0.0
H728 H 0.06277 0.85913 0.15143 0.0
C729 C 0.0849 0.77984 0.17974 0.0
H730 H 0.09651 0.83389 0.10056 0.0
C731 C 0.06543 0.79432 0.20893 0.0
C732 C 0.05651 0.82277 0.19854 0.0
H733 H 0.09031 0.75747 0.18748 0.0
H734 H 0.0564 0.78272 0.23839 0.0
C735 C 0.06899 0.83712 0.16023 0.0
C736 C 0.59522 0.81112 0.89675 0.0
C737 C 0.58515 0.80096 0.93998 0.0
H738 H 0.58731 0.83833 0.83786 0.0
C739 C 0.56031 0.81371 0.95962 0.0
H740 H 0.61453 0.80203 0.88096 0.0
C741 C 0.54458 0.83458 0.93474 0.0
C742 C 0.55351 0.8431 0.88993 0.0
H743 H 0.55211 0.80645 0.99301 0.0
H744 H 0.52464 0.84285 0.94962 0.0
C745 C 0.57963 0.83201 0.87206 0.0
C746 C 0.41805 0.31802 0.2161 0.0
C747 C 0.43525 0.33976 0.19575 0.0
H748 H 0.38562 0.2854 0.20515 0.0
C749 C 0.43 0.34784 0.14931 0.0
H750 H 0.4216 0.31136 0.25186 0.0
C751 C 0.40936 0.33321 0.12275 0.0
C752 C 0.39369 0.30993 0.14189 0.0
H753 H 0.4427 0.36477 0.13284 0.0
H754 H 0.4068 0.33925 0.08649 0.0
C755 C 0.3975 0.30311 0.1893 0.0
C756 C 0.92723 0.15972 0.46364 0.0
C757 C 0.9033 0.17514 0.44608 0.0
H758 H 0.96259 0.13113 0.44811 0.0
C759 C 0.89435 0.17022 0.39998 0.0
H760 H 0.93461 0.16307 0.49907 0.0
C761 C 0.91019 0.15189 0.37096 0.0
C762 C 0.93552 0.13827 0.38727 0.0
H763 H 0.87577 0.18154 0.38562 0.0
H764 H 0.90336 0.14965 0.33502 0.0
C765 C 0.9433 0.1415 0.43439 0.0
C766 C 0.09105 0.67058 0.69727 0.0
C767 C 0.09322 0.66306 0.64989 0.0
H768 H 0.06835 0.66406 0.76167 0.0
C769 C 0.07664 0.63974 0.63299 0.0
H770 H 0.1037 0.6883 0.71144 0.0
C771 C 0.05634 0.62613 0.66154 0.0
C772 C 0.05245 0.63525 0.70777 0.0
H773 H 0.078 0.6331 0.59686 0.0
H774 H 0.04267 0.60939 0.6467 0.0
C775 C 0.07088 0.65666 0.7261 0.0
C776 C 0.59199 0.17334 0.58255 0.0
C777 C 0.58503 0.17899 0.53577 0.0
H778 H 0.58075 0.15108 0.64517 0.0
C779 C 0.56235 0.16341 0.51472 0.0
H780 H 0.60959 0.18477 0.59957 0.0
C781 C 0.54554 0.14414 0.54109 0.0
C782 C 0.55135 0.14001 0.58877 0.0
H783 H 0.55652 0.16732 0.47869 0.0
H784 H 0.52723 0.13356 0.52464 0.0
C785 C 0.57544 0.15397 0.60869 0.0
C786 C 0.05948 0.35049 0.84063 0.0
C787 C 0.056 0.34063 0.79468 0.0
H788 H 0.08071 0.34473 0.90604 0.0
C789 C 0.07449 0.31878 0.77787 0.0
H790 H 0.04579 0.36756 0.85441 0.0
C791 C 0.09453 0.30546 0.80774 0.0
C792 C 0.09646 0.31394 0.85472 0.0
H793 H 0.07233 0.3108 0.74256 0.0
H794 H 0.1074 0.28758 0.79462 0.0
C795 C 0.07955 0.33738 0.87025 0.0
C796 C 0.89995 0.82506 0.08592 0.0
C797 C 0.91073 0.81841 0.04139 0.0
H798 H 0.90753 0.84605 0.15109 0.0
C799 C 0.93661 0.83155 0.02644 0.0
H800 H 0.87988 0.81556 0.09833 0.0
C801 C 0.95257 0.8491 0.0569 0.0
C802 C 0.94286 0.85379 0.10273 0.0
H803 H 0.94545 0.82693 0.99228 0.0
H804 H 0.97322 0.85765 0.04531 0.0
C805 C 0.91583 0.84254 0.11625 0.0
C806 C 0.40016 0.64007 0.3565 0.0
C807 C 0.39795 0.66973 0.34556 0.0
H808 H 0.42192 0.5999 0.34346 0.0
C809 C 0.41418 0.68085 0.3082 0.0
H810 H 0.38768 0.63081 0.38482 0.0
C811 C 0.43397 0.66318 0.28472 0.0
C812 C 0.43763 0.634 0.29783 0.0
H813 H 0.41283 0.70357 0.29875 0.0
H814 H 0.44733 0.67272 0.25771 0.0
C815 C 0.41969 0.62232 0.33265 0.0
C816 C 0.43014 0.1424 0.05642 0.0
C817 C 0.42357 0.14023 0.10416 0.0
H818 H 0.42208 0.16483 0.99215 0.0
C819 C 0.40082 0.15705 0.12234 0.0
H820 H 0.44745 0.12961 0.0413 0.0
C821 C 0.38655 0.17726 0.09438 0.0
C822 C 0.39447 0.1809 0.04751 0.0
H823 H 0.39498 0.15576 0.15884 0.0
H824 H 0.37006 0.19088 0.11005 0.0
C825 C 0.41559 0.16252 0.02823 0.0
C826 C 0.57515 0.63986 0.81358 0.0
C827 C 0.56612 0.65134 0.77061 0.0
H828 H 0.60016 0.64613 0.87532 0.0
C829 C 0.57909 0.67693 0.75406 0.0
H830 H 0.5658 0.61995 0.82695 0.0
C831 C 0.59875 0.69217 0.78207 0.0
C832 C 0.60583 0.68189 0.82684 0.0
H833 H 0.57258 0.68625 0.721 0.0
H834 H 0.607 0.7128 0.76975 0.0
C835 C 0.59488 0.65489 0.84131 0.0
C836 C 0.03535 0.80279 0.59319 0.0
C837 C 0.04582 0.82567 0.62074 0.0
H838 H 0.0457 0.7659 0.55146 0.0
C839 C 0.07592 0.83029 0.62357 0.0
H840 H 0.01228 0.79877 0.58995 0.0
C841 C 0.09519 0.81131 0.6015 0.0
C842 C 0.08468 0.78744 0.57616 0.0
H843 H 0.08466 0.84781 0.64444 0.0
H844 H 0.11828 0.81473 0.60582 0.0
C845 C 0.05455 0.78392 0.57109 0.0
C846 C 0.90273 0.32803 0.36752 0.0
C847 C 0.89192 0.30147 0.35097 0.0
H848 H 0.93069 0.36415 0.35516 0.0
C849 C 0.89875 0.29277 0.30533 0.0
H850 H 0.89762 0.33555 0.40231 0.0
C851 C 0.91779 0.30927 0.27813 0.0
C852 C 0.93031 0.33469 0.29618 0.0
H853 H 0.89062 0.27249 0.29145 0.0
H854 H 0.92385 0.30126 0.24403 0.0
C855 C 0.92172 0.34445 0.34045 0.0
C856 C 0.39371 0.82496 0.37812 0.0
C857 C 0.41492 0.84181 0.40064 0.0
H858 H 0.36424 0.78929 0.383 0.0
C859 C 0.41971 0.83762 0.44858 0.0
H860 H 0.38927 0.82773 0.34131 0.0
C861 C 0.40508 0.81562 0.47266 0.0
C862 C 0.38565 0.7973 0.44905 0.0
H863 H 0.43577 0.85037 0.46701 0.0
H864 H 0.4103 0.81189 0.50898 0.0
C865 C 0.37937 0.80285 0.402 0.0
C866 C 0.92731 0.69615 0.21011 0.0
C867 C 0.93661 0.66863 0.19527 0.0
H868 H 0.90189 0.73379 0.1943 0.0
C869 C 0.92378 0.65623 0.15556 0.0
H870 H 0.93664 0.70621 0.24074 0.0
C871 C 0.90395 0.67199 0.129 0.0
C872 C 0.89649 0.70048 0.1416 0.0
H873 H 0.93017 0.63489 0.14353 0.0
H874 H 0.89563 0.66237 0.09726 0.0
C875 C 0.90738 0.71196 0.18347 0.0
C876 C 0.11237 0.17666 0.88924 0.0
C877 C 0.102 0.19228 0.92779 0.0
H878 H 0.10245 0.14645 0.83497 0.0
C879 C 0.07409 0.18618 0.94491 0.0
H880 H 0.13382 0.18075 0.87534 0.0
C881 C 0.05617 0.16636 0.92196 0.0
C882 C 0.06572 0.15248 0.8812 0.0
H883 H 0.06559 0.19766 0.97485 0.0
H884 H 0.03429 0.16319 0.93474 0.0
C885 C 0.09435 0.15705 0.86603 0.0
C886 C 0.58525 0.32787 0.62701 0.0
C887 C 0.6001 0.30299 0.64231 0.0
H888 H 0.55445 0.36093 0.64334 0.0
C889 C 0.59756 0.29453 0.68926 0.0
H890 H 0.58692 0.33519 0.59123 0.0
C891 C 0.57895 0.30949 0.71939 0.0
C892 C 0.56247 0.333 0.70289 0.0
H893 H 0.60888 0.27556 0.70221 0.0
H894 H 0.57626 0.30163 0.7547 0.0
C895 C 0.56658 0.34263 0.6569 0.0
C896 C 0.97447 0.47915 0.1839 0.0
C897 C 0.9917 0.46684 0.21918 0.0
H898 H 0.96181 0.51797 0.14809 0.0
C899 C 0.00968 0.48497 0.2459 0.0
H900 H 0.9604 0.46573 0.16274 0.0
C901 C 0.01053 0.51472 0.2375 0.0
C902 C -0.00661 0.5271 0.20222 0.0
H903 H 0.02324 0.4762 0.27335 0.0
H904 H 0.02468 0.528 0.25877 0.0
C905 C 0.9753 0.50905 0.17551 0.0
C906 C 0.75518 0.77048 0.50512 0.0
C907 C 0.77319 0.75412 0.47565 0.0
H908 H 0.71184 0.78239 0.52335 0.0
C909 C 0.76048 0.73705 0.44061 0.0
H910 H 0.76429 0.78387 0.53247 0.0
C911 C 0.73035 0.73623 0.43535 0.0
C912 C 0.71234 0.75243 0.46506 0.0
H913 H 0.77375 0.72423 0.41731 0.0
H914 H 0.7212 0.72277 0.40813 0.0
C915 C 0.72509 0.76962 0.49992 0.0
C916 C 0.51427 0.4796 0.68635 0.0
C917 C 0.49634 0.463 0.71564 0.0
H918 H 0.52842 0.52201 0.66623 0.0
C919 C 0.4785 0.4773 0.748 0.0
H920 H 0.52827 0.46926 0.66104 0.0
C921 C 0.47856 0.50755 0.75094 0.0
C922 C 0.49648 0.52415 0.7216 0.0
H923 H 0.46441 0.46514 0.77107 0.0
H924 H 0.46455 0.5179 0.77622 0.0
C925 C 0.51435 0.50986 0.68932 0.0
C926 C 0.74588 0.24338 0.9121 0.0
C927 C 0.76294 0.2258 0.94131 0.0
H928 H 0.70324 0.25825 0.89468 0.0
C929 C 0.74925 0.20892 0.97566 0.0
H930 H 0.75576 0.25662 0.88526 0.0
C931 C 0.71918 0.20987 0.98107 0.0
C932 C 0.70213 0.2277 0.95224 0.0
H933 H 0.76176 0.19511 -0.00129 0.0
H934 H 0.70934 0.19675 0.00811 0.0
C935 C 0.71577 0.24432 0.91751 0.0
C936 C 0.98568 0.47982 0.82317 0.0
C937 C 0.97296 0.4621 0.78898 0.0
H938 H -0.00492 0.52302 0.84576 0.0
C939 C 0.95879 0.47524 0.75105 0.0
H940 H -0.0033 0.4704 0.85291 0.0
C941 C 0.9578 0.50545 0.74701 0.0
C942 C 0.97102 0.52315 0.78076 0.0
H943 H 0.94869 0.4622 0.72418 0.0
H944 H 0.94702 0.51489 0.71706 0.0
C945 C 0.98475 0.51001 0.81909 0.0
C946 C 0.25041 0.26862 0.55723 0.0
C947 C 0.26731 0.25153 0.52716 0.0
H948 H 0.20782 0.2829 0.57604 0.0
C949 C 0.25349 0.23548 0.49196 0.0
H950 H 0.26041 0.28126 0.5847 0.0
C951 C 0.22339 0.2364 0.48706 0.0
C952 C 0.20645 0.2534 0.5172 0.0
H953 H 0.26588 0.2221 0.46821 0.0
H954 H 0.21342 0.22371 0.45961 0.0
C955 C 0.22026 0.26957 0.55228 0.0
C956 C 0.51662 0.50304 0.31643 0.0
C957 C 0.52065 0.52096 0.27732 0.0
H958 H 0.51222 0.45971 0.3423 0.0
C959 C 0.52342 0.50816 0.23315 0.0
H960 H 0.51432 0.51225 0.35094 0.0
C961 C 0.52239 0.47802 0.22824 0.0
C962 C 0.51833 0.4601 0.26736 0.0
H963 H 0.52658 0.52138 0.20234 0.0
H964 H 0.52469 0.4688 0.19374 0.0
C965 C 0.51536 0.47292 0.31148 0.0
C966 C 0.23535 0.72487 0.05684 0.0
C967 C 0.21888 0.74325 0.02801 0.0
H968 H 0.27768 0.70969 0.07565 0.0
C969 C 0.2332 0.76064 0.99503 0.0
H970 H 0.22495 0.71118 0.08258 0.0
C971 C 0.26333 0.75973 0.991 0.0
C972 C 0.27985 0.74146 0.01992 0.0
H973 H 0.22116 0.77501 0.97222 0.0
H974 H 0.27366 0.77348 0.96526 0.0
C975 C 0.26556 0.724 0.05286 0.0
C976 C 0.51022 0.97814 0.74478 0.0
C977 C 0.49484 0.95904 0.71572 0.0
H978 H 0.52146 0.02211 0.75994 0.0
C979 C 0.47866 0.97045 0.67843 0.0
H980 H 0.52291 0.97005 0.77383 0.0
C981 C 0.47784 0.00037 0.67045 0.0
C982 C 0.49317 0.01946 0.69961 0.0
H983 H 0.46658 0.95631 0.6554 0.0
H984 H 0.46514 0.00851 0.64146 0.0
C985 C 0.50939 0.00801 0.73683 0.0
C986 C 0.25286 0.23922 0.06503 0.0
C987 C 0.27069 0.25542 0.03502 0.0
H988 H 0.20959 0.22735 0.08401 0.0
C989 C 0.25773 0.27245 9e-05 0.0
H990 H 0.26216 0.22585 0.0923 0.0
C991 C 0.22758 0.2733 0.99535 0.0
C992 C 0.20975 0.25714 0.02543 0.0
H993 H 0.27085 0.28518 0.97638 0.0
H994 H 0.21828 0.28667 0.9681 0.0
C995 C 0.22271 0.24006 0.06029 0.0
C996 C 0.98313 0.01071 0.24464 0.0
C997 C 0.00178 0.02511 0.2757 0.0
H998 H 0.96894 0.97019 0.21674 0.0
C999 C 0.02125 0.00866 0.30268 0.0
H1000 H 0.96789 0.02271 0.22329 0.0
C1001 C 0.02185 0.9784 0.29889 0.0
C1002 C 0.003 0.96403 0.26809 0.0
H1003 H 0.03591 0.01911 0.3269 0.0
H1004 H 0.03698 0.96629 0.32029 0.0
C1005 C 0.98373 0.98055 0.24089 0.0
C1006 C 0.25653 0.68781 0.4771 0.0
C1007 C 0.26838 0.71286 0.49754 0.0
H1008 H 0.21837 0.66284 0.46345 0.0
C1009 C 0.24987 0.73227 0.52074 0.0
H1010 H 0.2702 0.67238 0.459 0.0
C1011 C 0.2201 0.72681 0.52321 0.0
C1012 C 0.20826 0.70178 0.50263 0.0
H1013 H 0.25832 0.75176 0.53685 0.0
H1014 H 0.20638 0.74224 0.54122 0.0
C1015 C 0.2268 0.68231 0.47967 0.0
C1016 C 0.46134 0.00997 0.25375 0.0
C1017 C 0.4778 0.02813 0.28285 0.0
H1018 H 0.4475 0.96675 0.23857 0.0
C1019 C 0.49295 0.01583 0.32052 0.0
H1020 H 0.44935 0.01875 0.22447 0.0
C1021 C 0.49187 0.98593 0.32863 0.0
C1022 C 0.47561 0.96776 0.29925 0.0
H1023 H 0.50578 0.02924 0.34363 0.0
H1024 H 0.50395 0.97707 0.35775 0.0
C1025 C 0.46024 0.98013 0.26187 0.0
C1026 C 0.75437 0.7596 0.05592 0.0
C1027 C 0.77433 0.74647 0.02555 0.0
H1028 H 0.70969 0.76732 0.07204 0.0
C1029 C 0.76388 0.73069 0.98716 0.0
H1030 H 0.76174 0.77189 0.08582 0.0
C1031 C 0.73415 0.72802 0.97935 0.0
C1032 C 0.71417 0.74111 0.00968 0.0
H1033 H 0.77867 0.72029 0.96308 0.0
H1034 H 0.72688 0.71568 0.94943 0.0
C1035 C 0.72456 0.75697 0.04803 0.0
C1036 C 0.00092 0.01982 0.66915 0.0
C1037 C 0.01321 0.03223 0.70928 0.0
H1038 H 0.98953 0.98077 0.63321 0.0
C1039 C 0.0245 0.01391 0.744 0.0
H1040 H 0.99209 0.03335 0.64172 0.0
C1041 C 0.02299 0.98382 0.73918 0.0
C1042 C 0.0102 0.97138 0.69948 0.0
H1043 H 0.03418 0.02277 0.77532 0.0
H1044 H 0.03157 0.97032 0.76687 0.0
C1045 C -0.00054 0.98968 0.66427 0.0
C1046 C 0.73319 0.22409 0.55438 0.0
C1047 C 0.71613 0.24312 0.52759 0.0
H1048 H 0.77588 0.20868 0.57029 0.0
C1049 C 0.72983 0.26159 0.49544 0.0
H1050 H 0.7233 0.20958 0.57947 0.0
C1051 C 0.75992 0.26107 0.49018 0.0
C1052 C 0.777 0.24206 0.51697 0.0
H1053 H 0.71732 0.27651 0.47423 0.0
H1054 H 0.76976 0.27561 0.46508 0.0
C1055 C 0.76333 0.22357 0.54913 0.0
loop_
_geom_bond_atom_site_label_1
_geom_bond_atom_site_label_2
_geom_bond_distance
_geom_bond_site_symmetry_2
_ccdc_geom_bond_type
C0 O1 1.160 . S
C0 O7 1.185 . S
O1 C0 1.160 . S
O2 Zn3 1.899 . S
O2 C10 1.310 . S
Zn3 O2 1.899 . S
Zn3 O4 2.032 . S
Zn3 O7 2.086 . S
Zn3 O12 1.977 . S
O4 Zn3 2.032 . S
O4 C8 1.278 . S
C5 O6 1.203 . S
C5 O12 1.267 . S
O6 C5 1.203 . S
O7 C0 1.185 . S
O7 Zn3 2.086 . S
C8 O4 1.278 . S
C8 O9 1.211 . S
O9 C8 1.211 . S
C10 O2 1.310 . S
C10 O11 1.282 . S
O11 C10 1.282 . S
O12 Zn3 1.977 . S
O12 C5 1.267 . S
C13 O14 1.160 . S
C13 O20 1.185 . S
O14 C13 1.160 . S
O15 Zn16 1.899 . S
O15 C23 1.284 . S
Zn16 O15 1.899 . S
Zn16 O17 2.032 . S
Zn16 O20 2.086 . S
Zn16 O25 1.977 . S
O17 Zn16 2.032 . S
O17 C21 1.278 . S
C18 O19 1.203 . S
C18 O25 1.267 . S
O19 C18 1.203 . S
O20 C13 1.185 . S
O20 Zn16 2.086 . S
C21 O17 1.278 . S
C21 O22 1.211 . S
O22 C21 1.211 . S
C23 O15 1.284 . S
C23 O24 1.273 . S
O24 C23 1.273 . S
O25 Zn16 1.977 . S
O25 C18 1.267 . S
C26 O27 1.160 . S
C26 O33 1.185 . S
O27 C26 1.160 . S
O28 Zn29 1.899 . S
O28 C36 1.284 . S
Zn29 O28 1.899 . S
Zn29 O30 2.032 . S
Zn29 O33 2.086 . S
Zn29 O38 1.977 . S
O30 Zn29 2.032 . S
O30 C34 1.278 . S
C31 O32 1.203 . S
C31 O38 1.267 . S
O32 C31 1.203 . S
O33 C26 1.185 . S
O33 Zn29 2.086 . S
C34 O30 1.278 . S
C34 O35 1.211 . S
O35 C34 1.211 . S
C36 O28 1.284 . S
C36 O37 1.273 . S
O37 C36 1.273 . S
O38 Zn29 1.977 . S
O38 C31 1.267 . S
C39 O40 1.160 . S
C39 O46 1.185 . S
O40 C39 1.160 . S
O41 Zn42 1.899 . S
O41 C49 1.284 . S
Zn42 O41 1.899 . S
Zn42 O43 2.032 1_554 S
Zn42 O46 2.086 . S
Zn42 O51 1.977 . S
O43 Zn42 2.032 1_556 S
O43 C47 1.278 . S
C44 O45 1.203 . S
C44 O51 1.267 . S
O45 C44 1.203 . S
O46 C39 1.185 . S
O46 Zn42 2.086 . S
C47 O43 1.278 . S
C47 O48 1.211 . S
O48 C47 1.211 . S
C49 O41 1.284 . S
C49 O50 1.273 . S
O50 C49 1.273 . S
O51 Zn42 1.977 . S
O51 C44 1.267 . S
C52 O53 1.160 . S
C52 O59 1.185 . S
O53 C52 1.160 . S
O54 Zn55 1.899 . S
O54 C62 1.310 . S
Zn55 O54 1.899 . S
Zn55 O56 2.032 . S
Zn55 O59 2.086 . S
Zn55 O64 1.977 . S
O56 Zn55 2.032 . S
O56 C60 1.278 . S
C57 O58 1.203 . S
C57 O64 1.267 . S
O58 C57 1.203 . S
O59 C52 1.185 . S
O59 Zn55 2.086 . S
C60 O56 1.278 . S
C60 O61 1.211 . S
O61 C60 1.211 . S
C62 O54 1.310 . S
C62 O63 1.282 . S
O63 C62 1.282 . S
O64 Zn55 1.977 . S
O64 C57 1.267 . S
C65 O66 1.160 . S
C65 O72 1.185 . S
O66 C65 1.160 . S
O67 Zn68 1.899 . S
O67 C75 1.284 . S
Zn68 O67 1.899 . S
Zn68 O69 2.032 . S
Zn68 O72 2.086 . S
Zn68 O77 1.977 . S
O69 Zn68 2.032 . S
O69 C73 1.278 . S
C70 O71 1.203 . S
C70 O77 1.267 . S
O71 C70 1.203 . S
O72 C65 1.185 . S
O72 Zn68 2.086 . S
C73 O69 1.278 . S
C73 O74 1.211 . S
O74 C73 1.211 . S
C75 O67 1.284 . S
C75 O76 1.273 . S
O76 C75 1.273 . S
O77 Zn68 1.977 . S
O77 C70 1.267 . S
C78 O79 1.160 . S
C78 O85 1.185 . S
O79 C78 1.160 . S
O80 Zn81 1.899 . S
O80 C88 1.284 . S
Zn81 O80 1.899 . S
Zn81 O82 2.032 . S
Zn81 O85 2.086 . S
Zn81 O90 1.977 . S
O82 Zn81 2.032 . S
O82 C86 1.278 . S
C83 O84 1.203 . S
C83 O90 1.267 . S
O84 C83 1.203 . S
O85 C78 1.185 . S
O85 Zn81 2.086 . S
C86 O82 1.278 . S
C86 O87 1.211 . S
O87 C86 1.211 . S
C88 O80 1.284 . S
C88 O89 1.273 . S
O89 C88 1.273 . S
O90 Zn81 1.977 . S
O90 C83 1.267 . S
C91 O92 1.160 . S
C91 O98 1.185 . S
O92 C91 1.160 . S
O93 Zn94 1.899 . S
O93 C101 1.284 . S
Zn94 O93 1.899 . S
Zn94 O95 2.032 1_556 S
Zn94 O98 2.086 . S
Zn94 O103 1.977 . S
O95 Zn94 2.032 1_554 S
O95 C99 1.278 . S
C96 O97 1.203 . S
C96 O103 1.267 . S
O97 C96 1.203 . S
O98 C91 1.185 . S
O98 Zn94 2.086 . S
C99 O95 1.278 . S
C99 O100 1.211 . S
O100 C99 1.211 . S
C101 O93 1.284 . S
C101 O102 1.273 . S
O102 C101 1.273 . S
O103 Zn94 1.977 . S
O103 C96 1.267 . S
C104 O105 1.160 . S
C104 O111 1.185 . S
O105 C104 1.160 . S
O106 Zn107 1.899 . S
O106 C114 1.310 . S
Zn107 O106 1.899 . S
Zn107 O108 2.032 . S
Zn107 O111 2.086 . S
Zn107 O116 1.977 . S
O108 Zn107 2.032 . S
O108 C112 1.278 . S
C109 O110 1.203 . S
C109 O116 1.267 . S
O110 C109 1.203 . S
O111 C104 1.185 . S
O111 Zn107 2.086 . S
C112 O108 1.278 . S
C112 O113 1.211 . S
O113 C112 1.211 . S
C114 O106 1.310 . S
C114 O115 1.282 . S
O115 C114 1.282 . S
O116 Zn107 1.977 . S
O116 C109 1.267 . S
C117 O118 1.160 . S
C117 O124 1.185 . S
O118 C117 1.160 . S
O119 Zn120 1.899 . S
O119 C127 1.284 . S
Zn120 O119 1.899 . S
Zn120 O121 2.032 . S
Zn120 O124 2.086 . S
Zn120 O129 1.977 . S
O121 Zn120 2.032 . S
O121 C125 1.278 . S
C122 O123 1.203 . S
C122 O129 1.267 . S
O123 C122 1.203 . S
O124 C117 1.185 . S
O124 Zn120 2.086 . S
C125 O121 1.278 . S
C125 O126 1.211 . S
O126 C125 1.211 . S
C127 O119 1.284 . S
C127 O128 1.273 . S
O128 C127 1.273 . S
O129 Zn120 1.977 . S
O129 C122 1.267 . S
C130 O131 1.160 . S
C130 O137 1.185 . S
O131 C130 1.160 . S
O132 Zn133 1.899 . S
O132 C140 1.284 . S
Zn133 O132 1.899 . S
Zn133 O134 2.032 . S
Zn133 O137 2.086 . S
Zn133 O142 1.977 . S
O134 Zn133 2.032 . S
O134 C138 1.278 . S
C135 O136 1.203 . S
C135 O142 1.267 . S
O136 C135 1.203 . S
O137 C130 1.185 . S
O137 Zn133 2.086 . S
C138 O134 1.278 . S
C138 O139 1.211 . S
O139 C138 1.211 . S
C140 O132 1.284 . S
C140 O141 1.273 . S
O141 C140 1.273 . S
O142 Zn133 1.977 . S
O142 C135 1.267 . S
C143 O144 1.160 . S
C143 O150 1.185 . S
O144 C143 1.160 . S
O145 Zn146 1.899 . S
O145 C153 1.284 . S
Zn146 O145 1.899 . S
Zn146 O147 2.032 1_556 S
Zn146 O150 2.086 . S
Zn146 O155 1.977 . S
O147 Zn146 2.032 1_554 S
O147 C151 1.278 . S
C148 O149 1.203 . S
C148 O155 1.267 . S
O149 C148 1.203 . S
O150 C143 1.185 . S
O150 Zn146 2.086 . S
C151 O147 1.278 . S
C151 O152 1.211 . S
O152 C151 1.211 . S
C153 O145 1.284 . S
C153 O154 1.273 . S
O154 C153 1.273 . S
O155 Zn146 1.977 . S
O155 C148 1.267 . S
C156 O157 1.160 . S
C156 O163 1.185 . S
O157 C156 1.160 . S
O158 Zn159 1.899 . S
O158 C166 1.310 . S
Zn159 O158 1.899 . S
Zn159 O160 2.032 . S
Zn159 O163 2.086 . S
Zn159 O168 1.977 . S
O160 Zn159 2.032 . S
O160 C164 1.278 . S
C161 O162 1.203 . S
C161 O168 1.267 . S
O162 C161 1.203 . S
O163 C156 1.185 . S
O163 Zn159 2.086 . S
C164 O160 1.278 . S
C164 O165 1.211 . S
O165 C164 1.211 . S
C166 O158 1.310 . S
C166 O167 1.282 . S
O167 C166 1.282 . S
O168 Zn159 1.977 . S
O168 C161 1.267 . S
C169 O170 1.160 . S
C169 O176 1.185 . S
O170 C169 1.160 . S
O171 Zn172 1.899 . S
O171 C179 1.284 . S
Zn172 O171 1.899 . S
Zn172 O173 2.032 . S
Zn172 O176 2.086 . S
Zn172 O181 1.977 . S
O173 Zn172 2.032 . S
O173 C177 1.278 . S
C174 O175 1.203 . S
C174 O181 1.267 . S
O175 C174 1.203 . S
O176 C169 1.185 . S
O176 Zn172 2.086 . S
C177 O173 1.278 . S
C177 O178 1.211 . S
O178 C177 1.211 . S
C179 O171 1.284 . S
C179 O180 1.273 . S
O180 C179 1.273 . S
O181 Zn172 1.977 . S
O181 C174 1.267 . S
C182 O183 1.160 . S
C182 O189 1.185 . S
O183 C182 1.160 . S
O184 Zn185 1.899 . S
O184 C192 1.284 . S
Zn185 O184 1.899 . S
Zn185 O186 2.032 . S
Zn185 O189 2.086 . S
Zn185 O194 1.977 . S
O186 Zn185 2.032 . S
O186 C190 1.278 . S
C187 O188 1.203 . S
C187 O194 1.267 . S
O188 C187 1.203 . S
O189 C182 1.185 . S
O189 Zn185 2.086 . S
C190 O186 1.278 . S
C190 O191 1.211 . S
O191 C190 1.211 . S
C192 O184 1.284 . S
C192 O193 1.273 . S
O193 C192 1.273 . S
O194 Zn185 1.977 . S
O194 C187 1.267 . S
C195 O196 1.160 . S
C195 O202 1.185 . S
O196 C195 1.160 . S
O197 Zn198 1.899 . S
O197 C205 1.284 . S
Zn198 O197 1.899 . S
Zn198 O199 2.032 1_554 S
Zn198 O202 2.086 . S
Zn198 O207 1.977 . S
O199 Zn198 2.032 1_556 S
O199 C203 1.278 . S
C200 O201 1.203 . S
C200 O207 1.267 . S
O201 C200 1.203 . S
O202 C195 1.185 . S
O202 Zn198 2.086 . S
C203 O199 1.278 . S
C203 O204 1.211 . S
O204 C203 1.211 . S
C205 O197 1.284 . S
C205 O206 1.273 . S
O206 C205 1.273 . S
O207 Zn198 1.977 . S
O207 C200 1.267 . S
C208 O209 1.160 . S
C208 O215 1.185 . S
O209 C208 1.160 . S
O210 Zn211 1.899 . S
O210 C218 1.284 . S
Zn211 O210 1.899 . S
Zn211 O212 2.032 . S
Zn211 O215 2.086 . S
Zn211 O220 1.977 . S
O212 Zn211 2.032 . S
O212 C216 1.278 . S
C213 O214 1.203 . S
C213 O220 1.267 . S
O214 C213 1.203 . S
O215 C208 1.185 . S
O215 Zn211 2.086 . S
C216 O212 1.278 . S
C216 O217 1.211 . S
O217 C216 1.211 . S
C218 O210 1.284 . S
C218 O219 1.273 . S
O219 C218 1.273 . S
O220 Zn211 1.977 . S
O220 C213 1.267 . S
C221 O222 1.160 . S
C221 O228 1.185 . S
O222 C221 1.160 . S
O223 Zn224 1.899 . S
O223 C231 1.284 . S
Zn224 O223 1.899 . S
Zn224 O225 2.032 1_554 S
Zn224 O228 2.086 . S
Zn224 O233 1.977 . S
O225 Zn224 2.032 1_556 S
O225 C229 1.278 . S
C226 O227 1.203 . S
C226 O233 1.267 . S
O227 C226 1.203 . S
O228 C221 1.185 . S
O228 Zn224 2.086 . S
C229 O225 1.278 . S
C229 O230 1.211 . S
O230 C229 1.211 . S
C231 O223 1.284 . S
C231 O232 1.273 . S
O232 C231 1.273 . S
O233 Zn224 1.977 . S
O233 C226 1.267 . S
C234 O235 1.160 . S
C234 O241 1.185 . S
O235 C234 1.160 . S
O236 Zn237 1.899 . S
O236 C244 1.310 . S
Zn237 O236 1.899 . S
Zn237 O238 2.032 . S
Zn237 O241 2.086 . S
Zn237 O246 1.977 . S
O238 Zn237 2.032 . S
O238 C242 1.278 . S
C239 O240 1.203 . S
C239 O246 1.267 . S
O240 C239 1.203 . S
O241 C234 1.185 . S
O241 Zn237 2.086 . S
C242 O238 1.278 . S
C242 O243 1.211 . S
O243 C242 1.211 . S
C244 O236 1.310 . S
C244 O245 1.282 . S
O245 C244 1.282 . S
O246 Zn237 1.977 . S
O246 C239 1.267 . S
C247 O248 1.160 . S
C247 O254 1.185 . S
O248 C247 1.160 . S
O249 Zn250 1.899 . S
O249 C257 1.284 . S
Zn250 O249 1.899 . S
Zn250 O251 2.032 . S
Zn250 O254 2.086 . S
Zn250 O259 1.977 . S
O251 Zn250 2.032 . S
O251 C255 1.278 . S
C252 O253 1.203 . S
C252 O259 1.267 . S
O253 C252 1.203 . S
O254 C247 1.185 . S
O254 Zn250 2.086 . S
C255 O251 1.278 . S
C255 O256 1.211 . S
O256 C255 1.211 . S
C257 O249 1.284 . S
C257 O258 1.273 . S
O258 C257 1.273 . S
O259 Zn250 1.977 . S
O259 C252 1.267 . S
C260 O261 1.160 . S
C260 O267 1.185 . S
O261 C260 1.160 . S
O262 Zn263 1.899 . S
O262 C270 1.284 . S
Zn263 O262 1.899 . S
Zn263 O264 2.032 . S
Zn263 O267 2.086 . S
Zn263 O272 1.977 . S
O264 Zn263 2.032 . S
O264 C268 1.278 . S
C265 O266 1.203 . S
C265 O272 1.267 . S
O266 C265 1.203 . S
O267 C260 1.185 . S
O267 Zn263 2.086 . S
C268 O264 1.278 . S
C268 O269 1.211 . S
O269 C268 1.211 . S
C270 O262 1.284 . S
C270 O271 1.273 . S
O271 C270 1.273 . S
O272 Zn263 1.977 . S
O272 C265 1.267 . S
C273 O274 1.160 . S
C273 O280 1.185 . S
O274 C273 1.160 . S
O275 Zn276 1.899 . S
O275 C283 1.284 . S
Zn276 O275 1.899 . S
Zn276 O277 2.032 1_556 S
Zn276 O280 2.086 . S
Zn276 O285 1.977 . S
O277 Zn276 2.032 1_554 S
O277 C281 1.278 . S
C278 O279 1.203 . S
C278 O285 1.267 . S
O279 C278 1.203 . S
O280 C273 1.185 . S
O280 Zn276 2.086 . S
C281 O277 1.278 . S
C281 O282 1.211 . S
O282 C281 1.211 . S
C283 O275 1.284 . S
C283 O284 1.273 . S
O284 C283 1.273 . S
O285 Zn276 1.977 . S
O285 C278 1.267 . S
C286 O287 1.160 . S
C286 O293 1.185 . S
O287 C286 1.160 . S
O288 Zn289 1.899 . S
O288 C296 1.310 . S
Zn289 O288 1.899 . S
Zn289 O290 2.032 . S
Zn289 O293 2.086 . S
Zn289 O298 1.977 . S
O290 Zn289 2.032 . S
O290 C294 1.278 . S
C291 O292 1.203 . S
C291 O298 1.267 . S
O292 C291 1.203 . S
O293 C286 1.185 . S
O293 Zn289 2.086 . S
C294 O290 1.278 . S
C294 O295 1.211 . S
O295 C294 1.211 . S
C296 O288 1.310 . S
C296 O297 1.282 . S
O297 C296 1.282 . S
O298 Zn289 1.977 . S
O298 C291 1.267 . S
C299 O300 1.160 . S
C299 O306 1.185 . S
O300 C299 1.160 . S
O301 Zn302 1.899 . S
O301 C309 1.284 . S
Zn302 O301 1.899 . S
Zn302 O303 2.032 . S
Zn302 O306 2.086 . S
Zn302 O311 1.977 . S
O303 Zn302 2.032 . S
O303 C307 1.278 . S
C304 O305 1.203 . S
C304 O311 1.267 . S
O305 C304 1.203 . S
O306 C299 1.185 . S
O306 Zn302 2.086 . S
C307 O303 1.278 . S
C307 O308 1.211 . S
O308 C307 1.211 . S
C309 O301 1.284 . S
C309 O310 1.273 . S
O310 C309 1.273 . S
O311 Zn302 1.977 . S
O311 C304 1.267 . S
C312 O313 1.160 . S
C312 O319 1.185 . S
O313 C312 1.160 . S
O314 Zn315 1.899 . S
O314 C322 1.284 . S
Zn315 O314 1.899 . S
Zn315 O316 2.032 . S
Zn315 O319 2.086 . S
Zn315 O324 1.977 . S
O316 Zn315 2.032 . S
O316 C320 1.278 . S
C317 O318 1.203 . S
C317 O324 1.267 . S
O318 C317 1.203 . S
O319 C312 1.185 . S
O319 Zn315 2.086 . S
C320 O316 1.278 . S
C320 O321 1.211 . S
O321 C320 1.211 . S
C322 O314 1.284 . S
C322 O323 1.273 . S
O323 C322 1.273 . S
O324 Zn315 1.977 . S
O324 C317 1.267 . S
C325 O326 1.160 . S
C325 O332 1.185 . S
O326 C325 1.160 . S
O327 Zn328 1.899 . S
O327 C335 1.284 . S
Zn328 O327 1.899 . S
Zn328 O329 2.032 1_556 S
Zn328 O332 2.086 . S
Zn328 O337 1.977 . S
O329 Zn328 2.032 1_554 S
O329 C333 1.278 . S
C330 O331 1.203 . S
C330 O337 1.267 . S
O331 C330 1.203 . S
O332 C325 1.185 . S
O332 Zn328 2.086 . S
C333 O329 1.278 . S
C333 O334 1.211 . S
O334 C333 1.211 . S
C335 O327 1.284 . S
C335 O336 1.273 . S
O336 C335 1.273 . S
O337 Zn328 1.977 . S
O337 C330 1.267 . S
C338 O339 1.160 . S
C338 O345 1.185 . S
O339 C338 1.160 . S
O340 Zn341 1.899 . S
O340 C348 1.310 . S
Zn341 O340 1.899 . S
Zn341 O342 2.032 . S
Zn341 O345 2.086 . S
Zn341 O350 1.977 . S
O342 Zn341 2.032 . S
O342 C346 1.278 . S
C343 O344 1.203 . S
C343 O350 1.267 . S
O344 C343 1.203 . S
O345 C338 1.185 . S
O345 Zn341 2.086 . S
C346 O342 1.278 . S
C346 O347 1.211 . S
O347 C346 1.211 . S
C348 O340 1.310 . S
C348 O349 1.282 . S
O349 C348 1.282 . S
O350 Zn341 1.977 . S
O350 C343 1.267 . S
C351 O352 1.160 . S
C351 O358 1.185 . S
O352 C351 1.160 . S
O353 Zn354 1.899 . S
O353 C361 1.284 . S
Zn354 O353 1.899 . S
Zn354 O355 2.032 . S
Zn354 O358 2.086 . S
Zn354 O363 1.977 . S
O355 Zn354 2.032 . S
O355 C359 1.278 . S
C356 O357 1.203 . S
C356 O363 1.267 . S
O357 C356 1.203 . S
O358 C351 1.185 . S
O358 Zn354 2.086 . S
C359 O355 1.278 . S
C359 O360 1.211 . S
O360 C359 1.211 . S
C361 O353 1.284 . S
C361 O362 1.273 . S
O362 C361 1.273 . S
O363 Zn354 1.977 . S
O363 C356 1.267 . S
C364 O365 1.160 . S
C364 O371 1.185 . S
O365 C364 1.160 . S
O366 Zn367 1.899 . S
O366 C374 1.284 . S
Zn367 O366 1.899 . S
Zn367 O368 2.032 . S
Zn367 O371 2.086 . S
Zn367 O376 1.977 . S
O368 Zn367 2.032 . S
O368 C372 1.278 . S
C369 O370 1.203 . S
C369 O376 1.267 . S
O370 C369 1.203 . S
O371 C364 1.185 . S
O371 Zn367 2.086 . S
C372 O368 1.278 . S
C372 O373 1.211 . S
O373 C372 1.211 . S
C374 O366 1.284 . S
C374 O375 1.273 . S
O375 C374 1.273 . S
O376 Zn367 1.977 . S
O376 C369 1.267 . S
C377 O378 1.160 . S
C377 O384 1.185 . S
O378 C377 1.160 . S
O379 Zn380 1.899 . S
O379 C387 1.284 . S
Zn380 O379 1.899 . S
Zn380 O381 2.032 1_554 S
Zn380 O384 2.086 . S
Zn380 O389 1.977 . S
O381 Zn380 2.032 1_556 S
O381 C385 1.278 . S
C382 O383 1.203 . S
C382 O389 1.267 . S
O383 C382 1.203 . S
O384 C377 1.185 . S
O384 Zn380 2.086 . S
C385 O381 1.278 . S
C385 O386 1.211 . S
O386 C385 1.211 . S
C387 O379 1.284 . S
C387 O388 1.273 . S
O388 C387 1.273 . S
O389 Zn380 1.977 . S
O389 C382 1.267 . S
C390 O391 1.160 . S
C390 O397 1.185 . S
O391 C390 1.160 . S
O392 Zn393 1.899 . S
O392 C400 1.310 . S
Zn393 O392 1.899 . S
Zn393 O394 2.032 . S
Zn393 O397 2.086 . S
Zn393 O402 1.977 . S
O394 Zn393 2.032 . S
O394 C398 1.278 . S
C395 O396 1.203 . S
C395 O402 1.267 . S
O396 C395 1.203 . S
O397 C390 1.185 . S
O397 Zn393 2.086 . S
C398 O394 1.278 . S
C398 O399 1.211 . S
O399 C398 1.211 . S
C400 O392 1.310 . S
C400 O401 1.282 . S
O401 C400 1.282 . S
O402 Zn393 1.977 . S
O402 C395 1.267 . S
C403 O404 1.160 . S
C403 O410 1.185 . S
O404 C403 1.160 . S
O405 Zn406 1.899 . S
O405 C413 1.284 . S
Zn406 O405 1.899 . S
Zn406 O407 2.032 . S
Zn406 O410 2.086 . S
Zn406 O415 1.977 . S
O407 Zn406 2.032 . S
O407 C411 1.278 . S
C408 O409 1.203 . S
C408 O415 1.267 . S
O409 C408 1.203 . S
O410 C403 1.185 . S
O410 Zn406 2.086 . S
C411 O407 1.278 . S
C411 O412 1.211 . S
O412 C411 1.211 . S
C413 O405 1.284 . S
C413 O414 1.273 . S
O414 C413 1.273 . S
O415 Zn406 1.977 . S
O415 C408 1.267 . S
C416 C417 1.387 . S
C416 H420 0.950 . S
C416 C425 1.390 . S
C417 C416 1.387 . S
C417 C419 1.387 . S
H418 C425 0.950 . S
C419 C417 1.387 . S
C419 C421 1.390 . S
C419 H423 0.950 . S
H420 C416 0.950 . S
C421 C419 1.390 . S
C421 C422 1.387 . S
C421 H424 0.950 . S
C422 C421 1.387 . S
C422 C425 1.387 . S
H423 C419 0.950 . S
H424 C421 0.950 . S
C425 C416 1.390 . S
C425 H418 0.950 . S
C425 C422 1.387 . S
C426 C427 1.387 . S
C426 H430 0.950 . S
C426 C435 1.390 . S
C427 C426 1.387 . S
C427 C429 1.387 . S
H428 C435 0.950 . S
C429 C427 1.387 . S
C429 C431 1.390 . S
C429 H433 0.950 . S
H430 C426 0.950 . S
C431 C429 1.390 . S
C431 C432 1.387 . S
C431 H434 0.950 . S
C432 C431 1.387 . S
C432 C435 1.387 . S
H433 C429 0.950 . S
H434 C431 0.950 . S
C435 C426 1.390 . S
C435 H428 0.950 . S
C435 C432 1.387 . S
C436 C437 1.387 . S
C436 H440 0.950 . S
C436 C445 1.390 . S
C437 C436 1.387 . S
C437 C439 1.387 . S
H438 C445 0.950 . S
C439 C437 1.387 . S
C439 C441 1.390 . S
C439 H443 0.950 . S
H440 C436 0.950 . S
C441 C439 1.390 . S
C441 C442 1.387 . S
C441 H444 0.950 . S
C442 C441 1.387 . S
C442 C445 1.387 . S
H443 C439 0.950 . S
H444 C441 0.950 . S
C445 C436 1.390 . S
C445 H438 0.950 . S
C445 C442 1.387 . S
C446 C447 1.387 . S
C446 H450 0.950 . S
C446 C455 1.390 . S
C447 C446 1.387 . S
C447 C449 1.387 . S
H448 C455 0.950 . S
C449 C447 1.387 . S
C449 C451 1.390 . S
C449 H453 0.950 . S
H450 C446 0.950 . S
C451 C449 1.390 . S
C451 C452 1.387 . S
C451 H454 0.950 . S
C452 C451 1.387 . S
C452 C455 1.387 . S
H453 C449 0.950 . S
H454 C451 0.950 . S
C455 C446 1.390 . S
C455 H448 0.950 . S
C455 C452 1.387 . S
C456 C457 1.387 . S
C456 H460 0.950 . S
C456 C465 1.390 . S
C457 C456 1.387 . S
C457 C459 1.387 . S
H458 C465 0.950 . S
C459 C457 1.387 . S
C459 C461 1.390 . S
C459 H463 0.950 . S
H460 C456 0.950 . S
C461 C459 1.390 . S
C461 C462 1.387 . S
C461 H464 0.950 . S
C462 C461 1.387 . S
C462 C465 1.387 . S
H463 C459 0.950 . S
H464 C461 0.950 . S
C465 C456 1.390 . S
C465 H458 0.950 . S
C465 C462 1.387 . S
C466 C467 1.387 . S
C466 H470 0.950 . S
C466 C475 1.390 . S
C467 C466 1.387 . S
C467 C469 1.387 . S
H468 C475 0.950 . S
C469 C467 1.387 . S
C469 C471 1.390 . S
C469 H473 0.950 . S
H470 C466 0.950 . S
C471 C469 1.390 . S
C471 C472 1.387 . S
C471 H474 0.950 . S
C472 C471 1.387 . S
C472 C475 1.387 . S
H473 C469 0.950 . S
H474 C471 0.950 . S
C475 C466 1.390 . S
C475 H468 0.950 . S
C475 C472 1.387 . S
C476 C477 1.387 . S
C476 H480 0.950 . S
C476 C485 1.390 . S
C477 C476 1.387 . S
C477 C479 1.387 . S
H478 C485 0.950 . S
C479 C477 1.387 . S
C479 C481 1.390 . S
C479 H483 0.950 . S
H480 C476 0.950 . S
C481 C479 1.390 . S
C481 C482 1.387 . S
C481 H484 0.950 . S
C482 C481 1.387 . S
C482 C485 1.387 . S
H483 C479 0.950 . S
H484 C481 0.950 . S
C485 C476 1.390 . S
C485 H478 0.950 . S
C485 C482 1.387 . S
C486 C487 1.387 . S
C486 H490 0.950 . S
C486 C495 1.390 . S
C487 C486 1.387 . S
C487 C489 1.387 . S
H488 C495 0.950 . S
C489 C487 1.387 . S
C489 C491 1.390 . S
C489 H493 0.950 . S
H490 C486 0.950 . S
C491 C489 1.390 . S
C491 C492 1.387 . S
C491 H494 0.950 . S
C492 C491 1.387 . S
C492 C495 1.387 . S
H493 C489 0.950 . S
H494 C491 0.950 . S
C495 C486 1.390 . S
C495 H488 0.950 . S
C495 C492 1.387 . S
C496 C497 1.387 . S
C496 H500 0.950 . S
C496 C505 1.390 . S
C497 C496 1.387 . S
C497 C499 1.387 . S
H498 C505 0.950 . S
C499 C497 1.387 . S
C499 C501 1.390 . S
C499 H503 0.950 . S
H500 C496 0.950 . S
C501 C499 1.390 . S
C501 C502 1.387 . S
C501 H504 0.950 . S
C502 C501 1.387 . S
C502 C505 1.387 . S
H503 C499 0.950 . S
H504 C501 0.950 . S
C505 C496 1.390 . S
C505 H498 0.950 . S
C505 C502 1.387 . S
C506 C507 1.387 . S
C506 H510 0.950 . S
C506 C515 1.390 . S
C507 C506 1.387 . S
C507 C509 1.387 . S
H508 C515 0.950 . S
C509 C507 1.387 . S
C509 C511 1.390 . S
C509 H513 0.950 . S
H510 C506 0.950 . S
C511 C509 1.390 . S
C511 C512 1.387 . S
C511 H514 0.950 . S
C512 C511 1.387 . S
C512 C515 1.387 . S
H513 C509 0.950 . S
H514 C511 0.950 . S
C515 C506 1.390 . S
C515 H508 0.950 . S
C515 C512 1.387 . S
C516 C517 1.387 . S
C516 H520 0.950 . S
C516 C525 1.390 . S
C517 C516 1.387 . S
C517 C519 1.387 . S
H518 C525 0.950 . S
C519 C517 1.387 . S
C519 C521 1.390 . S
C519 H523 0.950 . S
H520 C516 0.950 . S
C521 C519 1.390 . S
C521 C522 1.387 . S
C521 H524 0.950 . S
C522 C521 1.387 . S
C522 C525 1.387 . S
H523 C519 0.950 . S
H524 C521 0.950 . S
C525 C516 1.390 . S
C525 H518 0.950 . S
C525 C522 1.387 . S
C526 C527 1.387 . S
C526 H530 0.950 . S
C526 C535 1.390 . S
C527 C526 1.387 . S
C527 C529 1.387 . S
H528 C535 0.950 . S
C529 C527 1.387 . S
C529 C531 1.390 . S
C529 H533 0.950 . S
H530 C526 0.950 . S
C531 C529 1.390 . S
C531 C532 1.387 . S
C531 H534 0.950 . S
C532 C531 1.387 . S
C532 C535 1.387 . S
H533 C529 0.950 . S
H534 C531 0.950 . S
C535 C526 1.390 . S
C535 H528 0.950 . S
C535 C532 1.387 . S
C536 C537 1.387 . S
C536 H540 0.950 . S
C536 C545 1.390 . S
C537 C536 1.387 . S
C537 C539 1.387 . S
H538 C545 0.950 . S
C539 C537 1.387 . S
C539 C541 1.390 . S
C539 H543 0.950 . S
H540 C536 0.950 . S
C541 C539 1.390 . S
C541 C542 1.387 . S
C541 H544 0.950 . S
C542 C541 1.387 . S
C542 C545 1.387 . S
H543 C539 0.950 . S
H544 C541 0.950 . S
C545 C536 1.390 . S
C545 H538 0.950 . S
C545 C542 1.387 . S
C546 C547 1.387 . S
C546 H550 0.950 . S
C546 C555 1.390 . S
C547 C546 1.387 . S
C547 C549 1.387 . S
H548 C555 0.950 . S
C549 C547 1.387 . S
C549 C551 1.390 . S
C549 H553 0.950 . S
H550 C546 0.950 . S
C551 C549 1.390 . S
C551 C552 1.387 . S
C551 H554 0.950 . S
C552 C551 1.387 . S
C552 C555 1.387 . S
H553 C549 0.950 . S
H554 C551 0.950 . S
C555 C546 1.390 . S
C555 H548 0.950 . S
C555 C552 1.387 . S
C556 C557 1.387 . S
C556 H560 0.950 . S
C556 C565 1.390 . S
C557 C556 1.387 . S
C557 C559 1.387 . S
H558 C565 0.950 . S
C559 C557 1.387 . S
C559 C561 1.390 . S
C559 H563 0.950 . S
H560 C556 0.950 . S
C561 C559 1.390 . S
C561 C562 1.387 . S
C561 H564 0.950 . S
C562 C561 1.387 . S
C562 C565 1.387 . S
H563 C559 0.950 . S
H564 C561 0.950 . S
C565 C556 1.390 . S
C565 H558 0.950 . S
C565 C562 1.387 . S
C566 C567 1.387 . S
C566 H570 0.950 . S
C566 C575 1.390 . S
C567 C566 1.387 . S
C567 C569 1.387 . S
H568 C575 0.950 . S
C569 C567 1.387 . S
C569 C571 1.390 . S
C569 H573 0.950 . S
H570 C566 0.950 . S
C571 C569 1.390 . S
C571 C572 1.387 . S
C571 H574 0.950 . S
C572 C571 1.387 . S
C572 C575 1.387 . S
H573 C569 0.950 . S
H574 C571 0.950 . S
C575 C566 1.390 . S
C575 H568 0.950 . S
C575 C572 1.387 . S
C576 C577 1.387 . S
C576 H580 0.950 . S
C576 C585 1.390 . S
C577 C576 1.387 . S
C577 C579 1.387 . S
H578 C585 0.950 . S
C579 C577 1.387 . S
C579 C581 1.390 . S
C579 H583 0.950 . S
H580 C576 0.950 . S
C581 C579 1.390 . S
C581 C582 1.387 . S
C581 H584 0.950 . S
C582 C581 1.387 . S
C582 C585 1.387 . S
H583 C579 0.950 . S
H584 C581 0.950 . S
C585 C576 1.390 . S
C585 H578 0.950 . S
C585 C582 1.387 . S
C586 C587 1.387 . S
C586 H590 0.950 . S
C586 C595 1.390 . S
C587 C586 1.387 . S
C587 C589 1.387 . S
H588 C595 0.950 . S
C589 C587 1.387 . S
C589 C591 1.390 . S
C589 H593 0.950 . S
H590 C586 0.950 . S
C591 C589 1.390 . S
C591 C592 1.387 . S
C591 H594 0.950 . S
C592 C591 1.387 . S
C592 C595 1.387 . S
H593 C589 0.950 . S
H594 C591 0.950 . S
C595 C586 1.390 . S
C595 H588 0.950 . S
C595 C592 1.387 . S
C596 C597 1.387 . S
C596 H600 0.950 . S
C596 C605 1.390 . S
C597 C596 1.387 . S
C597 C599 1.387 . S
H598 C605 0.950 . S
C599 C597 1.387 . S
C599 C601 1.390 . S
C599 H603 0.950 . S
H600 C596 0.950 . S
C601 C599 1.390 . S
C601 C602 1.387 . S
C601 H604 0.950 . S
C602 C601 1.387 . S
C602 C605 1.387 . S
H603 C599 0.950 . S
H604 C601 0.950 . S
C605 C596 1.390 . S
C605 H598 0.950 . S
C605 C602 1.387 . S
C606 C607 1.387 . S
C606 H610 0.950 . S
C606 C615 1.390 . S
C607 C606 1.387 . S
C607 C609 1.387 . S
H608 C615 0.950 . S
C609 C607 1.387 . S
C609 C611 1.390 . S
C609 H613 0.950 . S
H610 C606 0.950 . S
C611 C609 1.390 . S
C611 C612 1.387 . S
C611 H614 0.950 . S
C612 C611 1.387 . S
C612 C615 1.387 . S
H613 C609 0.950 . S
H614 C611 0.950 . S
C615 C606 1.390 . S
C615 H608 0.950 . S
C615 C612 1.387 . S
C616 C617 1.387 . S
C616 H620 0.950 . S
C616 C625 1.390 . S
C617 C616 1.387 . S
C617 C619 1.387 . S
H618 C625 0.950 . S
C619 C617 1.387 . S
C619 C621 1.390 . S
C619 H623 0.950 . S
H620 C616 0.950 . S
C621 C619 1.390 . S
C621 C622 1.387 . S
C621 H624 0.950 . S
C622 C621 1.387 . S
C622 C625 1.387 . S
H623 C619 0.950 . S
H624 C621 0.950 . S
C625 C616 1.390 . S
C625 H618 0.950 . S
C625 C622 1.387 . S
C626 C627 1.387 . S
C626 H630 0.950 . S
C626 C635 1.390 . S
C627 C626 1.387 . S
C627 C629 1.387 . S
H628 C635 0.950 . S
C629 C627 1.387 . S
C629 C631 1.390 . S
C629 H633 0.950 . S
H630 C626 0.950 . S
C631 C629 1.390 . S
C631 C632 1.387 . S
C631 H634 0.950 . S
C632 C631 1.387 . S
C632 C635 1.387 . S
H633 C629 0.950 . S
H634 C631 0.950 . S
C635 C626 1.390 . S
C635 H628 0.950 . S
C635 C632 1.387 . S
C636 C637 1.387 . S
C636 H640 0.950 . S
C636 C645 1.390 . S
C637 C636 1.387 . S
C637 C639 1.387 . S
H638 C645 0.950 . S
C639 C637 1.387 . S
C639 C641 1.390 . S
C639 H643 0.950 . S
H640 C636 0.950 . S
C641 C639 1.390 . S
C641 C642 1.387 . S
C641 H644 0.950 . S
C642 C641 1.387 . S
C642 C645 1.387 . S
H643 C639 0.950 . S
H644 C641 0.950 . S
C645 C636 1.390 . S
C645 H638 0.950 . S
C645 C642 1.387 . S
C646 C647 1.387 . S
C646 H650 0.950 . S
C646 C655 1.390 . S
C647 C646 1.387 . S
C647 C649 1.387 . S
H648 C655 0.950 . S
C649 C647 1.387 . S
C649 C651 1.390 . S
C649 H653 0.950 . S
H650 C646 0.950 . S
C651 C649 1.390 . S
C651 C652 1.387 . S
C651 H654 0.950 . S
C652 C651 1.387 . S
C652 C655 1.387 . S
H653 C649 0.950 . S
H654 C651 0.950 . S
C655 C646 1.390 . S
C655 H648 0.950 . S
C655 C652 1.387 . S
C656 C657 1.387 . S
C656 H660 0.950 . S
C656 C665 1.390 . S
C657 C656 1.387 . S
C657 C659 1.387 . S
H658 C665 0.950 . S
C659 C657 1.387 . S
C659 C661 1.390 . S
C659 H663 0.950 . S
H660 C656 0.950 . S
C661 C659 1.390 . S
C661 C662 1.387 . S
C661 H664 0.950 . S
C662 C661 1.387 . S
C662 C665 1.387 . S
H663 C659 0.950 . S
H664 C661 0.950 . S
C665 C656 1.390 . S
C665 H658 0.950 . S
C665 C662 1.387 . S
C666 C667 1.387 . S
C666 H670 0.950 . S
C666 C675 1.390 . S
C667 C666 1.387 . S
C667 C669 1.387 . S
H668 C675 0.950 . S
C669 C667 1.387 . S
C669 C671 1.390 . S
C669 H673 0.950 . S
H670 C666 0.950 . S
C671 C669 1.390 . S
C671 C672 1.387 . S
C671 H674 0.950 . S
C672 C671 1.387 . S
C672 C675 1.387 . S
H673 C669 0.950 . S
H674 C671 0.950 . S
C675 C666 1.390 . S
C675 H668 0.950 . S
C675 C672 1.387 . S
C676 C677 1.387 . S
C676 H680 0.950 . S
C676 C685 1.390 . S
C677 C676 1.387 . S
C677 C679 1.387 . S
H678 C685 0.950 . S
C679 C677 1.387 . S
C679 C681 1.390 . S
C679 H683 0.950 . S
H680 C676 0.950 . S
C681 C679 1.390 . S
C681 C682 1.387 . S
C681 H684 0.950 . S
C682 C681 1.387 . S
C682 C685 1.387 . S
H683 C679 0.950 . S
H684 C681 0.950 . S
C685 C676 1.390 . S
C685 H678 0.950 . S
C685 C682 1.387 . S
C686 C687 1.387 . S
C686 H690 0.950 . S
C686 C695 1.390 . S
C687 C686 1.387 . S
C687 C689 1.387 . S
H688 C695 0.950 . S
C689 C687 1.387 . S
C689 C691 1.390 . S
C689 H693 0.950 . S
H690 C686 0.950 . S
C691 C689 1.390 . S
C691 C692 1.387 . S
C691 H694 0.950 . S
C692 C691 1.387 . S
C692 C695 1.387 . S
H693 C689 0.950 . S
H694 C691 0.950 . S
C695 C686 1.390 . S
C695 H688 0.950 . S
C695 C692 1.387 . S
C696 C697 1.387 . S
C696 H700 0.950 . S
C696 C705 1.390 . S
C697 C696 1.387 . S
C697 C699 1.387 . S
H698 C705 0.950 . S
C699 C697 1.387 . S
C699 C701 1.390 . S
C699 H703 0.950 . S
H700 C696 0.950 . S
C701 C699 1.390 . S
C701 C702 1.387 . S
C701 H704 0.950 . S
C702 C701 1.387 . S
C702 C705 1.387 . S
H703 C699 0.950 . S
H704 C701 0.950 . S
C705 C696 1.390 . S
C705 H698 0.950 . S
C705 C702 1.387 . S
C706 C707 1.387 . S
C706 H710 0.950 . S
C706 C715 1.390 . S
C707 C706 1.387 . S
C707 C709 1.387 . S
H708 C715 0.950 . S
C709 C707 1.387 . S
C709 C711 1.390 . S
C709 H713 0.950 . S
H710 C706 0.950 . S
C711 C709 1.390 . S
C711 C712 1.387 . S
C711 H714 0.950 . S
C712 C711 1.387 . S
C712 C715 1.387 . S
H713 C709 0.950 . S
H714 C711 0.950 . S
C715 C706 1.390 . S
C715 H708 0.950 . S
C715 C712 1.387 . S
C716 C717 1.387 . S
C716 H720 0.950 . S
C716 C725 1.390 . S
C717 C716 1.387 . S
C717 C719 1.387 . S
H718 C725 0.950 . S
C719 C717 1.387 . S
C719 C721 1.390 . S
C719 H723 0.950 . S
H720 C716 0.950 . S
C721 C719 1.390 . S
C721 C722 1.387 . S
C721 H724 0.950 . S
C722 C721 1.387 . S
C722 C725 1.387 . S
H723 C719 0.950 . S
H724 C721 0.950 . S
C725 C716 1.390 . S
C725 H718 0.950 . S
C725 C722 1.387 . S
C726 C727 1.387 . S
C726 H730 0.950 . S
C726 C735 1.390 . S
C727 C726 1.387 . S
C727 C729 1.387 . S
H728 C735 0.950 . S
C729 C727 1.387 . S
C729 C731 1.390 . S
C729 H733 0.950 . S
H730 C726 0.950 . S
C731 C729 1.390 . S
C731 C732 1.387 . S
C731 H734 0.950 . S
C732 C731 1.387 . S
C732 C735 1.387 . S
H733 C729 0.950 . S
H734 C731 0.950 . S
C735 C726 1.390 . S
C735 H728 0.950 . S
C735 C732 1.387 . S
C736 C737 1.387 . S
C736 H740 0.950 . S
C736 C745 1.390 . S
C737 C736 1.387 . S
C737 C739 1.387 . S
H738 C745 0.950 . S
C739 C737 1.387 . S
C739 C741 1.390 . S
C739 H743 0.950 . S
H740 C736 0.950 . S
C741 C739 1.390 . S
C741 C742 1.387 . S
C741 H744 0.950 . S
C742 C741 1.387 . S
C742 C745 1.387 . S
H743 C739 0.950 . S
H744 C741 0.950 . S
C745 C736 1.390 . S
C745 H738 0.950 . S
C745 C742 1.387 . S
C746 C747 1.387 . S
C746 H750 0.950 . S
C746 C755 1.390 . S
C747 C746 1.387 . S
C747 C749 1.387 . S
H748 C755 0.950 . S
C749 C747 1.387 . S
C749 C751 1.390 . S
C749 H753 0.950 . S
H750 C746 0.950 . S
C751 C749 1.390 . S
C751 C752 1.387 . S
C751 H754 0.950 . S
C752 C751 1.387 . S
C752 C755 1.387 . S
H753 C749 0.950 . S
H754 C751 0.950 . S
C755 C746 1.390 . S
C755 H748 0.950 . S
C755 C752 1.387 . S
C756 C757 1.387 . S
C756 H760 0.950 . S
C756 C765 1.390 . S
C757 C756 1.387 . S
C757 C759 1.387 . S
H758 C765 0.950 . S
C759 C757 1.387 . S
C759 C761 1.390 . S
C759 H763 0.950 . S
H760 C756 0.950 . S
C761 C759 1.390 . S
C761 C762 1.387 . S
C761 H764 0.950 . S
C762 C761 1.387 . S
C762 C765 1.387 . S
H763 C759 0.950 . S
H764 C761 0.950 . S
C765 C756 1.390 . S
C765 H758 0.950 . S
C765 C762 1.387 . S
C766 C767 1.387 . S
C766 H770 0.950 . S
C766 C775 1.390 . S
C767 C766 1.387 . S
C767 C769 1.387 . S
H768 C775 0.950 . S
C769 C767 1.387 . S
C769 C771 1.390 . S
C769 H773 0.950 . S
H770 C766 0.950 . S
C771 C769 1.390 . S
C771 C772 1.387 . S
C771 H774 0.950 . S
C772 C771 1.387 . S
C772 C775 1.387 . S
H773 C769 0.950 . S
H774 C771 0.950 . S
C775 C766 1.390 . S
C775 H768 0.950 . S
C775 C772 1.387 . S
C776 C777 1.387 . S
C776 H780 0.950 . S
C776 C785 1.390 . S
C777 C776 1.387 . S
C777 C779 1.387 . S
H778 C785 0.950 . S
C779 C777 1.387 . S
C779 C781 1.390 . S
C779 H783 0.950 . S
H780 C776 0.950 . S
C781 C779 1.390 . S
C781 C782 1.387 . S
C781 H784 0.950 . S
C782 C781 1.387 . S
C782 C785 1.387 . S
H783 C779 0.950 . S
H784 C781 0.950 . S
C785 C776 1.390 . S
C785 H778 0.950 . S
C785 C782 1.387 . S
C786 C787 1.387 . S
C786 H790 0.950 . S
C786 C795 1.390 . S
C787 C786 1.387 . S
C787 C789 1.387 . S
H788 C795 0.950 . S
C789 C787 1.387 . S
C789 C791 1.390 . S
C789 H793 0.950 . S
H790 C786 0.950 . S
C791 C789 1.390 . S
C791 C792 1.387 . S
C791 H794 0.950 . S
C792 C791 1.387 . S
C792 C795 1.387 . S
H793 C789 0.950 . S
H794 C791 0.950 . S
C795 C786 1.390 . S
C795 H788 0.950 . S
C795 C792 1.387 . S
C796 C797 1.387 . S
C796 H800 0.950 . S
C796 C805 1.390 . S
C797 C796 1.387 . S
C797 C799 1.387 . S
H798 C805 0.950 . S
C799 C797 1.387 . S
C799 C801 1.390 . S
C799 H803 0.950 . S
H800 C796 0.950 . S
C801 C799 1.390 . S
C801 C802 1.387 . S
C801 H804 0.950 . S
C802 C801 1.387 . S
C802 C805 1.387 . S
H803 C799 0.950 . S
H804 C801 0.950 . S
C805 C796 1.390 . S
C805 H798 0.950 . S
C805 C802 1.387 . S
C806 C807 1.387 . S
C806 H810 0.950 . S
C806 C815 1.390 . S
C807 C806 1.387 . S
C807 C809 1.387 . S
H808 C815 0.950 . S
C809 C807 1.387 . S
C809 C811 1.390 . S
C809 H813 0.950 . S
H810 C806 0.950 . S
C811 C809 1.390 . S
C811 C812 1.387 . S
C811 H814 0.950 . S
C812 C811 1.387 . S
C812 C815 1.387 . S
H813 C809 0.950 . S
H814 C811 0.950 . S
C815 C806 1.390 . S
C815 H808 0.950 . S
C815 C812 1.387 . S
C816 C817 1.387 . S
C816 H820 0.950 . S
C816 C825 1.390 . S
C817 C816 1.387 . S
C817 C819 1.387 . S
H818 C825 0.950 . S
C819 C817 1.387 . S
C819 C821 1.390 . S
C819 H823 0.950 . S
H820 C816 0.950 . S
C821 C819 1.390 . S
C821 C822 1.387 . S
C821 H824 0.950 . S
C822 C821 1.387 . S
C822 C825 1.387 . S
H823 C819 0.950 . S
H824 C821 0.950 . S
C825 C816 1.390 . S
C825 H818 0.950 . S
C825 C822 1.387 . S
C826 C827 1.387 . S
C826 H830 0.950 . S
C826 C835 1.390 . S
C827 C826 1.387 . S
C827 C829 1.387 . S
H828 C835 0.950 . S
C829 C827 1.387 . S
C829 C831 1.390 . S
C829 H833 0.950 . S
H830 C826 0.950 . S
C831 C829 1.390 . S
C831 C832 1.387 . S
C831 H834 0.950 . S
C832 C831 1.387 . S
C832 C835 1.387 . S
H833 C829 0.950 . S
H834 C831 0.950 . S
C835 C826 1.390 . S
C835 H828 0.950 . S
C835 C832 1.387 . S
C836 C837 1.387 . S
C836 H840 0.950 . S
C836 C845 1.390 . S
C837 C836 1.387 . S
C837 C839 1.387 . S
H838 C845 0.950 . S
C839 C837 1.387 . S
C839 C841 1.390 . S
C839 H843 0.950 . S
H840 C836 0.950 . S
C841 C839 1.390 . S
C841 C842 1.387 . S
C841 H844 0.950 . S
C842 C841 1.387 . S
C842 C845 1.387 . S
H843 C839 0.950 . S
H844 C841 0.950 . S
C845 C836 1.390 . S
C845 H838 0.950 . S
C845 C842 1.387 . S
C846 C847 1.387 . S
C846 H850 0.950 . S
C846 C855 1.390 . S
C847 C846 1.387 . S
C847 C849 1.387 . S
H848 C855 0.950 . S
C849 C847 1.387 . S
C849 C851 1.390 . S
C849 H853 0.950 . S
H850 C846 0.950 . S
C851 C849 1.390 . S
C851 C852 1.387 . S
C851 H854 0.950 . S
C852 C851 1.387 . S
C852 C855 1.387 . S
H853 C849 0.950 . S
H854 C851 0.950 . S
C855 C846 1.390 . S
C855 H848 0.950 . S
C855 C852 1.387 . S
C856 C857 1.387 . S
C856 H860 0.950 . S
C856 C865 1.390 . S
C857 C856 1.387 . S
C857 C859 1.387 . S
H858 C865 0.950 . S
C859 C857 1.387 . S
C859 C861 1.390 . S
C859 H863 0.950 . S
H860 C856 0.950 . S
C861 C859 1.390 . S
C861 C862 1.387 . S
C861 H864 0.950 . S
C862 C861 1.387 . S
C862 C865 1.387 . S
H863 C859 0.950 . S
H864 C861 0.950 . S
C865 C856 1.390 . S
C865 H858 0.950 . S
C865 C862 1.387 . S
C866 C867 1.387 . S
C866 H870 0.950 . S
C866 C875 1.390 . S
C867 C866 1.387 . S
C867 C869 1.387 . S
H868 C875 0.950 . S
C869 C867 1.387 . S
C869 C871 1.390 . S
C869 H873 0.950 . S
H870 C866 0.950 . S
C871 C869 1.390 . S
C871 C872 1.387 . S
C871 H874 0.950 . S
C872 C871 1.387 . S
C872 C875 1.387 . S
H873 C869 0.950 . S
H874 C871 0.950 . S
C875 C866 1.390 . S
C875 H868 0.950 . S
C875 C872 1.387 . S
C876 C877 1.387 . S
C876 H880 0.950 . S
C876 C885 1.390 . S
C877 C876 1.387 . S
C877 C879 1.387 . S
H878 C885 0.950 . S
C879 C877 1.387 . S
C879 C881 1.390 . S
C879 H883 0.950 . S
H880 C876 0.950 . S
C881 C879 1.390 . S
C881 C882 1.387 . S
C881 H884 0.950 . S
C882 C881 1.387 . S
C882 C885 1.387 . S
H883 C879 0.950 . S
H884 C881 0.950 . S
C885 C876 1.390 . S
C885 H878 0.950 . S
C885 C882 1.387 . S
C886 C887 1.387 . S
C886 H890 0.950 . S
C886 C895 1.390 . S
C887 C886 1.387 . S
C887 C889 1.387 . S
H888 C895 0.950 . S
C889 C887 1.387 . S
C889 C891 1.390 . S
C889 H893 0.950 . S
H890 C886 0.950 . S
C891 C889 1.390 . S
C891 C892 1.387 . S
C891 H894 0.950 . S
C892 C891 1.387 . S
C892 C895 1.387 . S
H893 C889 0.950 . S
H894 C891 0.950 . S
C895 C886 1.390 . S
C895 H888 0.950 . S
C895 C892 1.387 . S
C896 C897 1.387 . S
C896 H900 0.950 . S
C896 C905 1.390 . S
C897 C896 1.387 . S
C897 C899 1.387 . S
H898 C905 0.950 . S
C899 C897 1.387 . S
C899 C901 1.390 . S
C899 H903 0.950 . S
H900 C896 0.950 . S
C901 C899 1.390 . S
C901 C902 1.387 . S
C901 H904 0.950 . S
C902 C901 1.387 . S
C902 C905 1.387 . S
H903 C899 0.950 . S
H904 C901 0.950 . S
C905 C896 1.390 . S
C905 H898 0.950 . S
C905 C902 1.387 . S
C906 C907 1.387 . S
C906 H910 0.950 . S
C906 C915 1.390 . S
C907 C906 1.387 . S
C907 C909 1.387 . S
H908 C915 0.950 . S
C909 C907 1.387 . S
C909 C911 1.390 . S
C909 H913 0.950 . S
H910 C906 0.950 . S
C911 C909 1.390 . S
C911 C912 1.387 . S
C911 H914 0.950 . S
C912 C911 1.387 . S
C912 C915 1.387 . S
H913 C909 0.950 . S
H914 C911 0.950 . S
C915 C906 1.390 . S
C915 H908 0.950 . S
C915 C912 1.387 . S
C916 C917 1.387 . S
C916 H920 0.950 . S
C916 C925 1.390 . S
C917 C916 1.387 . S
C917 C919 1.387 . S
H918 C925 0.950 . S
C919 C917 1.387 . S
C919 C921 1.390 . S
C919 H923 0.950 . S
H920 C916 0.950 . S
C921 C919 1.390 . S
C921 C922 1.387 . S
C921 H924 0.950 . S
C922 C921 1.387 . S
C922 C925 1.387 . S
H923 C919 0.950 . S
H924 C921 0.950 . S
C925 C916 1.390 . S
C925 H918 0.950 . S
C925 C922 1.387 . S
C926 C927 1.387 . S
C926 H930 0.950 . S
C926 C935 1.390 1_556 S
C927 C926 1.387 . S
C927 C929 1.387 . S
H928 C935 0.950 . S
C929 C927 1.387 . S
C929 C931 1.390 1_556 S
C929 H933 0.950 . S
H930 C926 0.950 . S
C931 C929 1.390 1_554 S
C931 C932 1.387 . S
C931 H934 0.950 . S
C932 C931 1.387 . S
C932 C935 1.387 . S
H933 C929 0.950 . S
H934 C931 0.950 . S
C935 C926 1.390 1_554 S
C935 H928 0.950 . S
C935 C932 1.387 . S
C936 C937 1.387 . S
C936 H940 0.950 . S
C936 C945 1.390 . S
C937 C936 1.387 . S
C937 C939 1.387 . S
H938 C945 0.950 . S
C939 C937 1.387 . S
C939 C941 1.390 . S
C939 H943 0.950 . S
H940 C936 0.950 . S
C941 C939 1.390 . S
C941 C942 1.387 . S
C941 H944 0.950 . S
C942 C941 1.387 . S
C942 C945 1.387 . S
H943 C939 0.950 . S
H944 C941 0.950 . S
C945 C936 1.390 . S
C945 H938 0.950 . S
C945 C942 1.387 . S
C946 C947 1.387 . S
C946 H950 0.950 . S
C946 C955 1.390 . S
C947 C946 1.387 . S
C947 C949 1.387 . S
H948 C955 0.950 . S
C949 C947 1.387 . S
C949 C951 1.390 . S
C949 H953 0.950 . S
H950 C946 0.950 . S
C951 C949 1.390 . S
C951 C952 1.387 . S
C951 H954 0.950 . S
C952 C951 1.387 . S
C952 C955 1.387 . S
H953 C949 0.950 . S
H954 C951 0.950 . S
C955 C946 1.390 . S
C955 H948 0.950 . S
C955 C952 1.387 . S
C956 C957 1.387 . S
C956 H960 0.950 . S
C956 C965 1.390 . S
C957 C956 1.387 . S
C957 C959 1.387 . S
H958 C965 0.950 . S
C959 C957 1.387 . S
C959 C961 1.390 . S
C959 H963 0.950 . S
H960 C956 0.950 . S
C961 C959 1.390 . S
C961 C962 1.387 . S
C961 H964 0.950 . S
C962 C961 1.387 . S
C962 C965 1.387 . S
H963 C959 0.950 . S
H964 C961 0.950 . S
C965 C956 1.390 . S
C965 H958 0.950 . S
C965 C962 1.387 . S
C966 C967 1.387 . S
C966 H970 0.950 . S
C966 C975 1.390 1_554 S
C967 C966 1.387 . S
C967 C969 1.387 . S
H968 C975 0.950 . S
C969 C967 1.387 . S
C969 C971 1.390 1_554 S
C969 H973 0.950 . S
H970 C966 0.950 . S
C971 C969 1.390 1_556 S
C971 C972 1.387 . S
C971 H974 0.950 . S
C972 C971 1.387 . S
C972 C975 1.387 . S
H973 C969 0.950 . S
H974 C971 0.950 . S
C975 C966 1.390 1_556 S
C975 H968 0.950 . S
C975 C972 1.387 . S
C976 C977 1.387 . S
C976 H980 0.950 . S
C976 C985 1.390 1_565 S
C977 C976 1.387 . S
C977 C979 1.387 . S
H978 C985 0.950 . S
C979 C977 1.387 . S
C979 C981 1.390 1_565 S
C979 H983 0.950 . S
H980 C976 0.950 . S
C981 C979 1.390 1_545 S
C981 C982 1.387 . S
C981 H984 0.950 . S
C982 C981 1.387 . S
C982 C985 1.387 . S
H983 C979 0.950 . S
H984 C981 0.950 . S
C985 C976 1.390 1_545 S
C985 H978 0.950 . S
C985 C982 1.387 . S
C986 C987 1.387 . S
C986 H990 0.950 . S
C986 C995 1.390 1_554 S
C987 C986 1.387 . S
C987 C989 1.387 . S
H988 C995 0.950 . S
C989 C987 1.387 . S
C989 C991 1.390 1_554 S
C989 H993 0.950 . S
H990 C986 0.950 . S
C991 C989 1.390 1_556 S
C991 C992 1.387 . S
C991 H994 0.950 . S
C992 C991 1.387 . S
C992 C995 1.387 . S
H993 C989 0.950 . S
H994 C991 0.950 . S
C995 C986 1.390 1_556 S
C995 H988 0.950 . S
C995 C992 1.387 . S
C996 C997 1.387 . S
C996 H1000 0.950 . S
C996 C1005 1.390 1_545 S
C997 C996 1.387 . S
C997 C999 1.387 . S
H998 C1005 0.950 . S
C999 C997 1.387 . S
C999 C1001 1.390 1_545 S
C999 H1003 0.950 . S
H1000 C996 0.950 . S
C1001 C999 1.390 1_565 S
C1001 C1002 1.387 . S
C1001 H1004 0.950 . S
C1002 C1001 1.387 . S
C1002 C1005 1.387 . S
H1003 C999 0.950 . S
H1004 C1001 0.950 . S
C1005 C996 1.390 1_565 S
C1005 H998 0.950 . S
C1005 C1002 1.387 . S
C1006 C1007 1.387 . S
C1006 H1010 0.950 . S
C1006 C1015 1.390 . S
C1007 C1006 1.387 . S
C1007 C1009 1.387 . S
H1008 C1015 0.950 . S
C1009 C1007 1.387 . S
C1009 C1011 1.390 . S
C1009 H1013 0.950 . S
H1010 C1006 0.950 . S
C1011 C1009 1.390 . S
C1011 C1012 1.387 . S
C1011 H1014 0.950 . S
C1012 C1011 1.387 . S
C1012 C1015 1.387 . S
H1013 C1009 0.950 . S
H1014 C1011 0.950 . S
C1015 C1006 1.390 . S
C1015 H1008 0.950 . S
C1015 C1012 1.387 . S
C1016 C1017 1.387 . S
C1016 H1020 0.950 . S
C1016 C1025 1.390 1_545 S
C1017 C1016 1.387 . S
C1017 C1019 1.387 . S
H1018 C1025 0.950 . S
C1019 C1017 1.387 . S
C1019 C1021 1.390 1_545 S
C1019 H1023 0.950 . S
H1020 C1016 0.950 . S
C1021 C1019 1.390 1_565 S
C1021 C1022 1.387 . S
C1021 H1024 0.950 . S
C1022 C1021 1.387 . S
C1022 C1025 1.387 . S
H1023 C1019 0.950 . S
H1024 C1021 0.950 . S
C1025 C1016 1.390 1_565 S
C1025 H1018 0.950 . S
C1025 C1022 1.387 . S
C1026 C1027 1.387 . S
C1026 H1030 0.950 . S
C1026 C1035 1.390 1_554 S
C1027 C1026 1.387 . S
C1027 C1029 1.387 . S
H1028 C1035 0.950 . S
C1029 C1027 1.387 . S
C1029 C1031 1.390 1_554 S
C1029 H1033 0.950 . S
H1030 C1026 0.950 . S
C1031 C1029 1.390 1_556 S
C1031 C1032 1.387 . S
C1031 H1034 0.950 . S
C1032 C1031 1.387 . S
C1032 C1035 1.387 . S
H1033 C1029 0.950 . S
H1034 C1031 0.950 . S
C1035 C1026 1.390 1_556 S
C1035 H1028 0.950 . S
C1035 C1032 1.387 . S
C1036 C1037 1.387 . S
C1036 H1040 0.950 . S
C1036 C1045 1.390 1_545 S
C1037 C1036 1.387 . S
C1037 C1039 1.387 . S
H1038 C1045 0.950 . S
C1039 C1037 1.387 . S
C1039 C1041 1.390 1_545 S
C1039 H1043 0.950 . S
H1040 C1036 0.950 . S
C1041 C1039 1.390 1_565 S
C1041 C1042 1.387 . S
C1041 H1044 0.950 . S
C1042 C1041 1.387 . S
C1042 C1045 1.387 . S
H1043 C1039 0.950 . S
H1044 C1041 0.950 . S
C1045 C1036 1.390 1_565 S
C1045 H1038 0.950 . S
C1045 C1042 1.387 . S
C1046 C1047 1.387 . S
C1046 H1050 0.950 . S
C1046 C1055 1.390 . S
C1047 C1046 1.387 . S
C1047 C1049 1.387 . S
H1048 C1055 0.950 . S
C1049 C1047 1.387 . S
C1049 C1051 1.390 . S
C1049 H1053 0.950 . S
H1050 C1046 0.950 . S
C1051 C1049 1.390 . S
C1051 C1052 1.387 . S
C1051 H1054 0.950 . S
C1052 C1051 1.387 . S
C1052 C1055 1.387 . S
H1053 C1049 0.950 . S
H1054 C1051 0.950 . S
C1055 C1046 1.390 . S
C1055 H1048 0.950 . S
C1055 C1052 1.387 . S
C417 C8 1.345 . S
C422 C281 1.345 . S
C427 C294 1.344 . S
C432 C21 1.344 . S
C437 C34 1.344 . S
C442 C307 1.344 . S
C447 C268 1.342 . S
C452 C47 1.342 . S
C457 C60 1.341 . S
C462 C255 1.341 . S
C467 C73 1.345 . S
C472 C216 1.345 . S
C477 C229 1.344 . S
C482 C86 1.344 . S
C487 C99 1.342 . S
C492 C242 1.342 . S
C497 C112 1.345 . S
C502 C385 1.345 . S
C507 C125 1.342 . S
C512 C398 1.341 . S
C517 C411 1.345 . S
C522 C138 1.345 . S
C527 C372 1.342 . S
C532 C151 1.342 . S
C537 C164 1.341 . S
C542 C359 1.341 . S
C547 C320 1.343 . S
C552 C177 1.343 . S
C557 C190 1.341 . S
C562 C333 1.341 . S
C567 C346 1.343 . S
C572 C203 1.343 . S
C577 C5 1.152 . S
C582 C127 1.278 . S
C587 C18 1.153 . S
C592 C348 1.244 1_655 S
C597 C153 1.278 . S
C602 C31 1.152 . S
C607 C44 1.156 . S
C612 C322 1.278 . S
C617 C57 1.158 . S
C622 C205 1.278 . S
C627 C374 1.278 . S
C632 C70 1.153 . S
C637 C179 1.278 . S
C642 C83 1.152 . S
C647 C400 1.245 1_655 S
C652 C96 1.157 . S
C657 C109 1.152 . S
C662 C23 1.278 . S
C667 C244 1.244 1_455 S
C672 C122 1.153 . S
C677 C49 1.278 . S
C682 C135 1.152 . S
C687 C148 1.153 . S
C692 C218 1.278 . S
C697 C101 1.278 . S
C702 C161 1.155 . S
C707 C270 1.278 . S
C712 C174 1.157 . S
C717 C75 1.278 . S
C722 C187 1.152 . S
C727 C200 1.157 . S
C732 C296 1.245 1_455 S
C737 C335 1.278 . S
C742 C213 1.152 . S
C747 C140 1.278 . S
C752 C226 1.158 . S
C757 C361 1.278 . S
C762 C239 1.158 . S
C767 C252 1.157 . S
C772 C114 1.245 1_455 S
C777 C413 1.278 . S
C782 C265 1.152 . S
C787 C166 1.245 1_455 S
C792 C278 1.152 . S
C797 C387 1.278 . S
C802 C291 1.152 . S
C807 C304 1.156 . S
C812 C192 1.278 . S
C817 C317 1.152 . S
C822 C231 1.278 . S
C827 C36 1.278 . S
C832 C330 1.157 . S
C837 C343 1.157 . S
C842 C257 1.278 . S
C847 C356 1.156 . S
C852 C10 1.245 1_655 S
C857 C369 1.158 . S
C862 C309 1.278 . S
C867 C62 1.244 1_655 S
C872 C382 1.152 . S
C877 C283 1.278 . S
C882 C395 1.155 . S
C887 C408 1.157 . S
C892 C88 1.278 . S
C897 C0 1.363 . S
C902 C52 1.363 . S
C907 C13 1.365 . S
C912 C65 1.365 . S
C917 C78 1.363 . S
C922 C26 1.363 . S
C927 C91 1.363 . S
C932 C39 1.363 . S
C937 C156 1.365 . S
C942 C104 1.365 . S
C947 C169 1.365 . S
C952 C117 1.365 . S
C957 C182 1.365 . S
C962 C130 1.365 . S
C967 C195 1.365 . S
C972 C143 1.365 . S
C977 C208 1.365 . S
C982 C260 1.365 . S
C987 C221 1.363 . S
C992 C273 1.363 . S
C997 C234 1.365 . S
C1002 C286 1.365 . S
C1007 C299 1.365 . S
C1012 C247 1.365 . S
C1017 C312 1.363 . S
C1022 C364 1.363 . S
C1027 C377 1.365 . S
C1032 C325 1.365 . S
C1037 C390 1.365 . S
C1042 C338 1.365 . S
C1047 C403 1.365 . S
C1052 C351 1.365 . S
