# Generated by pormake.
# Topology upa, (4)-cn, num edge types: 1
# Building blocks:
#     Node 0, Type 0, BuildingBlock: TATPOV_clean_sbu_0, # of connection points: 4
#     Node 1, Type 0, BuildingBlock: TATPOV_clean_sbu_0, # of connection points: 4
#     Node 2, Type 0, BuildingBlock: TATPOV_clean_sbu_0, # of connection points: 4
#     Node 3, Type 0, BuildingBlock: TATPOV_clean_sbu_0, # of connection points: 4
#     Node 4, Type 0, BuildingBlock: TATPOV_clean_sbu_0, # of connection points: 4
#     Node 5, Type 0, BuildingBlock: TATPOV_clean_sbu_0, # of connection points: 4
#     Node 6, Type 0, BuildingBlock: TATPOV_clean_sbu_0, # of connection points: 4
#     Node 7, Type 0, BuildingBlock: TATPOV_clean_sbu_0, # of connection points: 4
#     Edge 8, Type (0, 0), BuildingBlock: MIFKUJ_clean_linker_0, # of connection points: 2
#     Edge 9, Type (0, 0), BuildingBlock: MIFKUJ_clean_linker_0, # of connection points: 2
#     Edge 10, Type (0, 0), BuildingBlock: MIFKUJ_clean_linker_0, # of connection points: 2
#     Edge 11, Type (0, 0), BuildingBlock: MIFKUJ_clean_linker_0, # of connection points: 2
#     Edge 12, Type (0, 0), BuildingBlock: MIFKUJ_clean_linker_0, # of connection points: 2
#     Edge 13, Type (0, 0), BuildingBlock: MIFKUJ_clean_linker_0, # of connection points: 2
#     Edge 14, Type (0, 0), BuildingBlock: MIFKUJ_clean_linker_0, # of connection points: 2
#     Edge 15, Type (0, 0), BuildingBlock: MIFKUJ_clean_linker_0, # of connection points: 2
#     Edge 16, Type (0, 0), BuildingBlock: MIFKUJ_clean_linker_0, # of connection points: 2
#     Edge 17, Type (0, 0), BuildingBlock: MIFKUJ_clean_linker_0, # of connection points: 2
#     Edge 18, Type (0, 0), BuildingBlock: MIFKUJ_clean_linker_0, # of connection points: 2
#     Edge 19, Type (0, 0), BuildingBlock: MIFKUJ_clean_linker_0, # of connection points: 2
#     Edge 20, Type (0, 0), BuildingBlock: MIFKUJ_clean_linker_0, # of connection points: 2
#     Edge 21, Type (0, 0), BuildingBlock: MIFKUJ_clean_linker_0, # of connection points: 2
#     Edge 22, Type (0, 0), BuildingBlock: MIFKUJ_clean_linker_0, # of connection points: 2
#     Edge 23, Type (0, 0), BuildingBlock: MIFKUJ_clean_linker_0, # of connection points: 2
# Relax obj value: 0.178
# Max RMSD: 0.172
# Mean RMSD: 0.172
data_MOF--net-upa--node1-TATPOV_clean_sbu_0--edge1-MIFKUJ_clean_linker_0
_symmetry_space_group_name_H-M    P1
_symmetry_Int_Tables_number       1
_symmetry_cell_setting            triclinic
loop_
_symmetry_equiv_pos_as_xyz
'x, y, z'
_cell_length_a     34.172862
_cell_length_b     34.181795
_cell_length_c     56.511411
_cell_angle_alpha  90.049905
_cell_angle_beta   89.992209
_cell_angle_gamma 90.084433
loop_
_atom_site_label
_atom_site_type_symbol
_atom_site_fract_x
_atom_site_fract_y
_atom_site_fract_z
_atom_type_partial_charge
Zn0 Zn 0.10377 0.26822 0.3535 0.0
Zn1 Zn 0.1599 0.24517 0.32879 0.0
O2 O 0.12052 0.27674 0.30701 0.0
O3 O 0.08003 0.30621 0.33129 0.0
O4 O 0.21168 0.24088 0.31062 0.0
O5 O 0.13059 0.28557 0.38282 0.0
O6 O 0.17986 0.26058 0.36307 0.0
C7 C 0.09088 0.29898 0.31037 0.0
C8 C 0.10207 0.18462 0.34 0.0
O9 O 0.1352 0.19104 0.33037 0.0
O10 O 0.08433 0.21209 0.35064 0.0
C11 C 0.21963 0.21696 0.294 0.0
O12 O 0.19231 0.19279 0.28661 0.0
C13 C 0.16616 0.27574 0.38205 0.0
Zn14 Zn 0.24967 0.59064 0.86621 0.0
Zn15 Zn 0.2589 0.64824 0.83714 0.0
O16 O 0.22924 0.60511 0.81721 0.0
O17 O 0.21896 0.55843 0.84332 0.0
O18 O 0.25925 0.69881 0.81767 0.0
O19 O 0.22412 0.61927 0.89262 0.0
O20 O 0.23967 0.66944 0.87027 0.0
C21 C 0.21617 0.571 0.82235 0.0
C22 C 0.3305 0.60455 0.85225 0.0
O23 O 0.31589 0.63069 0.83888 0.0
O24 O 0.3088 0.58507 0.86612 0.0
C25 C 0.28337 0.70698 0.80119 0.0
O26 O 0.30907 0.68052 0.7947 0.0
C27 C 0.22672 0.65584 0.88986 0.0
Zn28 Zn 0.90057 0.747 0.36519 0.0
Zn29 Zn 0.8418 0.75634 0.33803 0.0
O30 O 0.882 0.72302 0.31802 0.0
O31 O 0.92869 0.71055 0.34372 0.0
O32 O 0.79025 0.75747 0.3194 0.0
O33 O 0.87342 0.72851 0.39382 0.0
O34 O 0.82139 0.73952 0.37205 0.0
C35 C 0.91512 0.70755 0.32298 0.0
C36 C 0.89233 0.82643 0.34885 0.0
O37 O 0.86296 0.8128 0.33762 0.0
O38 O 0.91225 0.80448 0.36226 0.0
C39 C 0.78133 0.78273 0.30374 0.0
O40 O 0.80739 0.80922 0.29773 0.0
C41 C 0.83666 0.72996 0.39191 0.0
Zn42 Zn 0.77487 0.40261 0.85684 0.0
Zn43 Zn 0.7538 0.34668 0.82967 0.0
O44 O 0.78309 0.38762 0.8079 0.0
O45 O 0.80609 0.43148 0.83278 0.0
O46 O 0.74829 0.29585 0.81065 0.0
O47 O 0.80018 0.37274 0.88278 0.0
O48 O 0.77395 0.32475 0.86239 0.0
C49 C 0.80171 0.41954 0.81177 0.0
C50 C 0.69041 0.39796 0.84738 0.0
O51 O 0.69917 0.36918 0.83407 0.0
O52 O 0.7168 0.41539 0.85918 0.0
C53 C 0.71853 0.28565 0.79853 0.0
O54 O 0.68912 0.3101 0.79644 0.0
C55 C 0.79147 0.33695 0.881 0.0
Zn56 Zn 0.60493 0.24796 0.12901 0.0
Zn57 Zn 0.66204 0.25836 0.15808 0.0
O58 O 0.61935 0.22788 0.17789 0.0
O59 O 0.57321 0.21623 0.15162 0.0
O60 O 0.71307 0.25855 0.17711 0.0
O61 O 0.63373 0.22361 0.10225 0.0
O62 O 0.68331 0.2403 0.12478 0.0
C63 C 0.5856 0.21396 0.17266 0.0
C64 C 0.61683 0.32906 0.14359 0.0
O65 O 0.64345 0.31509 0.1569 0.0
O66 O 0.59801 0.30694 0.12961 0.0
C67 C 0.72159 0.28099 0.19436 0.0
O68 O 0.69501 0.30545 0.2023 0.0
C69 C 0.6702 0.22728 0.10509 0.0
Zn70 Zn 0.24686 0.08908 0.63446 0.0
Zn71 Zn 0.24002 0.14758 0.66322 0.0
O72 O 0.27034 0.10463 0.68282 0.0
O73 O 0.27867 0.05724 0.6569 0.0
O74 O 0.24105 0.19847 0.68244 0.0
O75 O 0.27113 0.11692 0.60731 0.0
O76 O 0.25751 0.16786 0.62951 0.0
C77 C 0.2828 0.07032 0.67769 0.0
C78 C 0.16707 0.10414 0.65004 0.0
O79 O 0.1828 0.13054 0.6628 0.0
O80 O 0.18769 0.08401 0.63592 0.0
C81 C 0.2177 0.2066 0.69931 0.0
O82 O 0.19238 0.18001 0.70624 0.0
C83 C 0.26914 0.15358 0.60978 0.0
Zn84 Zn 0.39401 0.75779 0.13946 0.0
Zn85 Zn 0.33938 0.73937 0.16768 0.0
O86 O 0.38103 0.76999 0.18847 0.0
O87 O 0.42497 0.78904 0.16247 0.0
O88 O 0.2886 0.73587 0.18685 0.0
O89 O 0.36431 0.78333 0.11357 0.0
O90 O 0.31684 0.75763 0.1346 0.0
C91 C 0.41343 0.78718 0.18368 0.0
C92 C 0.38847 0.67401 0.15054 0.0
O93 O 0.36112 0.68403 0.16461 0.0
O94 O 0.40507 0.69937 0.13757 0.0
C95 C 0.28091 0.71278 0.20391 0.0
O96 O 0.3083 0.68902 0.21157 0.0
C97 C 0.32859 0.77463 0.11572 0.0
Zn98 Zn 0.72177 0.90667 0.63817 0.0
Zn99 Zn 0.74149 0.84795 0.6629 0.0
O100 O 0.71106 0.88657 0.68545 0.0
O101 O 0.68605 0.93097 0.66178 0.0
O102 O 0.74773 0.79611 0.6807 0.0
O103 O 0.70225 0.87975 0.60957 0.0
O104 O 0.72158 0.82815 0.62946 0.0
C105 C 0.69103 0.9178 0.68245 0.0
C106 C 0.80479 0.90385 0.64985 0.0
O107 O 0.79618 0.87192 0.66026 0.0
O108 O 0.77859 0.92313 0.63912 0.0
C109 C 0.77527 0.78808 0.69508 0.0
O110 O 0.80117 0.81524 0.70021 0.0
C111 C 0.70778 0.84328 0.61052 0.0
H112 H 0.12845 0.11846 0.3173 0.0
H113 H 0.09255 0.05692 0.31147 0.0
H114 H 0.99495 0.1035 0.35081 0.0
H115 H 0.0301 0.16454 0.35663 0.0
H116 H 0.06555 0.00548 0.34346 0.0
H117 H 0.9099 0.07124 0.32813 0.0
H118 H 0.88022 0.12855 0.30869 0.0
H119 H 0.98055 0.13953 0.26346 0.0
H120 H 0.01062 0.08195 0.28235 0.0
H121 H 0.92529 0.87465 0.38113 0.0
H122 H 0.9605 0.93546 0.37346 0.0
H123 H 0.92967 0.92802 0.29953 0.0
H124 H 0.89285 0.86758 0.30741 0.0
H125 H 0.92872 0.00227 0.31398 0.0
H126 H 0.02199 0.89778 0.31817 0.0
H127 H 0.0545 0.83978 0.33526 0.0
H128 H 0.08211 0.9049 0.39801 0.0
H129 H 0.05004 0.96329 0.38133 0.0
C130 C 0.0994 0.11546 0.32476 0.0
C131 C 0.08221 0.14638 0.33747 0.0
C132 C 0.0789 0.08042 0.32133 0.0
C133 C 0.04082 0.07599 0.33032 0.0
C134 C 0.02394 0.1066 0.34326 0.0
C135 C 0.04433 0.14139 0.34678 0.0
C136 C 0.01912 0.03878 0.32752 0.0
C137 C 0.0358 0.00467 0.33677 0.0
C138 C 0.98058 0.03763 0.31831 0.0
C139 C 0.96258 0.07226 0.30675 0.0
C140 C 0.92554 0.0857 0.31393 0.0
C141 C 0.90866 0.11826 0.30302 0.0
C142 C 0.92843 0.13756 0.2848 0.0
C143 C 0.96524 0.12449 0.27754 0.0
C144 C 0.98225 0.09194 0.28839 0.0
C145 C 0.92531 0.88647 0.36334 0.0
C146 C 0.90648 0.86655 0.34485 0.0
C147 C 0.94577 0.92095 0.35892 0.0
C148 C 0.94876 0.93558 0.3358 0.0
C149 C 0.92802 0.91701 0.31747 0.0
C150 C 0.90682 0.88271 0.322 0.0
C151 C 0.97459 0.96952 0.33096 0.0
C152 C 0.95871 0.00294 0.32026 0.0
C153 C 0.01415 0.96996 0.33847 0.0
C154 C 0.03346 0.93484 0.34853 0.0
C155 C 0.03484 0.89965 0.33565 0.0
C156 C 0.0532 0.86674 0.34525 0.0
C157 C 0.07012 0.86862 0.36772 0.0
C158 C 0.06896 0.90348 0.38061 0.0
C159 C 0.05086 0.93653 0.37106 0.0
H160 H 0.08424 0.84308 0.37512 0.0
H161 H 0.91524 0.16269 0.27634 0.0
H162 H 0.37879 0.57981 0.88722 0.0
H163 H 0.44313 0.5493 0.88249 0.0
H164 H 0.43824 0.56991 0.80729 0.0
H165 H 0.37431 0.60189 0.81202 0.0
H166 H 0.44794 0.48374 0.82982 0.0
H167 H 0.50165 0.61385 0.82349 0.0
H168 H 0.51094 0.68235 0.83601 0.0
H169 H 0.55702 0.64362 0.90266 0.0
H170 H 0.54741 0.57484 0.89067 0.0
H171 H 0.63646 0.39587 0.81176 0.0
H172 H 0.5757 0.43355 0.80954 0.0
H173 H 0.59389 0.47434 0.88105 0.0
H174 H 0.65532 0.43822 0.88289 0.0
H175 H 0.57795 0.53321 0.85495 0.0
H176 H 0.52116 0.40535 0.86443 0.0
H177 H 0.50905 0.33593 0.85501 0.0
H178 H 0.46586 0.36807 0.78638 0.0
H179 H 0.47826 0.43769 0.79527 0.0
C180 C 0.39196 0.57879 0.86979 0.0
C181 C 0.37182 0.59322 0.84999 0.0
C182 C 0.42854 0.56135 0.86711 0.0
C183 C 0.44509 0.55737 0.84456 0.0
C184 C 0.42578 0.57296 0.82483 0.0
C185 C 0.38954 0.59138 0.82757 0.0
C186 C 0.4808 0.53375 0.84172 0.0
C187 C 0.47665 0.49458 0.83478 0.0
C188 C 0.51764 0.5479 0.84898 0.0
C189 C 0.52339 0.5892 0.85627 0.0
C190 C 0.51334 0.61994 0.84092 0.0
C191 C 0.51877 0.65882 0.84789 0.0
C192 C 0.53445 0.66734 0.87015 0.0
C193 C 0.54482 0.63698 0.88545 0.0
C194 C 0.53942 0.59804 0.87856 0.0
C195 C 0.62698 0.41225 0.82715 0.0
C196 C 0.65053 0.41425 0.84748 0.0
C197 C 0.59228 0.4338 0.82587 0.0
C198 C 0.58018 0.45685 0.84513 0.0
C199 C 0.60279 0.45712 0.86587 0.0
C200 C 0.63774 0.43627 0.86697 0.0
C201 C 0.54529 0.48252 0.84343 0.0
C202 C 0.5495 0.52217 0.84961 0.0
C203 C 0.50832 0.46856 0.83584 0.0
C204 C 0.50112 0.42669 0.8304 0.0
C205 C 0.50945 0.39759 0.84724 0.0
C206 C 0.50246 0.35821 0.84202 0.0
C207 C 0.48683 0.34758 0.82008 0.0
C208 C 0.47806 0.37633 0.80334 0.0
C209 C 0.48506 0.41576 0.80847 0.0
H210 H 0.48141 0.31708 0.81608 0.0
H211 H 0.53866 0.69746 0.87551 0.0
H212 H 0.59021 0.37708 0.10904 0.0
H213 H 0.5556 0.43908 0.11438 0.0
H214 H 0.57626 0.43342 0.18958 0.0
H215 H 0.61207 0.37172 0.18424 0.0
H216 H 0.49346 0.43965 0.17309 0.0
H217 H 0.61802 0.50239 0.16611 0.0
H218 H 0.68245 0.51575 0.14821 0.0
H219 H 0.62669 0.553 0.084 0.0
H220 H 0.5619 0.53931 0.10139 0.0
H221 H 0.39496 0.62483 0.18839 0.0
H222 H 0.43577 0.56606 0.1906 0.0
H223 H 0.4596 0.57498 0.11575 0.0
H224 H 0.42039 0.63447 0.11378 0.0
H225 H 0.5246 0.56884 0.13795 0.0
H226 H 0.40129 0.50097 0.14215 0.0
H227 H 0.33616 0.4839 0.15785 0.0
H228 H 0.3875 0.45278 0.22457 0.0
H229 H 0.45291 0.47037 0.2094 0.0
C230 C 0.58835 0.38967 0.12661 0.0
C231 C 0.6038 0.36983 0.14622 0.0
C232 C 0.56855 0.42495 0.12964 0.0
C233 C 0.5633 0.44054 0.15237 0.0
C234 C 0.58014 0.42171 0.17192 0.0
C235 C 0.6008 0.38677 0.16882 0.0
C236 C 0.5372 0.4745 0.15558 0.0
C237 C 0.5004 0.46827 0.16591 0.0
C238 C 0.54616 0.51121 0.14556 0.0
C239 C 0.58509 0.51952 0.13501 0.0
C240 C 0.61949 0.51309 0.1481 0.0
C241 C 0.65608 0.5208 0.13806 0.0
C242 C 0.65867 0.53513 0.11496 0.0
C243 C 0.62465 0.54187 0.10188 0.0
C244 C 0.58798 0.53419 0.11184 0.0
C245 C 0.40809 0.61354 0.17233 0.0
C246 C 0.40472 0.63414 0.15093 0.0
C247 C 0.43147 0.58 0.1736 0.0
C248 C 0.45099 0.56615 0.15336 0.0
C249 C 0.44525 0.58533 0.13167 0.0
C250 C 0.42263 0.61914 0.13051 0.0
C251 C 0.47998 0.53391 0.15486 0.0
C252 C 0.51751 0.54048 0.14544 0.0
C253 C 0.4714 0.49734 0.16545 0.0
C254 C 0.43196 0.48754 0.17474 0.0
C255 C 0.39866 0.49097 0.16027 0.0
C256 C 0.36169 0.48111 0.16905 0.0
C257 C 0.35767 0.46743 0.19222 0.0
C258 C 0.39063 0.46354 0.20665 0.0
C259 C 0.42766 0.47346 0.19797 0.0
H260 H 0.32904 0.45971 0.19897 0.0
H261 H 0.68703 0.54109 0.10722 0.0
H262 H 0.11673 0.07838 0.61638 0.0
H263 H 0.05189 0.04963 0.62269 0.0
H264 H 0.06062 0.07397 0.69738 0.0
H265 H 0.1251 0.10423 0.69105 0.0
H266 H 0.04757 0.98461 0.67171 0.0
H267 H 0.99774 0.11491 0.68823 0.0
H268 H 0.99021 0.18526 0.67977 0.0
H269 H 0.9399 0.15807 0.61208 0.0
H270 H 0.94773 0.08753 0.62002 0.0
H271 H 0.85739 0.89566 0.686 0.0
H272 H 0.91778 0.93338 0.69174 0.0
H273 H 0.90073 0.98865 0.62385 0.0
H274 H 0.83997 0.95234 0.61854 0.0
H275 H 0.91726 0.04171 0.65469 0.0
H276 H 0.97086 0.91508 0.63459 0.0
H277 H 0.98134 0.8441 0.63911 0.0
H278 H 0.0272 0.86253 0.70898 0.0
H279 H 0.01649 0.93362 0.70499 0.0
C280 C 0.10434 0.07853 0.63404 0.0
C281 C 0.12569 0.09354 0.65323 0.0
C282 C 0.06747 0.06211 0.63761 0.0
C283 C 0.05176 0.0598 0.66046 0.0
C284 C 0.07234 0.07588 0.6796 0.0
C285 C 0.10893 0.09326 0.67594 0.0
C286 C 0.01552 0.03727 0.66417 0.0
C287 C 0.01884 0.99708 0.66862 0.0
C288 C 0.97854 0.05365 0.65944 0.0
C289 C 0.97376 0.09599 0.65461 0.0
C290 C 0.98551 0.12395 0.67143 0.0
C291 C 0.98107 0.16385 0.66676 0.0
C292 C 0.9647 0.17614 0.64537 0.0
C293 C 0.95263 0.14852 0.62863 0.0
C294 C 0.95703 0.10858 0.63321 0.0
C295 C 0.86705 0.91533 0.67215 0.0
C296 C 0.84418 0.92106 0.65179 0.0
C297 C 0.90144 0.93695 0.67547 0.0
C298 C 0.91379 0.96391 0.65822 0.0
C299 C 0.89161 0.96838 0.63751 0.0
C300 C 0.85706 0.94738 0.6344 0.0
C301 C 0.94914 0.98847 0.66169 0.0
C302 C 0.94572 0.0291 0.65843 0.0
C303 C 0.98617 0.9723 0.66715 0.0
C304 C 0.99237 0.92958 0.66961 0.0
C305 C 0.98283 0.90395 0.651 0.0
C306 C 0.98888 0.86372 0.65345 0.0
C307 C 0.00478 0.8488 0.67435 0.0
C308 C 0.01477 0.87411 0.69283 0.0
C309 C 0.00872 0.91437 0.69048 0.0
H310 H 0.00947 0.81765 0.67621 0.0
H311 H 0.96126 0.20704 0.64179 0.0
H312 H 0.1521 0.31943 0.42151 0.0
H313 H 0.181 0.31127 0.46066 0.0
H314 H 0.2597 0.22409 0.43275 0.0
H315 H 0.23148 0.23294 0.39331 0.0
H316 H 0.1753 0.24806 0.48562 0.0
H317 H 0.339 0.21287 0.46883 0.0
H318 H 0.39226 0.23282 0.44193 0.0
H319 H 0.33642 0.34377 0.43092 0.0
H320 H 0.28313 0.32472 0.458 0.0
H321 H 0.30616 0.13507 0.56848 0.0
H322 H 0.29956 0.16836 0.53048 0.0
H323 H 0.23501 0.26117 0.56428 0.0
H324 H 0.24138 0.2279 0.60247 0.0
H325 H 0.31466 0.24074 0.50973 0.0
H326 H 0.15376 0.27756 0.52972 0.0
H327 H 0.10044 0.25595 0.55617 0.0
H328 H 0.15058 0.14096 0.55944 0.0
H329 H 0.20378 0.16171 0.53274 0.0
C330 C 0.17628 0.29925 0.42355 0.0
C331 C 0.18936 0.27671 0.40427 0.0
C332 C 0.19269 0.2945 0.44601 0.0
C333 C 0.22249 0.26696 0.44982 0.0
C334 C 0.23715 0.24595 0.43032 0.0
C335 C 0.22096 0.25101 0.40771 0.0
C336 C 0.23494 0.25734 0.47446 0.0
C337 C 0.20579 0.24742 0.49095 0.0
C338 C 0.27474 0.25527 0.48141 0.0
C339 C 0.30688 0.26719 0.46529 0.0
C340 C 0.33817 0.24159 0.46075 0.0
C341 C 0.36835 0.25273 0.44545 0.0
C342 C 0.36766 0.28949 0.43467 0.0
C343 C 0.33685 0.31524 0.43922 0.0
C344 C 0.30661 0.30426 0.45451 0.0
C345 C 0.29147 0.16312 0.56799 0.0
C346 C 0.27387 0.17858 0.58849 0.0
C347 C 0.28783 0.18218 0.54621 0.0
C348 C 0.26622 0.2169 0.54444 0.0
C349 C 0.25147 0.23416 0.56521 0.0
C350 C 0.25533 0.21521 0.58707 0.0
C351 C 0.25497 0.23196 0.52069 0.0
C352 C 0.28422 0.24234 0.50438 0.0
C353 C 0.21524 0.23439 0.51377 0.0
C354 C 0.18301 0.22138 0.52951 0.0
C355 C 0.15331 0.24765 0.53605 0.0
C356 C 0.12312 0.23554 0.55107 0.0
C357 C 0.12222 0.19716 0.55956 0.0
C358 C 0.15139 0.17073 0.55293 0.0
C359 C 0.18158 0.18266 0.53787 0.0
H360 H 0.09886 0.18787 0.57122 0.0
H361 H 0.39104 0.29804 0.42282 0.0
H362 H 0.18928 0.63802 0.93113 0.0
H363 H 0.1939 0.67303 0.9686 0.0
H364 H 0.25719 0.76621 0.93416 0.0
H365 H 0.25296 0.73102 0.89645 0.0
H366 H 0.29723 0.7369 0.97086 0.0
H367 H 0.16678 0.78248 0.95922 0.0
H368 H 0.09649 0.77694 0.94997 0.0
H369 H 0.0802 0.70081 0.00957 0.0
H370 H 0.15051 0.70542 0.019 0.0
H371 H 0.33569 0.82564 0.07891 0.0
H372 H 0.30516 0.81988 0.03997 0.0
H373 H 0.23529 0.72324 0.06506 0.0
H374 H 0.26481 0.72983 0.10435 0.0
H375 H 0.19585 0.76318 0.03167 0.0
H376 H 0.32462 0.7078 0.03927 0.0
H377 H 0.39509 0.70838 0.0487 0.0
H378 H 0.4143 0.79739 0.99638 0.0
H379 H 0.34379 0.79773 0.98688 0.0
C380 C 0.20324 0.6665 0.93133 0.0
C381 C 0.22104 0.68155 0.91079 0.0
C382 C 0.20571 0.68661 0.95283 0.0
C383 C 0.22591 0.72232 0.95429 0.0
C384 C 0.24144 0.73871 0.93348 0.0
C385 C 0.23879 0.71865 0.91188 0.0
C386 C 0.23534 0.73941 0.97788 0.0
C387 C 0.27494 0.74367 0.98391 0.0
C388 C 0.2064 0.74683 0.99527 0.0
C389 C 0.16402 0.74412 0.98973 0.0
C390 C 0.14828 0.76432 0.97026 0.0
C391 C 0.10841 0.76139 0.965 0.0
C392 C 0.08391 0.73849 0.97915 0.0
C393 C 0.09921 0.71854 -0.00138 0.0
C394 C 0.13907 0.72136 0.00396 0.0
C395 C 0.31292 0.80396 0.07635 0.0
C396 C 0.30299 0.77789 0.09463 0.0
C397 C 0.29562 0.80055 0.05403 0.0
C398 C 0.26876 0.77036 0.04935 0.0
C399 C 0.25614 0.74659 0.06816 0.0
C400 C 0.273 0.75043 0.09066 0.0
C401 C 0.25767 0.76061 0.02451 0.0
C402 C 0.21796 0.75731 0.01837 0.0
C403 C 0.28648 0.75343 0.00699 0.0
C404 C 0.3289 0.75313 0.01257 0.0
C405 C 0.34385 0.72769 0.0299 0.0
C406 C 0.38378 0.72783 0.03524 0.0
C407 C 0.40914 0.75299 0.0232 0.0
C408 C 0.39461 0.77799 0.00573 0.0
C409 C 0.35467 0.77803 0.00036 0.0
H410 H 0.44006 0.75305 0.02735 0.0
H411 H 0.05305 0.73624 0.97504 0.0
H412 H 0.70542 0.87135 0.56574 0.0
H413 H 0.7105 0.83547 0.52913 0.0
H414 H 0.70556 0.72638 0.56755 0.0
H415 H 0.70363 0.76296 0.60497 0.0
H416 H 0.75607 0.7169 0.53825 0.0
H417 H 0.62944 0.76011 0.52564 0.0
H418 H 0.57186 0.80343 0.52509 0.0
H419 H 0.62829 0.87769 0.4742 0.0
H420 H 0.68648 0.83522 0.47468 0.0
H421 H 0.75666 0.71857 0.39621 0.0
H422 H 0.71835 0.7178 0.43307 0.0
H423 H 0.82453 0.73567 0.4731 0.0
H424 H 0.8624 0.7336 0.43715 0.0
H425 H 0.70228 0.76739 0.46275 0.0
H426 H 0.82555 0.70897 0.52695 0.0
H427 H 0.87403 0.6557 0.52733 0.0
H428 H 0.80758 0.59312 0.47507 0.0
H429 H 0.75831 0.64571 0.47461 0.0
C430 C 0.70461 0.83969 0.56654 0.0
C431 C 0.70402 0.82007 0.58839 0.0
C432 C 0.70709 0.81899 0.54535 0.0
C433 C 0.70748 0.77789 0.54518 0.0
C434 C 0.70523 0.75804 0.56701 0.0
C435 C 0.70392 0.77894 0.58843 0.0
C436 C 0.71482 0.75668 0.52241 0.0
C437 C 0.74382 0.72759 0.5218 0.0
C438 C 0.69743 0.76859 0.50077 0.0
C439 C 0.66243 0.79438 0.50023 0.0
C440 C 0.62968 0.78577 0.51441 0.0
C441 C 0.59691 0.81019 0.51411 0.0
C442 C 0.59642 0.84328 0.49962 0.0
C443 C 0.62869 0.852 0.48538 0.0
C444 C 0.66155 0.82769 0.48562 0.0
C445 C 0.77173 0.72128 0.41299 0.0
C446 C 0.81264 0.72571 0.41369 0.0
C447 C 0.74983 0.72101 0.43408 0.0
C448 C 0.76841 0.72578 0.45618 0.0
C449 C 0.80926 0.73017 0.45664 0.0
C450 C 0.83105 0.72941 0.43584 0.0
C451 C 0.74572 0.73017 0.47868 0.0
C452 C 0.71372 0.75589 0.47922 0.0
C453 C 0.75877 0.71345 0.50026 0.0
C454 C 0.78818 0.68142 0.50073 0.0
C455 C 0.82103 0.68371 0.51569 0.0
C456 C 0.84873 0.65366 0.51587 0.0
C457 C 0.84391 0.62107 0.50122 0.0
C458 C 0.81132 0.61843 0.48638 0.0
C459 C 0.78352 0.64838 0.48613 0.0
H460 H 0.86542 0.59786 0.50137 0.0
H461 H 0.57102 0.86217 0.49943 0.0
H462 H 0.83973 0.34781 0.9189 0.0
H463 H 0.8346 0.31657 0.95761 0.0
H464 H 0.74454 0.23996 0.93066 0.0
H465 H 0.75043 0.27037 0.8917 0.0
H466 H 0.77329 0.32249 0.98388 0.0
H467 H 0.73269 0.16009 0.96534 0.0
H468 H 0.75078 0.10729 0.93767 0.0
H469 H 0.86284 0.16107 0.92635 0.0
H470 H 0.84568 0.2139 0.95419 0.0
H471 H 0.6532 0.19188 0.06298 0.0
H472 H 0.68881 0.1988 0.0258 0.0
H473 H 0.78134 0.26012 0.06219 0.0
H474 H 0.7456 0.25366 0.09956 0.0
H475 H 0.76078 0.18267 0.00607 0.0
H476 H 0.80378 0.34075 0.02877 0.0
H477 H 0.78402 0.39393 0.05583 0.0
H478 H 0.66659 0.34909 0.05721 0.0
H479 H 0.68553 0.29605 0.02991 0.0
C480 C 0.81971 0.32346 0.92101 0.0
C481 C 0.79533 0.31173 0.90223 0.0
C482 C 0.81667 0.30571 0.94321 0.0
C483 C 0.78905 0.27597 0.94723 0.0
C484 C 0.76652 0.26241 0.92805 0.0
C485 C 0.76988 0.27988 0.90571 0.0
C486 C 0.78031 0.26298 0.97188 0.0
C487 C 0.77163 0.29185 0.9888 0.0
C488 C 0.77695 0.22305 0.97831 0.0
C489 C 0.78773 0.19115 0.96173 0.0
C490 C 0.76127 0.16056 0.95704 0.0
C491 C 0.77135 0.13064 0.9413 0.0
C492 C 0.80789 0.13088 0.93021 0.0
C493 C 0.83449 0.16099 0.93489 0.0
C494 C 0.82457 0.19097 0.95062 0.0
C495 C 0.6816 0.20599 0.06324 0.0
C496 C 0.69625 0.22276 0.08422 0.0
C497 C 0.70202 0.20977 0.04193 0.0
C498 C 0.73738 0.2306 0.0411 0.0
C499 C 0.75382 0.24435 0.06236 0.0
C500 C 0.73343 0.24046 0.08376 0.0
C501 C 0.75397 0.24219 0.01778 0.0
C502 C 0.76358 0.21321 0.00114 0.0
C503 C 0.75813 0.28205 0.01146 0.0
C504 C 0.74623 0.31418 0.02757 0.0
C505 C 0.77374 0.34234 0.03482 0.0
C506 C 0.76268 0.37245 0.05019 0.0
C507 C 0.72412 0.37479 0.05831 0.0
C508 C 0.69648 0.34716 0.05098 0.0
C509 C 0.70737 0.31706 0.03558 0.0
H510 H 0.71563 0.39808 0.07023 0.0
H511 H 0.81562 0.1077 0.91802 0.0
H512 H 0.58106 0.2401 0.21849 0.0
H513 H 0.52357 0.23594 0.24444 0.0
H514 H 0.4666 0.16035 0.19391 0.0
H515 H 0.52367 0.16437 0.16809 0.0
H516 H 0.45186 0.26347 0.2317 0.0
H517 H 0.39915 0.10314 0.22102 0.0
H518 H 0.42735 0.037 0.21762 0.0
H519 H 0.53019 0.07505 0.25478 0.0
H520 H 0.5024 0.14126 0.2587 0.0
H521 H 0.2454 0.17238 0.25679 0.0
H522 H 0.31139 0.16898 0.24025 0.0
H523 H 0.35131 0.2534 0.29167 0.0
H524 H 0.28514 0.2576 0.30796 0.0
H525 H 0.37836 0.14581 0.25747 0.0
H526 H 0.42788 0.30703 0.26886 0.0
H527 H 0.39997 0.37358 0.26908 0.0
H528 H 0.30305 0.33384 0.22707 0.0
H529 H 0.33065 0.26723 0.22631 0.0
C530 C 0.55691 0.22136 0.21336 0.0
C531 C 0.55702 0.20246 0.19124 0.0
C532 C 0.52384 0.21938 0.22808 0.0
C533 C 0.49059 0.19791 0.22116 0.0
C534 C 0.49189 0.17678 0.19985 0.0
C535 C 0.52466 0.17906 0.18507 0.0
C536 C 0.45312 0.20071 0.23468 0.0
C537 C 0.4362 0.23778 0.23785 0.0
C538 C 0.43197 0.16717 0.24199 0.0
C539 C 0.44877 0.12728 0.23999 0.0
C540 C 0.42769 0.09736 0.22857 0.0
C541 C 0.44363 0.05986 0.22653 0.0
C542 C 0.48058 0.05186 0.23592 0.0
C543 C 0.50163 0.08132 0.24744 0.0
C544 C 0.48582 0.11887 0.24954 0.0
C545 C 0.26813 0.19041 0.26454 0.0
C546 C 0.25976 0.21541 0.28367 0.0
C547 C 0.306 0.18831 0.25509 0.0
C548 C 0.33652 0.21114 0.26451 0.0
C549 C 0.3283 0.23595 0.28375 0.0
C550 C 0.29036 0.23822 0.29313 0.0
C551 C 0.37685 0.20859 0.25428 0.0
C552 C 0.39424 0.17157 0.25165 0.0
C553 C 0.39828 0.24218 0.24722 0.0
C554 C 0.38109 0.28201 0.24783 0.0
C555 C 0.40061 0.3125 0.25968 0.0
C556 C 0.38486 0.35024 0.25988 0.0
C557 C 0.34969 0.3579 0.24817 0.0
C558 C 0.3302 0.32783 0.23622 0.0
C559 C 0.34585 0.29006 0.23594 0.0
H560 H 0.3376 0.38715 0.2483 0.0
H561 H 0.49287 0.02281 0.23431 0.0
H562 H 0.24287 0.77243 0.81516 0.0
H563 H 0.24689 0.83843 0.79866 0.0
H564 H 0.32942 0.79788 0.74636 0.0
H565 H 0.32635 0.73212 0.76319 0.0
H566 H 0.3535 0.86489 0.76291 0.0
H567 H 0.23014 0.81743 0.73364 0.0
H568 H 0.16367 0.78957 0.7363 0.0
H569 H 0.12715 0.88653 0.77928 0.0
H570 H 0.19358 0.91472 0.77712 0.0
H571 H 0.3316 0.00804 0.67274 0.0
H572 H 0.33652 0.95165 0.699 0.0
H573 H 0.26395 0.01028 0.75035 0.0
H574 H 0.25896 0.06714 0.72399 0.0
H575 H 0.23516 0.93833 0.73855 0.0
H576 H 0.35863 0.98898 0.7634 0.0
H577 H 0.42484 0.01655 0.75848 0.0
H578 H 0.46108 0.91298 0.72149 0.0
H579 H 0.39492 0.88499 0.72589 0.0
C580 C 0.26172 0.77747 0.80005 0.0
C581 C 0.28417 0.7468 0.79047 0.0
C582 C 0.26393 0.81531 0.79057 0.0
C583 C 0.28818 0.82332 0.77104 0.0
C584 C 0.31055 0.79267 0.76144 0.0
C585 C 0.30861 0.75493 0.77103 0.0
C586 C 0.29057 0.86352 0.76065 0.0
C587 C 0.32759 0.88075 0.7574 0.0
C588 C 0.25683 0.88496 0.75401 0.0
C589 C 0.21695 0.86793 0.75545 0.0
C590 C 0.20803 0.83263 0.74383 0.0
C591 C 0.17034 0.81681 0.74521 0.0
C592 C 0.14124 0.8362 0.75801 0.0
C593 C 0.14974 0.8715 0.76941 0.0
C594 C 0.1874 0.88742 0.76811 0.0
C595 C 0.3178 0.00954 0.68998 0.0
C596 C 0.295 0.04218 0.69629 0.0
C597 C 0.32059 0.97717 0.705 0.0
C598 C 0.30053 0.97652 0.72669 0.0
C599 C 0.27968 0.01005 0.73371 0.0
C600 C 0.27724 0.04275 0.71875 0.0
C601 C 0.29807 0.93941 0.74054 0.0
C602 C 0.26103 0.92269 0.74438 0.0
C603 C 0.33179 0.91831 0.74748 0.0
C604 C 0.37168 0.935 0.74484 0.0
C605 C 0.38062 0.9722 0.75406 0.0
C606 C 0.41817 0.98788 0.75139 0.0
C607 C 0.44712 0.96656 0.73964 0.0
C608 C 0.43861 0.92947 0.73058 0.0
C609 C 0.4011 0.91366 0.73318 0.0
H610 H 0.47618 0.97875 0.7376 0.0
H611 H 0.11207 0.82393 0.75905 0.0
H612 H 0.71696 0.73867 0.31595 0.0
H613 H 0.65098 0.74167 0.29895 0.0
H614 H 0.68897 0.83223 0.25108 0.0
H615 H 0.75477 0.82934 0.26783 0.0
H616 H 0.5967 0.80105 0.29589 0.0
H617 H 0.64448 0.81961 0.19798 0.0
H618 H 0.69848 0.79957 0.17166 0.0
H619 H 0.7214 0.70022 0.21596 0.0
H620 H 0.66723 0.71934 0.24234 0.0
H621 H 0.47159 0.84135 0.18106 0.0
H622 H 0.53022 0.84435 0.20561 0.0
H623 H 0.48123 0.75741 0.25232 0.0
H624 H 0.42202 0.75466 0.22783 0.0
H625 H 0.578 0.7835 0.20952 0.0
H626 H 0.52987 0.7631 0.30668 0.0
H627 H 0.47533 0.78144 0.33304 0.0
H628 H 0.4519 0.88241 0.2902 0.0
H629 H 0.50659 0.86498 0.26377 0.0
C630 C 0.71133 0.75912 0.30173 0.0
C631 C 0.74136 0.7836 0.29318 0.0
C632 C 0.67348 0.76097 0.29213 0.0
C633 C 0.66495 0.78699 0.27361 0.0
C634 C 0.69483 0.81158 0.26517 0.0
C635 C 0.73254 0.80991 0.27481 0.0
C636 C 0.62511 0.78823 0.26276 0.0
C637 C 0.5925 0.79671 0.27705 0.0
C638 C 0.61954 0.78308 0.23813 0.0
C639 C 0.65205 0.77119 0.22227 0.0
C640 C 0.66097 0.79343 0.20206 0.0
C641 C 0.69162 0.78223 0.18713 0.0
C642 C 0.71344 0.74873 0.19218 0.0
C643 C 0.70459 0.72626 0.21212 0.0
C644 C 0.67395 0.73731 0.22709 0.0
C645 C 0.47265 0.82385 0.19702 0.0
C646 C 0.4421 0.79771 0.20243 0.0
C647 C 0.5064 0.82536 0.21097 0.0
C648 C 0.51054 0.80078 0.2307 0.0
C649 C 0.47877 0.77688 0.23729 0.0
C650 C 0.44473 0.77551 0.22334 0.0
C651 C 0.54952 0.79726 0.24251 0.0
C652 C 0.58207 0.78799 0.22837 0.0
C653 C 0.55484 0.80149 0.26724 0.0
C654 C 0.52205 0.81244 0.2831 0.0
C655 C 0.51314 0.78927 0.30292 0.0
C656 C 0.48219 0.7995 0.31787 0.0
C657 C 0.46007 0.83298 0.31325 0.0
C658 C 0.46894 0.85638 0.2937 0.0
C659 C 0.49987 0.84629 0.2787 0.0
H660 H 0.43612 0.84085 0.32484 0.0
H661 H 0.73716 0.74011 0.18061 0.0
H662 H 0.66157 0.25618 0.76942 0.0
H663 H 0.6551 0.18958 0.75426 0.0
H664 H 0.76187 0.15694 0.78978 0.0
H665 H 0.76905 0.22393 0.80456 0.0
H666 H 0.76028 0.12455 0.74754 0.0
H667 H 0.67002 0.13131 0.81185 0.0
H668 H 0.61587 0.15835 0.83558 0.0
H669 H 0.53695 0.1418 0.7773 0.0
H670 H 0.59077 0.11515 0.75309 0.0
H671 H 0.73093 0.92407 0.72424 0.0
H672 H 0.73304 0.98222 0.74957 0.0
H673 H 0.63738 0.03249 0.71032 0.0
H674 H 0.63522 0.97463 0.68493 0.0
H675 H 0.63531 0.05253 0.75822 0.0
H676 H 0.72793 0.0503 0.69335 0.0
H677 H 0.78209 0.02171 0.67026 0.0
H678 H 0.85728 0.02867 0.73098 0.0
H679 H 0.80329 0.05661 0.75458 0.0
C680 C 0.68381 0.23494 0.77397 0.0
C681 C 0.71575 0.24551 0.78833 0.0
C682 C 0.67992 0.19667 0.76539 0.0
C683 C 0.70756 0.1678 0.77123 0.0
C684 C 0.74001 0.17851 0.78509 0.0
C685 C 0.74407 0.2169 0.79356 0.0
C686 C 0.70252 0.12659 0.76281 0.0
C687 C 0.73318 0.10863 0.75029 0.0
C688 C 0.66703 0.10567 0.76606 0.0
C689 C 0.63452 0.12153 0.78059 0.0
C690 C 0.64118 0.13369 0.80404 0.0
C691 C 0.61053 0.14891 0.81758 0.0
C692 C 0.57301 0.15187 0.80794 0.0
C693 C 0.56604 0.13952 0.78474 0.0
C694 C 0.59659 0.12431 0.77111 0.0
C695 C 0.70921 0.94671 0.72165 0.0
C696 C 0.68301 0.94478 0.70246 0.0
C697 C 0.71078 0.9802 0.73598 0.0
C698 C 0.68596 0.01212 0.73149 0.0
C699 C 0.657 0.00839 0.71403 0.0
C700 C 0.65568 0.97517 0.69956 0.0
C701 C 0.69287 0.05087 0.74288 0.0
C702 C 0.66255 0.06838 0.75582 0.0
C703 C 0.72873 0.07128 0.74012 0.0
C704 C 0.76142 0.05512 0.72582 0.0
C705 C 0.75592 0.04546 0.70184 0.0
C706 C 0.78659 0.02939 0.68865 0.0
C707 C 0.82308 0.02328 0.69916 0.0
C708 C 0.82898 0.03334 0.72287 0.0
C709 C 0.79835 0.04928 0.73617 0.0
H710 H 0.84679 0.01086 0.68892 0.0
H711 H 0.54932 0.16367 0.81845 0.0
H712 H 0.02972 0.35005 0.3112 0.0
H713 H 0.97136 0.34678 0.2865 0.0
H714 H 0.02755 0.26234 0.24126 0.0
H715 H 0.08623 0.26475 0.26628 0.0
H716 H 0.97249 0.32066 0.21769 0.0
H717 H 0.97911 0.22278 0.27725 0.0
H718 H 0.99081 0.19611 0.31709 0.0
H719 H 0.89881 0.26802 0.34506 0.0
H720 H 0.88705 0.29573 0.30538 0.0
H721 H 0.78733 0.2447 0.17704 0.0
H722 H 0.85419 0.24818 0.19259 0.0
H723 H 0.81433 0.32167 0.24972 0.0
H724 H 0.7475 0.31852 0.23427 0.0
H725 H 0.86445 0.26256 0.26484 0.0
H726 H 0.86077 0.36119 0.2031 0.0
H727 H 0.85026 0.38421 0.16224 0.0
H728 H 0.93786 0.30443 0.13706 0.0
H729 H 0.94852 0.28056 0.17775 0.0
C730 C 0.03036 0.33171 0.29556 0.0
C731 C 0.06263 0.30728 0.29096 0.0
C732 C 0.9968 0.32979 0.28149 0.0
C733 C 0.99484 0.3038 0.26231 0.0
C734 C 0.02843 0.28252 0.25603 0.0
C735 C 0.06209 0.28414 0.27031 0.0
C736 C 0.95626 0.29547 0.25116 0.0
C737 C 0.94901 0.30742 0.22783 0.0
C738 C 0.92561 0.27817 0.26441 0.0
C739 C 0.93255 0.26174 0.28837 0.0
C740 C 0.96175 0.23337 0.29194 0.0
C741 C 0.96833 0.21796 0.31449 0.0
C742 C 0.94568 0.23047 0.33362 0.0
C743 C 0.91637 0.25839 0.33022 0.0
C744 C 0.90972 0.27395 0.30769 0.0
C745 C 0.79271 0.26147 0.19299 0.0
C746 C 0.76193 0.28139 0.20438 0.0
C747 C 0.83104 0.26357 0.20179 0.0
C748 C 0.83943 0.28547 0.22223 0.0
C749 C 0.80863 0.30465 0.23391 0.0
C750 C 0.7704 0.30287 0.22501 0.0
C751 C 0.8802 0.28864 0.2315 0.0
C752 C 0.88792 0.27559 0.25458 0.0
C753 C 0.91134 0.30425 0.21783 0.0
C754 C 0.90514 0.31881 0.19342 0.0
C755 C 0.87757 0.34834 0.18882 0.0
C756 C 0.87162 0.36158 0.1657 0.0
C757 C 0.89329 0.34571 0.14706 0.0
C758 C 0.92105 0.31665 0.15151 0.0
C759 C 0.92707 0.30329 0.1746 0.0
H760 H 0.88864 0.35599 0.12917 0.0
H761 H 0.95075 0.21843 0.35106 0.0
H762 H 0.2582 0.27204 0.68512 0.0
H763 H 0.25435 0.33817 0.70155 0.0
H764 H 0.17238 0.29773 0.75421 0.0
H765 H 0.17534 0.23185 0.73751 0.0
H766 H 0.14785 0.36432 0.73722 0.0
H767 H 0.27137 0.31797 0.76668 0.0
H768 H 0.33801 0.29068 0.76417 0.0
H769 H 0.37417 0.38763 0.72109 0.0
H770 H 0.30757 0.41526 0.72309 0.0
H771 H 0.16769 0.50829 0.827 0.0
H772 H 0.16368 0.45164 0.80085 0.0
H773 H 0.23716 0.51038 0.74997 0.0
H774 H 0.24135 0.56746 0.77628 0.0
H775 H 0.2658 0.43879 0.7616 0.0
H776 H 0.14214 0.48837 0.73656 0.0
H777 H 0.0758 0.51547 0.74141 0.0
H778 H 0.03996 0.41184 0.77848 0.0
H779 H 0.10625 0.38432 0.77416 0.0
C780 C 0.23952 0.27714 0.70029 0.0
C781 C 0.21717 0.24647 0.71001 0.0
C782 C 0.23741 0.31505 0.70973 0.0
C783 C 0.21331 0.32312 0.72932 0.0
C784 C 0.19112 0.29246 0.73908 0.0
C785 C 0.193 0.25466 0.72956 0.0
C786 C 0.21077 0.36342 0.73956 0.0
C787 C 0.17367 0.38041 0.74274 0.0
C788 C 0.24441 0.38516 0.74619 0.0
C789 C 0.28436 0.36842 0.74479 0.0
C790 C 0.29344 0.33328 0.75648 0.0
C791 C 0.33122 0.31779 0.7552 0.0
C792 C 0.36027 0.33735 0.74242 0.0
C793 C 0.35162 0.37248 0.73094 0.0
C794 C 0.31386 0.38807 0.73215 0.0
C795 C 0.18194 0.50974 0.80989 0.0
C796 C 0.20475 0.54249 0.80371 0.0
C797 C 0.17966 0.47722 0.79492 0.0
C798 C 0.20017 0.47655 0.77339 0.0
C799 C 0.22108 0.51015 0.76649 0.0
C800 C 0.22307 0.54298 0.78142 0.0
C801 C 0.20288 0.43939 0.75956 0.0
C802 C 0.24001 0.42293 0.75577 0.0
C803 C 0.16928 0.418 0.75259 0.0
C804 C 0.12929 0.43439 0.75516 0.0
C805 C 0.12021 0.47147 0.7459 0.0
C806 C 0.08258 0.48688 0.74853 0.0
C807 C 0.0537 0.46542 0.76028 0.0
C808 C 0.06237 0.42844 0.76939 0.0
C809 C 0.09995 0.41289 0.76682 0.0
H810 H 0.0246 0.47741 0.7623 0.0
H811 H 0.38952 0.32534 0.74147 0.0
H812 H 0.25569 0.67145 0.2426 0.0
H813 H 0.18924 0.66663 0.2583 0.0
H814 H 0.14805 0.74442 0.20368 0.0
H815 H 0.21472 0.7502 0.18825 0.0
H816 H 0.11374 0.76238 0.24384 0.0
H817 H 0.13299 0.64309 0.2011 0.0
H818 H 0.16686 0.58221 0.18981 0.0
H819 H 0.15486 0.53891 0.26075 0.0
H820 H 0.12137 0.59977 0.27255 0.0
H821 H 0.91707 0.72893 0.27613 0.0
H822 H 0.97414 0.72405 0.24995 0.0
H823 H 0.03338 0.65353 0.30203 0.0
H824 H 0.97648 0.65764 0.32789 0.0
H825 H 0.05485 0.63183 0.25841 0.0
H826 H 0.03788 0.75355 0.30116 0.0
H827 H 0.0008 0.81303 0.31142 0.0
H828 H 0.00869 0.85257 0.23951 0.0
H829 H 0.04413 0.79238 0.22853 0.0
C830 C 0.23256 0.68765 0.23394 0.0
C831 C 0.24066 0.71107 0.21406 0.0
C832 C 0.19441 0.68468 0.24286 0.0
C833 C 0.16324 0.70453 0.23194 0.0
C834 C 0.17141 0.72864 0.21241 0.0
C835 C 0.20964 0.73188 0.20357 0.0
C836 C 0.12226 0.70011 0.24091 0.0
C837 C 0.10067 0.73381 0.24663 0.0
C838 C 0.10504 0.66289 0.24482 0.0
C839 C 0.12493 0.62613 0.23775 0.0
C840 C 0.13779 0.62069 0.21433 0.0
C841 C 0.15689 0.58617 0.20784 0.0
C842 C 0.16308 0.55675 0.22457 0.0
C843 C 0.15007 0.56174 0.24782 0.0
C844 C 0.13099 0.59622 0.25441 0.0
C845 C 0.94157 0.71098 0.28155 0.0
C846 C 0.94236 0.69399 0.30421 0.0
C847 C 0.97443 0.70861 0.26668 0.0
C848 C 0.00859 0.68937 0.2743 0.0
C849 C 0.00766 0.66889 0.2958 0.0
C850 C 0.97497 0.67122 0.3106 0.0
C851 C 0.04663 0.694 0.26159 0.0
C852 C 0.06776 0.66037 0.25528 0.0
C853 C 0.06334 0.73131 0.2571 0.0
C854 C 0.04325 0.76816 0.26394 0.0
C855 C 0.03147 0.77477 0.28748 0.0
C856 C 0.0107 0.80859 0.29343 0.0
C857 C 0.00253 0.83662 0.27616 0.0
C858 C 0.015 0.83081 0.25288 0.0
C859 C 0.03525 0.79674 0.24674 0.0
H860 H 0.98652 0.86283 0.28083 0.0
H861 H 0.17788 0.53005 0.2195 0.0
H862 H 0.85743 0.47654 0.81123 0.0
H863 H 0.85698 0.53537 0.78678 0.0
H864 H 0.76246 0.48763 0.74524 0.0
H865 H 0.76326 0.42814 0.76949 0.0
H866 H 0.81107 0.53544 0.71824 0.0
H867 H 0.74073 0.54329 0.7912 0.0
H868 H 0.73145 0.53676 0.83429 0.0
H869 H 0.82296 0.62059 0.84654 0.0
H870 H 0.83323 0.62713 0.80349 0.0
H871 H 0.73265 0.72219 0.68419 0.0
H872 H 0.74074 0.65605 0.70012 0.0
H873 H 0.83516 0.69678 0.74439 0.0
H874 H 0.82722 0.76288 0.72864 0.0
H875 H 0.78449 0.65116 0.76886 0.0
H876 H 0.85314 0.64345 0.69451 0.0
H877 H 0.86001 0.64936 0.65122 0.0
H878 H 0.76781 0.56547 0.64126 0.0
H879 H 0.76002 0.55946 0.68451 0.0
C880 C 0.83753 0.47787 0.79633 0.0
C881 C 0.8102 0.44772 0.79244 0.0
C882 C 0.83708 0.51171 0.78246 0.0
C883 C 0.80893 0.51646 0.76459 0.0
C884 C 0.78427 0.48479 0.75904 0.0
C885 C 0.78493 0.45062 0.77284 0.0
C886 C 0.80236 0.55583 0.75389 0.0
C887 C 0.80486 0.56067 0.72926 0.0
C888 C 0.79435 0.58893 0.76824 0.0
C889 C 0.788 0.58541 0.79413 0.0
C890 C 0.75906 0.56012 0.80309 0.0
C891 C 0.75361 0.55644 0.8275 0.0
C892 C 0.77667 0.57818 0.84314 0.0
C893 C 0.80516 0.60373 0.8344 0.0
C894 C 0.81081 0.60745 0.80999 0.0
C895 C 0.75511 0.71712 0.69734 0.0
C896 C 0.77928 0.74798 0.70511 0.0
C897 C 0.75986 0.67918 0.70633 0.0
C898 C 0.78886 0.67123 0.7233 0.0
C899 C 0.81266 0.70208 0.73128 0.0
C900 C 0.80808 0.73993 0.72222 0.0
C901 C 0.79395 0.63107 0.7332 0.0
C902 C 0.79085 0.62602 0.75777 0.0
C903 C 0.80096 0.59786 0.71874 0.0
C904 C 0.80573 0.60131 0.69275 0.0
C905 C 0.83411 0.6265 0.68309 0.0
C906 C 0.83822 0.62982 0.65856 0.0
C907 C 0.81429 0.60789 0.6435 0.0
C908 C 0.78628 0.58249 0.65294 0.0
C909 C 0.78204 0.57908 0.67747 0.0
H910 H 0.81751 0.6105 0.62451 0.0
H911 H 0.7724 0.5753 0.86204 0.0
loop_
_geom_bond_atom_site_label_1
_geom_bond_atom_site_label_2
_geom_bond_distance
_geom_bond_site_symmetry_2
_ccdc_geom_bond_type
Zn0 O3 2.031 . S
Zn0 O5 2.049 . S
Zn0 O10 2.067 . S
Zn1 O2 1.962 . S
Zn1 O4 1.986 . S
Zn1 O6 1.996 . S
Zn1 O9 1.943 . S
O2 Zn1 1.962 . S
O2 C7 1.254 . S
O3 Zn0 2.031 . S
O3 C7 1.269 . S
O4 Zn1 1.986 . S
O4 C11 1.262 . S
O5 Zn0 2.049 . S
O5 C13 1.260 . S
O6 Zn1 1.996 . S
O6 C13 1.257 . S
C7 O2 1.254 . S
C7 O3 1.269 . S
C8 O9 1.249 . S
C8 O10 1.270 . S
O9 Zn1 1.943 . S
O9 C8 1.249 . S
O10 Zn0 2.067 . S
O10 C8 1.270 . S
C11 O4 1.262 . S
C11 O12 1.232 . S
O12 C11 1.232 . S
C13 O5 1.260 . S
C13 O6 1.257 . S
Zn14 O17 2.031 . S
Zn14 O19 2.049 . S
Zn14 O24 2.067 . S
Zn15 O16 1.962 . S
Zn15 O18 1.986 . S
Zn15 O20 1.996 . S
Zn15 O23 1.943 . S
O16 Zn15 1.962 . S
O16 C21 1.254 . S
O17 Zn14 2.031 . S
O17 C21 1.269 . S
O18 Zn15 1.986 . S
O18 C25 1.262 . S
O19 Zn14 2.049 . S
O19 C27 1.260 . S
O20 Zn15 1.996 . S
O20 C27 1.257 . S
C21 O16 1.254 . S
C21 O17 1.269 . S
C22 O23 1.249 . S
C22 O24 1.270 . S
O23 Zn15 1.943 . S
O23 C22 1.249 . S
O24 Zn14 2.067 . S
O24 C22 1.270 . S
C25 O18 1.262 . S
C25 O26 1.232 . S
O26 C25 1.232 . S
C27 O19 1.260 . S
C27 O20 1.257 . S
Zn28 O31 2.031 . S
Zn28 O33 2.049 . S
Zn28 O38 2.067 . S
Zn29 O30 1.962 . S
Zn29 O32 1.986 . S
Zn29 O34 1.996 . S
Zn29 O37 1.943 . S
O30 Zn29 1.962 . S
O30 C35 1.254 . S
O31 Zn28 2.031 . S
O31 C35 1.269 . S
O32 Zn29 1.986 . S
O32 C39 1.262 . S
O33 Zn28 2.049 . S
O33 C41 1.260 . S
O34 Zn29 1.996 . S
O34 C41 1.257 . S
C35 O30 1.254 . S
C35 O31 1.269 . S
C36 O37 1.249 . S
C36 O38 1.270 . S
O37 Zn29 1.943 . S
O37 C36 1.249 . S
O38 Zn28 2.067 . S
O38 C36 1.270 . S
C39 O32 1.262 . S
C39 O40 1.232 . S
O40 C39 1.232 . S
C41 O33 1.260 . S
C41 O34 1.257 . S
Zn42 O45 2.031 . S
Zn42 O47 2.049 . S
Zn42 O52 2.067 . S
Zn43 O44 1.962 . S
Zn43 O46 1.986 . S
Zn43 O48 1.996 . S
Zn43 O51 1.943 . S
O44 Zn43 1.962 . S
O44 C49 1.254 . S
O45 Zn42 2.031 . S
O45 C49 1.269 . S
O46 Zn43 1.986 . S
O46 C53 1.262 . S
O47 Zn42 2.049 . S
O47 C55 1.260 . S
O48 Zn43 1.996 . S
O48 C55 1.257 . S
C49 O44 1.254 . S
C49 O45 1.269 . S
C50 O51 1.249 . S
C50 O52 1.270 . S
O51 Zn43 1.943 . S
O51 C50 1.249 . S
O52 Zn42 2.067 . S
O52 C50 1.270 . S
C53 O46 1.262 . S
C53 O54 1.232 . S
O54 C53 1.232 . S
C55 O47 1.260 . S
C55 O48 1.257 . S
Zn56 O59 2.031 . S
Zn56 O61 2.049 . S
Zn56 O66 2.067 . S
Zn57 O58 1.962 . S
Zn57 O60 1.986 . S
Zn57 O62 1.996 . S
Zn57 O65 1.943 . S
O58 Zn57 1.962 . S
O58 C63 1.254 . S
O59 Zn56 2.031 . S
O59 C63 1.269 . S
O60 Zn57 1.986 . S
O60 C67 1.262 . S
O61 Zn56 2.049 . S
O61 C69 1.260 . S
O62 Zn57 1.996 . S
O62 C69 1.257 . S
C63 O58 1.254 . S
C63 O59 1.269 . S
C64 O65 1.249 . S
C64 O66 1.270 . S
O65 Zn57 1.943 . S
O65 C64 1.249 . S
O66 Zn56 2.067 . S
O66 C64 1.270 . S
C67 O60 1.262 . S
C67 O68 1.232 . S
O68 C67 1.232 . S
C69 O61 1.260 . S
C69 O62 1.257 . S
Zn70 O73 2.031 . S
Zn70 O75 2.049 . S
Zn70 O80 2.067 . S
Zn71 O72 1.962 . S
Zn71 O74 1.986 . S
Zn71 O76 1.996 . S
Zn71 O79 1.943 . S
O72 Zn71 1.962 . S
O72 C77 1.254 . S
O73 Zn70 2.031 . S
O73 C77 1.269 . S
O74 Zn71 1.986 . S
O74 C81 1.262 . S
O75 Zn70 2.049 . S
O75 C83 1.260 . S
O76 Zn71 1.996 . S
O76 C83 1.257 . S
C77 O72 1.254 . S
C77 O73 1.269 . S
C78 O79 1.249 . S
C78 O80 1.270 . S
O79 Zn71 1.943 . S
O79 C78 1.249 . S
O80 Zn70 2.067 . S
O80 C78 1.270 . S
C81 O74 1.262 . S
C81 O82 1.232 . S
O82 C81 1.232 . S
C83 O75 1.260 . S
C83 O76 1.257 . S
Zn84 O87 2.031 . S
Zn84 O89 2.049 . S
Zn84 O94 2.067 . S
Zn85 O86 1.962 . S
Zn85 O88 1.986 . S
Zn85 O90 1.996 . S
Zn85 O93 1.943 . S
O86 Zn85 1.962 . S
O86 C91 1.254 . S
O87 Zn84 2.031 . S
O87 C91 1.269 . S
O88 Zn85 1.986 . S
O88 C95 1.262 . S
O89 Zn84 2.049 . S
O89 C97 1.260 . S
O90 Zn85 1.996 . S
O90 C97 1.257 . S
C91 O86 1.254 . S
C91 O87 1.269 . S
C92 O93 1.249 . S
C92 O94 1.270 . S
O93 Zn85 1.943 . S
O93 C92 1.249 . S
O94 Zn84 2.067 . S
O94 C92 1.270 . S
C95 O88 1.262 . S
C95 O96 1.232 . S
O96 C95 1.232 . S
C97 O89 1.260 . S
C97 O90 1.257 . S
Zn98 O101 2.031 . S
Zn98 O103 2.049 . S
Zn98 O108 2.067 . S
Zn99 O100 1.962 . S
Zn99 O102 1.986 . S
Zn99 O104 1.996 . S
Zn99 O107 1.943 . S
O100 Zn99 1.962 . S
O100 C105 1.254 . S
O101 Zn98 2.031 . S
O101 C105 1.269 . S
O102 Zn99 1.986 . S
O102 C109 1.262 . S
O103 Zn98 2.049 . S
O103 C111 1.260 . S
O104 Zn99 1.996 . S
O104 C111 1.257 . S
C105 O100 1.254 . S
C105 O101 1.269 . S
C106 O107 1.249 . S
C106 O108 1.270 . S
O107 Zn99 1.943 . S
O107 C106 1.249 . S
O108 Zn98 2.067 . S
O108 C106 1.270 . S
C109 O102 1.262 . S
C109 O110 1.232 . S
O110 C109 1.232 . S
C111 O103 1.260 . S
C111 O104 1.257 . S
H112 C130 0.951 . S
H113 C132 0.951 . S
H114 C134 0.950 . S
H115 C135 0.950 . S
H116 C137 0.950 . S
H117 C140 0.950 . S
H118 C141 0.950 . S
H119 C143 0.950 . S
H120 C144 0.950 . S
H121 C145 0.951 . S
H122 C147 0.951 . S
H123 C149 0.950 . S
H124 C150 0.950 . S
H125 C152 0.950 . S
H126 C155 0.950 . S
H127 C156 0.950 . S
H128 C158 0.950 . S
H129 C159 0.950 . S
C130 H112 0.951 . S
C130 C131 1.366 . S
C130 C132 1.388 . S
C131 C130 1.366 . S
C131 C135 1.385 . S
C132 H113 0.951 . S
C132 C130 1.388 . S
C132 C133 1.366 . S
C133 C132 1.366 . S
C133 C134 1.414 . S
C133 C136 1.499 . S
C134 H114 0.950 . S
C134 C133 1.414 . S
C134 C135 1.374 . S
C135 H115 0.950 . S
C135 C131 1.385 . S
C135 C134 1.374 . S
C136 C133 1.499 . S
C136 C137 1.373 1_455 S
C136 C138 1.389 . S
C137 H116 0.950 . S
C137 C136 1.373 1_655 S
C137 C153 1.377 1_545 S
C138 C136 1.389 . S
C138 C139 1.524 . S
C138 C152 1.377 1_545 S
C139 C138 1.524 . S
C139 C140 1.397 . S
C139 C144 1.363 1_545 S
C140 H117 0.950 . S
C140 C139 1.397 . S
C140 C141 1.334 . S
C141 H118 0.950 . S
C141 C140 1.334 . S
C141 C142 1.287 . S
C142 C141 1.287 . S
C142 C143 1.524 1_545 S
C142 H161 0.913 . S
C143 H119 0.950 . S
C143 C142 1.524 1_565 S
C143 C144 1.415 . S
C144 H120 0.950 . S
C144 C139 1.363 1_565 S
C144 C143 1.415 . S
C145 H121 0.951 . S
C145 C146 1.366 . S
C145 C147 1.388 . S
C146 C145 1.366 . S
C146 C150 1.385 . S
C147 H122 0.951 . S
C147 C145 1.388 . S
C147 C148 1.366 . S
C148 C147 1.366 . S
C148 C149 1.414 . S
C148 C151 1.499 . S
C149 H123 0.950 . S
C149 C148 1.414 . S
C149 C150 1.374 . S
C150 H124 0.950 . S
C150 C146 1.385 . S
C150 C149 1.374 . S
C151 C148 1.499 . S
C151 C152 1.373 1_655 S
C151 C153 1.389 . S
C152 H125 0.950 . S
C152 C138 1.377 1_565 S
C152 C151 1.373 1_455 S
C153 C137 1.377 1_565 S
C153 C151 1.389 . S
C153 C154 1.524 . S
C154 C153 1.524 . S
C154 C155 1.397 . S
C154 C159 1.363 1_565 S
C155 H126 0.950 . S
C155 C154 1.397 . S
C155 C156 1.334 . S
C156 H127 0.950 . S
C156 C155 1.334 . S
C156 C157 1.287 . S
C157 C156 1.287 . S
C157 C158 1.524 1_565 S
C157 H160 0.999 . S
C158 H128 0.950 . S
C158 C157 1.524 1_545 S
C158 C159 1.415 . S
C159 H129 0.950 . S
C159 C154 1.363 1_545 S
C159 C158 1.415 . S
H160 C157 0.999 . S
H161 C142 0.913 . S
H162 C180 0.951 . S
H163 C182 0.951 . S
H164 C184 0.950 . S
H165 C185 0.950 . S
H166 C187 0.950 . S
H167 C190 0.950 . S
H168 C191 0.950 . S
H169 C193 0.950 . S
H170 C194 0.950 . S
H171 C195 0.951 . S
H172 C197 0.951 . S
H173 C199 0.950 . S
H174 C200 0.950 . S
H175 C202 0.950 . S
H176 C205 0.950 . S
H177 C206 0.950 . S
H178 C208 0.950 . S
H179 C209 0.950 . S
C180 H162 0.951 . S
C180 C181 1.366 . S
C180 C182 1.388 . S
C181 C180 1.366 . S
C181 C185 1.385 . S
C182 H163 0.951 . S
C182 C180 1.388 . S
C182 C183 1.366 . S
C183 C182 1.366 . S
C183 C184 1.414 . S
C183 C186 1.499 . S
C184 H164 0.950 . S
C184 C183 1.414 . S
C184 C185 1.374 . S
C185 H165 0.950 . S
C185 C181 1.385 . S
C185 C184 1.374 . S
C186 C183 1.499 . S
C186 C187 1.373 . S
C186 C188 1.389 . S
C187 H166 0.950 . S
C187 C186 1.373 . S
C187 C203 1.377 . S
C188 C186 1.389 . S
C188 C189 1.524 . S
C188 C202 1.377 . S
C189 C188 1.524 . S
C189 C190 1.397 . S
C189 C194 1.363 . S
C190 H167 0.950 . S
C190 C189 1.397 . S
C190 C191 1.334 . S
C191 H168 0.950 . S
C191 C190 1.334 . S
C191 C192 1.287 . S
C192 C191 1.287 . S
C192 C193 1.524 . S
C192 H211 0.913 . S
C193 H169 0.950 . S
C193 C192 1.524 . S
C193 C194 1.415 . S
C194 H170 0.950 . S
C194 C189 1.363 . S
C194 C193 1.415 . S
C195 H171 0.951 . S
C195 C196 1.366 . S
C195 C197 1.388 . S
C196 C195 1.366 . S
C196 C200 1.385 . S
C197 H172 0.951 . S
C197 C195 1.388 . S
C197 C198 1.366 . S
C198 C197 1.366 . S
C198 C199 1.414 . S
C198 C201 1.499 . S
C199 H173 0.950 . S
C199 C198 1.414 . S
C199 C200 1.374 . S
C200 H174 0.950 . S
C200 C196 1.385 . S
C200 C199 1.374 . S
C201 C198 1.499 . S
C201 C202 1.373 . S
C201 C203 1.389 . S
C202 H175 0.950 . S
C202 C188 1.377 . S
C202 C201 1.373 . S
C203 C187 1.377 . S
C203 C201 1.389 . S
C203 C204 1.524 . S
C204 C203 1.524 . S
C204 C205 1.397 . S
C204 C209 1.363 . S
C205 H176 0.950 . S
C205 C204 1.397 . S
C205 C206 1.334 . S
C206 H177 0.950 . S
C206 C205 1.334 . S
C206 C207 1.287 . S
C207 C206 1.287 . S
C207 C208 1.524 . S
C207 H210 0.999 . S
C208 H178 0.950 . S
C208 C207 1.524 . S
C208 C209 1.415 . S
C209 H179 0.950 . S
C209 C204 1.363 . S
C209 C208 1.415 . S
H210 C207 0.999 . S
H211 C192 0.913 . S
H212 C230 0.951 . S
H213 C232 0.951 . S
H214 C234 0.950 . S
H215 C235 0.950 . S
H216 C237 0.950 . S
H217 C240 0.950 . S
H218 C241 0.950 . S
H219 C243 0.950 . S
H220 C244 0.950 . S
H221 C245 0.951 . S
H222 C247 0.951 . S
H223 C249 0.950 . S
H224 C250 0.950 . S
H225 C252 0.950 . S
H226 C255 0.950 . S
H227 C256 0.950 . S
H228 C258 0.950 . S
H229 C259 0.950 . S
C230 H212 0.951 . S
C230 C231 1.366 . S
C230 C232 1.388 . S
C231 C230 1.366 . S
C231 C235 1.385 . S
C232 H213 0.951 . S
C232 C230 1.388 . S
C232 C233 1.366 . S
C233 C232 1.366 . S
C233 C234 1.414 . S
C233 C236 1.499 . S
C234 H214 0.950 . S
C234 C233 1.414 . S
C234 C235 1.374 . S
C235 H215 0.950 . S
C235 C231 1.385 . S
C235 C234 1.374 . S
C236 C233 1.499 . S
C236 C237 1.373 . S
C236 C238 1.389 . S
C237 H216 0.950 . S
C237 C236 1.373 . S
C237 C253 1.377 . S
C238 C236 1.389 . S
C238 C239 1.524 . S
C238 C252 1.377 . S
C239 C238 1.524 . S
C239 C240 1.397 . S
C239 C244 1.363 . S
C240 H217 0.950 . S
C240 C239 1.397 . S
C240 C241 1.334 . S
C241 H218 0.950 . S
C241 C240 1.334 . S
C241 C242 1.287 . S
C242 C241 1.287 . S
C242 C243 1.524 . S
C242 H261 0.913 . S
C243 H219 0.950 . S
C243 C242 1.524 . S
C243 C244 1.415 . S
C244 H220 0.950 . S
C244 C239 1.363 . S
C244 C243 1.415 . S
C245 H221 0.951 . S
C245 C246 1.366 . S
C245 C247 1.388 . S
C246 C245 1.366 . S
C246 C250 1.385 . S
C247 H222 0.951 . S
C247 C245 1.388 . S
C247 C248 1.366 . S
C248 C247 1.366 . S
C248 C249 1.414 . S
C248 C251 1.499 . S
C249 H223 0.950 . S
C249 C248 1.414 . S
C249 C250 1.374 . S
C250 H224 0.950 . S
C250 C246 1.385 . S
C250 C249 1.374 . S
C251 C248 1.499 . S
C251 C252 1.373 . S
C251 C253 1.389 . S
C252 H225 0.950 . S
C252 C238 1.377 . S
C252 C251 1.373 . S
C253 C237 1.377 . S
C253 C251 1.389 . S
C253 C254 1.524 . S
C254 C253 1.524 . S
C254 C255 1.397 . S
C254 C259 1.363 . S
C255 H226 0.950 . S
C255 C254 1.397 . S
C255 C256 1.334 . S
C256 H227 0.950 . S
C256 C255 1.334 . S
C256 C257 1.287 . S
C257 C256 1.287 . S
C257 C258 1.524 . S
C257 H260 0.999 . S
C258 H228 0.950 . S
C258 C257 1.524 . S
C258 C259 1.415 . S
C259 H229 0.950 . S
C259 C254 1.363 . S
C259 C258 1.415 . S
H260 C257 0.999 . S
H261 C242 0.913 . S
H262 C280 0.951 . S
H263 C282 0.951 . S
H264 C284 0.950 . S
H265 C285 0.950 . S
H266 C287 0.950 . S
H267 C290 0.950 . S
H268 C291 0.950 . S
H269 C293 0.950 . S
H270 C294 0.950 . S
H271 C295 0.951 . S
H272 C297 0.951 . S
H273 C299 0.950 . S
H274 C300 0.950 . S
H275 C302 0.950 . S
H276 C305 0.950 . S
H277 C306 0.950 . S
H278 C308 0.950 . S
H279 C309 0.950 . S
C280 H262 0.951 . S
C280 C281 1.366 . S
C280 C282 1.388 . S
C281 C280 1.366 . S
C281 C285 1.385 . S
C282 H263 0.951 . S
C282 C280 1.388 . S
C282 C283 1.366 . S
C283 C282 1.366 . S
C283 C284 1.414 . S
C283 C286 1.499 . S
C284 H264 0.950 . S
C284 C283 1.414 . S
C284 C285 1.374 . S
C285 H265 0.950 . S
C285 C281 1.385 . S
C285 C284 1.374 . S
C286 C283 1.499 . S
C286 C287 1.373 1_545 S
C286 C288 1.389 1_455 S
C287 H266 0.950 . S
C287 C286 1.373 1_565 S
C287 C303 1.377 . S
C288 C286 1.389 1_655 S
C288 C289 1.524 . S
C288 C302 1.377 . S
C289 C288 1.524 . S
C289 C290 1.397 1_655 S
C289 C294 1.363 . S
C290 H267 0.950 . S
C290 C289 1.397 1_455 S
C290 C291 1.334 . S
C291 H268 0.950 . S
C291 C290 1.334 . S
C291 C292 1.287 1_455 S
C292 C291 1.287 1_655 S
C292 C293 1.524 . S
C292 H311 0.913 . S
C293 H269 0.950 . S
C293 C292 1.524 . S
C293 C294 1.415 . S
C294 H270 0.950 . S
C294 C289 1.363 . S
C294 C293 1.415 . S
C295 H271 0.951 . S
C295 C296 1.366 . S
C295 C297 1.388 . S
C296 C295 1.366 . S
C296 C300 1.385 . S
C297 H272 0.951 . S
C297 C295 1.388 . S
C297 C298 1.366 . S
C298 C297 1.366 . S
C298 C299 1.414 . S
C298 C301 1.499 . S
C299 H273 0.950 . S
C299 C298 1.414 . S
C299 C300 1.374 . S
C300 H274 0.950 . S
C300 C296 1.385 . S
C300 C299 1.374 . S
C301 C298 1.499 . S
C301 C302 1.373 1_565 S
C301 C303 1.389 1_655 S
C302 H275 0.950 . S
C302 C288 1.377 . S
C302 C301 1.373 1_545 S
C303 C287 1.377 . S
C303 C301 1.389 1_455 S
C303 C304 1.524 . S
C304 C303 1.524 . S
C304 C305 1.397 1_455 S
C304 C309 1.363 . S
C305 H276 0.950 . S
C305 C304 1.397 1_655 S
C305 C306 1.334 . S
C306 H277 0.950 . S
C306 C305 1.334 . S
C306 C307 1.287 1_655 S
C307 C306 1.287 1_455 S
C307 C308 1.524 . S
C307 H310 0.999 . S
C308 H278 0.950 . S
C308 C307 1.524 . S
C308 C309 1.415 . S
C309 H279 0.950 . S
C309 C304 1.363 . S
C309 C308 1.415 . S
H310 C307 0.999 . S
H311 C292 0.913 . S
H312 C330 0.951 . S
H313 C332 0.951 . S
H314 C334 0.950 . S
H315 C335 0.950 . S
H316 C337 0.950 . S
H317 C340 0.950 . S
H318 C341 0.950 . S
H319 C343 0.950 . S
H320 C344 0.950 . S
H321 C345 0.951 . S
H322 C347 0.951 . S
H323 C349 0.950 . S
H324 C350 0.950 . S
H325 C352 0.950 . S
H326 C355 0.950 . S
H327 C356 0.950 . S
H328 C358 0.950 . S
H329 C359 0.950 . S
C330 H312 0.951 . S
C330 C331 1.366 . S
C330 C332 1.388 . S
C331 C330 1.366 . S
C331 C335 1.385 . S
C332 H313 0.951 . S
C332 C330 1.388 . S
C332 C333 1.366 . S
C333 C332 1.366 . S
C333 C334 1.414 . S
C333 C336 1.499 . S
C334 H314 0.950 . S
C334 C333 1.414 . S
C334 C335 1.374 . S
C335 H315 0.950 . S
C335 C331 1.385 . S
C335 C334 1.374 . S
C336 C333 1.499 . S
C336 C337 1.373 . S
C336 C338 1.389 . S
C337 H316 0.950 . S
C337 C336 1.373 . S
C337 C353 1.377 . S
C338 C336 1.389 . S
C338 C339 1.524 . S
C338 C352 1.377 . S
C339 C338 1.524 . S
C339 C340 1.397 . S
C339 C344 1.363 . S
C340 H317 0.950 . S
C340 C339 1.397 . S
C340 C341 1.334 . S
C341 H318 0.950 . S
C341 C340 1.334 . S
C341 C342 1.287 . S
C342 C341 1.287 . S
C342 C343 1.524 . S
C342 H361 0.913 . S
C343 H319 0.950 . S
C343 C342 1.524 . S
C343 C344 1.415 . S
C344 H320 0.950 . S
C344 C339 1.363 . S
C344 C343 1.415 . S
C345 H321 0.951 . S
C345 C346 1.366 . S
C345 C347 1.388 . S
C346 C345 1.366 . S
C346 C350 1.385 . S
C347 H322 0.951 . S
C347 C345 1.388 . S
C347 C348 1.366 . S
C348 C347 1.366 . S
C348 C349 1.414 . S
C348 C351 1.499 . S
C349 H323 0.950 . S
C349 C348 1.414 . S
C349 C350 1.374 . S
C350 H324 0.950 . S
C350 C346 1.385 . S
C350 C349 1.374 . S
C351 C348 1.499 . S
C351 C352 1.373 . S
C351 C353 1.389 . S
C352 H325 0.950 . S
C352 C338 1.377 . S
C352 C351 1.373 . S
C353 C337 1.377 . S
C353 C351 1.389 . S
C353 C354 1.524 . S
C354 C353 1.524 . S
C354 C355 1.397 . S
C354 C359 1.363 . S
C355 H326 0.950 . S
C355 C354 1.397 . S
C355 C356 1.334 . S
C356 H327 0.950 . S
C356 C355 1.334 . S
C356 C357 1.287 . S
C357 C356 1.287 . S
C357 C358 1.524 . S
C357 H360 0.999 . S
C358 H328 0.950 . S
C358 C357 1.524 . S
C358 C359 1.415 . S
C359 H329 0.950 . S
C359 C354 1.363 . S
C359 C358 1.415 . S
H360 C357 0.999 . S
H361 C342 0.913 . S
H362 C380 0.951 . S
H363 C382 0.951 . S
H364 C384 0.950 . S
H365 C385 0.950 . S
H366 C387 0.950 . S
H367 C390 0.950 . S
H368 C391 0.950 . S
H369 C393 0.952 . S
H370 C394 0.950 . S
H371 C395 0.951 . S
H372 C397 0.951 . S
H373 C399 0.950 . S
H374 C400 0.950 . S
H375 C402 0.950 . S
H376 C405 0.950 . S
H377 C406 0.950 . S
H378 C408 0.952 . S
H379 C409 0.950 . S
C380 H362 0.951 . S
C380 C381 1.366 . S
C380 C382 1.388 . S
C381 C380 1.366 . S
C381 C385 1.385 . S
C382 H363 0.951 . S
C382 C380 1.388 . S
C382 C383 1.366 . S
C383 C382 1.366 . S
C383 C384 1.414 . S
C383 C386 1.499 . S
C384 H364 0.950 . S
C384 C383 1.414 . S
C384 C385 1.374 . S
C385 H365 0.950 . S
C385 C381 1.385 . S
C385 C384 1.374 . S
C386 C383 1.499 . S
C386 C387 1.373 . S
C386 C388 1.389 . S
C387 H366 0.950 . S
C387 C386 1.373 . S
C387 C403 1.377 1_556 S
C388 C386 1.389 . S
C388 C389 1.524 . S
C388 C402 1.377 1_556 S
C389 C388 1.524 . S
C389 C390 1.397 . S
C389 C394 1.363 1_556 S
C390 H367 0.950 . S
C390 C389 1.397 . S
C390 C391 1.334 . S
C391 H368 0.950 . S
C391 C390 1.334 . S
C391 C392 1.287 . S
C392 C391 1.287 . S
C392 C393 1.521 1_556 S
C392 H411 0.913 . S
C393 H369 0.952 . S
C393 C392 1.521 1_554 S
C393 C394 1.415 . S
C394 H370 0.950 . S
C394 C389 1.363 1_554 S
C394 C393 1.415 . S
C395 H371 0.951 . S
C395 C396 1.366 . S
C395 C397 1.388 . S
C396 C395 1.366 . S
C396 C400 1.385 . S
C397 H372 0.951 . S
C397 C395 1.388 . S
C397 C398 1.366 . S
C398 C397 1.366 . S
C398 C399 1.414 . S
C398 C401 1.499 . S
C399 H373 0.950 . S
C399 C398 1.414 . S
C399 C400 1.374 . S
C400 H374 0.950 . S
C400 C396 1.385 . S
C400 C399 1.374 . S
C401 C398 1.499 . S
C401 C402 1.373 . S
C401 C403 1.389 . S
C402 H375 0.950 . S
C402 C388 1.377 1_554 S
C402 C401 1.373 . S
C403 C387 1.377 1_554 S
C403 C401 1.389 . S
C403 C404 1.524 . S
C404 C403 1.524 . S
C404 C405 1.397 . S
C404 C409 1.363 1_554 S
C405 H376 0.950 . S
C405 C404 1.397 . S
C405 C406 1.334 . S
C406 H377 0.950 . S
C406 C405 1.334 . S
C406 C407 1.287 . S
C407 C406 1.287 . S
C407 C408 1.521 1_554 S
C407 H410 0.999 . S
C408 H378 0.952 . S
C408 C407 1.521 1_556 S
C408 C409 1.415 . S
C409 H379 0.950 . S
C409 C404 1.363 1_556 S
C409 C408 1.415 . S
H410 C407 0.999 . S
H411 C392 0.913 . S
H412 C430 0.951 . S
H413 C432 0.951 . S
H414 C434 0.950 . S
H415 C435 0.950 . S
H416 C437 0.950 . S
H417 C440 0.950 . S
H418 C441 0.950 . S
H419 C443 0.950 . S
H420 C444 0.950 . S
H421 C445 0.951 . S
H422 C447 0.951 . S
H423 C449 0.950 . S
H424 C450 0.950 . S
H425 C452 0.950 . S
H426 C455 0.950 . S
H427 C456 0.950 . S
H428 C458 0.950 . S
H429 C459 0.950 . S
C430 H412 0.951 . S
C430 C431 1.366 . S
C430 C432 1.388 . S
C431 C430 1.366 . S
C431 C435 1.385 . S
C432 H413 0.951 . S
C432 C430 1.388 . S
C432 C433 1.366 . S
C433 C432 1.366 . S
C433 C434 1.414 . S
C433 C436 1.499 . S
C434 H414 0.950 . S
C434 C433 1.414 . S
C434 C435 1.374 . S
C435 H415 0.950 . S
C435 C431 1.385 . S
C435 C434 1.374 . S
C436 C433 1.499 . S
C436 C437 1.373 . S
C436 C438 1.389 . S
C437 H416 0.950 . S
C437 C436 1.373 . S
C437 C453 1.377 . S
C438 C436 1.389 . S
C438 C439 1.524 . S
C438 C452 1.377 . S
C439 C438 1.524 . S
C439 C440 1.397 . S
C439 C444 1.363 . S
C440 H417 0.950 . S
C440 C439 1.397 . S
C440 C441 1.334 . S
C441 H418 0.950 . S
C441 C440 1.334 . S
C441 C442 1.287 . S
C442 C441 1.287 . S
C442 C443 1.524 . S
C442 H461 0.913 1_565 S
C443 H419 0.950 . S
C443 C442 1.524 . S
C443 C444 1.415 . S
C444 H420 0.950 . S
C444 C439 1.363 . S
C444 C443 1.415 . S
C445 H421 0.951 . S
C445 C446 1.366 . S
C445 C447 1.388 . S
C446 C445 1.366 . S
C446 C450 1.385 . S
C447 H422 0.951 . S
C447 C445 1.388 . S
C447 C448 1.366 . S
C448 C447 1.366 . S
C448 C449 1.414 . S
C448 C451 1.499 . S
C449 H423 0.950 . S
C449 C448 1.414 . S
C449 C450 1.374 . S
C450 H424 0.950 . S
C450 C446 1.385 . S
C450 C449 1.374 . S
C451 C448 1.499 . S
C451 C452 1.373 . S
C451 C453 1.389 . S
C452 H425 0.950 . S
C452 C438 1.377 . S
C452 C451 1.373 . S
C453 C437 1.377 . S
C453 C451 1.389 . S
C453 C454 1.524 . S
C454 C453 1.524 . S
C454 C455 1.397 . S
C454 C459 1.363 . S
C455 H426 0.950 . S
C455 C454 1.397 . S
C455 C456 1.334 . S
C456 H427 0.950 . S
C456 C455 1.334 . S
C456 C457 1.287 . S
C457 C456 1.287 . S
C457 C458 1.524 . S
C457 H460 0.999 . S
C458 H428 0.950 . S
C458 C457 1.524 . S
C458 C459 1.415 . S
C459 H429 0.950 . S
C459 C454 1.363 . S
C459 C458 1.415 . S
H460 C457 0.999 . S
H461 C442 0.913 1_545 S
H462 C480 0.951 . S
H463 C482 0.951 . S
H464 C484 0.950 . S
H465 C485 0.950 . S
H466 C487 0.950 . S
H467 C490 0.950 . S
H468 C491 0.950 . S
H469 C493 0.950 . S
H470 C494 0.950 . S
H471 C495 0.951 . S
H472 C497 0.951 . S
H473 C499 0.950 . S
H474 C500 0.950 . S
H475 C502 0.950 . S
H476 C505 0.950 . S
H477 C506 0.950 . S
H478 C508 0.950 . S
H479 C509 0.950 . S
C480 H462 0.951 . S
C480 C481 1.366 . S
C480 C482 1.388 . S
C481 C480 1.366 . S
C481 C485 1.385 . S
C482 H463 0.951 . S
C482 C480 1.388 . S
C482 C483 1.366 . S
C483 C482 1.366 . S
C483 C484 1.414 . S
C483 C486 1.499 . S
C484 H464 0.950 . S
C484 C483 1.414 . S
C484 C485 1.374 . S
C485 H465 0.950 . S
C485 C481 1.385 . S
C485 C484 1.374 . S
C486 C483 1.499 . S
C486 C487 1.373 . S
C486 C488 1.389 . S
C487 H466 0.950 . S
C487 C486 1.373 . S
C487 C503 1.377 1_556 S
C488 C486 1.389 . S
C488 C489 1.524 . S
C488 C502 1.377 1_556 S
C489 C488 1.524 . S
C489 C490 1.397 . S
C489 C494 1.363 . S
C490 H467 0.950 . S
C490 C489 1.397 . S
C490 C491 1.334 . S
C491 H468 0.950 . S
C491 C490 1.334 . S
C491 C492 1.287 . S
C492 C491 1.287 . S
C492 C493 1.524 . S
C492 H511 0.913 . S
C493 H469 0.950 . S
C493 C492 1.524 . S
C493 C494 1.415 . S
C494 H470 0.950 . S
C494 C489 1.363 . S
C494 C493 1.415 . S
C495 H471 0.951 . S
C495 C496 1.366 . S
C495 C497 1.388 . S
C496 C495 1.366 . S
C496 C500 1.385 . S
C497 H472 0.951 . S
C497 C495 1.388 . S
C497 C498 1.366 . S
C498 C497 1.366 . S
C498 C499 1.414 . S
C498 C501 1.499 . S
C499 H473 0.950 . S
C499 C498 1.414 . S
C499 C500 1.374 . S
C500 H474 0.950 . S
C500 C496 1.385 . S
C500 C499 1.374 . S
C501 C498 1.499 . S
C501 C502 1.373 . S
C501 C503 1.389 . S
C502 H475 0.950 . S
C502 C488 1.377 1_554 S
C502 C501 1.373 . S
C503 C487 1.377 1_554 S
C503 C501 1.389 . S
C503 C504 1.524 . S
C504 C503 1.524 . S
C504 C505 1.397 . S
C504 C509 1.363 . S
C505 H476 0.950 . S
C505 C504 1.397 . S
C505 C506 1.334 . S
C506 H477 0.950 . S
C506 C505 1.334 . S
C506 C507 1.287 . S
C507 C506 1.287 . S
C507 C508 1.524 . S
C507 H510 0.999 . S
C508 H478 0.950 . S
C508 C507 1.524 . S
C508 C509 1.415 . S
C509 H479 0.950 . S
C509 C504 1.363 . S
C509 C508 1.415 . S
H510 C507 0.999 . S
H511 C492 0.913 . S
H512 C530 0.951 . S
H513 C532 0.951 . S
H514 C534 0.950 . S
H515 C535 0.950 . S
H516 C537 0.950 . S
H517 C540 0.950 . S
H518 C541 0.950 . S
H519 C543 0.950 . S
H520 C544 0.950 . S
H521 C545 0.951 . S
H522 C547 0.951 . S
H523 C549 0.950 . S
H524 C550 0.950 . S
H525 C552 0.950 . S
H526 C555 0.950 . S
H527 C556 0.950 . S
H528 C558 0.950 . S
H529 C559 0.950 . S
C530 H512 0.951 . S
C530 C531 1.366 . S
C530 C532 1.388 . S
C531 C530 1.366 . S
C531 C535 1.385 . S
C532 H513 0.951 . S
C532 C530 1.388 . S
C532 C533 1.366 . S
C533 C532 1.366 . S
C533 C534 1.414 . S
C533 C536 1.499 . S
C534 H514 0.950 . S
C534 C533 1.414 . S
C534 C535 1.374 . S
C535 H515 0.950 . S
C535 C531 1.385 . S
C535 C534 1.374 . S
C536 C533 1.499 . S
C536 C537 1.373 . S
C536 C538 1.389 . S
C537 H516 0.950 . S
C537 C536 1.373 . S
C537 C553 1.377 . S
C538 C536 1.389 . S
C538 C539 1.524 . S
C538 C552 1.377 . S
C539 C538 1.524 . S
C539 C540 1.397 . S
C539 C544 1.363 . S
C540 H517 0.950 . S
C540 C539 1.397 . S
C540 C541 1.334 . S
C541 H518 0.950 . S
C541 C540 1.334 . S
C541 C542 1.287 . S
C542 C541 1.287 . S
C542 C543 1.524 . S
C542 H561 0.913 . S
C543 H519 0.950 . S
C543 C542 1.524 . S
C543 C544 1.415 . S
C544 H520 0.950 . S
C544 C539 1.363 . S
C544 C543 1.415 . S
C545 H521 0.951 . S
C545 C546 1.366 . S
C545 C547 1.388 . S
C546 C545 1.366 . S
C546 C550 1.385 . S
C547 H522 0.951 . S
C547 C545 1.388 . S
C547 C548 1.366 . S
C548 C547 1.366 . S
C548 C549 1.414 . S
C548 C551 1.499 . S
C549 H523 0.950 . S
C549 C548 1.414 . S
C549 C550 1.374 . S
C550 H524 0.950 . S
C550 C546 1.385 . S
C550 C549 1.374 . S
C551 C548 1.499 . S
C551 C552 1.373 . S
C551 C553 1.389 . S
C552 H525 0.950 . S
C552 C538 1.377 . S
C552 C551 1.373 . S
C553 C537 1.377 . S
C553 C551 1.389 . S
C553 C554 1.524 . S
C554 C553 1.524 . S
C554 C555 1.397 . S
C554 C559 1.363 . S
C555 H526 0.950 . S
C555 C554 1.397 . S
C555 C556 1.334 . S
C556 H527 0.950 . S
C556 C555 1.334 . S
C556 C557 1.287 . S
C557 C556 1.287 . S
C557 C558 1.524 . S
C557 H560 0.999 . S
C558 H528 0.950 . S
C558 C557 1.524 . S
C558 C559 1.415 . S
C559 H529 0.950 . S
C559 C554 1.363 . S
C559 C558 1.415 . S
H560 C557 0.999 . S
H561 C542 0.913 . S
H562 C580 0.951 . S
H563 C582 0.951 . S
H564 C584 0.950 . S
H565 C585 0.950 . S
H566 C587 0.950 . S
H567 C590 0.950 . S
H568 C591 0.950 . S
H569 C593 0.950 . S
H570 C594 0.950 . S
H571 C595 0.951 . S
H572 C597 0.951 . S
H573 C599 0.950 . S
H574 C600 0.950 . S
H575 C602 0.950 . S
H576 C605 0.950 . S
H577 C606 0.950 . S
H578 C608 0.950 . S
H579 C609 0.950 . S
C580 H562 0.951 . S
C580 C581 1.366 . S
C580 C582 1.388 . S
C581 C580 1.366 . S
C581 C585 1.385 . S
C582 H563 0.951 . S
C582 C580 1.388 . S
C582 C583 1.366 . S
C583 C582 1.366 . S
C583 C584 1.414 . S
C583 C586 1.499 . S
C584 H564 0.950 . S
C584 C583 1.414 . S
C584 C585 1.374 . S
C585 H565 0.950 . S
C585 C581 1.385 . S
C585 C584 1.374 . S
C586 C583 1.499 . S
C586 C587 1.373 . S
C586 C588 1.389 . S
C587 H566 0.950 . S
C587 C586 1.373 . S
C587 C603 1.377 . S
C588 C586 1.389 . S
C588 C589 1.524 . S
C588 C602 1.377 . S
C589 C588 1.524 . S
C589 C590 1.397 . S
C589 C594 1.363 . S
C590 H567 0.950 . S
C590 C589 1.397 . S
C590 C591 1.334 . S
C591 H568 0.950 . S
C591 C590 1.334 . S
C591 C592 1.287 . S
C592 C591 1.287 . S
C592 C593 1.524 . S
C592 H611 0.913 . S
C593 H569 0.950 . S
C593 C592 1.524 . S
C593 C594 1.415 . S
C594 H570 0.950 . S
C594 C589 1.363 . S
C594 C593 1.415 . S
C595 H571 0.951 . S
C595 C596 1.366 1_565 S
C595 C597 1.388 . S
C596 C595 1.366 1_545 S
C596 C600 1.385 . S
C597 H572 0.951 . S
C597 C595 1.388 . S
C597 C598 1.366 . S
C598 C597 1.366 . S
C598 C599 1.414 . S
C598 C601 1.499 . S
C599 H573 0.950 . S
C599 C598 1.414 . S
C599 C600 1.374 1_565 S
C600 H574 0.950 . S
C600 C596 1.385 . S
C600 C599 1.374 1_545 S
C601 C598 1.499 . S
C601 C602 1.373 . S
C601 C603 1.389 . S
C602 H575 0.950 . S
C602 C588 1.377 . S
C602 C601 1.373 . S
C603 C587 1.377 . S
C603 C601 1.389 . S
C603 C604 1.524 . S
C604 C603 1.524 . S
C604 C605 1.397 . S
C604 C609 1.363 . S
C605 H576 0.950 . S
C605 C604 1.397 . S
C605 C606 1.334 . S
C606 H577 0.950 . S
C606 C605 1.334 . S
C606 C607 1.287 . S
C607 C606 1.287 . S
C607 C608 1.524 . S
C607 H610 0.999 . S
C608 H578 0.950 . S
C608 C607 1.524 . S
C608 C609 1.415 . S
C609 H579 0.950 . S
C609 C604 1.363 . S
C609 C608 1.415 . S
H610 C607 0.999 . S
H611 C592 0.913 . S
H612 C630 0.951 . S
H613 C632 0.951 . S
H614 C634 0.950 . S
H615 C635 0.950 . S
H616 C637 0.950 . S
H617 C640 0.950 . S
H618 C641 0.950 . S
H619 C643 0.950 . S
H620 C644 0.950 . S
H621 C645 0.951 . S
H622 C647 0.951 . S
H623 C649 0.950 . S
H624 C650 0.950 . S
H625 C652 0.950 . S
H626 C655 0.950 . S
H627 C656 0.950 . S
H628 C658 0.950 . S
H629 C659 0.950 . S
C630 H612 0.951 . S
C630 C631 1.366 . S
C630 C632 1.388 . S
C631 C630 1.366 . S
C631 C635 1.385 . S
C632 H613 0.951 . S
C632 C630 1.388 . S
C632 C633 1.366 . S
C633 C632 1.366 . S
C633 C634 1.414 . S
C633 C636 1.499 . S
C634 H614 0.950 . S
C634 C633 1.414 . S
C634 C635 1.374 . S
C635 H615 0.950 . S
C635 C631 1.385 . S
C635 C634 1.374 . S
C636 C633 1.499 . S
C636 C637 1.373 . S
C636 C638 1.389 . S
C637 H616 0.950 . S
C637 C636 1.373 . S
C637 C653 1.377 . S
C638 C636 1.389 . S
C638 C639 1.524 . S
C638 C652 1.377 . S
C639 C638 1.524 . S
C639 C640 1.397 . S
C639 C644 1.363 . S
C640 H617 0.950 . S
C640 C639 1.397 . S
C640 C641 1.334 . S
C641 H618 0.950 . S
C641 C640 1.334 . S
C641 C642 1.287 . S
C642 C641 1.287 . S
C642 C643 1.524 . S
C642 H661 0.913 . S
C643 H619 0.950 . S
C643 C642 1.524 . S
C643 C644 1.415 . S
C644 H620 0.950 . S
C644 C639 1.363 . S
C644 C643 1.415 . S
C645 H621 0.951 . S
C645 C646 1.366 . S
C645 C647 1.388 . S
C646 C645 1.366 . S
C646 C650 1.385 . S
C647 H622 0.951 . S
C647 C645 1.388 . S
C647 C648 1.366 . S
C648 C647 1.366 . S
C648 C649 1.414 . S
C648 C651 1.499 . S
C649 H623 0.950 . S
C649 C648 1.414 . S
C649 C650 1.374 . S
C650 H624 0.950 . S
C650 C646 1.385 . S
C650 C649 1.374 . S
C651 C648 1.499 . S
C651 C652 1.373 . S
C651 C653 1.389 . S
C652 H625 0.950 . S
C652 C638 1.377 . S
C652 C651 1.373 . S
C653 C637 1.377 . S
C653 C651 1.389 . S
C653 C654 1.524 . S
C654 C653 1.524 . S
C654 C655 1.397 . S
C654 C659 1.363 . S
C655 H626 0.950 . S
C655 C654 1.397 . S
C655 C656 1.334 . S
C656 H627 0.950 . S
C656 C655 1.334 . S
C656 C657 1.287 . S
C657 C656 1.287 . S
C657 C658 1.524 . S
C657 H660 0.999 . S
C658 H628 0.950 . S
C658 C657 1.524 . S
C658 C659 1.415 . S
C659 H629 0.950 . S
C659 C654 1.363 . S
C659 C658 1.415 . S
H660 C657 0.999 . S
H661 C642 0.913 . S
H662 C680 0.951 . S
H663 C682 0.951 . S
H664 C684 0.950 . S
H665 C685 0.950 . S
H666 C687 0.950 . S
H667 C690 0.950 . S
H668 C691 0.950 . S
H669 C693 0.950 . S
H670 C694 0.950 . S
H671 C695 0.951 . S
H672 C697 0.951 . S
H673 C699 0.950 . S
H674 C700 0.950 . S
H675 C702 0.950 . S
H676 C705 0.950 . S
H677 C706 0.950 . S
H678 C708 0.950 . S
H679 C709 0.950 . S
C680 H662 0.951 . S
C680 C681 1.366 . S
C680 C682 1.388 . S
C681 C680 1.366 . S
C681 C685 1.385 . S
C682 H663 0.951 . S
C682 C680 1.388 . S
C682 C683 1.366 . S
C683 C682 1.366 . S
C683 C684 1.414 . S
C683 C686 1.499 . S
C684 H664 0.950 . S
C684 C683 1.414 . S
C684 C685 1.374 . S
C685 H665 0.950 . S
C685 C681 1.385 . S
C685 C684 1.374 . S
C686 C683 1.499 . S
C686 C687 1.373 . S
C686 C688 1.389 . S
C687 H666 0.950 . S
C687 C686 1.373 . S
C687 C703 1.377 . S
C688 C686 1.389 . S
C688 C689 1.524 . S
C688 C702 1.377 . S
C689 C688 1.524 . S
C689 C690 1.397 . S
C689 C694 1.363 . S
C690 H667 0.950 . S
C690 C689 1.397 . S
C690 C691 1.334 . S
C691 H668 0.950 . S
C691 C690 1.334 . S
C691 C692 1.287 . S
C692 C691 1.287 . S
C692 C693 1.524 . S
C692 H711 0.913 . S
C693 H669 0.950 . S
C693 C692 1.524 . S
C693 C694 1.415 . S
C694 H670 0.950 . S
C694 C689 1.363 . S
C694 C693 1.415 . S
C695 H671 0.951 . S
C695 C696 1.366 . S
C695 C697 1.388 1_565 S
C696 C695 1.366 . S
C696 C700 1.385 1_565 S
C697 H672 0.951 . S
C697 C695 1.388 1_545 S
C697 C698 1.366 . S
C698 C697 1.366 . S
C698 C699 1.414 . S
C698 C701 1.499 . S
C699 H673 0.950 . S
C699 C698 1.414 . S
C699 C700 1.374 . S
C700 H674 0.950 . S
C700 C696 1.385 1_545 S
C700 C699 1.374 . S
C701 C698 1.499 . S
C701 C702 1.373 . S
C701 C703 1.389 . S
C702 H675 0.950 . S
C702 C688 1.377 . S
C702 C701 1.373 . S
C703 C687 1.377 . S
C703 C701 1.389 . S
C703 C704 1.524 . S
C704 C703 1.524 . S
C704 C705 1.397 . S
C704 C709 1.363 . S
C705 H676 0.950 . S
C705 C704 1.397 . S
C705 C706 1.334 . S
C706 H677 0.950 . S
C706 C705 1.334 . S
C706 C707 1.287 . S
C707 C706 1.287 . S
C707 C708 1.524 . S
C707 H710 0.999 . S
C708 H678 0.950 . S
C708 C707 1.524 . S
C708 C709 1.415 . S
C709 H679 0.950 . S
C709 C704 1.363 . S
C709 C708 1.415 . S
H710 C707 0.999 . S
H711 C692 0.913 . S
H712 C730 0.951 . S
H713 C732 0.951 . S
H714 C734 0.950 . S
H715 C735 0.950 . S
H716 C737 0.950 . S
H717 C740 0.950 . S
H718 C741 0.950 . S
H719 C743 0.950 . S
H720 C744 0.950 . S
H721 C745 0.951 . S
H722 C747 0.951 . S
H723 C749 0.950 . S
H724 C750 0.950 . S
H725 C752 0.950 . S
H726 C755 0.950 . S
H727 C756 0.950 . S
H728 C758 0.950 . S
H729 C759 0.950 . S
C730 H712 0.951 . S
C730 C731 1.366 1_655 S
C730 C732 1.388 . S
C731 C730 1.366 1_455 S
C731 C735 1.385 . S
C732 H713 0.951 . S
C732 C730 1.388 . S
C732 C733 1.366 . S
C733 C732 1.366 . S
C733 C734 1.414 . S
C733 C736 1.499 . S
C734 H714 0.950 . S
C734 C733 1.414 . S
C734 C735 1.374 1_655 S
C735 H715 0.950 . S
C735 C731 1.385 . S
C735 C734 1.374 1_455 S
C736 C733 1.499 . S
C736 C737 1.373 . S
C736 C738 1.389 . S
C737 H716 0.950 . S
C737 C736 1.373 . S
C737 C753 1.377 . S
C738 C736 1.389 . S
C738 C739 1.524 . S
C738 C752 1.377 . S
C739 C738 1.524 . S
C739 C740 1.397 . S
C739 C744 1.363 . S
C740 H717 0.950 . S
C740 C739 1.397 . S
C740 C741 1.334 . S
C741 H718 0.950 . S
C741 C740 1.334 . S
C741 C742 1.287 . S
C742 C741 1.287 . S
C742 C743 1.524 . S
C742 H761 0.913 . S
C743 H719 0.950 . S
C743 C742 1.524 . S
C743 C744 1.415 . S
C744 H720 0.950 . S
C744 C739 1.363 . S
C744 C743 1.415 . S
C745 H721 0.951 . S
C745 C746 1.366 . S
C745 C747 1.388 . S
C746 C745 1.366 . S
C746 C750 1.385 . S
C747 H722 0.951 . S
C747 C745 1.388 . S
C747 C748 1.366 . S
C748 C747 1.366 . S
C748 C749 1.414 . S
C748 C751 1.499 . S
C749 H723 0.950 . S
C749 C748 1.414 . S
C749 C750 1.374 . S
C750 H724 0.950 . S
C750 C746 1.385 . S
C750 C749 1.374 . S
C751 C748 1.499 . S
C751 C752 1.373 . S
C751 C753 1.389 . S
C752 H725 0.950 . S
C752 C738 1.377 . S
C752 C751 1.373 . S
C753 C737 1.377 . S
C753 C751 1.389 . S
C753 C754 1.524 . S
C754 C753 1.524 . S
C754 C755 1.397 . S
C754 C759 1.363 . S
C755 H726 0.950 . S
C755 C754 1.397 . S
C755 C756 1.334 . S
C756 H727 0.950 . S
C756 C755 1.334 . S
C756 C757 1.287 . S
C757 C756 1.287 . S
C757 C758 1.524 . S
C757 H760 0.999 . S
C758 H728 0.950 . S
C758 C757 1.524 . S
C758 C759 1.415 . S
C759 H729 0.950 . S
C759 C754 1.363 . S
C759 C758 1.415 . S
H760 C757 0.999 . S
H761 C742 0.913 . S
H762 C780 0.951 . S
H763 C782 0.951 . S
H764 C784 0.950 . S
H765 C785 0.950 . S
H766 C787 0.950 . S
H767 C790 0.950 . S
H768 C791 0.950 . S
H769 C793 0.950 . S
H770 C794 0.950 . S
H771 C795 0.951 . S
H772 C797 0.951 . S
H773 C799 0.950 . S
H774 C800 0.950 . S
H775 C802 0.950 . S
H776 C805 0.950 . S
H777 C806 0.950 . S
H778 C808 0.950 . S
H779 C809 0.950 . S
C780 H762 0.951 . S
C780 C781 1.366 . S
C780 C782 1.388 . S
C781 C780 1.366 . S
C781 C785 1.385 . S
C782 H763 0.951 . S
C782 C780 1.388 . S
C782 C783 1.366 . S
C783 C782 1.366 . S
C783 C784 1.414 . S
C783 C786 1.499 . S
C784 H764 0.950 . S
C784 C783 1.414 . S
C784 C785 1.374 . S
C785 H765 0.950 . S
C785 C781 1.385 . S
C785 C784 1.374 . S
C786 C783 1.499 . S
C786 C787 1.373 . S
C786 C788 1.389 . S
C787 H766 0.950 . S
C787 C786 1.373 . S
C787 C803 1.377 . S
C788 C786 1.389 . S
C788 C789 1.524 . S
C788 C802 1.377 . S
C789 C788 1.524 . S
C789 C790 1.397 . S
C789 C794 1.363 . S
C790 H767 0.950 . S
C790 C789 1.397 . S
C790 C791 1.334 . S
C791 H768 0.950 . S
C791 C790 1.334 . S
C791 C792 1.287 . S
C792 C791 1.287 . S
C792 C793 1.524 . S
C792 H811 0.913 . S
C793 H769 0.950 . S
C793 C792 1.524 . S
C793 C794 1.415 . S
C794 H770 0.950 . S
C794 C789 1.363 . S
C794 C793 1.415 . S
C795 H771 0.951 . S
C795 C796 1.366 . S
C795 C797 1.388 . S
C796 C795 1.366 . S
C796 C800 1.385 . S
C797 H772 0.951 . S
C797 C795 1.388 . S
C797 C798 1.366 . S
C798 C797 1.366 . S
C798 C799 1.414 . S
C798 C801 1.499 . S
C799 H773 0.950 . S
C799 C798 1.414 . S
C799 C800 1.374 . S
C800 H774 0.950 . S
C800 C796 1.385 . S
C800 C799 1.374 . S
C801 C798 1.499 . S
C801 C802 1.373 . S
C801 C803 1.389 . S
C802 H775 0.950 . S
C802 C788 1.377 . S
C802 C801 1.373 . S
C803 C787 1.377 . S
C803 C801 1.389 . S
C803 C804 1.524 . S
C804 C803 1.524 . S
C804 C805 1.397 . S
C804 C809 1.363 . S
C805 H776 0.950 . S
C805 C804 1.397 . S
C805 C806 1.334 . S
C806 H777 0.950 . S
C806 C805 1.334 . S
C806 C807 1.287 . S
C807 C806 1.287 . S
C807 C808 1.524 . S
C807 H810 0.999 . S
C808 H778 0.950 . S
C808 C807 1.524 . S
C808 C809 1.415 . S
C809 H779 0.950 . S
C809 C804 1.363 . S
C809 C808 1.415 . S
H810 C807 0.999 . S
H811 C792 0.913 . S
H812 C830 0.951 . S
H813 C832 0.951 . S
H814 C834 0.950 . S
H815 C835 0.950 . S
H816 C837 0.950 . S
H817 C840 0.950 . S
H818 C841 0.950 . S
H819 C843 0.950 . S
H820 C844 0.950 . S
H821 C845 0.951 . S
H822 C847 0.951 . S
H823 C849 0.950 . S
H824 C850 0.950 . S
H825 C852 0.950 . S
H826 C855 0.950 . S
H827 C856 0.950 1_655 S
H828 C858 0.950 . S
H829 C859 0.950 . S
C830 H812 0.951 . S
C830 C831 1.366 . S
C830 C832 1.388 . S
C831 C830 1.366 . S
C831 C835 1.385 . S
C832 H813 0.951 . S
C832 C830 1.388 . S
C832 C833 1.366 . S
C833 C832 1.366 . S
C833 C834 1.414 . S
C833 C836 1.499 . S
C834 H814 0.950 . S
C834 C833 1.414 . S
C834 C835 1.374 . S
C835 H815 0.950 . S
C835 C831 1.385 . S
C835 C834 1.374 . S
C836 C833 1.499 . S
C836 C837 1.373 . S
C836 C838 1.389 . S
C837 H816 0.950 . S
C837 C836 1.373 . S
C837 C853 1.377 . S
C838 C836 1.389 . S
C838 C839 1.524 . S
C838 C852 1.377 . S
C839 C838 1.524 . S
C839 C840 1.397 . S
C839 C844 1.363 . S
C840 H817 0.950 . S
C840 C839 1.397 . S
C840 C841 1.334 . S
C841 H818 0.950 . S
C841 C840 1.334 . S
C841 C842 1.287 . S
C842 C841 1.287 . S
C842 C843 1.524 . S
C842 H861 0.913 . S
C843 H819 0.950 . S
C843 C842 1.524 . S
C843 C844 1.415 . S
C844 H820 0.950 . S
C844 C839 1.363 . S
C844 C843 1.415 . S
C845 H821 0.951 . S
C845 C846 1.366 . S
C845 C847 1.388 1_655 S
C846 C845 1.366 . S
C846 C850 1.385 1_655 S
C847 H822 0.951 . S
C847 C845 1.388 1_455 S
C847 C848 1.366 . S
C848 C847 1.366 . S
C848 C849 1.414 . S
C848 C851 1.499 . S
C849 H823 0.950 . S
C849 C848 1.414 . S
C849 C850 1.374 . S
C850 H824 0.950 . S
C850 C846 1.385 1_455 S
C850 C849 1.374 . S
C851 C848 1.499 . S
C851 C852 1.373 . S
C851 C853 1.389 . S
C852 H825 0.950 . S
C852 C838 1.377 . S
C852 C851 1.373 . S
C853 C837 1.377 . S
C853 C851 1.389 . S
C853 C854 1.524 . S
C854 C853 1.524 . S
C854 C855 1.397 . S
C854 C859 1.363 . S
C855 H826 0.950 . S
C855 C854 1.397 . S
C855 C856 1.334 . S
C856 H827 0.950 1_455 S
C856 C855 1.334 . S
C856 C857 1.287 1_455 S
C857 C856 1.287 1_655 S
C857 C858 1.524 1_655 S
C857 H860 0.999 . S
C858 H828 0.950 . S
C858 C857 1.524 1_455 S
C858 C859 1.415 . S
C859 H829 0.950 . S
C859 C854 1.363 . S
C859 C858 1.415 . S
H860 C857 0.999 . S
H861 C842 0.913 . S
H862 C880 0.951 . S
H863 C882 0.951 . S
H864 C884 0.950 . S
H865 C885 0.950 . S
H866 C887 0.950 . S
H867 C890 0.950 . S
H868 C891 0.950 . S
H869 C893 0.950 . S
H870 C894 0.950 . S
H871 C895 0.951 . S
H872 C897 0.951 . S
H873 C899 0.950 . S
H874 C900 0.950 . S
H875 C902 0.950 . S
H876 C905 0.950 . S
H877 C906 0.950 . S
H878 C908 0.950 . S
H879 C909 0.950 . S
C880 H862 0.951 . S
C880 C881 1.366 . S
C880 C882 1.388 . S
C881 C880 1.366 . S
C881 C885 1.385 . S
C882 H863 0.951 . S
C882 C880 1.388 . S
C882 C883 1.366 . S
C883 C882 1.366 . S
C883 C884 1.414 . S
C883 C886 1.499 . S
C884 H864 0.950 . S
C884 C883 1.414 . S
C884 C885 1.374 . S
C885 H865 0.950 . S
C885 C881 1.385 . S
C885 C884 1.374 . S
C886 C883 1.499 . S
C886 C887 1.373 . S
C886 C888 1.389 . S
C887 H866 0.950 . S
C887 C886 1.373 . S
C887 C903 1.377 . S
C888 C886 1.389 . S
C888 C889 1.524 . S
C888 C902 1.377 . S
C889 C888 1.524 . S
C889 C890 1.397 . S
C889 C894 1.363 . S
C890 H867 0.950 . S
C890 C889 1.397 . S
C890 C891 1.334 . S
C891 H868 0.950 . S
C891 C890 1.334 . S
C891 C892 1.287 . S
C892 C891 1.287 . S
C892 C893 1.524 . S
C892 H911 0.913 . S
C893 H869 0.950 . S
C893 C892 1.524 . S
C893 C894 1.415 . S
C894 H870 0.950 . S
C894 C889 1.363 . S
C894 C893 1.415 . S
C895 H871 0.951 . S
C895 C896 1.366 . S
C895 C897 1.388 . S
C896 C895 1.366 . S
C896 C900 1.385 . S
C897 H872 0.951 . S
C897 C895 1.388 . S
C897 C898 1.366 . S
C898 C897 1.366 . S
C898 C899 1.414 . S
C898 C901 1.499 . S
C899 H873 0.950 . S
C899 C898 1.414 . S
C899 C900 1.374 . S
C900 H874 0.950 . S
C900 C896 1.385 . S
C900 C899 1.374 . S
C901 C898 1.499 . S
C901 C902 1.373 . S
C901 C903 1.389 . S
C902 H875 0.950 . S
C902 C888 1.377 . S
C902 C901 1.373 . S
C903 C887 1.377 . S
C903 C901 1.389 . S
C903 C904 1.524 . S
C904 C903 1.524 . S
C904 C905 1.397 . S
C904 C909 1.363 . S
C905 H876 0.950 . S
C905 C904 1.397 . S
C905 C906 1.334 . S
C906 H877 0.950 . S
C906 C905 1.334 . S
C906 C907 1.287 . S
C907 C906 1.287 . S
C907 C908 1.524 . S
C907 H910 0.999 . S
C908 H878 0.950 . S
C908 C907 1.524 . S
C908 C909 1.415 . S
C909 H879 0.950 . S
C909 C904 1.363 . S
C909 C908 1.415 . S
H910 C907 0.999 . S
H911 C892 0.913 . S
C131 C8 0.448 . S
C146 C36 0.452 . S
C181 C22 0.448 . S
C196 C50 0.451 . S
C231 C64 0.448 . S
C246 C92 0.449 . S
C281 C78 0.448 . S
C296 C106 0.451 . S
C331 C13 1.364 . S
C346 C83 1.365 . S
C381 C27 1.365 . S
C396 C97 1.365 . S
C431 C111 1.366 . S
C446 C41 1.365 . S
C481 C55 1.364 . S
C496 C69 1.365 . S
C531 C63 1.420 . S
C546 C11 1.463 . S
C581 C25 1.463 . S
C596 C77 1.420 . S
C631 C39 1.463 . S
C646 C91 1.420 . S
C681 C53 1.463 . S
C696 C105 1.421 . S
C731 C7 1.421 . S
C746 C67 1.463 . S
C781 C81 1.463 . S
C796 C21 1.420 . S
C831 C95 1.463 . S
C846 C35 1.421 . S
C881 C49 1.421 . S
C896 C109 1.463 . S
