# Generated by pormake.
# Topology vbr, (6)-cn, num edge types: 1
# Building blocks:
#     Node 0, Type 0, BuildingBlock: OJICUG_clean_sbu_0, # of connection points: 6
#     Node 1, Type 0, BuildingBlock: OJICUG_clean_sbu_0, # of connection points: 6
#     Node 2, Type 0, BuildingBlock: OJICUG_clean_sbu_0, # of connection points: 6
#     Node 3, Type 0, BuildingBlock: OJICUG_clean_sbu_0, # of connection points: 6
#     Node 4, Type 0, BuildingBlock: OJICUG_clean_sbu_0, # of connection points: 6
#     Node 5, Type 0, BuildingBlock: OJICUG_clean_sbu_0, # of connection points: 6
#     Node 6, Type 0, BuildingBlock: OJICUG_clean_sbu_0, # of connection points: 6
#     Node 7, Type 0, BuildingBlock: OJICUG_clean_sbu_0, # of connection points: 6
#     Node 8, Type 0, BuildingBlock: OJICUG_clean_sbu_0, # of connection points: 6
#     Node 9, Type 0, BuildingBlock: OJICUG_clean_sbu_0, # of connection points: 6
#     Node 10, Type 0, BuildingBlock: OJICUG_clean_sbu_0, # of connection points: 6
#     Node 11, Type 0, BuildingBlock: OJICUG_clean_sbu_0, # of connection points: 6
#     Node 12, Type 0, BuildingBlock: OJICUG_clean_sbu_0, # of connection points: 6
#     Node 13, Type 0, BuildingBlock: OJICUG_clean_sbu_0, # of connection points: 6
#     Node 14, Type 0, BuildingBlock: OJICUG_clean_sbu_0, # of connection points: 6
#     Node 15, Type 0, BuildingBlock: OJICUG_clean_sbu_0, # of connection points: 6
#     Edge 16, Type (0, 0), BuildingBlock: AJUNOK_clean_linker_0, # of connection points: 2
#     Edge 17, Type (0, 0), BuildingBlock: AJUNOK_clean_linker_0, # of connection points: 2
#     Edge 18, Type (0, 0), BuildingBlock: AJUNOK_clean_linker_0, # of connection points: 2
#     Edge 19, Type (0, 0), BuildingBlock: AJUNOK_clean_linker_0, # of connection points: 2
#     Edge 20, Type (0, 0), BuildingBlock: AJUNOK_clean_linker_0, # of connection points: 2
#     Edge 21, Type (0, 0), BuildingBlock: AJUNOK_clean_linker_0, # of connection points: 2
#     Edge 22, Type (0, 0), BuildingBlock: AJUNOK_clean_linker_0, # of connection points: 2
#     Edge 23, Type (0, 0), BuildingBlock: AJUNOK_clean_linker_0, # of connection points: 2
#     Edge 24, Type (0, 0), BuildingBlock: AJUNOK_clean_linker_0, # of connection points: 2
#     Edge 25, Type (0, 0), BuildingBlock: AJUNOK_clean_linker_0, # of connection points: 2
#     Edge 26, Type (0, 0), BuildingBlock: AJUNOK_clean_linker_0, # of connection points: 2
#     Edge 27, Type (0, 0), BuildingBlock: AJUNOK_clean_linker_0, # of connection points: 2
#     Edge 28, Type (0, 0), BuildingBlock: AJUNOK_clean_linker_0, # of connection points: 2
#     Edge 29, Type (0, 0), BuildingBlock: AJUNOK_clean_linker_0, # of connection points: 2
#     Edge 30, Type (0, 0), BuildingBlock: AJUNOK_clean_linker_0, # of connection points: 2
#     Edge 31, Type (0, 0), BuildingBlock: AJUNOK_clean_linker_0, # of connection points: 2
#     Edge 32, Type (0, 0), BuildingBlock: AJUNOK_clean_linker_0, # of connection points: 2
#     Edge 33, Type (0, 0), BuildingBlock: AJUNOK_clean_linker_0, # of connection points: 2
#     Edge 34, Type (0, 0), BuildingBlock: AJUNOK_clean_linker_0, # of connection points: 2
#     Edge 35, Type (0, 0), BuildingBlock: AJUNOK_clean_linker_0, # of connection points: 2
#     Edge 36, Type (0, 0), BuildingBlock: AJUNOK_clean_linker_0, # of connection points: 2
#     Edge 37, Type (0, 0), BuildingBlock: AJUNOK_clean_linker_0, # of connection points: 2
#     Edge 38, Type (0, 0), BuildingBlock: AJUNOK_clean_linker_0, # of connection points: 2
#     Edge 39, Type (0, 0), BuildingBlock: AJUNOK_clean_linker_0, # of connection points: 2
#     Edge 40, Type (0, 0), BuildingBlock: AJUNOK_clean_linker_0, # of connection points: 2
#     Edge 41, Type (0, 0), BuildingBlock: AJUNOK_clean_linker_0, # of connection points: 2
#     Edge 42, Type (0, 0), BuildingBlock: AJUNOK_clean_linker_0, # of connection points: 2
#     Edge 43, Type (0, 0), BuildingBlock: AJUNOK_clean_linker_0, # of connection points: 2
#     Edge 44, Type (0, 0), BuildingBlock: AJUNOK_clean_linker_0, # of connection points: 2
#     Edge 45, Type (0, 0), BuildingBlock: AJUNOK_clean_linker_0, # of connection points: 2
#     Edge 46, Type (0, 0), BuildingBlock: AJUNOK_clean_linker_0, # of connection points: 2
#     Edge 47, Type (0, 0), BuildingBlock: AJUNOK_clean_linker_0, # of connection points: 2
#     Edge 48, Type (0, 0), BuildingBlock: AJUNOK_clean_linker_0, # of connection points: 2
#     Edge 49, Type (0, 0), BuildingBlock: AJUNOK_clean_linker_0, # of connection points: 2
#     Edge 50, Type (0, 0), BuildingBlock: AJUNOK_clean_linker_0, # of connection points: 2
#     Edge 51, Type (0, 0), BuildingBlock: AJUNOK_clean_linker_0, # of connection points: 2
#     Edge 52, Type (0, 0), BuildingBlock: AJUNOK_clean_linker_0, # of connection points: 2
#     Edge 53, Type (0, 0), BuildingBlock: AJUNOK_clean_linker_0, # of connection points: 2
#     Edge 54, Type (0, 0), BuildingBlock: AJUNOK_clean_linker_0, # of connection points: 2
#     Edge 55, Type (0, 0), BuildingBlock: AJUNOK_clean_linker_0, # of connection points: 2
#     Edge 56, Type (0, 0), BuildingBlock: AJUNOK_clean_linker_0, # of connection points: 2
#     Edge 57, Type (0, 0), BuildingBlock: AJUNOK_clean_linker_0, # of connection points: 2
#     Edge 58, Type (0, 0), BuildingBlock: AJUNOK_clean_linker_0, # of connection points: 2
#     Edge 59, Type (0, 0), BuildingBlock: AJUNOK_clean_linker_0, # of connection points: 2
#     Edge 60, Type (0, 0), BuildingBlock: AJUNOK_clean_linker_0, # of connection points: 2
#     Edge 61, Type (0, 0), BuildingBlock: AJUNOK_clean_linker_0, # of connection points: 2
#     Edge 62, Type (0, 0), BuildingBlock: AJUNOK_clean_linker_0, # of connection points: 2
#     Edge 63, Type (0, 0), BuildingBlock: AJUNOK_clean_linker_0, # of connection points: 2
# Relax obj value: 0.306
# Max RMSD: 0.281
# Mean RMSD: 0.281
data_MOF--net-vbr--node1-OJICUG_clean_sbu_0--edge1-AJUNOK_clean_linker_0
_symmetry_space_group_name_H-M    P1
_symmetry_Int_Tables_number       1
_symmetry_cell_setting            triclinic
loop_
_symmetry_equiv_pos_as_xyz
'x, y, z'
_cell_length_a     33.410341
_cell_length_b     22.214001
_cell_length_c     42.91617
_cell_angle_alpha  89.962145
_cell_angle_beta   90.079182
_cell_angle_gamma 90.093549
loop_
_atom_site_label
_atom_site_type_symbol
_atom_site_fract_x
_atom_site_fract_y
_atom_site_fract_z
_atom_type_partial_charge
Sc0 Sc 0.35576 0.17667 0.1008 0.0
Sc1 Sc 0.25874 0.14686 0.12762 0.0
Sc2 Sc 0.33434 0.03889 0.13744 0.0
O3 O 0.31641 0.12092 0.12255 0.0
C4 C 0.37013 0.0503 0.06759 0.0
C5 C 0.27665 0.19602 0.06112 0.0
C6 C 0.24543 0.00715 0.11725 0.0
C7 C 0.30815 0.27057 0.13811 0.0
C8 C 0.41315 0.11428 0.15072 0.0
C9 C 0.27792 0.08774 0.19302 0.0
O10 O 0.37051 0.10752 0.06791 0.0
O11 O 0.25344 0.16661 0.07895 0.0
O12 O 0.28195 0.99452 0.12121 0.0
O13 O 0.34244 0.2513 0.1304 0.0
O14 O 0.39049 0.06977 0.15631 0.0
O15 O 0.26014 0.12659 0.17618 0.0
O16 O 0.40455 0.15433 0.13081 0.0
O17 O 0.27657 0.23854 0.13662 0.0
O18 O 0.3059 0.05322 0.18306 0.0
O19 O 0.31268 0.20813 0.06789 0.0
O20 O 0.36044 0.01904 0.09156 0.0
O21 O 0.23159 0.05997 0.1196 0.0
Sc22 Sc 0.13167 0.81899 0.60169 0.0
Sc23 Sc 0.22697 0.84801 0.63009 0.0
Sc24 Sc 0.15243 0.95816 0.63713 0.0
O25 O 0.17011 0.87531 0.62347 0.0
C26 C 0.11955 0.94391 0.56649 0.0
C27 C 0.21285 0.8001 0.56401 0.0
C28 C 0.24226 0.98914 0.62315 0.0
C29 C 0.17781 0.72369 0.63781 0.0
C30 C 0.07199 0.88483 0.64845 0.0
C31 C 0.20342 0.9031 0.69502 0.0
O32 O 0.1188 0.88681 0.56795 0.0
O33 O 0.23489 0.83286 0.58128 0.0
O34 O 0.20557 0.00243 0.6224 0.0
O35 O 0.14343 0.74555 0.63262 0.0
O36 O 0.09504 0.92876 0.65438 0.0
O37 O 0.2202 0.86277 0.67853 0.0
O38 O 0.08139 0.84316 0.62971 0.0
O39 O 0.20974 0.75447 0.63513 0.0
O40 O 0.17929 0.94292 0.68389 0.0
O41 O 0.17691 0.7868 0.5707 0.0
O42 O 0.12839 0.97713 0.59003 0.0
O43 O 0.25484 0.9359 0.62705 0.0
Sc44 Sc 0.35303 0.81386 0.90858 0.0
Sc45 Sc 0.25599 0.83929 0.884 0.0
Sc46 Sc 0.3272 0.95241 0.87592 0.0
O47 O 0.31265 0.86842 0.88873 0.0
C48 C 0.36742 0.93742 0.94412 0.0
C49 C 0.27451 0.79272 0.94911 0.0
C50 C 0.24008 0.97967 0.89102 0.0
C51 C 0.30626 0.71722 0.87519 0.0
C52 C 0.40679 0.88364 0.85872 0.0
C53 C 0.27267 0.89631 0.81959 0.0
O54 O 0.36681 0.88039 0.94283 0.0
O55 O 0.25126 0.82685 0.93343 0.0
O56 O 0.27605 0.98856 0.89859 0.0
O57 O 0.34052 0.74147 0.87722 0.0
O58 O 0.38201 0.92568 0.85319 0.0
O59 O 0.26145 0.85081 0.83539 0.0
O60 O 0.4005 0.84281 0.87883 0.0
O61 O 0.27412 0.74602 0.88048 0.0
O62 O 0.2939 0.93944 0.83121 0.0
O63 O 0.30952 0.77891 0.94017 0.0
O64 O 0.35786 0.9703 0.92066 0.0
O65 O 0.22749 0.9276 0.88393 0.0
Sc66 Sc 0.1596 0.04204 0.37316 0.0
Sc67 Sc 0.23102 0.15495 0.38434 0.0
Sc68 Sc 0.13326 0.17163 0.41225 0.0
O69 O 0.17494 0.12336 0.38944 0.0
C70 C 0.08133 0.12017 0.35927 0.0
C71 C 0.21359 0.09042 0.31855 0.0
C72 C 0.18344 0.27552 0.37867 0.0
C73 C 0.2497 0.01894 0.39418 0.0
C74 C 0.12005 0.04331 0.43991 0.0
C75 C 0.20754 0.1923 0.45399 0.0
O76 O 0.09958 0.07005 0.36104 0.0
O77 O 0.23489 0.12134 0.33734 0.0
O78 O 0.15567 0.25676 0.39628 0.0
O79 O 0.21643 0.0036 0.38253 0.0
O80 O 0.10524 0.09453 0.43384 0.0
O81 O 0.2317 0.19094 0.43104 0.0
O82 O 0.14227 0.01622 0.42027 0.0
O83 O 0.25896 0.07297 0.40068 0.0
O84 O 0.1708 0.17824 0.45214 0.0
O85 O 0.18086 0.06455 0.3266 0.0
O86 O 0.09415 0.16716 0.37289 0.0
O87 O 0.20973 0.24048 0.36724 0.0
Sc88 Sc 0.65382 0.9555 0.87182 0.0
Sc89 Sc 0.72674 0.8442 0.87082 0.0
Sc90 Sc 0.63338 0.81248 0.90233 0.0
O91 O 0.6707 0.87057 0.88108 0.0
C92 C 0.6195 0.93313 0.94115 0.0
C93 C 0.74251 0.98354 0.88208 0.0
C94 C 0.71745 0.79146 0.93615 0.0
C95 C 0.70163 0.90902 0.81046 0.0
C96 C 0.57399 0.88411 0.85704 0.0
C97 C 0.67816 0.71946 0.86377 0.0
O98 O 0.62726 0.96812 0.91821 0.0
O99 O 0.75403 0.93286 0.87208 0.0
O100 O 0.68096 0.77875 0.93074 0.0
O101 O 0.68184 0.94954 0.82522 0.0
O102 O 0.58272 0.84103 0.87536 0.0
O103 O 0.70973 0.75122 0.86579 0.0
O104 O 0.59741 0.92815 0.8519 0.0
O105 O 0.71493 0.86109 0.823 0.0
O106 O 0.64379 0.74076 0.86969 0.0
O107 O 0.7072 0.99188 0.89159 0.0
O108 O 0.62099 0.87623 0.93863 0.0
O109 O 0.73831 0.82662 0.91913 0.0
Sc110 Sc 0.85409 0.18567 0.40525 0.0
Sc111 Sc 0.76097 0.15637 0.37316 0.0
Sc112 Sc 0.83489 0.04679 0.36959 0.0
O113 O 0.81709 0.12966 0.38212 0.0
C114 C 0.91371 0.12114 0.35787 0.0
C115 C 0.81106 0.28054 0.36746 0.0
C116 C 0.78467 0.09882 0.31022 0.0
C117 C 0.77093 0.20343 0.43953 0.0
C118 C 0.86762 0.06166 0.44024 0.0
C119 C 0.74652 0.01557 0.3832 0.0
O120 O 0.90529 0.15928 0.37885 0.0
O121 O 0.77877 0.25011 0.36926 0.0
O122 O 0.80557 0.05723 0.32335 0.0
O123 O 0.80669 0.21935 0.43386 0.0
O124 O 0.86212 0.02961 0.41572 0.0
O125 O 0.73401 0.06683 0.37444 0.0
O126 O 0.86457 0.11854 0.43983 0.0
O127 O 0.75041 0.16909 0.42195 0.0
O128 O 0.78301 0.00486 0.38834 0.0
O129 O 0.84505 0.2584 0.37363 0.0
O130 O 0.89007 0.07908 0.3499 0.0
O131 O 0.77111 0.1442 0.32483 0.0
Sc132 Sc 0.65644 0.0387 0.13227 0.0
Sc133 Sc 0.72972 0.14643 0.11941 0.0
Sc134 Sc 0.6326 0.17378 0.09509 0.0
O135 O 0.67233 0.11999 0.11642 0.0
C136 C 0.61513 0.0461 0.06439 0.0
C137 C 0.74238 0.00558 0.11586 0.0
C138 C 0.71022 0.18402 0.05251 0.0
C139 C 0.71439 0.09726 0.18582 0.0
C140 C 0.57925 0.11392 0.14862 0.0
C141 C 0.68272 0.27237 0.12294 0.0
O142 O 0.62428 0.01659 0.08904 0.0
O143 O 0.75627 0.05743 0.12156 0.0
O144 O 0.67582 0.2016 0.06125 0.0
O145 O 0.69147 0.0549 0.17558 0.0
O146 O 0.58552 0.15144 0.12682 0.0
O147 O 0.71371 0.24021 0.11901 0.0
O148 O 0.60314 0.07118 0.15502 0.0
O149 O 0.72572 0.14142 0.1689 0.0
O150 O 0.64784 0.24985 0.12364 0.0
O151 O 0.70586 0.99719 0.10992 0.0
O152 O 0.61653 0.10322 0.06336 0.0
O153 O 0.73306 0.15141 0.06942 0.0
Sc154 Sc 0.82374 0.95264 0.63088 0.0
Sc155 Sc 0.75369 0.83716 0.6249 0.0
Sc156 Sc 0.8491 0.81685 0.59497 0.0
O157 O 0.80929 0.86879 0.61727 0.0
C158 C 0.86289 0.94336 0.56226 0.0
C159 C 0.73541 0.97721 0.61618 0.0
C160 C 0.76761 0.7976 0.55735 0.0
C161 C 0.77049 0.89701 0.68767 0.0
C162 C 0.90407 0.8831 0.64554 0.0
C163 C 0.80537 0.71511 0.62857 0.0
O164 O 0.85386 0.97359 0.58664 0.0
O165 O 0.72471 0.92516 0.6252 0.0
O166 O 0.80404 0.78608 0.56348 0.0
O167 O 0.79094 0.93995 0.67531 0.0
O168 O 0.89752 0.84392 0.62455 0.0
O169 O 0.77262 0.74391 0.62665 0.0
O170 O 0.8791 0.92417 0.65249 0.0
O171 O 0.76314 0.84792 0.67349 0.0
O172 O 0.83903 0.74036 0.62459 0.0
O173 O 0.77137 0.98968 0.60975 0.0
O174 O 0.86162 0.8863 0.56179 0.0
O175 O 0.74419 0.82531 0.57586 0.0
Sc176 Sc 0.85469 0.6752 0.09247 0.0
Sc177 Sc 0.75665 0.64811 0.11636 0.0
Sc178 Sc 0.83038 0.54038 0.1312 0.0
O179 O 0.81411 0.6213 0.11397 0.0
C180 C 0.86957 0.54614 0.06235 0.0
C181 C 0.77797 0.69081 0.0499 0.0
C182 C 0.74276 0.50763 0.10966 0.0
C183 C 0.80578 0.77174 0.12619 0.0
C184 C 0.90853 0.61643 0.14573 0.0
C185 C 0.77244 0.59761 0.18376 0.0
O186 O 0.86996 0.60336 0.06128 0.0
O187 O 0.75418 0.66068 0.06696 0.0
O188 O 0.77929 0.49491 0.11333 0.0
O189 O 0.84064 0.75204 0.12055 0.0
O190 O 0.8851 0.57309 0.15194 0.0
O191 O 0.75686 0.6361 0.16548 0.0
O192 O 0.90172 0.65388 0.12413 0.0
O193 O 0.77436 0.7401 0.12266 0.0
O194 O 0.79844 0.55844 0.17515 0.0
O195 O 0.81308 0.70532 0.05817 0.0
O196 O 0.85948 0.51706 0.08695 0.0
O197 O 0.7292 0.56066 0.1115 0.0
Sc198 Sc 0.6363 0.31124 0.5932 0.0
Sc199 Sc 0.73055 0.33738 0.62285 0.0
Sc200 Sc 0.65958 0.45083 0.62651 0.0
O201 O 0.67484 0.36657 0.61488 0.0
C202 C 0.62511 0.43418 0.55649 0.0
C203 C 0.71744 0.29231 0.55673 0.0
C204 C 0.74829 0.47708 0.61335 0.0
C205 C 0.67924 0.21514 0.6298 0.0
C206 C 0.57855 0.3821 0.63992 0.0
C207 C 0.71033 0.39719 0.68556 0.0
O208 O 0.6263 0.37707 0.55763 0.0
O209 O 0.73899 0.32641 0.57373 0.0
O210 O 0.71238 0.48863 0.60648 0.0
O211 O 0.64548 0.24014 0.62618 0.0
O212 O 0.60335 0.4234 0.64697 0.0
O213 O 0.721 0.34972 0.67113 0.0
O214 O 0.5861 0.34151 0.61994 0.0
O215 O 0.71191 0.24362 0.62565 0.0
O216 O 0.69016 0.43979 0.67246 0.0
O217 O 0.6825 0.27477 0.56412 0.0
O218 O 0.63195 0.46723 0.58045 0.0
O219 O 0.75917 0.42556 0.62283 0.0
Sc220 Sc 0.85031 0.31151 0.90159 0.0
Sc221 Sc 0.75528 0.34403 0.87403 0.0
Sc222 Sc 0.83021 0.45335 0.86941 0.0
O223 O 0.81235 0.36979 0.88111 0.0
C224 C 0.86491 0.43322 0.93906 0.0
C225 C 0.76877 0.29045 0.93871 0.0
C226 C 0.74153 0.48508 0.88211 0.0
C227 C 0.80314 0.21948 0.8645 0.0
C228 C 0.90981 0.38048 0.85564 0.0
C229 C 0.77798 0.40359 0.81065 0.0
O230 O 0.86381 0.37623 0.93694 0.0
O231 O 0.74722 0.32689 0.92296 0.0
O232 O 0.77801 0.49466 0.88811 0.0
O233 O 0.83795 0.24065 0.86905 0.0
O234 O 0.88656 0.42429 0.84982 0.0
O235 O 0.76313 0.3595 0.82573 0.0
O236 O 0.9006 0.33837 0.87426 0.0
O237 O 0.77175 0.25089 0.86835 0.0
O238 O 0.80096 0.44367 0.82305 0.0
O239 O 0.80448 0.27731 0.93137 0.0
O240 O 0.85704 0.46781 0.91588 0.0
O241 O 0.7283 0.43294 0.87593 0.0
Sc242 Sc 0.65313 0.54487 0.36234 0.0
Sc243 Sc 0.72879 0.65148 0.3743 0.0
Sc244 Sc 0.63306 0.67115 0.40642 0.0
O245 O 0.67206 0.62327 0.3805 0.0
C246 C 0.576 0.62805 0.3547 0.0
C247 C 0.70243 0.60208 0.30695 0.0
C248 C 0.68408 0.777 0.37588 0.0
C249 C 0.7448 0.51258 0.37375 0.0
C250 C 0.61993 0.54054 0.4311 0.0
C251 C 0.7113 0.68092 0.44607 0.0
O252 O 0.5929 0.57681 0.3546 0.0
O253 O 0.72552 0.63003 0.32569 0.0
O254 O 0.65544 0.75712 0.39221 0.0
O255 O 0.70916 0.50196 0.3657 0.0
O256 O 0.60535 0.59257 0.42676 0.0
O257 O 0.73445 0.67528 0.42266 0.0
O258 O 0.63978 0.51415 0.40968 0.0
O259 O 0.75645 0.56416 0.3829 0.0
O260 O 0.6736 0.67356 0.44468 0.0
O261 O 0.67133 0.57242 0.31556 0.0
O262 O 0.59089 0.67282 0.36894 0.0
O263 O 0.71076 0.74316 0.36413 0.0
Sc264 Sc 0.15793 0.45189 0.87659 0.0
Sc265 Sc 0.23148 0.3408 0.87903 0.0
Sc266 Sc 0.13644 0.30941 0.90741 0.0
O267 O 0.17482 0.36738 0.887 0.0
C268 C 0.12248 0.43017 0.94587 0.0
C269 C 0.24687 0.4809 0.89008 0.0
C270 C 0.21807 0.28902 0.94443 0.0
C271 C 0.21066 0.40524 0.81719 0.0
C272 C 0.07821 0.38016 0.86101 0.0
C273 C 0.18253 0.21648 0.87015 0.0
O274 O 0.13077 0.46529 0.92301 0.0
O275 O 0.25879 0.42927 0.88176 0.0
O276 O 0.18228 0.27512 0.93739 0.0
O277 O 0.18761 0.44386 0.83053 0.0
O278 O 0.08651 0.33735 0.87955 0.0
O279 O 0.21432 0.24756 0.87323 0.0
O280 O 0.10186 0.42397 0.85611 0.0
O281 O 0.22417 0.35833 0.83065 0.0
O282 O 0.14808 0.23852 0.87483 0.0
O283 O 0.21058 0.49183 0.89601 0.0
O284 O 0.12316 0.37329 0.94323 0.0
O285 O 0.23978 0.32375 0.92786 0.0
Sc286 Sc 0.35295 0.68591 0.41083 0.0
Sc287 Sc 0.25699 0.65626 0.38498 0.0
Sc288 Sc 0.33239 0.5514 0.37204 0.0
O289 O 0.31446 0.63093 0.38881 0.0
C290 C 0.40892 0.63089 0.35831 0.0
C291 C 0.30324 0.78321 0.38251 0.0
C292 C 0.27612 0.61129 0.31814 0.0
C293 C 0.27428 0.69083 0.45244 0.0
C294 C 0.37125 0.55886 0.44116 0.0
C295 C 0.2458 0.51382 0.38673 0.0
O296 O 0.40158 0.66716 0.38032 0.0
O297 O 0.27205 0.75124 0.38655 0.0
O298 O 0.29938 0.56919 0.32811 0.0
O299 O 0.30826 0.711 0.44408 0.0
O300 O 0.36236 0.52905 0.41646 0.0
O301 O 0.23162 0.5661 0.38245 0.0
O302 O 0.36936 0.61584 0.4423 0.0
O303 O 0.25191 0.65919 0.43474 0.0
O304 O 0.28266 0.50429 0.39055 0.0
O305 O 0.33784 0.76035 0.38163 0.0
O306 O 0.38594 0.58743 0.35131 0.0
O307 O 0.26254 0.65309 0.33555 0.0
Sc308 Sc 0.15255 0.53886 0.13999 0.0
Sc309 Sc 0.22824 0.64341 0.12616 0.0
Sc310 Sc 0.13263 0.67107 0.09833 0.0
O311 O 0.17073 0.6178 0.12213 0.0
C312 C 0.11638 0.54069 0.06993 0.0
C313 C 0.24078 0.50186 0.12837 0.0
C314 C 0.21245 0.67268 0.05766 0.0
C315 C 0.20602 0.60427 0.19386 0.0
C316 C 0.0746 0.61812 0.1503 0.0
C317 C 0.18336 0.77147 0.12463 0.0
O318 O 0.12638 0.51218 0.09478 0.0
O319 O 0.25441 0.55486 0.13032 0.0
O320 O 0.17771 0.69165 0.06467 0.0
O321 O 0.18223 0.56204 0.18467 0.0
O322 O 0.08358 0.65595 0.1293 0.0
O323 O 0.21396 0.73783 0.12301 0.0
O324 O 0.09676 0.57377 0.1572 0.0
O325 O 0.22161 0.64307 0.17555 0.0
O326 O 0.14809 0.75039 0.12442 0.0
O327 O 0.20395 0.49053 0.1257 0.0
O328 O 0.11578 0.59781 0.06867 0.0
O329 O 0.2343 0.64289 0.07651 0.0
Sc330 Sc 0.32979 0.45933 0.63423 0.0
Sc331 Sc 0.25577 0.34801 0.633 0.0
Sc332 Sc 0.34794 0.32073 0.59829 0.0
O333 O 0.31157 0.37601 0.62227 0.0
C334 C 0.3623 0.44476 0.56356 0.0
C335 C 0.24028 0.48865 0.62398 0.0
C336 C 0.26304 0.30432 0.56548 0.0
C337 C 0.28046 0.40865 0.69456 0.0
C338 C 0.40975 0.38574 0.64436 0.0
C339 C 0.30517 0.22375 0.63586 0.0
O340 O 0.35589 0.47707 0.5878 0.0
O341 O 0.22892 0.43689 0.63281 0.0
O342 O 0.2996 0.29067 0.56945 0.0
O343 O 0.30187 0.44896 0.68086 0.0
O344 O 0.39992 0.34586 0.62455 0.0
O345 O 0.27298 0.25417 0.63569 0.0
O346 O 0.38659 0.42843 0.65231 0.0
O347 O 0.26757 0.36142 0.68108 0.0
O348 O 0.33886 0.24665 0.62931 0.0
O349 O 0.27624 0.50028 0.61699 0.0
O350 O 0.35925 0.3879 0.56394 0.0
O351 O 0.24226 0.3343 0.58481 0.0
C352 C 0.27704 0.27207 0.01881 0.0
C353 C 0.26159 0.21817 0.03122 0.0
C354 C 0.26353 0.29426 0.99024 0.0
C355 C 0.2342 0.26315 0.97326 0.0
H356 H 0.29929 0.29784 0.0315 0.0
H357 H 0.27543 0.33663 0.98181 0.0
S358 S 0.1876 0.11655 0.99417 0.0
N359 N 0.21769 0.13217 0.0236 0.0
N360 N 0.19233 0.17333 0.96962 0.0
C361 C 0.21935 0.20824 0.98503 0.0
C362 C 0.23299 0.18591 0.01416 0.0
C363 C 0.21784 0.72378 0.48571 0.0
C364 C 0.25887 0.71277 0.48226 0.0
C365 C 0.20341 0.7532 0.51208 0.0
C366 C 0.22955 0.77245 0.53587 0.0
H367 H 0.19688 0.71158 0.46748 0.0
H368 H 0.17153 0.76155 0.51363 0.0
S369 S 0.33928 0.74906 0.53907 0.0
N370 N 0.3253 0.71947 0.50551 0.0
N371 N 0.29799 0.77506 0.5552 0.0
C372 C 0.27055 0.76031 0.53305 0.0
C373 C 0.28524 0.73015 0.50625 0.0
C374 C 0.20342 0.72184 0.00634 0.0
C375 C 0.22935 0.69535 0.02834 0.0
C376 C 0.21822 0.75459 0.9812 0.0
C377 C 0.25953 0.76143 0.97689 0.0
H378 H 0.17123 0.71879 0.00899 0.0
H379 H 0.19709 0.77428 0.96498 0.0
S380 S 0.34029 0.69794 0.02676 0.0
N381 N 0.29833 0.6759 0.04346 0.0
N382 N 0.32649 0.73722 0.99595 0.0
C383 C 0.28594 0.73342 0.99809 0.0
C384 C 0.27078 0.70009 0.02376 0.0
C385 C 0.25516 0.30271 0.50874 0.0
C386 C 0.24418 0.27981 0.53791 0.0
C387 C 0.24365 0.27312 0.48154 0.0
C388 C 0.22118 0.21969 0.48295 0.0
H389 H 0.27345 0.34293 0.50703 0.0
H390 H 0.25212 0.29238 0.45929 0.0
S391 S 0.18873 0.13899 0.55413 0.0
N392 N 0.21218 0.19952 0.56715 0.0
N393 N 0.18996 0.1436 0.5157 0.0
C394 C 0.2102 0.19625 0.51207 0.0
C395 C 0.22198 0.22644 0.53975 0.0
C396 C 0.76417 0.79374 0.98108 0.0
C397 C 0.73548 0.76285 0.96341 0.0
C398 C 0.77825 0.76937 0.00897 0.0
C399 C 0.764 0.71352 0.01988 0.0
H400 H 0.77469 0.83779 0.97393 0.0
H401 H 0.79955 0.7953 0.02252 0.0
S402 S 0.69349 0.61109 0.97963 0.0
N403 N 0.69656 0.67075 0.95679 0.0
N404 N 0.72297 0.62543 0.00961 0.0
C405 C 0.7367 0.68104 0.00175 0.0
C406 C 0.7225 0.70559 0.97331 0.0
C407 C 0.73412 0.2086 0.5216 0.0
C408 C 0.7327 0.27086 0.52718 0.0
C409 C 0.74465 0.18653 0.49232 0.0
C410 C 0.75367 0.22642 0.46807 0.0
H411 H 0.72734 0.1769 0.54003 0.0
H412 H 0.74691 0.13832 0.48889 0.0
S413 S 0.74948 0.39296 0.47012 0.0
N414 N 0.73786 0.37179 0.50589 0.0
N415 N 0.75817 0.3303 0.45052 0.0
C416 C 0.75142 0.28869 0.47315 0.0
C417 C 0.74078 0.31105 0.50293 0.0
C418 C 0.70784 0.26171 0.01095 0.0
C419 C 0.72466 0.20802 0.02268 0.0
C420 C 0.72159 0.2876 0.98337 0.0
C421 C 0.75252 0.26059 0.96649 0.0
H422 H 0.68438 0.28492 0.0235 0.0
H423 H 0.70858 0.32973 0.97569 0.0
S424 S 0.80291 0.1156 0.98503 0.0
N425 N 0.77143 0.12623 0.01409 0.0
N426 N 0.79714 0.17407 0.96172 0.0
C427 C 0.76854 0.20552 0.97726 0.0
C428 C 0.75467 0.17947 0.00551 0.0
C429 C 0.70349 0.70921 0.50188 0.0
C430 C 0.7276 0.70698 0.47496 0.0
C431 C 0.71558 0.7415 0.52818 0.0
C432 C 0.75221 0.77219 0.5284 0.0
H433 H 0.67484 0.68637 0.5026 0.0
H434 H 0.69672 0.741 0.5487 0.0
S435 S 0.82584 0.78295 0.46412 0.0
N436 N 0.78966 0.73997 0.45026 0.0
N437 N 0.81218 0.80017 0.49992 0.0
C438 C 0.77659 0.77057 0.50185 0.0
C439 C 0.76444 0.73784 0.4751 0.0
C440 C 0.37494 0.02832 0.97922 0.0
C441 C 0.37489 0.9654 0.97554 0.0
C442 C 0.37578 0.05504 0.00895 0.0
C443 C 0.37619 0.02025 0.03661 0.0
H444 H 0.37288 0.0574 0.95901 0.0
H445 H 0.37425 0.10368 0.01012 0.0
S446 S 0.38016 0.85355 0.04032 0.0
N447 N 0.37863 0.86884 0.00272 0.0
N448 N 0.37952 0.91933 0.05809 0.0
C449 C 0.3781 0.9574 0.03331 0.0
C450 C 0.37765 0.93003 0.00302 0.0
C451 C 0.12577 0.93466 0.50851 0.0
C452 C 0.11524 0.97027 0.53455 0.0
C453 C 0.12567 0.9578 0.47808 0.0
C454 C 0.11449 0.01758 0.47193 0.0
H455 H 0.13571 0.88864 0.51164 0.0
H456 H 0.13539 0.92875 0.4593 0.0
S457 S 0.08115 0.12881 0.53142 0.0
N458 N 0.09137 0.06769 0.55185 0.0
N459 N 0.09045 0.11146 0.49472 0.0
C460 C 0.10234 0.05325 0.49762 0.0
C461 C 0.10301 0.02968 0.52881 0.0
C462 C 0.60432 0.02089 0.97668 0.0
C463 C 0.61209 0.95911 0.97295 0.0
C464 C 0.60238 0.04746 0.0064 0.0
C465 C 0.60859 0.0138 0.034 0.0
H466 H 0.60085 0.04955 0.95643 0.0
H467 H 0.59776 0.09565 0.00752 0.0
S468 S 0.62706 0.84908 0.0375 0.0
N469 N 0.62342 0.86392 0.99993 0.0
N470 N 0.62022 0.91398 0.05538 0.0
C471 C 0.61434 0.95134 0.0307 0.0
C472 C 0.61604 0.92409 1.00039 0.0
C473 C 0.87167 0.9412 0.50386 0.0
C474 C 0.8708 0.97475 0.53188 0.0
C475 C 0.87264 0.9692 0.47445 0.0
C476 C 0.87334 0.03226 0.47151 0.0
H477 H 0.86993 0.89257 0.50444 0.0
H478 H 0.87134 0.941 0.45389 0.0
S479 S 0.87711 0.14117 0.53759 0.0
N480 N 0.87451 0.07466 0.5546 0.0
N481 N 0.87724 0.1275 0.49981 0.0
C482 C 0.87521 0.06636 0.49943 0.0
C483 C 0.87374 0.03769 0.52938 0.0
C484 C 0.88459 0.54621 0.00466 0.0
C485 C 0.8753 0.51344 0.03204 0.0
C486 C 0.8825 0.51988 0.97485 0.0
C487 C 0.87154 0.45924 0.97092 0.0
H488 H 0.89199 0.59362 0.00601 0.0
H489 H 0.88863 0.54776 0.9547 0.0
S490 S 0.8458 0.35219 0.0348 0.0
N491 N 0.85606 0.41584 0.05292 0.0
N492 N 0.85249 0.36629 0.99743 0.0
C493 C 0.86391 0.42508 0.99819 0.0
C494 C 0.86578 0.45206 0.02851 0.0
C495 C 0.62637 0.45216 0.46782 0.0
C496 C 0.61648 0.51294 0.46295 0.0
C497 C 0.62758 0.42718 0.49793 0.0
C498 C 0.61957 0.46188 0.52486 0.0
H499 H 0.63406 0.42369 0.44824 0.0
H500 H 0.63632 0.38042 0.50007 0.0
S501 S 0.59143 0.62329 0.52532 0.0
N502 N 0.5975 0.6072 0.48808 0.0
N503 N 0.60048 0.56019 0.54438 0.0
C504 C 0.60903 0.52248 0.52039 0.0
C505 C 0.60725 0.54788 0.48962 0.0
C506 C 0.10192 0.54132 0.01212 0.0
C507 C 0.11102 0.50813 0.03945 0.0
C508 C 0.10445 0.51575 0.98216 0.0
C509 C 0.11559 0.45535 0.97792 0.0
H510 H 0.09434 0.58861 0.01363 0.0
H511 H 0.09847 0.54405 0.96213 0.0
S512 S 0.14059 0.34709 0.04143 0.0
N513 N 0.13014 0.41028 0.05988 0.0
N514 N 0.13437 0.36196 0.00407 0.0
C515 C 0.12294 0.42066 0.00508 0.0
C516 C 0.1207 0.44695 0.0356 0.0
C517 C 0.36007 0.44126 0.50505 0.0
C518 C 0.37016 0.47309 0.53251 0.0
C519 C 0.36339 0.46754 0.47537 0.0
C520 C 0.3772 0.52692 0.47161 0.0
H521 H 0.34774 0.39621 0.50646 0.0
H522 H 0.35297 0.44205 0.45543 0.0
S523 S 0.41429 0.62611 0.53542 0.0
N524 N 0.39893 0.56475 0.55357 0.0
N525 N 0.406 0.61415 0.49798 0.0
C526 C 0.39006 0.55783 0.49873 0.0
C527 C 0.38624 0.53111 0.52904 0.0
C528 C 0.28718 0.08417 0.25097 0.0
C529 C 0.26203 0.08029 0.2249 0.0
C530 C 0.27106 0.08626 0.28116 0.0
C531 C 0.22929 0.0835 0.28638 0.0
H532 H 0.31926 0.08825 0.24797 0.0
H533 H 0.29156 0.0909 0.3006 0.0
S534 S 0.15124 0.06677 0.22556 0.0
N535 N 0.19374 0.0696 0.206 0.0
N536 N 0.16362 0.07229 0.26273 0.0
C537 C 0.2041 0.07635 0.26048 0.0
C538 C 0.22044 0.07518 0.22976 0.0
C539 C 0.24781 0.95463 0.77253 0.0
C540 C 0.25653 0.89929 0.7872 0.0
C541 C 0.22786 0.95659 0.74345 0.0
C542 C 0.2158 0.9033 0.72826 0.0
H543 H 0.256 0.99659 0.7837 0.0
H544 H 0.22311 -0.0002 0.73234 0.0
S545 S 0.23085 0.74711 0.75678 0.0
N546 N 0.25162 0.78997 0.78367 0.0
N547 N 0.213 0.79411 0.73049 0.0
C548 C 0.22369 0.84807 0.74304 0.0
C549 C 0.24441 0.84593 0.77201 0.0
C550 C 0.76496 0.94669 0.74052 0.0
C551 C 0.7501 0.90599 0.71816 0.0
C552 C 0.74665 0.95208 0.76995 0.0
C553 C 0.71259 0.91777 0.77764 0.0
H554 H 0.79178 0.97256 0.73578 0.0
H555 H 0.76053 0.98059 0.78738 0.0
S556 S 0.65832 0.81181 0.72633 0.0
N557 N 0.69609 0.83614 0.70498 0.0
N558 N 0.66284 0.84612 0.76024 0.0
C559 C 0.69609 0.88 0.75501 0.0
C560 C 0.7145 0.87424 0.72526 0.0
C561 C 0.74776 0.14756 0.23098 0.0
C562 C 0.7317 0.09456 0.2179 0.0
C563 C 0.76704 0.14731 0.25992 0.0
C564 C 0.7717 0.094 0.27722 0.0
H565 H 0.74514 0.19023 0.21891 0.0
H566 H 0.77769 0.18981 0.26918 0.0
S567 S 0.73627 0.94241 0.25379 0.0
N568 N 0.72245 0.98663 0.22473 0.0
N569 N 0.75932 0.98636 0.27916 0.0
C570 C 0.75673 0.04028 0.26437 0.0
C571 C 0.73643 0.04057 0.23486 0.0
C572 C 0.72147 0.54671 0.25836 0.0
C573 C 0.71563 0.60154 0.27415 0.0
C574 C 0.74191 0.5449 0.22968 0.0
C575 C 0.75685 0.59791 0.21593 0.0
H576 H 0.71144 0.50485 0.26874 0.0
H577 H 0.7453 0.50208 0.21791 0.0
S578 S 0.74886 0.75259 0.24785 0.0
N579 N 0.72626 0.70972 0.2739 0.0
N580 N 0.76397 0.70649 0.2201 0.0
C581 C 0.75072 0.65286 0.23141 0.0
C582 C 0.7303 0.65462 0.26048 0.0
C583 C 0.75993 0.35262 0.7615 0.0
C584 C 0.76535 0.40709 0.77755 0.0
C585 C 0.74074 0.35048 0.73267 0.0
C586 C 0.72606 0.40284 0.71801 0.0
H587 H 0.76984 0.31055 0.77172 0.0
H588 H 0.73747 0.30672 0.72181 0.0
S589 S 0.73267 0.55769 0.75025 0.0
N590 N 0.75431 0.51519 0.77702 0.0
N591 N 0.7188 0.51163 0.72196 0.0
C592 C 0.73153 0.45814 0.73362 0.0
C593 C 0.75124 0.46022 0.76342 0.0
C594 C 0.20406 0.41817 0.7594 0.0
C595 C 0.22796 0.41827 0.78623 0.0
C596 C 0.2217 0.41833 0.72969 0.0
C597 C 0.26368 0.41999 0.72585 0.0
H598 H 0.17184 0.41431 0.76135 0.0
H599 H 0.20236 0.41496 0.70946 0.0
S600 S 0.33895 0.42705 0.78893 0.0
N601 N 0.29554 0.42381 0.80727 0.0
N602 N 0.32828 0.42648 0.75132 0.0
C603 C 0.28768 0.42419 0.75245 0.0
C604 C 0.26987 0.42261 0.78269 0.0
C605 C 0.23065 0.55268 0.24243 0.0
C606 C 0.22034 0.60607 0.22662 0.0
C607 C 0.25047 0.55439 0.27144 0.0
C608 C 0.26033 0.60956 0.28576 0.0
H609 H 0.22445 0.50933 0.2319 0.0
H610 H 0.25736 0.5123 0.28301 0.0
S611 S 0.23948 0.76196 0.25407 0.0
N612 N 0.22127 0.71547 0.22762 0.0
N613 N 0.25813 0.71873 0.28179 0.0
C614 C 0.24988 0.66309 0.2702 0.0
C615 C 0.23 0.66134 0.24078 0.0
C616 C 0.47561 0.06043 0.16556 0.0
C617 C 0.45425 0.11482 0.16331 0.0
C618 C 0.51759 0.06033 0.16524 0.0
C619 C 0.53907 0.11461 0.16266 0.0
H620 H 0.4601 0.01767 0.16396 0.0
H621 H 0.53289 0.01753 0.1633 0.0
S622 S 0.49711 0.2687 0.1663 0.0
N623 N 0.45755 0.22402 0.16613 0.0
N624 N 0.53642 0.22375 0.16542 0.0
C625 C 0.5181 0.16906 0.16536 0.0
C626 C 0.47555 0.16919 0.1657 0.0
C627 C 0.00863 0.83129 0.66063 0.0
C628 C 0.03012 0.88574 0.65961 0.0
C629 C 0.96683 0.83085 0.66007 0.0
C630 C 0.94501 0.88484 0.6585 0.0
H631 H 0.02418 0.78862 0.6591 0.0
H632 H 0.95163 0.78789 0.65801 0.0
S633 S 0.98681 0.03935 0.66251 0.0
N634 N 0.02645 0.99502 0.66262 0.0
N635 N 0.94758 0.99407 0.66152 0.0
C636 C 0.96589 0.93949 0.66176 0.0
C637 C 0.00865 0.93997 0.66232 0.0
C638 C 0.51084 0.83212 0.84271 0.0
C639 C 0.53246 0.88625 0.84522 0.0
C640 C 0.46905 0.83205 0.84277 0.0
C641 C 0.44746 0.88608 0.84543 0.0
H642 H 0.52622 0.78923 0.84354 0.0
H643 H 0.45367 0.7891 0.84381 0.0
S644 S 0.48986 0.04039 0.84487 0.0
N645 N 0.52931 0.99572 0.84429 0.0
N646 N 0.45044 0.99544 0.84456 0.0
C647 C 0.46854 0.94075 0.84341 0.0
C648 C 0.51128 0.94087 0.8433 0.0
C649 C 0.97678 0.17605 0.34736 0.0
C650 C 0.95505 0.12189 0.34598 0.0
C651 C 0.01853 0.17586 0.34765 0.0
C652 C 0.03994 0.12139 0.34687 0.0
H653 H 0.9615 0.21845 0.35105 0.0
H654 H 0.0338 0.21829 0.35148 0.0
S655 S -0.00319 0.9694 0.33318 0.0
N656 N 0.9576 0.01409 0.33636 0.0
N657 N 0.03639 0.01346 0.33676 0.0
C658 C 0.01861 0.06799 0.34043 0.0
C659 C 0.97593 0.06829 0.34006 0.0
C660 C 0.97002 0.56481 0.16436 0.0
C661 C 0.94858 0.61859 0.16007 0.0
C662 C 0.01195 0.56537 0.16552 0.0
C663 C 0.03332 0.6197 0.16233 0.0
H664 H 0.95482 0.52175 0.16322 0.0
H665 H 0.02752 0.52262 0.16526 0.0
S666 S 0.99031 0.77329 0.16103 0.0
N667 N 0.95107 0.72798 0.1605 0.0
N668 N 0.02991 0.72896 0.16251 0.0
C669 C 0.01194 0.67402 0.16302 0.0
C670 C 0.96942 0.67346 0.16194 0.0
C671 C 0.51497 0.33049 0.65343 0.0
C672 C 0.53717 0.38426 0.65205 0.0
C673 C 0.47319 0.33136 0.65468 0.0
C674 C 0.45204 0.38603 0.65457 0.0
H675 H 0.52979 0.28739 0.65103 0.0
H676 H 0.45729 0.2889 0.65313 0.0
S677 S 0.49642 0.5391 0.65744 0.0
N678 N 0.53534 0.4935 0.65561 0.0
N679 N 0.4565 0.49515 0.65794 0.0
C680 C 0.47396 0.43996 0.65708 0.0
C681 C 0.51671 0.43907 0.65581 0.0
C682 C 0.01534 0.32788 0.84585 0.0
C683 C 0.03699 0.382 0.84836 0.0
C684 C 0.97358 0.32798 0.84411 0.0
C685 C 0.95189 0.38219 0.84497 0.0
H686 H 0.03052 0.28496 0.84778 0.0
H687 H 0.95808 0.28511 0.84492 0.0
S688 S -0.00512 0.53626 0.84422 0.0
N689 N 0.03417 0.49137 0.84594 0.0
N690 N 0.9554 0.49152 0.84286 0.0
C691 C 0.97334 0.43666 0.84328 0.0
C692 C 0.01606 0.43657 0.84498 0.0
C693 C 0.47009 0.57946 0.33965 0.0
C694 C 0.44929 0.63341 0.34479 0.0
C695 C 0.51193 0.57882 0.33915 0.0
C696 C 0.53407 0.63215 0.34381 0.0
H697 H 0.45435 0.53677 0.33949 0.0
H698 H 0.52672 0.53551 0.33825 0.0
S699 S 0.4927 0.78696 0.34698 0.0
N700 N 0.45299 0.74261 0.34644 0.0
N701 N 0.53181 0.74175 0.34522 0.0
C702 C 0.51335 0.68723 0.34378 0.0
C703 C 0.47079 0.68777 0.34436 0.0
C704 C 0.19175 0.93977 0.137 0.0
C705 C 0.21852 0.95574 0.11302 0.0
C706 C 0.17743 0.88035 0.1397 0.0
C707 C 0.18993 0.83595 0.11858 0.0
H708 H 0.18485 0.9717 0.15528 0.0
H709 H 0.15922 0.86819 0.1596 0.0
S710 S 0.25418 0.85845 0.04901 0.0
N711 N 0.25257 0.92515 0.06585 0.0
N712 N 0.22593 0.81405 0.07067 0.0
C713 C 0.2136 0.8532 0.09298 0.0
C714 C 0.22783 0.91314 0.09023 0.0
C715 C 0.27019 0.06835 0.65669 0.0
C716 C 0.26968 0.03997 0.62737 0.0
C717 C 0.28516 0.12689 0.66019 0.0
C718 C 0.30088 0.15807 0.63458 0.0
H719 H 0.25595 0.04698 0.67652 0.0
H720 H 0.28213 0.1492 0.6825 0.0
S721 S 0.30799 0.10239 0.55332 0.0
N722 N 0.28706 0.04625 0.57267 0.0
N723 N 0.31688 0.15561 0.57933 0.0
C724 C 0.30306 0.12854 0.60562 0.0
C725 C 0.287 0.06946 0.60195 0.0
C726 C 0.22121 0.12827 0.85233 0.0
C727 C 0.1877 0.15054 0.86826 0.0
C728 C 0.23593 0.0707 0.85847 0.0
C729 C 0.21773 0.03316 0.88074 0.0
H730 H 0.23801 0.15723 0.83676 0.0
H731 H 0.2633 0.05681 0.84703 0.0
S732 S 0.12569 0.06608 0.92527 0.0
N733 N 0.13377 0.12771 0.90459 0.0
N734 N 0.16183 0.0187 0.91592 0.0
C735 C 0.18207 0.05221 0.89466 0.0
C736 C 0.16687 0.11121 0.88838 0.0
C737 C 0.28001 0.86635 0.41591 0.0
C738 C 0.29966 0.84791 0.38858 0.0
C739 C 0.26961 0.92655 0.42048 0.0
C740 C 0.27833 0.96996 0.39776 0.0
H741 H 0.27046 0.83342 0.43303 0.0
H742 H 0.25088 0.93794 0.44022 0.0
S743 S 0.33385 0.94576 0.32417 0.0
N744 N 0.33175 0.8783 0.34039 0.0
N745 N 0.31115 0.99197 0.34858 0.0
C746 C 0.30136 0.95308 0.37181 0.0
C747 C 0.31225 0.89166 0.36725 0.0
C748 C 0.76241 0.13409 0.84595 0.0
C749 C 0.797 0.154 0.86148 0.0
C750 C 0.74658 0.07704 0.85166 0.0
C751 C 0.76488 0.03762 0.87292 0.0
H752 H 0.74566 0.16458 0.83114 0.0
H753 H 0.71853 0.06487 0.84059 0.0
S754 S 0.85973 0.06343 0.91536 0.0
N755 N 0.85204 0.12673 0.89599 0.0
N756 N 0.82209 0.01832 0.90627 0.0
C757 C 0.80158 0.05413 0.8862 0.0
C758 C 0.81781 0.11272 0.88048 0.0
C759 C 0.70998 0.93753 0.35332 0.0
C760 C 0.72006 0.96281 0.38239 0.0
C761 C 0.69683 0.87753 0.35099 0.0
C762 C 0.69229 0.84201 0.37781 0.0
H763 H 0.71519 0.96279 0.33213 0.0
H764 H 0.69151 0.85831 0.32816 0.0
S765 S 0.71313 0.88822 0.45932 0.0
N766 N 0.72399 0.94837 0.43829 0.0
N767 N 0.69726 0.83696 0.4343 0.0
C768 C 0.70004 0.86807 0.40709 0.0
C769 C 0.71441 0.92826 0.40931 0.0
C770 C 0.80129 0.93698 0.10899 0.0
C771 C 0.76556 0.95199 0.12427 0.0
C772 C 0.81801 0.87932 0.1127 0.0
C773 C 0.79937 0.83613 0.13193 0.0
H774 H 0.81445 0.96788 0.09236 0.0
H775 H 0.84318 0.86676 0.09822 0.0
S776 S 0.70975 0.85838 0.18117 0.0
N777 N 0.71535 0.92263 0.16233 0.0
N778 N 0.74733 0.8156 0.16987 0.0
C779 C 0.76642 0.85355 0.14991 0.0
C780 C 0.74921 0.91123 0.14582 0.0
C781 C 0.68341 0.12253 0.59835 0.0
C782 C 0.68143 0.14919 0.62803 0.0
C783 C 0.69741 0.06355 0.59454 0.0
C784 C 0.70853 0.02884 0.62044 0.0
H785 H 0.67706 0.14908 0.57776 0.0
H786 H 0.70209 0.04649 0.57118 0.0
S787 S 0.7043 0.07558 0.70329 0.0
N788 N 0.68893 0.13546 0.68378 0.0
N789 N 0.71324 0.02321 0.67688 0.0
C790 C 0.70324 0.05321 0.6504 0.0
C791 C 0.69015 0.11389 0.65418 0.0
C792 C 0.71002 0.353 0.08995 0.0
C793 C 0.68772 0.33684 0.11648 0.0
C794 C 0.7237 0.41169 0.08569 0.0
C795 C 0.71541 0.45629 0.10777 0.0
H796 H 0.71936 0.31904 0.07341 0.0
H797 H 0.74373 0.42101 0.06641 0.0
S798 S 0.65466 0.43875 0.17943 0.0
N799 N 0.65463 0.37095 0.16354 0.0
N800 N 0.68074 0.48233 0.15568 0.0
C801 C 0.69015 0.44221 0.13298 0.0
C802 C 0.67616 0.38199 0.13733 0.0
C803 C 0.78018 0.55351 0.64719 0.0
C804 C 0.77494 0.52921 0.61714 0.0
C805 C 0.79338 0.6131 0.65131 0.0
C806 C 0.80272 0.64926 0.62549 0.0
H807 H 0.77068 0.52815 0.66746 0.0
H808 H 0.79386 0.63206 0.67456 0.0
S809 S 0.79705 0.60489 0.5423 0.0
N810 N 0.78175 0.54461 0.5615 0.0
N811 N 0.80862 0.65529 0.56915 0.0
C812 C 0.80049 0.62378 0.59554 0.0
C813 C 0.78607 0.56394 0.59136 0.0
C814 C 0.71829 0.63383 0.84495 0.0
C815 C 0.68431 0.65375 0.86114 0.0
C816 C 0.73491 0.57748 0.85097 0.0
C817 C 0.71799 0.53835 0.87309 0.0
H818 H 0.73413 0.66399 0.82937 0.0
H819 H 0.7626 0.5657 0.83935 0.0
S820 S 0.62443 0.56351 0.91714 0.0
N821 N 0.63089 0.62635 0.89708 0.0
N822 N 0.66211 0.51895 0.90773 0.0
C823 C 0.6816 0.55451 0.88694 0.0
C824 C 0.66465 0.61262 0.88101 0.0
C825 C 0.7654 0.42514 0.34251 0.0
C826 C 0.77289 0.46248 0.36846 0.0
C827 C 0.7817 0.36761 0.3405 0.0
C828 C 0.80699 0.34595 0.36391 0.0
H829 H 0.74409 0.4386 0.32475 0.0
H830 H 0.77202 0.33825 0.32178 0.0
S831 S 0.8437 0.43081 0.43272 0.0
N832 N 0.81242 0.4777 0.41532 0.0
N833 N 0.84437 0.36918 0.41115 0.0
C834 C 0.81896 0.38544 0.38789 0.0
C835 C 0.80167 0.44413 0.39023 0.0
C836 C 0.3081 0.62091 0.90388 0.0
C837 C 0.30311 0.6515 0.87537 0.0
C838 C 0.29262 0.56267 0.90817 0.0
C839 C 0.27236 0.53343 0.88387 0.0
H840 H 0.32094 0.64408 0.92375 0.0
H841 H 0.29418 0.54218 0.93105 0.0
S842 S 0.25431 0.59281 0.80426 0.0
N843 N 0.27866 0.64744 0.82227 0.0
N844 N 0.25032 0.53771 0.82993 0.0
C845 C 0.26971 0.56213 0.85471 0.0
C846 C 0.28495 0.62141 0.85052 0.0
C847 C 0.23244 0.4221 0.35637 0.0
C848 C 0.22111 0.46042 0.38086 0.0
C849 C 0.21712 0.36371 0.35405 0.0
C850 C 0.19004 0.34143 0.37628 0.0
H851 H 0.25521 0.43621 0.33993 0.0
H852 H 0.22858 0.33468 0.33586 0.0
S853 S 0.14751 0.4278 0.44276 0.0
N854 N 0.1787 0.47537 0.42584 0.0
N855 N 0.14927 0.36543 0.42187 0.0
C856 C 0.17585 0.38154 0.39939 0.0
C857 C 0.19165 0.44117 0.40165 0.0
C858 C 0.25477 0.41135 0.15939 0.0
C859 C 0.26668 0.45048 0.13537 0.0
C860 C 0.27224 0.35477 0.16278 0.0
C861 C 0.30223 0.33557 0.14225 0.0
H862 H 0.22991 0.42305 0.17441 0.0
H863 H 0.25993 0.324 0.17989 0.0
S864 S 0.34748 0.42497 0.0782 0.0
N865 N 0.313 0.46976 0.09308 0.0
N866 N 0.34623 0.36261 0.09921 0.0
C867 C 0.3172 0.37672 0.1201 0.0
C868 C 0.2992 0.43458 0.11665 0.0
C869 C 0.18109 0.62911 0.60798 0.0
C870 C 0.18252 0.65812 0.63713 0.0
C871 C 0.19712 0.57131 0.60402 0.0
C872 C 0.21409 0.54054 0.6293 0.0
H873 H 0.17056 0.6532 0.58759 0.0
H874 H 0.19844 0.55219 0.58082 0.0
S875 S 0.22205 0.59496 0.71072 0.0
N876 N 0.20037 0.65094 0.69177 0.0
N877 N 0.22907 0.54121 0.68471 0.0
C878 C 0.2131 0.56741 0.65894 0.0
C879 C 0.19764 0.62666 0.66279 0.0
loop_
_geom_bond_atom_site_label_1
_geom_bond_atom_site_label_2
_geom_bond_distance
_geom_bond_site_symmetry_2
_ccdc_geom_bond_type
Sc0 O3 2.025 . S
Sc0 O10 2.105 . S
Sc0 O13 2.105 . S
Sc0 O16 2.105 . S
Sc0 O19 2.105 . S
Sc1 O3 2.025 . S
Sc1 O11 2.105 . S
Sc1 O15 2.105 . S
Sc1 O17 2.105 . S
Sc1 O21 2.105 . S
Sc2 O3 2.025 . S
Sc2 O12 2.105 . S
Sc2 O14 2.105 . S
Sc2 O18 2.105 . S
Sc2 O20 2.105 . S
O3 Sc0 2.025 . S
O3 Sc1 2.025 . S
O3 Sc2 2.025 . S
C4 O10 1.268 . S
C4 O20 1.268 . S
C5 O11 1.268 . S
C5 O19 1.268 . S
C6 O12 1.268 . S
C6 O21 1.268 . S
C7 O13 1.268 . S
C7 O17 1.268 . S
C8 O14 1.268 . S
C8 O16 1.268 . S
C9 O15 1.268 . S
C9 O18 1.268 . S
O10 Sc0 2.105 . S
O10 C4 1.268 . S
O11 Sc1 2.105 . S
O11 C5 1.268 . S
O12 Sc2 2.105 . S
O12 C6 1.268 . S
O13 Sc0 2.105 . S
O13 C7 1.268 . S
O14 Sc2 2.105 . S
O14 C8 1.268 . S
O15 Sc1 2.105 . S
O15 C9 1.268 . S
O16 Sc0 2.105 . S
O16 C8 1.268 . S
O17 Sc1 2.105 . S
O17 C7 1.268 . S
O18 Sc2 2.105 . S
O18 C9 1.268 . S
O19 Sc0 2.105 . S
O19 C5 1.268 . S
O20 Sc2 2.105 . S
O20 C4 1.268 . S
O21 Sc1 2.105 . S
O21 C6 1.268 . S
Sc22 O25 2.025 . S
Sc22 O32 2.105 . S
Sc22 O35 2.105 . S
Sc22 O38 2.105 . S
Sc22 O41 2.105 . S
Sc23 O25 2.025 . S
Sc23 O33 2.105 . S
Sc23 O37 2.105 . S
Sc23 O39 2.105 . S
Sc23 O43 2.105 . S
Sc24 O25 2.025 . S
Sc24 O34 2.105 . S
Sc24 O36 2.105 . S
Sc24 O40 2.105 . S
Sc24 O42 2.105 . S
O25 Sc22 2.025 . S
O25 Sc23 2.025 . S
O25 Sc24 2.025 . S
C26 O32 1.268 . S
C26 O42 1.268 . S
C27 O33 1.268 . S
C27 O41 1.268 . S
C28 O34 1.268 . S
C28 O43 1.268 . S
C29 O35 1.268 . S
C29 O39 1.268 . S
C30 O36 1.268 . S
C30 O38 1.268 . S
C31 O37 1.268 . S
C31 O40 1.268 . S
O32 Sc22 2.105 . S
O32 C26 1.268 . S
O33 Sc23 2.105 . S
O33 C27 1.268 . S
O34 Sc24 2.105 . S
O34 C28 1.268 . S
O35 Sc22 2.105 . S
O35 C29 1.268 . S
O36 Sc24 2.105 . S
O36 C30 1.268 . S
O37 Sc23 2.105 . S
O37 C31 1.268 . S
O38 Sc22 2.105 . S
O38 C30 1.268 . S
O39 Sc23 2.105 . S
O39 C29 1.268 . S
O40 Sc24 2.105 . S
O40 C31 1.268 . S
O41 Sc22 2.105 . S
O41 C27 1.268 . S
O42 Sc24 2.105 . S
O42 C26 1.268 . S
O43 Sc23 2.105 . S
O43 C28 1.268 . S
Sc44 O47 2.025 . S
Sc44 O54 2.105 . S
Sc44 O57 2.105 . S
Sc44 O60 2.105 . S
Sc44 O63 2.105 . S
Sc45 O47 2.025 . S
Sc45 O55 2.105 . S
Sc45 O59 2.105 . S
Sc45 O61 2.105 . S
Sc45 O65 2.105 . S
Sc46 O47 2.025 . S
Sc46 O56 2.105 . S
Sc46 O58 2.105 . S
Sc46 O62 2.105 . S
Sc46 O64 2.105 . S
O47 Sc44 2.025 . S
O47 Sc45 2.025 . S
O47 Sc46 2.025 . S
C48 O54 1.268 . S
C48 O64 1.268 . S
C49 O55 1.268 . S
C49 O63 1.268 . S
C50 O56 1.268 . S
C50 O65 1.268 . S
C51 O57 1.268 . S
C51 O61 1.268 . S
C52 O58 1.268 . S
C52 O60 1.268 . S
C53 O59 1.268 . S
C53 O62 1.268 . S
O54 Sc44 2.105 . S
O54 C48 1.268 . S
O55 Sc45 2.105 . S
O55 C49 1.268 . S
O56 Sc46 2.105 . S
O56 C50 1.268 . S
O57 Sc44 2.105 . S
O57 C51 1.268 . S
O58 Sc46 2.105 . S
O58 C52 1.268 . S
O59 Sc45 2.105 . S
O59 C53 1.268 . S
O60 Sc44 2.105 . S
O60 C52 1.268 . S
O61 Sc45 2.105 . S
O61 C51 1.268 . S
O62 Sc46 2.105 . S
O62 C53 1.268 . S
O63 Sc44 2.105 . S
O63 C49 1.268 . S
O64 Sc46 2.105 . S
O64 C48 1.268 . S
O65 Sc45 2.105 . S
O65 C50 1.268 . S
Sc66 O69 2.025 . S
Sc66 O76 2.105 . S
Sc66 O79 2.105 . S
Sc66 O82 2.105 . S
Sc66 O85 2.105 . S
Sc67 O69 2.025 . S
Sc67 O77 2.105 . S
Sc67 O81 2.105 . S
Sc67 O83 2.105 . S
Sc67 O87 2.105 . S
Sc68 O69 2.025 . S
Sc68 O78 2.105 . S
Sc68 O80 2.105 . S
Sc68 O84 2.105 . S
Sc68 O86 2.105 . S
O69 Sc66 2.025 . S
O69 Sc67 2.025 . S
O69 Sc68 2.025 . S
C70 O76 1.268 . S
C70 O86 1.268 . S
C71 O77 1.268 . S
C71 O85 1.268 . S
C72 O78 1.268 . S
C72 O87 1.268 . S
C73 O79 1.268 . S
C73 O83 1.268 . S
C74 O80 1.268 . S
C74 O82 1.268 . S
C75 O81 1.268 . S
C75 O84 1.268 . S
O76 Sc66 2.105 . S
O76 C70 1.268 . S
O77 Sc67 2.105 . S
O77 C71 1.268 . S
O78 Sc68 2.105 . S
O78 C72 1.268 . S
O79 Sc66 2.105 . S
O79 C73 1.268 . S
O80 Sc68 2.105 . S
O80 C74 1.268 . S
O81 Sc67 2.105 . S
O81 C75 1.268 . S
O82 Sc66 2.105 . S
O82 C74 1.268 . S
O83 Sc67 2.105 . S
O83 C73 1.268 . S
O84 Sc68 2.105 . S
O84 C75 1.268 . S
O85 Sc66 2.105 . S
O85 C71 1.268 . S
O86 Sc68 2.105 . S
O86 C70 1.268 . S
O87 Sc67 2.105 . S
O87 C72 1.268 . S
Sc88 O91 2.025 . S
Sc88 O98 2.105 . S
Sc88 O101 2.105 . S
Sc88 O104 2.105 . S
Sc88 O107 2.105 . S
Sc89 O91 2.025 . S
Sc89 O99 2.105 . S
Sc89 O103 2.105 . S
Sc89 O105 2.105 . S
Sc89 O109 2.105 . S
Sc90 O91 2.025 . S
Sc90 O100 2.105 . S
Sc90 O102 2.105 . S
Sc90 O106 2.105 . S
Sc90 O108 2.105 . S
O91 Sc88 2.025 . S
O91 Sc89 2.025 . S
O91 Sc90 2.025 . S
C92 O98 1.268 . S
C92 O108 1.268 . S
C93 O99 1.268 . S
C93 O107 1.268 . S
C94 O100 1.268 . S
C94 O109 1.268 . S
C95 O101 1.268 . S
C95 O105 1.268 . S
C96 O102 1.268 . S
C96 O104 1.268 . S
C97 O103 1.268 . S
C97 O106 1.268 . S
O98 Sc88 2.105 . S
O98 C92 1.268 . S
O99 Sc89 2.105 . S
O99 C93 1.268 . S
O100 Sc90 2.105 . S
O100 C94 1.268 . S
O101 Sc88 2.105 . S
O101 C95 1.268 . S
O102 Sc90 2.105 . S
O102 C96 1.268 . S
O103 Sc89 2.105 . S
O103 C97 1.268 . S
O104 Sc88 2.105 . S
O104 C96 1.268 . S
O105 Sc89 2.105 . S
O105 C95 1.268 . S
O106 Sc90 2.105 . S
O106 C97 1.268 . S
O107 Sc88 2.105 . S
O107 C93 1.268 . S
O108 Sc90 2.105 . S
O108 C92 1.268 . S
O109 Sc89 2.105 . S
O109 C94 1.268 . S
Sc110 O113 2.025 . S
Sc110 O120 2.105 . S
Sc110 O123 2.105 . S
Sc110 O126 2.105 . S
Sc110 O129 2.105 . S
Sc111 O113 2.025 . S
Sc111 O121 2.105 . S
Sc111 O125 2.105 . S
Sc111 O127 2.105 . S
Sc111 O131 2.105 . S
Sc112 O113 2.025 . S
Sc112 O122 2.105 . S
Sc112 O124 2.105 . S
Sc112 O128 2.105 . S
Sc112 O130 2.105 . S
O113 Sc110 2.025 . S
O113 Sc111 2.025 . S
O113 Sc112 2.025 . S
C114 O120 1.268 . S
C114 O130 1.268 . S
C115 O121 1.268 . S
C115 O129 1.268 . S
C116 O122 1.268 . S
C116 O131 1.268 . S
C117 O123 1.268 . S
C117 O127 1.268 . S
C118 O124 1.268 . S
C118 O126 1.268 . S
C119 O125 1.268 . S
C119 O128 1.268 . S
O120 Sc110 2.105 . S
O120 C114 1.268 . S
O121 Sc111 2.105 . S
O121 C115 1.268 . S
O122 Sc112 2.105 . S
O122 C116 1.268 . S
O123 Sc110 2.105 . S
O123 C117 1.268 . S
O124 Sc112 2.105 . S
O124 C118 1.268 . S
O125 Sc111 2.105 . S
O125 C119 1.268 . S
O126 Sc110 2.105 . S
O126 C118 1.268 . S
O127 Sc111 2.105 . S
O127 C117 1.268 . S
O128 Sc112 2.105 . S
O128 C119 1.268 . S
O129 Sc110 2.105 . S
O129 C115 1.268 . S
O130 Sc112 2.105 . S
O130 C114 1.268 . S
O131 Sc111 2.105 . S
O131 C116 1.268 . S
Sc132 O135 2.025 . S
Sc132 O142 2.105 . S
Sc132 O145 2.105 . S
Sc132 O148 2.105 . S
Sc132 O151 2.105 . S
Sc133 O135 2.025 . S
Sc133 O143 2.105 . S
Sc133 O147 2.105 . S
Sc133 O149 2.105 . S
Sc133 O153 2.105 . S
Sc134 O135 2.025 . S
Sc134 O144 2.105 . S
Sc134 O146 2.105 . S
Sc134 O150 2.105 . S
Sc134 O152 2.105 . S
O135 Sc132 2.025 . S
O135 Sc133 2.025 . S
O135 Sc134 2.025 . S
C136 O142 1.268 . S
C136 O152 1.268 . S
C137 O143 1.268 . S
C137 O151 1.268 . S
C138 O144 1.268 . S
C138 O153 1.268 . S
C139 O145 1.268 . S
C139 O149 1.268 . S
C140 O146 1.268 . S
C140 O148 1.268 . S
C141 O147 1.268 . S
C141 O150 1.268 . S
O142 Sc132 2.105 . S
O142 C136 1.268 . S
O143 Sc133 2.105 . S
O143 C137 1.268 . S
O144 Sc134 2.105 . S
O144 C138 1.268 . S
O145 Sc132 2.105 . S
O145 C139 1.268 . S
O146 Sc134 2.105 . S
O146 C140 1.268 . S
O147 Sc133 2.105 . S
O147 C141 1.268 . S
O148 Sc132 2.105 . S
O148 C140 1.268 . S
O149 Sc133 2.105 . S
O149 C139 1.268 . S
O150 Sc134 2.105 . S
O150 C141 1.268 . S
O151 Sc132 2.105 . S
O151 C137 1.268 . S
O152 Sc134 2.105 . S
O152 C136 1.268 . S
O153 Sc133 2.105 . S
O153 C138 1.268 . S
Sc154 O157 2.025 . S
Sc154 O164 2.105 . S
Sc154 O167 2.105 . S
Sc154 O170 2.105 . S
Sc154 O173 2.105 . S
Sc155 O157 2.025 . S
Sc155 O165 2.105 . S
Sc155 O169 2.105 . S
Sc155 O171 2.105 . S
Sc155 O175 2.105 . S
Sc156 O157 2.025 . S
Sc156 O166 2.105 . S
Sc156 O168 2.105 . S
Sc156 O172 2.105 . S
Sc156 O174 2.105 . S
O157 Sc154 2.025 . S
O157 Sc155 2.025 . S
O157 Sc156 2.025 . S
C158 O164 1.268 . S
C158 O174 1.268 . S
C159 O165 1.268 . S
C159 O173 1.268 . S
C160 O166 1.268 . S
C160 O175 1.268 . S
C161 O167 1.268 . S
C161 O171 1.268 . S
C162 O168 1.268 . S
C162 O170 1.268 . S
C163 O169 1.268 . S
C163 O172 1.268 . S
O164 Sc154 2.105 . S
O164 C158 1.268 . S
O165 Sc155 2.105 . S
O165 C159 1.268 . S
O166 Sc156 2.105 . S
O166 C160 1.268 . S
O167 Sc154 2.105 . S
O167 C161 1.268 . S
O168 Sc156 2.105 . S
O168 C162 1.268 . S
O169 Sc155 2.105 . S
O169 C163 1.268 . S
O170 Sc154 2.105 . S
O170 C162 1.268 . S
O171 Sc155 2.105 . S
O171 C161 1.268 . S
O172 Sc156 2.105 . S
O172 C163 1.268 . S
O173 Sc154 2.105 . S
O173 C159 1.268 . S
O174 Sc156 2.105 . S
O174 C158 1.268 . S
O175 Sc155 2.105 . S
O175 C160 1.268 . S
Sc176 O179 2.025 . S
Sc176 O186 2.105 . S
Sc176 O189 2.105 . S
Sc176 O192 2.105 . S
Sc176 O195 2.105 . S
Sc177 O179 2.025 . S
Sc177 O187 2.105 . S
Sc177 O191 2.105 . S
Sc177 O193 2.105 . S
Sc177 O197 2.105 . S
Sc178 O179 2.025 . S
Sc178 O188 2.105 . S
Sc178 O190 2.105 . S
Sc178 O194 2.105 . S
Sc178 O196 2.105 . S
O179 Sc176 2.025 . S
O179 Sc177 2.025 . S
O179 Sc178 2.025 . S
C180 O186 1.268 . S
C180 O196 1.268 . S
C181 O187 1.268 . S
C181 O195 1.268 . S
C182 O188 1.268 . S
C182 O197 1.268 . S
C183 O189 1.268 . S
C183 O193 1.268 . S
C184 O190 1.268 . S
C184 O192 1.268 . S
C185 O191 1.268 . S
C185 O194 1.268 . S
O186 Sc176 2.105 . S
O186 C180 1.268 . S
O187 Sc177 2.105 . S
O187 C181 1.268 . S
O188 Sc178 2.105 . S
O188 C182 1.268 . S
O189 Sc176 2.105 . S
O189 C183 1.268 . S
O190 Sc178 2.105 . S
O190 C184 1.268 . S
O191 Sc177 2.105 . S
O191 C185 1.268 . S
O192 Sc176 2.105 . S
O192 C184 1.268 . S
O193 Sc177 2.105 . S
O193 C183 1.268 . S
O194 Sc178 2.105 . S
O194 C185 1.268 . S
O195 Sc176 2.105 . S
O195 C181 1.268 . S
O196 Sc178 2.105 . S
O196 C180 1.268 . S
O197 Sc177 2.105 . S
O197 C182 1.268 . S
Sc198 O201 2.025 . S
Sc198 O208 2.105 . S
Sc198 O211 2.105 . S
Sc198 O214 2.105 . S
Sc198 O217 2.105 . S
Sc199 O201 2.025 . S
Sc199 O209 2.105 . S
Sc199 O213 2.105 . S
Sc199 O215 2.105 . S
Sc199 O219 2.105 . S
Sc200 O201 2.025 . S
Sc200 O210 2.105 . S
Sc200 O212 2.105 . S
Sc200 O216 2.105 . S
Sc200 O218 2.105 . S
O201 Sc198 2.025 . S
O201 Sc199 2.025 . S
O201 Sc200 2.025 . S
C202 O208 1.268 . S
C202 O218 1.268 . S
C203 O209 1.268 . S
C203 O217 1.268 . S
C204 O210 1.268 . S
C204 O219 1.268 . S
C205 O211 1.268 . S
C205 O215 1.268 . S
C206 O212 1.268 . S
C206 O214 1.268 . S
C207 O213 1.268 . S
C207 O216 1.268 . S
O208 Sc198 2.105 . S
O208 C202 1.268 . S
O209 Sc199 2.105 . S
O209 C203 1.268 . S
O210 Sc200 2.105 . S
O210 C204 1.268 . S
O211 Sc198 2.105 . S
O211 C205 1.268 . S
O212 Sc200 2.105 . S
O212 C206 1.268 . S
O213 Sc199 2.105 . S
O213 C207 1.268 . S
O214 Sc198 2.105 . S
O214 C206 1.268 . S
O215 Sc199 2.105 . S
O215 C205 1.268 . S
O216 Sc200 2.105 . S
O216 C207 1.268 . S
O217 Sc198 2.105 . S
O217 C203 1.268 . S
O218 Sc200 2.105 . S
O218 C202 1.268 . S
O219 Sc199 2.105 . S
O219 C204 1.268 . S
Sc220 O223 2.025 . S
Sc220 O230 2.105 . S
Sc220 O233 2.105 . S
Sc220 O236 2.105 . S
Sc220 O239 2.105 . S
Sc221 O223 2.025 . S
Sc221 O231 2.105 . S
Sc221 O235 2.105 . S
Sc221 O237 2.105 . S
Sc221 O241 2.105 . S
Sc222 O223 2.025 . S
Sc222 O232 2.105 . S
Sc222 O234 2.105 . S
Sc222 O238 2.105 . S
Sc222 O240 2.105 . S
O223 Sc220 2.025 . S
O223 Sc221 2.025 . S
O223 Sc222 2.025 . S
C224 O230 1.268 . S
C224 O240 1.268 . S
C225 O231 1.268 . S
C225 O239 1.268 . S
C226 O232 1.268 . S
C226 O241 1.268 . S
C227 O233 1.268 . S
C227 O237 1.268 . S
C228 O234 1.268 . S
C228 O236 1.268 . S
C229 O235 1.268 . S
C229 O238 1.268 . S
O230 Sc220 2.105 . S
O230 C224 1.268 . S
O231 Sc221 2.105 . S
O231 C225 1.268 . S
O232 Sc222 2.105 . S
O232 C226 1.268 . S
O233 Sc220 2.105 . S
O233 C227 1.268 . S
O234 Sc222 2.105 . S
O234 C228 1.268 . S
O235 Sc221 2.105 . S
O235 C229 1.268 . S
O236 Sc220 2.105 . S
O236 C228 1.268 . S
O237 Sc221 2.105 . S
O237 C227 1.268 . S
O238 Sc222 2.105 . S
O238 C229 1.268 . S
O239 Sc220 2.105 . S
O239 C225 1.268 . S
O240 Sc222 2.105 . S
O240 C224 1.268 . S
O241 Sc221 2.105 . S
O241 C226 1.268 . S
Sc242 O245 2.025 . S
Sc242 O252 2.105 . S
Sc242 O255 2.105 . S
Sc242 O258 2.105 . S
Sc242 O261 2.105 . S
Sc243 O245 2.025 . S
Sc243 O253 2.105 . S
Sc243 O257 2.105 . S
Sc243 O259 2.105 . S
Sc243 O263 2.105 . S
Sc244 O245 2.025 . S
Sc244 O254 2.105 . S
Sc244 O256 2.105 . S
Sc244 O260 2.105 . S
Sc244 O262 2.105 . S
O245 Sc242 2.025 . S
O245 Sc243 2.025 . S
O245 Sc244 2.025 . S
C246 O252 1.268 . S
C246 O262 1.268 . S
C247 O253 1.268 . S
C247 O261 1.268 . S
C248 O254 1.268 . S
C248 O263 1.268 . S
C249 O255 1.268 . S
C249 O259 1.268 . S
C250 O256 1.268 . S
C250 O258 1.268 . S
C251 O257 1.268 . S
C251 O260 1.268 . S
O252 Sc242 2.105 . S
O252 C246 1.268 . S
O253 Sc243 2.105 . S
O253 C247 1.268 . S
O254 Sc244 2.105 . S
O254 C248 1.268 . S
O255 Sc242 2.105 . S
O255 C249 1.268 . S
O256 Sc244 2.105 . S
O256 C250 1.268 . S
O257 Sc243 2.105 . S
O257 C251 1.268 . S
O258 Sc242 2.105 . S
O258 C250 1.268 . S
O259 Sc243 2.105 . S
O259 C249 1.268 . S
O260 Sc244 2.105 . S
O260 C251 1.268 . S
O261 Sc242 2.105 . S
O261 C247 1.268 . S
O262 Sc244 2.105 . S
O262 C246 1.268 . S
O263 Sc243 2.105 . S
O263 C248 1.268 . S
Sc264 O267 2.025 . S
Sc264 O274 2.105 . S
Sc264 O277 2.105 . S
Sc264 O280 2.105 . S
Sc264 O283 2.105 . S
Sc265 O267 2.025 . S
Sc265 O275 2.105 . S
Sc265 O279 2.105 . S
Sc265 O281 2.105 . S
Sc265 O285 2.105 . S
Sc266 O267 2.025 . S
Sc266 O276 2.105 . S
Sc266 O278 2.105 . S
Sc266 O282 2.105 . S
Sc266 O284 2.105 . S
O267 Sc264 2.025 . S
O267 Sc265 2.025 . S
O267 Sc266 2.025 . S
C268 O274 1.268 . S
C268 O284 1.268 . S
C269 O275 1.268 . S
C269 O283 1.268 . S
C270 O276 1.268 . S
C270 O285 1.268 . S
C271 O277 1.268 . S
C271 O281 1.268 . S
C272 O278 1.268 . S
C272 O280 1.268 . S
C273 O279 1.268 . S
C273 O282 1.268 . S
O274 Sc264 2.105 . S
O274 C268 1.268 . S
O275 Sc265 2.105 . S
O275 C269 1.268 . S
O276 Sc266 2.105 . S
O276 C270 1.268 . S
O277 Sc264 2.105 . S
O277 C271 1.268 . S
O278 Sc266 2.105 . S
O278 C272 1.268 . S
O279 Sc265 2.105 . S
O279 C273 1.268 . S
O280 Sc264 2.105 . S
O280 C272 1.268 . S
O281 Sc265 2.105 . S
O281 C271 1.268 . S
O282 Sc266 2.105 . S
O282 C273 1.268 . S
O283 Sc264 2.105 . S
O283 C269 1.268 . S
O284 Sc266 2.105 . S
O284 C268 1.268 . S
O285 Sc265 2.105 . S
O285 C270 1.268 . S
Sc286 O289 2.025 . S
Sc286 O296 2.105 . S
Sc286 O299 2.105 . S
Sc286 O302 2.105 . S
Sc286 O305 2.105 . S
Sc287 O289 2.025 . S
Sc287 O297 2.105 . S
Sc287 O301 2.105 . S
Sc287 O303 2.105 . S
Sc287 O307 2.105 . S
Sc288 O289 2.025 . S
Sc288 O298 2.105 . S
Sc288 O300 2.105 . S
Sc288 O304 2.105 . S
Sc288 O306 2.105 . S
O289 Sc286 2.025 . S
O289 Sc287 2.025 . S
O289 Sc288 2.025 . S
C290 O296 1.268 . S
C290 O306 1.268 . S
C291 O297 1.268 . S
C291 O305 1.268 . S
C292 O298 1.268 . S
C292 O307 1.268 . S
C293 O299 1.268 . S
C293 O303 1.268 . S
C294 O300 1.268 . S
C294 O302 1.268 . S
C295 O301 1.268 . S
C295 O304 1.268 . S
O296 Sc286 2.105 . S
O296 C290 1.268 . S
O297 Sc287 2.105 . S
O297 C291 1.268 . S
O298 Sc288 2.105 . S
O298 C292 1.268 . S
O299 Sc286 2.105 . S
O299 C293 1.268 . S
O300 Sc288 2.105 . S
O300 C294 1.268 . S
O301 Sc287 2.105 . S
O301 C295 1.268 . S
O302 Sc286 2.105 . S
O302 C294 1.268 . S
O303 Sc287 2.105 . S
O303 C293 1.268 . S
O304 Sc288 2.105 . S
O304 C295 1.268 . S
O305 Sc286 2.105 . S
O305 C291 1.268 . S
O306 Sc288 2.105 . S
O306 C290 1.268 . S
O307 Sc287 2.105 . S
O307 C292 1.268 . S
Sc308 O311 2.025 . S
Sc308 O318 2.105 . S
Sc308 O321 2.105 . S
Sc308 O324 2.105 . S
Sc308 O327 2.105 . S
Sc309 O311 2.025 . S
Sc309 O319 2.105 . S
Sc309 O323 2.105 . S
Sc309 O325 2.105 . S
Sc309 O329 2.105 . S
Sc310 O311 2.025 . S
Sc310 O320 2.105 . S
Sc310 O322 2.105 . S
Sc310 O326 2.105 . S
Sc310 O328 2.105 . S
O311 Sc308 2.025 . S
O311 Sc309 2.025 . S
O311 Sc310 2.025 . S
C312 O318 1.268 . S
C312 O328 1.268 . S
C313 O319 1.268 . S
C313 O327 1.268 . S
C314 O320 1.268 . S
C314 O329 1.268 . S
C315 O321 1.268 . S
C315 O325 1.268 . S
C316 O322 1.268 . S
C316 O324 1.268 . S
C317 O323 1.268 . S
C317 O326 1.268 . S
O318 Sc308 2.105 . S
O318 C312 1.268 . S
O319 Sc309 2.105 . S
O319 C313 1.268 . S
O320 Sc310 2.105 . S
O320 C314 1.268 . S
O321 Sc308 2.105 . S
O321 C315 1.268 . S
O322 Sc310 2.105 . S
O322 C316 1.268 . S
O323 Sc309 2.105 . S
O323 C317 1.268 . S
O324 Sc308 2.105 . S
O324 C316 1.268 . S
O325 Sc309 2.105 . S
O325 C315 1.268 . S
O326 Sc310 2.105 . S
O326 C317 1.268 . S
O327 Sc308 2.105 . S
O327 C313 1.268 . S
O328 Sc310 2.105 . S
O328 C312 1.268 . S
O329 Sc309 2.105 . S
O329 C314 1.268 . S
Sc330 O333 2.025 . S
Sc330 O340 2.105 . S
Sc330 O343 2.105 . S
Sc330 O346 2.105 . S
Sc330 O349 2.105 . S
Sc331 O333 2.025 . S
Sc331 O341 2.105 . S
Sc331 O345 2.105 . S
Sc331 O347 2.105 . S
Sc331 O351 2.105 . S
Sc332 O333 2.025 . S
Sc332 O342 2.105 . S
Sc332 O344 2.105 . S
Sc332 O348 2.105 . S
Sc332 O350 2.105 . S
O333 Sc330 2.025 . S
O333 Sc331 2.025 . S
O333 Sc332 2.025 . S
C334 O340 1.268 . S
C334 O350 1.268 . S
C335 O341 1.268 . S
C335 O349 1.268 . S
C336 O342 1.268 . S
C336 O351 1.268 . S
C337 O343 1.268 . S
C337 O347 1.268 . S
C338 O344 1.268 . S
C338 O346 1.268 . S
C339 O345 1.268 . S
C339 O348 1.268 . S
O340 Sc330 2.105 . S
O340 C334 1.268 . S
O341 Sc331 2.105 . S
O341 C335 1.268 . S
O342 Sc332 2.105 . S
O342 C336 1.268 . S
O343 Sc330 2.105 . S
O343 C337 1.268 . S
O344 Sc332 2.105 . S
O344 C338 1.268 . S
O345 Sc331 2.105 . S
O345 C339 1.268 . S
O346 Sc330 2.105 . S
O346 C338 1.268 . S
O347 Sc331 2.105 . S
O347 C337 1.268 . S
O348 Sc332 2.105 . S
O348 C339 1.268 . S
O349 Sc330 2.105 . S
O349 C335 1.268 . S
O350 Sc332 2.105 . S
O350 C334 1.268 . S
O351 Sc331 2.105 . S
O351 C336 1.268 . S
C352 C353 1.369 . S
C352 C354 1.419 1_554 S
C352 H356 0.930 . S
C353 C352 1.369 . S
C353 C362 1.429 . S
C354 C352 1.419 1_556 S
C354 C355 1.363 . S
C354 H357 0.929 . S
C355 C354 1.363 . S
C355 C361 1.428 . S
H356 C352 0.930 . S
H357 C354 0.929 . S
S358 N359 1.613 1_556 S
S358 N360 1.610 . S
N359 S358 1.613 1_554 S
N359 C362 1.350 . S
N360 S358 1.610 . S
N360 C361 1.351 . S
C361 C355 1.428 . S
C361 N360 1.351 . S
C361 C362 1.434 1_556 S
C362 C353 1.429 . S
C362 N359 1.350 . S
C362 C361 1.434 1_554 S
C363 C364 1.369 . S
C363 C365 1.419 . S
C363 H367 0.930 . S
C364 C363 1.369 . S
C364 C373 1.429 . S
C365 C363 1.419 . S
C365 C366 1.363 . S
C365 H368 0.929 . S
C366 C365 1.363 . S
C366 C372 1.428 . S
H367 C363 0.930 . S
H368 C365 0.929 . S
S369 N370 1.613 . S
S369 N371 1.610 . S
N370 S369 1.613 . S
N370 C373 1.350 . S
N371 S369 1.610 . S
N371 C372 1.351 . S
C372 C366 1.428 . S
C372 N371 1.351 . S
C372 C373 1.434 . S
C373 C364 1.429 . S
C373 N370 1.350 . S
C373 C372 1.434 . S
C374 C375 1.369 . S
C374 C376 1.419 1_554 S
C374 H378 0.930 . S
C375 C374 1.369 . S
C375 C384 1.429 . S
C376 C374 1.419 1_556 S
C376 C377 1.363 . S
C376 H379 0.929 . S
C377 C376 1.363 . S
C377 C383 1.428 . S
H378 C374 0.930 . S
H379 C376 0.929 . S
S380 N381 1.613 1_556 S
S380 N382 1.610 . S
N381 S380 1.613 1_554 S
N381 C384 1.350 . S
N382 S380 1.610 . S
N382 C383 1.351 . S
C383 C377 1.428 . S
C383 N382 1.351 . S
C383 C384 1.434 1_556 S
C384 C375 1.429 . S
C384 N381 1.350 . S
C384 C383 1.434 1_554 S
C385 C386 1.369 . S
C385 C387 1.419 . S
C385 H389 0.930 . S
C386 C385 1.369 . S
C386 C395 1.429 . S
C387 C385 1.419 . S
C387 C388 1.363 . S
C387 H390 0.929 . S
C388 C387 1.363 . S
C388 C394 1.428 . S
H389 C385 0.930 . S
H390 C387 0.929 . S
S391 N392 1.613 . S
S391 N393 1.610 . S
N392 S391 1.613 . S
N392 C395 1.350 . S
N393 S391 1.610 . S
N393 C394 1.351 . S
C394 C388 1.428 . S
C394 N393 1.351 . S
C394 C395 1.434 . S
C395 C386 1.429 . S
C395 N392 1.350 . S
C395 C394 1.434 . S
C396 C397 1.369 . S
C396 C398 1.419 1_556 S
C396 H400 0.930 . S
C397 C396 1.369 . S
C397 C406 1.429 . S
C398 C396 1.419 1_554 S
C398 C399 1.363 . S
C398 H401 0.929 . S
C399 C398 1.363 . S
C399 C405 1.428 . S
H400 C396 0.930 . S
H401 C398 0.929 . S
S402 N403 1.613 . S
S402 N404 1.610 1_556 S
N403 S402 1.613 . S
N403 C406 1.350 . S
N404 S402 1.610 1_554 S
N404 C405 1.351 . S
C405 C399 1.428 . S
C405 N404 1.351 . S
C405 C406 1.434 1_554 S
C406 C397 1.429 . S
C406 N403 1.350 . S
C406 C405 1.434 1_556 S
C407 C408 1.369 . S
C407 C409 1.419 . S
C407 H411 0.930 . S
C408 C407 1.369 . S
C408 C417 1.429 . S
C409 C407 1.419 . S
C409 C410 1.363 . S
C409 H412 0.929 . S
C410 C409 1.363 . S
C410 C416 1.428 . S
H411 C407 0.930 . S
H412 C409 0.929 . S
S413 N414 1.613 . S
S413 N415 1.610 . S
N414 S413 1.613 . S
N414 C417 1.350 . S
N415 S413 1.610 . S
N415 C416 1.351 . S
C416 C410 1.428 . S
C416 N415 1.351 . S
C416 C417 1.434 . S
C417 C408 1.429 . S
C417 N414 1.350 . S
C417 C416 1.434 . S
C418 C419 1.369 . S
C418 C420 1.419 1_554 S
C418 H422 0.930 . S
C419 C418 1.369 . S
C419 C428 1.429 . S
C420 C418 1.419 1_556 S
C420 C421 1.363 . S
C420 H423 0.929 . S
C421 C420 1.363 . S
C421 C427 1.428 . S
H422 C418 0.930 . S
H423 C420 0.929 . S
S424 N425 1.613 1_556 S
S424 N426 1.610 . S
N425 S424 1.613 1_554 S
N425 C428 1.350 . S
N426 S424 1.610 . S
N426 C427 1.351 . S
C427 C421 1.428 . S
C427 N426 1.351 . S
C427 C428 1.434 1_556 S
C428 C419 1.429 . S
C428 N425 1.350 . S
C428 C427 1.434 1_554 S
C429 C430 1.369 . S
C429 C431 1.419 . S
C429 H433 0.930 . S
C430 C429 1.369 . S
C430 C439 1.429 . S
C431 C429 1.419 . S
C431 C432 1.363 . S
C431 H434 0.929 . S
C432 C431 1.363 . S
C432 C438 1.428 . S
H433 C429 0.930 . S
H434 C431 0.929 . S
S435 N436 1.613 . S
S435 N437 1.610 . S
N436 S435 1.613 . S
N436 C439 1.350 . S
N437 S435 1.610 . S
N437 C438 1.351 . S
C438 C432 1.428 . S
C438 N437 1.351 . S
C438 C439 1.434 . S
C439 C430 1.429 . S
C439 N436 1.350 . S
C439 C438 1.434 . S
C440 C441 1.369 1_545 S
C440 C442 1.419 . S
C440 H444 0.930 . S
C441 C440 1.369 1_565 S
C441 C450 1.429 1_556 S
C442 C440 1.419 . S
C442 C443 1.363 1_556 S
C442 H445 0.929 . S
C443 C442 1.363 1_554 S
C443 C449 1.428 1_545 S
H444 C440 0.930 . S
H445 C442 0.929 . S
S446 N447 1.613 . S
S446 N448 1.610 . S
N447 S446 1.613 . S
N447 C450 1.350 . S
N448 S446 1.610 . S
N448 C449 1.351 . S
C449 C443 1.428 1_565 S
C449 N448 1.351 . S
C449 C450 1.434 . S
C450 C441 1.429 1_554 S
C450 N447 1.350 . S
C450 C449 1.434 . S
C451 C452 1.369 . S
C451 C453 1.419 . S
C451 H455 0.930 . S
C452 C451 1.369 . S
C452 C461 1.429 1_565 S
C453 C451 1.419 . S
C453 C454 1.363 1_565 S
C453 H456 0.929 . S
C454 C453 1.363 1_545 S
C454 C460 1.428 . S
H455 C451 0.930 . S
H456 C453 0.929 . S
S457 N458 1.613 . S
S457 N459 1.610 . S
N458 S457 1.613 . S
N458 C461 1.350 . S
N459 S457 1.610 . S
N459 C460 1.351 . S
C460 C454 1.428 . S
C460 N459 1.351 . S
C460 C461 1.434 . S
C461 C452 1.429 1_545 S
C461 N458 1.350 . S
C461 C460 1.434 . S
C462 C463 1.369 1_545 S
C462 C464 1.409 1_556 S
C462 H466 0.930 . S
C463 C462 1.369 1_565 S
C463 C472 1.429 1_556 S
C464 C462 1.409 1_554 S
C464 C465 1.374 . S
C464 H467 0.928 1_554 S
C465 C464 1.374 . S
C465 C471 1.428 1_545 S
H466 C462 0.930 . S
H467 C464 0.928 1_556 S
S468 N469 1.613 . S
S468 N470 1.610 . S
N469 S468 1.613 . S
N469 C472 1.350 . S
N470 S468 1.610 . S
N470 C471 1.351 . S
C471 C465 1.428 1_565 S
C471 N470 1.351 . S
C471 C472 1.434 . S
C472 C463 1.429 1_554 S
C472 N469 1.350 . S
C472 C471 1.434 . S
C473 C474 1.369 . S
C473 C475 1.419 . S
C473 H477 0.930 . S
C474 C473 1.369 . S
C474 C483 1.429 1_565 S
C475 C473 1.419 . S
C475 C476 1.363 1_565 S
C475 H478 0.929 . S
C476 C475 1.363 1_545 S
C476 C482 1.428 . S
H477 C473 0.930 . S
H478 C475 0.929 . S
S479 N480 1.613 . S
S479 N481 1.610 . S
N480 S479 1.613 . S
N480 C483 1.350 . S
N481 S479 1.610 . S
N481 C482 1.351 . S
C482 C476 1.428 . S
C482 N481 1.351 . S
C482 C483 1.434 . S
C483 C474 1.429 1_545 S
C483 N480 1.350 . S
C483 C482 1.434 . S
C484 C485 1.370 . S
C484 C486 1.418 1_554 S
C484 H488 0.930 1_554 S
C485 C484 1.370 . S
C485 C494 1.429 . S
C486 C484 1.418 1_556 S
C486 C487 1.363 . S
C486 H489 0.929 . S
C487 C486 1.363 . S
C487 C493 1.428 1_556 S
H488 C484 0.930 1_556 S
H489 C486 0.929 . S
S490 N491 1.613 . S
S490 N492 1.610 . S
N491 S490 1.613 . S
N491 C494 1.350 . S
N492 S490 1.610 . S
N492 C493 1.351 . S
C493 C487 1.428 1_554 S
C493 N492 1.351 . S
C493 C494 1.434 . S
C494 C485 1.429 . S
C494 N491 1.350 . S
C494 C493 1.434 . S
C495 C496 1.369 . S
C495 C497 1.419 . S
C495 H499 0.930 . S
C496 C495 1.369 . S
C496 C505 1.429 . S
C497 C495 1.419 . S
C497 C498 1.363 . S
C497 H500 0.929 . S
C498 C497 1.363 . S
C498 C504 1.428 . S
H499 C495 0.930 . S
H500 C497 0.929 . S
S501 N502 1.613 . S
S501 N503 1.610 . S
N502 S501 1.613 . S
N502 C505 1.350 . S
N503 S501 1.610 . S
N503 C504 1.351 . S
C504 C498 1.428 . S
C504 N503 1.351 . S
C504 C505 1.434 . S
C505 C496 1.429 . S
C505 N502 1.350 . S
C505 C504 1.434 . S
C506 C507 1.343 1_556 S
C506 C508 1.442 . S
C506 H510 0.933 . S
C507 C506 1.343 1_554 S
C507 C516 1.429 . S
C508 C506 1.442 . S
C508 C509 1.363 . S
C508 H511 0.929 . S
C509 C508 1.363 . S
C509 C515 1.428 1_556 S
H510 C506 0.933 . S
H511 C508 0.929 . S
S512 N513 1.613 . S
S512 N514 1.610 . S
N513 S512 1.613 . S
N513 C516 1.350 . S
N514 S512 1.610 . S
N514 C515 1.351 . S
C515 C509 1.428 1_554 S
C515 N514 1.351 . S
C515 C516 1.434 . S
C516 C507 1.429 . S
C516 N513 1.350 . S
C516 C515 1.434 . S
C517 C518 1.369 . S
C517 C519 1.419 . S
C517 H521 0.930 . S
C518 C517 1.369 . S
C518 C527 1.429 . S
C519 C517 1.419 . S
C519 C520 1.363 . S
C519 H522 0.929 . S
C520 C519 1.363 . S
C520 C526 1.428 . S
H521 C517 0.930 . S
H522 C519 0.929 . S
S523 N524 1.613 . S
S523 N525 1.610 . S
N524 S523 1.613 . S
N524 C527 1.350 . S
N525 S523 1.610 . S
N525 C526 1.351 . S
C526 C520 1.428 . S
C526 N525 1.351 . S
C526 C527 1.434 . S
C527 C518 1.429 . S
C527 N524 1.350 . S
C527 C526 1.434 . S
C528 C529 1.369 . S
C528 C530 1.419 . S
C528 H532 0.930 . S
C529 C528 1.369 . S
C529 C538 1.429 . S
C530 C528 1.419 . S
C530 C531 1.363 . S
C530 H533 0.929 . S
C531 C530 1.363 . S
C531 C537 1.428 . S
H532 C528 0.930 . S
H533 C530 0.929 . S
S534 N535 1.613 . S
S534 N536 1.610 . S
N535 S534 1.613 . S
N535 C538 1.350 . S
N536 S534 1.610 . S
N536 C537 1.351 . S
C537 C531 1.428 . S
C537 N536 1.351 . S
C537 C538 1.434 . S
C538 C529 1.429 . S
C538 N535 1.350 . S
C538 C537 1.434 . S
C539 C540 1.369 . S
C539 C541 1.419 . S
C539 H543 0.930 . S
C540 C539 1.369 . S
C540 C549 1.429 . S
C541 C539 1.419 . S
C541 C542 1.363 . S
C541 H544 0.929 . S
C542 C541 1.363 . S
C542 C548 1.428 . S
H543 C539 0.930 . S
H544 C541 0.929 . S
S545 N546 1.613 . S
S545 N547 1.610 . S
N546 S545 1.613 . S
N546 C549 1.350 . S
N547 S545 1.610 . S
N547 C548 1.351 . S
C548 C542 1.428 . S
C548 N547 1.351 . S
C548 C549 1.434 . S
C549 C540 1.429 . S
C549 N546 1.350 . S
C549 C548 1.434 . S
C550 C551 1.369 . S
C550 C552 1.419 . S
C550 H554 0.930 . S
C551 C550 1.369 . S
C551 C560 1.429 . S
C552 C550 1.419 . S
C552 C553 1.363 . S
C552 H555 0.929 . S
C553 C552 1.363 . S
C553 C559 1.428 . S
H554 C550 0.930 . S
H555 C552 0.929 . S
S556 N557 1.613 . S
S556 N558 1.610 . S
N557 S556 1.613 . S
N557 C560 1.350 . S
N558 S556 1.610 . S
N558 C559 1.351 . S
C559 C553 1.428 . S
C559 N558 1.351 . S
C559 C560 1.434 . S
C560 C551 1.429 . S
C560 N557 1.350 . S
C560 C559 1.434 . S
C561 C562 1.369 . S
C561 C563 1.419 . S
C561 H565 0.930 . S
C562 C561 1.369 . S
C562 C571 1.429 . S
C563 C561 1.419 . S
C563 C564 1.363 . S
C563 H566 0.929 . S
C564 C563 1.363 . S
C564 C570 1.428 . S
H565 C561 0.930 . S
H566 C563 0.929 . S
S567 N568 1.613 . S
S567 N569 1.610 . S
N568 S567 1.613 . S
N568 C571 1.350 . S
N569 S567 1.610 . S
N569 C570 1.351 . S
C570 C564 1.428 . S
C570 N569 1.351 . S
C570 C571 1.434 . S
C571 C562 1.429 . S
C571 N568 1.350 . S
C571 C570 1.434 . S
C572 C573 1.369 . S
C572 C574 1.419 . S
C572 H576 0.930 . S
C573 C572 1.369 . S
C573 C582 1.429 . S
C574 C572 1.419 . S
C574 C575 1.363 . S
C574 H577 0.929 . S
C575 C574 1.363 . S
C575 C581 1.428 . S
H576 C572 0.930 . S
H577 C574 0.929 . S
S578 N579 1.613 . S
S578 N580 1.610 . S
N579 S578 1.613 . S
N579 C582 1.350 . S
N580 S578 1.610 . S
N580 C581 1.351 . S
C581 C575 1.428 . S
C581 N580 1.351 . S
C581 C582 1.434 . S
C582 C573 1.429 . S
C582 N579 1.350 . S
C582 C581 1.434 . S
C583 C584 1.369 . S
C583 C585 1.419 . S
C583 H587 0.930 . S
C584 C583 1.369 . S
C584 C593 1.429 . S
C585 C583 1.419 . S
C585 C586 1.363 . S
C585 H588 0.929 . S
C586 C585 1.363 . S
C586 C592 1.428 . S
H587 C583 0.930 . S
H588 C585 0.929 . S
S589 N590 1.613 . S
S589 N591 1.610 . S
N590 S589 1.613 . S
N590 C593 1.350 . S
N591 S589 1.610 . S
N591 C592 1.351 . S
C592 C586 1.428 . S
C592 N591 1.351 . S
C592 C593 1.434 . S
C593 C584 1.429 . S
C593 N590 1.350 . S
C593 C592 1.434 . S
C594 C595 1.369 . S
C594 C596 1.419 . S
C594 H598 0.930 . S
C595 C594 1.369 . S
C595 C604 1.429 . S
C596 C594 1.419 . S
C596 C597 1.363 . S
C596 H599 0.929 . S
C597 C596 1.363 . S
C597 C603 1.428 . S
H598 C594 0.930 . S
H599 C596 0.929 . S
S600 N601 1.613 . S
S600 N602 1.610 . S
N601 S600 1.613 . S
N601 C604 1.350 . S
N602 S600 1.610 . S
N602 C603 1.351 . S
C603 C597 1.428 . S
C603 N602 1.351 . S
C603 C604 1.434 . S
C604 C595 1.429 . S
C604 N601 1.350 . S
C604 C603 1.434 . S
C605 C606 1.369 . S
C605 C607 1.419 . S
C605 H609 0.930 . S
C606 C605 1.369 . S
C606 C615 1.429 . S
C607 C605 1.419 . S
C607 C608 1.363 . S
C607 H610 0.929 . S
C608 C607 1.363 . S
C608 C614 1.428 . S
H609 C605 0.930 . S
H610 C607 0.929 . S
S611 N612 1.613 . S
S611 N613 1.610 . S
N612 S611 1.613 . S
N612 C615 1.350 . S
N613 S611 1.610 . S
N613 C614 1.351 . S
C614 C608 1.428 . S
C614 N613 1.351 . S
C614 C615 1.434 . S
C615 C606 1.429 . S
C615 N612 1.350 . S
C615 C614 1.434 . S
C616 C617 1.369 . S
C616 C618 1.419 . S
C616 H620 0.930 . S
C617 C616 1.369 . S
C617 C626 1.429 . S
C618 C616 1.419 . S
C618 C619 1.363 . S
C618 H621 0.929 . S
C619 C618 1.363 . S
C619 C625 1.428 . S
H620 C616 0.930 . S
H621 C618 0.929 . S
S622 N623 1.613 . S
S622 N624 1.610 . S
N623 S622 1.613 . S
N623 C626 1.350 . S
N624 S622 1.610 . S
N624 C625 1.351 . S
C625 C619 1.428 . S
C625 N624 1.351 . S
C625 C626 1.434 . S
C626 C617 1.429 . S
C626 N623 1.350 . S
C626 C625 1.434 . S
C627 C628 1.369 . S
C627 C629 1.419 1_455 S
C627 H631 0.930 . S
C628 C627 1.369 . S
C628 C637 1.429 . S
C629 C627 1.419 1_655 S
C629 C630 1.363 . S
C629 H632 0.929 . S
C630 C629 1.363 . S
C630 C636 1.428 . S
H631 C627 0.930 . S
H632 C629 0.929 . S
S633 N634 1.615 1_655 S
S633 N635 1.609 . S
N634 S633 1.615 1_455 S
N634 C637 1.350 . S
N635 S633 1.609 . S
N635 C636 1.351 . S
C636 C630 1.428 . S
C636 N635 1.351 . S
C636 C637 1.434 1_655 S
C637 C628 1.429 . S
C637 N634 1.350 . S
C637 C636 1.434 1_455 S
C638 C639 1.369 . S
C638 C640 1.419 . S
C638 H642 0.930 . S
C639 C638 1.369 . S
C639 C648 1.429 . S
C640 C638 1.419 . S
C640 C641 1.363 . S
C640 H643 0.929 . S
C641 C640 1.363 . S
C641 C647 1.428 . S
H642 C638 0.930 . S
H643 C640 0.929 . S
S644 N645 1.613 . S
S644 N646 1.610 . S
N645 S644 1.613 . S
N645 C648 1.350 . S
N646 S644 1.610 . S
N646 C647 1.351 . S
C647 C641 1.428 . S
C647 N646 1.351 . S
C647 C648 1.434 . S
C648 C639 1.429 . S
C648 N645 1.350 . S
C648 C647 1.434 . S
C649 C650 1.369 . S
C649 C651 1.419 1_655 S
C649 H653 0.930 . S
C650 C649 1.369 . S
C650 C659 1.429 . S
C651 C649 1.419 1_455 S
C651 C652 1.363 . S
C651 H654 0.929 . S
C652 C651 1.363 . S
C652 C658 1.428 . S
H653 C649 0.930 . S
H654 C651 0.929 . S
S655 N656 1.615 1_455 S
S655 N657 1.609 . S
N656 S655 1.615 1_655 S
N656 C659 1.350 . S
N657 S655 1.609 . S
N657 C658 1.351 . S
C658 C652 1.428 . S
C658 N657 1.351 . S
C658 C659 1.434 1_455 S
C659 C650 1.429 . S
C659 N656 1.350 . S
C659 C658 1.434 1_655 S
C660 C661 1.369 . S
C660 C662 1.419 1_655 S
C660 H664 0.930 . S
C661 C660 1.369 . S
C661 C670 1.429 . S
C662 C660 1.419 1_455 S
C662 C663 1.363 . S
C662 H665 0.929 . S
C663 C662 1.363 . S
C663 C669 1.428 . S
H664 C660 0.930 . S
H665 C662 0.929 . S
S666 N667 1.615 1_455 S
S666 N668 1.609 . S
N667 S666 1.615 1_655 S
N667 C670 1.350 . S
N668 S666 1.609 . S
N668 C669 1.351 . S
C669 C663 1.428 . S
C669 N668 1.351 . S
C669 C670 1.434 1_455 S
C670 C661 1.429 . S
C670 N667 1.350 . S
C670 C669 1.434 1_655 S
C671 C672 1.369 . S
C671 C673 1.419 . S
C671 H675 0.930 . S
C672 C671 1.369 . S
C672 C681 1.429 . S
C673 C671 1.419 . S
C673 C674 1.363 . S
C673 H676 0.929 . S
C674 C673 1.363 . S
C674 C680 1.428 . S
H675 C671 0.930 . S
H676 C673 0.929 . S
S677 N678 1.613 . S
S677 N679 1.610 . S
N678 S677 1.613 . S
N678 C681 1.350 . S
N679 S677 1.610 . S
N679 C680 1.351 . S
C680 C674 1.428 . S
C680 N679 1.351 . S
C680 C681 1.434 . S
C681 C672 1.429 . S
C681 N678 1.350 . S
C681 C680 1.434 . S
C682 C683 1.369 . S
C682 C684 1.419 1_455 S
C682 H686 0.930 . S
C683 C682 1.369 . S
C683 C692 1.429 . S
C684 C682 1.419 1_655 S
C684 C685 1.363 . S
C684 H687 0.929 . S
C685 C684 1.363 . S
C685 C691 1.428 . S
H686 C682 0.930 . S
H687 C684 0.929 . S
S688 N689 1.615 1_655 S
S688 N690 1.609 . S
N689 S688 1.615 1_455 S
N689 C692 1.350 . S
N690 S688 1.609 . S
N690 C691 1.351 . S
C691 C685 1.428 . S
C691 N690 1.351 . S
C691 C692 1.434 1_655 S
C692 C683 1.429 . S
C692 N689 1.350 . S
C692 C691 1.434 1_455 S
C693 C694 1.369 . S
C693 C695 1.419 . S
C693 H697 0.930 . S
C694 C693 1.369 . S
C694 C703 1.429 . S
C695 C693 1.419 . S
C695 C696 1.363 . S
C695 H698 0.929 . S
C696 C695 1.363 . S
C696 C702 1.428 . S
H697 C693 0.930 . S
H698 C695 0.929 . S
S699 N700 1.613 . S
S699 N701 1.610 . S
N700 S699 1.613 . S
N700 C703 1.350 . S
N701 S699 1.610 . S
N701 C702 1.351 . S
C702 C696 1.428 . S
C702 N701 1.351 . S
C702 C703 1.434 . S
C703 C694 1.429 . S
C703 N700 1.350 . S
C703 C702 1.434 . S
C704 C705 1.369 1_565 S
C704 C706 1.419 . S
C704 H708 0.930 1_565 S
C705 C704 1.369 1_545 S
C705 C714 1.429 1_545 S
C706 C704 1.419 . S
C706 C707 1.363 . S
C706 H709 0.929 . S
C707 C706 1.363 . S
C707 C713 1.428 . S
H708 C704 0.930 1_545 S
H709 C706 0.929 . S
S710 N711 1.613 . S
S710 N712 1.610 . S
N711 S710 1.613 . S
N711 C714 1.350 . S
N712 S710 1.610 . S
N712 C713 1.351 . S
C713 C707 1.428 . S
C713 N712 1.351 . S
C713 C714 1.434 . S
C714 C705 1.429 1_565 S
C714 N711 1.350 . S
C714 C713 1.434 . S
C715 C716 1.369 1_545 S
C715 C717 1.419 . S
C715 H719 0.930 . S
C716 C715 1.369 1_565 S
C716 C725 1.429 1_565 S
C717 C715 1.419 . S
C717 C718 1.363 . S
C717 H720 0.929 . S
C718 C717 1.363 . S
C718 C724 1.428 . S
H719 C715 0.930 . S
H720 C717 0.929 . S
S721 N722 1.613 1_545 S
S721 N723 1.610 . S
N722 S721 1.613 1_565 S
N722 C725 1.350 1_565 S
N723 S721 1.610 . S
N723 C724 1.351 . S
C724 C718 1.428 . S
C724 N723 1.351 . S
C724 C725 1.434 . S
C725 C716 1.429 1_545 S
C725 N722 1.350 1_545 S
C725 C724 1.434 . S
C726 C727 1.369 . S
C726 C728 1.419 . S
C726 H730 0.930 . S
C727 C726 1.369 . S
C727 C736 1.429 . S
C728 C726 1.419 . S
C728 C729 1.363 1_545 S
C728 H731 0.929 . S
C729 C728 1.363 1_565 S
C729 C735 1.428 1_565 S
H730 C726 0.930 . S
H731 C728 0.929 . S
S732 N733 1.613 . S
S732 N734 1.610 1_545 S
N733 S732 1.613 . S
N733 C736 1.350 . S
N734 S732 1.610 1_565 S
N734 C735 1.351 1_565 S
C735 C729 1.428 1_545 S
C735 N734 1.351 1_545 S
C735 C736 1.434 . S
C736 C727 1.429 . S
C736 N733 1.350 . S
C736 C735 1.434 . S
C737 C738 1.369 . S
C737 C739 1.419 . S
C737 H741 0.930 . S
C738 C737 1.369 . S
C738 C747 1.429 . S
C739 C737 1.419 . S
C739 C740 1.363 1_565 S
C739 H742 0.929 . S
C740 C739 1.363 1_545 S
C740 C746 1.428 1_545 S
H741 C737 0.930 . S
H742 C739 0.929 . S
S743 N744 1.613 . S
S743 N745 1.610 1_565 S
N744 S743 1.613 . S
N744 C747 1.350 . S
N745 S743 1.610 1_545 S
N745 C746 1.351 1_545 S
C746 C740 1.428 1_565 S
C746 N745 1.351 1_565 S
C746 C747 1.434 . S
C747 C738 1.429 . S
C747 N744 1.350 . S
C747 C746 1.434 . S
C748 C749 1.369 . S
C748 C750 1.419 . S
C748 H752 0.930 . S
C749 C748 1.369 . S
C749 C758 1.429 . S
C750 C748 1.419 . S
C750 C751 1.363 1_545 S
C750 H753 0.929 . S
C751 C750 1.363 1_565 S
C751 C757 1.428 1_565 S
H752 C748 0.930 . S
H753 C750 0.929 . S
S754 N755 1.613 . S
S754 N756 1.610 1_545 S
N755 S754 1.613 . S
N755 C758 1.350 . S
N756 S754 1.610 1_565 S
N756 C757 1.351 1_565 S
C757 C751 1.428 1_545 S
C757 N756 1.351 1_545 S
C757 C758 1.434 . S
C758 C749 1.429 . S
C758 N755 1.350 . S
C758 C757 1.434 . S
C759 C760 1.369 1_565 S
C759 C761 1.419 . S
C759 H763 0.930 1_565 S
C760 C759 1.369 1_545 S
C760 C769 1.429 1_545 S
C761 C759 1.419 . S
C761 C762 1.363 . S
C761 H764 0.929 . S
C762 C761 1.363 . S
C762 C768 1.428 . S
H763 C759 0.930 1_545 S
H764 C761 0.929 . S
S765 N766 1.613 . S
S765 N767 1.610 . S
N766 S765 1.613 . S
N766 C769 1.350 . S
N767 S765 1.610 . S
N767 C768 1.351 . S
C768 C762 1.428 . S
C768 N767 1.351 . S
C768 C769 1.434 . S
C769 C760 1.429 1_565 S
C769 N766 1.350 . S
C769 C768 1.434 . S
C770 C771 1.369 1_565 S
C770 C772 1.419 . S
C770 H774 0.930 1_565 S
C771 C770 1.369 1_545 S
C771 C780 1.429 1_545 S
C772 C770 1.419 . S
C772 C773 1.363 . S
C772 H775 0.929 . S
C773 C772 1.363 . S
C773 C779 1.428 . S
H774 C770 0.930 1_545 S
H775 C772 0.929 . S
S776 N777 1.613 . S
S776 N778 1.610 . S
N777 S776 1.613 . S
N777 C780 1.350 . S
N778 S776 1.610 . S
N778 C779 1.351 . S
C779 C773 1.428 . S
C779 N778 1.351 . S
C779 C780 1.434 . S
C780 C771 1.429 1_565 S
C780 N777 1.350 . S
C780 C779 1.434 . S
C781 C782 1.369 . S
C781 C783 1.419 . S
C781 H785 0.930 . S
C782 C781 1.369 . S
C782 C791 1.429 . S
C783 C781 1.419 . S
C783 C784 1.363 1_545 S
C783 H786 0.929 . S
C784 C783 1.363 1_565 S
C784 C790 1.428 1_565 S
H785 C781 0.930 . S
H786 C783 0.929 . S
S787 N788 1.613 . S
S787 N789 1.610 . S
N788 S787 1.613 . S
N788 C791 1.350 . S
N789 S787 1.610 . S
N789 C790 1.351 . S
C790 C784 1.428 1_545 S
C790 N789 1.351 . S
C790 C791 1.434 . S
C791 C782 1.429 . S
C791 N788 1.350 . S
C791 C790 1.434 . S
C792 C793 1.369 . S
C792 C794 1.419 . S
C792 H796 0.930 . S
C793 C792 1.369 . S
C793 C802 1.429 . S
C794 C792 1.419 . S
C794 C795 1.363 . S
C794 H797 0.929 . S
C795 C794 1.363 . S
C795 C801 1.428 . S
H796 C792 0.930 . S
H797 C794 0.929 . S
S798 N799 1.613 . S
S798 N800 1.610 . S
N799 S798 1.613 . S
N799 C802 1.350 . S
N800 S798 1.610 . S
N800 C801 1.351 . S
C801 C795 1.428 . S
C801 N800 1.351 . S
C801 C802 1.434 . S
C802 C793 1.429 . S
C802 N799 1.350 . S
C802 C801 1.434 . S
C803 C804 1.369 . S
C803 C805 1.419 . S
C803 H807 0.930 . S
C804 C803 1.369 . S
C804 C813 1.429 . S
C805 C803 1.419 . S
C805 C806 1.363 . S
C805 H808 0.929 . S
C806 C805 1.363 . S
C806 C812 1.428 . S
H807 C803 0.930 . S
H808 C805 0.929 . S
S809 N810 1.613 . S
S809 N811 1.610 . S
N810 S809 1.613 . S
N810 C813 1.350 . S
N811 S809 1.610 . S
N811 C812 1.351 . S
C812 C806 1.428 . S
C812 N811 1.351 . S
C812 C813 1.434 . S
C813 C804 1.429 . S
C813 N810 1.350 . S
C813 C812 1.434 . S
C814 C815 1.369 . S
C814 C816 1.419 . S
C814 H818 0.930 . S
C815 C814 1.369 . S
C815 C824 1.429 . S
C816 C814 1.419 . S
C816 C817 1.363 . S
C816 H819 0.929 . S
C817 C816 1.363 . S
C817 C823 1.428 . S
H818 C814 0.930 . S
H819 C816 0.929 . S
S820 N821 1.613 . S
S820 N822 1.610 . S
N821 S820 1.613 . S
N821 C824 1.350 . S
N822 S820 1.610 . S
N822 C823 1.351 . S
C823 C817 1.428 . S
C823 N822 1.351 . S
C823 C824 1.434 . S
C824 C815 1.429 . S
C824 N821 1.350 . S
C824 C823 1.434 . S
C825 C826 1.369 . S
C825 C827 1.419 . S
C825 H829 0.930 . S
C826 C825 1.369 . S
C826 C835 1.429 . S
C827 C825 1.419 . S
C827 C828 1.363 . S
C827 H830 0.929 . S
C828 C827 1.363 . S
C828 C834 1.428 . S
H829 C825 0.930 . S
H830 C827 0.929 . S
S831 N832 1.613 . S
S831 N833 1.610 . S
N832 S831 1.613 . S
N832 C835 1.350 . S
N833 S831 1.610 . S
N833 C834 1.351 . S
C834 C828 1.428 . S
C834 N833 1.351 . S
C834 C835 1.434 . S
C835 C826 1.429 . S
C835 N832 1.350 . S
C835 C834 1.434 . S
C836 C837 1.369 . S
C836 C838 1.419 . S
C836 H840 0.930 . S
C837 C836 1.369 . S
C837 C846 1.429 . S
C838 C836 1.419 . S
C838 C839 1.363 . S
C838 H841 0.929 . S
C839 C838 1.363 . S
C839 C845 1.428 . S
H840 C836 0.930 . S
H841 C838 0.929 . S
S842 N843 1.613 . S
S842 N844 1.610 . S
N843 S842 1.613 . S
N843 C846 1.350 . S
N844 S842 1.610 . S
N844 C845 1.351 . S
C845 C839 1.428 . S
C845 N844 1.351 . S
C845 C846 1.434 . S
C846 C837 1.429 . S
C846 N843 1.350 . S
C846 C845 1.434 . S
C847 C848 1.369 . S
C847 C849 1.419 . S
C847 H851 0.930 . S
C848 C847 1.369 . S
C848 C857 1.429 . S
C849 C847 1.419 . S
C849 C850 1.363 . S
C849 H852 0.929 . S
C850 C849 1.363 . S
C850 C856 1.428 . S
H851 C847 0.930 . S
H852 C849 0.929 . S
S853 N854 1.613 . S
S853 N855 1.610 . S
N854 S853 1.613 . S
N854 C857 1.350 . S
N855 S853 1.610 . S
N855 C856 1.351 . S
C856 C850 1.428 . S
C856 N855 1.351 . S
C856 C857 1.434 . S
C857 C848 1.429 . S
C857 N854 1.350 . S
C857 C856 1.434 . S
C858 C859 1.369 . S
C858 C860 1.419 . S
C858 H862 0.930 . S
C859 C858 1.369 . S
C859 C868 1.429 . S
C860 C858 1.419 . S
C860 C861 1.363 . S
C860 H863 0.929 . S
C861 C860 1.363 . S
C861 C867 1.428 . S
H862 C858 0.930 . S
H863 C860 0.929 . S
S864 N865 1.613 . S
S864 N866 1.610 . S
N865 S864 1.613 . S
N865 C868 1.350 . S
N866 S864 1.610 . S
N866 C867 1.351 . S
C867 C861 1.428 . S
C867 N866 1.351 . S
C867 C868 1.434 . S
C868 C859 1.429 . S
C868 N865 1.350 . S
C868 C867 1.434 . S
C869 C870 1.369 . S
C869 C871 1.419 . S
C869 H873 0.930 . S
C870 C869 1.369 . S
C870 C879 1.429 . S
C871 C869 1.419 . S
C871 C872 1.363 . S
C871 H874 0.929 . S
C872 C871 1.363 . S
C872 C878 1.428 . S
H873 C869 0.930 . S
H874 C871 0.929 . S
S875 N876 1.613 . S
S875 N877 1.610 . S
N876 S875 1.613 . S
N876 C879 1.350 . S
N877 S875 1.610 . S
N877 C878 1.351 . S
C878 C872 1.428 . S
C878 N877 1.351 . S
C878 C879 1.434 . S
C879 C870 1.429 . S
C879 N876 1.350 . S
C879 C878 1.434 . S
C353 C5 1.082 . S
C355 C270 1.067 . S
C364 C293 1.069 . S
C366 C27 1.077 . S
C375 C314 1.082 . S
C377 C49 1.066 . S
C386 C336 1.064 . S
C388 C75 1.080 . S
C397 C94 1.067 . S
C399 C181 1.078 . S
C408 C203 1.068 . S
C410 C117 1.077 . S
C419 C138 1.077 . S
C421 C225 1.071 . S
C430 C251 1.079 . S
C432 C160 1.068 . S
C441 C48 1.855 . S
C443 C4 1.855 . S
C452 C26 1.855 . S
C454 C74 1.855 . S
C463 C92 1.855 . S
C465 C136 1.855 . S
C474 C158 1.855 . S
C476 C118 1.855 . S
C485 C180 1.855 . S
C487 C224 1.855 . S
C496 C250 1.854 . S
C498 C202 1.855 . S
C507 C312 1.855 . S
C509 C268 1.855 . S
C518 C334 1.855 . S
C520 C294 1.855 . S
C529 C9 1.770 . S
C531 C71 1.778 . S
C540 C53 1.771 . S
C542 C31 1.778 . S
C551 C161 1.768 . S
C553 C95 1.777 . S
C562 C139 1.770 . S
C564 C116 1.774 . S
C573 C247 1.777 . S
C575 C185 1.774 . S
C584 C229 1.768 . S
C586 C207 1.777 . S
C595 C271 1.768 . S
C597 C337 1.778 . S
C606 C315 1.778 . S
C608 C292 1.773 . S
C617 C8 1.490 . S
C619 C140 1.490 . S
C628 C30 1.483 . S
C630 C162 1.484 . S
C639 C96 1.485 . S
C641 C52 1.485 . S
C650 C114 1.489 . S
C652 C70 1.489 . S
C661 C184 1.493 . S
C663 C316 1.492 . S
C672 C206 1.491 . S
C674 C338 1.490 . S
C683 C272 1.483 . S
C685 C228 1.484 . S
C694 C290 1.487 . S
C696 C246 1.487 . S
C705 C6 1.378 . S
C707 C317 1.318 . S
C716 C28 1.378 . S
C718 C339 1.326 . S
C727 C273 1.319 . S
C729 C50 1.379 . S
C738 C291 1.329 . S
C740 C73 1.377 . S
C749 C227 1.327 . S
C751 C93 1.378 . S
C760 C119 1.375 . S
C762 C248 1.318 . S
C771 C137 1.372 . S
C773 C183 1.322 . S
C782 C205 1.324 . S
C784 C159 1.373 . S
C793 C141 1.325 . S
C795 C182 1.379 . S
C804 C204 1.379 . S
C806 C163 1.319 . S
C815 C97 1.319 . S
C817 C226 1.379 . S
C826 C249 1.380 . S
C828 C115 1.321 . S
C837 C51 1.324 . S
C839 C269 1.373 . S
C848 C295 1.380 . S
C850 C72 1.323 . S
C859 C313 1.378 . S
C861 C7 1.319 . S
C870 C29 1.318 . S
C872 C335 1.374 . S
