# Generated by pormake.
# Topology vme, (6)-cn, num edge types: 1
# Building blocks:
#     Node 0, Type 0, BuildingBlock: VOLQOD_clean_sbu_1, # of connection points: 6
#     Node 1, Type 0, BuildingBlock: VOLQOD_clean_sbu_1, # of connection points: 6
#     Node 2, Type 0, BuildingBlock: VOLQOD_clean_sbu_1, # of connection points: 6
#     Node 3, Type 0, BuildingBlock: VOLQOD_clean_sbu_1, # of connection points: 6
#     Edge 4, Type (0, 0), BuildingBlock: UVAHIK_clean_linker_0, # of connection points: 2
#     Edge 5, Type (0, 0), BuildingBlock: UVAHIK_clean_linker_0, # of connection points: 2
#     Edge 6, Type (0, 0), BuildingBlock: UVAHIK_clean_linker_0, # of connection points: 2
#     Edge 7, Type (0, 0), BuildingBlock: UVAHIK_clean_linker_0, # of connection points: 2
#     Edge 8, Type (0, 0), BuildingBlock: UVAHIK_clean_linker_0, # of connection points: 2
#     Edge 9, Type (0, 0), BuildingBlock: UVAHIK_clean_linker_0, # of connection points: 2
#     Edge 10, Type (0, 0), BuildingBlock: UVAHIK_clean_linker_0, # of connection points: 2
#     Edge 11, Type (0, 0), BuildingBlock: UVAHIK_clean_linker_0, # of connection points: 2
#     Edge 12, Type (0, 0), BuildingBlock: UVAHIK_clean_linker_0, # of connection points: 2
#     Edge 13, Type (0, 0), BuildingBlock: UVAHIK_clean_linker_0, # of connection points: 2
#     Edge 14, Type (0, 0), BuildingBlock: UVAHIK_clean_linker_0, # of connection points: 2
#     Edge 15, Type (0, 0), BuildingBlock: UVAHIK_clean_linker_0, # of connection points: 2
# Relax obj value: 0.301
# Max RMSD: 0.246
# Mean RMSD: 0.246
data_MOF--net-vme--node1-VOLQOD_clean_sbu_1--edge1-UVAHIK_clean_linker_0
_symmetry_space_group_name_H-M    P1
_symmetry_Int_Tables_number       1
_symmetry_cell_setting            triclinic
loop_
_symmetry_equiv_pos_as_xyz
'x, y, z'
_cell_length_a     34.025027
_cell_length_b     34.333528
_cell_length_c     36.939134
_cell_angle_alpha  90.031907
_cell_angle_beta   114.90641
_cell_angle_gamma 89.978512
loop_
_atom_site_label
_atom_site_type_symbol
_atom_site_fract_x
_atom_site_fract_y
_atom_site_fract_z
_atom_type_partial_charge
O0 O 0.1074 0.37919 0.38557 0.0
Zn1 Zn 0.1278 0.35978 0.34498 0.0
O2 O 0.19062 0.36274 0.36588 0.0
Zn3 Zn 0.216 0.31102 0.36846 0.0
Zn4 Zn 0.2129 0.38591 0.41833 0.0
Zn5 Zn 0.20612 0.39686 0.33238 0.0
O6 O 0.2446 0.30741 0.32939 0.0
O7 O 0.22771 0.36524 0.29956 0.0
O8 O 0.10641 0.30461 0.33033 0.0
O9 O 0.16813 0.27121 0.35129 0.0
O10 O 0.25573 0.29598 0.42608 0.0
O11 O 0.24402 0.34579 0.45871 0.0
O12 O 0.2571 0.42679 0.42547 0.0
O13 O 0.09952 0.3969 0.29914 0.0
O14 O 0.25564 0.432 0.36517 0.0
O15 O 0.15499 0.42894 0.29648 0.0
C16 C 0.12551 0.39966 0.41705 0.0
C17 C 0.24396 0.33134 0.30259 0.0
C18 C 0.26073 0.31269 0.45866 0.0
C19 C 0.12688 0.27241 0.33645 0.0
C20 C 0.27182 0.44115 0.40197 0.0
C21 C 0.11437 0.4243 0.28523 0.0
O22 O 0.16587 0.40708 0.43168 0.0
O23 O 0.88429 0.88146 0.11455 0.0
Zn24 Zn 0.86392 0.86057 0.15455 0.0
O25 O 0.80121 0.86359 0.13379 0.0
Zn26 Zn 0.77587 0.81164 0.12833 0.0
Zn27 Zn 0.77895 0.88956 0.08274 0.0
Zn28 Zn 0.78598 0.89506 0.16941 0.0
O29 O 0.7467 0.8054 0.16647 0.0
O30 O 0.76544 0.86062 0.20121 0.0
O31 O 0.88534 0.8053 0.16795 0.0
O32 O 0.82363 0.77179 0.14451 0.0
O33 O 0.7365 0.79903 0.07009 0.0
O34 O 0.74648 0.85173 0.04001 0.0
O35 O 0.73561 0.93043 0.07842 0.0
O36 O 0.89221 0.89666 0.20121 0.0
O37 O 0.73591 0.93048 0.13849 0.0
O38 O 0.83695 0.92717 0.20591 0.0
C39 C 0.86645 0.9035 0.08425 0.0
C40 C 0.74834 0.82687 0.19539 0.0
C41 C 0.73033 0.81805 0.03844 0.0
C42 C 0.86489 0.77304 0.1603 0.0
C43 C 0.72033 0.94225 0.10249 0.0
C44 C 0.87752 0.92319 0.2163 0.0
O45 O 0.82627 0.91163 0.07028 0.0
O46 O 0.88308 0.60774 0.61854 0.0
Zn47 Zn 0.86233 0.62979 0.65792 0.0
O48 O 0.7993 0.62951 0.63551 0.0
Zn49 Zn 0.77623 0.68225 0.63104 0.0
Zn50 Zn 0.7771 0.60469 0.58385 0.0
Zn51 Zn 0.78073 0.59857 0.66902 0.0
O52 O 0.74456 0.68883 0.66699 0.0
O53 O 0.76114 0.63338 0.70138 0.0
O54 O 0.88618 0.68444 0.67234 0.0
O55 O 0.82602 0.72 0.65129 0.0
O56 O 0.73992 0.69718 0.57264 0.0
O57 O 0.74801 0.64409 0.54194 0.0
O58 O 0.7308 0.56604 0.57689 0.0
O59 O 0.88748 0.59253 0.70441 0.0
O60 O 0.72886 0.56596 0.63605 0.0
O61 O 0.8291 0.56375 0.70463 0.0
C62 C 0.86477 0.58665 0.58754 0.0
C63 C 0.74479 0.66745 0.69542 0.0
C64 C 0.73373 0.67849 0.54078 0.0
C65 C 0.8672 0.7174 0.66683 0.0
C66 C 0.71362 0.55506 0.59977 0.0
C67 C 0.87011 0.56604 0.71705 0.0
O68 O 0.82411 0.58048 0.57238 0.0
O69 O 0.10925 0.11018 0.88293 0.0
Zn70 Zn 0.12962 0.13099 0.84288 0.0
O71 O 0.19258 0.13126 0.86504 0.0
Zn72 Zn 0.21482 0.18404 0.86601 0.0
Zn73 Zn 0.21516 0.10962 0.91816 0.0
Zn74 Zn 0.2112 0.09739 0.83359 0.0
O75 O 0.24509 0.18783 0.82841 0.0
O76 O 0.2311 0.12936 0.79964 0.0
O77 O 0.10522 0.18516 0.8276 0.0
O78 O 0.16448 0.22152 0.84522 0.0
O79 O 0.25211 0.20175 0.92354 0.0
O80 O 0.2431 0.15151 0.95724 0.0
O81 O 0.26228 0.07106 0.92772 0.0
O82 O 0.10443 0.09291 0.79716 0.0
O83 O 0.26298 0.06557 0.86829 0.0
O84 O 0.16273 0.06184 0.79943 0.0
C85 C 0.128 0.09118 0.91531 0.0
C86 C 0.24598 0.16379 0.80228 0.0
C87 C 0.2577 0.18541 0.95645 0.0
C88 C 0.12339 0.21831 0.83117 0.0
C89 C 0.27889 0.05749 0.90533 0.0
C90 C 0.12169 0.06507 0.7861 0.0
O91 O 0.16886 0.08629 0.93121 0.0
C92 C 0.94857 0.95774 0.24106 0.0
C93 C 0.9077 0.95342 0.24148 0.0
C94 C 0.97414 0.99027 0.25835 0.0
C95 C 0.03031 0.05633 0.30531 0.0
H96 H 0.96842 0.15368 0.29323 0.0
C97 C 0.12196 0.20214 0.35116 0.0
C98 C 0.10255 0.23541 0.32863 0.0
C99 C 0.09874 0.16742 0.34528 0.0
C100 C 0.9863 0.12687 0.29638 0.0
H101 H 0.8631 0.97839 0.26314 0.0
H102 H 0.90874 0.03433 0.29516 0.0
H103 H 0.92835 0.09303 0.27593 0.0
H104 H 0.04386 0.25841 0.2819 0.0
H105 H 0.004 0.19726 0.26979 0.0
H106 H 0.08785 0.09024 0.32274 0.0
C107 C 0.92031 0.01335 0.28001 0.0
C108 C 0.96329 0.09181 0.28724 0.0
C109 C 0.89429 0.98105 0.26202 0.0
C110 C 0.05956 0.2332 0.29978 0.0
C111 C 0.0366 0.19817 0.2932 0.0
C112 C 0.05319 0.09141 0.31362 0.0
C113 C 0.95995 0.01907 0.27724 0.0
C114 C 0.9849 0.05604 0.29104 0.0
C115 C 0.05579 0.16478 0.31601 0.0
C116 C 0.0315 0.12726 0.30886 0.0
H117 H 0.95986 0.93718 0.22529 0.0
H118 H 0.00401 0.99366 0.25492 0.0
H119 H 0.04833 0.02945 0.30947 0.0
H120 H 0.15488 0.20316 0.37409 0.0
H121 H 0.11447 0.14282 0.36415 0.0
C122 C 0.04343 0.45904 0.2606 0.0
C123 C 0.08419 0.45445 0.26003 0.0
C124 C 0.01779 0.49144 0.24288 0.0
C125 C 0.96148 0.55698 0.19464 0.0
H126 H 0.02344 0.65406 0.20529 0.0
C127 C 0.87018 0.70272 0.1457 0.0
C128 C 0.88935 0.7361 0.16819 0.0
C129 C 0.89338 0.66792 0.15216 0.0
C130 C 0.00554 0.62732 0.20249 0.0
H131 H 0.12859 0.4787 0.23778 0.0
H132 H 0.08287 0.53434 0.20506 0.0
H133 H 0.0635 0.59346 0.2238 0.0
H134 H 0.94765 0.7592 0.2154 0.0
H135 H 0.98749 0.69802 0.22832 0.0
H136 H 0.90388 0.59105 0.17623 0.0
C137 C 0.07142 0.51375 0.22063 0.0
C138 C 0.02854 0.59229 0.21236 0.0
C139 C 0.09748 0.48164 0.23903 0.0
C140 C 0.93213 0.73395 0.19749 0.0
C141 C 0.95508 0.69889 0.20458 0.0
C142 C 0.93858 0.59207 0.18554 0.0
C143 C 0.03185 0.51977 0.22345 0.0
C144 C 0.0069 0.55663 0.20908 0.0
C145 C 0.93608 0.66537 0.1819 0.0
C146 C 0.96032 0.62781 0.18976 0.0
H147 H 0.0323 0.43881 0.27677 0.0
H148 H 0.98796 0.49512 0.24635 0.0
H149 H 0.94347 0.53016 0.19093 0.0
H150 H 0.83742 0.70366 0.12249 0.0
H151 H 0.87785 0.64317 0.13344 0.0
C152 C 0.04841 0.03552 0.74757 0.0
C153 C 0.09373 0.03298 0.76202 0.0
C154 C 0.02245 0.0028 0.73156 0.0
C155 C 0.02235 0.90117 0.69609 0.0
H156 H 0.93428 0.88628 0.73554 0.0
C157 C 0.93822 0.75284 0.68897 0.0
C158 C 0.89316 0.75374 0.67711 0.0
C159 C 0.96208 0.78747 0.69681 0.0
C160 C 0.95839 0.89016 0.72389 0.0
H161 H 0.14698 0.99459 0.76841 0.0
H162 H 0.10182 0.93755 0.74107 0.0
H163 H 0.97579 0.94645 0.75049 0.0
H164 H 0.83797 0.79186 0.66454 0.0
H165 H 0.87954 0.85194 0.67827 0.0
H166 H 0.00529 0.84432 0.67017 0.0
C167 C 0.08623 0.96486 0.7418 0.0
C168 C 0.98209 0.92477 0.73229 0.0
C169 C 0.1122 -0.00237 0.75762 0.0
C170 C 0.87263 0.79 0.67369 0.0
C171 C 0.89647 0.8245 0.6817 0.0
C172 C -0.0013 0.86642 0.68781 0.0
C173 C 0.0412 0.96674 0.7298 0.0
C174 C 0.01445 0.9307 0.7186 0.0
C175 C 0.94142 0.82367 0.69321 0.0
C176 C 0.96654 0.86053 0.70172 0.0
H177 H 0.03303 0.06237 0.7501 0.0
H178 H 0.98774 0.00548 0.72166 0.0
H179 H 0.04673 0.90495 0.68476 0.0
H180 H 0.95506 0.72545 0.69182 0.0
H181 H -0.00323 0.78589 0.70608 0.0
C182 C 0.8785 0.50063 0.74958 0.0
C183 C 0.89762 0.53395 0.74166 0.0
C184 C 0.90313 0.46716 0.76543 0.0
C185 C 0.01485 0.42807 0.81421 0.0
H186 H 0.96278 0.33501 0.75334 0.0
C187 C 0.11539 0.29066 0.82165 0.0
C188 C 0.09653 0.25411 0.82116 0.0
C189 C 0.09076 0.32471 0.81467 0.0
C190 C 0.97762 0.3605 0.77112 0.0
H191 H 0.95845 0.55913 0.74726 0.0
H192 H 0.0013 0.50079 0.77498 0.0
H193 H 0.92097 0.395 0.74005 0.0
H194 H 0.0368 0.22478 0.81274 0.0
H195 H 0.99405 0.28416 0.80109 0.0
H196 H 0.07164 0.3936 0.84514 0.0
C197 C 0.96724 0.50052 0.76881 0.0
C198 C 0.9536 0.39492 0.76352 0.0
C199 C 0.94258 0.53396 0.75279 0.0
C200 C 0.05232 0.2524 0.81305 0.0
C201 C 0.02774 0.28649 0.80628 0.0
C202 C 0.03884 0.39355 0.82199 0.0
C203 C 0.94745 0.46634 0.77396 0.0
C204 C 0.97206 0.42919 0.78469 0.0
C205 C 0.04672 0.32309 0.80723 0.0
C206 C 0.02068 0.35944 0.8002 0.0
H207 H 0.84403 0.49961 0.74165 0.0
H208 H 0.88717 0.44145 0.76978 0.0
H209 H 0.02981 0.45393 0.83125 0.0
H210 H 0.14931 0.29308 0.82764 0.0
H211 H 0.10624 0.3523 0.81483 0.0
C212 C 0.87201 0.54412 0.53561 0.0
C213 C 0.89142 0.56799 0.56949 0.0
C214 C 0.89728 0.52546 0.51933 0.0
C215 C 0.00859 0.49217 0.54484 0.0
H216 H 0.97015 0.48837 0.43003 0.0
C217 C 0.118 0.43958 0.47053 0.0
C218 C 0.09885 0.41635 0.43613 0.0
C219 C 0.09259 0.45692 0.48744 0.0
C220 C 0.98104 0.48877 0.46213 0.0
H221 H 0.95261 0.59129 0.61254 0.0
H222 H -0.00341 0.55899 0.58379 0.0
H223 H 0.92599 0.52182 0.45794 0.0
H224 H 0.03802 0.39245 0.39305 0.0
H225 H 0.99379 0.42246 0.42286 0.0
H226 H 0.06372 0.45921 0.54901 0.0
C227 C 0.96188 0.55435 0.5702 0.0
C228 C 0.95579 0.50796 0.4781 0.0
C229 C 0.93662 0.57305 0.58649 0.0
C230 C 0.05381 0.41029 0.41945 0.0
C231 C 0.02841 0.42766 0.43637 0.0
C232 C 0.03385 0.47298 0.52886 0.0
C233 C 0.94249 0.53023 0.53656 0.0
C234 C 0.96933 0.5099 0.51962 0.0
C235 C 0.04749 0.45142 0.47033 0.0
C236 C 0.02035 0.47112 0.48735 0.0
H237 H 0.8373 0.53949 0.52182 0.0
H238 H 0.88147 0.50671 0.49365 0.0
H239 H 0.01951 0.49267 0.57694 0.0
H240 H 0.1526 0.4449 0.48413 0.0
H241 H 0.10816 0.4754 0.51338 0.0
C242 C 0.93841 0.91546 0.08288 0.0
C243 C 0.8933 0.9212 0.06592 0.0
C244 C 0.96399 0.9337 0.06668 0.0
C245 C 0.96404 0.01731 0.00441 0.0
H246 H 0.05849 0.96196 0.99465 0.0
C247 C 0.05639 0.0783 0.91705 0.0
C248 C 0.10162 0.07342 0.9341 0.0
C249 C 0.03131 0.06029 0.93391 0.0
C250 C 0.03253 0.97791 0.99763 0.0
H251 H 0.83962 0.94998 0.01811 0.0
H252 H 0.88427 0.98135 0.9896 0.0
H253 H 0.01365 0.92851 0.02185 0.0
H254 H 0.15602 0.04627 0.98265 0.0
H255 H 0.11215 0.01506 0.01215 0.0
H256 H 0.98282 0.06666 0.98002 0.0
C257 C 0.89988 0.96326 0.01583 0.0
C258 C 0.00686 0.95877 0.01316 0.0
C259 C 0.87429 0.94507 0.03203 0.0
C260 C 0.12125 0.05055 0.96868 0.0
C261 C 0.09614 0.03247 0.98547 0.0
C262 C 0.98966 0.03643 0.98882 0.0
C263 C 0.94503 0.95801 0.03317 0.0
C264 C 0.9723 0.97825 0.01665 0.0
C265 C 0.0509 0.03697 0.96811 0.0
C266 C 0.02412 0.0169 0.98522 0.0
H267 H 0.95413 0.89737 0.10908 0.0
H268 H -0.00124 0.92942 0.08095 0.0
H269 H 0.9381 0.0333 0.00737 0.0
H270 H 0.0402 0.09569 0.89038 0.0
H271 H -0.00354 0.06396 0.91965 0.0
C272 C 0.29297 0.18513 0.03065 0.0
C273 C 0.27792 0.2065 0.99488 0.0
C274 C 0.30278 0.20367 0.06698 0.0
C275 C 0.26832 0.29045 0.10339 0.0
H276 H 0.34562 0.24909 0.20675 0.0
C277 C 0.26465 0.34845 0.24724 0.0
C278 C 0.261 0.32005 0.27313 0.0
C279 C 0.27636 0.33813 0.21663 0.0
C280 C 0.32388 0.26089 0.17808 0.0
H281 H 0.26537 0.26456 0.96964 0.0
H282 H 0.28347 0.29737 0.03357 0.0
H283 H 0.35255 0.22717 0.14672 0.0
H284 H 0.2691 0.25868 0.2883 0.0
H285 H 0.28944 0.24051 0.2343 0.0
H286 H 0.23922 0.32364 0.13457 0.0
C287 C 0.28662 0.266 0.03326 0.0
C288 C 0.32783 0.24842 0.14368 0.0
C289 C 0.27669 0.2473 0.99668 0.0
C290 C 0.27148 0.28122 0.26883 0.0
C291 C 0.28331 0.27087 0.23803 0.0
C292 C 0.26467 0.30313 0.13774 0.0
C293 C 0.29799 0.24418 0.06859 0.0
C294 C 0.29934 0.26231 0.10576 0.0
C295 C 0.2848 0.29915 0.21104 0.0
C296 C 0.29175 0.28789 0.17536 0.0
H297 H 0.29478 0.15362 0.03035 0.0
H298 H 0.31112 0.18575 0.09329 0.0
H299 H 0.24522 0.30126 0.07479 0.0
H300 H 0.25749 0.37877 0.24995 0.0
H301 H 0.27798 0.36066 0.19678 0.0
C302 C 0.73411 0.83628 0.25593 0.0
C303 C 0.73142 0.81247 0.22394 0.0
C304 C 0.72136 0.8224 0.28479 0.0
C305 C 0.70959 0.73045 0.32968 0.0
H306 H 0.66321 0.79784 0.38667 0.0
C307 C 0.69304 0.6738 0.46714 0.0
C308 C 0.71309 0.69727 0.50122 0.0
C309 C 0.68268 0.68892 0.4292 0.0
C310 C 0.6761 0.7787 0.37099 0.0
H311 H 0.71123 0.75581 0.19636 0.0
H312 H 0.68836 0.73162 0.24671 0.0
H313 H 0.6679 0.82143 0.32617 0.0
H314 H 0.73467 0.75573 0.52219 0.0
H315 H 0.71699 0.78227 0.45561 0.0
H316 H 0.7188 0.6881 0.37481 0.0
C317 C 0.70111 0.76092 0.2497 0.0
C318 C 0.67887 0.79217 0.33639 0.0
C319 C 0.71406 0.77482 0.22074 0.0
C320 C 0.71912 0.73705 0.4964 0.0
C321 C 0.709 0.75219 0.45827 0.0
C322 C 0.70659 0.71696 0.36404 0.0
C323 C 0.70533 0.78436 0.28245 0.0
C324 C 0.6966 0.7685 0.31584 0.0
C325 C 0.69247 0.72777 0.42448 0.0
C326 C 0.6906 0.74114 0.38554 0.0
H327 H 0.74718 0.86551 0.2594 0.0
H328 H 0.72576 0.84109 0.30983 0.0
H329 H 0.72411 0.71164 0.31515 0.0
H330 H 0.68744 0.64311 0.46994 0.0
H331 H 0.66899 0.66962 0.40369 0.0
C332 C 0.68912 0.82407 0.96492 0.0
C333 C 0.70815 0.8 0.99863 0.0
C334 C 0.67788 0.80915 0.92673 0.0
C335 C 0.6682 0.71916 0.86752 0.0
H336 H 0.71964 0.78428 0.81321 0.0
C337 C 0.72834 0.65886 0.75485 0.0
C338 C 0.72709 0.68241 0.72321 0.0
C339 C 0.71487 0.67332 0.78306 0.0
C340 C 0.70415 0.76603 0.82729 0.0
H341 H 0.72685 0.74079 0.01869 0.0
H342 H 0.70774 0.71462 0.95178 0.0
H343 H 0.71389 0.80854 0.87242 0.0
H344 H 0.70865 0.73918 0.69547 0.0
H345 H 0.68457 0.76439 0.74465 0.0
H346 H 0.65965 0.67618 0.82277 0.0
C347 C 0.70115 0.74501 0.95485 0.0
C348 C 0.70086 0.77995 0.86139 0.0
C349 C 0.7121 0.75995 0.9932 0.0
C350 C 0.71039 0.72037 0.71962 0.0
C351 C 0.69674 0.73484 0.7479 0.0
C352 C 0.6713 0.70525 0.83319 0.0
C353 C 0.68582 0.76989 0.92143 0.0
C354 C 0.68371 0.75642 0.88241 0.0
C355 C 0.69957 0.71169 0.78037 0.0
C356 C 0.69031 0.72819 0.81323 0.0
H357 H 0.68514 0.855 0.96821 0.0
H358 H 0.66512 0.82885 0.90152 0.0
H359 H 0.6544 0.70051 0.8828 0.0
H360 H 0.74085 0.62941 0.75859 0.0
H361 H 0.71818 0.65482 0.80792 0.0
C362 C 0.27274 0.21479 0.76892 0.0
C363 C 0.26332 0.17566 0.77322 0.0
C364 C 0.28518 0.22568 0.73868 0.0
C365 C 0.27069 0.19339 0.63937 0.0
H366 H 0.35516 0.27332 0.6497 0.0
C367 C 0.28354 0.25156 0.49973 0.0
C368 C 0.28206 0.2924 0.49744 0.0
C369 C 0.29396 0.23293 0.53638 0.0
C370 C 0.33145 0.25093 0.6463 0.0
H371 H 0.26223 0.11702 0.75059 0.0
H372 H 0.28388 0.13603 0.69838 0.0
H373 H 0.34764 0.25026 0.70907 0.0
H374 H 0.29477 0.34563 0.53224 0.0
H375 H 0.31204 0.31352 0.59538 0.0
H376 H 0.2528 0.19517 0.57667 0.0
C377 C 0.28094 0.15838 0.7178 0.0
C378 C 0.32714 0.23781 0.68032 0.0
C379 C 0.26857 0.14754 0.74785 0.0
C380 C 0.29508 0.31408 0.53291 0.0
C381 C 0.3054 0.29557 0.56934 0.0
C382 C 0.27475 0.20667 0.60541 0.0
C383 C 0.28841 0.19764 0.71223 0.0
C384 C 0.29614 0.2094 0.67708 0.0
C385 C 0.30313 0.25483 0.57132 0.0
C386 C 0.30449 0.23623 0.60826 0.0
H387 H 0.26912 0.23715 0.78799 0.0
H388 H 0.29047 0.25623 0.73495 0.0
H389 H 0.2461 0.17181 0.63576 0.0
H390 H 0.27383 0.23407 0.47294 0.0
H391 H 0.29279 0.20143 0.53701 0.0
C392 C 0.33705 0.46956 0.39702 0.0
C393 C 0.31274 0.46342 0.41926 0.0
C394 C 0.37998 0.48214 0.41588 0.0
C395 C 0.4629 0.52367 0.50915 0.0
H396 H 0.54176 0.45939 0.48379 0.0
C397 C 0.64634 0.53047 0.60379 0.0
C398 C 0.67143 0.53477 0.58201 0.0
C399 C 0.60297 0.5192 0.58457 0.0
C400 C 0.52015 0.47775 0.491 0.0
H401 H 0.31307 0.46922 0.47793 0.0
H402 H 0.38781 0.49118 0.51067 0.0
H403 H 0.46379 0.45084 0.44663 0.0
H404 H 0.67166 0.52748 0.52369 0.0
H405 H 0.59618 0.50802 0.49033 0.0
H406 H 0.51927 0.55062 0.55351 0.0
C407 C 0.37385 0.48607 0.47877 0.0
C408 C 0.47553 0.47305 0.46957 0.0
C409 C 0.33101 0.47336 0.45998 0.0
C410 C 0.6532 0.52467 0.54133 0.0
C411 C 0.60989 0.5134 0.52217 0.0
C412 C 0.50755 0.52843 0.53054 0.0
C413 C 0.39925 0.48907 0.45721 0.0
C414 C 0.44646 0.49595 0.47844 0.0
C415 C 0.58394 0.51188 0.5433 0.0
C416 C 0.53664 0.50546 0.52174 0.0
H417 H 0.32389 0.46239 0.36556 0.0
H418 H 0.39863 0.48501 0.39841 0.0
H419 H 0.44124 0.54189 0.51644 0.0
H420 H 0.65944 0.5378 0.63521 0.0
H421 H 0.58394 0.51742 0.60177 0.0
C422 C 0.33907 0.02855 0.96501 0.0
C423 C 0.32111 0.03736 0.92403 0.0
C424 C 0.38235 0.01729 0.98474 0.0
C425 C 0.48492 0.03133 0.97721 0.0
H426 H 0.52823 0.9532 0.06054 0.0
C427 C 0.66101 0.97612 0.04603 0.0
C428 C 0.67945 0.96467 0.08632 0.0
C429 C 0.61824 0.98908 0.02796 0.0
C430 C 0.51665 0.97561 0.03782 0.0
H431 H 0.33356 0.03828 0.87102 0.0
H432 H 0.40908 0.0182 0.90553 0.0
H433 H 0.45029 0.96233 0.02357 0.0
H434 H 0.66872 0.96127 0.14016 0.0
H435 H 0.59416 0.98459 0.10863 0.0
H436 H 0.55122 0.04465 0.99143 0.0
C437 C 0.3898 0.02079 0.92244 0.0
C438 C 0.47204 0.9806 0.01648 0.0
C439 C 0.34644 0.0319 0.90264 0.0
C440 C 0.6554 0.96958 0.10899 0.0
C441 C 0.61255 0.98256 0.09086 0.0
C442 C 0.52952 0.02642 0.99861 0.0
C443 C 0.40851 0.01466 0.9639 0.0
C444 C 0.45575 0.00836 0.98582 0.0
C445 C 0.59306 0.99099 0.04982 0.0
C446 C 0.54587 -0.00161 0.02904 0.0
H447 H 0.32038 0.03226 0.98234 0.0
H448 H 0.3959 0.01277 0.01672 0.0
H449 H 0.47326 0.05355 0.95429 0.0
H450 H 0.67871 0.97295 0.02775 0.0
H451 H 0.60417 0.99528 0.99627 0.0
loop_
_geom_bond_atom_site_label_1
_geom_bond_atom_site_label_2
_geom_bond_distance
_geom_bond_site_symmetry_2
_ccdc_geom_bond_type
O0 Zn1 1.953 . S
O0 C16 1.225 . S
Zn1 O0 1.953 . S
Zn1 O2 1.949 . S
Zn1 O8 1.919 . S
Zn1 O13 1.924 . S
O2 Zn1 1.949 . S
O2 Zn3 1.923 . S
O2 Zn4 1.950 . S
O2 Zn5 1.945 . S
Zn3 O2 1.923 . S
Zn3 O6 1.933 . S
Zn3 O9 1.941 . S
Zn3 O10 1.965 . S
Zn4 O2 1.950 . S
Zn4 O11 1.938 . S
Zn4 O12 1.906 . S
Zn4 O22 1.953 . S
Zn5 O2 1.945 . S
Zn5 O7 1.932 . S
Zn5 O14 1.977 . S
Zn5 O15 1.910 . S
O6 Zn3 1.933 . S
O6 C17 1.226 . S
O7 Zn5 1.932 . S
O7 C17 1.307 . S
O8 Zn1 1.919 . S
O8 C19 1.253 . S
O9 Zn3 1.941 . S
O9 C19 1.283 . S
O10 Zn3 1.965 . S
O10 C18 1.303 . S
O11 Zn4 1.938 . S
O11 C18 1.247 . S
O12 Zn4 1.906 . S
O12 C20 1.304 . S
O13 Zn1 1.924 . S
O13 C21 1.311 . S
O14 Zn5 1.977 . S
O14 C20 1.272 . S
O15 Zn5 1.910 . S
O15 C21 1.231 . S
C16 O0 1.225 . S
C16 O22 1.298 . S
C17 O6 1.226 . S
C17 O7 1.307 . S
C18 O10 1.303 . S
C18 O11 1.247 . S
C19 O8 1.253 . S
C19 O9 1.283 . S
C20 O12 1.304 . S
C20 O14 1.272 . S
C21 O13 1.311 . S
C21 O15 1.231 . S
O22 Zn4 1.953 . S
O22 C16 1.298 . S
O23 Zn24 1.953 . S
O23 C39 1.225 . S
Zn24 O23 1.953 . S
Zn24 O25 1.949 . S
Zn24 O31 1.919 . S
Zn24 O36 1.924 . S
O25 Zn24 1.949 . S
O25 Zn26 1.923 . S
O25 Zn27 1.950 . S
O25 Zn28 1.945 . S
Zn26 O25 1.923 . S
Zn26 O29 1.933 . S
Zn26 O32 1.941 . S
Zn26 O33 1.965 . S
Zn27 O25 1.950 . S
Zn27 O34 1.938 . S
Zn27 O35 1.906 . S
Zn27 O45 1.953 . S
Zn28 O25 1.945 . S
Zn28 O30 1.932 . S
Zn28 O37 1.977 . S
Zn28 O38 1.910 . S
O29 Zn26 1.933 . S
O29 C40 1.226 . S
O30 Zn28 1.932 . S
O30 C40 1.307 . S
O31 Zn24 1.919 . S
O31 C42 1.253 . S
O32 Zn26 1.941 . S
O32 C42 1.283 . S
O33 Zn26 1.965 . S
O33 C41 1.303 . S
O34 Zn27 1.938 . S
O34 C41 1.247 . S
O35 Zn27 1.906 . S
O35 C43 1.304 . S
O36 Zn24 1.924 . S
O36 C44 1.311 . S
O37 Zn28 1.977 . S
O37 C43 1.272 . S
O38 Zn28 1.910 . S
O38 C44 1.231 . S
C39 O23 1.225 . S
C39 O45 1.298 . S
C40 O29 1.226 . S
C40 O30 1.307 . S
C41 O33 1.303 . S
C41 O34 1.247 . S
C42 O31 1.253 . S
C42 O32 1.283 . S
C43 O35 1.304 . S
C43 O37 1.272 . S
C44 O36 1.311 . S
C44 O38 1.231 . S
O45 Zn27 1.953 . S
O45 C39 1.298 . S
O46 Zn47 1.953 . S
O46 C62 1.225 . S
Zn47 O46 1.953 . S
Zn47 O48 1.949 . S
Zn47 O54 1.919 . S
Zn47 O59 1.924 . S
O48 Zn47 1.949 . S
O48 Zn49 1.923 . S
O48 Zn50 1.950 . S
O48 Zn51 1.945 . S
Zn49 O48 1.923 . S
Zn49 O52 1.933 . S
Zn49 O55 1.941 . S
Zn49 O56 1.965 . S
Zn50 O48 1.950 . S
Zn50 O57 1.938 . S
Zn50 O58 1.906 . S
Zn50 O68 1.953 . S
Zn51 O48 1.945 . S
Zn51 O53 1.932 . S
Zn51 O60 1.977 . S
Zn51 O61 1.910 . S
O52 Zn49 1.933 . S
O52 C63 1.226 . S
O53 Zn51 1.932 . S
O53 C63 1.307 . S
O54 Zn47 1.919 . S
O54 C65 1.253 . S
O55 Zn49 1.941 . S
O55 C65 1.283 . S
O56 Zn49 1.965 . S
O56 C64 1.303 . S
O57 Zn50 1.938 . S
O57 C64 1.247 . S
O58 Zn50 1.906 . S
O58 C66 1.304 . S
O59 Zn47 1.924 . S
O59 C67 1.311 . S
O60 Zn51 1.977 . S
O60 C66 1.272 . S
O61 Zn51 1.910 . S
O61 C67 1.231 . S
C62 O46 1.225 . S
C62 O68 1.298 . S
C63 O52 1.226 . S
C63 O53 1.307 . S
C64 O56 1.303 . S
C64 O57 1.247 . S
C65 O54 1.253 . S
C65 O55 1.283 . S
C66 O58 1.304 . S
C66 O60 1.272 . S
C67 O59 1.311 . S
C67 O61 1.231 . S
O68 Zn50 1.953 . S
O68 C62 1.298 . S
O69 Zn70 1.953 . S
O69 C85 1.225 . S
Zn70 O69 1.953 . S
Zn70 O71 1.949 . S
Zn70 O77 1.919 . S
Zn70 O82 1.924 . S
O71 Zn70 1.949 . S
O71 Zn72 1.923 . S
O71 Zn73 1.950 . S
O71 Zn74 1.945 . S
Zn72 O71 1.923 . S
Zn72 O75 1.933 . S
Zn72 O78 1.941 . S
Zn72 O79 1.965 . S
Zn73 O71 1.950 . S
Zn73 O80 1.938 . S
Zn73 O81 1.906 . S
Zn73 O91 1.953 . S
Zn74 O71 1.945 . S
Zn74 O76 1.932 . S
Zn74 O83 1.977 . S
Zn74 O84 1.910 . S
O75 Zn72 1.933 . S
O75 C86 1.226 . S
O76 Zn74 1.932 . S
O76 C86 1.307 . S
O77 Zn70 1.919 . S
O77 C88 1.253 . S
O78 Zn72 1.941 . S
O78 C88 1.283 . S
O79 Zn72 1.965 . S
O79 C87 1.303 . S
O80 Zn73 1.938 . S
O80 C87 1.247 . S
O81 Zn73 1.906 . S
O81 C89 1.304 . S
O82 Zn70 1.924 . S
O82 C90 1.311 . S
O83 Zn74 1.977 . S
O83 C89 1.272 . S
O84 Zn74 1.910 . S
O84 C90 1.231 . S
C85 O69 1.225 . S
C85 O91 1.298 . S
C86 O75 1.226 . S
C86 O76 1.307 . S
C87 O79 1.303 . S
C87 O80 1.247 . S
C88 O77 1.253 . S
C88 O78 1.283 . S
C89 O81 1.304 . S
C89 O83 1.272 . S
C90 O82 1.311 . S
C90 O84 1.231 . S
O91 Zn73 1.953 . S
O91 C85 1.298 . S
C92 C93 1.347 . S
C92 C94 1.327 . S
C92 H117 0.950 . S
C93 C92 1.347 . S
C93 C109 1.349 . S
C94 C92 1.327 . S
C94 C113 1.429 . S
C94 H118 0.950 . S
C95 C112 1.574 1_655 S
C95 C114 1.368 . S
C95 H119 0.949 . S
H96 C100 0.949 . S
C97 C98 1.349 . S
C97 C99 1.327 . S
C97 H120 0.950 . S
C98 C97 1.349 . S
C98 C110 1.349 . S
C99 C97 1.327 . S
C99 C115 1.429 . S
C99 H121 0.950 . S
C100 H96 0.949 . S
C100 C108 1.574 . S
C100 C116 1.368 1_655 S
H101 C109 0.950 1_565 S
H102 C107 0.950 . S
H103 C108 0.949 . S
H104 C110 0.950 . S
H105 C111 0.947 1_655 S
H106 C112 0.949 . S
C107 H102 0.950 . S
C107 C109 1.327 . S
C107 C113 1.429 . S
C108 C100 1.574 . S
C108 H103 0.949 . S
C108 C114 1.368 . S
C109 C93 1.349 . S
C109 H101 0.950 1_545 S
C109 C107 1.327 . S
C110 C98 1.349 . S
C110 H104 0.950 . S
C110 C111 1.327 . S
C111 H105 0.947 1_455 S
C111 C110 1.327 . S
C111 C115 1.429 . S
C112 C95 1.574 1_455 S
C112 H106 0.949 . S
C112 C116 1.368 . S
C113 C94 1.429 . S
C113 C107 1.429 . S
C113 C114 1.523 . S
C114 C95 1.368 . S
C114 C108 1.368 . S
C114 C113 1.523 . S
C115 C99 1.429 . S
C115 C111 1.429 . S
C115 C116 1.523 . S
C116 C100 1.368 1_455 S
C116 C112 1.368 . S
C116 C115 1.523 . S
H117 C92 0.950 . S
H118 C94 0.950 . S
H119 C95 0.949 . S
H120 C97 0.950 . S
H121 C99 0.950 . S
C122 C123 1.349 . S
C122 C124 1.327 . S
C122 H147 0.950 . S
C123 C122 1.349 . S
C123 C139 1.349 . S
C124 C122 1.327 . S
C124 C143 1.429 . S
C124 H148 0.950 . S
C125 C142 1.574 1_455 S
C125 C144 1.368 . S
C125 H149 0.949 . S
H126 C130 0.949 . S
C127 C128 1.349 . S
C127 C129 1.327 . S
C127 H150 0.950 . S
C128 C127 1.349 . S
C128 C140 1.349 . S
C129 C127 1.327 . S
C129 C145 1.429 . S
C129 H151 0.950 . S
C130 H126 0.949 . S
C130 C138 1.574 . S
C130 C146 1.368 1_455 S
H131 C139 0.950 . S
H132 C137 0.950 . S
H133 C138 0.949 . S
H134 C140 0.950 . S
H135 C141 0.952 . S
H136 C142 0.949 . S
C137 H132 0.950 . S
C137 C139 1.327 . S
C137 C143 1.429 . S
C138 C130 1.574 . S
C138 H133 0.949 . S
C138 C144 1.368 . S
C139 C123 1.349 . S
C139 H131 0.950 . S
C139 C137 1.327 . S
C140 C128 1.349 . S
C140 H134 0.950 . S
C140 C141 1.327 . S
C141 H135 0.952 . S
C141 C140 1.327 . S
C141 C145 1.429 . S
C142 C125 1.574 1_655 S
C142 H136 0.949 . S
C142 C146 1.368 . S
C143 C124 1.429 . S
C143 C137 1.429 . S
C143 C144 1.523 . S
C144 C125 1.368 . S
C144 C138 1.368 . S
C144 C143 1.523 . S
C145 C129 1.429 . S
C145 C141 1.429 . S
C145 C146 1.523 . S
C146 C130 1.368 1_655 S
C146 C142 1.368 . S
C146 C145 1.523 . S
H147 C122 0.950 . S
H148 C124 0.950 . S
H149 C125 0.949 . S
H150 C127 0.950 . S
H151 C129 0.950 . S
C152 C153 1.348 . S
C152 C154 1.327 . S
C152 H177 0.950 1_565 S
C153 C152 1.348 . S
C153 C169 1.348 . S
C154 C152 1.327 . S
C154 C173 1.429 . S
C154 H178 0.950 . S
C155 C172 1.574 . S
C155 C174 1.368 . S
C155 H179 0.949 . S
H156 C160 0.949 . S
C157 C158 1.349 . S
C157 C159 1.327 . S
C157 H180 0.950 . S
C158 C157 1.349 . S
C158 C170 1.349 . S
C159 C157 1.327 . S
C159 C175 1.429 . S
C159 H181 0.950 . S
C160 H156 0.949 . S
C160 C168 1.574 1_655 S
C160 C176 1.368 . S
H161 C169 0.950 . S
H162 C167 0.950 . S
H163 C168 0.949 . S
H164 C170 0.950 . S
H165 C171 0.950 . S
H166 C172 0.949 . S
C167 H162 0.950 . S
C167 C169 1.327 . S
C167 C173 1.429 . S
C168 C160 1.574 1_455 S
C168 H163 0.949 . S
C168 C174 1.368 . S
C169 C153 1.348 . S
C169 H161 0.950 . S
C169 C167 1.327 . S
C170 C158 1.349 . S
C170 H164 0.950 . S
C170 C171 1.327 . S
C171 H165 0.950 . S
C171 C170 1.327 . S
C171 C175 1.429 . S
C172 C155 1.574 . S
C172 H166 0.949 . S
C172 C176 1.368 1_455 S
C173 C154 1.429 . S
C173 C167 1.429 . S
C173 C174 1.523 . S
C174 C155 1.368 . S
C174 C168 1.368 . S
C174 C173 1.523 . S
C175 C159 1.429 . S
C175 C171 1.429 . S
C175 C176 1.523 . S
C176 C160 1.368 . S
C176 C172 1.368 1_655 S
C176 C175 1.523 . S
H177 C152 0.950 1_545 S
H178 C154 0.950 . S
H179 C155 0.949 . S
H180 C157 0.950 . S
H181 C159 0.950 . S
C182 C183 1.349 . S
C182 C184 1.327 . S
C182 H207 0.950 . S
C183 C182 1.349 . S
C183 C199 1.349 . S
C184 C182 1.327 . S
C184 C203 1.429 . S
C184 H208 0.950 . S
C185 C202 1.581 . S
C185 C204 1.348 1_455 S
C185 H209 0.960 . S
H186 C190 0.949 . S
C187 C188 1.349 . S
C187 C189 1.327 . S
C187 H210 0.950 . S
C188 C187 1.349 . S
C188 C200 1.349 . S
C189 C187 1.327 . S
C189 C205 1.429 . S
C189 H211 0.950 . S
C190 H186 0.949 . S
C190 C198 1.574 . S
C190 C206 1.368 1_655 S
H191 C199 0.950 . S
H192 C197 0.950 . S
H193 C198 0.949 . S
H194 C200 0.950 . S
H195 C201 0.950 1_655 S
H196 C202 0.949 . S
C197 H192 0.950 . S
C197 C199 1.327 . S
C197 C203 1.429 . S
C198 C190 1.574 . S
C198 H193 0.949 . S
C198 C204 1.368 . S
C199 C183 1.349 . S
C199 H191 0.950 . S
C199 C197 1.327 . S
C200 C188 1.349 . S
C200 H194 0.950 . S
C200 C201 1.327 . S
C201 H195 0.950 1_455 S
C201 C200 1.327 . S
C201 C205 1.429 . S
C202 C185 1.581 . S
C202 H196 0.949 . S
C202 C206 1.368 . S
C203 C184 1.429 . S
C203 C197 1.429 . S
C203 C204 1.523 . S
C204 C185 1.348 1_655 S
C204 C198 1.368 . S
C204 C203 1.523 . S
C205 C189 1.429 . S
C205 C201 1.429 . S
C205 C206 1.523 . S
C206 C190 1.368 1_455 S
C206 C202 1.368 . S
C206 C205 1.523 . S
H207 C182 0.950 . S
H208 C184 0.950 . S
H209 C185 0.960 . S
H210 C187 0.950 . S
H211 C189 0.950 . S
C212 C213 1.349 . S
C212 C214 1.327 . S
C212 H237 0.950 . S
C213 C212 1.349 . S
C213 C229 1.349 . S
C214 C212 1.327 . S
C214 C233 1.429 . S
C214 H238 0.950 . S
C215 C232 1.574 . S
C215 C234 1.368 1_455 S
C215 H239 0.949 . S
H216 C220 0.949 . S
C217 C218 1.349 . S
C217 C219 1.327 . S
C217 H240 0.950 . S
C218 C217 1.349 . S
C218 C230 1.349 . S
C219 C217 1.327 . S
C219 C235 1.429 . S
C219 H241 0.950 . S
C220 H216 0.949 . S
C220 C228 1.574 . S
C220 C236 1.368 1_655 S
H221 C229 0.950 . S
H222 C227 0.950 . S
H223 C228 0.949 . S
H224 C230 0.950 . S
H225 C231 0.950 . S
H226 C232 0.949 . S
C227 H222 0.950 . S
C227 C229 1.327 . S
C227 C233 1.429 . S
C228 C220 1.574 . S
C228 H223 0.949 . S
C228 C234 1.368 . S
C229 C213 1.349 . S
C229 H221 0.950 . S
C229 C227 1.327 . S
C230 C218 1.349 . S
C230 H224 0.950 . S
C230 C231 1.327 . S
C231 H225 0.950 . S
C231 C230 1.327 . S
C231 C235 1.429 . S
C232 C215 1.574 . S
C232 H226 0.949 . S
C232 C236 1.368 . S
C233 C214 1.429 . S
C233 C227 1.429 . S
C233 C234 1.523 . S
C234 C215 1.368 1_655 S
C234 C228 1.368 . S
C234 C233 1.523 . S
C235 C219 1.429 . S
C235 C231 1.429 . S
C235 C236 1.523 . S
C236 C220 1.368 1_455 S
C236 C232 1.368 . S
C236 C235 1.523 . S
H237 C212 0.950 . S
H238 C214 0.950 . S
H239 C215 0.949 . S
H240 C217 0.950 . S
H241 C219 0.950 . S
C242 C243 1.349 . S
C242 C244 1.327 1_554 S
C242 H267 0.950 1_554 S
C243 C242 1.349 . S
C243 C259 1.349 . S
C244 C242 1.327 1_556 S
C244 C263 1.429 1_556 S
C244 H268 0.950 . S
C245 C262 1.574 1_655 S
C245 C264 1.368 1_545 S
C245 H269 0.949 . S
H246 C250 0.949 . S
C247 C248 1.349 . S
C247 C249 1.327 1_556 S
C247 H270 0.950 1_556 S
C248 C247 1.349 . S
C248 C260 1.349 . S
C249 C247 1.327 1_554 S
C249 C265 1.429 1_554 S
C249 H271 0.950 . S
C250 H246 0.949 . S
C250 C258 1.574 1_455 S
C250 C266 1.368 1_565 S
H251 C259 0.950 . S
H252 C257 0.950 1_545 S
H253 C258 0.949 . S
H254 C260 0.950 . S
H255 C261 0.950 1_565 S
H256 C262 0.949 . S
C257 H252 0.950 1_565 S
C257 C259 1.327 . S
C257 C263 1.429 . S
C258 C250 1.574 1_655 S
C258 H253 0.949 . S
C258 C264 1.368 1_556 S
C259 C243 1.349 . S
C259 H251 0.950 . S
C259 C257 1.327 . S
C260 C248 1.349 . S
C260 H254 0.950 . S
C260 C261 1.327 . S
C261 H255 0.950 1_545 S
C261 C260 1.327 . S
C261 C265 1.429 . S
C262 C245 1.574 1_455 S
C262 H256 0.949 . S
C262 C266 1.368 1_554 S
C263 C244 1.429 1_554 S
C263 C257 1.429 . S
C263 C264 1.523 . S
C264 C245 1.368 1_565 S
C264 C258 1.368 1_554 S
C264 C263 1.523 . S
C265 C249 1.429 1_556 S
C265 C261 1.429 . S
C265 C266 1.523 . S
C266 C250 1.368 1_545 S
C266 C262 1.368 1_556 S
C266 C265 1.523 . S
H267 C242 0.950 1_556 S
H268 C244 0.950 . S
H269 C245 0.949 . S
H270 C247 0.950 1_554 S
H271 C249 0.950 . S
C272 C273 1.349 . S
C272 C274 1.327 . S
C272 H297 0.950 . S
C273 C272 1.349 . S
C273 C289 1.349 . S
C274 C272 1.327 . S
C274 C293 1.429 . S
C274 H298 0.950 . S
C275 C292 1.574 . S
C275 C294 1.368 . S
C275 H299 0.949 . S
H276 C280 0.949 . S
C277 C278 1.349 . S
C277 C279 1.327 . S
C277 H300 0.950 . S
C278 C277 1.349 . S
C278 C290 1.349 . S
C279 C277 1.327 . S
C279 C295 1.429 . S
C279 H301 0.950 . S
C280 H276 0.949 . S
C280 C288 1.574 . S
C280 C296 1.368 . S
H281 C289 0.950 1_556 S
H282 C287 0.950 . S
H283 C288 0.949 . S
H284 C290 0.950 . S
H285 C291 0.950 . S
H286 C292 0.949 . S
C287 H282 0.950 . S
C287 C289 1.327 . S
C287 C293 1.429 . S
C288 C280 1.574 . S
C288 H283 0.949 . S
C288 C294 1.368 . S
C289 C273 1.349 . S
C289 H281 0.950 1_554 S
C289 C287 1.327 . S
C290 C278 1.349 . S
C290 H284 0.950 . S
C290 C291 1.327 . S
C291 H285 0.950 . S
C291 C290 1.327 . S
C291 C295 1.429 . S
C292 C275 1.574 . S
C292 H286 0.949 . S
C292 C296 1.368 . S
C293 C274 1.429 . S
C293 C287 1.429 . S
C293 C294 1.523 . S
C294 C275 1.368 . S
C294 C288 1.368 . S
C294 C293 1.523 . S
C295 C279 1.429 . S
C295 C291 1.429 . S
C295 C296 1.523 . S
C296 C280 1.368 . S
C296 C292 1.368 . S
C296 C295 1.523 . S
H297 C272 0.950 . S
H298 C274 0.950 . S
H299 C275 0.949 . S
H300 C277 0.950 . S
H301 C279 0.950 . S
C302 C303 1.349 . S
C302 C304 1.327 . S
C302 H327 0.950 . S
C303 C302 1.349 . S
C303 C319 1.349 . S
C304 C302 1.327 . S
C304 C323 1.429 . S
C304 H328 0.950 . S
C305 C322 1.574 . S
C305 C324 1.368 . S
C305 H329 0.949 . S
H306 C310 0.949 . S
C307 C308 1.349 . S
C307 C309 1.327 . S
C307 H330 0.950 . S
C308 C307 1.349 . S
C308 C320 1.349 . S
C309 C307 1.327 . S
C309 C325 1.429 . S
C309 H331 0.950 . S
C310 H306 0.949 . S
C310 C318 1.574 . S
C310 C326 1.368 . S
H311 C319 0.950 . S
H312 C317 0.950 . S
H313 C318 0.949 . S
H314 C320 0.950 . S
H315 C321 0.950 . S
H316 C322 0.949 . S
C317 H312 0.950 . S
C317 C319 1.327 . S
C317 C323 1.429 . S
C318 C310 1.574 . S
C318 H313 0.949 . S
C318 C324 1.368 . S
C319 C303 1.349 . S
C319 H311 0.950 . S
C319 C317 1.327 . S
C320 C308 1.349 . S
C320 H314 0.950 . S
C320 C321 1.327 . S
C321 H315 0.950 . S
C321 C320 1.327 . S
C321 C325 1.429 . S
C322 C305 1.574 . S
C322 H316 0.949 . S
C322 C326 1.368 . S
C323 C304 1.429 . S
C323 C317 1.429 . S
C323 C324 1.523 . S
C324 C305 1.368 . S
C324 C318 1.368 . S
C324 C323 1.523 . S
C325 C309 1.429 . S
C325 C321 1.429 . S
C325 C326 1.523 . S
C326 C310 1.368 . S
C326 C322 1.368 . S
C326 C325 1.523 . S
H327 C302 0.950 . S
H328 C304 0.950 . S
H329 C305 0.949 . S
H330 C307 0.950 . S
H331 C309 0.950 . S
C332 C333 1.349 . S
C332 C334 1.327 . S
C332 H357 0.958 . S
C333 C332 1.349 . S
C333 C349 1.349 . S
C334 C332 1.327 . S
C334 C353 1.429 . S
C334 H358 0.950 . S
C335 C352 1.574 . S
C335 C354 1.368 . S
C335 H359 0.949 . S
H336 C340 0.949 . S
C337 C338 1.349 . S
C337 C339 1.327 . S
C337 H360 0.950 . S
C338 C337 1.349 . S
C338 C350 1.349 . S
C339 C337 1.327 . S
C339 C355 1.429 . S
C339 H361 0.950 . S
C340 H336 0.949 . S
C340 C348 1.574 . S
C340 C356 1.368 . S
H341 C349 0.950 . S
H342 C347 0.950 . S
H343 C348 0.949 . S
H344 C350 0.950 . S
H345 C351 0.950 . S
H346 C352 0.949 . S
C347 H342 0.950 . S
C347 C349 1.327 . S
C347 C353 1.429 . S
C348 C340 1.574 . S
C348 H343 0.949 . S
C348 C354 1.368 . S
C349 C333 1.349 . S
C349 H341 0.950 . S
C349 C347 1.327 . S
C350 C338 1.349 . S
C350 H344 0.950 . S
C350 C351 1.327 . S
C351 H345 0.950 . S
C351 C350 1.327 . S
C351 C355 1.429 . S
C352 C335 1.574 . S
C352 H346 0.949 . S
C352 C356 1.368 . S
C353 C334 1.429 . S
C353 C347 1.429 . S
C353 C354 1.523 . S
C354 C335 1.368 . S
C354 C348 1.368 . S
C354 C353 1.523 . S
C355 C339 1.429 . S
C355 C351 1.429 . S
C355 C356 1.523 . S
C356 C340 1.368 . S
C356 C352 1.368 . S
C356 C355 1.523 . S
H357 C332 0.958 . S
H358 C334 0.950 . S
H359 C335 0.949 . S
H360 C337 0.950 . S
H361 C339 0.950 . S
C362 C363 1.349 . S
C362 C364 1.327 . S
C362 H387 0.950 . S
C363 C362 1.349 . S
C363 C379 1.349 . S
C364 C362 1.327 . S
C364 C383 1.429 . S
C364 H388 0.950 . S
C365 C382 1.574 . S
C365 C384 1.368 . S
C365 H389 0.949 . S
H366 C370 0.949 . S
C367 C368 1.349 . S
C367 C369 1.327 . S
C367 H390 0.950 . S
C368 C367 1.349 . S
C368 C380 1.349 . S
C369 C367 1.327 . S
C369 C385 1.429 . S
C369 H391 0.950 . S
C370 H366 0.949 . S
C370 C378 1.574 . S
C370 C386 1.368 . S
H371 C379 0.950 . S
H372 C377 0.950 . S
H373 C378 0.949 . S
H374 C380 0.950 . S
H375 C381 0.950 . S
H376 C382 0.949 . S
C377 H372 0.950 . S
C377 C379 1.327 . S
C377 C383 1.429 . S
C378 C370 1.574 . S
C378 H373 0.949 . S
C378 C384 1.368 . S
C379 C363 1.349 . S
C379 H371 0.950 . S
C379 C377 1.327 . S
C380 C368 1.349 . S
C380 H374 0.950 . S
C380 C381 1.327 . S
C381 H375 0.950 . S
C381 C380 1.327 . S
C381 C385 1.429 . S
C382 C365 1.574 . S
C382 H376 0.949 . S
C382 C386 1.368 . S
C383 C364 1.429 . S
C383 C377 1.429 . S
C383 C384 1.523 . S
C384 C365 1.368 . S
C384 C378 1.368 . S
C384 C383 1.523 . S
C385 C369 1.429 . S
C385 C381 1.429 . S
C385 C386 1.523 . S
C386 C370 1.368 . S
C386 C382 1.368 . S
C386 C385 1.523 . S
H387 C362 0.950 . S
H388 C364 0.950 . S
H389 C365 0.949 . S
H390 C367 0.950 . S
H391 C369 0.950 . S
C392 C393 1.349 . S
C392 C394 1.327 . S
C392 H417 0.950 . S
C393 C392 1.349 . S
C393 C409 1.349 . S
C394 C392 1.327 . S
C394 C413 1.429 . S
C394 H418 0.950 . S
C395 C412 1.574 . S
C395 C414 1.368 . S
C395 H419 0.949 . S
H396 C400 0.949 . S
C397 C398 1.349 . S
C397 C399 1.327 . S
C397 H420 0.950 . S
C398 C397 1.349 . S
C398 C410 1.349 . S
C399 C397 1.327 . S
C399 C415 1.429 . S
C399 H421 0.950 . S
C400 H396 0.949 . S
C400 C408 1.574 . S
C400 C416 1.368 . S
H401 C409 0.950 . S
H402 C407 0.950 . S
H403 C408 0.949 . S
H404 C410 0.950 . S
H405 C411 0.950 . S
H406 C412 0.949 . S
C407 H402 0.950 . S
C407 C409 1.327 . S
C407 C413 1.429 . S
C408 C400 1.574 . S
C408 H403 0.949 . S
C408 C414 1.368 . S
C409 C393 1.349 . S
C409 H401 0.950 . S
C409 C407 1.327 . S
C410 C398 1.349 . S
C410 H404 0.950 . S
C410 C411 1.327 . S
C411 H405 0.950 . S
C411 C410 1.327 . S
C411 C415 1.429 . S
C412 C395 1.574 . S
C412 H406 0.949 . S
C412 C416 1.368 . S
C413 C394 1.429 . S
C413 C407 1.429 . S
C413 C414 1.523 . S
C414 C395 1.368 . S
C414 C408 1.368 . S
C414 C413 1.523 . S
C415 C399 1.429 . S
C415 C411 1.429 . S
C415 C416 1.523 . S
C416 C400 1.368 . S
C416 C412 1.368 . S
C416 C415 1.523 . S
H417 C392 0.950 . S
H418 C394 0.950 . S
H419 C395 0.949 . S
H420 C397 0.950 . S
H421 C399 0.950 . S
C422 C423 1.349 . S
C422 C424 1.327 . S
C422 H447 0.950 . S
C423 C422 1.349 . S
C423 C439 1.349 . S
C424 C422 1.327 . S
C424 C443 1.429 . S
C424 H448 0.950 1_546 S
C425 C442 1.574 . S
C425 C444 1.368 . S
C425 H449 0.949 . S
H426 C430 0.949 . S
C427 C428 1.349 . S
C427 C429 1.327 . S
C427 H450 0.950 . S
C428 C427 1.349 . S
C428 C440 1.349 . S
C429 C427 1.327 . S
C429 C445 1.429 . S
C429 H451 0.950 1_564 S
C430 H426 0.949 . S
C430 C438 1.574 . S
C430 C446 1.368 . S
H431 C439 0.950 . S
H432 C437 0.950 . S
H433 C438 0.949 . S
H434 C440 0.950 . S
H435 C441 0.950 . S
H436 C442 0.949 . S
C437 H432 0.950 . S
C437 C439 1.327 . S
C437 C443 1.429 . S
C438 C430 1.574 . S
C438 H433 0.949 . S
C438 C444 1.368 1_564 S
C439 C423 1.349 . S
C439 H431 0.950 . S
C439 C437 1.327 . S
C440 C428 1.349 . S
C440 H434 0.950 . S
C440 C441 1.327 . S
C441 H435 0.950 . S
C441 C440 1.327 . S
C441 C445 1.429 . S
C442 C425 1.574 . S
C442 H436 0.949 . S
C442 C446 1.368 1_546 S
C443 C424 1.429 . S
C443 C437 1.429 . S
C443 C444 1.523 . S
C444 C425 1.368 . S
C444 C438 1.368 1_546 S
C444 C443 1.523 . S
C445 C429 1.429 . S
C445 C441 1.429 . S
C445 C446 1.523 . S
C446 C430 1.368 . S
C446 C442 1.368 1_564 S
C446 C445 1.523 . S
H447 C422 0.950 . S
H448 C424 0.950 1_564 S
H449 C425 0.949 . S
H450 C427 0.950 . S
H451 C429 0.950 1_546 S
C93 C44 1.651 1_545 S
C98 C19 1.612 . S
C123 C21 1.649 . S
C128 C42 1.612 . S
C153 C90 1.651 1_565 S
C158 C65 1.612 . S
C183 C67 1.649 . S
C188 C88 1.612 . S
C213 C62 0.656 . S
C218 C16 0.656 . S
C243 C39 0.656 . S
C248 C85 0.656 . S
C273 C87 1.515 1_554 S
C278 C17 1.500 . S
C303 C40 1.500 . S
C308 C64 1.515 . S
C333 C41 1.515 1_556 S
C338 C63 1.500 . S
C363 C86 1.500 . S
C368 C18 1.515 . S
C393 C20 1.257 . S
C398 C66 1.257 . S
C423 C89 1.257 . S
C428 C43 1.257 . S
