# Generated by pormake.
# Topology wjd, (6)-cn, num edge types: 1
# Building blocks:
#     Node 0, Type 0, BuildingBlock: UKALOJ_clean_sbu_0, # of connection points: 6
#     Node 1, Type 0, BuildingBlock: UKALOJ_clean_sbu_0, # of connection points: 6
#     Node 2, Type 0, BuildingBlock: UKALOJ_clean_sbu_0, # of connection points: 6
#     Node 3, Type 0, BuildingBlock: UKALOJ_clean_sbu_0, # of connection points: 6
#     Node 4, Type 0, BuildingBlock: UKALOJ_clean_sbu_0, # of connection points: 6
#     Node 5, Type 0, BuildingBlock: UKALOJ_clean_sbu_0, # of connection points: 6
#     Node 6, Type 0, BuildingBlock: UKALOJ_clean_sbu_0, # of connection points: 6
#     Node 7, Type 0, BuildingBlock: UKALOJ_clean_sbu_0, # of connection points: 6
#     Node 8, Type 0, BuildingBlock: UKALOJ_clean_sbu_0, # of connection points: 6
#     Node 9, Type 0, BuildingBlock: UKALOJ_clean_sbu_0, # of connection points: 6
#     Node 10, Type 0, BuildingBlock: UKALOJ_clean_sbu_0, # of connection points: 6
#     Node 11, Type 0, BuildingBlock: UKALOJ_clean_sbu_0, # of connection points: 6
#     Edge 12, Type (0, 0), None
#     Edge 13, Type (0, 0), None
#     Edge 14, Type (0, 0), None
#     Edge 15, Type (0, 0), None
#     Edge 16, Type (0, 0), None
#     Edge 17, Type (0, 0), None
#     Edge 18, Type (0, 0), None
#     Edge 19, Type (0, 0), None
#     Edge 20, Type (0, 0), None
#     Edge 21, Type (0, 0), None
#     Edge 22, Type (0, 0), None
#     Edge 23, Type (0, 0), None
#     Edge 24, Type (0, 0), None
#     Edge 25, Type (0, 0), None
#     Edge 26, Type (0, 0), None
#     Edge 27, Type (0, 0), None
#     Edge 28, Type (0, 0), None
#     Edge 29, Type (0, 0), None
#     Edge 30, Type (0, 0), None
#     Edge 31, Type (0, 0), None
#     Edge 32, Type (0, 0), None
#     Edge 33, Type (0, 0), None
#     Edge 34, Type (0, 0), None
#     Edge 35, Type (0, 0), None
#     Edge 36, Type (0, 0), None
#     Edge 37, Type (0, 0), None
#     Edge 38, Type (0, 0), None
#     Edge 39, Type (0, 0), None
#     Edge 40, Type (0, 0), None
#     Edge 41, Type (0, 0), None
#     Edge 42, Type (0, 0), None
#     Edge 43, Type (0, 0), None
#     Edge 44, Type (0, 0), None
#     Edge 45, Type (0, 0), None
#     Edge 46, Type (0, 0), None
#     Edge 47, Type (0, 0), None
# Relax obj value: 0.070
# Max RMSD: 0.173
# Mean RMSD: 0.173
data_MOF--net-wjd--node1-UKALOJ_clean_sbu_0--edge1-none
_symmetry_space_group_name_H-M    P1
_symmetry_Int_Tables_number       1
_symmetry_cell_setting            triclinic
loop_
_symmetry_equiv_pos_as_xyz
'x, y, z'
_cell_length_a     13.592351
_cell_length_b     13.596892
_cell_length_c     46.403146
_cell_angle_alpha  90.974305
_cell_angle_beta   89.506273
_cell_angle_gamma 120.01029
loop_
_atom_site_label
_atom_site_type_symbol
_atom_site_fract_x
_atom_site_fract_y
_atom_site_fract_z
_atom_type_partial_charge
Zn0 Zn 0.32771 0.15791 0.18316 0.0
O1 O 0.45467 0.32969 0.18125 0.0
C2 C 0.49904 0.10579 0.1571 0.0
Zn3 Zn 0.32493 0.15272 0.13458 0.0
C4 C 0.49173 0.38158 0.15762 0.0
O5 O 0.45176 0.32897 0.13367 0.0
C6 C 0.15681 0.9327 0.16083 0.0
O7 O 0.19445 0.19656 0.13661 0.0
O8 O 0.20364 0.20724 0.18407 0.0
N9 N 0.3177 0.12995 0.08955 0.0
C10 C 0.23968 0.04345 0.07281 0.0
C11 C 0.39418 0.12172 0.04896 0.0
N12 N 0.41329 0.1786 0.07437 0.0
N13 N 0.28552 0.0371 0.04758 0.0
C14 C 0.2573 0.12277 0.24811 0.0
C15 C 0.41832 0.19645 0.26918 0.0
N16 N 0.33792 0.16382 0.2274 0.0
N17 N 0.43763 0.20942 0.24057 0.0
N18 N 0.30589 0.1422 0.27448 0.0
H19 H 0.09344 0.10735 0.25403 0.0
H20 H 0.11152 0.05809 0.21936 0.0
H21 H 0.09223 -0.02519 0.25068 0.0
C22 C 0.13179 0.0626 0.24246 0.0
C23 C 0.12136 0.95864 0.08131 0.0
H24 H 0.06418 0.93589 0.06241 0.0
H25 H 0.11895 0.87973 0.08818 0.0
H26 H 0.09129 -0.00707 0.09886 0.0
O27 O 0.20142 -0.01851 0.13749 0.0
O28 O 0.19728 -0.01516 0.18452 0.0
C29 C 0.16086 0.2161 0.16073 0.0
O30 O 0.45712 0.11367 0.18107 0.0
O31 O 0.45607 0.11369 0.13377 0.0
Zn32 Zn 0.70712 0.59426 0.44125 0.0
O33 O 0.88151 0.72422 0.43987 0.0
C34 C 0.65514 0.76165 0.41495 0.0
Zn35 Zn 0.70817 0.58949 0.39254 0.0
C36 C 0.93284 0.75853 0.41578 0.0
O37 O 0.87963 0.71628 0.39237 0.0
C38 C 0.48528 0.41951 0.41816 0.0
O39 O 0.75393 0.46331 0.39456 0.0
O40 O 0.75566 0.46717 0.44218 0.0
N41 N 0.70215 0.57763 0.34802 0.0
C42 C 0.78314 0.6074 0.32758 0.0
C43 C 0.62517 0.54617 0.30572 0.0
N44 N 0.6041 0.53888 0.3343 0.0
N45 N 0.73679 0.58769 0.30104 0.0
C46 C 0.68722 0.68312 0.50301 0.0
C47 C 0.60925 0.52998 0.52681 0.0
N48 N 0.69264 0.60308 0.48624 0.0
N49 N 0.64461 0.50828 0.50138 0.0
N50 N 0.63603 0.63949 0.52824 0.0
H51 H 0.75847 0.85935 0.51335 0.0
H52 H 0.64618 0.80474 0.48757 0.0
H53 H 0.78558 0.82907 0.47689 0.0
C54 C 0.7223 0.80125 0.49445 0.0
C55 C 0.90642 0.6514 0.33342 0.0
H56 H 0.9164 0.6085 0.35237 0.0
H57 H -0.05101 0.74412 0.33795 0.0
H58 H -0.05188 0.63672 0.31449 0.0
O59 O 0.53481 0.45926 0.39426 0.0
O60 O 0.53676 0.46395 0.44156 0.0
C61 C 0.76815 0.42653 0.41826 0.0
O62 O 0.65997 0.71776 0.43824 0.0
O63 O 0.66592 0.72039 0.39114 0.0
Zn64 Zn 0.83466 0.17559 0.18321 0.0
O65 O 0.66364 0.13218 0.18023 0.0
C66 C 0.88578 0.39622 0.15718 0.0
Zn67 Zn 0.83767 0.17299 0.13472 0.0
C68 C 0.61062 0.11399 0.15657 0.0
O69 O 0.66195 0.12311 0.13273 0.0
C70 C 0.05846 0.22626 0.16185 0.0
O71 O 0.79426 -0.00091 0.13697 0.0
O72 O 0.78785 0.00316 0.1845 0.0
N73 N 0.85945 0.18309 0.08984 0.0
C74 C -0.05486 0.1892 0.07329 0.0
C75 C 0.86474 0.26039 0.04886 0.0
N76 N 0.80943 0.22686 0.07433 0.0
N77 N -0.0503 0.23679 0.04784 0.0
C78 C 0.75656 0.11644 0.24725 0.0
C79 C 0.87941 0.26651 0.26942 0.0
N80 N 0.82865 0.18726 0.22725 0.0
N81 N 0.90457 0.28042 0.24109 0.0
N82 N 0.78573 0.16511 0.27372 0.0
H83 H 0.68338 0.93626 0.24511 0.0
H84 H 0.58547 -0.01673 0.25536 0.0
H85 H 0.63034 -0.00843 0.21826 0.0
C86 C 0.65786 0.00056 0.24097 0.0
C87 C 0.0302 0.157 0.08213 0.0
H88 H 0.05257 0.12047 0.06334 0.0
H89 H 0.10914 0.23444 0.08913 0.0
H90 H -0.00385 0.09471 0.0997 0.0
O91 O 0.00919 0.22129 0.13847 0.0
O92 O 0.00707 0.21606 0.18556 0.0
C93 C 0.77728 0.94894 0.16109 0.0
O94 O 0.87923 0.34868 0.18103 0.0
O95 O 0.87641 0.3431 0.13377 0.0
Zn96 Zn 0.21464 0.083 0.4412 0.0
O97 O 0.08444 0.12696 0.44026 0.0
C98 C 0.04507 0.86093 0.41482 0.0
Zn99 Zn 0.21687 0.08335 0.39275 0.0
C100 C 0.04995 0.14286 0.41619 0.0
O101 O 0.09212 0.13091 0.39282 0.0
C102 C 0.38786 0.03256 0.4174 0.0
O103 O 0.34328 0.25509 0.39496 0.0
O104 O 0.34144 0.25836 0.44251 0.0
N105 N 0.21741 0.08562 0.34863 0.0
C106 C 0.29941 0.13035 0.3283 0.0
C107 C 0.13945 0.05132 0.3066 0.0
N108 N 0.11849 0.03664 0.33504 0.0
N109 N 0.25213 0.11004 0.30172 0.0
C110 C 0.13117 -0.01687 0.50308 0.0
C111 C 0.28599 0.06361 0.52677 0.0
N112 N 0.20982 0.0656 0.48604 0.0
N113 N 0.3057 0.11578 0.50109 0.0
N114 N 0.17667 -0.01916 0.52844 0.0
H115 H -0.04423 0.87793 0.51367 0.0
H116 H 0.00932 0.81805 0.48774 0.0
H117 H -0.01713 0.93087 0.47719 0.0
C118 C 0.01254 0.89805 0.4947 0.0
C119 C 0.42441 0.19343 0.33458 0.0
H120 H 0.44191 0.19842 0.35793 0.0
H121 H 0.46311 0.2808 0.32607 0.0
H122 H 0.46537 0.14995 0.32363 0.0
O123 O 0.34555 0.03797 0.39351 0.0
O124 O 0.34557 0.04338 0.44086 0.0
C125 C 0.38116 0.3087 0.41866 0.0
O126 O 0.09056 0.91158 0.43818 0.0
O127 O 0.08503 0.91087 0.39113 0.0
Zn128 Zn 0.81766 0.66552 0.13494 0.0
O129 O -0.00833 0.79536 0.13597 0.0
C130 C 0.76768 0.83678 0.16203 0.0
Zn131 Zn 0.81896 0.66522 0.18352 0.0
C132 C 0.04445 0.83031 0.15993 0.0
O133 O -0.00761 0.78923 0.1834 0.0
C134 C 0.59522 0.49341 0.1582 0.0
O135 O 0.86209 0.53726 0.18081 0.0
O136 O 0.86645 0.53903 0.13322 0.0
N137 N 0.82295 0.66463 0.22797 0.0
C138 C 0.75914 0.58747 0.24798 0.0
C139 C 0.87941 0.73751 0.27062 0.0
N140 N 0.89779 0.75735 0.24217 0.0
N141 N 0.79359 0.63106 0.27473 0.0
C142 C 0.7957 0.7464 0.07337 0.0
C143 C 0.72107 0.59054 0.04951 0.0
N144 N 0.80235 0.66919 0.09018 0.0
N145 N 0.75645 0.5727 0.07502 0.0
N146 N 0.74568 0.69921 0.04809 0.0
H147 H 0.86466 0.92129 0.06291 0.0
H148 H 0.75303 0.86861 0.08897 0.0
H149 H 0.89339 0.89626 0.09929 0.0
C150 C 0.8295 0.86539 0.08186 0.0
C151 C 0.66657 0.46884 0.24147 0.0
H152 H 0.58629 0.46905 0.23753 0.0
H153 H 0.6879 0.43499 0.22196 0.0
H154 H 0.65362 0.41274 0.25994 0.0
O155 O 0.64393 0.53711 0.18214 0.0
O156 O 0.64739 0.53462 0.13484 0.0
C157 C 0.87774 0.49958 0.15698 0.0
O158 O 0.77046 0.78975 0.13857 0.0
O159 O 0.77995 0.79831 0.18564 0.0
Zn160 Zn 0.72612 0.10142 0.44112 0.0
O161 O 0.68233 0.92711 0.44018 0.0
C162 C -0.05285 0.15189 0.41506 0.0
Zn163 Zn 0.72372 0.09834 0.39243 0.0
C164 C 0.66476 0.87388 0.41613 0.0
O165 O 0.67557 0.92545 0.3928 0.0
C166 C 0.77543 0.32253 0.41773 0.0
O167 O 0.55213 0.05449 0.39414 0.0
O168 O 0.55036 0.05241 0.44177 0.0
N169 N 0.71967 0.08898 0.34782 0.0
C170 C 0.74918 0.16476 0.32636 0.0
C171 C 0.70858 0.00536 0.30685 0.0
N172 N 0.69382 -0.00974 0.33547 0.0
N173 N 0.74287 0.11394 0.30059 0.0
C174 C 0.82967 0.12559 0.50304 0.0
C175 C 0.75063 0.20284 0.52667 0.0
N176 N 0.74556 0.11882 0.48606 0.0
N177 N 0.69634 0.1664 0.50108 0.0
N178 N 0.83393 0.17711 0.52831 0.0
H179 H 0.93565 0.05692 0.5137 0.0
H180 H -0.00585 0.16744 0.48782 0.0
H181 H 0.88098 0.02682 0.47719 0.0
C182 C 0.91449 0.09131 0.4947 0.0
C183 C 0.77798 0.28582 0.33054 0.0
H184 H 0.71237 0.28894 0.34426 0.0
H185 H 0.7806 0.32649 0.30984 0.0
H186 H 0.86147 0.33449 0.34148 0.0
O187 O 0.76888 0.27235 0.39381 0.0
O188 O 0.76543 0.27168 0.44111 0.0
C189 C 0.4992 0.0401 0.41783 0.0
O190 O 0.89737 0.14916 0.43836 0.0
O191 O 0.8961 0.13864 0.39129 0.0
Zn192 Zn 0.04087 0.27752 0.68316 0.0
O193 O 0.21177 0.40546 0.68025 0.0
C194 C -0.01024 0.44707 0.6572 0.0
Zn195 Zn 0.03802 0.27205 0.63467 0.0
C196 C 0.26495 0.44019 0.6566 0.0
O197 O 0.21377 0.39784 0.63275 0.0
C198 C 0.81717 0.10437 0.66171 0.0
O199 O 0.08134 0.14149 0.63688 0.0
O200 O 0.08802 0.15215 0.68442 0.0
N201 N 0.01642 0.26075 0.58979 0.0
C202 C 0.93074 0.18119 0.57325 0.0
C203 C 0.01046 0.33313 0.54893 0.0
N204 N 0.06604 0.35475 0.57435 0.0
N205 N 0.92566 0.22451 0.54789 0.0
C206 C 0.11942 0.29831 0.74725 0.0
C207 C -0.00807 0.31821 0.76938 0.0
N208 N 0.04606 0.29416 0.7272 0.0
N209 N -0.0328 0.30674 0.74103 0.0
N210 N 0.08819 0.31527 0.77373 0.0
H211 H 0.20055 0.19839 0.74655 0.0
H212 H 0.29387 0.34657 0.75449 0.0
H213 H 0.24518 0.29945 0.71802 0.0
C214 C 0.2209 0.28567 0.74101 0.0
C215 C 0.84604 0.06373 0.58203 0.0
H216 H 0.82408 0.005 0.56322 0.0
H217 H 0.76682 0.06173 0.589 0.0
H218 H 0.8802 0.03564 0.5996 0.0
O219 O 0.86642 0.14886 0.63834 0.0
O220 O 0.86861 0.1454 0.68542 0.0
C221 C 0.09847 0.10842 0.66101 0.0
O222 O -0.00398 0.40589 0.68105 0.0
O223 O -0.00063 0.40347 0.63379 0.0
Zn224 Zn 0.16936 0.82656 0.94124 0.0
O225 O -0.00505 0.78212 0.93984 0.0
C226 C 0.2212 0.04577 0.91483 0.0
Zn227 Zn 0.16827 0.82058 0.89253 0.0
C228 C -0.0564 0.76497 0.91575 0.0
O229 O -0.00321 0.77581 0.89234 0.0
C230 C 0.3912 0.87362 0.91815 0.0
O231 O 0.12268 0.64875 0.89466 0.0
O232 O 0.12085 0.65099 0.94228 0.0
N233 N 0.17421 0.81436 0.84801 0.0
C234 C 0.09319 0.76258 0.8276 0.0
C235 C 0.25095 0.85973 0.80568 0.0
N236 N 0.27213 0.87391 0.83425 0.0
N237 N 0.13939 0.78911 0.80104 0.0
C238 C 0.18922 0.93585 1.00292 0.0
C239 C 0.26708 0.86085 1.02684 0.0
N240 N 0.18379 0.85022 0.98623 0.0
N241 N 0.23173 0.80355 1.00145 0.0
N242 N 0.24052 0.94374 1.02814 0.0
H243 H 0.11755 0.04052 1.01317 0.0
H244 H 0.23003 0.0984 0.98744 0.0
H245 H 0.09082 -0.01687 0.97671 0.0
C246 C 0.15396 0.0187 0.9943 0.0
C247 C -0.02996 0.68287 0.8335 0.0
H248 H -0.03958 0.63048 0.85253 0.0
H249 H 0.92702 0.73266 0.83793 0.0
H250 H 0.92853 0.62604 0.81463 0.0
O251 O 0.34166 0.86383 0.89425 0.0
O252 O 0.33973 0.8666 0.94155 0.0
C253 C 0.10847 0.59783 0.91838 0.0
O254 O 0.2165 -0.00283 0.93813 0.0
O255 O 0.21037 -0.00635 0.89103 0.0
Zn256 Zn 0.55073 0.76442 0.63452 0.0
O257 O 0.68121 0.9387 0.63648 0.0
C258 C 0.71886 0.71258 0.66082 0.0
Zn259 Zn 0.54794 0.76692 0.68311 0.0
C260 C 0.71478 -0.00814 0.66059 0.0
O261 O 0.672 0.94026 0.68395 0.0
C262 C 0.37657 0.5435 0.65712 0.0
O263 O 0.42103 0.81177 0.68118 0.0
O264 O 0.42391 0.81386 0.6336 0.0
N265 N 0.53786 0.76296 0.72737 0.0
C266 C 0.61855 0.80288 0.74806 0.0
C267 C 0.45761 0.71562 0.76918 0.0
N268 N 0.4382 0.7089 0.74057 0.0
N269 N 0.57005 0.77402 0.77445 0.0
C270 C 0.63622 0.74024 0.57281 0.0
C271 C 0.48169 0.66303 0.54897 0.0
N272 N 0.55798 0.74858 0.5895 0.0
N273 N 0.46238 0.70106 0.57432 0.0
N274 N 0.59044 0.68736 0.54766 0.0
H275 H 0.81186 0.80913 0.56244 0.0
H276 H 0.7576 0.69818 0.58819 0.0
H277 H 0.78438 0.83873 0.59889 0.0
C278 C 0.75469 0.77443 0.58134 0.0
C279 C 0.74404 0.86827 0.74237 0.0
H280 H 0.7823 0.9516 0.75383 0.0
H281 H 0.76424 0.88357 0.71926 0.0
H282 H 0.78376 0.82034 0.75069 0.0
O283 O 0.41848 0.59331 0.68109 0.0
O284 O 0.41958 0.59429 0.63379 0.0
C285 C 0.38396 0.82655 0.65755 0.0
O286 O 0.67424 0.7167 0.63748 0.0
O287 O 0.67836 0.72427 0.68451 0.0
Zn288 Zn 0.15282 0.31405 0.89244 0.0
O289 O 0.3245 0.44151 0.89429 0.0
C290 C 0.10131 0.48662 0.91787 0.0
Zn291 Zn 0.15032 0.31463 0.94113 0.0
C292 C 0.37734 0.48018 0.91798 0.0
O293 O 0.32607 0.44143 0.94191 0.0
C294 C 0.92928 0.14419 0.91491 0.0
O295 O 0.19419 0.18415 0.94006 0.0
O296 O 0.2005 0.189 0.89268 0.0
N297 N 0.13039 0.31182 0.98608 0.0
C298 C 0.04583 0.23441 1.00295 0.0
C299 C 0.1253 0.39022 1.0268 0.0
N300 N 0.17988 0.40831 1.00124 0.0
N301 N 0.04144 0.28137 1.02825 0.0
C302 C 0.12265 0.35164 0.82648 0.0
C303 C 0.1757 0.24263 0.80675 0.0
N304 N 0.15781 0.30996 0.84783 0.0
N305 N 0.19136 0.24322 0.83535 0.0
N306 N 0.13299 0.31018 0.80063 0.0
H307 H 0.14974 0.51005 0.8438 0.0
H308 H 0.07506 0.47144 0.81035 0.0
H309 H 0.00339 0.39801 0.84292 0.0
C310 C 0.08494 0.43726 0.83092 0.0
C311 C -0.03911 0.11549 0.99452 0.0
H312 H -0.06063 0.05971 1.01347 0.0
H313 H 0.88143 0.1123 0.98759 0.0
H314 H -0.00552 0.08456 0.97701 0.0
O315 O -0.02088 0.19108 0.93821 0.0
O316 O -0.0197 0.1822 0.89114 0.0
C317 C 0.21152 0.14835 0.91599 0.0
O318 O 0.10826 0.44323 0.89395 0.0
O319 O 0.11092 0.44554 0.94125 0.0
Zn320 Zn 0.05675 0.78302 0.68349 0.0
O321 O 0.01357 0.61188 0.68083 0.0
C322 C 0.28047 0.83489 0.65814 0.0
Zn323 Zn 0.05803 0.78455 0.63491 0.0
C324 C -0.00211 0.55852 0.657 0.0
O325 O 0.0092 0.60924 0.63324 0.0
C326 C 0.10807 0.00585 0.66195 0.0
O327 O 0.88403 0.74041 0.63596 0.0
O328 O 0.88331 0.73362 0.68338 0.0
N329 N 0.0734 0.80349 0.59013 0.0
C330 C 0.08033 0.88755 0.57335 0.0
C331 C 0.15526 0.8065 0.54952 0.0
N332 N 0.11945 0.753 0.57499 0.0
N333 N 0.13089 0.89072 0.54813 0.0
C334 C 0.11696 0.76593 0.74799 0.0
C335 C -0.00387 0.79497 0.7706 0.0
N336 N 0.0528 0.77862 0.72796 0.0
N337 N -0.02238 0.79605 0.74214 0.0
N338 N 0.08239 0.77503 0.77474 0.0
H339 H 0.28993 0.82113 0.73746 0.0
H340 H 0.18871 0.68492 0.72208 0.0
H341 H 0.22341 0.69791 0.76003 0.0
C342 C 0.20995 0.74045 0.74152 0.0
C343 C 0.04643 -0.02734 0.58182 0.0
H344 H 0.01138 -0.00656 0.56286 0.0
H345 H 0.12283 0.05236 0.58895 0.0
H346 H -0.01757 0.93957 0.59923 0.0
O347 O 0.10528 0.956 0.6385 0.0
O348 O 0.09579 0.95515 0.68558 0.0
C349 C 0.83125 0.7226 0.65992 0.0
O350 O 0.23178 0.82993 0.68208 0.0
O351 O 0.22828 0.8239 0.63479 0.0
Zn352 Zn 0.65958 0.80576 0.89272 0.0
O353 O 0.53312 0.85105 0.89494 0.0
C354 C 0.48867 0.58401 0.91752 0.0
Zn355 Zn 0.66186 0.80778 0.94118 0.0
C356 C 0.4953 0.86689 0.91864 0.0
O357 O 0.53508 0.85637 0.94249 0.0
C358 C 0.83137 0.75517 0.91478 0.0
O359 O 0.79207 -0.01804 0.94012 0.0
O360 O 0.78432 -0.02185 0.89268 0.0
N361 N 0.66695 0.79554 0.98603 0.0
C362 C 0.74546 0.79125 1.00302 0.0
C363 C 0.59081 0.71768 1.02681 0.0
N364 N 0.57119 0.75034 1.00114 0.0
N365 N 0.69992 0.74348 1.02838 0.0
C366 C 0.57673 0.76944 0.82828 0.0
C367 C 0.73661 0.85027 0.80653 0.0
N368 N 0.65881 0.80707 0.8486 0.0
N369 N 0.75767 0.85694 0.83497 0.0
N370 N 0.62391 0.7961 0.80168 0.0
H371 H 0.43439 0.69542 0.85797 0.0
H372 H 0.41293 0.75592 0.82601 0.0
H373 H 0.41084 0.62286 0.82376 0.0
C374 C 0.45176 0.70749 0.8346 0.0
C375 C 0.86398 0.82441 0.99462 0.0
H376 H 0.92081 0.86092 1.01359 0.0
H377 H 0.86689 0.74747 0.98766 0.0
H378 H 0.89381 0.88692 0.97712 0.0
O379 O 0.78587 0.76037 0.93814 0.0
O380 O 0.79145 0.76515 0.89109 0.0
C381 C 0.8265 0.03231 0.91605 0.0
O382 O 0.53091 0.63162 0.89361 0.0
O383 O 0.53095 0.63725 0.94096 0.0
loop_
_geom_bond_atom_site_label_1
_geom_bond_atom_site_label_2
_geom_bond_distance
_geom_bond_site_symmetry_2
_ccdc_geom_bond_type
Zn0 O1 2.055 . S
Zn0 O8 2.046 . S
Zn0 N16 2.036 . S
Zn0 O28 2.053 1_545 S
Zn0 O30 2.066 . S
O1 Zn0 2.055 . S
O1 C4 1.259 . S
C2 O30 1.256 . S
C2 O31 1.244 . S
Zn3 O5 2.046 . S
Zn3 O7 2.055 . S
Zn3 N9 2.036 . S
Zn3 O27 2.066 1_545 S
Zn3 O31 2.053 . S
C4 O1 1.259 . S
C4 O5 1.254 . S
O5 Zn3 2.046 . S
O5 C4 1.254 . S
C6 O27 1.256 . S
C6 O28 1.244 . S
O7 Zn3 2.055 . S
O7 C29 1.259 . S
O8 Zn0 2.046 . S
O8 C29 1.254 . S
N9 Zn3 2.036 . S
N9 C10 1.298 . S
N9 N12 1.398 . S
C10 N9 1.298 . S
C10 N13 1.367 . S
C10 C23 1.481 . S
C11 N12 1.299 . S
C11 N13 1.379 . S
N12 N9 1.398 . S
N12 C11 1.299 . S
N13 C10 1.367 . S
N13 C11 1.379 . S
C14 N16 1.298 . S
C14 N18 1.367 . S
C14 C22 1.481 . S
C15 N17 1.299 . S
C15 N18 1.379 . S
N16 Zn0 2.036 . S
N16 C14 1.298 . S
N16 N17 1.398 . S
N17 C15 1.299 . S
N17 N16 1.398 . S
N18 C14 1.367 . S
N18 C15 1.379 . S
H19 C22 0.980 . S
H20 C22 0.981 . S
H21 C22 0.981 . S
C22 C14 1.481 . S
C22 H19 0.980 . S
C22 H20 0.981 . S
C22 H21 0.981 . S
C23 C10 1.481 . S
C23 H24 0.980 . S
C23 H25 0.981 . S
C23 H26 0.981 1_545 S
H24 C23 0.980 . S
H25 C23 0.981 . S
H26 C23 0.981 1_565 S
O27 Zn3 2.066 1_565 S
O27 C6 1.256 . S
O28 Zn0 2.053 1_565 S
O28 C6 1.244 . S
C29 O7 1.259 . S
C29 O8 1.254 . S
O30 Zn0 2.066 . S
O30 C2 1.256 . S
O31 C2 1.244 . S
O31 Zn3 2.053 . S
Zn32 O33 2.055 . S
Zn32 O40 2.046 . S
Zn32 N48 2.036 . S
Zn32 O60 2.053 . S
Zn32 O62 2.066 . S
O33 Zn32 2.055 . S
O33 C36 1.259 1_655 S
C34 O62 1.256 . S
C34 O63 1.244 . S
Zn35 O37 2.046 1_655 S
Zn35 O39 2.055 . S
Zn35 N41 2.036 . S
Zn35 O59 2.066 . S
Zn35 O63 2.053 . S
C36 O33 1.259 1_455 S
C36 O37 1.254 . S
O37 Zn35 2.046 1_455 S
O37 C36 1.254 . S
C38 O59 1.256 . S
C38 O60 1.244 . S
O39 Zn35 2.055 . S
O39 C61 1.259 . S
O40 Zn32 2.046 . S
O40 C61 1.254 . S
N41 Zn35 2.036 . S
N41 C42 1.298 . S
N41 N44 1.398 . S
C42 N41 1.298 . S
C42 N45 1.367 . S
C42 C55 1.481 . S
C43 N44 1.299 . S
C43 N45 1.379 . S
N44 N41 1.398 . S
N44 C43 1.299 . S
N45 C42 1.367 . S
N45 C43 1.379 . S
C46 N48 1.298 . S
C46 N50 1.367 . S
C46 C54 1.481 . S
C47 N49 1.299 . S
C47 N50 1.379 . S
N48 Zn32 2.036 . S
N48 C46 1.298 . S
N48 N49 1.398 . S
N49 C47 1.299 . S
N49 N48 1.398 . S
N50 C46 1.367 . S
N50 C47 1.379 . S
H51 C54 0.980 . S
H52 C54 0.981 1_455 S
H53 C54 0.981 . S
C54 C46 1.481 . S
C54 H51 0.980 . S
C54 H52 0.981 1_655 S
C54 H53 0.981 . S
C55 C42 1.481 . S
C55 H56 0.980 . S
C55 H57 0.981 . S
C55 H58 0.981 . S
H56 C55 0.980 . S
H57 C55 0.981 . S
H58 C55 0.981 . S
O59 Zn35 2.066 . S
O59 C38 1.256 . S
O60 Zn32 2.053 . S
O60 C38 1.244 . S
C61 O39 1.259 . S
C61 O40 1.254 . S
O62 Zn32 2.066 . S
O62 C34 1.256 . S
O63 C34 1.244 . S
O63 Zn35 2.053 . S
Zn64 O65 2.055 . S
Zn64 O72 2.046 1_545 S
Zn64 N80 2.036 . S
Zn64 O92 2.053 1_655 S
Zn64 O94 2.066 . S
O65 Zn64 2.055 . S
O65 C68 1.259 . S
C66 O94 1.256 . S
C66 O95 1.244 . S
Zn67 O69 2.046 . S
Zn67 O71 2.055 . S
Zn67 N73 2.036 . S
Zn67 O91 2.066 1_655 S
Zn67 O95 2.053 . S
C68 O65 1.259 . S
C68 O69 1.254 . S
O69 Zn67 2.046 . S
O69 C68 1.254 . S
C70 O91 1.256 . S
C70 O92 1.244 . S
O71 Zn67 2.055 . S
O71 C93 1.259 1_545 S
O72 Zn64 2.046 1_565 S
O72 C93 1.254 . S
N73 Zn67 2.036 . S
N73 C74 1.298 . S
N73 N76 1.398 . S
C74 N73 1.298 . S
C74 N77 1.367 . S
C74 C87 1.481 . S
C75 N76 1.299 . S
C75 N77 1.379 . S
N76 N73 1.398 . S
N76 C75 1.299 . S
N77 C74 1.367 . S
N77 C75 1.379 . S
C78 N80 1.298 . S
C78 N82 1.367 . S
C78 C86 1.481 . S
C79 N81 1.299 . S
C79 N82 1.379 . S
N80 Zn64 2.036 . S
N80 C78 1.298 . S
N80 N81 1.398 . S
N81 C79 1.299 . S
N81 N80 1.398 . S
N82 C78 1.367 . S
N82 C79 1.379 . S
H83 C86 0.980 . S
H84 C86 0.981 . S
H85 C86 0.981 . S
C86 C78 1.481 . S
C86 H83 0.980 . S
C86 H84 0.981 . S
C86 H85 0.981 . S
C87 C74 1.481 . S
C87 H88 0.980 . S
C87 H89 0.981 1_545 S
C87 H90 0.981 1_655 S
H88 C87 0.980 . S
H89 C87 0.981 1_565 S
H90 C87 0.981 1_455 S
O91 Zn67 2.066 1_455 S
O91 C70 1.256 . S
O92 Zn64 2.053 1_455 S
O92 C70 1.244 . S
C93 O71 1.259 1_565 S
C93 O72 1.254 . S
O94 Zn64 2.066 . S
O94 C66 1.256 . S
O95 C66 1.244 . S
O95 Zn67 2.053 . S
Zn96 O97 2.055 . S
Zn96 O104 2.046 . S
Zn96 N112 2.036 . S
Zn96 O124 2.053 . S
Zn96 O126 2.066 1_545 S
O97 Zn96 2.055 . S
O97 C100 1.259 . S
C98 O126 1.256 . S
C98 O127 1.244 . S
Zn99 O101 2.046 . S
Zn99 O103 2.055 . S
Zn99 N105 2.036 . S
Zn99 O123 2.066 . S
Zn99 O127 2.053 1_545 S
C100 O97 1.259 . S
C100 O101 1.254 . S
O101 Zn99 2.046 . S
O101 C100 1.254 . S
C102 O123 1.256 . S
C102 O124 1.244 . S
O103 Zn99 2.055 . S
O103 C125 1.259 . S
O104 Zn96 2.046 . S
O104 C125 1.254 . S
N105 Zn99 2.036 . S
N105 C106 1.298 . S
N105 N108 1.398 . S
C106 N105 1.298 . S
C106 N109 1.367 . S
C106 C119 1.481 . S
C107 N108 1.299 . S
C107 N109 1.379 . S
N108 N105 1.398 . S
N108 C107 1.299 . S
N109 C106 1.367 . S
N109 C107 1.379 . S
C110 N112 1.298 . S
C110 N114 1.367 . S
C110 C118 1.481 . S
C111 N113 1.299 . S
C111 N114 1.379 . S
N112 Zn96 2.036 . S
N112 C110 1.298 . S
N112 N113 1.398 . S
N113 C111 1.299 . S
N113 N112 1.398 . S
N114 C110 1.367 . S
N114 C111 1.379 . S
H115 C118 0.980 . S
H116 C118 0.981 . S
H117 C118 0.981 1_565 S
C118 C110 1.481 . S
C118 H115 0.980 . S
C118 H116 0.981 . S
C118 H117 0.981 1_545 S
C119 C106 1.481 . S
C119 H120 0.980 . S
C119 H121 0.981 . S
C119 H122 0.981 . S
H120 C119 0.980 . S
H121 C119 0.981 . S
H122 C119 0.981 . S
O123 Zn99 2.066 . S
O123 C102 1.256 . S
O124 Zn96 2.053 . S
O124 C102 1.244 . S
C125 O103 1.259 . S
C125 O104 1.254 . S
O126 Zn96 2.066 1_565 S
O126 C98 1.256 . S
O127 C98 1.244 . S
O127 Zn99 2.053 1_565 S
Zn128 O129 2.055 . S
Zn128 O136 2.046 . S
Zn128 N144 2.036 . S
Zn128 O156 2.053 . S
Zn128 O158 2.066 . S
O129 Zn128 2.055 . S
O129 C132 1.259 1_655 S
C130 O158 1.256 . S
C130 O159 1.244 . S
Zn131 O133 2.046 1_655 S
Zn131 O135 2.055 . S
Zn131 N137 2.036 . S
Zn131 O155 2.066 . S
Zn131 O159 2.053 . S
C132 O129 1.259 1_455 S
C132 O133 1.254 . S
O133 Zn131 2.046 1_455 S
O133 C132 1.254 . S
C134 O155 1.256 . S
C134 O156 1.244 . S
O135 Zn131 2.055 . S
O135 C157 1.259 . S
O136 Zn128 2.046 . S
O136 C157 1.254 . S
N137 Zn131 2.036 . S
N137 C138 1.298 . S
N137 N140 1.398 . S
C138 N137 1.298 . S
C138 N141 1.367 . S
C138 C151 1.481 . S
C139 N140 1.299 . S
C139 N141 1.379 . S
N140 N137 1.398 . S
N140 C139 1.299 . S
N141 C138 1.367 . S
N141 C139 1.379 . S
C142 N144 1.298 . S
C142 N146 1.367 . S
C142 C150 1.481 . S
C143 N145 1.299 . S
C143 N146 1.379 . S
N144 Zn128 2.036 . S
N144 C142 1.298 . S
N144 N145 1.398 . S
N145 C143 1.299 . S
N145 N144 1.398 . S
N146 C142 1.367 . S
N146 C143 1.379 . S
H147 C150 0.980 . S
H148 C150 0.981 1_455 S
H149 C150 0.981 . S
C150 C142 1.481 . S
C150 H147 0.980 . S
C150 H148 0.981 1_655 S
C150 H149 0.981 . S
C151 C138 1.481 . S
C151 H152 0.980 . S
C151 H153 0.981 . S
C151 H154 0.981 . S
H152 C151 0.980 . S
H153 C151 0.981 . S
H154 C151 0.981 . S
O155 Zn131 2.066 . S
O155 C134 1.256 . S
O156 Zn128 2.053 . S
O156 C134 1.244 . S
C157 O135 1.259 . S
C157 O136 1.254 . S
O158 Zn128 2.066 . S
O158 C130 1.256 . S
O159 C130 1.244 . S
O159 Zn131 2.053 . S
Zn160 O161 2.055 . S
Zn160 O168 2.046 . S
Zn160 N176 2.036 . S
Zn160 O188 2.053 . S
Zn160 O190 2.066 1_655 S
O161 Zn160 2.055 . S
O161 C164 1.259 1_545 S
C162 O190 1.256 . S
C162 O191 1.244 . S
Zn163 O165 2.046 1_545 S
Zn163 O167 2.055 . S
Zn163 N169 2.036 . S
Zn163 O187 2.066 . S
Zn163 O191 2.053 1_655 S
C164 O161 1.259 1_565 S
C164 O165 1.254 . S
O165 Zn163 2.046 1_565 S
O165 C164 1.254 . S
C166 O187 1.256 . S
C166 O188 1.244 . S
O167 Zn163 2.055 . S
O167 C189 1.259 . S
O168 Zn160 2.046 . S
O168 C189 1.254 . S
N169 Zn163 2.036 . S
N169 C170 1.298 . S
N169 N172 1.398 . S
C170 N169 1.298 . S
C170 N173 1.367 . S
C170 C183 1.481 . S
C171 N172 1.299 . S
C171 N173 1.379 . S
N172 N169 1.398 . S
N172 C171 1.299 . S
N173 C170 1.367 . S
N173 C171 1.379 . S
C174 N176 1.298 . S
C174 N178 1.367 . S
C174 C182 1.481 . S
C175 N177 1.299 . S
C175 N178 1.379 . S
N176 Zn160 2.036 . S
N176 C174 1.298 . S
N176 N177 1.398 . S
N177 C175 1.299 . S
N177 N176 1.398 . S
N178 C174 1.367 . S
N178 C175 1.379 . S
H179 C182 0.980 . S
H180 C182 0.980 1_565 S
H181 C182 0.981 1_455 S
C182 C174 1.481 . S
C182 H179 0.980 . S
C182 H180 0.980 1_545 S
C182 H181 0.981 1_655 S
C183 C170 1.481 . S
C183 H184 0.980 . S
C183 H185 0.981 . S
C183 H186 0.981 . S
H184 C183 0.980 . S
H185 C183 0.981 . S
H186 C183 0.981 . S
O187 Zn163 2.066 . S
O187 C166 1.256 . S
O188 Zn160 2.053 . S
O188 C166 1.244 . S
C189 O167 1.259 . S
C189 O168 1.254 . S
O190 Zn160 2.066 1_455 S
O190 C162 1.256 . S
O191 C162 1.244 . S
O191 Zn163 2.053 1_455 S
Zn192 O193 2.055 . S
Zn192 O200 2.046 . S
Zn192 N208 2.036 . S
Zn192 O220 2.053 1_455 S
Zn192 O222 2.066 . S
O193 Zn192 2.055 . S
O193 C196 1.259 . S
C194 O222 1.256 . S
C194 O223 1.244 . S
Zn195 O197 2.046 . S
Zn195 O199 2.055 . S
Zn195 N201 2.036 . S
Zn195 O219 2.066 1_455 S
Zn195 O223 2.053 . S
C196 O193 1.259 . S
C196 O197 1.254 . S
O197 Zn195 2.046 . S
O197 C196 1.254 . S
C198 O219 1.256 . S
C198 O220 1.244 . S
O199 Zn195 2.055 . S
O199 C221 1.259 . S
O200 Zn192 2.046 . S
O200 C221 1.254 . S
N201 Zn195 2.036 . S
N201 C202 1.298 . S
N201 N204 1.398 . S
C202 N201 1.298 . S
C202 N205 1.367 . S
C202 C215 1.481 . S
C203 N204 1.299 . S
C203 N205 1.379 . S
N204 N201 1.398 . S
N204 C203 1.299 . S
N205 C202 1.367 . S
N205 C203 1.379 . S
C206 N208 1.298 . S
C206 N210 1.367 . S
C206 C214 1.481 . S
C207 N209 1.299 . S
C207 N210 1.379 . S
N208 Zn192 2.036 . S
N208 C206 1.298 . S
N208 N209 1.398 . S
N209 C207 1.299 . S
N209 N208 1.398 . S
N210 C206 1.367 . S
N210 C207 1.379 . S
H211 C214 0.980 . S
H212 C214 0.981 . S
H213 C214 0.981 . S
C214 C206 1.481 . S
C214 H211 0.980 . S
C214 H212 0.981 . S
C214 H213 0.981 . S
C215 C202 1.481 . S
C215 H216 0.980 . S
C215 H217 0.981 . S
C215 H218 0.981 1_455 S
H216 C215 0.980 . S
H217 C215 0.981 . S
H218 C215 0.981 1_655 S
O219 Zn195 2.066 1_655 S
O219 C198 1.256 . S
O220 Zn192 2.053 1_655 S
O220 C198 1.244 . S
C221 O199 1.259 . S
C221 O200 1.254 . S
O222 Zn192 2.066 . S
O222 C194 1.256 . S
O223 C194 1.244 . S
O223 Zn195 2.053 . S
Zn224 O225 2.055 . S
Zn224 O232 2.046 . S
Zn224 N240 2.036 . S
Zn224 O252 2.053 . S
Zn224 O254 2.066 1_565 S
O225 Zn224 2.055 . S
O225 C228 1.259 1_455 S
C226 O254 1.256 . S
C226 O255 1.244 . S
Zn227 O229 2.046 1_455 S
Zn227 O231 2.055 . S
Zn227 N233 2.036 . S
Zn227 O251 2.066 . S
Zn227 O255 2.053 1_565 S
C228 O225 1.259 1_655 S
C228 O229 1.254 . S
O229 Zn227 2.046 1_655 S
O229 C228 1.254 . S
C230 O251 1.256 . S
C230 O252 1.244 . S
O231 Zn227 2.055 . S
O231 C253 1.259 . S
O232 Zn224 2.046 . S
O232 C253 1.254 . S
N233 Zn227 2.036 . S
N233 C234 1.298 . S
N233 N236 1.398 . S
C234 N233 1.298 . S
C234 N237 1.367 . S
C234 C247 1.481 . S
C235 N236 1.299 . S
C235 N237 1.379 . S
N236 N233 1.398 . S
N236 C235 1.299 . S
N237 C234 1.367 . S
N237 C235 1.379 . S
C238 N240 1.298 . S
C238 N242 1.367 . S
C238 C246 1.481 . S
C239 N241 1.299 . S
C239 N242 1.379 . S
N240 Zn224 2.036 . S
N240 C238 1.298 . S
N240 N241 1.398 . S
N241 C239 1.299 . S
N241 N240 1.398 . S
N242 C238 1.367 . S
N242 C239 1.379 . S
H243 C246 0.980 . S
H244 C246 0.981 1_655 S
H245 C246 0.981 1_545 S
C246 C238 1.481 . S
C246 H243 0.980 . S
C246 H244 0.981 1_455 S
C246 H245 0.981 1_565 S
C247 C234 1.481 . S
C247 H248 0.980 . S
C247 H249 0.981 . S
C247 H250 0.981 . S
H248 C247 0.980 . S
H249 C247 0.981 . S
H250 C247 0.981 . S
O251 Zn227 2.066 . S
O251 C230 1.256 . S
O252 Zn224 2.053 . S
O252 C230 1.244 . S
C253 O231 1.259 . S
C253 O232 1.254 . S
O254 Zn224 2.066 1_545 S
O254 C226 1.256 . S
O255 C226 1.244 . S
O255 Zn227 2.053 1_545 S
Zn256 O257 2.055 . S
Zn256 O264 2.046 . S
Zn256 N272 2.036 . S
Zn256 O284 2.053 . S
Zn256 O286 2.066 . S
O257 Zn256 2.055 . S
O257 C260 1.259 1_565 S
C258 O286 1.256 . S
C258 O287 1.244 . S
Zn259 O261 2.046 1_565 S
Zn259 O263 2.055 . S
Zn259 N265 2.036 . S
Zn259 O283 2.066 . S
Zn259 O287 2.053 . S
C260 O257 1.259 1_545 S
C260 O261 1.254 . S
O261 Zn259 2.046 1_545 S
O261 C260 1.254 . S
C262 O283 1.256 . S
C262 O284 1.244 . S
O263 Zn259 2.055 . S
O263 C285 1.259 . S
O264 Zn256 2.046 . S
O264 C285 1.254 . S
N265 Zn259 2.036 . S
N265 C266 1.298 . S
N265 N268 1.398 . S
C266 N265 1.298 . S
C266 N269 1.367 . S
C266 C279 1.481 . S
C267 N268 1.299 . S
C267 N269 1.379 . S
N268 N265 1.398 . S
N268 C267 1.299 . S
N269 C266 1.367 . S
N269 C267 1.379 . S
C270 N272 1.298 . S
C270 N274 1.367 . S
C270 C278 1.481 . S
C271 N273 1.299 . S
C271 N274 1.379 . S
N272 Zn256 2.036 . S
N272 C270 1.298 . S
N272 N273 1.398 . S
N273 C271 1.299 . S
N273 N272 1.398 . S
N274 C270 1.367 . S
N274 C271 1.379 . S
H275 C278 0.980 . S
H276 C278 0.981 1_545 S
H277 C278 0.981 . S
C278 C270 1.481 . S
C278 H275 0.980 . S
C278 H276 0.981 1_565 S
C278 H277 0.981 . S
C279 C266 1.481 . S
C279 H280 0.980 . S
C279 H281 0.981 . S
C279 H282 0.981 . S
H280 C279 0.980 . S
H281 C279 0.981 . S
H282 C279 0.981 . S
O283 Zn259 2.066 . S
O283 C262 1.256 . S
O284 Zn256 2.053 . S
O284 C262 1.244 . S
C285 O263 1.259 . S
C285 O264 1.254 . S
O286 Zn256 2.066 . S
O286 C258 1.256 . S
O287 C258 1.244 . S
O287 Zn259 2.053 . S
Zn288 O289 2.055 . S
Zn288 O296 2.046 . S
Zn288 N304 2.036 . S
Zn288 O316 2.053 1_455 S
Zn288 O318 2.066 . S
O289 Zn288 2.055 . S
O289 C292 1.259 . S
C290 O318 1.256 . S
C290 O319 1.244 . S
Zn291 O293 2.046 . S
Zn291 O295 2.055 . S
Zn291 N297 2.036 . S
Zn291 O315 2.066 1_455 S
Zn291 O319 2.053 . S
C292 O289 1.259 . S
C292 O293 1.254 . S
O293 Zn291 2.046 . S
O293 C292 1.254 . S
C294 O315 1.256 . S
C294 O316 1.244 . S
O295 Zn291 2.055 . S
O295 C317 1.259 . S
O296 Zn288 2.046 . S
O296 C317 1.254 . S
N297 Zn291 2.036 . S
N297 C298 1.298 . S
N297 N300 1.398 . S
C298 N297 1.298 . S
C298 N301 1.367 . S
C298 C311 1.481 . S
C299 N300 1.299 . S
C299 N301 1.379 . S
N300 N297 1.398 . S
N300 C299 1.299 . S
N301 C298 1.367 . S
N301 C299 1.379 . S
C302 N304 1.298 . S
C302 N306 1.367 . S
C302 C310 1.481 . S
C303 N305 1.299 . S
C303 N306 1.379 . S
N304 Zn288 2.036 . S
N304 C302 1.298 . S
N304 N305 1.398 . S
N305 C303 1.299 . S
N305 N304 1.398 . S
N306 C302 1.367 . S
N306 C303 1.379 . S
H307 C310 0.980 . S
H308 C310 0.981 . S
H309 C310 0.981 . S
C310 C302 1.481 . S
C310 H307 0.980 . S
C310 H308 0.981 . S
C310 H309 0.981 . S
C311 C298 1.481 . S
C311 H312 0.980 . S
C311 H313 0.981 . S
C311 H314 0.981 1_455 S
H312 C311 0.980 . S
H313 C311 0.981 . S
H314 C311 0.981 1_655 S
O315 Zn291 2.066 1_655 S
O315 C294 1.256 . S
O316 Zn288 2.053 1_655 S
O316 C294 1.244 . S
C317 O295 1.259 . S
C317 O296 1.254 . S
O318 Zn288 2.066 . S
O318 C290 1.256 . S
O319 C290 1.244 . S
O319 Zn291 2.053 . S
Zn320 O321 2.055 . S
Zn320 O328 2.046 1_455 S
Zn320 N336 2.036 . S
Zn320 O348 2.053 1_565 S
Zn320 O350 2.066 . S
O321 Zn320 2.055 . S
O321 C324 1.259 . S
C322 O350 1.256 . S
C322 O351 1.244 . S
Zn323 O325 2.046 . S
Zn323 O327 2.055 . S
Zn323 N329 2.036 . S
Zn323 O347 2.066 1_565 S
Zn323 O351 2.053 . S
C324 O321 1.259 . S
C324 O325 1.254 . S
O325 Zn323 2.046 . S
O325 C324 1.254 . S
C326 O347 1.256 . S
C326 O348 1.244 . S
O327 Zn323 2.055 . S
O327 C349 1.259 1_455 S
O328 Zn320 2.046 1_655 S
O328 C349 1.254 . S
N329 Zn323 2.036 . S
N329 C330 1.298 . S
N329 N332 1.398 . S
C330 N329 1.298 . S
C330 N333 1.367 . S
C330 C343 1.481 . S
C331 N332 1.299 . S
C331 N333 1.379 . S
N332 N329 1.398 . S
N332 C331 1.299 . S
N333 C330 1.367 . S
N333 C331 1.379 . S
C334 N336 1.298 . S
C334 N338 1.367 . S
C334 C342 1.481 . S
C335 N337 1.299 . S
C335 N338 1.379 . S
N336 Zn320 2.036 . S
N336 C334 1.298 . S
N336 N337 1.398 . S
N337 C335 1.299 . S
N337 N336 1.398 . S
N338 C334 1.367 . S
N338 C335 1.379 . S
H339 C342 0.980 . S
H340 C342 0.981 . S
H341 C342 0.981 . S
C342 C334 1.481 . S
C342 H339 0.980 . S
C342 H340 0.981 . S
C342 H341 0.981 . S
C343 C330 1.481 . S
C343 H344 0.980 . S
C343 H345 0.981 1_455 S
C343 H346 0.981 1_565 S
H344 C343 0.980 . S
H345 C343 0.981 1_655 S
H346 C343 0.981 1_545 S
O347 Zn323 2.066 1_545 S
O347 C326 1.256 . S
O348 Zn320 2.053 1_545 S
O348 C326 1.244 . S
C349 O327 1.259 1_655 S
C349 O328 1.254 . S
O350 Zn320 2.066 . S
O350 C322 1.256 . S
O351 C322 1.244 . S
O351 Zn323 2.053 . S
Zn352 O353 2.055 . S
Zn352 O360 2.046 1_565 S
Zn352 N368 2.036 . S
Zn352 O380 2.053 . S
Zn352 O382 2.066 . S
O353 Zn352 2.055 . S
O353 C356 1.259 . S
C354 O382 1.256 . S
C354 O383 1.244 . S
Zn355 O357 2.046 . S
Zn355 O359 2.055 . S
Zn355 N361 2.036 . S
Zn355 O379 2.066 . S
Zn355 O383 2.053 . S
C356 O353 1.259 . S
C356 O357 1.254 . S
O357 Zn355 2.046 . S
O357 C356 1.254 . S
C358 O379 1.256 . S
C358 O380 1.244 . S
O359 Zn355 2.055 . S
O359 C381 1.259 1_565 S
O360 Zn352 2.046 1_545 S
O360 C381 1.254 . S
N361 Zn355 2.036 . S
N361 C362 1.298 . S
N361 N364 1.398 . S
C362 N361 1.298 . S
C362 N365 1.367 . S
C362 C375 1.481 . S
C363 N364 1.299 . S
C363 N365 1.379 . S
N364 N361 1.398 . S
N364 C363 1.299 . S
N365 C362 1.367 . S
N365 C363 1.379 . S
C366 N368 1.298 . S
C366 N370 1.367 . S
C366 C374 1.481 . S
C367 N369 1.299 . S
C367 N370 1.379 . S
N368 Zn352 2.036 . S
N368 C366 1.298 . S
N368 N369 1.398 . S
N369 C367 1.299 . S
N369 N368 1.398 . S
N370 C366 1.367 . S
N370 C367 1.379 . S
H371 C374 0.980 . S
H372 C374 0.981 . S
H373 C374 0.981 . S
C374 C366 1.481 . S
C374 H371 0.980 . S
C374 H372 0.981 . S
C374 H373 0.981 . S
C375 C362 1.481 . S
C375 H376 0.980 . S
C375 H377 0.981 1_565 S
C375 H378 0.981 . S
H376 C375 0.980 . S
H377 C375 0.981 1_545 S
H378 C375 0.981 . S
O379 Zn355 2.066 . S
O379 C358 1.256 . S
O380 Zn352 2.053 . S
O380 C358 1.244 . S
C381 O359 1.259 1_545 S
C381 O360 1.254 . S
O382 Zn352 2.066 . S
O382 C354 1.256 . S
O383 C354 1.244 . S
O383 Zn355 2.053 . S
C70 C29 1.233 . S
C98 C36 1.234 . S
C93 C130 1.233 . S
C100 C162 1.232 . S
C6 C132 1.234 . S
C34 C164 1.233 . S
C326 C221 1.232 . S
C228 C358 1.233 . S
C260 C198 1.234 . S
C317 C226 1.233 . S
C349 C258 1.233 . S
C294 C381 1.234 . S
N109 N18 1.401 . S
N45 N141 1.401 . S
N82 N173 1.401 . S
N210 N306 1.401 . S
N237 N338 1.401 . S
N269 N370 1.401 . S
N242 N13 1.893 1_566 S
N50 N274 1.891 . S
N301 N77 1.893 1_456 S
N114 N333 1.893 1_545 S
N146 N365 1.891 1_554 S
N205 N178 1.893 1_455 S
C68 C2 1.336 . S
C38 C125 1.338 . S
C66 C157 1.336 . S
C102 C189 1.337 . S
C4 C134 1.338 . S
C61 C166 1.336 . S
C324 C194 1.337 . S
C230 C356 1.336 . S
C262 C196 1.338 . S
C253 C290 1.336 . S
C322 C285 1.336 . S
C354 C292 1.338 . S
