# Generated by pormake.
# Topology ske, (6)-cn, num edge types: 1
# Building blocks:
#     Node 0, Type 0, BuildingBlock: BETFEN_clean_sbu_0, # of connection points: 6
#     Node 1, Type 0, BuildingBlock: BETFEN_clean_sbu_0, # of connection points: 6
#     Node 2, Type 0, BuildingBlock: BETFEN_clean_sbu_0, # of connection points: 6
#     Node 3, Type 0, BuildingBlock: BETFEN_clean_sbu_0, # of connection points: 6
#     Node 4, Type 0, BuildingBlock: BETFEN_clean_sbu_0, # of connection points: 6
#     Node 5, Type 0, BuildingBlock: BETFEN_clean_sbu_0, # of connection points: 6
#     Node 6, Type 0, BuildingBlock: BETFEN_clean_sbu_0, # of connection points: 6
#     Node 7, Type 0, BuildingBlock: BETFEN_clean_sbu_0, # of connection points: 6
#     Edge 8, Type (0, 0), BuildingBlock: KIFKEQ_clean_linker_1, # of connection points: 2
#     Edge 9, Type (0, 0), BuildingBlock: KIFKEQ_clean_linker_1, # of connection points: 2
#     Edge 10, Type (0, 0), BuildingBlock: KIFKEQ_clean_linker_1, # of connection points: 2
#     Edge 11, Type (0, 0), BuildingBlock: KIFKEQ_clean_linker_1, # of connection points: 2
#     Edge 12, Type (0, 0), BuildingBlock: KIFKEQ_clean_linker_1, # of connection points: 2
#     Edge 13, Type (0, 0), BuildingBlock: KIFKEQ_clean_linker_1, # of connection points: 2
#     Edge 14, Type (0, 0), BuildingBlock: KIFKEQ_clean_linker_1, # of connection points: 2
#     Edge 15, Type (0, 0), BuildingBlock: KIFKEQ_clean_linker_1, # of connection points: 2
#     Edge 16, Type (0, 0), BuildingBlock: KIFKEQ_clean_linker_1, # of connection points: 2
#     Edge 17, Type (0, 0), BuildingBlock: KIFKEQ_clean_linker_1, # of connection points: 2
#     Edge 18, Type (0, 0), BuildingBlock: KIFKEQ_clean_linker_1, # of connection points: 2
#     Edge 19, Type (0, 0), BuildingBlock: KIFKEQ_clean_linker_1, # of connection points: 2
#     Edge 20, Type (0, 0), BuildingBlock: KIFKEQ_clean_linker_1, # of connection points: 2
#     Edge 21, Type (0, 0), BuildingBlock: KIFKEQ_clean_linker_1, # of connection points: 2
#     Edge 22, Type (0, 0), BuildingBlock: KIFKEQ_clean_linker_1, # of connection points: 2
#     Edge 23, Type (0, 0), BuildingBlock: KIFKEQ_clean_linker_1, # of connection points: 2
#     Edge 24, Type (0, 0), BuildingBlock: KIFKEQ_clean_linker_1, # of connection points: 2
#     Edge 25, Type (0, 0), BuildingBlock: KIFKEQ_clean_linker_1, # of connection points: 2
#     Edge 26, Type (0, 0), BuildingBlock: KIFKEQ_clean_linker_1, # of connection points: 2
#     Edge 27, Type (0, 0), BuildingBlock: KIFKEQ_clean_linker_1, # of connection points: 2
#     Edge 28, Type (0, 0), BuildingBlock: KIFKEQ_clean_linker_1, # of connection points: 2
#     Edge 29, Type (0, 0), BuildingBlock: KIFKEQ_clean_linker_1, # of connection points: 2
#     Edge 30, Type (0, 0), BuildingBlock: KIFKEQ_clean_linker_1, # of connection points: 2
#     Edge 31, Type (0, 0), BuildingBlock: KIFKEQ_clean_linker_1, # of connection points: 2
# Relax obj value: 0.204
# Max RMSD: 0.205
# Mean RMSD: 0.198
data_MOF--net-ske--node1-BETFEN_clean_sbu_0--edge1-KIFKEQ_clean_linker_1
_symmetry_space_group_name_H-M    P1
_symmetry_Int_Tables_number       1
_symmetry_cell_setting            triclinic
loop_
_symmetry_equiv_pos_as_xyz
'x, y, z'
_cell_length_a     104.61107
_cell_length_b     29.778361
_cell_length_c     15.93607
_cell_angle_alpha  90.541256
_cell_angle_beta   89.692699
_cell_angle_gamma 84.384586
loop_
_atom_site_label
_atom_site_type_symbol
_atom_site_fract_x
_atom_site_fract_y
_atom_site_fract_z
_atom_type_partial_charge
Pr0 Pr 0.1603 0.2607 0.5327 0.0
Pr1 Pr 0.12966 0.25109 0.53468 0.0
C2 C 0.18422 0.28684 0.54596 0.0
C3 C 0.19681 0.27861 0.58845 0.0
C4 C 0.20493 0.23873 0.57434 0.0
C5 C 0.2173 0.23359 0.60846 0.0
C6 C 0.22185 0.26822 0.65739 0.0
C7 C 0.21358 0.30765 0.67289 0.0
C8 C 0.20124 0.3128 0.63862 0.0
C9 C 0.15341 0.17219 0.52107 0.0
C10 C 0.14516 0.25622 0.71777 0.0
C11 C 0.10654 0.21826 0.53593 0.0
C12 C 0.09289 0.22591 0.51127 0.0
C13 C 0.08526 0.2658 0.53344 0.0
C14 C 0.072 0.26982 0.51908 0.0
C15 C 0.06607 0.23407 0.48224 0.0
C16 C 0.07384 0.19492 0.45718 0.0
C17 C 0.08709 0.19089 0.47174 0.0
C18 C 0.13422 0.34248 0.51507 0.0
C19 C 0.14498 0.25866 0.35447 0.0
O20 O 0.17443 0.30543 0.58976 0.0
O21 O 0.18107 0.25684 0.49118 0.0
O22 O 0.14772 0.20343 0.56566 0.0
O23 O 0.16375 0.18521 0.48729 0.0
O24 O 0.13439 0.24936 0.67847 0.0
O25 O 0.15596 0.26208 0.67733 0.0
O26 O 0.11519 0.20758 0.47731 0.0
O27 O 0.11052 0.24392 0.59574 0.0
O28 O 0.14228 0.30868 0.52229 0.0
O29 O 0.12274 0.32925 0.51591 0.0
O30 O 0.15389 0.27854 0.39541 0.0
O31 O 0.1361 0.23818 0.39448 0.0
H32 H 0.20187 0.21181 0.53542 0.0
H33 H 0.22342 0.20298 0.59432 0.0
H34 H 0.21666 0.33474 0.7113 0.0
H35 H 0.19523 0.34402 0.65011 0.0
H36 H 0.08945 0.29338 0.56421 0.0
H37 H 0.06633 0.3003 0.53993 0.0
H38 H 0.06967 0.16703 0.42732 0.0
H39 H 0.09276 0.15977 0.45422 0.0
Pr40 Pr 0.87371 0.25391 0.54231 0.0
Pr41 Pr 0.90439 0.26293 0.54303 0.0
C42 C 0.85041 0.2224 0.54782 0.0
C43 C 0.83734 0.23029 0.58534 0.0
C44 C 0.82883 0.26783 0.56341 0.0
C45 C 0.81621 0.27273 0.59453 0.0
C46 C 0.81178 0.24029 0.64834 0.0
C47 C 0.82039 0.20316 0.67119 0.0
C48 C 0.83298 0.19817 0.63982 0.0
C49 C 0.87857 0.34561 0.56054 0.0
C50 C 0.88877 0.26315 0.72191 0.0
C51 C 0.92829 0.2897 0.53367 0.0
C52 C 0.94186 0.27847 0.50925 0.0
C53 C 0.94816 0.23516 0.52089 0.0
C54 C 0.96144 0.22708 0.50722 0.0
C55 C 0.96867 0.26216 0.48176 0.0
C56 C 0.96219 0.30503 0.4673 0.0
C57 C 0.94894 0.31304 0.48098 0.0
C58 C 0.8975 0.17406 0.54973 0.0
C59 C 0.88903 0.26016 0.3589 0.0
O60 O 0.85989 0.20766 0.59711 0.0
O61 O 0.85373 0.25073 0.491 0.0
O62 O 0.88648 0.31126 0.55441 0.0
O63 O 0.86704 0.33276 0.55939 0.0
O64 O 0.89771 0.28255 0.68045 0.0
O65 O 0.8799 0.24257 0.68227 0.0
O66 O 0.91975 0.29795 0.4746 0.0
O67 O 0.92397 0.26867 0.59809 0.0
O68 O 0.89179 0.20583 0.50808 0.0
O69 O 0.90793 0.18677 0.58241 0.0
O70 O 0.87848 0.25033 0.39832 0.0
O71 O 0.89962 0.26839 0.39922 0.0
H72 H 0.83184 0.2932 0.52139 0.0
H73 H 0.80991 0.30203 0.57643 0.0
H74 H 0.81729 0.17721 0.71158 0.0
H75 H 0.83926 0.16863 0.657 0.0
H76 H 0.94289 0.20788 0.54256 0.0
H77 H 0.96608 0.19349 0.51771 0.0
H78 H 0.96742 0.33299 0.44871 0.0
H79 H 0.94428 0.34679 0.47223 0.0
Pr80 Pr 0.12848 0.75445 0.49953 0.0
Pr81 Pr 0.15716 0.76309 0.50302 0.0
C82 C 0.10421 0.7308 0.50855 0.0
C83 C 0.09083 0.74079 0.53854 0.0
C84 C 0.08441 0.78438 0.53411 0.0
C85 C 0.07117 0.79152 0.55013 0.0
C86 C 0.06409 0.75523 0.57078 0.0
C87 C 0.07071 0.71201 0.57877 0.0
C88 C 0.08393 0.70492 0.56271 0.0
C89 C 0.13452 0.84452 0.49899 0.0
C90 C 0.14286 0.75942 0.68403 0.0
C91 C 0.18132 0.78724 0.48769 0.0
C92 C 0.19371 0.77969 0.44172 0.0
C93 C 0.20106 0.73753 0.44127 0.0
C94 C 0.21335 0.73256 0.40498 0.0
C95 C 0.21858 0.76957 0.36825 0.0
C96 C 0.21105 0.81141 0.36697 0.0
C97 C 0.19879 0.81639 0.40348 0.0
C98 C 0.15119 0.67308 0.50657 0.0
C99 C 0.143 0.75568 0.31936 0.0
O100 O 0.11313 0.71624 0.56172 0.0
O101 O 0.10829 0.75671 0.45045 0.0
O102 O 0.14007 0.81335 0.54247 0.0
O103 O 0.12493 0.83044 0.45872 0.0
O104 O 0.15227 0.77689 0.64431 0.0
O105 O 0.13342 0.7432 0.64231 0.0
O106 O 0.17148 0.80808 0.44908 0.0
O107 O 0.17815 0.75566 0.53802 0.0
O108 O 0.14556 0.70369 0.46201 0.0
O109 O 0.16094 0.68748 0.54462 0.0
O110 O 0.13396 0.73677 0.36 0.0
O111 O 0.15206 0.77423 0.36066 0.0
H112 H 0.08952 0.81268 0.51566 0.0
H113 H 0.06644 0.82537 0.54477 0.0
H114 H 0.06559 0.68318 0.59363 0.0
H115 H 0.08866 0.67094 0.56575 0.0
H116 H 0.19742 0.70854 0.47029 0.0
H117 H 0.2188 0.69972 0.40607 0.0
H118 H 0.2148 0.84077 0.3402 0.0
H119 H 0.19339 0.84936 0.40378 0.0
Pr120 Pr 0.90287 0.7653 0.51939 0.0
Pr121 Pr 0.8722 0.75647 0.52235 0.0
C122 C 0.92617 0.79681 0.51775 0.0
C123 C 0.93982 0.78883 0.54274 0.0
C124 C 0.94756 0.74976 0.51711 0.0
C125 C 0.96082 0.7457 0.53161 0.0
C126 C 0.96666 0.78058 0.57208 0.0
C127 C 0.95879 0.81882 0.60054 0.0
C128 C 0.94554 0.82291 0.58579 0.0
C129 C 0.8981 0.67377 0.53744 0.0
C130 C 0.88767 0.75725 0.70067 0.0
C131 C 0.8482 0.73101 0.50891 0.0
C132 C 0.83569 0.73887 0.46544 0.0
C133 C 0.82735 0.77814 0.48031 0.0
C134 C 0.81504 0.7828 0.44529 0.0
C135 C 0.81077 0.74827 0.39479 0.0
C136 C 0.81926 0.70949 0.37852 0.0
C137 C 0.83154 0.70482 0.41364 0.0
C138 C 0.87925 0.845 0.53392 0.0
C139 C 0.88723 0.76141 0.33721 0.0
O140 O 0.9175 0.80853 0.57582 0.0
O141 O 0.92212 0.77088 0.4586 0.0
O142 O 0.89012 0.70792 0.53148 0.0
O143 O 0.9096 0.68669 0.53443 0.0
O144 O 0.87837 0.73931 0.66007 0.0
O145 O 0.89691 0.77606 0.66095 0.0
O146 O 0.85802 0.71166 0.46642 0.0
O147 O 0.85135 0.7616 0.56248 0.0
O148 O 0.88485 0.81362 0.48917 0.0
O149 O 0.86891 0.83204 0.56773 0.0
O150 O 0.89784 0.7703 0.37624 0.0
O151 O 0.87664 0.75326 0.37776 0.0
H152 H 0.94345 0.72291 0.48347 0.0
H153 H 0.96655 0.71597 0.50801 0.0
H154 H 0.96288 0.84601 0.63322 0.0
H155 H 0.93981 0.85343 0.60595 0.0
H156 H 0.83019 0.8049 0.52053 0.0
H157 H 0.80874 0.81291 0.46001 0.0
H158 H 0.81639 0.68253 0.33891 0.0
H159 H 0.83772 0.67404 0.40158 0.0
Pr160 Pr 0.65898 0.76037 0.03489 0.0
Pr161 Pr 0.63067 0.7517 0.04322 0.0
C162 C 0.68308 0.78519 0.04644 0.0
C163 C 0.69525 0.78117 0.09354 0.0
C164 C 0.70066 0.73969 0.12489 0.0
C165 C 0.71283 0.7363 0.16206 0.0
C166 C 0.71983 0.77429 0.16827 0.0
C167 C 0.71416 0.81597 0.13901 0.0
C168 C 0.70202 0.81931 0.10205 0.0
C169 C 0.65313 0.6704 0.02442 0.0
C170 C 0.64548 0.74978 0.22065 0.0
C171 C 0.60607 0.7312 0.03618 0.0
C172 C 0.59258 0.74643 1.01522 0.0
C173 C 0.58588 0.7835 0.05683 0.0
C174 C 0.57262 0.79296 0.04637 0.0
C175 C 0.56577 0.76571 0.99391 0.0
C176 C 0.57259 0.72994 0.94935 0.0
C177 C 0.58584 0.72031 0.96024 0.0
C178 C 0.63676 0.84162 0.04749 0.0
C179 C 0.64468 0.75549 0.85646 0.0
O180 O 0.67311 0.80854 0.08044 0.0
O181 O 0.68015 0.74998 1.00372 0.0
O182 O 0.64768 0.69997 0.07341 0.0
O183 O 0.66249 0.68594 0.98378 0.0
O184 O 0.63646 0.73099 0.17973 0.0
O185 O 0.65435 0.76932 0.17932 0.0
O186 O 0.61434 0.72123 0.97538 0.0
O187 O 0.61107 0.74968 0.10131 0.0
O188 O 0.64187 0.81104 0.99956 0.0
O189 O 0.62784 0.82673 0.09317 0.0
O190 O 0.65392 0.77426 0.89518 0.0
O191 O 0.63548 0.73849 0.89952 0.0
H192 H 0.69562 0.70973 0.11898 0.0
H193 H 0.71694 0.70363 0.18343 0.0
H194 H 0.71915 0.84607 0.14411 0.0
H195 H 0.69802 0.85165 0.07835 0.0
H196 H 0.59078 0.80435 0.09968 0.0
H197 H 0.56767 0.82112 0.08068 0.0
H198 H 0.56759 0.70805 0.90905 0.0
H199 H 0.59074 0.69127 0.92814 0.0
Pr200 Pr 0.37225 0.75427 0.03295 0.0
Pr201 Pr 0.40292 0.75726 0.0334 0.0
C202 C 0.34855 0.72596 0.04068 0.0
C203 C 0.33558 0.73522 0.07935 0.0
C204 C 0.3257 0.76067 0.03628 0.0
C205 C 0.31318 0.76616 0.06888 0.0
C206 C 0.31017 0.74609 0.14518 0.0
C207 C 0.32011 0.72119 0.18887 0.0
C208 C 0.33263 0.7157 0.15627 0.0
C209 C 0.37801 0.84489 0.03991 0.0
C210 C 0.3879 0.76123 0.21481 0.0
C211 C 0.42794 0.76822 1.01585 0.0
C212 C 0.44184 0.77235 1.00563 0.0
C213 C 0.45031 0.73381 0.98813 0.0
C214 C 0.46352 0.73679 0.98157 0.0
C215 C 0.46863 0.77851 0.99159 0.0
C216 C 0.4601 0.81722 1.00828 0.0
C217 C 0.44685 0.81412 1.01556 0.0
C218 C 0.39409 0.67205 0.05317 0.0
C219 C 0.38727 0.75969 0.85104 0.0
O220 O 0.35805 0.71003 0.08872 0.0
O221 O 0.35201 0.75391 0.98361 0.0
O222 O 0.3858 0.80997 0.03782 0.0
O223 O 0.36635 0.83328 0.04038 0.0
O224 O 0.39807 0.7733 0.17435 0.0
O225 O 0.37788 0.74728 0.17524 0.0
O226 O 0.41994 0.79885 0.05319 0.0
O227 O 0.42278 0.73296 0.98674 0.0
O228 O 0.38946 0.70209 1.00335 0.0
O229 O 0.40382 0.68543 0.09346 0.0
O230 O 0.37703 0.747 0.88979 0.0
O231 O 0.39754 0.77031 0.89218 0.0
H232 H 0.32757 0.7758 0.97647 0.0
H233 H 0.30583 0.78607 0.03398 0.0
H234 H 0.31814 0.70471 0.24718 0.0
H235 H 0.33995 0.6953 0.19059 0.0
H236 H 0.44675 0.70103 0.98104 0.0
H237 H 0.46975 0.70607 0.97046 0.0
H238 H 0.46363 0.85002 1.01532 0.0
H239 H 0.44053 0.84441 0.02891 0.0
Pr240 Pr 0.62981 0.25167 0.99428 0.0
Pr241 Pr 0.65842 0.26042 1.00016 0.0
C242 C 0.60551 0.22809 1.00517 0.0
C243 C 0.59182 0.23955 0.02803 0.0
C244 C 0.58463 0.27771 0.99529 0.0
C245 C 0.57127 0.28385 1.0064 0.0
C246 C 0.56479 0.25201 0.05042 0.0
C247 C 0.5721 0.21493 0.08623 0.0
C248 C 0.58545 0.20876 0.07493 0.0
C249 C 0.63579 0.34186 0.99182 0.0
C250 C 0.64397 0.25775 0.17886 0.0
C251 C 0.68278 0.28303 0.9878 0.0
C252 C 0.695 0.27715 0.9399 0.0
C253 C 0.70056 0.23439 0.91377 0.0
C254 C 0.71275 0.22953 0.87586 0.0
C255 C 0.71964 0.26731 0.8632 0.0
C256 C 0.71385 0.31015 0.88754 0.0
C257 C 0.70169 0.31495 0.92546 0.0
C258 C 0.65215 0.17132 1.01211 0.0
C259 C 0.64471 0.24997 0.8144 0.0
O260 O 0.61399 0.2193 0.06427 0.0
O261 O 0.61005 0.24804 0.94041 0.0
O262 O 0.64126 0.31102 0.03614 0.0
O263 O 0.62616 0.32757 0.95222 0.0
O264 O 0.65288 0.27793 0.13932 0.0
O265 O 0.63514 0.23844 0.13633 0.0
O266 O 0.67297 0.30685 0.95422 0.0
O267 O 0.67953 0.24882 0.03117 0.0
O268 O 0.64702 0.20013 0.96168 0.0
O269 O 0.66115 0.18749 0.05529 0.0
O270 O 0.63514 0.23403 0.85485 0.0
O271 O 0.65411 0.26667 0.85556 0.0
H272 H 0.58926 0.30208 0.95879 0.0
H273 H 0.56598 0.31318 0.97913 0.0
H274 H 0.56746 0.18948 0.11977 0.0
H275 H 0.59074 0.17881 0.10002 0.0
H276 H 0.69559 0.20464 0.92395 0.0
H277 H 0.71681 0.19612 0.85683 0.0
H278 H 0.71889 0.33994 0.8799 0.0
H279 H 0.69764 0.34822 0.94563 0.0
Pr280 Pr 0.40251 0.26269 1.0032 0.0
Pr281 Pr 0.374 0.25109 1.00924 0.0
C282 C 0.42664 0.28793 1.01239 0.0
C283 C 0.44032 0.27751 0.03499 0.0
C284 C 0.44745 0.23757 1.00749 0.0
C285 C 0.46081 0.2318 1.01777 0.0
C286 C 0.46734 0.26581 0.05571 0.0
C287 C 0.46007 0.30485 0.08641 0.0
C288 C 0.44672 0.31062 0.07596 0.0
C289 C 0.39706 0.17184 1.00198 0.0
C290 C 0.38821 0.25757 0.18794 0.0
C291 C 0.35018 0.22377 0.9976 0.0
C292 C 0.33789 0.22858 0.95192 0.0
C293 C 0.33267 0.27027 0.92042 0.0
C294 C 0.32042 0.2745 0.88425 0.0
C295 C 0.31316 0.23715 0.8792 0.0
C296 C 0.31863 0.19523 0.90869 0.0
C297 C 0.33085 0.19106 0.94464 0.0
C298 C 0.37918 0.34161 1.01915 0.0
C299 C 0.38784 0.26187 0.82365 0.0
O300 O 0.41806 0.29738 0.0716 0.0
O301 O 0.42228 0.2664 0.94849 0.0
O302 O 0.39148 0.20305 0.0463 0.0
O303 O 0.40646 0.1863 0.96014 0.0
O304 O 0.37949 0.23633 0.14849 0.0
O305 O 0.39698 0.27715 0.14538 0.0
O306 O 0.3602 0.20269 0.95984 0.0
O307 O 0.35295 0.25781 0.04426 0.0
O308 O 0.38498 0.31226 0.97107 0.0
O309 O 0.3698 0.32543 0.05861 0.0
O310 O 0.39716 0.2792 0.86426 0.0
O311 O 0.3786 0.24407 0.86462 0.0
H312 H 0.44278 0.21141 0.97564 0.0
H313 H 0.46607 0.20099 0.99461 0.0
H314 H 0.46474 0.33195 0.11514 0.0
H315 H 0.44146 0.34191 0.09689 0.0
H316 H 0.33794 0.29975 0.92541 0.0
H317 H 0.31649 0.30733 0.86269 0.0
H318 H 0.31343 0.16559 0.90447 0.0
H319 H 0.3347 0.15857 0.96843 0.0
H320 H 0.23553 0.19291 0.72155 0.0
H321 H 0.23867 0.33329 0.66727 0.0
H322 H 0.25758 0.18531 0.772 0.0
H323 H 0.2605 0.3262 0.7213 0.0
H324 H 0.30381 0.28551 0.74279 0.0
H325 H 0.28191 0.29291 0.68892 0.0
H326 H 0.27029 0.2075 0.88739 0.0
H327 H 0.29214 0.19995 0.94072 0.0
C328 C 0.24091 0.22219 0.72035 0.0
C329 C 0.23526 0.26373 0.69029 0.0
C330 C 0.25353 0.21796 0.75025 0.0
C331 C 0.26086 0.25516 0.75101 0.0
C332 C 0.25522 0.29669 0.7209 0.0
C333 C 0.24261 0.30091 0.69094 0.0
C334 C 0.29656 0.26854 0.77519 0.0
C335 C 0.29979 0.24194 0.84588 0.0
C336 C 0.28398 0.27281 0.74436 0.0
C337 C 0.27429 0.2507 0.78357 0.0
C338 C 0.27752 0.22431 0.85451 0.0
C339 C 0.29008 0.21999 0.88517 0.0
H340 H 0.73058 0.32221 0.75143 0.0
H341 H 0.73901 0.20079 0.8952 0.0
H342 H 0.7527 0.31615 0.70047 0.0
H343 H 0.76098 0.19367 0.84147 0.0
H344 H 0.80283 0.223 0.80584 0.0
H345 H 0.78063 0.22881 0.85533 0.0
H346 H 0.7677 0.27257 0.60967 0.0
H347 H 0.78991 0.26701 0.56042 0.0
C348 C 0.73713 0.29411 0.77202 0.0
C349 C 0.73297 0.26208 0.82776 0.0
C350 C 0.74981 0.29036 0.742 0.0
C351 C 0.75869 0.25447 0.7669 0.0
C352 C 0.75448 0.2221 0.82174 0.0
C353 C 0.7418 0.22585 0.85171 0.0
C354 C 0.79525 0.23359 0.7622 0.0
C355 C 0.7982 0.24456 0.6791 0.0
C356 C 0.78249 0.23685 0.79055 0.0
C357 C 0.77231 0.25107 0.73656 0.0
C358 C 0.77527 0.26216 0.65349 0.0
C359 C 0.78803 0.25899 0.62519 0.0
H360 H 0.28794 0.74242 0.05592 0.0
H361 H 0.30178 0.75825 0.30834 0.0
H362 H 0.26594 0.74768 0.10881 0.0
H363 H 0.27976 0.76333 0.36127 0.0
H364 H 0.24005 0.72335 0.43503 0.0
H365 H 0.262 0.71729 0.38073 0.0
H366 H 0.24949 0.80116 0.17128 0.0
H367 H 0.22747 0.80598 0.22413 0.0
C368 C 0.2863 0.74754 0.12263 0.0
C369 C 0.29668 0.75001 0.17774 0.0
C370 C 0.27366 0.75049 0.15301 0.0
C371 C 0.27104 0.75591 0.23937 0.0
C372 C 0.28141 0.75845 0.29452 0.0
C373 C 0.29406 0.75556 0.26412 0.0
C374 C 0.24194 0.74003 0.37681 0.0
C375 C 0.23195 0.76507 0.33391 0.0
C376 C 0.25457 0.73703 0.34622 0.0
C377 C 0.25756 0.75885 0.27171 0.0
C378 C 0.24755 0.78358 0.22843 0.0
C379 C 0.23492 0.78672 0.25919 0.0
H380 H 0.74064 0.81328 0.10854 0.0
H381 H 0.72922 0.72617 0.30474 0.0
H382 H 0.76242 0.80703 0.16309 0.0
H383 H 0.75105 0.72007 0.3598 0.0
H384 H 0.79437 0.68206 0.38236 0.0
H385 H 0.77261 0.68806 0.32728 0.0
H386 H 0.77483 0.82971 0.28001 0.0
H387 H 0.79681 0.82323 0.33163 0.0
C388 C 0.74274 0.79318 0.16398 0.0
C389 C 0.73314 0.77039 0.20243 0.0
C390 C 0.75525 0.78961 0.19532 0.0
C391 C 0.75853 0.76315 0.26608 0.0
C392 C 0.74894 0.74025 0.30451 0.0
C393 C 0.7364 0.74377 0.273 0.0
C394 C 0.7903 0.71438 0.35923 0.0
C395 C 0.79742 0.75211 0.36117 0.0
C396 C 0.77772 0.71797 0.32867 0.0
C397 C 0.77191 0.75939 0.29924 0.0
C398 C 0.77902 0.79714 0.30125 0.0
C399 C 0.7916 0.79355 0.33179 0.0
H400 H 0.15571 0.87932 0.56327 0.0
H401 H 0.11913 0.91858 0.44806 0.0
H402 H 0.16003 0.95871 0.57076 0.0
H403 H 0.12335 0.99794 0.45685 0.0
H404 H 0.13119 0.13814 0.57294 0.0
H405 H 0.12639 0.05898 0.56953 0.0
H406 H 0.16394 0.01966 0.46409 0.0
H407 H 0.16863 0.09839 0.46598 0.0
C408 C 0.14857 0.90492 0.53994 0.0
C409 C 0.13709 0.89267 0.50497 0.0
C410 C 0.15106 0.95036 0.54398 0.0
C411 C 0.14202 0.9847 0.51453 0.0
C412 C 0.13046 0.97241 0.48075 0.0
C413 C 0.12808 0.92692 0.47529 0.0
C414 C 0.13839 0.11254 0.54893 0.0
C415 C 0.15028 0.12454 0.51973 0.0
C416 C 0.13563 0.06726 0.54676 0.0
C417 C 0.14481 0.03296 0.5169 0.0
C418 C 0.15672 0.04511 0.48829 0.0
C419 C 0.15937 0.09031 0.48899 0.0
H420 H 0.86249 0.42067 0.59896 0.0
H421 H 0.90155 0.37846 0.52513 0.0
H422 H 0.86712 0.49925 0.59819 0.0
H423 H 0.90613 0.45715 0.51927 0.0
H424 H 0.91438 0.60051 0.57935 0.0
H425 H 0.90981 0.52216 0.59022 0.0
H426 H 0.87051 0.56048 0.51708 0.0
H427 H 0.87506 0.6392 0.51131 0.0
C428 C 0.87208 0.4283 0.58212 0.0
C429 C 0.88166 0.39333 0.56232 0.0
C430 C 0.87474 0.47358 0.58077 0.0
C431 C 0.88702 0.48538 0.55808 0.0
C432 C 0.89661 0.45 0.53857 0.0
C433 C 0.89399 0.40464 0.54135 0.0
C434 C 0.90475 0.59213 0.56608 0.0
C435 C 0.89508 0.62612 0.54457 0.0
C436 C 0.90212 0.54693 0.57153 0.0
C437 C 0.88976 0.53413 0.55419 0.0
C438 C 0.88009 0.5685 0.53257 0.0
C439 C 0.8827 0.61385 0.52855 0.0
H440 H 0.90111 0.88026 0.47799 0.0
H441 H 0.86386 0.91849 0.58876 0.0
H442 H 0.90552 0.95985 0.47899 0.0
H443 H 0.86815 0.99758 0.58857 0.0
H444 H 0.87569 0.13944 0.49231 0.0
H445 H 0.87139 0.05988 0.48535 0.0
H446 H 0.90887 0.02058 0.58803 0.0
H447 H 0.91306 0.09978 0.59616 0.0
C448 C 0.89387 0.90561 0.50227 0.0
C449 C 0.88215 0.89299 0.53335 0.0
C450 C 0.89639 0.95117 0.50307 0.0
C451 C 0.88716 0.98521 0.53355 0.0
C452 C 0.87541 0.97243 0.56377 0.0
C453 C 0.87299 0.92698 0.56433 0.0
C454 C 0.88299 0.11378 0.51347 0.0
C455 C 0.8947 0.126 0.54497 0.0
C456 C 0.88053 0.06821 0.50964 0.0
C457 C 0.88982 0.03374 0.53585 0.0
C458 C 0.90157 0.0461 0.56646 0.0
C459 C 0.90393 0.09159 0.57163 0.0
H460 H 0.12834 0.63749 0.48351 0.0
H461 H 0.1687 0.5998 0.52067 0.0
H462 H 0.1243 0.55837 0.48599 0.0
H463 H 0.16508 0.52059 0.51514 0.0
H464 H 0.15477 0.38095 0.57892 0.0
H465 H 0.15868 0.46007 0.5774 0.0
H466 H 0.12448 0.48989 0.42783 0.0
H467 H 0.12014 0.41137 0.43708 0.0
C468 C 0.13638 0.61203 0.49065 0.0
C469 C 0.14881 0.6248 0.50234 0.0
C470 C 0.13413 0.5663 0.49132 0.0
C471 C 0.14432 0.53186 0.50091 0.0
C472 C 0.15682 0.54524 0.51013 0.0
C473 C 0.15898 0.59095 0.51233 0.0
C474 C 0.14814 0.40463 0.54573 0.0
C475 C 0.13715 0.39005 0.5083 0.0
C476 C 0.1504 0.4503 0.54404 0.0
C477 C 0.14194 0.48261 0.50231 0.0
C478 C 0.13112 0.46717 0.46278 0.0
C479 C 0.12865 0.42178 0.46703 0.0
H480 H 0.63175 0.63348 0.08107 0.0
H481 H 0.66864 0.59867 0.96273 0.0
H482 H 0.62742 0.55393 0.07427 0.0
H483 H 0.66443 0.51931 0.95761 0.0
H484 H 0.657 0.37658 0.05516 0.0
H485 H 0.66116 0.45607 0.06487 0.0
H486 H 0.62423 0.49541 0.95443 0.0
H487 H 0.62019 0.41592 0.94296 0.0
C488 C 0.63895 0.60881 0.05415 0.0
C489 C 0.65053 0.62228 0.02255 0.0
C490 C 0.63645 0.56336 0.04991 0.0
C491 C 0.6456 0.53034 1.01557 0.0
C492 C 0.65724 0.54386 0.98501 0.0
C493 C 0.65962 0.58934 0.98767 0.0
C494 C 0.64979 0.40222 0.03285 0.0
C495 C 0.63828 0.39 0.99817 0.0
C496 C 0.65218 0.44769 0.03824 0.0
C497 C 0.64301 0.48202 1.01063 0.0
C498 C 0.63143 0.46978 0.97686 0.0
C499 C 0.62915 0.42426 0.9699 0.0
H500 H 0.36144 0.92092 0.04215 0.0
H501 H 0.4019 0.876 0.03109 0.0
H502 H 0.36629 0.99899 0.03306 0.0
H503 H 0.40686 0.95468 0.02384 0.0
H504 H 0.40955 0.09861 0.92078 0.0
H505 H 0.40535 0.01944 0.93176 0.0
H506 H 0.37502 0.0573 0.11131 0.0
H507 H 0.37904 0.13623 0.09865 0.0
C508 C 0.37141 0.9278 0.0385 0.0
C509 C 0.38129 0.89226 0.03755 0.0
C510 C 0.3742 0.9727 0.03376 0.0
C511 C 0.38698 0.98347 0.02803 0.0
C512 C 0.3969 0.94778 0.0273 0.0
C513 C 0.39408 0.90267 0.03208 0.0
C514 C 0.40199 0.08991 0.96252 0.0
C515 C 0.39461 0.12369 1.0087 0.0
C516 C 0.39963 0.04447 0.96934 0.0
C517 C 0.38982 0.03171 0.02239 0.0
C518 C 0.38252 0.06571 0.06886 0.0
C519 C 0.38487 0.11104 0.06199 0.0
H520 H 0.3625 0.41183 0.07385 0.0
H521 H 0.40041 0.38113 0.96731 0.0
H522 H 0.3658 0.492 0.0792 0.0
H523 H 0.40382 0.46155 0.9745 0.0
H524 H 0.40903 0.599 0.11108 0.0
H525 H 0.40541 0.5194 0.09812 0.0
H526 H 0.36949 0.55651 0.97316 0.0
H527 H 0.37326 0.63652 0.98433 0.0
C528 C 0.37154 0.42225 0.05144 0.0
C529 C 0.3812 0.39022 1.02003 0.0
C530 C 0.37339 0.46819 0.05418 0.0
C531 C 0.38506 0.48307 0.02729 0.0
C532 C 0.39474 0.45102 0.99595 0.0
C533 C 0.39278 0.40509 0.99153 0.0
C534 C 0.40034 0.59026 0.08092 0.0
C535 C 0.39141 0.62405 0.04872 0.0
C536 C 0.39833 0.54463 0.073 0.0
C537 C 0.38721 0.53169 0.03421 0.0
C538 C 0.37814 0.56551 1.00343 0.0
C539 C 0.38029 0.61123 1.00981 0.0
H540 H 0.65789 0.11268 0.1389 0.0
H541 H 0.64011 0.12204 0.89515 0.0
H542 H 0.65384 0.03329 0.1468 0.0
H543 H 0.63635 0.04192 0.90221 0.0
H544 H 0.64851 0.88377 0.92054 0.0
H545 H 0.6516 0.9642 0.91021 0.0
H546 H 0.63321 0.98883 0.15147 0.0
H547 H 0.62982 0.90875 0.16088 0.0
C548 C 0.65313 0.0977 0.08692 0.0
C549 C 0.64933 0.12353 1.01636 0.0
C550 C 0.65078 0.05231 0.09162 0.0
C551 C 0.64481 0.03138 0.02507 0.0
C552 C 0.64103 0.05714 0.95421 0.0
C553 C 0.64313 0.10296 0.95034 0.0
C554 C 0.64511 0.90641 0.97123 0.0
C555 C 0.63891 0.89 0.04153 0.0
C556 C 0.64681 0.95243 0.96507 0.0
C557 C 0.64262 0.98278 0.02995 0.0
C558 C 0.63656 0.96621 0.10062 0.0
C559 C 0.63461 0.92043 0.10593 0.0
H560 H 0.15979 0.30456 0.24897 0.0
H561 H 0.13017 0.21311 0.24833 0.0
H562 H 0.15973 0.30476 0.09604 0.0
H563 H 0.13039 0.21221 0.09569 0.0
H564 H 0.12455 0.25537 0.8244 0.0
H565 H 0.12448 0.25718 0.97705 0.0
H566 H 0.16574 0.25892 0.9759 0.0
H567 H 0.16577 0.25852 0.82307 0.0
C568 C 0.15331 0.2843 0.2163 0.0
C569 C 0.14498 0.25889 0.2612 0.0
C570 C 0.15333 0.28418 0.1284 0.0
C571 C 0.14506 0.25847 0.08306 0.0
C572 C 0.13675 0.23302 0.12818 0.0
C573 C 0.13668 0.23333 0.21599 0.0
C574 C 0.13363 0.25612 0.85656 0.0
C575 C 0.14517 0.25677 0.8111 0.0
C576 C 0.13359 0.25691 0.94439 0.0
C577 C 0.14511 0.25809 0.98928 0.0
C578 C 0.15666 0.2587 0.94372 0.0
C579 C 0.15668 0.25817 0.85584 0.0
H580 H 0.86849 0.25783 0.25359 0.0
H581 H 0.90952 0.26546 0.25232 0.0
H582 H 0.86837 0.26031 0.10111 0.0
H583 H 0.90948 0.26639 0.09947 0.0
H584 H 0.90336 0.31034 0.82759 0.0
H585 H 0.90331 0.31088 0.98063 0.0
H586 H 0.87443 0.21652 0.98046 0.0
H587 H 0.87418 0.21721 0.82799 0.0
C588 C 0.87752 0.2597 0.22084 0.0
C589 C 0.88902 0.26137 0.26557 0.0
C590 C 0.87746 0.26087 0.13306 0.0
C591 C 0.88892 0.26339 0.08736 0.0
C592 C 0.90043 0.26513 0.13222 0.0
C593 C 0.90047 0.2643 0.22012 0.0
C594 C 0.89697 0.28981 0.86023 0.0
C595 C 0.88875 0.26384 0.81523 0.0
C596 C 0.897 0.28987 0.94819 0.0
C597 C 0.88886 0.26374 0.99348 0.0
C598 C 0.88067 0.23772 0.94819 0.0
C599 C 0.88058 0.23791 0.8604 0.0
H600 H 0.15639 0.80669 0.21528 0.0
H601 H 0.12975 0.70469 0.21315 0.0
H602 H 0.1561 0.80828 0.0627 0.0
H603 H 0.12989 0.70463 0.06036 0.0
H604 H 0.12282 0.7465 0.7894 0.0
H605 H 0.12279 0.74622 0.94227 0.0
H606 H 0.16306 0.76808 0.94142 0.0
H607 H 0.16288 0.77041 0.78896 0.0
C608 C 0.15058 0.78421 0.18214 0.0
C609 C 0.14309 0.7556 0.22639 0.0
C610 C 0.15046 0.7849 0.09441 0.0
C611 C 0.14299 0.75651 0.04855 0.0
C612 C 0.13558 0.72759 0.09315 0.0
C613 C 0.13557 0.72736 0.18095 0.0
C614 C 0.13166 0.75131 0.82197 0.0
C615 C 0.14284 0.75865 0.77699 0.0
C616 C 0.13167 0.75086 0.90979 0.0
C617 C 0.14293 0.75711 0.95482 0.0
C618 C 0.15413 0.76404 0.9094 0.0
C619 C 0.15406 0.76511 0.82171 0.0
H620 H 0.8672 0.75151 0.80583 0.0
H621 H 0.90803 0.76249 0.80578 0.0
H622 H 0.86693 0.75383 0.95845 0.0
H623 H 0.908 0.76206 0.95847 0.0
H624 H 0.90264 0.80385 0.23105 0.0
H625 H 0.90254 0.80354 0.07844 0.0
H626 H 0.87206 0.71524 0.08026 0.0
H627 H 0.87172 0.71798 0.23289 0.0
C628 C 0.87617 0.75378 0.83859 0.0
C629 C 0.88763 0.75692 0.7937 0.0
C630 C 0.87605 0.75483 0.92644 0.0
C631 C 0.88745 0.75812 0.97188 0.0
C632 C 0.89895 0.76054 0.92643 0.0
C633 C 0.89902 0.76042 0.83857 0.0
C634 C 0.8959 0.78449 0.19871 0.0
C635 C 0.88717 0.76104 0.24413 0.0
C636 C 0.8959 0.78396 0.11087 0.0
C637 C 0.88733 0.75919 0.06593 0.0
C638 C 0.87865 0.73549 0.11188 0.0
C639 C 0.87849 0.73679 0.19973 0.0
H640 H 0.63245 0.69762 0.32529 0.0
H641 H 0.65865 0.80103 0.32646 0.0
H642 H 0.63238 0.69761 0.47816 0.0
H643 H 0.65814 0.80269 0.47903 0.0
H644 H 0.66467 0.7667 0.75098 0.0
H645 H 0.66506 0.76331 0.5987 0.0
H646 H 0.625 0.73858 0.59843 0.0
H647 H 0.62485 0.73987 0.75155 0.0
C648 C 0.63815 0.72055 0.35824 0.0
C649 C 0.6456 0.74919 0.31366 0.0
C650 C 0.63803 0.72083 0.4461 0.0
C651 C 0.64524 0.7502 0.49166 0.0
C652 C 0.65266 0.77893 0.44663 0.0
C653 C 0.65291 0.77819 0.35886 0.0
C654 C 0.65594 0.76053 0.71846 0.0
C655 C 0.64472 0.75366 0.76346 0.0
C656 C 0.65613 0.75886 0.6308 0.0
C657 C 0.64504 0.75095 0.5855 0.0
C658 C 0.6338 0.74406 0.63078 0.0
C659 C 0.63367 0.74509 0.71871 0.0
H660 H 0.36671 0.76115 0.74545 0.0
H661 H 0.40796 0.76231 0.74587 0.0
H662 H 0.36677 0.76376 0.59292 0.0
H663 H 0.40813 0.76287 0.59313 0.0
H664 H 0.40342 0.80442 0.32038 0.0
H665 H 0.40307 0.8061 0.47329 0.0
H666 H 0.37207 0.72013 0.47279 0.0
H667 H 0.37207 0.7202 0.32035 0.0
C668 C 0.37582 0.7616 0.71293 0.0
C669 C 0.38733 0.76148 0.75799 0.0
C670 C 0.37587 0.76281 0.62518 0.0
C671 C 0.38746 0.7633 0.57997 0.0
C672 C 0.39898 0.76328 0.62535 0.0
C673 C 0.3989 0.76268 0.71318 0.0
C674 C 0.39651 0.78597 0.353 0.0
C675 C 0.38776 0.76227 0.30798 0.0
C676 C 0.39636 0.78668 0.4409 0.0
C677 C 0.38754 0.76324 0.4861 0.0
C678 C 0.37883 0.73938 0.44069 0.0
C679 C 0.37889 0.73916 0.35293 0.0
H680 H 0.63107 0.20398 0.28101 0.0
H681 H 0.65694 0.30843 0.28713 0.0
H682 H 0.63163 0.20018 0.43355 0.0
H683 H 0.65708 0.30615 0.43972 0.0
H684 H 0.6647 0.26296 0.70841 0.0
H685 H 0.66464 0.26338 0.55552 0.0
H686 H 0.62461 0.23842 0.55717 0.0
H687 H 0.62488 0.23606 0.70959 0.0
C688 C 0.63677 0.2265 0.31501 0.0
C689 C 0.64396 0.25649 0.27185 0.0
C690 C 0.63705 0.2245 0.40271 0.0
C691 C 0.6444 0.25285 0.44962 0.0
C692 C 0.6515 0.28313 0.4061 0.0
C693 C 0.65134 0.28472 0.3184 0.0
C694 C 0.65591 0.25735 0.67604 0.0
C695 C 0.64481 0.24938 0.7213 0.0
C696 C 0.65584 0.25792 0.58819 0.0
C697 C 0.6446 0.2511 0.54335 0.0
C698 C 0.63351 0.24303 0.58899 0.0
C699 C 0.63364 0.24191 0.67671 0.0
H700 H 0.37562 0.20559 0.29475 0.0
H701 H 0.40082 0.3121 0.29158 0.0
H702 H 0.37561 0.20698 0.44731 0.0
H703 H 0.40038 0.315 0.44447 0.0
H704 H 0.40753 0.2776 0.71805 0.0
H705 H 0.4077 0.27636 0.56541 0.0
H706 H 0.3679 0.24856 0.56588 0.0
H707 H 0.36794 0.24784 0.7187 0.0
C708 C 0.38108 0.22962 0.32669 0.0
C709 C 0.38824 0.25869 0.28095 0.0
C710 C 0.381 0.23067 0.41443 0.0
C711 C 0.38795 0.26124 0.45887 0.0
C712 C 0.39508 0.29046 0.41281 0.0
C713 C 0.39528 0.289 0.32496 0.0
C714 C 0.3988 0.27132 0.68555 0.0
C715 C 0.38773 0.26272 0.73063 0.0
C716 C 0.39887 0.27087 0.59777 0.0
C717 C 0.38782 0.26234 0.55266 0.0
C718 C 0.37668 0.25437 0.59807 0.0
C719 C 0.37667 0.25426 0.6859 0.0
H720 H 0.04934 0.30698 0.43798 0.0
H721 H 0.05037 0.16705 0.50918 0.0
H722 H 0.02593 0.31205 0.43399 0.0
H723 H 0.02705 0.17161 0.50167 0.0
H724 H 0.98542 0.2133 0.58561 0.0
H725 H 1.00878 0.20533 0.58021 0.0
H726 H 1.00781 0.28731 0.35775 0.0
H727 H 0.98438 0.29529 0.36314 0.0
C728 C 0.04459 0.27722 0.45235 0.0
C729 C 0.05179 0.23664 0.47412 0.0
C730 C 0.03116 0.27998 0.44912 0.0
C731 C 0.02456 0.24226 0.46771 0.0
C732 C 0.03178 0.2015 0.48798 0.0
C733 C 0.0452 0.19874 0.4912 0.0
C734 C 0.99016 0.22902 0.53464 0.0
C735 C 0.98297 0.25494 0.47481 0.0
C736 C 1.00359 0.22449 0.53159 0.0
C737 C 1.01023 0.24574 0.46861 0.0
C738 C 1.00304 0.27107 0.40792 0.0
C739 C 0.98959 0.27559 0.41096 0.0
H740 H 0.98357 0.70672 0.60863 0.0
H741 H 0.9822 0.84888 0.55348 0.0
H742 H 1.00697 0.7021 0.61246 0.0
H743 H 1.00551 0.84468 0.56114 0.0
H744 H 0.04713 0.80751 0.47374 0.0
H745 H 0.02379 0.81457 0.47985 0.0
H746 H 0.02515 0.72411 0.69062 0.0
H747 H 0.04859 0.71695 0.68433 0.0
C748 C 0.98824 0.73706 0.59779 0.0
C749 C 0.98094 0.77814 0.58048 0.0
C750 C 1.00167 0.73453 0.60097 0.0
C751 C 1.00818 0.773 0.58688 0.0
C752 C 1.00086 0.81422 0.57123 0.0
C753 C 0.98745 0.81675 0.56797 0.0
C754 C 0.04249 0.7897 0.52239 0.0
C755 C 0.04979 0.76171 0.57863 0.0
C756 C 0.02905 0.79372 0.52585 0.0
C757 C 0.02252 0.7699 0.5857 0.0
C758 C 0.02983 0.74242 0.64284 0.0
C759 C 0.04328 0.73837 0.63933 0.0
H760 H 0.5504 0.76407 0.85512 0.0
H761 H 0.54884 0.78217 0.12417 0.0
H762 H 0.52696 0.77139 0.85048 0.0
H763 H 0.5255 0.7884 0.12017 0.0
H764 H 0.48341 0.83141 0.08548 0.0
H765 H 0.50661 0.83319 0.08093 0.0
H766 H 0.50934 0.73101 0.88554 0.0
H767 H 0.48611 0.73139 0.88626 0.0
C768 C 0.54504 0.76956 0.91328 0.0
C769 C 0.55149 0.77264 0.98995 0.0
C770 C 0.5316 0.77359 0.91076 0.0
C771 C 0.52426 0.78038 0.98499 0.0
C772 C 0.53076 0.78405 0.06149 0.0
C773 C 0.54418 0.78039 0.06387 0.0
C774 C 0.48891 0.80996 0.04032 0.0
C775 C 0.48281 0.7811 0.98651 0.0
C776 C 0.50228 0.8105 0.03854 0.0
C777 C 0.50994 0.78199 0.98331 0.0
C778 C 0.50381 0.75381 0.92837 0.0
C779 C 0.49044 0.75353 0.9297 0.0
H780 H 0.4844 0.23298 0.93373 0.0
H781 H 0.48284 0.29045 0.18387 0.0
H782 H 0.50775 0.22958 0.93529 0.0
H783 H 0.50624 0.28841 0.18431 0.0
H784 H 0.54929 0.23462 0.18403 0.0
H785 H 0.52588 0.23658 0.18726 0.0
H786 H 0.52438 0.28085 0.92992 0.0
H787 H 0.54773 0.2775 0.92583 0.0
C788 C 0.48903 0.24456 0.98943 0.0
C789 C 0.48168 0.26191 0.05875 0.0
C790 C 0.50244 0.24319 0.98986 0.0
C791 C 0.50892 0.25904 0.05967 0.0
C792 C 0.5016 0.27567 0.12965 0.0
C793 C 0.48816 0.2772 0.1291 0.0
C794 C 0.54397 0.24464 0.12806 0.0
C795 C 0.55044 0.25588 0.05467 0.0
C796 C 0.53053 0.24614 0.13014 0.0
C797 C 0.52321 0.25866 0.05872 0.0
C798 C 0.52969 0.27045 0.98576 0.0
C799 C 0.5431 0.26913 0.98379 0.0
loop_
_geom_bond_atom_site_label_1
_geom_bond_atom_site_label_2
_geom_bond_distance
_geom_bond_site_symmetry_2
_ccdc_geom_bond_type
Pr0 C2 2.880 . S
Pr0 O20 2.562 . S
Pr0 O21 2.490 . S
Pr0 O22 2.695 . S
Pr0 O23 2.512 . S
Pr0 O25 2.437 . S
Pr0 O28 2.436 . S
Pr0 O30 2.438 . S
Pr1 C11 2.880 . S
Pr1 O22 2.436 . S
Pr1 O24 2.438 . S
Pr1 O26 2.562 . S
Pr1 O27 2.490 . S
Pr1 O28 2.695 . S
Pr1 O29 2.512 . S
Pr1 O31 2.437 . S
C2 Pr0 2.880 . S
C2 C3 1.491 . S
C2 O20 1.254 . S
C2 O21 1.225 . S
C3 C2 1.491 . S
C3 C4 1.392 . S
C3 C8 1.356 . S
C4 C3 1.392 . S
C4 C5 1.368 . S
C4 H32 0.929 . S
C5 C4 1.368 . S
C5 C6 1.386 . S
C5 H33 0.929 . S
C6 C5 1.386 . S
C6 C7 1.373 . S
C7 C6 1.373 . S
C7 C8 1.409 . S
C7 H34 0.931 . S
C8 C3 1.356 . S
C8 C7 1.409 . S
C8 H35 0.930 . S
C9 O22 1.270 . S
C9 O23 1.248 . S
C10 O24 1.267 . S
C10 O25 1.278 . S
C11 Pr1 2.880 . S
C11 C12 1.491 . S
C11 O26 1.254 . S
C11 O27 1.225 . S
C12 C11 1.491 . S
C12 C13 1.392 . S
C12 C17 1.356 . S
C13 C12 1.392 . S
C13 C14 1.368 . S
C13 H36 0.929 . S
C14 C13 1.368 . S
C14 C15 1.386 . S
C14 H37 0.929 . S
C15 C14 1.386 . S
C15 C16 1.373 . S
C16 C15 1.373 . S
C16 C17 1.409 . S
C16 H38 0.931 . S
C17 C12 1.356 . S
C17 C16 1.409 . S
C17 H39 0.930 . S
C18 O28 1.270 . S
C18 O29 1.248 . S
C19 O30 1.267 . S
C19 O31 1.278 . S
O20 Pr0 2.562 . S
O20 C2 1.254 . S
O21 Pr0 2.490 . S
O21 C2 1.225 . S
O22 Pr0 2.695 . S
O22 Pr1 2.436 . S
O22 C9 1.270 . S
O23 Pr0 2.512 . S
O23 C9 1.248 . S
O24 Pr1 2.438 . S
O24 C10 1.267 . S
O25 Pr0 2.437 . S
O25 C10 1.278 . S
O26 Pr1 2.562 . S
O26 C11 1.254 . S
O27 Pr1 2.490 . S
O27 C11 1.225 . S
O28 Pr0 2.436 . S
O28 Pr1 2.695 . S
O28 C18 1.270 . S
O29 Pr1 2.512 . S
O29 C18 1.248 . S
O30 Pr0 2.438 . S
O30 C19 1.267 . S
O31 Pr1 2.437 . S
O31 C19 1.278 . S
H32 C4 0.929 . S
H33 C5 0.929 . S
H34 C7 0.931 . S
H35 C8 0.930 . S
H36 C13 0.929 . S
H37 C14 0.929 . S
H38 C16 0.931 . S
H39 C17 0.930 . S
Pr40 C42 2.880 . S
Pr40 O60 2.562 . S
Pr40 O61 2.490 . S
Pr40 O62 2.695 . S
Pr40 O63 2.512 . S
Pr40 O65 2.437 . S
Pr40 O68 2.436 . S
Pr40 O70 2.438 . S
Pr41 C51 2.880 . S
Pr41 O62 2.436 . S
Pr41 O64 2.438 . S
Pr41 O66 2.562 . S
Pr41 O67 2.490 . S
Pr41 O68 2.695 . S
Pr41 O69 2.512 . S
Pr41 O71 2.437 . S
C42 Pr40 2.880 . S
C42 C43 1.491 . S
C42 O60 1.254 . S
C42 O61 1.225 . S
C43 C42 1.491 . S
C43 C44 1.392 . S
C43 C48 1.356 . S
C44 C43 1.392 . S
C44 C45 1.368 . S
C44 H72 0.929 . S
C45 C44 1.368 . S
C45 C46 1.386 . S
C45 H73 0.929 . S
C46 C45 1.386 . S
C46 C47 1.373 . S
C47 C46 1.373 . S
C47 C48 1.409 . S
C47 H74 0.931 . S
C48 C43 1.356 . S
C48 C47 1.409 . S
C48 H75 0.930 . S
C49 O62 1.270 . S
C49 O63 1.248 . S
C50 O64 1.267 . S
C50 O65 1.278 . S
C51 Pr41 2.880 . S
C51 C52 1.491 . S
C51 O66 1.254 . S
C51 O67 1.225 . S
C52 C51 1.491 . S
C52 C53 1.392 . S
C52 C57 1.356 . S
C53 C52 1.392 . S
C53 C54 1.368 . S
C53 H76 0.929 . S
C54 C53 1.368 . S
C54 C55 1.386 . S
C54 H77 0.929 . S
C55 C54 1.386 . S
C55 C56 1.373 . S
C56 C55 1.373 . S
C56 C57 1.409 . S
C56 H78 0.931 . S
C57 C52 1.356 . S
C57 C56 1.409 . S
C57 H79 0.930 . S
C58 O68 1.270 . S
C58 O69 1.248 . S
C59 O70 1.267 . S
C59 O71 1.278 . S
O60 Pr40 2.562 . S
O60 C42 1.254 . S
O61 Pr40 2.490 . S
O61 C42 1.225 . S
O62 Pr40 2.695 . S
O62 Pr41 2.436 . S
O62 C49 1.270 . S
O63 Pr40 2.512 . S
O63 C49 1.248 . S
O64 Pr41 2.438 . S
O64 C50 1.267 . S
O65 Pr40 2.437 . S
O65 C50 1.278 . S
O66 Pr41 2.562 . S
O66 C51 1.254 . S
O67 Pr41 2.490 . S
O67 C51 1.225 . S
O68 Pr40 2.436 . S
O68 Pr41 2.695 . S
O68 C58 1.270 . S
O69 Pr41 2.512 . S
O69 C58 1.248 . S
O70 Pr40 2.438 . S
O70 C59 1.267 . S
O71 Pr41 2.437 . S
O71 C59 1.278 . S
H72 C44 0.929 . S
H73 C45 0.929 . S
H74 C47 0.931 . S
H75 C48 0.930 . S
H76 C53 0.929 . S
H77 C54 0.929 . S
H78 C56 0.931 . S
H79 C57 0.930 . S
Pr80 C82 2.880 . S
Pr80 O100 2.562 . S
Pr80 O101 2.490 . S
Pr80 O102 2.695 . S
Pr80 O103 2.512 . S
Pr80 O105 2.437 . S
Pr80 O108 2.436 . S
Pr80 O110 2.438 . S
Pr81 C91 2.880 . S
Pr81 O102 2.436 . S
Pr81 O104 2.438 . S
Pr81 O106 2.562 . S
Pr81 O107 2.490 . S
Pr81 O108 2.695 . S
Pr81 O109 2.512 . S
Pr81 O111 2.437 . S
C82 Pr80 2.880 . S
C82 C83 1.491 . S
C82 O100 1.254 . S
C82 O101 1.225 . S
C83 C82 1.491 . S
C83 C84 1.392 . S
C83 C88 1.356 . S
C84 C83 1.392 . S
C84 C85 1.368 . S
C84 H112 0.929 . S
C85 C84 1.368 . S
C85 C86 1.386 . S
C85 H113 0.929 . S
C86 C85 1.386 . S
C86 C87 1.373 . S
C87 C86 1.373 . S
C87 C88 1.409 . S
C87 H114 0.931 . S
C88 C83 1.356 . S
C88 C87 1.409 . S
C88 H115 0.930 . S
C89 O102 1.270 . S
C89 O103 1.248 . S
C90 O104 1.267 . S
C90 O105 1.278 . S
C91 Pr81 2.880 . S
C91 C92 1.491 . S
C91 O106 1.254 . S
C91 O107 1.225 . S
C92 C91 1.491 . S
C92 C93 1.392 . S
C92 C97 1.356 . S
C93 C92 1.392 . S
C93 C94 1.368 . S
C93 H116 0.929 . S
C94 C93 1.368 . S
C94 C95 1.386 . S
C94 H117 0.929 . S
C95 C94 1.386 . S
C95 C96 1.373 . S
C96 C95 1.373 . S
C96 C97 1.409 . S
C96 H118 0.931 . S
C97 C92 1.356 . S
C97 C96 1.409 . S
C97 H119 0.930 . S
C98 O108 1.270 . S
C98 O109 1.248 . S
C99 O110 1.267 . S
C99 O111 1.278 . S
O100 Pr80 2.562 . S
O100 C82 1.254 . S
O101 Pr80 2.490 . S
O101 C82 1.225 . S
O102 Pr80 2.695 . S
O102 Pr81 2.436 . S
O102 C89 1.270 . S
O103 Pr80 2.512 . S
O103 C89 1.248 . S
O104 Pr81 2.438 . S
O104 C90 1.267 . S
O105 Pr80 2.437 . S
O105 C90 1.278 . S
O106 Pr81 2.562 . S
O106 C91 1.254 . S
O107 Pr81 2.490 . S
O107 C91 1.225 . S
O108 Pr80 2.436 . S
O108 Pr81 2.695 . S
O108 C98 1.270 . S
O109 Pr81 2.512 . S
O109 C98 1.248 . S
O110 Pr80 2.438 . S
O110 C99 1.267 . S
O111 Pr81 2.437 . S
O111 C99 1.278 . S
H112 C84 0.929 . S
H113 C85 0.929 . S
H114 C87 0.931 . S
H115 C88 0.930 . S
H116 C93 0.929 . S
H117 C94 0.929 . S
H118 C96 0.931 . S
H119 C97 0.930 . S
Pr120 C122 2.880 . S
Pr120 O140 2.562 . S
Pr120 O141 2.490 . S
Pr120 O142 2.695 . S
Pr120 O143 2.512 . S
Pr120 O145 2.437 . S
Pr120 O148 2.436 . S
Pr120 O150 2.438 . S
Pr121 C131 2.880 . S
Pr121 O142 2.436 . S
Pr121 O144 2.438 . S
Pr121 O146 2.562 . S
Pr121 O147 2.490 . S
Pr121 O148 2.695 . S
Pr121 O149 2.512 . S
Pr121 O151 2.437 . S
C122 Pr120 2.880 . S
C122 C123 1.491 . S
C122 O140 1.254 . S
C122 O141 1.225 . S
C123 C122 1.491 . S
C123 C124 1.392 . S
C123 C128 1.356 . S
C124 C123 1.392 . S
C124 C125 1.368 . S
C124 H152 0.929 . S
C125 C124 1.368 . S
C125 C126 1.386 . S
C125 H153 0.929 . S
C126 C125 1.386 . S
C126 C127 1.373 . S
C127 C126 1.373 . S
C127 C128 1.409 . S
C127 H154 0.931 . S
C128 C123 1.356 . S
C128 C127 1.409 . S
C128 H155 0.930 . S
C129 O142 1.270 . S
C129 O143 1.248 . S
C130 O144 1.267 . S
C130 O145 1.278 . S
C131 Pr121 2.880 . S
C131 C132 1.491 . S
C131 O146 1.254 . S
C131 O147 1.225 . S
C132 C131 1.491 . S
C132 C133 1.392 . S
C132 C137 1.356 . S
C133 C132 1.392 . S
C133 C134 1.368 . S
C133 H156 0.929 . S
C134 C133 1.368 . S
C134 C135 1.386 . S
C134 H157 0.929 . S
C135 C134 1.386 . S
C135 C136 1.373 . S
C136 C135 1.373 . S
C136 C137 1.409 . S
C136 H158 0.931 . S
C137 C132 1.356 . S
C137 C136 1.409 . S
C137 H159 0.930 . S
C138 O148 1.270 . S
C138 O149 1.248 . S
C139 O150 1.267 . S
C139 O151 1.278 . S
O140 Pr120 2.562 . S
O140 C122 1.254 . S
O141 Pr120 2.490 . S
O141 C122 1.225 . S
O142 Pr120 2.695 . S
O142 Pr121 2.436 . S
O142 C129 1.270 . S
O143 Pr120 2.512 . S
O143 C129 1.248 . S
O144 Pr121 2.438 . S
O144 C130 1.267 . S
O145 Pr120 2.437 . S
O145 C130 1.278 . S
O146 Pr121 2.562 . S
O146 C131 1.254 . S
O147 Pr121 2.490 . S
O147 C131 1.225 . S
O148 Pr120 2.436 . S
O148 Pr121 2.695 . S
O148 C138 1.270 . S
O149 Pr121 2.512 . S
O149 C138 1.248 . S
O150 Pr120 2.438 . S
O150 C139 1.267 . S
O151 Pr121 2.437 . S
O151 C139 1.278 . S
H152 C124 0.929 . S
H153 C125 0.929 . S
H154 C127 0.931 . S
H155 C128 0.930 . S
H156 C133 0.929 . S
H157 C134 0.929 . S
H158 C136 0.931 . S
H159 C137 0.930 . S
Pr160 C162 2.880 1_556 S
Pr160 O180 2.562 1_556 S
Pr160 O181 2.490 1_556 S
Pr160 O182 2.695 . S
Pr160 O183 2.512 . S
Pr160 O185 2.437 1_556 S
Pr160 O188 2.436 1_556 S
Pr160 O190 2.438 . S
Pr161 C171 2.880 1_554 S
Pr161 O182 2.436 1_554 S
Pr161 O184 2.438 . S
Pr161 O186 2.562 1_554 S
Pr161 O187 2.490 1_554 S
Pr161 O188 2.695 . S
Pr161 O189 2.512 . S
Pr161 O191 2.437 1_554 S
C162 Pr160 2.880 1_554 S
C162 C163 1.491 . S
C162 O180 1.254 . S
C162 O181 1.225 . S
C163 C162 1.491 . S
C163 C164 1.392 . S
C163 C168 1.356 . S
C164 C163 1.392 . S
C164 C165 1.368 . S
C164 H192 0.929 . S
C165 C164 1.368 . S
C165 C166 1.386 . S
C165 H193 0.929 . S
C166 C165 1.386 . S
C166 C167 1.373 . S
C167 C166 1.373 . S
C167 C168 1.409 . S
C167 H194 0.931 . S
C168 C163 1.356 . S
C168 C167 1.409 . S
C168 H195 0.930 . S
C169 O182 1.270 . S
C169 O183 1.248 . S
C170 O184 1.267 . S
C170 O185 1.278 . S
C171 Pr161 2.880 1_556 S
C171 C172 1.491 . S
C171 O186 1.254 . S
C171 O187 1.225 . S
C172 C171 1.491 . S
C172 C173 1.392 . S
C172 C177 1.356 . S
C173 C172 1.392 . S
C173 C174 1.368 . S
C173 H196 0.929 . S
C174 C173 1.368 . S
C174 C175 1.386 . S
C174 H197 0.929 . S
C175 C174 1.386 . S
C175 C176 1.373 . S
C176 C175 1.373 . S
C176 C177 1.409 . S
C176 H198 0.931 . S
C177 C172 1.356 . S
C177 C176 1.409 . S
C177 H199 0.930 . S
C178 O188 1.270 . S
C178 O189 1.248 . S
C179 O190 1.267 . S
C179 O191 1.278 . S
O180 Pr160 2.562 1_554 S
O180 C162 1.254 . S
O181 Pr160 2.490 1_554 S
O181 C162 1.225 . S
O182 Pr160 2.695 . S
O182 Pr161 2.436 1_556 S
O182 C169 1.270 . S
O183 Pr160 2.512 . S
O183 C169 1.248 . S
O184 Pr161 2.438 . S
O184 C170 1.267 . S
O185 Pr160 2.437 1_554 S
O185 C170 1.278 . S
O186 Pr161 2.562 1_556 S
O186 C171 1.254 . S
O187 Pr161 2.490 1_556 S
O187 C171 1.225 . S
O188 Pr160 2.436 1_554 S
O188 Pr161 2.695 . S
O188 C178 1.270 . S
O189 Pr161 2.512 . S
O189 C178 1.248 . S
O190 Pr160 2.438 . S
O190 C179 1.267 . S
O191 Pr161 2.437 1_556 S
O191 C179 1.278 . S
H192 C164 0.929 . S
H193 C165 0.929 . S
H194 C167 0.931 . S
H195 C168 0.930 . S
H196 C173 0.929 . S
H197 C174 0.929 . S
H198 C176 0.931 . S
H199 C177 0.930 . S
Pr200 C202 2.880 1_556 S
Pr200 O220 2.562 1_556 S
Pr200 O221 2.490 1_556 S
Pr200 O222 2.695 . S
Pr200 O223 2.512 . S
Pr200 O225 2.437 1_556 S
Pr200 O228 2.436 1_556 S
Pr200 O230 2.438 . S
Pr201 C211 2.880 1_554 S
Pr201 O222 2.436 1_554 S
Pr201 O224 2.438 . S
Pr201 O226 2.562 1_554 S
Pr201 O227 2.490 1_554 S
Pr201 O228 2.695 . S
Pr201 O229 2.512 . S
Pr201 O231 2.437 1_554 S
C202 Pr200 2.880 1_554 S
C202 C203 1.491 . S
C202 O220 1.254 . S
C202 O221 1.225 . S
C203 C202 1.491 . S
C203 C204 1.392 . S
C203 C208 1.356 . S
C204 C203 1.392 . S
C204 C205 1.368 . S
C204 H232 0.929 . S
C205 C204 1.368 . S
C205 C206 1.386 . S
C205 H233 0.929 . S
C206 C205 1.386 . S
C206 C207 1.373 . S
C207 C206 1.373 . S
C207 C208 1.409 . S
C207 H234 0.931 . S
C208 C203 1.356 . S
C208 C207 1.409 . S
C208 H235 0.930 . S
C209 O222 1.270 . S
C209 O223 1.248 . S
C210 O224 1.267 . S
C210 O225 1.278 . S
C211 Pr201 2.880 1_556 S
C211 C212 1.491 . S
C211 O226 1.254 . S
C211 O227 1.225 . S
C212 C211 1.491 . S
C212 C213 1.392 . S
C212 C217 1.356 . S
C213 C212 1.392 . S
C213 C214 1.368 . S
C213 H236 0.929 . S
C214 C213 1.368 . S
C214 C215 1.386 . S
C214 H237 0.929 . S
C215 C214 1.386 . S
C215 C216 1.373 . S
C216 C215 1.373 . S
C216 C217 1.409 . S
C216 H238 0.931 . S
C217 C212 1.356 . S
C217 C216 1.409 . S
C217 H239 0.930 . S
C218 O228 1.270 . S
C218 O229 1.248 . S
C219 O230 1.267 . S
C219 O231 1.278 . S
O220 Pr200 2.562 1_554 S
O220 C202 1.254 . S
O221 Pr200 2.490 1_554 S
O221 C202 1.225 . S
O222 Pr200 2.695 . S
O222 Pr201 2.436 1_556 S
O222 C209 1.270 . S
O223 Pr200 2.512 . S
O223 C209 1.248 . S
O224 Pr201 2.438 . S
O224 C210 1.267 . S
O225 Pr200 2.437 1_554 S
O225 C210 1.278 . S
O226 Pr201 2.562 1_556 S
O226 C211 1.254 . S
O227 Pr201 2.490 1_556 S
O227 C211 1.225 . S
O228 Pr200 2.436 1_554 S
O228 Pr201 2.695 . S
O228 C218 1.270 . S
O229 Pr201 2.512 . S
O229 C218 1.248 . S
O230 Pr200 2.438 . S
O230 C219 1.267 . S
O231 Pr201 2.437 1_556 S
O231 C219 1.278 . S
H232 C204 0.929 . S
H233 C205 0.929 . S
H234 C207 0.931 . S
H235 C208 0.930 . S
H236 C213 0.929 . S
H237 C214 0.929 . S
H238 C216 0.931 . S
H239 C217 0.930 . S
Pr240 C242 2.880 1_556 S
Pr240 O260 2.562 1_556 S
Pr240 O261 2.490 1_556 S
Pr240 O262 2.695 . S
Pr240 O263 2.512 . S
Pr240 O265 2.437 1_556 S
Pr240 O268 2.436 1_556 S
Pr240 O270 2.438 . S
Pr241 C251 2.880 1_554 S
Pr241 O262 2.436 1_554 S
Pr241 O264 2.438 . S
Pr241 O266 2.562 1_554 S
Pr241 O267 2.490 1_554 S
Pr241 O268 2.695 . S
Pr241 O269 2.512 . S
Pr241 O271 2.437 1_554 S
C242 Pr240 2.880 1_554 S
C242 C243 1.491 . S
C242 O260 1.254 . S
C242 O261 1.225 . S
C243 C242 1.491 . S
C243 C244 1.392 . S
C243 C248 1.356 . S
C244 C243 1.392 . S
C244 C245 1.368 . S
C244 H272 0.929 . S
C245 C244 1.368 . S
C245 C246 1.386 . S
C245 H273 0.929 . S
C246 C245 1.386 . S
C246 C247 1.373 . S
C247 C246 1.373 . S
C247 C248 1.409 . S
C247 H274 0.931 . S
C248 C243 1.356 . S
C248 C247 1.409 . S
C248 H275 0.930 . S
C249 O262 1.270 . S
C249 O263 1.248 . S
C250 O264 1.267 . S
C250 O265 1.278 . S
C251 Pr241 2.880 1_556 S
C251 C252 1.491 . S
C251 O266 1.254 . S
C251 O267 1.225 . S
C252 C251 1.491 . S
C252 C253 1.392 . S
C252 C257 1.356 . S
C253 C252 1.392 . S
C253 C254 1.368 . S
C253 H276 0.929 . S
C254 C253 1.368 . S
C254 C255 1.386 . S
C254 H277 0.929 . S
C255 C254 1.386 . S
C255 C256 1.373 . S
C256 C255 1.373 . S
C256 C257 1.409 . S
C256 H278 0.931 . S
C257 C252 1.356 . S
C257 C256 1.409 . S
C257 H279 0.930 . S
C258 O268 1.270 . S
C258 O269 1.248 . S
C259 O270 1.267 . S
C259 O271 1.278 . S
O260 Pr240 2.562 1_554 S
O260 C242 1.254 . S
O261 Pr240 2.490 1_554 S
O261 C242 1.225 . S
O262 Pr240 2.695 . S
O262 Pr241 2.436 1_556 S
O262 C249 1.270 . S
O263 Pr240 2.512 . S
O263 C249 1.248 . S
O264 Pr241 2.438 . S
O264 C250 1.267 . S
O265 Pr240 2.437 1_554 S
O265 C250 1.278 . S
O266 Pr241 2.562 1_556 S
O266 C251 1.254 . S
O267 Pr241 2.490 1_556 S
O267 C251 1.225 . S
O268 Pr240 2.436 1_554 S
O268 Pr241 2.695 . S
O268 C258 1.270 . S
O269 Pr241 2.512 . S
O269 C258 1.248 . S
O270 Pr240 2.438 . S
O270 C259 1.267 . S
O271 Pr241 2.437 1_556 S
O271 C259 1.278 . S
H272 C244 0.929 . S
H273 C245 0.929 . S
H274 C247 0.931 . S
H275 C248 0.930 . S
H276 C253 0.929 . S
H277 C254 0.929 . S
H278 C256 0.931 . S
H279 C257 0.930 . S
Pr280 C282 2.880 1_556 S
Pr280 O300 2.562 1_556 S
Pr280 O301 2.490 1_556 S
Pr280 O302 2.695 . S
Pr280 O303 2.512 . S
Pr280 O305 2.437 1_556 S
Pr280 O308 2.436 1_556 S
Pr280 O310 2.438 . S
Pr281 C291 2.880 1_554 S
Pr281 O302 2.436 1_554 S
Pr281 O304 2.438 . S
Pr281 O306 2.562 1_554 S
Pr281 O307 2.490 1_554 S
Pr281 O308 2.695 . S
Pr281 O309 2.512 . S
Pr281 O311 2.437 1_554 S
C282 Pr280 2.880 1_554 S
C282 C283 1.491 . S
C282 O300 1.254 . S
C282 O301 1.225 . S
C283 C282 1.491 . S
C283 C284 1.392 . S
C283 C288 1.356 . S
C284 C283 1.392 . S
C284 C285 1.368 . S
C284 H312 0.929 . S
C285 C284 1.368 . S
C285 C286 1.386 . S
C285 H313 0.929 . S
C286 C285 1.386 . S
C286 C287 1.373 . S
C287 C286 1.373 . S
C287 C288 1.409 . S
C287 H314 0.931 . S
C288 C283 1.356 . S
C288 C287 1.409 . S
C288 H315 0.930 . S
C289 O302 1.270 . S
C289 O303 1.248 . S
C290 O304 1.267 . S
C290 O305 1.278 . S
C291 Pr281 2.880 1_556 S
C291 C292 1.491 . S
C291 O306 1.254 . S
C291 O307 1.225 . S
C292 C291 1.491 . S
C292 C293 1.392 . S
C292 C297 1.356 . S
C293 C292 1.392 . S
C293 C294 1.368 . S
C293 H316 0.929 . S
C294 C293 1.368 . S
C294 C295 1.386 . S
C294 H317 0.929 . S
C295 C294 1.386 . S
C295 C296 1.373 . S
C296 C295 1.373 . S
C296 C297 1.409 . S
C296 H318 0.931 . S
C297 C292 1.356 . S
C297 C296 1.409 . S
C297 H319 0.930 . S
C298 O308 1.270 . S
C298 O309 1.248 . S
C299 O310 1.267 . S
C299 O311 1.278 . S
O300 Pr280 2.562 1_554 S
O300 C282 1.254 . S
O301 Pr280 2.490 1_554 S
O301 C282 1.225 . S
O302 Pr280 2.695 . S
O302 Pr281 2.436 1_556 S
O302 C289 1.270 . S
O303 Pr280 2.512 . S
O303 C289 1.248 . S
O304 Pr281 2.438 . S
O304 C290 1.267 . S
O305 Pr280 2.437 1_554 S
O305 C290 1.278 . S
O306 Pr281 2.562 1_556 S
O306 C291 1.254 . S
O307 Pr281 2.490 1_556 S
O307 C291 1.225 . S
O308 Pr280 2.436 1_554 S
O308 Pr281 2.695 . S
O308 C298 1.270 . S
O309 Pr281 2.512 . S
O309 C298 1.248 . S
O310 Pr280 2.438 . S
O310 C299 1.267 . S
O311 Pr281 2.437 1_556 S
O311 C299 1.278 . S
H312 C284 0.929 . S
H313 C285 0.929 . S
H314 C287 0.931 . S
H315 C288 0.930 . S
H316 C293 0.929 . S
H317 C294 0.929 . S
H318 C296 0.931 . S
H319 C297 0.930 . S
H320 C328 0.950 . S
H321 C333 0.950 . S
H322 C330 0.950 . S
H323 C332 0.950 . S
H324 C334 0.950 . S
H325 C336 0.950 . S
H326 C338 0.950 . S
H327 C339 0.950 . S
C328 H320 0.950 . S
C328 C329 1.386 . S
C328 C330 1.391 . S
C329 C328 1.386 . S
C329 C333 1.393 . S
C330 H322 0.950 . S
C330 C328 1.391 . S
C330 C331 1.400 . S
C331 C330 1.400 . S
C331 C332 1.398 . S
C331 C337 1.491 . S
C332 H323 0.950 . S
C332 C331 1.398 . S
C332 C333 1.391 . S
C333 H321 0.950 . S
C333 C329 1.393 . S
C333 C332 1.391 . S
C334 H324 0.950 . S
C334 C335 1.386 . S
C334 C336 1.391 . S
C335 C334 1.386 . S
C335 C339 1.393 . S
C336 H325 0.950 . S
C336 C334 1.391 . S
C336 C337 1.400 . S
C337 C331 1.491 . S
C337 C336 1.400 . S
C337 C338 1.398 . S
C338 H326 0.950 . S
C338 C337 1.398 . S
C338 C339 1.391 . S
C339 H327 0.950 . S
C339 C335 1.393 . S
C339 C338 1.391 . S
H340 C348 0.950 . S
H341 C353 0.950 . S
H342 C350 0.950 . S
H343 C352 0.950 . S
H344 C354 0.950 . S
H345 C356 0.950 . S
H346 C358 0.950 . S
H347 C359 0.950 . S
C348 H340 0.950 . S
C348 C349 1.386 . S
C348 C350 1.391 . S
C349 C348 1.386 . S
C349 C353 1.393 . S
C350 H342 0.950 . S
C350 C348 1.391 . S
C350 C351 1.400 . S
C351 C350 1.400 . S
C351 C352 1.398 . S
C351 C357 1.491 . S
C352 H343 0.950 . S
C352 C351 1.398 . S
C352 C353 1.391 . S
C353 H341 0.950 . S
C353 C349 1.393 . S
C353 C352 1.391 . S
C354 H344 0.950 . S
C354 C355 1.386 . S
C354 C356 1.391 . S
C355 C354 1.386 . S
C355 C359 1.393 . S
C356 H345 0.950 . S
C356 C354 1.391 . S
C356 C357 1.400 . S
C357 C351 1.491 . S
C357 C356 1.400 . S
C357 C358 1.398 . S
C358 H346 0.950 . S
C358 C357 1.398 . S
C358 C359 1.391 . S
C359 H347 0.950 . S
C359 C355 1.393 . S
C359 C358 1.391 . S
H360 C368 0.950 . S
H361 C373 0.950 . S
H362 C370 0.950 . S
H363 C372 0.950 . S
H364 C374 0.950 . S
H365 C376 0.950 . S
H366 C378 0.950 . S
H367 C379 0.950 . S
C368 H360 0.950 . S
C368 C369 1.386 . S
C368 C370 1.391 . S
C369 C368 1.386 . S
C369 C373 1.393 . S
C370 H362 0.950 . S
C370 C368 1.391 . S
C370 C371 1.400 . S
C371 C370 1.400 . S
C371 C372 1.398 . S
C371 C377 1.491 . S
C372 H363 0.950 . S
C372 C371 1.398 . S
C372 C373 1.391 . S
C373 H361 0.950 . S
C373 C369 1.393 . S
C373 C372 1.391 . S
C374 H364 0.950 . S
C374 C375 1.386 . S
C374 C376 1.391 . S
C375 C374 1.386 . S
C375 C379 1.393 . S
C376 H365 0.950 . S
C376 C374 1.391 . S
C376 C377 1.400 . S
C377 C371 1.491 . S
C377 C376 1.400 . S
C377 C378 1.398 . S
C378 H366 0.950 . S
C378 C377 1.398 . S
C378 C379 1.391 . S
C379 H367 0.950 . S
C379 C375 1.393 . S
C379 C378 1.391 . S
H380 C388 0.950 . S
H381 C393 0.950 . S
H382 C390 0.950 . S
H383 C392 0.950 . S
H384 C394 0.950 . S
H385 C396 0.950 . S
H386 C398 0.950 . S
H387 C399 0.950 . S
C388 H380 0.950 . S
C388 C389 1.386 . S
C388 C390 1.391 . S
C389 C388 1.386 . S
C389 C393 1.393 . S
C390 H382 0.950 . S
C390 C388 1.391 . S
C390 C391 1.400 . S
C391 C390 1.400 . S
C391 C392 1.398 . S
C391 C397 1.491 . S
C392 H383 0.950 . S
C392 C391 1.398 . S
C392 C393 1.391 . S
C393 H381 0.950 . S
C393 C389 1.393 . S
C393 C392 1.391 . S
C394 H384 0.950 . S
C394 C395 1.386 . S
C394 C396 1.391 . S
C395 C394 1.386 . S
C395 C399 1.393 . S
C396 H385 0.950 . S
C396 C394 1.391 . S
C396 C397 1.400 . S
C397 C391 1.491 . S
C397 C396 1.400 . S
C397 C398 1.398 . S
C398 H386 0.950 . S
C398 C397 1.398 . S
C398 C399 1.391 . S
C399 H387 0.950 . S
C399 C395 1.393 . S
C399 C398 1.391 . S
H400 C408 0.950 . S
H401 C413 0.950 . S
H402 C410 0.950 . S
H403 C412 0.950 . S
H404 C414 0.950 . S
H405 C416 0.950 . S
H406 C418 0.950 . S
H407 C419 0.950 . S
C408 H400 0.950 . S
C408 C409 1.386 . S
C408 C410 1.391 . S
C409 C408 1.386 . S
C409 C413 1.393 . S
C410 H402 0.950 . S
C410 C408 1.391 . S
C410 C411 1.400 . S
C411 C410 1.400 . S
C411 C412 1.398 . S
C411 C417 1.491 1_565 S
C412 H403 0.950 . S
C412 C411 1.398 . S
C412 C413 1.391 . S
C413 H401 0.950 . S
C413 C409 1.393 . S
C413 C412 1.391 . S
C414 H404 0.950 . S
C414 C415 1.386 . S
C414 C416 1.391 . S
C415 C414 1.386 . S
C415 C419 1.393 . S
C416 H405 0.950 . S
C416 C414 1.391 . S
C416 C417 1.400 . S
C417 C411 1.491 1_545 S
C417 C416 1.400 . S
C417 C418 1.398 . S
C418 H406 0.950 . S
C418 C417 1.398 . S
C418 C419 1.391 . S
C419 H407 0.950 . S
C419 C415 1.393 . S
C419 C418 1.391 . S
H420 C428 0.950 . S
H421 C433 0.950 . S
H422 C430 0.950 . S
H423 C432 0.950 . S
H424 C434 0.950 . S
H425 C436 0.950 . S
H426 C438 0.950 . S
H427 C439 0.950 . S
C428 H420 0.950 . S
C428 C429 1.386 . S
C428 C430 1.391 . S
C429 C428 1.386 . S
C429 C433 1.393 . S
C430 H422 0.950 . S
C430 C428 1.391 . S
C430 C431 1.400 . S
C431 C430 1.400 . S
C431 C432 1.398 . S
C431 C437 1.491 . S
C432 H423 0.950 . S
C432 C431 1.398 . S
C432 C433 1.391 . S
C433 H421 0.950 . S
C433 C429 1.393 . S
C433 C432 1.391 . S
C434 H424 0.950 . S
C434 C435 1.386 . S
C434 C436 1.391 . S
C435 C434 1.386 . S
C435 C439 1.393 . S
C436 H425 0.950 . S
C436 C434 1.391 . S
C436 C437 1.400 . S
C437 C431 1.491 . S
C437 C436 1.400 . S
C437 C438 1.398 . S
C438 H426 0.950 . S
C438 C437 1.398 . S
C438 C439 1.391 . S
C439 H427 0.950 . S
C439 C435 1.393 . S
C439 C438 1.391 . S
H440 C448 0.950 . S
H441 C453 0.950 . S
H442 C450 0.950 . S
H443 C452 0.950 . S
H444 C454 0.950 . S
H445 C456 0.950 . S
H446 C458 0.950 . S
H447 C459 0.950 . S
C448 H440 0.950 . S
C448 C449 1.386 . S
C448 C450 1.391 . S
C449 C448 1.386 . S
C449 C453 1.393 . S
C450 H442 0.950 . S
C450 C448 1.391 . S
C450 C451 1.400 . S
C451 C450 1.400 . S
C451 C452 1.398 . S
C451 C457 1.491 1_565 S
C452 H443 0.950 . S
C452 C451 1.398 . S
C452 C453 1.391 . S
C453 H441 0.950 . S
C453 C449 1.393 . S
C453 C452 1.391 . S
C454 H444 0.950 . S
C454 C455 1.386 . S
C454 C456 1.391 . S
C455 C454 1.386 . S
C455 C459 1.393 . S
C456 H445 0.950 . S
C456 C454 1.391 . S
C456 C457 1.400 . S
C457 C451 1.491 1_545 S
C457 C456 1.400 . S
C457 C458 1.398 . S
C458 H446 0.950 . S
C458 C457 1.398 . S
C458 C459 1.391 . S
C459 H447 0.950 . S
C459 C455 1.393 . S
C459 C458 1.391 . S
H460 C468 0.950 . S
H461 C473 0.950 . S
H462 C470 0.950 . S
H463 C472 0.950 . S
H464 C474 0.950 . S
H465 C476 0.950 . S
H466 C478 0.950 . S
H467 C479 0.950 . S
C468 H460 0.950 . S
C468 C469 1.386 . S
C468 C470 1.391 . S
C469 C468 1.386 . S
C469 C473 1.393 . S
C470 H462 0.950 . S
C470 C468 1.391 . S
C470 C471 1.400 . S
C471 C470 1.400 . S
C471 C472 1.398 . S
C471 C477 1.491 . S
C472 H463 0.950 . S
C472 C471 1.398 . S
C472 C473 1.391 . S
C473 H461 0.950 . S
C473 C469 1.393 . S
C473 C472 1.391 . S
C474 H464 0.950 . S
C474 C475 1.386 . S
C474 C476 1.391 . S
C475 C474 1.386 . S
C475 C479 1.393 . S
C476 H465 0.950 . S
C476 C474 1.391 . S
C476 C477 1.400 . S
C477 C471 1.491 . S
C477 C476 1.400 . S
C477 C478 1.398 . S
C478 H466 0.950 . S
C478 C477 1.398 . S
C478 C479 1.391 . S
C479 H467 0.950 . S
C479 C475 1.393 . S
C479 C478 1.391 . S
H480 C488 0.950 . S
H481 C493 0.950 . S
H482 C490 0.950 . S
H483 C492 0.950 . S
H484 C494 0.950 . S
H485 C496 0.950 . S
H486 C498 0.950 . S
H487 C499 0.950 . S
C488 H480 0.950 . S
C488 C489 1.386 1_554 S
C488 C490 1.391 . S
C489 C488 1.386 1_556 S
C489 C493 1.393 . S
C490 H482 0.950 . S
C490 C488 1.391 . S
C490 C491 1.400 1_554 S
C491 C490 1.400 1_556 S
C491 C492 1.398 . S
C491 C497 1.491 . S
C492 H483 0.950 . S
C492 C491 1.398 . S
C492 C493 1.391 . S
C493 H481 0.950 . S
C493 C489 1.393 . S
C493 C492 1.391 . S
C494 H484 0.950 . S
C494 C495 1.386 . S
C494 C496 1.391 . S
C495 C494 1.386 . S
C495 C499 1.393 1_556 S
C496 H485 0.950 . S
C496 C494 1.391 . S
C496 C497 1.400 . S
C497 C491 1.491 . S
C497 C496 1.400 . S
C497 C498 1.398 1_556 S
C498 H486 0.950 . S
C498 C497 1.398 1_554 S
C498 C499 1.391 . S
C499 H487 0.950 . S
C499 C495 1.393 1_554 S
C499 C498 1.391 . S
H500 C508 0.950 . S
H501 C513 0.950 . S
H502 C510 0.950 . S
H503 C512 0.950 . S
H504 C514 0.950 . S
H505 C516 0.950 . S
H506 C518 0.950 . S
H507 C519 0.950 . S
C508 H500 0.950 . S
C508 C509 1.389 . S
C508 C510 1.391 . S
C509 C508 1.389 . S
C509 C513 1.390 1_556 S
C510 H502 0.950 . S
C510 C508 1.391 . S
C510 C511 1.400 . S
C511 C510 1.400 . S
C511 C512 1.398 1_556 S
C511 C517 1.491 1_565 S
C512 H503 0.950 . S
C512 C511 1.398 1_554 S
C512 C513 1.391 . S
C513 H501 0.950 . S
C513 C509 1.390 1_554 S
C513 C512 1.391 . S
C514 H504 0.950 . S
C514 C515 1.386 1_554 S
C514 C516 1.391 . S
C515 C514 1.386 1_556 S
C515 C519 1.393 . S
C516 H505 0.950 . S
C516 C514 1.391 . S
C516 C517 1.400 1_554 S
C517 C511 1.491 1_545 S
C517 C516 1.400 1_556 S
C517 C518 1.398 . S
C518 H506 0.950 . S
C518 C517 1.398 . S
C518 C519 1.391 . S
C519 H507 0.950 . S
C519 C515 1.393 . S
C519 C518 1.391 . S
H520 C528 0.950 . S
H521 C533 0.950 . S
H522 C530 0.950 . S
H523 C532 0.950 . S
H524 C534 0.950 . S
H525 C536 0.950 . S
H526 C538 0.950 . S
H527 C539 0.950 . S
C528 H520 0.950 . S
C528 C529 1.386 . S
C528 C530 1.391 . S
C529 C528 1.386 . S
C529 C533 1.393 1_554 S
C530 H522 0.950 . S
C530 C528 1.391 . S
C530 C531 1.400 . S
C531 C530 1.400 . S
C531 C532 1.398 1_554 S
C531 C537 1.491 . S
C532 H523 0.950 . S
C532 C531 1.398 1_556 S
C532 C533 1.391 . S
C533 H521 0.950 . S
C533 C529 1.393 1_556 S
C533 C532 1.391 . S
C534 H524 0.950 . S
C534 C535 1.386 1_556 S
C534 C536 1.391 . S
C535 C534 1.386 1_554 S
C535 C539 1.393 . S
C536 H525 0.950 . S
C536 C534 1.391 . S
C536 C537 1.400 1_556 S
C537 C531 1.491 . S
C537 C536 1.400 1_554 S
C537 C538 1.398 . S
C538 H526 0.950 . S
C538 C537 1.398 . S
C538 C539 1.391 . S
C539 H527 0.950 . S
C539 C535 1.393 . S
C539 C538 1.391 . S
H540 C548 0.950 . S
H541 C553 0.950 . S
H542 C550 0.950 . S
H543 C552 0.950 . S
H544 C554 0.950 . S
H545 C556 0.950 . S
H546 C558 0.950 . S
H547 C559 0.950 . S
C548 H540 0.950 . S
C548 C549 1.386 . S
C548 C550 1.391 . S
C549 C548 1.386 . S
C549 C553 1.393 1_554 S
C550 H542 0.950 . S
C550 C548 1.391 . S
C550 C551 1.400 . S
C551 C550 1.400 . S
C551 C552 1.398 1_554 S
C551 C557 1.491 1_545 S
C552 H543 0.950 . S
C552 C551 1.398 1_556 S
C552 C553 1.391 . S
C553 H541 0.950 . S
C553 C549 1.393 1_556 S
C553 C552 1.391 . S
C554 H544 0.950 . S
C554 C555 1.386 1_556 S
C554 C556 1.391 . S
C555 C554 1.386 1_554 S
C555 C559 1.393 . S
C556 H545 0.950 . S
C556 C554 1.391 . S
C556 C557 1.400 1_556 S
C557 C551 1.491 1_565 S
C557 C556 1.400 1_554 S
C557 C558 1.398 . S
C558 H546 0.950 . S
C558 C557 1.398 . S
C558 C559 1.391 . S
C559 H547 0.950 . S
C559 C555 1.393 . S
C559 C558 1.391 . S
H560 C568 0.950 . S
H561 C573 0.950 . S
H562 C570 0.950 . S
H563 C572 0.950 1_556 S
H564 C574 0.950 . S
H565 C576 0.950 . S
H566 C578 0.950 . S
H567 C579 0.950 . S
C568 H560 0.950 . S
C568 C569 1.386 . S
C568 C570 1.391 . S
C569 C568 1.386 . S
C569 C573 1.393 . S
C570 H562 0.950 . S
C570 C568 1.391 . S
C570 C571 1.400 1_554 S
C571 C570 1.400 1_556 S
C571 C572 1.398 1_556 S
C571 C577 1.491 . S
C572 H563 0.950 1_554 S
C572 C571 1.398 1_554 S
C572 C573 1.391 . S
C573 H561 0.950 . S
C573 C569 1.393 . S
C573 C572 1.391 . S
C574 H564 0.950 . S
C574 C575 1.386 . S
C574 C576 1.391 . S
C575 C574 1.386 . S
C575 C579 1.393 . S
C576 H565 0.950 . S
C576 C574 1.391 . S
C576 C577 1.400 . S
C577 C571 1.491 . S
C577 C576 1.400 . S
C577 C578 1.398 . S
C578 H566 0.950 . S
C578 C577 1.398 . S
C578 C579 1.391 . S
C579 H567 0.950 . S
C579 C575 1.393 . S
C579 C578 1.391 . S
H580 C588 0.950 . S
H581 C593 0.950 . S
H582 C590 0.950 . S
H583 C592 0.950 1_556 S
H584 C594 0.950 . S
H585 C596 0.950 . S
H586 C598 0.950 . S
H587 C599 0.950 . S
C588 H580 0.950 . S
C588 C589 1.386 . S
C588 C590 1.391 . S
C589 C588 1.386 . S
C589 C593 1.393 . S
C590 H582 0.950 . S
C590 C588 1.391 . S
C590 C591 1.400 1_554 S
C591 C590 1.400 1_556 S
C591 C592 1.398 1_556 S
C591 C597 1.491 . S
C592 H583 0.950 1_554 S
C592 C591 1.398 1_554 S
C592 C593 1.391 . S
C593 H581 0.950 . S
C593 C589 1.393 . S
C593 C592 1.391 . S
C594 H584 0.950 . S
C594 C595 1.386 . S
C594 C596 1.391 . S
C595 C594 1.386 . S
C595 C599 1.393 . S
C596 H585 0.950 . S
C596 C594 1.391 . S
C596 C597 1.400 . S
C597 C591 1.491 . S
C597 C596 1.400 . S
C597 C598 1.398 . S
C598 H586 0.950 . S
C598 C597 1.398 . S
C598 C599 1.391 . S
C599 H587 0.950 . S
C599 C595 1.393 . S
C599 C598 1.391 . S
H600 C608 0.950 . S
H601 C613 0.950 . S
H602 C610 0.950 . S
H603 C612 0.950 . S
H604 C614 0.950 . S
H605 C616 0.950 1_554 S
H606 C618 0.950 . S
H607 C619 0.950 . S
C608 H600 0.950 . S
C608 C609 1.386 . S
C608 C610 1.391 . S
C609 C608 1.386 . S
C609 C613 1.393 . S
C610 H602 0.950 . S
C610 C608 1.391 . S
C610 C611 1.400 . S
C611 C610 1.400 . S
C611 C612 1.398 . S
C611 C617 1.491 . S
C612 H603 0.950 . S
C612 C611 1.398 . S
C612 C613 1.391 . S
C613 H601 0.950 . S
C613 C609 1.393 . S
C613 C612 1.391 . S
C614 H604 0.950 . S
C614 C615 1.386 . S
C614 C616 1.391 . S
C615 C614 1.386 . S
C615 C619 1.393 . S
C616 H605 0.950 1_556 S
C616 C614 1.391 . S
C616 C617 1.400 1_556 S
C617 C611 1.491 . S
C617 C616 1.400 1_554 S
C617 C618 1.398 1_554 S
C618 H606 0.950 . S
C618 C617 1.398 1_556 S
C618 C619 1.391 . S
C619 H607 0.950 . S
C619 C615 1.393 . S
C619 C618 1.391 . S
H620 C628 0.950 . S
H621 C633 0.950 . S
H622 C630 0.950 . S
H623 C632 0.950 1_554 S
H624 C634 0.950 . S
H625 C636 0.950 . S
H626 C638 0.950 . S
H627 C639 0.950 . S
C628 H620 0.950 . S
C628 C629 1.386 . S
C628 C630 1.391 . S
C629 C628 1.386 . S
C629 C633 1.393 . S
C630 H622 0.950 . S
C630 C628 1.391 . S
C630 C631 1.400 1_556 S
C631 C630 1.400 1_554 S
C631 C632 1.398 1_554 S
C631 C637 1.491 . S
C632 H623 0.950 1_556 S
C632 C631 1.398 1_556 S
C632 C633 1.391 . S
C633 H621 0.950 . S
C633 C629 1.393 . S
C633 C632 1.391 . S
C634 H624 0.950 . S
C634 C635 1.386 . S
C634 C636 1.391 . S
C635 C634 1.386 . S
C635 C639 1.393 . S
C636 H625 0.950 . S
C636 C634 1.391 . S
C636 C637 1.400 . S
C637 C631 1.491 . S
C637 C636 1.400 . S
C637 C638 1.398 . S
C638 H626 0.950 . S
C638 C637 1.398 . S
C638 C639 1.391 . S
C639 H627 0.950 . S
C639 C635 1.393 . S
C639 C638 1.391 . S
H640 C648 0.950 . S
H641 C653 0.950 . S
H642 C650 0.950 . S
H643 C652 0.950 . S
H644 C654 0.950 . S
H645 C656 0.950 . S
H646 C658 0.950 . S
H647 C659 0.950 . S
C648 H640 0.950 . S
C648 C649 1.386 . S
C648 C650 1.391 . S
C649 C648 1.386 . S
C649 C653 1.393 . S
C650 H642 0.950 . S
C650 C648 1.391 . S
C650 C651 1.400 . S
C651 C650 1.400 . S
C651 C652 1.398 . S
C651 C657 1.491 . S
C652 H643 0.950 . S
C652 C651 1.398 . S
C652 C653 1.391 . S
C653 H641 0.950 . S
C653 C649 1.393 . S
C653 C652 1.391 . S
C654 H644 0.950 . S
C654 C655 1.386 . S
C654 C656 1.391 . S
C655 C654 1.386 . S
C655 C659 1.393 . S
C656 H645 0.950 . S
C656 C654 1.391 . S
C656 C657 1.400 . S
C657 C651 1.491 . S
C657 C656 1.400 . S
C657 C658 1.398 . S
C658 H646 0.950 . S
C658 C657 1.398 . S
C658 C659 1.391 . S
C659 H647 0.950 . S
C659 C655 1.393 . S
C659 C658 1.391 . S
H660 C668 0.950 . S
H661 C673 0.950 . S
H662 C670 0.950 . S
H663 C672 0.950 . S
H664 C674 0.950 . S
H665 C676 0.950 . S
H666 C678 0.950 . S
H667 C679 0.950 . S
C668 H660 0.950 . S
C668 C669 1.386 . S
C668 C670 1.391 . S
C669 C668 1.386 . S
C669 C673 1.393 . S
C670 H662 0.950 . S
C670 C668 1.391 . S
C670 C671 1.400 . S
C671 C670 1.400 . S
C671 C672 1.398 . S
C671 C677 1.491 . S
C672 H663 0.950 . S
C672 C671 1.398 . S
C672 C673 1.391 . S
C673 H661 0.950 . S
C673 C669 1.393 . S
C673 C672 1.391 . S
C674 H664 0.950 . S
C674 C675 1.386 . S
C674 C676 1.391 . S
C675 C674 1.386 . S
C675 C679 1.393 . S
C676 H665 0.950 . S
C676 C674 1.391 . S
C676 C677 1.400 . S
C677 C671 1.491 . S
C677 C676 1.400 . S
C677 C678 1.398 . S
C678 H666 0.950 . S
C678 C677 1.398 . S
C678 C679 1.391 . S
C679 H667 0.950 . S
C679 C675 1.393 . S
C679 C678 1.391 . S
H680 C688 0.950 . S
H681 C693 0.950 . S
H682 C690 0.950 . S
H683 C692 0.950 . S
H684 C694 0.950 . S
H685 C696 0.950 . S
H686 C698 0.950 . S
H687 C699 0.950 . S
C688 H680 0.950 . S
C688 C689 1.386 . S
C688 C690 1.391 . S
C689 C688 1.386 . S
C689 C693 1.393 . S
C690 H682 0.950 . S
C690 C688 1.391 . S
C690 C691 1.400 . S
C691 C690 1.400 . S
C691 C692 1.398 . S
C691 C697 1.491 . S
C692 H683 0.950 . S
C692 C691 1.398 . S
C692 C693 1.391 . S
C693 H681 0.950 . S
C693 C689 1.393 . S
C693 C692 1.391 . S
C694 H684 0.950 . S
C694 C695 1.386 . S
C694 C696 1.391 . S
C695 C694 1.386 . S
C695 C699 1.393 . S
C696 H685 0.950 . S
C696 C694 1.391 . S
C696 C697 1.400 . S
C697 C691 1.491 . S
C697 C696 1.400 . S
C697 C698 1.398 . S
C698 H686 0.950 . S
C698 C697 1.398 . S
C698 C699 1.391 . S
C699 H687 0.950 . S
C699 C695 1.393 . S
C699 C698 1.391 . S
H700 C708 0.950 . S
H701 C713 0.950 . S
H702 C710 0.950 . S
H703 C712 0.950 . S
H704 C714 0.950 . S
H705 C716 0.950 . S
H706 C718 0.950 . S
H707 C719 0.950 . S
C708 H700 0.950 . S
C708 C709 1.386 . S
C708 C710 1.391 . S
C709 C708 1.386 . S
C709 C713 1.393 . S
C710 H702 0.950 . S
C710 C708 1.391 . S
C710 C711 1.400 . S
C711 C710 1.400 . S
C711 C712 1.398 . S
C711 C717 1.491 . S
C712 H703 0.950 . S
C712 C711 1.398 . S
C712 C713 1.391 . S
C713 H701 0.950 . S
C713 C709 1.393 . S
C713 C712 1.391 . S
C714 H704 0.950 . S
C714 C715 1.386 . S
C714 C716 1.391 . S
C715 C714 1.386 . S
C715 C719 1.393 . S
C716 H705 0.950 . S
C716 C714 1.391 . S
C716 C717 1.400 . S
C717 C711 1.491 . S
C717 C716 1.400 . S
C717 C718 1.398 . S
C718 H706 0.950 . S
C718 C717 1.398 . S
C718 C719 1.391 . S
C719 H707 0.950 . S
C719 C715 1.393 . S
C719 C718 1.391 . S
H720 C728 0.950 . S
H721 C733 0.950 . S
H722 C730 0.950 . S
H723 C732 0.950 . S
H724 C734 0.950 . S
H725 C736 0.950 . S
H726 C738 0.950 . S
H727 C739 0.950 . S
C728 H720 0.950 . S
C728 C729 1.386 . S
C728 C730 1.391 . S
C729 C728 1.386 . S
C729 C733 1.393 . S
C730 H722 0.950 . S
C730 C728 1.391 . S
C730 C731 1.400 . S
C731 C730 1.400 . S
C731 C732 1.398 . S
C731 C737 1.491 1_455 S
C732 H723 0.950 . S
C732 C731 1.398 . S
C732 C733 1.391 . S
C733 H721 0.950 . S
C733 C729 1.393 . S
C733 C732 1.391 . S
C734 H724 0.950 . S
C734 C735 1.386 . S
C734 C736 1.391 . S
C735 C734 1.386 . S
C735 C739 1.393 . S
C736 H725 0.950 . S
C736 C734 1.391 . S
C736 C737 1.400 . S
C737 C731 1.491 1_655 S
C737 C736 1.400 . S
C737 C738 1.398 . S
C738 H726 0.950 . S
C738 C737 1.398 . S
C738 C739 1.391 . S
C739 H727 0.950 . S
C739 C735 1.393 . S
C739 C738 1.391 . S
H740 C748 0.950 . S
H741 C753 0.950 . S
H742 C750 0.950 . S
H743 C752 0.950 . S
H744 C754 0.950 . S
H745 C756 0.950 . S
H746 C758 0.950 . S
H747 C759 0.950 . S
C748 H740 0.950 . S
C748 C749 1.386 . S
C748 C750 1.391 . S
C749 C748 1.386 . S
C749 C753 1.393 . S
C750 H742 0.950 . S
C750 C748 1.391 . S
C750 C751 1.400 . S
C751 C750 1.400 . S
C751 C752 1.398 . S
C751 C757 1.491 1_655 S
C752 H743 0.950 . S
C752 C751 1.398 . S
C752 C753 1.391 . S
C753 H741 0.950 . S
C753 C749 1.393 . S
C753 C752 1.391 . S
C754 H744 0.950 . S
C754 C755 1.386 . S
C754 C756 1.391 . S
C755 C754 1.386 . S
C755 C759 1.393 . S
C756 H745 0.950 . S
C756 C754 1.391 . S
C756 C757 1.400 . S
C757 C751 1.491 1_455 S
C757 C756 1.400 . S
C757 C758 1.398 . S
C758 H746 0.950 . S
C758 C757 1.398 . S
C758 C759 1.391 . S
C759 H747 0.950 . S
C759 C755 1.393 . S
C759 C758 1.391 . S
H760 C768 0.950 . S
H761 C773 0.950 . S
H762 C770 0.950 . S
H763 C772 0.950 . S
H764 C774 0.950 . S
H765 C776 0.950 . S
H766 C778 0.950 . S
H767 C779 0.950 . S
C768 H760 0.950 . S
C768 C769 1.386 . S
C768 C770 1.391 . S
C769 C768 1.386 . S
C769 C773 1.393 . S
C770 H762 0.950 . S
C770 C768 1.391 . S
C770 C771 1.400 . S
C771 C770 1.400 . S
C771 C772 1.398 . S
C771 C777 1.491 . S
C772 H763 0.950 . S
C772 C771 1.398 . S
C772 C773 1.391 . S
C773 H761 0.950 . S
C773 C769 1.393 . S
C773 C772 1.391 . S
C774 H764 0.950 . S
C774 C775 1.386 . S
C774 C776 1.391 . S
C775 C774 1.386 . S
C775 C779 1.393 . S
C776 H765 0.950 . S
C776 C774 1.391 . S
C776 C777 1.400 . S
C777 C771 1.491 . S
C777 C776 1.400 . S
C777 C778 1.398 . S
C778 H766 0.950 . S
C778 C777 1.398 . S
C778 C779 1.391 . S
C779 H767 0.950 . S
C779 C775 1.393 . S
C779 C778 1.391 . S
H780 C788 0.950 . S
H781 C793 0.950 . S
H782 C790 0.950 . S
H783 C792 0.950 . S
H784 C794 0.950 . S
H785 C796 0.950 . S
H786 C798 0.950 . S
H787 C799 0.950 . S
C788 H780 0.950 . S
C788 C789 1.386 . S
C788 C790 1.391 . S
C789 C788 1.386 . S
C789 C793 1.393 . S
C790 H782 0.950 . S
C790 C788 1.391 . S
C790 C791 1.400 . S
C791 C790 1.400 . S
C791 C792 1.398 . S
C791 C797 1.491 . S
C792 H783 0.950 . S
C792 C791 1.398 . S
C792 C793 1.391 . S
C793 H781 0.950 . S
C793 C789 1.393 . S
C793 C792 1.391 . S
C794 H784 0.950 . S
C794 C795 1.386 . S
C794 C796 1.391 . S
C795 C794 1.386 . S
C795 C799 1.393 . S
C796 H785 0.950 . S
C796 C794 1.391 . S
C796 C797 1.400 . S
C797 C791 1.491 . S
C797 C796 1.400 . S
C797 C798 1.398 . S
C798 H786 0.950 . S
C798 C797 1.398 . S
C798 C799 1.391 . S
C799 H787 0.950 . S
C799 C795 1.393 . S
C799 C798 1.391 . S
C329 C6 1.673 . S
C335 C295 1.673 . S
C349 C255 1.673 . S
C355 C46 1.673 . S
C369 C206 1.677 . S
C375 C95 1.677 . S
C389 C166 1.679 . S
C395 C135 1.679 . S
C409 C89 1.556 . S
C415 C9 1.576 . S
C429 C49 1.561 . S
C435 C129 1.539 . S
C449 C138 1.571 . S
C455 C58 1.549 . S
C469 C98 1.558 . S
C475 C18 1.537 . S
C489 C169 1.443 . S
C495 C249 1.448 . S
C509 C209 1.441 . S
C515 C289 1.435 . S
C529 C298 1.447 . S
C535 C218 1.450 . S
C549 C258 1.450 . S
C555 C178 1.452 . S
C569 C19 2.058 . S
C575 C10 2.058 . S
C589 C59 2.067 . S
C595 C50 2.067 . S
C609 C99 2.057 . S
C615 C90 2.057 . S
C629 C130 2.067 . S
C635 C139 2.067 . S
C649 C170 2.056 . S
C655 C179 2.056 . S
C669 C219 2.068 . S
C675 C210 2.068 . S
C689 C250 2.062 . S
C695 C259 2.062 . S
C709 C290 2.068 . S
C715 C299 2.068 . S
C729 C15 2.319 . S
C735 C55 2.308 . S
C749 C126 2.306 . S
C755 C86 2.320 . S
C769 C175 2.312 . S
C775 C215 2.318 . S
C789 C286 2.315 . S
C795 C246 2.315 . S
