# Generated by pormake.
# Topology kag, (6)-cn, num edge types: 1
# Building blocks:
#     Node 0, Type 0, BuildingBlock: VOLQOD_clean_sbu_1, # of connection points: 6
#     Node 1, Type 0, BuildingBlock: VOLQOD_clean_sbu_1, # of connection points: 6
#     Node 2, Type 0, BuildingBlock: VOLQOD_clean_sbu_1, # of connection points: 6
#     Edge 3, Type (0, 0), BuildingBlock: FUNLAD_clean_linker_1, # of connection points: 2
#     Edge 4, Type (0, 0), BuildingBlock: FUNLAD_clean_linker_1, # of connection points: 2
#     Edge 5, Type (0, 0), BuildingBlock: FUNLAD_clean_linker_1, # of connection points: 2
#     Edge 6, Type (0, 0), BuildingBlock: FUNLAD_clean_linker_1, # of connection points: 2
#     Edge 7, Type (0, 0), BuildingBlock: FUNLAD_clean_linker_1, # of connection points: 2
#     Edge 8, Type (0, 0), BuildingBlock: FUNLAD_clean_linker_1, # of connection points: 2
#     Edge 9, Type (0, 0), BuildingBlock: FUNLAD_clean_linker_1, # of connection points: 2
#     Edge 10, Type (0, 0), BuildingBlock: FUNLAD_clean_linker_1, # of connection points: 2
#     Edge 11, Type (0, 0), BuildingBlock: FUNLAD_clean_linker_1, # of connection points: 2
# Relax obj value: 0.313
# Max RMSD: 0.246
# Mean RMSD: 0.245
data_MOF--net-kag--node1-VOLQOD_clean_sbu_1--edge1-FUNLAD_clean_linker_1
_symmetry_space_group_name_H-M    P1
_symmetry_Int_Tables_number       1
_symmetry_cell_setting            triclinic
loop_
_symmetry_equiv_pos_as_xyz
'x, y, z'
_cell_length_a     33.082309
_cell_length_b     32.571118
_cell_length_c     17.690508
_cell_angle_alpha  90.745093
_cell_angle_beta   89.709587
_cell_angle_gamma 120.41624
loop_
_atom_site_label
_atom_site_type_symbol
_atom_site_fract_x
_atom_site_fract_y
_atom_site_fract_z
_atom_type_partial_charge
O0 O -0.00143 0.51154 0.86782 0.0
Zn1 Zn 0.00425 0.4944 0.97403 0.0
O2 O 0.0053 0.53965 0.04732 0.0
Zn3 Zn 0.06448 0.57051 0.10211 0.0
Zn4 Zn -0.00303 0.5862 0.99307 0.0
Zn5 Zn 0.95463 0.50767 0.11953 0.0
O6 O 0.05481 0.5551 0.21303 0.0
O7 O 0.97777 0.52244 0.22634 0.0
O8 O 0.06445 0.49494 0.97693 0.0
O9 O 0.10937 0.55068 0.0611 0.0
O10 O 0.09233 0.6414 0.09774 0.0
O11 O 0.04176 0.65196 0.03027 0.0
O12 O 0.93299 0.57504 0.00995 0.0
O13 O 0.95302 0.4279 0.99584 0.0
O14 O 0.90406 0.524 0.10463 0.0
O15 O 0.92447 0.43729 0.10464 0.0
C16 C 0.0012 0.54849 0.83931 0.0
C17 C 0.01851 0.53889 0.25445 0.0
C18 C 0.0785 0.66829 0.07057 0.0
C19 C 0.10313 0.5191 0.0119 0.0
C20 C 0.90037 0.55053 0.05643 0.0
C21 C 0.92595 0.4108 0.05245 0.0
O22 O 0.00338 0.58181 0.88056 0.0
O23 O 0.53805 -0.00132 0.28832 0.0
Zn24 Zn 0.54982 -0.0028 0.1767 0.0
O25 O 0.50534 0.00723 0.11885 0.0
Zn26 Zn 0.46404 0.95066 0.06134 0.0
Zn27 Zn 0.4684 0.02344 0.18659 0.0
Zn28 Zn 0.53873 0.05705 0.0463 0.0
O29 O 0.46073 0.96351 0.9514 0.0
O30 O 0.52481 0.03419 0.93867 0.0
O31 O 0.54651 0.93531 0.14546 0.0
O32 O 0.48721 0.9053 0.06383 0.0
O33 O 0.3995 0.91948 0.10245 0.0
O34 O 0.40016 0.97315 0.1822 0.0
O35 O 0.47196 0.08471 0.15595 0.0
O36 O 0.61594 0.05053 0.15901 0.0
O37 O 0.51896 0.10529 0.05604 0.0
O38 O 0.60729 0.08945 0.06409 0.0
C39 C 0.51441 0.01272 0.32643 0.0
C40 C 0.48989 -0.00269 0.91017 0.0
C41 C 0.37871 0.93322 0.14772 0.0
C42 C 0.5197 0.90316 0.0983 0.0
C43 C 0.49286 0.11233 0.10094 0.0
C44 C 0.63307 0.0838 0.1109 0.0
O45 O 0.48836 0.02589 0.29476 0.0
O46 O 0.49527 0.50922 0.99919 0.0
Zn47 Zn 0.51663 0.52946 0.89348 0.0
O48 O 0.47471 0.48366 0.81884 0.0
Zn49 Zn 0.50904 0.46029 0.7597 0.0
Zn50 Zn 0.42255 0.43134 0.87235 0.0
Zn51 Zn 0.45145 0.51416 0.75145 0.0
O52 O 0.50511 0.46928 0.64842 0.0
O53 O 0.46561 0.50777 0.64257 0.0
O54 O 0.5806 0.5391 0.88648 0.0
O55 O 0.57709 0.49333 0.7897 0.0
O56 O 0.48393 0.39108 0.78069 0.0
O57 O 0.42278 0.37047 0.85619 0.0
O58 O 0.36132 0.42531 0.84384 0.0
O59 O 0.52043 0.59168 0.88176 0.0
O60 O 0.38182 0.48368 0.76161 0.0
O61 O 0.47743 0.58351 0.78052 0.0
C62 C 0.45882 0.47419 0.02694 0.0
C63 C 0.4868 0.4887 0.61061 0.0
C64 C 0.4501 0.36035 0.82017 0.0
C65 C 0.59979 0.52281 0.84262 0.0
C66 C 0.35095 0.44944 0.80033 0.0
C67 C 0.50357 0.60849 0.83523 0.0
O68 O 0.42739 0.44209 0.985 0.0
H69 H -0.00467 0.58019 0.7335 0.0
C70 C 0.00105 0.55276 0.75663 0.0
H71 H 0.01335 0.49636 0.73245 0.0
H72 H 0.92556 0.44665 0.40739 0.0
H73 H 0.87374 0.37495 0.47604 0.0
H74 H 0.88038 0.37189 0.61441 0.0
H75 H 0.93923 0.44031 0.68475 0.0
C76 C 0.00805 0.52415 0.70979 0.0
C77 C 0.00462 0.52653 0.62637 0.0
C78 C 0.96941 0.48637 0.58634 0.0
C79 C 0.96484 0.48849 0.50688 0.0
C80 C 0.9301 0.44742 0.468 0.0
C81 C 0.90014 0.40591 0.50668 0.0
C82 C 0.90392 0.40416 0.58454 0.0
C83 C 0.93802 0.44377 0.6242 0.0
H84 H 0.05767 0.54628 0.35917 0.0
C85 C 0.02418 0.53935 0.33693 0.0
H86 H 0.95596 0.52518 0.36295 0.0
H87 H 0.08113 0.60714 0.68332 0.0
H88 H 0.13018 0.68037 0.61606 0.0
H89 H 0.11603 0.6873 0.48131 0.0
H90 H 0.05373 0.6206 0.41263 0.0
C91 C -0.0103 0.53257 0.38469 0.0
C92 C -0.00509 0.53106 0.46783 0.0
C93 C 0.02962 0.57155 0.50807 0.0
C94 C 0.03566 0.56866 0.58693 0.0
C95 C 0.07319 0.60822 0.62443 0.0
C96 C 0.10192 0.65039 0.58633 0.0
C97 C 0.09411 0.65421 0.51039 0.0
C98 C 0.05842 0.61542 0.47146 0.0
H99 H 0.54607 0.01053 0.43437 0.0
C100 C 0.5177 0.01351 0.40944 0.0
H101 H 0.45761 0.01885 0.43022 0.0
H102 H 0.51606 0.94818 0.74767 0.0
H103 H 0.50205 0.87842 0.67571 0.0
H104 H 0.47881 0.86903 0.54145 0.0
H105 H 0.47116 0.93024 0.47795 0.0
C106 C 0.48603 0.01573 0.45456 0.0
C107 C 0.49014 0.01632 0.53846 0.0
C108 C 0.4909 0.97843 0.57601 0.0
C109 C 0.50063 0.98208 0.65476 0.0
C110 C 0.50589 0.94599 0.68913 0.0
C111 C 0.49834 0.90586 0.64828 0.0
C112 C 0.48553 0.90071 0.57263 0.0
C113 C 0.48176 0.9364 0.53665 0.0
H114 H 0.45034 0.96323 0.80567 0.0
C115 C 0.48242 0.99335 0.82782 0.0
H116 H 0.54568 0.05615 0.80147 0.0
H117 H 0.48826 0.09406 0.48501 0.0
H118 H 0.4944 0.15996 0.55948 0.0
H119 H 0.50447 0.16289 0.69787 0.0
H120 H 0.50914 0.10027 0.76248 0.0
C121 C 0.51402 0.02525 0.77995 0.0
C122 C 0.50533 0.0216 0.69709 0.0
C123 C 0.50169 0.05804 0.66039 0.0
C124 C 0.49465 0.05571 0.58086 0.0
C125 C 0.49269 0.09344 0.54542 0.0
C126 C 0.49626 0.1316 0.5875 0.0
C127 C 0.50201 0.1333 0.66538 0.0
C128 C 0.50477 0.09712 0.70171 0.0
H129 H 0.51534 0.48015 0.50269 0.0
C130 C 0.49016 0.48841 0.52771 0.0
H131 H 0.43669 0.5042 0.50715 0.0
H132 H 0.49953 0.58237 0.17831 0.0
H133 H 0.50884 0.65182 0.24585 0.0
H134 H 0.49972 0.65105 0.38439 0.0
H135 H 0.48061 0.5806 0.45602 0.0
C136 C 0.4619 0.49579 0.48278 0.0
C137 C 0.46605 0.4954 0.39902 0.0
C138 C 0.47797 0.53722 0.35825 0.0
C139 C 0.48435 0.53805 0.27866 0.0
C140 C 0.49515 0.57996 0.23903 0.0
C141 C 0.50049 0.62012 0.27707 0.0
C142 C 0.49528 0.61965 0.35503 0.0
C143 C 0.48421 0.57886 0.39545 0.0
H144 H 0.41845 0.44411 0.1316 0.0
C145 C 0.45233 0.47073 0.10941 0.0
H146 H 0.52082 0.52633 0.1355 0.0
H147 H 0.43391 0.40632 0.45715 0.0
H148 H 0.42848 0.33811 0.39086 0.0
H149 H 0.44936 0.34283 0.25592 0.0
H150 H 0.4743 0.41528 0.1861 0.0
C151 C 0.48708 0.49913 0.15719 0.0
C152 C 0.47968 0.49738 0.24026 0.0
C153 C 0.4681 0.45562 0.2811 0.0
C154 C 0.45938 0.45401 0.36006 0.0
C155 C 0.44379 0.41053 0.39818 0.0
C156 C 0.44007 0.3709 0.36062 0.0
C157 C 0.45158 0.37348 0.28459 0.0
C158 C 0.46548 0.41523 0.24501 0.0
H159 H 0.17182 0.5251 0.03213 0.0
C160 C 0.14143 0.50988 0.995 0.0
H161 H 0.10879 0.46777 0.89769 0.0
H162 H 0.33399 0.52558 0.88038 0.0
H163 H 0.35323 0.60774 0.8772 0.0
H164 H 0.2914 0.62859 0.88838 0.0
H165 H 0.21014 0.56728 0.90433 0.0
C166 C 0.13934 0.48341 0.93451 0.0
C167 C 0.17612 0.47122 0.91856 0.0
C168 C 0.22296 0.50749 0.90407 0.0
C169 C 0.25806 0.49526 0.89219 0.0
C170 C 0.30533 0.53242 0.88487 0.0
C171 C 0.31702 0.57992 0.8838 0.0
C172 C 0.28225 0.59166 0.89042 0.0
C173 C 0.23573 0.55605 0.90031 0.0
H174 H 0.29393 0.46006 0.76134 0.0
C175 C 0.3045 0.44463 0.80575 0.0
H176 H 0.29264 0.41989 0.91828 0.0
H177 H 0.08969 0.39292 0.94565 0.0
H178 H 0.0699 0.3104 0.9412 0.0
H179 H 0.13002 0.28911 0.91161 0.0
H180 H 0.21049 0.35042 0.88694 0.0
C181 C 0.28165 0.43368 0.87202 0.0
C182 C 0.24545 0.44658 0.88834 0.0
C183 C 0.19861 0.41037 0.90151 0.0
C184 C 0.16389 0.42268 0.91722 0.0
C185 C 0.11744 0.38573 0.93203 0.0
C186 C 0.10558 0.33814 0.92991 0.0
C187 C 0.13943 0.32615 0.91334 0.0
C188 C 0.18547 0.36169 0.89932 0.0
H189 H 0.70248 0.12192 0.16604 0.0
C190 C 0.68303 0.12016 0.11555 0.0
H191 H 0.68275 0.15383 0.0146 0.0
H192 H 0.80474 0.36055 0.13962 0.0
H193 H 0.72729 0.35101 0.1444 0.0
H194 H 0.65677 0.27235 0.12261 0.0
H195 H 0.66345 0.20298 0.09514 0.0
C196 C 0.7025 0.15479 0.0642 0.0
C197 C 0.74507 0.20058 0.0826 0.0
C198 C 0.74029 0.24051 0.1002 0.0
C199 C 0.78074 0.28551 0.11405 0.0
C200 C 0.77516 0.32522 0.12952 0.0
C201 C 0.73085 0.32031 0.13241 0.0
C202 C 0.69117 0.27607 0.12003 0.0
C203 C 0.69558 0.23653 0.10411 0.0
H204 H 0.88695 0.33875 0.00251 0.0
C205 C 0.89296 0.35934 0.05441 0.0
H206 H 0.87277 0.35883 0.16801 0.0
H207 H 0.7657 0.13066 0.05132 0.0
H208 H 0.84318 0.13951 0.05103 0.0
H209 H 0.91342 0.21723 0.08005 0.0
H210 H 0.9066 0.28666 0.10887 0.0
C211 C 0.86754 0.3384 0.11621 0.0
C212 C 0.82571 0.29026 0.11045 0.0
C213 C 0.83036 0.24993 0.09611 0.0
C214 C 0.78986 0.20496 0.08133 0.0
C215 C 0.79534 0.16547 0.06438 0.0
C216 C 0.83959 0.1701 0.06385 0.0
C217 C 0.87915 0.21389 0.08004 0.0
C218 C 0.8748 0.25348 0.09608 0.0
H219 H 0.5536 0.85983 0.11159 0.0
C220 C 0.52799 0.86385 0.07927 0.0
H221 H 0.48012 0.8383 0.98771 0.0
H222 H 0.61093 0.74979 0.8795 0.0
H223 H 0.67336 0.83186 0.86455 0.0
H224 H 0.66315 0.89826 0.90845 0.0
H225 H 0.59083 0.88313 0.9681 0.0
C226 C 0.50609 0.83482 0.01993 0.0
C227 C 0.51401 0.79553 0.99725 0.0
C228 C 0.55654 0.80534 0.96192 0.0
C229 C 0.56216 0.76717 0.93532 0.0
C230 C 0.60488 0.7776 0.90044 0.0
C231 C 0.64092 0.82449 0.89141 0.0
C232 C 0.63519 0.86187 0.91621 0.0
C233 C 0.59352 0.85265 0.95078 0.0
H234 H 0.49055 0.66772 0.8161 0.0
C235 C 0.50909 0.65552 0.85143 0.0
H236 H 0.54907 0.66811 0.95134 0.0
H237 H 0.42842 0.76484 0.06329 0.0
H238 H 0.36631 0.68281 0.07836 0.0
H239 H 0.37651 0.61658 0.03355 0.0
H240 H 0.44846 0.63196 0.97238 0.0
C241 C 0.53062 0.67982 0.91487 0.0
C242 C 0.52501 0.71966 0.9428 0.0
C243 C 0.48279 0.70981 0.9792 0.0
C244 C 0.47715 0.74788 0.00589 0.0
C245 C 0.43452 0.73722 0.0416 0.0
C246 C 0.39863 0.69029 0.05092 0.0
C247 C 0.40435 0.65301 0.02565 0.0
C248 C 0.44584 0.6624 0.9903 0.0
H249 H 0.82994 0.53349 0.09486 0.0
C250 C 0.85602 0.55034 0.05066 0.0
H251 H 0.87186 0.58373 0.94418 0.0
H252 H 0.63888 0.46598 0.95376 0.0
H253 H 0.64294 0.39416 0.96669 0.0
H254 H 0.71924 0.39845 0.97925 0.0
H255 H 0.79149 0.47441 0.98119 0.0
C256 C 0.84592 0.5667 0.98852 0.0
C257 C 0.79992 0.56312 0.97742 0.0
C258 C 0.75838 0.51791 0.97147 0.0
C259 C 0.71479 0.51522 0.95888 0.0
C260 C 0.67324 0.46996 0.9591 0.0
C261 C 0.67502 0.42843 0.96704 0.0
C262 C 0.71792 0.43086 0.97449 0.0
C263 C 0.75922 0.47491 0.97635 0.0
H264 H 0.66435 0.52093 0.81947 0.0
C265 C 0.64783 0.53403 0.85854 0.0
H266 H 0.65305 0.56771 0.96436 0.0
H267 H 0.87275 0.65524 0.98976 0.0
H268 H 0.86851 0.72676 0.97276 0.0
H269 H 0.79331 0.72165 0.94283 0.0
H270 H 0.72183 0.64494 0.93032 0.0
C271 C 0.66892 0.5544 0.92441 0.0
C272 C 0.71346 0.55745 0.94628 0.0
C273 C 0.75474 0.6025 0.95304 0.0
C274 C 0.79808 0.60537 0.96909 0.0
C275 C 0.8389 0.65091 0.97642 0.0
C276 C 0.83696 0.69228 0.96703 0.0
C277 C 0.79462 0.68941 0.95026 0.0
C278 C 0.75387 0.64515 0.94324 0.0
H279 H 0.08983 0.74118 0.07092 0.0
C280 C 0.1047 0.71958 0.08766 0.0
H281 H 0.1605 0.71804 0.14153 0.0
H282 H 0.2774 0.94335 0.05774 0.0
H283 H 0.25089 0.92244 0.92683 0.0
H284 H 0.19015 0.84031 0.89233 0.0
H285 H 0.15502 0.7794 0.9871 0.0
C286 C 0.14637 0.73986 0.12239 0.0
C287 C 0.17388 0.79133 0.14111 0.0
C288 C 0.19363 0.82591 0.08326 0.0
C289 C 0.22996 0.87264 0.10202 0.0
C290 C 0.25005 0.90718 0.04483 0.0
C291 C 0.2352 0.89564 0.97009 0.0
C292 C 0.20092 0.84943 0.95075 0.0
C293 C 0.1806 0.81472 0.00623 0.0
H294 H 0.31303 0.86649 0.13169 0.0
C295 C 0.32815 0.90215 0.15612 0.0
H296 H 0.31264 0.95196 0.20803 0.0
H297 H 0.13445 0.73765 0.26727 0.0
H298 H 0.16063 0.76156 0.39729 0.0
H299 H 0.22743 0.84169 0.42674 0.0
H300 H 0.26813 0.89874 0.3258 0.0
C301 C 0.29952 0.9165 0.18433 0.0
C302 C 0.2486 0.88314 0.17602 0.0
C303 C 0.22458 0.8513 0.23496 0.0
C304 C 0.18677 0.80514 0.21761 0.0
C305 C 0.16395 0.77307 0.27745 0.0
C306 C 0.17853 0.78641 0.35212 0.0
C307 C 0.21615 0.83156 0.36872 0.0
C308 C 0.23924 0.86378 0.31079 0.0
H309 H 0.47394 0.30883 0.80614 0.0
C310 C 0.44868 0.31536 0.83539 0.0
H311 H 0.40194 0.2963 0.92744 0.0
H312 H 0.45909 0.1259 0.90231 0.0
H313 H 0.41546 0.10205 0.78473 0.0
H314 H 0.38183 0.14824 0.73281 0.0
H315 H 0.39178 0.21873 0.79844 0.0
C316 C 0.42531 0.28853 0.89497 0.0
C317 C 0.44063 0.25738 0.92962 0.0
C318 C 0.43382 0.21593 0.89124 0.0
C319 C 0.45295 0.18922 0.92151 0.0
C320 C 0.4457 0.1479 0.88183 0.0
C321 C 0.42053 0.13363 0.8143 0.0
C322 C 0.40163 0.15966 0.78504 0.0
C323 C 0.40786 0.2002 0.82302 0.0
H324 H 0.45588 0.15234 0.11727 0.0
C325 C 0.48184 0.14962 0.08307 0.0
H326 H 0.52335 0.17202 0.98432 0.0
H327 H 0.45975 0.33521 0.01813 0.0
H328 H 0.50483 0.36006 0.13413 0.0
H329 H 0.53889 0.31422 0.18568 0.0
H330 H 0.52816 0.24329 0.12115 0.0
C331 C 0.49874 0.17587 0.0204 0.0
C332 C 0.47837 0.20381 0.99055 0.0
C333 C 0.48485 0.24505 0.02935 0.0
C334 C 0.46558 0.27168 0.99917 0.0
C335 C 0.47325 0.31329 0.03841 0.0
C336 C 0.49919 0.3281 0.10516 0.0
C337 C 0.51837 0.3023 0.13417 0.0
C338 C 0.51162 0.26139 0.09679 0.0
loop_
_geom_bond_atom_site_label_1
_geom_bond_atom_site_label_2
_geom_bond_distance
_geom_bond_site_symmetry_2
_ccdc_geom_bond_type
O0 Zn1 1.953 . S
O0 C16 1.225 . S
Zn1 O0 1.953 . S
Zn1 O2 1.949 1_556 S
Zn1 O8 1.919 . S
Zn1 O13 1.924 1_455 S
O2 Zn1 1.949 1_554 S
O2 Zn3 1.923 . S
O2 Zn4 1.950 1_454 S
O2 Zn5 1.945 1_455 S
Zn3 O2 1.923 . S
Zn3 O6 1.933 . S
Zn3 O9 1.941 . S
Zn3 O10 1.965 . S
Zn4 O2 1.950 1_656 S
Zn4 O11 1.938 1_655 S
Zn4 O12 1.906 . S
Zn4 O22 1.953 . S
Zn5 O2 1.945 1_655 S
Zn5 O7 1.932 . S
Zn5 O14 1.977 . S
Zn5 O15 1.910 . S
O6 Zn3 1.933 . S
O6 C17 1.226 . S
O7 Zn5 1.932 . S
O7 C17 1.307 1_655 S
O8 Zn1 1.919 . S
O8 C19 1.253 1_556 S
O9 Zn3 1.941 . S
O9 C19 1.283 . S
O10 Zn3 1.965 . S
O10 C18 1.303 1_554 S
O11 Zn4 1.938 1_455 S
O11 C18 1.247 . S
O12 Zn4 1.906 . S
O12 C20 1.304 1_556 S
O13 Zn1 1.924 1_655 S
O13 C21 1.311 . S
O14 Zn5 1.977 . S
O14 C20 1.272 . S
O15 Zn5 1.910 . S
O15 C21 1.231 1_554 S
C16 O0 1.225 . S
C16 O22 1.298 1_455 S
C17 O6 1.226 . S
C17 O7 1.307 1_455 S
C18 O10 1.303 1_556 S
C18 O11 1.247 . S
C19 O8 1.253 1_554 S
C19 O9 1.283 . S
C20 O12 1.304 1_554 S
C20 O14 1.272 . S
C21 O13 1.311 . S
C21 O15 1.231 1_556 S
O22 Zn4 1.953 . S
O22 C16 1.298 1_655 S
O23 Zn24 1.953 . S
O23 C39 1.225 . S
Zn24 O23 1.953 . S
Zn24 O25 1.945 1_554 S
Zn24 O31 1.919 1_545 S
Zn24 O36 1.924 . S
O25 Zn24 1.945 1_556 S
O25 Zn26 1.927 1_545 S
O25 Zn27 1.946 1_556 S
O25 Zn28 1.949 . S
Zn26 O25 1.927 1_565 S
Zn26 O29 1.933 . S
Zn26 O32 1.941 . S
Zn26 O33 1.965 . S
Zn27 O25 1.946 1_554 S
Zn27 O34 1.938 1_545 S
Zn27 O35 1.906 . S
Zn27 O45 1.953 . S
Zn28 O25 1.949 . S
Zn28 O30 1.932 . S
Zn28 O37 1.977 . S
Zn28 O38 1.910 . S
O29 Zn26 1.933 . S
O29 C40 1.226 1_565 S
O30 Zn28 1.932 . S
O30 C40 1.307 . S
O31 Zn24 1.919 1_565 S
O31 C42 1.253 1_554 S
O32 Zn26 1.941 . S
O32 C42 1.283 . S
O33 Zn26 1.965 . S
O33 C41 1.303 1_556 S
O34 Zn27 1.938 1_565 S
O34 C41 1.247 . S
O35 Zn27 1.906 . S
O35 C43 1.304 1_554 S
O36 Zn24 1.924 . S
O36 C44 1.311 . S
O37 Zn28 1.977 . S
O37 C43 1.272 . S
O38 Zn28 1.910 . S
O38 C44 1.231 1_556 S
C39 O23 1.225 . S
C39 O45 1.298 . S
C40 O29 1.226 1_545 S
C40 O30 1.307 . S
C41 O33 1.303 1_554 S
C41 O34 1.247 . S
C42 O31 1.253 1_556 S
C42 O32 1.283 . S
C43 O35 1.304 1_556 S
C43 O37 1.272 . S
C44 O36 1.311 . S
C44 O38 1.231 1_554 S
O45 Zn27 1.953 . S
O45 C39 1.298 . S
O46 Zn47 1.953 . S
O46 C62 1.225 . S
Zn47 O46 1.953 . S
Zn47 O48 1.944 1_554 S
Zn47 O54 1.919 . S
Zn47 O59 1.924 . S
O48 Zn47 1.944 1_556 S
O48 Zn49 1.927 . S
O48 Zn50 1.946 1_556 S
O48 Zn51 1.949 . S
Zn49 O48 1.927 . S
Zn49 O52 1.933 . S
Zn49 O55 1.941 . S
Zn49 O56 1.965 . S
Zn50 O48 1.946 1_554 S
Zn50 O57 1.938 . S
Zn50 O58 1.906 . S
Zn50 O68 1.953 . S
Zn51 O48 1.949 . S
Zn51 O53 1.932 . S
Zn51 O60 1.977 . S
Zn51 O61 1.910 . S
O52 Zn49 1.933 . S
O52 C63 1.226 . S
O53 Zn51 1.932 . S
O53 C63 1.307 . S
O54 Zn47 1.919 . S
O54 C65 1.253 1_554 S
O55 Zn49 1.941 . S
O55 C65 1.283 . S
O56 Zn49 1.965 . S
O56 C64 1.303 1_556 S
O57 Zn50 1.938 . S
O57 C64 1.247 . S
O58 Zn50 1.906 . S
O58 C66 1.304 1_554 S
O59 Zn47 1.924 . S
O59 C67 1.311 . S
O60 Zn51 1.977 . S
O60 C66 1.272 . S
O61 Zn51 1.910 . S
O61 C67 1.231 1_556 S
C62 O46 1.225 . S
C62 O68 1.298 . S
C63 O52 1.226 . S
C63 O53 1.307 . S
C64 O56 1.303 1_554 S
C64 O57 1.247 . S
C65 O54 1.253 1_556 S
C65 O55 1.283 . S
C66 O58 1.304 1_556 S
C66 O60 1.272 . S
C67 O59 1.311 . S
C67 O61 1.231 1_554 S
O68 Zn50 1.953 . S
O68 C62 1.298 . S
H69 C70 0.951 1_655 S
C70 H69 0.951 1_455 S
C70 C76 1.265 . S
H71 C76 0.950 . S
H72 C80 0.949 . S
H73 C81 0.950 . S
H74 C82 0.951 . S
H75 C83 0.951 1_455 S
C76 C70 1.265 . S
C76 H71 0.950 . S
C76 C77 1.478 . S
C77 C76 1.478 . S
C77 C78 1.397 . S
C77 C94 1.394 . S
C78 C77 1.397 . S
C78 C79 1.438 1_455 S
C78 C83 1.429 1_455 S
C79 C78 1.438 1_655 S
C79 C80 1.428 . S
C79 C92 1.394 . S
C80 H72 0.949 . S
C80 C79 1.428 . S
C80 C81 1.345 . S
C81 H73 0.950 . S
C81 C80 1.345 . S
C81 C82 1.424 . S
C82 H74 0.951 . S
C82 C81 1.424 . S
C82 C83 1.347 . S
C83 H75 0.951 1_655 S
C83 C78 1.429 1_655 S
C83 C82 1.347 . S
H84 C85 0.951 . S
C85 H84 0.951 . S
C85 C91 1.265 1_455 S
H86 C91 0.950 . S
H87 C95 0.949 . S
H88 C96 0.950 . S
H89 C97 0.951 . S
H90 C98 0.951 . S
C91 C85 1.265 1_655 S
C91 H86 0.950 . S
C91 C92 1.478 . S
C92 C79 1.394 . S
C92 C91 1.478 . S
C92 C93 1.397 1_655 S
C93 C92 1.397 1_455 S
C93 C94 1.438 . S
C93 C98 1.429 . S
C94 C77 1.394 . S
C94 C93 1.438 . S
C94 C95 1.428 . S
C95 H87 0.949 . S
C95 C94 1.428 . S
C95 C96 1.345 . S
C96 H88 0.950 . S
C96 C95 1.345 . S
C96 C97 1.424 . S
C97 H89 0.951 . S
C97 C96 1.424 . S
C97 C98 1.347 . S
C98 H90 0.951 . S
C98 C93 1.429 . S
C98 C97 1.347 . S
H99 C100 0.951 . S
C100 H99 0.951 . S
C100 C106 1.265 . S
H101 C106 0.950 . S
H102 C110 0.949 . S
H103 C111 0.950 . S
H104 C112 0.951 . S
H105 C113 0.951 . S
C106 C100 1.265 . S
C106 H101 0.950 . S
C106 C107 1.478 . S
C107 C106 1.478 . S
C107 C108 1.397 1_545 S
C107 C124 1.394 . S
C108 C107 1.397 1_565 S
C108 C109 1.438 . S
C108 C113 1.429 . S
C109 C108 1.438 . S
C109 C110 1.428 . S
C109 C122 1.394 1_565 S
C110 H102 0.949 . S
C110 C109 1.428 . S
C110 C111 1.345 . S
C111 H103 0.950 . S
C111 C110 1.345 . S
C111 C112 1.424 . S
C112 H104 0.951 . S
C112 C111 1.424 . S
C112 C113 1.347 . S
C113 H105 0.951 . S
C113 C108 1.429 . S
C113 C112 1.347 . S
H114 C115 0.951 . S
C115 H114 0.951 . S
C115 C121 1.265 . S
H116 C121 0.950 . S
H117 C125 0.949 . S
H118 C126 0.950 . S
H119 C127 0.951 . S
H120 C128 0.951 . S
C121 C115 1.265 . S
C121 H116 0.950 . S
C121 C122 1.478 . S
C122 C109 1.394 1_545 S
C122 C121 1.478 . S
C122 C123 1.397 . S
C123 C122 1.397 . S
C123 C124 1.438 . S
C123 C128 1.429 . S
C124 C107 1.394 . S
C124 C123 1.438 . S
C124 C125 1.428 . S
C125 H117 0.949 . S
C125 C124 1.428 . S
C125 C126 1.345 . S
C126 H118 0.950 . S
C126 C125 1.345 . S
C126 C127 1.424 . S
C127 H119 0.951 . S
C127 C126 1.424 . S
C127 C128 1.347 . S
C128 H120 0.951 . S
C128 C123 1.429 . S
C128 C127 1.347 . S
H129 C130 0.951 . S
C130 H129 0.951 . S
C130 C136 1.265 . S
H131 C136 0.950 . S
H132 C140 0.949 . S
H133 C141 0.950 . S
H134 C142 0.951 . S
H135 C143 0.951 . S
C136 C130 1.265 . S
C136 H131 0.950 . S
C136 C137 1.478 . S
C137 C136 1.478 . S
C137 C138 1.397 . S
C137 C154 1.394 . S
C138 C137 1.397 . S
C138 C139 1.438 . S
C138 C143 1.429 . S
C139 C138 1.438 . S
C139 C140 1.428 . S
C139 C152 1.394 . S
C140 H132 0.949 . S
C140 C139 1.428 . S
C140 C141 1.345 . S
C141 H133 0.950 . S
C141 C140 1.345 . S
C141 C142 1.424 . S
C142 H134 0.951 . S
C142 C141 1.424 . S
C142 C143 1.347 . S
C143 H135 0.951 . S
C143 C138 1.429 . S
C143 C142 1.347 . S
H144 C145 0.951 . S
C145 H144 0.951 . S
C145 C151 1.265 . S
H146 C151 0.950 . S
H147 C155 0.949 . S
H148 C156 0.950 . S
H149 C157 0.951 . S
H150 C158 0.951 . S
C151 C145 1.265 . S
C151 H146 0.950 . S
C151 C152 1.478 . S
C152 C139 1.394 . S
C152 C151 1.478 . S
C152 C153 1.397 . S
C153 C152 1.397 . S
C153 C154 1.438 . S
C153 C158 1.429 . S
C154 C137 1.394 . S
C154 C153 1.438 . S
C154 C155 1.428 . S
C155 H147 0.949 . S
C155 C154 1.428 . S
C155 C156 1.345 . S
C156 H148 0.950 . S
C156 C155 1.345 . S
C156 C157 1.424 . S
C157 H149 0.951 . S
C157 C156 1.424 . S
C157 C158 1.347 . S
C158 H150 0.951 . S
C158 C153 1.429 . S
C158 C157 1.347 . S
H159 C160 0.951 . S
C160 H159 0.951 . S
C160 C166 1.265 1_554 S
H161 C166 0.950 . S
H162 C170 0.949 . S
H163 C171 0.950 . S
H164 C172 0.951 . S
H165 C173 0.951 . S
C166 C160 1.265 1_556 S
C166 H161 0.950 . S
C166 C167 1.478 . S
C167 C166 1.478 . S
C167 C168 1.398 . S
C167 C184 1.393 1_556 S
C168 C167 1.398 . S
C168 C169 1.438 . S
C168 C173 1.429 . S
C169 C168 1.438 . S
C169 C170 1.428 . S
C169 C182 1.394 1_556 S
C170 H162 0.949 . S
C170 C169 1.428 . S
C170 C171 1.345 . S
C171 H163 0.950 . S
C171 C170 1.345 . S
C171 C172 1.424 . S
C172 H164 0.951 . S
C172 C171 1.424 . S
C172 C173 1.347 . S
C173 H165 0.951 . S
C173 C168 1.429 . S
C173 C172 1.347 . S
H174 C175 0.951 . S
C175 H174 0.951 . S
C175 C181 1.265 1_556 S
H176 C181 0.950 . S
H177 C185 0.949 . S
H178 C186 0.950 . S
H179 C187 0.951 . S
H180 C188 0.951 . S
C181 C175 1.265 1_554 S
C181 H176 0.950 . S
C181 C182 1.478 . S
C182 C169 1.394 1_554 S
C182 C181 1.478 . S
C182 C183 1.397 . S
C183 C182 1.397 . S
C183 C184 1.438 . S
C183 C188 1.429 . S
C184 C167 1.393 1_554 S
C184 C183 1.438 . S
C184 C185 1.428 . S
C185 H177 0.949 . S
C185 C184 1.428 . S
C185 C186 1.345 . S
C186 H178 0.950 . S
C186 C185 1.345 . S
C186 C187 1.424 . S
C187 H179 0.951 . S
C187 C186 1.424 . S
C187 C188 1.347 . S
C188 H180 0.951 . S
C188 C183 1.429 . S
C188 C187 1.347 . S
H189 C190 0.951 . S
C190 H189 0.951 . S
C190 C196 1.265 . S
H191 C196 0.950 . S
H192 C200 0.949 . S
H193 C201 0.950 . S
H194 C202 0.951 . S
H195 C203 0.951 . S
C196 C190 1.265 . S
C196 H191 0.950 . S
C196 C197 1.478 . S
C197 C196 1.478 . S
C197 C198 1.397 . S
C197 C214 1.394 1_554 S
C198 C197 1.397 . S
C198 C199 1.438 . S
C198 C203 1.429 . S
C199 C198 1.438 . S
C199 C200 1.428 . S
C199 C212 1.394 1_554 S
C200 H192 0.949 . S
C200 C199 1.428 . S
C200 C201 1.345 . S
C201 H193 0.950 . S
C201 C200 1.345 . S
C201 C202 1.424 . S
C202 H194 0.951 . S
C202 C201 1.424 . S
C202 C203 1.347 . S
C203 H195 0.951 . S
C203 C198 1.429 . S
C203 C202 1.347 . S
H204 C205 0.951 . S
C205 H204 0.951 . S
C205 C211 1.265 . S
H206 C211 0.950 . S
H207 C215 0.949 . S
H208 C216 0.950 . S
H209 C217 0.951 . S
H210 C218 0.951 . S
C211 C205 1.265 . S
C211 H206 0.950 . S
C211 C212 1.478 . S
C212 C199 1.394 1_556 S
C212 C211 1.478 . S
C212 C213 1.397 . S
C213 C212 1.397 . S
C213 C214 1.438 . S
C213 C218 1.429 . S
C214 C197 1.394 1_556 S
C214 C213 1.438 . S
C214 C215 1.428 . S
C215 H207 0.949 . S
C215 C214 1.428 . S
C215 C216 1.345 . S
C216 H208 0.950 . S
C216 C215 1.345 . S
C216 C217 1.424 . S
C217 H209 0.951 . S
C217 C216 1.424 . S
C217 C218 1.347 . S
C218 H210 0.951 . S
C218 C213 1.429 . S
C218 C217 1.347 . S
H219 C220 0.951 1_554 S
C220 H219 0.951 1_556 S
C220 C226 1.265 . S
H221 C226 0.950 . S
H222 C230 0.949 1_554 S
H223 C231 0.950 . S
H224 C232 0.951 . S
H225 C233 0.951 . S
C226 C220 1.265 . S
C226 H221 0.950 . S
C226 C227 1.478 . S
C227 C226 1.478 . S
C227 C228 1.397 . S
C227 C244 1.394 1_556 S
C228 C227 1.397 . S
C228 C229 1.438 . S
C228 C233 1.429 . S
C229 C228 1.438 . S
C229 C230 1.428 . S
C229 C242 1.394 1_556 S
C230 H222 0.949 1_556 S
C230 C229 1.428 . S
C230 C231 1.345 . S
C231 H223 0.950 . S
C231 C230 1.345 . S
C231 C232 1.424 . S
C232 H224 0.951 . S
C232 C231 1.424 . S
C232 C233 1.347 . S
C233 H225 0.951 . S
C233 C228 1.429 . S
C233 C232 1.347 . S
H234 C235 0.951 1_556 S
C235 H234 0.951 1_554 S
C235 C241 1.265 . S
H236 C241 0.950 . S
H237 C245 0.949 1_556 S
H238 C246 0.950 . S
H239 C247 0.951 . S
H240 C248 0.951 . S
C241 C235 1.265 . S
C241 H236 0.950 . S
C241 C242 1.478 . S
C242 C229 1.394 1_554 S
C242 C241 1.478 . S
C242 C243 1.397 . S
C243 C242 1.397 . S
C243 C244 1.438 . S
C243 C248 1.429 . S
C244 C227 1.394 1_554 S
C244 C243 1.438 . S
C244 C245 1.428 . S
C245 H237 0.949 1_554 S
C245 C244 1.428 . S
C245 C246 1.345 . S
C246 H238 0.950 . S
C246 C245 1.345 . S
C246 C247 1.424 . S
C247 H239 0.951 . S
C247 C246 1.424 . S
C247 C248 1.347 . S
C248 H240 0.951 . S
C248 C243 1.429 . S
C248 C247 1.347 . S
H249 C250 0.951 . S
C250 H249 0.951 . S
C250 C256 1.265 1_554 S
H251 C256 0.950 . S
H252 C260 0.949 . S
H253 C261 0.950 . S
H254 C262 0.951 . S
H255 C263 0.951 . S
C256 C250 1.265 1_556 S
C256 H251 0.950 . S
C256 C257 1.478 1_556 S
C257 C256 1.478 1_554 S
C257 C258 1.397 1_554 S
C257 C274 1.394 . S
C258 C257 1.397 1_556 S
C258 C259 1.438 . S
C258 C263 1.429 . S
C259 C258 1.438 . S
C259 C260 1.428 . S
C259 C272 1.394 1_556 S
C260 H252 0.949 . S
C260 C259 1.428 . S
C260 C261 1.345 . S
C261 H253 0.950 . S
C261 C260 1.345 . S
C261 C262 1.424 . S
C262 H254 0.951 . S
C262 C261 1.424 . S
C262 C263 1.347 . S
C263 H255 0.951 . S
C263 C258 1.429 . S
C263 C262 1.347 . S
H264 C265 0.951 . S
C265 H264 0.951 . S
C265 C271 1.265 1_556 S
H266 C271 0.950 . S
H267 C275 0.949 . S
H268 C276 0.950 . S
H269 C277 0.951 . S
H270 C278 0.951 . S
C271 C265 1.265 1_554 S
C271 H266 0.950 . S
C271 C272 1.478 . S
C272 C259 1.394 1_554 S
C272 C271 1.478 . S
C272 C273 1.397 . S
C273 C272 1.397 . S
C273 C274 1.438 . S
C273 C278 1.429 . S
C274 C257 1.394 . S
C274 C273 1.438 . S
C274 C275 1.428 . S
C275 H267 0.949 . S
C275 C274 1.428 . S
C275 C276 1.345 . S
C276 H268 0.950 . S
C276 C275 1.345 . S
C276 C277 1.424 . S
C277 H269 0.951 . S
C277 C276 1.424 . S
C277 C278 1.347 . S
C278 H270 0.951 . S
C278 C273 1.429 . S
C278 C277 1.347 . S
H279 C280 0.951 . S
C280 H279 0.951 . S
C280 C286 1.265 . S
H281 C286 0.950 . S
H282 C290 0.949 . S
H283 C291 0.950 . S
H284 C292 0.951 . S
H285 C293 0.951 . S
C286 C280 1.265 . S
C286 H281 0.950 . S
C286 C287 1.478 . S
C287 C286 1.478 . S
C287 C288 1.397 . S
C287 C304 1.394 1_556 S
C288 C287 1.397 . S
C288 C289 1.438 . S
C288 C293 1.429 . S
C289 C288 1.438 . S
C289 C290 1.428 . S
C289 C302 1.394 1_556 S
C290 H282 0.949 . S
C290 C289 1.428 . S
C290 C291 1.345 . S
C291 H283 0.950 . S
C291 C290 1.345 . S
C291 C292 1.424 . S
C292 H284 0.951 . S
C292 C291 1.424 . S
C292 C293 1.347 . S
C293 H285 0.951 . S
C293 C288 1.429 . S
C293 C292 1.347 . S
H294 C295 0.951 . S
C295 H294 0.951 . S
C295 C301 1.265 . S
H296 C301 0.950 . S
H297 C305 0.949 . S
H298 C306 0.950 . S
H299 C307 0.951 . S
H300 C308 0.951 . S
C301 C295 1.265 . S
C301 H296 0.950 . S
C301 C302 1.478 . S
C302 C289 1.394 1_554 S
C302 C301 1.478 . S
C302 C303 1.397 . S
C303 C302 1.397 . S
C303 C304 1.438 . S
C303 C308 1.429 . S
C304 C287 1.394 1_554 S
C304 C303 1.438 . S
C304 C305 1.428 . S
C305 H297 0.949 . S
C305 C304 1.428 . S
C305 C306 1.345 . S
C306 H298 0.950 . S
C306 C305 1.345 . S
C306 C307 1.424 . S
C307 H299 0.951 . S
C307 C306 1.424 . S
C307 C308 1.347 . S
C308 H300 0.951 . S
C308 C303 1.429 . S
C308 C307 1.347 . S
H309 C310 0.951 . S
C310 H309 0.951 . S
C310 C316 1.265 . S
H311 C316 0.950 1_556 S
H312 C320 0.949 . S
H313 C321 0.950 . S
H314 C322 0.951 . S
H315 C323 0.951 . S
C316 C310 1.265 . S
C316 H311 0.950 1_554 S
C316 C317 1.478 . S
C317 C316 1.478 . S
C317 C318 1.397 1_554 S
C317 C334 1.394 . S
C318 C317 1.397 1_556 S
C318 C319 1.438 . S
C318 C323 1.429 . S
C319 C318 1.438 . S
C319 C320 1.428 . S
C319 C332 1.394 . S
C320 H312 0.949 . S
C320 C319 1.428 . S
C320 C321 1.345 . S
C321 H313 0.950 . S
C321 C320 1.345 . S
C321 C322 1.424 . S
C322 H314 0.951 . S
C322 C321 1.424 . S
C322 C323 1.347 . S
C323 H315 0.951 . S
C323 C318 1.429 . S
C323 C322 1.347 . S
H324 C325 0.951 . S
C325 H324 0.951 . S
C325 C331 1.265 . S
H326 C331 0.950 1_554 S
H327 C335 0.949 . S
H328 C336 0.950 . S
H329 C337 0.951 . S
H330 C338 0.951 . S
C331 C325 1.265 . S
C331 H326 0.950 1_556 S
C331 C332 1.478 . S
C332 C319 1.394 . S
C332 C331 1.478 . S
C332 C333 1.397 1_556 S
C333 C332 1.397 1_554 S
C333 C334 1.438 . S
C333 C338 1.429 . S
C334 C317 1.394 . S
C334 C333 1.438 . S
C334 C335 1.428 . S
C335 H327 0.949 . S
C335 C334 1.428 . S
C335 C336 1.345 . S
C336 H328 0.950 . S
C336 C335 1.345 . S
C336 C337 1.424 . S
C337 H329 0.951 . S
C337 C336 1.424 . S
C337 C338 1.347 . S
C338 H330 0.951 . S
C338 C333 1.429 . S
C338 C337 1.347 . S
C70 C16 1.492 . S
C85 C17 1.491 . S
C100 C39 1.485 . S
C115 C40 1.481 . S
C130 C63 1.490 . S
C145 C62 1.492 . S
C160 C19 1.060 . S
C175 C66 1.065 . S
C190 C44 1.000 . S
C205 C21 0.974 . S
C220 C42 0.900 . S
C235 C67 0.929 . S
C250 C20 1.097 . S
C265 C65 1.083 . S
C280 C18 1.067 . S
C295 C41 1.086 . S
C310 C64 1.079 . S
C325 C43 1.097 . S
