# Generated by pormake.
# Topology reo, (8)-cn, num edge types: 1
# Building blocks:
#     Node 0, Type 0, BuildingBlock: EBIMEJ_clean_sbu_0, # of connection points: 8
#     Node 1, Type 0, BuildingBlock: EBIMEJ_clean_sbu_0, # of connection points: 8
#     Node 2, Type 0, BuildingBlock: EBIMEJ_clean_sbu_0, # of connection points: 8
#     Edge 3, Type (0, 0), BuildingBlock: ZUJKAS_clean_linker_0, # of connection points: 2
#     Edge 4, Type (0, 0), BuildingBlock: ZUJKAS_clean_linker_0, # of connection points: 2
#     Edge 5, Type (0, 0), BuildingBlock: ZUJKAS_clean_linker_0, # of connection points: 2
#     Edge 6, Type (0, 0), BuildingBlock: ZUJKAS_clean_linker_0, # of connection points: 2
#     Edge 7, Type (0, 0), BuildingBlock: ZUJKAS_clean_linker_0, # of connection points: 2
#     Edge 8, Type (0, 0), BuildingBlock: ZUJKAS_clean_linker_0, # of connection points: 2
#     Edge 9, Type (0, 0), BuildingBlock: ZUJKAS_clean_linker_0, # of connection points: 2
#     Edge 10, Type (0, 0), BuildingBlock: ZUJKAS_clean_linker_0, # of connection points: 2
#     Edge 11, Type (0, 0), BuildingBlock: ZUJKAS_clean_linker_0, # of connection points: 2
#     Edge 12, Type (0, 0), BuildingBlock: ZUJKAS_clean_linker_0, # of connection points: 2
#     Edge 13, Type (0, 0), BuildingBlock: ZUJKAS_clean_linker_0, # of connection points: 2
#     Edge 14, Type (0, 0), BuildingBlock: ZUJKAS_clean_linker_0, # of connection points: 2
# Relax obj value: 0.148
# Max RMSD: 0.258
# Mean RMSD: 0.249
data_MOF--net-reo--node1-EBIMEJ_clean_sbu_0--edge1-ZUJKAS_clean_linker_0
_symmetry_space_group_name_H-M    P1
_symmetry_Int_Tables_number       1
_symmetry_cell_setting            triclinic
loop_
_symmetry_equiv_pos_as_xyz
'x, y, z'
_cell_length_a     30.503233
_cell_length_b     30.802269
_cell_length_c     30.968628
_cell_angle_alpha  91.916762
_cell_angle_beta   92.19764
_cell_angle_gamma 100.79156
loop_
_atom_site_label
_atom_site_type_symbol
_atom_site_fract_x
_atom_site_fract_y
_atom_site_fract_z
_atom_type_partial_charge
Co0 Co 1.00444 1.01886 0.41863 0.0
Co1 Co 1.00296 0.07052 0.50959 0.0
Co2 Co 1.0028 0.97156 0.50695 0.0
H3 H 0.9952 1.00139 0.4687 0.0
O4 O 0.97574 1.0178 0.47357 0.0
H5 H 0.01267 0.04099 0.54749 0.0
O6 O 0.03165 0.02442 0.54142 0.0
Co7 Co 0.00868 0.02406 0.59841 0.0
O8 O 0.0143 0.08952 0.61394 0.0
O9 O 0.02855 0.12194 0.55061 0.0
O10 O 0.98848 0.95833 0.60654 0.0
O11 O 0.01937 0.92931 0.55069 0.0
O12 O 0.99765 0.04345 0.35851 0.0
O13 O 0.94783 0.99501 0.38135 0.0
O14 O 0.94305 1.01663 0.58849 0.0
O15 O 0.94332 0.06624 0.53747 0.0
C16 C 0.98578 0.91845 0.42592 0.0
C17 C 1.00162 0.11627 0.42897 0.0
C18 C 0.0701 1.01849 0.64997 0.0
C19 C 0.08567 1.00444 0.45946 0.0
C20 C 0.0262 0.12389 0.59197 0.0
C21 C 1.00405 0.92658 0.58889 0.0
C22 C 0.95967 1.01992 0.35099 0.0
C23 C 0.92316 0.04075 0.56529 0.0
O24 O 1.00187 0.95295 0.40547 0.0
O25 O 0.97661 0.92051 0.46601 0.0
O26 O 0.9851 0.11256 0.46661 0.0
O27 O 0.01887 0.08547 0.41156 0.0
O28 O 0.02961 1.00607 0.65768 0.0
O29 O 0.0754 0.03497 0.61364 0.0
O30 O 0.06774 0.03354 0.44158 0.0
O31 O 0.06235 0.97358 0.47991 0.0
Co32 Co 0.5891 0.04214 0.95965 0.0
Co33 Co 0.48951 0.06547 1.00324 0.0
Co34 Co 0.52495 0.9787 0.01853 0.0
H35 H 0.54513 1.01541 0.98691 0.0
O36 O 0.52441 0.02483 0.97236 0.0
H37 H 0.46851 0.02942 0.03492 0.0
O38 O 0.48855 1.01902 0.04974 0.0
Co39 Co 0.42245 1.00508 0.06074 0.0
O40 O 0.39002 0.05428 0.04586 0.0
O41 O 0.4507 0.10372 0.03207 0.0
O42 O 0.47288 0.97561 0.07697 0.0
O43 O 0.51238 0.92988 0.06009 0.0
O44 O 0.65166 0.0583 0.93472 0.0
O45 O 0.59413 0.0516 0.89491 0.0
O46 O 0.39412 0.98609 1.00195 0.0
O47 O 0.43862 0.03538 0.964 0.0
C48 C 0.60528 0.95304 0.98033 0.0
C49 C 0.53482 0.10693 0.93797 0.0
C50 C 0.37734 0.99778 0.12597 0.0
C51 C 0.60847 0.04283 0.05362 0.0
C52 C 0.40888 0.09389 0.03932 0.0
C53 C 0.47689 0.93537 0.07667 0.0
C54 C 0.63594 0.06 0.89685 0.0
C55 C 0.40541 1.00361 0.96649 0.0
O56 O 0.62275 0.99306 0.97344 0.0
O57 O 0.56388 0.94187 0.98854 0.0
O58 O 0.50312 0.11272 0.961 0.0
O59 O 0.53847 0.06679 0.93286 0.0
O60 O 0.36289 1.00704 0.08957 0.0
O61 O 0.41702 0.99246 0.12522 0.0
O62 O 0.61614 0.06234 0.01837 0.0
O63 O 0.57716 1.00916 0.05673 0.0
Co64 Co 0.97621 0.60592 0.01054 0.0
Co65 Co 0.99235 0.5121 0.05515 0.0
Co66 Co 0.01768 0.52997 0.96243 0.0
H67 H 0.99102 0.55818 0.99214 0.0
O68 O 0.97022 0.54107 1.00482 0.0
H69 H 0.01983 0.48469 0.02599 0.0
O70 O 0.0404 0.50179 0.01308 0.0
Co71 Co 0.03524 0.4372 0.00811 0.0
O72 O 0.02402 0.41701 0.06915 0.0
O73 O 0.01301 0.47848 0.10449 0.0
O74 O 0.04385 0.43403 0.94354 0.0
O75 O 0.05603 0.50402 0.92117 0.0
O76 O 0.95971 0.66766 1.00536 0.0
O77 O 0.90998 0.61289 0.01264 0.0
O78 O 0.97088 0.42182 0.98794 0.0
O79 O 0.94244 0.46032 0.03858 0.0
C80 C 0.99042 0.60383 0.91385 0.0
C81 C 0.95279 0.57791 0.10248 0.0
C82 C 0.09415 0.39066 0.01308 0.0
C83 C 0.07417 0.61512 1.00339 0.0
C84 C 0.01926 0.43838 0.10417 0.0
C85 C 0.05622 0.46256 0.91523 0.0
C86 C 0.91853 0.654 0.0083 0.0
C87 C 0.93781 0.43044 0.00807 0.0
O88 O 0.98629 0.62511 0.9491 0.0
O89 O 0.99671 0.5637 0.91317 0.0
O90 O 0.95273 0.53659 0.09567 0.0
O91 O 0.96627 0.6073 0.07527 0.0
O92 O 0.05361 0.37721 0.01976 0.0
O93 O 0.10135 0.4307 1.00385 0.0
O94 O 0.04184 0.62767 0.02175 0.0
O95 O 0.06885 0.58069 0.97796 0.0
H96 H 0.05298 0.36385 0.11865 0.0
H97 H 0.04766 0.31968 0.18278 0.0
H98 H 0.97974 0.41234 0.24721 0.0
H99 H 0.98497 0.45724 0.18262 0.0
H100 H 0.07998 0.3455 0.2706 0.0
H101 H 0.89541 0.28881 0.25628 0.0
H102 H 0.92707 0.31162 0.21151 0.0
H103 H 0.91679 0.34736 0.25535 0.0
C104 C 0.03705 0.37518 0.14644 0.0
C105 C 0.01929 0.41423 0.14524 0.0
C106 C 0.03405 0.34976 0.1832 0.0
C107 C 0.01278 0.36222 0.21973 0.0
C108 C 0.99579 0.40167 0.21922 0.0
H109 H 0.96349 0.19023 0.44643 0.0
H110 H 0.96496 0.25504 0.40125 0.0
C111 C 0.99917 0.42754 0.1824 0.0
C112 C 0.00882 0.33343 0.25786 0.0
H113 H 0.93457 0.25841 0.31087 0.0
C114 C 0.04809 0.32699 0.2798 0.0
C115 C 0.96724 0.30926 0.2701 0.0
C116 C 0.92408 0.31418 0.24709 0.0
C117 C 0.04709 0.29626 0.31255 0.0
C118 C 1.00576 0.2704 0.32331 0.0
C119 C 0.96623 0.27824 0.30281 0.0
C120 C 1.00387 0.23167 0.35152 0.0
C121 C 0.09059 0.29109 0.33476 0.0
C122 C 0.02448 0.19673 0.33842 0.0
C123 C 0.02375 0.16011 0.36388 0.0
C124 C 1.00203 0.1568 0.40341 0.0
C125 C 0.98078 0.19164 0.41648 0.0
C126 C 0.98149 0.22865 0.3906 0.0
H127 H 0.11629 0.32173 0.33348 0.0
H128 H 0.08602 0.28275 0.36911 0.0
H129 H 0.10345 0.26393 0.31802 0.0
H130 H 0.04114 0.19765 0.30809 0.0
H131 H 0.0404 0.13421 0.35218 0.0
H132 H 0.9715 0.08575 0.29342 0.0
H133 H 0.91448 0.1039 0.24261 0.0
H134 H 0.82215 0.98808 0.27813 0.0
H135 H 0.8786 0.96984 0.32893 0.0
H136 H 0.86028 0.04869 0.17181 0.0
H137 H 0.76133 0.09721 0.3058 0.0
H138 H 0.81972 0.09399 0.31278 0.0
H139 H 0.77769 0.04449 0.31128 0.0
C140 C 0.9393 0.06375 0.28969 0.0
C141 C 0.92913 0.0266 0.31519 0.0
C142 C 0.90684 0.07429 0.26095 0.0
C143 C 0.86408 0.0478 0.25765 0.0
C144 C 0.85483 1.00929 0.28111 0.0
H145 H 0.61538 0.99934 0.12828 0.0
H146 H 0.6788 1.01165 0.18046 0.0
C147 C 0.88711 0.99879 0.3098 0.0
C148 C 0.8283 0.06049 0.23058 0.0
H149 H 0.72371 0.08387 0.236 0.0
C150 C 0.83073 0.0573 0.18559 0.0
C151 C 0.79017 0.07188 0.24911 0.0
C152 C 0.78707 0.07753 0.29742 0.0
C153 C 0.79437 0.06221 0.1584 0.0
C154 C 0.75524 0.07139 0.17702 0.0
C155 C 0.75385 0.07691 0.222 0.0
C156 C 0.71383 0.06985 0.15055 0.0
C157 C 0.79704 0.05478 0.1102 0.0
C158 C 0.71173 0.09995 0.11799 0.0
C159 C 0.67563 0.09293 0.08793 0.0
C160 C 0.64113 0.05576 0.09026 0.0
C161 C 0.64154 0.02804 0.12534 0.0
C162 C 0.67773 0.03502 0.15522 0.0
H163 H 0.82694 0.04102 0.10182 0.0
H164 H 0.76677 0.03179 0.09676 0.0
H165 H 0.79884 0.08674 0.09422 0.0
H166 H 0.739 0.12753 0.11455 0.0
H167 H 0.67593 0.11535 0.06167 0.0
H168 H 0.92455 0.84163 0.43739 0.0
H169 H 0.91066 0.77407 0.39019 0.0
H170 H 0.02013 0.83034 0.31286 0.0
H171 H 0.03299 0.89765 0.35852 0.0
H172 H 0.94894 0.80057 0.26316 0.0
H173 H 0.97286 0.67 0.37605 0.0
H174 H 0.93204 0.70184 0.39194 0.0
H175 H 0.98972 0.7282 0.39029 0.0
C176 C 0.94593 0.83918 0.41064 0.0
C177 C 0.97952 0.8752 0.40145 0.0
C178 C 0.93814 0.80046 0.38377 0.0
C179 C 0.96444 0.79684 0.34786 0.0
C180 C 0.99911 0.83222 0.34003 0.0
H181 H 1.00219 0.58129 0.17754 0.0
H182 H 0.999 0.63078 0.24057 0.0
C183 C 1.00641 0.87083 0.36625 0.0
C184 C 0.95455 0.7582 0.31616 0.0
H185 H 0.94733 0.64615 0.30432 0.0
C186 C 0.94845 0.76678 0.27229 0.0
C187 C 0.95432 0.71408 0.32782 0.0
C188 C 0.96299 0.70284 0.37401 0.0
C189 C 0.94334 0.73311 0.23978 0.0
C190 C 0.94212 0.68872 0.25135 0.0
C191 C 0.94753 0.67991 0.29535 0.0
C192 C 0.93865 0.65197 0.21783 0.0
C193 C 0.94168 0.74612 0.1932 0.0
C194 C 0.90441 0.64513 0.18516 0.0
C195 C 0.90679 0.61757 0.14875 0.0
C196 C 0.9423 0.59471 0.14528 0.0
C197 C 0.97399 0.59791 0.1799 0.0
C198 C 0.97229 0.62643 0.21582 0.0
H199 H 0.95568 0.78178 0.18988 0.0
H200 H 0.96061 0.7266 0.17264 0.0
H201 H 0.90642 0.7401 0.18067 0.0
H202 H 0.87726 0.66322 0.1865 0.0
H203 H 0.88229 0.61606 0.12219 0.0
H204 H 0.39952 0.96475 0.20225 0.0
H205 H 0.35667 0.95777 0.26765 0.0
H206 H 0.25405 1.01462 0.20348 0.0
H207 H 0.29627 1.02056 0.13753 0.0
H208 H 0.33217 1.02217 0.31738 0.0
H209 H 0.18166 0.90533 0.25248 0.0
H210 H 0.23273 0.91614 0.2238 0.0
H211 H 0.19423 0.95382 0.22138 0.0
C212 C 0.36765 0.97547 0.20204 0.0
C213 C 0.35102 0.99305 0.16491 0.0
C214 C 0.34326 0.97146 0.23937 0.0
C215 C 0.30191 0.98503 0.2402 0.0
C216 C 0.28537 1.00291 0.20318 0.0
H217 H 0.1513 0.07023 0.43546 0.0
H218 H 0.21233 0.06109 0.38967 0.0
C219 C 0.30958 1.00655 0.16565 0.0
C220 C 0.27697 0.98215 0.28037 0.0
H221 H 0.17484 0.94354 0.31982 0.0
C222 C 0.29796 1.00444 0.31813 0.0
C223 C 0.23265 0.9584 0.28147 0.0
C224 C 0.20915 0.93169 0.24272 0.0
C225 C 0.27505 1.00535 0.35647 0.0
C226 C 0.22987 0.98391 0.35676 0.0
C227 C 0.20956 0.95995 0.31958 0.0
C228 C 0.20129 0.98982 0.3932 0.0
C229 C 0.29921 0.02977 0.39607 0.0
C230 C 0.17582 0.95292 0.41175 0.0
C231 C 0.14074 0.95808 0.43803 0.0
C232 C 0.13036 1.00019 0.44544 0.0
C233 C 0.15858 0.03739 0.4302 0.0
C234 C 0.19365 0.03223 0.40415 0.0
H235 H 0.33577 0.03068 0.39545 0.0
H236 H 0.29386 0.06444 0.3968 0.0
H237 H 0.28665 1.01431 0.4262 0.0
H238 H 0.18114 0.91989 0.40351 0.0
H239 H 0.11933 0.92879 0.44904 0.0
H240 H 0.97629 0.91425 0.67096 0.0
H241 H 0.97589 0.85093 0.71538 0.0
H242 H 0.0317 0.7837 0.61283 0.0
H243 H 0.0326 0.84808 0.56734 0.0
H244 H 0.93007 0.7638 0.69713 0.0
H245 H 0.11331 0.77174 0.72109 0.0
H246 H 0.09031 0.81818 0.70272 0.0
H247 H 0.09102 0.77174 0.66641 0.0
C248 C 0.9886 0.88622 0.65737 0.0
C249 C 1.00433 0.88657 0.61509 0.0
C250 C 0.98833 0.84983 0.68312 0.0
C251 C 1.00394 0.81246 0.66779 0.0
C252 C 0.01995 0.81236 0.62569 0.0
H253 H 0.01733 0.58276 0.83233 0.0
H254 H 0.01991 0.6278 0.7678 0.0
C255 C 0.0202 0.8491 0.59958 0.0
C256 C 1.00177 0.77381 0.69621 0.0
H257 H 0.06605 0.71826 0.759 0.0
C258 C 0.95983 0.75345 0.71012 0.0
C259 C 0.0405 0.76013 0.71332 0.0
C260 C 0.08647 0.78158 0.7005 0.0
C261 C 0.95561 0.72103 0.74144 0.0
C262 C 0.9944 0.70875 0.76007 0.0
C263 C 0.03628 0.72754 0.74476 0.0
C264 C 0.9922 0.68017 0.79838 0.0
C265 C 0.90949 0.70083 0.75496 0.0
C266 C 0.97597 0.6945 0.83707 0.0
C267 C 0.97442 0.66903 0.8737 0.0
C268 C 0.98925 0.62831 0.87299 0.0
C269 C 1.00524 0.61365 0.83406 0.0
C270 C 1.007 0.63951 0.7972 0.0
H271 H 0.88365 0.70285 0.72921 0.0
H272 H 0.90744 0.66563 0.76291 0.0
H273 H 0.9016 0.71925 0.78417 0.0
H274 H 0.96505 0.72598 0.83921 0.0
H275 H 0.96195 0.68172 0.9029 0.0
H276 H 0.42734 1.01713 0.88294 0.0
H277 H 0.37605 1.00656 0.81927 0.0
H278 H 0.26806 0.94925 0.89781 0.0
H279 H 0.3192 0.95871 0.96151 0.0
H280 H 0.2639 0.91151 0.81083 0.0
H281 H 0.29036 0.09566 0.82009 0.0
H282 H 0.33965 0.07245 0.81386 0.0
H283 H 0.30968 0.06443 0.86267 0.0
C284 C 0.39285 1.00146 0.88648 0.0
C285 C 0.37689 0.98977 0.92729 0.0
C286 C 0.36375 0.99533 0.85012 0.0
C287 C 0.31833 0.97809 0.85432 0.0
C288 C 0.3031 0.96279 0.89419 0.0
H289 H 0.06543 0.97653 0.72614 0.0
H290 H 0.12821 0.96274 0.77201 0.0
C291 C 0.33229 0.96842 0.93052 0.0
C292 C 0.28565 0.98205 0.81929 0.0
H293 H 0.23848 0.05876 0.76725 0.0
C294 C 0.2585 0.9436 0.80087 0.0
C295 C 0.27877 0.02412 0.80687 0.0
C296 C 0.30583 0.06659 0.82705 0.0
C297 C 0.22409 0.94619 0.77031 0.0
C298 C 0.21664 0.98828 0.75875 0.0
C299 C 0.24455 0.02661 0.77633 0.0
C300 C 0.17889 0.99383 0.72992 0.0
C301 C 0.19594 0.90407 0.7508 0.0
C302 C 0.18697 1.01687 0.69193 0.0
C303 C 0.15139 0.02533 0.66617 0.0
C304 C 0.1073 1.01101 0.67823 0.0
C305 C 0.09921 0.988 0.71633 0.0
C306 C 0.13489 0.9796 0.74215 0.0
H307 H 0.21339 0.87562 0.75362 0.0
H308 H 0.16447 0.89633 0.7682 0.0
H309 H 0.18712 0.90767 0.71614 0.0
H310 H 0.22083 0.02852 0.68239 0.0
H311 H 0.15843 0.04304 0.63683 0.0
H312 H 0.1036 0.39786 0.90211 0.0
H313 H 0.10298 0.35194 0.83625 0.0
H314 H 0.02971 0.43666 0.76715 0.0
H315 H 0.03052 0.48335 0.83351 0.0
H316 H 0.0111 0.31326 0.79765 0.0
H317 H 0.1273 0.402 0.68119 0.0
H318 H 0.13681 0.41257 0.7389 0.0
H319 H 0.09166 0.43137 0.71127 0.0
C320 C 0.08879 0.40774 0.87251 0.0
C321 C 0.06719 0.44428 0.87295 0.0
C322 C 0.08832 0.38134 0.8349 0.0
C323 C 0.06624 0.39074 0.79679 0.0
C324 C 0.04739 0.42907 0.79609 0.0
H325 H 0.01379 0.20595 0.56624 0.0
H326 H 0.02177 0.27417 0.61223 0.0
C327 C 0.04809 0.45588 0.83393 0.0
C328 C 0.05761 0.35667 0.76069 0.0
H329 H 0.09228 0.32856 0.66156 0.0
C330 C 0.02853 0.31679 0.7677 0.0
C331 C 0.07975 0.36157 0.72138 0.0
C332 C 0.11078 0.40407 0.71234 0.0
C333 C 0.02215 0.28113 0.73726 0.0
C334 C 0.04655 0.28479 0.69909 0.0
C335 C 0.07399 0.3255 0.69099 0.0
C336 C 0.04594 0.24557 0.66926 0.0
C337 C 0.98945 0.23966 0.74662 0.0
C338 C 0.05852 0.20744 0.6854 0.0
C339 C 0.05353 0.16867 0.65957 0.0
C340 C 0.03673 0.16716 0.6165 0.0
C341 C 0.02687 0.20612 0.59928 0.0
C342 C 0.03132 0.24505 0.62555 0.0
H343 H 0.9635 0.247 0.7685 0.0
H344 H 0.97263 0.223 0.71643 0.0
H345 H 0.00762 0.21637 0.76302 0.0
H346 H 0.07113 0.20729 0.71856 0.0
H347 H 0.06211 0.13945 0.67366 0.0
H348 H 0.72437 0.05745 0.88893 0.0
H349 H 0.76539 0.06337 0.8222 0.0
H350 H 0.64855 0.0889 0.75188 0.0
H351 H 0.60711 0.0813 0.81797 0.0
H352 H 0.68109 0.02634 0.7115 0.0
H353 H 0.82003 0.16617 0.75376 0.0
H354 H 0.81704 0.12363 0.79222 0.0
H355 H 0.77181 0.15344 0.78633 0.0
C356 C 0.70779 0.065 0.85932 0.0
C357 C 0.66263 0.06873 0.85842 0.0
C358 C 0.73128 0.06868 0.82128 0.0
C359 C 0.71019 0.07715 0.78209 0.0
C360 C 0.6655 0.08241 0.78169 0.0
H361 H 0.88462 0.11407 0.56421 0.0
H362 H 0.82242 0.12603 0.60812 0.0
C363 C 0.6419 0.0781 0.81946 0.0
C364 C 0.73336 0.07682 0.74089 0.0
H365 H 0.83031 0.11856 0.69325 0.0
C366 C 0.71339 0.04711 0.70721 0.0
C367 C 0.77509 0.10437 0.73493 0.0
C368 C 0.79699 0.13902 0.76859 0.0
C369 C 0.73503 0.04262 0.66863 0.0
C370 C 0.77822 0.06783 0.66398 0.0
C371 C 0.79718 0.09916 0.69674 0.0
C372 C 0.80681 0.05852 0.62849 0.0
C373 C 0.71163 1.01033 0.63363 0.0
C374 C 0.81705 1.01615 0.62358 0.0
C375 C 0.85205 1.00922 0.59826 0.0
C376 C 0.87792 0.04466 0.57788 0.0
C377 C 0.86499 0.0861 0.57927 0.0
C378 C 0.82975 0.09304 0.60468 0.0
H379 H 0.6748 1.0075 0.6342 0.0
H380 H 0.72258 1.02024 0.60102 0.0
H381 H 0.7192 0.97708 0.63939 0.0
H382 H 0.80058 0.98918 0.64218 0.0
H383 H 0.86132 0.97692 0.5977 0.0
H384 H 0.183 0.41368 0.99667 0.0
H385 H 0.23966 0.36661 0.99914 0.0
H386 H 0.14048 0.25747 0.0374 0.0
H387 H 0.08376 0.30413 0.03454 0.0
H388 H 0.27029 0.32172 0.0671 0.0
H389 H 0.19367 0.20305 0.93483 0.0
H390 H 0.17689 0.25559 0.94435 0.0
H391 H 0.15583 0.20934 0.97655 0.0
C392 C 0.17329 0.37961 1.00553 0.0
C393 C 0.12881 0.36257 0.01519 0.0
C394 C 0.20572 0.35274 0.00696 0.0
C395 C 0.1943 0.30819 0.01776 0.0
C396 C 0.15001 0.29138 0.02803 0.0
H397 H 0.32082 0.0848 0.05809 0.0
H398 H 0.2724 0.13907 0.05232 0.0
C399 C 0.11762 0.3182 0.02663 0.0
C400 C 0.22867 0.27941 0.01902 0.0
H401 H 0.25143 0.18171 0.97862 0.0
C402 C 0.26641 0.29131 0.04745 0.0
C403 C 0.22386 0.23981 0.99322 0.0
C404 C 0.18562 0.22633 0.96019 0.0
C405 C 0.29834 0.26388 0.05206 0.0
C406 C 0.29282 0.22367 0.02713 0.0
C407 C 0.25564 0.21235 0.99796 0.0
C408 C 0.32383 0.19175 0.03214 0.0
C409 C 0.33687 0.27736 0.08473 0.0
C410 C 0.36926 0.20311 0.02285 0.0
C411 C 0.3974 0.17192 0.0262 0.0
C412 C 0.38063 0.12863 0.03875 0.0
C413 C 0.33519 0.1177 0.04841 0.0
C414 C 0.30725 0.14876 0.04502 0.0
H415 H 0.3311 0.30393 0.10778 0.0
H416 H 0.3427 0.24862 0.10334 0.0
H417 H 0.36765 0.28997 0.06755 0.0
H418 H 0.38276 0.2358 0.0121 0.0
H419 H 0.432 0.18146 0.01807 0.0
H420 H 0.09427 0.70312 0.02419 0.0
H421 H 0.16758 0.74919 0.03973 0.0
H422 H 0.22953 0.63572 0.01876 0.0
H423 H 0.1558 0.58958 1.00116 0.0
H424 H 0.22658 0.74587 0.10269 0.0
H425 H 0.3053 0.72247 0.94684 0.0
H426 H 0.24639 0.704 0.95363 0.0
H427 H 0.28605 0.67214 0.97362 0.0
C428 C 0.1235 0.68795 0.02256 0.0
C429 C 0.11925 0.6427 0.01135 0.0
C430 C 0.16547 0.71436 0.03153 0.0
C431 C 0.20433 0.69619 0.03007 0.0
C432 C 0.20026 0.65086 0.01908 0.0
H433 H 0.47905 0.84769 0.08481 0.0
H434 H 0.41585 0.78476 0.07796 0.0
C435 C 0.1581 0.62445 0.00924 0.0
C436 C 0.24849 0.72504 0.0413 0.0
H437 H 0.35011 0.7669 1.00136 0.0
C438 C 0.25365 0.75013 0.08057 0.0
C439 C 0.28407 0.73063 0.01262 0.0
C440 C 0.2802 0.70622 0.96916 0.0
C441 C 0.29251 0.78155 0.09124 0.0
C442 C 0.32739 0.78793 0.06207 0.0
C443 C 0.32333 0.76159 0.02376 0.0
C444 C 0.36582 0.82526 0.06841 0.0
C445 C 0.29554 0.80859 0.13316 0.0
C446 C 0.35863 0.86859 0.06494 0.0
C447 C 0.39445 0.90419 0.06845 0.0
C448 C 0.43837 0.89766 0.07594 0.0
C449 C 0.44555 0.85403 0.07953 0.0
C450 C 0.40957 0.81808 0.0756 0.0
H451 H 0.27161 0.79253 0.15662 0.0
H452 H 0.32987 0.81392 0.14819 0.0
H453 H 0.28746 0.84147 0.12652 0.0
H454 H 0.32527 0.87484 0.05833 0.0
H455 H 0.38752 0.93647 0.06354 0.0
H456 H 0.5869 0.14235 0.87369 0.0
H457 H 0.65557 0.19925 0.88157 0.0
H458 H 0.64307 0.20455 0.01978 0.0
H459 H 0.57483 0.14781 0.01209 0.0
H460 H 0.65737 0.29319 0.95713 0.0
H461 H 0.77907 0.17878 0.95924 0.0
H462 H 0.72879 0.16652 0.92482 0.0
H463 H 0.72509 0.16313 0.9822 0.0
C464 C 0.59898 0.15578 0.90564 0.0
C465 C 0.57568 0.14115 0.94224 0.0
C466 C 0.63798 0.18814 0.9101 0.0
C467 C 0.65402 0.20606 0.95124 0.0
C468 C 0.6309 0.19125 0.9878 0.0
H469 H 0.86188 0.42077 0.05483 0.0
H470 H 0.79172 0.36805 0.03948 0.0
C471 C 0.59199 0.15906 0.98335 0.0
C472 C 0.6948 0.24056 0.9564 0.0
H473 H 0.80812 0.25495 0.97007 0.0
C474 C 0.69043 0.28504 0.95978 0.0
C475 C 0.73759 0.22951 0.95966 0.0
C476 C 0.7434 0.18195 0.95633 0.0
C477 C 0.72806 0.31905 0.96647 0.0
C478 C 0.77099 0.30804 0.97085 0.0
C479 C 0.77522 0.26339 0.96689 0.0
C480 C 0.81213 0.34216 0.97914 0.0
C481 C 0.72156 0.36642 0.96805 0.0
C482 C 0.84698 0.34501 0.95054 0.0
C483 C 0.88708 0.37474 0.95938 0.0
C484 C 0.8934 0.40234 0.99717 0.0
C485 C 0.85802 0.40029 0.02531 0.0
C486 C 0.81784 0.37024 0.01649 0.0
H487 H 0.689 0.36971 0.95242 0.0
H488 H 0.72199 0.37833 1.0023 0.0
H489 H 0.74874 0.38813 0.95185 0.0
H490 H 0.84335 0.32376 0.92152 0.0
H491 H 0.91346 0.37551 0.93682 0.0
H492 H 0.82781 0.63041 0.0152 0.0
H493 H 0.77191 0.67819 0.00966 0.0
H494 H 0.87655 0.7905 0.99187 0.0
H495 H 0.93233 0.74295 0.99686 0.0
H496 H 0.76262 0.75405 0.05911 0.0
H497 H 0.79076 0.79463 0.88814 0.0
H498 H 0.81149 0.74986 0.91309 0.0
H499 H 0.84071 0.80597 0.92241 0.0
C500 C 0.83886 0.66528 0.01002 0.0
C501 C 0.8845 0.68281 1.00612 0.0
C502 C 0.80688 0.69258 0.00693 0.0
C503 C 0.81983 0.73788 0.99956 0.0
C504 C 0.86552 0.75553 0.99657 0.0
H505 H 0.69538 0.96575 0.96885 0.0
H506 H 0.7446 0.91203 0.97422 0.0
C507 C 0.89745 0.72832 0.99969 0.0
C508 C 0.78582 0.76684 0.9952 0.0
H509 H 0.7463 0.83695 0.92671 0.0
C510 C 0.75876 0.77191 0.03004 0.0
C511 C 0.78067 0.79016 0.95726 0.0
C512 C 0.80712 0.78465 0.91791 0.0
C513 C 0.72792 0.80077 0.02854 0.0
C514 C 0.72324 0.8246 0.99077 0.0
C515 C 0.74982 0.81889 0.95571 0.0
C516 C 0.6923 0.85686 0.98736 0.0
C517 C 0.70185 0.80664 0.06806 0.0
C518 C 0.64608 0.84385 0.99223 0.0
C519 C 0.6176 0.87471 0.98926 0.0
C520 C 0.63464 0.91925 0.98092 0.0
C521 C 0.68082 0.93184 0.97518 0.0
C522 C 0.70918 0.90108 0.9783 0.0
H523 H 0.71745 0.79526 0.09757 0.0
H524 H 0.69913 0.84181 0.07365 0.0
H525 H 0.6676 0.78677 0.06319 0.0
H526 H 0.63193 0.80977 0.99821 0.0
H527 H 0.58231 0.86368 0.99383 0.0
loop_
_geom_bond_atom_site_label_1
_geom_bond_atom_site_label_2
_geom_bond_distance
_geom_bond_site_symmetry_2
_ccdc_geom_bond_type
Co0 H3 2.400 . S
Co0 O4 2.009 . S
Co0 O12 2.113 1_565 S
Co0 O13 2.315 . S
Co0 O24 2.053 . S
Co0 O27 2.094 1_565 S
Co0 O30 2.122 1_665 S
Co1 O4 2.126 1_545 S
Co1 H5 2.388 1_655 S
Co1 O6 2.053 1_655 S
Co1 O9 2.047 1_655 S
Co1 O15 2.113 . S
Co1 O26 2.063 . S
Co2 H3 2.388 1_455 S
Co2 O4 2.053 1_455 S
Co2 O6 2.126 1_565 S
Co2 O11 2.063 . S
Co2 O25 2.047 1_455 S
Co2 O31 2.113 . S
H3 Co0 2.400 . S
H3 Co2 2.388 1_655 S
H3 O4 0.760 . S
O4 Co0 2.009 . S
O4 Co1 2.126 1_565 S
O4 Co2 2.053 1_655 S
O4 H3 0.760 . S
H5 Co1 2.388 1_455 S
H5 O6 0.760 . S
H5 Co7 2.400 . S
O6 Co1 2.053 1_455 S
O6 Co2 2.126 1_545 S
O6 H5 0.760 . S
O6 Co7 2.009 . S
Co7 H5 2.400 . S
Co7 O6 2.009 . S
Co7 O8 2.053 . S
Co7 O10 2.094 1_545 S
Co7 O14 2.122 1_445 S
Co7 O28 2.114 1_545 S
Co7 O29 2.315 . S
O8 Co7 2.053 . S
O8 C20 1.259 . S
O9 Co1 2.047 1_455 S
O9 C20 1.257 . S
O10 Co7 2.094 1_565 S
O10 C21 1.253 . S
O11 Co2 2.063 . S
O11 C21 1.268 . S
O12 Co0 2.113 1_545 S
O12 C22 1.284 1_545 S
O13 Co0 2.315 . S
O13 C22 1.252 . S
O14 Co7 2.122 1_665 S
O14 C23 1.272 1_565 S
O15 Co1 2.113 . S
O15 C23 1.245 . S
C16 O24 1.259 . S
C16 O25 1.257 . S
C17 O26 1.268 . S
C17 O27 1.253 . S
C18 O28 1.284 1_545 S
C18 O29 1.253 . S
C19 O30 1.272 1_565 S
C19 O31 1.245 . S
C20 O8 1.259 . S
C20 O9 1.257 . S
C21 O10 1.253 . S
C21 O11 1.268 . S
C22 O12 1.284 1_565 S
C22 O13 1.252 . S
C23 O14 1.272 1_545 S
C23 O15 1.245 . S
O24 Co0 2.053 . S
O24 C16 1.259 . S
O25 Co2 2.047 1_655 S
O25 C16 1.257 . S
O26 Co1 2.063 . S
O26 C17 1.268 . S
O27 Co0 2.094 1_545 S
O27 C17 1.253 . S
O28 Co7 2.114 1_565 S
O28 C18 1.284 1_565 S
O29 Co7 2.315 . S
O29 C18 1.253 . S
O30 Co0 2.122 1_445 S
O30 C19 1.272 1_545 S
O31 Co2 2.113 . S
O31 C19 1.245 . S
Co32 H35 2.400 1_545 S
Co32 O36 2.012 1_545 S
Co32 O44 2.115 . S
Co32 O45 2.315 . S
Co32 O56 2.053 1_545 S
Co32 O59 2.094 . S
Co32 O62 2.122 1_556 S
Co33 O36 2.108 1_545 S
Co33 H37 2.388 1_556 S
Co33 O38 2.072 1_556 S
Co33 O41 2.047 1_556 S
Co33 O47 2.113 . S
Co33 O58 2.063 . S
Co34 H35 2.388 1_554 S
Co34 O36 2.068 1_554 S
Co34 O38 2.102 1_565 S
Co34 O43 2.063 . S
Co34 O57 2.047 1_554 S
Co34 O63 2.113 . S
H35 Co32 2.400 1_565 S
H35 Co34 2.388 1_556 S
H35 O36 0.762 . S
O36 Co32 2.012 1_565 S
O36 Co33 2.108 1_565 S
O36 Co34 2.068 1_556 S
O36 H35 0.762 . S
H37 Co33 2.388 1_554 S
H37 O38 0.763 . S
H37 Co39 2.400 1_545 S
O38 Co33 2.072 1_554 S
O38 Co34 2.102 1_545 S
O38 H37 0.763 . S
O38 Co39 2.012 1_545 S
Co39 H37 2.400 1_565 S
Co39 O38 2.012 1_565 S
Co39 O40 2.053 1_565 S
Co39 O42 2.094 . S
Co39 O46 2.122 1_554 S
Co39 O60 2.115 . S
Co39 O61 2.315 . S
O40 Co39 2.053 1_545 S
O40 C52 1.259 . S
O41 Co33 2.047 1_554 S
O41 C52 1.257 . S
O42 Co39 2.094 . S
O42 C53 1.253 . S
O43 Co34 2.063 . S
O43 C53 1.268 . S
O44 Co32 2.115 . S
O44 C54 1.281 . S
O45 Co32 2.315 . S
O45 C54 1.252 . S
O46 Co39 2.122 1_556 S
O46 C55 1.272 1_565 S
O47 Co33 2.113 . S
O47 C55 1.245 . S
C48 O56 1.259 . S
C48 O57 1.257 . S
C49 O58 1.268 . S
C49 O59 1.253 . S
C50 O60 1.281 . S
C50 O61 1.252 . S
C51 O62 1.272 1_565 S
C51 O63 1.245 . S
C52 O40 1.259 . S
C52 O41 1.257 . S
C53 O42 1.253 . S
C53 O43 1.268 . S
C54 O44 1.281 . S
C54 O45 1.252 . S
C55 O46 1.272 1_545 S
C55 O47 1.245 . S
O56 Co32 2.053 1_565 S
O56 C48 1.259 . S
O57 Co34 2.047 1_556 S
O57 C48 1.257 . S
O58 Co33 2.063 . S
O58 C49 1.268 . S
O59 Co32 2.094 . S
O59 C49 1.253 . S
O60 Co39 2.115 . S
O60 C50 1.281 . S
O61 Co39 2.315 . S
O61 C50 1.252 . S
O62 Co32 2.122 1_554 S
O62 C51 1.272 1_545 S
O63 Co34 2.113 . S
O63 C51 1.245 . S
Co64 H67 2.399 1_554 S
Co64 O68 2.009 1_554 S
Co64 O76 2.116 . S
Co64 O77 2.317 . S
Co64 O88 2.032 1_554 S
Co64 O91 2.115 . S
Co64 O94 2.123 1_655 S
Co65 O68 2.126 1_554 S
Co65 H69 2.388 1_655 S
Co65 O70 2.053 1_655 S
Co65 O73 2.047 1_655 S
Co65 O79 2.113 . S
Co65 O90 2.063 . S
Co66 H67 2.388 1_455 S
Co66 O68 2.053 1_455 S
Co66 O70 2.126 1_556 S
Co66 O75 2.063 . S
Co66 O89 2.047 1_455 S
Co66 O95 2.113 . S
H67 Co64 2.399 1_556 S
H67 Co66 2.388 1_655 S
H67 O68 0.760 . S
O68 Co64 2.009 1_556 S
O68 Co65 2.126 1_556 S
O68 Co66 2.053 1_655 S
O68 H67 0.760 . S
H69 Co65 2.388 1_455 S
H69 O70 0.760 . S
H69 Co71 2.400 1_554 S
O70 Co65 2.053 1_455 S
O70 Co66 2.126 1_554 S
O70 H69 0.760 . S
O70 Co71 2.009 1_554 S
Co71 H69 2.400 1_556 S
Co71 O70 2.009 1_556 S
Co71 O72 2.038 1_556 S
Co71 O74 2.108 . S
Co71 O78 2.123 1_455 S
Co71 O92 2.116 . S
Co71 O93 2.316 . S
O72 Co71 2.038 1_554 S
O72 C84 1.259 . S
O73 Co65 2.047 1_455 S
O73 C84 1.257 . S
O74 Co71 2.108 . S
O74 C85 1.253 . S
O75 Co66 2.063 . S
O75 C85 1.268 . S
O76 Co64 2.116 . S
O76 C86 1.281 . S
O77 Co64 2.317 . S
O77 C86 1.252 . S
O78 Co71 2.123 1_655 S
O78 C87 1.272 1_556 S
O79 Co65 2.113 . S
O79 C87 1.245 . S
C80 O88 1.259 . S
C80 O89 1.257 . S
C81 O90 1.268 . S
C81 O91 1.253 . S
C82 O92 1.281 . S
C82 O93 1.252 . S
C83 O94 1.272 1_556 S
C83 O95 1.245 . S
C84 O72 1.259 . S
C84 O73 1.257 . S
C85 O74 1.253 . S
C85 O75 1.268 . S
C86 O76 1.281 . S
C86 O77 1.252 . S
C87 O78 1.272 1_554 S
C87 O79 1.245 . S
O88 Co64 2.032 1_556 S
O88 C80 1.259 . S
O89 Co66 2.047 1_655 S
O89 C80 1.257 . S
O90 Co65 2.063 . S
O90 C81 1.268 . S
O91 Co64 2.115 . S
O91 C81 1.253 . S
O92 Co71 2.116 . S
O92 C82 1.281 . S
O93 Co71 2.316 . S
O93 C82 1.252 . S
O94 Co64 2.123 1_455 S
O94 C83 1.272 1_554 S
O95 Co66 2.113 . S
O95 C83 1.245 . S
H96 C104 0.929 . S
H97 C106 0.930 . S
H98 C108 0.930 . S
H99 C111 0.929 . S
H100 C114 0.930 . S
H101 C116 0.960 . S
H102 C116 0.960 . S
H103 C116 0.960 . S
C104 H96 0.929 . S
C104 C105 1.377 . S
C104 C106 1.384 . S
C105 C104 1.377 . S
C105 C111 1.390 1_455 S
C106 H97 0.930 . S
C106 C104 1.384 . S
C106 C107 1.372 1_455 S
C107 C106 1.372 1_655 S
C107 C108 1.400 . S
C107 C112 1.490 . S
C108 H98 0.930 . S
C108 C107 1.400 . S
C108 C111 1.386 . S
H109 C125 0.930 . S
H110 C126 0.931 . S
C111 H99 0.929 . S
C111 C105 1.390 1_655 S
C111 C108 1.386 . S
C112 C107 1.490 . S
C112 C114 1.395 1_655 S
C112 C115 1.403 . S
H113 C119 0.930 . S
C114 H100 0.930 . S
C114 C112 1.395 1_455 S
C114 C117 1.403 . S
C115 C112 1.403 . S
C115 C116 1.524 . S
C115 C119 1.400 . S
C116 H101 0.960 . S
C116 H102 0.960 . S
C116 H103 0.960 . S
C116 C115 1.524 . S
C117 C114 1.403 . S
C117 C118 1.392 1_455 S
C117 C121 1.495 . S
C118 C117 1.392 1_655 S
C118 C119 1.385 . S
C118 C120 1.478 . S
C119 H113 0.930 . S
C119 C115 1.400 . S
C119 C118 1.385 . S
C120 C118 1.478 . S
C120 C122 1.381 1_655 S
C120 C126 1.383 . S
C121 C117 1.495 . S
C121 H127 0.959 . S
C121 H128 0.961 . S
C121 H129 0.960 . S
C122 C120 1.381 1_455 S
C122 C123 1.394 . S
C122 H130 0.930 . S
C123 C122 1.394 . S
C123 C124 1.383 1_455 S
C123 H131 0.929 . S
C124 C123 1.383 1_655 S
C124 C125 1.377 . S
C125 H109 0.930 . S
C125 C124 1.377 . S
C125 C126 1.379 . S
C126 H110 0.931 . S
C126 C120 1.383 . S
C126 C125 1.379 . S
H127 C121 0.959 . S
H128 C121 0.961 . S
H129 C121 0.960 . S
H130 C122 0.930 . S
H131 C123 0.929 . S
H132 C140 0.929 . S
H133 C142 0.930 . S
H134 C144 0.930 . S
H135 C147 0.929 . S
H136 C150 0.930 . S
H137 C152 0.960 . S
H138 C152 0.960 . S
H139 C152 0.960 . S
C140 H132 0.929 . S
C140 C141 1.377 . S
C140 C142 1.384 . S
C141 C140 1.377 . S
C141 C147 1.390 1_545 S
C142 H133 0.930 . S
C142 C140 1.384 . S
C142 C143 1.372 . S
C143 C142 1.372 . S
C143 C144 1.400 1_545 S
C143 C148 1.490 . S
C144 H134 0.930 . S
C144 C143 1.400 1_565 S
C144 C147 1.386 . S
H145 C161 0.930 . S
H146 C162 0.931 . S
C147 H135 0.929 . S
C147 C141 1.390 1_565 S
C147 C144 1.386 . S
C148 C143 1.490 . S
C148 C150 1.395 . S
C148 C151 1.403 1_545 S
H149 C155 0.930 . S
C150 H136 0.930 . S
C150 C148 1.395 . S
C150 C153 1.403 . S
C151 C148 1.403 1_565 S
C151 C152 1.524 . S
C151 C155 1.400 . S
C152 H137 0.960 . S
C152 H138 0.960 . S
C152 H139 0.960 . S
C152 C151 1.524 . S
C153 C150 1.403 . S
C153 C154 1.391 1_545 S
C153 C157 1.495 . S
C154 C153 1.391 1_565 S
C154 C155 1.388 . S
C154 C156 1.477 . S
C155 H149 0.930 . S
C155 C151 1.400 . S
C155 C154 1.388 . S
C156 C154 1.477 . S
C156 C158 1.381 1_565 S
C156 C162 1.383 . S
C157 C153 1.495 . S
C157 H163 0.959 . S
C157 H164 0.961 . S
C157 H165 0.960 . S
C158 C156 1.381 1_545 S
C158 C159 1.394 . S
C158 H166 0.930 . S
C159 C158 1.394 . S
C159 C160 1.383 1_545 S
C159 H167 0.929 . S
C160 C159 1.383 1_565 S
C160 C161 1.377 . S
C161 H145 0.930 . S
C161 C160 1.377 . S
C161 C162 1.379 . S
C162 H146 0.931 . S
C162 C156 1.383 . S
C162 C161 1.379 . S
H163 C157 0.959 . S
H164 C157 0.961 . S
H165 C157 0.960 . S
H166 C158 0.930 . S
H167 C159 0.929 . S
H168 C176 0.929 . S
H169 C178 0.930 . S
H170 C180 0.930 . S
H171 C183 0.929 . S
H172 C186 0.930 . S
H173 C188 0.951 1_455 S
H174 C188 0.972 . S
H175 C188 0.950 1_455 S
C176 H168 0.929 . S
C176 C177 1.377 . S
C176 C178 1.384 . S
C177 C176 1.377 . S
C177 C183 1.390 1_655 S
C178 H169 0.930 . S
C178 C176 1.384 . S
C178 C179 1.372 . S
C179 C178 1.372 . S
C179 C180 1.400 1_655 S
C179 C184 1.490 . S
C180 H170 0.930 . S
C180 C179 1.400 1_455 S
C180 C183 1.386 . S
H181 C197 0.930 1_455 S
H182 C198 0.931 1_455 S
C183 H171 0.929 . S
C183 C177 1.390 1_455 S
C183 C180 1.386 . S
C184 C179 1.490 . S
C184 C186 1.395 . S
C184 C187 1.403 . S
H185 C191 0.930 . S
C186 H172 0.930 . S
C186 C184 1.395 . S
C186 C189 1.403 . S
C187 C184 1.403 . S
C187 C188 1.531 . S
C187 C191 1.400 . S
C188 H173 0.951 1_655 S
C188 H174 0.972 . S
C188 H175 0.950 1_655 S
C188 C187 1.531 . S
C189 C186 1.403 . S
C189 C190 1.392 . S
C189 C193 1.495 . S
C190 C189 1.392 . S
C190 C191 1.385 . S
C190 C192 1.478 . S
C191 H185 0.930 . S
C191 C187 1.400 . S
C191 C190 1.385 . S
C192 C190 1.478 . S
C192 C194 1.381 . S
C192 C198 1.383 . S
C193 C189 1.495 . S
C193 H199 0.959 . S
C193 H200 0.961 . S
C193 H201 0.960 . S
C194 C192 1.381 . S
C194 C195 1.394 . S
C194 H202 0.930 . S
C195 C194 1.394 . S
C195 C196 1.383 . S
C195 H203 0.929 . S
C196 C195 1.383 . S
C196 C197 1.377 . S
C197 H181 0.930 1_655 S
C197 C196 1.377 . S
C197 C198 1.379 . S
C198 H182 0.931 1_655 S
C198 C192 1.383 . S
C198 C197 1.379 . S
H199 C193 0.959 . S
H200 C193 0.961 . S
H201 C193 0.960 . S
H202 C194 0.930 . S
H203 C195 0.929 . S
H204 C212 0.929 . S
H205 C214 0.930 . S
H206 C216 0.930 . S
H207 C219 0.929 . S
H208 C222 0.930 . S
H209 C224 0.960 . S
H210 C224 0.960 . S
H211 C224 0.960 . S
C212 H204 0.929 . S
C212 C213 1.377 . S
C212 C214 1.384 . S
C213 C212 1.377 . S
C213 C219 1.390 1_565 S
C214 H205 0.930 . S
C214 C212 1.384 . S
C214 C215 1.372 . S
C215 C214 1.372 . S
C215 C216 1.400 1_565 S
C215 C220 1.490 . S
C216 H206 0.930 . S
C216 C215 1.400 1_545 S
C216 C219 1.386 . S
H217 C233 0.930 . S
H218 C234 0.931 . S
C219 H207 0.929 . S
C219 C213 1.390 1_545 S
C219 C216 1.386 . S
C220 C215 1.490 . S
C220 C222 1.395 . S
C220 C223 1.403 . S
H221 C227 0.930 . S
C222 H208 0.930 . S
C222 C220 1.395 . S
C222 C225 1.403 . S
C223 C220 1.403 . S
C223 C224 1.524 . S
C223 C227 1.400 . S
C224 H209 0.960 . S
C224 H210 0.960 . S
C224 H211 0.960 . S
C224 C223 1.524 . S
C225 C222 1.403 . S
C225 C226 1.392 . S
C225 C229 1.495 . S
C226 C225 1.392 . S
C226 C227 1.385 . S
C226 C228 1.478 . S
C227 H221 0.930 . S
C227 C223 1.400 . S
C227 C226 1.385 . S
C228 C226 1.478 . S
C228 C230 1.381 . S
C228 C234 1.383 1_565 S
C229 C225 1.495 . S
C229 H235 0.959 . S
C229 H236 0.961 1_565 S
C229 H237 0.960 . S
C230 C228 1.381 . S
C230 C231 1.394 . S
C230 H238 0.930 . S
C231 C230 1.394 . S
C231 C232 1.383 . S
C231 H239 0.929 . S
C232 C231 1.383 . S
C232 C233 1.377 1_565 S
C233 H217 0.930 . S
C233 C232 1.377 1_545 S
C233 C234 1.379 . S
C234 H218 0.931 . S
C234 C228 1.383 1_545 S
C234 C233 1.379 . S
H235 C229 0.959 . S
H236 C229 0.961 1_545 S
H237 C229 0.960 . S
H238 C230 0.930 . S
H239 C231 0.929 . S
H240 C248 0.929 . S
H241 C250 0.930 . S
H242 C252 0.930 . S
H243 C255 0.929 . S
H244 C258 0.930 . S
H245 C260 0.960 . S
H246 C260 0.960 . S
H247 C260 0.960 . S
C248 H240 0.929 . S
C248 C249 1.377 . S
C248 C250 1.384 . S
C249 C248 1.377 . S
C249 C255 1.390 . S
C250 H241 0.930 . S
C250 C248 1.384 . S
C250 C251 1.372 . S
C251 C250 1.372 . S
C251 C252 1.400 . S
C251 C256 1.490 . S
C252 H242 0.930 . S
C252 C251 1.400 . S
C252 C255 1.386 . S
H253 C269 0.930 . S
H254 C270 0.931 1_455 S
C255 H243 0.929 . S
C255 C249 1.390 . S
C255 C252 1.386 . S
C256 C251 1.490 . S
C256 C258 1.395 1_455 S
C256 C259 1.403 . S
H257 C263 0.930 . S
C258 H244 0.930 . S
C258 C256 1.395 1_655 S
C258 C261 1.403 . S
C259 C256 1.403 . S
C259 C260 1.524 . S
C259 C263 1.400 . S
C260 H245 0.960 . S
C260 H246 0.960 . S
C260 H247 0.960 . S
C260 C259 1.524 . S
C261 C258 1.403 . S
C261 C262 1.392 1_655 S
C261 C265 1.495 . S
C262 C261 1.392 1_455 S
C262 C263 1.385 . S
C262 C264 1.478 1_455 S
C263 H257 0.930 . S
C263 C259 1.400 . S
C263 C262 1.385 . S
C264 C262 1.478 1_655 S
C264 C266 1.381 . S
C264 C270 1.383 . S
C265 C261 1.495 . S
C265 H271 0.959 . S
C265 H272 0.961 . S
C265 H273 0.960 . S
C266 C264 1.381 . S
C266 C267 1.394 . S
C266 H274 0.930 . S
C267 C266 1.394 . S
C267 C268 1.383 . S
C267 H275 0.929 . S
C268 C267 1.383 . S
C268 C269 1.377 . S
C269 H253 0.930 . S
C269 C268 1.377 . S
C269 C270 1.379 . S
C270 H254 0.931 1_655 S
C270 C264 1.383 . S
C270 C269 1.379 . S
H271 C265 0.959 . S
H272 C265 0.961 . S
H273 C265 0.960 . S
H274 C266 0.930 . S
H275 C267 0.929 . S
H276 C284 0.929 . S
H277 C286 0.930 . S
H278 C288 0.930 . S
H279 C291 0.929 . S
H280 C294 0.930 . S
H281 C296 0.960 . S
H282 C296 0.960 . S
H283 C296 0.960 . S
C284 H276 0.929 . S
C284 C285 1.377 1_565 S
C284 C286 1.384 . S
C285 C284 1.377 1_545 S
C285 C291 1.390 . S
C286 H277 0.930 . S
C286 C284 1.384 . S
C286 C287 1.372 1_565 S
C287 C286 1.372 1_545 S
C287 C288 1.400 . S
C287 C292 1.490 . S
C288 H278 0.930 . S
C288 C287 1.400 . S
C288 C291 1.386 . S
H289 C305 0.930 . S
H290 C306 0.931 . S
C291 H279 0.929 . S
C291 C285 1.390 . S
C291 C288 1.386 . S
C292 C287 1.490 . S
C292 C294 1.395 1_545 S
C292 C295 1.403 . S
H293 C299 0.930 . S
C294 H280 0.930 . S
C294 C292 1.395 1_565 S
C294 C297 1.403 . S
C295 C292 1.403 . S
C295 C296 1.524 . S
C295 C299 1.400 . S
C296 H281 0.960 . S
C296 H282 0.960 . S
C296 H283 0.960 . S
C296 C295 1.524 . S
C297 C294 1.403 . S
C297 C298 1.392 . S
C297 C301 1.495 . S
C298 C297 1.392 . S
C298 C299 1.385 1_565 S
C298 C300 1.478 . S
C299 H293 0.930 . S
C299 C295 1.400 . S
C299 C298 1.385 1_545 S
C300 C298 1.478 . S
C300 C302 1.381 . S
C300 C306 1.383 1_565 S
C301 C297 1.495 . S
C301 H307 0.959 . S
C301 H308 0.961 . S
C301 H309 0.960 . S
C302 C300 1.381 . S
C302 C303 1.394 . S
C302 H310 0.930 . S
C303 C302 1.394 . S
C303 C304 1.383 . S
C303 H311 0.929 . S
C304 C303 1.383 . S
C304 C305 1.377 1_565 S
C305 H289 0.930 . S
C305 C304 1.377 1_545 S
C305 C306 1.379 . S
C306 H290 0.931 . S
C306 C300 1.383 1_545 S
C306 C305 1.379 . S
H307 C301 0.959 . S
H308 C301 0.961 . S
H309 C301 0.960 . S
H310 C302 0.930 . S
H311 C303 0.929 . S
H312 C320 0.929 . S
H313 C322 0.930 . S
H314 C324 0.930 1_655 S
H315 C327 0.929 1_655 S
H316 C330 0.930 . S
H317 C332 0.960 . S
H318 C332 0.960 . S
H319 C332 0.960 . S
C320 H312 0.929 . S
C320 C321 1.377 . S
C320 C322 1.384 . S
C321 C320 1.377 . S
C321 C327 1.390 . S
C322 H313 0.930 . S
C322 C320 1.384 . S
C322 C323 1.372 . S
C323 C322 1.372 . S
C323 C324 1.400 . S
C323 C328 1.490 . S
C324 H314 0.930 1_455 S
C324 C323 1.400 . S
C324 C327 1.386 . S
H325 C341 0.930 . S
H326 C342 0.931 . S
C327 H315 0.929 1_455 S
C327 C321 1.390 . S
C327 C324 1.386 . S
C328 C323 1.490 . S
C328 C330 1.395 . S
C328 C331 1.403 . S
H329 C335 0.930 . S
C330 H316 0.930 . S
C330 C328 1.395 . S
C330 C333 1.403 . S
C331 C328 1.403 . S
C331 C332 1.524 . S
C331 C335 1.400 . S
C332 H317 0.960 . S
C332 H318 0.960 . S
C332 H319 0.960 . S
C332 C331 1.524 . S
C333 C330 1.403 . S
C333 C334 1.392 . S
C333 C337 1.495 . S
C334 C333 1.392 . S
C334 C335 1.385 . S
C334 C336 1.478 . S
C335 H329 0.930 . S
C335 C331 1.400 . S
C335 C334 1.385 . S
C336 C334 1.478 . S
C336 C338 1.381 . S
C336 C342 1.383 1_455 S
C337 C333 1.495 . S
C337 H343 0.959 . S
C337 H344 0.961 . S
C337 H345 0.960 . S
C338 C336 1.381 . S
C338 C339 1.394 . S
C338 H346 0.930 . S
C339 C338 1.394 . S
C339 C340 1.383 . S
C339 H347 0.929 . S
C340 C339 1.383 . S
C340 C341 1.377 1_455 S
C341 H325 0.930 . S
C341 C340 1.377 1_655 S
C341 C342 1.379 . S
C342 H326 0.931 . S
C342 C336 1.383 1_655 S
C342 C341 1.379 . S
H343 C337 0.959 . S
H344 C337 0.961 . S
H345 C337 0.960 . S
H346 C338 0.930 . S
H347 C339 0.929 . S
H348 C356 0.929 . S
H349 C358 0.930 . S
H350 C360 0.930 . S
H351 C363 0.929 . S
H352 C366 0.930 . S
H353 C368 0.960 . S
H354 C368 0.960 . S
H355 C368 0.960 . S
C356 H348 0.929 . S
C356 C357 1.377 . S
C356 C358 1.384 . S
C357 C356 1.377 . S
C357 C363 1.390 . S
C358 H349 0.930 . S
C358 C356 1.384 . S
C358 C359 1.372 . S
C359 C358 1.372 . S
C359 C360 1.400 . S
C359 C364 1.490 . S
C360 H350 0.930 . S
C360 C359 1.400 . S
C360 C363 1.386 . S
H361 C377 0.930 . S
H362 C378 0.931 . S
C363 H351 0.929 . S
C363 C357 1.390 . S
C363 C360 1.386 . S
C364 C359 1.490 . S
C364 C366 1.395 1_545 S
C364 C367 1.403 . S
H365 C371 0.930 . S
C366 H352 0.930 . S
C366 C364 1.395 1_565 S
C366 C369 1.403 . S
C367 C364 1.403 . S
C367 C368 1.524 . S
C367 C371 1.400 . S
C368 H353 0.960 . S
C368 H354 0.960 . S
C368 H355 0.960 . S
C368 C367 1.524 . S
C369 C366 1.403 . S
C369 C370 1.392 1_565 S
C369 C373 1.495 . S
C370 C369 1.392 1_545 S
C370 C371 1.385 . S
C370 C372 1.478 . S
C371 H365 0.930 . S
C371 C367 1.400 . S
C371 C370 1.385 . S
C372 C370 1.478 . S
C372 C374 1.381 1_545 S
C372 C378 1.383 . S
C373 C369 1.495 . S
C373 H379 0.959 . S
C373 H380 0.961 . S
C373 H381 0.960 . S
C374 C372 1.381 1_565 S
C374 C375 1.394 . S
C374 H382 0.930 . S
C375 C374 1.394 . S
C375 C376 1.383 1_565 S
C375 H383 0.929 . S
C376 C375 1.383 1_545 S
C376 C377 1.377 . S
C377 H361 0.930 . S
C377 C376 1.377 . S
C377 C378 1.379 . S
C378 H362 0.931 . S
C378 C372 1.383 . S
C378 C377 1.379 . S
H379 C373 0.959 . S
H380 C373 0.961 . S
H381 C373 0.960 . S
H382 C374 0.930 . S
H383 C375 0.929 . S
H384 C392 0.929 . S
H385 C394 0.930 . S
H386 C396 0.930 . S
H387 C399 0.929 . S
H388 C402 0.930 . S
H389 C404 0.960 . S
H390 C404 0.960 . S
H391 C404 0.960 . S
C392 H384 0.929 . S
C392 C393 1.377 . S
C392 C394 1.384 . S
C393 C392 1.377 . S
C393 C399 1.390 . S
C394 H385 0.930 . S
C394 C392 1.384 . S
C394 C395 1.372 . S
C395 C394 1.372 . S
C395 C396 1.400 . S
C395 C400 1.490 . S
C396 H386 0.930 . S
C396 C395 1.400 . S
C396 C399 1.386 . S
H397 C413 0.930 . S
H398 C414 0.931 . S
C399 H387 0.929 . S
C399 C393 1.390 . S
C399 C396 1.386 . S
C400 C395 1.490 . S
C400 C402 1.395 1_556 S
C400 C403 1.403 . S
H401 C407 0.930 . S
C402 H388 0.930 . S
C402 C400 1.395 1_554 S
C402 C405 1.403 . S
C403 C400 1.403 . S
C403 C404 1.524 . S
C403 C407 1.400 . S
C404 H389 0.960 . S
C404 H390 0.960 . S
C404 H391 0.960 . S
C404 C403 1.524 . S
C405 C402 1.403 . S
C405 C406 1.392 . S
C405 C409 1.495 . S
C406 C405 1.392 . S
C406 C407 1.385 1_554 S
C406 C408 1.478 . S
C407 H401 0.930 . S
C407 C403 1.400 . S
C407 C406 1.385 1_556 S
C408 C406 1.478 . S
C408 C410 1.381 . S
C408 C414 1.383 . S
C409 C405 1.495 . S
C409 H415 0.959 . S
C409 H416 0.961 . S
C409 H417 0.960 . S
C410 C408 1.381 . S
C410 C411 1.394 . S
C410 H418 0.930 . S
C411 C410 1.394 . S
C411 C412 1.383 . S
C411 H419 0.929 . S
C412 C411 1.383 . S
C412 C413 1.377 . S
C413 H397 0.930 . S
C413 C412 1.377 . S
C413 C414 1.379 . S
C414 H398 0.931 . S
C414 C408 1.383 . S
C414 C413 1.379 . S
H415 C409 0.959 . S
H416 C409 0.961 . S
H417 C409 0.960 . S
H418 C410 0.930 . S
H419 C411 0.929 . S
H420 C428 0.929 . S
H421 C430 0.930 . S
H422 C432 0.930 . S
H423 C435 0.929 1_554 S
H424 C438 0.930 . S
H425 C440 0.960 . S
H426 C440 0.960 . S
H427 C440 0.960 . S
C428 H420 0.929 . S
C428 C429 1.377 . S
C428 C430 1.384 . S
C429 C428 1.377 . S
C429 C435 1.390 . S
C430 H421 0.930 . S
C430 C428 1.384 . S
C430 C431 1.372 . S
C431 C430 1.372 . S
C431 C432 1.400 1_556 S
C431 C436 1.490 1_556 S
C432 H422 0.930 . S
C432 C431 1.400 1_554 S
C432 C435 1.386 1_554 S
H433 C449 0.930 . S
H434 C450 0.931 . S
C435 H423 0.929 1_556 S
C435 C429 1.390 . S
C435 C432 1.386 1_556 S
C436 C431 1.490 1_554 S
C436 C438 1.395 . S
C436 C439 1.403 1_554 S
H437 C443 0.930 . S
C438 H424 0.930 . S
C438 C436 1.395 . S
C438 C441 1.403 . S
C439 C436 1.403 1_556 S
C439 C440 1.524 . S
C439 C443 1.400 . S
C440 H425 0.960 . S
C440 H426 0.960 . S
C440 H427 0.960 . S
C440 C439 1.524 . S
C441 C438 1.403 . S
C441 C442 1.392 . S
C441 C445 1.495 . S
C442 C441 1.392 . S
C442 C443 1.385 1_554 S
C442 C444 1.478 . S
C443 H437 0.930 . S
C443 C439 1.400 . S
C443 C442 1.385 1_556 S
C444 C442 1.478 . S
C444 C446 1.381 . S
C444 C450 1.383 . S
C445 C441 1.495 . S
C445 H451 0.959 . S
C445 H452 0.961 . S
C445 H453 0.960 . S
C446 C444 1.381 . S
C446 C447 1.394 . S
C446 H454 0.930 . S
C447 C446 1.394 . S
C447 C448 1.383 . S
C447 H455 0.929 . S
C448 C447 1.383 . S
C448 C449 1.377 . S
C449 H433 0.930 . S
C449 C448 1.377 . S
C449 C450 1.379 . S
C450 H434 0.931 . S
C450 C444 1.383 . S
C450 C449 1.379 . S
H451 C445 0.959 . S
H452 C445 0.961 . S
H453 C445 0.960 . S
H454 C446 0.930 . S
H455 C447 0.929 . S
H456 C464 0.929 . S
H457 C466 0.930 . S
H458 C468 0.930 1_554 S
H459 C471 0.929 1_554 S
H460 C474 0.930 . S
H461 C476 0.960 . S
H462 C476 0.960 . S
H463 C476 0.960 . S
C464 H456 0.929 . S
C464 C465 1.377 . S
C464 C466 1.384 . S
C465 C464 1.377 . S
C465 C471 1.390 . S
C466 H457 0.930 . S
C466 C464 1.384 . S
C466 C467 1.372 . S
C467 C466 1.372 . S
C467 C468 1.400 . S
C467 C472 1.490 . S
C468 H458 0.930 1_556 S
C468 C467 1.400 . S
C468 C471 1.386 . S
H469 C485 0.930 . S
H470 C486 0.931 . S
C471 H459 0.929 1_556 S
C471 C465 1.390 . S
C471 C468 1.386 . S
C472 C467 1.490 . S
C472 C474 1.395 . S
C472 C475 1.403 . S
H473 C479 0.930 . S
C474 H460 0.930 . S
C474 C472 1.395 . S
C474 C477 1.403 . S
C475 C472 1.403 . S
C475 C476 1.524 . S
C475 C479 1.400 . S
C476 H461 0.960 . S
C476 H462 0.960 . S
C476 H463 0.960 . S
C476 C475 1.524 . S
C477 C474 1.403 . S
C477 C478 1.392 . S
C477 C481 1.495 . S
C478 C477 1.392 . S
C478 C479 1.385 . S
C478 C480 1.478 1_556 S
C479 H473 0.930 . S
C479 C475 1.400 . S
C479 C478 1.385 . S
C480 C478 1.478 1_554 S
C480 C482 1.381 1_554 S
C480 C486 1.383 . S
C481 C477 1.495 . S
C481 H487 0.959 . S
C481 H488 0.961 1_556 S
C481 H489 0.960 . S
C482 C480 1.381 1_556 S
C482 C483 1.394 . S
C482 H490 0.930 . S
C483 C482 1.394 . S
C483 C484 1.383 1_556 S
C483 H491 0.929 . S
C484 C483 1.383 1_554 S
C484 C485 1.377 . S
C485 H469 0.930 . S
C485 C484 1.377 . S
C485 C486 1.379 . S
C486 H470 0.931 . S
C486 C480 1.383 . S
C486 C485 1.379 . S
H487 C481 0.959 . S
H488 C481 0.961 1_554 S
H489 C481 0.960 . S
H490 C482 0.930 . S
H491 C483 0.929 . S
H492 C500 0.929 . S
H493 C502 0.931 . S
H494 C504 0.930 . S
H495 C507 0.929 . S
H496 C510 0.930 . S
H497 C512 0.960 . S
H498 C512 0.960 . S
H499 C512 0.960 . S
C500 H492 0.929 . S
C500 C501 1.377 . S
C500 C502 1.384 . S
C501 C500 1.377 . S
C501 C507 1.390 . S
C502 H493 0.931 . S
C502 C500 1.384 . S
C502 C503 1.372 . S
C503 C502 1.372 . S
C503 C504 1.400 . S
C503 C508 1.490 . S
C504 H494 0.930 . S
C504 C503 1.400 . S
C504 C507 1.386 . S
H505 C521 0.930 1_554 S
H506 C522 0.931 . S
C507 H495 0.929 . S
C507 C501 1.390 . S
C507 C504 1.386 . S
C508 C503 1.490 . S
C508 C510 1.395 . S
C508 C511 1.403 1_554 S
H509 C515 0.930 . S
C510 H496 0.930 . S
C510 C508 1.395 . S
C510 C513 1.403 . S
C511 C508 1.403 1_556 S
C511 C512 1.524 . S
C511 C515 1.400 . S
C512 H497 0.960 . S
C512 H498 0.960 . S
C512 H499 0.960 . S
C512 C511 1.524 . S
C513 C510 1.403 . S
C513 C514 1.392 . S
C513 C517 1.495 . S
C514 C513 1.392 . S
C514 C515 1.385 1_554 S
C514 C516 1.476 1_554 S
C515 H509 0.930 . S
C515 C511 1.400 . S
C515 C514 1.385 1_556 S
C516 C514 1.476 1_556 S
C516 C518 1.386 . S
C516 C522 1.381 1_556 S
C517 C513 1.495 . S
C517 H523 0.959 . S
C517 H524 0.961 . S
C517 H525 0.960 . S
C518 C516 1.386 . S
C518 C519 1.394 . S
C518 H526 0.930 . S
C519 C518 1.394 . S
C519 C520 1.383 . S
C519 H527 0.929 . S
C520 C519 1.383 . S
C520 C521 1.377 . S
C521 H505 0.930 1_556 S
C521 C520 1.377 . S
C521 C522 1.379 1_556 S
C522 H506 0.931 . S
C522 C516 1.381 1_554 S
C522 C521 1.379 1_554 S
H523 C517 0.959 . S
H524 C517 0.961 . S
H525 C517 0.960 . S
H526 C518 0.930 . S
H527 C519 0.929 . S
C105 C84 2.128 . S
C124 C17 2.061 . S
C141 C22 0.855 1_545 S
C160 C51 0.793 . S
C177 C16 1.513 . S
C196 C81 1.463 . S
C213 C50 1.490 . S
C232 C19 1.470 . S
C249 C21 2.072 . S
C268 C80 2.134 . S
C285 C55 0.855 . S
C304 C18 0.876 1_565 S
C321 C85 1.478 . S
C340 C20 1.495 . S
C357 C54 1.490 . S
C376 C23 1.448 . S
C393 C82 2.094 . S
C412 C52 2.089 . S
C429 C83 0.818 . S
C448 C53 0.835 . S
C465 C49 0.821 . S
C484 C87 0.862 . S
C501 C86 2.090 . S
C520 C48 2.093 . S
