# Generated by pormake.
# Topology whz, (6)-cn, num edge types: 1
# Building blocks:
#     Node 0, Type 0, BuildingBlock: FUNLAD_clean_sbu_0, # of connection points: 6
#     Node 1, Type 0, BuildingBlock: FUNLAD_clean_sbu_0, # of connection points: 6
#     Node 2, Type 0, BuildingBlock: FUNLAD_clean_sbu_0, # of connection points: 6
#     Node 3, Type 0, BuildingBlock: FUNLAD_clean_sbu_0, # of connection points: 6
#     Node 4, Type 0, BuildingBlock: FUNLAD_clean_sbu_0, # of connection points: 6
#     Node 5, Type 0, BuildingBlock: FUNLAD_clean_sbu_0, # of connection points: 6
#     Node 6, Type 0, BuildingBlock: FUNLAD_clean_sbu_0, # of connection points: 6
#     Node 7, Type 0, BuildingBlock: FUNLAD_clean_sbu_0, # of connection points: 6
#     Node 8, Type 0, BuildingBlock: FUNLAD_clean_sbu_0, # of connection points: 6
#     Node 9, Type 0, BuildingBlock: FUNLAD_clean_sbu_0, # of connection points: 6
#     Node 10, Type 0, BuildingBlock: FUNLAD_clean_sbu_0, # of connection points: 6
#     Node 11, Type 0, BuildingBlock: FUNLAD_clean_sbu_0, # of connection points: 6
#     Node 12, Type 0, BuildingBlock: FUNLAD_clean_sbu_0, # of connection points: 6
#     Node 13, Type 0, BuildingBlock: FUNLAD_clean_sbu_0, # of connection points: 6
#     Node 14, Type 0, BuildingBlock: FUNLAD_clean_sbu_0, # of connection points: 6
#     Node 15, Type 0, BuildingBlock: FUNLAD_clean_sbu_0, # of connection points: 6
#     Edge 16, Type (0, 0), BuildingBlock: TEMPAE_clean_linker_10, # of connection points: 2
#     Edge 17, Type (0, 0), BuildingBlock: TEMPAE_clean_linker_10, # of connection points: 2
#     Edge 18, Type (0, 0), BuildingBlock: TEMPAE_clean_linker_10, # of connection points: 2
#     Edge 19, Type (0, 0), BuildingBlock: TEMPAE_clean_linker_10, # of connection points: 2
#     Edge 20, Type (0, 0), BuildingBlock: TEMPAE_clean_linker_10, # of connection points: 2
#     Edge 21, Type (0, 0), BuildingBlock: TEMPAE_clean_linker_10, # of connection points: 2
#     Edge 22, Type (0, 0), BuildingBlock: TEMPAE_clean_linker_10, # of connection points: 2
#     Edge 23, Type (0, 0), BuildingBlock: TEMPAE_clean_linker_10, # of connection points: 2
#     Edge 24, Type (0, 0), BuildingBlock: TEMPAE_clean_linker_10, # of connection points: 2
#     Edge 25, Type (0, 0), BuildingBlock: TEMPAE_clean_linker_10, # of connection points: 2
#     Edge 26, Type (0, 0), BuildingBlock: TEMPAE_clean_linker_10, # of connection points: 2
#     Edge 27, Type (0, 0), BuildingBlock: TEMPAE_clean_linker_10, # of connection points: 2
#     Edge 28, Type (0, 0), BuildingBlock: TEMPAE_clean_linker_10, # of connection points: 2
#     Edge 29, Type (0, 0), BuildingBlock: TEMPAE_clean_linker_10, # of connection points: 2
#     Edge 30, Type (0, 0), BuildingBlock: TEMPAE_clean_linker_10, # of connection points: 2
#     Edge 31, Type (0, 0), BuildingBlock: TEMPAE_clean_linker_10, # of connection points: 2
#     Edge 32, Type (0, 0), BuildingBlock: TEMPAE_clean_linker_10, # of connection points: 2
#     Edge 33, Type (0, 0), BuildingBlock: TEMPAE_clean_linker_10, # of connection points: 2
#     Edge 34, Type (0, 0), BuildingBlock: TEMPAE_clean_linker_10, # of connection points: 2
#     Edge 35, Type (0, 0), BuildingBlock: TEMPAE_clean_linker_10, # of connection points: 2
#     Edge 36, Type (0, 0), BuildingBlock: TEMPAE_clean_linker_10, # of connection points: 2
#     Edge 37, Type (0, 0), BuildingBlock: TEMPAE_clean_linker_10, # of connection points: 2
#     Edge 38, Type (0, 0), BuildingBlock: TEMPAE_clean_linker_10, # of connection points: 2
#     Edge 39, Type (0, 0), BuildingBlock: TEMPAE_clean_linker_10, # of connection points: 2
#     Edge 40, Type (0, 0), BuildingBlock: TEMPAE_clean_linker_10, # of connection points: 2
#     Edge 41, Type (0, 0), BuildingBlock: TEMPAE_clean_linker_10, # of connection points: 2
#     Edge 42, Type (0, 0), BuildingBlock: TEMPAE_clean_linker_10, # of connection points: 2
#     Edge 43, Type (0, 0), BuildingBlock: TEMPAE_clean_linker_10, # of connection points: 2
#     Edge 44, Type (0, 0), BuildingBlock: TEMPAE_clean_linker_10, # of connection points: 2
#     Edge 45, Type (0, 0), BuildingBlock: TEMPAE_clean_linker_10, # of connection points: 2
#     Edge 46, Type (0, 0), BuildingBlock: TEMPAE_clean_linker_10, # of connection points: 2
#     Edge 47, Type (0, 0), BuildingBlock: TEMPAE_clean_linker_10, # of connection points: 2
#     Edge 48, Type (0, 0), BuildingBlock: TEMPAE_clean_linker_10, # of connection points: 2
#     Edge 49, Type (0, 0), BuildingBlock: TEMPAE_clean_linker_10, # of connection points: 2
#     Edge 50, Type (0, 0), BuildingBlock: TEMPAE_clean_linker_10, # of connection points: 2
#     Edge 51, Type (0, 0), BuildingBlock: TEMPAE_clean_linker_10, # of connection points: 2
#     Edge 52, Type (0, 0), BuildingBlock: TEMPAE_clean_linker_10, # of connection points: 2
#     Edge 53, Type (0, 0), BuildingBlock: TEMPAE_clean_linker_10, # of connection points: 2
#     Edge 54, Type (0, 0), BuildingBlock: TEMPAE_clean_linker_10, # of connection points: 2
#     Edge 55, Type (0, 0), BuildingBlock: TEMPAE_clean_linker_10, # of connection points: 2
#     Edge 56, Type (0, 0), BuildingBlock: TEMPAE_clean_linker_10, # of connection points: 2
#     Edge 57, Type (0, 0), BuildingBlock: TEMPAE_clean_linker_10, # of connection points: 2
#     Edge 58, Type (0, 0), BuildingBlock: TEMPAE_clean_linker_10, # of connection points: 2
#     Edge 59, Type (0, 0), BuildingBlock: TEMPAE_clean_linker_10, # of connection points: 2
#     Edge 60, Type (0, 0), BuildingBlock: TEMPAE_clean_linker_10, # of connection points: 2
#     Edge 61, Type (0, 0), BuildingBlock: TEMPAE_clean_linker_10, # of connection points: 2
#     Edge 62, Type (0, 0), BuildingBlock: TEMPAE_clean_linker_10, # of connection points: 2
#     Edge 63, Type (0, 0), BuildingBlock: TEMPAE_clean_linker_10, # of connection points: 2
# Relax obj value: 0.652
# Max RMSD: 0.290
# Mean RMSD: 0.290
data_MOF--net-whz--node1-FUNLAD_clean_sbu_0--edge1-TEMPAE_clean_linker_10
_symmetry_space_group_name_H-M    P1
_symmetry_Int_Tables_number       1
_symmetry_cell_setting            triclinic
loop_
_symmetry_equiv_pos_as_xyz
'x, y, z'
_cell_length_a     38.253429
_cell_length_b     38.265259
_cell_length_c     57.230585
_cell_angle_alpha  90.015447
_cell_angle_beta   90.023317
_cell_angle_gamma 89.970623
loop_
_atom_site_label
_atom_site_type_symbol
_atom_site_fract_x
_atom_site_fract_y
_atom_site_fract_z
_atom_type_partial_charge
C0 C 0.33367 0.11751 0.10184 0.0
N1 N 0.28497 0.21298 0.11468 0.0
C2 C 0.30526 0.23616 0.10275 0.0
C3 C 0.29119 0.26805 0.0953 0.0
C4 C 0.25585 0.27539 0.09971 0.0
C5 C 0.23516 0.2502 0.1107 0.0
C6 C 0.25037 0.21937 0.11839 0.0
Zn7 Zn 0.30559 0.17121 0.13227 0.0
C8 C 0.25315 0.11766 0.14214 0.0
N9 N 0.34325 0.08754 0.17508 0.0
C10 C 0.3714 0.06611 0.17212 0.0
C11 C 0.32007 0.08177 0.19277 0.0
C12 C 0.3238 0.05347 0.20771 0.0
C13 C 0.35211 0.03085 0.20503 0.0
C14 C 0.3766 0.03751 0.18725 0.0
Zn15 Zn 0.32857 0.12919 0.15395 0.0
O16 O 0.32297 0.14885 0.10205 0.0
C17 C 0.3818 0.18215 0.1449 0.0
O18 O 0.3377 0.10094 0.12112 0.0
H19 H 0.29795 0.0989 0.19527 0.0
H20 H 0.33273 0.23082 0.1001 0.0
H21 H 0.38957 0.07097 0.15801 0.0
O22 O 0.35487 0.19693 0.13622 0.0
O23 O 0.37922 0.15133 0.15316 0.0
H24 H 0.23474 0.20172 0.1287 0.0
O25 O 0.31747 0.15912 0.18505 0.0
O26 O 0.28728 0.19413 0.16257 0.0
O27 O 0.27841 0.108 0.15476 0.0
O28 O 0.2572 0.14353 0.12859 0.0
C29 C 0.29689 0.18495 0.18276 0.0
H30 H 0.30789 0.28723 0.08701 0.0
H31 H 0.20802 0.2554 0.11487 0.0
H32 H 0.30476 0.04945 0.22148 0.0
H33 H 0.39903 0.0206 0.18492 0.0
C34 C 0.63011 0.58752 0.35141 0.0
N35 N 0.53506 0.53738 0.36411 0.0
C36 C 0.5112 0.55789 0.35295 0.0
C37 C 0.47905 0.54387 0.34595 0.0
C38 C 0.47213 0.50837 0.35 0.0
C39 C 0.49803 0.48747 0.36006 0.0
C40 C 0.52913 0.50261 0.36734 0.0
Zn41 Zn 0.57696 0.5579 0.38172 0.0
C42 C 0.63131 0.50594 0.39079 0.0
N43 N 0.66054 0.59544 0.42471 0.0
C44 C 0.68143 0.6241 0.42243 0.0
C45 C 0.66666 0.57156 0.44193 0.0
C46 C 0.6948 0.57507 0.45702 0.0
C47 C 0.7169 0.60389 0.45504 0.0
C48 C 0.70983 0.62911 0.43778 0.0
Zn49 Zn 0.61896 0.58103 0.40343 0.0
O50 O 0.59899 0.57616 0.35162 0.0
C51 C 0.56542 0.63388 0.39524 0.0
O52 O 0.64676 0.59152 0.37067 0.0
H53 H 0.64989 0.54909 0.44399 0.0
H54 H 0.51617 0.58548 0.35065 0.0
H55 H 0.67626 0.64288 0.40873 0.0
O56 O 0.55086 0.60705 0.38627 0.0
O57 O 0.59629 0.63135 0.40345 0.0
H58 H 0.54731 0.48673 0.37708 0.0
O59 O 0.5895 0.56857 0.43451 0.0
O60 O 0.55447 0.53867 0.41188 0.0
O61 O 0.6408 0.53124 0.40341 0.0
O62 O 0.60508 0.50972 0.3775 0.0
C63 C 0.56388 0.54777 0.43213 0.0
H64 H 0.45936 0.56074 0.33834 0.0
H65 H 0.49322 0.46016 0.36393 0.0
H66 H 0.69904 0.55548 0.47041 0.0
H67 H 0.72629 0.65197 0.43601 0.0
C68 C 0.16836 0.87708 0.60412 0.0
N69 N 0.2127 0.77992 0.61962 0.0
C70 C 0.1935 0.75965 0.60483 0.0
C71 C 0.20731 0.72818 0.59638 0.0
C72 C 0.24132 0.71841 0.60282 0.0
C73 C 0.26088 0.7404 0.61725 0.0
C74 C 0.24586 0.77081 0.62578 0.0
Zn75 Zn 0.19252 0.82233 0.63658 0.0
C76 C 0.24656 0.87551 0.64694 0.0
N77 N 0.15506 0.91048 0.67616 0.0
C78 C 0.12604 0.93076 0.67331 0.0
C79 C 0.17858 0.91772 0.69343 0.0
C80 C 0.17428 0.94636 0.70801 0.0
C81 C 0.145 0.96775 0.70549 0.0
C82 C 0.12023 0.95961 0.68815 0.0
Zn83 Zn 0.17007 0.86786 0.65599 0.0
O84 O 0.18115 0.84659 0.60555 0.0
C85 C 0.11536 0.81527 0.64608 0.0
O86 O 0.16076 0.89411 0.6227 0.0
H87 H 0.20124 0.90134 0.69602 0.0
H88 H 0.16709 0.76715 0.60031 0.0
H89 H 0.10751 0.92465 0.65963 0.0
O90 O 0.14175 0.80009 0.63704 0.0
O91 O 0.1191 0.84525 0.65552 0.0
H92 H 0.26036 0.78617 0.63827 0.0
O93 O 0.18142 0.84008 0.68796 0.0
O94 O 0.20373 0.79717 0.6675 0.0
O95 O 0.21997 0.88931 0.65613 0.0
O96 O 0.24327 0.84647 0.63649 0.0
C97 C 0.19614 0.81034 0.68708 0.0
H98 H 0.19145 0.71134 0.58547 0.0
H99 H 0.28687 0.7331 0.62301 0.0
H100 H 0.19353 0.95144 0.7215 0.0
H101 H 0.09701 0.97548 0.68599 0.0
C102 C 0.86654 0.41181 0.85134 0.0
N103 N 0.96788 0.44752 0.86441 0.0
C104 C 0.96836 0.47618 0.8503 0.0
C105 C -0.00025 0.49385 0.84625 0.0
C106 C 0.03062 0.48142 0.85663 0.0
C107 C 0.0299 0.44929 0.86837 0.0
C108 C 0.99807 0.43293 0.87235 0.0
Zn109 Zn 0.92336 0.43359 0.88167 0.0
C110 C 0.8774 0.49253 0.89129 0.0
N111 N 0.83536 0.40611 0.92451 0.0
C112 C 0.81391 0.37774 0.92317 0.0
C113 C 0.82986 0.43129 0.94098 0.0
C114 C 0.80181 0.42928 0.95632 0.0
C115 C 0.7794 0.40052 0.95546 0.0
C116 C 0.78574 0.37419 0.93883 0.0
Zn117 Zn 0.8786 0.41571 0.90356 0.0
O118 O 0.8984 0.42086 0.85139 0.0
C119 C 0.92466 0.35642 0.89447 0.0
O120 O 0.85015 0.40789 0.87069 0.0
H121 H 0.84753 0.45315 0.94256 0.0
H122 H 0.94414 0.48726 0.84398 0.0
H123 H 0.8188 0.35777 0.91019 0.0
O124 O 0.94093 0.38127 0.88452 0.0
O125 O 0.89537 0.36253 0.90425 0.0
H126 H 0.99744 0.41055 0.88381 0.0
O127 O 0.9084 0.42567 0.93489 0.0
O128 O 0.94874 0.44749 0.91209 0.0
O129 O 0.86302 0.46822 0.90273 0.0
O130 O 0.90426 0.48582 0.87912 0.0
C131 C 0.93738 0.44144 0.93239 0.0
H132 H -0.00071 0.51845 0.8369 0.0
H133 H 0.05335 0.43838 0.8761 0.0
H134 H 0.79827 0.44964 0.96928 0.0
H135 H 0.76911 0.35133 0.93794 0.0
C136 C 0.69472 0.82263 0.81701 0.0
N137 N 0.63818 0.91128 0.83508 0.0
C138 C 0.62092 0.90465 0.81478 0.0
C139 C 0.61741 0.9307 0.79785 0.0
C140 C 0.63136 0.96421 0.80188 0.0
C141 C 0.64558 0.97125 0.82408 0.0
C142 C 0.6489 0.94425 0.84046 0.0
Zn143 Zn 0.66088 0.86917 0.85161 0.0
C144 C 0.61369 0.80881 0.85789 0.0
N145 N 0.71548 0.78325 0.88178 0.0
C146 C 0.74946 0.77985 0.87506 0.0
C147 C 0.69935 0.75795 0.89456 0.0
C148 C 0.71717 0.72711 0.90012 0.0
C149 C 0.75193 0.7228 0.89276 0.0
C150 C 0.76831 0.74994 0.8806 0.0
Zn151 Zn 0.68888 0.82497 0.86837 0.0
O152 O 0.67324 0.8479 0.8177 0.0
C153 C 0.73538 0.88571 0.86082 0.0
O154 O 0.70542 0.80909 0.8358 0.0
H155 H 0.6723 0.76106 0.89963 0.0
H156 H 0.61291 0.87826 0.81066 0.0
H157 H 0.76168 0.79957 0.86432 0.0
O158 O 0.708 0.89648 0.85074 0.0
O159 O 0.73473 0.85662 0.87146 0.0
H160 H 0.66284 0.949 0.8566 0.0
O161 O 0.67315 0.84052 0.90097 0.0
O162 O 0.65072 0.88926 0.88685 0.0
O163 O 0.64206 0.79484 0.86492 0.0
O164 O 0.61354 0.84083 0.85188 0.0
C165 C 0.65841 0.86976 0.90429 0.0
H166 H 0.60646 0.92358 0.78107 0.0
H167 H 0.65588 0.99682 0.82832 0.0
H168 H 0.70376 0.70655 0.90953 0.0
H169 H 0.79487 0.74724 0.87426 0.0
C170 C 0.43549 0.44348 0.56778 0.0
N171 N 0.3376 0.39861 0.5799 0.0
C172 C 0.33001 0.42143 0.56229 0.0
C173 C 0.30132 0.41644 0.54789 0.0
C174 C 0.28007 0.38725 0.551 0.0
C175 C 0.28847 0.36316 0.56872 0.0
C176 C 0.31749 0.36962 0.58332 0.0
Zn177 Zn 0.38011 0.41544 0.59963 0.0
C178 C 0.43534 0.36329 0.60943 0.0
N179 N 0.4669 0.46268 0.63464 0.0
C180 C 0.47411 0.49603 0.6279 0.0
C181 C 0.48881 0.44486 0.64915 0.0
C182 C 0.52001 0.46034 0.6567 0.0
C183 C 0.52788 0.49456 0.64962 0.0
C184 C 0.50421 0.51265 0.63551 0.0
Zn185 Zn 0.42492 0.44022 0.61853 0.0
O186 O 0.40675 0.42694 0.56735 0.0
C187 C 0.36943 0.49173 0.60817 0.0
O188 O 0.44857 0.45236 0.58713 0.0
H189 H 0.48283 0.41825 0.65408 0.0
H190 H 0.34603 0.4442 0.55932 0.0
H191 H 0.45751 0.50945 0.61558 0.0
O192 O 0.35675 0.46458 0.599 0.0
O193 O 0.39836 0.48969 0.61887 0.0
H194 H 0.32378 0.35169 0.59732 0.0
O195 O 0.40226 0.42801 0.64992 0.0
O196 O 0.355 0.40594 0.63336 0.0
O197 O 0.44958 0.39057 0.61794 0.0
O198 O 0.40485 0.36539 0.60044 0.0
C199 C 0.37228 0.41419 0.65173 0.0
H200 H 0.29598 0.4352 0.53415 0.0
H201 H 0.27266 0.34003 0.57135 0.0
H202 H 0.53812 0.44559 0.66741 0.0
H203 H 0.50996 0.53875 0.62923 0.0
C204 C 0.80352 0.17943 0.31888 0.0
N205 N 0.85064 0.08306 0.33214 0.0
C206 C 0.82588 0.07333 0.31625 0.0
C207 C 0.83075 0.04464 0.30184 0.0
C208 C 0.8619 0.02581 0.30296 0.0
C209 C 0.88787 0.03647 0.31887 0.0
C210 C 0.88145 0.06525 0.33369 0.0
Zn211 Zn 0.83469 0.12629 0.35147 0.0
C212 C 0.8867 0.1825 0.35797 0.0
N213 N 0.78884 0.21498 0.38522 0.0
C214 C 0.75511 0.22202 0.37922 0.0
C215 C 0.80775 0.23778 0.39843 0.0
C216 C 0.79311 0.26978 0.40519 0.0
C217 C 0.75859 0.2776 0.39869 0.0
C218 C 0.73931 0.25296 0.38609 0.0
Zn219 Zn 0.81035 0.17213 0.36954 0.0
O220 O 0.8197 0.15046 0.31888 0.0
C221 C 0.75897 0.11538 0.36268 0.0
O222 O 0.79638 0.19412 0.33802 0.0
H223 H 0.83462 0.23192 0.40281 0.0
H224 H 0.80192 0.08796 0.31439 0.0
H225 H 0.74075 0.20462 0.36792 0.0
O226 O 0.78609 0.1021 0.35382 0.0
O227 O 0.76086 0.14561 0.37164 0.0
H228 H 0.90106 0.07345 0.34615 0.0
O229 O 0.82458 0.15101 0.40112 0.0
O230 O 0.8478 0.10366 0.38535 0.0
O231 O 0.85992 0.1968 0.36714 0.0
O232 O 0.88425 0.15172 0.34953 0.0
C233 C 0.83982 0.12177 0.4034 0.0
H234 H 0.81052 0.03778 0.28938 0.0
H235 H 0.91256 0.0227 0.31986 0.0
H236 H 0.80874 0.28852 0.41477 0.0
H237 H 0.71292 0.25854 0.38029 0.0
C238 C 0.06422 0.55012 0.06728 0.0
N239 N 0.16144 0.59611 0.08031 0.0
C240 C 0.17032 0.57262 0.06338 0.0
C241 C 0.19943 0.57769 0.04939 0.0
C242 C 0.21967 0.60767 0.05217 0.0
C243 C 0.20992 0.63239 0.06916 0.0
C244 C 0.18058 0.62582 0.08341 0.0
Zn245 Zn 0.11846 0.57967 0.09957 0.0
C246 C 0.06289 0.63199 0.10772 0.0
N247 N 0.0307 0.53367 0.13403 0.0
C248 C 0.0231 0.50026 0.12762 0.0
C249 C 0.00894 0.55215 0.14826 0.0
C250 C 0.97743 0.53736 0.15579 0.0
C251 C 0.96906 0.50313 0.14898 0.0
C252 C 0.99262 0.48432 0.1352 0.0
Zn253 Zn 0.07307 0.55534 0.11803 0.0
O254 O 0.09315 0.56637 0.06706 0.0
C255 C 0.12896 0.50363 0.10927 0.0
O256 O 0.05016 0.54237 0.08653 0.0
H257 H 0.01529 0.57877 0.15298 0.0
H258 H 0.15492 0.54937 0.06059 0.0
H259 H 0.03974 0.48629 0.11559 0.0
O260 O 0.1421 0.53073 0.10033 0.0
O261 O 0.0994 0.50571 0.11917 0.0
H262 H 0.1732 0.6443 0.09684 0.0
O263 O 0.09501 0.56841 0.14954 0.0
O264 O 0.14233 0.59094 0.1334 0.0
O265 O 0.04856 0.60503 0.11659 0.0
O266 O 0.09349 0.62957 0.09898 0.0
C267 C 0.12464 0.58288 0.15161 0.0
H268 H 0.20578 0.55845 0.03614 0.0
H269 H 0.22489 0.65615 0.07148 0.0
H270 H 0.95948 0.55264 0.16628 0.0
H271 H 0.98653 0.45817 0.12914 0.0
C272 C 0.8349 0.62215 0.60233 0.0
N273 N 0.78688 0.7189 0.61248 0.0
C274 C 0.80703 0.73955 0.59854 0.0
C275 C 0.79319 0.77035 0.58909 0.0
C276 C 0.7582 0.77906 0.5936 0.0
C277 C 0.73768 0.7564 0.60693 0.0
C278 C 0.75269 0.72673 0.61655 0.0
Zn279 Zn 0.8069 0.67854 0.63166 0.0
C280 C 0.75379 0.62508 0.64265 0.0
N281 N 0.84354 0.59541 0.6759 0.0
C282 C 0.87164 0.57373 0.67363 0.0
C283 C 0.81975 0.59028 0.69332 0.0
C284 C 0.82273 0.56233 0.70861 0.0
C285 C 0.85084 0.53933 0.70655 0.0
C286 C 0.87606 0.54543 0.68912 0.0
Zn287 Zn 0.82923 0.63594 0.65374 0.0
O288 O 0.82227 0.65275 0.60211 0.0
C289 C 0.88312 0.68885 0.64374 0.0
O290 O 0.84051 0.60663 0.6218 0.0
H291 H 0.79754 0.60745 0.69522 0.0
H292 H 0.83421 0.73309 0.59566 0.0
H293 H 0.89025 0.57801 0.6597 0.0
O294 O 0.85686 0.70291 0.63373 0.0
O295 O 0.87969 0.6591 0.65353 0.0
H296 H 0.73728 0.7112 0.62841 0.0
O297 O 0.81595 0.6667 0.68404 0.0
O298 O 0.79135 0.70533 0.66116 0.0
O299 O 0.77977 0.6139 0.65395 0.0
O300 O 0.75723 0.65214 0.63009 0.0
C301 C 0.79895 0.69497 0.68147 0.0
H302 H 0.8098 0.7877 0.57908 0.0
H303 H 0.71087 0.76287 0.61129 0.0
H304 H 0.80311 0.55875 0.72206 0.0
H305 H 0.89833 0.52819 0.68724 0.0
C306 C 0.12351 0.08632 0.85188 0.0
N307 N 0.03014 0.03217 0.8621 0.0
C308 C 0.00744 0.05358 0.85064 0.0
C309 C 0.97506 0.04082 0.8432 0.0
C310 C 0.96668 0.00563 0.84711 0.0
C311 C 0.99172 0.98356 0.85712 0.0
C312 C 0.02324 0.9975 0.8648 0.0
Zn313 Zn 0.07077 0.05214 0.88104 0.0
C314 C 0.12686 0.00271 0.88943 0.0
N315 N 0.15156 0.09181 0.92552 0.0
C316 C 0.17174 0.12111 0.92417 0.0
C317 C 0.15801 0.06708 0.94214 0.0
C318 C 0.18585 0.07037 0.95752 0.0
C319 C 0.2073 0.09979 0.95645 0.0
C320 C 0.1998 0.12587 0.93984 0.0
Zn321 Zn 0.11114 0.0773 0.90323 0.0
O322 O 0.09344 0.07246 0.85165 0.0
C323 C 0.05554 0.12739 0.89597 0.0
O324 O 0.1394 0.09114 0.87132 0.0
H325 H 0.14188 0.04403 0.94339 0.0
H326 H 0.01337 0.08102 0.8486 0.0
H327 H 0.16637 0.14052 0.91091 0.0
O328 O 0.04303 0.10013 0.88628 0.0
O329 O 0.08634 0.12652 0.90443 0.0
H330 H 0.04092 0.98096 0.87449 0.0
O331 O 0.08121 0.06176 0.9335 0.0
O332 O 0.04764 0.03107 0.91036 0.0
O333 O 0.13507 0.0286 0.90194 0.0
O334 O 0.10009 0.00482 0.87642 0.0
C335 C 0.05627 0.04022 0.93075 0.0
H336 H 0.95615 0.05853 0.83555 0.0
H337 H 0.98584 0.9564 0.86077 0.0
H338 H 0.19044 0.05005 0.97036 0.0
H339 H 0.21577 0.14917 0.93874 0.0
C340 C 0.66035 0.37688 0.10321 0.0
N341 N 0.70962 0.28077 0.11418 0.0
C342 C 0.68909 0.25741 0.10258 0.0
C343 C 0.70305 0.22548 0.09508 0.0
C344 C 0.73853 0.21828 0.09907 0.0
C345 C 0.75948 0.24372 0.1096 0.0
C346 C 0.74438 0.27458 0.11738 0.0
Zn347 Zn 0.68905 0.32203 0.13251 0.0
C348 C 0.7414 0.3754 0.14315 0.0
N349 N 0.65181 0.40416 0.17687 0.0
C350 C 0.62432 0.42643 0.1739 0.0
C351 C 0.67499 0.40907 0.1947 0.0
C352 C 0.67195 0.43733 0.20976 0.0
C353 C 0.64442 0.46087 0.207 0.0
C354 C 0.61987 0.45507 0.18911 0.0
Zn355 Zn 0.66615 0.36318 0.15507 0.0
O356 O 0.6714 0.34566 0.10271 0.0
C357 C 0.61293 0.31051 0.14536 0.0
O358 O 0.65638 0.39253 0.12282 0.0
H359 H 0.69676 0.39147 0.19708 0.0
H360 H 0.66151 0.26254 0.10031 0.0
H361 H 0.60624 0.42235 0.15962 0.0
O362 O 0.63974 0.2962 0.13619 0.0
O363 O 0.61557 0.34095 0.15424 0.0
H364 H 0.76028 0.29229 0.12746 0.0
O365 O 0.67781 0.33217 0.18559 0.0
O366 O 0.70758 0.29792 0.16236 0.0
O367 O 0.71616 0.3845 0.15595 0.0
O368 O 0.7374 0.34995 0.12923 0.0
C369 C 0.6983 0.30637 0.18276 0.0
H370 H 0.68615 0.20613 0.08714 0.0
H371 H 0.78676 0.23866 0.11344 0.0
H372 H 0.69106 0.44076 0.22356 0.0
H373 H 0.59807 0.47276 0.18668 0.0
C374 C 0.37147 0.90889 0.3508 0.0
N375 N 0.46609 0.96094 0.36254 0.0
C376 C 0.49093 0.9399 0.35285 0.0
C377 C 0.52352 0.95367 0.34667 0.0
C378 C 0.52985 0.98945 0.34984 0.0
C379 C 0.50294 0.01092 0.35795 0.0
C380 C 0.47138 0.99604 0.36459 0.0
Zn381 Zn 0.42434 0.94057 0.38051 0.0
C382 C 0.36918 0.99184 0.38898 0.0
N383 N 0.34169 0.90292 0.42432 0.0
C384 C 0.32194 0.87334 0.42284 0.0
C385 C 0.33489 0.92742 0.44104 0.0
C386 C 0.30716 0.92354 0.45642 0.0
C387 C 0.28628 0.89372 0.4553 0.0
C388 C 0.29406 0.86796 0.43853 0.0
Zn389 Zn 0.38281 0.91735 0.40269 0.0
O390 O 0.40228 0.92107 0.35074 0.0
C391 C 0.43703 0.86508 0.39517 0.0
O392 O 0.3551 0.90502 0.37017 0.0
H393 H 0.35089 0.95053 0.44255 0.0
H394 H 0.48648 0.91212 0.35134 0.0
H395 H 0.32772 0.85404 0.40957 0.0
O396 O 0.45101 0.89181 0.3857 0.0
O397 O 0.40629 0.86745 0.40357 0.0
H398 H 0.45238 0.01249 0.37311 0.0
O399 O 0.41216 0.93176 0.43351 0.0
O400 O 0.44678 0.96106 0.41029 0.0
O401 O 0.36008 0.96663 0.40179 0.0
O402 O 0.39556 0.98827 0.37579 0.0
C403 C 0.43751 0.95279 0.43072 0.0
H404 H 0.54403 0.93641 0.34056 0.0
H405 H 0.5073 0.03853 0.36103 0.0
H406 H 0.3024 0.94358 0.46944 0.0
H407 H 0.27859 0.84433 0.43743 0.0
C408 C 0.19721 0.31685 0.31865 0.0
N409 N 0.15114 0.41406 0.33104 0.0
C410 C 0.17502 0.42294 0.31436 0.0
C411 C 0.16973 0.4514 0.29982 0.0
C412 C 0.13905 0.47088 0.30169 0.0
C413 C 0.11397 0.46109 0.31844 0.0
C414 C 0.12081 0.4325 0.33331 0.0
Zn415 Zn 0.16746 0.3713 0.35061 0.0
C416 C 0.11507 0.31588 0.35842 0.0
N417 N 0.21323 0.2835 0.38533 0.0
C418 C 0.24698 0.27637 0.37945 0.0
C419 C 0.19412 0.26073 0.39842 0.0
C420 C 0.20852 0.22858 0.40506 0.0
C421 C 0.243 0.2206 0.39858 0.0
C422 C 0.26255 0.24527 0.38624 0.0
Zn423 Zn 0.19168 0.32611 0.36939 0.0
O424 O 0.18076 0.34567 0.31817 0.0
C425 C 0.24343 0.382 0.36086 0.0
O426 O 0.20516 0.30335 0.33805 0.0
H427 H 0.16725 0.26668 0.40273 0.0
H428 H 0.19859 0.40784 0.31204 0.0
H429 H 0.26149 0.29372 0.36822 0.0
O430 O 0.21645 0.39484 0.35154 0.0
O431 O 0.24126 0.35261 0.37097 0.0
H432 H 0.10193 0.425 0.34645 0.0
O433 O 0.17809 0.34785 0.40078 0.0
O434 O 0.15609 0.39534 0.38448 0.0
O435 O 0.14193 0.3015 0.36744 0.0
O436 O 0.11757 0.34655 0.34984 0.0
C437 C 0.16381 0.3776 0.40275 0.0
H438 H 0.18923 0.45765 0.28674 0.0
H439 H 0.08966 0.47539 0.32004 0.0
H440 H 0.19269 0.20979 0.41444 0.0
H441 H 0.28892 0.23956 0.38047 0.0
C442 C 0.92735 0.94 0.06734 0.0
N443 N 0.83022 0.89573 0.08238 0.0
C444 C 0.8206 0.9189 0.06544 0.0
C445 C 0.79181 0.91278 0.05131 0.0
C446 C 0.77278 0.88199 0.0539 0.0
C447 C 0.78322 0.85769 0.07099 0.0
C448 C 0.81213 0.86535 0.0854 0.0
Zn449 Zn 0.87377 0.91277 0.1009 0.0
C450 C 0.92926 0.86025 0.10903 0.0
N451 N 0.96318 0.95925 0.13322 0.0
C452 C 0.97094 0.99221 0.12594 0.0
C453 C 0.98501 0.94139 0.14775 0.0
C454 C 0.01667 0.95641 0.15482 0.0
C455 C 0.02512 0.99024 0.14721 0.0
C456 C 0.00158 0.00839 0.13302 0.0
Zn457 Zn 0.92009 0.93727 0.11825 0.0
O458 O 0.89806 0.92443 0.0678 0.0
C459 C 0.86436 0.98932 0.10944 0.0
O460 O 0.94205 0.94843 0.08625 0.0
H461 H 0.97853 0.9151 0.15315 0.0
H462 H 0.83545 0.94246 0.06249 0.0
H463 H 0.95419 0.00564 0.1137 0.0
O464 O 0.85049 0.96203 0.10124 0.0
O465 O 0.89432 0.98724 0.11881 0.0
H466 H 0.82025 0.84701 0.09872 0.0
O467 O 0.89909 0.92583 0.15027 0.0
O468 O 0.85103 0.90293 0.13532 0.0
O469 O 0.94413 0.88729 0.11739 0.0
O470 O 0.8984 0.86272 0.10072 0.0
C471 C 0.86947 0.91163 0.15308 0.0
H472 H 0.78499 0.93169 0.03796 0.0
H473 H 0.76926 0.83329 0.07312 0.0
H474 H 0.03461 0.94165 0.16564 0.0
H475 H 0.00772 0.03419 0.12637 0.0
C476 C 0.29601 0.67819 0.82249 0.0
N477 N 0.34373 0.58211 0.83363 0.0
C478 C 0.31797 0.57244 0.81845 0.0
C479 C 0.32238 0.54445 0.80333 0.0
C480 C 0.35408 0.52641 0.80294 0.0
C481 C 0.3809 0.53697 0.81824 0.0
C482 C 0.37497 0.56492 0.83381 0.0
Zn483 Zn 0.32986 0.62547 0.85351 0.0
C484 C 0.38349 0.67978 0.85847 0.0
N485 N 0.28853 0.7147 0.88903 0.0
C486 C 0.25405 0.72134 0.88504 0.0
C487 C 0.30923 0.73854 0.90004 0.0
C488 C 0.29561 0.77119 0.90637 0.0
C489 C 0.26033 0.77859 0.9018 0.0
C490 C 0.2393 0.7529 0.89165 0.0
Zn491 Zn 0.30794 0.671 0.87301 0.0
O492 O 0.31471 0.65082 0.82128 0.0
C493 C 0.25505 0.6161 0.86809 0.0
O494 O 0.28925 0.69137 0.84218 0.0
H495 H 0.33664 0.73303 0.90283 0.0
H496 H 0.2938 0.58692 0.8175 0.0
H497 H 0.2381 0.70323 0.87531 0.0
O498 O 0.28019 0.6031 0.85675 0.0
O499 O 0.25923 0.6452 0.87823 0.0
H500 H 0.39542 0.57321 0.84563 0.0
O501 O 0.32591 0.65085 0.90392 0.0
O502 O 0.34324 0.60184 0.88709 0.0
O503 O 0.35736 0.69525 0.86763 0.0
O504 O 0.38005 0.64868 0.85082 0.0
C505 C 0.33874 0.62037 0.90551 0.0
H506 H 0.30147 0.53779 0.79134 0.0
H507 H 0.406 0.52388 0.81809 0.0
H508 H 0.31257 0.79077 0.914 0.0
H509 H 0.21221 0.75809 0.88732 0.0
C510 C 0.56662 0.05968 0.56502 0.0
N511 N 0.6663 0.09948 0.57888 0.0
C512 C 0.67327 0.07847 0.56018 0.0
C513 C 0.70228 0.08414 0.54619 0.0
C514 C 0.72455 0.11203 0.551 0.0
C515 C 0.71695 0.13414 0.56997 0.0
C516 C 0.68747 0.12712 0.58399 0.0
Zn517 Zn 0.62324 0.0823 0.59771 0.0
C518 C 0.57011 0.13564 0.60982 0.0
N519 N 0.53516 0.03552 0.63126 0.0
C520 C 0.52494 0.00458 0.6217 0.0
C521 C 0.51605 0.05126 0.64838 0.0
C522 C 0.48461 0.03621 0.65588 0.0
C523 C 0.47346 0.00482 0.64567 0.0
C524 C 0.49417 0.98866 0.62877 0.0
Zn525 Zn 0.57769 0.05784 0.6159 0.0
O526 O 0.59633 0.07443 0.56506 0.0
C527 C 0.63072 0.0051 0.60285 0.0
O528 O 0.55303 0.05035 0.58411 0.0
H529 H 0.52451 0.07599 0.65557 0.0
H530 H 0.65655 0.05663 0.55605 0.0
H531 H 0.53983 0.99278 0.60775 0.0
O532 O 0.64474 0.03257 0.59509 0.0
O533 O 0.60177 0.00724 0.61353 0.0
H534 H 0.68169 0.14351 0.5989 0.0
O535 O 0.60161 0.06542 0.6477 0.0
O536 O 0.64891 0.08804 0.63159 0.0
O537 O 0.55514 0.10845 0.61788 0.0
O538 O 0.60022 0.13295 0.60037 0.0
C539 C 0.63203 0.07819 0.64974 0.0
H540 H 0.70716 0.0669 0.53151 0.0
H541 H 0.73362 0.15622 0.57393 0.0
H542 H 0.4687 0.04937 0.66882 0.0
H543 H 0.48584 0.96465 0.6204 0.0
C544 C 0.30199 0.20965 0.2231 0.0
C545 C 0.28222 0.20357 0.20296 0.0
C546 C 0.28815 0.22959 0.24154 0.0
C547 C 0.2535 0.24258 0.2399 0.0
C548 C 0.23328 0.23571 0.21975 0.0
C549 C 0.24808 0.2167 0.2014 0.0
C550 C 0.31063 0.23706 0.26264 0.0
C551 C 0.19587 0.24806 0.21768 0.0
C552 C 0.20697 0.26223 0.29666 0.0
C553 C 0.20814 0.29879 0.29727 0.0
C554 C 0.2211 0.24367 0.27785 0.0
C555 C 0.23773 0.26217 0.2596 0.0
C556 C 0.23865 0.29921 0.26 0.0
C557 C 0.22331 0.3172 0.27878 0.0
C558 C 0.21852 0.20426 0.27766 0.0
C559 C 0.25677 0.3197 0.241 0.0
H560 H 0.32849 0.19971 0.22414 0.0
H561 H 0.23269 0.21169 0.18583 0.0
H562 H 0.31224 0.26568 0.26559 0.0
H563 H 0.29865 0.22539 0.27846 0.0
H564 H 0.33754 0.22652 0.2607 0.0
H565 H 0.18363 0.24007 0.2009 0.0
H566 H 0.1801 0.23728 0.23226 0.0
H567 H 0.19471 0.27695 0.21904 0.0
H568 H 0.19517 0.24811 0.31107 0.0
H569 H 0.22464 0.34549 0.27956 0.0
H570 H 0.24505 0.19261 0.27822 0.0
H571 H 0.20592 0.19531 0.26125 0.0
H572 H 0.20328 0.19406 0.2927 0.0
H573 H 0.28465 0.31178 0.24 0.0
H574 H 0.25545 0.34835 0.24403 0.0
H575 H 0.24478 0.31382 0.2238 0.0
C576 C 0.48989 0.45308 0.54546 0.0
C577 C 0.45334 0.4543 0.54632 0.0
C578 C 0.50815 0.46758 0.52665 0.0
C579 C 0.48934 0.48474 0.50872 0.0
C580 C 0.45231 0.48564 0.50936 0.0
C581 C 0.43463 0.46986 0.52808 0.0
C582 C 0.54755 0.46498 0.52615 0.0
C583 C 0.43149 0.50433 0.49075 0.0
C584 C 0.5404 0.55088 0.47287 0.0
C585 C 0.54598 0.53208 0.45226 0.0
C586 C 0.52125 0.53604 0.49132 0.0
C587 C 0.50857 0.50135 0.48919 0.0
C588 C 0.51502 0.48207 0.46858 0.0
C589 C 0.53323 0.49786 0.45025 0.0
C590 C 0.51417 0.55755 0.51293 0.0
C591 C 0.50297 0.44467 0.46596 0.0
H592 H 0.50421 0.44103 0.5597 0.0
H593 H 0.40635 0.47126 0.52908 0.0
H594 H 0.55628 0.45321 0.50941 0.0
H595 H 0.55921 0.49147 0.52722 0.0
H596 H 0.55798 0.449 0.54078 0.0
H597 H 0.40287 0.50275 0.49389 0.0
H598 H 0.43922 0.53227 0.49018 0.0
H599 H 0.43724 0.49303 0.47333 0.0
H600 H 0.55009 0.57742 0.47428 0.0
H601 H 0.5379 0.4832 0.43433 0.0
H602 H 0.52619 0.54488 0.5284 0.0
H603 H 0.4856 0.55897 0.51615 0.0
H604 H 0.52461 0.58454 0.51143 0.0
H605 H 0.51405 0.42845 0.48023 0.0
H606 H 0.51086 0.43312 0.44894 0.0
H607 H 0.4741 0.44324 0.46742 0.0
C608 C 0.20394 0.75461 0.70826 0.0
C609 C 0.20612 0.79115 0.70824 0.0
C610 C 0.21751 0.73501 0.72679 0.0
C611 C 0.23461 0.75241 0.74535 0.0
C612 C 0.2364 0.78942 0.74559 0.0
C613 C 0.22161 0.80847 0.72709 0.0
C614 C 0.214 0.69569 0.72632 0.0
C615 C 0.25496 0.80877 0.76495 0.0
C616 C 0.2458 0.70675 0.8034 0.0
C617 C 0.28014 0.69423 0.80177 0.0
C618 C 0.23041 0.72504 0.78493 0.0
C619 C 0.25027 0.73181 0.76462 0.0
C620 C 0.28492 0.71885 0.76275 0.0
C621 C 0.29935 0.69964 0.78133 0.0
C622 C 0.19304 0.73736 0.78726 0.0
C623 C 0.30701 0.72619 0.74146 0.0
H624 H 0.19188 0.74133 0.69358 0.0
H625 H 0.2237 0.83673 0.72679 0.0
H626 H 0.24024 0.68345 0.72535 0.0
H627 H 0.20151 0.68639 0.74268 0.0
H628 H 0.19824 0.68643 0.71123 0.0
H629 H 0.25426 0.83755 0.76243 0.0
H630 H 0.24285 0.8025 0.78204 0.0
H631 H 0.28267 0.80022 0.76581 0.0
H632 H 0.23094 0.70227 0.81926 0.0
H633 H 0.32602 0.69017 0.78029 0.0
H634 H 0.17726 0.72777 0.7723 0.0
H635 H 0.19209 0.76632 0.78687 0.0
H636 H 0.18069 0.72825 0.80373 0.0
H637 H 0.29408 0.71569 0.7256 0.0
H638 H 0.33353 0.71452 0.74284 0.0
H639 H 0.30969 0.75483 0.73903 0.0
C640 C 0.97209 0.48955 0.94923 0.0
C641 C 0.95621 0.45684 0.95226 0.0
C642 C 0.99034 0.50562 0.96743 0.0
C643 C 0.99372 0.48804 0.98902 0.0
C644 C 0.97818 0.45469 0.99212 0.0
C645 C 0.95895 0.43967 0.97374 0.0
C646 C 0.00539 0.5417 0.96368 0.0
C647 C 0.98209 0.43488 0.01477 0.0
C648 C 0.06642 0.51939 0.02907 0.0
C649 C 0.04736 0.53812 0.04574 0.0
C650 C 0.04922 0.50241 0.01059 0.0
C651 C 0.0124 0.50535 0.00854 0.0
C652 C 0.99337 0.52558 0.02486 0.0
C653 C 0.01106 0.5412 0.04354 0.0
C654 C 0.07021 0.4804 0.99378 0.0
C655 C 0.9543 0.53046 0.02275 0.0
H656 H 0.96957 0.50301 0.93263 0.0
H657 H 0.94679 0.4143 0.97595 0.0
H658 H 0.9943 0.56013 0.9767 0.0
H659 H 0.0341 0.54126 0.96632 0.0
H660 H -0.00012 0.55196 0.9459 0.0
H661 H 0.97024 0.40841 0.01388 0.0
H662 H 0.01019 0.4322 0.01927 0.0
H663 H 0.96946 0.44958 0.02918 0.0
H664 H 0.09445 0.51651 0.03118 0.0
H665 H 0.99648 0.55561 0.05663 0.0
H666 H 0.06684 0.49019 0.97569 0.0
H667 H 0.06054 0.45307 0.99411 0.0
H668 H 0.09855 0.48036 0.99805 0.0
H669 H 0.94767 0.54094 0.00522 0.0
H670 H 0.94378 0.54853 0.03622 0.0
H671 H 0.94092 0.5049 0.02454 0.0
C672 C 0.74592 0.80519 0.79387 0.0
C673 C 0.70968 0.80987 0.79509 0.0
C674 C 0.76125 0.78831 0.7748 0.0
C675 C 0.7396 0.77495 0.75689 0.0
C676 C 0.70295 0.7805 0.75772 0.0
C677 C 0.68836 0.7984 0.77681 0.0
C678 C 0.80049 0.78385 0.77422 0.0
C679 C 0.6791 0.76612 0.73903 0.0
C680 C 0.78097 0.75143 0.69896 0.0
C681 C 0.7864 0.7154 0.70154 0.0
C682 C 0.76596 0.77121 0.71691 0.0
C683 C 0.75544 0.75432 0.73771 0.0
C684 C 0.76106 0.71793 0.74049 0.0
C685 C 0.77693 0.6989 0.7224 0.0
C686 C 0.76137 0.81011 0.71362 0.0
C687 C 0.74972 0.69904 0.76237 0.0
H688 H 0.76226 0.81423 0.80815 0.0
H689 H 0.66027 0.80174 0.77808 0.0
H690 H 0.80723 0.75575 0.77582 0.0
H691 H 0.81109 0.79314 0.75729 0.0
H692 H 0.81369 0.7983 0.78857 0.0
H693 H 0.6514 0.7738 0.74181 0.0
H694 H 0.6875 0.77541 0.72156 0.0
H695 H 0.68078 0.73717 0.73888 0.0
H696 H 0.78843 0.7642 0.6828 0.0
H697 H 0.78074 0.67095 0.72423 0.0
H698 H 0.77515 0.82444 0.72774 0.0
H699 H 0.73329 0.81711 0.71481 0.0
H700 H 0.77156 0.81927 0.6965 0.0
H701 H 0.76362 0.70987 0.77776 0.0
H702 H 0.75494 0.67051 0.76145 0.0
H703 H 0.72133 0.70311 0.7653 0.0
C704 C 0.69515 0.28321 0.22363 0.0
C705 C 0.71337 0.28715 0.20262 0.0
C706 C 0.70964 0.26376 0.24207 0.0
C707 C 0.74345 0.24901 0.23952 0.0
C708 C 0.76203 0.25338 0.21839 0.0
C709 C 0.74656 0.27201 0.2001 0.0
C710 C 0.68884 0.25893 0.26425 0.0
C711 C 0.79856 0.23907 0.21526 0.0
C712 C 0.79423 0.23241 0.2951 0.0
C713 C 0.79169 0.19607 0.29722 0.0
C714 C 0.77924 0.24986 0.27611 0.0
C715 C 0.76027 0.23051 0.2593 0.0
C716 C 0.75793 0.19365 0.26123 0.0
C717 C 0.77421 0.17672 0.28009 0.0
C718 C 0.78338 0.28903 0.27421 0.0
C719 C 0.73727 0.17232 0.24386 0.0
H720 H 0.66939 0.29473 0.22546 0.0
H721 H 0.76084 0.27534 0.18389 0.0
H722 H 0.68671 0.2307 0.26848 0.0
H723 H 0.70251 0.2717 0.27906 0.0
H724 H 0.66211 0.2701 0.26288 0.0
H725 H 0.80934 0.2447 0.19764 0.0
H726 H 0.81625 0.25061 0.22855 0.0
H727 H 0.79866 0.21037 0.21797 0.0
H728 H 0.80777 0.24724 0.30849 0.0
H729 H 0.77182 0.14863 0.28209 0.0
H730 H 0.75744 0.30186 0.27542 0.0
H731 H 0.79466 0.29598 0.25696 0.0
H732 H 0.80048 0.29985 0.28813 0.0
H733 H 0.70964 0.1812 0.24375 0.0
H734 H 0.73791 0.14394 0.24792 0.0
H735 H 0.7477 0.1763 0.22598 0.0
C736 C 0.98076 0.94639 0.0436 0.0
C737 C 0.94441 0.94967 0.04537 0.0
C738 C 0.99876 0.96001 0.0244 0.0
C739 C 0.97996 0.9783 0.00698 0.0
C740 C 0.94306 0.98105 0.00845 0.0
C741 C 0.92557 0.96618 0.02758 0.0
C742 C 0.03795 0.95552 0.02305 0.0
C743 C 0.92232 0.00095 0.99037 0.0
C744 C 0.03307 0.04315 0.97154 0.0
C745 C 0.03763 0.0247 0.95066 0.0
C746 C 0.01347 0.02869 0.98988 0.0
C747 C -0.00085 0.99472 0.98737 0.0
C748 C 0.00433 0.97582 0.96645 0.0
C749 C 0.02315 0.99124 0.94824 0.0
C750 C 0.00787 0.04979 0.01186 0.0
C751 C 0.99043 0.93914 0.96341 0.0
H752 H 0.99518 0.93357 0.05749 0.0
H753 H 0.89749 0.96912 0.02928 0.0
H754 H 0.04539 0.94401 0.00597 0.0
H755 H 0.05091 0.98137 0.02434 0.0
H756 H 0.0482 0.9385 0.03721 0.0
H757 H 0.89376 7e-05 0.99383 0.0
H758 H 0.93084 0.02867 0.99015 0.0
H759 H 0.92729 0.99012 0.9727 0.0
H760 H 0.04406 0.06913 0.97328 0.0
H761 H 0.02694 0.97683 0.93211 0.0
H762 H 0.01999 0.03626 0.02697 0.0
H763 H 0.97948 0.05211 0.01556 0.0
H764 H 0.01919 0.07645 0.01055 0.0
H765 H 0.00148 0.92184 0.97712 0.0
H766 H 0.99694 0.92798 0.94603 0.0
H767 H 0.96162 0.93893 0.96554 0.0
C768 C 0.46032 0.95218 0.47173 0.0
C769 C 0.4553 0.96962 0.45052 0.0
C770 C 0.47938 0.96802 0.48986 0.0
C771 C 0.49262 0.00234 0.48678 0.0
C772 C 0.48668 0.0203 0.46559 0.0
C773 C 0.46849 0.00353 0.44762 0.0
C774 C 0.48585 0.9479 0.51213 0.0
C775 C 0.49936 0.05729 0.46193 0.0
C776 C 0.5123 0.05278 0.5421 0.0
C777 C 0.54876 0.05019 0.54327 0.0
C778 C 0.49378 0.0383 0.52337 0.0
C779 C 0.51219 0.0198 0.50586 0.0
C780 C 0.54917 0.01784 0.50668 0.0
C781 C 0.56714 0.03359 0.5253 0.0
C782 C 0.45448 0.04202 0.52265 0.0
C783 C 0.56958 0.99777 0.48851 0.0
H784 H 0.45026 0.92589 0.47385 0.0
H785 H 0.46425 0.01719 0.43125 0.0
H786 H 0.51437 0.94603 0.51549 0.0
H787 H 0.47406 0.96191 0.52716 0.0
H788 H 0.47479 0.92107 0.51144 0.0
H789 H 0.49166 0.06788 0.4446 0.0
H790 H 0.48859 0.0746 0.47573 0.0
H791 H 0.52826 0.0583 0.46337 0.0
H792 H 0.49822 0.06556 0.55616 0.0
H793 H 0.59533 0.03108 0.52655 0.0
H794 H 0.44208 0.01601 0.52469 0.0
H795 H 0.44611 0.05262 0.50549 0.0
H796 H 0.44451 0.05949 0.53666 0.0
H797 H 0.56154 0.9699 0.48879 0.0
H798 H 0.59824 -0.00078 0.49148 0.0
H799 H 0.56376 0.00798 0.4708 0.0
C800 C 0.23489 0.12765 0.99126 0.0
C801 C 0.23631 0.1026 0.9735 0.0
C802 C 0.25739 0.12556 0.01066 0.0
C803 C 0.28224 0.09805 0.01207 0.0
C804 C 0.28523 0.07404 0.99337 0.0
C805 C 0.2619 0.07634 0.97444 0.0
C806 C 0.25314 0.15163 0.03028 0.0
C807 C 0.31184 0.04493 0.99385 0.0
C808 C 0.34807 0.11631 0.05989 0.0
C809 C 0.3321 0.09993 0.07902 0.0
C810 C 0.33423 0.11294 0.03726 0.0
C811 C 0.30321 0.09344 0.03388 0.0
C812 C 0.28939 0.07368 0.05271 0.0
C813 C 0.30435 0.07685 0.07506 0.0
C814 C 0.3506 0.13341 0.01757 0.0
C815 C 0.25629 0.05261 0.04999 0.0
H816 H 0.21473 0.14756 0.99069 0.0
H817 H 0.26276 0.05678 0.96074 0.0
H818 H 0.24494 0.13787 0.04644 0.0
H819 H 0.27844 0.16462 0.03402 0.0
H820 H 0.23341 0.17204 0.02617 0.0
H821 H 0.31439 0.03191 0.97658 0.0
H822 H 0.33782 0.05504 0.9992 0.0
H823 H 0.3039 0.02503 0.0069 0.0
H824 H 0.36923 0.1346 0.06299 0.0
H825 H 0.29145 0.06482 0.0899 0.0
H826 H 0.33527 0.15761 0.01453 0.0
H827 H 0.3504 0.11809 1.00111 0.0
H828 H 0.37796 0.14098 0.02169 0.0
H829 H 0.23368 0.07066 0.04844 0.0
H830 H 0.25172 0.03509 0.06516 0.0
H831 H 0.25717 0.03659 0.03386 0.0
C832 C 0.6709 0.55928 0.32427 0.0
C833 C 0.64754 0.58671 0.32853 0.0
C834 C 0.67376 0.54453 0.30184 0.0
C835 C 0.65341 0.55826 0.28325 0.0
C836 C 0.63378 0.58915 0.28689 0.0
C837 C 0.63073 0.60278 0.30959 0.0
C838 C 0.69501 0.51158 0.29886 0.0
C839 C 0.61275 0.60548 0.26743 0.0
C840 C 0.66827 0.516 0.22383 0.0
C841 C 0.64199 0.49045 0.22356 0.0
C842 C 0.67123 0.53971 0.2425 0.0
C843 C 0.64796 0.53706 0.26164 0.0
C844 C 0.62043 0.51218 0.2609 0.0
C845 C 0.61766 0.48933 0.24175 0.0
C846 C 0.70034 0.5663 0.24228 0.0
C847 C 0.59513 0.50824 0.28099 0.0
H848 H 0.68333 0.54635 0.33896 0.0
H849 H 0.61227 0.62372 0.31292 0.0
H850 H 0.6771 0.48884 0.29766 0.0
H851 H 0.71044 0.5125 0.28248 0.0
H852 H 0.71312 0.50724 0.31376 0.0
H853 H 0.6053 0.63284 0.27162 0.0
H854 H 0.6276 0.60522 0.25078 0.0
H855 H 0.58846 0.59018 0.26472 0.0
H856 H 0.68738 0.51648 0.20984 0.0
H857 H 0.59781 0.4691 0.2417 0.0
H858 H 0.72109 0.55818 0.25469 0.0
H859 H 0.69062 0.59224 0.24803 0.0
H860 H 0.71222 0.56899 0.22466 0.0
H861 H 0.60953 0.50034 0.29698 0.0
H862 H 0.57461 0.48843 0.27738 0.0
H863 H 0.58222 0.53358 0.28475 0.0
C864 C 0.19605 0.9164 0.5757 0.0
C865 C 0.16898 0.89305 0.58079 0.0
C866 C 0.2094 0.91908 0.55288 0.0
C867 C 0.19474 0.89839 0.53478 0.0
C868 C 0.16452 0.87822 0.5394 0.0
C869 C 0.15229 0.8754 0.56246 0.0
C870 C 0.24171 0.94087 0.54883 0.0
C871 C 0.14732 0.85669 0.52053 0.0
C872 C 0.23161 0.91535 0.47411 0.0
C873 C 0.25797 0.88993 0.47274 0.0
C874 C 0.20931 0.91724 0.49358 0.0
C875 C 0.21418 0.89372 0.51238 0.0
C876 C 0.23971 0.8669 0.5105 0.0
C877 C 0.26113 0.86518 0.49058 0.0
C878 C 0.18188 0.94555 0.49456 0.0
C879 C 0.24595 0.84136 0.53019 0.0
H880 H 0.20953 0.92933 0.58996 0.0
H881 H 0.13174 0.85683 0.56648 0.0
H882 H 0.26457 0.92334 0.54647 0.0
H883 H 0.23903 0.95667 0.53269 0.0
H884 H 0.24718 0.95868 0.56372 0.0
H885 H 0.12051 0.84855 0.52561 0.0
H886 H 0.14594 0.87147 0.50388 0.0
H887 H 0.16306 0.8328 0.51732 0.0
H888 H 0.22944 0.9347 0.46034 0.0
H889 H 0.28191 0.84594 0.48966 0.0
H890 H 0.1902 0.96614 0.50701 0.0
H891 H 0.15666 0.93488 0.50093 0.0
H892 H 0.17762 0.95787 0.47721 0.0
H893 H 0.25499 0.85566 0.54595 0.0
H894 H 0.26582 0.82131 0.52564 0.0
H895 H 0.22125 0.8279 0.53486 0.0
C896 C 0.87851 0.51042 0.74089 0.0
C897 C 0.85311 0.51001 0.72333 0.0
C898 C 0.87594 0.48795 0.76025 0.0
C899 C 0.84751 0.4642 0.76182 0.0
C900 C 0.8231 0.46217 0.7433 0.0
C901 C 0.82595 0.48543 0.7244 0.0
C902 C 0.90249 0.49113 0.77968 0.0
C903 C 0.79295 0.43678 0.74399 0.0
C904 C 0.86395 0.39766 0.8094 0.0
C905 C 0.84868 0.41434 0.82868 0.0
C906 C 0.86071 0.41164 0.78682 0.0
C907 C 0.84244 0.44345 0.78364 0.0
C908 C 0.82366 0.45811 0.80264 0.0
C909 C 0.82671 0.44306 0.82496 0.0
C910 C 0.88013 0.39445 0.76695 0.0
C911 C 0.80389 0.49204 0.80011 0.0
H912 H 0.89911 0.52986 0.74022 0.0
H913 H 0.8061 0.48543 0.71086 0.0
H914 H 0.88935 0.49998 0.79593 0.0
H915 H 0.91445 0.4653 0.78337 0.0
H916 H 0.92366 0.50993 0.77539 0.0
H917 H 0.7796 0.43469 0.7268 0.0
H918 H 0.80207 0.41043 0.74933 0.0
H919 H 0.77355 0.44559 0.75714 0.0
H920 H 0.88138 0.37572 0.81233 0.0
H921 H 0.81555 0.45645 0.83992 0.0
H922 H 0.90484 0.40881 0.76368 0.0
H923 H 0.86449 0.39526 0.75063 0.0
H924 H 0.88672 0.36683 0.77099 0.0
H925 H 0.8228 0.51389 0.79844 0.0
H926 H 0.78682 0.4973 0.81542 0.0
H927 H 0.78756 0.49183 0.7841 0.0
C928 C 0.75024 0.85359 0.01798 0.0
C929 C 0.74414 0.87545 0.03712 0.0
C930 C 0.72862 0.85501 0.99815 0.0
C931 C 0.69993 0.87855 0.99765 0.0
C932 C 0.6921 0.89865 0.01775 0.0
C933 C 0.71465 0.89725 0.03714 0.0
C934 C 0.7381 0.83319 0.97708 0.0
C935 C 0.6613 0.92328 0.01826 0.0
C936 C 0.68067 0.9077 0.9357 0.0
C937 C 0.65698 0.88194 0.92863 0.0
C938 C 0.69289 0.90885 0.95886 0.0
C939 C 0.68047 0.88405 0.97532 0.0
C940 C 0.65322 0.86099 0.96887 0.0
C941 C 0.64217 0.85985 0.94547 0.0
C942 C 0.72203 0.93386 0.96491 0.0
C943 C 0.63829 0.83503 0.986 0.0
H944 H 0.77348 0.83735 0.01781 0.0
H945 H 0.71032 0.91459 0.05185 0.0
H946 H 0.71525 0.81762 0.97126 0.0
H947 H 0.74561 0.85058 0.96239 0.0
H948 H 0.76015 0.81506 0.98067 0.0
H949 H 0.6549 0.93169 0.03634 0.0
H950 H 0.66745 0.9469 0.00781 0.0
H951 H 0.63788 0.91087 0.01039 0.0
H952 H 0.69273 0.92422 0.92257 0.0
H953 H 0.62421 0.83955 0.93992 0.0
H954 H 0.74684 0.91906 0.96679 0.0
H955 H 0.71679 0.94698 0.98182 0.0
H956 H 0.7257 0.95414 0.95124 0.0
H957 H 0.65672 0.81284 0.98804 0.0
H958 H 0.6128 0.8245 0.97993 0.0
H959 H 0.6347 0.84716 0.00345 0.0
C960 C 0.33464 0.47147 0.78328 0.0
C961 C 0.35883 0.49893 0.78495 0.0
C962 C 0.33336 0.44994 0.76339 0.0
C963 C 0.35627 0.45661 0.74451 0.0
C964 C 0.38199 0.48317 0.74668 0.0
C965 C 0.38312 0.50383 0.76699 0.0
C966 C 0.30626 0.42136 0.7621 0.0
C967 C 0.40687 0.49129 0.72694 0.0
C968 C 0.37594 0.39732 0.69319 0.0
C969 C 0.35712 0.41385 0.67531 0.0
C970 C 0.37327 0.40869 0.71646 0.0
C971 C 0.35201 0.43792 0.72177 0.0
C972 C 0.33033 0.45238 0.70412 0.0
C973 C 0.33294 0.4399 0.68107 0.0
C974 C 0.39596 0.39173 0.73481 0.0
C975 C 0.30733 0.48362 0.70894 0.0
H976 H 0.3157 0.46783 0.79716 0.0
H977 H 0.40143 0.52539 0.76812 0.0
H978 H 0.28515 0.42925 0.7499 0.0
H979 H 0.31794 0.39688 0.75523 0.0
H980 H 0.29438 0.41593 0.77944 0.0
H981 H 0.4262 0.51172 0.73175 0.0
H982 H 0.42122 0.46738 0.72164 0.0
H983 H 0.3919 0.50047 0.71149 0.0
H984 H 0.39515 0.3776 0.68865 0.0
H985 H 0.3191 0.45331 0.66716 0.0
H986 H 0.38163 0.3891 0.75157 0.0
H987 H 0.41922 0.40835 0.73807 0.0
H988 H 0.40515 0.36549 0.7292 0.0
H989 H 0.29196 0.47967 0.72514 0.0
H990 H 0.28903 0.48897 0.69429 0.0
H991 H 0.32398 0.50705 0.7116 0.0
C992 C 0.85818 0.12921 0.44433 0.0
C993 C 0.84216 0.10819 0.42736 0.0
C994 C 0.84735 0.12806 0.46777 0.0
C995 C 0.81923 0.10602 0.47412 0.0
C996 C 0.80586 0.08186 0.45756 0.0
C997 C 0.81778 0.08305 0.43433 0.0
C998 C 0.86327 0.15329 0.485 0.0
C999 C 0.77591 0.05782 0.46354 0.0
C1000 C 0.78288 0.09493 0.53555 0.0
C1001 C 0.75418 0.11772 0.53494 0.0
C1002 C 0.806 0.09249 0.51651 0.0
C1003 C 0.79954 0.11261 0.49621 0.0
C1004 C 0.77174 0.13721 0.49617 0.0
C1005 C 0.74949 0.13955 0.51562 0.0
C1006 C 0.83577 0.06668 0.51758 0.0
C1007 C 0.76378 0.1592 0.47489 0.0
H1008 H 0.87671 0.14903 0.43886 0.0
H1009 H 0.80485 0.06734 0.42113 0.0
H1010 H 0.84591 0.17635 0.48689 0.0
H1011 H 0.86604 0.14106 0.50248 0.0
H1012 H 0.88932 0.16257 0.47908 0.0
H1013 H 0.77178 0.03756 0.4499 0.0
H1014 H 0.78055 0.04468 0.48052 0.0
H1015 H 0.75154 0.07339 0.46522 0.0
H1016 H 0.78602 0.07755 0.55037 0.0
H1017 H 0.7268 0.15653 0.515 0.0
H1018 H 0.85973 0.07772 0.50952 0.0
H1019 H 0.82865 0.04285 0.50762 0.0
H1020 H 0.84175 0.05886 0.53584 0.0
H1021 H 0.78741 0.17376 0.46933 0.0
H1022 H 0.7424 0.17826 0.47812 0.0
H1023 H 0.75596 0.14199 0.46017 0.0
C1024 C 0.15736 0.52727 0.28375 0.0
C1025 C 0.13357 0.49941 0.28465 0.0
C1026 C 0.15905 0.54932 0.26414 0.0
C1027 C 0.13705 0.54268 0.24476 0.0
C1028 C 0.11153 0.51582 0.24623 0.0
C1029 C 0.10996 0.49466 0.26627 0.0
C1030 C 0.18588 0.57819 0.26361 0.0
C1031 C 0.08759 0.50772 0.22595 0.0
C1032 C 0.11934 0.60102 0.19274 0.0
C1033 C 0.13902 0.58424 0.17538 0.0
C1034 C 0.12117 0.5902 0.21616 0.0
C1035 C 0.14245 0.56129 0.22213 0.0
C1036 C 0.16509 0.54675 0.20506 0.0
C1037 C 0.16331 0.55869 0.18186 0.0
C1038 C 0.09755 0.60731 0.2339 0.0
C1039 C 0.18818 0.51584 0.2106 0.0
H1040 H 0.17592 0.53063 0.2979 0.0
H1041 H 0.09206 0.4727 0.26682 0.0
H1042 H 0.20813 0.57022 0.25238 0.0
H1043 H 0.1746 0.6024 0.25605 0.0
H1044 H 0.19616 0.58411 0.28133 0.0
H1045 H 0.06809 0.48723 0.23031 0.0
H1046 H 0.07344 0.5316 0.22038 0.0
H1047 H 0.10331 0.4986 0.21083 0.0
H1048 H 0.10009 0.6204 0.18764 0.0
H1049 H 0.17787 0.54513 0.16835 0.0
H1050 H 0.111 0.61009 0.25098 0.0
H1051 H 0.07413 0.59072 0.23666 0.0
H1052 H 0.08867 0.63349 0.22797 0.0
H1053 H 0.20278 0.52024 0.22708 0.0
H1054 H 0.20721 0.51043 0.19638 0.0
H1055 H 0.17167 0.49228 0.21308 0.0
C1056 C 0.8078 0.58115 0.57486 0.0
C1057 C 0.83534 0.6041 0.57969 0.0
C1058 C 0.79456 0.57793 0.55205 0.0
C1059 C 0.80986 0.59756 0.53368 0.0
C1060 C 0.84076 0.61682 0.53804 0.0
C1061 C 0.8529 0.62022 0.5611 0.0
C1062 C 0.76157 0.55705 0.54827 0.0
C1063 C 0.85869 0.6371 0.51889 0.0
C1064 C 0.77133 0.58089 0.47341 0.0
C1065 C 0.74584 0.60719 0.47207 0.0
C1066 C 0.79397 0.57857 0.4927 0.0
C1067 C 0.79031 0.60258 0.51135 0.0
C1068 C 0.76573 0.63028 0.50946 0.0
C1069 C 0.74396 0.63238 0.48971 0.0
C1070 C 0.82035 0.54928 0.49368 0.0
C1071 C 0.76081 0.6564 0.52898 0.0
H1072 H 0.79371 0.56934 0.58929 0.0
H1073 H 0.87387 0.63843 0.56488 0.0
H1074 H 0.73921 0.57523 0.54593 0.0
H1075 H 0.76356 0.54095 0.53222 0.0
H1076 H 0.75577 0.53963 0.5633 0.0
H1077 H 0.88588 0.64421 0.52381 0.0
H1078 H 0.8593 0.62187 0.50239 0.0
H1079 H 0.84398 0.66157 0.51548 0.0
H1080 H 0.77249 0.56118 0.45981 0.0
H1081 H 0.72383 0.6523 0.48882 0.0
H1082 H 0.81118 0.52895 0.50606 0.0
H1083 H 0.84593 0.55896 0.50014 0.0
H1084 H 0.8242 0.53689 0.47632 0.0
H1085 H 0.75152 0.64275 0.54492 0.0
H1086 H 0.74162 0.6771 0.5244 0.0
H1087 H 0.78607 0.66902 0.53335 0.0
C1088 C 0.12357 0.1044 0.8106 0.0
C1089 C 0.14117 0.08806 0.82911 0.0
C1090 C 0.12732 0.09235 0.78755 0.0
C1091 C 0.14846 0.06273 0.78311 0.0
C1092 C 0.16954 0.04897 0.80133 0.0
C1093 C 0.16594 0.06218 0.82413 0.0
C1094 C 0.10549 0.10877 0.76853 0.0
C1095 C 0.19246 0.01737 0.79747 0.0
C1096 C 0.11617 0.99401 0.74025 0.0
C1097 C 0.1406 0.99693 0.7222 0.0
C1098 C 0.11765 0.01627 0.75976 0.0
C1099 C 0.14391 0.04244 0.76102 0.0
C1100 C 0.16705 0.04704 0.74198 0.0
C1101 C 0.16546 0.02386 0.72294 0.0
C1102 C 0.09253 0.01025 0.77972 0.0
C1103 C 0.19474 0.0751 0.74225 0.0
H1104 H 0.10404 0.12413 0.81448 0.0
H1105 H 0.17901 0.04902 0.83847 0.0
H1106 H 0.12023 0.11005 0.75186 0.0
H1107 H 0.08186 0.09258 0.76549 0.0
H1108 H 0.09687 0.13553 0.77338 0.0
H1109 H 0.21069 0.01297 0.81231 0.0
H1110 H 0.17573 0.99385 0.79553 0.0
H1111 H 0.20791 0.02015 0.7812 0.0
H1112 H 0.09743 0.97276 0.73984 0.0
H1113 H 0.18465 0.02577 0.70906 0.0
H1114 H 0.07845 0.03477 0.78399 0.0
H1115 H 0.10727 0.00227 0.79556 0.0
H1116 H 0.07296 0.98967 0.77568 0.0
H1117 H 0.1839 0.10011 0.74888 0.0
H1118 H 0.20597 0.07955 0.7246 0.0
H1119 H 0.21623 0.06722 0.75415 0.0
C1120 C 0.68892 0.41856 0.07682 0.0
C1121 C 0.66113 0.39553 0.08077 0.0
C1122 C 0.70269 0.42304 0.05425 0.0
C1123 C 0.68759 0.40472 0.0352 0.0
C1124 C 0.65654 0.38533 0.03875 0.0
C1125 C 0.64398 0.38051 0.06159 0.0
C1126 C 0.73596 0.4438 0.05139 0.0
C1127 C 0.63877 0.36649 0.01887 0.0
C1128 C 0.72662 0.42472 0.97548 0.0
C1129 C 0.75139 0.39787 0.97325 0.0
C1130 C 0.7042 0.42634 0.99492 0.0
C1131 C 0.70744 0.40109 0.01286 0.0
C1132 C 0.73154 0.37314 0.01018 0.0
C1133 C 0.75297 0.37169 0.99026 0.0
C1134 C 0.67823 0.4559 0.99672 0.0
C1135 C 0.73614 0.3458 0.02897 0.0
H1136 H 0.70272 0.4295 0.09169 0.0
H1137 H 0.62279 0.36225 0.06467 0.0
H1138 H 0.75818 0.42555 0.04876 0.0
H1139 H 0.73448 0.46091 0.03579 0.0
H1140 H 0.74161 0.46022 0.06695 0.0
H1141 H 0.61151 0.35914 0.0234 0.0
H1142 H 0.6384 0.3829 0.00289 0.0
H1143 H 0.65345 0.34225 0.01475 0.0
H1144 H 0.72559 0.44511 0.96234 0.0
H1145 H 0.77251 0.35128 0.98868 0.0
H1146 H 0.68726 0.47495 0.01002 0.0
H1147 H 0.65234 0.44601 0.00245 0.0
H1148 H 0.67503 0.46987 0.97984 0.0
H1149 H 0.74508 0.35842 0.04539 0.0
H1150 H 0.75544 0.32542 0.02399 0.0
H1151 H 0.71081 0.3329 0.03273 0.0
C1152 C 0.33008 0.97537 0.22247 0.0
C1153 C 0.35565 0.00163 0.22179 0.0
C1154 C 0.32801 0.95206 0.24141 0.0
C1155 C 0.35143 0.95583 0.26039 0.0
C1156 C 0.37829 0.98139 0.25922 0.0
C1157 C 0.38021 0.00381 0.23981 0.0
C1158 C 0.29963 0.92469 0.24162 0.0
C1159 C 0.40372 0.98655 0.27913 0.0
C1160 C 0.32967 0.93511 0.32341 0.0
C1161 C 0.35382 0.90848 0.32798 0.0
C1162 C 0.32619 0.949 0.30078 0.0
C1163 C 0.34672 0.93519 0.28232 0.0
C1164 C 0.36721 0.90497 0.28632 0.0
C1165 C 0.37087 0.89223 0.30921 0.0
C1166 C 0.30402 0.98125 0.2974 0.0
C1167 C 0.38844 0.88853 0.26702 0.0
H1168 H 0.31079 0.97406 0.20861 0.0
H1169 H 0.3995 0.02456 0.23944 0.0
H1170 H 0.31002 0.89925 0.24783 0.0
H1171 H 0.27864 0.93276 0.25385 0.0
H1172 H 0.28787 0.921 0.22404 0.0
H1173 H 0.42369 0.00676 0.27518 0.0
H1174 H 0.38929 0.99455 0.29509 0.0
H1175 H 0.41731 0.96165 0.28315 0.0
H1176 H 0.31704 0.9482 0.33796 0.0
H1177 H 0.38992 0.8719 0.31277 0.0
H1178 H 0.28839 0.97931 0.28114 0.0
H1179 H 0.3213 0.00441 0.29572 0.0
H1180 H 0.28601 0.98567 0.31234 0.0
H1181 H 0.37343 0.88788 0.25043 0.0
H1182 H 0.39661 0.8615 0.27156 0.0
H1183 H 0.41233 0.90433 0.26398 0.0
C1184 C 0.25449 0.35946 0.51572 0.0
C1185 C 0.25068 0.38248 0.53452 0.0
C1186 C 0.23262 0.36197 0.49605 0.0
C1187 C 0.20607 0.38791 0.49535 0.0
C1188 C 0.20044 0.40937 0.51514 0.0
C1189 C 0.22315 0.40671 0.53439 0.0
C1190 C 0.23966 0.33855 0.47533 0.0
C1191 C 0.17198 0.43668 0.51543 0.0
C1192 C 0.1886 0.4159 0.43295 0.0
C1193 C 0.16262 0.39204 0.42652 0.0
C1194 C 0.20112 0.41709 0.45604 0.0
C1195 C 0.18675 0.39428 0.47307 0.0
C1196 C 0.15735 0.37361 0.46723 0.0
C1197 C 0.14591 0.3724 0.44392 0.0
C1198 C 0.23248 0.43962 0.46143 0.0
C1199 C 0.14042 0.34985 0.48495 0.0
H1200 H 0.27625 0.34128 0.51566 0.0
H1201 H 0.22062 0.42491 0.54882 0.0
H1202 H 0.21536 0.32496 0.46993 0.0
H1203 H 0.2485 0.35458 0.46029 0.0
H1204 H 0.26 0.3186 0.47911 0.0
H1205 H 0.1667 0.44631 0.5334 0.0
H1206 H 0.18003 0.45924 0.50452 0.0
H1207 H 0.14739 0.42614 0.50793 0.0
H1208 H 0.20209 0.43046 0.41942 0.0
H1209 H 0.12619 0.35348 0.43887 0.0
H1210 H 0.25593 0.42276 0.46333 0.0
H1211 H 0.22881 0.45374 0.47817 0.0
H1212 H 0.23761 0.45901 0.4474 0.0
H1213 H 0.15671 0.3261 0.48722 0.0
H1214 H 0.11391 0.34156 0.47927 0.0
H1215 H 0.13838 0.36291 0.50221 0.0
C1216 C 0.83251 0.93682 0.18393 0.0
C1217 C 0.85623 0.9109 0.17716 0.0
C1218 C 0.83191 0.94917 0.20707 0.0
C1219 C 0.85524 0.93474 0.22378 0.0
C1220 C 0.87604 0.90559 0.21758 0.0
C1221 C 0.87662 0.89431 0.19423 0.0
C1222 C 0.80926 0.98029 0.21287 0.0
C1223 C 0.90043 0.88867 0.23495 0.0
C1224 C 0.88964 0.00169 0.26714 0.0
C1225 C 0.8668 0.99709 0.28595 0.0
C1226 C 0.88722 0.98037 0.2472 0.0
C1227 C 0.86162 0.95353 0.24625 0.0
C1228 C 0.84045 0.94704 0.26605 0.0
C1229 C 0.843 0.96919 0.28557 0.0
C1230 C 0.91034 0.98828 0.22647 0.0
C1231 C 0.81354 0.91823 0.26607 0.0
H1232 H 0.81742 0.95026 0.17063 0.0
H1233 H 0.89546 0.87468 0.18889 0.0
H1234 H 0.79536 0.97616 0.22964 0.0
H1235 H 0.82601 0.00377 0.21493 0.0
H1236 H 0.78966 0.98564 0.19899 0.0
H1237 H 0.90902 0.8624 0.22899 0.0
H1238 H 0.92398 0.90526 0.23716 0.0
H1239 H 0.88776 0.88613 0.2523 0.0
H1240 H 0.90755 0.02365 0.26728 0.0
H1241 H 0.82504 0.96593 0.30006 0.0
H1242 H 0.89403 0.99746 0.21164 0.0
H1243 H 0.9241 0.96429 0.22066 0.0
H1244 H 0.93014 0.00866 0.23046 0.0
H1245 H 0.79097 0.92608 0.25509 0.0
H1246 H 0.80382 0.91258 0.28396 0.0
H1247 H 0.82453 0.89389 0.2585 0.0
C1248 C 0.24551 0.63552 0.01703 0.0
C1249 C 0.2493 0.61274 0.03595 0.0
C1250 C 0.268 0.63338 0.99768 0.0
C1251 C 0.29521 0.60811 0.99746 0.0
C1252 C 0.30076 0.58693 0.01739 0.0
C1253 C 0.27738 0.58915 0.03628 0.0
C1254 C 0.26101 0.65645 0.97678 0.0
C1255 C 0.32992 0.5604 0.01821 0.0
C1256 C 0.31516 0.58073 0.93534 0.0
C1257 C 0.34023 0.60571 0.92922 0.0
C1258 C 0.30225 0.57895 0.95831 0.0
C1259 C 0.31544 0.60218 0.97551 0.0
C1260 C 0.34427 0.62383 0.97005 0.0
C1261 C 0.35604 0.62567 0.94684 0.0
C1262 C 0.27153 0.55537 0.96332 0.0
C1263 C 0.36006 0.64799 0.98801 0.0
H1264 H 0.22335 0.65321 0.01662 0.0
H1265 H 0.27992 0.57116 0.05082 0.0
H1266 H 0.28504 0.67083 0.97181 0.0
H1267 H 0.25333 0.64006 0.96161 0.0
H1268 H 0.23987 0.67573 0.98013 0.0
H1269 H 0.33506 0.55131 0.03632 0.0
H1270 H 0.32268 0.53739 0.00746 0.0
H1271 H 0.35439 0.57141 0.01086 0.0
H1272 H 0.30243 0.5658 0.92166 0.0
H1273 H 0.37518 0.64531 0.94204 0.0
H1274 H 0.24746 0.57143 0.96485 0.0
H1275 H 0.27518 0.54145 0.98013 0.0
H1276 H 0.26749 0.53576 0.94926 0.0
H1277 H 0.34307 0.67128 0.99011 0.0
H1278 H 0.38648 0.65702 0.98266 0.0
H1279 H 0.36201 0.63493 0.00527 0.0
C1280 C 0.6673 0.04491 0.67779 0.0
C1281 C 0.6482 0.07525 0.67293 0.0
C1282 C 0.66911 0.03155 0.70063 0.0
C1283 C 0.65195 0.04947 0.71905 0.0
C1284 C 0.63636 0.08239 0.71457 0.0
C1285 C 0.63408 0.09458 0.69145 0.0
C1286 C 0.68567 0.99619 0.70443 0.0
C1287 C 0.61891 0.10303 0.73377 0.0
C1288 C 0.60918 0.99092 0.76444 0.0
C1289 C 0.63445 0.98989 0.78223 0.0
C1290 C 0.61435 0.01074 0.74408 0.0
C1291 C 0.64511 0.03105 0.7416 0.0
C1292 C 0.66969 0.03199 0.76006 0.0
C1293 C 0.66434 0.01108 0.77998 0.0
C1294 C 0.58742 0.00877 0.72479 0.0
C1295 C 0.70231 0.05403 0.75844 0.0
H1296 H 0.67734 0.02946 0.66337 0.0
H1297 H 0.61864 0.11767 0.68762 0.0
H1298 H 0.70228 0.99628 0.7203 0.0
H1299 H 0.66481 0.97643 0.70711 0.0
H1300 H 0.70184 0.98797 0.68927 0.0
H1301 H 0.61494 0.13076 0.72865 0.0
H1302 H 0.59297 0.09145 0.73764 0.0
H1303 H 0.63463 0.10214 0.75006 0.0
H1304 H 0.58559 0.97548 0.76612 0.0
H1305 H 0.6844 0.01037 0.79333 0.0
H1306 H 0.59968 0.99841 0.70862 0.0
H1307 H 0.57733 0.03525 0.72073 0.0
H1308 H 0.56496 0.99174 0.72943 0.0
H1309 H 0.72066 0.04216 0.74571 0.0
H1310 H 0.71587 0.05627 0.77554 0.0
H1311 H 0.69589 0.08066 0.75206 0.0
C1312 C 0.42089 0.2304 0.13116 0.0
C1313 C 0.41576 0.20085 0.14526 0.0
C1314 C 0.45291 0.24833 0.13114 0.0
C1315 C 0.48035 0.23683 0.14587 0.0
C1316 C 0.47523 0.20723 0.16033 0.0
C1317 C 0.44311 0.1894 0.1597 0.0
C1318 C 0.45748 0.27942 0.11518 0.0
C1319 C 0.50365 0.19446 0.17654 0.0
C1320 C 0.57367 0.26284 0.13092 0.0
C1321 C 0.57902 0.29173 0.1456 0.0
C1322 C 0.54168 0.24485 0.13077 0.0
C1323 C 0.51451 0.25561 0.14596 0.0
C1324 C 0.51986 0.28452 0.161 0.0
C1325 C 0.55193 0.30243 0.1605 0.0
C1326 C 0.53684 0.21453 0.11419 0.0
C1327 C 0.49173 0.29647 0.1777 0.0
H1328 H 0.39996 0.23932 0.11986 0.0
H1329 H 0.43928 0.16672 0.17075 0.0
H1330 H 0.46375 0.30305 0.12561 0.0
H1331 H 0.47976 0.27483 0.10316 0.0
H1332 H 0.43373 0.2848 0.1046 0.0
H1333 H 0.49525 0.17158 0.18708 0.0
H1334 H 0.52712 0.18702 0.16631 0.0
H1335 H 0.51155 0.21576 0.1886 0.0
H1336 H 0.5944 0.2545 0.11926 0.0
H1337 H 0.55594 0.32458 0.17199 0.0
H1338 H 0.51437 0.21969 0.10241 0.0
H1339 H 0.53074 0.19042 0.12414 0.0
H1340 H 0.56043 0.20965 0.10334 0.0
H1341 H 0.46809 0.30442 0.16781 0.0
H1342 H 0.50033 0.31881 0.18869 0.0
H1343 H 0.48404 0.27458 0.18933 0.0
C1344 C 0.51709 0.67315 0.38171 0.0
C1345 C 0.54657 0.66777 0.39587 0.0
C1346 C 0.49928 0.70526 0.38176 0.0
C1347 C 0.51082 0.73252 0.39663 0.0
C1348 C 0.54028 0.72709 0.4112 0.0
C1349 C 0.55798 0.6949 0.41049 0.0
C1350 C 0.46834 0.71016 0.36569 0.0
C1351 C 0.55306 0.75529 0.42756 0.0
C1352 C 0.48543 0.826 0.38155 0.0
C1353 C 0.45626 0.83142 0.39597 0.0
C1354 C 0.50338 0.79396 0.38158 0.0
C1355 C 0.4923 0.76683 0.39669 0.0
C1356 C 0.46322 0.77234 0.41156 0.0
C1357 C 0.44536 0.80445 0.41087 0.0
C1358 C 0.53391 0.78898 0.36519 0.0
C1359 C 0.45094 0.74429 0.42819 0.0
H1360 H 0.5082 0.65239 0.37027 0.0
H1361 H 0.58061 0.69088 0.42158 0.0
H1362 H 0.44469 0.71664 0.37603 0.0
H1363 H 0.47323 0.7324 0.3537 0.0
H1364 H 0.46284 0.68648 0.35508 0.0
H1365 H 0.57571 0.7466 0.43824 0.0
H1366 H 0.56089 0.77871 0.41743 0.0
H1367 H 0.53166 0.76336 0.43948 0.0
H1368 H 0.49393 0.84663 0.36989 0.0
H1369 H 0.42296 0.8085 0.42216 0.0
H1370 H 0.52866 0.76672 0.35327 0.0
H1371 H 0.55781 0.78247 0.37527 0.0
H1372 H 0.53918 0.81262 0.3545 0.0
H1373 H 0.44272 0.72082 0.41823 0.0
H1374 H 0.42867 0.7531 0.43917 0.0
H1375 H 0.47272 0.73625 0.43982 0.0
C1376 C 0.94399 0.69667 0.65927 0.0
C1377 C 0.91716 0.70744 0.64418 0.0
C1378 C 0.97602 0.71465 0.66013 0.0
C1379 C 0.98154 0.74378 0.64531 0.0
C1380 C 0.95463 0.75463 0.62995 0.0
C1381 C 0.92272 0.73649 0.62968 0.0
C1382 C 0.00393 0.7025 0.67693 0.0
C1383 C 0.95964 0.78522 0.61363 0.0
C1384 C 0.05339 0.80917 0.66003 0.0
C1385 C 0.08081 0.79764 0.64569 0.0
C1386 C 0.02101 0.79176 0.66022 0.0
C1387 C 0.01576 0.76246 0.64548 0.0
C1388 C 0.04321 0.75101 0.63077 0.0
C1389 C 0.07542 0.76856 0.63117 0.0
C1390 C 0.99251 0.80452 0.67635 0.0
C1391 C 0.03856 0.72021 0.61455 0.0
H1392 H 0.93984 0.6744 0.67063 0.0
H1393 H 0.90219 0.74494 0.6179 0.0
H1394 H 0.02768 0.69465 0.66713 0.0
H1395 H 0.0115 0.72424 0.68873 0.0
H1396 H 0.99519 0.68003 0.68774 0.0
H1397 H 0.93613 0.79036 0.60275 0.0
H1398 H 0.96577 0.80914 0.62379 0.0
H1399 H 0.98215 0.78019 0.60188 0.0
H1400 H 0.0574 0.83149 0.67138 0.0
H1401 H 0.09639 0.75955 0.61994 0.0
H1402 H 0.9846 0.78323 0.68839 0.0
H1403 H 0.96906 0.8119 0.66606 0.0
H1404 H 0.00083 0.82743 0.6869 0.0
H1405 H 0.03226 0.69642 0.62479 0.0
H1406 H 0.06229 0.71496 0.60393 0.0
H1407 H 0.01628 0.72504 0.60256 0.0
C1408 C 0.96834 0.31356 0.8795 0.0
C1409 C 0.94075 0.32118 0.89484 0.0
C1410 C 0.98553 0.28123 0.88016 0.0
C1411 C 0.97525 0.25588 0.89679 0.0
C1412 C 0.94715 0.26317 0.91218 0.0
C1413 C 0.93003 0.2957 0.91092 0.0
C1414 C 0.01499 0.27436 0.86319 0.0
C1415 C 0.93567 0.23689 0.93028 0.0
C1416 C 0.00326 0.16251 0.88407 0.0
C1417 C 0.03426 0.15977 0.89709 0.0
C1418 C 0.9833 0.19331 0.88428 0.0
C1419 C 0.99436 0.22199 0.89804 0.0
C1420 C 0.02511 0.21907 0.91172 0.0
C1421 C 0.04481 0.18808 0.91096 0.0
C1422 C 0.95096 0.19551 0.86921 0.0
C1423 C 0.03758 0.24897 0.92679 0.0
H1424 H 0.97667 0.33301 0.86691 0.0
H1425 H 0.90886 0.30149 0.9229 0.0
H1426 H 0.0397 0.2699 0.8729 0.0
H1427 H 0.00953 0.25034 0.85296 0.0
H1428 H 0.019 0.29638 0.85083 0.0
H1429 H 0.913 0.24627 0.94066 0.0
H1430 H 0.92848 0.2119 0.92171 0.0
H1431 H 0.95764 0.23125 0.94237 0.0
H1432 H 0.99487 0.14077 0.87329 0.0
H1433 H 0.06856 0.18609 0.92121 0.0
H1434 H 0.95464 0.21579 0.85558 0.0
H1435 H 0.9281 0.20344 0.87989 0.0
H1436 H 0.94488 0.17029 0.86048 0.0
H1437 H 0.04497 0.27143 0.91558 0.0
H1438 H 0.06051 0.24167 0.93767 0.0
H1439 H 0.01623 0.25791 0.93846 0.0
C1440 C 0.55327 0.79914 0.84255 0.0
C1441 C 0.58099 0.78816 0.85682 0.0
C1442 C 0.52176 0.78039 0.8417 0.0
C1443 C 0.51756 0.75034 0.85586 0.0
C1444 C 0.54557 0.73896 0.87017 0.0
C1445 C 0.5771 0.75781 0.87029 0.0
C1446 C 0.49279 0.793 0.82587 0.0
C1447 C 0.54191 0.70744 0.88584 0.0
C1448 C 0.42444 0.72622 0.87227 0.0
C1449 C 0.4178 0.69768 0.85753 0.0
C1450 C 0.45693 0.74319 0.87212 0.0
C1451 C 0.48329 0.73185 0.8565 0.0
C1452 C 0.47668 0.70325 0.8414 0.0
C1453 C 0.44412 0.68625 0.84227 0.0
C1454 C 0.46311 0.77318 0.88879 0.0
C1455 C 0.50389 0.69084 0.82419 0.0
H1456 H 0.55625 0.8224 0.83192 0.0
H1457 H 0.5984 0.74928 0.88142 0.0
H1458 H 0.48399 0.77147 0.81429 0.0
H1459 H 0.46995 0.80116 0.83649 0.0
H1460 H 0.50102 0.81543 0.81485 0.0
H1461 H 0.56642 0.70148 0.89547 0.0
H1462 H 0.52071 0.71202 0.89872 0.0
H1463 H 0.53444 0.68419 0.8754 0.0
H1464 H 0.40434 0.73501 0.88426 0.0
H1465 H 0.43909 0.66429 0.83078 0.0
H1466 H 0.46872 0.7974 0.87884 0.0
H1467 H 0.48628 0.76766 0.89986 0.0
H1468 H 0.44029 0.77806 0.90034 0.0
H1469 H 0.51121 0.71254 0.8123 0.0
H1470 H 0.49455 0.66848 0.81349 0.0
H1471 H 0.52793 0.68277 0.83359 0.0
C1472 C 0.48393 0.32571 0.62445 0.0
C1473 C 0.45466 0.32964 0.60988 0.0
C1474 C 0.50311 0.29442 0.62488 0.0
C1475 C 0.49316 0.26645 0.61012 0.0
C1476 C 0.46368 0.27024 0.59532 0.0
C1477 C 0.4446 0.30169 0.59551 0.0
C1478 C 0.53397 0.29126 0.64121 0.0
C1479 C 0.4525 0.24118 0.57911 0.0
C1480 C 0.56176 0.19734 0.59599 0.0
C1481 C 0.55161 0.16973 0.61061 0.0
C1482 C 0.54287 0.22888 0.59554 0.0
C1483 C 0.51347 0.23314 0.61034 0.0
C1484 C 0.50356 0.20561 0.62547 0.0
C1485 C 0.52255 0.17418 0.62528 0.0
C1486 C 0.55403 0.25746 0.57897 0.0
C1487 C 0.47281 0.20929 0.64182 0.0
H1488 H 0.4918 0.34709 0.63571 0.0
H1489 H 0.42216 0.30459 0.58411 0.0
H1490 H 0.53014 0.26879 0.65319 0.0
H1491 H 0.55814 0.28612 0.63107 0.0
H1492 H 0.53796 0.31522 0.65185 0.0
H1493 H 0.42936 0.24844 0.56842 0.0
H1494 H 0.47431 0.23426 0.5672 0.0
H1495 H 0.44608 0.21744 0.58936 0.0
H1496 H 0.584 0.19402 0.58447 0.0
H1497 H 0.5146 0.15303 0.6367 0.0
H1498 H 0.56023 0.28159 0.58888 0.0
H1499 H 0.53228 0.26385 0.56687 0.0
H1500 H 0.5773 0.24998 0.56848 0.0
H1501 H 0.47658 0.23228 0.65337 0.0
H1502 H 0.46902 0.18576 0.6529 0.0
H1503 H 0.44856 0.21387 0.63164 0.0
C1504 C 0.07662 0.26713 0.37208 0.0
C1505 C 0.08141 0.29662 0.35786 0.0
C1506 C 0.04511 0.24833 0.37179 0.0
C1507 C 0.01782 0.25887 0.35662 0.0
C1508 C 0.0226 0.28841 0.34204 0.0
C1509 C 0.05422 0.30712 0.34298 0.0
C1510 C 0.0409 0.21738 0.38792 0.0
C1511 C 0.99431 0.3002 0.32541 0.0
C1512 C 0.94762 0.19132 0.34263 0.0
C1513 C 0.92031 0.20185 0.35739 0.0
C1514 C 0.9793 0.20998 0.34188 0.0
C1515 C 0.98399 0.23948 0.35653 0.0
C1516 C 0.95656 0.25006 0.37156 0.0
C1517 C 0.92503 0.23132 0.37166 0.0
C1518 C 0.00773 0.19817 0.32538 0.0
C1519 C 0.96067 0.28096 0.38775 0.0
H1520 H 0.09743 0.2589 0.38371 0.0
H1521 H 0.05781 0.32972 0.33182 0.0
H1522 H 0.01839 0.22175 0.39979 0.0
H1523 H 0.03519 0.19349 0.37762 0.0
H1524 H 0.0646 0.21258 0.39867 0.0
H1525 H 0.00253 0.32294 0.31467 0.0
H1526 H 0.98705 0.27844 0.31355 0.0
H1527 H 0.9705 0.3075 0.33533 0.0
H1528 H 0.94411 0.16872 0.33145 0.0
H1529 H 0.90414 0.23956 0.38322 0.0
H1530 H 0.03143 0.19082 0.33542 0.0
H1531 H 0.01516 0.21994 0.31358 0.0
H1532 H -0.00041 0.17546 0.31458 0.0
H1533 H 0.98306 0.27653 0.39973 0.0
H1534 H 0.93687 0.28577 0.3984 0.0
H1535 H 0.96651 0.30487 0.37752 0.0
C1536 C 0.05377 0.69311 0.09288 0.0
C1537 C 0.04368 0.66569 0.10766 0.0
C1538 C 0.035 0.72473 0.09242 0.0
C1539 C 0.00584 0.72925 0.10739 0.0
C1540 C 0.99578 0.70176 0.1225 0.0
C1541 C 0.01461 0.67027 0.12232 0.0
C1542 C 0.04625 0.75325 0.07583 0.0
C1543 C 0.96526 0.70571 0.13904 0.0
C1544 C 0.97802 0.82186 0.12282 0.0
C1545 C 0.94831 0.82647 0.10875 0.0
C1546 C 0.99688 0.79037 0.12258 0.0
C1547 C 0.98616 0.76293 0.10762 0.0
C1548 C 0.95631 0.76746 0.09325 0.0
C1549 C 0.93755 0.79906 0.09414 0.0
C1550 C 0.02814 0.7864 0.13849 0.0
C1551 C 0.94433 0.73899 0.07684 0.0
H1552 H 0.07606 0.68968 0.08141 0.0
H1553 H 0.00673 0.64929 0.1339 0.0
H1554 H 0.0242 0.76044 0.06417 0.0
H1555 H 0.05351 0.77703 0.0858 0.0
H1556 H 0.06887 0.74531 0.06488 0.0
H1557 H 0.96098 0.68194 0.14981 0.0
H1558 H 0.96978 0.72821 0.15089 0.0
H1559 H 0.94103 0.71125 0.12906 0.0
H1560 H 0.98643 0.84284 0.13425 0.0
H1561 H 0.91478 0.80252 0.0831 0.0
H1562 H 0.05191 0.78095 0.12801 0.0
H1563 H 0.02421 0.76383 0.15037 0.0
H1564 H 0.03288 0.81012 0.14923 0.0
H1565 H 0.96583 0.7319 0.06471 0.0
H1566 H 0.92118 0.74693 0.06638 0.0
H1567 H 0.9376 0.71516 0.0869 0.0
C1568 C 0.20933 0.31468 0.08442 0.0
C1569 C 0.24113 0.31057 0.09623 0.0
C1570 C 0.19127 0.34653 0.08516 0.0
C1571 C 0.20512 0.3745 0.09845 0.0
C1572 C 0.23794 0.37085 0.10964 0.0
C1573 C 0.25574 0.3389 0.10822 0.0
C1574 C 0.15677 0.3498 0.07252 0.0
C1575 C 0.25336 0.40004 0.12411 0.0
C1576 C 0.17213 0.46645 0.0886 0.0
C1577 C 0.14763 0.47017 0.10668 0.0
C1578 C 0.19059 0.43526 0.08549 0.0
C1579 C 0.1849 0.4073 0.10113 0.0
C1580 C 0.16019 0.41081 0.11946 0.0
C1581 C 0.14148 0.4422 0.12187 0.0
C1582 C 0.21615 0.43224 0.06547 0.0
C1583 C 0.1539 0.38159 0.13667 0.0
H1584 H 0.19806 0.29255 0.07529 0.0
H1585 H 0.28004 0.33538 0.1177 0.0
H1586 H 0.13532 0.35281 0.08541 0.0
H1587 H 0.15668 0.37346 0.06132 0.0
H1588 H 0.1511 0.32663 0.06144 0.0
H1589 H 0.27975 0.39345 0.13091 0.0
H1590 H 0.25527 0.4243 0.11359 0.0
H1591 H 0.23593 0.40573 0.13914 0.0
H1592 H 0.17667 0.48791 0.07661 0.0
H1593 H 0.12261 0.4451 0.13586 0.0
H1594 H 0.20916 0.40962 0.05426 0.0
H1595 H 0.24286 0.42742 0.0723 0.0
H1596 H 0.21674 0.45614 0.05446 0.0
H1597 H 0.14494 0.35783 0.12731 0.0
H1598 H 0.13407 0.38862 0.15005 0.0
H1599 H 0.1787 0.37482 0.14566 0.0
C1600 C 0.28043 0.42587 0.34071 0.0
C1601 C 0.27687 0.40078 0.35845 0.0
C1602 C 0.31166 0.44425 0.33765 0.0
C1603 C 0.33988 0.43787 0.35298 0.0
C1604 C 0.33653 0.41266 0.37101 0.0
C1605 C 0.30506 0.39407 0.37339 0.0
C1606 C 0.31446 0.47042 0.31797 0.0
C1607 C 0.36604 0.40562 0.38788 0.0
C1608 C 0.43213 0.46207 0.33521 0.0
C1609 C 0.4368 0.49364 0.34719 0.0
C1610 C 0.40027 0.44411 0.33635 0.0
C1611 C 0.37284 0.4578 0.3502 0.0
C1612 C 0.37706 0.49032 0.36166 0.0
C1613 C 0.409 0.50804 0.35985 0.0
C1614 C 0.39638 0.40992 0.32342 0.0
C1615 C 0.34846 0.50557 0.37673 0.0
H1616 H 0.25882 0.4309 0.32891 0.0
H1617 H 0.30232 0.37476 0.38712 0.0
H1618 H 0.31981 0.49683 0.32512 0.0
H1619 H 0.33668 0.46349 0.3064 0.0
H1620 H 0.29027 0.47169 0.30725 0.0
H1621 H 0.35907 0.38556 0.40111 0.0
H1622 H 0.3895 0.39662 0.37821 0.0
H1623 H 0.37328 0.43011 0.39708 0.0
H1624 H 0.45385 0.45095 0.32555 0.0
H1625 H 0.41295 0.53214 0.36947 0.0
H1626 H 0.37252 0.4104 0.31239 0.0
H1627 H 0.3933 0.38825 0.33612 0.0
H1628 H 0.41928 0.40418 0.31212 0.0
H1629 H 0.32392 0.50811 0.36655 0.0
H1630 H 0.35552 0.53165 0.38384 0.0
H1631 H 0.34301 0.48772 0.39157 0.0
C1632 C 0.24045 0.65416 0.60753 0.0
C1633 C 0.25562 0.6837 0.59735 0.0
C1634 C 0.25832 0.62219 0.60786 0.0
C1635 C 0.29178 0.61986 0.59739 0.0
C1636 C 0.30605 0.64911 0.58564 0.0
C1637 C 0.28791 0.68091 0.58602 0.0
C1638 C 0.24244 0.59162 0.62072 0.0
C1639 C 0.34125 0.64732 0.57378 0.0
C1640 C 0.35522 0.55244 0.62127 0.0
C1641 C 0.35075 0.5251 0.60533 0.0
C1642 C 0.33606 0.58354 0.61891 0.0
C1643 C 0.31264 0.58744 0.59986 0.0
C1644 C 0.3088 0.5602 0.5834 0.0
C1645 C 0.32765 0.52922 0.58648 0.0
C1646 C 0.34038 0.61196 0.63699 0.0
C1647 C 0.28471 0.56373 0.56261 0.0
H1648 H 0.21573 0.6567 0.61666 0.0
H1649 H 0.29962 0.70403 0.57836 0.0
H1650 H 0.24216 0.56807 0.60943 0.0
H1651 H 0.25863 0.58536 0.63627 0.0
H1652 H 0.21531 0.59708 0.62661 0.0
H1653 H 0.34677 0.67111 0.56328 0.0
H1654 H 0.36209 0.64445 0.58713 0.0
H1655 H 0.34266 0.62415 0.56216 0.0
H1656 H 0.373 0.54919 0.63587 0.0
H1657 H 0.32446 0.50821 0.57393 0.0
H1658 H 0.31481 0.61762 0.64533 0.0
H1659 H 0.34936 0.63642 0.62851 0.0
H1660 H 0.35942 0.6047 0.65082 0.0
H1661 H 0.25738 0.56733 0.56863 0.0
H1662 H 0.28571 0.54052 0.55096 0.0
H1663 H 0.29181 0.58723 0.5523 0.0
C1664 C 0.0742 0.52281 0.839 0.0
C1665 C 0.06212 0.50373 0.85825 0.0
C1666 C 0.10423 0.54372 0.84084 0.0
C1667 C 0.12239 0.54538 0.86239 0.0
C1668 C 0.10968 0.527 0.88202 0.0
C1669 C 0.07961 0.50658 0.87974 0.0
C1670 C 0.11706 0.56326 0.8196 0.0
C1671 C 0.12837 0.52806 0.90529 0.0
C1672 C 0.21948 0.56298 0.86096 0.0
C1673 C 0.22109 0.59801 0.86805 0.0
C1674 C 0.18746 0.54568 0.85899 0.0
C1675 C 0.15624 0.56396 0.86405 0.0
C1676 C 0.15761 0.59928 0.87139 0.0
C1677 C 0.19017 0.6159 0.87346 0.0
C1678 C 0.18708 0.5078 0.85149 0.0
C1679 C 0.1247 0.61952 0.87679 0.0
H1680 H 0.0606 0.52084 0.82244 0.0
H1681 H 0.06971 0.49278 0.8949 0.0
H1682 H 0.12132 0.5912 0.82393 0.0
H1683 H 0.14257 0.55238 0.81393 0.0
H1684 H 0.09843 0.56155 0.80474 0.0
H1685 H 0.11392 0.51379 0.91915 0.0
H1686 H 0.1547 0.51617 0.90349 0.0
H1687 H 0.13214 0.55549 0.91101 0.0
H1688 H 0.24337 0.54901 0.85683 0.0
H1689 H 0.19135 0.64309 0.87873 0.0
H1690 H 0.17128 0.50476 0.83536 0.0
H1691 H 0.17466 0.49156 0.86523 0.0
H1692 H 0.21375 0.49747 0.84811 0.0
H1693 H 0.10737 0.61984 0.86124 0.0
H1694 H 0.13026 0.64691 0.88204 0.0
H1695 H 0.11008 0.60654 0.89109 0.0
C1696 C 0.75478 0.65834 0.88737 0.0
C1697 C 0.77034 0.68913 0.89551 0.0
C1698 C 0.77356 0.62689 0.88688 0.0
C1699 C 0.80851 0.62627 0.89505 0.0
C1700 C 0.82398 0.65711 0.90395 0.0
C1701 C 0.80475 0.68831 0.90389 0.0
C1702 C 0.7563 0.59453 0.87712 0.0
C1703 C 0.86093 0.65722 0.91324 0.0
C1704 C 0.84272 0.53729 0.91231 0.0
C1705 C 0.86246 0.52792 0.89264 0.0
C1706 C 0.82598 0.56972 0.91362 0.0
C1707 C 0.82857 0.59312 0.8946 0.0
C1708 C 0.84908 0.58416 0.87486 0.0
C1709 C 0.86615 0.55165 0.8742 0.0
C1710 C 0.80488 0.57858 0.93514 0.0
C1711 C 0.85202 0.60838 0.85414 0.0
H1712 H 0.72836 0.65916 0.88052 0.0
H1713 H 0.81671 0.71222 0.91018 0.0
H1714 H 0.77155 0.58458 0.86202 0.0
H1715 H 0.75593 0.57359 0.89051 0.0
H1716 H 0.72904 0.59952 0.87131 0.0
H1717 H 0.86872 0.6832 0.92017 0.0
H1718 H 0.86364 0.6376 0.9274 0.0
H1719 H 0.8794 0.64973 0.89916 0.0
H1720 H 0.84016 0.51908 0.92673 0.0
H1721 H 0.88128 0.54431 0.85896 0.0
H1722 H 0.77685 0.58112 0.93043 0.0
H1723 H 0.81338 0.60409 0.94239 0.0
H1724 H 0.80738 0.55839 0.94899 0.0
H1725 H 0.82582 0.6123 0.84622 0.0
H1726 H 0.86995 0.59805 0.84052 0.0
H1727 H 0.86159 0.63438 0.85983 0.0
C1728 C 0.69412 0.60923 0.62809 0.0
C1729 C 0.72014 0.60681 0.64519 0.0
C1730 C 0.66293 0.59016 0.63032 0.0
C1731 C 0.65766 0.56888 0.6503 0.0
C1732 C 0.68354 0.56711 0.66785 0.0
C1733 C 0.71457 0.58589 0.66499 0.0
C1734 C 0.6359 0.59227 0.61114 0.0
C1735 C 0.67858 0.54525 0.68958 0.0
C1736 C 0.56395 0.5443 0.6636 0.0
C1737 C 0.56217 0.5106 0.65413 0.0
C1738 C 0.59529 0.56318 0.66323 0.0
C1739 C 0.62521 0.5481 0.65275 0.0
C1740 C 0.62389 0.51345 0.6441 0.0
C1741 C 0.59231 0.49495 0.64506 0.0
C1742 C 0.59598 0.59976 0.67312 0.0
C1743 C 0.65528 0.49662 0.63272 0.0
H1744 H 0.69848 0.6253 0.61277 0.0
H1745 H 0.73452 0.58426 0.67841 0.0
H1746 H 0.63116 0.56585 0.60379 0.0
H1747 H 0.61071 0.60176 0.61834 0.0
H1748 H 0.64404 0.60995 0.59674 0.0
H1749 H 0.7009 0.54761 0.7019 0.0
H1750 H 0.65433 0.55326 0.69876 0.0
H1751 H 0.67554 0.51734 0.68474 0.0
H1752 H 0.54042 0.55632 0.67047 0.0
H1753 H 0.59061 0.4691 0.63737 0.0
H1754 H 0.60004 0.61886 0.6588 0.0
H1755 H 0.61811 0.60271 0.6855 0.0
H1756 H 0.57133 0.6065 0.68234 0.0
H1757 H 0.66242 0.51137 0.61672 0.0
H1758 H 0.65034 0.46896 0.62782 0.0
H1759 H 0.67813 0.49755 0.64464 0.0
C1760 C 0.70989 0.31584 0.41185 0.0
C1761 C 0.74337 0.31256 0.40221 0.0
C1762 C 0.69194 0.34771 0.41095 0.0
C1763 C 0.70778 0.37668 0.39983 0.0
C1764 C 0.74218 0.37386 0.39091 0.0
C1765 C 0.75972 0.34175 0.39235 0.0
C1766 C 0.65558 0.35 0.4211 0.0
C1767 C 0.75979 0.40422 0.37887 0.0
C1768 C 0.64738 0.44664 0.37558 0.0
C1769 C 0.65041 0.4726 0.39269 0.0
C1770 C 0.66627 0.41529 0.37754 0.0
C1771 C 0.68809 0.4098 0.39724 0.0
C1772 C 0.69091 0.43582 0.41464 0.0
C1773 C 0.67221 0.46696 0.41207 0.0
C1774 C 0.66303 0.38812 0.35853 0.0
C1775 C 0.7135 0.43069 0.43604 0.0
H1776 H 0.69732 0.29307 0.41937 0.0
H1777 H 0.78539 0.33892 0.38455 0.0
H1778 H 0.65379 0.37233 0.43342 0.0
H1779 H 0.63639 0.35478 0.40692 0.0
H1780 H 0.64798 0.32575 0.43047 0.0
H1781 H 0.78714 0.39813 0.37377 0.0
H1782 H 0.74488 0.41136 0.36293 0.0
H1783 H 0.75995 0.42747 0.39045 0.0
H1784 H 0.63066 0.45102 0.36056 0.0
H1785 H 0.67445 0.48684 0.42549 0.0
H1786 H 0.65261 0.36345 0.36594 0.0
H1787 H 0.68919 0.38222 0.35115 0.0
H1788 H 0.64555 0.39673 0.34413 0.0
H1789 H 0.70473 0.40723 0.4458 0.0
H1790 H 0.71269 0.45356 0.44799 0.0
H1791 H 0.74102 0.4261 0.43077 0.0
C1792 C 0.78088 0.41496 0.16514 0.0
C1793 C 0.77482 0.39422 0.1453 0.0
C1794 C 0.81199 0.43369 0.16777 0.0
C1795 C 0.8375 0.432 0.14998 0.0
C1796 C 0.83163 0.41113 0.12988 0.0
C1797 C 0.80035 0.39219 0.12785 0.0
C1798 C 0.81756 0.45524 0.18959 0.0
C1799 C 0.85825 0.40908 0.11046 0.0
C1800 C 0.90453 0.50437 0.14478 0.0
C1801 C 0.93443 0.48782 0.15351 0.0
C1802 C 0.87245 0.48674 0.144 0.0
C1803 C 0.87041 0.45202 0.15245 0.0
C1804 C 0.90012 0.43603 0.16259 0.0
C1805 C 0.93193 0.45408 0.16283 0.0
C1806 C 0.84128 0.50453 0.133 0.0
C1807 C 0.89869 0.39932 0.17222 0.0
H1808 H 0.76131 0.4164 0.17881 0.0
H1809 H 0.79564 0.3763 0.11249 0.0
H1810 H 0.84157 0.44642 0.19874 0.0
H1811 H 0.82142 0.48309 0.18488 0.0
H1812 H 0.79519 0.4534 0.2019 0.0
H1813 H 0.84947 0.39207 0.09586 0.0
H1814 H 0.86348 0.43562 0.10348 0.0
H1815 H 0.88334 0.39878 0.11733 0.0
H1816 H 0.90674 0.53027 0.13724 0.0
H1817 H 0.95525 0.44138 0.16948 0.0
H1818 H 0.81853 0.50368 0.14499 0.0
H1819 H 0.8337 0.49042 0.11683 0.0
H1820 H 0.84674 0.53222 0.12847 0.0
H1821 H 0.87673 0.39673 0.18476 0.0
H1822 H 0.92333 0.39181 0.18119 0.0
H1823 H 0.89387 0.38056 0.15779 0.0
C1824 C 0.75858 0.8433 0.59836 0.0
C1825 C 0.74384 0.8137 0.58793 0.0
C1826 C 0.74033 0.87504 0.59884 0.0
C1827 C 0.70691 0.87711 0.58827 0.0
C1828 C 0.69317 0.84796 0.57614 0.0
C1829 C 0.7117 0.81637 0.57634 0.0
C1830 C 0.7557 0.90553 0.61207 0.0
C1831 C 0.65804 0.84952 0.56416 0.0
C1832 C 0.64353 0.94318 0.61381 0.0
C1833 C 0.64812 0.9714 0.59861 0.0
C1834 C 0.66233 0.91206 0.6105 0.0
C1835 C 0.68549 0.90908 0.59124 0.0
C1836 C 0.6891 0.93708 0.57537 0.0
C1837 C 0.67063 0.96805 0.57938 0.0
C1838 C 0.65821 0.88276 0.62795 0.0
C1839 C 0.7129 0.93457 0.55437 0.0
H1840 H 0.78317 0.84091 0.60766 0.0
H1841 H 0.70033 0.79326 0.56843 0.0
H1842 H 0.75561 0.92937 0.60106 0.0
H1843 H 0.73941 0.91111 0.62768 0.0
H1844 H 0.78291 0.90037 0.61793 0.0
H1845 H 0.65317 0.82612 0.55313 0.0
H1846 H 0.63705 0.85124 0.57748 0.0
H1847 H 0.65615 0.87321 0.55305 0.0
H1848 H 0.6262 0.94586 0.62869 0.0
H1849 H 0.67385 0.98977 0.5674 0.0
H1850 H 0.68375 0.87722 0.63639 0.0
H1851 H 0.64983 0.85852 0.61893 0.0
H1852 H 0.63883 0.88908 0.64178 0.0
H1853 H 0.74042 0.93174 0.5602 0.0
H1854 H 0.71101 0.95792 0.54291 0.0
H1855 H 0.70638 0.91102 0.54393 0.0
C1856 C 0.79665 0.89932 0.87307 0.0
C1857 C 0.76802 0.90588 0.85848 0.0
C1858 C 0.82812 0.91762 0.87012 0.0
C1859 C 0.83108 0.94243 0.85184 0.0
C1860 C 0.80221 0.94918 0.8371 0.0
C1861 C 0.77092 0.93106 0.84075 0.0
C1862 C 0.85824 0.91028 0.88646 0.0
C1863 C 0.80461 0.97499 0.8172 0.0
C1864 C 0.90376 0.00907 0.8572 0.0
C1865 C 0.93056 0.99282 0.84456 0.0
C1866 C 0.87083 0.99337 0.85925 0.0
C1867 C 0.86457 0.96102 0.84802 0.0
C1868 C 0.89095 0.94558 0.83406 0.0
C1869 C 0.92387 0.96152 0.83272 0.0
C1870 C 0.84348 0.01036 0.87453 0.0
C1871 C 0.88489 0.91151 0.82138 0.0
H1872 H 0.79443 0.87995 0.88682 0.0
H1873 H 0.74892 0.93604 0.82926 0.0
H1874 H 0.88071 0.89969 0.87646 0.0
H1875 H 0.86706 0.93491 0.89484 0.0
H1876 H 0.8512 0.89129 0.90036 0.0
H1877 H 0.77957 0.97749 0.80749 0.0
H1878 H 0.81214 0.00112 0.82389 0.0
H1879 H 0.82527 0.96662 0.80479 0.0
H1880 H 0.90924 0.03299 0.86669 0.0
H1881 H 0.94478 0.94898 0.82304 0.0
H1882 H 0.83831 0.99351 0.88992 0.0
H1883 H 0.8185 0.01312 0.86487 0.0
H1884 H 0.85173 0.03656 0.88082 0.0
H1885 H 0.8817 0.89008 0.83425 0.0
H1886 H 0.90689 0.90476 0.80953 0.0
H1887 H 0.86045 0.91287 0.81096 0.0
C1888 C 0.85306 0.05132 0.12134 0.0
C1889 C 0.846 0.02294 0.10666 0.0
C1890 C 0.83461 0.08285 0.11882 0.0
C1891 C 0.80923 0.0861 0.10087 0.0
C1892 C 0.80267 0.05774 0.0857 0.0
C1893 C 0.82087 0.02641 0.08893 0.0
C1894 C 0.84185 0.11249 0.13555 0.0
C1895 C 0.77638 0.06045 0.06607 0.0
C1896 C 0.73895 0.15502 0.10838 0.0
C1897 C 0.75315 0.18299 0.09581 0.0
C1898 C 0.75672 0.12306 0.10989 0.0
C1899 C 0.78908 0.11898 0.09819 0.0
C1900 C 0.80251 0.14657 0.08439 0.0
C1901 C 0.78453 0.17847 0.08358 0.0
C1902 C 0.74178 0.09433 0.12496 0.0
C1903 C 0.83649 0.14283 0.0712 0.0
H1904 H 0.87243 0.04862 0.13506 0.0
H1905 H 0.81563 0.00463 0.07732 0.0
H1906 H 0.85055 0.13593 0.12576 0.0
H1907 H 0.8175 0.11967 0.14494 0.0
H1908 H 0.86221 0.10568 0.14863 0.0
H1909 H 0.7753 0.03632 0.05529 0.0
H1910 H 0.74995 0.06551 0.07329 0.0
H1911 H 0.78302 0.08281 0.05455 0.0
H1912 H 0.71501 0.15886 0.11819 0.0
H1913 H 0.79552 0.20033 0.07402 0.0
H1914 H 0.75985 0.08885 0.13969 0.0
H1915 H 0.73921 0.06985 0.11473 0.0
H1916 H 0.71575 0.10126 0.13222 0.0
H1917 H 0.85843 0.14004 0.08373 0.0
H1918 H 0.8418 0.16569 0.05977 0.0
H1919 H 0.83602 0.11889 0.06026 0.0
C1920 C 0.59047 0.99257 0.36474 0.0
C1921 C 0.56541 0.00391 0.34862 0.0
C1922 C 0.62222 0.01041 0.36728 0.0
C1923 C 0.62916 0.03977 0.35298 0.0
C1924 C 0.60446 0.05039 0.33596 0.0
C1925 C 0.57254 0.03257 0.33421 0.0
C1926 C 0.64771 0.99868 0.38586 0.0
C1927 C 0.61139 0.08103 0.32001 0.0
C1928 C 0.69589 0.10681 0.37325 0.0
C1929 C 0.72566 0.09609 0.36095 0.0
C1930 C 0.66423 0.08851 0.37099 0.0
C1931 C 0.66236 0.0593 0.3558 0.0
C1932 C 0.6923 0.04853 0.34328 0.0
C1933 C 0.7236 0.06687 0.34615 0.0
C1934 C 0.63281 0.10035 0.38486 0.0
C1935 C 0.69121 0.01781 0.32669 0.0
H1936 H 0.58442 0.97085 0.37622 0.0
H1937 H 0.55279 0.04143 0.32198 0.0
H1938 H 0.67349 0.99279 0.37791 0.0
H1939 H 0.65178 0.02005 0.39869 0.0
H1940 H 0.63846 0.97512 0.39536 0.0
H1941 H 0.5903 0.08468 0.30688 0.0
H1942 H 0.61376 0.10531 0.33047 0.0
H1943 H 0.63654 0.07727 0.31068 0.0
H1944 H 0.69739 0.12934 0.3847 0.0
H1945 H 0.74642 0.05852 0.33641 0.0
H1946 H 0.62318 0.07859 0.39593 0.0
H1947 H 0.61127 0.10765 0.37283 0.0
H1948 H 0.63878 0.12309 0.39625 0.0
H1949 H 0.68374 0.99375 0.33626 0.0
H1950 H 0.71675 0.01321 0.31797 0.0
H1951 H 0.67108 0.0223 0.31306 0.0
C1952 C 0.29099 0.18139 0.41158 0.0
C1953 C 0.25777 0.18538 0.40166 0.0
C1954 C 0.30863 0.14939 0.41027 0.0
C1955 C 0.29278 0.12106 0.39841 0.0
C1956 C 0.25864 0.12461 0.38916 0.0
C1957 C 0.24138 0.1568 0.39105 0.0
C1958 C 0.3447 0.14627 0.42082 0.0
C1959 C 0.24105 0.09496 0.37631 0.0
C1960 C 0.35336 0.05138 0.37401 0.0
C1961 C 0.34968 0.02498 0.39074 0.0
C1962 C 0.33454 0.08276 0.3761 0.0
C1963 C 0.31212 0.0878 0.39554 0.0
C1964 C 0.30849 0.06127 0.41249 0.0
C1965 C 0.32713 0.03013 0.40981 0.0
C1966 C 0.33862 0.11051 0.35755 0.0
C1967 C 0.28523 0.06589 0.43361 0.0
H1968 H 0.3036 0.20372 0.41965 0.0
H1969 H 0.21593 0.16024 0.38301 0.0
H1970 H 0.34587 0.1235 0.43279 0.0
H1971 H 0.36419 0.14174 0.40679 0.0
H1972 H 0.35235 0.17009 0.43067 0.0
H1973 H 0.21393 0.10159 0.37095 0.0
H1974 H 0.25634 0.08828 0.36045 0.0
H1975 H 0.24027 0.07126 0.38745 0.0
H1976 H 0.37066 0.04741 0.35925 0.0
H1977 H 0.32434 0.00991 0.42294 0.0
H1978 H 0.34925 0.13475 0.36546 0.0
H1979 H 0.31272 0.11708 0.34999 0.0
H1980 H 0.35629 0.10211 0.34321 0.0
H1981 H 0.29404 0.0888 0.44394 0.0
H1982 H 0.28526 0.04254 0.44515 0.0
H1983 H 0.25797 0.07116 0.42801 0.0
C1984 C 0.06198 0.03983 0.1605 0.0
C1985 C 0.05966 0.00584 0.15158 0.0
C1986 C 0.09379 0.0579 0.16033 0.0
C1987 C 0.12369 0.04165 0.15063 0.0
C1988 C 0.12178 0.00674 0.14251 0.0
C1989 C 0.0897 0.9891 0.14324 0.0
C1990 C 0.09507 0.09482 0.16961 0.0
C1991 C 0.15314 0.9887 0.13196 0.0
C1992 C 0.19447 0.10089 0.12638 0.0
C1993 C 0.2196 0.09904 0.1441 0.0
C1994 C 0.16311 0.08206 0.12819 0.0
C1995 C 0.15671 0.06155 0.14838 0.0
C1996 C 0.18181 0.06009 0.16645 0.0
C1997 C 0.21305 0.07866 0.16402 0.0
C1998 C 0.13697 0.08381 0.10845 0.0
C1999 C 0.17565 0.03899 0.18838 0.0
H2000 H 0.03855 0.05268 0.16685 0.0
H2001 H 0.08762 0.96299 0.13601 0.0
H2002 H 0.11669 0.09762 0.1824 0.0
H2003 H 0.10034 0.11324 0.15507 0.0
H2004 H 0.07021 0.1026 0.1782 0.0
H2005 H 0.14769 0.96097 0.1275 0.0
H2006 H 0.16119 0.00258 0.11581 0.0
H2007 H 0.17558 0.9896 0.14422 0.0
H2008 H 0.1996 0.1165 0.11095 0.0
H2009 H 0.23232 0.0774 0.17789 0.0
H2010 H 0.11175 0.09433 0.11495 0.0
H2011 H 0.13182 0.05715 0.10163 0.0
H2012 H 0.14616 0.10051 0.09382 0.0
H2013 H 0.15141 0.04801 0.19716 0.0
H2014 H 0.1977 0.04104 0.20094 0.0
H2015 H 0.17187 0.01106 0.18386 0.0
C2016 C 0.17329 0.96821 0.90911 0.0
C2017 C 0.14812 0.97063 0.89129 0.0
C2018 C 0.19348 0.93811 0.91202 0.0
C2019 C 0.18869 0.90975 0.89659 0.0
C2020 C 0.16375 0.91206 0.87831 0.0
C2021 C 0.14352 0.94252 0.87594 0.0
C2022 C 0.21953 0.93647 0.93186 0.0
C2023 C 0.15831 0.88228 0.86139 0.0
C2024 C 0.26016 0.84155 0.89153 0.0
C2025 C 0.24574 0.81398 0.90438 0.0
C2026 C 0.24209 0.87322 0.88911 0.0
C2027 C 0.20915 0.87729 0.90005 0.0
C2028 C 0.19549 0.85016 0.91415 0.0
C2029 C 0.2139 0.81866 0.91601 0.0
C2030 C 0.25738 0.90161 0.87392 0.0
C2031 C 0.16079 0.85388 0.92649 0.0
H2032 H 0.17698 0.98977 0.92116 0.0
H2033 H 0.12422 0.94434 0.86212 0.0
H2034 H 0.21259 0.91482 0.94388 0.0
H2035 H 0.24606 0.93091 0.92499 0.0
H2036 H 0.22051 0.96117 0.94205 0.0
H2037 H 0.13883 0.8887 0.84764 0.0
H2038 H 0.18343 0.8754 0.85285 0.0
H2039 H 0.14923 0.85877 0.87097 0.0
H2040 H 0.2845 0.83755 0.8822 0.0
H2041 H 0.20278 0.7971 0.9258 0.0
H2042 H 0.25863 0.92662 0.88368 0.0
H2043 H 0.24023 0.90593 0.85854 0.0
H2044 H 0.28404 0.89499 0.86762 0.0
H2045 H 0.16056 0.87794 0.93731 0.0
H2046 H 0.15494 0.83114 0.9379 0.0
H2047 H 0.13953 0.85644 0.91341 0.0
C2048 C 0.28336 0.92315 0.66328 0.0
C2049 C 0.28054 0.89354 0.64889 0.0
C2050 C 0.31471 0.94173 0.66501 0.0
C2051 C 0.34397 0.93055 0.65197 0.0
C2052 C 0.34165 0.90024 0.6378 0.0
C2053 C 0.30988 0.88196 0.63647 0.0
C2054 C 0.31623 0.97383 0.68037 0.0
C2055 C 0.37244 0.88768 0.6236 0.0
C2056 C 0.41158 0.99787 0.63479 0.0
C2057 C 0.43878 0.99014 0.65027 0.0
C2058 C 0.38027 0.97902 0.63546 0.0
C2059 C 0.3763 0.95186 0.65204 0.0
C2060 C 0.40333 0.94488 0.66832 0.0
C2061 C 0.43453 0.96406 0.66712 0.0
C2062 C 0.35205 0.98721 0.61781 0.0
C2063 C 0.39977 0.91635 0.68637 0.0
H2064 H 0.26088 0.93212 0.67314 0.0
H2065 H 0.30785 0.85905 0.62541 0.0
H2066 H 0.33844 0.97184 0.69277 0.0
H2067 H 0.32075 0.99734 0.66943 0.0
H2068 H 0.29177 0.97775 0.6905 0.0
H2069 H 0.3669 0.8627 0.61442 0.0
H2070 H 0.37949 0.90771 0.61041 0.0
H2071 H 0.39555 0.88395 0.63505 0.0
H2072 H 0.4155 0.01768 0.62149 0.0
H2073 H 0.45609 0.95784 0.67871 0.0
H2074 H 0.32705 0.99293 0.62686 0.0
H2075 H 0.34757 0.96415 0.60643 0.0
H2076 H 0.35889 0.00988 0.60659 0.0
H2077 H 0.37533 0.91992 0.69653 0.0
H2078 H 0.42222 0.91581 0.69869 0.0
H2079 H 0.39802 0.8906 0.67754 0.0
loop_
_geom_bond_atom_site_label_1
_geom_bond_atom_site_label_2
_geom_bond_distance
_geom_bond_site_symmetry_2
_ccdc_geom_bond_type
C0 O16 1.251 . S
C0 O18 1.254 . S
N1 C2 1.333 . S
N1 C6 1.307 . S
N1 Zn7 2.020 . S
C2 N1 1.333 . S
C2 C3 1.379 . S
C2 H20 0.952 . S
C3 C2 1.379 . S
C3 C4 1.390 . S
C3 H30 0.949 . S
C4 C3 1.390 . S
C4 C5 1.357 . S
C5 C4 1.357 . S
C5 C6 1.370 . S
C5 H31 0.950 . S
C6 N1 1.307 . S
C6 C5 1.370 . S
C6 H24 0.948 . S
Zn7 N1 2.020 . S
Zn7 O16 2.039 . S
Zn7 O22 2.034 . S
Zn7 O26 2.025 . S
Zn7 O28 2.024 . S
C8 O27 1.246 . S
C8 O28 1.249 . S
N9 C10 1.307 . S
N9 C11 1.333 . S
N9 Zn15 2.020 . S
C10 N9 1.307 . S
C10 C14 1.370 . S
C10 H21 0.948 . S
C11 N9 1.333 . S
C11 C12 1.379 . S
C11 H19 0.952 . S
C12 C11 1.379 . S
C12 C13 1.390 . S
C12 H32 0.949 . S
C13 C12 1.390 . S
C13 C14 1.357 . S
C14 C10 1.370 . S
C14 C13 1.357 . S
C14 H33 0.950 . S
Zn15 N9 2.020 . S
Zn15 O18 2.025 . S
Zn15 O23 2.024 . S
Zn15 O25 2.039 . S
Zn15 O27 2.034 . S
O16 C0 1.251 . S
O16 Zn7 2.039 . S
C17 O22 1.246 . S
C17 O23 1.249 . S
O18 C0 1.254 . S
O18 Zn15 2.025 . S
H19 C11 0.952 . S
H20 C2 0.952 . S
H21 C10 0.948 . S
O22 Zn7 2.034 . S
O22 C17 1.246 . S
O23 Zn15 2.024 . S
O23 C17 1.249 . S
H24 C6 0.948 . S
O25 Zn15 2.039 . S
O25 C29 1.251 . S
O26 Zn7 2.025 . S
O26 C29 1.254 . S
O27 C8 1.246 . S
O27 Zn15 2.034 . S
O28 Zn7 2.024 . S
O28 C8 1.249 . S
C29 O25 1.251 . S
C29 O26 1.254 . S
H30 C3 0.949 . S
H31 C5 0.950 . S
H32 C12 0.949 . S
H33 C14 0.950 . S
C34 O50 1.251 . S
C34 O52 1.254 . S
N35 C36 1.333 . S
N35 C40 1.307 . S
N35 Zn41 2.020 . S
C36 N35 1.333 . S
C36 C37 1.379 . S
C36 H54 0.952 . S
C37 C36 1.379 . S
C37 C38 1.390 . S
C37 H64 0.949 . S
C38 C37 1.390 . S
C38 C39 1.357 . S
C39 C38 1.357 . S
C39 C40 1.370 . S
C39 H65 0.950 . S
C40 N35 1.307 . S
C40 C39 1.370 . S
C40 H58 0.948 . S
Zn41 N35 2.020 . S
Zn41 O50 2.039 . S
Zn41 O56 2.034 . S
Zn41 O60 2.025 . S
Zn41 O62 2.024 . S
C42 O61 1.246 . S
C42 O62 1.249 . S
N43 C44 1.307 . S
N43 C45 1.333 . S
N43 Zn49 2.020 . S
C44 N43 1.307 . S
C44 C48 1.370 . S
C44 H55 0.948 . S
C45 N43 1.333 . S
C45 C46 1.379 . S
C45 H53 0.952 . S
C46 C45 1.379 . S
C46 C47 1.390 . S
C46 H66 0.949 . S
C47 C46 1.390 . S
C47 C48 1.357 . S
C48 C44 1.370 . S
C48 C47 1.357 . S
C48 H67 0.950 . S
Zn49 N43 2.020 . S
Zn49 O52 2.025 . S
Zn49 O57 2.024 . S
Zn49 O59 2.039 . S
Zn49 O61 2.034 . S
O50 C34 1.251 . S
O50 Zn41 2.039 . S
C51 O56 1.246 . S
C51 O57 1.249 . S
O52 C34 1.254 . S
O52 Zn49 2.025 . S
H53 C45 0.952 . S
H54 C36 0.952 . S
H55 C44 0.948 . S
O56 Zn41 2.034 . S
O56 C51 1.246 . S
O57 Zn49 2.024 . S
O57 C51 1.249 . S
H58 C40 0.948 . S
O59 Zn49 2.039 . S
O59 C63 1.251 . S
O60 Zn41 2.025 . S
O60 C63 1.254 . S
O61 C42 1.246 . S
O61 Zn49 2.034 . S
O62 Zn41 2.024 . S
O62 C42 1.249 . S
C63 O59 1.251 . S
C63 O60 1.254 . S
H64 C37 0.949 . S
H65 C39 0.950 . S
H66 C46 0.949 . S
H67 C48 0.950 . S
C68 O84 1.251 . S
C68 O86 1.254 . S
N69 C70 1.333 . S
N69 C74 1.307 . S
N69 Zn75 2.020 . S
C70 N69 1.333 . S
C70 C71 1.379 . S
C70 H88 0.952 . S
C71 C70 1.379 . S
C71 C72 1.390 . S
C71 H98 0.949 . S
C72 C71 1.390 . S
C72 C73 1.357 . S
C73 C72 1.357 . S
C73 C74 1.370 . S
C73 H99 0.950 . S
C74 N69 1.307 . S
C74 C73 1.370 . S
C74 H92 0.948 . S
Zn75 N69 2.020 . S
Zn75 O84 2.039 . S
Zn75 O90 2.034 . S
Zn75 O94 2.025 . S
Zn75 O96 2.024 . S
C76 O95 1.246 . S
C76 O96 1.249 . S
N77 C78 1.307 . S
N77 C79 1.333 . S
N77 Zn83 2.020 . S
C78 N77 1.307 . S
C78 C82 1.370 . S
C78 H89 0.948 . S
C79 N77 1.333 . S
C79 C80 1.379 . S
C79 H87 0.952 . S
C80 C79 1.379 . S
C80 C81 1.390 . S
C80 H100 0.949 . S
C81 C80 1.390 . S
C81 C82 1.357 . S
C82 C78 1.370 . S
C82 C81 1.357 . S
C82 H101 0.950 . S
Zn83 N77 2.020 . S
Zn83 O86 2.025 . S
Zn83 O91 2.024 . S
Zn83 O93 2.039 . S
Zn83 O95 2.034 . S
O84 C68 1.251 . S
O84 Zn75 2.039 . S
C85 O90 1.246 . S
C85 O91 1.249 . S
O86 C68 1.254 . S
O86 Zn83 2.025 . S
H87 C79 0.952 . S
H88 C70 0.952 . S
H89 C78 0.948 . S
O90 Zn75 2.034 . S
O90 C85 1.246 . S
O91 Zn83 2.024 . S
O91 C85 1.249 . S
H92 C74 0.948 . S
O93 Zn83 2.039 . S
O93 C97 1.251 . S
O94 Zn75 2.025 . S
O94 C97 1.254 . S
O95 C76 1.246 . S
O95 Zn83 2.034 . S
O96 Zn75 2.024 . S
O96 C76 1.249 . S
C97 O93 1.251 . S
C97 O94 1.254 . S
H98 C71 0.949 . S
H99 C73 0.950 . S
H100 C80 0.949 . S
H101 C82 0.950 . S
C102 O118 1.251 . S
C102 O120 1.254 . S
N103 C104 1.333 . S
N103 C108 1.307 1_655 S
N103 Zn109 2.020 . S
C104 N103 1.333 . S
C104 C105 1.379 1_655 S
C104 H122 0.952 . S
C105 C104 1.379 1_455 S
C105 C106 1.390 . S
C105 H132 0.949 . S
C106 C105 1.390 . S
C106 C107 1.357 . S
C107 C106 1.357 . S
C107 C108 1.370 . S
C107 H133 0.950 . S
C108 N103 1.307 1_455 S
C108 C107 1.370 . S
C108 H126 0.948 . S
Zn109 N103 2.020 . S
Zn109 O118 2.039 . S
Zn109 O124 2.034 . S
Zn109 O128 2.025 . S
Zn109 O130 2.024 . S
C110 O129 1.246 . S
C110 O130 1.249 . S
N111 C112 1.307 . S
N111 C113 1.333 . S
N111 Zn117 2.020 . S
C112 N111 1.307 . S
C112 C116 1.370 . S
C112 H123 0.948 . S
C113 N111 1.333 . S
C113 C114 1.379 . S
C113 H121 0.952 . S
C114 C113 1.379 . S
C114 C115 1.390 . S
C114 H134 0.949 . S
C115 C114 1.390 . S
C115 C116 1.357 . S
C116 C112 1.370 . S
C116 C115 1.357 . S
C116 H135 0.950 . S
Zn117 N111 2.020 . S
Zn117 O120 2.025 . S
Zn117 O125 2.024 . S
Zn117 O127 2.039 . S
Zn117 O129 2.034 . S
O118 C102 1.251 . S
O118 Zn109 2.039 . S
C119 O124 1.246 . S
C119 O125 1.249 . S
O120 C102 1.254 . S
O120 Zn117 2.025 . S
H121 C113 0.952 . S
H122 C104 0.952 . S
H123 C112 0.948 . S
O124 Zn109 2.034 . S
O124 C119 1.246 . S
O125 Zn117 2.024 . S
O125 C119 1.249 . S
H126 C108 0.948 . S
O127 Zn117 2.039 . S
O127 C131 1.251 . S
O128 Zn109 2.025 . S
O128 C131 1.254 . S
O129 C110 1.246 . S
O129 Zn117 2.034 . S
O130 Zn109 2.024 . S
O130 C110 1.249 . S
C131 O127 1.251 . S
C131 O128 1.254 . S
H132 C105 0.949 . S
H133 C107 0.950 . S
H134 C114 0.949 . S
H135 C116 0.950 . S
C136 O152 1.251 . S
C136 O154 1.254 . S
N137 C138 1.333 . S
N137 C142 1.307 . S
N137 Zn143 2.020 . S
C138 N137 1.333 . S
C138 C139 1.379 . S
C138 H156 0.952 . S
C139 C138 1.379 . S
C139 C140 1.390 . S
C139 H166 0.949 . S
C140 C139 1.390 . S
C140 C141 1.357 . S
C141 C140 1.357 . S
C141 C142 1.370 . S
C141 H167 0.950 . S
C142 N137 1.307 . S
C142 C141 1.370 . S
C142 H160 0.948 . S
Zn143 N137 2.020 . S
Zn143 O152 2.039 . S
Zn143 O158 2.034 . S
Zn143 O162 2.025 . S
Zn143 O164 2.024 . S
C144 O163 1.246 . S
C144 O164 1.249 . S
N145 C146 1.307 . S
N145 C147 1.333 . S
N145 Zn151 2.020 . S
C146 N145 1.307 . S
C146 C150 1.370 . S
C146 H157 0.948 . S
C147 N145 1.333 . S
C147 C148 1.379 . S
C147 H155 0.952 . S
C148 C147 1.379 . S
C148 C149 1.390 . S
C148 H168 0.949 . S
C149 C148 1.390 . S
C149 C150 1.357 . S
C150 C146 1.370 . S
C150 C149 1.357 . S
C150 H169 0.950 . S
Zn151 N145 2.020 . S
Zn151 O154 2.025 . S
Zn151 O159 2.024 . S
Zn151 O161 2.039 . S
Zn151 O163 2.034 . S
O152 C136 1.251 . S
O152 Zn143 2.039 . S
C153 O158 1.246 . S
C153 O159 1.249 . S
O154 C136 1.254 . S
O154 Zn151 2.025 . S
H155 C147 0.952 . S
H156 C138 0.952 . S
H157 C146 0.948 . S
O158 Zn143 2.034 . S
O158 C153 1.246 . S
O159 Zn151 2.024 . S
O159 C153 1.249 . S
H160 C142 0.948 . S
O161 Zn151 2.039 . S
O161 C165 1.251 . S
O162 Zn143 2.025 . S
O162 C165 1.254 . S
O163 C144 1.246 . S
O163 Zn151 2.034 . S
O164 Zn143 2.024 . S
O164 C144 1.249 . S
C165 O161 1.251 . S
C165 O162 1.254 . S
H166 C139 0.949 . S
H167 C141 0.950 . S
H168 C148 0.949 . S
H169 C150 0.950 . S
C170 O186 1.251 . S
C170 O188 1.254 . S
N171 C172 1.333 . S
N171 C176 1.307 . S
N171 Zn177 2.020 . S
C172 N171 1.333 . S
C172 C173 1.379 . S
C172 H190 0.952 . S
C173 C172 1.379 . S
C173 C174 1.390 . S
C173 H200 0.949 . S
C174 C173 1.390 . S
C174 C175 1.357 . S
C175 C174 1.357 . S
C175 C176 1.370 . S
C175 H201 0.950 . S
C176 N171 1.307 . S
C176 C175 1.370 . S
C176 H194 0.948 . S
Zn177 N171 2.020 . S
Zn177 O186 2.039 . S
Zn177 O192 2.034 . S
Zn177 O196 2.025 . S
Zn177 O198 2.024 . S
C178 O197 1.246 . S
C178 O198 1.249 . S
N179 C180 1.307 . S
N179 C181 1.333 . S
N179 Zn185 2.020 . S
C180 N179 1.307 . S
C180 C184 1.370 . S
C180 H191 0.948 . S
C181 N179 1.333 . S
C181 C182 1.379 . S
C181 H189 0.952 . S
C182 C181 1.379 . S
C182 C183 1.390 . S
C182 H202 0.949 . S
C183 C182 1.390 . S
C183 C184 1.357 . S
C184 C180 1.370 . S
C184 C183 1.357 . S
C184 H203 0.950 . S
Zn185 N179 2.020 . S
Zn185 O188 2.025 . S
Zn185 O193 2.024 . S
Zn185 O195 2.039 . S
Zn185 O197 2.034 . S
O186 C170 1.251 . S
O186 Zn177 2.039 . S
C187 O192 1.246 . S
C187 O193 1.249 . S
O188 C170 1.254 . S
O188 Zn185 2.025 . S
H189 C181 0.952 . S
H190 C172 0.952 . S
H191 C180 0.948 . S
O192 Zn177 2.034 . S
O192 C187 1.246 . S
O193 Zn185 2.024 . S
O193 C187 1.249 . S
H194 C176 0.948 . S
O195 Zn185 2.039 . S
O195 C199 1.251 . S
O196 Zn177 2.025 . S
O196 C199 1.254 . S
O197 C178 1.246 . S
O197 Zn185 2.034 . S
O198 Zn177 2.024 . S
O198 C178 1.249 . S
C199 O195 1.251 . S
C199 O196 1.254 . S
H200 C173 0.949 . S
H201 C175 0.950 . S
H202 C182 0.949 . S
H203 C184 0.950 . S
C204 O220 1.251 . S
C204 O222 1.254 . S
N205 C206 1.333 . S
N205 C210 1.307 . S
N205 Zn211 2.020 . S
C206 N205 1.333 . S
C206 C207 1.379 . S
C206 H224 0.952 . S
C207 C206 1.379 . S
C207 C208 1.390 . S
C207 H234 0.949 . S
C208 C207 1.390 . S
C208 C209 1.357 . S
C209 C208 1.357 . S
C209 C210 1.370 . S
C209 H235 0.950 . S
C210 N205 1.307 . S
C210 C209 1.370 . S
C210 H228 0.948 . S
Zn211 N205 2.020 . S
Zn211 O220 2.039 . S
Zn211 O226 2.034 . S
Zn211 O230 2.025 . S
Zn211 O232 2.024 . S
C212 O231 1.246 . S
C212 O232 1.249 . S
N213 C214 1.307 . S
N213 C215 1.333 . S
N213 Zn219 2.020 . S
C214 N213 1.307 . S
C214 C218 1.370 . S
C214 H225 0.948 . S
C215 N213 1.333 . S
C215 C216 1.379 . S
C215 H223 0.952 . S
C216 C215 1.379 . S
C216 C217 1.390 . S
C216 H236 0.949 . S
C217 C216 1.390 . S
C217 C218 1.357 . S
C218 C214 1.370 . S
C218 C217 1.357 . S
C218 H237 0.950 . S
Zn219 N213 2.020 . S
Zn219 O222 2.025 . S
Zn219 O227 2.024 . S
Zn219 O229 2.039 . S
Zn219 O231 2.034 . S
O220 C204 1.251 . S
O220 Zn211 2.039 . S
C221 O226 1.246 . S
C221 O227 1.249 . S
O222 C204 1.254 . S
O222 Zn219 2.025 . S
H223 C215 0.952 . S
H224 C206 0.952 . S
H225 C214 0.948 . S
O226 Zn211 2.034 . S
O226 C221 1.246 . S
O227 Zn219 2.024 . S
O227 C221 1.249 . S
H228 C210 0.948 . S
O229 Zn219 2.039 . S
O229 C233 1.251 . S
O230 Zn211 2.025 . S
O230 C233 1.254 . S
O231 C212 1.246 . S
O231 Zn219 2.034 . S
O232 Zn211 2.024 . S
O232 C212 1.249 . S
C233 O229 1.251 . S
C233 O230 1.254 . S
H234 C207 0.949 . S
H235 C209 0.950 . S
H236 C216 0.949 . S
H237 C218 0.950 . S
C238 O254 1.251 . S
C238 O256 1.254 . S
N239 C240 1.333 . S
N239 C244 1.307 . S
N239 Zn245 2.020 . S
C240 N239 1.333 . S
C240 C241 1.379 . S
C240 H258 0.952 . S
C241 C240 1.379 . S
C241 C242 1.390 . S
C241 H268 0.949 . S
C242 C241 1.390 . S
C242 C243 1.357 . S
C243 C242 1.357 . S
C243 C244 1.370 . S
C243 H269 0.950 . S
C244 N239 1.307 . S
C244 C243 1.370 . S
C244 H262 0.948 . S
Zn245 N239 2.020 . S
Zn245 O254 2.039 . S
Zn245 O260 2.034 . S
Zn245 O264 2.025 . S
Zn245 O266 2.024 . S
C246 O265 1.246 . S
C246 O266 1.249 . S
N247 C248 1.307 1_455 S
N247 C249 1.333 . S
N247 Zn253 2.020 . S
C248 N247 1.307 1_655 S
C248 C252 1.370 . S
C248 H259 0.948 . S
C249 N247 1.333 . S
C249 C250 1.379 1_455 S
C249 H257 0.952 . S
C250 C249 1.379 1_655 S
C250 C251 1.390 . S
C250 H270 0.949 . S
C251 C250 1.390 . S
C251 C252 1.357 . S
C252 C248 1.370 . S
C252 C251 1.357 . S
C252 H271 0.950 . S
Zn253 N247 2.020 . S
Zn253 O256 2.025 . S
Zn253 O261 2.024 . S
Zn253 O263 2.039 . S
Zn253 O265 2.034 . S
O254 C238 1.251 . S
O254 Zn245 2.039 . S
C255 O260 1.246 . S
C255 O261 1.249 . S
O256 C238 1.254 . S
O256 Zn253 2.025 . S
H257 C249 0.952 . S
H258 C240 0.952 . S
H259 C248 0.948 . S
O260 Zn245 2.034 . S
O260 C255 1.246 . S
O261 Zn253 2.024 . S
O261 C255 1.249 . S
H262 C244 0.948 . S
O263 Zn253 2.039 . S
O263 C267 1.251 . S
O264 Zn245 2.025 . S
O264 C267 1.254 . S
O265 C246 1.246 . S
O265 Zn253 2.034 . S
O266 Zn245 2.024 . S
O266 C246 1.249 . S
C267 O263 1.251 . S
C267 O264 1.254 . S
H268 C241 0.949 . S
H269 C243 0.950 . S
H270 C250 0.949 . S
H271 C252 0.950 . S
C272 O288 1.251 . S
C272 O290 1.254 . S
N273 C274 1.333 . S
N273 C278 1.307 . S
N273 Zn279 2.020 . S
C274 N273 1.333 . S
C274 C275 1.379 . S
C274 H292 0.952 . S
C275 C274 1.379 . S
C275 C276 1.390 . S
C275 H302 0.949 . S
C276 C275 1.390 . S
C276 C277 1.357 . S
C277 C276 1.357 . S
C277 C278 1.370 . S
C277 H303 0.950 . S
C278 N273 1.307 . S
C278 C277 1.370 . S
C278 H296 0.948 . S
Zn279 N273 2.020 . S
Zn279 O288 2.039 . S
Zn279 O294 2.034 . S
Zn279 O298 2.025 . S
Zn279 O300 2.024 . S
C280 O299 1.246 . S
C280 O300 1.249 . S
N281 C282 1.307 . S
N281 C283 1.333 . S
N281 Zn287 2.020 . S
C282 N281 1.307 . S
C282 C286 1.370 . S
C282 H293 0.948 . S
C283 N281 1.333 . S
C283 C284 1.379 . S
C283 H291 0.952 . S
C284 C283 1.379 . S
C284 C285 1.390 . S
C284 H304 0.949 . S
C285 C284 1.390 . S
C285 C286 1.357 . S
C286 C282 1.370 . S
C286 C285 1.357 . S
C286 H305 0.950 . S
Zn287 N281 2.020 . S
Zn287 O290 2.025 . S
Zn287 O295 2.024 . S
Zn287 O297 2.039 . S
Zn287 O299 2.034 . S
O288 C272 1.251 . S
O288 Zn279 2.039 . S
C289 O294 1.246 . S
C289 O295 1.249 . S
O290 C272 1.254 . S
O290 Zn287 2.025 . S
H291 C283 0.952 . S
H292 C274 0.952 . S
H293 C282 0.948 . S
O294 Zn279 2.034 . S
O294 C289 1.246 . S
O295 Zn287 2.024 . S
O295 C289 1.249 . S
H296 C278 0.948 . S
O297 Zn287 2.039 . S
O297 C301 1.251 . S
O298 Zn279 2.025 . S
O298 C301 1.254 . S
O299 C280 1.246 . S
O299 Zn287 2.034 . S
O300 Zn279 2.024 . S
O300 C280 1.249 . S
C301 O297 1.251 . S
C301 O298 1.254 . S
H302 C275 0.949 . S
H303 C277 0.950 . S
H304 C284 0.949 . S
H305 C286 0.950 . S
C306 O322 1.251 . S
C306 O324 1.254 . S
N307 C308 1.333 . S
N307 C312 1.307 1_455 S
N307 Zn313 2.020 . S
C308 N307 1.333 . S
C308 C309 1.379 1_455 S
C308 H326 0.952 . S
C309 C308 1.379 1_655 S
C309 C310 1.390 1_545 S
C309 H336 0.949 . S
C310 C309 1.390 1_565 S
C310 C311 1.357 . S
C311 C310 1.357 . S
C311 C312 1.370 1_565 S
C311 H337 0.950 . S
C312 N307 1.307 1_655 S
C312 C311 1.370 1_545 S
C312 H330 0.948 1_545 S
Zn313 N307 2.020 . S
Zn313 O322 2.039 . S
Zn313 O328 2.034 . S
Zn313 O332 2.025 . S
Zn313 O334 2.024 . S
C314 O333 1.246 . S
C314 O334 1.249 . S
N315 C316 1.307 . S
N315 C317 1.333 . S
N315 Zn321 2.020 . S
C316 N315 1.307 . S
C316 C320 1.370 . S
C316 H327 0.948 . S
C317 N315 1.333 . S
C317 C318 1.379 . S
C317 H325 0.952 . S
C318 C317 1.379 . S
C318 C319 1.390 . S
C318 H338 0.949 . S
C319 C318 1.390 . S
C319 C320 1.357 . S
C320 C316 1.370 . S
C320 C319 1.357 . S
C320 H339 0.950 . S
Zn321 N315 2.020 . S
Zn321 O324 2.025 . S
Zn321 O329 2.024 . S
Zn321 O331 2.039 . S
Zn321 O333 2.034 . S
O322 C306 1.251 . S
O322 Zn313 2.039 . S
C323 O328 1.246 . S
C323 O329 1.249 . S
O324 C306 1.254 . S
O324 Zn321 2.025 . S
H325 C317 0.952 . S
H326 C308 0.952 . S
H327 C316 0.948 . S
O328 Zn313 2.034 . S
O328 C323 1.246 . S
O329 Zn321 2.024 . S
O329 C323 1.249 . S
H330 C312 0.948 1_565 S
O331 Zn321 2.039 . S
O331 C335 1.251 . S
O332 Zn313 2.025 . S
O332 C335 1.254 . S
O333 C314 1.246 . S
O333 Zn321 2.034 . S
O334 Zn313 2.024 . S
O334 C314 1.249 . S
C335 O331 1.251 . S
C335 O332 1.254 . S
H336 C309 0.949 . S
H337 C311 0.950 . S
H338 C318 0.949 . S
H339 C320 0.950 . S
C340 O356 1.251 . S
C340 O358 1.254 . S
N341 C342 1.333 . S
N341 C346 1.307 . S
N341 Zn347 2.020 . S
C342 N341 1.333 . S
C342 C343 1.379 . S
C342 H360 0.952 . S
C343 C342 1.379 . S
C343 C344 1.390 . S
C343 H370 0.949 . S
C344 C343 1.390 . S
C344 C345 1.357 . S
C345 C344 1.357 . S
C345 C346 1.370 . S
C345 H371 0.950 . S
C346 N341 1.307 . S
C346 C345 1.370 . S
C346 H364 0.948 . S
Zn347 N341 2.020 . S
Zn347 O356 2.039 . S
Zn347 O362 2.034 . S
Zn347 O366 2.025 . S
Zn347 O368 2.024 . S
C348 O367 1.246 . S
C348 O368 1.249 . S
N349 C350 1.307 . S
N349 C351 1.333 . S
N349 Zn355 2.020 . S
C350 N349 1.307 . S
C350 C354 1.370 . S
C350 H361 0.948 . S
C351 N349 1.333 . S
C351 C352 1.379 . S
C351 H359 0.952 . S
C352 C351 1.379 . S
C352 C353 1.390 . S
C352 H372 0.949 . S
C353 C352 1.390 . S
C353 C354 1.357 . S
C354 C350 1.370 . S
C354 C353 1.357 . S
C354 H373 0.950 . S
Zn355 N349 2.020 . S
Zn355 O358 2.025 . S
Zn355 O363 2.024 . S
Zn355 O365 2.039 . S
Zn355 O367 2.034 . S
O356 C340 1.251 . S
O356 Zn347 2.039 . S
C357 O362 1.246 . S
C357 O363 1.249 . S
O358 C340 1.254 . S
O358 Zn355 2.025 . S
H359 C351 0.952 . S
H360 C342 0.952 . S
H361 C350 0.948 . S
O362 Zn347 2.034 . S
O362 C357 1.246 . S
O363 Zn355 2.024 . S
O363 C357 1.249 . S
H364 C346 0.948 . S
O365 Zn355 2.039 . S
O365 C369 1.251 . S
O366 Zn347 2.025 . S
O366 C369 1.254 . S
O367 C348 1.246 . S
O367 Zn355 2.034 . S
O368 Zn347 2.024 . S
O368 C348 1.249 . S
C369 O365 1.251 . S
C369 O366 1.254 . S
H370 C343 0.949 . S
H371 C345 0.950 . S
H372 C352 0.949 . S
H373 C354 0.950 . S
C374 O390 1.251 . S
C374 O392 1.254 . S
N375 C376 1.333 . S
N375 C380 1.307 . S
N375 Zn381 2.020 . S
C376 N375 1.333 . S
C376 C377 1.379 . S
C376 H394 0.952 . S
C377 C376 1.379 . S
C377 C378 1.390 1_565 S
C377 H404 0.949 . S
C378 C377 1.390 1_545 S
C378 C379 1.357 . S
C379 C378 1.357 . S
C379 C380 1.370 1_545 S
C379 H405 0.950 . S
C380 N375 1.307 . S
C380 C379 1.370 1_565 S
C380 H398 0.948 1_565 S
Zn381 N375 2.020 . S
Zn381 O390 2.039 . S
Zn381 O396 2.034 . S
Zn381 O400 2.025 . S
Zn381 O402 2.024 . S
C382 O401 1.246 . S
C382 O402 1.249 . S
N383 C384 1.307 . S
N383 C385 1.333 . S
N383 Zn389 2.020 . S
C384 N383 1.307 . S
C384 C388 1.370 . S
C384 H395 0.948 . S
C385 N383 1.333 . S
C385 C386 1.379 . S
C385 H393 0.952 . S
C386 C385 1.379 . S
C386 C387 1.390 . S
C386 H406 0.949 . S
C387 C386 1.390 . S
C387 C388 1.357 . S
C388 C384 1.370 . S
C388 C387 1.357 . S
C388 H407 0.950 . S
Zn389 N383 2.020 . S
Zn389 O392 2.025 . S
Zn389 O397 2.024 . S
Zn389 O399 2.039 . S
Zn389 O401 2.034 . S
O390 C374 1.251 . S
O390 Zn381 2.039 . S
C391 O396 1.246 . S
C391 O397 1.249 . S
O392 C374 1.254 . S
O392 Zn389 2.025 . S
H393 C385 0.952 . S
H394 C376 0.952 . S
H395 C384 0.948 . S
O396 Zn381 2.034 . S
O396 C391 1.246 . S
O397 Zn389 2.024 . S
O397 C391 1.249 . S
H398 C380 0.948 1_545 S
O399 Zn389 2.039 . S
O399 C403 1.251 . S
O400 Zn381 2.025 . S
O400 C403 1.254 . S
O401 C382 1.246 . S
O401 Zn389 2.034 . S
O402 Zn381 2.024 . S
O402 C382 1.249 . S
C403 O399 1.251 . S
C403 O400 1.254 . S
H404 C377 0.949 . S
H405 C379 0.950 . S
H406 C386 0.949 . S
H407 C388 0.950 . S
C408 O424 1.251 . S
C408 O426 1.254 . S
N409 C410 1.333 . S
N409 C414 1.307 . S
N409 Zn415 2.020 . S
C410 N409 1.333 . S
C410 C411 1.379 . S
C410 H428 0.952 . S
C411 C410 1.379 . S
C411 C412 1.390 . S
C411 H438 0.949 . S
C412 C411 1.390 . S
C412 C413 1.357 . S
C413 C412 1.357 . S
C413 C414 1.370 . S
C413 H439 0.950 . S
C414 N409 1.307 . S
C414 C413 1.370 . S
C414 H432 0.948 . S
Zn415 N409 2.020 . S
Zn415 O424 2.039 . S
Zn415 O430 2.034 . S
Zn415 O434 2.025 . S
Zn415 O436 2.024 . S
C416 O435 1.246 . S
C416 O436 1.249 . S
N417 C418 1.307 . S
N417 C419 1.333 . S
N417 Zn423 2.020 . S
C418 N417 1.307 . S
C418 C422 1.370 . S
C418 H429 0.948 . S
C419 N417 1.333 . S
C419 C420 1.379 . S
C419 H427 0.952 . S
C420 C419 1.379 . S
C420 C421 1.390 . S
C420 H440 0.949 . S
C421 C420 1.390 . S
C421 C422 1.357 . S
C422 C418 1.370 . S
C422 C421 1.357 . S
C422 H441 0.950 . S
Zn423 N417 2.020 . S
Zn423 O426 2.025 . S
Zn423 O431 2.024 . S
Zn423 O433 2.039 . S
Zn423 O435 2.034 . S
O424 C408 1.251 . S
O424 Zn415 2.039 . S
C425 O430 1.246 . S
C425 O431 1.249 . S
O426 C408 1.254 . S
O426 Zn423 2.025 . S
H427 C419 0.952 . S
H428 C410 0.952 . S
H429 C418 0.948 . S
O430 Zn415 2.034 . S
O430 C425 1.246 . S
O431 Zn423 2.024 . S
O431 C425 1.249 . S
H432 C414 0.948 . S
O433 Zn423 2.039 . S
O433 C437 1.251 . S
O434 Zn415 2.025 . S
O434 C437 1.254 . S
O435 C416 1.246 . S
O435 Zn423 2.034 . S
O436 Zn415 2.024 . S
O436 C416 1.249 . S
C437 O433 1.251 . S
C437 O434 1.254 . S
H438 C411 0.949 . S
H439 C413 0.950 . S
H440 C420 0.949 . S
H441 C422 0.950 . S
C442 O458 1.251 . S
C442 O460 1.254 . S
N443 C444 1.333 . S
N443 C448 1.307 . S
N443 Zn449 2.020 . S
C444 N443 1.333 . S
C444 C445 1.379 . S
C444 H462 0.952 . S
C445 C444 1.379 . S
C445 C446 1.390 . S
C445 H472 0.949 . S
C446 C445 1.390 . S
C446 C447 1.357 . S
C447 C446 1.357 . S
C447 C448 1.370 . S
C447 H473 0.950 . S
C448 N443 1.307 . S
C448 C447 1.370 . S
C448 H466 0.948 . S
Zn449 N443 2.020 . S
Zn449 O458 2.039 . S
Zn449 O464 2.034 . S
Zn449 O468 2.025 . S
Zn449 O470 2.024 . S
C450 O469 1.246 . S
C450 O470 1.249 . S
N451 C452 1.307 1_655 S
N451 C453 1.333 . S
N451 Zn457 2.020 . S
C452 N451 1.307 1_455 S
C452 C456 1.370 1_565 S
C452 H463 0.948 1_565 S
C453 N451 1.333 . S
C453 C454 1.379 1_655 S
C453 H461 0.952 . S
C454 C453 1.379 1_455 S
C454 C455 1.390 1_565 S
C454 H474 0.949 . S
C455 C454 1.390 1_545 S
C455 C456 1.357 . S
C456 C452 1.370 1_545 S
C456 C455 1.357 . S
C456 H475 0.950 . S
Zn457 N451 2.020 . S
Zn457 O460 2.025 . S
Zn457 O465 2.024 . S
Zn457 O467 2.039 . S
Zn457 O469 2.034 . S
O458 C442 1.251 . S
O458 Zn449 2.039 . S
C459 O464 1.246 . S
C459 O465 1.249 . S
O460 C442 1.254 . S
O460 Zn457 2.025 . S
H461 C453 0.952 . S
H462 C444 0.952 . S
H463 C452 0.948 1_545 S
O464 Zn449 2.034 . S
O464 C459 1.246 . S
O465 Zn457 2.024 . S
O465 C459 1.249 . S
H466 C448 0.948 . S
O467 Zn457 2.039 . S
O467 C471 1.251 . S
O468 Zn449 2.025 . S
O468 C471 1.254 . S
O469 C450 1.246 . S
O469 Zn457 2.034 . S
O470 Zn449 2.024 . S
O470 C450 1.249 . S
C471 O467 1.251 . S
C471 O468 1.254 . S
H472 C445 0.949 . S
H473 C447 0.950 . S
H474 C454 0.949 . S
H475 C456 0.950 . S
C476 O492 1.251 . S
C476 O494 1.254 . S
N477 C478 1.333 . S
N477 C482 1.307 . S
N477 Zn483 2.020 . S
C478 N477 1.333 . S
C478 C479 1.379 . S
C478 H496 0.952 . S
C479 C478 1.379 . S
C479 C480 1.390 . S
C479 H506 0.949 . S
C480 C479 1.390 . S
C480 C481 1.357 . S
C481 C480 1.357 . S
C481 C482 1.370 . S
C481 H507 0.950 . S
C482 N477 1.307 . S
C482 C481 1.370 . S
C482 H500 0.948 . S
Zn483 N477 2.020 . S
Zn483 O492 2.039 . S
Zn483 O498 2.034 . S
Zn483 O502 2.025 . S
Zn483 O504 2.024 . S
C484 O503 1.246 . S
C484 O504 1.249 . S
N485 C486 1.307 . S
N485 C487 1.333 . S
N485 Zn491 2.020 . S
C486 N485 1.307 . S
C486 C490 1.370 . S
C486 H497 0.948 . S
C487 N485 1.333 . S
C487 C488 1.379 . S
C487 H495 0.952 . S
C488 C487 1.379 . S
C488 C489 1.390 . S
C488 H508 0.949 . S
C489 C488 1.390 . S
C489 C490 1.357 . S
C490 C486 1.370 . S
C490 C489 1.357 . S
C490 H509 0.950 . S
Zn491 N485 2.020 . S
Zn491 O494 2.025 . S
Zn491 O499 2.024 . S
Zn491 O501 2.039 . S
Zn491 O503 2.034 . S
O492 C476 1.251 . S
O492 Zn483 2.039 . S
C493 O498 1.246 . S
C493 O499 1.249 . S
O494 C476 1.254 . S
O494 Zn491 2.025 . S
H495 C487 0.952 . S
H496 C478 0.952 . S
H497 C486 0.948 . S
O498 Zn483 2.034 . S
O498 C493 1.246 . S
O499 Zn491 2.024 . S
O499 C493 1.249 . S
H500 C482 0.948 . S
O501 Zn491 2.039 . S
O501 C505 1.251 . S
O502 Zn483 2.025 . S
O502 C505 1.254 . S
O503 C484 1.246 . S
O503 Zn491 2.034 . S
O504 Zn483 2.024 . S
O504 C484 1.249 . S
C505 O501 1.251 . S
C505 O502 1.254 . S
H506 C479 0.949 . S
H507 C481 0.950 . S
H508 C488 0.949 . S
H509 C490 0.950 . S
C510 O526 1.251 . S
C510 O528 1.254 . S
N511 C512 1.333 . S
N511 C516 1.307 . S
N511 Zn517 2.020 . S
C512 N511 1.333 . S
C512 C513 1.379 . S
C512 H530 0.952 . S
C513 C512 1.379 . S
C513 C514 1.390 . S
C513 H540 0.949 . S
C514 C513 1.390 . S
C514 C515 1.357 . S
C515 C514 1.357 . S
C515 C516 1.370 . S
C515 H541 0.950 . S
C516 N511 1.307 . S
C516 C515 1.370 . S
C516 H534 0.948 . S
Zn517 N511 2.020 . S
Zn517 O526 2.039 . S
Zn517 O532 2.034 . S
Zn517 O536 2.025 . S
Zn517 O538 2.024 . S
C518 O537 1.246 . S
C518 O538 1.249 . S
N519 C520 1.307 . S
N519 C521 1.333 . S
N519 Zn525 2.020 . S
C520 N519 1.307 . S
C520 C524 1.370 1_545 S
C520 H531 0.948 1_545 S
C521 N519 1.333 . S
C521 C522 1.379 . S
C521 H529 0.952 . S
C522 C521 1.379 . S
C522 C523 1.390 1_545 S
C522 H542 0.949 . S
C523 C522 1.390 1_565 S
C523 C524 1.357 . S
C524 C520 1.370 1_565 S
C524 C523 1.357 . S
C524 H543 0.950 . S
Zn525 N519 2.020 . S
Zn525 O528 2.025 . S
Zn525 O533 2.024 . S
Zn525 O535 2.039 . S
Zn525 O537 2.034 . S
O526 C510 1.251 . S
O526 Zn517 2.039 . S
C527 O532 1.246 . S
C527 O533 1.249 . S
O528 C510 1.254 . S
O528 Zn525 2.025 . S
H529 C521 0.952 . S
H530 C512 0.952 . S
H531 C520 0.948 1_565 S
O532 Zn517 2.034 . S
O532 C527 1.246 . S
O533 Zn525 2.024 . S
O533 C527 1.249 . S
H534 C516 0.948 . S
O535 Zn525 2.039 . S
O535 C539 1.251 . S
O536 Zn517 2.025 . S
O536 C539 1.254 . S
O537 C518 1.246 . S
O537 Zn525 2.034 . S
O538 Zn517 2.024 . S
O538 C518 1.249 . S
C539 O535 1.251 . S
C539 O536 1.254 . S
H540 C513 0.949 . S
H541 C515 0.950 . S
H542 C522 0.949 . S
H543 C524 0.950 . S
C544 C545 1.391 . S
C544 C546 1.394 . S
C544 H560 0.931 . S
C545 C544 1.391 . S
C545 C549 1.376 . S
C546 C544 1.394 . S
C546 C547 1.369 . S
C546 C550 1.531 . S
C547 C546 1.369 . S
C547 C548 1.410 . S
C547 C555 1.503 . S
C548 C547 1.410 . S
C548 C549 1.392 . S
C548 C551 1.511 . S
C549 C545 1.376 . S
C549 C548 1.392 . S
C549 H561 0.929 . S
C550 C546 1.531 . S
C550 H562 0.960 . S
C550 H563 0.962 . S
C550 H564 0.960 . S
C551 C548 1.511 . S
C551 H565 0.961 . S
C551 H566 0.961 . S
C551 H567 0.961 . S
C552 C553 1.370 . S
C552 C554 1.363 . S
C552 H568 0.931 . S
C553 C552 1.370 . S
C553 C557 1.408 . S
C554 C552 1.363 . S
C554 C555 1.370 . S
C554 C558 1.524 . S
C555 C547 1.503 . S
C555 C554 1.370 . S
C555 C556 1.403 . S
C556 C555 1.403 . S
C556 C557 1.404 . S
C556 C559 1.539 . S
C557 C553 1.408 . S
C557 C556 1.404 . S
C557 H569 0.930 . S
C558 C554 1.524 . S
C558 H570 0.956 . S
C558 H571 0.961 . S
C558 H572 0.961 . S
C559 C556 1.539 . S
C559 H573 0.958 . S
C559 H574 0.961 . S
C559 H575 0.960 . S
H560 C544 0.931 . S
H561 C549 0.929 . S
H562 C550 0.960 . S
H563 C550 0.962 . S
H564 C550 0.960 . S
H565 C551 0.961 . S
H566 C551 0.961 . S
H567 C551 0.961 . S
H568 C552 0.931 . S
H569 C557 0.930 . S
H570 C558 0.956 . S
H571 C558 0.961 . S
H572 C558 0.961 . S
H573 C559 0.958 . S
H574 C559 0.961 . S
H575 C559 0.960 . S
C576 C577 1.391 . S
C576 C578 1.394 . S
C576 H592 0.931 . S
C577 C576 1.391 . S
C577 C581 1.376 . S
C578 C576 1.394 . S
C578 C579 1.369 . S
C578 C582 1.531 . S
C579 C578 1.369 . S
C579 C580 1.410 . S
C579 C587 1.503 . S
C580 C579 1.410 . S
C580 C581 1.392 . S
C580 C583 1.511 . S
C581 C577 1.376 . S
C581 C580 1.392 . S
C581 H593 0.929 . S
C582 C578 1.531 . S
C582 H594 0.960 . S
C582 H595 0.962 . S
C582 H596 0.960 . S
C583 C580 1.511 . S
C583 H597 0.961 . S
C583 H598 0.961 . S
C583 H599 0.961 . S
C584 C585 1.370 . S
C584 C586 1.363 . S
C584 H600 0.931 . S
C585 C584 1.370 . S
C585 C589 1.408 . S
C586 C584 1.363 . S
C586 C587 1.370 . S
C586 C590 1.524 . S
C587 C579 1.503 . S
C587 C586 1.370 . S
C587 C588 1.403 . S
C588 C587 1.403 . S
C588 C589 1.404 . S
C588 C591 1.539 . S
C589 C585 1.408 . S
C589 C588 1.404 . S
C589 H601 0.930 . S
C590 C586 1.524 . S
C590 H602 0.956 . S
C590 H603 0.961 . S
C590 H604 0.961 . S
C591 C588 1.539 . S
C591 H605 0.958 . S
C591 H606 0.961 . S
C591 H607 0.960 . S
H592 C576 0.931 . S
H593 C581 0.929 . S
H594 C582 0.960 . S
H595 C582 0.962 . S
H596 C582 0.960 . S
H597 C583 0.961 . S
H598 C583 0.961 . S
H599 C583 0.961 . S
H600 C584 0.931 . S
H601 C589 0.930 . S
H602 C590 0.956 . S
H603 C590 0.961 . S
H604 C590 0.961 . S
H605 C591 0.958 . S
H606 C591 0.961 . S
H607 C591 0.960 . S
C608 C609 1.391 . S
C608 C610 1.394 . S
C608 H624 0.931 . S
C609 C608 1.391 . S
C609 C613 1.376 . S
C610 C608 1.394 . S
C610 C611 1.369 . S
C610 C614 1.531 . S
C611 C610 1.369 . S
C611 C612 1.410 . S
C611 C619 1.503 . S
C612 C611 1.410 . S
C612 C613 1.392 . S
C612 C615 1.511 . S
C613 C609 1.376 . S
C613 C612 1.392 . S
C613 H625 0.929 . S
C614 C610 1.531 . S
C614 H626 0.960 . S
C614 H627 0.962 . S
C614 H628 0.960 . S
C615 C612 1.511 . S
C615 H629 0.961 . S
C615 H630 0.961 . S
C615 H631 0.961 . S
C616 C617 1.370 . S
C616 C618 1.363 . S
C616 H632 0.931 . S
C617 C616 1.370 . S
C617 C621 1.408 . S
C618 C616 1.363 . S
C618 C619 1.370 . S
C618 C622 1.524 . S
C619 C611 1.503 . S
C619 C618 1.370 . S
C619 C620 1.403 . S
C620 C619 1.403 . S
C620 C621 1.404 . S
C620 C623 1.539 . S
C621 C617 1.408 . S
C621 C620 1.404 . S
C621 H633 0.930 . S
C622 C618 1.524 . S
C622 H634 0.956 . S
C622 H635 0.961 . S
C622 H636 0.961 . S
C623 C620 1.539 . S
C623 H637 0.958 . S
C623 H638 0.961 . S
C623 H639 0.960 . S
H624 C608 0.931 . S
H625 C613 0.929 . S
H626 C614 0.960 . S
H627 C614 0.962 . S
H628 C614 0.960 . S
H629 C615 0.961 . S
H630 C615 0.961 . S
H631 C615 0.961 . S
H632 C616 0.931 . S
H633 C621 0.930 . S
H634 C622 0.956 . S
H635 C622 0.961 . S
H636 C622 0.961 . S
H637 C623 0.958 . S
H638 C623 0.961 . S
H639 C623 0.960 . S
C640 C641 1.391 . S
C640 C642 1.394 . S
C640 H656 0.931 . S
C641 C640 1.391 . S
C641 C645 1.376 . S
C642 C640 1.394 . S
C642 C643 1.369 . S
C642 C646 1.531 . S
C643 C642 1.369 . S
C643 C644 1.410 . S
C643 C651 1.503 1_656 S
C644 C643 1.410 . S
C644 C645 1.392 . S
C644 C647 1.511 1_656 S
C645 C641 1.376 . S
C645 C644 1.392 . S
C645 H657 0.929 . S
C646 C642 1.531 . S
C646 H658 0.960 . S
C646 H659 0.962 . S
C646 H660 0.960 . S
C647 C644 1.511 1_454 S
C647 H661 0.961 . S
C647 H662 0.961 . S
C647 H663 0.961 1_455 S
C648 C649 1.370 . S
C648 C650 1.363 . S
C648 H664 0.931 . S
C649 C648 1.370 . S
C649 C653 1.408 . S
C650 C648 1.363 . S
C650 C651 1.370 . S
C650 C654 1.524 1_554 S
C651 C643 1.503 1_454 S
C651 C650 1.370 . S
C651 C652 1.403 1_455 S
C652 C651 1.403 1_655 S
C652 C653 1.404 1_655 S
C652 C655 1.539 . S
C653 C649 1.408 . S
C653 C652 1.404 1_455 S
C653 H665 0.930 1_455 S
C654 C650 1.524 1_556 S
C654 H666 0.956 . S
C654 H667 0.961 . S
C654 H668 0.961 . S
C655 C652 1.539 . S
C655 H669 0.958 . S
C655 H670 0.961 . S
C655 H671 0.960 . S
H656 C640 0.931 . S
H657 C645 0.929 . S
H658 C646 0.960 . S
H659 C646 0.962 . S
H660 C646 0.960 . S
H661 C647 0.961 . S
H662 C647 0.961 . S
H663 C647 0.961 1_655 S
H664 C648 0.931 . S
H665 C653 0.930 1_655 S
H666 C654 0.956 . S
H667 C654 0.961 . S
H668 C654 0.961 . S
H669 C655 0.958 . S
H670 C655 0.961 . S
H671 C655 0.960 . S
C672 C673 1.391 . S
C672 C674 1.394 . S
C672 H688 0.931 . S
C673 C672 1.391 . S
C673 C677 1.376 . S
C674 C672 1.394 . S
C674 C675 1.369 . S
C674 C678 1.531 . S
C675 C674 1.369 . S
C675 C676 1.410 . S
C675 C683 1.503 . S
C676 C675 1.410 . S
C676 C677 1.392 . S
C676 C679 1.511 . S
C677 C673 1.376 . S
C677 C676 1.392 . S
C677 H689 0.929 . S
C678 C674 1.531 . S
C678 H690 0.960 . S
C678 H691 0.962 . S
C678 H692 0.960 . S
C679 C676 1.511 . S
C679 H693 0.961 . S
C679 H694 0.961 . S
C679 H695 0.961 . S
C680 C681 1.370 . S
C680 C682 1.363 . S
C680 H696 0.931 . S
C681 C680 1.370 . S
C681 C685 1.408 . S
C682 C680 1.363 . S
C682 C683 1.370 . S
C682 C686 1.524 . S
C683 C675 1.503 . S
C683 C682 1.370 . S
C683 C684 1.403 . S
C684 C683 1.403 . S
C684 C685 1.404 . S
C684 C687 1.539 . S
C685 C681 1.408 . S
C685 C684 1.404 . S
C685 H697 0.930 . S
C686 C682 1.524 . S
C686 H698 0.956 . S
C686 H699 0.961 . S
C686 H700 0.961 . S
C687 C684 1.539 . S
C687 H701 0.958 . S
C687 H702 0.961 . S
C687 H703 0.960 . S
H688 C672 0.931 . S
H689 C677 0.929 . S
H690 C678 0.960 . S
H691 C678 0.962 . S
H692 C678 0.960 . S
H693 C679 0.961 . S
H694 C679 0.961 . S
H695 C679 0.961 . S
H696 C680 0.931 . S
H697 C685 0.930 . S
H698 C686 0.956 . S
H699 C686 0.961 . S
H700 C686 0.961 . S
H701 C687 0.958 . S
H702 C687 0.961 . S
H703 C687 0.960 . S
C704 C705 1.391 . S
C704 C706 1.394 . S
C704 H720 0.931 . S
C705 C704 1.391 . S
C705 C709 1.376 . S
C706 C704 1.394 . S
C706 C707 1.369 . S
C706 C710 1.531 . S
C707 C706 1.369 . S
C707 C708 1.410 . S
C707 C715 1.503 . S
C708 C707 1.410 . S
C708 C709 1.392 . S
C708 C711 1.511 . S
C709 C705 1.376 . S
C709 C708 1.392 . S
C709 H721 0.929 . S
C710 C706 1.531 . S
C710 H722 0.960 . S
C710 H723 0.962 . S
C710 H724 0.960 . S
C711 C708 1.511 . S
C711 H725 0.961 . S
C711 H726 0.961 . S
C711 H727 0.961 . S
C712 C713 1.370 . S
C712 C714 1.363 . S
C712 H728 0.931 . S
C713 C712 1.370 . S
C713 C717 1.408 . S
C714 C712 1.363 . S
C714 C715 1.370 . S
C714 C718 1.524 . S
C715 C707 1.503 . S
C715 C714 1.370 . S
C715 C716 1.403 . S
C716 C715 1.403 . S
C716 C717 1.404 . S
C716 C719 1.539 . S
C717 C713 1.408 . S
C717 C716 1.404 . S
C717 H729 0.930 . S
C718 C714 1.524 . S
C718 H730 0.956 . S
C718 H731 0.961 . S
C718 H732 0.961 . S
C719 C716 1.539 . S
C719 H733 0.958 . S
C719 H734 0.961 . S
C719 H735 0.960 . S
H720 C704 0.931 . S
H721 C709 0.929 . S
H722 C710 0.960 . S
H723 C710 0.962 . S
H724 C710 0.960 . S
H725 C711 0.961 . S
H726 C711 0.961 . S
H727 C711 0.961 . S
H728 C712 0.931 . S
H729 C717 0.930 . S
H730 C718 0.956 . S
H731 C718 0.961 . S
H732 C718 0.961 . S
H733 C719 0.958 . S
H734 C719 0.961 . S
H735 C719 0.960 . S
C736 C737 1.391 . S
C736 C738 1.394 1_655 S
C736 H752 0.931 1_655 S
C737 C736 1.391 . S
C737 C741 1.376 . S
C738 C736 1.394 1_455 S
C738 C739 1.369 1_455 S
C738 C742 1.531 . S
C739 C738 1.369 1_655 S
C739 C740 1.410 . S
C739 C747 1.503 1_664 S
C740 C739 1.410 . S
C740 C741 1.392 . S
C740 C743 1.511 1_554 S
C741 C737 1.376 . S
C741 C740 1.392 . S
C741 H753 0.929 . S
C742 C738 1.531 . S
C742 H754 0.960 . S
C742 H755 0.962 . S
C742 H756 0.960 . S
C743 C740 1.511 1_556 S
C743 H757 0.961 . S
C743 H758 0.961 1_565 S
C743 H759 0.961 . S
C744 C745 1.370 . S
C744 C746 1.363 . S
C744 H760 0.931 . S
C745 C744 1.370 . S
C745 C749 1.408 . S
C746 C744 1.363 . S
C746 C747 1.370 . S
C746 C750 1.524 1_456 S
C747 C739 1.503 1_446 S
C747 C746 1.370 . S
C747 C748 1.403 1_545 S
C748 C747 1.403 1_565 S
C748 C749 1.404 1_565 S
C748 C751 1.539 . S
C749 C745 1.408 . S
C749 C748 1.404 1_545 S
C749 H761 0.930 . S
C750 C746 1.524 1_654 S
C750 H762 0.956 1_655 S
C750 H763 0.961 . S
C750 H764 0.961 1_655 S
C751 C748 1.539 . S
C751 H765 0.958 . S
C751 H766 0.961 . S
C751 H767 0.960 1_455 S
H752 C736 0.931 1_455 S
H753 C741 0.929 . S
H754 C742 0.960 . S
H755 C742 0.962 . S
H756 C742 0.960 . S
H757 C743 0.961 . S
H758 C743 0.961 1_545 S
H759 C743 0.961 . S
H760 C744 0.931 . S
H761 C749 0.930 . S
H762 C750 0.956 1_455 S
H763 C750 0.961 . S
H764 C750 0.961 1_455 S
H765 C751 0.958 . S
H766 C751 0.961 . S
H767 C751 0.960 1_655 S
C768 C769 1.391 . S
C768 C770 1.394 . S
C768 H784 0.931 . S
C769 C768 1.391 . S
C769 C773 1.376 . S
C770 C768 1.394 . S
C770 C771 1.369 . S
C770 C774 1.531 . S
C771 C770 1.369 . S
C771 C772 1.410 . S
C771 C779 1.503 1_565 S
C772 C771 1.410 . S
C772 C773 1.392 . S
C772 C775 1.511 . S
C773 C769 1.376 . S
C773 C772 1.392 . S
C773 H785 0.929 . S
C774 C770 1.531 . S
C774 H786 0.960 . S
C774 H787 0.962 1_565 S
C774 H788 0.960 . S
C775 C772 1.511 . S
C775 H789 0.961 . S
C775 H790 0.961 1_565 S
C775 H791 0.961 . S
C776 C777 1.370 . S
C776 C778 1.363 . S
C776 H792 0.931 . S
C777 C776 1.370 . S
C777 C781 1.408 . S
C778 C776 1.363 . S
C778 C779 1.370 . S
C778 C782 1.524 . S
C779 C771 1.503 1_545 S
C779 C778 1.370 . S
C779 C780 1.403 1_545 S
C780 C779 1.403 1_565 S
C780 C781 1.404 1_565 S
C780 C783 1.539 . S
C781 C777 1.408 . S
C781 C780 1.404 1_545 S
C781 H793 0.942 . S
C782 C778 1.524 . S
C782 H794 0.956 . S
C782 H795 0.961 . S
C782 H796 0.961 . S
C783 C780 1.539 . S
C783 H797 0.958 . S
C783 H798 0.961 . S
C783 H799 0.960 . S
H784 C768 0.931 . S
H785 C773 0.929 . S
H786 C774 0.960 . S
H787 C774 0.962 1_545 S
H788 C774 0.960 . S
H789 C775 0.961 . S
H790 C775 0.961 1_545 S
H791 C775 0.961 . S
H792 C776 0.931 . S
H793 C781 0.942 . S
H794 C782 0.956 . S
H795 C782 0.961 . S
H796 C782 0.961 . S
H797 C783 0.958 . S
H798 C783 0.961 . S
H799 C783 0.960 . S
C800 C801 1.391 . S
C800 C802 1.394 . S
C800 H816 0.931 . S
C801 C800 1.391 . S
C801 C805 1.376 . S
C802 C800 1.394 . S
C802 C803 1.369 1_556 S
C802 C806 1.531 1_556 S
C803 C802 1.369 1_554 S
C803 C804 1.425 . S
C803 C811 1.503 . S
C804 C803 1.425 . S
C804 C805 1.347 1_554 S
C804 C807 1.541 . S
C805 C801 1.376 . S
C805 C804 1.347 1_556 S
C805 H817 0.929 . S
C806 C802 1.531 1_554 S
C806 H818 0.960 . S
C806 H819 0.959 1_554 S
C806 H820 0.960 1_554 S
C807 C804 1.541 . S
C807 H821 0.961 . S
C807 H822 0.961 . S
C807 H823 0.961 . S
C808 C809 1.370 . S
C808 C810 1.363 . S
C808 H824 0.931 . S
C809 C808 1.370 . S
C809 C813 1.408 . S
C810 C808 1.363 . S
C810 C811 1.370 . S
C810 C814 1.524 . S
C811 C803 1.503 . S
C811 C810 1.370 . S
C811 C812 1.403 . S
C812 C811 1.403 . S
C812 C813 1.404 . S
C812 C815 1.539 . S
C813 C809 1.408 . S
C813 C812 1.404 . S
C813 H825 0.930 . S
C814 C810 1.524 . S
C814 H826 0.956 . S
C814 H827 0.961 . S
C814 H828 0.961 . S
C815 C812 1.539 . S
C815 H829 0.958 . S
C815 H830 0.961 . S
C815 H831 0.960 . S
H816 C800 0.931 . S
H817 C805 0.929 . S
H818 C806 0.960 . S
H819 C806 0.959 1_556 S
H820 C806 0.960 1_556 S
H821 C807 0.961 . S
H822 C807 0.961 . S
H823 C807 0.961 . S
H824 C808 0.931 . S
H825 C813 0.930 . S
H826 C814 0.956 . S
H827 C814 0.961 . S
H828 C814 0.961 . S
H829 C815 0.958 . S
H830 C815 0.961 . S
H831 C815 0.960 . S
C832 C833 1.391 . S
C832 C834 1.394 . S
C832 H848 0.931 . S
C833 C832 1.391 . S
C833 C837 1.376 . S
C834 C832 1.394 . S
C834 C835 1.369 . S
C834 C838 1.531 . S
C835 C834 1.369 . S
C835 C836 1.410 . S
C835 C843 1.503 . S
C836 C835 1.410 . S
C836 C837 1.392 . S
C836 C839 1.511 . S
C837 C833 1.376 . S
C837 C836 1.392 . S
C837 H849 0.929 . S
C838 C834 1.531 . S
C838 H850 0.960 . S
C838 H851 0.962 . S
C838 H852 0.960 . S
C839 C836 1.511 . S
C839 H853 0.961 . S
C839 H854 0.961 . S
C839 H855 0.961 . S
C840 C841 1.370 . S
C840 C842 1.363 . S
C840 H856 0.931 . S
C841 C840 1.370 . S
C841 C845 1.408 . S
C842 C840 1.363 . S
C842 C843 1.370 . S
C842 C846 1.524 . S
C843 C835 1.503 . S
C843 C842 1.370 . S
C843 C844 1.403 . S
C844 C843 1.403 . S
C844 C845 1.404 . S
C844 C847 1.539 . S
C845 C841 1.408 . S
C845 C844 1.404 . S
C845 H857 0.930 . S
C846 C842 1.524 . S
C846 H858 0.956 . S
C846 H859 0.961 . S
C846 H860 0.961 . S
C847 C844 1.539 . S
C847 H861 0.958 . S
C847 H862 0.961 . S
C847 H863 0.960 . S
H848 C832 0.931 . S
H849 C837 0.929 . S
H850 C838 0.960 . S
H851 C838 0.962 . S
H852 C838 0.960 . S
H853 C839 0.961 . S
H854 C839 0.961 . S
H855 C839 0.961 . S
H856 C840 0.931 . S
H857 C845 0.930 . S
H858 C846 0.956 . S
H859 C846 0.961 . S
H860 C846 0.961 . S
H861 C847 0.958 . S
H862 C847 0.961 . S
H863 C847 0.960 . S
C864 C865 1.391 . S
C864 C866 1.394 . S
C864 H880 0.931 . S
C865 C864 1.391 . S
C865 C869 1.376 . S
C866 C864 1.394 . S
C866 C867 1.369 . S
C866 C870 1.531 . S
C867 C866 1.369 . S
C867 C868 1.410 . S
C867 C875 1.503 . S
C868 C867 1.410 . S
C868 C869 1.392 . S
C868 C871 1.511 . S
C869 C865 1.376 . S
C869 C868 1.392 . S
C869 H881 0.929 . S
C870 C866 1.531 . S
C870 H882 0.960 . S
C870 H883 0.962 . S
C870 H884 0.960 . S
C871 C868 1.511 . S
C871 H885 0.961 . S
C871 H886 0.961 . S
C871 H887 0.961 . S
C872 C873 1.370 . S
C872 C874 1.363 . S
C872 H888 0.931 . S
C873 C872 1.370 . S
C873 C877 1.408 . S
C874 C872 1.363 . S
C874 C875 1.370 . S
C874 C878 1.524 . S
C875 C867 1.503 . S
C875 C874 1.370 . S
C875 C876 1.403 . S
C876 C875 1.403 . S
C876 C877 1.404 . S
C876 C879 1.539 . S
C877 C873 1.408 . S
C877 C876 1.404 . S
C877 H889 0.930 . S
C878 C874 1.524 . S
C878 H890 0.956 . S
C878 H891 0.961 . S
C878 H892 0.961 . S
C879 C876 1.539 . S
C879 H893 0.958 . S
C879 H894 0.961 . S
C879 H895 0.960 . S
H880 C864 0.931 . S
H881 C869 0.929 . S
H882 C870 0.960 . S
H883 C870 0.962 . S
H884 C870 0.960 . S
H885 C871 0.961 . S
H886 C871 0.961 . S
H887 C871 0.961 . S
H888 C872 0.931 . S
H889 C877 0.930 . S
H890 C878 0.956 . S
H891 C878 0.961 . S
H892 C878 0.961 . S
H893 C879 0.958 . S
H894 C879 0.961 . S
H895 C879 0.960 . S
C896 C897 1.391 . S
C896 C898 1.394 . S
C896 H912 0.931 . S
C897 C896 1.391 . S
C897 C901 1.376 . S
C898 C896 1.394 . S
C898 C899 1.369 . S
C898 C902 1.531 . S
C899 C898 1.369 . S
C899 C900 1.410 . S
C899 C907 1.503 . S
C900 C899 1.410 . S
C900 C901 1.392 . S
C900 C903 1.511 . S
C901 C897 1.376 . S
C901 C900 1.392 . S
C901 H913 0.929 . S
C902 C898 1.531 . S
C902 H914 0.960 . S
C902 H915 0.962 . S
C902 H916 0.960 . S
C903 C900 1.511 . S
C903 H917 0.961 . S
C903 H918 0.961 . S
C903 H919 0.961 . S
C904 C905 1.370 . S
C904 C906 1.363 . S
C904 H920 0.931 . S
C905 C904 1.370 . S
C905 C909 1.408 . S
C906 C904 1.363 . S
C906 C907 1.370 . S
C906 C910 1.524 . S
C907 C899 1.503 . S
C907 C906 1.370 . S
C907 C908 1.403 . S
C908 C907 1.403 . S
C908 C909 1.404 . S
C908 C911 1.539 . S
C909 C905 1.408 . S
C909 C908 1.404 . S
C909 H921 0.930 . S
C910 C906 1.524 . S
C910 H922 0.956 . S
C910 H923 0.961 . S
C910 H924 0.961 . S
C911 C908 1.539 . S
C911 H925 0.958 . S
C911 H926 0.961 . S
C911 H927 0.960 . S
H912 C896 0.931 . S
H913 C901 0.929 . S
H914 C902 0.960 . S
H915 C902 0.962 . S
H916 C902 0.960 . S
H917 C903 0.961 . S
H918 C903 0.961 . S
H919 C903 0.961 . S
H920 C904 0.931 . S
H921 C909 0.930 . S
H922 C910 0.956 . S
H923 C910 0.961 . S
H924 C910 0.961 . S
H925 C911 0.958 . S
H926 C911 0.961 . S
H927 C911 0.960 . S
C928 C929 1.391 . S
C928 C930 1.436 . S
C928 H944 0.931 . S
C929 C928 1.391 . S
C929 C933 1.376 . S
C930 C928 1.436 . S
C930 C931 1.357 1_554 S
C930 C934 1.501 1_554 S
C931 C930 1.357 1_556 S
C931 C932 1.410 1_556 S
C931 C939 1.503 . S
C932 C931 1.410 1_554 S
C932 C933 1.392 . S
C932 C935 1.511 . S
C933 C929 1.376 . S
C933 C932 1.392 . S
C933 H945 0.929 . S
C934 C930 1.501 1_556 S
C934 H946 0.960 . S
C934 H947 0.962 . S
C934 H948 0.960 . S
C935 C932 1.511 . S
C935 H949 0.961 . S
C935 H950 0.961 1_554 S
C935 H951 0.961 . S
C936 C937 1.370 . S
C936 C938 1.363 . S
C936 H952 0.931 . S
C937 C936 1.370 . S
C937 C941 1.408 . S
C938 C936 1.363 . S
C938 C939 1.370 . S
C938 C942 1.524 . S
C939 C931 1.503 . S
C939 C938 1.370 . S
C939 C940 1.403 . S
C940 C939 1.403 . S
C940 C941 1.404 . S
C940 C943 1.539 . S
C941 C937 1.408 . S
C941 C940 1.404 . S
C941 H953 0.930 . S
C942 C938 1.524 . S
C942 H954 0.956 . S
C942 H955 0.961 . S
C942 H956 0.961 . S
C943 C940 1.539 . S
C943 H957 0.958 . S
C943 H958 0.961 . S
C943 H959 0.960 . S
H944 C928 0.931 . S
H945 C933 0.929 . S
H946 C934 0.960 . S
H947 C934 0.962 . S
H948 C934 0.960 . S
H949 C935 0.961 . S
H950 C935 0.961 1_556 S
H951 C935 0.961 . S
H952 C936 0.931 . S
H953 C941 0.930 . S
H954 C942 0.956 . S
H955 C942 0.961 . S
H956 C942 0.961 . S
H957 C943 0.958 . S
H958 C943 0.961 . S
H959 C943 0.960 . S
C960 C961 1.391 . S
C960 C962 1.394 . S
C960 H976 0.931 . S
C961 C960 1.391 . S
C961 C965 1.376 . S
C962 C960 1.394 . S
C962 C963 1.369 . S
C962 C966 1.531 . S
C963 C962 1.369 . S
C963 C964 1.410 . S
C963 C971 1.503 . S
C964 C963 1.410 . S
C964 C965 1.392 . S
C964 C967 1.511 . S
C965 C961 1.376 . S
C965 C964 1.392 . S
C965 H977 0.929 . S
C966 C962 1.531 . S
C966 H978 0.960 . S
C966 H979 0.962 . S
C966 H980 0.960 . S
C967 C964 1.511 . S
C967 H981 0.961 . S
C967 H982 0.961 . S
C967 H983 0.961 . S
C968 C969 1.370 . S
C968 C970 1.363 . S
C968 H984 0.931 . S
C969 C968 1.370 . S
C969 C973 1.408 . S
C970 C968 1.363 . S
C970 C971 1.370 . S
C970 C974 1.524 . S
C971 C963 1.503 . S
C971 C970 1.370 . S
C971 C972 1.403 . S
C972 C971 1.403 . S
C972 C973 1.404 . S
C972 C975 1.539 . S
C973 C969 1.408 . S
C973 C972 1.404 . S
C973 H985 0.930 . S
C974 C970 1.524 . S
C974 H986 0.956 . S
C974 H987 0.961 . S
C974 H988 0.961 . S
C975 C972 1.539 . S
C975 H989 0.958 . S
C975 H990 0.961 . S
C975 H991 0.960 . S
H976 C960 0.931 . S
H977 C965 0.929 . S
H978 C966 0.960 . S
H979 C966 0.962 . S
H980 C966 0.960 . S
H981 C967 0.961 . S
H982 C967 0.961 . S
H983 C967 0.961 . S
H984 C968 0.931 . S
H985 C973 0.930 . S
H986 C974 0.956 . S
H987 C974 0.961 . S
H988 C974 0.961 . S
H989 C975 0.958 . S
H990 C975 0.961 . S
H991 C975 0.960 . S
C992 C993 1.391 . S
C992 C994 1.394 . S
C992 H1008 0.931 . S
C993 C992 1.391 . S
C993 C997 1.376 . S
C994 C992 1.394 . S
C994 C995 1.369 . S
C994 C998 1.531 . S
C995 C994 1.369 . S
C995 C996 1.410 . S
C995 C1003 1.503 . S
C996 C995 1.410 . S
C996 C997 1.392 . S
C996 C999 1.511 . S
C997 C993 1.376 . S
C997 C996 1.392 . S
C997 H1009 0.929 . S
C998 C994 1.531 . S
C998 H1010 0.960 . S
C998 H1011 0.962 . S
C998 H1012 0.960 . S
C999 C996 1.511 . S
C999 H1013 0.961 . S
C999 H1014 0.961 . S
C999 H1015 0.961 . S
C1000 C1001 1.370 . S
C1000 C1002 1.363 . S
C1000 H1016 0.931 . S
C1001 C1000 1.370 . S
C1001 C1005 1.408 . S
C1002 C1000 1.363 . S
C1002 C1003 1.370 . S
C1002 C1006 1.524 . S
C1003 C995 1.503 . S
C1003 C1002 1.370 . S
C1003 C1004 1.403 . S
C1004 C1003 1.403 . S
C1004 C1005 1.404 . S
C1004 C1007 1.539 . S
C1005 C1001 1.408 . S
C1005 C1004 1.404 . S
C1005 H1017 0.930 . S
C1006 C1002 1.524 . S
C1006 H1018 0.956 . S
C1006 H1019 0.961 . S
C1006 H1020 0.961 . S
C1007 C1004 1.539 . S
C1007 H1021 0.958 . S
C1007 H1022 0.961 . S
C1007 H1023 0.960 . S
H1008 C992 0.931 . S
H1009 C997 0.929 . S
H1010 C998 0.960 . S
H1011 C998 0.962 . S
H1012 C998 0.960 . S
H1013 C999 0.961 . S
H1014 C999 0.961 . S
H1015 C999 0.961 . S
H1016 C1000 0.931 . S
H1017 C1005 0.930 . S
H1018 C1006 0.956 . S
H1019 C1006 0.961 . S
H1020 C1006 0.961 . S
H1021 C1007 0.958 . S
H1022 C1007 0.961 . S
H1023 C1007 0.960 . S
C1024 C1025 1.391 . S
C1024 C1026 1.394 . S
C1024 H1040 0.931 . S
C1025 C1024 1.391 . S
C1025 C1029 1.376 . S
C1026 C1024 1.394 . S
C1026 C1027 1.369 . S
C1026 C1030 1.531 . S
C1027 C1026 1.369 . S
C1027 C1028 1.410 . S
C1027 C1035 1.503 . S
C1028 C1027 1.410 . S
C1028 C1029 1.392 . S
C1028 C1031 1.511 . S
C1029 C1025 1.376 . S
C1029 C1028 1.392 . S
C1029 H1041 0.929 . S
C1030 C1026 1.531 . S
C1030 H1042 0.960 . S
C1030 H1043 0.962 . S
C1030 H1044 0.960 . S
C1031 C1028 1.511 . S
C1031 H1045 0.961 . S
C1031 H1046 0.961 . S
C1031 H1047 0.961 . S
C1032 C1033 1.370 . S
C1032 C1034 1.363 . S
C1032 H1048 0.931 . S
C1033 C1032 1.370 . S
C1033 C1037 1.408 . S
C1034 C1032 1.363 . S
C1034 C1035 1.370 . S
C1034 C1038 1.524 . S
C1035 C1027 1.503 . S
C1035 C1034 1.370 . S
C1035 C1036 1.403 . S
C1036 C1035 1.403 . S
C1036 C1037 1.404 . S
C1036 C1039 1.539 . S
C1037 C1033 1.408 . S
C1037 C1036 1.404 . S
C1037 H1049 0.930 . S
C1038 C1034 1.524 . S
C1038 H1050 0.956 . S
C1038 H1051 0.961 . S
C1038 H1052 0.961 . S
C1039 C1036 1.539 . S
C1039 H1053 0.958 . S
C1039 H1054 0.961 . S
C1039 H1055 0.960 . S
H1040 C1024 0.931 . S
H1041 C1029 0.929 . S
H1042 C1030 0.960 . S
H1043 C1030 0.962 . S
H1044 C1030 0.960 . S
H1045 C1031 0.961 . S
H1046 C1031 0.961 . S
H1047 C1031 0.961 . S
H1048 C1032 0.931 . S
H1049 C1037 0.930 . S
H1050 C1038 0.956 . S
H1051 C1038 0.961 . S
H1052 C1038 0.961 . S
H1053 C1039 0.958 . S
H1054 C1039 0.961 . S
H1055 C1039 0.960 . S
C1056 C1057 1.391 . S
C1056 C1058 1.394 . S
C1056 H1072 0.931 . S
C1057 C1056 1.391 . S
C1057 C1061 1.376 . S
C1058 C1056 1.394 . S
C1058 C1059 1.369 . S
C1058 C1062 1.531 . S
C1059 C1058 1.369 . S
C1059 C1060 1.410 . S
C1059 C1067 1.503 . S
C1060 C1059 1.410 . S
C1060 C1061 1.392 . S
C1060 C1063 1.511 . S
C1061 C1057 1.376 . S
C1061 C1060 1.392 . S
C1061 H1073 0.929 . S
C1062 C1058 1.531 . S
C1062 H1074 0.960 . S
C1062 H1075 0.962 . S
C1062 H1076 0.960 . S
C1063 C1060 1.511 . S
C1063 H1077 0.961 . S
C1063 H1078 0.961 . S
C1063 H1079 0.961 . S
C1064 C1065 1.370 . S
C1064 C1066 1.363 . S
C1064 H1080 0.931 . S
C1065 C1064 1.370 . S
C1065 C1069 1.408 . S
C1066 C1064 1.363 . S
C1066 C1067 1.370 . S
C1066 C1070 1.524 . S
C1067 C1059 1.503 . S
C1067 C1066 1.370 . S
C1067 C1068 1.403 . S
C1068 C1067 1.403 . S
C1068 C1069 1.404 . S
C1068 C1071 1.539 . S
C1069 C1065 1.408 . S
C1069 C1068 1.404 . S
C1069 H1081 0.930 . S
C1070 C1066 1.524 . S
C1070 H1082 0.956 . S
C1070 H1083 0.961 . S
C1070 H1084 0.961 . S
C1071 C1068 1.539 . S
C1071 H1085 0.958 . S
C1071 H1086 0.961 . S
C1071 H1087 0.960 . S
H1072 C1056 0.931 . S
H1073 C1061 0.929 . S
H1074 C1062 0.960 . S
H1075 C1062 0.962 . S
H1076 C1062 0.960 . S
H1077 C1063 0.961 . S
H1078 C1063 0.961 . S
H1079 C1063 0.961 . S
H1080 C1064 0.931 . S
H1081 C1069 0.930 . S
H1082 C1070 0.956 . S
H1083 C1070 0.961 . S
H1084 C1070 0.961 . S
H1085 C1071 0.958 . S
H1086 C1071 0.961 . S
H1087 C1071 0.960 . S
C1088 C1089 1.391 . S
C1088 C1090 1.394 . S
C1088 H1104 0.931 . S
C1089 C1088 1.391 . S
C1089 C1093 1.376 . S
C1090 C1088 1.394 . S
C1090 C1091 1.369 . S
C1090 C1094 1.531 . S
C1091 C1090 1.369 . S
C1091 C1092 1.410 . S
C1091 C1099 1.503 . S
C1092 C1091 1.410 . S
C1092 C1093 1.392 . S
C1092 C1095 1.511 1_545 S
C1093 C1089 1.376 . S
C1093 C1092 1.392 . S
C1093 H1105 0.929 . S
C1094 C1090 1.531 . S
C1094 H1106 0.960 . S
C1094 H1107 0.962 . S
C1094 H1108 0.960 . S
C1095 C1092 1.511 1_565 S
C1095 H1109 0.961 . S
C1095 H1110 0.961 . S
C1095 H1111 0.961 1_565 S
C1096 C1097 1.370 . S
C1096 C1098 1.363 . S
C1096 H1112 0.931 . S
C1097 C1096 1.370 . S
C1097 C1101 1.408 1_565 S
C1098 C1096 1.363 . S
C1098 C1099 1.370 1_565 S
C1098 C1102 1.524 . S
C1099 C1091 1.503 . S
C1099 C1098 1.370 1_545 S
C1099 C1100 1.403 . S
C1100 C1099 1.403 . S
C1100 C1101 1.404 . S
C1100 C1103 1.539 . S
C1101 C1097 1.408 1_545 S
C1101 C1100 1.404 . S
C1101 H1113 0.930 . S
C1102 C1098 1.524 . S
C1102 H1114 0.956 . S
C1102 H1115 0.961 . S
C1102 H1116 0.961 . S
C1103 C1100 1.539 . S
C1103 H1117 0.958 . S
C1103 H1118 0.961 . S
C1103 H1119 0.960 . S
H1104 C1088 0.931 . S
H1105 C1093 0.929 . S
H1106 C1094 0.960 . S
H1107 C1094 0.962 . S
H1108 C1094 0.960 . S
H1109 C1095 0.961 . S
H1110 C1095 0.961 . S
H1111 C1095 0.961 1_545 S
H1112 C1096 0.931 . S
H1113 C1101 0.930 . S
H1114 C1102 0.956 . S
H1115 C1102 0.961 . S
H1116 C1102 0.961 . S
H1117 C1103 0.958 . S
H1118 C1103 0.961 . S
H1119 C1103 0.960 . S
C1120 C1121 1.391 . S
C1120 C1122 1.394 . S
C1120 H1136 0.931 . S
C1121 C1120 1.391 . S
C1121 C1125 1.376 . S
C1122 C1120 1.394 . S
C1122 C1123 1.369 . S
C1122 C1126 1.531 . S
C1123 C1122 1.369 . S
C1123 C1124 1.410 . S
C1123 C1131 1.503 . S
C1124 C1123 1.410 . S
C1124 C1125 1.392 . S
C1124 C1127 1.511 . S
C1125 C1121 1.376 . S
C1125 C1124 1.392 . S
C1125 H1137 0.929 . S
C1126 C1122 1.531 . S
C1126 H1138 0.960 . S
C1126 H1139 0.962 . S
C1126 H1140 0.960 . S
C1127 C1124 1.511 . S
C1127 H1141 0.961 . S
C1127 H1142 0.961 . S
C1127 H1143 0.961 . S
C1128 C1129 1.370 . S
C1128 C1130 1.363 . S
C1128 H1144 0.931 . S
C1129 C1128 1.370 . S
C1129 C1133 1.408 . S
C1130 C1128 1.363 . S
C1130 C1131 1.370 1_556 S
C1130 C1134 1.524 1_556 S
C1131 C1123 1.503 . S
C1131 C1130 1.370 1_554 S
C1131 C1132 1.403 1_554 S
C1132 C1131 1.403 1_556 S
C1132 C1133 1.404 . S
C1132 C1135 1.539 1_556 S
C1133 C1129 1.408 . S
C1133 C1132 1.404 . S
C1133 H1145 0.930 . S
C1134 C1130 1.524 1_554 S
C1134 H1146 0.956 . S
C1134 H1147 0.961 . S
C1134 H1148 0.961 . S
C1135 C1132 1.539 1_554 S
C1135 H1149 0.958 . S
C1135 H1150 0.961 1_554 S
C1135 H1151 0.960 . S
H1136 C1120 0.931 . S
H1137 C1125 0.929 . S
H1138 C1126 0.960 . S
H1139 C1126 0.962 . S
H1140 C1126 0.960 . S
H1141 C1127 0.961 . S
H1142 C1127 0.961 . S
H1143 C1127 0.961 . S
H1144 C1128 0.931 . S
H1145 C1133 0.930 . S
H1146 C1134 0.956 . S
H1147 C1134 0.961 . S
H1148 C1134 0.961 . S
H1149 C1135 0.958 . S
H1150 C1135 0.961 1_556 S
H1151 C1135 0.960 . S
C1152 C1153 1.391 1_565 S
C1152 C1154 1.394 . S
C1152 H1168 0.931 . S
C1153 C1152 1.391 1_545 S
C1153 C1157 1.376 . S
C1154 C1152 1.394 . S
C1154 C1155 1.369 . S
C1154 C1158 1.531 . S
C1155 C1154 1.369 . S
C1155 C1156 1.410 1_565 S
C1155 C1163 1.503 . S
C1156 C1155 1.410 1_545 S
C1156 C1157 1.392 . S
C1156 C1159 1.511 . S
C1157 C1153 1.376 . S
C1157 C1156 1.392 . S
C1157 H1169 0.929 . S
C1158 C1154 1.531 . S
C1158 H1170 0.960 . S
C1158 H1171 0.962 . S
C1158 H1172 0.960 . S
C1159 C1156 1.511 . S
C1159 H1173 0.961 . S
C1159 H1174 0.961 . S
C1159 H1175 0.966 . S
C1160 C1161 1.370 . S
C1160 C1162 1.363 . S
C1160 H1176 0.931 . S
C1161 C1160 1.370 . S
C1161 C1165 1.408 . S
C1162 C1160 1.363 . S
C1162 C1163 1.370 . S
C1162 C1166 1.524 1_565 S
C1163 C1155 1.503 . S
C1163 C1162 1.370 . S
C1163 C1164 1.403 . S
C1164 C1163 1.403 . S
C1164 C1165 1.404 . S
C1164 C1167 1.539 . S
C1165 C1161 1.408 . S
C1165 C1164 1.404 . S
C1165 H1177 0.930 . S
C1166 C1162 1.524 1_545 S
C1166 H1178 0.956 . S
C1166 H1179 0.961 . S
C1166 H1180 0.961 . S
C1167 C1164 1.539 . S
C1167 H1181 0.958 . S
C1167 H1182 0.961 . S
C1167 H1183 0.960 . S
H1168 C1152 0.931 . S
H1169 C1157 0.929 . S
H1170 C1158 0.960 . S
H1171 C1158 0.962 . S
H1172 C1158 0.960 . S
H1173 C1159 0.961 . S
H1174 C1159 0.961 . S
H1175 C1159 0.966 . S
H1176 C1160 0.931 . S
H1177 C1165 0.930 . S
H1178 C1166 0.956 . S
H1179 C1166 0.961 . S
H1180 C1166 0.961 . S
H1181 C1167 0.958 . S
H1182 C1167 0.961 . S
H1183 C1167 0.960 . S
C1184 C1185 1.391 . S
C1184 C1186 1.394 . S
C1184 H1200 0.931 . S
C1185 C1184 1.391 . S
C1185 C1189 1.376 . S
C1186 C1184 1.394 . S
C1186 C1187 1.369 . S
C1186 C1190 1.531 . S
C1187 C1186 1.369 . S
C1187 C1188 1.410 . S
C1187 C1195 1.503 . S
C1188 C1187 1.410 . S
C1188 C1189 1.392 . S
C1188 C1191 1.511 . S
C1189 C1185 1.376 . S
C1189 C1188 1.392 . S
C1189 H1201 0.929 . S
C1190 C1186 1.531 . S
C1190 H1202 0.960 . S
C1190 H1203 0.962 . S
C1190 H1204 0.960 . S
C1191 C1188 1.511 . S
C1191 H1205 0.961 . S
C1191 H1206 0.961 . S
C1191 H1207 0.961 . S
C1192 C1193 1.370 . S
C1192 C1194 1.363 . S
C1192 H1208 0.931 . S
C1193 C1192 1.370 . S
C1193 C1197 1.408 . S
C1194 C1192 1.363 . S
C1194 C1195 1.370 . S
C1194 C1198 1.524 . S
C1195 C1187 1.503 . S
C1195 C1194 1.370 . S
C1195 C1196 1.403 . S
C1196 C1195 1.403 . S
C1196 C1197 1.404 . S
C1196 C1199 1.539 . S
C1197 C1193 1.408 . S
C1197 C1196 1.404 . S
C1197 H1209 0.930 . S
C1198 C1194 1.524 . S
C1198 H1210 0.956 . S
C1198 H1211 0.961 . S
C1198 H1212 0.961 . S
C1199 C1196 1.539 . S
C1199 H1213 0.958 . S
C1199 H1214 0.961 . S
C1199 H1215 0.960 . S
H1200 C1184 0.931 . S
H1201 C1189 0.929 . S
H1202 C1190 0.960 . S
H1203 C1190 0.962 . S
H1204 C1190 0.960 . S
H1205 C1191 0.961 . S
H1206 C1191 0.961 . S
H1207 C1191 0.961 . S
H1208 C1192 0.931 . S
H1209 C1197 0.930 . S
H1210 C1198 0.956 . S
H1211 C1198 0.961 . S
H1212 C1198 0.961 . S
H1213 C1199 0.958 . S
H1214 C1199 0.961 . S
H1215 C1199 0.960 . S
C1216 C1217 1.391 . S
C1216 C1218 1.394 . S
C1216 H1232 0.931 . S
C1217 C1216 1.391 . S
C1217 C1221 1.376 . S
C1218 C1216 1.394 . S
C1218 C1219 1.369 . S
C1218 C1222 1.531 . S
C1219 C1218 1.369 . S
C1219 C1220 1.410 . S
C1219 C1227 1.503 . S
C1220 C1219 1.410 . S
C1220 C1221 1.392 . S
C1220 C1223 1.511 . S
C1221 C1217 1.376 . S
C1221 C1220 1.392 . S
C1221 H1233 0.929 . S
C1222 C1218 1.531 . S
C1222 H1234 0.960 . S
C1222 H1235 0.962 . S
C1222 H1236 0.960 . S
C1223 C1220 1.511 . S
C1223 H1237 0.961 1_565 S
C1223 H1238 0.961 1_565 S
C1223 H1239 0.961 . S
C1224 C1225 1.370 . S
C1224 C1226 1.363 . S
C1224 H1240 0.931 . S
C1225 C1224 1.370 . S
C1225 C1229 1.408 1_545 S
C1226 C1224 1.363 . S
C1226 C1227 1.370 1_545 S
C1226 C1230 1.524 . S
C1227 C1219 1.503 . S
C1227 C1226 1.370 1_565 S
C1227 C1228 1.403 . S
C1228 C1227 1.403 . S
C1228 C1229 1.404 . S
C1228 C1231 1.539 . S
C1229 C1225 1.408 1_565 S
C1229 C1228 1.404 . S
C1229 H1241 0.930 . S
C1230 C1226 1.524 . S
C1230 H1242 0.956 . S
C1230 H1243 0.961 . S
C1230 H1244 0.961 . S
C1231 C1228 1.539 . S
C1231 H1245 0.958 . S
C1231 H1246 0.961 . S
C1231 H1247 0.960 . S
H1232 C1216 0.931 . S
H1233 C1221 0.929 . S
H1234 C1222 0.960 . S
H1235 C1222 0.962 . S
H1236 C1222 0.960 . S
H1237 C1223 0.961 1_545 S
H1238 C1223 0.961 1_545 S
H1239 C1223 0.961 . S
H1240 C1224 0.931 . S
H1241 C1229 0.930 . S
H1242 C1230 0.956 . S
H1243 C1230 0.961 . S
H1244 C1230 0.961 . S
H1245 C1231 0.958 . S
H1246 C1231 0.961 . S
H1247 C1231 0.960 . S
C1248 C1249 1.391 . S
C1248 C1250 1.394 . S
C1248 H1264 0.931 . S
C1249 C1248 1.391 . S
C1249 C1253 1.376 . S
C1250 C1248 1.394 . S
C1250 C1251 1.369 1_554 S
C1250 C1254 1.531 1_554 S
C1251 C1250 1.369 1_556 S
C1251 C1252 1.410 1_556 S
C1251 C1259 1.503 . S
C1252 C1251 1.410 1_554 S
C1252 C1253 1.392 . S
C1252 C1255 1.511 . S
C1253 C1249 1.376 . S
C1253 C1252 1.392 . S
C1253 H1265 0.929 . S
C1254 C1250 1.531 1_556 S
C1254 H1266 0.960 . S
C1254 H1267 0.962 . S
C1254 H1268 0.960 . S
C1255 C1252 1.511 . S
C1255 H1269 0.961 . S
C1255 H1270 0.961 1_554 S
C1255 H1271 0.961 . S
C1256 C1257 1.370 . S
C1256 C1258 1.363 . S
C1256 H1272 0.931 . S
C1257 C1256 1.370 . S
C1257 C1261 1.408 . S
C1258 C1256 1.363 . S
C1258 C1259 1.370 . S
C1258 C1262 1.524 . S
C1259 C1251 1.503 . S
C1259 C1258 1.370 . S
C1259 C1260 1.403 . S
C1260 C1259 1.403 . S
C1260 C1261 1.404 . S
C1260 C1263 1.539 . S
C1261 C1257 1.408 . S
C1261 C1260 1.404 . S
C1261 H1273 0.930 . S
C1262 C1258 1.524 . S
C1262 H1274 0.956 . S
C1262 H1275 0.961 . S
C1262 H1276 0.961 . S
C1263 C1260 1.539 . S
C1263 H1277 0.958 . S
C1263 H1278 0.961 . S
C1263 H1279 0.960 . S
H1264 C1248 0.931 . S
H1265 C1253 0.929 . S
H1266 C1254 0.960 . S
H1267 C1254 0.962 . S
H1268 C1254 0.960 . S
H1269 C1255 0.961 . S
H1270 C1255 0.961 1_556 S
H1271 C1255 0.961 . S
H1272 C1256 0.931 . S
H1273 C1261 0.930 . S
H1274 C1262 0.956 . S
H1275 C1262 0.961 . S
H1276 C1262 0.961 . S
H1277 C1263 0.958 . S
H1278 C1263 0.961 . S
H1279 C1263 0.960 . S
C1280 C1281 1.391 . S
C1280 C1282 1.394 . S
C1280 H1296 0.931 . S
C1281 C1280 1.391 . S
C1281 C1285 1.376 . S
C1282 C1280 1.394 . S
C1282 C1283 1.369 . S
C1282 C1286 1.531 1_545 S
C1283 C1282 1.369 . S
C1283 C1284 1.410 . S
C1283 C1291 1.503 . S
C1284 C1283 1.410 . S
C1284 C1285 1.392 . S
C1284 C1287 1.511 . S
C1285 C1281 1.376 . S
C1285 C1284 1.392 . S
C1285 H1297 0.929 . S
C1286 C1282 1.531 1_565 S
C1286 H1298 0.960 . S
C1286 H1299 0.962 . S
C1286 H1300 0.960 . S
C1287 C1284 1.511 . S
C1287 H1301 0.961 . S
C1287 H1302 0.961 . S
C1287 H1303 0.961 . S
C1288 C1289 1.370 1_545 S
C1288 C1290 1.363 . S
C1288 H1304 0.931 . S
C1289 C1288 1.370 1_565 S
C1289 C1293 1.408 . S
C1290 C1288 1.363 . S
C1290 C1291 1.370 . S
C1290 C1294 1.524 . S
C1291 C1283 1.503 . S
C1291 C1290 1.370 . S
C1291 C1292 1.403 1_545 S
C1292 C1291 1.403 1_565 S
C1292 C1293 1.404 . S
C1292 C1295 1.539 . S
C1293 C1289 1.408 . S
C1293 C1292 1.404 . S
C1293 H1305 0.930 . S
C1294 C1290 1.524 . S
C1294 H1306 0.956 . S
C1294 H1307 0.961 . S
C1294 H1308 0.961 . S
C1295 C1292 1.539 . S
C1295 H1309 0.958 . S
C1295 H1310 0.961 . S
C1295 H1311 0.960 . S
H1296 C1280 0.931 . S
H1297 C1285 0.929 . S
H1298 C1286 0.960 . S
H1299 C1286 0.962 . S
H1300 C1286 0.960 . S
H1301 C1287 0.961 . S
H1302 C1287 0.961 . S
H1303 C1287 0.961 . S
H1304 C1288 0.931 . S
H1305 C1293 0.930 . S
H1306 C1294 0.956 . S
H1307 C1294 0.961 . S
H1308 C1294 0.961 . S
H1309 C1295 0.958 . S
H1310 C1295 0.961 . S
H1311 C1295 0.960 . S
C1312 C1313 1.391 . S
C1312 C1314 1.394 . S
C1312 H1328 0.931 . S
C1313 C1312 1.391 . S
C1313 C1317 1.376 . S
C1314 C1312 1.394 . S
C1314 C1315 1.369 . S
C1314 C1318 1.531 . S
C1315 C1314 1.369 . S
C1315 C1316 1.410 . S
C1315 C1323 1.503 . S
C1316 C1315 1.410 . S
C1316 C1317 1.392 . S
C1316 C1319 1.511 . S
C1317 C1313 1.376 . S
C1317 C1316 1.392 . S
C1317 H1329 0.929 . S
C1318 C1314 1.531 . S
C1318 H1330 0.960 . S
C1318 H1331 0.962 . S
C1318 H1332 0.960 . S
C1319 C1316 1.511 . S
C1319 H1333 0.961 . S
C1319 H1334 0.961 . S
C1319 H1335 0.961 . S
C1320 C1321 1.370 . S
C1320 C1322 1.363 . S
C1320 H1336 0.931 . S
C1321 C1320 1.370 . S
C1321 C1325 1.408 . S
C1322 C1320 1.363 . S
C1322 C1323 1.370 . S
C1322 C1326 1.524 . S
C1323 C1315 1.503 . S
C1323 C1322 1.370 . S
C1323 C1324 1.403 . S
C1324 C1323 1.403 . S
C1324 C1325 1.404 . S
C1324 C1327 1.539 . S
C1325 C1321 1.408 . S
C1325 C1324 1.404 . S
C1325 H1337 0.930 . S
C1326 C1322 1.524 . S
C1326 H1338 0.956 . S
C1326 H1339 0.961 . S
C1326 H1340 0.961 . S
C1327 C1324 1.539 . S
C1327 H1341 0.958 . S
C1327 H1342 0.961 . S
C1327 H1343 0.960 . S
H1328 C1312 0.931 . S
H1329 C1317 0.929 . S
H1330 C1318 0.960 . S
H1331 C1318 0.962 . S
H1332 C1318 0.960 . S
H1333 C1319 0.961 . S
H1334 C1319 0.961 . S
H1335 C1319 0.961 . S
H1336 C1320 0.931 . S
H1337 C1325 0.930 . S
H1338 C1326 0.956 . S
H1339 C1326 0.961 . S
H1340 C1326 0.961 . S
H1341 C1327 0.958 . S
H1342 C1327 0.961 . S
H1343 C1327 0.960 . S
C1344 C1345 1.391 . S
C1344 C1346 1.394 . S
C1344 H1360 0.931 . S
C1345 C1344 1.391 . S
C1345 C1349 1.376 . S
C1346 C1344 1.394 . S
C1346 C1347 1.369 . S
C1346 C1350 1.531 . S
C1347 C1346 1.369 . S
C1347 C1348 1.410 . S
C1347 C1355 1.503 . S
C1348 C1347 1.410 . S
C1348 C1349 1.392 . S
C1348 C1351 1.511 . S
C1349 C1345 1.376 . S
C1349 C1348 1.392 . S
C1349 H1361 0.929 . S
C1350 C1346 1.531 . S
C1350 H1362 0.960 . S
C1350 H1363 0.962 . S
C1350 H1364 0.960 . S
C1351 C1348 1.511 . S
C1351 H1365 0.961 . S
C1351 H1366 0.961 . S
C1351 H1367 0.961 . S
C1352 C1353 1.370 . S
C1352 C1354 1.363 . S
C1352 H1368 0.931 . S
C1353 C1352 1.370 . S
C1353 C1357 1.408 . S
C1354 C1352 1.363 . S
C1354 C1355 1.370 . S
C1354 C1358 1.524 . S
C1355 C1347 1.503 . S
C1355 C1354 1.370 . S
C1355 C1356 1.403 . S
C1356 C1355 1.403 . S
C1356 C1357 1.404 . S
C1356 C1359 1.539 . S
C1357 C1353 1.408 . S
C1357 C1356 1.404 . S
C1357 H1369 0.930 . S
C1358 C1354 1.524 . S
C1358 H1370 0.956 . S
C1358 H1371 0.961 . S
C1358 H1372 0.961 . S
C1359 C1356 1.539 . S
C1359 H1373 0.958 . S
C1359 H1374 0.961 . S
C1359 H1375 0.960 . S
H1360 C1344 0.931 . S
H1361 C1349 0.929 . S
H1362 C1350 0.960 . S
H1363 C1350 0.962 . S
H1364 C1350 0.960 . S
H1365 C1351 0.961 . S
H1366 C1351 0.961 . S
H1367 C1351 0.961 . S
H1368 C1352 0.931 . S
H1369 C1357 0.930 . S
H1370 C1358 0.956 . S
H1371 C1358 0.961 . S
H1372 C1358 0.961 . S
H1373 C1359 0.958 . S
H1374 C1359 0.961 . S
H1375 C1359 0.960 . S
C1376 C1377 1.391 . S
C1376 C1378 1.394 . S
C1376 H1392 0.931 . S
C1377 C1376 1.391 . S
C1377 C1381 1.376 . S
C1378 C1376 1.394 . S
C1378 C1379 1.369 . S
C1378 C1382 1.531 . S
C1379 C1378 1.369 . S
C1379 C1380 1.410 . S
C1379 C1387 1.503 1_655 S
C1380 C1379 1.410 . S
C1380 C1381 1.392 . S
C1380 C1383 1.511 . S
C1381 C1377 1.376 . S
C1381 C1380 1.392 . S
C1381 H1393 0.929 . S
C1382 C1378 1.531 . S
C1382 H1394 0.960 1_655 S
C1382 H1395 0.962 . S
C1382 H1396 0.960 . S
C1383 C1380 1.511 . S
C1383 H1397 0.961 . S
C1383 H1398 0.961 1_655 S
C1383 H1399 0.961 1_655 S
C1384 C1385 1.370 . S
C1384 C1386 1.363 . S
C1384 H1400 0.931 . S
C1385 C1384 1.370 . S
C1385 C1389 1.408 . S
C1386 C1384 1.363 . S
C1386 C1387 1.370 . S
C1386 C1390 1.524 1_455 S
C1387 C1379 1.503 1_455 S
C1387 C1386 1.370 . S
C1387 C1388 1.403 . S
C1388 C1387 1.403 . S
C1388 C1389 1.404 . S
C1388 C1391 1.539 . S
C1389 C1385 1.408 . S
C1389 C1388 1.404 . S
C1389 H1401 0.930 . S
C1390 C1386 1.524 1_655 S
C1390 H1402 0.956 . S
C1390 H1403 0.961 . S
C1390 H1404 0.961 . S
C1391 C1388 1.539 . S
C1391 H1405 0.958 . S
C1391 H1406 0.961 . S
C1391 H1407 0.960 . S
H1392 C1376 0.931 . S
H1393 C1381 0.929 . S
H1394 C1382 0.960 1_455 S
H1395 C1382 0.962 . S
H1396 C1382 0.960 . S
H1397 C1383 0.961 . S
H1398 C1383 0.961 1_455 S
H1399 C1383 0.961 1_455 S
H1400 C1384 0.931 . S
H1401 C1389 0.930 . S
H1402 C1390 0.956 . S
H1403 C1390 0.961 . S
H1404 C1390 0.961 . S
H1405 C1391 0.958 . S
H1406 C1391 0.961 . S
H1407 C1391 0.960 . S
C1408 C1409 1.391 . S
C1408 C1410 1.394 1_655 S
C1408 H1424 0.931 1_655 S
C1409 C1408 1.391 . S
C1409 C1413 1.376 . S
C1410 C1408 1.394 1_455 S
C1410 C1411 1.369 1_455 S
C1410 C1414 1.531 . S
C1411 C1410 1.369 1_655 S
C1411 C1412 1.410 . S
C1411 C1419 1.503 1_655 S
C1412 C1411 1.410 . S
C1412 C1413 1.392 . S
C1412 C1415 1.511 . S
C1413 C1409 1.376 . S
C1413 C1412 1.392 . S
C1413 H1425 0.929 . S
C1414 C1410 1.531 . S
C1414 H1426 0.960 . S
C1414 H1427 0.962 . S
C1414 H1428 0.960 . S
C1415 C1412 1.511 . S
C1415 H1429 0.961 . S
C1415 H1430 0.961 . S
C1415 H1431 0.961 . S
C1416 C1417 1.370 . S
C1416 C1418 1.363 1_455 S
C1416 H1432 0.931 . S
C1417 C1416 1.370 . S
C1417 C1421 1.408 . S
C1418 C1416 1.363 1_655 S
C1418 C1419 1.370 1_655 S
C1418 C1422 1.524 . S
C1419 C1411 1.503 1_455 S
C1419 C1418 1.370 1_455 S
C1419 C1420 1.403 . S
C1420 C1419 1.403 . S
C1420 C1421 1.404 . S
C1420 C1423 1.539 . S
C1421 C1417 1.408 . S
C1421 C1420 1.404 . S
C1421 H1433 0.930 . S
C1422 C1418 1.524 . S
C1422 H1434 0.956 . S
C1422 H1435 0.961 . S
C1422 H1436 0.961 . S
C1423 C1420 1.539 . S
C1423 H1437 0.958 . S
C1423 H1438 0.961 . S
C1423 H1439 0.960 . S
H1424 C1408 0.931 1_455 S
H1425 C1413 0.929 . S
H1426 C1414 0.960 . S
H1427 C1414 0.962 . S
H1428 C1414 0.960 . S
H1429 C1415 0.961 . S
H1430 C1415 0.961 . S
H1431 C1415 0.961 . S
H1432 C1416 0.931 . S
H1433 C1421 0.930 . S
H1434 C1422 0.956 . S
H1435 C1422 0.961 . S
H1436 C1422 0.961 . S
H1437 C1423 0.958 . S
H1438 C1423 0.961 . S
H1439 C1423 0.960 . S
C1440 C1441 1.391 . S
C1440 C1442 1.394 . S
C1440 H1456 0.931 . S
C1441 C1440 1.391 . S
C1441 C1445 1.376 . S
C1442 C1440 1.394 . S
C1442 C1443 1.369 . S
C1442 C1446 1.531 . S
C1443 C1442 1.369 . S
C1443 C1444 1.410 . S
C1443 C1451 1.503 . S
C1444 C1443 1.410 . S
C1444 C1445 1.392 . S
C1444 C1447 1.511 . S
C1445 C1441 1.376 . S
C1445 C1444 1.392 . S
C1445 H1457 0.929 . S
C1446 C1442 1.531 . S
C1446 H1458 0.960 . S
C1446 H1459 0.962 . S
C1446 H1460 0.960 . S
C1447 C1444 1.511 . S
C1447 H1461 0.961 . S
C1447 H1462 0.961 . S
C1447 H1463 0.961 . S
C1448 C1449 1.370 . S
C1448 C1450 1.363 . S
C1448 H1464 0.931 . S
C1449 C1448 1.370 . S
C1449 C1453 1.408 . S
C1450 C1448 1.363 . S
C1450 C1451 1.370 . S
C1450 C1454 1.524 . S
C1451 C1443 1.503 . S
C1451 C1450 1.370 . S
C1451 C1452 1.403 . S
C1452 C1451 1.403 . S
C1452 C1453 1.404 . S
C1452 C1455 1.539 . S
C1453 C1449 1.408 . S
C1453 C1452 1.404 . S
C1453 H1465 0.930 . S
C1454 C1450 1.524 . S
C1454 H1466 0.956 . S
C1454 H1467 0.961 . S
C1454 H1468 0.961 . S
C1455 C1452 1.539 . S
C1455 H1469 0.958 . S
C1455 H1470 0.961 . S
C1455 H1471 0.960 . S
H1456 C1440 0.931 . S
H1457 C1445 0.929 . S
H1458 C1446 0.960 . S
H1459 C1446 0.962 . S
H1460 C1446 0.960 . S
H1461 C1447 0.961 . S
H1462 C1447 0.961 . S
H1463 C1447 0.961 . S
H1464 C1448 0.931 . S
H1465 C1453 0.930 . S
H1466 C1454 0.956 . S
H1467 C1454 0.961 . S
H1468 C1454 0.961 . S
H1469 C1455 0.958 . S
H1470 C1455 0.961 . S
H1471 C1455 0.960 . S
C1472 C1473 1.391 . S
C1472 C1474 1.394 . S
C1472 H1488 0.931 . S
C1473 C1472 1.391 . S
C1473 C1477 1.376 . S
C1474 C1472 1.394 . S
C1474 C1475 1.369 . S
C1474 C1478 1.531 . S
C1475 C1474 1.369 . S
C1475 C1476 1.410 . S
C1475 C1483 1.503 . S
C1476 C1475 1.410 . S
C1476 C1477 1.392 . S
C1476 C1479 1.511 . S
C1477 C1473 1.376 . S
C1477 C1476 1.392 . S
C1477 H1489 0.929 . S
C1478 C1474 1.531 . S
C1478 H1490 0.960 . S
C1478 H1491 0.962 . S
C1478 H1492 0.960 . S
C1479 C1476 1.511 . S
C1479 H1493 0.961 . S
C1479 H1494 0.961 . S
C1479 H1495 0.961 . S
C1480 C1481 1.370 . S
C1480 C1482 1.363 . S
C1480 H1496 0.931 . S
C1481 C1480 1.370 . S
C1481 C1485 1.408 . S
C1482 C1480 1.363 . S
C1482 C1483 1.370 . S
C1482 C1486 1.524 . S
C1483 C1475 1.503 . S
C1483 C1482 1.370 . S
C1483 C1484 1.403 . S
C1484 C1483 1.403 . S
C1484 C1485 1.404 . S
C1484 C1487 1.539 . S
C1485 C1481 1.408 . S
C1485 C1484 1.404 . S
C1485 H1497 0.930 . S
C1486 C1482 1.524 . S
C1486 H1498 0.956 . S
C1486 H1499 0.961 . S
C1486 H1500 0.961 . S
C1487 C1484 1.539 . S
C1487 H1501 0.958 . S
C1487 H1502 0.961 . S
C1487 H1503 0.960 . S
H1488 C1472 0.931 . S
H1489 C1477 0.929 . S
H1490 C1478 0.960 . S
H1491 C1478 0.962 . S
H1492 C1478 0.960 . S
H1493 C1479 0.961 . S
H1494 C1479 0.961 . S
H1495 C1479 0.961 . S
H1496 C1480 0.931 . S
H1497 C1485 0.930 . S
H1498 C1486 0.956 . S
H1499 C1486 0.961 . S
H1500 C1486 0.961 . S
H1501 C1487 0.958 . S
H1502 C1487 0.961 . S
H1503 C1487 0.960 . S
C1504 C1505 1.391 . S
C1504 C1506 1.394 . S
C1504 H1520 0.931 . S
C1505 C1504 1.391 . S
C1505 C1509 1.376 . S
C1506 C1504 1.394 . S
C1506 C1507 1.369 . S
C1506 C1510 1.531 . S
C1507 C1506 1.369 . S
C1507 C1508 1.410 . S
C1507 C1515 1.503 1_455 S
C1508 C1507 1.410 . S
C1508 C1509 1.392 . S
C1508 C1511 1.511 1_455 S
C1509 C1505 1.376 . S
C1509 C1508 1.392 . S
C1509 H1521 0.929 . S
C1510 C1506 1.531 . S
C1510 H1522 0.960 . S
C1510 H1523 0.962 . S
C1510 H1524 0.960 . S
C1511 C1508 1.511 1_655 S
C1511 H1525 0.961 . S
C1511 H1526 0.961 . S
C1511 H1527 0.961 . S
C1512 C1513 1.370 . S
C1512 C1514 1.363 . S
C1512 H1528 0.931 . S
C1513 C1512 1.370 . S
C1513 C1517 1.408 . S
C1514 C1512 1.363 . S
C1514 C1515 1.370 . S
C1514 C1518 1.524 . S
C1515 C1507 1.503 1_655 S
C1515 C1514 1.370 . S
C1515 C1516 1.403 . S
C1516 C1515 1.403 . S
C1516 C1517 1.404 . S
C1516 C1519 1.539 . S
C1517 C1513 1.408 . S
C1517 C1516 1.404 . S
C1517 H1529 0.930 . S
C1518 C1514 1.524 . S
C1518 H1530 0.956 1_655 S
C1518 H1531 0.961 1_655 S
C1518 H1532 0.961 . S
C1519 C1516 1.539 . S
C1519 H1533 0.958 . S
C1519 H1534 0.961 . S
C1519 H1535 0.960 . S
H1520 C1504 0.931 . S
H1521 C1509 0.929 . S
H1522 C1510 0.960 . S
H1523 C1510 0.962 . S
H1524 C1510 0.960 . S
H1525 C1511 0.961 . S
H1526 C1511 0.961 . S
H1527 C1511 0.961 . S
H1528 C1512 0.931 . S
H1529 C1517 0.930 . S
H1530 C1518 0.956 1_455 S
H1531 C1518 0.961 1_455 S
H1532 C1518 0.961 . S
H1533 C1519 0.958 . S
H1534 C1519 0.961 . S
H1535 C1519 0.960 . S
C1536 C1537 1.391 . S
C1536 C1538 1.394 . S
C1536 H1552 0.931 . S
C1537 C1536 1.391 . S
C1537 C1541 1.376 . S
C1538 C1536 1.394 . S
C1538 C1539 1.369 . S
C1538 C1542 1.531 . S
C1539 C1538 1.369 . S
C1539 C1540 1.410 1_455 S
C1539 C1547 1.503 1_455 S
C1540 C1539 1.410 1_655 S
C1540 C1541 1.392 1_655 S
C1540 C1543 1.511 . S
C1541 C1537 1.376 . S
C1541 C1540 1.392 1_455 S
C1541 H1553 0.929 1_455 S
C1542 C1538 1.531 . S
C1542 H1554 0.960 . S
C1542 H1555 0.962 . S
C1542 H1556 0.960 . S
C1543 C1540 1.511 . S
C1543 H1557 0.961 . S
C1543 H1558 0.961 . S
C1543 H1559 0.961 . S
C1544 C1545 1.370 . S
C1544 C1546 1.367 . S
C1544 H1560 0.931 . S
C1545 C1544 1.370 . S
C1545 C1549 1.408 . S
C1546 C1544 1.367 . S
C1546 C1547 1.373 . S
C1546 C1550 1.517 1_655 S
C1547 C1539 1.503 1_655 S
C1547 C1546 1.373 . S
C1547 C1548 1.403 . S
C1548 C1547 1.403 . S
C1548 C1549 1.404 . S
C1548 C1551 1.539 . S
C1549 C1545 1.408 . S
C1549 C1548 1.404 . S
C1549 H1561 0.930 . S
C1550 C1546 1.517 1_455 S
C1550 H1562 0.956 . S
C1550 H1563 0.961 . S
C1550 H1564 0.961 . S
C1551 C1548 1.539 . S
C1551 H1565 0.958 . S
C1551 H1566 0.961 . S
C1551 H1567 0.960 . S
H1552 C1536 0.931 . S
H1553 C1541 0.929 1_655 S
H1554 C1542 0.960 . S
H1555 C1542 0.962 . S
H1556 C1542 0.960 . S
H1557 C1543 0.961 . S
H1558 C1543 0.961 . S
H1559 C1543 0.961 . S
H1560 C1544 0.931 . S
H1561 C1549 0.930 . S
H1562 C1550 0.956 . S
H1563 C1550 0.961 . S
H1564 C1550 0.961 . S
H1565 C1551 0.958 . S
H1566 C1551 0.961 . S
H1567 C1551 0.960 . S
C1568 C1569 1.391 . S
C1568 C1570 1.394 . S
C1568 H1584 0.931 . S
C1569 C1568 1.391 . S
C1569 C1573 1.376 . S
C1570 C1568 1.394 . S
C1570 C1571 1.369 . S
C1570 C1574 1.531 . S
C1571 C1570 1.369 . S
C1571 C1572 1.410 . S
C1571 C1579 1.503 . S
C1572 C1571 1.410 . S
C1572 C1573 1.392 . S
C1572 C1575 1.511 . S
C1573 C1569 1.376 . S
C1573 C1572 1.392 . S
C1573 H1585 0.929 . S
C1574 C1570 1.531 . S
C1574 H1586 0.960 . S
C1574 H1587 0.962 . S
C1574 H1588 0.960 . S
C1575 C1572 1.511 . S
C1575 H1589 0.961 . S
C1575 H1590 0.961 . S
C1575 H1591 0.961 . S
C1576 C1577 1.370 . S
C1576 C1578 1.363 . S
C1576 H1592 0.931 . S
C1577 C1576 1.370 . S
C1577 C1581 1.408 . S
C1578 C1576 1.363 . S
C1578 C1579 1.370 . S
C1578 C1582 1.524 . S
C1579 C1571 1.503 . S
C1579 C1578 1.370 . S
C1579 C1580 1.403 . S
C1580 C1579 1.403 . S
C1580 C1581 1.404 . S
C1580 C1583 1.539 . S
C1581 C1577 1.408 . S
C1581 C1580 1.404 . S
C1581 H1593 0.930 . S
C1582 C1578 1.524 . S
C1582 H1594 0.956 . S
C1582 H1595 0.961 . S
C1582 H1596 0.961 . S
C1583 C1580 1.539 . S
C1583 H1597 0.958 . S
C1583 H1598 0.961 . S
C1583 H1599 0.960 . S
H1584 C1568 0.931 . S
H1585 C1573 0.929 . S
H1586 C1574 0.960 . S
H1587 C1574 0.962 . S
H1588 C1574 0.960 . S
H1589 C1575 0.961 . S
H1590 C1575 0.961 . S
H1591 C1575 0.961 . S
H1592 C1576 0.931 . S
H1593 C1581 0.930 . S
H1594 C1582 0.956 . S
H1595 C1582 0.961 . S
H1596 C1582 0.961 . S
H1597 C1583 0.958 . S
H1598 C1583 0.961 . S
H1599 C1583 0.960 . S
C1600 C1601 1.391 . S
C1600 C1602 1.394 . S
C1600 H1616 0.931 . S
C1601 C1600 1.391 . S
C1601 C1605 1.376 . S
C1602 C1600 1.394 . S
C1602 C1603 1.369 . S
C1602 C1606 1.531 . S
C1603 C1602 1.369 . S
C1603 C1604 1.410 . S
C1603 C1611 1.503 . S
C1604 C1603 1.410 . S
C1604 C1605 1.392 . S
C1604 C1607 1.511 . S
C1605 C1601 1.376 . S
C1605 C1604 1.392 . S
C1605 H1617 0.929 . S
C1606 C1602 1.531 . S
C1606 H1618 0.960 . S
C1606 H1619 0.962 . S
C1606 H1620 0.960 . S
C1607 C1604 1.511 . S
C1607 H1621 0.961 . S
C1607 H1622 0.961 . S
C1607 H1623 0.961 . S
C1608 C1609 1.370 . S
C1608 C1610 1.363 . S
C1608 H1624 0.931 . S
C1609 C1608 1.370 . S
C1609 C1613 1.408 . S
C1610 C1608 1.363 . S
C1610 C1611 1.370 . S
C1610 C1614 1.524 . S
C1611 C1603 1.503 . S
C1611 C1610 1.370 . S
C1611 C1612 1.403 . S
C1612 C1611 1.403 . S
C1612 C1613 1.404 . S
C1612 C1615 1.539 . S
C1613 C1609 1.408 . S
C1613 C1612 1.404 . S
C1613 H1625 0.930 . S
C1614 C1610 1.524 . S
C1614 H1626 0.956 . S
C1614 H1627 0.961 . S
C1614 H1628 0.961 . S
C1615 C1612 1.539 . S
C1615 H1629 0.958 . S
C1615 H1630 0.961 . S
C1615 H1631 0.960 . S
H1616 C1600 0.931 . S
H1617 C1605 0.929 . S
H1618 C1606 0.960 . S
H1619 C1606 0.962 . S
H1620 C1606 0.960 . S
H1621 C1607 0.961 . S
H1622 C1607 0.961 . S
H1623 C1607 0.961 . S
H1624 C1608 0.931 . S
H1625 C1613 0.930 . S
H1626 C1614 0.956 . S
H1627 C1614 0.961 . S
H1628 C1614 0.961 . S
H1629 C1615 0.958 . S
H1630 C1615 0.961 . S
H1631 C1615 0.960 . S
C1632 C1633 1.391 . S
C1632 C1634 1.394 . S
C1632 H1648 0.931 . S
C1633 C1632 1.391 . S
C1633 C1637 1.376 . S
C1634 C1632 1.394 . S
C1634 C1635 1.369 . S
C1634 C1638 1.531 . S
C1635 C1634 1.369 . S
C1635 C1636 1.410 . S
C1635 C1643 1.503 . S
C1636 C1635 1.410 . S
C1636 C1637 1.392 . S
C1636 C1639 1.511 . S
C1637 C1633 1.376 . S
C1637 C1636 1.392 . S
C1637 H1649 0.929 . S
C1638 C1634 1.531 . S
C1638 H1650 0.960 . S
C1638 H1651 0.962 . S
C1638 H1652 0.960 . S
C1639 C1636 1.511 . S
C1639 H1653 0.961 . S
C1639 H1654 0.961 . S
C1639 H1655 0.961 . S
C1640 C1641 1.370 . S
C1640 C1642 1.363 . S
C1640 H1656 0.931 . S
C1641 C1640 1.370 . S
C1641 C1645 1.408 . S
C1642 C1640 1.363 . S
C1642 C1643 1.370 . S
C1642 C1646 1.524 . S
C1643 C1635 1.503 . S
C1643 C1642 1.370 . S
C1643 C1644 1.403 . S
C1644 C1643 1.403 . S
C1644 C1645 1.404 . S
C1644 C1647 1.539 . S
C1645 C1641 1.408 . S
C1645 C1644 1.404 . S
C1645 H1657 0.930 . S
C1646 C1642 1.524 . S
C1646 H1658 0.956 . S
C1646 H1659 0.961 . S
C1646 H1660 0.961 . S
C1647 C1644 1.539 . S
C1647 H1661 0.958 . S
C1647 H1662 0.961 . S
C1647 H1663 0.960 . S
H1648 C1632 0.931 . S
H1649 C1637 0.929 . S
H1650 C1638 0.960 . S
H1651 C1638 0.962 . S
H1652 C1638 0.960 . S
H1653 C1639 0.961 . S
H1654 C1639 0.961 . S
H1655 C1639 0.961 . S
H1656 C1640 0.931 . S
H1657 C1645 0.930 . S
H1658 C1646 0.956 . S
H1659 C1646 0.961 . S
H1660 C1646 0.961 . S
H1661 C1647 0.958 . S
H1662 C1647 0.961 . S
H1663 C1647 0.960 . S
C1664 C1665 1.391 . S
C1664 C1666 1.394 . S
C1664 H1680 0.931 . S
C1665 C1664 1.391 . S
C1665 C1669 1.376 . S
C1666 C1664 1.394 . S
C1666 C1667 1.369 . S
C1666 C1670 1.531 . S
C1667 C1666 1.369 . S
C1667 C1668 1.410 . S
C1667 C1675 1.503 . S
C1668 C1667 1.410 . S
C1668 C1669 1.392 . S
C1668 C1671 1.511 . S
C1669 C1665 1.376 . S
C1669 C1668 1.392 . S
C1669 H1681 0.929 . S
C1670 C1666 1.531 . S
C1670 H1682 0.960 . S
C1670 H1683 0.962 . S
C1670 H1684 0.960 . S
C1671 C1668 1.511 . S
C1671 H1685 0.961 . S
C1671 H1686 0.961 . S
C1671 H1687 0.961 . S
C1672 C1673 1.370 . S
C1672 C1674 1.363 . S
C1672 H1688 0.931 . S
C1673 C1672 1.370 . S
C1673 C1677 1.408 . S
C1674 C1672 1.363 . S
C1674 C1675 1.370 . S
C1674 C1678 1.524 . S
C1675 C1667 1.503 . S
C1675 C1674 1.370 . S
C1675 C1676 1.403 . S
C1676 C1675 1.403 . S
C1676 C1677 1.404 . S
C1676 C1679 1.539 . S
C1677 C1673 1.408 . S
C1677 C1676 1.404 . S
C1677 H1689 0.930 . S
C1678 C1674 1.524 . S
C1678 H1690 0.956 . S
C1678 H1691 0.961 . S
C1678 H1692 0.961 . S
C1679 C1676 1.539 . S
C1679 H1693 0.958 . S
C1679 H1694 0.961 . S
C1679 H1695 0.960 . S
H1680 C1664 0.931 . S
H1681 C1669 0.929 . S
H1682 C1670 0.960 . S
H1683 C1670 0.962 . S
H1684 C1670 0.960 . S
H1685 C1671 0.961 . S
H1686 C1671 0.961 . S
H1687 C1671 0.961 . S
H1688 C1672 0.931 . S
H1689 C1677 0.930 . S
H1690 C1678 0.956 . S
H1691 C1678 0.961 . S
H1692 C1678 0.961 . S
H1693 C1679 0.958 . S
H1694 C1679 0.961 . S
H1695 C1679 0.960 . S
C1696 C1697 1.391 . S
C1696 C1698 1.394 . S
C1696 H1712 0.931 . S
C1697 C1696 1.391 . S
C1697 C1701 1.376 . S
C1698 C1696 1.394 . S
C1698 C1699 1.369 . S
C1698 C1702 1.531 . S
C1699 C1698 1.369 . S
C1699 C1700 1.410 . S
C1699 C1707 1.503 . S
C1700 C1699 1.410 . S
C1700 C1701 1.392 . S
C1700 C1703 1.511 . S
C1701 C1697 1.376 . S
C1701 C1700 1.392 . S
C1701 H1713 0.929 . S
C1702 C1698 1.531 . S
C1702 H1714 0.960 . S
C1702 H1715 0.962 . S
C1702 H1716 0.960 . S
C1703 C1700 1.511 . S
C1703 H1717 0.961 . S
C1703 H1718 0.961 . S
C1703 H1719 0.961 . S
C1704 C1705 1.370 . S
C1704 C1706 1.363 . S
C1704 H1720 0.931 . S
C1705 C1704 1.370 . S
C1705 C1709 1.408 . S
C1706 C1704 1.363 . S
C1706 C1707 1.370 . S
C1706 C1710 1.524 . S
C1707 C1699 1.503 . S
C1707 C1706 1.370 . S
C1707 C1708 1.403 . S
C1708 C1707 1.403 . S
C1708 C1709 1.404 . S
C1708 C1711 1.539 . S
C1709 C1705 1.408 . S
C1709 C1708 1.404 . S
C1709 H1721 0.930 . S
C1710 C1706 1.524 . S
C1710 H1722 0.956 . S
C1710 H1723 0.961 . S
C1710 H1724 0.961 . S
C1711 C1708 1.539 . S
C1711 H1725 0.958 . S
C1711 H1726 0.961 . S
C1711 H1727 0.960 . S
H1712 C1696 0.931 . S
H1713 C1701 0.929 . S
H1714 C1702 0.960 . S
H1715 C1702 0.962 . S
H1716 C1702 0.960 . S
H1717 C1703 0.961 . S
H1718 C1703 0.961 . S
H1719 C1703 0.961 . S
H1720 C1704 0.931 . S
H1721 C1709 0.930 . S
H1722 C1710 0.956 . S
H1723 C1710 0.961 . S
H1724 C1710 0.961 . S
H1725 C1711 0.958 . S
H1726 C1711 0.961 . S
H1727 C1711 0.960 . S
C1728 C1729 1.391 . S
C1728 C1730 1.394 . S
C1728 H1744 0.931 . S
C1729 C1728 1.391 . S
C1729 C1733 1.376 . S
C1730 C1728 1.394 . S
C1730 C1731 1.369 . S
C1730 C1734 1.531 . S
C1731 C1730 1.369 . S
C1731 C1732 1.410 . S
C1731 C1739 1.503 . S
C1732 C1731 1.410 . S
C1732 C1733 1.392 . S
C1732 C1735 1.511 . S
C1733 C1729 1.376 . S
C1733 C1732 1.392 . S
C1733 H1745 0.929 . S
C1734 C1730 1.531 . S
C1734 H1746 0.960 . S
C1734 H1747 0.962 . S
C1734 H1748 0.960 . S
C1735 C1732 1.511 . S
C1735 H1749 0.961 . S
C1735 H1750 0.961 . S
C1735 H1751 0.961 . S
C1736 C1737 1.370 . S
C1736 C1738 1.363 . S
C1736 H1752 0.931 . S
C1737 C1736 1.370 . S
C1737 C1741 1.408 . S
C1738 C1736 1.363 . S
C1738 C1739 1.370 . S
C1738 C1742 1.524 . S
C1739 C1731 1.503 . S
C1739 C1738 1.370 . S
C1739 C1740 1.403 . S
C1740 C1739 1.403 . S
C1740 C1741 1.404 . S
C1740 C1743 1.539 . S
C1741 C1737 1.408 . S
C1741 C1740 1.404 . S
C1741 H1753 0.930 . S
C1742 C1738 1.524 . S
C1742 H1754 0.956 . S
C1742 H1755 0.961 . S
C1742 H1756 0.961 . S
C1743 C1740 1.539 . S
C1743 H1757 0.958 . S
C1743 H1758 0.961 . S
C1743 H1759 0.960 . S
H1744 C1728 0.931 . S
H1745 C1733 0.929 . S
H1746 C1734 0.960 . S
H1747 C1734 0.962 . S
H1748 C1734 0.960 . S
H1749 C1735 0.961 . S
H1750 C1735 0.961 . S
H1751 C1735 0.961 . S
H1752 C1736 0.931 . S
H1753 C1741 0.930 . S
H1754 C1742 0.956 . S
H1755 C1742 0.961 . S
H1756 C1742 0.961 . S
H1757 C1743 0.958 . S
H1758 C1743 0.961 . S
H1759 C1743 0.960 . S
C1760 C1761 1.391 . S
C1760 C1762 1.394 . S
C1760 H1776 0.931 . S
C1761 C1760 1.391 . S
C1761 C1765 1.376 . S
C1762 C1760 1.394 . S
C1762 C1763 1.369 . S
C1762 C1766 1.531 . S
C1763 C1762 1.369 . S
C1763 C1764 1.410 . S
C1763 C1771 1.503 . S
C1764 C1763 1.410 . S
C1764 C1765 1.392 . S
C1764 C1767 1.511 . S
C1765 C1761 1.376 . S
C1765 C1764 1.392 . S
C1765 H1777 0.929 . S
C1766 C1762 1.531 . S
C1766 H1778 0.960 . S
C1766 H1779 0.962 . S
C1766 H1780 0.960 . S
C1767 C1764 1.511 . S
C1767 H1781 0.961 . S
C1767 H1782 0.961 . S
C1767 H1783 0.961 . S
C1768 C1769 1.370 . S
C1768 C1770 1.363 . S
C1768 H1784 0.931 . S
C1769 C1768 1.370 . S
C1769 C1773 1.408 . S
C1770 C1768 1.363 . S
C1770 C1771 1.370 . S
C1770 C1774 1.524 . S
C1771 C1763 1.503 . S
C1771 C1770 1.370 . S
C1771 C1772 1.403 . S
C1772 C1771 1.403 . S
C1772 C1773 1.404 . S
C1772 C1775 1.539 . S
C1773 C1769 1.408 . S
C1773 C1772 1.404 . S
C1773 H1785 0.930 . S
C1774 C1770 1.524 . S
C1774 H1786 0.956 . S
C1774 H1787 0.961 . S
C1774 H1788 0.961 . S
C1775 C1772 1.539 . S
C1775 H1789 0.958 . S
C1775 H1790 0.961 . S
C1775 H1791 0.960 . S
H1776 C1760 0.931 . S
H1777 C1765 0.929 . S
H1778 C1766 0.960 . S
H1779 C1766 0.962 . S
H1780 C1766 0.960 . S
H1781 C1767 0.961 . S
H1782 C1767 0.961 . S
H1783 C1767 0.961 . S
H1784 C1768 0.931 . S
H1785 C1773 0.930 . S
H1786 C1774 0.956 . S
H1787 C1774 0.961 . S
H1788 C1774 0.961 . S
H1789 C1775 0.958 . S
H1790 C1775 0.961 . S
H1791 C1775 0.960 . S
C1792 C1793 1.391 . S
C1792 C1794 1.394 . S
C1792 H1808 0.931 . S
C1793 C1792 1.391 . S
C1793 C1797 1.376 . S
C1794 C1792 1.394 . S
C1794 C1795 1.369 . S
C1794 C1798 1.531 . S
C1795 C1794 1.369 . S
C1795 C1796 1.410 . S
C1795 C1803 1.503 . S
C1796 C1795 1.410 . S
C1796 C1797 1.392 . S
C1796 C1799 1.511 . S
C1797 C1793 1.376 . S
C1797 C1796 1.392 . S
C1797 H1809 0.929 . S
C1798 C1794 1.531 . S
C1798 H1810 0.960 . S
C1798 H1811 0.962 . S
C1798 H1812 0.960 . S
C1799 C1796 1.511 . S
C1799 H1813 0.961 . S
C1799 H1814 0.961 . S
C1799 H1815 0.961 . S
C1800 C1801 1.370 . S
C1800 C1802 1.363 . S
C1800 H1816 0.931 . S
C1801 C1800 1.370 . S
C1801 C1805 1.408 . S
C1802 C1800 1.363 . S
C1802 C1803 1.370 . S
C1802 C1806 1.524 . S
C1803 C1795 1.503 . S
C1803 C1802 1.370 . S
C1803 C1804 1.403 . S
C1804 C1803 1.403 . S
C1804 C1805 1.404 . S
C1804 C1807 1.539 . S
C1805 C1801 1.408 . S
C1805 C1804 1.404 . S
C1805 H1817 0.930 . S
C1806 C1802 1.524 . S
C1806 H1818 0.956 . S
C1806 H1819 0.961 . S
C1806 H1820 0.961 . S
C1807 C1804 1.539 . S
C1807 H1821 0.958 . S
C1807 H1822 0.961 . S
C1807 H1823 0.960 . S
H1808 C1792 0.931 . S
H1809 C1797 0.929 . S
H1810 C1798 0.960 . S
H1811 C1798 0.962 . S
H1812 C1798 0.960 . S
H1813 C1799 0.961 . S
H1814 C1799 0.961 . S
H1815 C1799 0.961 . S
H1816 C1800 0.931 . S
H1817 C1805 0.930 . S
H1818 C1806 0.956 . S
H1819 C1806 0.961 . S
H1820 C1806 0.961 . S
H1821 C1807 0.958 . S
H1822 C1807 0.961 . S
H1823 C1807 0.960 . S
C1824 C1825 1.391 . S
C1824 C1826 1.394 . S
C1824 H1840 0.931 . S
C1825 C1824 1.391 . S
C1825 C1829 1.376 . S
C1826 C1824 1.394 . S
C1826 C1827 1.369 . S
C1826 C1830 1.531 . S
C1827 C1826 1.369 . S
C1827 C1828 1.410 . S
C1827 C1835 1.503 . S
C1828 C1827 1.410 . S
C1828 C1829 1.392 . S
C1828 C1831 1.511 . S
C1829 C1825 1.376 . S
C1829 C1828 1.392 . S
C1829 H1841 0.929 . S
C1830 C1826 1.531 . S
C1830 H1842 0.960 . S
C1830 H1843 0.962 . S
C1830 H1844 0.960 . S
C1831 C1828 1.511 . S
C1831 H1845 0.961 . S
C1831 H1846 0.961 . S
C1831 H1847 0.961 . S
C1832 C1833 1.370 . S
C1832 C1834 1.363 . S
C1832 H1848 0.931 . S
C1833 C1832 1.370 . S
C1833 C1837 1.408 . S
C1834 C1832 1.363 . S
C1834 C1835 1.370 . S
C1834 C1838 1.524 . S
C1835 C1827 1.503 . S
C1835 C1834 1.370 . S
C1835 C1836 1.403 . S
C1836 C1835 1.403 . S
C1836 C1837 1.404 . S
C1836 C1839 1.539 . S
C1837 C1833 1.408 . S
C1837 C1836 1.404 . S
C1837 H1849 0.930 1_565 S
C1838 C1834 1.524 . S
C1838 H1850 0.956 . S
C1838 H1851 0.961 . S
C1838 H1852 0.961 . S
C1839 C1836 1.539 . S
C1839 H1853 0.958 . S
C1839 H1854 0.961 . S
C1839 H1855 0.960 . S
H1840 C1824 0.931 . S
H1841 C1829 0.929 . S
H1842 C1830 0.960 . S
H1843 C1830 0.962 . S
H1844 C1830 0.960 . S
H1845 C1831 0.961 . S
H1846 C1831 0.961 . S
H1847 C1831 0.961 . S
H1848 C1832 0.931 . S
H1849 C1837 0.930 1_545 S
H1850 C1838 0.956 . S
H1851 C1838 0.961 . S
H1852 C1838 0.961 . S
H1853 C1839 0.958 . S
H1854 C1839 0.961 . S
H1855 C1839 0.960 . S
C1856 C1857 1.391 . S
C1856 C1858 1.394 . S
C1856 H1872 0.931 . S
C1857 C1856 1.391 . S
C1857 C1861 1.376 . S
C1858 C1856 1.394 . S
C1858 C1859 1.369 . S
C1858 C1862 1.531 . S
C1859 C1858 1.369 . S
C1859 C1860 1.410 . S
C1859 C1867 1.503 . S
C1860 C1859 1.410 . S
C1860 C1861 1.392 . S
C1860 C1863 1.511 . S
C1861 C1857 1.376 . S
C1861 C1860 1.392 . S
C1861 H1873 0.929 . S
C1862 C1858 1.531 . S
C1862 H1874 0.960 . S
C1862 H1875 0.962 . S
C1862 H1876 0.960 . S
C1863 C1860 1.511 . S
C1863 H1877 0.961 . S
C1863 H1878 0.961 . S
C1863 H1879 0.961 . S
C1864 C1865 1.370 . S
C1864 C1866 1.363 . S
C1864 H1880 0.931 . S
C1865 C1864 1.370 . S
C1865 C1869 1.408 . S
C1866 C1864 1.363 . S
C1866 C1867 1.370 . S
C1866 C1870 1.524 . S
C1867 C1859 1.503 . S
C1867 C1866 1.370 . S
C1867 C1868 1.403 . S
C1868 C1867 1.403 . S
C1868 C1869 1.404 . S
C1868 C1871 1.539 . S
C1869 C1865 1.408 . S
C1869 C1868 1.404 . S
C1869 H1881 0.930 . S
C1870 C1866 1.524 . S
C1870 H1882 0.956 . S
C1870 H1883 0.961 . S
C1870 H1884 0.961 . S
C1871 C1868 1.539 . S
C1871 H1885 0.958 . S
C1871 H1886 0.961 . S
C1871 H1887 0.960 . S
H1872 C1856 0.931 . S
H1873 C1861 0.929 . S
H1874 C1862 0.960 . S
H1875 C1862 0.962 . S
H1876 C1862 0.960 . S
H1877 C1863 0.961 . S
H1878 C1863 0.961 . S
H1879 C1863 0.961 . S
H1880 C1864 0.931 . S
H1881 C1869 0.930 . S
H1882 C1870 0.956 . S
H1883 C1870 0.961 . S
H1884 C1870 0.961 . S
H1885 C1871 0.958 . S
H1886 C1871 0.961 . S
H1887 C1871 0.960 . S
C1888 C1889 1.391 . S
C1888 C1890 1.394 . S
C1888 H1904 0.931 . S
C1889 C1888 1.391 . S
C1889 C1893 1.376 . S
C1890 C1888 1.394 . S
C1890 C1891 1.369 . S
C1890 C1894 1.531 . S
C1891 C1890 1.369 . S
C1891 C1892 1.410 . S
C1891 C1899 1.503 . S
C1892 C1891 1.410 . S
C1892 C1893 1.392 . S
C1892 C1895 1.511 . S
C1893 C1889 1.376 . S
C1893 C1892 1.392 . S
C1893 H1905 0.947 . S
C1894 C1890 1.531 . S
C1894 H1906 0.960 . S
C1894 H1907 0.962 . S
C1894 H1908 0.960 . S
C1895 C1892 1.511 . S
C1895 H1909 0.961 . S
C1895 H1910 0.961 . S
C1895 H1911 0.961 . S
C1896 C1897 1.370 . S
C1896 C1898 1.363 . S
C1896 H1912 0.931 . S
C1897 C1896 1.370 . S
C1897 C1901 1.408 . S
C1898 C1896 1.363 . S
C1898 C1899 1.370 . S
C1898 C1902 1.524 . S
C1899 C1891 1.503 . S
C1899 C1898 1.370 . S
C1899 C1900 1.403 . S
C1900 C1899 1.403 . S
C1900 C1901 1.404 . S
C1900 C1903 1.539 . S
C1901 C1897 1.408 . S
C1901 C1900 1.404 . S
C1901 H1913 0.930 . S
C1902 C1898 1.524 . S
C1902 H1914 0.956 . S
C1902 H1915 0.961 . S
C1902 H1916 0.961 . S
C1903 C1900 1.539 . S
C1903 H1917 0.958 . S
C1903 H1918 0.961 . S
C1903 H1919 0.960 . S
H1904 C1888 0.931 . S
H1905 C1893 0.947 . S
H1906 C1894 0.960 . S
H1907 C1894 0.962 . S
H1908 C1894 0.960 . S
H1909 C1895 0.961 . S
H1910 C1895 0.961 . S
H1911 C1895 0.961 . S
H1912 C1896 0.931 . S
H1913 C1901 0.930 . S
H1914 C1902 0.956 . S
H1915 C1902 0.961 . S
H1916 C1902 0.961 . S
H1917 C1903 0.958 . S
H1918 C1903 0.961 . S
H1919 C1903 0.960 . S
C1920 C1921 1.391 . S
C1920 C1922 1.394 . S
C1920 H1936 0.931 . S
C1921 C1920 1.391 . S
C1921 C1925 1.376 . S
C1922 C1920 1.394 . S
C1922 C1923 1.369 . S
C1922 C1926 1.531 . S
C1923 C1922 1.369 . S
C1923 C1924 1.410 . S
C1923 C1931 1.503 . S
C1924 C1923 1.410 . S
C1924 C1925 1.392 . S
C1924 C1927 1.511 . S
C1925 C1921 1.376 . S
C1925 C1924 1.392 . S
C1925 H1937 0.932 . S
C1926 C1922 1.531 . S
C1926 H1938 0.960 . S
C1926 H1939 0.962 . S
C1926 H1940 0.960 . S
C1927 C1924 1.511 . S
C1927 H1941 0.961 . S
C1927 H1942 0.961 . S
C1927 H1943 0.961 . S
C1928 C1929 1.370 . S
C1928 C1930 1.363 . S
C1928 H1944 0.931 . S
C1929 C1928 1.370 . S
C1929 C1933 1.408 . S
C1930 C1928 1.363 . S
C1930 C1931 1.370 . S
C1930 C1934 1.524 . S
C1931 C1923 1.503 . S
C1931 C1930 1.370 . S
C1931 C1932 1.403 . S
C1932 C1931 1.403 . S
C1932 C1933 1.404 . S
C1932 C1935 1.539 . S
C1933 C1929 1.408 . S
C1933 C1932 1.404 . S
C1933 H1945 0.930 . S
C1934 C1930 1.524 . S
C1934 H1946 0.956 . S
C1934 H1947 0.961 . S
C1934 H1948 0.961 . S
C1935 C1932 1.539 . S
C1935 H1949 0.958 . S
C1935 H1950 0.961 . S
C1935 H1951 0.960 . S
H1936 C1920 0.931 . S
H1937 C1925 0.932 . S
H1938 C1926 0.960 . S
H1939 C1926 0.962 . S
H1940 C1926 0.960 . S
H1941 C1927 0.961 . S
H1942 C1927 0.961 . S
H1943 C1927 0.961 . S
H1944 C1928 0.931 . S
H1945 C1933 0.930 . S
H1946 C1934 0.956 . S
H1947 C1934 0.961 . S
H1948 C1934 0.961 . S
H1949 C1935 0.958 . S
H1950 C1935 0.961 . S
H1951 C1935 0.960 . S
C1952 C1953 1.391 . S
C1952 C1954 1.394 . S
C1952 H1968 0.931 . S
C1953 C1952 1.391 . S
C1953 C1957 1.376 . S
C1954 C1952 1.394 . S
C1954 C1955 1.369 . S
C1954 C1958 1.531 . S
C1955 C1954 1.369 . S
C1955 C1956 1.410 . S
C1955 C1963 1.503 . S
C1956 C1955 1.410 . S
C1956 C1957 1.392 . S
C1956 C1959 1.511 . S
C1957 C1953 1.376 . S
C1957 C1956 1.392 . S
C1957 H1969 0.929 . S
C1958 C1954 1.531 . S
C1958 H1970 0.960 . S
C1958 H1971 0.962 . S
C1958 H1972 0.960 . S
C1959 C1956 1.511 . S
C1959 H1973 0.961 . S
C1959 H1974 0.961 . S
C1959 H1975 0.961 . S
C1960 C1961 1.370 . S
C1960 C1962 1.363 . S
C1960 H1976 0.931 . S
C1961 C1960 1.370 . S
C1961 C1965 1.408 . S
C1962 C1960 1.363 . S
C1962 C1963 1.370 . S
C1962 C1966 1.524 . S
C1963 C1955 1.503 . S
C1963 C1962 1.370 . S
C1963 C1964 1.403 . S
C1964 C1963 1.403 . S
C1964 C1965 1.404 . S
C1964 C1967 1.539 . S
C1965 C1961 1.408 . S
C1965 C1964 1.404 . S
C1965 H1977 0.930 . S
C1966 C1962 1.524 . S
C1966 H1978 0.956 . S
C1966 H1979 0.961 . S
C1966 H1980 0.961 . S
C1967 C1964 1.539 . S
C1967 H1981 0.958 . S
C1967 H1982 0.961 . S
C1967 H1983 0.960 . S
H1968 C1952 0.931 . S
H1969 C1957 0.929 . S
H1970 C1958 0.960 . S
H1971 C1958 0.962 . S
H1972 C1958 0.960 . S
H1973 C1959 0.961 . S
H1974 C1959 0.961 . S
H1975 C1959 0.961 . S
H1976 C1960 0.931 . S
H1977 C1965 0.930 . S
H1978 C1966 0.956 . S
H1979 C1966 0.961 . S
H1980 C1966 0.961 . S
H1981 C1967 0.958 . S
H1982 C1967 0.961 . S
H1983 C1967 0.960 . S
C1984 C1985 1.391 . S
C1984 C1986 1.394 . S
C1984 H2000 0.931 . S
C1985 C1984 1.391 . S
C1985 C1989 1.376 . S
C1986 C1984 1.394 . S
C1986 C1987 1.369 . S
C1986 C1990 1.531 . S
C1987 C1986 1.369 . S
C1987 C1988 1.410 . S
C1987 C1995 1.503 . S
C1988 C1987 1.410 . S
C1988 C1989 1.392 . S
C1988 C1991 1.511 . S
C1989 C1985 1.376 . S
C1989 C1988 1.392 . S
C1989 H2001 0.929 1_545 S
C1990 C1986 1.531 . S
C1990 H2002 0.960 . S
C1990 H2003 0.962 . S
C1990 H2004 0.960 . S
C1991 C1988 1.511 . S
C1991 H2005 0.961 1_545 S
C1991 H2006 0.961 . S
C1991 H2007 0.961 1_545 S
C1992 C1993 1.370 . S
C1992 C1994 1.363 . S
C1992 H2008 0.931 . S
C1993 C1992 1.370 . S
C1993 C1997 1.408 . S
C1994 C1992 1.363 . S
C1994 C1995 1.370 . S
C1994 C1998 1.524 . S
C1995 C1987 1.503 . S
C1995 C1994 1.370 . S
C1995 C1996 1.403 . S
C1996 C1995 1.403 . S
C1996 C1997 1.404 . S
C1996 C1999 1.539 . S
C1997 C1993 1.408 . S
C1997 C1996 1.404 . S
C1997 H2009 0.930 . S
C1998 C1994 1.524 . S
C1998 H2010 0.956 . S
C1998 H2011 0.961 . S
C1998 H2012 0.961 . S
C1999 C1996 1.539 . S
C1999 H2013 0.958 . S
C1999 H2014 0.961 . S
C1999 H2015 0.960 . S
H2000 C1984 0.931 . S
H2001 C1989 0.929 1_565 S
H2002 C1990 0.960 . S
H2003 C1990 0.962 . S
H2004 C1990 0.960 . S
H2005 C1991 0.961 1_565 S
H2006 C1991 0.961 . S
H2007 C1991 0.961 1_565 S
H2008 C1992 0.931 . S
H2009 C1997 0.930 . S
H2010 C1998 0.956 . S
H2011 C1998 0.961 . S
H2012 C1998 0.961 . S
H2013 C1999 0.958 . S
H2014 C1999 0.961 . S
H2015 C1999 0.960 . S
C2016 C2017 1.391 . S
C2016 C2018 1.394 . S
C2016 H2032 0.931 . S
C2017 C2016 1.391 . S
C2017 C2021 1.376 . S
C2018 C2016 1.394 . S
C2018 C2019 1.369 . S
C2018 C2022 1.531 . S
C2019 C2018 1.369 . S
C2019 C2020 1.410 . S
C2019 C2027 1.503 . S
C2020 C2019 1.410 . S
C2020 C2021 1.392 . S
C2020 C2023 1.511 . S
C2021 C2017 1.376 . S
C2021 C2020 1.392 . S
C2021 H2033 0.929 . S
C2022 C2018 1.531 . S
C2022 H2034 0.960 . S
C2022 H2035 0.962 . S
C2022 H2036 0.960 . S
C2023 C2020 1.511 . S
C2023 H2037 0.961 . S
C2023 H2038 0.961 . S
C2023 H2039 0.961 . S
C2024 C2025 1.370 . S
C2024 C2026 1.363 . S
C2024 H2040 0.931 . S
C2025 C2024 1.370 . S
C2025 C2029 1.408 . S
C2026 C2024 1.363 . S
C2026 C2027 1.370 . S
C2026 C2030 1.524 . S
C2027 C2019 1.503 . S
C2027 C2026 1.370 . S
C2027 C2028 1.403 . S
C2028 C2027 1.403 . S
C2028 C2029 1.404 . S
C2028 C2031 1.539 . S
C2029 C2025 1.408 . S
C2029 C2028 1.404 . S
C2029 H2041 0.930 . S
C2030 C2026 1.524 . S
C2030 H2042 0.956 . S
C2030 H2043 0.961 . S
C2030 H2044 0.961 . S
C2031 C2028 1.539 . S
C2031 H2045 0.958 . S
C2031 H2046 0.961 . S
C2031 H2047 0.960 . S
H2032 C2016 0.931 . S
H2033 C2021 0.929 . S
H2034 C2022 0.960 . S
H2035 C2022 0.962 . S
H2036 C2022 0.960 . S
H2037 C2023 0.961 . S
H2038 C2023 0.961 . S
H2039 C2023 0.961 . S
H2040 C2024 0.931 . S
H2041 C2029 0.930 . S
H2042 C2030 0.956 . S
H2043 C2030 0.961 . S
H2044 C2030 0.961 . S
H2045 C2031 0.958 . S
H2046 C2031 0.961 . S
H2047 C2031 0.960 . S
C2048 C2049 1.391 . S
C2048 C2050 1.394 . S
C2048 H2064 0.931 . S
C2049 C2048 1.391 . S
C2049 C2053 1.376 . S
C2050 C2048 1.394 . S
C2050 C2051 1.369 . S
C2050 C2054 1.531 . S
C2051 C2050 1.369 . S
C2051 C2052 1.410 . S
C2051 C2059 1.503 . S
C2052 C2051 1.410 . S
C2052 C2053 1.392 . S
C2052 C2055 1.511 . S
C2053 C2049 1.376 . S
C2053 C2052 1.392 . S
C2053 H2065 0.929 . S
C2054 C2050 1.531 . S
C2054 H2066 0.960 . S
C2054 H2067 0.962 . S
C2054 H2068 0.960 . S
C2055 C2052 1.511 . S
C2055 H2069 0.961 . S
C2055 H2070 0.961 . S
C2055 H2071 0.961 . S
C2056 C2057 1.370 . S
C2056 C2058 1.363 . S
C2056 H2072 0.931 . S
C2057 C2056 1.370 . S
C2057 C2061 1.408 . S
C2058 C2056 1.363 . S
C2058 C2059 1.370 . S
C2058 C2062 1.524 . S
C2059 C2051 1.503 . S
C2059 C2058 1.370 . S
C2059 C2060 1.403 . S
C2060 C2059 1.403 . S
C2060 C2061 1.404 . S
C2060 C2063 1.539 . S
C2061 C2057 1.408 . S
C2061 C2060 1.404 . S
C2061 H2073 0.930 . S
C2062 C2058 1.524 . S
C2062 H2074 0.956 . S
C2062 H2075 0.961 . S
C2062 H2076 0.961 . S
C2063 C2060 1.539 . S
C2063 H2077 0.958 . S
C2063 H2078 0.961 . S
C2063 H2079 0.960 . S
H2064 C2048 0.931 . S
H2065 C2053 0.929 . S
H2066 C2054 0.960 . S
H2067 C2054 0.962 . S
H2068 C2054 0.960 . S
H2069 C2055 0.961 . S
H2070 C2055 0.961 . S
H2071 C2055 0.961 . S
H2072 C2056 0.931 . S
H2073 C2061 0.930 . S
H2074 C2062 0.956 . S
H2075 C2062 0.961 . S
H2076 C2062 0.961 . S
H2077 C2063 0.958 . S
H2078 C2063 0.961 . S
H2079 C2063 0.960 . S
C545 C29 1.420 . S
C553 C408 1.440 . S
C577 C170 1.456 . S
C585 C63 1.424 . S
C609 C97 1.397 . S
C617 C476 1.447 . S
C641 C131 1.445 . S
C649 C238 1.425 . S
C673 C136 1.427 . S
C681 C301 1.432 . S
C705 C369 1.416 . S
C713 C204 1.441 . S
C737 C442 1.462 . S
C745 C335 1.419 . S
C769 C403 1.460 . S
C777 C510 1.422 . S
C801 C319 1.525 . S
C809 C0 1.570 . S
C833 C34 1.563 . S
C841 C353 1.556 . S
C865 C68 1.562 . S
C873 C387 1.556 . S
C897 C285 1.502 . S
C905 C102 1.578 . S
C929 C446 1.575 . S
C937 C165 1.584 . S
C961 C480 1.531 . S
C969 C199 1.593 . S
C993 C233 1.555 . S
C1001 C514 1.529 . S
C1025 C412 1.529 . S
C1033 C267 1.569 . S
C1057 C272 1.572 . S
C1065 C47 1.557 . S
C1089 C306 1.607 . S
C1097 C81 1.541 . S
C1121 C340 1.559 . S
C1129 C115 1.555 . S
C1153 C13 1.575 . S
C1161 C374 1.579 . S
C1185 C174 1.575 . S
C1193 C437 1.582 . S
C1217 C471 1.580 . S
C1225 C208 1.557 . S
C1249 C242 1.575 . S
C1257 C505 1.585 . S
C1281 C539 1.578 . S
C1289 C140 1.526 . S
C1313 C17 1.812 . S
C1321 C357 1.809 . S
C1345 C51 1.805 . S
C1353 C391 1.812 . S
C1377 C289 1.800 . S
C1385 C85 1.813 . S
C1409 C119 1.811 . S
C1417 C323 1.810 . S
C1441 C144 1.811 . S
C1449 C484 1.808 . S
C1473 C178 1.799 . S
C1481 C518 1.813 . S
C1505 C416 1.802 . S
C1513 C212 1.811 . S
C1537 C246 1.811 . S
C1545 C450 1.809 . S
C1569 C4 1.135 . S
C1577 C255 1.233 . S
C1601 C425 1.231 . S
C1609 C38 1.160 . S
C1633 C72 1.209 . S
C1641 C187 1.227 . S
C1665 C106 1.176 . S
C1673 C493 1.232 . S
C1697 C149 1.123 . S
C1705 C110 1.236 . S
C1729 C280 1.232 . S
C1737 C183 1.163 . S
C1761 C217 1.215 . S
C1769 C42 1.227 . S
C1793 C348 1.221 . S
C1801 C251 1.185 . S
C1825 C276 1.188 . S
C1833 C527 1.228 1_565 S
C1857 C153 1.218 . S
C1865 C310 1.191 . S
C1889 C459 1.219 1_545 S
C1897 C344 1.191 . S
C1921 C378 1.158 . S
C1929 C221 1.231 . S
C1953 C421 1.215 . S
C1961 C382 1.227 1_545 S
C1985 C455 1.211 . S
C1993 C8 1.227 . S
C2017 C314 1.223 1_565 S
C2025 C489 1.183 . S
C2049 C76 1.221 . S
C2057 C523 1.186 . S
