# Generated by pormake.
# Topology zfi, (5)-cn, num edge types: 1
# Building blocks:
#     Node 0, Type 0, BuildingBlock: XOMCOT_clean_sbu_1, # of connection points: 5
#     Node 1, Type 0, BuildingBlock: XOMCOT_clean_sbu_1, # of connection points: 5
#     Node 2, Type 0, BuildingBlock: XOMCOT_clean_sbu_1, # of connection points: 5
#     Node 3, Type 0, BuildingBlock: XOMCOT_clean_sbu_1, # of connection points: 5
#     Node 4, Type 0, BuildingBlock: XOMCOT_clean_sbu_1, # of connection points: 5
#     Node 5, Type 0, BuildingBlock: XOMCOT_clean_sbu_1, # of connection points: 5
#     Node 6, Type 0, BuildingBlock: XOMCOT_clean_sbu_1, # of connection points: 5
#     Node 7, Type 0, BuildingBlock: XOMCOT_clean_sbu_1, # of connection points: 5
#     Node 8, Type 0, BuildingBlock: XOMCOT_clean_sbu_1, # of connection points: 5
#     Node 9, Type 0, BuildingBlock: XOMCOT_clean_sbu_1, # of connection points: 5
#     Node 10, Type 0, BuildingBlock: XOMCOT_clean_sbu_1, # of connection points: 5
#     Node 11, Type 0, BuildingBlock: XOMCOT_clean_sbu_1, # of connection points: 5
#     Node 12, Type 0, BuildingBlock: XOMCOT_clean_sbu_1, # of connection points: 5
#     Node 13, Type 0, BuildingBlock: XOMCOT_clean_sbu_1, # of connection points: 5
#     Node 14, Type 0, BuildingBlock: XOMCOT_clean_sbu_1, # of connection points: 5
#     Node 15, Type 0, BuildingBlock: XOMCOT_clean_sbu_1, # of connection points: 5
#     Edge 16, Type (0, 0), BuildingBlock: CIFDUS_clean_linker_0, # of connection points: 2
#     Edge 17, Type (0, 0), BuildingBlock: CIFDUS_clean_linker_0, # of connection points: 2
#     Edge 18, Type (0, 0), BuildingBlock: CIFDUS_clean_linker_0, # of connection points: 2
#     Edge 19, Type (0, 0), BuildingBlock: CIFDUS_clean_linker_0, # of connection points: 2
#     Edge 20, Type (0, 0), BuildingBlock: CIFDUS_clean_linker_0, # of connection points: 2
#     Edge 21, Type (0, 0), BuildingBlock: CIFDUS_clean_linker_0, # of connection points: 2
#     Edge 22, Type (0, 0), BuildingBlock: CIFDUS_clean_linker_0, # of connection points: 2
#     Edge 23, Type (0, 0), BuildingBlock: CIFDUS_clean_linker_0, # of connection points: 2
#     Edge 24, Type (0, 0), BuildingBlock: CIFDUS_clean_linker_0, # of connection points: 2
#     Edge 25, Type (0, 0), BuildingBlock: CIFDUS_clean_linker_0, # of connection points: 2
#     Edge 26, Type (0, 0), BuildingBlock: CIFDUS_clean_linker_0, # of connection points: 2
#     Edge 27, Type (0, 0), BuildingBlock: CIFDUS_clean_linker_0, # of connection points: 2
#     Edge 28, Type (0, 0), BuildingBlock: CIFDUS_clean_linker_0, # of connection points: 2
#     Edge 29, Type (0, 0), BuildingBlock: CIFDUS_clean_linker_0, # of connection points: 2
#     Edge 30, Type (0, 0), BuildingBlock: CIFDUS_clean_linker_0, # of connection points: 2
#     Edge 31, Type (0, 0), BuildingBlock: CIFDUS_clean_linker_0, # of connection points: 2
#     Edge 32, Type (0, 0), BuildingBlock: CIFDUS_clean_linker_0, # of connection points: 2
#     Edge 33, Type (0, 0), BuildingBlock: CIFDUS_clean_linker_0, # of connection points: 2
#     Edge 34, Type (0, 0), BuildingBlock: CIFDUS_clean_linker_0, # of connection points: 2
#     Edge 35, Type (0, 0), BuildingBlock: CIFDUS_clean_linker_0, # of connection points: 2
#     Edge 36, Type (0, 0), BuildingBlock: CIFDUS_clean_linker_0, # of connection points: 2
#     Edge 37, Type (0, 0), BuildingBlock: CIFDUS_clean_linker_0, # of connection points: 2
#     Edge 38, Type (0, 0), BuildingBlock: CIFDUS_clean_linker_0, # of connection points: 2
#     Edge 39, Type (0, 0), BuildingBlock: CIFDUS_clean_linker_0, # of connection points: 2
#     Edge 40, Type (0, 0), BuildingBlock: CIFDUS_clean_linker_0, # of connection points: 2
#     Edge 41, Type (0, 0), BuildingBlock: CIFDUS_clean_linker_0, # of connection points: 2
#     Edge 42, Type (0, 0), BuildingBlock: CIFDUS_clean_linker_0, # of connection points: 2
#     Edge 43, Type (0, 0), BuildingBlock: CIFDUS_clean_linker_0, # of connection points: 2
#     Edge 44, Type (0, 0), BuildingBlock: CIFDUS_clean_linker_0, # of connection points: 2
#     Edge 45, Type (0, 0), BuildingBlock: CIFDUS_clean_linker_0, # of connection points: 2
#     Edge 46, Type (0, 0), BuildingBlock: CIFDUS_clean_linker_0, # of connection points: 2
#     Edge 47, Type (0, 0), BuildingBlock: CIFDUS_clean_linker_0, # of connection points: 2
#     Edge 48, Type (0, 0), BuildingBlock: CIFDUS_clean_linker_0, # of connection points: 2
#     Edge 49, Type (0, 0), BuildingBlock: CIFDUS_clean_linker_0, # of connection points: 2
#     Edge 50, Type (0, 0), BuildingBlock: CIFDUS_clean_linker_0, # of connection points: 2
#     Edge 51, Type (0, 0), BuildingBlock: CIFDUS_clean_linker_0, # of connection points: 2
#     Edge 52, Type (0, 0), BuildingBlock: CIFDUS_clean_linker_0, # of connection points: 2
#     Edge 53, Type (0, 0), BuildingBlock: CIFDUS_clean_linker_0, # of connection points: 2
#     Edge 54, Type (0, 0), BuildingBlock: CIFDUS_clean_linker_0, # of connection points: 2
#     Edge 55, Type (0, 0), BuildingBlock: CIFDUS_clean_linker_0, # of connection points: 2
# Relax obj value: 0.112
# Max RMSD: 0.128
# Mean RMSD: 0.128
data_MOF--net-zfi--node1-XOMCOT_clean_sbu_1--edge1-CIFDUS_clean_linker_0
_symmetry_space_group_name_H-M    P1
_symmetry_Int_Tables_number       1
_symmetry_cell_setting            triclinic
loop_
_symmetry_equiv_pos_as_xyz
'x, y, z'
_cell_length_a     34.762164
_cell_length_b     34.780738
_cell_length_c     43.351938
_cell_angle_alpha  89.959298
_cell_angle_beta   90.123329
_cell_angle_gamma 89.843361
loop_
_atom_site_label
_atom_site_type_symbol
_atom_site_fract_x
_atom_site_fract_y
_atom_site_fract_z
_atom_type_partial_charge
C0 C 0.65204 0.1296 0.07764 0.0
C1 C 0.6712 0.16412 0.07569 0.0
N2 N 0.6862 0.17238 0.10357 0.0
N3 N 0.65476 0.11578 0.10664 0.0
C4 C 0.67542 0.14285 0.12204 0.0
H5 H 0.63932 0.11437 0.05847 0.0
Co6 Co 0.64387 0.06444 0.11793 0.0
C7 C 0.62179 0.06539 0.18532 0.0
O8 O 0.6358 0.03047 0.18818 0.0
N9 N 0.63347 0.0127 0.12841 0.0
C10 C 0.63748 0.95003 0.1387 0.0
C11 C 0.65796 0.98263 0.13168 0.0
C12 C 0.59824 0.99726 0.13322 0.0
N13 N 0.59996 0.95937 0.1395 0.0
O14 O 0.59296 0.0668 0.09793 0.0
H15 H 0.68876 0.98372 0.12892 0.0
H16 H 0.57164 0.01346 0.13232 0.0
O17 O 0.62302 0.08238 0.15889 0.0
C18 C 0.59363 0.04904 0.07188 0.0
O19 O 0.62719 0.03715 0.06167 0.0
N20 N 0.69464 0.05977 0.13268 0.0
C21 C 0.76958 0.0345 0.14319 0.0
C22 C 0.74732 0.0491 0.16751 0.0
C23 C 0.70999 0.06254 0.16164 0.0
C24 C 0.71735 0.04957 0.10844 0.0
C25 C 0.75489 0.03672 0.11314 0.0
H26 H 0.69376 0.07407 0.18057 0.0
H27 H 0.70513 0.04862 0.08549 0.0
H28 H 0.68514 0.13945 0.14561 0.0
H29 H 0.67528 0.18101 0.05497 0.0
H30 H 0.6491 0.92137 0.14184 0.0
H31 H 0.75825 0.049 0.19093 0.0
H32 H 0.77112 0.0259 0.09367 0.0
C33 C 0.3752 0.62132 0.12393 0.0
C34 C 0.33782 0.63441 0.12191 0.0
N35 N 0.33823 0.67294 0.11826 0.0
N36 N 0.3996 0.65122 0.12143 0.0
C37 C 0.37608 0.6822 0.11776 0.0
H38 H 0.38395 0.59187 0.12791 0.0
Co39 Co 0.45383 0.64856 0.12659 0.0
C40 C 0.46479 0.62821 0.19362 0.0
O41 O 0.49645 0.64871 0.1949 0.0
N42 N 0.50811 0.64529 0.13177 0.0
C43 C 0.57085 0.65733 0.13612 0.0
C44 C 0.53537 0.67294 0.12996 0.0
C45 C 0.52834 0.61286 0.1384 0.0
N46 N 0.56637 0.61957 0.14141 0.0
O47 O 0.45548 0.59776 0.10785 0.0
H48 H 0.53064 0.70278 0.12462 0.0
H49 H 0.51531 0.58495 0.14182 0.0
O50 O 0.44581 0.62613 0.16823 0.0
C51 C 0.46785 0.59829 0.08004 0.0
O52 O 0.47307 0.6319 0.06684 0.0
N53 N 0.45365 0.69946 0.14129 0.0
C54 C 0.47072 0.7759 0.15376 0.0
C55 C 0.45713 0.75166 0.17723 0.0
C56 C 0.44761 0.71354 0.17029 0.0
C57 C 0.46173 0.72398 0.11765 0.0
C58 C 0.47063 0.7623 0.12336 0.0
H59 H 0.43666 0.69556 0.18845 0.0
H60 H 0.46446 0.71275 0.09449 0.0
H61 H 0.38635 0.71135 0.11602 0.0
H62 H 0.31238 0.61668 0.12345 0.0
H63 H 0.598 0.6725 0.13631 0.0
H64 H 0.45533 0.76165 0.20084 0.0
H65 H 0.48059 0.78002 0.10446 0.0
C66 C 0.89536 0.37495 0.11022 0.0
C67 C 0.88218 0.33791 0.10628 0.0
N68 N 0.84436 0.33723 0.11272 0.0
N69 N 0.86594 0.3982 0.1186 0.0
C70 C 0.83531 0.37381 0.12036 0.0
H71 H 0.92449 0.38425 0.10597 0.0
Co72 Co 0.86747 0.45335 0.12168 0.0
C73 C 0.88562 0.47171 0.18841 0.0
O74 O 0.86858 0.5052 0.18506 0.0
N75 N 0.86877 0.50805 0.12359 0.0
C76 C 0.85344 0.56991 0.1178 0.0
C77 C 0.83952 0.53312 0.11869 0.0
C78 C 0.90028 0.53093 0.12594 0.0
N79 N 0.89167 0.5685 0.12215 0.0
O80 O 0.91989 0.45494 0.10475 0.0
H81 H 0.80985 0.52584 0.11482 0.0
H82 H 0.92931 0.5202 0.12891 0.0
O83 O 0.88727 0.44855 0.16529 0.0
C84 C 0.92072 0.46559 0.07637 0.0
O85 O 0.88772 0.46946 0.06184 0.0
N86 N 0.81536 0.45358 0.13392 0.0
C87 C 0.73724 0.47019 0.13992 0.0
C88 C 0.76031 0.46422 0.16613 0.0
C89 C 0.79934 0.45511 0.16265 0.0
C90 C 0.79242 0.45515 0.10835 0.0
C91 C 0.75328 0.46345 0.1108 0.0
H92 H 0.81628 0.45061 0.18308 0.0
H93 H 0.80534 0.45286 0.08575 0.0
H94 H 0.80622 0.38257 0.12554 0.0
H95 H 0.89889 0.31355 0.09835 0.0
H96 H 0.83684 0.5957 0.11329 0.0
H97 H 0.74861 0.468 0.18907 0.0
H98 H 0.73656 0.46764 0.08995 0.0
C99 C 0.13766 0.87825 0.07844 0.0
C100 C 0.17406 0.863 0.07618 0.0
N101 N 0.1789 0.83676 0.09873 0.0
N102 N 0.11913 0.86214 0.10251 0.0
C103 C 0.14523 0.83697 0.11449 0.0
H104 H 0.12529 0.89881 0.0626 0.0
Co105 Co 0.06653 0.86969 0.11286 0.0
C106 C 0.06573 0.89246 0.18101 0.0
O107 O 0.02807 0.89096 0.18225 0.0
N108 N 0.01362 0.87706 0.12217 0.0
C109 C 0.95055 0.86887 0.12902 0.0
C110 C 0.98514 0.85066 0.12386 0.0
C111 C 0.99511 0.91117 0.12568 0.0
N112 N 0.95701 0.90691 0.12999 0.0
O113 O 0.06775 0.92243 0.09672 0.0
H114 H 0.98863 0.82008 0.12062 0.0
H115 H 1.00921 0.93885 0.12544 0.0
O116 O 0.08304 0.88552 0.15538 0.0
C117 C 0.05209 0.92353 0.06982 0.0
O118 O 0.04277 0.89062 0.05696 0.0
N119 N 0.06324 0.81774 0.12441 0.0
C120 C 0.04004 0.74139 0.12949 0.0
C121 C 0.04609 0.76374 0.15602 0.0
C122 C 0.05782 0.80208 0.153 0.0
C123 C 0.06094 0.79535 0.09872 0.0
C124 C 0.04961 0.75708 0.10073 0.0
H125 H 0.0598 0.81931 0.1735 0.0
H126 H 0.06542 0.80816 0.07627 0.0
H127 H 0.13937 0.81849 0.13399 0.0
H128 H 0.19474 0.86952 0.0583 0.0
H129 H 0.9226 0.85536 0.13056 0.0
H130 H 0.03904 0.7527 0.17867 0.0
H131 H 0.04609 0.74061 0.07971 0.0
C132 C 0.19265 0.93038 0.45979 0.0
C133 C 0.2124 0.89877 0.47031 0.0
N134 N 0.20602 0.86919 0.45095 0.0
N135 N 0.1732 0.92141 0.43387 0.0
C136 C 0.18183 0.88356 0.42905 0.0
H137 H 0.194 0.95886 0.46968 0.0
Co138 Co 0.14744 0.96118 0.41155 0.0
C139 C 0.14804 0.90691 0.3543 0.0
O140 O 0.18451 0.89749 0.35491 0.0
N141 N 0.1213 1.00038 0.38898 0.0
C142 C 0.10348 0.03635 0.3489 0.0
C143 C 0.12333 1.00425 0.35798 0.0
C144 C 0.09983 0.03094 0.39817 0.0
N145 N 0.08888 0.05341 0.37414 0.0
O146 O 0.09931 0.95035 0.43325 0.0
H147 H 0.13976 0.98591 0.34281 0.0
H148 H 0.09402 0.03779 0.42203 0.0
O149 O 0.13347 0.92711 0.37617 0.0
C150 C 0.09804 0.97138 0.45762 0.0
O151 O 0.12849 0.99216 0.46414 0.0
N152 N 0.19563 0.97719 0.39438 0.0
C153 C 0.26609 0.01129 0.379 0.0
C154 C 0.2623 0.9712 0.37948 0.0
C155 C 0.22697 0.95471 0.38774 0.0
C156 C 0.20037 0.01616 0.39615 0.0
C157 C 0.23455 0.0337 0.38764 0.0
H158 H 0.22625 0.92409 0.39085 0.0
H159 H 0.17824 0.0343 0.40574 0.0
H160 H 0.17159 0.86713 0.40956 0.0
H161 H 0.23158 0.89814 0.49001 0.0
H162 H 0.10076 0.04676 0.32546 0.0
H163 H 0.28669 0.95278 0.37454 0.0
H164 H 0.23689 0.06467 0.38961 0.0
C165 C 0.63948 0.14273 0.45851 0.0
C166 C 0.67612 0.15723 0.46135 0.0
N167 N 0.68189 0.18312 0.4387 0.0
N168 N 0.62183 0.159 0.434 0.0
C169 C 0.64866 0.18327 0.42226 0.0
H170 H 0.62609 0.12307 0.47448 0.0
Co171 Co 0.56893 0.15462 0.42389 0.0
C172 C 0.56499 0.13863 0.3552 0.0
O173 O 0.53157 0.15623 0.35353 0.0
N174 N 0.51612 0.15039 0.41456 0.0
C175 C 0.45357 0.16121 0.40746 0.0
C176 C 0.48826 0.17761 0.41508 0.0
C177 C 0.49736 0.11765 0.40697 0.0
N178 N 0.45946 0.1235 0.4025 0.0
O179 O 0.56747 0.10169 0.43972 0.0
H180 H 0.49235 0.20745 0.42098 0.0
H181 H 0.51124 0.08994 0.40449 0.0
O182 O 0.58279 0.13658 0.38126 0.0
C183 C 0.5508 0.10023 0.46614 0.0
O184 O 0.54118 0.13294 0.47923 0.0
N185 N 0.56827 0.20719 0.41309 0.0
C186 C 0.55146 0.28559 0.41 0.0
C187 C 0.56018 0.26476 0.38314 0.0
C188 C 0.56929 0.22554 0.38521 0.0
C189 C 0.56323 0.22781 0.43951 0.0
C190 C 0.5548 0.26699 0.43853 0.0
H191 H 0.57631 0.21041 0.36438 0.0
H192 H 0.56326 0.21303 0.46147 0.0
H193 H 0.64351 0.20179 0.40265 0.0
H194 H 0.69608 0.15081 0.47985 0.0
H195 H 0.42593 0.17561 0.40665 0.0
H196 H 0.55888 0.27843 0.3607 0.0
H197 H 0.54829 0.28186 0.45984 0.0
C198 C 0.37765 0.63983 0.46609 0.0
C199 C 0.36065 0.67549 0.46879 0.0
N200 N 0.33849 0.68191 0.44376 0.0
N201 N 0.36671 0.62329 0.43936 0.0
C202 C 0.34321 0.65006 0.42604 0.0
H203 H 0.39496 0.62601 0.48362 0.0
Co204 Co 0.37331 0.57007 0.42988 0.0
C205 C 0.39708 0.5649 0.36315 0.0
O206 O 0.38018 0.53127 0.36107 0.0
N207 N 0.37915 0.51661 0.42155 0.0
C208 C 0.36766 0.45447 0.41319 0.0
C209 C 0.35152 0.48929 0.42055 0.0
C210 C 0.41217 0.497 0.41556 0.0
N211 N 0.40575 0.45935 0.41002 0.0
O212 O 0.42449 0.56897 0.44894 0.0
H213 H 0.32131 0.49374 0.42466 0.0
H214 H 0.44025 0.51026 0.41424 0.0
O215 O 0.39589 0.58362 0.38875 0.0
C216 C 0.42483 0.55204 0.47527 0.0
O217 O 0.39159 0.54246 0.48743 0.0
N218 N 0.3224 0.56914 0.41488 0.0
C219 C 0.24759 0.54593 0.4024 0.0
C220 C 0.27155 0.55859 0.3785 0.0
C221 C 0.30882 0.57099 0.38532 0.0
C222 C 0.29773 0.56228 0.43864 0.0
C223 C 0.26012 0.55034 0.43293 0.0
H224 H 0.32653 0.58069 0.36662 0.0
H225 H 0.30856 0.56228 0.46205 0.0
H226 H 0.32754 0.64522 0.40483 0.0
H227 H 0.36336 0.69462 0.48835 0.0
H228 H 0.35257 0.42745 0.41066 0.0
H229 H 0.26222 0.55713 0.35467 0.0
H230 H 0.24243 0.54123 0.45211 0.0
C231 C 0.87335 0.40195 0.41598 0.0
C232 C 0.83643 0.38776 0.41676 0.0
N233 N 0.83798 0.34945 0.42155 0.0
N234 N 0.89862 0.373 0.42045 0.0
C235 C 0.87607 0.34142 0.42399 0.0
H236 H 0.88124 0.43148 0.41152 0.0
Co237 Co 0.95288 0.37777 0.41774 0.0
C238 C 0.96857 0.39105 0.3503 0.0
O239 O 1.0009 0.37184 0.35353 0.0
N240 N 1.00713 0.38333 0.41497 0.0
C241 C 0.07096 0.37613 0.41406 0.0
C242 C 0.03629 0.35751 0.41712 0.0
C243 C 0.02521 0.41736 0.4106 0.0
N244 N 0.06373 0.41376 0.41021 0.0
O245 O 0.95075 0.43007 0.43438 0.0
H246 H 0.03331 0.32701 0.4207 0.0
H247 H 0.01053 0.44455 0.40746 0.0
O248 O 0.94674 0.39599 0.37391 0.0
C249 C 0.9607 0.43003 0.46293 0.0
O250 O 0.96372 0.39657 0.47685 0.0
N251 N 0.9564 0.32564 0.40644 0.0
C252 C 0.97171 0.24709 0.40166 0.0
C253 C 0.95967 0.26835 0.37574 0.0
C254 C 0.95123 0.30763 0.37876 0.0
C255 C 0.96464 0.30465 0.43221 0.0
C256 C 0.97268 0.26549 0.43035 0.0
H257 H 0.94096 0.32316 0.35886 0.0
H258 H 0.96696 0.31906 0.45424 0.0
H259 H 0.88729 0.31271 0.42707 0.0
H260 H 0.81053 0.40463 0.41364 0.0
H261 H 0.09929 0.36324 0.41546 0.0
H262 H 0.95724 0.25482 0.35333 0.0
H263 H 0.9816 0.25032 0.451 0.0
C264 C 0.38993 0.87345 0.92668 0.0
C265 C 0.36991 0.8396 0.93074 0.0
N266 N 0.33199 0.84766 0.9312 0.0
N267 N 0.36498 0.90316 0.92432 0.0
C268 C 0.32986 0.88633 0.92755 0.0
H269 H 0.42078 0.87592 0.92433 0.0
Co270 Co 0.37826 0.95512 0.91404 0.0
C271 C 0.39113 0.91237 0.8534 0.0
O272 O 0.36559 0.88583 0.85991 0.0
N273 N 0.39137 1.00589 0.90318 0.0
C274 C 0.40732 0.05526 0.87313 0.0
C275 C 0.38995 0.02002 0.8741 0.0
C276 C 0.40902 0.03389 0.91965 0.0
N277 N 0.41955 0.06382 0.9017 0.0
O278 O 0.42898 0.94983 0.93358 0.0
H279 H 0.37889 1.00494 0.85424 0.0
H280 H 0.41602 0.03171 0.94387 0.0
O281 O 0.39832 0.93875 0.87323 0.0
C282 C 0.42844 0.95923 0.96224 0.0
O283 O 0.3947 0.96418 0.97528 0.0
N284 N 0.32843 0.96419 0.89905 0.0
C285 C 0.25507 0.99387 0.88825 0.0
C286 C 0.27717 0.97934 0.86382 0.0
C287 C 0.31391 0.96434 0.86971 0.0
C288 C 0.30696 0.9777 0.92296 0.0
C289 C 0.27005 0.99209 0.9182 0.0
H290 H 0.33099 0.95527 0.85038 0.0
H291 H 0.31924 0.97821 0.94591 0.0
H292 H 0.30288 0.90162 0.92583 0.0
H293 H 0.38238 0.81116 0.93283 0.0
H294 H 0.4118 0.07276 0.85279 0.0
H295 H 0.26663 0.98073 0.84031 0.0
H296 H 0.25424 1.00371 0.93759 0.0
C297 C 0.64673 0.39357 0.95821 0.0
C298 C 0.6831 0.3781 0.96043 0.0
N299 N 0.68543 0.34755 0.94146 0.0
N300 N 0.62564 0.3732 0.93779 0.0
C301 C 0.6504 0.34548 0.9278 0.0
H302 H 0.63628 0.41742 0.97176 0.0
Co303 Co 0.57191 0.3793 0.92967 0.0
C304 C 0.56468 0.4003 0.86205 0.0
O305 O 0.52995 0.38559 0.86111 0.0
N306 N 0.51845 0.38524 0.92246 0.0
C307 C 0.45533 0.37592 0.91736 0.0
C308 C 0.49033 0.35839 0.92226 0.0
C309 C 0.49946 0.41889 0.91801 0.0
N310 N 0.46124 0.41395 0.91488 0.0
O311 O 0.57217 0.43107 0.94688 0.0
H312 H 0.49442 0.32797 0.9259 0.0
H313 H 0.51331 0.44667 0.91685 0.0
O314 O 0.58412 0.39918 0.88735 0.0
C315 C 0.55828 0.43099 0.97428 0.0
O316 O 0.55137 0.39752 0.98721 0.0
N317 N 0.56947 0.32766 0.91703 0.0
C318 C 0.54977 0.25037 0.91027 0.0
C319 C 0.55793 0.27332 0.88436 0.0
C320 C 0.56836 0.31183 0.88824 0.0
C321 C 0.56519 0.305 0.94244 0.0
C322 C 0.55549 0.26631 0.93963 0.0
H323 H 0.57449 0.32849 0.86801 0.0
H324 H 0.56717 0.31777 0.96513 0.0
H325 H 0.64281 0.32357 0.91124 0.0
H326 H 0.7055 0.38766 0.97598 0.0
H327 H 0.42753 0.36197 0.91678 0.0
H328 H 0.55453 0.26236 0.86116 0.0
H329 H 0.5511 0.24954 0.96036 0.0
C330 C 0.14006 0.63598 0.95799 0.0
C331 C 0.1586 0.67104 0.95923 0.0
N332 N 0.18197 0.67406 0.93458 0.0
N333 N 0.15123 0.61666 0.93254 0.0
C334 C 0.17624 0.64108 0.91854 0.0
H335 H 0.12184 0.62432 0.97584 0.0
Co336 Co 0.14382 0.56324 0.92439 0.0
C337 C 0.12147 0.55689 0.85699 0.0
O338 O 0.13759 0.52274 0.85562 0.0
N339 N 0.13718 0.50987 0.91717 0.0
C340 C 0.14815 0.44739 0.91005 0.0
C341 C 0.16435 0.48193 0.91786 0.0
C342 C 0.10426 0.49094 0.90992 0.0
N343 N 0.11046 0.45311 0.90496 0.0
O344 O 0.09229 0.56405 0.94294 0.0
H345 H 0.1943 0.48583 0.92337 0.0
H346 H 0.07659 0.50487 0.90709 0.0
O347 O 0.12235 0.57596 0.88246 0.0
C348 C 0.0919 0.54883 0.96996 0.0
O349 O 0.12511 0.53949 0.98248 0.0
N350 N 0.19518 0.56035 0.9103 0.0
C351 C 0.27087 0.5373 0.90037 0.0
C352 C 0.24736 0.54821 0.87552 0.0
C353 C 0.20965 0.56043 0.88101 0.0
C354 C 0.21915 0.55465 0.93482 0.0
C355 C 0.25713 0.54283 0.93041 0.0
H356 H 0.19252 0.56905 0.86157 0.0
H357 H 0.20763 0.55592 0.95796 0.0
H358 H 0.19175 0.63396 0.89775 0.0
H359 H 0.15723 0.69131 0.97813 0.0
H360 H 0.16291 0.42001 0.90839 0.0
H361 H 0.25754 0.54586 0.852 0.0
H362 H 0.27437 0.53503 0.9503 0.0
C363 C 0.87401 0.12377 0.92792 0.0
C364 C 0.83712 0.13808 0.93034 0.0
N365 N 0.83863 0.17682 0.9303 0.0
N366 N 0.89926 0.15311 0.92653 0.0
C367 C 0.8766 0.18502 0.92812 0.0
H368 H 0.88168 0.09368 0.92648 0.0
Co369 Co 0.9534 0.14844 0.92009 0.0
C370 C 0.96121 0.13077 0.85208 0.0
O371 O 0.99384 0.14967 0.85088 0.0
N372 N 1.00715 0.14337 0.91348 0.0
C373 C 0.06998 0.15296 0.9066 0.0
C374 C 0.03514 0.17035 0.91223 0.0
C375 C 0.02611 0.10982 0.90865 0.0
N376 N 0.06414 0.1149 0.90452 0.0
O377 O 0.95361 0.09652 0.93764 0.0
H378 H 0.03115 0.20089 0.91508 0.0
H379 H 0.01233 0.08199 0.90774 0.0
O380 O 0.94283 0.12857 0.87773 0.0
C381 C 0.96648 0.09589 0.96542 0.0
O382 O 0.97302 0.12899 0.97902 0.0
N383 N 0.95512 0.20014 0.90761 0.0
C384 C 0.96893 0.27873 0.9023 0.0
C385 C 0.95834 0.25702 0.87633 0.0
C386 C 0.9505 0.21765 0.87961 0.0
C387 C 0.96294 0.22146 0.93324 0.0
C388 C 0.96979 0.26074 0.93115 0.0
H389 H 0.94137 0.2017 0.85964 0.0
H390 H 0.96546 0.20729 0.95537 0.0
H391 H 0.88739 0.21397 0.92651 0.0
H392 H 0.81125 0.12097 0.93173 0.0
H393 H 0.09764 0.16706 0.90498 0.0
H394 H 0.95677 0.27024 0.85373 0.0
H395 H 0.97799 0.27639 0.95173 0.0
C396 C 0.88364 0.13184 0.57962 0.0
C397 C 0.86821 0.16814 0.57685 0.0
N398 N 0.84237 0.17347 0.59956 0.0
N399 N 0.86811 0.11382 0.60419 0.0
C400 C 0.84302 0.14017 0.6159 0.0
H401 H 0.90393 0.11914 0.56378 0.0
Co402 Co 0.8766 0.06129 0.61508 0.0
C403 C 0.89963 0.06022 0.68232 0.0
O404 O 0.88426 0.02593 0.68502 0.0
N405 N 0.88498 1.00877 0.62514 0.0
C406 C 0.87892 0.946 0.63447 0.0
C407 C 0.85951 0.97961 0.62806 0.0
C408 C 0.91968 0.99176 0.62969 0.0
N409 N 0.91674 0.95378 0.63529 0.0
O410 O 0.92762 0.06168 0.59546 0.0
H411 H 0.82876 0.98196 0.62535 0.0
H412 H 0.94683 1.00687 0.62897 0.0
O413 O 0.89843 0.07767 0.6561 0.0
C414 C 0.92754 0.04344 0.56965 0.0
O415 O 0.89434 0.03102 0.55911 0.0
N416 N 0.82565 0.05852 0.62989 0.0
C417 C 0.75023 0.03566 0.64156 0.0
C418 C 0.77354 0.04988 0.66544 0.0
C419 C 0.8111 0.06192 0.65904 0.0
C420 C 0.80201 0.04889 0.60601 0.0
C421 C 0.76425 0.03717 0.6113 0.0
H422 H 0.82813 0.07306 0.67768 0.0
H423 H 0.81362 0.04737 0.58291 0.0
H424 H 0.82496 0.13491 0.63571 0.0
H425 H 0.87435 0.1884 0.55856 0.0
H426 H 0.86633 0.91775 0.63708 0.0
H427 H 0.76324 0.0505 0.689 0.0
H428 H 0.7473 0.02665 0.5921 0.0
C429 C 0.3856 0.87451 0.57158 0.0
C430 C 0.3499 0.85832 0.56752 0.0
N431 N 0.34281 0.83441 0.59129 0.0
N432 N 0.40148 0.8614 0.598 0.0
C433 C 0.37454 0.83695 0.60953 0.0
H434 H 0.39946 0.89357 0.55542 0.0
Co435 Co 0.45266 0.87131 0.61159 0.0
C436 C 0.43632 0.91513 0.67103 0.0
O437 O 0.45534 0.94599 0.6628 0.0
N438 N 0.50436 0.88088 0.62469 0.0
C439 C 0.56668 0.8738 0.63618 0.0
C440 C 0.53288 0.855 0.62976 0.0
C441 C 0.52231 0.91533 0.62756 0.0
N442 N 0.55998 0.91177 0.63457 0.0
O443 O 0.45093 0.92328 0.59398 0.0
H444 H 0.53032 0.82422 0.62752 0.0
H445 H 0.50861 0.9428 0.62355 0.0
O446 O 0.43273 0.88718 0.6521 0.0
C447 C 0.46918 0.92458 0.56823 0.0
O448 O 0.48202 0.89201 0.55678 0.0
N449 N 0.45653 0.82031 0.62558 0.0
C450 C 0.4831 0.74651 0.63891 0.0
C451 C 0.47397 0.77222 0.66277 0.0
C452 C 0.46067 0.80914 0.65566 0.0
C453 C 0.46179 0.7946 0.60227 0.0
C454 C 0.47499 0.75742 0.60841 0.0
H455 H 0.45724 0.82939 0.67428 0.0
H456 H 0.45866 0.80402 0.57861 0.0
H457 H 0.37851 0.82063 0.63056 0.0
H458 H 0.33137 0.86257 0.5477 0.0
H459 H 0.59454 0.86055 0.63983 0.0
H460 H 0.47949 0.76475 0.68664 0.0
H461 H 0.48187 0.73865 0.58927 0.0
C462 C 0.62438 0.36749 0.62064 0.0
C463 C 0.63875 0.33059 0.61953 0.0
N464 N 0.67741 0.33217 0.61728 0.0
N465 N 0.65354 0.39287 0.6189 0.0
C466 C 0.68552 0.37032 0.61671 0.0
H467 H 0.59443 0.37521 0.6234 0.0
Co468 Co 0.64781 0.44716 0.62295 0.0
C469 C 0.62679 0.45922 0.68986 0.0
O470 O 0.64455 0.4925 0.69009 0.0
N471 N 0.64146 0.5013 0.62709 0.0
C472 C 0.6491 0.56489 0.62988 0.0
C473 C 0.66756 0.53014 0.6266 0.0
C474 C 0.6073 0.51972 0.63063 0.0
N475 N 0.61119 0.5582 0.63222 0.0
O476 O 0.59657 0.44546 0.60417 0.0
H477 H 0.69818 0.52693 0.6239 0.0
H478 H 0.57988 0.50524 0.63234 0.0
O479 O 0.62623 0.439 0.66505 0.0
C480 C 0.59603 0.45817 0.57638 0.0
O481 O 0.6292 0.46487 0.56294 0.0
N482 N 0.69892 0.45055 0.63714 0.0
C483 C 0.7743 0.47416 0.64751 0.0
C484 C 0.75143 0.46111 0.67205 0.0
C485 C 0.71389 0.44837 0.66625 0.0
C486 C 0.72228 0.45863 0.61277 0.0
C487 C 0.76005 0.47062 0.61741 0.0
H488 H 0.69695 0.4382 0.68532 0.0
H489 H 0.71036 0.45884 0.5897 0.0
H490 H 0.71445 0.38147 0.61591 0.0
H491 H 0.62175 0.30462 0.62058 0.0
H492 H 0.66241 0.59299 0.62966 0.0
H493 H 0.76198 0.4621 0.69556 0.0
H494 H 0.7767 0.48012 0.59775 0.0
C495 C 0.14892 0.61814 0.61659 0.0
C496 C 0.18572 0.63259 0.61521 0.0
N497 N 0.18376 0.67104 0.61148 0.0
N498 N 0.12329 0.64709 0.61365 0.0
C499 C 0.14555 0.67899 0.6103 0.0
H500 H 0.14137 0.58841 0.62056 0.0
Co501 Co 0.06922 0.64131 0.61854 0.0
C502 C 0.05904 0.61943 0.68538 0.0
O503 O 0.02624 0.63824 0.68616 0.0
N504 N 0.01523 0.63477 0.62363 0.0
C505 C 0.95179 0.64166 0.62952 0.0
C506 C 0.986 0.66057 0.62484 0.0
C507 C 0.99757 0.60035 0.62744 0.0
N508 N 0.95924 0.6038 0.63099 0.0
O509 O 0.07051 0.59089 0.5985 0.0
H510 H 0.98864 0.6913 0.62276 0.0
H511 H 0.01257 0.57307 0.62827 0.0
O512 O 0.07854 0.61838 0.6602 0.0
C513 C 0.05829 0.59209 0.57054 0.0
O514 O 0.05276 0.62607 0.55799 0.0
N515 N 0.06626 0.69181 0.63387 0.0
C516 C 0.04486 0.7673 0.64655 0.0
C517 C 0.05969 0.74359 0.66999 0.0
C518 C 0.07139 0.70601 0.66296 0.0
C519 C 0.0563 0.71589 0.61035 0.0
C520 C 0.04531 0.75371 0.61615 0.0
H521 H 0.08332 0.68848 0.6811 0.0
H522 H 0.05401 0.70462 0.58717 0.0
H523 H 0.13414 0.70782 0.60845 0.0
H524 H 0.21191 0.6159 0.61728 0.0
H525 H 0.92353 0.65465 0.6311 0.0
H526 H 0.06108 0.75361 0.69362 0.0
H527 H 0.03437 0.77106 0.59729 0.0
H528 H 0.59482 0.90164 0.18006 0.0
H529 H 0.53445 0.95863 0.10616 0.0
H530 H 0.48477 0.90881 0.10685 0.0
H531 H 0.46318 0.84497 0.12444 0.0
H532 H 0.52408 0.7882 0.19845 0.0
H533 H 0.5682 0.84238 0.20246 0.0
C534 C 0.57045 0.90323 0.16445 0.0
C535 C 0.56835 0.93324 0.14286 0.0
C536 C 0.54211 0.8746 0.16508 0.0
C537 C 0.53648 0.93567 0.12298 0.0
C538 C 0.50825 0.90714 0.12329 0.0
C539 C 0.48565 0.84491 0.14185 0.0
C540 C 0.49055 0.81252 0.16094 0.0
C541 C 0.51137 0.8759 0.14367 0.0
C542 C 0.51948 0.81291 0.18365 0.0
C543 C 0.54504 0.84368 0.18571 0.0
H544 H 0.71848 0.53257 0.17365 0.0
H545 H 0.67035 0.45019 0.11027 0.0
H546 H 0.61063 0.4877 0.10749 0.0
H547 H 0.57489 0.54778 0.11907 0.0
H548 H 0.62583 0.63152 0.17972 0.0
H549 H 0.68145 0.58962 0.18795 0.0
C550 C 0.69453 0.52226 0.1599 0.0
C551 C 0.69874 0.48858 0.14232 0.0
C552 C 0.66094 0.54456 0.15767 0.0
C553 C 0.66777 0.47607 0.124 0.0
C554 C 0.63371 0.49757 0.12234 0.0
C555 C 0.59792 0.55633 0.13449 0.0
C556 C 0.59654 0.59266 0.14868 0.0
C557 C 0.63035 0.53243 0.13844 0.0
C558 C 0.62664 0.60382 0.16835 0.0
C559 C 0.65834 0.57987 0.17308 0.0
H560 H 0.9812 0.71953 0.09316 0.0
H561 H 0.04994 0.68113 0.17017 0.0
H562 H 0.01104 0.62245 0.17389 0.0
H563 H 0.95529 0.58331 0.15603 0.0
H564 H 0.88664 0.62466 0.07997 0.0
H565 H 0.92802 0.68068 0.07472 0.0
C566 C 0.98826 0.69801 0.1104 0.0
C567 C 0.01873 0.70445 0.1311 0.0
C568 C 0.96558 0.66493 0.11262 0.0
C569 C 0.02664 0.67679 0.15393 0.0
C570 C 1.00444 0.64326 0.15603 0.0
C571 C 0.94981 0.60453 0.13822 0.0
C572 C 0.91782 0.60016 0.11858 0.0
C573 C 0.97354 0.63718 0.13564 0.0
C574 C 0.91072 0.62781 0.09564 0.0
C575 C 0.93444 0.65974 0.09255 0.0
H576 H 0.89608 0.90858 0.16769 0.0
H577 H 0.95437 0.9723 0.09667 0.0
H578 H 0.90277 0.0204 0.09642 0.0
H579 H 0.83827 0.04107 0.11346 0.0
H580 H 0.78076 0.97784 0.18538 0.0
H581 H 0.83505 0.93329 0.1888 0.0
C582 C 0.89744 0.93321 0.1524 0.0
C583 C 0.92855 0.93684 0.13202 0.0
C584 C 0.8679 0.96083 0.15264 0.0
C585 C 0.93061 0.96909 0.11257 0.0
C586 C 0.90108 0.99645 0.11236 0.0
C587 C 0.838 0.01788 0.13019 0.0
C588 C 0.80554 0.01263 0.14905 0.0
C589 C 0.86922 0.99221 0.13189 0.0
C590 C 0.80558 0.98269 0.17083 0.0
C591 C 0.83643 0.95696 0.17258 0.0
H592 H 0.02049 0.21938 0.35843 0.0
H593 H 0.95694 0.18533 0.43921 0.0
H594 H 0.98779 0.12198 0.4381 0.0
H595 H 0.03491 0.07691 0.415 0.0
H596 H 0.09886 0.11276 0.33483 0.0
H597 H 0.06563 0.17432 0.33474 0.0
C598 C 0.01278 0.19784 0.37542 0.0
C599 C 0.98638 0.20705 0.39878 0.0
C600 C 0.03099 0.16176 0.3749 0.0
C601 C 0.97733 0.17902 0.42103 0.0
C602 C 0.99501 0.14281 0.42045 0.0
C603 C 0.04159 0.09829 0.39763 0.0
C604 C 0.0692 0.09 0.37486 0.0
C605 C 0.02237 0.13403 0.39774 0.0
C606 C 0.07732 0.11796 0.35233 0.0
C607 C 0.05844 0.15336 0.35231 0.0
H608 H 0.33586 0.9934 0.40388 0.0
H609 H 0.2794 0.0732 0.34237 0.0
H610 H 0.33629 0.11419 0.3424 0.0
H611 H 0.39876 0.13122 0.36504 0.0
H612 H 0.45559 0.05201 0.42653 0.0
H613 H 0.40225 1.00657 0.42117 0.0
C614 C 0.33651 0.01915 0.38977 0.0
C615 C 0.30341 0.03053 0.37341 0.0
C616 C 0.36914 0.04294 0.39031 0.0
C617 C 0.30447 0.06415 0.35541 0.0
C618 C 0.33688 0.08765 0.35552 0.0
C619 C 0.39947 0.10381 0.37696 0.0
C620 C 0.43057 0.09505 0.39641 0.0
C621 C 0.36878 0.07805 0.37378 0.0
C622 C 0.43181 0.05923 0.4114 0.0
C623 C 0.40128 0.03339 0.40844 0.0
H624 H 0.49308 0.30925 0.37335 0.0
H625 H 0.57014 0.349 0.44444 0.0
H626 H 0.53378 0.40925 0.44844 0.0
H627 H 0.47549 0.44738 0.43564 0.0
H628 H 0.39668 0.40467 0.36706 0.0
H629 H 0.43833 0.34918 0.35779 0.0
C630 C 0.50254 0.33154 0.38911 0.0
C631 C 0.53428 0.32473 0.4085 0.0
C632 C 0.4808 0.36545 0.39196 0.0
C633 C 0.54571 0.35357 0.42931 0.0
C634 C 0.52486 0.38795 0.43166 0.0
C635 C 0.46802 0.42622 0.41829 0.0
C636 C 0.43306 0.42982 0.40215 0.0
C637 C 0.49167 0.39375 0.41373 0.0
C638 C 0.42329 0.40212 0.37993 0.0
C639 C 0.44709 0.37047 0.37463 0.0
H640 H 0.12768 0.41511 0.37611 0.0
H641 H 0.06142 0.48052 0.44148 0.0
H642 H 0.11135 0.53012 0.44295 0.0
H643 H 0.17646 0.55192 0.42858 0.0
H644 H 0.24171 0.48677 0.36203 0.0
H645 H 0.18942 0.44052 0.35744 0.0
C646 C 0.12426 0.44044 0.39042 0.0
C647 C 0.09141 0.44423 0.40886 0.0
C648 C 0.1528 0.46889 0.39079 0.0
C649 C 0.08662 0.47728 0.42706 0.0
C650 C 0.11517 0.50547 0.42797 0.0
C651 C 0.17886 0.52791 0.41273 0.0
C652 C 0.21287 0.52273 0.39572 0.0
C653 C 0.14872 0.50123 0.41033 0.0
C654 C 0.21562 0.49166 0.3751 0.0
C655 C 0.18591 0.46494 0.3727 0.0
H656 H 0.47908 0.09111 0.8696 0.0
H657 H 0.41302 0.10843 0.95232 0.0
H658 H 0.44932 0.16735 0.96344 0.0
H659 H 0.49583 0.21617 0.94693 0.0
H660 H 0.56456 0.19643 0.86545 0.0
H661 H 0.53063 0.13629 0.8562 0.0
C662 C 0.47282 0.10783 0.89009 0.0
C663 C 0.44313 0.0961 0.90991 0.0
C664 C 0.49393 0.14123 0.89631 0.0
C665 C 0.43572 0.11721 0.93679 0.0
C666 C 0.45633 0.15085 0.943 0.0
C667 C 0.50424 0.1984 0.92754 0.0
C668 C 0.53258 0.21135 0.90672 0.0
C669 C 0.48504 0.16346 0.9226 0.0
C670 C 0.54233 0.18788 0.88148 0.0
C671 C 0.52309 0.15329 0.87625 0.0
H672 H 0.39887 0.41217 0.8787 0.0
H673 H 0.45885 0.48142 0.94545 0.0
H674 H 0.40619 0.52844 0.94507 0.0
H675 H 0.34051 0.5468 0.92872 0.0
H676 H 0.28146 0.47751 0.86114 0.0
H677 H 0.33645 0.434 0.85835 0.0
C678 C 0.40036 0.43776 0.89293 0.0
C679 C 0.43225 0.44329 0.91228 0.0
C680 C 0.3702 0.46464 0.89236 0.0
C681 C 0.43448 0.47675 0.93032 0.0
C682 C 0.40434 0.50347 0.9302 0.0
C683 C 0.34 0.52245 0.9131 0.0
C684 C 0.30694 0.51534 0.89524 0.0
C685 C 0.3717 0.49733 0.91174 0.0
C686 C 0.30671 0.48389 0.87488 0.0
C687 C 0.338 0.45874 0.87349 0.0
H688 H 0.02599 0.30326 0.86529 0.0
H689 H 0.9465 0.34231 0.93469 0.0
H690 H 0.9811 0.40339 0.9388 0.0
H691 H 0.03949 0.44164 0.92778 0.0
H692 H 0.12143 0.39932 0.86159 0.0
H693 H 0.08047 0.34391 0.85074 0.0
C694 C 0.01559 0.32568 0.88057 0.0
C695 C 0.98376 0.31849 0.89957 0.0
C696 C 0.03655 0.35992 0.88371 0.0
C697 C 0.97097 0.34737 0.91981 0.0
C698 C 0.99087 0.38214 0.92229 0.0
C699 C 0.04773 0.42064 0.91053 0.0
C700 C 0.0834 0.42418 0.89563 0.0
C701 C 0.02454 0.38817 0.90517 0.0
C702 C 0.09422 0.39674 0.87352 0.0
C703 C 0.07083 0.36514 0.86732 0.0
H704 H 0.18664 0.98377 0.91724 0.0
H705 H 0.24257 0.052 0.84752 0.0
H706 H 0.18676 0.09486 0.845 0.0
H707 H 0.12485 0.11661 0.86659 0.0
H708 H 0.06823 0.0478 0.93541 0.0
H709 H 0.1213 1.00132 0.93437 0.0
C710 C 0.18621 1.00768 0.90115 0.0
C711 C 0.21862 0.01492 0.88271 0.0
C712 C 0.15413 0.03227 0.89997 0.0
C713 C 0.21778 0.04574 0.86176 0.0
C714 C 0.18606 0.07044 0.86053 0.0
C715 C 0.12416 0.0912 0.88109 0.0
C716 C 0.09313 0.08568 0.90128 0.0
C717 C 0.15457 0.06459 0.88014 0.0
C718 C 0.09193 0.05245 0.91967 0.0
C719 C 0.12229 0.02604 0.91916 0.0
H720 H 0.05173 0.83667 0.61779 0.0
H721 H 0.99047 0.77859 0.69051 0.0
H722 H 0.94632 0.83303 0.69505 0.0
H723 H 0.92052 0.89376 0.674 0.0
H724 H 0.9819 0.95222 0.60174 0.0
H725 H 0.03062 0.90124 0.60127 0.0
C726 C 0.02913 0.83633 0.635 0.0
C727 C 0.02421 0.8036 0.65366 0.0
C728 C 1.00356 0.86757 0.63723 0.0
C729 C 0.99506 0.80359 0.67607 0.0
C730 C 0.96953 0.83453 0.67844 0.0
C731 C 0.94485 0.89536 0.65845 0.0
C732 C 0.94755 0.92629 0.63774 0.0
C733 C 0.97276 0.86608 0.65846 0.0
C734 C 0.9794 0.92864 0.61794 0.0
C735 C 1.0071 0.89944 0.61757 0.0
H736 H 0.68134 0.04145 0.61127 0.0
H737 H 0.73788 0.98237 0.68632 0.0
H738 H 0.68245 0.94016 0.69225 0.0
H739 H 0.6206 0.91578 0.67273 0.0
H740 H 0.56363 0.97465 0.59799 0.0
H741 H 0.61623 0.02119 0.59531 0.0
C742 C 0.68125 0.01964 0.62916 0.0
C743 C 0.71379 0.01498 0.64822 0.0
C744 C 0.64933 0.99517 0.63228 0.0
C745 C 0.7131 0.98686 0.67154 0.0
C746 C 0.68155 0.96243 0.67476 0.0
C747 C 0.61968 0.93906 0.65609 0.0
C748 C 0.58857 0.94164 0.63544 0.0
C749 C 0.64996 0.96567 0.65475 0.0
C750 C 0.58723 0.9722 0.61423 0.0
C751 C 0.6174 0.99866 0.61257 0.0
H752 H 0.61246 0.62354 0.66472 0.0
H753 H 0.5426 0.55654 0.60283 0.0
H754 H 0.49431 0.60801 0.60121 0.0
H755 H 0.47467 0.67442 0.61443 0.0
H756 H 0.54529 0.7407 0.67666 0.0
H757 H 0.59011 0.68712 0.68158 0.0
C758 C 0.5865 0.62026 0.65108 0.0
C759 C 0.58114 0.58664 0.63372 0.0
C760 C 0.55897 0.64982 0.65039 0.0
C761 C 0.54717 0.5822 0.61647 0.0
C762 C 0.51971 0.61169 0.61543 0.0
C763 C 0.49965 0.67689 0.62932 0.0
C764 C 0.50655 0.71154 0.64515 0.0
C765 C 0.52566 0.64595 0.63186 0.0
C766 C 0.53891 0.71422 0.66457 0.0
C767 C 0.56483 0.68371 0.66716 0.0
H768 H 0.89872 0.60219 0.66912 0.0
H769 H 0.95799 0.53721 0.59927 0.0
H770 H 0.90741 0.48824 0.60031 0.0
H771 H 0.84332 0.46719 0.61798 0.0
H772 H 0.78491 0.53199 0.68868 0.0
H773 H 0.8384 0.57722 0.69103 0.0
C774 C 0.90053 0.57709 0.65437 0.0
C775 C 0.93158 0.57336 0.63391 0.0
C776 C 0.8716 0.54901 0.65536 0.0
C777 C 0.93425 0.54051 0.61521 0.0
C778 C 0.90531 0.51267 0.61573 0.0
C779 C 0.84267 0.49087 0.63424 0.0
C780 C 0.81013 0.49631 0.65303 0.0
C781 C 0.87344 0.51702 0.63529 0.0
C782 C 0.80977 0.52691 0.6742 0.0
C783 C 0.84016 0.55306 0.67532 0.0
H784 H 0.74304 0.19862 0.06714 0.0
H785 H 0.68987 0.21515 0.15574 0.0
H786 H 0.73365 0.26894 0.16652 0.0
H787 H 0.78716 0.31212 0.15007 0.0
H788 H 0.84248 0.29146 0.06282 0.0
H789 H 0.79789 0.23889 0.05199 0.0
C790 C 0.74092 0.21412 0.08875 0.0
C791 C 0.71287 0.20318 0.11047 0.0
C792 C 0.76669 0.2444 0.09496 0.0
C793 C 0.71114 0.22301 0.13867 0.0
C794 C 0.73612 0.25384 0.14476 0.0
C795 C 0.78931 0.29599 0.12876 0.0
C796 C 0.81809 0.30571 0.10723 0.0
C797 C 0.76398 0.26495 0.12301 0.0
C798 C 0.82084 0.28436 0.07981 0.0
C799 C 0.79524 0.25437 0.07358 0.0
H800 H 0.33632 0.74698 0.09776 0.0
H801 H 0.26476 0.65819 0.13686 0.0
H802 H 0.20949 0.70118 0.13517 0.0
H803 H 0.18052 0.7641 0.12192 0.0
H804 H 0.25269 0.85307 0.08419 0.0
H805 H 0.30825 0.81025 0.08652 0.0
C806 C 0.30887 0.73692 0.10625 0.0
C807 C 0.30528 0.69889 0.11728 0.0
C808 C 0.27693 0.76207 0.10556 0.0
C809 C 0.26885 0.6868 0.12772 0.0
C810 C 0.23701 0.7116 0.12701 0.0
C811 C 0.20848 0.77431 0.11462 0.0
C812 C 0.21214 0.8119 0.10274 0.0
C813 C 0.24061 0.74932 0.11592 0.0
C814 C 0.24871 0.82425 0.09303 0.0
C815 C 0.28065 0.79974 0.09443 0.0
H816 H 0.30111 0.72225 0.48785 0.0
H817 H 0.31511 0.71377 0.38939 0.0
H818 H 0.27254 0.76959 0.38217 0.0
H819 H 0.23393 0.82383 0.40447 0.0
H820 H 0.22104 0.83034 0.50323 0.0
H821 H 0.26028 0.77276 0.50964 0.0
C822 C 0.29514 0.73264 0.46476 0.0
C823 C 0.31198 0.71393 0.43923 0.0
C824 C 0.27057 0.76466 0.46083 0.0
C825 C 0.30274 0.72746 0.40949 0.0
C826 C 0.2784 0.75953 0.40537 0.0
C827 C 0.23915 0.81216 0.42729 0.0
C828 C 0.22456 0.83177 0.45337 0.0
C829 C 0.26236 0.77872 0.43091 0.0
C830 C 0.23208 0.81627 0.4828 0.0
C831 C 0.25462 0.78325 0.48651 0.0
H832 H 0.83703 0.27615 0.44392 0.0
H833 H 0.76549 0.36149 0.39933 0.0
H834 H 0.71141 0.31745 0.40003 0.0
H835 H 0.68338 0.25488 0.41394 0.0
H836 H 0.75515 0.1688 0.457 0.0
H837 H 0.8098 0.21266 0.45583 0.0
C838 C 0.80985 0.2852 0.43405 0.0
C839 C 0.80587 0.32266 0.42181 0.0
C840 C 0.77854 0.25938 0.43416 0.0
C841 C 0.76982 0.33342 0.40949 0.0
C842 C 0.73866 0.308 0.40962 0.0
C843 C 0.71106 0.24542 0.42265 0.0
C844 C 0.71483 0.20839 0.43563 0.0
C845 C 0.74259 0.27092 0.42196 0.0
C846 C 0.75105 0.19715 0.44722 0.0
C847 C 0.78246 0.22226 0.44649 0.0
H848 H 0.18189 0.74886 0.95294 0.0
H849 H 0.25085 0.6637 0.90621 0.0
H850 H 0.30307 0.70982 0.90095 0.0
H851 H 0.33039 0.77408 0.91057 0.0
H852 H 0.2618 0.85982 0.95675 0.0
H853 H 0.20872 0.81405 0.96131 0.0
C854 C 0.20831 0.74037 0.94158 0.0
C855 C 0.21199 0.70258 0.92991 0.0
C856 C 0.23861 0.76725 0.93863 0.0
C857 C 0.24655 0.69249 0.915 0.0
C858 C 0.27675 0.71888 0.91221 0.0
C859 C 0.30394 0.78274 0.9218 0.0
C860 C 0.3004 0.82049 0.93347 0.0
C861 C 0.27328 0.75626 0.9241 0.0
C862 C 0.26543 0.83119 0.9474 0.0
C863 C 0.23503 0.8049 0.95011 0.0
H864 H 0.68331 0.27174 0.92622 0.0
H865 H 0.76076 0.36334 0.9512 0.0
H866 H 0.81485 0.3186 0.9505 0.0
H867 H 0.8403 0.25327 0.94396 0.0
H868 H 0.76332 0.16181 0.91726 0.0
H869 H 0.70938 0.2065 0.91779 0.0
C870 C 0.71205 0.28209 0.9311 0.0
C871 C 0.71765 0.32109 0.93887 0.0
C872 C 0.74332 0.25605 0.93066 0.0
C873 C 0.75526 0.33356 0.94556 0.0
C874 C 0.78637 0.30794 0.94507 0.0
C875 C 0.81193 0.24294 0.9379 0.0
C876 C 0.80646 0.20373 0.93065 0.0
C877 C 0.78076 0.26903 0.93786 0.0
C878 C 0.76889 0.19139 0.9234 0.0
C879 C 0.7378 0.21713 0.92346 0.0
H880 H 0.7702 0.17559 0.62365 0.0
H881 H 0.85805 0.24704 0.5835 0.0
H882 H 0.81508 0.30255 0.5855 0.0
H883 H 0.7516 0.33081 0.597 0.0
H884 H 0.6641 0.25948 0.63808 0.0
H885 H 0.70751 0.20458 0.63716 0.0
C886 C 0.78016 0.20338 0.61574 0.0
C887 C 0.81747 0.20679 0.60329 0.0
C888 C 0.75507 0.23546 0.6168 0.0
C889 C 0.82946 0.24319 0.5928 0.0
C890 C 0.80486 0.27512 0.59401 0.0
C891 C 0.742 0.30345 0.60605 0.0
C892 C 0.70409 0.29978 0.61732 0.0
C893 C 0.76741 0.2716 0.60567 0.0
C894 C 0.69256 0.26356 0.62865 0.0
C895 C 0.7176 0.23193 0.62837 0.0
H896 H 0.33864 0.76534 0.62063 0.0
H897 H 0.27111 0.84698 0.56855 0.0
H898 H 0.21595 0.80395 0.57012 0.0
H899 H 0.18661 0.74217 0.58535 0.0
H900 H 0.2541 0.66075 0.63772 0.0
H901 H 0.30879 0.7043 0.63697 0.0
C902 C 0.31175 0.774 0.61 0.0
C903 C 0.30944 0.80958 0.59443 0.0
C904 C 0.27982 0.74886 0.61086 0.0
C905 C 0.27421 0.81976 0.58041 0.0
C906 C 0.24241 0.79513 0.58138 0.0
C907 C 0.21313 0.73403 0.59682 0.0
C908 C 0.2159 0.69779 0.61136 0.0
C909 C 0.24486 0.75944 0.59636 0.0
C910 C 0.25094 0.68792 0.62582 0.0
C911 C 0.28237 0.71304 0.62561 0.0
H912 H 0.5897 0.01537 1.01515 0.0
H913 H 0.51757 0.05328 0.09015 0.0
H914 H 0.46099 0.02742 0.06341 0.0
H915 H 0.43212 0.9934 1.01903 0.0
H916 H 0.50433 0.9563 0.94378 0.0
H917 H 0.56081 0.98207 0.97059 0.0
C918 C 0.5616 0.01829 0.02571 0.0
C919 C 0.55814 0.03663 0.05479 0.0
C920 C 0.52922 1.00305 1.01025 0.0
C921 C 0.5213 0.03984 0.06783 0.0
C922 C 0.48892 0.02474 0.05257 0.0
C923 C 0.46021 0.99058 1.00845 0.0
C924 C 0.46373 0.97238 0.97929 0.0
C925 C 0.49256 1.00608 0.02385 0.0
C926 C 0.50053 0.96968 0.96612 0.0
C927 C 0.53288 0.98465 0.98145 0.0
H928 H 0.49896 0.5929 0.02243 0.0
H929 H 0.46907 0.52392 0.10161 0.0
H930 H 0.49573 0.46694 0.07624 0.0
H931 H 0.5277 0.43678 0.03184 0.0
H932 H 0.55768 0.50548 0.95256 0.0
H933 H 0.53117 0.56264 0.97794 0.0
C934 C 0.498 0.56539 0.03417 0.0
C935 C 0.48166 0.56285 0.06398 0.0
C936 C 0.51376 0.53276 1.01951 0.0
C937 C 0.48106 0.52685 0.07869 0.0
C938 C 0.49652 0.49425 0.06421 0.0
C939 C 0.52872 0.46426 1.02006 0.0
C940 C 0.545 0.46669 0.99024 0.0
C941 C 0.51307 0.4969 0.03469 0.0
C942 C 0.54576 0.50267 0.97551 0.0
C943 C 0.53036 0.53535 0.98999 0.0
H944 H 0.92747 0.4976 1.01902 0.0
H945 H 0.99538 0.46408 0.0981 0.0
H946 H 0.05344 0.48803 0.07254 0.0
H947 H 0.08497 0.51829 0.02775 0.0
H948 H 0.01702 0.55219 0.94881 0.0
H949 H 0.95888 0.52866 0.97452 0.0
C950 C 0.95494 0.49528 0.03075 0.0
C951 C 0.95682 0.4786 0.06058 0.0
C952 C 0.98821 0.50952 1.01598 0.0
C953 C 0.99286 0.47638 0.07522 0.0
C954 C 0.02611 0.49025 0.06059 0.0
C955 C 0.05745 0.52081 1.0161 0.0
C956 C 0.05562 0.5373 0.98621 0.0
C957 C 0.02413 0.50693 0.031 0.0
C958 C 0.0195 0.54005 0.97175 0.0
C959 C 0.98622 0.52635 0.98644 0.0
H960 H 0.99927 0.08857 0.0225 0.0
H961 H 0.96379 0.02149 0.94374 0.0
H962 H 0.98832 0.96316 0.96876 0.0
H963 H 0.01995 0.93124 1.01276 0.0
H964 H 0.05568 0.99807 0.09156 0.0
H965 H 0.03128 0.05657 0.06653 0.0
C966 C 0.99663 0.0612 1.01075 0.0
C967 C 0.97929 0.05964 0.98115 0.0
C968 C 0.01119 0.02776 0.02521 0.0
C969 C 0.97657 0.02375 0.96647 0.0
C970 C 0.99081 0.99036 0.98077 0.0
C971 C 0.02268 0.95858 0.02454 0.0
C972 C 0.03998 0.96004 0.05414 0.0
C973 C 1.00827 0.99203 1.01008 0.0
C974 C 0.04295 0.99592 0.06881 0.0
C975 C 0.02875 0.02938 0.05451 0.0
H976 H 0.93377 0.99863 0.51812 0.0
H977 H 1.00255 0.06337 0.5827 0.0
H978 H 0.06084 0.04485 0.55459 0.0
H979 H 0.09207 0.01152 0.51126 0.0
H980 H 0.02361 0.94686 0.44645 0.0
H981 H 0.96535 0.96371 0.47544 0.0
C982 C 0.96146 1.00888 0.52614 0.0
C983 C 0.96349 0.03284 0.55255 0.0
C984 C 0.99493 0.99786 0.5099 0.0
C985 C 0.99986 0.04528 0.56249 0.0
C986 C 0.03326 0.03455 0.54641 0.0
C987 C 0.06448 1.00078 0.50342 0.0
C988 C 0.06248 0.97778 0.47648 0.0
C989 C 0.03112 0.01098 0.52005 0.0
C990 C 0.02628 0.96429 0.46703 0.0
C991 C 0.9929 0.97417 0.48357 0.0
H992 H 0.51242 0.09172 0.52053 0.0
H993 H 0.56143 0.0257 0.44599 0.0
H994 H 0.53945 0.96621 0.47065 0.0
H995 H 0.50644 0.93303 0.51332 0.0
H996 H 0.4573 0.99912 0.58776 0.0
H997 H 0.47896 0.0586 0.56295 0.0
C998 C 0.51852 0.06436 0.50959 0.0
C999 C 0.53893 0.06342 0.48133 0.0
C1000 C 0.50549 0.03029 0.52383 0.0
C1001 C 0.54614 0.0275 0.46769 0.0
C1002 C 0.53341 0.99345 0.48179 0.0
C1003 C 0.50019 0.96041 0.52417 0.0
C1004 C 0.47994 0.96137 0.5525 0.0
C1005 C 0.51301 0.9945 0.50983 0.0
C1006 C 0.47242 0.99731 0.566 0.0
C1007 C 0.48503 0.03136 0.55183 0.0
H1008 H 0.43195 0.51664 0.5312 0.0
H1009 H 0.49933 0.55557 0.45379 0.0
H1010 H 0.55742 0.5287 0.47775 0.0
H1011 H 0.58898 0.49369 0.52039 0.0
H1012 H 0.5216 0.45518 0.59796 0.0
H1013 H 0.46355 0.48202 0.57398 0.0
C1014 C 0.45934 0.51954 0.51953 0.0
C1015 C 0.46106 0.53845 0.49062 0.0
C1016 C 0.49261 0.50371 0.53337 0.0
C1017 C 0.49698 0.5416 0.47604 0.0
C1018 C 0.53022 0.52599 0.4897 0.0
C1019 C 0.5616 0.49083 0.53208 0.0
C1020 C 0.55987 0.47197 0.56102 0.0
C1021 C 0.52836 0.5068 0.51828 0.0
C1022 C 0.52397 0.46908 0.57568 0.0
C1023 C 0.49074 0.48466 0.562 0.0
H1024 H 0.02939 0.58806 0.5119 0.0
H1025 H 0.05274 0.51769 0.59187 0.0
H1026 H 0.02322 0.4625 0.56607 0.0
H1027 H 0.99013 0.43437 0.52121 0.0
H1028 H 0.96707 0.50431 0.44097 0.0
H1029 H 0.99673 0.55963 0.46669 0.0
C1030 C 0.02837 0.5606 0.52372 0.0
C1031 C 0.04367 0.55723 0.55394 0.0
C1032 C 0.01096 0.52899 0.50878 0.0
C1033 C 0.04171 0.52128 0.56866 0.0
C1034 C 0.02454 0.48971 0.55393 0.0
C1035 C 0.99124 0.46173 0.50927 0.0
C1036 C 0.97588 0.465 0.47907 0.0
C1037 C 1.00884 0.49328 0.52409 0.0
C1038 C 0.97812 0.50083 0.46418 0.0
C1039 C 0.99535 0.53245 0.47888 0.0
H1040 H 0.54737 0.15894 0.29601 0.0
H1041 H 0.62089 0.08328 0.34878 0.0
H1042 H 0.64503 0.05471 0.3009 0.0
H1043 H 0.64343 0.04951 0.24426 0.0
H1044 H 0.57228 0.12695 0.19113 0.0
H1045 H 0.54914 0.15672 0.239 0.0
C1046 C 0.56878 0.13625 0.2971 0.0
C1047 C 0.58201 0.12303 0.32615 0.0
C1048 C 0.58285 0.12025 0.2694 0.0
C1049 C 0.61017 0.09402 0.32692 0.0
C1050 C 0.62388 0.07759 0.2995 0.0
C1051 C 0.62284 0.07295 0.24304 0.0
C1052 C 0.60923 0.08564 0.21398 0.0
C1053 C 0.61012 0.09019 0.27064 0.0
C1054 C 0.58316 0.11653 0.21303 0.0
C1055 C 0.56987 0.13346 0.24045 0.0
H1056 H 0.38142 0.54405 0.30416 0.0
H1057 H 0.44849 0.62456 0.35736 0.0
H1058 H 0.476 0.65052 0.3096 0.0
H1059 H 0.48129 0.64975 0.25272 0.0
H1060 H 0.41139 0.5712 0.19993 0.0
H1061 H 0.38474 0.54493 0.24768 0.0
C1062 C 0.40213 0.56725 0.30545 0.0
C1063 C 0.41312 0.58211 0.33446 0.0
C1064 C 0.41736 0.58228 0.27793 0.0
C1065 C 0.43953 0.61257 0.33544 0.0
C1066 C 0.45533 0.62732 0.30812 0.0
C1067 C 0.46035 0.62674 0.25163 0.0
C1068 C 0.44865 0.61218 0.22268 0.0
C1069 C 0.44457 0.61227 0.27923 0.0
C1070 C 0.42099 0.58285 0.22179 0.0
C1071 C 0.40575 0.56782 0.24912 0.0
H1072 H 0.93733 0.41562 0.20679 0.0
H1073 H 0.85851 0.50056 0.24244 0.0
H1074 H 0.87553 0.48292 0.29507 0.0
H1075 H 0.91371 0.44397 0.3319 0.0
H1076 H 0.99519 0.36155 0.29625 0.0
H1077 H 0.97639 0.37745 0.24364 0.0
C1078 C 0.92384 0.43016 0.22607 0.0
C1079 C 0.89669 0.45946 0.22035 0.0
C1080 C 0.93434 0.42037 0.2567 0.0
C1081 C 0.87973 0.47809 0.24585 0.0
C1082 C 0.88938 0.46796 0.27616 0.0
C1083 C 0.92728 0.42946 0.31262 0.0
C1084 C 0.95592 0.40162 0.31834 0.0
C1085 C 0.9168 0.43926 0.282 0.0
C1086 C 0.97325 0.38333 0.29284 0.0
C1087 C 0.96245 0.39232 0.26254 0.0
H1088 H 0.17694 0.8892 0.2974 0.0
H1089 H 0.07065 0.91635 0.34397 0.0
H1090 H 0.03649 0.91538 0.29457 0.0
H1091 H 0.03688 0.90801 0.23815 0.0
H1092 H 0.14335 0.88253 0.19125 0.0
H1093 H 0.17739 0.88234 0.24077 0.0
C1094 C 0.14618 0.89442 0.29691 0.0
C1095 C 0.12639 0.90238 0.32468 0.0
C1096 C 0.12684 0.89472 0.26825 0.0
C1097 C 0.08664 0.90977 0.32321 0.0
C1098 C 0.06712 0.90946 0.29488 0.0
C1099 C 0.0676 0.90255 0.23861 0.0
C1100 C 0.08744 0.89537 0.21074 0.0
C1101 C 0.08696 0.90228 0.26723 0.0
C1102 C 0.12727 0.88842 0.2121 0.0
C1103 C 0.14673 0.88806 0.24051 0.0
H1104 H 0.37252 0.86849 0.80305 0.0
H1105 H 0.44089 0.96626 0.83017 0.0
H1106 H 0.45948 0.97662 0.7765 0.0
H1107 H 0.45588 0.95855 0.72147 0.0
H1108 H 0.38814 0.8603 0.69453 0.0
H1109 H 0.36967 0.84988 0.74824 0.0
C1110 C 0.39176 0.89192 0.79735 0.0
C1111 C 0.40523 0.91649 0.82094 0.0
C1112 C 0.40221 0.89793 0.76625 0.0
C1113 C 0.43002 0.94676 0.81277 0.0
C1114 C 0.44059 0.95284 0.78194 0.0
C1115 C 0.43681 0.93502 0.72725 0.0
C1116 C 0.42327 0.91044 0.7037 0.0
C1117 C 0.42664 0.92881 0.75841 0.0
C1118 C 0.39897 0.87982 0.71195 0.0
C1119 C 0.38845 0.87374 0.74277 0.0
H1120 H 0.64875 0.47836 0.7483 0.0
H1121 H 0.57134 0.40439 0.69813 0.0
H1122 H 0.54553 0.37995 0.74687 0.0
H1123 H 0.54422 0.38032 0.80366 0.0
H1124 H 0.62419 0.45123 0.85407 0.0
H1125 H 0.64993 0.476 0.80531 0.0
C1126 C 0.62614 0.45695 0.74799 0.0
C1127 C 0.61168 0.44356 0.71947 0.0
C1128 C 0.61199 0.44245 0.77617 0.0
C1129 C 0.58291 0.41528 0.71962 0.0
C1130 C 0.56813 0.40134 0.74753 0.0
C1131 C 0.56729 0.40124 0.80406 0.0
C1132 C 0.58198 0.4142 0.83263 0.0
C1133 C 0.58231 0.41484 0.77593 0.0
C1134 C 0.61232 0.44079 0.83254 0.0
C1135 C 0.62695 0.45503 0.80462 0.0
H1136 H 0.04058 0.64096 0.74402 0.0
H1137 H 0.11437 0.56393 0.69313 0.0
H1138 H 0.13984 0.53808 0.74166 0.0
H1139 H 0.14053 0.53673 0.79841 0.0
H1140 H 0.06957 0.61609 0.84954 0.0
H1141 H 0.04373 0.64186 0.80099 0.0
C1142 C 0.06217 0.6184 0.74349 0.0
C1143 C 0.07521 0.60408 0.71482 0.0
C1144 C 0.07721 0.6042 0.77154 0.0
C1145 C 0.10371 0.57538 0.71473 0.0
C1146 C 0.11825 0.56058 0.74251 0.0
C1147 C 0.11935 0.55966 0.79903 0.0
C1148 C 0.10672 0.57418 0.82774 0.0
C1149 C 0.10511 0.57466 0.77103 0.0
C1150 C 0.07977 0.60434 0.8279 0.0
C1151 C 0.06493 0.61898 0.80011 0.0
H1152 H 0.97906 0.15048 0.79273 0.0
H1153 H 0.90611 0.07519 0.84575 0.0
H1154 H 0.88084 0.0473 0.79803 0.0
H1155 H 0.88037 0.04326 0.74145 0.0
H1156 H 0.9506 0.12042 0.68789 0.0
H1157 H 0.97587 0.14882 0.73564 0.0
C1158 C 0.95764 0.12793 0.7939 0.0
C1159 C 0.9448 0.11471 0.82297 0.0
C1160 C 0.94275 0.11242 0.76625 0.0
C1161 C 0.91658 0.0859 0.82386 0.0
C1162 C 0.90217 0.06989 0.79652 0.0
C1163 C 0.90126 0.0663 0.7401 0.0
C1164 C 0.91388 0.07939 0.71096 0.0
C1165 C 0.9152 0.08275 0.76762 0.0
C1166 C 0.94042 0.10973 0.70987 0.0
C1167 C 0.95494 0.12588 0.73722 0.0
loop_
_geom_bond_atom_site_label_1
_geom_bond_atom_site_label_2
_geom_bond_distance
_geom_bond_site_symmetry_2
_ccdc_geom_bond_type
C0 C1 1.351 . S
C0 N3 1.368 . S
C0 H5 0.931 . S
C1 C0 1.351 . S
C1 N2 1.373 . S
C1 H29 0.930 . S
N2 C1 1.373 . S
N2 C4 1.340 . S
N3 C0 1.368 . S
N3 C4 1.321 . S
N3 Co6 2.135 . S
C4 N2 1.340 . S
C4 N3 1.321 . S
C4 H28 0.930 . S
H5 C0 0.931 . S
Co6 N3 2.135 . S
Co6 N9 2.121 1_545 S
Co6 O14 2.055 . S
Co6 O17 2.039 . S
Co6 N20 2.140 . S
C7 O8 1.227 . S
C7 O17 1.265 . S
O8 C7 1.227 . S
N9 Co6 2.121 1_565 S
N9 C11 1.375 . S
N9 C12 1.313 . S
C10 C11 1.338 . S
C10 N13 1.377 . S
C10 H30 0.930 . S
C11 N9 1.375 . S
C11 C10 1.338 . S
C11 H15 0.931 . S
C12 N9 1.313 . S
C12 N13 1.344 . S
C12 H16 0.930 . S
N13 C10 1.377 . S
N13 C12 1.344 . S
O14 Co6 2.055 . S
O14 C18 1.253 . S
H15 C11 0.931 . S
H16 C12 0.930 . S
O17 Co6 2.039 . S
O17 C7 1.265 . S
C18 O14 1.253 . S
C18 O19 1.227 . S
O19 C18 1.227 . S
N20 Co6 2.140 . S
N20 C23 1.346 . S
N20 C24 1.345 1_545 S
C21 C22 1.387 1_565 S
C21 C25 1.391 . S
C22 C21 1.387 1_545 S
C22 C23 1.369 . S
C22 H31 0.929 . S
C23 N20 1.346 . S
C23 C22 1.369 . S
C23 H26 0.928 . S
C24 N20 1.345 1_565 S
C24 C25 1.371 . S
C24 H27 0.931 . S
C25 C21 1.391 . S
C25 C24 1.371 . S
C25 H32 0.930 . S
H26 C23 0.928 . S
H27 C24 0.931 . S
H28 C4 0.930 . S
H29 C1 0.930 . S
H30 C10 0.930 . S
H31 C22 0.929 . S
H32 C25 0.930 . S
C33 C34 1.351 . S
C33 N36 1.368 . S
C33 H38 0.931 . S
C34 C33 1.351 . S
C34 N35 1.373 . S
C34 H62 0.930 . S
N35 C34 1.373 . S
N35 C37 1.340 . S
N36 C33 1.368 . S
N36 C37 1.321 . S
N36 Co39 2.135 . S
C37 N35 1.340 . S
C37 N36 1.321 . S
C37 H61 0.930 . S
H38 C33 0.931 . S
Co39 N36 2.135 . S
Co39 N42 2.121 . S
Co39 O47 2.055 . S
Co39 O50 2.039 . S
Co39 N53 2.140 . S
C40 O41 1.227 . S
C40 O50 1.265 . S
O41 C40 1.227 . S
N42 Co39 2.121 . S
N42 C44 1.375 . S
N42 C45 1.313 . S
C43 C44 1.338 . S
C43 N46 1.377 . S
C43 H63 0.930 . S
C44 N42 1.375 . S
C44 C43 1.338 . S
C44 H48 0.931 . S
C45 N42 1.313 . S
C45 N46 1.344 . S
C45 H49 0.930 . S
N46 C43 1.377 . S
N46 C45 1.344 . S
O47 Co39 2.055 . S
O47 C51 1.253 . S
H48 C44 0.931 . S
H49 C45 0.930 . S
O50 Co39 2.039 . S
O50 C40 1.265 . S
C51 O47 1.253 . S
C51 O52 1.227 . S
O52 C51 1.227 . S
N53 Co39 2.140 . S
N53 C56 1.346 . S
N53 C57 1.345 . S
C54 C55 1.387 . S
C54 C58 1.391 . S
C55 C54 1.387 . S
C55 C56 1.369 . S
C55 H64 0.929 . S
C56 N53 1.346 . S
C56 C55 1.369 . S
C56 H59 0.928 . S
C57 N53 1.345 . S
C57 C58 1.371 . S
C57 H60 0.931 . S
C58 C54 1.391 . S
C58 C57 1.371 . S
C58 H65 0.930 . S
H59 C56 0.928 . S
H60 C57 0.931 . S
H61 C37 0.930 . S
H62 C34 0.930 . S
H63 C43 0.930 . S
H64 C55 0.929 . S
H65 C58 0.930 . S
C66 C67 1.351 . S
C66 N69 1.368 . S
C66 H71 0.931 . S
C67 C66 1.351 . S
C67 N68 1.373 . S
C67 H95 0.930 . S
N68 C67 1.373 . S
N68 C70 1.340 . S
N69 C66 1.368 . S
N69 C70 1.321 . S
N69 Co72 2.135 . S
C70 N68 1.340 . S
C70 N69 1.321 . S
C70 H94 0.930 . S
H71 C66 0.931 . S
Co72 N69 2.135 . S
Co72 N75 2.121 . S
Co72 O80 2.055 . S
Co72 O83 2.039 . S
Co72 N86 2.140 . S
C73 O74 1.227 . S
C73 O83 1.265 . S
O74 C73 1.227 . S
N75 Co72 2.121 . S
N75 C77 1.375 . S
N75 C78 1.313 . S
C76 C77 1.338 . S
C76 N79 1.377 . S
C76 H96 0.930 . S
C77 N75 1.375 . S
C77 C76 1.338 . S
C77 H81 0.931 . S
C78 N75 1.313 . S
C78 N79 1.344 . S
C78 H82 0.930 . S
N79 C76 1.377 . S
N79 C78 1.344 . S
O80 Co72 2.055 . S
O80 C84 1.253 . S
H81 C77 0.931 . S
H82 C78 0.930 . S
O83 Co72 2.039 . S
O83 C73 1.265 . S
C84 O80 1.253 . S
C84 O85 1.227 . S
O85 C84 1.227 . S
N86 Co72 2.140 . S
N86 C89 1.346 . S
N86 C90 1.345 . S
C87 C88 1.387 . S
C87 C91 1.391 . S
C88 C87 1.387 . S
C88 C89 1.369 . S
C88 H97 0.929 . S
C89 N86 1.346 . S
C89 C88 1.369 . S
C89 H92 0.928 . S
C90 N86 1.345 . S
C90 C91 1.371 . S
C90 H93 0.931 . S
C91 C87 1.391 . S
C91 C90 1.371 . S
C91 H98 0.930 . S
H92 C89 0.928 . S
H93 C90 0.931 . S
H94 C70 0.930 . S
H95 C67 0.930 . S
H96 C76 0.930 . S
H97 C88 0.929 . S
H98 C91 0.930 . S
C99 C100 1.351 . S
C99 N102 1.368 . S
C99 H104 0.931 . S
C100 C99 1.351 . S
C100 N101 1.373 . S
C100 H128 0.930 . S
N101 C100 1.373 . S
N101 C103 1.340 . S
N102 C99 1.368 . S
N102 C103 1.321 . S
N102 Co105 2.135 . S
C103 N101 1.340 . S
C103 N102 1.321 . S
C103 H127 0.930 . S
H104 C99 0.931 . S
Co105 N102 2.135 . S
Co105 N108 2.121 1_455 S
Co105 O113 2.055 . S
Co105 O116 2.039 . S
Co105 N119 2.140 . S
C106 O107 1.227 . S
C106 O116 1.265 . S
O107 C106 1.227 . S
N108 Co105 2.121 1_655 S
N108 C110 1.375 . S
N108 C111 1.313 . S
C109 C110 1.338 . S
C109 N112 1.377 . S
C109 H129 0.930 . S
C110 N108 1.375 . S
C110 C109 1.338 . S
C110 H114 0.931 . S
C111 N108 1.313 . S
C111 N112 1.344 . S
C111 H115 0.930 . S
N112 C109 1.377 . S
N112 C111 1.344 . S
O113 Co105 2.055 . S
O113 C117 1.253 . S
H114 C110 0.931 . S
H115 C111 0.930 . S
O116 Co105 2.039 . S
O116 C106 1.265 . S
C117 O113 1.253 . S
C117 O118 1.227 . S
O118 C117 1.227 . S
N119 Co105 2.140 . S
N119 C122 1.346 . S
N119 C123 1.345 1_455 S
C120 C121 1.387 1_655 S
C120 C124 1.391 . S
C121 C120 1.387 1_455 S
C121 C122 1.369 . S
C121 H130 0.929 . S
C122 N119 1.346 . S
C122 C121 1.369 . S
C122 H125 0.928 . S
C123 N119 1.345 1_655 S
C123 C124 1.371 . S
C123 H126 0.931 . S
C124 C120 1.391 . S
C124 C123 1.371 . S
C124 H131 0.930 . S
H125 C122 0.928 . S
H126 C123 0.931 . S
H127 C103 0.930 . S
H128 C100 0.930 . S
H129 C109 0.930 . S
H130 C121 0.929 . S
H131 C124 0.930 . S
C132 C133 1.351 . S
C132 N135 1.368 . S
C132 H137 0.931 . S
C133 C132 1.351 . S
C133 N134 1.373 . S
C133 H161 0.930 . S
N134 C133 1.373 . S
N134 C136 1.340 . S
N135 C132 1.368 . S
N135 C136 1.321 . S
N135 Co138 2.135 . S
C136 N134 1.340 . S
C136 N135 1.321 . S
C136 H160 0.930 . S
H137 C132 0.931 . S
Co138 N135 2.135 . S
Co138 N141 2.121 1_565 S
Co138 O146 2.055 . S
Co138 O149 2.039 . S
Co138 N152 2.140 . S
C139 O140 1.227 . S
C139 O149 1.265 . S
O140 C139 1.227 . S
N141 Co138 2.121 1_545 S
N141 C143 1.375 . S
N141 C144 1.313 . S
C142 C143 1.338 . S
C142 N145 1.377 . S
C142 H162 0.930 . S
C143 N141 1.375 . S
C143 C142 1.338 . S
C143 H147 0.931 . S
C144 N141 1.313 . S
C144 N145 1.344 . S
C144 H148 0.930 . S
N145 C142 1.377 . S
N145 C144 1.344 . S
O146 Co138 2.055 . S
O146 C150 1.253 . S
H147 C143 0.931 . S
H148 C144 0.930 . S
O149 Co138 2.039 . S
O149 C139 1.265 . S
C150 O146 1.253 . S
C150 O151 1.227 . S
O151 C150 1.227 . S
N152 Co138 2.140 . S
N152 C155 1.346 . S
N152 C156 1.345 1_565 S
C153 C154 1.387 1_545 S
C153 C157 1.391 . S
C154 C153 1.387 1_565 S
C154 C155 1.369 . S
C154 H163 0.929 . S
C155 N152 1.346 . S
C155 C154 1.369 . S
C155 H158 0.928 . S
C156 N152 1.345 1_545 S
C156 C157 1.371 . S
C156 H159 0.931 . S
C157 C153 1.391 . S
C157 C156 1.371 . S
C157 H164 0.930 . S
H158 C155 0.928 . S
H159 C156 0.931 . S
H160 C136 0.930 . S
H161 C133 0.930 . S
H162 C142 0.930 . S
H163 C154 0.929 . S
H164 C157 0.930 . S
C165 C166 1.351 . S
C165 N168 1.368 . S
C165 H170 0.931 . S
C166 C165 1.351 . S
C166 N167 1.373 . S
C166 H194 0.930 . S
N167 C166 1.373 . S
N167 C169 1.340 . S
N168 C165 1.368 . S
N168 C169 1.321 . S
N168 Co171 2.135 . S
C169 N167 1.340 . S
C169 N168 1.321 . S
C169 H193 0.930 . S
H170 C165 0.931 . S
Co171 N168 2.135 . S
Co171 N174 2.121 . S
Co171 O179 2.055 . S
Co171 O182 2.039 . S
Co171 N185 2.140 . S
C172 O173 1.227 . S
C172 O182 1.265 . S
O173 C172 1.227 . S
N174 Co171 2.121 . S
N174 C176 1.375 . S
N174 C177 1.313 . S
C175 C176 1.338 . S
C175 N178 1.377 . S
C175 H195 0.930 . S
C176 N174 1.375 . S
C176 C175 1.338 . S
C176 H180 0.931 . S
C177 N174 1.313 . S
C177 N178 1.344 . S
C177 H181 0.930 . S
N178 C175 1.377 . S
N178 C177 1.344 . S
O179 Co171 2.055 . S
O179 C183 1.253 . S
H180 C176 0.931 . S
H181 C177 0.930 . S
O182 Co171 2.039 . S
O182 C172 1.265 . S
C183 O179 1.253 . S
C183 O184 1.227 . S
O184 C183 1.227 . S
N185 Co171 2.140 . S
N185 C188 1.346 . S
N185 C189 1.345 . S
C186 C187 1.387 . S
C186 C190 1.391 . S
C187 C186 1.387 . S
C187 C188 1.369 . S
C187 H196 0.929 . S
C188 N185 1.346 . S
C188 C187 1.369 . S
C188 H191 0.928 . S
C189 N185 1.345 . S
C189 C190 1.371 . S
C189 H192 0.931 . S
C190 C186 1.391 . S
C190 C189 1.371 . S
C190 H197 0.930 . S
H191 C188 0.928 . S
H192 C189 0.931 . S
H193 C169 0.930 . S
H194 C166 0.930 . S
H195 C175 0.930 . S
H196 C187 0.929 . S
H197 C190 0.930 . S
C198 C199 1.351 . S
C198 N201 1.368 . S
C198 H203 0.931 . S
C199 C198 1.351 . S
C199 N200 1.373 . S
C199 H227 0.930 . S
N200 C199 1.373 . S
N200 C202 1.340 . S
N201 C198 1.368 . S
N201 C202 1.321 . S
N201 Co204 2.135 . S
C202 N200 1.340 . S
C202 N201 1.321 . S
C202 H226 0.930 . S
H203 C198 0.931 . S
Co204 N201 2.135 . S
Co204 N207 2.121 . S
Co204 O212 2.055 . S
Co204 O215 2.039 . S
Co204 N218 2.140 . S
C205 O206 1.227 . S
C205 O215 1.265 . S
O206 C205 1.227 . S
N207 Co204 2.121 . S
N207 C209 1.375 . S
N207 C210 1.313 . S
C208 C209 1.338 . S
C208 N211 1.377 . S
C208 H228 0.930 . S
C209 N207 1.375 . S
C209 C208 1.338 . S
C209 H213 0.931 . S
C210 N207 1.313 . S
C210 N211 1.344 . S
C210 H214 0.930 . S
N211 C208 1.377 . S
N211 C210 1.344 . S
O212 Co204 2.055 . S
O212 C216 1.253 . S
H213 C209 0.931 . S
H214 C210 0.930 . S
O215 Co204 2.039 . S
O215 C205 1.265 . S
C216 O212 1.253 . S
C216 O217 1.227 . S
O217 C216 1.227 . S
N218 Co204 2.140 . S
N218 C221 1.346 . S
N218 C222 1.345 . S
C219 C220 1.387 . S
C219 C223 1.391 . S
C220 C219 1.387 . S
C220 C221 1.369 . S
C220 H229 0.929 . S
C221 N218 1.346 . S
C221 C220 1.369 . S
C221 H224 0.928 . S
C222 N218 1.345 . S
C222 C223 1.371 . S
C222 H225 0.931 . S
C223 C219 1.391 . S
C223 C222 1.371 . S
C223 H230 0.930 . S
H224 C221 0.928 . S
H225 C222 0.931 . S
H226 C202 0.930 . S
H227 C199 0.930 . S
H228 C208 0.930 . S
H229 C220 0.929 . S
H230 C223 0.930 . S
C231 C232 1.351 . S
C231 N234 1.368 . S
C231 H236 0.931 . S
C232 C231 1.351 . S
C232 N233 1.373 . S
C232 H260 0.930 . S
N233 C232 1.373 . S
N233 C235 1.340 . S
N234 C231 1.368 . S
N234 C235 1.321 . S
N234 Co237 2.135 . S
C235 N233 1.340 . S
C235 N234 1.321 . S
C235 H259 0.930 . S
H236 C231 0.931 . S
Co237 N234 2.135 . S
Co237 N240 2.121 1_655 S
Co237 O245 2.055 . S
Co237 O248 2.039 . S
Co237 N251 2.140 . S
C238 O239 1.227 . S
C238 O248 1.265 . S
O239 C238 1.227 . S
N240 Co237 2.121 1_455 S
N240 C242 1.375 . S
N240 C243 1.313 . S
C241 C242 1.338 . S
C241 N244 1.377 . S
C241 H261 0.930 . S
C242 N240 1.375 . S
C242 C241 1.338 . S
C242 H246 0.931 . S
C243 N240 1.313 . S
C243 N244 1.344 . S
C243 H247 0.930 . S
N244 C241 1.377 . S
N244 C243 1.344 . S
O245 Co237 2.055 . S
O245 C249 1.253 . S
H246 C242 0.931 . S
H247 C243 0.930 . S
O248 Co237 2.039 . S
O248 C238 1.265 . S
C249 O245 1.253 . S
C249 O250 1.227 . S
O250 C249 1.227 . S
N251 Co237 2.140 . S
N251 C254 1.346 . S
N251 C255 1.345 1_655 S
C252 C253 1.387 1_455 S
C252 C256 1.391 . S
C253 C252 1.387 1_655 S
C253 C254 1.369 . S
C253 H262 0.929 . S
C254 N251 1.346 . S
C254 C253 1.369 . S
C254 H257 0.928 . S
C255 N251 1.345 1_455 S
C255 C256 1.371 . S
C255 H258 0.931 . S
C256 C252 1.391 . S
C256 C255 1.371 . S
C256 H263 0.930 . S
H257 C254 0.928 . S
H258 C255 0.931 . S
H259 C235 0.930 . S
H260 C232 0.930 . S
H261 C241 0.930 . S
H262 C253 0.929 . S
H263 C256 0.930 . S
C264 C265 1.351 . S
C264 N267 1.368 . S
C264 H269 0.931 . S
C265 C264 1.351 . S
C265 N266 1.373 . S
C265 H293 0.930 . S
N266 C265 1.373 . S
N266 C268 1.340 . S
N267 C264 1.368 . S
N267 C268 1.321 . S
N267 Co270 2.135 . S
C268 N266 1.340 . S
C268 N267 1.321 . S
C268 H292 0.930 . S
H269 C264 0.931 . S
Co270 N267 2.135 . S
Co270 N273 2.121 1_565 S
Co270 O278 2.055 . S
Co270 O281 2.039 . S
Co270 N284 2.140 . S
C271 O272 1.227 . S
C271 O281 1.265 . S
O272 C271 1.227 . S
N273 Co270 2.121 1_545 S
N273 C275 1.375 . S
N273 C276 1.313 . S
C274 C275 1.338 . S
C274 N277 1.377 . S
C274 H294 0.930 . S
C275 N273 1.375 . S
C275 C274 1.338 . S
C275 H279 0.931 . S
C276 N273 1.313 . S
C276 N277 1.344 . S
C276 H280 0.930 . S
N277 C274 1.377 . S
N277 C276 1.344 . S
O278 Co270 2.055 . S
O278 C282 1.253 . S
H279 C275 0.931 . S
H280 C276 0.930 . S
O281 Co270 2.039 . S
O281 C271 1.265 . S
C282 O278 1.253 . S
C282 O283 1.227 . S
O283 C282 1.227 . S
N284 Co270 2.140 . S
N284 C287 1.346 . S
N284 C288 1.345 1_565 S
C285 C286 1.387 1_545 S
C285 C289 1.391 . S
C286 C285 1.387 1_565 S
C286 C287 1.369 . S
C286 H295 0.929 . S
C287 N284 1.346 . S
C287 C286 1.369 . S
C287 H290 0.928 . S
C288 N284 1.345 1_545 S
C288 C289 1.371 . S
C288 H291 0.931 . S
C289 C285 1.391 . S
C289 C288 1.371 . S
C289 H296 0.930 . S
H290 C287 0.928 . S
H291 C288 0.931 . S
H292 C268 0.930 . S
H293 C265 0.930 . S
H294 C274 0.930 . S
H295 C286 0.929 . S
H296 C289 0.930 . S
C297 C298 1.351 . S
C297 N300 1.368 . S
C297 H302 0.931 . S
C298 C297 1.351 . S
C298 N299 1.373 . S
C298 H326 0.930 . S
N299 C298 1.373 . S
N299 C301 1.340 . S
N300 C297 1.368 . S
N300 C301 1.321 . S
N300 Co303 2.135 . S
C301 N299 1.340 . S
C301 N300 1.321 . S
C301 H325 0.930 . S
H302 C297 0.931 . S
Co303 N300 2.135 . S
Co303 N306 2.121 . S
Co303 O311 2.055 . S
Co303 O314 2.039 . S
Co303 N317 2.140 . S
C304 O305 1.227 . S
C304 O314 1.265 . S
O305 C304 1.227 . S
N306 Co303 2.121 . S
N306 C308 1.375 . S
N306 C309 1.313 . S
C307 C308 1.338 . S
C307 N310 1.377 . S
C307 H327 0.930 . S
C308 N306 1.375 . S
C308 C307 1.338 . S
C308 H312 0.931 . S
C309 N306 1.313 . S
C309 N310 1.344 . S
C309 H313 0.930 . S
N310 C307 1.377 . S
N310 C309 1.344 . S
O311 Co303 2.055 . S
O311 C315 1.253 . S
H312 C308 0.931 . S
H313 C309 0.930 . S
O314 Co303 2.039 . S
O314 C304 1.265 . S
C315 O311 1.253 . S
C315 O316 1.227 . S
O316 C315 1.227 . S
N317 Co303 2.140 . S
N317 C320 1.346 . S
N317 C321 1.345 . S
C318 C319 1.387 . S
C318 C322 1.391 . S
C319 C318 1.387 . S
C319 C320 1.369 . S
C319 H328 0.929 . S
C320 N317 1.346 . S
C320 C319 1.369 . S
C320 H323 0.928 . S
C321 N317 1.345 . S
C321 C322 1.371 . S
C321 H324 0.931 . S
C322 C318 1.391 . S
C322 C321 1.371 . S
C322 H329 0.930 . S
H323 C320 0.928 . S
H324 C321 0.931 . S
H325 C301 0.930 . S
H326 C298 0.930 . S
H327 C307 0.930 . S
H328 C319 0.929 . S
H329 C322 0.930 . S
C330 C331 1.351 . S
C330 N333 1.368 . S
C330 H335 0.931 . S
C331 C330 1.351 . S
C331 N332 1.373 . S
C331 H359 0.930 . S
N332 C331 1.373 . S
N332 C334 1.340 . S
N333 C330 1.368 . S
N333 C334 1.321 . S
N333 Co336 2.135 . S
C334 N332 1.340 . S
C334 N333 1.321 . S
C334 H358 0.930 . S
H335 C330 0.931 . S
Co336 N333 2.135 . S
Co336 N339 2.121 . S
Co336 O344 2.055 . S
Co336 O347 2.039 . S
Co336 N350 2.140 . S
C337 O338 1.227 . S
C337 O347 1.265 . S
O338 C337 1.227 . S
N339 Co336 2.121 . S
N339 C341 1.375 . S
N339 C342 1.313 . S
C340 C341 1.338 . S
C340 N343 1.377 . S
C340 H360 0.930 . S
C341 N339 1.375 . S
C341 C340 1.338 . S
C341 H345 0.931 . S
C342 N339 1.313 . S
C342 N343 1.344 . S
C342 H346 0.930 . S
N343 C340 1.377 . S
N343 C342 1.344 . S
O344 Co336 2.055 . S
O344 C348 1.253 . S
H345 C341 0.931 . S
H346 C342 0.930 . S
O347 Co336 2.039 . S
O347 C337 1.265 . S
C348 O344 1.253 . S
C348 O349 1.227 . S
O349 C348 1.227 . S
N350 Co336 2.140 . S
N350 C353 1.346 . S
N350 C354 1.345 . S
C351 C352 1.387 . S
C351 C355 1.391 . S
C352 C351 1.387 . S
C352 C353 1.369 . S
C352 H361 0.929 . S
C353 N350 1.346 . S
C353 C352 1.369 . S
C353 H356 0.928 . S
C354 N350 1.345 . S
C354 C355 1.371 . S
C354 H357 0.931 . S
C355 C351 1.391 . S
C355 C354 1.371 . S
C355 H362 0.930 . S
H356 C353 0.928 . S
H357 C354 0.931 . S
H358 C334 0.930 . S
H359 C331 0.930 . S
H360 C340 0.930 . S
H361 C352 0.929 . S
H362 C355 0.930 . S
C363 C364 1.351 . S
C363 N366 1.368 . S
C363 H368 0.931 . S
C364 C363 1.351 . S
C364 N365 1.373 . S
C364 H392 0.930 . S
N365 C364 1.373 . S
N365 C367 1.340 . S
N366 C363 1.368 . S
N366 C367 1.321 . S
N366 Co369 2.135 . S
C367 N365 1.340 . S
C367 N366 1.321 . S
C367 H391 0.930 . S
H368 C363 0.931 . S
Co369 N366 2.135 . S
Co369 N372 2.121 1_655 S
Co369 O377 2.055 . S
Co369 O380 2.039 . S
Co369 N383 2.140 . S
C370 O371 1.227 . S
C370 O380 1.265 . S
O371 C370 1.227 . S
N372 Co369 2.121 1_455 S
N372 C374 1.375 . S
N372 C375 1.313 . S
C373 C374 1.338 . S
C373 N376 1.377 . S
C373 H393 0.930 . S
C374 N372 1.375 . S
C374 C373 1.338 . S
C374 H378 0.931 . S
C375 N372 1.313 . S
C375 N376 1.344 . S
C375 H379 0.930 . S
N376 C373 1.377 . S
N376 C375 1.344 . S
O377 Co369 2.055 . S
O377 C381 1.253 . S
H378 C374 0.931 . S
H379 C375 0.930 . S
O380 Co369 2.039 . S
O380 C370 1.265 . S
C381 O377 1.253 . S
C381 O382 1.227 . S
O382 C381 1.227 . S
N383 Co369 2.140 . S
N383 C386 1.346 . S
N383 C387 1.345 1_655 S
C384 C385 1.387 1_455 S
C384 C388 1.391 . S
C385 C384 1.387 1_655 S
C385 C386 1.369 . S
C385 H394 0.929 . S
C386 N383 1.346 . S
C386 C385 1.369 . S
C386 H389 0.928 . S
C387 N383 1.345 1_455 S
C387 C388 1.371 . S
C387 H390 0.931 . S
C388 C384 1.391 . S
C388 C387 1.371 . S
C388 H395 0.930 . S
H389 C386 0.928 . S
H390 C387 0.931 . S
H391 C367 0.930 . S
H392 C364 0.930 . S
H393 C373 0.930 . S
H394 C385 0.929 . S
H395 C388 0.930 . S
C396 C397 1.351 . S
C396 N399 1.368 . S
C396 H401 0.931 . S
C397 C396 1.351 . S
C397 N398 1.373 . S
C397 H425 0.930 . S
N398 C397 1.373 . S
N398 C400 1.340 . S
N399 C396 1.368 . S
N399 C400 1.321 . S
N399 Co402 2.135 . S
C400 N398 1.340 . S
C400 N399 1.321 . S
C400 H424 0.930 . S
H401 C396 0.931 . S
Co402 N399 2.135 . S
Co402 N405 2.121 1_545 S
Co402 O410 2.055 . S
Co402 O413 2.039 . S
Co402 N416 2.140 . S
C403 O404 1.227 . S
C403 O413 1.265 . S
O404 C403 1.227 . S
N405 Co402 2.121 1_565 S
N405 C407 1.375 . S
N405 C408 1.313 . S
C406 C407 1.338 . S
C406 N409 1.377 . S
C406 H426 0.930 . S
C407 N405 1.375 . S
C407 C406 1.338 . S
C407 H411 0.931 . S
C408 N405 1.313 . S
C408 N409 1.344 . S
C408 H412 0.930 . S
N409 C406 1.377 . S
N409 C408 1.344 . S
O410 Co402 2.055 . S
O410 C414 1.253 . S
H411 C407 0.931 . S
H412 C408 0.930 . S
O413 Co402 2.039 . S
O413 C403 1.265 . S
C414 O410 1.253 . S
C414 O415 1.227 . S
O415 C414 1.227 . S
N416 Co402 2.140 . S
N416 C419 1.346 . S
N416 C420 1.345 1_545 S
C417 C418 1.387 1_565 S
C417 C421 1.391 . S
C418 C417 1.387 1_545 S
C418 C419 1.369 . S
C418 H427 0.929 . S
C419 N416 1.346 . S
C419 C418 1.369 . S
C419 H422 0.928 . S
C420 N416 1.345 1_565 S
C420 C421 1.371 . S
C420 H423 0.931 . S
C421 C417 1.391 . S
C421 C420 1.371 . S
C421 H428 0.930 . S
H422 C419 0.928 . S
H423 C420 0.931 . S
H424 C400 0.930 . S
H425 C397 0.930 . S
H426 C406 0.930 . S
H427 C418 0.929 . S
H428 C421 0.930 . S
C429 C430 1.351 . S
C429 N432 1.368 . S
C429 H434 0.931 . S
C430 C429 1.351 . S
C430 N431 1.373 . S
C430 H458 0.930 . S
N431 C430 1.373 . S
N431 C433 1.340 . S
N432 C429 1.368 . S
N432 C433 1.321 . S
N432 Co435 2.135 . S
C433 N431 1.340 . S
C433 N432 1.321 . S
C433 H457 0.930 . S
H434 C429 0.931 . S
Co435 N432 2.135 . S
Co435 N438 2.121 . S
Co435 O443 2.055 . S
Co435 O446 2.039 . S
Co435 N449 2.140 . S
C436 O437 1.227 . S
C436 O446 1.265 . S
O437 C436 1.227 . S
N438 Co435 2.121 . S
N438 C440 1.375 . S
N438 C441 1.313 . S
C439 C440 1.338 . S
C439 N442 1.377 . S
C439 H459 0.930 . S
C440 N438 1.375 . S
C440 C439 1.338 . S
C440 H444 0.931 . S
C441 N438 1.313 . S
C441 N442 1.344 . S
C441 H445 0.930 . S
N442 C439 1.377 . S
N442 C441 1.344 . S
O443 Co435 2.055 . S
O443 C447 1.253 . S
H444 C440 0.931 . S
H445 C441 0.930 . S
O446 Co435 2.039 . S
O446 C436 1.265 . S
C447 O443 1.253 . S
C447 O448 1.227 . S
O448 C447 1.227 . S
N449 Co435 2.140 . S
N449 C452 1.346 . S
N449 C453 1.345 . S
C450 C451 1.387 . S
C450 C454 1.391 . S
C451 C450 1.387 . S
C451 C452 1.369 . S
C451 H460 0.929 . S
C452 N449 1.346 . S
C452 C451 1.369 . S
C452 H455 0.928 . S
C453 N449 1.345 . S
C453 C454 1.371 . S
C453 H456 0.931 . S
C454 C450 1.391 . S
C454 C453 1.371 . S
C454 H461 0.930 . S
H455 C452 0.928 . S
H456 C453 0.931 . S
H457 C433 0.930 . S
H458 C430 0.930 . S
H459 C439 0.930 . S
H460 C451 0.929 . S
H461 C454 0.930 . S
C462 C463 1.351 . S
C462 N465 1.368 . S
C462 H467 0.931 . S
C463 C462 1.351 . S
C463 N464 1.373 . S
C463 H491 0.930 . S
N464 C463 1.373 . S
N464 C466 1.340 . S
N465 C462 1.368 . S
N465 C466 1.321 . S
N465 Co468 2.135 . S
C466 N464 1.340 . S
C466 N465 1.321 . S
C466 H490 0.930 . S
H467 C462 0.931 . S
Co468 N465 2.135 . S
Co468 N471 2.121 . S
Co468 O476 2.055 . S
Co468 O479 2.039 . S
Co468 N482 2.140 . S
C469 O470 1.227 . S
C469 O479 1.265 . S
O470 C469 1.227 . S
N471 Co468 2.121 . S
N471 C473 1.375 . S
N471 C474 1.313 . S
C472 C473 1.338 . S
C472 N475 1.377 . S
C472 H492 0.930 . S
C473 N471 1.375 . S
C473 C472 1.338 . S
C473 H477 0.931 . S
C474 N471 1.313 . S
C474 N475 1.344 . S
C474 H478 0.930 . S
N475 C472 1.377 . S
N475 C474 1.344 . S
O476 Co468 2.055 . S
O476 C480 1.253 . S
H477 C473 0.931 . S
H478 C474 0.930 . S
O479 Co468 2.039 . S
O479 C469 1.265 . S
C480 O476 1.253 . S
C480 O481 1.227 . S
O481 C480 1.227 . S
N482 Co468 2.140 . S
N482 C485 1.346 . S
N482 C486 1.345 . S
C483 C484 1.387 . S
C483 C487 1.391 . S
C484 C483 1.387 . S
C484 C485 1.369 . S
C484 H493 0.929 . S
C485 N482 1.346 . S
C485 C484 1.369 . S
C485 H488 0.928 . S
C486 N482 1.345 . S
C486 C487 1.371 . S
C486 H489 0.931 . S
C487 C483 1.391 . S
C487 C486 1.371 . S
C487 H494 0.930 . S
H488 C485 0.928 . S
H489 C486 0.931 . S
H490 C466 0.930 . S
H491 C463 0.930 . S
H492 C472 0.930 . S
H493 C484 0.929 . S
H494 C487 0.930 . S
C495 C496 1.351 . S
C495 N498 1.368 . S
C495 H500 0.931 . S
C496 C495 1.351 . S
C496 N497 1.373 . S
C496 H524 0.930 . S
N497 C496 1.373 . S
N497 C499 1.340 . S
N498 C495 1.368 . S
N498 C499 1.321 . S
N498 Co501 2.135 . S
C499 N497 1.340 . S
C499 N498 1.321 . S
C499 H523 0.930 . S
H500 C495 0.931 . S
Co501 N498 2.135 . S
Co501 N504 2.121 1_455 S
Co501 O509 2.055 . S
Co501 O512 2.039 . S
Co501 N515 2.140 . S
C502 O503 1.227 . S
C502 O512 1.265 . S
O503 C502 1.227 . S
N504 Co501 2.121 1_655 S
N504 C506 1.375 . S
N504 C507 1.313 . S
C505 C506 1.338 . S
C505 N508 1.377 . S
C505 H525 0.930 . S
C506 N504 1.375 . S
C506 C505 1.338 . S
C506 H510 0.931 . S
C507 N504 1.313 . S
C507 N508 1.344 . S
C507 H511 0.930 . S
N508 C505 1.377 . S
N508 C507 1.344 . S
O509 Co501 2.055 . S
O509 C513 1.253 . S
H510 C506 0.931 . S
H511 C507 0.930 . S
O512 Co501 2.039 . S
O512 C502 1.265 . S
C513 O509 1.253 . S
C513 O514 1.227 . S
O514 C513 1.227 . S
N515 Co501 2.140 . S
N515 C518 1.346 . S
N515 C519 1.345 1_455 S
C516 C517 1.387 1_655 S
C516 C520 1.391 . S
C517 C516 1.387 1_455 S
C517 C518 1.369 . S
C517 H526 0.929 . S
C518 N515 1.346 . S
C518 C517 1.369 . S
C518 H521 0.928 . S
C519 N515 1.345 1_655 S
C519 C520 1.371 . S
C519 H522 0.931 . S
C520 C516 1.391 . S
C520 C519 1.371 . S
C520 H527 0.930 . S
H521 C518 0.928 . S
H522 C519 0.931 . S
H523 C499 0.930 . S
H524 C496 0.930 . S
H525 C505 0.930 . S
H526 C517 0.929 . S
H527 C520 0.930 . S
H528 C534 0.930 . S
H529 C537 0.930 . S
H530 C538 0.930 . S
H531 C539 0.930 . S
H532 C542 0.930 . S
H533 C543 0.930 . S
C534 H528 0.930 . S
C534 C535 1.355 . S
C534 C536 1.415 . S
C535 C534 1.355 . S
C535 C537 1.419 . S
C536 C534 1.415 . S
C536 C541 1.425 . S
C536 C543 1.409 . S
C537 H529 0.930 . S
C537 C535 1.419 . S
C537 C538 1.362 . S
C538 H530 0.930 . S
C538 C537 1.362 . S
C538 C541 1.409 . S
C539 H531 0.930 . S
C539 C540 1.355 . S
C539 C541 1.415 . S
C540 C539 1.355 . S
C540 C542 1.419 . S
C541 C536 1.425 . S
C541 C538 1.409 . S
C541 C539 1.415 . S
C542 H532 0.930 . S
C542 C540 1.419 . S
C542 C543 1.362 . S
C543 H533 0.930 . S
C543 C536 1.409 . S
C543 C542 1.362 . S
H544 C550 0.930 . S
H545 C553 0.930 . S
H546 C554 0.930 . S
H547 C555 0.930 . S
H548 C558 0.930 . S
H549 C559 0.930 . S
C550 H544 0.930 . S
C550 C551 1.355 . S
C550 C552 1.415 . S
C551 C550 1.355 . S
C551 C553 1.419 . S
C552 C550 1.415 . S
C552 C557 1.425 . S
C552 C559 1.409 . S
C553 H545 0.930 . S
C553 C551 1.419 . S
C553 C554 1.362 . S
C554 H546 0.930 . S
C554 C553 1.362 . S
C554 C557 1.409 . S
C555 H547 0.930 . S
C555 C556 1.355 . S
C555 C557 1.415 . S
C556 C555 1.355 . S
C556 C558 1.419 . S
C557 C552 1.425 . S
C557 C554 1.409 . S
C557 C555 1.415 . S
C558 H548 0.930 . S
C558 C556 1.419 . S
C558 C559 1.362 . S
C559 H549 0.930 . S
C559 C552 1.409 . S
C559 C558 1.362 . S
H560 C566 0.930 . S
H561 C569 0.930 . S
H562 C570 0.930 . S
H563 C571 0.930 . S
H564 C574 0.930 . S
H565 C575 0.930 . S
C566 H560 0.930 . S
C566 C567 1.355 . S
C566 C568 1.415 . S
C567 C566 1.355 . S
C567 C569 1.419 1_655 S
C568 C566 1.415 . S
C568 C573 1.425 . S
C568 C575 1.409 . S
C569 H561 0.930 . S
C569 C567 1.419 1_455 S
C569 C570 1.362 . S
C570 H562 0.930 . S
C570 C569 1.362 . S
C570 C573 1.409 1_455 S
C571 H563 0.930 . S
C571 C572 1.355 . S
C571 C573 1.415 . S
C572 C571 1.355 . S
C572 C574 1.419 . S
C573 C568 1.425 . S
C573 C570 1.409 1_655 S
C573 C571 1.415 . S
C574 H564 0.930 . S
C574 C572 1.419 . S
C574 C575 1.362 . S
C575 H565 0.930 . S
C575 C568 1.409 . S
C575 C574 1.362 . S
H576 C582 0.930 . S
H577 C585 0.930 . S
H578 C586 0.930 1_545 S
H579 C587 0.930 1_545 S
H580 C590 0.930 . S
H581 C591 0.930 . S
C582 H576 0.930 . S
C582 C583 1.355 . S
C582 C584 1.415 . S
C583 C582 1.355 . S
C583 C585 1.419 . S
C584 C582 1.415 . S
C584 C589 1.425 . S
C584 C591 1.409 . S
C585 H577 0.930 . S
C585 C583 1.419 . S
C585 C586 1.362 . S
C586 H578 0.930 1_565 S
C586 C585 1.362 . S
C586 C589 1.409 . S
C587 H579 0.930 1_565 S
C587 C588 1.355 . S
C587 C589 1.415 . S
C588 C587 1.355 . S
C588 C590 1.419 . S
C589 C584 1.425 . S
C589 C586 1.409 . S
C589 C587 1.415 . S
C590 H580 0.930 . S
C590 C588 1.419 . S
C590 C591 1.362 . S
C591 H581 0.930 . S
C591 C584 1.409 . S
C591 C590 1.362 . S
H592 C598 0.930 . S
H593 C601 0.930 . S
H594 C602 0.930 1_655 S
H595 C603 0.930 . S
H596 C606 0.930 . S
H597 C607 0.930 . S
C598 H592 0.930 . S
C598 C599 1.355 . S
C598 C600 1.415 . S
C599 C598 1.355 . S
C599 C601 1.419 1_455 S
C600 C598 1.415 . S
C600 C605 1.425 . S
C600 C607 1.409 . S
C601 H593 0.930 . S
C601 C599 1.419 1_655 S
C601 C602 1.362 1_655 S
C602 H594 0.930 1_455 S
C602 C601 1.362 1_455 S
C602 C605 1.409 . S
C603 H595 0.930 . S
C603 C604 1.355 . S
C603 C605 1.415 . S
C604 C603 1.355 . S
C604 C606 1.419 . S
C605 C600 1.425 . S
C605 C602 1.409 . S
C605 C603 1.415 . S
C606 H596 0.930 . S
C606 C604 1.419 . S
C606 C607 1.362 . S
C607 H597 0.930 . S
C607 C600 1.409 . S
C607 C606 1.362 . S
H608 C614 0.930 1_565 S
H609 C617 0.930 . S
H610 C618 0.930 . S
H611 C619 0.930 . S
H612 C622 0.930 . S
H613 C623 0.930 1_565 S
C614 H608 0.930 1_545 S
C614 C615 1.355 . S
C614 C616 1.415 . S
C615 C614 1.355 . S
C615 C617 1.419 . S
C616 C614 1.415 . S
C616 C621 1.425 . S
C616 C623 1.409 . S
C617 H609 0.930 . S
C617 C615 1.419 . S
C617 C618 1.362 . S
C618 H610 0.930 . S
C618 C617 1.362 . S
C618 C621 1.409 . S
C619 H611 0.930 . S
C619 C620 1.355 . S
C619 C621 1.415 . S
C620 C619 1.355 . S
C620 C622 1.419 . S
C621 C616 1.425 . S
C621 C618 1.409 . S
C621 C619 1.415 . S
C622 H612 0.930 . S
C622 C620 1.419 . S
C622 C623 1.362 . S
C623 H613 0.930 1_545 S
C623 C616 1.409 . S
C623 C622 1.362 . S
H624 C630 0.930 . S
H625 C633 0.930 . S
H626 C634 0.930 . S
H627 C635 0.930 . S
H628 C638 0.930 . S
H629 C639 0.930 . S
C630 H624 0.930 . S
C630 C631 1.355 . S
C630 C632 1.415 . S
C631 C630 1.355 . S
C631 C633 1.419 . S
C632 C630 1.415 . S
C632 C637 1.425 . S
C632 C639 1.409 . S
C633 H625 0.930 . S
C633 C631 1.419 . S
C633 C634 1.362 . S
C634 H626 0.930 . S
C634 C633 1.362 . S
C634 C637 1.409 . S
C635 H627 0.930 . S
C635 C636 1.355 . S
C635 C637 1.415 . S
C636 C635 1.355 . S
C636 C638 1.419 . S
C637 C632 1.425 . S
C637 C634 1.409 . S
C637 C635 1.415 . S
C638 H628 0.930 . S
C638 C636 1.419 . S
C638 C639 1.362 . S
C639 H629 0.930 . S
C639 C632 1.409 . S
C639 C638 1.362 . S
H640 C646 0.930 . S
H641 C649 0.930 . S
H642 C650 0.930 . S
H643 C651 0.930 . S
H644 C654 0.930 . S
H645 C655 0.930 . S
C646 H640 0.930 . S
C646 C647 1.355 . S
C646 C648 1.415 . S
C647 C646 1.355 . S
C647 C649 1.419 . S
C648 C646 1.415 . S
C648 C653 1.425 . S
C648 C655 1.409 . S
C649 H641 0.930 . S
C649 C647 1.419 . S
C649 C650 1.362 . S
C650 H642 0.930 . S
C650 C649 1.362 . S
C650 C653 1.409 . S
C651 H643 0.930 . S
C651 C652 1.355 . S
C651 C653 1.415 . S
C652 C651 1.355 . S
C652 C654 1.419 . S
C653 C648 1.425 . S
C653 C650 1.409 . S
C653 C651 1.415 . S
C654 H644 0.930 . S
C654 C652 1.419 . S
C654 C655 1.362 . S
C655 H645 0.930 . S
C655 C648 1.409 . S
C655 C654 1.362 . S
H656 C662 0.930 . S
H657 C665 0.930 . S
H658 C666 0.930 . S
H659 C667 0.930 . S
H660 C670 0.930 . S
H661 C671 0.930 . S
C662 H656 0.930 . S
C662 C663 1.355 . S
C662 C664 1.415 . S
C663 C662 1.355 . S
C663 C665 1.419 . S
C664 C662 1.415 . S
C664 C669 1.425 . S
C664 C671 1.409 . S
C665 H657 0.930 . S
C665 C663 1.419 . S
C665 C666 1.362 . S
C666 H658 0.930 . S
C666 C665 1.362 . S
C666 C669 1.409 . S
C667 H659 0.930 . S
C667 C668 1.355 . S
C667 C669 1.415 . S
C668 C667 1.355 . S
C668 C670 1.419 . S
C669 C664 1.425 . S
C669 C666 1.409 . S
C669 C667 1.415 . S
C670 H660 0.930 . S
C670 C668 1.419 . S
C670 C671 1.362 . S
C671 H661 0.930 . S
C671 C664 1.409 . S
C671 C670 1.362 . S
H672 C678 0.930 . S
H673 C681 0.930 . S
H674 C682 0.930 . S
H675 C683 0.930 . S
H676 C686 0.930 . S
H677 C687 0.930 . S
C678 H672 0.930 . S
C678 C679 1.355 . S
C678 C680 1.415 . S
C679 C678 1.355 . S
C679 C681 1.419 . S
C680 C678 1.415 . S
C680 C685 1.425 . S
C680 C687 1.409 . S
C681 H673 0.930 . S
C681 C679 1.419 . S
C681 C682 1.362 . S
C682 H674 0.930 . S
C682 C681 1.362 . S
C682 C685 1.409 . S
C683 H675 0.930 . S
C683 C684 1.355 . S
C683 C685 1.415 . S
C684 C683 1.355 . S
C684 C686 1.419 . S
C685 C680 1.425 . S
C685 C682 1.409 . S
C685 C683 1.415 . S
C686 H676 0.930 . S
C686 C684 1.419 . S
C686 C687 1.362 . S
C687 H677 0.930 . S
C687 C680 1.409 . S
C687 C686 1.362 . S
H688 C694 0.930 . S
H689 C697 0.930 . S
H690 C698 0.930 . S
H691 C699 0.930 . S
H692 C702 0.930 . S
H693 C703 0.930 . S
C694 H688 0.930 . S
C694 C695 1.355 . S
C694 C696 1.415 . S
C695 C694 1.355 . S
C695 C697 1.419 . S
C696 C694 1.415 . S
C696 C701 1.425 . S
C696 C703 1.409 . S
C697 H689 0.930 . S
C697 C695 1.419 . S
C697 C698 1.362 . S
C698 H690 0.930 . S
C698 C697 1.362 . S
C698 C701 1.409 . S
C699 H691 0.930 . S
C699 C700 1.355 . S
C699 C701 1.415 . S
C700 C699 1.355 . S
C700 C702 1.419 . S
C701 C696 1.425 . S
C701 C698 1.409 . S
C701 C699 1.415 . S
C702 H692 0.930 . S
C702 C700 1.419 . S
C702 C703 1.362 . S
C703 H693 0.930 . S
C703 C696 1.409 . S
C703 C702 1.362 . S
H704 C710 0.930 . S
H705 C713 0.930 . S
H706 C714 0.930 . S
H707 C715 0.930 . S
H708 C718 0.930 . S
H709 C719 0.930 . S
C710 H704 0.930 . S
C710 C711 1.355 . S
C710 C712 1.415 . S
C711 C710 1.355 . S
C711 C713 1.419 1_545 S
C712 C710 1.415 . S
C712 C717 1.425 . S
C712 C719 1.409 . S
C713 H705 0.930 . S
C713 C711 1.419 1_565 S
C713 C714 1.362 . S
C714 H706 0.930 . S
C714 C713 1.362 . S
C714 C717 1.409 1_565 S
C715 H707 0.930 . S
C715 C716 1.355 . S
C715 C717 1.415 . S
C716 C715 1.355 . S
C716 C718 1.419 . S
C717 C712 1.425 . S
C717 C714 1.409 1_545 S
C717 C715 1.415 . S
C718 H708 0.930 . S
C718 C716 1.419 . S
C718 C719 1.362 . S
C719 H709 0.930 . S
C719 C712 1.409 . S
C719 C718 1.362 . S
H720 C726 0.930 1_455 S
H721 C729 0.930 . S
H722 C730 0.930 . S
H723 C731 0.930 . S
H724 C734 0.930 . S
H725 C735 0.930 1_455 S
C726 H720 0.930 1_655 S
C726 C727 1.355 . S
C726 C728 1.415 . S
C727 C726 1.355 . S
C727 C729 1.419 . S
C728 C726 1.415 . S
C728 C733 1.425 . S
C728 C735 1.409 . S
C729 H721 0.930 . S
C729 C727 1.419 . S
C729 C730 1.362 . S
C730 H722 0.930 . S
C730 C729 1.362 . S
C730 C733 1.409 . S
C731 H723 0.930 . S
C731 C732 1.355 . S
C731 C733 1.415 . S
C732 C731 1.355 . S
C732 C734 1.419 . S
C733 C728 1.425 . S
C733 C730 1.409 . S
C733 C731 1.415 . S
C734 H724 0.930 . S
C734 C732 1.419 . S
C734 C735 1.362 . S
C735 H725 0.930 1_655 S
C735 C728 1.409 . S
C735 C734 1.362 . S
H736 C742 0.930 1_545 S
H737 C745 0.930 . S
H738 C746 0.930 . S
H739 C747 0.930 . S
H740 C750 0.930 . S
H741 C751 0.930 1_545 S
C742 H736 0.930 1_565 S
C742 C743 1.355 . S
C742 C744 1.415 . S
C743 C742 1.355 . S
C743 C745 1.419 . S
C744 C742 1.415 . S
C744 C749 1.425 . S
C744 C751 1.409 . S
C745 H737 0.930 . S
C745 C743 1.419 . S
C745 C746 1.362 . S
C746 H738 0.930 . S
C746 C745 1.362 . S
C746 C749 1.409 . S
C747 H739 0.930 . S
C747 C748 1.355 . S
C747 C749 1.415 . S
C748 C747 1.355 . S
C748 C750 1.419 . S
C749 C744 1.425 . S
C749 C746 1.409 . S
C749 C747 1.415 . S
C750 H740 0.930 . S
C750 C748 1.419 . S
C750 C751 1.362 . S
C751 H741 0.930 1_565 S
C751 C744 1.409 . S
C751 C750 1.362 . S
H752 C758 0.930 . S
H753 C761 0.930 . S
H754 C762 0.930 . S
H755 C763 0.930 . S
H756 C766 0.930 . S
H757 C767 0.930 . S
C758 H752 0.930 . S
C758 C759 1.355 . S
C758 C760 1.415 . S
C759 C758 1.355 . S
C759 C761 1.419 . S
C760 C758 1.415 . S
C760 C765 1.425 . S
C760 C767 1.409 . S
C761 H753 0.930 . S
C761 C759 1.419 . S
C761 C762 1.362 . S
C762 H754 0.930 . S
C762 C761 1.362 . S
C762 C765 1.409 . S
C763 H755 0.930 . S
C763 C764 1.355 . S
C763 C765 1.415 . S
C764 C763 1.355 . S
C764 C766 1.419 . S
C765 C760 1.425 . S
C765 C762 1.409 . S
C765 C763 1.415 . S
C766 H756 0.930 . S
C766 C764 1.419 . S
C766 C767 1.362 . S
C767 H757 0.930 . S
C767 C760 1.409 . S
C767 C766 1.362 . S
H768 C774 0.930 . S
H769 C777 0.930 . S
H770 C778 0.930 . S
H771 C779 0.930 . S
H772 C782 0.930 . S
H773 C783 0.930 . S
C774 H768 0.930 . S
C774 C775 1.355 . S
C774 C776 1.415 . S
C775 C774 1.355 . S
C775 C777 1.419 . S
C776 C774 1.415 . S
C776 C781 1.425 . S
C776 C783 1.409 . S
C777 H769 0.930 . S
C777 C775 1.419 . S
C777 C778 1.362 . S
C778 H770 0.930 . S
C778 C777 1.362 . S
C778 C781 1.409 . S
C779 H771 0.930 . S
C779 C780 1.355 . S
C779 C781 1.415 . S
C780 C779 1.355 . S
C780 C782 1.419 . S
C781 C776 1.425 . S
C781 C778 1.409 . S
C781 C779 1.415 . S
C782 H772 0.930 . S
C782 C780 1.419 . S
C782 C783 1.362 . S
C783 H773 0.930 . S
C783 C776 1.409 . S
C783 C782 1.362 . S
H784 C790 0.930 . S
H785 C793 0.930 . S
H786 C794 0.930 . S
H787 C795 0.930 . S
H788 C798 0.930 . S
H789 C799 0.930 . S
C790 H784 0.930 . S
C790 C791 1.355 . S
C790 C792 1.415 . S
C791 C790 1.355 . S
C791 C793 1.419 . S
C792 C790 1.415 . S
C792 C797 1.425 . S
C792 C799 1.409 . S
C793 H785 0.930 . S
C793 C791 1.419 . S
C793 C794 1.362 . S
C794 H786 0.930 . S
C794 C793 1.362 . S
C794 C797 1.409 . S
C795 H787 0.930 . S
C795 C796 1.355 . S
C795 C797 1.415 . S
C796 C795 1.355 . S
C796 C798 1.419 . S
C797 C792 1.425 . S
C797 C794 1.409 . S
C797 C795 1.415 . S
C798 H788 0.930 . S
C798 C796 1.419 . S
C798 C799 1.362 . S
C799 H789 0.930 . S
C799 C792 1.409 . S
C799 C798 1.362 . S
H800 C806 0.930 . S
H801 C809 0.930 . S
H802 C810 0.930 . S
H803 C811 0.930 . S
H804 C814 0.930 . S
H805 C815 0.930 . S
C806 H800 0.930 . S
C806 C807 1.355 . S
C806 C808 1.415 . S
C807 C806 1.355 . S
C807 C809 1.419 . S
C808 C806 1.415 . S
C808 C813 1.425 . S
C808 C815 1.409 . S
C809 H801 0.930 . S
C809 C807 1.419 . S
C809 C810 1.362 . S
C810 H802 0.930 . S
C810 C809 1.362 . S
C810 C813 1.409 . S
C811 H803 0.930 . S
C811 C812 1.355 . S
C811 C813 1.415 . S
C812 C811 1.355 . S
C812 C814 1.419 . S
C813 C808 1.425 . S
C813 C810 1.409 . S
C813 C811 1.415 . S
C814 H804 0.930 . S
C814 C812 1.419 . S
C814 C815 1.362 . S
C815 H805 0.930 . S
C815 C808 1.409 . S
C815 C814 1.362 . S
H816 C822 0.930 . S
H817 C825 0.930 . S
H818 C826 0.930 . S
H819 C827 0.930 . S
H820 C830 0.930 . S
H821 C831 0.930 . S
C822 H816 0.930 . S
C822 C823 1.355 . S
C822 C824 1.415 . S
C823 C822 1.355 . S
C823 C825 1.419 . S
C824 C822 1.415 . S
C824 C829 1.425 . S
C824 C831 1.409 . S
C825 H817 0.930 . S
C825 C823 1.419 . S
C825 C826 1.362 . S
C826 H818 0.930 . S
C826 C825 1.362 . S
C826 C829 1.409 . S
C827 H819 0.930 . S
C827 C828 1.355 . S
C827 C829 1.415 . S
C828 C827 1.355 . S
C828 C830 1.419 . S
C829 C824 1.425 . S
C829 C826 1.409 . S
C829 C827 1.415 . S
C830 H820 0.930 . S
C830 C828 1.419 . S
C830 C831 1.362 . S
C831 H821 0.930 . S
C831 C824 1.409 . S
C831 C830 1.362 . S
H832 C838 0.930 . S
H833 C841 0.930 . S
H834 C842 0.930 . S
H835 C843 0.930 . S
H836 C846 0.930 . S
H837 C847 0.930 . S
C838 H832 0.930 . S
C838 C839 1.355 . S
C838 C840 1.415 . S
C839 C838 1.355 . S
C839 C841 1.419 . S
C840 C838 1.415 . S
C840 C845 1.425 . S
C840 C847 1.409 . S
C841 H833 0.930 . S
C841 C839 1.419 . S
C841 C842 1.362 . S
C842 H834 0.930 . S
C842 C841 1.362 . S
C842 C845 1.409 . S
C843 H835 0.930 . S
C843 C844 1.355 . S
C843 C845 1.415 . S
C844 C843 1.355 . S
C844 C846 1.419 . S
C845 C840 1.425 . S
C845 C842 1.409 . S
C845 C843 1.415 . S
C846 H836 0.930 . S
C846 C844 1.419 . S
C846 C847 1.362 . S
C847 H837 0.930 . S
C847 C840 1.409 . S
C847 C846 1.362 . S
H848 C854 0.930 . S
H849 C857 0.930 . S
H850 C858 0.930 . S
H851 C859 0.930 . S
H852 C862 0.930 . S
H853 C863 0.930 . S
C854 H848 0.930 . S
C854 C855 1.355 . S
C854 C856 1.415 . S
C855 C854 1.355 . S
C855 C857 1.419 . S
C856 C854 1.415 . S
C856 C861 1.425 . S
C856 C863 1.409 . S
C857 H849 0.930 . S
C857 C855 1.419 . S
C857 C858 1.362 . S
C858 H850 0.930 . S
C858 C857 1.362 . S
C858 C861 1.409 . S
C859 H851 0.930 . S
C859 C860 1.355 . S
C859 C861 1.415 . S
C860 C859 1.355 . S
C860 C862 1.419 . S
C861 C856 1.425 . S
C861 C858 1.409 . S
C861 C859 1.415 . S
C862 H852 0.930 . S
C862 C860 1.419 . S
C862 C863 1.362 . S
C863 H853 0.930 . S
C863 C856 1.409 . S
C863 C862 1.362 . S
H864 C870 0.930 . S
H865 C873 0.930 . S
H866 C874 0.930 . S
H867 C875 0.930 . S
H868 C878 0.930 . S
H869 C879 0.930 . S
C870 H864 0.930 . S
C870 C871 1.355 . S
C870 C872 1.415 . S
C871 C870 1.355 . S
C871 C873 1.419 . S
C872 C870 1.415 . S
C872 C877 1.425 . S
C872 C879 1.409 . S
C873 H865 0.930 . S
C873 C871 1.419 . S
C873 C874 1.362 . S
C874 H866 0.930 . S
C874 C873 1.362 . S
C874 C877 1.409 . S
C875 H867 0.930 . S
C875 C876 1.355 . S
C875 C877 1.415 . S
C876 C875 1.355 . S
C876 C878 1.419 . S
C877 C872 1.425 . S
C877 C874 1.409 . S
C877 C875 1.415 . S
C878 H868 0.930 . S
C878 C876 1.419 . S
C878 C879 1.362 . S
C879 H869 0.930 . S
C879 C872 1.409 . S
C879 C878 1.362 . S
H880 C886 0.930 . S
H881 C889 0.930 . S
H882 C890 0.930 . S
H883 C891 0.930 . S
H884 C894 0.930 . S
H885 C895 0.930 . S
C886 H880 0.930 . S
C886 C887 1.355 . S
C886 C888 1.415 . S
C887 C886 1.355 . S
C887 C889 1.419 . S
C888 C886 1.415 . S
C888 C893 1.425 . S
C888 C895 1.409 . S
C889 H881 0.930 . S
C889 C887 1.419 . S
C889 C890 1.362 . S
C890 H882 0.930 . S
C890 C889 1.362 . S
C890 C893 1.409 . S
C891 H883 0.930 . S
C891 C892 1.355 . S
C891 C893 1.415 . S
C892 C891 1.355 . S
C892 C894 1.419 . S
C893 C888 1.425 . S
C893 C890 1.409 . S
C893 C891 1.415 . S
C894 H884 0.930 . S
C894 C892 1.419 . S
C894 C895 1.362 . S
C895 H885 0.930 . S
C895 C888 1.409 . S
C895 C894 1.362 . S
H896 C902 0.930 . S
H897 C905 0.930 . S
H898 C906 0.930 . S
H899 C907 0.930 . S
H900 C910 0.930 . S
H901 C911 0.930 . S
C902 H896 0.930 . S
C902 C903 1.355 . S
C902 C904 1.415 . S
C903 C902 1.355 . S
C903 C905 1.419 . S
C904 C902 1.415 . S
C904 C909 1.425 . S
C904 C911 1.409 . S
C905 H897 0.930 . S
C905 C903 1.419 . S
C905 C906 1.362 . S
C906 H898 0.930 . S
C906 C905 1.362 . S
C906 C909 1.409 . S
C907 H899 0.930 . S
C907 C908 1.355 . S
C907 C909 1.415 . S
C908 C907 1.355 . S
C908 C910 1.419 . S
C909 C904 1.425 . S
C909 C906 1.409 . S
C909 C907 1.415 . S
C910 H900 0.930 . S
C910 C908 1.419 . S
C910 C911 1.362 . S
C911 H901 0.930 . S
C911 C904 1.409 . S
C911 C910 1.362 . S
H912 C918 0.930 1_556 S
H913 C921 0.930 . S
H914 C922 0.930 . S
H915 C923 0.930 1_554 S
H916 C926 0.930 . S
H917 C927 0.930 . S
C918 H912 0.930 1_554 S
C918 C919 1.355 . S
C918 C920 1.415 1_554 S
C919 C918 1.355 . S
C919 C921 1.419 . S
C920 C918 1.415 1_556 S
C920 C925 1.425 1_546 S
C920 C927 1.409 1_545 S
C921 H913 0.930 . S
C921 C919 1.419 . S
C921 C922 1.362 . S
C922 H914 0.930 . S
C922 C921 1.362 . S
C922 C925 1.409 1_545 S
C923 H915 0.930 1_556 S
C923 C924 1.355 . S
C923 C925 1.415 1_556 S
C924 C923 1.355 . S
C924 C926 1.419 . S
C925 C920 1.425 1_564 S
C925 C922 1.409 1_565 S
C925 C923 1.415 1_554 S
C926 H916 0.930 . S
C926 C924 1.419 . S
C926 C927 1.362 . S
C927 H917 0.930 . S
C927 C920 1.409 1_565 S
C927 C926 1.362 . S
H928 C934 0.904 1_556 S
H929 C937 0.930 . S
H930 C938 0.930 . S
H931 C939 0.904 1_554 S
H932 C942 0.930 . S
H933 C943 0.930 . S
C934 H928 0.904 1_554 S
C934 C935 1.394 . S
C934 C936 1.401 1_554 S
C935 C934 1.394 . S
C935 C937 1.419 . S
C936 C934 1.401 1_556 S
C936 C941 1.425 1_556 S
C936 C943 1.409 . S
C937 H929 0.930 . S
C937 C935 1.419 . S
C937 C938 1.362 . S
C938 H930 0.930 . S
C938 C937 1.362 . S
C938 C941 1.409 . S
C939 H931 0.904 1_556 S
C939 C940 1.394 . S
C939 C941 1.401 1_556 S
C940 C939 1.394 . S
C940 C942 1.419 . S
C941 C936 1.425 1_554 S
C941 C938 1.409 . S
C941 C939 1.401 1_554 S
C942 H932 0.930 . S
C942 C940 1.419 . S
C942 C943 1.362 . S
C943 H933 0.930 . S
C943 C936 1.409 . S
C943 C942 1.362 . S
H944 C950 0.930 . S
H945 C953 0.930 . S
H946 C954 0.930 . S
H947 C955 0.930 . S
H948 C958 0.930 . S
H949 C959 0.930 . S
C950 H944 0.930 . S
C950 C951 1.355 . S
C950 C952 1.415 1_655 S
C951 C950 1.355 . S
C951 C953 1.419 . S
C952 C950 1.415 1_455 S
C952 C957 1.425 1_454 S
C952 C959 1.409 . S
C953 H945 0.930 . S
C953 C951 1.419 . S
C953 C954 1.362 1_554 S
C954 H946 0.930 . S
C954 C953 1.362 1_556 S
C954 C957 1.409 . S
C955 H947 0.930 . S
C955 C956 1.355 . S
C955 C957 1.415 1_455 S
C956 C955 1.355 . S
C956 C958 1.419 . S
C957 C952 1.425 1_656 S
C957 C954 1.409 . S
C957 C955 1.415 1_655 S
C958 H948 0.930 . S
C958 C956 1.419 . S
C958 C959 1.362 1_556 S
C959 H949 0.930 . S
C959 C952 1.409 . S
C959 C958 1.362 1_554 S
H960 C966 0.930 1_554 S
H961 C969 0.930 . S
H962 C970 0.930 . S
H963 C971 0.930 1_556 S
H964 C974 0.930 . S
H965 C975 0.930 . S
C966 H960 0.930 1_556 S
C966 C967 1.355 . S
C966 C968 1.415 1_556 S
C967 C966 1.355 . S
C967 C969 1.419 . S
C968 C966 1.415 1_554 S
C968 C973 1.425 1_644 S
C968 C975 1.409 1_655 S
C969 H961 0.930 . S
C969 C967 1.419 . S
C969 C970 1.362 1_545 S
C970 H962 0.930 . S
C970 C969 1.362 1_565 S
C970 C973 1.409 1_655 S
C971 H963 0.930 1_554 S
C971 C972 1.355 . S
C971 C973 1.415 1_554 S
C972 C971 1.355 . S
C972 C974 1.419 . S
C973 C968 1.425 1_466 S
C973 C970 1.409 1_455 S
C973 C971 1.415 1_556 S
C974 H964 0.930 . S
C974 C972 1.419 . S
C974 C975 1.362 1_565 S
C975 H965 0.930 . S
C975 C968 1.409 1_455 S
C975 C974 1.362 1_545 S
H976 C982 0.923 1_565 S
H977 C985 0.930 . S
H978 C986 0.930 . S
H979 C987 0.923 1_545 S
H980 C990 0.930 . S
H981 C991 0.930 . S
C982 H976 0.923 1_545 S
C982 C983 1.364 . S
C982 C984 1.411 1_545 S
C983 C982 1.364 . S
C983 C985 1.419 . S
C984 C982 1.411 1_565 S
C984 C989 1.425 1_665 S
C984 C991 1.409 . S
C985 H977 0.930 . S
C985 C983 1.419 . S
C985 C986 1.362 1_655 S
C986 H978 0.930 . S
C986 C985 1.362 1_455 S
C986 C989 1.409 . S
C987 H979 0.923 1_565 S
C987 C988 1.364 . S
C987 C989 1.411 1_565 S
C988 C987 1.364 . S
C988 C990 1.419 . S
C989 C984 1.425 1_445 S
C989 C986 1.409 . S
C989 C987 1.411 1_545 S
C990 H980 0.930 . S
C990 C988 1.419 . S
C990 C991 1.362 1_455 S
C991 H981 0.930 . S
C991 C984 1.409 . S
C991 C990 1.362 1_655 S
H992 C998 0.930 . S
H993 C1001 0.930 . S
H994 C1002 0.930 . S
H995 C1003 0.930 . S
H996 C1006 0.930 . S
H997 C1007 0.930 . S
C998 H992 0.930 . S
C998 C999 1.355 . S
C998 C1000 1.415 . S
C999 C998 1.355 . S
C999 C1001 1.419 . S
C1000 C998 1.415 . S
C1000 C1005 1.425 1_545 S
C1000 C1007 1.409 1_545 S
C1001 H993 0.930 . S
C1001 C999 1.419 . S
C1001 C1002 1.362 . S
C1002 H994 0.930 . S
C1002 C1001 1.362 . S
C1002 C1005 1.409 1_545 S
C1003 H995 0.930 . S
C1003 C1004 1.355 . S
C1003 C1005 1.415 . S
C1004 C1003 1.355 . S
C1004 C1006 1.419 . S
C1005 C1000 1.425 1_565 S
C1005 C1002 1.409 1_565 S
C1005 C1003 1.415 . S
C1006 H996 0.930 . S
C1006 C1004 1.419 . S
C1006 C1007 1.362 . S
C1007 H997 0.930 . S
C1007 C1000 1.409 1_565 S
C1007 C1006 1.362 . S
H1008 C1014 0.930 . S
H1009 C1017 0.930 . S
H1010 C1018 0.930 . S
H1011 C1019 0.930 . S
H1012 C1022 0.930 . S
H1013 C1023 0.930 . S
C1014 H1008 0.930 . S
C1014 C1015 1.355 . S
C1014 C1016 1.415 . S
C1015 C1014 1.355 . S
C1015 C1017 1.419 . S
C1016 C1014 1.415 . S
C1016 C1021 1.425 . S
C1016 C1023 1.409 . S
C1017 H1009 0.930 . S
C1017 C1015 1.419 . S
C1017 C1018 1.362 . S
C1018 H1010 0.930 . S
C1018 C1017 1.362 . S
C1018 C1021 1.409 . S
C1019 H1011 0.930 . S
C1019 C1020 1.355 . S
C1019 C1021 1.415 . S
C1020 C1019 1.355 . S
C1020 C1022 1.419 . S
C1021 C1016 1.425 . S
C1021 C1018 1.409 . S
C1021 C1019 1.415 . S
C1022 H1012 0.930 . S
C1022 C1020 1.419 . S
C1022 C1023 1.362 . S
C1023 H1013 0.930 . S
C1023 C1016 1.409 . S
C1023 C1022 1.362 . S
H1024 C1030 0.930 . S
H1025 C1033 0.930 . S
H1026 C1034 0.930 . S
H1027 C1035 0.930 . S
H1028 C1038 0.930 . S
H1029 C1039 0.930 . S
C1030 H1024 0.930 . S
C1030 C1031 1.355 . S
C1030 C1032 1.415 . S
C1031 C1030 1.355 . S
C1031 C1033 1.419 1_455 S
C1032 C1030 1.415 . S
C1032 C1037 1.425 1_455 S
C1032 C1039 1.409 . S
C1033 H1025 0.930 . S
C1033 C1031 1.419 1_655 S
C1033 C1034 1.362 . S
C1034 H1026 0.930 . S
C1034 C1033 1.362 . S
C1034 C1037 1.409 . S
C1035 H1027 0.930 . S
C1035 C1036 1.355 . S
C1035 C1037 1.415 . S
C1036 C1035 1.355 . S
C1036 C1038 1.419 1_655 S
C1037 C1032 1.425 1_655 S
C1037 C1034 1.409 . S
C1037 C1035 1.415 . S
C1038 H1028 0.930 . S
C1038 C1036 1.419 1_455 S
C1038 C1039 1.362 . S
C1039 H1029 0.930 . S
C1039 C1032 1.409 . S
C1039 C1038 1.362 . S
H1040 C1046 0.930 . S
H1041 C1049 0.930 . S
H1042 C1050 0.930 . S
H1043 C1051 0.930 . S
H1044 C1054 0.930 . S
H1045 C1055 0.930 . S
C1046 H1040 0.930 . S
C1046 C1047 1.355 . S
C1046 C1048 1.415 . S
C1047 C1046 1.355 . S
C1047 C1049 1.419 . S
C1048 C1046 1.415 . S
C1048 C1053 1.425 . S
C1048 C1055 1.409 . S
C1049 H1041 0.930 . S
C1049 C1047 1.419 . S
C1049 C1050 1.362 . S
C1050 H1042 0.930 . S
C1050 C1049 1.362 . S
C1050 C1053 1.409 . S
C1051 H1043 0.930 . S
C1051 C1052 1.355 . S
C1051 C1053 1.415 . S
C1052 C1051 1.355 . S
C1052 C1054 1.419 . S
C1053 C1048 1.425 . S
C1053 C1050 1.409 . S
C1053 C1051 1.415 . S
C1054 H1044 0.930 . S
C1054 C1052 1.419 . S
C1054 C1055 1.362 . S
C1055 H1045 0.930 . S
C1055 C1048 1.409 . S
C1055 C1054 1.362 . S
H1056 C1062 0.930 . S
H1057 C1065 0.930 . S
H1058 C1066 0.930 . S
H1059 C1067 0.930 . S
H1060 C1070 0.930 . S
H1061 C1071 0.930 . S
C1062 H1056 0.930 . S
C1062 C1063 1.355 . S
C1062 C1064 1.415 . S
C1063 C1062 1.355 . S
C1063 C1065 1.419 . S
C1064 C1062 1.415 . S
C1064 C1069 1.425 . S
C1064 C1071 1.409 . S
C1065 H1057 0.930 . S
C1065 C1063 1.419 . S
C1065 C1066 1.362 . S
C1066 H1058 0.930 . S
C1066 C1065 1.362 . S
C1066 C1069 1.409 . S
C1067 H1059 0.930 . S
C1067 C1068 1.355 . S
C1067 C1069 1.415 . S
C1068 C1067 1.355 . S
C1068 C1070 1.419 . S
C1069 C1064 1.425 . S
C1069 C1066 1.409 . S
C1069 C1067 1.415 . S
C1070 H1060 0.930 . S
C1070 C1068 1.419 . S
C1070 C1071 1.362 . S
C1071 H1061 0.930 . S
C1071 C1064 1.409 . S
C1071 C1070 1.362 . S
H1072 C1078 0.930 . S
H1073 C1081 0.930 . S
H1074 C1082 0.930 . S
H1075 C1083 0.930 . S
H1076 C1086 0.930 . S
H1077 C1087 0.930 . S
C1078 H1072 0.930 . S
C1078 C1079 1.355 . S
C1078 C1080 1.415 . S
C1079 C1078 1.355 . S
C1079 C1081 1.419 . S
C1080 C1078 1.415 . S
C1080 C1085 1.425 . S
C1080 C1087 1.409 . S
C1081 H1073 0.930 . S
C1081 C1079 1.419 . S
C1081 C1082 1.362 . S
C1082 H1074 0.930 . S
C1082 C1081 1.362 . S
C1082 C1085 1.409 . S
C1083 H1075 0.930 . S
C1083 C1084 1.355 . S
C1083 C1085 1.415 . S
C1084 C1083 1.355 . S
C1084 C1086 1.419 . S
C1085 C1080 1.425 . S
C1085 C1082 1.409 . S
C1085 C1083 1.415 . S
C1086 H1076 0.930 . S
C1086 C1084 1.419 . S
C1086 C1087 1.362 . S
C1087 H1077 0.930 . S
C1087 C1080 1.409 . S
C1087 C1086 1.362 . S
H1088 C1094 0.930 . S
H1089 C1097 0.930 . S
H1090 C1098 0.930 . S
H1091 C1099 0.930 . S
H1092 C1102 0.930 . S
H1093 C1103 0.930 . S
C1094 H1088 0.930 . S
C1094 C1095 1.355 . S
C1094 C1096 1.415 . S
C1095 C1094 1.355 . S
C1095 C1097 1.419 . S
C1096 C1094 1.415 . S
C1096 C1101 1.425 . S
C1096 C1103 1.409 . S
C1097 H1089 0.930 . S
C1097 C1095 1.419 . S
C1097 C1098 1.362 . S
C1098 H1090 0.930 . S
C1098 C1097 1.362 . S
C1098 C1101 1.409 . S
C1099 H1091 0.930 . S
C1099 C1100 1.355 . S
C1099 C1101 1.415 . S
C1100 C1099 1.355 . S
C1100 C1102 1.419 . S
C1101 C1096 1.425 . S
C1101 C1098 1.409 . S
C1101 C1099 1.415 . S
C1102 H1092 0.930 . S
C1102 C1100 1.419 . S
C1102 C1103 1.362 . S
C1103 H1093 0.930 . S
C1103 C1096 1.409 . S
C1103 C1102 1.362 . S
H1104 C1110 0.930 . S
H1105 C1113 0.930 . S
H1106 C1114 0.930 . S
H1107 C1115 0.930 . S
H1108 C1118 0.930 . S
H1109 C1119 0.930 . S
C1110 H1104 0.930 . S
C1110 C1111 1.355 . S
C1110 C1112 1.415 . S
C1111 C1110 1.355 . S
C1111 C1113 1.419 . S
C1112 C1110 1.415 . S
C1112 C1117 1.425 . S
C1112 C1119 1.409 . S
C1113 H1105 0.930 . S
C1113 C1111 1.419 . S
C1113 C1114 1.362 . S
C1114 H1106 0.930 . S
C1114 C1113 1.362 . S
C1114 C1117 1.409 . S
C1115 H1107 0.930 . S
C1115 C1116 1.355 . S
C1115 C1117 1.415 . S
C1116 C1115 1.355 . S
C1116 C1118 1.419 . S
C1117 C1112 1.425 . S
C1117 C1114 1.409 . S
C1117 C1115 1.415 . S
C1118 H1108 0.930 . S
C1118 C1116 1.419 . S
C1118 C1119 1.362 . S
C1119 H1109 0.930 . S
C1119 C1112 1.409 . S
C1119 C1118 1.362 . S
H1120 C1126 0.930 . S
H1121 C1129 0.930 . S
H1122 C1130 0.930 . S
H1123 C1131 0.930 . S
H1124 C1134 0.930 . S
H1125 C1135 0.930 . S
C1126 H1120 0.930 . S
C1126 C1127 1.355 . S
C1126 C1128 1.415 . S
C1127 C1126 1.355 . S
C1127 C1129 1.419 . S
C1128 C1126 1.415 . S
C1128 C1133 1.425 . S
C1128 C1135 1.409 . S
C1129 H1121 0.930 . S
C1129 C1127 1.419 . S
C1129 C1130 1.362 . S
C1130 H1122 0.930 . S
C1130 C1129 1.362 . S
C1130 C1133 1.409 . S
C1131 H1123 0.930 . S
C1131 C1132 1.355 . S
C1131 C1133 1.415 . S
C1132 C1131 1.355 . S
C1132 C1134 1.419 . S
C1133 C1128 1.425 . S
C1133 C1130 1.409 . S
C1133 C1131 1.415 . S
C1134 H1124 0.930 . S
C1134 C1132 1.419 . S
C1134 C1135 1.362 . S
C1135 H1125 0.930 . S
C1135 C1128 1.409 . S
C1135 C1134 1.362 . S
H1136 C1142 0.930 . S
H1137 C1145 0.930 . S
H1138 C1146 0.930 . S
H1139 C1147 0.930 . S
H1140 C1150 0.930 . S
H1141 C1151 0.930 . S
C1142 H1136 0.930 . S
C1142 C1143 1.355 . S
C1142 C1144 1.415 . S
C1143 C1142 1.355 . S
C1143 C1145 1.419 . S
C1144 C1142 1.415 . S
C1144 C1149 1.425 . S
C1144 C1151 1.409 . S
C1145 H1137 0.930 . S
C1145 C1143 1.419 . S
C1145 C1146 1.362 . S
C1146 H1138 0.930 . S
C1146 C1145 1.362 . S
C1146 C1149 1.409 . S
C1147 H1139 0.930 . S
C1147 C1148 1.355 . S
C1147 C1149 1.415 . S
C1148 C1147 1.355 . S
C1148 C1150 1.419 . S
C1149 C1144 1.425 . S
C1149 C1146 1.409 . S
C1149 C1147 1.415 . S
C1150 H1140 0.930 . S
C1150 C1148 1.419 . S
C1150 C1151 1.362 . S
C1151 H1141 0.930 . S
C1151 C1144 1.409 . S
C1151 C1150 1.362 . S
H1152 C1158 0.930 . S
H1153 C1161 0.930 . S
H1154 C1162 0.930 . S
H1155 C1163 0.930 . S
H1156 C1166 0.930 . S
H1157 C1167 0.930 . S
C1158 H1152 0.930 . S
C1158 C1159 1.355 . S
C1158 C1160 1.415 . S
C1159 C1158 1.355 . S
C1159 C1161 1.419 . S
C1160 C1158 1.415 . S
C1160 C1165 1.425 . S
C1160 C1167 1.409 . S
C1161 H1153 0.930 . S
C1161 C1159 1.419 . S
C1161 C1162 1.362 . S
C1162 H1154 0.930 . S
C1162 C1161 1.362 . S
C1162 C1165 1.409 . S
C1163 H1155 0.930 . S
C1163 C1164 1.355 . S
C1163 C1165 1.415 . S
C1164 C1163 1.355 . S
C1164 C1166 1.419 . S
C1165 C1160 1.425 . S
C1165 C1162 1.409 . S
C1165 C1163 1.415 . S
C1166 H1156 0.930 . S
C1166 C1164 1.419 . S
C1166 C1167 1.362 . S
C1167 H1157 0.930 . S
C1167 C1160 1.409 . S
C1167 C1166 1.362 . S
C535 N13 0.919 . S
C540 C54 0.871 . S
C551 C87 0.917 . S
C556 N46 0.868 . S
C567 C120 0.885 . S
C572 N79 0.895 . S
C583 N112 0.918 . S
C588 C21 0.877 . S
C599 C252 0.904 . S
C604 N145 0.874 . S
C615 C153 0.903 . S
C620 N178 0.893 . S
C631 C186 0.915 . S
C636 N211 0.867 . S
C647 N244 0.909 . S
C652 C219 0.888 . S
C663 N277 0.879 . S
C668 C318 0.899 . S
C679 N310 0.887 . S
C684 C351 0.908 . S
C695 C384 0.909 . S
C700 N343 0.886 . S
C711 C285 0.891 . S
C716 N376 0.887 . S
C727 C516 0.883 . S
C732 N409 0.913 . S
C743 C417 0.891 . S
C748 N442 0.907 . S
C759 N475 0.910 . S
C764 C450 0.887 . S
C775 N508 0.889 . S
C780 C483 0.906 . S
C791 N2 1.901 . S
C796 N68 1.864 . S
C807 N35 1.897 . S
C812 N101 1.883 . S
C823 N200 1.900 . S
C828 N134 1.878 . S
C839 N233 1.898 . S
C844 N167 1.881 . S
C855 N332 1.892 . S
C860 N266 1.889 . S
C871 N299 1.875 . S
C876 N365 1.901 . S
C887 N398 1.867 . S
C892 N464 1.903 . S
C903 N431 1.874 . S
C908 N497 1.902 . S
C919 C18 1.806 . S
C924 C282 1.806 . S
C935 C51 1.802 . S
C940 C315 1.802 . S
C951 C84 1.803 . S
C956 C348 1.803 . S
C967 C381 1.792 . S
C972 C117 1.792 . S
C983 C414 1.807 . S
C988 C150 1.807 . S
C999 C183 1.789 . S
C1004 C447 1.789 . S
C1015 C216 1.824 . S
C1020 C480 1.824 . S
C1031 C513 1.798 . S
C1036 C249 1.798 . S
C1047 C172 1.578 . S
C1052 C7 1.592 . S
C1063 C205 1.578 . S
C1068 C40 1.591 . S
C1079 C73 1.580 . S
C1084 C238 1.587 . S
C1095 C139 1.587 . S
C1100 C106 1.580 . S
C1111 C271 1.591 . S
C1116 C436 1.578 . S
C1127 C469 1.579 . S
C1132 C304 1.588 . S
C1143 C502 1.588 . S
C1148 C337 1.579 . S
C1159 C370 1.579 . S
C1164 C403 1.588 . S
