# Generated by pormake.
# Topology rkf, (6)-cn, num edge types: 1
# Building blocks:
#     Node 0, Type 0, BuildingBlock: BETDIP_clean_sbu_0, # of connection points: 6
#     Node 1, Type 0, BuildingBlock: BETDIP_clean_sbu_0, # of connection points: 6
#     Node 2, Type 0, BuildingBlock: BETDIP_clean_sbu_0, # of connection points: 6
#     Node 3, Type 0, BuildingBlock: BETDIP_clean_sbu_0, # of connection points: 6
#     Node 4, Type 0, BuildingBlock: BETDIP_clean_sbu_0, # of connection points: 6
#     Node 5, Type 0, BuildingBlock: BETDIP_clean_sbu_0, # of connection points: 6
#     Edge 6, Type (0, 0), BuildingBlock: AJUNOK_clean_linker_0, # of connection points: 2
#     Edge 7, Type (0, 0), BuildingBlock: AJUNOK_clean_linker_0, # of connection points: 2
#     Edge 8, Type (0, 0), BuildingBlock: AJUNOK_clean_linker_0, # of connection points: 2
#     Edge 9, Type (0, 0), BuildingBlock: AJUNOK_clean_linker_0, # of connection points: 2
#     Edge 10, Type (0, 0), BuildingBlock: AJUNOK_clean_linker_0, # of connection points: 2
#     Edge 11, Type (0, 0), BuildingBlock: AJUNOK_clean_linker_0, # of connection points: 2
#     Edge 12, Type (0, 0), BuildingBlock: AJUNOK_clean_linker_0, # of connection points: 2
#     Edge 13, Type (0, 0), BuildingBlock: AJUNOK_clean_linker_0, # of connection points: 2
#     Edge 14, Type (0, 0), BuildingBlock: AJUNOK_clean_linker_0, # of connection points: 2
#     Edge 15, Type (0, 0), BuildingBlock: AJUNOK_clean_linker_0, # of connection points: 2
#     Edge 16, Type (0, 0), BuildingBlock: AJUNOK_clean_linker_0, # of connection points: 2
#     Edge 17, Type (0, 0), BuildingBlock: AJUNOK_clean_linker_0, # of connection points: 2
#     Edge 18, Type (0, 0), BuildingBlock: AJUNOK_clean_linker_0, # of connection points: 2
#     Edge 19, Type (0, 0), BuildingBlock: AJUNOK_clean_linker_0, # of connection points: 2
#     Edge 20, Type (0, 0), BuildingBlock: AJUNOK_clean_linker_0, # of connection points: 2
#     Edge 21, Type (0, 0), BuildingBlock: AJUNOK_clean_linker_0, # of connection points: 2
#     Edge 22, Type (0, 0), BuildingBlock: AJUNOK_clean_linker_0, # of connection points: 2
#     Edge 23, Type (0, 0), BuildingBlock: AJUNOK_clean_linker_0, # of connection points: 2
# Relax obj value: 1.036
# Max RMSD: 0.246
# Mean RMSD: 0.246
data_MOF--net-rkf--node1-BETDIP_clean_sbu_0--edge1-AJUNOK_clean_linker_0
_symmetry_space_group_name_H-M    P1
_symmetry_Int_Tables_number       1
_symmetry_cell_setting            triclinic
loop_
_symmetry_equiv_pos_as_xyz
'x, y, z'
_cell_length_a     19.162511
_cell_length_b     19.189657
_cell_length_c     32.174792
_cell_angle_alpha  88.646286
_cell_angle_beta   90.398742
_cell_angle_gamma 119.78421
loop_
_atom_site_label
_atom_site_type_symbol
_atom_site_fract_x
_atom_site_fract_y
_atom_site_fract_z
_atom_type_partial_charge
Tb0 Tb 0.3216 0.01683 0.25084 0.0
Tb1 Tb 0.30403 0.13576 1.23433 0.0
C2 C 0.33641 0.89561 0.26673 0.0
C3 C 0.30259 0.82294 0.29321 0.0
C4 C 0.25339 0.74804 0.2751 0.0
C5 C 0.20361 0.68125 0.30003 0.0
C6 C 0.20335 0.68923 0.34316 0.0
C7 C 0.2625 0.7607 0.36124 0.0
C8 C 0.31135 0.82753 0.33639 0.0
C9 C 0.14552 -0.02821 0.24671 0.0
C10 C 0.32665 0.12724 0.32627 0.0
C11 C 0.28912 0.25414 1.21179 0.0
C12 C 0.34694 0.33176 1.19222 0.0
C13 C 0.36085 0.33679 1.1493 0.0
C14 C 0.41918 0.40802 1.13093 0.0
C15 C 0.46522 0.47632 1.15488 0.0
C16 C 0.45091 0.47218 1.19778 0.0
C17 C 0.39201 0.40023 1.21637 0.0
C18 C 0.4587 0.16836 1.22695 0.0
C19 C 0.25103 0.01236 1.16231 0.0
O20 O 0.38097 -0.03448 0.28383 0.0
O21 O 0.28597 0.89743 0.23993 0.0
O22 O 0.21439 0.01783 0.26346 0.0
O23 O 0.2135 0.0177 0.2635 0.0
O24 O 0.36054 0.08477 0.31259 0.0
O25 O 0.28511 0.14249 0.29923 0.0
O26 O 0.266 0.19057 1.18947 0.0
O27 O 0.30549 0.24215 0.24964 0.0
O28 O 0.39759 0.11276 1.21166 0.0
O29 O 0.43465 0.20495 0.25072 0.0
O30 O 0.24288 0.07087 1.1778 0.0
O31 O 0.29091 -0.01496 1.18464 0.0
H32 H 0.24786 0.74298 0.24162 0.0
H33 H 0.15895 0.62671 0.28549 0.0
H34 H 0.26384 0.7687 0.39452 0.0
H35 H 0.35049 0.88403 0.3511 0.0
H36 H 0.32691 0.28562 1.12971 0.0
H37 H 0.42684 0.41003 1.0975 0.0
H38 H 0.48494 0.52423 1.21679 0.0
H39 H 0.38216 0.39798 0.2496 0.0
Tb40 Tb 0.38289 0.28983 0.59136 0.0
Tb41 Tb 0.31003 0.38025 0.55528 0.0
C42 C 0.50071 0.26755 0.59793 0.0
C43 C 0.57615 0.30894 0.62041 0.0
C44 C 0.62737 0.2765 0.62344 0.0
C45 C 0.67955 0.29659 0.65737 0.0
C46 C 0.67222 0.34195 0.68907 0.0
C47 C 0.64396 0.39469 0.67775 0.0
C48 C 0.591 0.3745 0.64461 0.0
C49 C 0.2272 0.20699 0.5877 0.0
C50 C 0.29789 0.34495 0.65496 0.0
C51 C 0.22938 0.44772 0.5388 0.0
C52 C 0.15415 0.4449 0.55098 0.0
C53 C 0.08161 0.37149 0.55343 0.0
C54 C 0.00898 0.37004 0.54601 0.0
C55 C 0.00958 0.44175 0.53525 0.0
C56 C 0.07881 0.51501 0.5435 0.0
C57 C 0.15177 0.51677 0.55021 0.0
C58 C 0.46838 0.45959 0.55726 0.0
C59 C 0.34513 0.27431 0.4921 0.0
O60 O 0.49346 0.31139 0.56842 0.0
O61 O 0.43549 0.22901 0.62113 0.0
O62 O 0.27372 0.25833 0.56182 0.0
O63 O 0.26806 0.19071 0.61501 0.0
O64 O 0.35916 0.33082 0.65105 0.0
O65 O 0.26419 0.35547 0.62077 0.0
O66 O 0.28823 0.47577 0.56554 0.0
O67 O 0.22231 0.3857 0.51897 0.0
O68 O 0.42208 0.41491 0.58589 0.0
O69 O 0.42579 0.4638 0.52712 0.0
O70 O 0.31466 0.32301 0.49678 0.0
O71 O 0.37185 0.2522 0.52528 0.0
H72 H 0.61926 0.22834 0.6035 0.0
H73 H 0.70726 0.2602 0.66394 0.0
H74 H 0.64419 0.43646 0.69991 0.0
H75 H 0.55413 0.40249 0.64147 0.0
H76 H 0.08178 0.31519 0.55539 0.0
H77 H -0.04425 0.31261 0.54061 0.0
H78 H 0.07961 0.57101 0.53708 0.0
H79 H 0.20697 0.57417 0.54946 0.0
Tb80 Tb 0.2065 0.39556 0.92268 0.0
Tb81 Tb 0.04076 0.32577 0.89501 0.0
C82 C 0.35273 0.50065 0.92462 0.0
C83 C 0.40519 0.56205 0.9534 0.0
C84 C 0.48876 0.59836 0.9491 0.0
C85 C 0.53838 0.64086 0.98207 0.0
C86 C 0.50418 0.64451 1.01998 0.0
C87 C 0.42106 0.61815 1.02126 0.0
C88 C 0.37196 0.57688 0.98823 0.0
C89 C 0.12652 0.23934 0.92727 0.0
C90 C 0.07997 0.33347 0.99438 0.0
C91 C 0.89067 0.24329 0.89782 0.0
C92 C 0.81129 0.20812 0.87911 0.0
C93 C 0.76183 0.12474 0.88224 0.0
C94 C 0.6897 0.08749 0.86084 0.0
C95 C 0.66641 0.1335 0.83594 0.0
C96 C 0.71062 0.21765 0.83783 0.0
C97 C 0.78331 0.25505 0.85906 0.0
C98 C 0.12071 0.48336 0.89024 0.0
C99 C 0.16444 0.34947 0.82389 0.0
O100 O 0.29721 0.51224 0.90733 0.0
O101 O 0.32452 0.42647 0.93817 0.0
O102 O 0.12263 0.28353 0.89903 0.0
O103 O 0.18431 0.28246 0.9528 0.0
O104 O 0.15738 0.38398 0.9863 0.0
O105 O 0.02918 0.30077 0.96328 0.0
O106 O 0.93703 0.21405 0.88775 0.0
O107 O 0.93039 0.32086 0.90309 0.0
O108 O 0.12384 0.44016 0.91997 0.0
O109 O 0.07013 0.43742 0.86258 0.0
O110 O 0.08639 0.32082 0.83219 0.0
O111 O 0.21786 0.37912 0.85465 0.0
H112 H 0.51511 0.58838 0.92179 0.0
H113 H 0.60215 0.66191 0.97972 0.0
H114 H 0.39142 0.61901 1.04957 0.0
H115 H 0.30734 0.55001 0.99157 0.0
H116 H 0.78152 0.08793 0.89899 0.0
H117 H 0.6578 0.02253 0.85986 0.0
H118 H 0.69416 0.25416 0.81882 0.0
H119 H 0.81949 0.31994 0.85755 0.0
Tb120 Tb 0.89086 0.21166 0.25739 0.0
Tb121 Tb 0.82405 0.04851 1.22378 0.0
C122 C 0.89404 0.34126 0.27043 0.0
C123 C 0.85899 0.3627 0.30462 0.0
C124 C 0.88184 0.44295 0.3114 0.0
C125 C 0.86895 0.46486 0.35053 0.0
C126 C 0.83732 0.40731 0.38305 0.0
C127 C 0.79905 0.3258 0.37332 0.0
C128 C 0.81208 0.30366 0.3345 0.0
C129 C -0.00975 0.15597 0.25462 0.0
C130 C 0.83875 0.07278 0.32455 0.0
C131 C 0.78189 0.9029 1.21703 0.0
C132 C 0.78424 0.84152 1.19191 0.0
C133 C 0.84255 0.81845 1.19918 0.0
C134 C 0.84043 0.75566 1.17709 0.0
C135 C 0.77987 0.71532 1.14773 0.0
C136 C 0.72067 0.73706 1.14177 0.0
C137 C 0.72242 0.79913 1.16362 0.0
C138 C 0.72312 0.1037 1.22654 0.0
C139 C 0.91845 0.19094 1.15778 0.0
O140 O 0.8414 0.28597 0.24624 0.0
O141 O -0.04748 0.3276 0.28121 0.0
O142 O 0.93833 0.148 1.22885 0.0
O143 O -0.00527 0.20492 0.28329 0.0
O144 O 0.85415 0.14797 0.31862 0.0
O145 O 0.82948 0.02786 0.29193 0.0
O146 O 0.84864 0.95505 1.23473 0.0
O147 O 0.73955 0.93499 1.20313 0.0
O148 O 0.77296 0.11083 0.25429 0.0
O149 O 0.72713 0.06231 1.19643 0.0
O150 O 0.89034 0.1126 1.16574 0.0
O151 O 0.91926 0.23774 1.18844 0.0
H152 H 0.91676 0.48923 0.2883 0.0
H153 H 0.89628 0.52764 0.35736 0.0
H154 H 0.77355 0.28012 0.39781 0.0
H155 H 0.79399 0.24148 0.32972 0.0
H156 H 0.88958 0.84874 1.22187 0.0
H157 H 0.88715 0.74024 1.18206 0.0
H158 H 0.67406 0.70742 1.11928 0.0
H159 H 0.67518 0.81371 1.15827 0.0
Tb160 Tb 0.77249 0.85196 0.58139 0.0
Tb161 Tb 0.90896 0.87656 0.56528 0.0
C162 C 0.63773 0.82804 0.60471 0.0
C163 C 0.61553 0.85821 0.6401 0.0
C164 C 0.54103 0.85532 0.6416 0.0
C165 C 0.52665 0.89739 0.67211 0.0
C166 C 0.58719 0.94226 0.70064 0.0
C167 C 0.65982 0.94117 0.70025 0.0
C168 C 0.67408 0.89968 0.67005 0.0
C169 C 0.89238 0.02928 0.57532 0.0
C170 C 0.88207 0.85132 0.65762 0.0
C171 C 0.0396 0.8942 0.53925 0.0
C172 C 0.05001 0.83657 0.51478 0.0
C173 C 0.08472 0.86038 0.47525 0.0
C174 C 0.08116 0.80347 0.44816 0.0
C175 C 0.04287 0.72177 0.46019 0.0
C176 C 0.01116 0.69794 0.50032 0.0
C177 C 0.01402 0.755 0.52744 0.0
C178 C 0.79382 0.71998 0.55851 0.0
C179 C 0.82959 0.92499 0.49221 0.0
O180 O 0.66515 0.77922 0.61391 0.0
O181 O 0.6832 0.88401 0.5777 0.0
O182 O 0.87672 -0.03782 0.5934 0.0
O183 O 0.87748 -0.03694 0.59348 0.0
O184 O 0.80626 0.81421 0.64318 0.0
O185 O 0.93852 0.89491 0.63061 0.0
O186 O 0.00078 0.92516 0.52027 0.0
O187 O 0.01448 0.87208 0.57729 0.0
O188 O 0.79508 0.77985 0.54247 0.0
O189 O 0.85358 0.74643 0.58339 0.0
O190 O 0.89806 0.93486 0.50715 0.0
O191 O 0.76424 0.88371 0.51539 0.0
H192 H 0.49583 0.82375 0.61823 0.0
H193 H 0.47046 0.89804 0.67228 0.0
H194 H 0.70695 -0.02457 0.72234 0.0
H195 H 0.73226 0.90315 0.66883 0.0
H196 H 0.11203 0.9226 0.4648 0.0
H197 H 0.10859 0.82335 0.41766 0.0
H198 H -0.01673 0.63545 0.51031 0.0
H199 H -0.0139 0.73481 0.55777 0.0
Tb200 Tb 0.00015 0.7764 0.92448 0.0
Tb201 Tb 0.14267 0.93175 0.89673 0.0
C202 C 0.91064 0.62642 0.92722 0.0
C203 C 0.8923 0.56425 0.95922 0.0
C204 C 0.81257 0.50155 0.96303 0.0
C205 C 0.77983 0.47373 1.0027 0.0
C206 C 0.82699 0.51168 1.03755 0.0
C207 C 0.91095 0.55419 1.03286 0.0
C208 C 0.9437 0.58306 0.99345 0.0
C209 C -0.01943 0.90074 0.92935 0.0
C210 C 0.11044 0.88838 0.99484 0.0
C211 C 0.25371 0.07582 0.89677 0.0
C212 C 0.32713 0.13321 0.87439 0.0
C213 C 0.32346 0.16709 0.83595 0.0
C214 C 0.39351 0.21302 0.813 0.0
C215 C 0.46747 0.22474 0.82808 0.0
C216 C 0.47247 0.1978 0.86807 0.0
C217 C 0.40246 0.1528 0.89137 0.0
C218 C 0.16076 0.80419 0.89401 0.0
C219 C 0.01509 0.84444 0.82652 0.0
O220 O -0.01635 0.66228 0.91178 0.0
O221 O 0.88703 0.67758 0.93679 0.0
O222 O 0.01772 0.88636 0.90213 0.0
O223 O 0.94764 0.84081 0.9562 0.0
O224 O 0.06099 0.81129 0.98612 0.0
O225 O 0.13387 0.94329 0.96443 0.0
O226 O 0.18429 0.05196 0.87853 0.0
O227 O 0.25719 0.01677 0.91584 0.0
O228 O 0.12542 0.82098 0.92131 0.0
O229 O 0.19154 0.86256 0.86645 0.0
O230 O 0.08409 0.90989 0.83566 0.0
O231 O -0.02372 0.78669 0.85581 0.0
H232 H 0.77242 0.48497 0.93664 0.0
H233 H 0.71503 0.43813 1.00576 0.0
H234 H 0.94905 0.5812 1.05954 0.0
H235 H 0.00578 0.63035 0.99101 0.0
H236 H 0.2665 0.15487 0.82265 0.0
H237 H 0.38918 0.23381 0.78197 0.0
H238 H 0.52921 0.20632 0.8799 0.0
H239 H 0.40674 0.12935 0.92166 0.0
C240 C 0.02791 0.06866 1.21736 0.0
C241 C 0.02364 0.10192 0.25521 0.0
C242 C 0.05666 0.01476 1.21573 0.0
C243 C 0.08326 -0.00643 0.25183 0.0
H244 H 0.0112 0.08633 1.18843 0.0
H245 H 0.06509 -0.00431 1.18562 0.0
S246 S 0.07175 0.05254 0.35952 0.0
N247 N 0.03815 0.10142 0.33025 0.0
N248 N 0.09404 0.00064 0.32724 0.0
C249 C 0.07331 0.02119 0.29037 0.0
C250 C 0.04393 0.07612 0.29201 0.0
C251 C 0.01916 0.1347 0.54617 0.0
C252 C -0.02844 0.09885 0.58156 0.0
C253 C 0.10286 0.17266 0.54891 0.0
C254 C 0.14037 0.17509 0.58706 0.0
H255 H -0.00819 0.12606 0.51573 0.0
H256 H 0.13803 0.19553 0.52056 0.0
S257 S 0.04165 0.11029 0.69019 0.0
N258 N -0.03303 0.08345 0.65694 0.0
N259 N 0.12492 0.1536 0.66193 0.0
C260 C 0.09368 0.14804 0.62331 0.0
C261 C 0.00876 0.11077 0.62063 0.0
C262 C 0.02289 0.02469 0.96909 0.0
C263 C -0.00904 -0.01875 0.93276 0.0
C264 C 0.06484 0.10906 0.96748 0.0
C265 C 0.07414 0.15152 0.92979 0.0
H266 H 0.0218 -0.00627 0.99787 0.0
H267 H 0.09287 0.14113 0.99545 0.0
S268 S -0.01369 0.06329 0.82806 0.0
N269 N -0.0396 -0.01476 0.85973 0.0
N270 N 0.03759 0.14321 0.85673 0.0
C271 C 0.03458 0.10812 0.89438 0.0
C272 C -0.00708 0.02284 0.89596 0.0
C273 C 0.56601 0.54873 1.09971 0.0
C274 C 0.52034 0.55227 1.13272 0.0
C275 C 0.57687 0.59407 1.06332 0.0
C276 C 0.54442 0.64576 1.0598 0.0
H277 H 0.58128 0.5014 1.09921 0.0
H278 H 0.59881 0.57814 1.0363 0.0
S279 S 0.46274 0.70831 1.1461 0.0
N280 N 0.47068 0.63217 1.16567 0.0
N281 N 0.49852 0.72323 1.09816 0.0
C282 C 0.52016 0.6658 1.09667 0.0
C283 C 0.50578 0.6171 1.13321 0.0
C284 C 0.89247 0.44049 0.49755 0.0
C285 C -0.03435 0.44003 0.49725 0.0
C286 C 0.85093 0.43359 0.46012 0.0
C287 C 0.88297 0.42763 0.42202 0.0
H288 H 0.86657 0.44404 0.52668 0.0
H289 H 0.79312 0.43083 0.461 0.0
S290 S 0.07137 0.42177 0.40555 0.0
N291 N 0.0673 0.43211 0.45606 0.0
N292 N -0.00918 0.42074 0.38645 0.0
C293 C -0.04316 0.42899 0.42168 0.0
C294 C -0.00217 0.43478 0.45917 0.0
C295 C 0.65813 0.12686 0.76016 0.0
C296 C 0.61907 0.09583 0.79859 0.0
C297 C 0.63881 0.07801 0.72593 0.0
C298 C 0.58048 -0.00343 0.7292 0.0
H299 H 0.71019 0.18647 0.75748 0.0
H300 H 0.67565 0.10183 0.69814 0.0
S301 S 0.44833 0.8912 0.81937 0.0
N302 N 0.50853 -0.0166 0.83537 0.0
N303 N 0.4742 0.88986 0.77063 0.0
C304 C 0.53362 -0.03267 0.76535 0.0
C305 C 0.55246 0.01767 0.80026 0.0
C306 C 0.79247 0.59298 1.1362 0.0
C307 C 0.78222 0.65626 1.1202 0.0
C308 C 0.80032 0.54045 1.10943 0.0
C309 C 0.79587 0.54875 1.06618 0.0
H310 H 0.7968 0.58562 1.16942 0.0
H311 H 0.81337 0.49557 1.12239 0.0
S312 S 0.77349 0.70724 1.00914 0.0
N313 N 0.77275 0.72686 1.05865 0.0
N314 N 0.78072 0.6252 1.00876 0.0
C315 C 0.78256 0.61015 1.05016 0.0
C316 C 0.77766 0.66483 1.07707 0.0
C317 C 0.09679 0.63468 0.44068 0.0
C318 C 0.04505 0.66485 0.43135 0.0
C319 C 0.13765 0.62134 0.40883 0.0
C320 C 0.12906 0.6406 0.36741 0.0
H321 H 0.11594 0.63422 0.47231 0.0
H322 H 0.18694 0.61142 0.41723 0.0
S323 S -0.02089 0.69356 0.3273 0.0
N324 N -0.0304 0.6906 0.37838 0.0
N325 N 0.04717 0.66682 0.31822 0.0
C326 C 0.06397 0.65252 0.35762 0.0
C327 C 0.02225 0.66571 0.39 0.0
C328 C 0.60308 0.32238 0.79912 0.0
C329 C 0.53296 0.24717 0.79838 0.0
C330 C 0.65706 0.34888 0.76545 0.0
C331 C 0.64081 0.30152 0.72996 0.0
H332 H 0.61359 0.36253 0.82447 0.0
H333 H 0.70723 0.40978 0.76528 0.0
S334 S 0.46601 0.09544 0.71657 0.0
N335 N 0.45388 0.12175 0.76315 0.0
N336 N 0.5504 0.17192 0.69868 0.0
C337 C 0.57317 0.22307 0.73101 0.0
C338 C 0.52019 0.19598 0.76554 0.0
C339 C 0.56734 0.15863 1.19128 0.0
C340 C 0.53579 0.16825 1.22859 0.0
C341 C 0.63008 0.141 1.19123 0.0
C342 C 0.66304 0.13094 1.22854 0.0
H343 H 0.54132 0.16203 1.16181 0.0
H344 H 0.65135 0.13284 1.16162 0.0
S345 S 0.59815 0.14486 0.33491 0.0
N346 N 0.54151 0.1659 0.30401 0.0
N347 N 0.65706 0.12884 0.304 0.0
C348 C 0.63282 0.1414 0.26621 0.0
C349 C 0.56969 0.161 0.26621 0.0
C350 C 0.59424 0.54914 0.59731 0.0
C351 C 0.55658 0.51345 0.55976 0.0
C352 C 0.67494 0.61191 0.59771 0.0
C353 C 0.71974 0.64086 0.56055 0.0
H354 H 0.55985 0.53222 0.62599 0.0
H355 H 0.70028 0.64169 0.62667 0.0
S356 S 0.65267 0.55966 0.45552 0.0
N357 N 0.57353 0.50527 0.48563 0.0
N358 N 0.72363 0.6238 0.4864 0.0
C359 C 0.68435 0.60194 0.52357 0.0
C360 C 0.60308 0.53808 0.52316 0.0
C361 C 0.1466 0.61197 0.85527 0.0
C362 C 0.1445 0.56993 0.89226 0.0
C363 C 0.15679 0.68981 0.85584 0.0
C364 C 0.16333 0.72798 0.89353 0.0
H365 H 0.13791 0.58345 0.82555 0.0
H366 H 0.15527 0.71849 0.82671 0.0
S367 S 0.17122 0.64873 0.99884 0.0
N368 N 0.15799 0.57628 0.96744 0.0
N369 N 0.1746 0.72128 0.96866 0.0
C370 C 0.1652 0.68841 0.93065 0.0
C371 C 0.15656 0.60979 0.93 0.0
C372 C 0.37285 0.15221 0.40392 0.0
C373 C 0.33359 0.16379 0.3693 0.0
C374 C 0.37663 0.18767 0.44318 0.0
C375 C 0.34187 0.23708 0.45002 0.0
H376 H 0.40063 0.11534 0.40084 0.0
H377 H 0.40737 0.17618 0.46848 0.0
S378 S 0.23121 0.28736 0.37062 0.0
N379 N 0.25853 0.23028 0.34613 0.0
N380 N 0.26625 0.29416 0.41809 0.0
C381 C 0.30269 0.24895 0.4158 0.0
C382 C 0.29848 0.21328 0.37624 0.0
C383 C 0.30142 0.3458 0.73547 0.0
C384 C 0.26205 0.34465 0.69788 0.0
C385 C 0.26942 0.34689 0.77524 0.0
C386 C 0.19501 0.34525 0.78036 0.0
H387 H 0.35837 0.34681 0.73429 0.0
H388 H 0.30373 0.34862 0.80248 0.0
S389 S 0.06439 0.33846 0.69276 0.0
N390 N 0.14179 0.34027 0.66944 0.0
N391 N 0.08221 0.34027 0.74314 0.0
C392 C 0.15401 0.34218 0.74316 0.0
C393 C 0.18718 0.34251 0.70256 0.0
C394 C 0.05857 0.24781 1.06066 0.0
C395 C 0.04683 0.30567 1.0384 0.0
C396 C 0.01636 0.2103 1.09838 0.0
C397 C -0.03877 0.22976 1.11658 0.0
H398 H 0.09922 0.22958 1.04825 0.0
H399 H 0.02768 0.16597 1.11362 0.0
S400 S 0.90763 0.37669 1.0712 0.0
N401 N -0.02666 0.37835 1.03761 0.0
N402 N 0.89853 0.31224 1.10865 0.0
C403 C 0.95031 0.28864 1.09504 0.0
C404 C -0.00853 0.32503 1.05611 0.0
C405 C 0.84459 -0.03178 0.37331 0.0
C406 C 0.83474 0.03652 0.36812 0.0
C407 C 0.84244 0.93279 0.41297 0.0
C408 C 0.82799 -0.03814 0.44995 0.0
H409 H 0.85568 0.94228 0.34636 0.0
H410 H 0.85204 0.88172 0.41464 0.0
S411 S 0.80174 0.14074 0.45543 0.0
N412 N 0.81334 0.1333 0.40516 0.0
N413 N 0.80674 0.0656 0.47869 0.0
C414 C 0.81835 0.03008 0.4455 0.0
C415 C 0.8223 0.06743 0.40512 0.0
C416 C -0.00743 0.89415 0.71165 0.0
C417 C 0.90979 0.84582 0.70191 0.0
C418 C 0.02481 0.89218 0.7511 0.0
C419 C -0.02291 0.84103 0.78393 0.0
H420 H 0.03426 0.93507 0.68839 0.0
H421 H 0.08862 0.93157 0.75571 0.0
S422 S 0.75572 0.70413 0.77724 0.0
N423 N 0.78012 0.74656 0.73032 0.0
N424 N 0.84019 0.74209 0.80406 0.0
C425 C 0.89386 0.79248 0.77514 0.0
C426 C 0.86058 0.79508 0.73461 0.0
C427 C 0.14619 0.86742 1.07038 0.0
C428 C 0.14264 0.91792 1.03856 0.0
C429 C 0.18256 0.89765 1.10976 0.0
C430 C 0.2156 -0.02039 1.11982 0.0
H431 H 0.12221 0.80423 1.06458 0.0
H432 H 0.18369 0.85609 1.13274 0.0
S433 S 0.22397 0.13852 1.04843 0.0
N434 N 0.17922 0.05625 1.02092 0.0
N435 N 0.24226 0.11019 1.09405 0.0
C436 C 0.2116 0.03017 1.08858 0.0
C437 C 0.1768 0.00027 1.04845 0.0
loop_
_geom_bond_atom_site_label_1
_geom_bond_atom_site_label_2
_geom_bond_distance
_geom_bond_site_symmetry_2
_ccdc_geom_bond_type
Tb0 C2 2.809 . S
Tb0 O20 2.484 . S
Tb0 O21 2.440 . S
Tb0 O22 2.658 . S
Tb0 O23 2.409 . S
Tb0 O24 2.378 . S
Tb0 O28 2.325 . S
Tb0 O31 2.341 1_554 S
Tb1 C11 2.809 . S
Tb1 O22 2.325 1_556 S
Tb1 O25 2.341 1_556 S
Tb1 O26 2.484 . S
Tb1 O27 2.440 . S
Tb1 O28 2.658 1_556 S
Tb1 O29 2.409 . S
Tb1 O30 2.378 . S
C2 Tb0 2.809 . S
C2 C3 1.514 . S
C2 O20 1.248 . S
C2 O21 1.266 . S
C3 C2 1.514 . S
C3 C4 1.359 . S
C3 C8 1.348 . S
C4 C3 1.359 . S
C4 C5 1.380 . S
C4 H32 0.929 . S
C5 C4 1.380 . S
C5 C6 1.347 . S
C5 H33 0.931 . S
C6 C5 1.347 . S
C6 C7 1.369 . S
C7 C6 1.369 . S
C7 C8 1.408 . S
C7 H34 0.930 1_545 S
C8 C3 1.348 . S
C8 C7 1.408 . S
C8 H35 0.930 . S
C9 O22 1.281 . S
C9 O23 1.254 . S
C10 O24 1.236 . S
C10 O25 1.266 . S
C11 Tb1 2.809 . S
C11 C12 1.514 . S
C11 O26 1.248 . S
C11 O27 1.266 . S
C12 C11 1.514 . S
C12 C13 1.359 . S
C12 C17 1.348 . S
C13 C12 1.359 . S
C13 C14 1.380 . S
C13 H36 0.929 . S
C14 C13 1.380 . S
C14 C15 1.347 . S
C14 H37 0.931 . S
C15 C14 1.347 . S
C15 C16 1.369 . S
C16 C15 1.369 . S
C16 C17 1.408 . S
C16 H38 0.930 . S
C17 C12 1.348 . S
C17 C16 1.408 . S
C17 H39 0.930 . S
C18 O28 1.281 . S
C18 O29 1.254 1_554 S
C19 O30 1.236 . S
C19 O31 1.266 . S
O20 Tb0 2.484 . S
O20 C2 1.248 . S
O21 Tb0 2.440 . S
O21 C2 1.266 . S
O22 Tb0 2.658 . S
O22 Tb1 2.325 1_554 S
O22 C9 1.281 . S
O23 Tb0 2.409 . S
O23 C9 1.254 . S
O24 Tb0 2.378 . S
O24 C10 1.236 . S
O25 Tb1 2.341 1_554 S
O25 C10 1.266 . S
O26 Tb1 2.484 . S
O26 C11 1.248 . S
O27 Tb1 2.440 . S
O27 C11 1.266 . S
O28 Tb0 2.325 . S
O28 Tb1 2.658 1_554 S
O28 C18 1.281 . S
O29 Tb1 2.409 . S
O29 C18 1.254 1_556 S
O30 Tb1 2.378 . S
O30 C19 1.236 . S
O31 Tb0 2.341 1_556 S
O31 C19 1.266 . S
H32 C4 0.929 . S
H33 C5 0.931 . S
H34 C7 0.930 1_565 S
H35 C8 0.930 . S
H36 C13 0.929 . S
H37 C14 0.931 . S
H38 C16 0.930 . S
H39 C17 0.930 . S
Tb40 C42 2.809 . S
Tb40 O60 2.484 . S
Tb40 O61 2.440 . S
Tb40 O62 2.658 . S
Tb40 O63 2.409 . S
Tb40 O64 2.378 . S
Tb40 O68 2.325 . S
Tb40 O71 2.341 . S
Tb41 C51 2.809 . S
Tb41 O62 2.325 . S
Tb41 O65 2.341 . S
Tb41 O66 2.484 . S
Tb41 O67 2.440 . S
Tb41 O68 2.658 . S
Tb41 O69 2.409 . S
Tb41 O70 2.378 . S
C42 Tb40 2.809 . S
C42 C43 1.514 . S
C42 O60 1.248 . S
C42 O61 1.266 . S
C43 C42 1.514 . S
C43 C44 1.359 . S
C43 C48 1.348 . S
C44 C43 1.359 . S
C44 C45 1.380 . S
C44 H72 0.929 . S
C45 C44 1.380 . S
C45 C46 1.347 . S
C45 H73 0.931 . S
C46 C45 1.347 . S
C46 C47 1.369 . S
C47 C46 1.369 . S
C47 C48 1.408 . S
C47 H74 0.930 . S
C48 C43 1.348 . S
C48 C47 1.408 . S
C48 H75 0.930 . S
C49 O62 1.281 . S
C49 O63 1.254 . S
C50 O64 1.236 . S
C50 O65 1.266 . S
C51 Tb41 2.809 . S
C51 C52 1.514 . S
C51 O66 1.248 . S
C51 O67 1.266 . S
C52 C51 1.514 . S
C52 C53 1.359 . S
C52 C57 1.348 . S
C53 C52 1.359 . S
C53 C54 1.380 . S
C53 H76 0.929 . S
C54 C53 1.380 . S
C54 C55 1.347 . S
C54 H77 0.931 . S
C55 C54 1.347 . S
C55 C56 1.369 . S
C56 C55 1.369 . S
C56 C57 1.408 . S
C56 H78 0.930 . S
C57 C52 1.348 . S
C57 C56 1.408 . S
C57 H79 0.930 . S
C58 O68 1.281 . S
C58 O69 1.254 . S
C59 O70 1.236 . S
C59 O71 1.266 . S
O60 Tb40 2.484 . S
O60 C42 1.248 . S
O61 Tb40 2.440 . S
O61 C42 1.266 . S
O62 Tb40 2.658 . S
O62 Tb41 2.325 . S
O62 C49 1.281 . S
O63 Tb40 2.409 . S
O63 C49 1.254 . S
O64 Tb40 2.378 . S
O64 C50 1.236 . S
O65 Tb41 2.341 . S
O65 C50 1.266 . S
O66 Tb41 2.484 . S
O66 C51 1.248 . S
O67 Tb41 2.440 . S
O67 C51 1.266 . S
O68 Tb40 2.325 . S
O68 Tb41 2.658 . S
O68 C58 1.281 . S
O69 Tb41 2.409 . S
O69 C58 1.254 . S
O70 Tb41 2.378 . S
O70 C59 1.236 . S
O71 Tb40 2.341 . S
O71 C59 1.266 . S
H72 C44 0.929 . S
H73 C45 0.931 . S
H74 C47 0.930 . S
H75 C48 0.930 . S
H76 C53 0.929 . S
H77 C54 0.931 . S
H78 C56 0.930 . S
H79 C57 0.930 . S
Tb80 C82 2.809 . S
Tb80 O100 2.484 . S
Tb80 O101 2.440 . S
Tb80 O102 2.658 . S
Tb80 O103 2.409 . S
Tb80 O104 2.378 . S
Tb80 O108 2.328 . S
Tb80 O111 2.341 . S
Tb81 C91 2.809 . S
Tb81 O102 2.325 1_655 S
Tb81 O105 2.341 . S
Tb81 O106 2.484 . S
Tb81 O107 2.440 . S
Tb81 O108 2.657 1_655 S
Tb81 O109 2.409 . S
Tb81 O110 2.378 1_655 S
C82 Tb80 2.809 . S
C82 C83 1.514 . S
C82 O100 1.248 . S
C82 O101 1.266 . S
C83 C82 1.514 . S
C83 C84 1.359 . S
C83 C88 1.348 . S
C84 C83 1.359 . S
C84 C85 1.380 . S
C84 H112 0.929 . S
C85 C84 1.380 . S
C85 C86 1.347 . S
C85 H113 0.931 . S
C86 C85 1.347 . S
C86 C87 1.369 . S
C87 C86 1.369 . S
C87 C88 1.408 . S
C87 H114 0.930 . S
C88 C83 1.348 . S
C88 C87 1.408 . S
C88 H115 0.930 . S
C89 O102 1.281 . S
C89 O103 1.254 . S
C90 O104 1.236 1_655 S
C90 O105 1.266 . S
C91 Tb81 2.809 . S
C91 C92 1.514 . S
C91 O106 1.248 . S
C91 O107 1.266 . S
C92 C91 1.514 . S
C92 C93 1.359 . S
C92 C97 1.348 . S
C93 C92 1.359 . S
C93 C94 1.380 . S
C93 H116 0.929 . S
C94 C93 1.380 . S
C94 C95 1.347 . S
C94 H117 0.931 . S
C95 C94 1.347 . S
C95 C96 1.369 . S
C96 C95 1.369 . S
C96 C97 1.408 . S
C96 H118 0.930 . S
C97 C92 1.348 . S
C97 C96 1.408 . S
C97 H119 0.930 . S
C98 O108 1.278 1_655 S
C98 O109 1.254 . S
C99 O110 1.236 . S
C99 O111 1.266 . S
O100 Tb80 2.484 . S
O100 C82 1.248 . S
O101 Tb80 2.440 . S
O101 C82 1.266 . S
O102 Tb80 2.658 . S
O102 Tb81 2.325 1_455 S
O102 C89 1.281 . S
O103 Tb80 2.409 . S
O103 C89 1.254 . S
O104 Tb80 2.378 . S
O104 C90 1.236 1_455 S
O105 Tb81 2.341 . S
O105 C90 1.266 . S
O106 Tb81 2.484 . S
O106 C91 1.248 . S
O107 Tb81 2.440 . S
O107 C91 1.266 . S
O108 Tb80 2.328 . S
O108 Tb81 2.657 1_455 S
O108 C98 1.278 1_455 S
O109 Tb81 2.409 . S
O109 C98 1.254 . S
O110 Tb81 2.378 1_455 S
O110 C99 1.236 . S
O111 Tb80 2.341 . S
O111 C99 1.266 . S
H112 C84 0.929 . S
H113 C85 0.931 . S
H114 C87 0.930 . S
H115 C88 0.930 . S
H116 C93 0.929 . S
H117 C94 0.931 . S
H118 C96 0.930 . S
H119 C97 0.930 . S
Tb120 C122 2.809 . S
Tb120 O140 2.484 . S
Tb120 O141 2.440 . S
Tb120 O142 2.658 . S
Tb120 O143 2.409 . S
Tb120 O144 2.378 . S
Tb120 O148 2.325 . S
Tb120 O151 2.341 1_554 S
Tb121 C131 2.809 . S
Tb121 O142 2.325 1_566 S
Tb121 O145 2.341 1_556 S
Tb121 O146 2.484 . S
Tb121 O147 2.440 . S
Tb121 O148 2.658 1_566 S
Tb121 O149 2.409 . S
Tb121 O150 2.378 1_565 S
C122 Tb120 2.809 . S
C122 C123 1.514 . S
C122 O140 1.248 . S
C122 O141 1.266 . S
C123 C122 1.514 . S
C123 C124 1.359 . S
C123 C128 1.348 . S
C124 C123 1.359 . S
C124 C125 1.380 . S
C124 H152 0.929 . S
C125 C124 1.380 . S
C125 C126 1.347 . S
C125 H153 0.931 . S
C126 C125 1.347 . S
C126 C127 1.369 . S
C127 C126 1.369 . S
C127 C128 1.408 . S
C127 H154 0.930 1_655 S
C128 C123 1.348 . S
C128 C127 1.408 . S
C128 H155 0.930 . S
C129 O142 1.281 . S
C129 O143 1.254 . S
C130 O144 1.236 1_565 S
C130 O145 1.266 . S
C131 Tb121 2.809 . S
C131 C132 1.514 . S
C131 O146 1.248 . S
C131 O147 1.266 . S
C132 C131 1.514 . S
C132 C133 1.359 . S
C132 C137 1.348 . S
C133 C132 1.359 . S
C133 C134 1.380 . S
C133 H156 0.929 . S
C134 C133 1.380 . S
C134 C135 1.347 . S
C134 H157 0.931 . S
C135 C134 1.347 . S
C135 C136 1.369 . S
C136 C135 1.369 . S
C136 C137 1.408 . S
C136 H158 0.930 . S
C137 C132 1.348 . S
C137 C136 1.408 . S
C137 H159 0.930 . S
C138 O148 1.281 1_565 S
C138 O149 1.254 1_554 S
C139 O150 1.236 . S
C139 O151 1.266 . S
O140 Tb120 2.484 . S
O140 C122 1.248 . S
O141 Tb120 2.440 . S
O141 C122 1.266 . S
O142 Tb120 2.658 . S
O142 Tb121 2.325 1_544 S
O142 C129 1.281 . S
O143 Tb120 2.409 . S
O143 C129 1.254 . S
O144 Tb120 2.378 . S
O144 C130 1.236 1_545 S
O145 Tb121 2.341 1_554 S
O145 C130 1.266 . S
O146 Tb121 2.484 . S
O146 C131 1.248 . S
O147 Tb121 2.440 . S
O147 C131 1.266 . S
O148 Tb120 2.325 . S
O148 Tb121 2.658 1_544 S
O148 C138 1.281 1_545 S
O149 Tb121 2.409 . S
O149 C138 1.254 1_556 S
O150 Tb121 2.378 1_545 S
O150 C139 1.236 . S
O151 Tb120 2.341 1_556 S
O151 C139 1.266 . S
H152 C124 0.929 . S
H153 C125 0.931 . S
H154 C127 0.930 1_455 S
H155 C128 0.930 . S
H156 C133 0.929 . S
H157 C134 0.931 . S
H158 C136 0.930 . S
H159 C137 0.930 . S
Tb160 C162 2.809 . S
Tb160 O180 2.484 . S
Tb160 O181 2.440 . S
Tb160 O182 2.658 1_655 S
Tb160 O183 2.409 1_665 S
Tb160 O184 2.378 . S
Tb160 O188 2.325 . S
Tb160 O191 2.341 . S
Tb161 C171 2.813 . S
Tb161 O182 2.319 . S
Tb161 O185 2.344 . S
Tb161 O186 2.489 . S
Tb161 O187 2.444 1_455 S
Tb161 O188 2.646 1_455 S
Tb161 O189 2.401 1_455 S
Tb161 O190 2.366 1_455 S
C162 Tb160 2.809 . S
C162 C163 1.514 . S
C162 O180 1.248 . S
C162 O181 1.266 . S
C163 C162 1.514 . S
C163 C164 1.359 . S
C163 C168 1.348 . S
C164 C163 1.359 . S
C164 C165 1.380 . S
C164 H192 0.929 . S
C165 C164 1.380 . S
C165 C166 1.347 . S
C165 H193 0.931 . S
C166 C165 1.347 . S
C166 C167 1.369 . S
C167 C166 1.369 . S
C167 C168 1.408 . S
C167 H194 0.930 1_565 S
C168 C163 1.348 . S
C168 C167 1.408 . S
C168 H195 0.930 1_565 S
C169 O182 1.281 . S
C169 O183 1.254 1_565 S
C170 O184 1.236 1_455 S
C170 O185 1.266 . S
C171 Tb161 2.813 . S
C171 C172 1.514 . S
C171 O186 1.248 . S
C171 O187 1.266 1_455 S
C172 C171 1.514 . S
C172 C173 1.359 . S
C172 C177 1.348 . S
C173 C172 1.359 . S
C173 C174 1.380 . S
C173 H196 0.929 . S
C174 C173 1.380 . S
C174 C175 1.347 . S
C174 H197 0.931 . S
C175 C174 1.347 . S
C175 C176 1.369 . S
C176 C175 1.369 . S
C176 C177 1.408 . S
C176 H198 0.930 . S
C177 C172 1.348 . S
C177 C176 1.408 . S
C177 H199 0.930 1_455 S
C178 O188 1.281 . S
C178 O189 1.254 . S
C179 O190 1.236 . S
C179 O191 1.266 . S
O180 Tb160 2.484 . S
O180 C162 1.248 . S
O181 Tb160 2.440 . S
O181 C162 1.266 . S
O182 Tb160 2.658 1_455 S
O182 Tb161 2.319 . S
O182 C169 1.281 . S
O183 Tb160 2.409 1_445 S
O183 C169 1.254 1_545 S
O184 Tb160 2.378 . S
O184 C170 1.236 1_655 S
O185 Tb161 2.344 . S
O185 C170 1.266 . S
O186 Tb161 2.489 . S
O186 C171 1.248 . S
O187 Tb161 2.444 1_655 S
O187 C171 1.266 1_655 S
O188 Tb160 2.325 . S
O188 Tb161 2.646 1_655 S
O188 C178 1.281 . S
O189 Tb161 2.401 1_655 S
O189 C178 1.254 . S
O190 Tb161 2.366 1_655 S
O190 C179 1.236 . S
O191 Tb160 2.341 . S
O191 C179 1.266 . S
H192 C164 0.929 . S
H193 C165 0.931 . S
H194 C167 0.930 1_545 S
H195 C168 0.930 1_545 S
H196 C173 0.929 . S
H197 C174 0.931 . S
H198 C176 0.930 . S
H199 C177 0.930 1_655 S
Tb200 C202 2.809 . S
Tb200 O220 2.484 . S
Tb200 O221 2.440 . S
Tb200 O222 2.658 1_565 S
Tb200 O223 2.409 1_565 S
Tb200 O224 2.378 . S
Tb200 O228 2.325 . S
Tb200 O231 2.341 . S
Tb201 C211 2.809 . S
Tb201 O222 2.325 . S
Tb201 O225 2.341 . S
Tb201 O226 2.484 . S
Tb201 O227 2.440 . S
Tb201 O228 2.658 1_545 S
Tb201 O229 2.409 1_545 S
Tb201 O230 2.378 1_545 S
C202 Tb200 2.809 . S
C202 C203 1.514 . S
C202 O220 1.248 . S
C202 O221 1.266 . S
C203 C202 1.514 . S
C203 C204 1.359 . S
C203 C208 1.348 . S
C204 C203 1.359 . S
C204 C205 1.380 . S
C204 H232 0.929 . S
C205 C204 1.380 . S
C205 C206 1.347 . S
C205 H233 0.931 . S
C206 C205 1.347 . S
C206 C207 1.369 . S
C207 C206 1.369 . S
C207 C208 1.408 . S
C207 H234 0.930 1_455 S
C208 C203 1.348 . S
C208 C207 1.408 . S
C208 H235 0.930 . S
C209 O222 1.281 . S
C209 O223 1.254 . S
C210 O224 1.236 1_545 S
C210 O225 1.266 . S
C211 Tb201 2.809 . S
C211 C212 1.514 . S
C211 O226 1.248 . S
C211 O227 1.266 . S
C212 C211 1.514 . S
C212 C213 1.359 . S
C212 C217 1.348 . S
C213 C212 1.359 . S
C213 C214 1.380 . S
C213 H236 0.929 . S
C214 C213 1.380 . S
C214 C215 1.347 . S
C214 H237 0.931 . S
C215 C214 1.347 . S
C215 C216 1.369 . S
C216 C215 1.369 . S
C216 C217 1.408 . S
C216 H238 0.930 . S
C217 C212 1.348 . S
C217 C216 1.408 . S
C217 H239 0.930 . S
C218 O228 1.281 . S
C218 O229 1.254 . S
C219 O230 1.236 . S
C219 O231 1.266 . S
O220 Tb200 2.484 . S
O220 C202 1.248 . S
O221 Tb200 2.440 . S
O221 C202 1.266 . S
O222 Tb200 2.658 1_545 S
O222 Tb201 2.325 . S
O222 C209 1.281 . S
O223 Tb200 2.409 1_545 S
O223 C209 1.254 . S
O224 Tb200 2.378 . S
O224 C210 1.236 1_565 S
O225 Tb201 2.341 . S
O225 C210 1.266 . S
O226 Tb201 2.484 . S
O226 C211 1.248 . S
O227 Tb201 2.440 . S
O227 C211 1.266 . S
O228 Tb200 2.325 . S
O228 Tb201 2.658 1_565 S
O228 C218 1.281 . S
O229 Tb201 2.409 1_565 S
O229 C218 1.254 . S
O230 Tb201 2.378 1_565 S
O230 C219 1.236 . S
O231 Tb200 2.341 . S
O231 C219 1.266 . S
H232 C204 0.929 . S
H233 C205 0.931 . S
H234 C207 0.930 1_655 S
H235 C208 0.930 . S
H236 C213 0.929 . S
H237 C214 0.931 . S
H238 C216 0.930 . S
H239 C217 0.930 . S
C240 C241 1.369 1_556 S
C240 C242 1.419 . S
C240 H244 0.930 . S
C241 C240 1.369 1_554 S
C241 C250 1.429 . S
C242 C240 1.419 . S
C242 C243 1.363 1_556 S
C242 H245 0.929 . S
C243 C242 1.363 1_554 S
C243 C249 1.428 . S
H244 C240 0.930 . S
H245 C242 0.929 . S
S246 N247 1.613 . S
S246 N248 1.610 . S
N247 S246 1.613 . S
N247 C250 1.350 . S
N248 S246 1.610 . S
N248 C249 1.351 . S
C249 C243 1.428 . S
C249 N248 1.351 . S
C249 C250 1.434 . S
C250 C241 1.429 . S
C250 N247 1.350 . S
C250 C249 1.434 . S
C251 C252 1.369 . S
C251 C253 1.419 . S
C251 H255 0.930 . S
C252 C251 1.369 . S
C252 C261 1.429 . S
C253 C251 1.419 . S
C253 C254 1.363 . S
C253 H256 0.929 . S
C254 C253 1.363 . S
C254 C260 1.428 . S
H255 C251 0.930 . S
H256 C253 0.929 . S
S257 N258 1.613 . S
S257 N259 1.610 1_655 S
N258 S257 1.613 . S
N258 C261 1.350 1_655 S
N259 S257 1.610 1_455 S
N259 C260 1.351 . S
C260 C254 1.428 . S
C260 N259 1.351 . S
C260 C261 1.434 . S
C261 C252 1.429 . S
C261 N258 1.350 1_455 S
C261 C260 1.434 . S
C262 C263 1.369 . S
C262 C264 1.419 . S
C262 H266 0.930 . S
C263 C262 1.369 . S
C263 C272 1.429 . S
C264 C262 1.419 . S
C264 C265 1.363 . S
C264 H267 0.929 . S
C265 C264 1.363 . S
C265 C271 1.428 . S
H266 C262 0.930 . S
H267 C264 0.929 . S
S268 N269 1.613 . S
S268 N270 1.610 . S
N269 S268 1.613 . S
N269 C272 1.350 . S
N270 S268 1.610 . S
N270 C271 1.351 . S
C271 C265 1.428 . S
C271 N270 1.351 . S
C271 C272 1.434 . S
C272 C263 1.429 . S
C272 N269 1.350 . S
C272 C271 1.434 . S
C273 C274 1.369 . S
C273 C275 1.419 . S
C273 H277 0.930 . S
C274 C273 1.369 . S
C274 C283 1.429 . S
C275 C273 1.419 . S
C275 C276 1.363 . S
C275 H278 0.929 . S
C276 C275 1.363 . S
C276 C282 1.428 . S
H277 C273 0.930 . S
H278 C275 0.929 . S
S279 N280 1.613 . S
S279 N281 1.610 . S
N280 S279 1.613 . S
N280 C283 1.350 . S
N281 S279 1.610 . S
N281 C282 1.351 . S
C282 C276 1.428 . S
C282 N281 1.351 . S
C282 C283 1.434 . S
C283 C274 1.429 . S
C283 N280 1.350 . S
C283 C282 1.434 . S
C284 C285 1.369 . S
C284 C286 1.419 1_455 S
C284 H288 0.930 . S
C285 C284 1.369 . S
C285 C294 1.429 . S
C286 C284 1.419 1_655 S
C286 C287 1.363 . S
C286 H289 0.929 . S
C287 C286 1.363 . S
C287 C293 1.428 . S
H288 C284 0.930 . S
H289 C286 0.929 . S
S290 N291 1.613 1_655 S
S290 N292 1.610 . S
N291 S290 1.613 1_455 S
N291 C294 1.350 . S
N292 S290 1.610 . S
N292 C293 1.351 . S
C293 C287 1.428 . S
C293 N292 1.351 . S
C293 C294 1.434 1_655 S
C294 C285 1.429 . S
C294 N291 1.350 . S
C294 C293 1.434 1_455 S
C295 C296 1.369 . S
C295 C297 1.419 . S
C295 H299 0.930 . S
C296 C295 1.369 . S
C296 C305 1.429 . S
C297 C295 1.419 . S
C297 C298 1.363 1_545 S
C297 H300 0.929 . S
C298 C297 1.363 1_565 S
C298 C304 1.428 . S
H299 C295 0.930 . S
H300 C297 0.929 . S
S301 N302 1.613 1_565 S
S301 N303 1.610 . S
N302 S301 1.613 1_545 S
N302 C305 1.350 . S
N303 S301 1.610 . S
N303 C304 1.351 . S
C304 C298 1.428 . S
C304 N303 1.351 . S
C304 C305 1.434 1_565 S
C305 C296 1.429 . S
C305 N302 1.350 . S
C305 C304 1.434 1_545 S
C306 C307 1.369 . S
C306 C308 1.419 . S
C306 H310 0.930 . S
C307 C306 1.369 . S
C307 C316 1.429 . S
C308 C306 1.419 . S
C308 C309 1.363 . S
C308 H311 0.929 . S
C309 C308 1.363 . S
C309 C315 1.428 . S
H310 C306 0.930 . S
H311 C308 0.929 . S
S312 N313 1.613 . S
S312 N314 1.610 . S
N313 S312 1.613 . S
N313 C316 1.350 . S
N314 S312 1.610 . S
N314 C315 1.351 . S
C315 C309 1.428 . S
C315 N314 1.351 . S
C315 C316 1.434 . S
C316 C307 1.429 . S
C316 N313 1.350 . S
C316 C315 1.434 . S
C317 C318 1.369 . S
C317 C319 1.419 . S
C317 H321 0.930 . S
C318 C317 1.369 . S
C318 C327 1.429 . S
C319 C317 1.419 . S
C319 C320 1.363 . S
C319 H322 0.929 . S
C320 C319 1.363 . S
C320 C326 1.428 . S
H321 C317 0.930 . S
H322 C319 0.929 . S
S323 N324 1.613 . S
S323 N325 1.610 1_565 S
N324 S323 1.613 . S
N324 C327 1.350 . S
N325 S323 1.610 1_545 S
N325 C326 1.351 1_545 S
C326 C320 1.428 . S
C326 N325 1.351 1_565 S
C326 C327 1.434 . S
C327 C318 1.429 . S
C327 N324 1.350 . S
C327 C326 1.434 . S
C328 C329 1.369 . S
C328 C330 1.419 . S
C328 H332 0.930 . S
C329 C328 1.369 . S
C329 C338 1.429 . S
C330 C328 1.419 . S
C330 C331 1.363 . S
C330 H333 0.929 . S
C331 C330 1.363 . S
C331 C337 1.428 . S
H332 C328 0.930 . S
H333 C330 0.929 . S
S334 N335 1.613 . S
S334 N336 1.610 . S
N335 S334 1.613 . S
N335 C338 1.350 . S
N336 S334 1.610 . S
N336 C337 1.351 . S
C337 C331 1.428 . S
C337 N336 1.351 . S
C337 C338 1.434 . S
C338 C329 1.429 . S
C338 N335 1.350 . S
C338 C337 1.434 . S
C339 C340 1.369 1_556 S
C339 C341 1.419 . S
C339 H343 0.930 . S
C340 C339 1.369 1_554 S
C340 C349 1.429 . S
C341 C339 1.419 . S
C341 C342 1.363 1_556 S
C341 H344 0.929 . S
C342 C341 1.363 1_554 S
C342 C348 1.428 . S
H343 C339 0.930 . S
H344 C341 0.929 . S
S345 N346 1.613 . S
S345 N347 1.610 . S
N346 S345 1.613 . S
N346 C349 1.350 . S
N347 S345 1.610 . S
N347 C348 1.351 . S
C348 C342 1.428 . S
C348 N347 1.351 . S
C348 C349 1.434 . S
C349 C340 1.429 . S
C349 N346 1.350 . S
C349 C348 1.434 . S
C350 C351 1.369 . S
C350 C352 1.419 . S
C350 H354 0.930 . S
C351 C350 1.369 . S
C351 C360 1.429 . S
C352 C350 1.419 . S
C352 C353 1.363 . S
C352 H355 0.929 . S
C353 C352 1.363 . S
C353 C359 1.428 . S
H354 C350 0.930 . S
H355 C352 0.929 . S
S356 N357 1.613 . S
S356 N358 1.610 . S
N357 S356 1.613 . S
N357 C360 1.350 . S
N358 S356 1.610 . S
N358 C359 1.351 . S
C359 C353 1.428 . S
C359 N358 1.351 . S
C359 C360 1.434 . S
C360 C351 1.429 . S
C360 N357 1.350 . S
C360 C359 1.434 . S
C361 C362 1.369 . S
C361 C363 1.419 . S
C361 H365 0.930 . S
C362 C361 1.369 . S
C362 C371 1.429 . S
C363 C361 1.419 . S
C363 C364 1.363 . S
C363 H366 0.929 . S
C364 C363 1.363 . S
C364 C370 1.428 . S
H365 C361 0.930 . S
H366 C363 0.929 . S
S367 N368 1.613 . S
S367 N369 1.610 . S
N368 S367 1.613 . S
N368 C371 1.350 . S
N369 S367 1.610 . S
N369 C370 1.351 . S
C370 C364 1.428 . S
C370 N369 1.351 . S
C370 C371 1.434 . S
C371 C362 1.429 . S
C371 N368 1.350 . S
C371 C370 1.434 . S
C372 C373 1.369 . S
C372 C374 1.419 . S
C372 H376 0.930 . S
C373 C372 1.369 . S
C373 C382 1.429 . S
C374 C372 1.419 . S
C374 C375 1.363 . S
C374 H377 0.929 . S
C375 C374 1.363 . S
C375 C381 1.428 . S
H376 C372 0.930 . S
H377 C374 0.929 . S
S378 N379 1.613 . S
S378 N380 1.610 . S
N379 S378 1.613 . S
N379 C382 1.350 . S
N380 S378 1.610 . S
N380 C381 1.351 . S
C381 C375 1.428 . S
C381 N380 1.351 . S
C381 C382 1.434 . S
C382 C373 1.429 . S
C382 N379 1.350 . S
C382 C381 1.434 . S
C383 C384 1.369 . S
C383 C385 1.419 . S
C383 H387 0.930 . S
C384 C383 1.369 . S
C384 C393 1.429 . S
C385 C383 1.419 . S
C385 C386 1.363 . S
C385 H388 0.929 . S
C386 C385 1.363 . S
C386 C392 1.428 . S
H387 C383 0.930 . S
H388 C385 0.929 . S
S389 N390 1.613 . S
S389 N391 1.610 . S
N390 S389 1.613 . S
N390 C393 1.350 . S
N391 S389 1.610 . S
N391 C392 1.351 . S
C392 C386 1.428 . S
C392 N391 1.351 . S
C392 C393 1.434 . S
C393 C384 1.429 . S
C393 N390 1.350 . S
C393 C392 1.434 . S
C394 C395 1.369 . S
C394 C396 1.419 . S
C394 H398 0.930 . S
C395 C394 1.369 . S
C395 C404 1.429 . S
C396 C394 1.419 . S
C396 C397 1.363 . S
C396 H399 0.929 . S
C397 C396 1.363 . S
C397 C403 1.428 . S
H398 C394 0.930 . S
H399 C396 0.929 . S
S400 N401 1.613 . S
S400 N402 1.610 . S
N401 S400 1.613 . S
N401 C404 1.350 . S
N402 S400 1.610 . S
N402 C403 1.351 . S
C403 C397 1.428 . S
C403 N402 1.351 . S
C403 C404 1.434 . S
C404 C395 1.429 . S
C404 N401 1.350 . S
C404 C403 1.434 . S
C405 C406 1.369 . S
C405 C407 1.419 . S
C405 H409 0.930 . S
C406 C405 1.369 . S
C406 C415 1.429 . S
C407 C405 1.419 . S
C407 C408 1.363 . S
C407 H410 0.929 . S
C408 C407 1.363 . S
C408 C414 1.428 . S
H409 C405 0.930 . S
H410 C407 0.929 . S
S411 N412 1.613 . S
S411 N413 1.610 . S
N412 S411 1.613 . S
N412 C415 1.350 1_545 S
N413 S411 1.610 . S
N413 C414 1.351 1_545 S
C414 C408 1.428 . S
C414 N413 1.351 1_565 S
C414 C415 1.434 . S
C415 C406 1.429 . S
C415 N412 1.350 1_565 S
C415 C414 1.434 . S
C416 C417 1.369 . S
C416 C418 1.419 . S
C416 H420 0.930 . S
C417 C416 1.369 . S
C417 C426 1.429 . S
C418 C416 1.419 . S
C418 C419 1.363 . S
C418 H421 0.929 . S
C419 C418 1.363 . S
C419 C425 1.428 . S
H420 C416 0.930 . S
H421 C418 0.929 . S
S422 N423 1.613 . S
S422 N424 1.610 1_655 S
N423 S422 1.613 . S
N423 C426 1.350 1_655 S
N424 S422 1.610 1_455 S
N424 C425 1.351 . S
C425 C419 1.428 . S
C425 N424 1.351 . S
C425 C426 1.434 . S
C426 C417 1.429 . S
C426 N423 1.350 1_455 S
C426 C425 1.434 . S
C427 C428 1.369 . S
C427 C429 1.419 . S
C427 H431 0.930 . S
C428 C427 1.369 . S
C428 C437 1.429 . S
C429 C427 1.419 . S
C429 C430 1.363 . S
C429 H432 0.929 . S
C430 C429 1.363 . S
C430 C436 1.428 . S
H431 C427 0.930 . S
H432 C429 0.929 . S
S433 N434 1.613 . S
S433 N435 1.610 . S
N434 S433 1.613 . S
N434 C437 1.350 . S
N435 S433 1.610 . S
N435 C436 1.351 . S
C436 C430 1.428 . S
C436 N435 1.351 . S
C436 C437 1.434 . S
C437 C428 1.429 . S
C437 N434 1.350 . S
C437 C436 1.434 . S
C241 C129 1.290 1_455 S
C243 C9 1.283 . S
C252 C169 1.278 1_545 S
C254 C49 1.294 . S
C263 C209 1.297 . S
C265 C89 1.281 . S
C274 C15 1.143 . S
C276 C86 1.259 . S
C285 C55 1.163 . S
C287 C126 1.248 . S
C296 C95 1.150 . S
C298 C166 1.257 . S
C307 C135 1.164 . S
C309 C206 1.246 1_655 S
C318 C175 1.161 . S
C320 C6 1.243 1_565 S
C329 C215 1.161 . S
C331 C46 1.249 . S
C340 C18 1.846 . S
C342 C138 1.840 1_545 S
C351 C58 1.838 . S
C353 C178 1.846 . S
C362 C98 1.843 1_455 S
C364 C218 1.844 . S
C373 C10 4.209 . S
C375 C59 4.266 . S
C384 C50 4.209 . S
C386 C99 4.266 . S
C395 C90 4.209 . S
C397 C139 4.266 . S
C406 C130 4.207 . S
C408 C179 4.267 . S
C417 C170 4.206 . S
C419 C219 4.267 . S
C428 C210 4.206 . S
C430 C19 4.266 . S
