# Generated by pormake.
# Topology ukd, (4)-cn, num edge types: 1
# Building blocks:
#     Node 0, Type 0, BuildingBlock: CEKHIL_clean_sbu_0, # of connection points: 4
#     Node 1, Type 0, BuildingBlock: CEKHIL_clean_sbu_0, # of connection points: 4
#     Node 2, Type 0, BuildingBlock: CEKHIL_clean_sbu_0, # of connection points: 4
#     Node 3, Type 0, BuildingBlock: CEKHIL_clean_sbu_0, # of connection points: 4
#     Node 4, Type 0, BuildingBlock: CEKHIL_clean_sbu_0, # of connection points: 4
#     Node 5, Type 0, BuildingBlock: CEKHIL_clean_sbu_0, # of connection points: 4
#     Node 6, Type 0, BuildingBlock: CEKHIL_clean_sbu_0, # of connection points: 4
#     Node 7, Type 0, BuildingBlock: CEKHIL_clean_sbu_0, # of connection points: 4
#     Node 8, Type 0, BuildingBlock: CEKHIL_clean_sbu_0, # of connection points: 4
#     Node 9, Type 0, BuildingBlock: CEKHIL_clean_sbu_0, # of connection points: 4
#     Node 10, Type 0, BuildingBlock: CEKHIL_clean_sbu_0, # of connection points: 4
#     Node 11, Type 0, BuildingBlock: CEKHIL_clean_sbu_0, # of connection points: 4
#     Node 12, Type 0, BuildingBlock: CEKHIL_clean_sbu_0, # of connection points: 4
#     Node 13, Type 0, BuildingBlock: CEKHIL_clean_sbu_0, # of connection points: 4
#     Node 14, Type 0, BuildingBlock: CEKHIL_clean_sbu_0, # of connection points: 4
#     Node 15, Type 0, BuildingBlock: CEKHIL_clean_sbu_0, # of connection points: 4
#     Node 16, Type 0, BuildingBlock: CEKHIL_clean_sbu_0, # of connection points: 4
#     Node 17, Type 0, BuildingBlock: CEKHIL_clean_sbu_0, # of connection points: 4
#     Node 18, Type 0, BuildingBlock: CEKHIL_clean_sbu_0, # of connection points: 4
#     Node 19, Type 0, BuildingBlock: CEKHIL_clean_sbu_0, # of connection points: 4
#     Node 20, Type 0, BuildingBlock: CEKHIL_clean_sbu_0, # of connection points: 4
#     Node 21, Type 0, BuildingBlock: CEKHIL_clean_sbu_0, # of connection points: 4
#     Node 22, Type 0, BuildingBlock: CEKHIL_clean_sbu_0, # of connection points: 4
#     Node 23, Type 0, BuildingBlock: CEKHIL_clean_sbu_0, # of connection points: 4
#     Node 24, Type 0, BuildingBlock: CEKHIL_clean_sbu_0, # of connection points: 4
#     Node 25, Type 0, BuildingBlock: CEKHIL_clean_sbu_0, # of connection points: 4
#     Node 26, Type 0, BuildingBlock: CEKHIL_clean_sbu_0, # of connection points: 4
#     Node 27, Type 0, BuildingBlock: CEKHIL_clean_sbu_0, # of connection points: 4
#     Node 28, Type 0, BuildingBlock: CEKHIL_clean_sbu_0, # of connection points: 4
#     Node 29, Type 0, BuildingBlock: CEKHIL_clean_sbu_0, # of connection points: 4
#     Node 30, Type 0, BuildingBlock: CEKHIL_clean_sbu_0, # of connection points: 4
#     Node 31, Type 0, BuildingBlock: CEKHIL_clean_sbu_0, # of connection points: 4
#     Edge 32, Type (0, 0), BuildingBlock: KIFKEQ_clean_linker_1, # of connection points: 2
#     Edge 33, Type (0, 0), BuildingBlock: KIFKEQ_clean_linker_1, # of connection points: 2
#     Edge 34, Type (0, 0), BuildingBlock: KIFKEQ_clean_linker_1, # of connection points: 2
#     Edge 35, Type (0, 0), BuildingBlock: KIFKEQ_clean_linker_1, # of connection points: 2
#     Edge 36, Type (0, 0), BuildingBlock: KIFKEQ_clean_linker_1, # of connection points: 2
#     Edge 37, Type (0, 0), BuildingBlock: KIFKEQ_clean_linker_1, # of connection points: 2
#     Edge 38, Type (0, 0), BuildingBlock: KIFKEQ_clean_linker_1, # of connection points: 2
#     Edge 39, Type (0, 0), BuildingBlock: KIFKEQ_clean_linker_1, # of connection points: 2
#     Edge 40, Type (0, 0), BuildingBlock: KIFKEQ_clean_linker_1, # of connection points: 2
#     Edge 41, Type (0, 0), BuildingBlock: KIFKEQ_clean_linker_1, # of connection points: 2
#     Edge 42, Type (0, 0), BuildingBlock: KIFKEQ_clean_linker_1, # of connection points: 2
#     Edge 43, Type (0, 0), BuildingBlock: KIFKEQ_clean_linker_1, # of connection points: 2
#     Edge 44, Type (0, 0), BuildingBlock: KIFKEQ_clean_linker_1, # of connection points: 2
#     Edge 45, Type (0, 0), BuildingBlock: KIFKEQ_clean_linker_1, # of connection points: 2
#     Edge 46, Type (0, 0), BuildingBlock: KIFKEQ_clean_linker_1, # of connection points: 2
#     Edge 47, Type (0, 0), BuildingBlock: KIFKEQ_clean_linker_1, # of connection points: 2
#     Edge 48, Type (0, 0), BuildingBlock: KIFKEQ_clean_linker_1, # of connection points: 2
#     Edge 49, Type (0, 0), BuildingBlock: KIFKEQ_clean_linker_1, # of connection points: 2
#     Edge 50, Type (0, 0), BuildingBlock: KIFKEQ_clean_linker_1, # of connection points: 2
#     Edge 51, Type (0, 0), BuildingBlock: KIFKEQ_clean_linker_1, # of connection points: 2
#     Edge 52, Type (0, 0), BuildingBlock: KIFKEQ_clean_linker_1, # of connection points: 2
#     Edge 53, Type (0, 0), BuildingBlock: KIFKEQ_clean_linker_1, # of connection points: 2
#     Edge 54, Type (0, 0), BuildingBlock: KIFKEQ_clean_linker_1, # of connection points: 2
#     Edge 55, Type (0, 0), BuildingBlock: KIFKEQ_clean_linker_1, # of connection points: 2
#     Edge 56, Type (0, 0), BuildingBlock: KIFKEQ_clean_linker_1, # of connection points: 2
#     Edge 57, Type (0, 0), BuildingBlock: KIFKEQ_clean_linker_1, # of connection points: 2
#     Edge 58, Type (0, 0), BuildingBlock: KIFKEQ_clean_linker_1, # of connection points: 2
#     Edge 59, Type (0, 0), BuildingBlock: KIFKEQ_clean_linker_1, # of connection points: 2
#     Edge 60, Type (0, 0), BuildingBlock: KIFKEQ_clean_linker_1, # of connection points: 2
#     Edge 61, Type (0, 0), BuildingBlock: KIFKEQ_clean_linker_1, # of connection points: 2
#     Edge 62, Type (0, 0), BuildingBlock: KIFKEQ_clean_linker_1, # of connection points: 2
#     Edge 63, Type (0, 0), BuildingBlock: KIFKEQ_clean_linker_1, # of connection points: 2
#     Edge 64, Type (0, 0), BuildingBlock: KIFKEQ_clean_linker_1, # of connection points: 2
#     Edge 65, Type (0, 0), BuildingBlock: KIFKEQ_clean_linker_1, # of connection points: 2
#     Edge 66, Type (0, 0), BuildingBlock: KIFKEQ_clean_linker_1, # of connection points: 2
#     Edge 67, Type (0, 0), BuildingBlock: KIFKEQ_clean_linker_1, # of connection points: 2
#     Edge 68, Type (0, 0), BuildingBlock: KIFKEQ_clean_linker_1, # of connection points: 2
#     Edge 69, Type (0, 0), BuildingBlock: KIFKEQ_clean_linker_1, # of connection points: 2
#     Edge 70, Type (0, 0), BuildingBlock: KIFKEQ_clean_linker_1, # of connection points: 2
#     Edge 71, Type (0, 0), BuildingBlock: KIFKEQ_clean_linker_1, # of connection points: 2
#     Edge 72, Type (0, 0), BuildingBlock: KIFKEQ_clean_linker_1, # of connection points: 2
#     Edge 73, Type (0, 0), BuildingBlock: KIFKEQ_clean_linker_1, # of connection points: 2
#     Edge 74, Type (0, 0), BuildingBlock: KIFKEQ_clean_linker_1, # of connection points: 2
#     Edge 75, Type (0, 0), BuildingBlock: KIFKEQ_clean_linker_1, # of connection points: 2
#     Edge 76, Type (0, 0), BuildingBlock: KIFKEQ_clean_linker_1, # of connection points: 2
#     Edge 77, Type (0, 0), BuildingBlock: KIFKEQ_clean_linker_1, # of connection points: 2
#     Edge 78, Type (0, 0), BuildingBlock: KIFKEQ_clean_linker_1, # of connection points: 2
#     Edge 79, Type (0, 0), BuildingBlock: KIFKEQ_clean_linker_1, # of connection points: 2
#     Edge 80, Type (0, 0), BuildingBlock: KIFKEQ_clean_linker_1, # of connection points: 2
#     Edge 81, Type (0, 0), BuildingBlock: KIFKEQ_clean_linker_1, # of connection points: 2
#     Edge 82, Type (0, 0), BuildingBlock: KIFKEQ_clean_linker_1, # of connection points: 2
#     Edge 83, Type (0, 0), BuildingBlock: KIFKEQ_clean_linker_1, # of connection points: 2
#     Edge 84, Type (0, 0), BuildingBlock: KIFKEQ_clean_linker_1, # of connection points: 2
#     Edge 85, Type (0, 0), BuildingBlock: KIFKEQ_clean_linker_1, # of connection points: 2
#     Edge 86, Type (0, 0), BuildingBlock: KIFKEQ_clean_linker_1, # of connection points: 2
#     Edge 87, Type (0, 0), BuildingBlock: KIFKEQ_clean_linker_1, # of connection points: 2
#     Edge 88, Type (0, 0), BuildingBlock: KIFKEQ_clean_linker_1, # of connection points: 2
#     Edge 89, Type (0, 0), BuildingBlock: KIFKEQ_clean_linker_1, # of connection points: 2
#     Edge 90, Type (0, 0), BuildingBlock: KIFKEQ_clean_linker_1, # of connection points: 2
#     Edge 91, Type (0, 0), BuildingBlock: KIFKEQ_clean_linker_1, # of connection points: 2
#     Edge 92, Type (0, 0), BuildingBlock: KIFKEQ_clean_linker_1, # of connection points: 2
#     Edge 93, Type (0, 0), BuildingBlock: KIFKEQ_clean_linker_1, # of connection points: 2
#     Edge 94, Type (0, 0), BuildingBlock: KIFKEQ_clean_linker_1, # of connection points: 2
#     Edge 95, Type (0, 0), BuildingBlock: KIFKEQ_clean_linker_1, # of connection points: 2
# Relax obj value: 0.048
# Max RMSD: 0.075
# Mean RMSD: 0.075
data_MOF--net-ukd--node1-CEKHIL_clean_sbu_0--edge1-KIFKEQ_clean_linker_1
_symmetry_space_group_name_H-M    P1
_symmetry_Int_Tables_number       1
_symmetry_cell_setting            triclinic
loop_
_symmetry_equiv_pos_as_xyz
'x, y, z'
_cell_length_a     45.754253
_cell_length_b     45.756823
_cell_length_c     71.315974
_cell_angle_alpha  89.997837
_cell_angle_beta   90.002129
_cell_angle_gamma 90.009127
loop_
_atom_site_label
_atom_site_type_symbol
_atom_site_fract_x
_atom_site_fract_y
_atom_site_fract_z
_atom_type_partial_charge
Co0 Co 0.21432 0.17389 0.33624 0.0
O1 O 0.23481 0.13753 0.33239 0.0
O2 O 0.23494 0.16266 0.35887 0.0
C3 C 0.22881 0.19538 0.30925 0.0
O4 O 0.19717 0.2127 0.34525 0.0
Co5 Co 0.16515 0.19374 0.30921 0.0
O6 O 0.16907 0.23169 0.32246 0.0
C7 C 0.15237 0.14865 0.33772 0.0
C8 C 0.24411 0.14004 0.3495 0.0
C9 C 0.18183 0.23372 0.3383 0.0
O10 O 0.17808 0.15217 0.34478 0.0
O11 O 0.14392 0.16161 0.32275 0.0
O12 O 0.24577 0.19538 0.32386 0.0
O13 O 0.20512 0.18023 0.31085 0.0
Co14 Co 0.0846 0.96439 0.58798 0.0
O15 O 0.1219 0.98325 0.58422 0.0
O16 O 0.09658 0.98467 0.6106 0.0
C17 C 0.06387 0.97947 0.56084 0.0
O18 O 0.04497 0.94892 0.5969 0.0
Co19 Co 0.06304 0.91569 0.56097 0.0
O20 O 0.02529 0.92109 0.57419 0.0
C21 C 0.10769 0.90163 0.58949 0.0
C22 C 0.11969 0.99275 0.60131 0.0
C23 C 0.02353 0.93412 0.58995 0.0
O24 O 0.1047 0.92732 0.59668 0.0
O25 O 0.09471 0.89368 0.57442 0.0
O26 O 0.06478 0.99673 0.5753 0.0
O27 O 0.07788 0.95514 0.56268 0.0
Co28 Co 0.29303 0.83309 0.83667 0.0
O29 O 0.27366 0.87006 0.83281 0.0
O30 O 0.2727 0.84492 0.85928 0.0
C31 C 0.27803 0.81195 0.80967 0.0
O32 O 0.30906 0.79372 0.84565 0.0
Co33 Co 0.34188 0.81206 0.80962 0.0
O34 O 0.33687 0.77426 0.82286 0.0
C35 C 0.35554 0.85697 0.83805 0.0
C36 C 0.26422 0.86781 0.84991 0.0
C37 C 0.32398 0.77241 0.83867 0.0
O38 O 0.32987 0.85375 0.84523 0.0
O39 O 0.36364 0.84396 0.82302 0.0
O40 O 0.26088 0.81275 0.82418 0.0
O41 O 0.3022 0.82631 0.81136 0.0
Co42 Co 0.42325 0.04246 0.0863 0.0
O43 O 0.38705 0.02173 0.08243 0.0
O44 O 0.41169 0.0224 0.1091 0.0
C45 C 0.44523 0.02735 0.05962 0.0
O46 O 0.46187 0.06005 0.09536 0.0
Co47 Co 0.44317 0.09101 0.05885 0.0
O48 O 0.481 0.08751 0.07229 0.0
C49 C 0.39757 0.10426 0.0869 0.0
C50 C 0.38924 0.01294 0.09967 0.0
C51 C 0.48292 0.07523 0.08829 0.0
O52 O 0.40119 0.07879 0.09427 0.0
O53 O 0.41071 0.11241 0.07193 0.0
O54 O 0.44509 0.01078 0.07441 0.0
O55 O 0.42993 0.05099 0.06087 0.0
Co56 Co 0.21584 0.8325 0.16628 0.0
O57 O 0.23541 0.86939 0.16995 0.0
O58 O 0.23713 0.84344 0.14382 0.0
C59 C 0.22952 0.81202 0.19377 0.0
O60 O 0.19955 0.79312 0.15763 0.0
Co61 Co 0.16544 0.81386 0.19289 0.0
O62 O 0.16933 0.77567 0.17985 0.0
C63 C 0.15442 0.85848 0.16403 0.0
C64 C 0.24537 0.8666 0.15301 0.0
C65 C 0.18324 0.77273 0.16446 0.0
O66 O 0.17966 0.85319 0.15679 0.0
O67 O 0.14575 0.84718 0.17949 0.0
O68 O 0.24724 0.8122 0.17954 0.0
O69 O 0.20565 0.82671 0.19153 0.0
Co70 Co 0.42571 0.96768 0.41594 0.0
O71 O 0.38936 0.9881 0.41971 0.0
O72 O 0.41473 0.98861 0.39333 0.0
C73 C 0.44701 0.98167 0.4431 0.0
O74 O 0.46455 0.95033 0.40721 0.0
Co75 Co 0.44372 0.91778 0.44301 0.0
O76 O 0.48189 0.9208 0.42983 0.0
C77 C 0.39876 0.90656 0.4144 0.0
C78 C 0.39191 0.99749 0.40263 0.0
C79 C 0.48483 0.93408 0.41421 0.0
O80 O 0.40408 0.9317 0.40701 0.0
O81 O 0.41024 0.89801 0.42983 0.0
O82 O 0.44718 0.99888 0.42861 0.0
O83 O 0.43157 0.95819 0.44131 0.0
Co84 Co 0.29323 0.17452 0.66625 0.0
O85 O 0.27422 0.13743 0.67067 0.0
O86 O 0.27279 0.16176 0.64391 0.0
C87 C 0.27843 0.19621 0.69316 0.0
O88 O 0.30877 0.21361 0.65648 0.0
Co89 Co 0.34201 0.19805 0.69243 0.0
O90 O 0.33433 0.23565 0.6794 0.0
C91 C 0.35607 0.15194 0.66473 0.0
C92 C 0.26466 0.13904 0.65356 0.0
C93 C 0.32205 0.23601 0.66337 0.0
O94 O 0.33013 0.154 0.6578 0.0
O95 O 0.36428 0.16615 0.6793 0.0
O96 O 0.26107 0.1949 0.67876 0.0
O97 O 0.30283 0.18229 0.6914 0.0
Co98 Co 0.08279 0.04134 0.91519 0.0
O99 O 0.11938 0.02142 0.91928 0.0
O100 O 0.09443 0.02042 0.89274 0.0
C101 C 0.06138 0.02721 0.94231 0.0
O102 O 0.04397 0.05805 0.90598 0.0
Co103 Co 0.06242 0.09093 0.94178 0.0
O104 O 0.02413 0.08504 0.92907 0.0
C105 C 0.10789 0.10314 0.91348 0.0
C106 C 0.11719 0.01186 0.90221 0.0
C107 C 0.02253 0.07249 0.91314 0.0
O108 O 0.10396 0.07759 0.90634 0.0
O109 O 0.09533 0.11172 0.92857 0.0
O110 O 0.0616 0.00992 0.92786 0.0
O111 O 0.07626 0.05104 0.94047 0.0
Co112 Co 0.79403 0.83359 0.66732 0.0
O113 O 0.77355 0.86991 0.67122 0.0
O114 O 0.77392 0.84525 0.64457 0.0
C115 C 0.77891 0.81168 0.69402 0.0
O116 O 0.81132 0.79484 0.65825 0.0
Co117 Co 0.84261 0.81344 0.69469 0.0
O118 O 0.83883 0.77562 0.68126 0.0
C119 C 0.85601 0.85889 0.66656 0.0
C120 C 0.76463 0.86776 0.65401 0.0
C121 C 0.82643 0.77373 0.6653 0.0
O122 O 0.83046 0.85541 0.65926 0.0
O123 O 0.86416 0.84573 0.68152 0.0
O124 O 0.76227 0.81195 0.67926 0.0
O125 O 0.80264 0.82686 0.69274 0.0
Co126 Co 0.92526 0.04173 0.41734 0.0
O127 O 0.88881 0.02143 0.42122 0.0
O128 O 0.91374 0.02129 0.39467 0.0
C129 C 0.94688 0.02712 0.44426 0.0
O130 O 0.96413 0.05878 0.40829 0.0
Co131 Co 0.94522 0.09083 0.44438 0.0
O132 O 0.98311 0.08696 0.43105 0.0
C133 C 0.89991 0.10364 0.41606 0.0
C134 C 0.89105 0.01231 0.40405 0.0
C135 C 0.98515 0.07416 0.41523 0.0
O136 O 0.90359 0.07803 0.40891 0.0
O137 O 0.91287 0.11204 0.43105 0.0
O138 O 0.94671 0.01017 0.42965 0.0
O139 O 0.93176 0.05084 0.44272 0.0
Co140 Co 0.71399 0.17439 0.16535 0.0
O141 O 0.73358 0.13758 0.16935 0.0
O142 O 0.73396 0.16224 0.14269 0.0
C143 C 0.72943 0.19572 0.19218 0.0
O144 O 0.69769 0.21336 0.15604 0.0
Co145 Co 0.66597 0.19698 0.19231 0.0
O146 O 0.67309 0.23494 0.17954 0.0
C147 C 0.65125 0.15145 0.16432 0.0
C148 C 0.74267 0.13955 0.15216 0.0
C149 C 0.68471 0.23562 0.16332 0.0
O150 O 0.67709 0.15353 0.15724 0.0
O151 O 0.64332 0.16549 0.17902 0.0
O152 O 0.74618 0.19522 0.17747 0.0
O153 O 0.7052 0.18141 0.1907 0.0
Co154 Co 0.584 0.96305 0.91668 0.0
O155 O 0.62093 0.98261 0.92043 0.0
O156 O 0.59568 0.98333 0.89401 0.0
C157 C 0.56293 0.97809 0.94369 0.0
O158 O 0.54466 0.94687 0.90776 0.0
Co159 Co 0.56314 0.91424 0.94379 0.0
O160 O 0.52529 0.91903 0.93057 0.0
C161 C 0.60805 0.90062 0.91535 0.0
C162 C 0.61856 0.99197 0.90332 0.0
C163 C 0.5234 0.93188 0.91475 0.0
O164 O 0.60477 0.92626 0.90815 0.0
O165 O 0.59506 0.89252 0.93039 0.0
O166 O 0.56361 0.99517 0.92915 0.0
O167 O 0.57734 0.95394 0.94202 0.0
Co168 Co 0.79043 0.17415 0.83698 0.0
O169 O 0.77128 0.13705 0.83325 0.0
O170 O 0.76928 0.16286 0.85942 0.0
C171 C 0.77656 0.19465 0.80951 0.0
O172 O 0.80629 0.21368 0.84569 0.0
Co173 Co 0.84064 0.19343 0.81037 0.0
O174 O 0.83631 0.23152 0.82347 0.0
C175 C 0.85219 0.14895 0.83922 0.0
C176 C 0.76132 0.13963 0.85021 0.0
C177 C 0.82239 0.23425 0.83888 0.0
O178 O 0.82686 0.15387 0.84644 0.0
O179 O 0.86073 0.16037 0.82377 0.0
O180 O 0.75882 0.19417 0.82373 0.0
O181 O 0.80056 0.18019 0.81174 0.0
Co182 Co 0.58368 0.04095 0.58781 0.0
O183 O 0.62058 0.02145 0.58409 0.0
O184 O 0.59492 0.01998 0.61034 0.0
C185 C 0.56294 0.02684 0.56049 0.0
O186 O 0.54434 0.05728 0.59651 0.0
Co187 Co 0.56469 0.0909 0.56091 0.0
O188 O 0.52659 0.08686 0.57402 0.0
C189 C 0.60931 0.1026 0.58968 0.0
C190 C 0.618 0.01169 0.60109 0.0
C191 C 0.52382 0.0733 0.58956 0.0
O192 O 0.60433 0.07735 0.59701 0.0
O193 O 0.59783 0.11102 0.57422 0.0
O194 O 0.56332 0.0093 0.57481 0.0
O195 O 0.57761 0.05075 0.56254 0.0
Co196 Co 0.71574 0.83361 0.33752 0.0
O197 O 0.73584 0.87018 0.3335 0.0
O198 O 0.73607 0.84545 0.36013 0.0
C199 C 0.73063 0.8121 0.3106 0.0
O200 O 0.69894 0.79484 0.34686 0.0
Co201 Co 0.66718 0.81175 0.31069 0.0
O202 O 0.67376 0.77368 0.32344 0.0
C203 C 0.65337 0.85745 0.33875 0.0
C204 C 0.74501 0.86806 0.35067 0.0
C205 C 0.6855 0.7728 0.33963 0.0
O206 O 0.67921 0.85495 0.34579 0.0
O207 O 0.64516 0.8436 0.32404 0.0
O208 O 0.74751 0.81236 0.32525 0.0
O209 O 0.70663 0.82675 0.31218 0.0
Co210 Co 0.92502 0.967 0.08715 0.0
O211 O 0.88797 0.98605 0.08294 0.0
O212 O 0.91295 0.98793 0.10946 0.0
C213 C 0.94624 0.98112 0.05996 0.0
O214 O 0.96417 0.95127 0.09652 0.0
Co215 Co 0.9465 0.91724 0.06094 0.0
O216 O 0.98452 0.92388 0.0738 0.0
C217 C 0.90085 0.90486 0.08906 0.0
C218 C 0.89001 0.9959 0.09996 0.0
C219 C 0.98583 0.93687 0.08959 0.0
O220 O 0.90461 0.93044 0.0962 0.0
O221 O 0.91352 0.89634 0.074 0.0
O222 O 0.94532 0.99877 0.07421 0.0
O223 O 0.93202 0.95692 0.062 0.0
Co224 Co 0.71424 0.6723 0.83664 0.0
O225 O 0.73356 0.63529 0.83281 0.0
O226 O 0.73446 0.66042 0.85928 0.0
C227 C 0.72937 0.69342 0.80967 0.0
O228 O 0.69825 0.71169 0.84562 0.0
Co229 Co 0.6655 0.69343 0.80956 0.0
O230 O 0.67048 0.73121 0.82283 0.0
C231 C 0.65169 0.64852 0.83796 0.0
C232 C 0.74292 0.63751 0.84994 0.0
C233 C 0.68335 0.73302 0.83864 0.0
O234 O 0.67735 0.65169 0.84515 0.0
O235 O 0.64362 0.66157 0.82293 0.0
O236 O 0.74647 0.69259 0.8242 0.0
O237 O 0.70516 0.67911 0.81131 0.0
Co238 Co 0.58242 0.4671 0.08781 0.0
O239 O 0.61887 0.48741 0.0842 0.0
O240 O 0.59337 0.48783 0.11053 0.0
C241 C 0.56131 0.48133 0.06064 0.0
O242 O 0.54345 0.44976 0.09634 0.0
Co243 Co 0.5646 0.41744 0.06047 0.0
O244 O 0.52632 0.42047 0.07351 0.0
C245 C 0.60919 0.4059 0.08925 0.0
C246 C 0.61631 0.49666 0.10131 0.0
C247 C 0.52322 0.4336 0.08917 0.0
O248 O 0.60388 0.431 0.09668 0.0
O249 O 0.59785 0.39748 0.07375 0.0
O250 O 0.56113 0.49845 0.07518 0.0
O251 O 0.57671 0.45782 0.0624 0.0
Co252 Co 0.7915 0.33044 0.33716 0.0
O253 O 0.77225 0.36743 0.33329 0.0
O254 O 0.77023 0.34179 0.35954 0.0
C255 C 0.77764 0.30984 0.30975 0.0
O256 O 0.80742 0.29101 0.34599 0.0
Co257 Co 0.84172 0.31103 0.31063 0.0
O258 O 0.83739 0.27301 0.32381 0.0
C259 C 0.85319 0.35578 0.33935 0.0
C260 C 0.76217 0.36488 0.35022 0.0
C261 C 0.8235 0.27038 0.33923 0.0
O262 O 0.82785 0.3509 0.34657 0.0
O263 O 0.86177 0.3442 0.32396 0.0
O264 O 0.75994 0.31029 0.32398 0.0
O265 O 0.80166 0.32431 0.31193 0.0
Co266 Co 0.92413 0.54306 0.58663 0.0
O267 O 0.88686 0.52417 0.5829 0.0
O268 O 0.91231 0.52272 0.60924 0.0
C269 C 0.94475 0.52805 0.55947 0.0
O270 O 0.96378 0.55852 0.59553 0.0
Co271 Co 0.94561 0.59187 0.55971 0.0
O272 O 0.98342 0.58649 0.57288 0.0
C273 C 0.90104 0.60581 0.5883 0.0
C274 C 0.88919 0.5146 0.59997 0.0
C275 C 0.98519 0.57337 0.58861 0.0
O276 O 0.90403 0.58007 0.59541 0.0
O277 O 0.91402 0.61386 0.57325 0.0
O278 O 0.94392 0.51078 0.57392 0.0
O279 O 0.93075 0.5524 0.56132 0.0
Co280 Co 0.71571 0.3337 0.66591 0.0
O281 O 0.73562 0.37031 0.67008 0.0
O282 O 0.73591 0.34591 0.64333 0.0
C283 C 0.73072 0.31187 0.69269 0.0
O284 O 0.69904 0.29495 0.65644 0.0
Co285 Co 0.6672 0.31159 0.69267 0.0
O286 O 0.67396 0.27363 0.67984 0.0
C287 C 0.65324 0.35743 0.66476 0.0
C288 C 0.74471 0.36849 0.65288 0.0
C289 C 0.6857 0.27283 0.66365 0.0
O290 O 0.67909 0.35502 0.65775 0.0
O291 O 0.64501 0.34345 0.67942 0.0
O292 O 0.74759 0.31241 0.67804 0.0
O293 O 0.70669 0.32651 0.69122 0.0
Co294 Co 0.92336 0.46395 0.91631 0.0
O295 O 0.88682 0.48406 0.92022 0.0
O296 O 0.91162 0.4842 0.89362 0.0
C297 C 0.945 0.47889 0.94316 0.0
O298 O 0.96228 0.44706 0.90724 0.0
Co299 Co 0.94369 0.41516 0.94346 0.0
O300 O 0.98154 0.41933 0.93012 0.0
C301 C 0.89842 0.40185 0.9152 0.0
C302 C 0.88893 0.49311 0.90303 0.0
C303 C 0.98344 0.43196 0.91423 0.0
O304 O 0.90186 0.42747 0.90801 0.0
O305 O 0.91151 0.3936 0.93017 0.0
O306 O 0.94468 0.49572 0.92849 0.0
O307 O 0.93001 0.45507 0.94171 0.0
Co308 Co 0.79314 0.67496 0.16648 0.0
O309 O 0.77359 0.63815 0.17091 0.0
O310 O 0.7725 0.66256 0.14416 0.0
C311 C 0.77859 0.69678 0.19339 0.0
O312 O 0.80914 0.71382 0.15668 0.0
Co313 Co 0.84214 0.69814 0.19261 0.0
O314 O 0.83472 0.73581 0.1796 0.0
C315 C 0.85579 0.65186 0.1649 0.0
C316 C 0.76395 0.64001 0.15382 0.0
C317 C 0.82252 0.73617 0.16355 0.0
O318 O 0.82981 0.65399 0.15802 0.0
O319 O 0.86415 0.66613 0.17941 0.0
O320 O 0.76125 0.69573 0.17898 0.0
O321 O 0.80286 0.68261 0.19163 0.0
Co322 Co 0.58229 0.54081 0.41446 0.0
O323 O 0.61868 0.52061 0.41863 0.0
O324 O 0.59394 0.5199 0.392 0.0
C325 C 0.56064 0.52661 0.44148 0.0
O326 O 0.54366 0.55785 0.40517 0.0
Co327 Co 0.56206 0.59032 0.44114 0.0
O328 O 0.52379 0.58458 0.42838 0.0
C329 C 0.60778 0.60246 0.41299 0.0
C330 C 0.61652 0.51108 0.40155 0.0
C331 C 0.52223 0.57224 0.41238 0.0
O332 O 0.60378 0.57697 0.40576 0.0
O333 O 0.59515 0.61101 0.42806 0.0
O334 O 0.5608 0.50944 0.42697 0.0
O335 O 0.57567 0.55037 0.43975 0.0
Co336 Co 0.29156 0.33265 0.16541 0.0
O337 O 0.27259 0.36984 0.1693 0.0
O338 O 0.2712 0.34472 0.14284 0.0
C339 C 0.27657 0.31171 0.19248 0.0
O340 O 0.30714 0.29312 0.15637 0.0
Co341 Co 0.34038 0.31113 0.19233 0.0
O342 O 0.33494 0.2734 0.17908 0.0
C343 C 0.3542 0.35609 0.16397 0.0
C344 C 0.26306 0.36772 0.15222 0.0
C345 C 0.32193 0.27168 0.16331 0.0
O346 O 0.32854 0.35297 0.15675 0.0
O347 O 0.36221 0.34304 0.17901 0.0
O348 O 0.2593 0.31263 0.17803 0.0
O349 O 0.30086 0.32581 0.19068 0.0
Co350 Co 0.42335 0.54241 0.91675 0.0
O351 O 0.3863 0.52309 0.92052 0.0
O352 O 0.41158 0.5221 0.89411 0.0
C353 C 0.44436 0.52752 0.94383 0.0
O354 O 0.46277 0.55838 0.9078 0.0
Co355 Co 0.44438 0.59133 0.94375 0.0
O356 O 0.48219 0.58638 0.93052 0.0
C357 C 0.39945 0.60489 0.91532 0.0
C358 C 0.38857 0.51373 0.9034 0.0
C359 C 0.48405 0.57339 0.91474 0.0
O360 O 0.40275 0.57924 0.90813 0.0
O361 O 0.41242 0.613 0.93037 0.0
O362 O 0.44361 0.51028 0.92936 0.0
O363 O 0.43004 0.55168 0.94205 0.0
Co364 Co 0.2146 0.67249 0.66688 0.0
O365 O 0.23513 0.63614 0.67052 0.0
O366 O 0.23478 0.66128 0.64405 0.0
C367 C 0.22962 0.69396 0.69374 0.0
O368 O 0.19724 0.71138 0.65812 0.0
Co369 Co 0.16592 0.69197 0.69439 0.0
O370 O 0.16962 0.73004 0.68126 0.0
C371 C 0.15268 0.64706 0.66587 0.0
C372 C 0.24408 0.63862 0.65333 0.0
C373 C 0.18206 0.7323 0.66533 0.0
O374 O 0.17822 0.65076 0.65862 0.0
O375 O 0.14448 0.65988 0.68095 0.0
O376 O 0.2463 0.69396 0.679 0.0
O377 O 0.20593 0.67873 0.69234 0.0
Co378 Co 0.08294 0.46376 0.41624 0.0
O379 O 0.11941 0.48388 0.42046 0.0
O380 O 0.09507 0.48403 0.39367 0.0
C381 C 0.061 0.47877 0.44295 0.0
O382 O 0.04432 0.44688 0.40672 0.0
Co383 Co 0.06087 0.41528 0.44304 0.0
O384 O 0.02294 0.42182 0.43011 0.0
C385 C 0.10673 0.40135 0.41512 0.0
C386 C 0.1175 0.49306 0.40328 0.0
C387 C 0.02222 0.43348 0.41389 0.0
O388 O 0.10441 0.42723 0.40813 0.0
O389 O 0.09269 0.39311 0.42975 0.0
O390 O 0.06149 0.49557 0.42827 0.0
O391 O 0.07573 0.45478 0.44155 0.0
Co392 Co 0.28969 0.67635 0.33878 0.0
O393 O 0.26993 0.63973 0.33461 0.0
O394 O 0.26898 0.6644 0.36126 0.0
C395 C 0.27527 0.69786 0.31178 0.0
O396 O 0.30635 0.71515 0.34807 0.0
Co397 Co 0.33899 0.69708 0.31207 0.0
O398 O 0.33307 0.73524 0.32493 0.0
C399 C 0.35148 0.65126 0.34007 0.0
C400 C 0.26048 0.64169 0.35171 0.0
C401 C 0.32065 0.73669 0.34091 0.0
O402 O 0.32608 0.65522 0.34742 0.0
O403 O 0.35984 0.66392 0.32497 0.0
O404 O 0.25808 0.69752 0.32628 0.0
O405 O 0.29917 0.68308 0.31352 0.0
Co406 Co 0.08319 0.54253 0.08659 0.0
O407 O 0.12013 0.52312 0.08266 0.0
O408 O 0.0951 0.52207 0.10916 0.0
C409 C 0.06196 0.5277 0.05956 0.0
O410 O 0.04389 0.55863 0.09566 0.0
Co411 Co 0.06229 0.59159 0.05968 0.0
O412 O 0.0245 0.58666 0.07295 0.0
C413 C 0.10726 0.60495 0.08813 0.0
C414 C 0.11798 0.51366 0.09976 0.0
C415 C 0.02264 0.57372 0.08873 0.0
O416 O 0.10395 0.57925 0.09523 0.0
O417 O 0.09428 0.6132 0.07311 0.0
O418 O 0.06275 0.51049 0.07404 0.0
O419 O 0.07637 0.55184 0.06129 0.0
Co420 Co 0.21448 0.33391 0.83682 0.0
O421 O 0.23431 0.37063 0.83272 0.0
O422 O 0.23459 0.3461 0.85943 0.0
C423 C 0.22963 0.31228 0.80999 0.0
O424 O 0.19795 0.29511 0.84629 0.0
Co425 Co 0.16619 0.31137 0.81003 0.0
O426 O 0.17299 0.27349 0.82296 0.0
C427 C 0.15186 0.35715 0.83793 0.0
C428 C 0.24339 0.36873 0.84993 0.0
C429 C 0.18469 0.27289 0.83916 0.0
O430 O 0.17774 0.35503 0.84496 0.0
O431 O 0.14378 0.34305 0.82329 0.0
O432 O 0.24646 0.31281 0.82466 0.0
O433 O 0.2055 0.32674 0.81149 0.0
Co434 Co 0.42555 0.46631 0.58673 0.0
O435 O 0.38864 0.48581 0.58293 0.0
O436 O 0.41429 0.48741 0.60919 0.0
C437 C 0.4463 0.48025 0.55936 0.0
O438 O 0.46487 0.4501 0.59554 0.0
Co439 Co 0.44474 0.41618 0.56009 0.0
O440 O 0.48279 0.42026 0.57327 0.0
C441 C 0.39986 0.4047 0.58873 0.0
C442 C 0.39122 0.49566 0.59992 0.0
C443 C 0.48545 0.43401 0.58874 0.0
O444 O 0.40484 0.42998 0.59601 0.0
O445 O 0.41145 0.39616 0.57333 0.0
O446 O 0.44592 0.49787 0.57365 0.0
O447 O 0.43167 0.45632 0.56148 0.0
H448 H 0.13511 0.40696 0.38131 0.0
H449 H 0.11854 0.3451 0.42589 0.0
H450 H 0.1588 0.36853 0.36311 0.0
H451 H 0.1416 0.30677 0.40757 0.0
H452 H 0.1984 0.24485 0.37471 0.0
H453 H 0.18606 0.28745 0.39378 0.0
H454 H 0.14132 0.32586 0.34648 0.0
H455 H 0.15405 0.28384 0.32739 0.0
C456 C 0.13679 0.38531 0.38736 0.0
C457 C 0.12457 0.37916 0.40503 0.0
C458 C 0.15023 0.36321 0.37685 0.0
C459 C 0.15187 0.33445 0.38378 0.0
C460 C 0.14099 0.32868 0.40183 0.0
C461 C 0.12754 0.35071 0.41231 0.0
C462 C 0.18628 0.26256 0.3683 0.0
C463 C 0.17701 0.26069 0.34953 0.0
C464 C 0.17907 0.28693 0.37928 0.0
C465 C 0.16254 0.31005 0.37172 0.0
C466 C 0.15435 0.30867 0.35274 0.0
C467 C 0.16147 0.28436 0.34181 0.0
H468 H 0.01258 0.95078 0.6264 0.0
H469 H 0.9728 0.9077 0.57887 0.0
H470 H 0.96982 0.93878 0.64544 0.0
H471 H 0.93073 0.89519 0.59791 0.0
H472 H 0.85012 0.88742 0.63279 0.0
H473 H 0.88831 0.9117 0.6147 0.0
H474 H 0.95022 0.89478 0.65912 0.0
H475 H 0.91212 0.87127 0.67736 0.0
C476 C 0.99465 0.93905 0.61994 0.0
C477 C 0.99637 0.92998 0.60112 0.0
C478 C 0.97019 0.93201 0.63089 0.0
C479 C 0.94685 0.91582 0.62328 0.0
C480 C 0.94806 0.90795 0.60424 0.0
C481 C 0.97243 0.91495 0.59333 0.0
C482 C 0.87175 0.88929 0.63885 0.0
C483 C 0.87801 0.87703 0.65649 0.0
C484 C 0.89373 0.90308 0.62841 0.0
C485 C 0.92249 0.90497 0.63534 0.0
C486 C 0.92833 0.89403 0.65337 0.0
C487 C 0.90641 0.8803 0.6638 0.0
H488 H 0.37138 0.5991 0.88139 0.0
H489 H 0.38726 0.66106 0.92601 0.0
H490 H 0.3472 0.63731 0.86324 0.0
H491 H 0.36384 0.69916 0.90774 0.0
H492 H 0.30742 0.76125 0.8751 0.0
H493 H 0.31968 0.71851 0.89409 0.0
H494 H 0.36361 0.6799 0.84653 0.0
H495 H 0.35085 0.72195 0.82754 0.0
C496 C 0.36949 0.62073 0.88744 0.0
C497 C 0.38162 0.62697 0.90512 0.0
C498 C 0.35575 0.64271 0.87697 0.0
C499 C 0.35378 0.67145 0.88393 0.0
C500 C 0.36465 0.67728 0.90198 0.0
C501 C 0.37834 0.65537 0.91243 0.0
C502 C 0.3193 0.74344 0.86862 0.0
C503 C 0.32838 0.74528 0.84982 0.0
C504 C 0.32649 0.71899 0.87955 0.0
C505 C 0.34284 0.69579 0.8719 0.0
C506 C 0.35073 0.69712 0.85288 0.0
C507 C 0.3436 0.72148 0.842 0.0
H508 H 0.49383 0.06006 0.12499 0.0
H509 H 0.53318 0.10243 0.07705 0.0
H510 H 0.53646 0.07289 0.14391 0.0
H511 H 0.57521 0.11567 0.09598 0.0
H512 H 0.65645 0.12234 0.13074 0.0
H513 H 0.61775 0.09855 0.11282 0.0
H514 H 0.55621 0.11757 0.15709 0.0
H515 H 0.5948 0.14072 0.17514 0.0
C516 C 0.51162 0.07186 0.11842 0.0
C517 C 0.50985 0.08041 0.09951 0.0
C518 C 0.53601 0.07936 0.12931 0.0
C519 C 0.55926 0.09546 0.12152 0.0
C520 C 0.55794 0.10297 0.10243 0.0
C521 C 0.53362 0.09556 0.09158 0.0
C522 C 0.63478 0.12107 0.1368 0.0
C523 C 0.62879 0.13378 0.15435 0.0
C524 C 0.61253 0.10756 0.12646 0.0
C525 C 0.58375 0.10636 0.13342 0.0
C526 C 0.57811 0.11781 0.15134 0.0
C527 C 0.60031 0.13133 0.16166 0.0
H528 H 0.15412 0.72347 0.17555 0.0
H529 H 0.20136 0.75997 0.12858 0.0
H530 H 0.14112 0.68122 0.15676 0.0
H531 H 0.18877 0.71711 0.10981 0.0
H532 H 0.12104 0.66063 0.07712 0.0
H533 H 0.14441 0.69872 0.09548 0.0
H534 H 0.15774 0.63762 0.14085 0.0
H535 H 0.1337 0.59944 0.12259 0.0
C536 C 0.16214 0.72233 0.16128 0.0
C537 C 0.17855 0.7454 0.15355 0.0
C538 C 0.15486 0.69787 0.15052 0.0
C539 C 0.16375 0.69575 0.13171 0.0
C540 C 0.18121 0.71822 0.12418 0.0
C541 C 0.18858 0.74273 0.13499 0.0
C542 C 0.12922 0.6551 0.09092 0.0
C543 C 0.12509 0.62693 0.09842 0.0
C544 C 0.14288 0.67699 0.10143 0.0
C545 C 0.1528 0.67136 0.11972 0.0
C546 C 0.14995 0.64284 0.12691 0.0
C547 C 0.1363 0.62088 0.11638 0.0
H548 H 0.49765 0.9514 0.37818 0.0
H549 H 0.53388 0.90475 0.42549 0.0
H550 H 0.54059 0.93855 0.35957 0.0
H551 H 0.57625 0.89154 0.40685 0.0
H552 H 0.65847 0.88463 0.37299 0.0
H553 H 0.61994 0.90857 0.39099 0.0
H554 H 0.55925 0.89391 0.34557 0.0
H555 H 0.59768 0.87059 0.32746 0.0
C556 C 0.51483 0.93867 0.38469 0.0
C557 C 0.51208 0.92891 0.40331 0.0
C558 C 0.53939 0.93117 0.37398 0.0
C559 C 0.56184 0.91386 0.38166 0.0
C560 C 0.5596 0.90516 0.40051 0.0
C561 C 0.53508 0.91257 0.41118 0.0
C562 C 0.63705 0.88693 0.36671 0.0
C563 C 0.6312 0.87535 0.34882 0.0
C564 C 0.61489 0.90051 0.37709 0.0
C565 C 0.58639 0.90295 0.36982 0.0
C566 C 0.58096 0.89268 0.35157 0.0
C567 C 0.60304 0.87907 0.34122 0.0
H568 H 0.33237 0.23853 0.62579 0.0
H569 H 0.32158 0.29285 0.67469 0.0
H570 H 0.34716 0.28093 0.6076 0.0
H571 H 0.334 0.33592 0.6563 0.0
H572 H 0.396 0.39883 0.62662 0.0
H573 H 0.37308 0.35955 0.64409 0.0
H574 H 0.33912 0.32367 0.59229 0.0
H575 H 0.36421 0.36194 0.57485 0.0
C576 C 0.3323 0.25979 0.63248 0.0
C577 C 0.32605 0.2624 0.65166 0.0
C578 C 0.34066 0.28431 0.62202 0.0
C579 C 0.34224 0.31224 0.63038 0.0
C580 C 0.33409 0.31488 0.64938 0.0
C581 C 0.32658 0.29022 0.65994 0.0
C582 C 0.38332 0.38271 0.61903 0.0
C583 C 0.38207 0.38335 0.59937 0.0
C584 C 0.36991 0.36011 0.62906 0.0
C585 C 0.35419 0.33791 0.61974 0.0
C586 C 0.35164 0.33966 0.60007 0.0
C587 C 0.36577 0.36183 0.59001 0.0
H588 H 0.96623 0.07466 0.92553 0.0
H589 H 0.01866 0.08133 0.87549 0.0
H590 H 0.92267 0.08694 0.90758 0.0
H591 H 0.97587 0.09601 0.85768 0.0
H592 H 0.89405 0.11201 0.8257 0.0
H593 H 0.93261 0.0876 0.84326 0.0
H594 H 0.89883 0.1252 0.89461 0.0
H595 H 0.85917 0.14736 0.87708 0.0
C596 C 0.96835 0.0788 0.91063 0.0
C597 C 0.99577 0.07708 0.90189 0.0
C598 C 0.94341 0.0862 0.90031 0.0
C599 C 0.94541 0.09306 0.88106 0.0
C600 C 0.97295 0.09048 0.8723 0.0
C601 C 0.99771 0.0822 0.88254 0.0
C602 C 0.89469 0.1145 0.8408 0.0
C603 C 0.87364 0.13156 0.85003 0.0
C604 C 0.91703 0.10078 0.85092 0.0
C605 C 0.91949 0.10457 0.87049 0.0
C606 C 0.89773 0.12108 0.87969 0.0
C607 C 0.87492 0.13404 0.86962 0.0
H608 H 0.88878 0.66194 0.57755 0.0
H609 H 0.87394 0.60044 0.62257 0.0
H610 H 0.86602 0.7003 0.59595 0.0
H611 H 0.85046 0.6389 0.64087 0.0
H612 H 0.85468 0.72387 0.67621 0.0
H613 H 0.86748 0.68181 0.6572 0.0
H614 H 0.822 0.71958 0.60998 0.0
H615 H 0.80964 0.76227 0.62896 0.0
C616 C 0.88024 0.65641 0.59126 0.0
C617 C 0.88359 0.62806 0.59862 0.0
C618 C 0.86694 0.67847 0.60179 0.0
C619 C 0.85656 0.67282 0.61998 0.0
C620 C 0.85863 0.64415 0.62702 0.0
C621 C 0.87196 0.62202 0.61647 0.0
C622 C 0.84713 0.72321 0.66182 0.0
C623 C 0.83137 0.74674 0.6541 0.0
C624 C 0.85429 0.69886 0.65094 0.0
C625 C 0.8459 0.69727 0.63201 0.0
C626 C 0.82916 0.72026 0.62444 0.0
C627 C 0.82195 0.74469 0.63537 0.0
H628 H 0.09668 0.13466 0.32686 0.0
H629 H 0.15812 0.1224 0.37225 0.0
H630 H 0.0586 0.1118 0.34546 0.0
H631 H 0.11994 0.09881 0.39075 0.0
H632 H 0.03469 0.10329 0.42583 0.0
H633 H 0.07674 0.1158 0.40674 0.0
H634 H 0.03973 0.06817 0.36014 0.0
H635 H 0.99704 0.0561 0.3792 0.0
C636 C 0.10228 0.12664 0.34069 0.0
C637 C 0.13051 0.13078 0.3481 0.0
C638 C 0.08038 0.11328 0.35134 0.0
C639 C 0.08606 0.10364 0.3697 0.0
C640 C 0.11466 0.10641 0.37677 0.0
C641 C 0.13663 0.11979 0.3661 0.0
C642 C 0.03551 0.09519 0.41157 0.0
C643 C 0.01219 0.07892 0.40403 0.0
C644 C 0.05987 0.10219 0.40063 0.0
C645 C 0.06167 0.09312 0.38184 0.0
C646 C 0.0389 0.07587 0.37449 0.0
C647 C 0.01446 0.06881 0.38545 0.0
H648 H 0.6122 0.3996 0.12713 0.0
H649 H 0.64526 0.36342 0.07547 0.0
H650 H 0.63444 0.35993 0.14458 0.0
H651 H 0.66967 0.32475 0.09295 0.0
H652 H 0.6746 0.23897 0.12576 0.0
H653 H 0.6605 0.28182 0.1078 0.0
H654 H 0.67301 0.33573 0.15707 0.0
H655 H 0.68478 0.29222 0.17521 0.0
C656 C 0.62505 0.38357 0.11957 0.0
C657 C 0.62683 0.38449 0.09994 0.0
C658 C 0.63804 0.36074 0.1296 0.0
C659 C 0.65387 0.3386 0.12031 0.0
C660 C 0.65703 0.34068 0.10068 0.0
C661 C 0.6433 0.36308 0.09061 0.0
C662 C 0.67462 0.26008 0.13264 0.0
C663 C 0.68053 0.26226 0.15188 0.0
C664 C 0.66669 0.28486 0.12231 0.0
C665 C 0.66521 0.31262 0.13088 0.0
C666 C 0.6729 0.31483 0.14998 0.0
C667 C 0.67999 0.2899 0.1604 0.0
H668 H 0.47309 0.9046 0.92581 0.0
H669 H 0.51205 0.94871 0.87839 0.0
H670 H 0.43099 0.89194 0.90684 0.0
H671 H 0.46927 0.93654 0.85943 0.0
H672 H 0.41165 0.86934 0.82728 0.0
H673 H 0.44987 0.89251 0.84559 0.0
H674 H 0.38826 0.90859 0.89031 0.0
H675 H 0.34994 0.88466 0.87212 0.0
C676 C 0.47254 0.91202 0.9114 0.0
C677 C 0.49626 0.92742 0.90361 0.0
C678 C 0.44815 0.90494 0.90052 0.0
C679 C 0.4467 0.91307 0.88154 0.0
C680 C 0.46984 0.92956 0.87393 0.0
C681 C 0.49431 0.93669 0.88485 0.0
C682 C 0.40604 0.87808 0.84092 0.0
C683 C 0.37767 0.87472 0.84828 0.0
C684 C 0.42802 0.89163 0.8514 0.0
C685 C 0.42229 0.90226 0.86952 0.0
C686 C 0.39358 0.90022 0.87652 0.0
C687 C 0.37154 0.88663 0.86603 0.0
H688 H 0.87125 0.40755 0.88098 0.0
H689 H 0.88488 0.34609 0.92619 0.0
H690 H 0.84703 0.36942 0.86279 0.0
H691 H 0.86134 0.30805 0.90788 0.0
H692 H 0.80455 0.24658 0.87489 0.0
H693 H 0.81699 0.28941 0.89373 0.0
H694 H 0.86364 0.32612 0.84663 0.0
H695 H 0.85078 0.28392 0.82777 0.0
C696 C 0.86882 0.38606 0.88715 0.0
C697 C 0.88036 0.37992 0.90501 0.0
C698 C 0.85507 0.36413 0.87666 0.0
C699 C 0.85245 0.33554 0.88377 0.0
C700 C 0.86268 0.32983 0.90199 0.0
C701 C 0.87643 0.35169 0.91247 0.0
C702 C 0.81706 0.264 0.86846 0.0
C703 C 0.82688 0.26157 0.84983 0.0
C704 C 0.82435 0.28849 0.87931 0.0
C705 C 0.84151 0.31118 0.87176 0.0
C706 C 0.85015 0.3093 0.85289 0.0
C707 C 0.84294 0.28487 0.84209 0.0
H708 H 0.41234 0.1404 0.67558 0.0
H709 H 0.35041 0.12273 0.63121 0.0
H710 H 0.45048 0.11626 0.65767 0.0
H711 H 0.38866 0.09797 0.61343 0.0
H712 H 0.47381 0.10049 0.57791 0.0
H713 H 0.43167 0.11419 0.5966 0.0
H714 H 0.46924 0.07088 0.64472 0.0
H715 H 0.51198 0.05757 0.62603 0.0
C716 C 0.40668 0.13098 0.66213 0.0
C717 C 0.37826 0.13389 0.65478 0.0
C718 C 0.4286 0.11688 0.6519 0.0
C719 C 0.42275 0.1053 0.63404 0.0
C720 C 0.39403 0.10702 0.62703 0.0
C721 C 0.37204 0.1211 0.63729 0.0
C722 C 0.47306 0.09356 0.59242 0.0
C723 C 0.49656 0.07818 0.60048 0.0
C724 C 0.44868 0.10124 0.60313 0.0
C725 C 0.44706 0.0938 0.62222 0.0
C726 C 0.46995 0.07731 0.63011 0.0
C727 C 0.49439 0.06952 0.61936 0.0
H728 H 0.68582 0.71615 0.32789 0.0
H729 H 0.67415 0.7697 0.37705 0.0
H730 H 0.67337 0.67277 0.34596 0.0
H731 H 0.65927 0.72701 0.3949 0.0
H732 H 0.64264 0.64558 0.42724 0.0
H733 H 0.66745 0.68432 0.41007 0.0
H734 H 0.63478 0.64833 0.35796 0.0
H735 H 0.61224 0.60857 0.37517 0.0
C736 C 0.68055 0.71855 0.34262 0.0
C737 C 0.68091 0.74624 0.35108 0.0
C738 C 0.67305 0.6937 0.353 0.0
C739 C 0.6647 0.69602 0.37198 0.0
C740 C 0.66595 0.72385 0.38049 0.0
C741 C 0.67434 0.74855 0.37023 0.0
C742 C 0.64134 0.64577 0.41207 0.0
C743 C 0.62555 0.62406 0.40254 0.0
C744 C 0.65528 0.66822 0.40216 0.0
C745 C 0.65299 0.67009 0.38247 0.0
C746 C 0.63776 0.6477 0.373 0.0
C747 C 0.62458 0.62482 0.38289 0.0
H748 H 0.11276 0.89562 0.17761 0.0
H749 H 0.14787 0.86076 0.12615 0.0
H750 H 0.07473 0.92082 0.16003 0.0
H751 H 0.10872 0.88373 0.10859 0.0
H752 H 0.04234 0.93513 0.0776 0.0
H753 H 0.08557 0.92254 0.09579 0.0
H754 H 0.03156 0.91317 0.1453 0.0
H755 H 0.9891 0.92816 0.12727 0.0
C756 C 0.11229 0.89341 0.16249 0.0
C757 C 0.13325 0.87625 0.15325 0.0
C758 C 0.09025 0.90759 0.15236 0.0
C759 C 0.08803 0.9042 0.13275 0.0
C760 C 0.10968 0.88757 0.12354 0.0
C761 C 0.13219 0.87413 0.13364 0.0
C762 C 0.03998 0.93091 0.09248 0.0
C763 C 0.01242 0.93259 0.10104 0.0
C764 C 0.06472 0.92331 0.10293 0.0
C765 C 0.06238 0.91619 0.12212 0.0
C766 C 0.03473 0.91886 0.13072 0.0
C767 C 0.01017 0.92734 0.12036 0.0
H768 H 0.69988 0.74413 0.87509 0.0
H769 H 0.65649 0.78352 0.82755 0.0
H770 H 0.68765 0.78685 0.89409 0.0
H771 H 0.64376 0.82555 0.84655 0.0
H772 H 0.63612 0.90636 0.88141 0.0
H773 H 0.66022 0.86812 0.86326 0.0
H774 H 0.64356 0.80629 0.90777 0.0
H775 H 0.62022 0.84443 0.92606 0.0
C776 C 0.68802 0.76196 0.86862 0.0
C777 C 0.67895 0.76014 0.84981 0.0
C778 C 0.68085 0.7864 0.87955 0.0
C779 C 0.66452 0.80963 0.87192 0.0
C780 C 0.65662 0.80832 0.85289 0.0
C781 C 0.66374 0.78397 0.842 0.0
C782 C 0.63799 0.88473 0.88747 0.0
C783 C 0.62588 0.87852 0.90516 0.0
C784 C 0.65168 0.86273 0.87699 0.0
C785 C 0.65362 0.83399 0.88395 0.0
C786 C 0.64277 0.82817 0.90201 0.0
C787 C 0.62913 0.85011 0.91246 0.0
H788 H 0.47445 0.40412 0.07757 0.0
H789 H 0.50981 0.45078 0.12515 0.0
H790 H 0.43194 0.39056 0.09595 0.0
H791 H 0.46668 0.43762 0.14349 0.0
H792 H 0.40972 0.36961 0.17538 0.0
H793 H 0.44816 0.39307 0.15739 0.0
H794 H 0.38794 0.40679 0.11159 0.0
H795 H 0.34938 0.38263 0.12947 0.0
C796 C 0.47302 0.41187 0.09189 0.0
C797 C 0.49584 0.4283 0.0999 0.0
C798 C 0.4484 0.40427 0.10241 0.0
C799 C 0.44587 0.41286 0.12126 0.0
C800 C 0.46811 0.43029 0.12909 0.0
C801 C 0.49278 0.43797 0.11853 0.0
C802 C 0.40445 0.37788 0.16155 0.0
C803 C 0.37642 0.37385 0.15383 0.0
C804 C 0.42655 0.39159 0.15127 0.0
C805 C 0.42127 0.40169 0.13297 0.0
C806 C 0.39289 0.39887 0.12554 0.0
C807 C 0.37071 0.38516 0.13585 0.0
H808 H 0.88599 0.15936 0.42692 0.0
H809 H 0.87281 0.09756 0.38185 0.0
H810 H 0.8623 0.19716 0.4085 0.0
H811 H 0.84842 0.13544 0.36354 0.0
H812 H 0.85202 0.22071 0.3283 0.0
H813 H 0.8649 0.17867 0.34729 0.0
H814 H 0.81798 0.21556 0.39422 0.0
H815 H 0.80553 0.25824 0.37525 0.0
C816 C 0.8776 0.15363 0.4132 0.0
C817 C 0.88172 0.12539 0.40582 0.0
C818 C 0.86376 0.17535 0.40266 0.0
C819 C 0.85362 0.16947 0.38444 0.0
C820 C 0.85639 0.14086 0.37741 0.0
C821 C 0.87025 0.11907 0.38797 0.0
C822 C 0.84413 0.21984 0.34261 0.0
C823 C 0.82799 0.24315 0.35027 0.0
C824 C 0.85134 0.19549 0.35348 0.0
C825 C 0.84263 0.19371 0.37235 0.0
C826 C 0.8254 0.2164 0.37981 0.0
C827 C 0.8181 0.24081 0.36889 0.0
H828 H 0.09672 0.63399 0.67665 0.0
H829 H 0.15854 0.61966 0.63173 0.0
H830 H 0.05863 0.61092 0.65817 0.0
H831 H 0.12037 0.59582 0.61338 0.0
H832 H 0.03566 0.6006 0.57781 0.0
H833 H 0.07775 0.61273 0.59693 0.0
H834 H 0.03921 0.56727 0.64392 0.0
H835 H 0.99643 0.55564 0.62481 0.0
C836 C 0.10239 0.62546 0.66296 0.0
C837 C 0.13073 0.62911 0.65563 0.0
C838 C 0.08048 0.61197 0.65238 0.0
C839 C 0.08628 0.60168 0.63419 0.0
C840 C 0.11499 0.60393 0.62722 0.0
C841 C 0.13696 0.61747 0.63781 0.0
C842 C 0.03616 0.59287 0.59216 0.0
C843 C 0.01236 0.57741 0.59979 0.0
C844 C 0.06054 0.59964 0.60312 0.0
C845 C 0.06191 0.59113 0.62203 0.0
C846 C 0.03871 0.57454 0.62947 0.0
C847 C 0.01423 0.56772 0.61847 0.0
H848 H 0.61222 0.10905 0.62756 0.0
H849 H 0.64525 0.14515 0.57588 0.0
H850 H 0.63451 0.14876 0.64499 0.0
H851 H 0.66971 0.18383 0.59331 0.0
H852 H 0.67544 0.26956 0.62609 0.0
H853 H 0.66091 0.2268 0.60817 0.0
H854 H 0.67318 0.17283 0.65743 0.0
H855 H 0.68537 0.21626 0.67553 0.0
C856 C 0.62506 0.12508 0.61999 0.0
C857 C 0.62684 0.1241 0.60036 0.0
C858 C 0.63808 0.14792 0.63 0.0
C859 C 0.65394 0.17004 0.62069 0.0
C860 C 0.65705 0.16793 0.60106 0.0
C861 C 0.6433 0.14552 0.59102 0.0
C862 C 0.67532 0.24845 0.63297 0.0
C863 C 0.6813 0.24623 0.65221 0.0
C864 C 0.66712 0.22372 0.62267 0.0
C865 C 0.66546 0.19597 0.63125 0.0
C866 C 0.6732 0.19373 0.65033 0.0
C867 C 0.68055 0.2186 0.66073 0.0
H868 H 0.09551 0.36831 0.8271 0.0
H869 H 0.15718 0.38598 0.87161 0.0
H870 H 0.05697 0.39132 0.84525 0.0
H871 H 0.11853 0.40966 0.88964 0.0
H872 H 0.03388 0.40497 0.92536 0.0
H873 H 0.07601 0.3923 0.90638 0.0
H874 H 0.03716 0.43571 0.85872 0.0
H875 H 0.99442 0.44797 0.87769 0.0
C876 C 0.10103 0.37753 0.84063 0.0
C877 C 0.1295 0.3749 0.84795 0.0
C878 C 0.07887 0.39097 0.85101 0.0
C879 C 0.08452 0.40217 0.869 0.0
C880 C 0.11329 0.40084 0.87595 0.0
C881 C 0.13552 0.3874 0.86555 0.0
C882 C 0.03431 0.41211 0.91088 0.0
C883 C 0.01048 0.42724 0.90304 0.0
C884 C 0.05871 0.40503 0.90001 0.0
C885 C 0.06001 0.41285 0.88097 0.0
C886 C 0.03671 0.42899 0.87328 0.0
C887 C 0.01225 0.43616 0.88419 0.0
H888 H 0.86661 0.86118 0.07489 0.0
H889 H 0.89578 0.8994 0.12689 0.0
H890 H 0.84141 0.82283 0.09219 0.0
H891 H 0.87284 0.86004 0.14426 0.0
H892 H 0.82128 0.79313 0.17457 0.0
H893 H 0.83384 0.83606 0.15608 0.0
H894 H 0.84909 0.78051 0.1079 0.0
H895 H 0.83408 0.73825 0.12614 0.0
C896 C 0.86759 0.86132 0.09006 0.0
C897 C 0.88314 0.88326 0.09954 0.0
C898 C 0.8534 0.83911 0.10005 0.0
C899 C 0.85518 0.83773 0.11978 0.0
C900 C 0.87023 0.86031 0.12918 0.0
C901 C 0.88366 0.88295 0.11921 0.0
C902 C 0.82677 0.79035 0.1599 0.0
C903 C 0.82674 0.76243 0.15177 0.0
C904 C 0.83437 0.81493 0.14929 0.0
C905 C 0.84315 0.8121 0.13041 0.0
C906 C 0.84211 0.78404 0.12221 0.0
C907 C 0.83362 0.7596 0.13269 0.0
H908 H 0.46582 0.57272 0.42455 0.0
H909 H 0.51866 0.58331 0.37498 0.0
H910 H 0.42227 0.58551 0.40675 0.0
H911 H 0.47585 0.59859 0.35738 0.0
H912 H 0.39408 0.61605 0.32557 0.0
H913 H 0.43284 0.59092 0.34253 0.0
H914 H 0.39809 0.62424 0.39482 0.0
H915 H 0.35826 0.64706 0.37783 0.0
C916 C 0.46802 0.57783 0.40979 0.0
C917 C 0.49554 0.57706 0.40113 0.0
C918 C 0.44309 0.58554 0.39955 0.0
C919 C 0.44519 0.59371 0.38053 0.0
C920 C 0.47285 0.59205 0.37182 0.0
C921 C 0.49761 0.58344 0.38194 0.0
C922 C 0.39455 0.61743 0.34073 0.0
C923 C 0.37317 0.63347 0.35039 0.0
C924 C 0.41701 0.6033 0.35052 0.0
C925 C 0.41923 0.60566 0.37019 0.0
C926 C 0.39718 0.62119 0.37979 0.0
C927 C 0.37427 0.63454 0.37003 0.0
H928 H 0.36876 0.0983 0.12056 0.0
H929 H 0.38509 0.16031 0.07604 0.0
H930 H 0.34427 0.13644 0.13859 0.0
H931 H 0.36139 0.19837 0.0942 0.0
H932 H 0.3054 0.26078 0.12683 0.0
H933 H 0.31739 0.218 0.1078 0.0
H934 H 0.36067 0.17882 0.15541 0.0
H935 H 0.34816 0.22089 0.17443 0.0
C936 C 0.36689 0.11992 0.1145 0.0
C937 C 0.37927 0.1262 0.0969 0.0
C938 C 0.35297 0.14187 0.1249 0.0
C939 C 0.3511 0.17063 0.11796 0.0
C940 C 0.36213 0.17648 0.09995 0.0
C941 C 0.37598 0.15459 0.08957 0.0
C942 C 0.31706 0.24283 0.13331 0.0
C943 C 0.32606 0.24452 0.15214 0.0
C944 C 0.32409 0.21836 0.12236 0.0
C945 C 0.3402 0.19498 0.13 0.0
C946 C 0.34797 0.19616 0.14906 0.0
C947 C 0.34099 0.22054 0.15996 0.0
H948 H 0.49512 0.55685 0.8783 0.0
H949 H 0.53457 0.60025 0.92581 0.0
H950 H 0.53781 0.56908 0.85927 0.0
H951 H 0.5766 0.61296 0.90678 0.0
H952 H 0.65741 0.62039 0.87187 0.0
H953 H 0.61914 0.59636 0.89004 0.0
H954 H 0.55725 0.61326 0.8456 0.0
H955 H 0.59543 0.63654 0.8273 0.0
C956 C 0.51295 0.56871 0.88476 0.0
C957 C 0.51117 0.57778 0.90357 0.0
C958 C 0.53738 0.57588 0.87381 0.0
C959 C 0.56063 0.59221 0.88143 0.0
C960 C 0.55935 0.60011 0.90045 0.0
C961 C 0.53501 0.59299 0.91136 0.0
C962 C 0.63576 0.61859 0.86583 0.0
C963 C 0.62954 0.63075 0.84816 0.0
C964 C 0.61374 0.60494 0.87632 0.0
C965 C 0.58498 0.60308 0.86938 0.0
C966 C 0.57915 0.61398 0.85134 0.0
C967 C 0.60111 0.6276 0.84087 0.0
H968 H 0.15323 0.78168 0.67654 0.0
H969 H 0.1994 0.7448 0.62924 0.0
H970 H 0.1405 0.82414 0.65789 0.0
H971 H 0.18712 0.7879 0.61063 0.0
H972 H 0.1206 0.84589 0.57827 0.0
H973 H 0.14326 0.80724 0.59647 0.0
H974 H 0.15749 0.8676 0.64214 0.0
H975 H 0.1341 0.90636 0.62404 0.0
C976 C 0.16105 0.78275 0.66222 0.0
C977 C 0.1771 0.75953 0.65437 0.0
C978 C 0.15393 0.80734 0.65155 0.0
C979 C 0.16266 0.80948 0.6327 0.0
C980 C 0.17968 0.7868 0.62503 0.0
C981 C 0.18685 0.76213 0.63574 0.0
C982 C 0.12883 0.85114 0.59211 0.0
C983 C 0.12513 0.87928 0.59973 0.0
C984 C 0.14208 0.82891 0.60252 0.0
C985 C 0.15205 0.83417 0.62085 0.0
C986 C 0.14963 0.86265 0.62817 0.0
C987 C 0.13636 0.88495 0.61773 0.0
H988 H 0.01942 0.42301 0.37636 0.0
H989 H 0.96552 0.43284 0.42554 0.0
H990 H 0.97696 0.40809 0.35828 0.0
H991 H 0.92236 0.42026 0.40727 0.0
H992 H 0.85931 0.35878 0.37725 0.0
H993 H 0.89871 0.38136 0.3948 0.0
H994 H 0.93411 0.41655 0.34321 0.0
H995 H 0.89575 0.39179 0.32566 0.0
C996 C 0.99823 0.42278 0.38315 0.0
C997 C 0.99577 0.42885 0.40236 0.0
C998 C 0.97368 0.41437 0.37275 0.0
C999 C 0.94585 0.41257 0.38121 0.0
C1000 C 0.94334 0.42039 0.40027 0.0
C1001 C 0.96805 0.42796 0.41076 0.0
C1002 C 0.87535 0.37166 0.36972 0.0
C1003 C 0.87457 0.37337 0.35009 0.0
C1004 C 0.89801 0.38486 0.37981 0.0
C1005 C 0.92012 0.40082 0.37056 0.0
C1006 C 0.9182 0.40382 0.35092 0.0
C1007 C 0.89599 0.3899 0.3408 0.0
H1008 H 0.33015 0.74037 0.37851 0.0
H1009 H 0.32223 0.79306 0.32866 0.0
H1010 H 0.34505 0.78312 0.39629 0.0
H1011 H 0.33474 0.83656 0.3466 0.0
H1012 H 0.39606 0.89981 0.37656 0.0
H1013 H 0.37335 0.86029 0.35921 0.0
H1014 H 0.33698 0.82636 0.41087 0.0
H1015 H 0.36192 0.8648 0.42825 0.0
C1016 C 0.33079 0.76137 0.3715 0.0
C1017 C 0.32527 0.7634 0.3522 0.0
C1018 C 0.33919 0.7861 0.38172 0.0
C1019 C 0.34151 0.8137 0.373 0.0
C1020 C 0.33422 0.81578 0.35383 0.0
C1021 C 0.32669 0.79088 0.34351 0.0
C1022 C 0.38288 0.88407 0.38414 0.0
C1023 C 0.38091 0.88528 0.40376 0.0
C1024 C 0.3696 0.86134 0.37417 0.0
C1025 C 0.35329 0.83958 0.3835 0.0
C1026 C 0.34999 0.84196 0.40311 0.0
C1027 C 0.36401 0.86424 0.41312 0.0
H1028 H 0.9717 0.59939 0.07736 0.0
H1029 H 0.01221 0.55891 0.12556 0.0
H1030 H 0.92987 0.61285 0.09638 0.0
H1031 H 0.96973 0.57191 0.1446 0.0
H1032 H 0.91239 0.64107 0.17532 0.0
H1033 H 0.95036 0.61694 0.1573 0.0
H1034 H 0.88771 0.59686 0.11386 0.0
H1035 H 0.84962 0.62169 0.13175 0.0
C1036 C 0.97154 0.59293 0.09197 0.0
C1037 C 0.9956 0.57833 0.09995 0.0
C1038 C 0.94732 0.60047 0.10287 0.0
C1039 C 0.94641 0.59364 0.12208 0.0
C1040 C 0.96988 0.57788 0.1299 0.0
C1041 C 0.99417 0.57026 0.11896 0.0
C1042 C 0.9065 0.63125 0.16203 0.0
C1043 C 0.87789 0.63372 0.15493 0.0
C1044 C 0.92834 0.61716 0.15173 0.0
C1045 C 0.92222 0.60509 0.13404 0.0
C1046 C 0.89331 0.60632 0.12731 0.0
C1047 C 0.87141 0.62043 0.13763 0.0
H1048 H 0.18532 0.21607 0.82775 0.0
H1049 H 0.17334 0.27026 0.87659 0.0
H1050 H 0.17309 0.17288 0.84607 0.0
H1051 H 0.15868 0.22775 0.89469 0.0
H1052 H 0.14247 0.14668 0.9275 0.0
H1053 H 0.16708 0.18532 0.91011 0.0
H1054 H 0.13459 0.14845 0.8582 0.0
H1055 H 0.11226 0.10881 0.87564 0.0
C1056 C 0.18003 0.21866 0.84246 0.0
C1057 C 0.18024 0.24646 0.85075 0.0
C1058 C 0.17265 0.19392 0.85299 0.0
C1059 C 0.16428 0.19647 0.87196 0.0
C1060 C 0.16539 0.22442 0.8803 0.0
C1061 C 0.17365 0.24901 0.86989 0.0
C1062 C 0.14116 0.14666 0.91233 0.0
C1063 C 0.12548 0.12474 0.90292 0.0
C1064 C 0.15499 0.16904 0.9023 0.0
C1065 C 0.15269 0.17063 0.8826 0.0
C1066 C 0.13757 0.14805 0.87325 0.0
C1067 C 0.1245 0.12523 0.88326 0.0
H1068 H 0.53546 0.40638 0.57749 0.0
H1069 H 0.4972 0.45071 0.62505 0.0
H1070 H 0.57759 0.39329 0.59638 0.0
H1071 H 0.53993 0.438 0.64393 0.0
H1072 H 0.59708 0.36951 0.67564 0.0
H1073 H 0.55888 0.39313 0.65749 0.0
H1074 H 0.62056 0.41017 0.61297 0.0
H1075 H 0.65887 0.38593 0.631 0.0
C1076 C 0.53618 0.41374 0.59192 0.0
C1077 C 0.51267 0.42936 0.59977 0.0
C1078 C 0.56056 0.40641 0.60273 0.0
C1079 C 0.56216 0.41444 0.62173 0.0
C1080 C 0.53924 0.43112 0.62941 0.0
C1081 C 0.5148 0.43856 0.61854 0.0
C1082 C 0.60271 0.37858 0.66208 0.0
C1083 C 0.63109 0.37543 0.65473 0.0
C1084 C 0.58075 0.39237 0.65171 0.0
C1085 C 0.58653 0.40339 0.63369 0.0
C1086 C 0.61523 0.40151 0.62669 0.0
C1087 C 0.63726 0.38775 0.63709 0.0
H1088 H 0.31363 0.29501 0.22047 0.0
H1089 H 0.22351 0.28988 0.20292 0.0
H1090 H 0.30223 0.26645 0.2483 0.0
H1091 H 0.21156 0.26267 0.23127 0.0
H1092 H 0.20397 0.19036 0.27465 0.0
H1093 H 0.21578 0.21777 0.24637 0.0
H1094 H 0.27967 0.26781 0.27751 0.0
H1095 H 0.26882 0.23921 0.30545 0.0
C1096 C 0.29129 0.28799 0.22267 0.0
C1097 C 0.26948 0.29464 0.2095 0.0
C1098 C 0.28465 0.27177 0.23874 0.0
C1099 C 0.25589 0.2622 0.24222 0.0
C1100 C 0.23406 0.2691 0.229 0.0
C1101 C 0.24083 0.28491 0.21277 0.0
C1102 C 0.22057 0.2072 0.2754 0.0
C1103 C 0.23556 0.21256 0.29223 0.0
C1104 C 0.22724 0.22312 0.2592 0.0
C1105 C 0.24874 0.24516 0.25951 0.0
C1106 C 0.26343 0.25067 0.27651 0.0
C1107 C 0.25708 0.23441 0.29262 0.0
H1108 H 0.0472 0.94242 0.53282 0.0
H1109 H 0.04205 0.03253 0.55038 0.0
H1110 H 0.01855 0.95378 0.50503 0.0
H1111 H 0.01475 0.04444 0.52206 0.0
H1112 H 0.94217 0.05198 0.47887 0.0
H1113 H 0.96981 0.04021 0.50706 0.0
H1114 H 0.01956 0.97626 0.47581 0.0
H1115 H 0.99071 0.98706 0.44795 0.0
C1116 C 0.04016 0.96475 0.53063 0.0
C1117 C 0.04682 0.98656 0.5438 0.0
C1118 C 0.02389 0.97137 0.51458 0.0
C1119 C 0.01427 1.00012 0.51111 0.0
C1120 C 0.02121 0.02196 0.52432 0.0
C1121 C 0.03707 0.0152 0.54053 0.0
C1122 C 0.959 0.03537 0.47808 0.0
C1123 C 0.96419 0.02036 0.46124 0.0
C1124 C 0.97505 0.02873 0.49423 0.0
C1125 C 0.99708 0.00723 0.49386 0.0
C1126 C 1.00243 0.9925 0.47685 0.0
C1127 C 0.98603 0.99882 0.46079 0.0
H1128 H 0.20545 0.68906 0.72854 0.0
H1129 H 0.2694 0.73806 0.69708 0.0
H1130 H 0.21751 0.71689 0.75661 0.0
H1131 H 0.28048 0.76708 0.7248 0.0
H1132 H 0.31494 0.79536 0.78155 0.0
H1133 H 0.30346 0.76636 0.75391 0.0
H1134 H 0.21303 0.762 0.77141 0.0
H1135 H 0.22507 0.78965 0.79955 0.0
C1136 C 0.22191 0.70602 0.72761 0.0
C1137 C 0.23657 0.71131 0.71065 0.0
C1138 C 0.22872 0.72218 0.74368 0.0
C1139 C 0.25002 0.7444 0.74311 0.0
C1140 C 0.2644 0.74982 0.72599 0.0
C1141 C 0.25792 0.73332 0.71001 0.0
C1142 C 0.29264 0.78812 0.77949 0.0
C1143 C 0.27092 0.79472 0.79273 0.0
C1144 C 0.28595 0.77164 0.76353 0.0
C1145 C 0.25723 0.76176 0.76025 0.0
C1146 C 0.23549 0.76865 0.77353 0.0
C1147 C 0.24232 0.78471 0.78964 0.0
H1148 H 0.44045 0.05124 0.02475 0.0
H1149 H 0.48931 0.98746 0.05644 0.0
H1150 H 0.46824 0.03893 0.99674 0.0
H1151 H 0.51833 0.97612 0.02873 0.0
H1152 H 0.54652 0.94133 0.97196 0.0
H1153 H 0.51769 0.95298 0.99966 0.0
H1154 H 0.5133 0.0433 0.98195 0.0
H1155 H 0.54076 0.0311 0.95377 0.0
C1156 C 0.45738 0.03477 0.02575 0.0
C1157 C 0.46264 0.02024 0.04276 0.0
C1158 C 0.47353 0.02782 0.00971 0.0
C1159 C 0.49571 0.00649 0.01034 0.0
C1160 C 0.5011 0.99222 0.0275 0.0
C1161 C 0.4846 0.99885 0.04347 0.0
C1162 C 0.5393 0.96364 0.97399 0.0
C1163 C 0.54583 0.98528 0.96068 0.0
C1164 C 0.52292 0.97044 0.98998 0.0
C1165 C 0.51307 0.99917 0.9932 0.0
C1166 C 0.51991 0.02083 0.97986 0.0
C1167 C 0.53587 0.0139 0.96373 0.0
H1168 H 0.23485 0.74131 0.30755 0.0
H1169 H 0.30039 0.69254 0.27734 0.0
H1170 H 0.22416 0.76951 0.27938 0.0
H1171 H 0.28875 0.71944 0.24888 0.0
H1172 H 0.28214 0.79054 0.20508 0.0
H1173 H 0.29334 0.76404 0.23376 0.0
H1174 H 0.20229 0.76834 0.24989 0.0
H1175 H 0.19161 0.7963 0.22163 0.0
C1176 C 0.24677 0.73644 0.29481 0.0
C1177 C 0.26848 0.71477 0.29465 0.0
C1178 C 0.24051 0.75247 0.27857 0.0
C1179 C 0.25551 0.74688 0.26169 0.0
C1180 C 0.2771 0.72493 0.26161 0.0
C1181 C 0.28367 0.70928 0.27792 0.0
C1182 C 0.26455 0.78585 0.21479 0.0
C1183 C 0.23601 0.79552 0.21111 0.0
C1184 C 0.2709 0.77042 0.23122 0.0
C1185 C 0.24875 0.76379 0.24427 0.0
C1186 C 0.2201 0.77341 0.24044 0.0
C1187 C 0.21387 0.78928 0.22414 0.0
H1188 H 0.44153 0.95651 0.47759 0.0
H1189 H 0.49116 0.02121 0.44719 0.0
H1190 H 0.46884 0.96784 0.506 0.0
H1191 H 0.51968 0.03156 0.47525 0.0
H1192 H 0.54709 0.06452 0.53257 0.0
H1193 H 0.5186 0.05379 0.50456 0.0
H1194 H 0.51355 0.96299 0.52116 0.0
H1195 H 0.54065 0.97426 0.54963 0.0
C1196 C 0.45853 0.97297 0.47696 0.0
C1197 C 0.46413 0.98806 0.46021 0.0
C1198 C 0.47439 0.97936 0.49323 0.0
C1199 C 0.49663 1.00067 0.49306 0.0
C1200 C 0.50239 0.01547 0.47613 0.0
C1201 C 0.48617 0.0094 0.45996 0.0
C1202 C 0.53981 0.0423 0.53022 0.0
C1203 C 0.54605 0.02025 0.54331 0.0
C1204 C 0.52362 0.03604 0.51406 0.0
C1205 C 0.51369 0.00744 0.51042 0.0
C1206 C 0.52023 0.98538 0.52355 0.0
C1207 C 0.53599 0.99177 0.53985 0.0
H1208 H 0.20477 0.31679 0.77541 0.0
H1209 H 0.27063 0.26925 0.80614 0.0
H1210 H 0.21692 0.28957 0.74715 0.0
H1211 H 0.28185 0.24075 0.77818 0.0
H1212 H 0.22523 0.21763 0.70372 0.0
H1213 H 0.21321 0.24474 0.73209 0.0
H1214 H 0.30404 0.24198 0.74885 0.0
H1215 H 0.31552 0.21351 0.721 0.0
C1216 C 0.22168 0.30027 0.77615 0.0
C1217 C 0.23682 0.29522 0.79297 0.0
C1218 C 0.22854 0.28444 0.75995 0.0
C1219 C 0.2504 0.26276 0.76023 0.0
C1220 C 0.26531 0.25759 0.77721 0.0
C1221 C 0.25876 0.27379 0.79333 0.0
C1222 C 0.24258 0.22282 0.71351 0.0
C1223 C 0.2713 0.21339 0.71015 0.0
C1224 C 0.23576 0.23858 0.72976 0.0
C1225 C 0.25761 0.24573 0.74292 0.0
C1226 C 0.28644 0.23647 0.73935 0.0
C1227 C 0.29313 0.22031 0.72326 0.0
H1228 H 0.06638 0.0528 0.97669 0.0
H1229 H 0.01797 0.98682 0.94662 0.0
H1230 H 0.03934 0.0413 0.00515 0.0
H1231 H 0.98969 0.97626 0.97475 0.0
H1232 H 0.9629 0.94348 0.03223 0.0
H1233 H 0.99115 0.95442 0.00417 0.0
H1234 H 0.99468 0.04545 0.02041 0.0
H1235 H 0.96781 0.03398 0.04895 0.0
C1236 C 0.0497 0.03601 0.97614 0.0
C1237 C 0.04437 0.02063 0.95945 0.0
C1238 C 0.03399 0.02952 0.99245 0.0
C1239 C 0.01216 0.00779 0.99241 0.0
C1240 C 0.00667 0.99269 0.97555 0.0
C1241 C 0.02274 0.99887 0.95933 0.0
C1242 C 0.96981 0.9658 0.0298 0.0
C1243 C 0.96319 0.98786 0.04281 0.0
C1244 C 0.98586 0.97218 0.0136 0.0
C1245 C 0.99527 1.00091 0.00983 0.0
C1246 C 0.9884 0.02297 0.02289 0.0
C1247 C 0.97277 0.01647 0.03924 0.0
H1248 H 0.73884 0.76777 0.69715 0.0
H1249 H 0.803 0.81611 0.72886 0.0
H1250 H 0.72747 0.73862 0.72478 0.0
H1251 H 0.79066 0.78816 0.75682 0.0
H1252 H 0.7825 0.71537 0.7996 0.0
H1253 H 0.7948 0.74298 0.7715 0.0
H1254 H 0.70441 0.73921 0.75387 0.0
H1255 H 0.69265 0.71024 0.78148 0.0
C1256 C 0.75031 0.77234 0.71011 0.0
C1257 C 0.7718 0.7942 0.71085 0.0
C1258 C 0.74365 0.75576 0.72604 0.0
C1259 C 0.75802 0.76096 0.74319 0.0
C1260 C 0.77947 0.78303 0.74386 0.0
C1261 C 0.78644 0.79926 0.72784 0.0
C1262 C 0.76531 0.72043 0.78967 0.0
C1263 C 0.73663 0.7106 0.79273 0.0
C1264 C 0.77229 0.73647 0.77359 0.0
C1265 C 0.75064 0.74353 0.76029 0.0
C1266 C 0.72185 0.73381 0.76351 0.0
C1267 C 0.715 0.71734 0.77945 0.0
H1268 H 0.70503 0.19063 0.22681 0.0
H1269 H 0.77057 0.23865 0.19607 0.0
H1270 H 0.71738 0.21751 0.25514 0.0
H1271 H 0.782 0.26684 0.22416 0.0
H1272 H 0.81528 0.29365 0.28184 0.0
H1273 H 0.80416 0.26567 0.25364 0.0
H1274 H 0.71317 0.26236 0.26998 0.0
H1275 H 0.72477 0.28888 0.29858 0.0
C1276 C 0.72191 0.2072 0.22609 0.0
C1277 C 0.73686 0.21251 0.20925 0.0
C1278 C 0.72889 0.22283 0.24232 0.0
C1279 C 0.75066 0.2446 0.24206 0.0
C1280 C 0.76549 0.24996 0.22509 0.0
C1281 C 0.75882 0.23394 0.20891 0.0
C1282 C 0.79294 0.28684 0.27938 0.0
C1283 C 0.77092 0.29334 0.29244 0.0
C1284 C 0.78647 0.27095 0.26312 0.0
C1285 C 0.7577 0.26159 0.25939 0.0
C1286 C 0.73568 0.26852 0.27246 0.0
C1287 C 0.74226 0.28396 0.28884 0.0
H1288 H 0.81448 0.21085 0.78176 0.0
H1289 H 0.72395 0.21636 0.79833 0.0
H1290 H 0.80388 0.2395 0.75377 0.0
H1291 H 0.71283 0.24359 0.76991 0.0
H1292 H 0.70592 0.31636 0.72727 0.0
H1293 H 0.71759 0.28864 0.75538 0.0
H1294 H 0.78203 0.23935 0.72423 0.0
H1295 H 0.77129 0.26837 0.69639 0.0
C1296 C 0.79223 0.21796 0.7793 0.0
C1297 C 0.77007 0.21146 0.79227 0.0
C1298 C 0.78605 0.23424 0.76316 0.0
C1299 C 0.75744 0.24403 0.75943 0.0
C1300 C 0.73525 0.23709 0.77239 0.0
C1301 C 0.74155 0.22125 0.78867 0.0
C1302 C 0.72263 0.29963 0.72647 0.0
C1303 C 0.73773 0.29458 0.70965 0.0
C1304 C 0.72921 0.28351 0.74258 0.0
C1305 C 0.75073 0.2615 0.74222 0.0
C1306 C 0.7657 0.25639 0.72526 0.0
C1307 C 0.75943 0.2729 0.70921 0.0
H1308 H 0.70581 0.81719 0.27605 0.0
H1309 H 0.77125 0.76878 0.30659 0.0
H1310 H 0.71776 0.79019 0.24767 0.0
H1311 H 0.78226 0.7405 0.2785 0.0
H1312 H 0.81582 0.71365 0.22126 0.0
H1313 H 0.80452 0.74198 0.2492 0.0
H1314 H 0.71372 0.7455 0.23243 0.0
H1315 H 0.72556 0.71853 0.20398 0.0
C1316 C 0.72258 0.80052 0.27671 0.0
C1317 C 0.73767 0.79517 0.29351 0.0
C1318 C 0.72933 0.78482 0.26045 0.0
C1319 C 0.75101 0.76297 0.26064 0.0
C1320 C 0.76586 0.75749 0.2776 0.0
C1321 C 0.75943 0.77356 0.29379 0.0
C1322 C 0.79347 0.72059 0.22353 0.0
C1323 C 0.77159 0.71392 0.2104 0.0
C1324 C 0.78689 0.73667 0.23967 0.0
C1325 C 0.75812 0.74608 0.24327 0.0
C1326 C 0.73622 0.7392 0.23008 0.0
C1327 C 0.74294 0.72353 0.21378 0.0
H1328 H 0.51708 0.52078 0.05673 0.0
H1329 H 0.56655 0.45624 0.02609 0.0
H1330 H 0.48835 0.53116 0.02878 0.0
H1331 H 0.539 0.46762 0.99778 0.0
H1332 H 0.46678 0.47468 0.95425 0.0
H1333 H 0.49419 0.46302 0.98258 0.0
H1334 H 0.48949 0.55364 0.9996 0.0
H1335 H 0.46076 0.56473 0.97181 0.0
C1336 C 0.52199 0.50901 0.04393 0.0
C1337 C 0.54407 0.48773 0.04358 0.0
C1338 C 0.50565 0.5151 0.02782 0.0
C1339 C 0.51131 0.50039 0.01084 0.0
C1340 C 0.53355 0.47909 0.01058 0.0
C1341 C 0.54955 0.47268 0.0268 0.0
C1342 C 0.47159 0.49205 0.9641 0.0
C1343 C 0.46154 0.52059 0.96084 0.0
C1344 C 0.48752 0.48544 0.98032 0.0
C1345 C 0.4942 0.50734 0.99353 0.0
C1346 C 0.48434 0.536 0.99005 0.0
C1347 C 0.46801 0.54246 0.974 0.0
H1348 H 0.01753 0.51931 0.44644 0.0
H1349 H 0.06555 0.45433 0.47765 0.0
H1350 H 0.98877 0.53064 0.47426 0.0
H1351 H 0.03805 0.46661 0.50577 0.0
H1352 H 0.966 0.47485 0.54898 0.0
H1353 H 0.99303 0.46266 0.52063 0.0
H1354 H 0.98988 0.5533 0.5035 0.0
H1355 H 0.96147 0.56497 0.53136 0.0
C1356 C 0.02211 0.50765 0.45933 0.0
C1357 C 0.04375 0.48593 0.45987 0.0
C1358 C 0.00576 0.51427 0.47536 0.0
C1359 C 0.011 0.49965 0.49243 0.0
C1360 C 0.03288 0.478 0.49289 0.0
C1361 C 0.04886 0.47106 0.47678 0.0
C1362 C 0.97107 0.49212 0.53911 0.0
C1363 C 0.96159 0.52084 0.54238 0.0
C1364 C 0.98678 0.4852 0.52288 0.0
C1365 C 0.99385 0.50696 0.50965 0.0
C1366 C 0.98445 0.53578 0.51308 0.0
C1367 C 0.96832 0.54258 0.52917 0.0
H1368 H 0.04007 0.47467 0.04923 0.0
H1369 H 0.04526 0.56468 0.03147 0.0
H1370 H 0.01275 0.46259 0.02098 0.0
H1371 H 0.01655 0.55314 0.0037 0.0
H1372 H 0.98861 0.51923 0.9467 0.0
H1373 H 0.01738 0.53047 0.97452 0.0
H1374 H 0.96784 0.46663 0.00603 0.0
H1375 H 0.94032 0.45442 0.97788 0.0
C1376 C 0.03508 0.49195 0.03935 0.0
C1377 C 0.04486 0.5206 0.04255 0.0
C1378 C 0.0192 0.48509 0.02317 0.0
C1379 C 0.01224 0.50684 0.00992 0.0
C1380 C 0.02188 0.53561 0.0133 0.0
C1381 C 0.0382 0.54234 0.02933 0.0
C1382 C 0.98397 0.50759 0.95959 0.0
C1383 C 0.96224 0.48594 0.96012 0.0
C1384 C 1.00032 0.51417 0.97563 0.0
C1385 C 0.99502 0.49958 0.9927 0.0
C1386 C 0.97306 0.478 0.99315 0.0
C1387 C 0.95707 0.4711 0.97702 0.0
H1388 H 0.56598 0.55174 0.47595 0.0
H1389 H 0.51701 0.48641 0.44567 0.0
H1390 H 0.53906 0.54005 0.50442 0.0
H1391 H 0.48882 0.47568 0.47383 0.0
H1392 H 0.46217 0.44262 0.5314 0.0
H1393 H 0.49017 0.45356 0.50321 0.0
H1394 H 0.49451 0.54445 0.51968 0.0
H1395 H 0.46794 0.53298 0.54831 0.0
C1396 C 0.5492 0.53506 0.47536 0.0
C1397 C 0.54367 0.51993 0.45861 0.0
C1398 C 0.53355 0.52846 0.49167 0.0
C1399 C 0.51157 0.50688 0.49157 0.0
C1400 C 0.5059 0.492 0.47466 0.0
C1401 C 0.52192 0.49828 0.45843 0.0
C1402 C 0.4692 0.4649 0.52898 0.0
C1403 C 0.46293 0.48692 0.54209 0.0
C1404 C 0.4851 0.47128 0.51272 0.0
C1405 C 0.49472 0.49997 0.509 0.0
C1406 C 0.48811 0.522 0.52213 0.0
C1407 C 0.47265 0.51549 0.53853 0.0
H1408 H 0.26783 0.1393 0.38482 0.0
H1409 H 0.26807 0.0925 0.33222 0.0
H1410 H 0.30372 0.10496 0.3974 0.0
H1411 H 0.30355 0.058 0.34486 0.0
H1412 H 0.39048 0.02103 0.36721 0.0
H1413 H 0.35474 0.0555 0.35449 0.0
H1414 H 0.30799 0.05413 0.4071 0.0
H1415 H 0.34379 0.02016 0.41984 0.0
C1416 C 0.27539 0.12159 0.37598 0.0
C1417 C 0.26505 0.11864 0.35753 0.0
C1418 C 0.29589 0.10182 0.38321 0.0
C1419 C 0.3066 0.0787 0.37213 0.0
C1420 C 0.29612 0.07575 0.3537 0.0
C1421 C 0.27558 0.09543 0.3465 0.0
C1422 C 0.37254 0.02807 0.37603 0.0
C1423 C 0.37002 0.01783 0.39453 0.0
C1424 C 0.35197 0.04773 0.36872 0.0
C1425 C 0.32848 0.05767 0.37979 0.0
C1426 C 0.32599 0.0473 0.39827 0.0
C1427 C 0.34645 0.02762 0.40553 0.0
H1428 H 0.12127 0.01648 0.63663 0.0
H1429 H 0.16837 0.01458 0.58416 0.0
H1430 H 0.15681 0.05125 0.64918 0.0
H1431 H 0.20403 0.04895 0.59676 0.0
H1432 H 0.24201 0.09127 0.67141 0.0
H1433 H 0.20783 0.05516 0.65903 0.0
H1434 H 0.20718 0.10021 0.60581 0.0
H1435 H 0.24169 0.13611 0.61813 0.0
C1436 C 0.13932 0.0233 0.62782 0.0
C1437 C 0.14194 0.01276 0.60939 0.0
C1438 C 0.15977 0.04315 0.63504 0.0
C1439 C 0.18327 0.05302 0.62396 0.0
C1440 C 0.18601 0.04218 0.6056 0.0
C1441 C 0.16564 0.02229 0.59842 0.0
C1442 C 0.23469 0.09341 0.65703 0.0
C1443 C 0.24463 0.11658 0.64575 0.0
C1444 C 0.21491 0.0728 0.64998 0.0
C1445 C 0.20466 0.07476 0.63143 0.0
C1446 C 0.21486 0.0978 0.62009 0.0
C1447 C 0.23456 0.11849 0.62718 0.0
H1448 H 0.24048 0.86919 0.88521 0.0
H1449 H 0.24137 0.91583 0.83256 0.0
H1450 H 0.20509 0.90416 0.89766 0.0
H1451 H 0.20637 0.95095 0.84506 0.0
H1452 H 0.11924 0.98831 0.86684 0.0
H1453 H 0.15507 0.95374 0.8544 0.0
H1454 H 0.20107 0.95516 0.90728 0.0
H1455 H 0.16513 0.9893 0.91976 0.0
C1456 C 0.2333 0.88701 0.87634 0.0
C1457 C 0.24377 0.8897 0.8579 0.0
C1458 C 0.21308 0.90714 0.88349 0.0
C1459 C 0.20279 0.93037 0.87235 0.0
C1460 C 0.21348 0.93312 0.85395 0.0
C1461 C 0.23374 0.91309 0.84683 0.0
C1462 C 0.13704 0.98129 0.87578 0.0
C1463 C 0.1393 0.99157 0.89429 0.0
C1464 C 0.15767 0.96157 0.86863 0.0
C1465 C 0.18096 0.9516 0.87985 0.0
C1466 C 0.18322 0.96204 0.89833 0.0
C1467 C 0.1627 0.9818 0.90544 0.0
H1468 H 0.2673 0.91533 0.17 0.0
H1469 H 0.26981 0.86731 0.11788 0.0
H1470 H 0.30161 0.9509 0.15727 0.0
H1471 H 0.30455 0.90277 0.1052 0.0
H1472 H 0.34205 0.98857 0.08228 0.0
H1473 H 0.30713 0.95363 0.09504 0.0
H1474 H 0.35281 0.95501 0.14804 0.0
H1475 H 0.38761 0.99038 0.13531 0.0
C1476 C 0.27518 0.91234 0.1558 0.0
C1477 C 0.26576 0.88847 0.14494 0.0
C1478 C 0.29504 0.93266 0.14856 0.0
C1479 C 0.30595 0.9297 0.13023 0.0
C1480 C 0.29636 0.90591 0.11931 0.0
C1481 C 0.27654 0.8855 0.12659 0.0
C1482 C 0.34462 0.98152 0.09669 0.0
C1483 C 0.36763 0.99231 0.10779 0.0
C1484 C 0.32469 0.96129 0.10396 0.0
C1485 C 0.32717 0.95138 0.12255 0.0
C1486 C 0.35006 0.96239 0.13372 0.0
C1487 C 0.37008 0.98258 0.12641 0.0
H1488 H 0.74174 0.86942 0.61846 0.0
H1489 H 0.74064 0.9151 0.67145 0.0
H1490 H 0.70635 0.90428 0.60585 0.0
H1491 H 0.70567 0.95009 0.65881 0.0
H1492 H 0.66657 0.98971 0.58395 0.0
H1493 H 0.70225 0.95545 0.59658 0.0
H1494 H 0.6547 0.95277 0.64888 0.0
H1495 H 0.61912 0.98747 0.63629 0.0
C1496 C 0.7341 0.88699 0.62737 0.0
C1497 C 0.74404 0.88945 0.64595 0.0
C1498 C 0.71389 0.90706 0.62014 0.0
C1499 C 0.70307 0.92999 0.63133 0.0
C1500 C 0.71319 0.93249 0.64988 0.0
C1501 C 0.73344 0.91252 0.65708 0.0
C1502 C 0.66373 0.98191 0.59818 0.0
C1503 C 0.63998 0.99138 0.60913 0.0
C1504 C 0.68412 0.96207 0.60537 0.0
C1505 C 0.68135 0.95124 0.62373 0.0
C1506 C 0.65769 0.9609 0.63475 0.0
C1507 C 0.63721 0.9807 0.62751 0.0
H1508 H 0.84291 0.98946 0.42123 0.0
H1509 H 0.88952 0.98912 0.36857 0.0
H1510 H 0.80728 0.9553 0.40842 0.0
H1511 H 0.85403 0.95449 0.3558 0.0
H1512 H 0.76833 0.91594 0.33336 0.0
H1513 H 0.80307 0.95115 0.34607 0.0
H1514 H 0.80347 0.9045 0.39873 0.0
H1515 H 0.76832 0.86949 0.38608 0.0
C1516 C 0.84557 0.98209 0.4069 0.0
C1517 C 0.86909 0.99206 0.39592 0.0
C1518 C 0.82522 0.96231 0.3996 0.0
C1519 C 0.82778 0.95201 0.38109 0.0
C1520 C 0.85119 0.96219 0.37005 0.0
C1521 C 0.87162 0.98195 0.37738 0.0
C1522 C 0.77572 0.91324 0.34768 0.0
C1523 C 0.76549 0.8899 0.35872 0.0
C1524 C 0.79584 0.93334 0.35493 0.0
C1525 C 0.80619 0.93067 0.37342 0.0
C1526 C 0.79574 0.90744 0.3845 0.0
C1527 C 0.77566 0.88727 0.37723 0.0
H1528 H 0.76575 0.09173 0.1696 0.0
H1529 H 0.76581 0.13772 0.11671 0.0
H1530 H 0.80061 0.05651 0.15707 0.0
H1531 H 0.80106 0.10264 0.10423 0.0
H1532 H 0.88787 0.01977 0.13518 0.0
H1533 H 0.85179 0.05407 0.14756 0.0
H1534 H 0.80537 0.05149 0.09485 0.0
H1535 H 0.8416 0.01757 0.08241 0.0
C1536 C 0.77316 0.09431 0.15527 0.0
C1537 C 0.76297 0.11756 0.14415 0.0
C1538 C 0.79333 0.0742 0.14813 0.0
C1539 C 0.80377 0.07677 0.12966 0.0
C1540 C 0.79327 0.09982 0.11845 0.0
C1541 C 0.77314 0.12001 0.12562 0.0
C1542 C 0.86991 0.02646 0.12627 0.0
C1543 C 0.86764 0.01593 0.10781 0.0
C1544 C 0.84914 0.04603 0.13338 0.0
C1545 C 0.82566 0.0556 0.12219 0.0
C1546 C 0.82335 0.0449 0.10377 0.0
C1547 C 0.84404 0.02528 0.09669 0.0
H1548 H 0.66626 0.01564 0.92062 0.0
H1549 H 0.61993 0.01509 0.86786 0.0
H1550 H 0.70109 0.0508 0.90795 0.0
H1551 H 0.65463 0.05061 0.85523 0.0
H1552 H 0.73956 0.09097 0.83304 0.0
H1553 H 0.70576 0.05489 0.84574 0.0
H1554 H 0.70329 0.10205 0.89818 0.0
H1555 H 0.73749 0.13806 0.88551 0.0
C1556 C 0.66352 0.02297 0.90629 0.0
C1557 C 0.64031 0.0125 0.89524 0.0
C1558 C 0.6834 0.04333 0.89907 0.0
C1559 C 0.68065 0.05366 0.88059 0.0
C1560 C 0.65759 0.04291 0.86946 0.0
C1561 C 0.63762 0.02262 0.87672 0.0
C1562 C 0.7319 0.09364 0.84731 0.0
C1563 C 0.74126 0.11742 0.85827 0.0
C1564 C 0.71233 0.07302 0.85455 0.0
C1565 C 0.7017 0.07556 0.87297 0.0
C1566 C 0.71127 0.09924 0.884 0.0
C1567 C 0.73078 0.11997 0.87672 0.0
H1568 H 0.76651 0.63615 0.88527 0.0
H1569 H 0.76557 0.58926 0.83271 0.0
H1570 H 0.80159 0.601 0.89786 0.0
H1571 H 0.80025 0.55395 0.84536 0.0
H1572 H 0.84096 0.51601 0.92036 0.0
H1573 H 0.80524 0.55014 0.90765 0.0
H1574 H 0.85142 0.55068 0.85482 0.0
H1575 H 0.88703 0.51609 0.8675 0.0
C1576 C 0.77361 0.61823 0.87645 0.0
C1577 C 0.76321 0.61553 0.85799 0.0
C1578 C 0.79365 0.598 0.88369 0.0
C1579 C 0.80383 0.57463 0.87262 0.0
C1580 C 0.79322 0.57187 0.8542 0.0
C1581 C 0.77314 0.59202 0.84699 0.0
C1582 C 0.84348 0.5233 0.906 0.0
C1583 C 0.86688 0.51328 0.89494 0.0
C1584 C 0.82307 0.54306 0.89875 0.0
C1585 C 0.82546 0.55329 0.88023 0.0
C1586 C 0.84872 0.54303 0.86909 0.0
C1587 C 0.86922 0.5233 0.87638 0.0
H1588 H 0.74032 0.63814 0.11858 0.0
H1589 H 0.74026 0.59268 0.17166 0.0
H1590 H 0.70463 0.60339 0.10634 0.0
H1591 H 0.70488 0.55766 0.15933 0.0
H1592 H 0.66484 0.51872 0.08431 0.0
H1593 H 0.70076 0.5525 0.09707 0.0
H1594 H 0.6536 0.55458 0.14952 0.0
H1595 H 0.61769 0.52026 0.13676 0.0
C1596 C 0.73285 0.62061 0.1276 0.0
C1597 C 0.7432 0.61817 0.14608 0.0
C1598 C 0.71245 0.6006 0.12056 0.0
C1599 C 0.70183 0.57768 0.13185 0.0
C1600 C 0.71229 0.57522 0.15032 0.0
C1601 C 0.73276 0.59518 0.15734 0.0
C1602 C 0.66211 0.52629 0.09859 0.0
C1603 C 0.63834 0.51678 0.10951 0.0
C1604 C 0.68265 0.54585 0.10587 0.0
C1605 C 0.68006 0.55642 0.1243 0.0
C1606 C 0.65644 0.54667 0.13533 0.0
C1607 C 0.63577 0.5271 0.128 0.0
H1608 H 0.73745 0.36615 0.38526 0.0
H1609 H 0.74023 0.4132 0.33279 0.0
H1610 H 0.70229 0.40159 0.39749 0.0
H1611 H 0.70548 0.44871 0.34505 0.0
H1612 H 0.66377 0.48766 0.41939 0.0
H1613 H 0.69919 0.45278 0.40715 0.0
H1614 H 0.65398 0.45222 0.35398 0.0
H1615 H 0.61865 0.48751 0.36619 0.0
C1616 C 0.73071 0.38413 0.37638 0.0
C1617 C 0.74167 0.38683 0.35806 0.0
C1618 C 0.71063 0.40452 0.3834 0.0
C1619 C 0.70097 0.42799 0.37223 0.0
C1620 C 0.7121 0.43071 0.35395 0.0
C1621 C 0.73222 0.41043 0.34697 0.0
C1622 C 0.6614 0.48019 0.40506 0.0
C1623 C 0.63838 0.49042 0.39375 0.0
C1624 C 0.68162 0.46001 0.39809 0.0
C1625 C 0.67942 0.44959 0.3796 0.0
C1626 C 0.65651 0.46001 0.36823 0.0
C1627 C 0.63618 0.48015 0.37524 0.0
H1628 H 0.84052 0.49257 0.5829 0.0
H1629 H 0.88802 0.49071 0.63522 0.0
H1630 H 0.8051 0.458 0.59557 0.0
H1631 H 0.85275 0.45575 0.64784 0.0
H1632 H 0.76782 0.41619 0.67047 0.0
H1633 H 0.80192 0.45208 0.65785 0.0
H1634 H 0.80186 0.40672 0.60473 0.0
H1635 H 0.76734 0.37098 0.61731 0.0
C1636 C 0.84338 0.48483 0.59714 0.0
C1637 C 0.86711 0.49444 0.60806 0.0
C1638 C 0.82317 0.46482 0.60435 0.0
C1639 C 0.82608 0.45397 0.62271 0.0
C1640 C 0.84964 0.46388 0.63371 0.0
C1641 C 0.86994 0.48384 0.62646 0.0
C1642 C 0.77498 0.41391 0.65606 0.0
C1643 C 0.76482 0.3907 0.64489 0.0
C1644 C 0.79471 0.4344 0.64887 0.0
C1645 C 0.80475 0.43229 0.63028 0.0
C1646 C 0.79435 0.40922 0.61904 0.0
C1647 C 0.77466 0.38864 0.62627 0.0
H1648 H 0.16598 0.49093 0.08231 0.0
H1649 H 0.11989 0.49028 0.13516 0.0
H1650 H 0.20154 0.45641 0.09483 0.0
H1651 H 0.15534 0.45538 0.14764 0.0
H1652 H 0.24086 0.41602 0.1696 0.0
H1653 H 0.20653 0.45178 0.15707 0.0
H1654 H 0.20479 0.40527 0.10439 0.0
H1655 H 0.2395 0.36963 0.11687 0.0
C1656 C 0.16344 0.48345 0.09663 0.0
C1657 C 0.14007 0.49341 0.10774 0.0
C1658 C 0.18375 0.46347 0.10377 0.0
C1659 C 0.1813 0.45299 0.12223 0.0
C1660 C 0.15809 0.46321 0.13342 0.0
C1661 C 0.13768 0.48314 0.12625 0.0
C1662 C 0.23327 0.41346 0.1553 0.0
C1663 C 0.24297 0.38995 0.14422 0.0
C1664 C 0.2134 0.43388 0.14817 0.0
C1665 C 0.20278 0.4314 0.12974 0.0
C1666 C 0.21275 0.40804 0.11858 0.0
C1667 C 0.23256 0.38753 0.12575 0.0
H1668 H 0.33994 0.49152 0.92042 0.0
H1669 H 0.38724 0.49026 0.86802 0.0
H1670 H 0.30433 0.45731 0.9076 0.0
H1671 H 0.35179 0.45563 0.85525 0.0
H1672 H 0.26664 0.41655 0.83251 0.0
H1673 H 0.30095 0.45216 0.84525 0.0
H1674 H 0.30076 0.40627 0.89818 0.0
H1675 H 0.26605 0.37084 0.88549 0.0
C1676 C 0.34274 0.48397 0.90614 0.0
C1677 C 0.36646 0.49366 0.89524 0.0
C1678 C 0.3224 0.46417 0.89883 0.0
C1679 C 0.32519 0.45358 0.8804 0.0
C1680 C 0.34876 0.46355 0.86943 0.0
C1681 C 0.36918 0.48332 0.87677 0.0
C1682 C 0.27381 0.4141 0.84689 0.0
C1683 C 0.26356 0.39084 0.85798 0.0
C1684 C 0.29366 0.43444 0.85416 0.0
C1685 C 0.30373 0.4321 0.87273 0.0
C1686 C 0.29323 0.40896 0.88389 0.0
C1687 C 0.27342 0.38855 0.87659 0.0
H1688 H 0.34277 0.51785 0.58272 0.0
H1689 H 0.38994 0.51962 0.63517 0.0
H1690 H 0.30697 0.55196 0.59542 0.0
H1691 H 0.35426 0.55413 0.64783 0.0
H1692 H 0.26812 0.59106 0.67047 0.0
H1693 H 0.30322 0.55638 0.65766 0.0
H1694 H 0.30262 0.60303 0.60501 0.0
H1695 H 0.26708 0.63761 0.61779 0.0
C1696 C 0.34552 0.52552 0.59698 0.0
C1697 C 0.36921 0.51595 0.60795 0.0
C1698 C 0.32507 0.54526 0.60422 0.0
C1699 C 0.32772 0.55588 0.62263 0.0
C1700 C 0.35135 0.54616 0.63365 0.0
C1701 C 0.37189 0.52646 0.62638 0.0
C1702 C 0.27536 0.59389 0.65613 0.0
C1703 C 0.26475 0.61712 0.64515 0.0
C1704 C 0.29569 0.5741 0.64883 0.0
C1705 C 0.30588 0.57693 0.63032 0.0
C1706 C 0.29503 0.60001 0.61926 0.0
C1707 C 0.27473 0.61991 0.6266 0.0
H1708 H 0.16492 0.51656 0.42097 0.0
H1709 H 0.11919 0.51673 0.36799 0.0
H1710 H 0.19983 0.55195 0.40869 0.0
H1711 H 0.15391 0.55254 0.35576 0.0
H1712 H 0.2387 0.59347 0.33411 0.0
H1713 H 0.20488 0.55715 0.34646 0.0
H1714 H 0.20234 0.60319 0.39931 0.0
H1715 H 0.23664 0.6394 0.387 0.0
C1716 C 0.16232 0.52412 0.40668 0.0
C1717 C 0.13927 0.51377 0.39545 0.0
C1718 C 0.18224 0.54461 0.39968 0.0
C1719 C 0.17967 0.55522 0.38125 0.0
C1720 C 0.15675 0.54462 0.36995 0.0
C1721 C 0.13676 0.52416 0.37698 0.0
C1722 C 0.23102 0.59584 0.3484 0.0
C1723 C 0.2404 0.61936 0.35958 0.0
C1724 C 0.21144 0.57509 0.35543 0.0
C1725 C 0.20077 0.57725 0.37386 0.0
C1726 C 0.21035 0.60066 0.38512 0.0
C1727 C 0.22992 0.62151 0.37804 0.0
loop_
_geom_bond_atom_site_label_1
_geom_bond_atom_site_label_2
_geom_bond_distance
_geom_bond_site_symmetry_2
_ccdc_geom_bond_type
Co0 O1 2.216 . S
Co0 O2 2.091 . S
Co0 O4 2.004 . S
Co0 O10 2.021 . S
Co0 O12 2.137 . S
Co0 O13 2.244 . S
O1 Co0 2.216 . S
O1 C8 1.247 . S
O2 Co0 2.091 . S
O2 C8 1.261 . S
C3 O12 1.247 . S
C3 O13 1.272 . S
O4 Co0 2.004 . S
O4 C9 1.259 . S
Co5 O6 2.061 . S
Co5 O11 2.052 . S
Co5 O13 2.135 . S
O6 Co5 2.061 . S
O6 C9 1.235 . S
C7 O10 1.238 . S
C7 O11 1.241 . S
C8 O1 1.247 . S
C8 O2 1.261 . S
C9 O4 1.259 . S
C9 O6 1.235 . S
O10 Co0 2.021 . S
O10 C7 1.238 . S
O11 Co5 2.052 . S
O11 C7 1.241 . S
O12 Co0 2.137 . S
O12 C3 1.247 . S
O13 Co0 2.244 . S
O13 C3 1.272 . S
O13 Co5 2.135 . S
Co14 O15 2.216 . S
Co14 O16 2.091 1_565 S
Co14 O18 2.004 . S
Co14 O24 2.021 . S
Co14 O26 2.121 1_565 S
Co14 O27 2.244 . S
O15 Co14 2.216 . S
O15 C22 1.247 1_565 S
O16 Co14 2.091 1_545 S
O16 C22 1.261 . S
C17 O26 1.226 1_565 S
C17 O27 1.272 . S
O18 Co14 2.004 . S
O18 C23 1.259 . S
Co19 O20 2.061 . S
Co19 O25 2.052 . S
Co19 O27 2.135 . S
O20 Co19 2.061 . S
O20 C23 1.235 . S
C21 O24 1.238 . S
C21 O25 1.241 . S
C22 O15 1.247 1_545 S
C22 O16 1.261 . S
C23 O18 1.259 . S
C23 O20 1.235 . S
O24 Co14 2.021 . S
O24 C21 1.238 . S
O25 Co19 2.052 . S
O25 C21 1.241 . S
O26 Co14 2.121 1_545 S
O26 C17 1.226 1_545 S
O27 Co14 2.244 . S
O27 C17 1.272 . S
O27 Co19 2.135 . S
Co28 O29 2.216 . S
Co28 O30 2.091 . S
Co28 O32 2.004 . S
Co28 O38 2.021 . S
Co28 O40 2.137 . S
Co28 O41 2.244 . S
O29 Co28 2.216 . S
O29 C36 1.247 . S
O30 Co28 2.091 . S
O30 C36 1.261 . S
C31 O40 1.247 . S
C31 O41 1.272 . S
O32 Co28 2.004 . S
O32 C37 1.259 . S
Co33 O34 2.061 . S
Co33 O39 2.052 . S
Co33 O41 2.135 . S
O34 Co33 2.061 . S
O34 C37 1.235 . S
C35 O38 1.238 . S
C35 O39 1.241 . S
C36 O29 1.247 . S
C36 O30 1.261 . S
C37 O32 1.259 . S
C37 O34 1.235 . S
O38 Co28 2.021 . S
O38 C35 1.238 . S
O39 Co33 2.052 . S
O39 C35 1.241 . S
O40 Co28 2.137 . S
O40 C31 1.247 . S
O41 Co28 2.244 . S
O41 C31 1.272 . S
O41 Co33 2.135 . S
Co42 O43 2.216 . S
Co42 O44 2.091 1_545 S
Co42 O46 2.004 . S
Co42 O52 2.021 . S
Co42 O54 2.121 1_545 S
Co42 O55 2.244 . S
O43 Co42 2.216 . S
O43 C50 1.247 1_545 S
O44 Co42 2.091 1_565 S
O44 C50 1.261 . S
C45 O54 1.226 1_545 S
C45 O55 1.272 . S
O46 Co42 2.004 . S
O46 C51 1.259 . S
Co47 O48 2.061 . S
Co47 O53 2.052 . S
Co47 O55 2.135 . S
O48 Co47 2.061 . S
O48 C51 1.235 . S
C49 O52 1.238 . S
C49 O53 1.241 . S
C50 O43 1.247 1_565 S
C50 O44 1.261 . S
C51 O46 1.259 . S
C51 O48 1.235 . S
O52 Co42 2.021 . S
O52 C49 1.238 . S
O53 Co47 2.052 . S
O53 C49 1.241 . S
O54 Co42 2.121 1_565 S
O54 C45 1.226 1_565 S
O55 Co42 2.244 . S
O55 C45 1.272 . S
O55 Co47 2.135 . S
Co56 O57 2.216 . S
Co56 O58 2.091 . S
Co56 O60 2.004 . S
Co56 O66 2.021 . S
Co56 O68 2.137 . S
Co56 O69 2.244 . S
O57 Co56 2.216 . S
O57 C64 1.247 . S
O58 Co56 2.091 . S
O58 C64 1.261 . S
C59 O68 1.247 . S
C59 O69 1.272 . S
O60 Co56 2.004 . S
O60 C65 1.259 . S
Co61 O62 2.061 . S
Co61 O67 2.052 . S
Co61 O69 2.135 . S
O62 Co61 2.061 . S
O62 C65 1.235 . S
C63 O66 1.238 . S
C63 O67 1.241 . S
C64 O57 1.247 . S
C64 O58 1.261 . S
C65 O60 1.259 . S
C65 O62 1.235 . S
O66 Co56 2.021 . S
O66 C63 1.238 . S
O67 Co61 2.052 . S
O67 C63 1.241 . S
O68 Co56 2.137 . S
O68 C59 1.247 . S
O69 Co56 2.244 . S
O69 C59 1.272 . S
O69 Co61 2.135 . S
Co70 O71 2.216 . S
Co70 O72 2.091 1_565 S
Co70 O74 2.004 . S
Co70 O80 2.021 . S
Co70 O82 2.121 1_565 S
Co70 O83 2.244 . S
O71 Co70 2.216 . S
O71 C78 1.247 1_565 S
O72 Co70 2.091 1_545 S
O72 C78 1.261 . S
C73 O82 1.226 1_565 S
C73 O83 1.272 . S
O74 Co70 2.004 . S
O74 C79 1.259 . S
Co75 O76 2.061 . S
Co75 O81 2.052 . S
Co75 O83 2.135 . S
O76 Co75 2.061 . S
O76 C79 1.235 . S
C77 O80 1.238 . S
C77 O81 1.241 . S
C78 O71 1.247 1_545 S
C78 O72 1.261 . S
C79 O74 1.259 . S
C79 O76 1.235 . S
O80 Co70 2.021 . S
O80 C77 1.238 . S
O81 Co75 2.052 . S
O81 C77 1.241 . S
O82 Co70 2.121 1_545 S
O82 C73 1.226 1_545 S
O83 Co70 2.244 . S
O83 C73 1.272 . S
O83 Co75 2.135 . S
Co84 O85 2.216 . S
Co84 O86 2.091 . S
Co84 O88 2.004 . S
Co84 O94 2.021 . S
Co84 O96 2.137 . S
Co84 O97 2.244 . S
O85 Co84 2.216 . S
O85 C92 1.247 . S
O86 Co84 2.091 . S
O86 C92 1.261 . S
C87 O96 1.247 . S
C87 O97 1.272 . S
O88 Co84 2.004 . S
O88 C93 1.259 . S
Co89 O90 2.061 . S
Co89 O95 2.052 . S
Co89 O97 2.135 . S
O90 Co89 2.061 . S
O90 C93 1.235 . S
C91 O94 1.238 . S
C91 O95 1.241 . S
C92 O85 1.247 . S
C92 O86 1.261 . S
C93 O88 1.259 . S
C93 O90 1.235 . S
O94 Co84 2.021 . S
O94 C91 1.238 . S
O95 Co89 2.052 . S
O95 C91 1.241 . S
O96 Co84 2.137 . S
O96 C87 1.247 . S
O97 Co84 2.244 . S
O97 C87 1.272 . S
O97 Co89 2.135 . S
Co98 O99 2.216 . S
Co98 O100 2.091 1_545 S
Co98 O102 2.004 . S
Co98 O108 2.021 . S
Co98 O110 2.121 1_545 S
Co98 O111 2.244 . S
O99 Co98 2.216 . S
O99 C106 1.247 1_545 S
O100 Co98 2.091 1_565 S
O100 C106 1.261 . S
C101 O110 1.226 1_545 S
C101 O111 1.272 . S
O102 Co98 2.004 . S
O102 C107 1.259 . S
Co103 O104 2.061 . S
Co103 O109 2.052 . S
Co103 O111 2.135 . S
O104 Co103 2.061 . S
O104 C107 1.235 . S
C105 O108 1.238 . S
C105 O109 1.241 . S
C106 O99 1.247 1_565 S
C106 O100 1.261 . S
C107 O102 1.259 . S
C107 O104 1.235 . S
O108 Co98 2.021 . S
O108 C105 1.238 . S
O109 Co103 2.052 . S
O109 C105 1.241 . S
O110 Co98 2.121 1_565 S
O110 C101 1.226 1_565 S
O111 Co98 2.244 . S
O111 C101 1.272 . S
O111 Co103 2.135 . S
Co112 O113 2.216 . S
Co112 O114 2.091 . S
Co112 O116 2.004 . S
Co112 O122 2.021 . S
Co112 O124 2.137 . S
Co112 O125 2.244 . S
O113 Co112 2.216 . S
O113 C120 1.247 . S
O114 Co112 2.091 . S
O114 C120 1.261 . S
C115 O124 1.247 . S
C115 O125 1.272 . S
O116 Co112 2.004 . S
O116 C121 1.259 . S
Co117 O118 2.061 . S
Co117 O123 2.052 . S
Co117 O125 2.135 . S
O118 Co117 2.061 . S
O118 C121 1.235 . S
C119 O122 1.238 . S
C119 O123 1.241 . S
C120 O113 1.247 . S
C120 O114 1.261 . S
C121 O116 1.259 . S
C121 O118 1.235 . S
O122 Co112 2.021 . S
O122 C119 1.238 . S
O123 Co117 2.052 . S
O123 C119 1.241 . S
O124 Co112 2.137 . S
O124 C115 1.247 . S
O125 Co112 2.244 . S
O125 C115 1.272 . S
O125 Co117 2.135 . S
Co126 O127 2.216 . S
Co126 O128 2.091 1_545 S
Co126 O130 2.004 . S
Co126 O136 2.021 . S
Co126 O138 2.121 1_545 S
Co126 O139 2.244 . S
O127 Co126 2.216 . S
O127 C134 1.247 1_545 S
O128 Co126 2.091 1_565 S
O128 C134 1.261 . S
C129 O138 1.226 1_545 S
C129 O139 1.272 . S
O130 Co126 2.004 . S
O130 C135 1.259 . S
Co131 O132 2.061 . S
Co131 O137 2.052 . S
Co131 O139 2.135 . S
O132 Co131 2.061 . S
O132 C135 1.235 . S
C133 O136 1.238 . S
C133 O137 1.241 . S
C134 O127 1.247 1_565 S
C134 O128 1.261 . S
C135 O130 1.259 . S
C135 O132 1.235 . S
O136 Co126 2.021 . S
O136 C133 1.238 . S
O137 Co131 2.052 . S
O137 C133 1.241 . S
O138 Co126 2.121 1_565 S
O138 C129 1.226 1_565 S
O139 Co126 2.244 . S
O139 C129 1.272 . S
O139 Co131 2.135 . S
Co140 O141 2.216 . S
Co140 O142 2.091 . S
Co140 O144 2.004 . S
Co140 O150 2.021 . S
Co140 O152 2.137 . S
Co140 O153 2.244 . S
O141 Co140 2.216 . S
O141 C148 1.247 . S
O142 Co140 2.091 . S
O142 C148 1.261 . S
C143 O152 1.247 . S
C143 O153 1.272 . S
O144 Co140 2.004 . S
O144 C149 1.259 . S
Co145 O146 2.061 . S
Co145 O151 2.052 . S
Co145 O153 2.135 . S
O146 Co145 2.061 . S
O146 C149 1.235 . S
C147 O150 1.238 . S
C147 O151 1.241 . S
C148 O141 1.247 . S
C148 O142 1.261 . S
C149 O144 1.259 . S
C149 O146 1.235 . S
O150 Co140 2.021 . S
O150 C147 1.238 . S
O151 Co145 2.052 . S
O151 C147 1.241 . S
O152 Co140 2.137 . S
O152 C143 1.247 . S
O153 Co140 2.244 . S
O153 C143 1.272 . S
O153 Co145 2.135 . S
Co154 O155 2.216 . S
Co154 O156 2.091 1_565 S
Co154 O158 2.004 . S
Co154 O164 2.021 . S
Co154 O166 2.121 1_565 S
Co154 O167 2.244 . S
O155 Co154 2.216 . S
O155 C162 1.247 1_565 S
O156 Co154 2.091 1_545 S
O156 C162 1.261 . S
C157 O166 1.226 1_565 S
C157 O167 1.272 . S
O158 Co154 2.004 . S
O158 C163 1.259 . S
Co159 O160 2.061 . S
Co159 O165 2.052 . S
Co159 O167 2.135 . S
O160 Co159 2.061 . S
O160 C163 1.235 . S
C161 O164 1.238 . S
C161 O165 1.241 . S
C162 O155 1.247 1_545 S
C162 O156 1.261 . S
C163 O158 1.259 . S
C163 O160 1.235 . S
O164 Co154 2.021 . S
O164 C161 1.238 . S
O165 Co159 2.052 . S
O165 C161 1.241 . S
O166 Co154 2.121 1_545 S
O166 C157 1.226 1_545 S
O167 Co154 2.244 . S
O167 C157 1.272 . S
O167 Co159 2.135 . S
Co168 O169 2.216 . S
Co168 O170 2.091 . S
Co168 O172 2.004 . S
Co168 O178 2.021 . S
Co168 O180 2.137 . S
Co168 O181 2.244 . S
O169 Co168 2.216 . S
O169 C176 1.247 . S
O170 Co168 2.091 . S
O170 C176 1.261 . S
C171 O180 1.247 . S
C171 O181 1.272 . S
O172 Co168 2.004 . S
O172 C177 1.259 . S
Co173 O174 2.061 . S
Co173 O179 2.052 . S
Co173 O181 2.135 . S
O174 Co173 2.061 . S
O174 C177 1.235 . S
C175 O178 1.238 . S
C175 O179 1.241 . S
C176 O169 1.247 . S
C176 O170 1.261 . S
C177 O172 1.259 . S
C177 O174 1.235 . S
O178 Co168 2.021 . S
O178 C175 1.238 . S
O179 Co173 2.052 . S
O179 C175 1.241 . S
O180 Co168 2.137 . S
O180 C171 1.247 . S
O181 Co168 2.244 . S
O181 C171 1.272 . S
O181 Co173 2.135 . S
Co182 O183 2.216 . S
Co182 O184 2.091 1_545 S
Co182 O186 2.004 . S
Co182 O192 2.021 . S
Co182 O194 2.121 1_545 S
Co182 O195 2.244 . S
O183 Co182 2.216 . S
O183 C190 1.247 1_545 S
O184 Co182 2.091 1_565 S
O184 C190 1.261 . S
C185 O194 1.226 1_545 S
C185 O195 1.272 . S
O186 Co182 2.004 . S
O186 C191 1.259 . S
Co187 O188 2.061 . S
Co187 O193 2.052 . S
Co187 O195 2.135 . S
O188 Co187 2.061 . S
O188 C191 1.235 . S
C189 O192 1.238 . S
C189 O193 1.241 . S
C190 O183 1.247 1_565 S
C190 O184 1.261 . S
C191 O186 1.259 . S
C191 O188 1.235 . S
O192 Co182 2.021 . S
O192 C189 1.238 . S
O193 Co187 2.052 . S
O193 C189 1.241 . S
O194 Co182 2.121 1_565 S
O194 C185 1.226 1_565 S
O195 Co182 2.244 . S
O195 C185 1.272 . S
O195 Co187 2.135 . S
Co196 O197 2.216 . S
Co196 O198 2.091 . S
Co196 O200 2.004 . S
Co196 O206 2.021 . S
Co196 O208 2.137 . S
Co196 O209 2.244 . S
O197 Co196 2.216 . S
O197 C204 1.247 . S
O198 Co196 2.091 . S
O198 C204 1.261 . S
C199 O208 1.247 . S
C199 O209 1.272 . S
O200 Co196 2.004 . S
O200 C205 1.259 . S
Co201 O202 2.061 . S
Co201 O207 2.052 . S
Co201 O209 2.135 . S
O202 Co201 2.061 . S
O202 C205 1.235 . S
C203 O206 1.238 . S
C203 O207 1.241 . S
C204 O197 1.247 . S
C204 O198 1.261 . S
C205 O200 1.259 . S
C205 O202 1.235 . S
O206 Co196 2.021 . S
O206 C203 1.238 . S
O207 Co201 2.052 . S
O207 C203 1.241 . S
O208 Co196 2.137 . S
O208 C199 1.247 . S
O209 Co196 2.244 . S
O209 C199 1.272 . S
O209 Co201 2.135 . S
Co210 O211 2.216 . S
Co210 O212 2.091 1_565 S
Co210 O214 2.004 . S
Co210 O220 2.021 . S
Co210 O222 2.121 1_565 S
Co210 O223 2.244 . S
O211 Co210 2.216 . S
O211 C218 1.247 1_565 S
O212 Co210 2.091 1_545 S
O212 C218 1.261 . S
C213 O222 1.226 1_565 S
C213 O223 1.272 . S
O214 Co210 2.004 . S
O214 C219 1.259 . S
Co215 O216 2.061 . S
Co215 O221 2.052 . S
Co215 O223 2.135 . S
O216 Co215 2.061 . S
O216 C219 1.235 . S
C217 O220 1.238 . S
C217 O221 1.241 . S
C218 O211 1.247 1_545 S
C218 O212 1.261 . S
C219 O214 1.259 . S
C219 O216 1.235 . S
O220 Co210 2.021 . S
O220 C217 1.238 . S
O221 Co215 2.052 . S
O221 C217 1.241 . S
O222 Co210 2.121 1_545 S
O222 C213 1.226 1_545 S
O223 Co210 2.244 . S
O223 C213 1.272 . S
O223 Co215 2.135 . S
Co224 O225 2.216 . S
Co224 O226 2.091 . S
Co224 O228 2.004 . S
Co224 O234 2.021 . S
Co224 O236 2.137 . S
Co224 O237 2.244 . S
O225 Co224 2.216 . S
O225 C232 1.247 . S
O226 Co224 2.091 . S
O226 C232 1.261 . S
C227 O236 1.247 . S
C227 O237 1.272 . S
O228 Co224 2.004 . S
O228 C233 1.259 . S
Co229 O230 2.061 . S
Co229 O235 2.052 . S
Co229 O237 2.135 . S
O230 Co229 2.061 . S
O230 C233 1.235 . S
C231 O234 1.238 . S
C231 O235 1.241 . S
C232 O225 1.247 . S
C232 O226 1.261 . S
C233 O228 1.259 . S
C233 O230 1.235 . S
O234 Co224 2.021 . S
O234 C231 1.238 . S
O235 Co229 2.052 . S
O235 C231 1.241 . S
O236 Co224 2.137 . S
O236 C227 1.247 . S
O237 Co224 2.244 . S
O237 C227 1.272 . S
O237 Co229 2.135 . S
Co238 O239 2.216 . S
Co238 O240 2.091 . S
Co238 O242 2.004 . S
Co238 O248 2.021 . S
Co238 O250 2.137 . S
Co238 O251 2.244 . S
O239 Co238 2.216 . S
O239 C246 1.247 . S
O240 Co238 2.091 . S
O240 C246 1.261 . S
C241 O250 1.247 . S
C241 O251 1.272 . S
O242 Co238 2.004 . S
O242 C247 1.259 . S
Co243 O244 2.061 . S
Co243 O249 2.052 . S
Co243 O251 2.135 . S
O244 Co243 2.061 . S
O244 C247 1.235 . S
C245 O248 1.238 . S
C245 O249 1.241 . S
C246 O239 1.247 . S
C246 O240 1.261 . S
C247 O242 1.259 . S
C247 O244 1.235 . S
O248 Co238 2.021 . S
O248 C245 1.238 . S
O249 Co243 2.052 . S
O249 C245 1.241 . S
O250 Co238 2.137 . S
O250 C241 1.247 . S
O251 Co238 2.244 . S
O251 C241 1.272 . S
O251 Co243 2.135 . S
Co252 O253 2.216 . S
Co252 O254 2.091 . S
Co252 O256 2.004 . S
Co252 O262 2.021 . S
Co252 O264 2.137 . S
Co252 O265 2.244 . S
O253 Co252 2.216 . S
O253 C260 1.247 . S
O254 Co252 2.091 . S
O254 C260 1.261 . S
C255 O264 1.247 . S
C255 O265 1.272 . S
O256 Co252 2.004 . S
O256 C261 1.259 . S
Co257 O258 2.061 . S
Co257 O263 2.052 . S
Co257 O265 2.135 . S
O258 Co257 2.061 . S
O258 C261 1.235 . S
C259 O262 1.238 . S
C259 O263 1.241 . S
C260 O253 1.247 . S
C260 O254 1.261 . S
C261 O256 1.259 . S
C261 O258 1.235 . S
O262 Co252 2.021 . S
O262 C259 1.238 . S
O263 Co257 2.052 . S
O263 C259 1.241 . S
O264 Co252 2.137 . S
O264 C255 1.247 . S
O265 Co252 2.244 . S
O265 C255 1.272 . S
O265 Co257 2.135 . S
Co266 O267 2.216 . S
Co266 O268 2.091 . S
Co266 O270 2.004 . S
Co266 O276 2.021 . S
Co266 O278 2.137 . S
Co266 O279 2.244 . S
O267 Co266 2.216 . S
O267 C274 1.247 . S
O268 Co266 2.091 . S
O268 C274 1.261 . S
C269 O278 1.247 . S
C269 O279 1.272 . S
O270 Co266 2.004 . S
O270 C275 1.259 . S
Co271 O272 2.061 . S
Co271 O277 2.052 . S
Co271 O279 2.135 . S
O272 Co271 2.061 . S
O272 C275 1.235 . S
C273 O276 1.238 . S
C273 O277 1.241 . S
C274 O267 1.247 . S
C274 O268 1.261 . S
C275 O270 1.259 . S
C275 O272 1.235 . S
O276 Co266 2.021 . S
O276 C273 1.238 . S
O277 Co271 2.052 . S
O277 C273 1.241 . S
O278 Co266 2.137 . S
O278 C269 1.247 . S
O279 Co266 2.244 . S
O279 C269 1.272 . S
O279 Co271 2.135 . S
Co280 O281 2.216 . S
Co280 O282 2.091 . S
Co280 O284 2.004 . S
Co280 O290 2.021 . S
Co280 O292 2.137 . S
Co280 O293 2.244 . S
O281 Co280 2.216 . S
O281 C288 1.247 . S
O282 Co280 2.091 . S
O282 C288 1.261 . S
C283 O292 1.247 . S
C283 O293 1.272 . S
O284 Co280 2.004 . S
O284 C289 1.259 . S
Co285 O286 2.061 . S
Co285 O291 2.052 . S
Co285 O293 2.135 . S
O286 Co285 2.061 . S
O286 C289 1.235 . S
C287 O290 1.238 . S
C287 O291 1.241 . S
C288 O281 1.247 . S
C288 O282 1.261 . S
C289 O284 1.259 . S
C289 O286 1.235 . S
O290 Co280 2.021 . S
O290 C287 1.238 . S
O291 Co285 2.052 . S
O291 C287 1.241 . S
O292 Co280 2.137 . S
O292 C283 1.247 . S
O293 Co280 2.244 . S
O293 C283 1.272 . S
O293 Co285 2.135 . S
Co294 O295 2.216 . S
Co294 O296 2.091 . S
Co294 O298 2.004 . S
Co294 O304 2.021 . S
Co294 O306 2.137 . S
Co294 O307 2.244 . S
O295 Co294 2.216 . S
O295 C302 1.247 . S
O296 Co294 2.091 . S
O296 C302 1.261 . S
C297 O306 1.247 . S
C297 O307 1.272 . S
O298 Co294 2.004 . S
O298 C303 1.259 . S
Co299 O300 2.061 . S
Co299 O305 2.052 . S
Co299 O307 2.135 . S
O300 Co299 2.061 . S
O300 C303 1.235 . S
C301 O304 1.238 . S
C301 O305 1.241 . S
C302 O295 1.247 . S
C302 O296 1.261 . S
C303 O298 1.259 . S
C303 O300 1.235 . S
O304 Co294 2.021 . S
O304 C301 1.238 . S
O305 Co299 2.052 . S
O305 C301 1.241 . S
O306 Co294 2.137 . S
O306 C297 1.247 . S
O307 Co294 2.244 . S
O307 C297 1.272 . S
O307 Co299 2.135 . S
Co308 O309 2.216 . S
Co308 O310 2.091 . S
Co308 O312 2.004 . S
Co308 O318 2.021 . S
Co308 O320 2.137 . S
Co308 O321 2.244 . S
O309 Co308 2.216 . S
O309 C316 1.247 . S
O310 Co308 2.091 . S
O310 C316 1.261 . S
C311 O320 1.247 . S
C311 O321 1.272 . S
O312 Co308 2.004 . S
O312 C317 1.259 . S
Co313 O314 2.061 . S
Co313 O319 2.052 . S
Co313 O321 2.135 . S
O314 Co313 2.061 . S
O314 C317 1.235 . S
C315 O318 1.238 . S
C315 O319 1.241 . S
C316 O309 1.247 . S
C316 O310 1.261 . S
C317 O312 1.259 . S
C317 O314 1.235 . S
O318 Co308 2.021 . S
O318 C315 1.238 . S
O319 Co313 2.052 . S
O319 C315 1.241 . S
O320 Co308 2.137 . S
O320 C311 1.247 . S
O321 Co308 2.244 . S
O321 C311 1.272 . S
O321 Co313 2.135 . S
Co322 O323 2.216 . S
Co322 O324 2.091 . S
Co322 O326 2.004 . S
Co322 O332 2.021 . S
Co322 O334 2.137 . S
Co322 O335 2.244 . S
O323 Co322 2.216 . S
O323 C330 1.247 . S
O324 Co322 2.091 . S
O324 C330 1.261 . S
C325 O334 1.247 . S
C325 O335 1.272 . S
O326 Co322 2.004 . S
O326 C331 1.259 . S
Co327 O328 2.061 . S
Co327 O333 2.052 . S
Co327 O335 2.135 . S
O328 Co327 2.061 . S
O328 C331 1.235 . S
C329 O332 1.238 . S
C329 O333 1.241 . S
C330 O323 1.247 . S
C330 O324 1.261 . S
C331 O326 1.259 . S
C331 O328 1.235 . S
O332 Co322 2.021 . S
O332 C329 1.238 . S
O333 Co327 2.052 . S
O333 C329 1.241 . S
O334 Co322 2.137 . S
O334 C325 1.247 . S
O335 Co322 2.244 . S
O335 C325 1.272 . S
O335 Co327 2.135 . S
Co336 O337 2.216 . S
Co336 O338 2.091 . S
Co336 O340 2.004 . S
Co336 O346 2.021 . S
Co336 O348 2.137 . S
Co336 O349 2.244 . S
O337 Co336 2.216 . S
O337 C344 1.247 . S
O338 Co336 2.091 . S
O338 C344 1.261 . S
C339 O348 1.247 . S
C339 O349 1.272 . S
O340 Co336 2.004 . S
O340 C345 1.259 . S
Co341 O342 2.061 . S
Co341 O347 2.052 . S
Co341 O349 2.135 . S
O342 Co341 2.061 . S
O342 C345 1.235 . S
C343 O346 1.238 . S
C343 O347 1.241 . S
C344 O337 1.247 . S
C344 O338 1.261 . S
C345 O340 1.259 . S
C345 O342 1.235 . S
O346 Co336 2.021 . S
O346 C343 1.238 . S
O347 Co341 2.052 . S
O347 C343 1.241 . S
O348 Co336 2.137 . S
O348 C339 1.247 . S
O349 Co336 2.244 . S
O349 C339 1.272 . S
O349 Co341 2.135 . S
Co350 O351 2.216 . S
Co350 O352 2.091 . S
Co350 O354 2.004 . S
Co350 O360 2.021 . S
Co350 O362 2.137 . S
Co350 O363 2.244 . S
O351 Co350 2.216 . S
O351 C358 1.247 . S
O352 Co350 2.091 . S
O352 C358 1.261 . S
C353 O362 1.247 . S
C353 O363 1.272 . S
O354 Co350 2.004 . S
O354 C359 1.259 . S
Co355 O356 2.061 . S
Co355 O361 2.052 . S
Co355 O363 2.135 . S
O356 Co355 2.061 . S
O356 C359 1.235 . S
C357 O360 1.238 . S
C357 O361 1.241 . S
C358 O351 1.247 . S
C358 O352 1.261 . S
C359 O354 1.259 . S
C359 O356 1.235 . S
O360 Co350 2.021 . S
O360 C357 1.238 . S
O361 Co355 2.052 . S
O361 C357 1.241 . S
O362 Co350 2.137 . S
O362 C353 1.247 . S
O363 Co350 2.244 . S
O363 C353 1.272 . S
O363 Co355 2.135 . S
Co364 O365 2.216 . S
Co364 O366 2.091 . S
Co364 O368 2.004 . S
Co364 O374 2.021 . S
Co364 O376 2.137 . S
Co364 O377 2.244 . S
O365 Co364 2.216 . S
O365 C372 1.247 . S
O366 Co364 2.091 . S
O366 C372 1.261 . S
C367 O376 1.247 . S
C367 O377 1.272 . S
O368 Co364 2.004 . S
O368 C373 1.259 . S
Co369 O370 2.061 . S
Co369 O375 2.052 . S
Co369 O377 2.135 . S
O370 Co369 2.061 . S
O370 C373 1.235 . S
C371 O374 1.238 . S
C371 O375 1.241 . S
C372 O365 1.247 . S
C372 O366 1.261 . S
C373 O368 1.259 . S
C373 O370 1.235 . S
O374 Co364 2.021 . S
O374 C371 1.238 . S
O375 Co369 2.052 . S
O375 C371 1.241 . S
O376 Co364 2.137 . S
O376 C367 1.247 . S
O377 Co364 2.244 . S
O377 C367 1.272 . S
O377 Co369 2.135 . S
Co378 O379 2.216 . S
Co378 O380 2.091 . S
Co378 O382 2.004 . S
Co378 O388 2.021 . S
Co378 O390 2.137 . S
Co378 O391 2.244 . S
O379 Co378 2.216 . S
O379 C386 1.247 . S
O380 Co378 2.091 . S
O380 C386 1.261 . S
C381 O390 1.247 . S
C381 O391 1.272 . S
O382 Co378 2.004 . S
O382 C387 1.259 . S
Co383 O384 2.061 . S
Co383 O389 2.052 . S
Co383 O391 2.135 . S
O384 Co383 2.061 . S
O384 C387 1.235 . S
C385 O388 1.238 . S
C385 O389 1.241 . S
C386 O379 1.247 . S
C386 O380 1.261 . S
C387 O382 1.259 . S
C387 O384 1.235 . S
O388 Co378 2.021 . S
O388 C385 1.238 . S
O389 Co383 2.052 . S
O389 C385 1.241 . S
O390 Co378 2.137 . S
O390 C381 1.247 . S
O391 Co378 2.244 . S
O391 C381 1.272 . S
O391 Co383 2.135 . S
Co392 O393 2.216 . S
Co392 O394 2.091 . S
Co392 O396 2.004 . S
Co392 O402 2.021 . S
Co392 O404 2.137 . S
Co392 O405 2.244 . S
O393 Co392 2.216 . S
O393 C400 1.247 . S
O394 Co392 2.091 . S
O394 C400 1.261 . S
C395 O404 1.247 . S
C395 O405 1.272 . S
O396 Co392 2.004 . S
O396 C401 1.259 . S
Co397 O398 2.061 . S
Co397 O403 2.052 . S
Co397 O405 2.135 . S
O398 Co397 2.061 . S
O398 C401 1.235 . S
C399 O402 1.238 . S
C399 O403 1.241 . S
C400 O393 1.247 . S
C400 O394 1.261 . S
C401 O396 1.259 . S
C401 O398 1.235 . S
O402 Co392 2.021 . S
O402 C399 1.238 . S
O403 Co397 2.052 . S
O403 C399 1.241 . S
O404 Co392 2.137 . S
O404 C395 1.247 . S
O405 Co392 2.244 . S
O405 C395 1.272 . S
O405 Co397 2.135 . S
Co406 O407 2.216 . S
Co406 O408 2.091 . S
Co406 O410 2.004 . S
Co406 O416 2.021 . S
Co406 O418 2.137 . S
Co406 O419 2.244 . S
O407 Co406 2.216 . S
O407 C414 1.247 . S
O408 Co406 2.091 . S
O408 C414 1.261 . S
C409 O418 1.247 . S
C409 O419 1.272 . S
O410 Co406 2.004 . S
O410 C415 1.259 . S
Co411 O412 2.061 . S
Co411 O417 2.052 . S
Co411 O419 2.135 . S
O412 Co411 2.061 . S
O412 C415 1.235 . S
C413 O416 1.238 . S
C413 O417 1.241 . S
C414 O407 1.247 . S
C414 O408 1.261 . S
C415 O410 1.259 . S
C415 O412 1.235 . S
O416 Co406 2.021 . S
O416 C413 1.238 . S
O417 Co411 2.052 . S
O417 C413 1.241 . S
O418 Co406 2.137 . S
O418 C409 1.247 . S
O419 Co406 2.244 . S
O419 C409 1.272 . S
O419 Co411 2.135 . S
Co420 O421 2.216 . S
Co420 O422 2.091 . S
Co420 O424 2.004 . S
Co420 O430 2.021 . S
Co420 O432 2.137 . S
Co420 O433 2.244 . S
O421 Co420 2.216 . S
O421 C428 1.247 . S
O422 Co420 2.091 . S
O422 C428 1.261 . S
C423 O432 1.247 . S
C423 O433 1.272 . S
O424 Co420 2.004 . S
O424 C429 1.259 . S
Co425 O426 2.061 . S
Co425 O431 2.052 . S
Co425 O433 2.135 . S
O426 Co425 2.061 . S
O426 C429 1.235 . S
C427 O430 1.238 . S
C427 O431 1.241 . S
C428 O421 1.247 . S
C428 O422 1.261 . S
C429 O424 1.259 . S
C429 O426 1.235 . S
O430 Co420 2.021 . S
O430 C427 1.238 . S
O431 Co425 2.052 . S
O431 C427 1.241 . S
O432 Co420 2.137 . S
O432 C423 1.247 . S
O433 Co420 2.244 . S
O433 C423 1.272 . S
O433 Co425 2.135 . S
Co434 O435 2.216 . S
Co434 O436 2.091 . S
Co434 O438 2.004 . S
Co434 O444 2.021 . S
Co434 O446 2.137 . S
Co434 O447 2.244 . S
O435 Co434 2.216 . S
O435 C442 1.247 . S
O436 Co434 2.091 . S
O436 C442 1.261 . S
C437 O446 1.247 . S
C437 O447 1.272 . S
O438 Co434 2.004 . S
O438 C443 1.259 . S
Co439 O440 2.061 . S
Co439 O445 2.052 . S
Co439 O447 2.135 . S
O440 Co439 2.061 . S
O440 C443 1.235 . S
C441 O444 1.238 . S
C441 O445 1.241 . S
C442 O435 1.247 . S
C442 O436 1.261 . S
C443 O438 1.259 . S
C443 O440 1.235 . S
O444 Co434 2.021 . S
O444 C441 1.238 . S
O445 Co439 2.052 . S
O445 C441 1.241 . S
O446 Co434 2.137 . S
O446 C437 1.247 . S
O447 Co434 2.244 . S
O447 C437 1.272 . S
O447 Co439 2.135 . S
H448 C456 0.950 . S
H449 C461 0.950 . S
H450 C458 0.950 . S
H451 C460 0.950 . S
H452 C462 0.950 . S
H453 C464 0.950 . S
H454 C466 0.950 . S
H455 C467 0.950 . S
C456 H448 0.950 . S
C456 C457 1.386 . S
C456 C458 1.391 . S
C457 C456 1.386 . S
C457 C461 1.393 . S
C458 H450 0.950 . S
C458 C456 1.391 . S
C458 C459 1.400 . S
C459 C458 1.400 . S
C459 C460 1.398 . S
C459 C465 1.491 . S
C460 H451 0.950 . S
C460 C459 1.398 . S
C460 C461 1.391 . S
C461 H449 0.950 . S
C461 C457 1.393 . S
C461 C460 1.391 . S
C462 H452 0.950 . S
C462 C463 1.386 . S
C462 C464 1.391 . S
C463 C462 1.386 . S
C463 C467 1.393 . S
C464 H453 0.950 . S
C464 C462 1.391 . S
C464 C465 1.400 . S
C465 C459 1.491 . S
C465 C464 1.400 . S
C465 C466 1.398 . S
C466 H454 0.950 . S
C466 C465 1.398 . S
C466 C467 1.391 . S
C467 H455 0.950 . S
C467 C463 1.393 . S
C467 C466 1.391 . S
H468 C476 0.950 . S
H469 C481 0.950 . S
H470 C478 0.950 . S
H471 C480 0.950 . S
H472 C482 0.950 . S
H473 C484 0.950 . S
H474 C486 0.950 . S
H475 C487 0.950 . S
C476 H468 0.950 . S
C476 C477 1.386 . S
C476 C478 1.391 . S
C477 C476 1.386 . S
C477 C481 1.393 . S
C478 H470 0.950 . S
C478 C476 1.391 . S
C478 C479 1.400 . S
C479 C478 1.400 . S
C479 C480 1.398 . S
C479 C485 1.491 . S
C480 H471 0.950 . S
C480 C479 1.398 . S
C480 C481 1.391 . S
C481 H469 0.950 . S
C481 C477 1.393 . S
C481 C480 1.391 . S
C482 H472 0.950 . S
C482 C483 1.386 . S
C482 C484 1.391 . S
C483 C482 1.386 . S
C483 C487 1.393 . S
C484 H473 0.950 . S
C484 C482 1.391 . S
C484 C485 1.400 . S
C485 C479 1.491 . S
C485 C484 1.400 . S
C485 C486 1.398 . S
C486 H474 0.950 . S
C486 C485 1.398 . S
C486 C487 1.391 . S
C487 H475 0.950 . S
C487 C483 1.393 . S
C487 C486 1.391 . S
H488 C496 0.950 . S
H489 C501 0.950 . S
H490 C498 0.950 . S
H491 C500 0.950 . S
H492 C502 0.950 . S
H493 C504 0.950 . S
H494 C506 0.950 . S
H495 C507 0.950 . S
C496 H488 0.950 . S
C496 C497 1.386 . S
C496 C498 1.391 . S
C497 C496 1.386 . S
C497 C501 1.393 . S
C498 H490 0.950 . S
C498 C496 1.391 . S
C498 C499 1.400 . S
C499 C498 1.400 . S
C499 C500 1.398 . S
C499 C505 1.491 . S
C500 H491 0.950 . S
C500 C499 1.398 . S
C500 C501 1.391 . S
C501 H489 0.950 . S
C501 C497 1.393 . S
C501 C500 1.391 . S
C502 H492 0.950 . S
C502 C503 1.386 . S
C502 C504 1.391 . S
C503 C502 1.386 . S
C503 C507 1.393 . S
C504 H493 0.950 . S
C504 C502 1.391 . S
C504 C505 1.400 . S
C505 C499 1.491 . S
C505 C504 1.400 . S
C505 C506 1.398 . S
C506 H494 0.950 . S
C506 C505 1.398 . S
C506 C507 1.391 . S
C507 H495 0.950 . S
C507 C503 1.393 . S
C507 C506 1.391 . S
H508 C516 0.950 . S
H509 C521 0.950 . S
H510 C518 0.950 . S
H511 C520 0.950 . S
H512 C522 0.950 . S
H513 C524 0.950 . S
H514 C526 0.950 . S
H515 C527 0.950 . S
C516 H508 0.950 . S
C516 C517 1.386 . S
C516 C518 1.391 . S
C517 C516 1.386 . S
C517 C521 1.393 . S
C518 H510 0.950 . S
C518 C516 1.391 . S
C518 C519 1.400 . S
C519 C518 1.400 . S
C519 C520 1.398 . S
C519 C525 1.491 . S
C520 H511 0.950 . S
C520 C519 1.398 . S
C520 C521 1.391 . S
C521 H509 0.950 . S
C521 C517 1.393 . S
C521 C520 1.391 . S
C522 H512 0.950 . S
C522 C523 1.386 . S
C522 C524 1.391 . S
C523 C522 1.386 . S
C523 C527 1.393 . S
C524 H513 0.950 . S
C524 C522 1.391 . S
C524 C525 1.400 . S
C525 C519 1.491 . S
C525 C524 1.400 . S
C525 C526 1.398 . S
C526 H514 0.950 . S
C526 C525 1.398 . S
C526 C527 1.391 . S
C527 H515 0.950 . S
C527 C523 1.393 . S
C527 C526 1.391 . S
H528 C536 0.950 . S
H529 C541 0.950 . S
H530 C538 0.950 . S
H531 C540 0.950 . S
H532 C542 0.950 . S
H533 C544 0.950 . S
H534 C546 0.950 . S
H535 C547 0.950 . S
C536 H528 0.950 . S
C536 C537 1.386 . S
C536 C538 1.391 . S
C537 C536 1.386 . S
C537 C541 1.393 . S
C538 H530 0.950 . S
C538 C536 1.391 . S
C538 C539 1.400 . S
C539 C538 1.400 . S
C539 C540 1.398 . S
C539 C545 1.491 . S
C540 H531 0.950 . S
C540 C539 1.398 . S
C540 C541 1.391 . S
C541 H529 0.950 . S
C541 C537 1.393 . S
C541 C540 1.391 . S
C542 H532 0.950 . S
C542 C543 1.386 . S
C542 C544 1.391 . S
C543 C542 1.386 . S
C543 C547 1.393 . S
C544 H533 0.950 . S
C544 C542 1.391 . S
C544 C545 1.400 . S
C545 C539 1.491 . S
C545 C544 1.400 . S
C545 C546 1.398 . S
C546 H534 0.950 . S
C546 C545 1.398 . S
C546 C547 1.391 . S
C547 H535 0.950 . S
C547 C543 1.393 . S
C547 C546 1.391 . S
H548 C556 0.950 . S
H549 C561 0.950 . S
H550 C558 0.950 . S
H551 C560 0.950 . S
H552 C562 0.950 . S
H553 C564 0.950 . S
H554 C566 0.950 . S
H555 C567 0.950 . S
C556 H548 0.950 . S
C556 C557 1.386 . S
C556 C558 1.391 . S
C557 C556 1.386 . S
C557 C561 1.393 . S
C558 H550 0.950 . S
C558 C556 1.391 . S
C558 C559 1.400 . S
C559 C558 1.400 . S
C559 C560 1.398 . S
C559 C565 1.491 . S
C560 H551 0.950 . S
C560 C559 1.398 . S
C560 C561 1.391 . S
C561 H549 0.950 . S
C561 C557 1.393 . S
C561 C560 1.391 . S
C562 H552 0.950 . S
C562 C563 1.386 . S
C562 C564 1.391 . S
C563 C562 1.386 . S
C563 C567 1.393 . S
C564 H553 0.950 . S
C564 C562 1.391 . S
C564 C565 1.400 . S
C565 C559 1.491 . S
C565 C564 1.400 . S
C565 C566 1.398 . S
C566 H554 0.950 . S
C566 C565 1.398 . S
C566 C567 1.391 . S
C567 H555 0.950 . S
C567 C563 1.393 . S
C567 C566 1.391 . S
H568 C576 0.950 . S
H569 C581 0.950 . S
H570 C578 0.950 . S
H571 C580 0.950 . S
H572 C582 0.950 . S
H573 C584 0.950 . S
H574 C586 0.950 . S
H575 C587 0.950 . S
C576 H568 0.950 . S
C576 C577 1.386 . S
C576 C578 1.391 . S
C577 C576 1.386 . S
C577 C581 1.393 . S
C578 H570 0.950 . S
C578 C576 1.391 . S
C578 C579 1.400 . S
C579 C578 1.400 . S
C579 C580 1.398 . S
C579 C585 1.491 . S
C580 H571 0.950 . S
C580 C579 1.398 . S
C580 C581 1.391 . S
C581 H569 0.950 . S
C581 C577 1.393 . S
C581 C580 1.391 . S
C582 H572 0.950 . S
C582 C583 1.386 . S
C582 C584 1.391 . S
C583 C582 1.386 . S
C583 C587 1.393 . S
C584 H573 0.950 . S
C584 C582 1.391 . S
C584 C585 1.400 . S
C585 C579 1.491 . S
C585 C584 1.400 . S
C585 C586 1.398 . S
C586 H574 0.950 . S
C586 C585 1.398 . S
C586 C587 1.391 . S
C587 H575 0.950 . S
C587 C583 1.393 . S
C587 C586 1.391 . S
H588 C596 0.950 . S
H589 C601 0.950 . S
H590 C598 0.950 . S
H591 C600 0.950 . S
H592 C602 0.950 . S
H593 C604 0.950 . S
H594 C606 0.950 . S
H595 C607 0.950 . S
C596 H588 0.950 . S
C596 C597 1.386 . S
C596 C598 1.391 . S
C597 C596 1.386 . S
C597 C601 1.393 . S
C598 H590 0.950 . S
C598 C596 1.391 . S
C598 C599 1.400 . S
C599 C598 1.400 . S
C599 C600 1.398 . S
C599 C605 1.491 . S
C600 H591 0.950 . S
C600 C599 1.398 . S
C600 C601 1.391 . S
C601 H589 0.950 . S
C601 C597 1.393 . S
C601 C600 1.391 . S
C602 H592 0.950 . S
C602 C603 1.386 . S
C602 C604 1.391 . S
C603 C602 1.386 . S
C603 C607 1.393 . S
C604 H593 0.950 . S
C604 C602 1.391 . S
C604 C605 1.400 . S
C605 C599 1.491 . S
C605 C604 1.400 . S
C605 C606 1.398 . S
C606 H594 0.950 . S
C606 C605 1.398 . S
C606 C607 1.391 . S
C607 H595 0.950 . S
C607 C603 1.393 . S
C607 C606 1.391 . S
H608 C616 0.950 . S
H609 C621 0.950 . S
H610 C618 0.950 . S
H611 C620 0.950 . S
H612 C622 0.950 . S
H613 C624 0.950 . S
H614 C626 0.950 . S
H615 C627 0.950 . S
C616 H608 0.950 . S
C616 C617 1.386 . S
C616 C618 1.391 . S
C617 C616 1.386 . S
C617 C621 1.393 . S
C618 H610 0.950 . S
C618 C616 1.391 . S
C618 C619 1.400 . S
C619 C618 1.400 . S
C619 C620 1.398 . S
C619 C625 1.491 . S
C620 H611 0.950 . S
C620 C619 1.398 . S
C620 C621 1.391 . S
C621 H609 0.950 . S
C621 C617 1.393 . S
C621 C620 1.391 . S
C622 H612 0.950 . S
C622 C623 1.386 . S
C622 C624 1.391 . S
C623 C622 1.386 . S
C623 C627 1.393 . S
C624 H613 0.950 . S
C624 C622 1.391 . S
C624 C625 1.400 . S
C625 C619 1.491 . S
C625 C624 1.400 . S
C625 C626 1.398 . S
C626 H614 0.950 . S
C626 C625 1.398 . S
C626 C627 1.391 . S
C627 H615 0.950 . S
C627 C623 1.393 . S
C627 C626 1.391 . S
H628 C636 0.950 . S
H629 C641 0.950 . S
H630 C638 0.950 . S
H631 C640 0.950 . S
H632 C642 0.950 . S
H633 C644 0.950 . S
H634 C646 0.950 . S
H635 C647 0.950 . S
C636 H628 0.950 . S
C636 C637 1.386 . S
C636 C638 1.391 . S
C637 C636 1.386 . S
C637 C641 1.393 . S
C638 H630 0.950 . S
C638 C636 1.391 . S
C638 C639 1.400 . S
C639 C638 1.400 . S
C639 C640 1.398 . S
C639 C645 1.491 . S
C640 H631 0.950 . S
C640 C639 1.398 . S
C640 C641 1.391 . S
C641 H629 0.950 . S
C641 C637 1.393 . S
C641 C640 1.391 . S
C642 H632 0.950 . S
C642 C643 1.386 . S
C642 C644 1.391 . S
C643 C642 1.386 . S
C643 C647 1.393 . S
C644 H633 0.950 . S
C644 C642 1.391 . S
C644 C645 1.400 . S
C645 C639 1.491 . S
C645 C644 1.400 . S
C645 C646 1.398 . S
C646 H634 0.950 . S
C646 C645 1.398 . S
C646 C647 1.391 . S
C647 H635 0.950 . S
C647 C643 1.393 . S
C647 C646 1.391 . S
H648 C656 0.950 . S
H649 C661 0.950 . S
H650 C658 0.950 . S
H651 C660 0.950 . S
H652 C662 0.950 . S
H653 C664 0.950 . S
H654 C666 0.950 . S
H655 C667 0.950 . S
C656 H648 0.950 . S
C656 C657 1.386 . S
C656 C658 1.391 . S
C657 C656 1.386 . S
C657 C661 1.393 . S
C658 H650 0.950 . S
C658 C656 1.391 . S
C658 C659 1.400 . S
C659 C658 1.400 . S
C659 C660 1.398 . S
C659 C665 1.491 . S
C660 H651 0.950 . S
C660 C659 1.398 . S
C660 C661 1.391 . S
C661 H649 0.950 . S
C661 C657 1.393 . S
C661 C660 1.391 . S
C662 H652 0.950 . S
C662 C663 1.386 . S
C662 C664 1.391 . S
C663 C662 1.386 . S
C663 C667 1.393 . S
C664 H653 0.950 . S
C664 C662 1.391 . S
C664 C665 1.400 . S
C665 C659 1.491 . S
C665 C664 1.400 . S
C665 C666 1.398 . S
C666 H654 0.950 . S
C666 C665 1.398 . S
C666 C667 1.391 . S
C667 H655 0.950 . S
C667 C663 1.393 . S
C667 C666 1.391 . S
H668 C676 0.950 . S
H669 C681 0.950 . S
H670 C678 0.950 . S
H671 C680 0.950 . S
H672 C682 0.950 . S
H673 C684 0.950 . S
H674 C686 0.950 . S
H675 C687 0.950 . S
C676 H668 0.950 . S
C676 C677 1.386 . S
C676 C678 1.391 . S
C677 C676 1.386 . S
C677 C681 1.393 . S
C678 H670 0.950 . S
C678 C676 1.391 . S
C678 C679 1.400 . S
C679 C678 1.400 . S
C679 C680 1.398 . S
C679 C685 1.491 . S
C680 H671 0.950 . S
C680 C679 1.398 . S
C680 C681 1.391 . S
C681 H669 0.950 . S
C681 C677 1.393 . S
C681 C680 1.391 . S
C682 H672 0.950 . S
C682 C683 1.386 . S
C682 C684 1.391 . S
C683 C682 1.386 . S
C683 C687 1.393 . S
C684 H673 0.950 . S
C684 C682 1.391 . S
C684 C685 1.400 . S
C685 C679 1.491 . S
C685 C684 1.400 . S
C685 C686 1.398 . S
C686 H674 0.950 . S
C686 C685 1.398 . S
C686 C687 1.391 . S
C687 H675 0.950 . S
C687 C683 1.393 . S
C687 C686 1.391 . S
H688 C696 0.950 . S
H689 C701 0.950 . S
H690 C698 0.950 . S
H691 C700 0.950 . S
H692 C702 0.950 . S
H693 C704 0.950 . S
H694 C706 0.950 . S
H695 C707 0.950 . S
C696 H688 0.950 . S
C696 C697 1.386 . S
C696 C698 1.391 . S
C697 C696 1.386 . S
C697 C701 1.393 . S
C698 H690 0.950 . S
C698 C696 1.391 . S
C698 C699 1.400 . S
C699 C698 1.400 . S
C699 C700 1.398 . S
C699 C705 1.491 . S
C700 H691 0.950 . S
C700 C699 1.398 . S
C700 C701 1.391 . S
C701 H689 0.950 . S
C701 C697 1.393 . S
C701 C700 1.391 . S
C702 H692 0.950 . S
C702 C703 1.386 . S
C702 C704 1.391 . S
C703 C702 1.386 . S
C703 C707 1.393 . S
C704 H693 0.950 . S
C704 C702 1.391 . S
C704 C705 1.400 . S
C705 C699 1.491 . S
C705 C704 1.400 . S
C705 C706 1.398 . S
C706 H694 0.950 . S
C706 C705 1.398 . S
C706 C707 1.391 . S
C707 H695 0.950 . S
C707 C703 1.393 . S
C707 C706 1.391 . S
H708 C716 0.950 . S
H709 C721 0.950 . S
H710 C718 0.950 . S
H711 C720 0.950 . S
H712 C722 0.950 . S
H713 C724 0.950 . S
H714 C726 0.950 . S
H715 C727 0.950 . S
C716 H708 0.950 . S
C716 C717 1.386 . S
C716 C718 1.391 . S
C717 C716 1.386 . S
C717 C721 1.393 . S
C718 H710 0.950 . S
C718 C716 1.391 . S
C718 C719 1.400 . S
C719 C718 1.400 . S
C719 C720 1.398 . S
C719 C725 1.491 . S
C720 H711 0.950 . S
C720 C719 1.398 . S
C720 C721 1.391 . S
C721 H709 0.950 . S
C721 C717 1.393 . S
C721 C720 1.391 . S
C722 H712 0.950 . S
C722 C723 1.386 . S
C722 C724 1.391 . S
C723 C722 1.386 . S
C723 C727 1.393 . S
C724 H713 0.950 . S
C724 C722 1.391 . S
C724 C725 1.400 . S
C725 C719 1.491 . S
C725 C724 1.400 . S
C725 C726 1.398 . S
C726 H714 0.950 . S
C726 C725 1.398 . S
C726 C727 1.391 . S
C727 H715 0.950 . S
C727 C723 1.393 . S
C727 C726 1.391 . S
H728 C736 0.950 . S
H729 C741 0.950 . S
H730 C738 0.950 . S
H731 C740 0.950 . S
H732 C742 0.950 . S
H733 C744 0.950 . S
H734 C746 0.950 . S
H735 C747 0.950 . S
C736 H728 0.950 . S
C736 C737 1.386 . S
C736 C738 1.391 . S
C737 C736 1.386 . S
C737 C741 1.393 . S
C738 H730 0.950 . S
C738 C736 1.391 . S
C738 C739 1.400 . S
C739 C738 1.400 . S
C739 C740 1.398 . S
C739 C745 1.491 . S
C740 H731 0.950 . S
C740 C739 1.398 . S
C740 C741 1.391 . S
C741 H729 0.950 . S
C741 C737 1.393 . S
C741 C740 1.391 . S
C742 H732 0.950 . S
C742 C743 1.386 . S
C742 C744 1.391 . S
C743 C742 1.386 . S
C743 C747 1.393 . S
C744 H733 0.950 . S
C744 C742 1.391 . S
C744 C745 1.400 . S
C745 C739 1.491 . S
C745 C744 1.400 . S
C745 C746 1.398 . S
C746 H734 0.950 . S
C746 C745 1.398 . S
C746 C747 1.391 . S
C747 H735 0.950 . S
C747 C743 1.393 . S
C747 C746 1.391 . S
H748 C756 0.950 . S
H749 C761 0.950 . S
H750 C758 0.950 . S
H751 C760 0.950 . S
H752 C762 0.950 . S
H753 C764 0.950 . S
H754 C766 0.950 . S
H755 C767 0.950 . S
C756 H748 0.950 . S
C756 C757 1.386 . S
C756 C758 1.391 . S
C757 C756 1.386 . S
C757 C761 1.393 . S
C758 H750 0.950 . S
C758 C756 1.391 . S
C758 C759 1.400 . S
C759 C758 1.400 . S
C759 C760 1.398 . S
C759 C765 1.491 . S
C760 H751 0.950 . S
C760 C759 1.398 . S
C760 C761 1.391 . S
C761 H749 0.950 . S
C761 C757 1.393 . S
C761 C760 1.391 . S
C762 H752 0.950 . S
C762 C763 1.386 . S
C762 C764 1.391 . S
C763 C762 1.386 . S
C763 C767 1.393 . S
C764 H753 0.950 . S
C764 C762 1.391 . S
C764 C765 1.400 . S
C765 C759 1.491 . S
C765 C764 1.400 . S
C765 C766 1.398 . S
C766 H754 0.950 . S
C766 C765 1.398 . S
C766 C767 1.391 . S
C767 H755 0.950 . S
C767 C763 1.393 . S
C767 C766 1.391 . S
H768 C776 0.950 . S
H769 C781 0.950 . S
H770 C778 0.950 . S
H771 C780 0.950 . S
H772 C782 0.950 . S
H773 C784 0.950 . S
H774 C786 0.950 . S
H775 C787 0.950 . S
C776 H768 0.950 . S
C776 C777 1.386 . S
C776 C778 1.391 . S
C777 C776 1.386 . S
C777 C781 1.393 . S
C778 H770 0.950 . S
C778 C776 1.391 . S
C778 C779 1.400 . S
C779 C778 1.400 . S
C779 C780 1.398 . S
C779 C785 1.491 . S
C780 H771 0.950 . S
C780 C779 1.398 . S
C780 C781 1.391 . S
C781 H769 0.950 . S
C781 C777 1.393 . S
C781 C780 1.391 . S
C782 H772 0.950 . S
C782 C783 1.386 . S
C782 C784 1.391 . S
C783 C782 1.386 . S
C783 C787 1.393 . S
C784 H773 0.950 . S
C784 C782 1.391 . S
C784 C785 1.400 . S
C785 C779 1.491 . S
C785 C784 1.400 . S
C785 C786 1.398 . S
C786 H774 0.950 . S
C786 C785 1.398 . S
C786 C787 1.391 . S
C787 H775 0.950 . S
C787 C783 1.393 . S
C787 C786 1.391 . S
H788 C796 0.950 . S
H789 C801 0.950 . S
H790 C798 0.950 . S
H791 C800 0.950 . S
H792 C802 0.950 . S
H793 C804 0.950 . S
H794 C806 0.950 . S
H795 C807 0.950 . S
C796 H788 0.950 . S
C796 C797 1.386 . S
C796 C798 1.391 . S
C797 C796 1.386 . S
C797 C801 1.393 . S
C798 H790 0.950 . S
C798 C796 1.391 . S
C798 C799 1.400 . S
C799 C798 1.400 . S
C799 C800 1.398 . S
C799 C805 1.491 . S
C800 H791 0.950 . S
C800 C799 1.398 . S
C800 C801 1.391 . S
C801 H789 0.950 . S
C801 C797 1.393 . S
C801 C800 1.391 . S
C802 H792 0.950 . S
C802 C803 1.386 . S
C802 C804 1.391 . S
C803 C802 1.386 . S
C803 C807 1.393 . S
C804 H793 0.950 . S
C804 C802 1.391 . S
C804 C805 1.400 . S
C805 C799 1.491 . S
C805 C804 1.400 . S
C805 C806 1.398 . S
C806 H794 0.950 . S
C806 C805 1.398 . S
C806 C807 1.391 . S
C807 H795 0.950 . S
C807 C803 1.393 . S
C807 C806 1.391 . S
H808 C816 0.950 . S
H809 C821 0.950 . S
H810 C818 0.950 . S
H811 C820 0.950 . S
H812 C822 0.950 . S
H813 C824 0.950 . S
H814 C826 0.950 . S
H815 C827 0.950 . S
C816 H808 0.950 . S
C816 C817 1.386 . S
C816 C818 1.391 . S
C817 C816 1.386 . S
C817 C821 1.393 . S
C818 H810 0.950 . S
C818 C816 1.391 . S
C818 C819 1.400 . S
C819 C818 1.400 . S
C819 C820 1.398 . S
C819 C825 1.491 . S
C820 H811 0.950 . S
C820 C819 1.398 . S
C820 C821 1.391 . S
C821 H809 0.950 . S
C821 C817 1.393 . S
C821 C820 1.391 . S
C822 H812 0.950 . S
C822 C823 1.386 . S
C822 C824 1.391 . S
C823 C822 1.386 . S
C823 C827 1.393 . S
C824 H813 0.950 . S
C824 C822 1.391 . S
C824 C825 1.400 . S
C825 C819 1.491 . S
C825 C824 1.400 . S
C825 C826 1.398 . S
C826 H814 0.950 . S
C826 C825 1.398 . S
C826 C827 1.391 . S
C827 H815 0.950 . S
C827 C823 1.393 . S
C827 C826 1.391 . S
H828 C836 0.950 . S
H829 C841 0.950 . S
H830 C838 0.950 . S
H831 C840 0.950 . S
H832 C842 0.950 . S
H833 C844 0.950 . S
H834 C846 0.950 . S
H835 C847 0.950 . S
C836 H828 0.950 . S
C836 C837 1.386 . S
C836 C838 1.391 . S
C837 C836 1.386 . S
C837 C841 1.393 . S
C838 H830 0.950 . S
C838 C836 1.391 . S
C838 C839 1.400 . S
C839 C838 1.400 . S
C839 C840 1.398 . S
C839 C845 1.491 . S
C840 H831 0.950 . S
C840 C839 1.398 . S
C840 C841 1.391 . S
C841 H829 0.950 . S
C841 C837 1.393 . S
C841 C840 1.391 . S
C842 H832 0.950 . S
C842 C843 1.386 . S
C842 C844 1.391 . S
C843 C842 1.386 . S
C843 C847 1.393 . S
C844 H833 0.950 . S
C844 C842 1.391 . S
C844 C845 1.400 . S
C845 C839 1.491 . S
C845 C844 1.400 . S
C845 C846 1.398 . S
C846 H834 0.950 . S
C846 C845 1.398 . S
C846 C847 1.391 . S
C847 H835 0.950 . S
C847 C843 1.393 . S
C847 C846 1.391 . S
H848 C856 0.950 . S
H849 C861 0.950 . S
H850 C858 0.950 . S
H851 C860 0.950 . S
H852 C862 0.950 . S
H853 C864 0.950 . S
H854 C866 0.950 . S
H855 C867 0.950 . S
C856 H848 0.950 . S
C856 C857 1.386 . S
C856 C858 1.391 . S
C857 C856 1.386 . S
C857 C861 1.393 . S
C858 H850 0.950 . S
C858 C856 1.391 . S
C858 C859 1.400 . S
C859 C858 1.400 . S
C859 C860 1.398 . S
C859 C865 1.491 . S
C860 H851 0.950 . S
C860 C859 1.398 . S
C860 C861 1.391 . S
C861 H849 0.950 . S
C861 C857 1.393 . S
C861 C860 1.391 . S
C862 H852 0.950 . S
C862 C863 1.386 . S
C862 C864 1.391 . S
C863 C862 1.386 . S
C863 C867 1.393 . S
C864 H853 0.950 . S
C864 C862 1.391 . S
C864 C865 1.400 . S
C865 C859 1.491 . S
C865 C864 1.400 . S
C865 C866 1.398 . S
C866 H854 0.950 . S
C866 C865 1.398 . S
C866 C867 1.391 . S
C867 H855 0.950 . S
C867 C863 1.393 . S
C867 C866 1.391 . S
H868 C876 0.950 . S
H869 C881 0.950 . S
H870 C878 0.950 . S
H871 C880 0.950 . S
H872 C882 0.950 . S
H873 C884 0.950 . S
H874 C886 0.950 . S
H875 C887 0.950 . S
C876 H868 0.950 . S
C876 C877 1.386 . S
C876 C878 1.391 . S
C877 C876 1.386 . S
C877 C881 1.393 . S
C878 H870 0.950 . S
C878 C876 1.391 . S
C878 C879 1.400 . S
C879 C878 1.400 . S
C879 C880 1.398 . S
C879 C885 1.491 . S
C880 H871 0.950 . S
C880 C879 1.398 . S
C880 C881 1.391 . S
C881 H869 0.950 . S
C881 C877 1.393 . S
C881 C880 1.391 . S
C882 H872 0.950 . S
C882 C883 1.386 . S
C882 C884 1.391 . S
C883 C882 1.386 . S
C883 C887 1.393 . S
C884 H873 0.950 . S
C884 C882 1.391 . S
C884 C885 1.400 . S
C885 C879 1.491 . S
C885 C884 1.400 . S
C885 C886 1.398 . S
C886 H874 0.950 . S
C886 C885 1.398 . S
C886 C887 1.391 . S
C887 H875 0.950 . S
C887 C883 1.393 . S
C887 C886 1.391 . S
H888 C896 0.950 . S
H889 C901 0.950 . S
H890 C898 0.950 . S
H891 C900 0.950 . S
H892 C902 0.950 . S
H893 C904 0.950 . S
H894 C906 0.950 . S
H895 C907 0.950 . S
C896 H888 0.950 . S
C896 C897 1.386 . S
C896 C898 1.391 . S
C897 C896 1.386 . S
C897 C901 1.393 . S
C898 H890 0.950 . S
C898 C896 1.391 . S
C898 C899 1.400 . S
C899 C898 1.400 . S
C899 C900 1.398 . S
C899 C905 1.491 . S
C900 H891 0.950 . S
C900 C899 1.398 . S
C900 C901 1.391 . S
C901 H889 0.950 . S
C901 C897 1.393 . S
C901 C900 1.391 . S
C902 H892 0.950 . S
C902 C903 1.386 . S
C902 C904 1.391 . S
C903 C902 1.386 . S
C903 C907 1.393 . S
C904 H893 0.950 . S
C904 C902 1.391 . S
C904 C905 1.400 . S
C905 C899 1.491 . S
C905 C904 1.400 . S
C905 C906 1.398 . S
C906 H894 0.950 . S
C906 C905 1.398 . S
C906 C907 1.391 . S
C907 H895 0.950 . S
C907 C903 1.393 . S
C907 C906 1.391 . S
H908 C916 0.950 . S
H909 C921 0.950 . S
H910 C918 0.950 . S
H911 C920 0.950 . S
H912 C922 0.950 . S
H913 C924 0.950 . S
H914 C926 0.950 . S
H915 C927 0.950 . S
C916 H908 0.950 . S
C916 C917 1.386 . S
C916 C918 1.391 . S
C917 C916 1.386 . S
C917 C921 1.393 . S
C918 H910 0.950 . S
C918 C916 1.391 . S
C918 C919 1.400 . S
C919 C918 1.400 . S
C919 C920 1.398 . S
C919 C925 1.491 . S
C920 H911 0.950 . S
C920 C919 1.398 . S
C920 C921 1.391 . S
C921 H909 0.950 . S
C921 C917 1.393 . S
C921 C920 1.391 . S
C922 H912 0.950 . S
C922 C923 1.386 . S
C922 C924 1.391 . S
C923 C922 1.386 . S
C923 C927 1.393 . S
C924 H913 0.950 . S
C924 C922 1.391 . S
C924 C925 1.400 . S
C925 C919 1.491 . S
C925 C924 1.400 . S
C925 C926 1.398 . S
C926 H914 0.950 . S
C926 C925 1.398 . S
C926 C927 1.391 . S
C927 H915 0.950 . S
C927 C923 1.393 . S
C927 C926 1.391 . S
H928 C936 0.950 . S
H929 C941 0.950 . S
H930 C938 0.950 . S
H931 C940 0.950 . S
H932 C942 0.950 . S
H933 C944 0.950 . S
H934 C946 0.950 . S
H935 C947 0.950 . S
C936 H928 0.950 . S
C936 C937 1.386 . S
C936 C938 1.391 . S
C937 C936 1.386 . S
C937 C941 1.393 . S
C938 H930 0.950 . S
C938 C936 1.391 . S
C938 C939 1.400 . S
C939 C938 1.400 . S
C939 C940 1.398 . S
C939 C945 1.491 . S
C940 H931 0.950 . S
C940 C939 1.398 . S
C940 C941 1.391 . S
C941 H929 0.950 . S
C941 C937 1.393 . S
C941 C940 1.391 . S
C942 H932 0.950 . S
C942 C943 1.386 . S
C942 C944 1.391 . S
C943 C942 1.386 . S
C943 C947 1.393 . S
C944 H933 0.950 . S
C944 C942 1.391 . S
C944 C945 1.400 . S
C945 C939 1.491 . S
C945 C944 1.400 . S
C945 C946 1.398 . S
C946 H934 0.950 . S
C946 C945 1.398 . S
C946 C947 1.391 . S
C947 H935 0.950 . S
C947 C943 1.393 . S
C947 C946 1.391 . S
H948 C956 0.950 . S
H949 C961 0.950 . S
H950 C958 0.950 . S
H951 C960 0.950 . S
H952 C962 0.950 . S
H953 C964 0.950 . S
H954 C966 0.950 . S
H955 C967 0.950 . S
C956 H948 0.950 . S
C956 C957 1.386 . S
C956 C958 1.391 . S
C957 C956 1.386 . S
C957 C961 1.393 . S
C958 H950 0.950 . S
C958 C956 1.391 . S
C958 C959 1.400 . S
C959 C958 1.400 . S
C959 C960 1.398 . S
C959 C965 1.491 . S
C960 H951 0.950 . S
C960 C959 1.398 . S
C960 C961 1.391 . S
C961 H949 0.950 . S
C961 C957 1.393 . S
C961 C960 1.391 . S
C962 H952 0.950 . S
C962 C963 1.386 . S
C962 C964 1.391 . S
C963 C962 1.386 . S
C963 C967 1.393 . S
C964 H953 0.950 . S
C964 C962 1.391 . S
C964 C965 1.400 . S
C965 C959 1.491 . S
C965 C964 1.400 . S
C965 C966 1.398 . S
C966 H954 0.950 . S
C966 C965 1.398 . S
C966 C967 1.391 . S
C967 H955 0.950 . S
C967 C963 1.393 . S
C967 C966 1.391 . S
H968 C976 0.950 . S
H969 C981 0.950 . S
H970 C978 0.950 . S
H971 C980 0.950 . S
H972 C982 0.950 . S
H973 C984 0.950 . S
H974 C986 0.950 . S
H975 C987 0.950 . S
C976 H968 0.950 . S
C976 C977 1.386 . S
C976 C978 1.391 . S
C977 C976 1.386 . S
C977 C981 1.393 . S
C978 H970 0.950 . S
C978 C976 1.391 . S
C978 C979 1.400 . S
C979 C978 1.400 . S
C979 C980 1.398 . S
C979 C985 1.491 . S
C980 H971 0.950 . S
C980 C979 1.398 . S
C980 C981 1.391 . S
C981 H969 0.950 . S
C981 C977 1.393 . S
C981 C980 1.391 . S
C982 H972 0.950 . S
C982 C983 1.386 . S
C982 C984 1.391 . S
C983 C982 1.386 . S
C983 C987 1.393 . S
C984 H973 0.950 . S
C984 C982 1.391 . S
C984 C985 1.400 . S
C985 C979 1.491 . S
C985 C984 1.400 . S
C985 C986 1.398 . S
C986 H974 0.950 . S
C986 C985 1.398 . S
C986 C987 1.391 . S
C987 H975 0.950 . S
C987 C983 1.393 . S
C987 C986 1.391 . S
H988 C996 0.950 . S
H989 C1001 0.950 . S
H990 C998 0.950 . S
H991 C1000 0.950 . S
H992 C1002 0.950 . S
H993 C1004 0.950 . S
H994 C1006 0.950 . S
H995 C1007 0.950 . S
C996 H988 0.950 . S
C996 C997 1.386 . S
C996 C998 1.391 . S
C997 C996 1.386 . S
C997 C1001 1.393 . S
C998 H990 0.950 . S
C998 C996 1.391 . S
C998 C999 1.400 . S
C999 C998 1.400 . S
C999 C1000 1.398 . S
C999 C1005 1.491 . S
C1000 H991 0.950 . S
C1000 C999 1.398 . S
C1000 C1001 1.391 . S
C1001 H989 0.950 . S
C1001 C997 1.393 . S
C1001 C1000 1.391 . S
C1002 H992 0.950 . S
C1002 C1003 1.386 . S
C1002 C1004 1.391 . S
C1003 C1002 1.386 . S
C1003 C1007 1.393 . S
C1004 H993 0.950 . S
C1004 C1002 1.391 . S
C1004 C1005 1.400 . S
C1005 C999 1.491 . S
C1005 C1004 1.400 . S
C1005 C1006 1.398 . S
C1006 H994 0.950 . S
C1006 C1005 1.398 . S
C1006 C1007 1.391 . S
C1007 H995 0.950 . S
C1007 C1003 1.393 . S
C1007 C1006 1.391 . S
H1008 C1016 0.950 . S
H1009 C1021 0.950 . S
H1010 C1018 0.950 . S
H1011 C1020 0.950 . S
H1012 C1022 0.950 . S
H1013 C1024 0.950 . S
H1014 C1026 0.950 . S
H1015 C1027 0.950 . S
C1016 H1008 0.950 . S
C1016 C1017 1.386 . S
C1016 C1018 1.391 . S
C1017 C1016 1.386 . S
C1017 C1021 1.393 . S
C1018 H1010 0.950 . S
C1018 C1016 1.391 . S
C1018 C1019 1.400 . S
C1019 C1018 1.400 . S
C1019 C1020 1.398 . S
C1019 C1025 1.491 . S
C1020 H1011 0.950 . S
C1020 C1019 1.398 . S
C1020 C1021 1.391 . S
C1021 H1009 0.950 . S
C1021 C1017 1.393 . S
C1021 C1020 1.391 . S
C1022 H1012 0.950 . S
C1022 C1023 1.386 . S
C1022 C1024 1.391 . S
C1023 C1022 1.386 . S
C1023 C1027 1.393 . S
C1024 H1013 0.950 . S
C1024 C1022 1.391 . S
C1024 C1025 1.400 . S
C1025 C1019 1.491 . S
C1025 C1024 1.400 . S
C1025 C1026 1.398 . S
C1026 H1014 0.950 . S
C1026 C1025 1.398 . S
C1026 C1027 1.391 . S
C1027 H1015 0.950 . S
C1027 C1023 1.393 . S
C1027 C1026 1.391 . S
H1028 C1036 0.950 . S
H1029 C1041 0.950 . S
H1030 C1038 0.950 . S
H1031 C1040 0.950 . S
H1032 C1042 0.950 . S
H1033 C1044 0.950 . S
H1034 C1046 0.950 . S
H1035 C1047 0.950 . S
C1036 H1028 0.950 . S
C1036 C1037 1.386 . S
C1036 C1038 1.391 . S
C1037 C1036 1.386 . S
C1037 C1041 1.393 . S
C1038 H1030 0.950 . S
C1038 C1036 1.391 . S
C1038 C1039 1.400 . S
C1039 C1038 1.400 . S
C1039 C1040 1.398 . S
C1039 C1045 1.491 . S
C1040 H1031 0.950 . S
C1040 C1039 1.398 . S
C1040 C1041 1.391 . S
C1041 H1029 0.950 . S
C1041 C1037 1.393 . S
C1041 C1040 1.391 . S
C1042 H1032 0.950 . S
C1042 C1043 1.386 . S
C1042 C1044 1.391 . S
C1043 C1042 1.386 . S
C1043 C1047 1.393 . S
C1044 H1033 0.950 . S
C1044 C1042 1.391 . S
C1044 C1045 1.400 . S
C1045 C1039 1.491 . S
C1045 C1044 1.400 . S
C1045 C1046 1.398 . S
C1046 H1034 0.950 . S
C1046 C1045 1.398 . S
C1046 C1047 1.391 . S
C1047 H1035 0.950 . S
C1047 C1043 1.393 . S
C1047 C1046 1.391 . S
H1048 C1056 0.950 . S
H1049 C1061 0.950 . S
H1050 C1058 0.950 . S
H1051 C1060 0.950 . S
H1052 C1062 0.950 . S
H1053 C1064 0.950 . S
H1054 C1066 0.950 . S
H1055 C1067 0.950 . S
C1056 H1048 0.950 . S
C1056 C1057 1.386 . S
C1056 C1058 1.391 . S
C1057 C1056 1.386 . S
C1057 C1061 1.393 . S
C1058 H1050 0.950 . S
C1058 C1056 1.391 . S
C1058 C1059 1.400 . S
C1059 C1058 1.400 . S
C1059 C1060 1.398 . S
C1059 C1065 1.491 . S
C1060 H1051 0.950 . S
C1060 C1059 1.398 . S
C1060 C1061 1.391 . S
C1061 H1049 0.950 . S
C1061 C1057 1.393 . S
C1061 C1060 1.391 . S
C1062 H1052 0.950 . S
C1062 C1063 1.386 . S
C1062 C1064 1.391 . S
C1063 C1062 1.386 . S
C1063 C1067 1.393 . S
C1064 H1053 0.950 . S
C1064 C1062 1.391 . S
C1064 C1065 1.400 . S
C1065 C1059 1.491 . S
C1065 C1064 1.400 . S
C1065 C1066 1.398 . S
C1066 H1054 0.950 . S
C1066 C1065 1.398 . S
C1066 C1067 1.391 . S
C1067 H1055 0.950 . S
C1067 C1063 1.393 . S
C1067 C1066 1.391 . S
H1068 C1076 0.950 . S
H1069 C1081 0.950 . S
H1070 C1078 0.950 . S
H1071 C1080 0.950 . S
H1072 C1082 0.950 . S
H1073 C1084 0.950 . S
H1074 C1086 0.950 . S
H1075 C1087 0.950 . S
C1076 H1068 0.950 . S
C1076 C1077 1.386 . S
C1076 C1078 1.391 . S
C1077 C1076 1.386 . S
C1077 C1081 1.393 . S
C1078 H1070 0.950 . S
C1078 C1076 1.391 . S
C1078 C1079 1.400 . S
C1079 C1078 1.400 . S
C1079 C1080 1.398 . S
C1079 C1085 1.491 . S
C1080 H1071 0.950 . S
C1080 C1079 1.398 . S
C1080 C1081 1.391 . S
C1081 H1069 0.950 . S
C1081 C1077 1.393 . S
C1081 C1080 1.391 . S
C1082 H1072 0.950 . S
C1082 C1083 1.386 . S
C1082 C1084 1.391 . S
C1083 C1082 1.386 . S
C1083 C1087 1.393 . S
C1084 H1073 0.950 . S
C1084 C1082 1.391 . S
C1084 C1085 1.400 . S
C1085 C1079 1.491 . S
C1085 C1084 1.400 . S
C1085 C1086 1.398 . S
C1086 H1074 0.950 . S
C1086 C1085 1.398 . S
C1086 C1087 1.391 . S
C1087 H1075 0.950 . S
C1087 C1083 1.393 . S
C1087 C1086 1.391 . S
H1088 C1096 0.950 . S
H1089 C1101 0.950 . S
H1090 C1098 0.950 . S
H1091 C1100 0.950 . S
H1092 C1102 0.950 . S
H1093 C1104 0.950 . S
H1094 C1106 0.950 . S
H1095 C1107 0.950 . S
C1096 H1088 0.950 . S
C1096 C1097 1.386 . S
C1096 C1098 1.391 . S
C1097 C1096 1.386 . S
C1097 C1101 1.393 . S
C1098 H1090 0.950 . S
C1098 C1096 1.391 . S
C1098 C1099 1.400 . S
C1099 C1098 1.400 . S
C1099 C1100 1.398 . S
C1099 C1105 1.491 . S
C1100 H1091 0.950 . S
C1100 C1099 1.398 . S
C1100 C1101 1.391 . S
C1101 H1089 0.950 . S
C1101 C1097 1.393 . S
C1101 C1100 1.391 . S
C1102 H1092 0.950 . S
C1102 C1103 1.386 . S
C1102 C1104 1.391 . S
C1103 C1102 1.386 . S
C1103 C1107 1.393 . S
C1104 H1093 0.950 . S
C1104 C1102 1.391 . S
C1104 C1105 1.400 . S
C1105 C1099 1.491 . S
C1105 C1104 1.400 . S
C1105 C1106 1.398 . S
C1106 H1094 0.950 . S
C1106 C1105 1.398 . S
C1106 C1107 1.391 . S
C1107 H1095 0.950 . S
C1107 C1103 1.393 . S
C1107 C1106 1.391 . S
H1108 C1116 0.950 . S
H1109 C1121 0.950 1_655 S
H1110 C1118 0.950 . S
H1111 C1120 0.950 . S
H1112 C1122 0.950 . S
H1113 C1124 0.950 . S
H1114 C1126 0.950 . S
H1115 C1127 0.950 1_455 S
C1116 H1108 0.950 . S
C1116 C1117 1.386 . S
C1116 C1118 1.391 . S
C1117 C1116 1.386 . S
C1117 C1121 1.393 1_565 S
C1118 H1110 0.950 . S
C1118 C1116 1.391 . S
C1118 C1119 1.400 . S
C1119 C1118 1.400 . S
C1119 C1120 1.398 1_465 S
C1119 C1125 1.491 1_465 S
C1120 H1111 0.950 . S
C1120 C1119 1.398 1_645 S
C1120 C1121 1.391 1_655 S
C1121 H1109 0.950 1_455 S
C1121 C1117 1.393 1_545 S
C1121 C1120 1.391 1_455 S
C1122 H1112 0.950 . S
C1122 C1123 1.386 . S
C1122 C1124 1.391 . S
C1123 C1122 1.386 . S
C1123 C1127 1.393 1_545 S
C1124 H1113 0.950 . S
C1124 C1122 1.391 . S
C1124 C1125 1.400 . S
C1125 C1119 1.491 1_645 S
C1125 C1124 1.400 . S
C1125 C1126 1.398 1_645 S
C1126 H1114 0.950 . S
C1126 C1125 1.398 1_465 S
C1126 C1127 1.391 1_455 S
C1127 H1115 0.950 1_655 S
C1127 C1123 1.393 1_565 S
C1127 C1126 1.391 1_655 S
H1128 C1136 0.950 . S
H1129 C1141 0.950 . S
H1130 C1138 0.950 . S
H1131 C1140 0.950 . S
H1132 C1142 0.950 . S
H1133 C1144 0.950 . S
H1134 C1146 0.950 . S
H1135 C1147 0.950 . S
C1136 H1128 0.950 . S
C1136 C1137 1.386 . S
C1136 C1138 1.391 . S
C1137 C1136 1.386 . S
C1137 C1141 1.393 . S
C1138 H1130 0.950 . S
C1138 C1136 1.391 . S
C1138 C1139 1.400 . S
C1139 C1138 1.400 . S
C1139 C1140 1.398 . S
C1139 C1145 1.491 . S
C1140 H1131 0.950 . S
C1140 C1139 1.398 . S
C1140 C1141 1.391 . S
C1141 H1129 0.950 . S
C1141 C1137 1.393 . S
C1141 C1140 1.391 . S
C1142 H1132 0.950 . S
C1142 C1143 1.386 . S
C1142 C1144 1.391 . S
C1143 C1142 1.386 . S
C1143 C1147 1.393 . S
C1144 H1133 0.950 . S
C1144 C1142 1.391 . S
C1144 C1145 1.400 . S
C1145 C1139 1.491 . S
C1145 C1144 1.400 . S
C1145 C1146 1.398 . S
C1146 H1134 0.950 . S
C1146 C1145 1.398 . S
C1146 C1147 1.391 . S
C1147 H1135 0.950 . S
C1147 C1143 1.393 . S
C1147 C1146 1.391 . S
H1148 C1156 0.950 . S
H1149 C1161 0.950 . S
H1150 C1158 0.950 . S
H1151 C1160 0.950 . S
H1152 C1162 0.950 . S
H1153 C1164 0.950 . S
H1154 C1166 0.950 . S
H1155 C1167 0.950 . S
C1156 H1148 0.950 . S
C1156 C1157 1.386 . S
C1156 C1158 1.391 . S
C1157 C1156 1.386 . S
C1157 C1161 1.393 1_545 S
C1158 H1150 0.950 . S
C1158 C1156 1.391 . S
C1158 C1159 1.400 . S
C1159 C1158 1.400 . S
C1159 C1160 1.398 1_545 S
C1159 C1165 1.491 1_544 S
C1160 H1151 0.950 . S
C1160 C1159 1.398 1_565 S
C1160 C1161 1.391 . S
C1161 H1149 0.950 . S
C1161 C1157 1.393 1_565 S
C1161 C1160 1.391 . S
C1162 H1152 0.950 . S
C1162 C1163 1.386 . S
C1162 C1164 1.391 . S
C1163 C1162 1.386 . S
C1163 C1167 1.393 1_565 S
C1164 H1153 0.950 . S
C1164 C1162 1.391 . S
C1164 C1165 1.400 . S
C1165 C1159 1.491 1_566 S
C1165 C1164 1.400 . S
C1165 C1166 1.398 1_565 S
C1166 H1154 0.950 . S
C1166 C1165 1.398 1_545 S
C1166 C1167 1.391 . S
C1167 H1155 0.950 . S
C1167 C1163 1.393 1_545 S
C1167 C1166 1.391 . S
H1168 C1176 0.950 . S
H1169 C1181 0.950 . S
H1170 C1178 0.950 . S
H1171 C1180 0.950 . S
H1172 C1182 0.950 . S
H1173 C1184 0.950 . S
H1174 C1186 0.950 . S
H1175 C1187 0.950 . S
C1176 H1168 0.950 . S
C1176 C1177 1.386 . S
C1176 C1178 1.391 . S
C1177 C1176 1.386 . S
C1177 C1181 1.393 . S
C1178 H1170 0.950 . S
C1178 C1176 1.391 . S
C1178 C1179 1.400 . S
C1179 C1178 1.400 . S
C1179 C1180 1.398 . S
C1179 C1185 1.491 . S
C1180 H1171 0.950 . S
C1180 C1179 1.398 . S
C1180 C1181 1.391 . S
C1181 H1169 0.950 . S
C1181 C1177 1.393 . S
C1181 C1180 1.391 . S
C1182 H1172 0.950 . S
C1182 C1183 1.386 . S
C1182 C1184 1.391 . S
C1183 C1182 1.386 . S
C1183 C1187 1.393 . S
C1184 H1173 0.950 . S
C1184 C1182 1.391 . S
C1184 C1185 1.400 . S
C1185 C1179 1.491 . S
C1185 C1184 1.400 . S
C1185 C1186 1.398 . S
C1186 H1174 0.950 . S
C1186 C1185 1.398 . S
C1186 C1187 1.391 . S
C1187 H1175 0.950 . S
C1187 C1183 1.393 . S
C1187 C1186 1.391 . S
H1188 C1196 0.950 . S
H1189 C1201 0.950 . S
H1190 C1198 0.950 . S
H1191 C1200 0.950 . S
H1192 C1202 0.950 . S
H1193 C1204 0.950 . S
H1194 C1206 0.950 . S
H1195 C1207 0.950 . S
C1196 H1188 0.950 . S
C1196 C1197 1.386 . S
C1196 C1198 1.391 . S
C1197 C1196 1.386 . S
C1197 C1201 1.393 1_565 S
C1198 H1190 0.950 . S
C1198 C1196 1.391 . S
C1198 C1199 1.400 . S
C1199 C1198 1.400 . S
C1199 C1200 1.398 1_565 S
C1199 C1205 1.491 1_565 S
C1200 H1191 0.950 . S
C1200 C1199 1.398 1_545 S
C1200 C1201 1.391 . S
C1201 H1189 0.950 . S
C1201 C1197 1.393 1_545 S
C1201 C1200 1.391 . S
C1202 H1192 0.950 . S
C1202 C1203 1.386 . S
C1202 C1204 1.391 . S
C1203 C1202 1.386 . S
C1203 C1207 1.393 1_545 S
C1204 H1193 0.950 . S
C1204 C1202 1.391 . S
C1204 C1205 1.400 . S
C1205 C1199 1.491 1_545 S
C1205 C1204 1.400 . S
C1205 C1206 1.398 1_545 S
C1206 H1194 0.950 . S
C1206 C1205 1.398 1_565 S
C1206 C1207 1.391 . S
C1207 H1195 0.950 . S
C1207 C1203 1.393 1_565 S
C1207 C1206 1.391 . S
H1208 C1216 0.950 . S
H1209 C1221 0.950 . S
H1210 C1218 0.950 . S
H1211 C1220 0.950 . S
H1212 C1222 0.950 . S
H1213 C1224 0.950 . S
H1214 C1226 0.950 . S
H1215 C1227 0.950 . S
C1216 H1208 0.950 . S
C1216 C1217 1.386 . S
C1216 C1218 1.391 . S
C1217 C1216 1.386 . S
C1217 C1221 1.393 . S
C1218 H1210 0.950 . S
C1218 C1216 1.391 . S
C1218 C1219 1.400 . S
C1219 C1218 1.400 . S
C1219 C1220 1.398 . S
C1219 C1225 1.491 . S
C1220 H1211 0.950 . S
C1220 C1219 1.398 . S
C1220 C1221 1.391 . S
C1221 H1209 0.950 . S
C1221 C1217 1.393 . S
C1221 C1220 1.391 . S
C1222 H1212 0.950 . S
C1222 C1223 1.386 . S
C1222 C1224 1.391 . S
C1223 C1222 1.386 . S
C1223 C1227 1.393 . S
C1224 H1213 0.950 . S
C1224 C1222 1.391 . S
C1224 C1225 1.400 . S
C1225 C1219 1.491 . S
C1225 C1224 1.400 . S
C1225 C1226 1.398 . S
C1226 H1214 0.950 . S
C1226 C1225 1.398 . S
C1226 C1227 1.391 . S
C1227 H1215 0.950 . S
C1227 C1223 1.393 . S
C1227 C1226 1.391 . S
H1228 C1236 0.950 . S
H1229 C1241 0.950 1_655 S
H1230 C1238 0.950 . S
H1231 C1240 0.950 . S
H1232 C1242 0.950 . S
H1233 C1244 0.950 . S
H1234 C1246 0.950 . S
H1235 C1247 0.950 1_455 S
C1236 H1228 0.950 . S
C1236 C1237 1.386 . S
C1236 C1238 1.391 . S
C1237 C1236 1.386 . S
C1237 C1241 1.393 1_545 S
C1238 H1230 0.950 . S
C1238 C1236 1.391 . S
C1238 C1239 1.400 . S
C1239 C1238 1.400 . S
C1239 C1240 1.398 1_445 S
C1239 C1245 1.491 1_446 S
C1240 H1231 0.950 . S
C1240 C1239 1.398 1_665 S
C1240 C1241 1.391 1_655 S
C1241 H1229 0.950 1_455 S
C1241 C1237 1.393 1_565 S
C1241 C1240 1.391 1_455 S
C1242 H1232 0.950 . S
C1242 C1243 1.386 . S
C1242 C1244 1.391 . S
C1243 C1242 1.386 . S
C1243 C1247 1.393 1_565 S
C1244 H1233 0.950 . S
C1244 C1242 1.391 . S
C1244 C1245 1.400 . S
C1245 C1239 1.491 1_664 S
C1245 C1244 1.400 . S
C1245 C1246 1.398 1_665 S
C1246 H1234 0.950 . S
C1246 C1245 1.398 1_445 S
C1246 C1247 1.391 1_455 S
C1247 H1235 0.950 1_655 S
C1247 C1243 1.393 1_545 S
C1247 C1246 1.391 1_655 S
H1248 C1256 0.950 . S
H1249 C1261 0.950 . S
H1250 C1258 0.950 . S
H1251 C1260 0.950 . S
H1252 C1262 0.950 . S
H1253 C1264 0.950 . S
H1254 C1266 0.950 . S
H1255 C1267 0.950 . S
C1256 H1248 0.950 . S
C1256 C1257 1.386 . S
C1256 C1258 1.391 . S
C1257 C1256 1.386 . S
C1257 C1261 1.393 . S
C1258 H1250 0.950 . S
C1258 C1256 1.391 . S
C1258 C1259 1.400 . S
C1259 C1258 1.400 . S
C1259 C1260 1.398 . S
C1259 C1265 1.491 . S
C1260 H1251 0.950 . S
C1260 C1259 1.398 . S
C1260 C1261 1.391 . S
C1261 H1249 0.950 . S
C1261 C1257 1.393 . S
C1261 C1260 1.391 . S
C1262 H1252 0.950 . S
C1262 C1263 1.386 . S
C1262 C1264 1.391 . S
C1263 C1262 1.386 . S
C1263 C1267 1.393 . S
C1264 H1253 0.950 . S
C1264 C1262 1.391 . S
C1264 C1265 1.400 . S
C1265 C1259 1.491 . S
C1265 C1264 1.400 . S
C1265 C1266 1.398 . S
C1266 H1254 0.950 . S
C1266 C1265 1.398 . S
C1266 C1267 1.391 . S
C1267 H1255 0.950 . S
C1267 C1263 1.393 . S
C1267 C1266 1.391 . S
H1268 C1276 0.950 . S
H1269 C1281 0.950 . S
H1270 C1278 0.950 . S
H1271 C1280 0.950 . S
H1272 C1282 0.950 . S
H1273 C1284 0.950 . S
H1274 C1286 0.950 . S
H1275 C1287 0.950 . S
C1276 H1268 0.950 . S
C1276 C1277 1.386 . S
C1276 C1278 1.391 . S
C1277 C1276 1.386 . S
C1277 C1281 1.393 . S
C1278 H1270 0.950 . S
C1278 C1276 1.391 . S
C1278 C1279 1.400 . S
C1279 C1278 1.400 . S
C1279 C1280 1.398 . S
C1279 C1285 1.491 . S
C1280 H1271 0.950 . S
C1280 C1279 1.398 . S
C1280 C1281 1.391 . S
C1281 H1269 0.950 . S
C1281 C1277 1.393 . S
C1281 C1280 1.391 . S
C1282 H1272 0.950 . S
C1282 C1283 1.386 . S
C1282 C1284 1.391 . S
C1283 C1282 1.386 . S
C1283 C1287 1.393 . S
C1284 H1273 0.950 . S
C1284 C1282 1.391 . S
C1284 C1285 1.400 . S
C1285 C1279 1.491 . S
C1285 C1284 1.400 . S
C1285 C1286 1.398 . S
C1286 H1274 0.950 . S
C1286 C1285 1.398 . S
C1286 C1287 1.391 . S
C1287 H1275 0.950 . S
C1287 C1283 1.393 . S
C1287 C1286 1.391 . S
H1288 C1296 0.950 . S
H1289 C1301 0.950 . S
H1290 C1298 0.950 . S
H1291 C1300 0.950 . S
H1292 C1302 0.950 . S
H1293 C1304 0.950 . S
H1294 C1306 0.950 . S
H1295 C1307 0.950 . S
C1296 H1288 0.950 . S
C1296 C1297 1.386 . S
C1296 C1298 1.391 . S
C1297 C1296 1.386 . S
C1297 C1301 1.393 . S
C1298 H1290 0.950 . S
C1298 C1296 1.391 . S
C1298 C1299 1.400 . S
C1299 C1298 1.400 . S
C1299 C1300 1.398 . S
C1299 C1305 1.491 . S
C1300 H1291 0.950 . S
C1300 C1299 1.398 . S
C1300 C1301 1.391 . S
C1301 H1289 0.950 . S
C1301 C1297 1.393 . S
C1301 C1300 1.391 . S
C1302 H1292 0.950 . S
C1302 C1303 1.386 . S
C1302 C1304 1.391 . S
C1303 C1302 1.386 . S
C1303 C1307 1.393 . S
C1304 H1293 0.950 . S
C1304 C1302 1.391 . S
C1304 C1305 1.400 . S
C1305 C1299 1.491 . S
C1305 C1304 1.400 . S
C1305 C1306 1.398 . S
C1306 H1294 0.950 . S
C1306 C1305 1.398 . S
C1306 C1307 1.391 . S
C1307 H1295 0.950 . S
C1307 C1303 1.393 . S
C1307 C1306 1.391 . S
H1308 C1316 0.950 . S
H1309 C1321 0.950 . S
H1310 C1318 0.950 . S
H1311 C1320 0.950 . S
H1312 C1322 0.950 . S
H1313 C1324 0.950 . S
H1314 C1326 0.950 . S
H1315 C1327 0.950 . S
C1316 H1308 0.950 . S
C1316 C1317 1.386 . S
C1316 C1318 1.391 . S
C1317 C1316 1.386 . S
C1317 C1321 1.393 . S
C1318 H1310 0.950 . S
C1318 C1316 1.391 . S
C1318 C1319 1.400 . S
C1319 C1318 1.400 . S
C1319 C1320 1.398 . S
C1319 C1325 1.491 . S
C1320 H1311 0.950 . S
C1320 C1319 1.398 . S
C1320 C1321 1.391 . S
C1321 H1309 0.950 . S
C1321 C1317 1.393 . S
C1321 C1320 1.391 . S
C1322 H1312 0.950 . S
C1322 C1323 1.386 . S
C1322 C1324 1.391 . S
C1323 C1322 1.386 . S
C1323 C1327 1.393 . S
C1324 H1313 0.950 . S
C1324 C1322 1.391 . S
C1324 C1325 1.400 . S
C1325 C1319 1.491 . S
C1325 C1324 1.400 . S
C1325 C1326 1.398 . S
C1326 H1314 0.950 . S
C1326 C1325 1.398 . S
C1326 C1327 1.391 . S
C1327 H1315 0.950 . S
C1327 C1323 1.393 . S
C1327 C1326 1.391 . S
H1328 C1336 0.950 . S
H1329 C1341 0.950 . S
H1330 C1338 0.950 . S
H1331 C1340 0.950 . S
H1332 C1342 0.950 . S
H1333 C1344 0.950 . S
H1334 C1346 0.950 . S
H1335 C1347 0.950 . S
C1336 H1328 0.950 . S
C1336 C1337 1.386 . S
C1336 C1338 1.391 . S
C1337 C1336 1.386 . S
C1337 C1341 1.393 . S
C1338 H1330 0.950 . S
C1338 C1336 1.391 . S
C1338 C1339 1.400 . S
C1339 C1338 1.400 . S
C1339 C1340 1.398 . S
C1339 C1345 1.491 1_554 S
C1340 H1331 0.950 . S
C1340 C1339 1.398 . S
C1340 C1341 1.391 . S
C1341 H1329 0.950 . S
C1341 C1337 1.393 . S
C1341 C1340 1.391 . S
C1342 H1332 0.950 . S
C1342 C1343 1.386 . S
C1342 C1344 1.391 . S
C1343 C1342 1.386 . S
C1343 C1347 1.393 . S
C1344 H1333 0.950 . S
C1344 C1342 1.391 . S
C1344 C1345 1.400 . S
C1345 C1339 1.491 1_556 S
C1345 C1344 1.400 . S
C1345 C1346 1.398 . S
C1346 H1334 0.950 . S
C1346 C1345 1.398 . S
C1346 C1347 1.391 . S
C1347 H1335 0.950 . S
C1347 C1343 1.393 . S
C1347 C1346 1.391 . S
H1348 C1356 0.950 . S
H1349 C1361 0.950 . S
H1350 C1358 0.950 1_655 S
H1351 C1360 0.950 . S
H1352 C1362 0.950 . S
H1353 C1364 0.950 1_455 S
H1354 C1366 0.950 . S
H1355 C1367 0.950 . S
C1356 H1348 0.950 . S
C1356 C1357 1.386 . S
C1356 C1358 1.391 . S
C1357 C1356 1.386 . S
C1357 C1361 1.393 . S
C1358 H1350 0.950 1_455 S
C1358 C1356 1.391 . S
C1358 C1359 1.400 . S
C1359 C1358 1.400 . S
C1359 C1360 1.398 . S
C1359 C1365 1.491 1_455 S
C1360 H1351 0.950 . S
C1360 C1359 1.398 . S
C1360 C1361 1.391 . S
C1361 H1349 0.950 . S
C1361 C1357 1.393 . S
C1361 C1360 1.391 . S
C1362 H1352 0.950 . S
C1362 C1363 1.386 . S
C1362 C1364 1.391 . S
C1363 C1362 1.386 . S
C1363 C1367 1.393 . S
C1364 H1353 0.950 1_655 S
C1364 C1362 1.391 . S
C1364 C1365 1.400 . S
C1365 C1359 1.491 1_655 S
C1365 C1364 1.400 . S
C1365 C1366 1.398 . S
C1366 H1354 0.950 . S
C1366 C1365 1.398 . S
C1366 C1367 1.391 . S
C1367 H1355 0.950 . S
C1367 C1363 1.393 . S
C1367 C1366 1.391 . S
H1368 C1376 0.950 . S
H1369 C1381 0.957 . S
H1370 C1378 0.950 . S
H1371 C1380 0.950 . S
H1372 C1382 0.950 . S
H1373 C1384 0.950 . S
H1374 C1386 0.950 . S
H1375 C1387 0.957 . S
C1376 H1368 0.950 . S
C1376 C1377 1.386 . S
C1376 C1378 1.391 . S
C1377 C1376 1.386 . S
C1377 C1381 1.393 . S
C1378 H1370 0.950 . S
C1378 C1376 1.391 . S
C1378 C1379 1.400 . S
C1379 C1378 1.400 . S
C1379 C1380 1.398 1_455 S
C1379 C1385 1.491 1_454 S
C1380 H1371 0.950 . S
C1380 C1379 1.398 1_655 S
C1380 C1381 1.391 1_655 S
C1381 H1369 0.957 . S
C1381 C1377 1.393 . S
C1381 C1380 1.391 1_455 S
C1382 H1372 0.950 . S
C1382 C1383 1.386 . S
C1382 C1384 1.391 . S
C1383 C1382 1.386 . S
C1383 C1387 1.393 . S
C1384 H1373 0.950 . S
C1384 C1382 1.391 . S
C1384 C1385 1.400 . S
C1385 C1379 1.491 1_656 S
C1385 C1384 1.400 . S
C1385 C1386 1.398 1_655 S
C1386 H1374 0.950 . S
C1386 C1385 1.398 1_455 S
C1386 C1387 1.391 1_455 S
C1387 H1375 0.957 . S
C1387 C1383 1.393 . S
C1387 C1386 1.391 1_655 S
H1388 C1396 0.950 . S
H1389 C1401 0.950 . S
H1390 C1398 0.950 . S
H1391 C1400 0.950 . S
H1392 C1402 0.950 . S
H1393 C1404 0.950 . S
H1394 C1406 0.950 . S
H1395 C1407 0.950 . S
C1396 H1388 0.950 . S
C1396 C1397 1.386 . S
C1396 C1398 1.391 . S
C1397 C1396 1.386 . S
C1397 C1401 1.393 . S
C1398 H1390 0.950 . S
C1398 C1396 1.391 . S
C1398 C1399 1.400 . S
C1399 C1398 1.400 . S
C1399 C1400 1.398 . S
C1399 C1405 1.491 . S
C1400 H1391 0.950 . S
C1400 C1399 1.398 . S
C1400 C1401 1.391 . S
C1401 H1389 0.950 . S
C1401 C1397 1.393 . S
C1401 C1400 1.391 . S
C1402 H1392 0.950 . S
C1402 C1403 1.386 . S
C1402 C1404 1.391 . S
C1403 C1402 1.386 . S
C1403 C1407 1.393 . S
C1404 H1393 0.950 . S
C1404 C1402 1.391 . S
C1404 C1405 1.400 . S
C1405 C1399 1.491 . S
C1405 C1404 1.400 . S
C1405 C1406 1.398 . S
C1406 H1394 0.950 . S
C1406 C1405 1.398 . S
C1406 C1407 1.391 . S
C1407 H1395 0.950 . S
C1407 C1403 1.393 . S
C1407 C1406 1.391 . S
H1408 C1416 0.950 . S
H1409 C1421 0.950 . S
H1410 C1418 0.950 . S
H1411 C1420 0.950 . S
H1412 C1422 0.950 . S
H1413 C1424 0.950 . S
H1414 C1426 0.950 . S
H1415 C1427 0.950 . S
C1416 H1408 0.950 . S
C1416 C1417 1.386 . S
C1416 C1418 1.391 . S
C1417 C1416 1.386 . S
C1417 C1421 1.393 . S
C1418 H1410 0.950 . S
C1418 C1416 1.391 . S
C1418 C1419 1.400 . S
C1419 C1418 1.400 . S
C1419 C1420 1.398 . S
C1419 C1425 1.491 . S
C1420 H1411 0.950 . S
C1420 C1419 1.398 . S
C1420 C1421 1.391 . S
C1421 H1409 0.950 . S
C1421 C1417 1.393 . S
C1421 C1420 1.391 . S
C1422 H1412 0.950 . S
C1422 C1423 1.386 . S
C1422 C1424 1.391 . S
C1423 C1422 1.386 . S
C1423 C1427 1.393 . S
C1424 H1413 0.950 . S
C1424 C1422 1.391 . S
C1424 C1425 1.400 . S
C1425 C1419 1.491 . S
C1425 C1424 1.400 . S
C1425 C1426 1.398 . S
C1426 H1414 0.950 . S
C1426 C1425 1.398 . S
C1426 C1427 1.391 . S
C1427 H1415 0.950 . S
C1427 C1423 1.393 . S
C1427 C1426 1.391 . S
H1428 C1436 0.950 . S
H1429 C1441 0.950 . S
H1430 C1438 0.950 . S
H1431 C1440 0.950 . S
H1432 C1442 0.950 . S
H1433 C1444 0.950 . S
H1434 C1446 0.950 . S
H1435 C1447 0.950 . S
C1436 H1428 0.950 . S
C1436 C1437 1.386 . S
C1436 C1438 1.391 . S
C1437 C1436 1.386 . S
C1437 C1441 1.393 . S
C1438 H1430 0.950 . S
C1438 C1436 1.391 . S
C1438 C1439 1.400 . S
C1439 C1438 1.400 . S
C1439 C1440 1.398 . S
C1439 C1445 1.491 . S
C1440 H1431 0.950 . S
C1440 C1439 1.398 . S
C1440 C1441 1.391 . S
C1441 H1429 0.950 . S
C1441 C1437 1.393 . S
C1441 C1440 1.391 . S
C1442 H1432 0.950 . S
C1442 C1443 1.386 . S
C1442 C1444 1.391 . S
C1443 C1442 1.386 . S
C1443 C1447 1.393 . S
C1444 H1433 0.950 . S
C1444 C1442 1.391 . S
C1444 C1445 1.400 . S
C1445 C1439 1.491 . S
C1445 C1444 1.400 . S
C1445 C1446 1.398 . S
C1446 H1434 0.950 . S
C1446 C1445 1.398 . S
C1446 C1447 1.391 . S
C1447 H1435 0.950 . S
C1447 C1443 1.393 . S
C1447 C1446 1.391 . S
H1448 C1456 0.950 . S
H1449 C1461 0.950 . S
H1450 C1458 0.950 . S
H1451 C1460 0.950 . S
H1452 C1462 0.950 . S
H1453 C1464 0.950 . S
H1454 C1466 0.950 . S
H1455 C1467 0.950 . S
C1456 H1448 0.950 . S
C1456 C1457 1.386 . S
C1456 C1458 1.391 . S
C1457 C1456 1.386 . S
C1457 C1461 1.393 . S
C1458 H1450 0.950 . S
C1458 C1456 1.391 . S
C1458 C1459 1.400 . S
C1459 C1458 1.400 . S
C1459 C1460 1.398 . S
C1459 C1465 1.491 . S
C1460 H1451 0.950 . S
C1460 C1459 1.398 . S
C1460 C1461 1.391 . S
C1461 H1449 0.950 . S
C1461 C1457 1.393 . S
C1461 C1460 1.391 . S
C1462 H1452 0.950 . S
C1462 C1463 1.386 . S
C1462 C1464 1.391 . S
C1463 C1462 1.386 . S
C1463 C1467 1.393 . S
C1464 H1453 0.950 . S
C1464 C1462 1.391 . S
C1464 C1465 1.400 . S
C1465 C1459 1.491 . S
C1465 C1464 1.400 . S
C1465 C1466 1.398 . S
C1466 H1454 0.950 . S
C1466 C1465 1.398 . S
C1466 C1467 1.391 . S
C1467 H1455 0.950 . S
C1467 C1463 1.393 . S
C1467 C1466 1.391 . S
H1468 C1476 0.950 . S
H1469 C1481 0.950 . S
H1470 C1478 0.950 . S
H1471 C1480 0.950 . S
H1472 C1482 0.950 . S
H1473 C1484 0.950 . S
H1474 C1486 0.950 . S
H1475 C1487 0.950 . S
C1476 H1468 0.950 . S
C1476 C1477 1.386 . S
C1476 C1478 1.391 . S
C1477 C1476 1.386 . S
C1477 C1481 1.393 . S
C1478 H1470 0.950 . S
C1478 C1476 1.391 . S
C1478 C1479 1.400 . S
C1479 C1478 1.400 . S
C1479 C1480 1.398 . S
C1479 C1485 1.491 . S
C1480 H1471 0.950 . S
C1480 C1479 1.398 . S
C1480 C1481 1.391 . S
C1481 H1469 0.950 . S
C1481 C1477 1.393 . S
C1481 C1480 1.391 . S
C1482 H1472 0.950 . S
C1482 C1483 1.386 . S
C1482 C1484 1.391 . S
C1483 C1482 1.386 . S
C1483 C1487 1.393 . S
C1484 H1473 0.950 . S
C1484 C1482 1.391 . S
C1484 C1485 1.400 . S
C1485 C1479 1.491 . S
C1485 C1484 1.400 . S
C1485 C1486 1.398 . S
C1486 H1474 0.950 . S
C1486 C1485 1.398 . S
C1486 C1487 1.391 . S
C1487 H1475 0.950 . S
C1487 C1483 1.393 . S
C1487 C1486 1.391 . S
H1488 C1496 0.950 . S
H1489 C1501 0.950 . S
H1490 C1498 0.950 . S
H1491 C1500 0.950 . S
H1492 C1502 0.950 . S
H1493 C1504 0.950 . S
H1494 C1506 0.950 . S
H1495 C1507 0.950 . S
C1496 H1488 0.950 . S
C1496 C1497 1.386 . S
C1496 C1498 1.391 . S
C1497 C1496 1.386 . S
C1497 C1501 1.393 . S
C1498 H1490 0.950 . S
C1498 C1496 1.391 . S
C1498 C1499 1.400 . S
C1499 C1498 1.400 . S
C1499 C1500 1.398 . S
C1499 C1505 1.491 . S
C1500 H1491 0.950 . S
C1500 C1499 1.398 . S
C1500 C1501 1.391 . S
C1501 H1489 0.950 . S
C1501 C1497 1.393 . S
C1501 C1500 1.391 . S
C1502 H1492 0.950 . S
C1502 C1503 1.386 . S
C1502 C1504 1.391 . S
C1503 C1502 1.386 . S
C1503 C1507 1.393 . S
C1504 H1493 0.950 . S
C1504 C1502 1.391 . S
C1504 C1505 1.400 . S
C1505 C1499 1.491 . S
C1505 C1504 1.400 . S
C1505 C1506 1.398 . S
C1506 H1494 0.950 . S
C1506 C1505 1.398 . S
C1506 C1507 1.391 . S
C1507 H1495 0.950 . S
C1507 C1503 1.393 . S
C1507 C1506 1.391 . S
H1508 C1516 0.950 . S
H1509 C1521 0.950 . S
H1510 C1518 0.950 . S
H1511 C1520 0.950 . S
H1512 C1522 0.950 . S
H1513 C1524 0.950 . S
H1514 C1526 0.950 . S
H1515 C1527 0.950 . S
C1516 H1508 0.950 . S
C1516 C1517 1.386 . S
C1516 C1518 1.391 . S
C1517 C1516 1.386 . S
C1517 C1521 1.393 . S
C1518 H1510 0.950 . S
C1518 C1516 1.391 . S
C1518 C1519 1.400 . S
C1519 C1518 1.400 . S
C1519 C1520 1.398 . S
C1519 C1525 1.491 . S
C1520 H1511 0.950 . S
C1520 C1519 1.398 . S
C1520 C1521 1.391 . S
C1521 H1509 0.950 . S
C1521 C1517 1.393 . S
C1521 C1520 1.391 . S
C1522 H1512 0.950 . S
C1522 C1523 1.386 . S
C1522 C1524 1.391 . S
C1523 C1522 1.386 . S
C1523 C1527 1.393 . S
C1524 H1513 0.950 . S
C1524 C1522 1.391 . S
C1524 C1525 1.400 . S
C1525 C1519 1.491 . S
C1525 C1524 1.400 . S
C1525 C1526 1.398 . S
C1526 H1514 0.950 . S
C1526 C1525 1.398 . S
C1526 C1527 1.391 . S
C1527 H1515 0.950 . S
C1527 C1523 1.393 . S
C1527 C1526 1.391 . S
H1528 C1536 0.950 . S
H1529 C1541 0.950 . S
H1530 C1538 0.950 . S
H1531 C1540 0.950 . S
H1532 C1542 0.950 . S
H1533 C1544 0.950 . S
H1534 C1546 0.950 . S
H1535 C1547 0.950 . S
C1536 H1528 0.950 . S
C1536 C1537 1.386 . S
C1536 C1538 1.391 . S
C1537 C1536 1.386 . S
C1537 C1541 1.393 . S
C1538 H1530 0.950 . S
C1538 C1536 1.391 . S
C1538 C1539 1.400 . S
C1539 C1538 1.400 . S
C1539 C1540 1.398 . S
C1539 C1545 1.491 . S
C1540 H1531 0.950 . S
C1540 C1539 1.398 . S
C1540 C1541 1.391 . S
C1541 H1529 0.950 . S
C1541 C1537 1.393 . S
C1541 C1540 1.391 . S
C1542 H1532 0.950 . S
C1542 C1543 1.386 . S
C1542 C1544 1.391 . S
C1543 C1542 1.386 . S
C1543 C1547 1.393 . S
C1544 H1533 0.950 . S
C1544 C1542 1.391 . S
C1544 C1545 1.400 . S
C1545 C1539 1.491 . S
C1545 C1544 1.400 . S
C1545 C1546 1.398 . S
C1546 H1534 0.950 . S
C1546 C1545 1.398 . S
C1546 C1547 1.391 . S
C1547 H1535 0.950 . S
C1547 C1543 1.393 . S
C1547 C1546 1.391 . S
H1548 C1556 0.950 . S
H1549 C1561 0.950 . S
H1550 C1558 0.950 . S
H1551 C1560 0.950 . S
H1552 C1562 0.950 . S
H1553 C1564 0.950 . S
H1554 C1566 0.950 . S
H1555 C1567 0.950 . S
C1556 H1548 0.950 . S
C1556 C1557 1.386 . S
C1556 C1558 1.391 . S
C1557 C1556 1.386 . S
C1557 C1561 1.393 . S
C1558 H1550 0.950 . S
C1558 C1556 1.391 . S
C1558 C1559 1.400 . S
C1559 C1558 1.400 . S
C1559 C1560 1.398 . S
C1559 C1565 1.491 . S
C1560 H1551 0.950 . S
C1560 C1559 1.398 . S
C1560 C1561 1.391 . S
C1561 H1549 0.950 . S
C1561 C1557 1.393 . S
C1561 C1560 1.391 . S
C1562 H1552 0.950 . S
C1562 C1563 1.386 . S
C1562 C1564 1.391 . S
C1563 C1562 1.386 . S
C1563 C1567 1.393 . S
C1564 H1553 0.950 . S
C1564 C1562 1.391 . S
C1564 C1565 1.400 . S
C1565 C1559 1.491 . S
C1565 C1564 1.400 . S
C1565 C1566 1.398 . S
C1566 H1554 0.950 . S
C1566 C1565 1.398 . S
C1566 C1567 1.391 . S
C1567 H1555 0.950 . S
C1567 C1563 1.393 . S
C1567 C1566 1.391 . S
H1568 C1576 0.950 . S
H1569 C1581 0.950 . S
H1570 C1578 0.950 . S
H1571 C1580 0.950 . S
H1572 C1582 0.950 . S
H1573 C1584 0.950 . S
H1574 C1586 0.950 . S
H1575 C1587 0.950 . S
C1576 H1568 0.950 . S
C1576 C1577 1.386 . S
C1576 C1578 1.391 . S
C1577 C1576 1.386 . S
C1577 C1581 1.393 . S
C1578 H1570 0.950 . S
C1578 C1576 1.391 . S
C1578 C1579 1.400 . S
C1579 C1578 1.400 . S
C1579 C1580 1.398 . S
C1579 C1585 1.491 . S
C1580 H1571 0.950 . S
C1580 C1579 1.398 . S
C1580 C1581 1.391 . S
C1581 H1569 0.950 . S
C1581 C1577 1.393 . S
C1581 C1580 1.391 . S
C1582 H1572 0.950 . S
C1582 C1583 1.386 . S
C1582 C1584 1.391 . S
C1583 C1582 1.386 . S
C1583 C1587 1.393 . S
C1584 H1573 0.950 . S
C1584 C1582 1.391 . S
C1584 C1585 1.400 . S
C1585 C1579 1.491 . S
C1585 C1584 1.400 . S
C1585 C1586 1.398 . S
C1586 H1574 0.950 . S
C1586 C1585 1.398 . S
C1586 C1587 1.391 . S
C1587 H1575 0.950 . S
C1587 C1583 1.393 . S
C1587 C1586 1.391 . S
H1588 C1596 0.950 . S
H1589 C1601 0.950 . S
H1590 C1598 0.950 . S
H1591 C1600 0.950 . S
H1592 C1602 0.950 . S
H1593 C1604 0.950 . S
H1594 C1606 0.950 . S
H1595 C1607 0.950 . S
C1596 H1588 0.950 . S
C1596 C1597 1.386 . S
C1596 C1598 1.391 . S
C1597 C1596 1.386 . S
C1597 C1601 1.393 . S
C1598 H1590 0.950 . S
C1598 C1596 1.391 . S
C1598 C1599 1.400 . S
C1599 C1598 1.400 . S
C1599 C1600 1.398 . S
C1599 C1605 1.491 . S
C1600 H1591 0.950 . S
C1600 C1599 1.398 . S
C1600 C1601 1.391 . S
C1601 H1589 0.950 . S
C1601 C1597 1.393 . S
C1601 C1600 1.391 . S
C1602 H1592 0.950 . S
C1602 C1603 1.386 . S
C1602 C1604 1.391 . S
C1603 C1602 1.386 . S
C1603 C1607 1.393 . S
C1604 H1593 0.950 . S
C1604 C1602 1.391 . S
C1604 C1605 1.400 . S
C1605 C1599 1.491 . S
C1605 C1604 1.400 . S
C1605 C1606 1.398 . S
C1606 H1594 0.950 . S
C1606 C1605 1.398 . S
C1606 C1607 1.391 . S
C1607 H1595 0.950 . S
C1607 C1603 1.393 . S
C1607 C1606 1.391 . S
H1608 C1616 0.950 . S
H1609 C1621 0.950 . S
H1610 C1618 0.950 . S
H1611 C1620 0.950 . S
H1612 C1622 0.950 . S
H1613 C1624 0.950 . S
H1614 C1626 0.950 . S
H1615 C1627 0.950 . S
C1616 H1608 0.950 . S
C1616 C1617 1.386 . S
C1616 C1618 1.391 . S
C1617 C1616 1.386 . S
C1617 C1621 1.393 . S
C1618 H1610 0.950 . S
C1618 C1616 1.391 . S
C1618 C1619 1.400 . S
C1619 C1618 1.400 . S
C1619 C1620 1.398 . S
C1619 C1625 1.491 . S
C1620 H1611 0.950 . S
C1620 C1619 1.398 . S
C1620 C1621 1.391 . S
C1621 H1609 0.950 . S
C1621 C1617 1.393 . S
C1621 C1620 1.391 . S
C1622 H1612 0.950 . S
C1622 C1623 1.386 . S
C1622 C1624 1.391 . S
C1623 C1622 1.386 . S
C1623 C1627 1.393 . S
C1624 H1613 0.950 . S
C1624 C1622 1.391 . S
C1624 C1625 1.400 . S
C1625 C1619 1.491 . S
C1625 C1624 1.400 . S
C1625 C1626 1.398 . S
C1626 H1614 0.950 . S
C1626 C1625 1.398 . S
C1626 C1627 1.391 . S
C1627 H1615 0.950 . S
C1627 C1623 1.393 . S
C1627 C1626 1.391 . S
H1628 C1636 0.950 . S
H1629 C1641 0.950 . S
H1630 C1638 0.950 . S
H1631 C1640 0.950 . S
H1632 C1642 0.950 . S
H1633 C1644 0.950 . S
H1634 C1646 0.950 . S
H1635 C1647 0.950 . S
C1636 H1628 0.950 . S
C1636 C1637 1.386 . S
C1636 C1638 1.391 . S
C1637 C1636 1.386 . S
C1637 C1641 1.393 . S
C1638 H1630 0.950 . S
C1638 C1636 1.391 . S
C1638 C1639 1.400 . S
C1639 C1638 1.400 . S
C1639 C1640 1.398 . S
C1639 C1645 1.491 . S
C1640 H1631 0.950 . S
C1640 C1639 1.398 . S
C1640 C1641 1.391 . S
C1641 H1629 0.950 . S
C1641 C1637 1.393 . S
C1641 C1640 1.391 . S
C1642 H1632 0.950 . S
C1642 C1643 1.386 . S
C1642 C1644 1.391 . S
C1643 C1642 1.386 . S
C1643 C1647 1.393 . S
C1644 H1633 0.950 . S
C1644 C1642 1.391 . S
C1644 C1645 1.400 . S
C1645 C1639 1.491 . S
C1645 C1644 1.400 . S
C1645 C1646 1.398 . S
C1646 H1634 0.950 . S
C1646 C1645 1.398 . S
C1646 C1647 1.391 . S
C1647 H1635 0.950 . S
C1647 C1643 1.393 . S
C1647 C1646 1.391 . S
H1648 C1656 0.950 . S
H1649 C1661 0.950 . S
H1650 C1658 0.950 . S
H1651 C1660 0.950 . S
H1652 C1662 0.950 . S
H1653 C1664 0.950 . S
H1654 C1666 0.950 . S
H1655 C1667 0.950 . S
C1656 H1648 0.950 . S
C1656 C1657 1.386 . S
C1656 C1658 1.391 . S
C1657 C1656 1.386 . S
C1657 C1661 1.393 . S
C1658 H1650 0.950 . S
C1658 C1656 1.391 . S
C1658 C1659 1.400 . S
C1659 C1658 1.400 . S
C1659 C1660 1.398 . S
C1659 C1665 1.491 . S
C1660 H1651 0.950 . S
C1660 C1659 1.398 . S
C1660 C1661 1.391 . S
C1661 H1649 0.950 . S
C1661 C1657 1.393 . S
C1661 C1660 1.391 . S
C1662 H1652 0.950 . S
C1662 C1663 1.386 . S
C1662 C1664 1.391 . S
C1663 C1662 1.386 . S
C1663 C1667 1.393 . S
C1664 H1653 0.950 . S
C1664 C1662 1.391 . S
C1664 C1665 1.400 . S
C1665 C1659 1.491 . S
C1665 C1664 1.400 . S
C1665 C1666 1.398 . S
C1666 H1654 0.950 . S
C1666 C1665 1.398 . S
C1666 C1667 1.391 . S
C1667 H1655 0.950 . S
C1667 C1663 1.393 . S
C1667 C1666 1.391 . S
H1668 C1676 0.950 . S
H1669 C1681 0.950 . S
H1670 C1678 0.950 . S
H1671 C1680 0.950 . S
H1672 C1682 0.950 . S
H1673 C1684 0.950 . S
H1674 C1686 0.950 . S
H1675 C1687 0.950 . S
C1676 H1668 0.950 . S
C1676 C1677 1.386 . S
C1676 C1678 1.391 . S
C1677 C1676 1.386 . S
C1677 C1681 1.393 . S
C1678 H1670 0.950 . S
C1678 C1676 1.391 . S
C1678 C1679 1.400 . S
C1679 C1678 1.400 . S
C1679 C1680 1.398 . S
C1679 C1685 1.491 . S
C1680 H1671 0.950 . S
C1680 C1679 1.398 . S
C1680 C1681 1.391 . S
C1681 H1669 0.950 . S
C1681 C1677 1.393 . S
C1681 C1680 1.391 . S
C1682 H1672 0.950 . S
C1682 C1683 1.386 . S
C1682 C1684 1.391 . S
C1683 C1682 1.386 . S
C1683 C1687 1.393 . S
C1684 H1673 0.950 . S
C1684 C1682 1.391 . S
C1684 C1685 1.400 . S
C1685 C1679 1.491 . S
C1685 C1684 1.400 . S
C1685 C1686 1.398 . S
C1686 H1674 0.950 . S
C1686 C1685 1.398 . S
C1686 C1687 1.391 . S
C1687 H1675 0.950 . S
C1687 C1683 1.393 . S
C1687 C1686 1.391 . S
H1688 C1696 0.950 . S
H1689 C1701 0.950 . S
H1690 C1698 0.950 . S
H1691 C1700 0.950 . S
H1692 C1702 0.950 . S
H1693 C1704 0.950 . S
H1694 C1706 0.950 . S
H1695 C1707 0.950 . S
C1696 H1688 0.950 . S
C1696 C1697 1.386 . S
C1696 C1698 1.391 . S
C1697 C1696 1.386 . S
C1697 C1701 1.393 . S
C1698 H1690 0.950 . S
C1698 C1696 1.391 . S
C1698 C1699 1.400 . S
C1699 C1698 1.400 . S
C1699 C1700 1.398 . S
C1699 C1705 1.491 . S
C1700 H1691 0.950 . S
C1700 C1699 1.398 . S
C1700 C1701 1.391 . S
C1701 H1689 0.950 . S
C1701 C1697 1.393 . S
C1701 C1700 1.391 . S
C1702 H1692 0.950 . S
C1702 C1703 1.386 . S
C1702 C1704 1.391 . S
C1703 C1702 1.386 . S
C1703 C1707 1.393 . S
C1704 H1693 0.950 . S
C1704 C1702 1.391 . S
C1704 C1705 1.400 . S
C1705 C1699 1.491 . S
C1705 C1704 1.400 . S
C1705 C1706 1.398 . S
C1706 H1694 0.950 . S
C1706 C1705 1.398 . S
C1706 C1707 1.391 . S
C1707 H1695 0.950 . S
C1707 C1703 1.393 . S
C1707 C1706 1.391 . S
H1708 C1716 0.950 . S
H1709 C1721 0.950 . S
H1710 C1718 0.950 . S
H1711 C1720 0.950 . S
H1712 C1722 0.950 . S
H1713 C1724 0.950 . S
H1714 C1726 0.950 . S
H1715 C1727 0.950 . S
C1716 H1708 0.950 . S
C1716 C1717 1.386 . S
C1716 C1718 1.391 . S
C1717 C1716 1.386 . S
C1717 C1721 1.393 . S
C1718 H1710 0.950 . S
C1718 C1716 1.391 . S
C1718 C1719 1.400 . S
C1719 C1718 1.400 . S
C1719 C1720 1.398 . S
C1719 C1725 1.491 . S
C1720 H1711 0.950 . S
C1720 C1719 1.398 . S
C1720 C1721 1.391 . S
C1721 H1709 0.950 . S
C1721 C1717 1.393 . S
C1721 C1720 1.391 . S
C1722 H1712 0.950 . S
C1722 C1723 1.386 . S
C1722 C1724 1.391 . S
C1723 C1722 1.386 . S
C1723 C1727 1.393 . S
C1724 H1713 0.950 . S
C1724 C1722 1.391 . S
C1724 C1725 1.400 . S
C1725 C1719 1.491 . S
C1725 C1724 1.400 . S
C1725 C1726 1.398 . S
C1726 H1714 0.950 . S
C1726 C1725 1.398 . S
C1726 C1727 1.391 . S
C1727 H1715 0.950 . S
C1727 C1723 1.393 . S
C1727 C1726 1.391 . S
C457 C385 1.308 . S
C463 C9 1.286 . S
C477 C23 1.302 1_655 S
C483 C119 1.294 . S
C497 C357 1.290 . S
C503 C37 1.279 . S
C517 C51 1.301 . S
C523 C147 1.299 . S
C537 C65 1.296 . S
C543 C413 1.305 . S
C557 C79 1.285 . S
C563 C203 1.286 . S
C577 C93 1.299 . S
C583 C441 1.286 . S
C597 C107 1.285 1_655 S
C603 C175 1.308 . S
C617 C273 1.294 . S
C623 C121 1.277 . S
C637 C7 1.304 . S
C643 C135 1.296 1_455 S
C657 C245 1.285 . S
C663 C149 1.298 . S
C677 C163 1.292 . S
C683 C35 1.284 . S
C697 C301 1.296 . S
C703 C177 1.302 . S
C717 C91 1.302 . S
C723 C191 1.276 . S
C737 C205 1.292 . S
C743 C329 1.284 . S
C757 C63 1.303 . S
C763 C219 1.277 1_455 S
C777 C233 1.302 . S
C783 C161 1.295 . S
C797 C247 1.280 . S
C803 C343 1.289 . S
C817 C133 1.292 . S
C823 C261 1.302 . S
C837 C371 1.286 . S
C843 C275 1.284 1_455 S
C857 C189 1.304 . S
C863 C289 1.278 . S
C877 C427 1.296 . S
C883 C303 1.302 1_455 S
C897 C217 1.285 . S
C903 C317 1.298 . S
C917 C331 1.278 . S
C923 C399 1.304 . S
C937 C49 1.288 . S
C943 C345 1.301 . S
C957 C359 1.279 . S
C963 C231 1.291 . S
C977 C373 1.289 . S
C983 C21 1.284 . S
C997 C387 1.280 1_655 S
C1003 C259 1.306 . S
C1017 C401 1.277 . S
C1023 C77 1.303 . S
C1037 C415 1.296 1_655 S
C1043 C315 1.304 . S
C1057 C429 1.292 . S
C1063 C105 1.284 . S
C1077 C443 1.301 . S
C1083 C287 1.299 . S
C1097 C339 1.520 . S
C1103 C3 1.520 . S
C1117 C17 1.517 . S
C1123 C129 1.517 . S
C1137 C367 1.520 . S
C1143 C31 1.520 . S
C1157 C45 1.518 . S
C1163 C157 1.518 . S
C1177 C395 1.516 . S
C1183 C59 1.516 . S
C1197 C73 1.516 . S
C1203 C185 1.516 . S
C1217 C423 1.518 . S
C1223 C87 1.518 . S
C1237 C101 1.517 . S
C1243 C213 1.517 . S
C1257 C115 1.517 . S
C1263 C227 1.517 . S
C1277 C143 1.521 . S
C1283 C255 1.521 . S
C1297 C171 1.519 . S
C1303 C283 1.519 . S
C1317 C199 1.521 . S
C1323 C311 1.521 . S
C1337 C241 1.520 . S
C1343 C353 1.520 . S
C1357 C381 1.516 . S
C1363 C269 1.516 . S
C1377 C409 1.517 . S
C1383 C297 1.517 . S
C1397 C325 1.517 . S
C1403 C437 1.517 . S
C1417 C8 1.472 . S
C1423 C78 1.473 . S
C1437 C22 1.473 . S
C1443 C92 1.474 . S
C1457 C36 1.472 . S
C1463 C106 1.473 . S
C1477 C64 1.473 . S
C1483 C50 1.472 . S
C1497 C120 1.471 . S
C1503 C190 1.472 . S
C1517 C134 1.471 . S
C1523 C204 1.472 . S
C1537 C148 1.474 . S
C1543 C218 1.474 . S
C1557 C162 1.472 . S
C1563 C176 1.473 . S
C1577 C232 1.474 . S
C1583 C302 1.474 . S
C1597 C316 1.474 . S
C1603 C246 1.474 . S
C1617 C260 1.474 . S
C1623 C330 1.474 . S
C1637 C274 1.473 . S
C1643 C288 1.472 . S
C1657 C414 1.472 . S
C1663 C344 1.473 . S
C1677 C358 1.473 . S
C1683 C428 1.474 . S
C1697 C442 1.472 . S
C1703 C372 1.473 . S
C1717 C386 1.474 . S
C1723 C400 1.474 . S
