# Generated by pormake.
# Topology ukw, (4)-cn, num edge types: 1
# Building blocks:
#     Node 0, Type 0, BuildingBlock: GALJAG_clean_sbu_0, # of connection points: 4
#     Node 1, Type 0, BuildingBlock: GALJAG_clean_sbu_0, # of connection points: 4
#     Node 2, Type 0, BuildingBlock: GALJAG_clean_sbu_0, # of connection points: 4
#     Node 3, Type 0, BuildingBlock: GALJAG_clean_sbu_0, # of connection points: 4
#     Node 4, Type 0, BuildingBlock: GALJAG_clean_sbu_0, # of connection points: 4
#     Node 5, Type 0, BuildingBlock: GALJAG_clean_sbu_0, # of connection points: 4
#     Node 6, Type 0, BuildingBlock: GALJAG_clean_sbu_0, # of connection points: 4
#     Node 7, Type 0, BuildingBlock: GALJAG_clean_sbu_0, # of connection points: 4
#     Node 8, Type 0, BuildingBlock: GALJAG_clean_sbu_0, # of connection points: 4
#     Node 9, Type 0, BuildingBlock: GALJAG_clean_sbu_0, # of connection points: 4
#     Node 10, Type 0, BuildingBlock: GALJAG_clean_sbu_0, # of connection points: 4
#     Node 11, Type 0, BuildingBlock: GALJAG_clean_sbu_0, # of connection points: 4
#     Node 12, Type 0, BuildingBlock: GALJAG_clean_sbu_0, # of connection points: 4
#     Node 13, Type 0, BuildingBlock: GALJAG_clean_sbu_0, # of connection points: 4
#     Node 14, Type 0, BuildingBlock: GALJAG_clean_sbu_0, # of connection points: 4
#     Node 15, Type 0, BuildingBlock: GALJAG_clean_sbu_0, # of connection points: 4
#     Node 16, Type 0, BuildingBlock: GALJAG_clean_sbu_0, # of connection points: 4
#     Node 17, Type 0, BuildingBlock: GALJAG_clean_sbu_0, # of connection points: 4
#     Node 18, Type 0, BuildingBlock: GALJAG_clean_sbu_0, # of connection points: 4
#     Node 19, Type 0, BuildingBlock: GALJAG_clean_sbu_0, # of connection points: 4
#     Node 20, Type 0, BuildingBlock: GALJAG_clean_sbu_0, # of connection points: 4
#     Node 21, Type 0, BuildingBlock: GALJAG_clean_sbu_0, # of connection points: 4
#     Node 22, Type 0, BuildingBlock: GALJAG_clean_sbu_0, # of connection points: 4
#     Node 23, Type 0, BuildingBlock: GALJAG_clean_sbu_0, # of connection points: 4
#     Node 24, Type 0, BuildingBlock: GALJAG_clean_sbu_0, # of connection points: 4
#     Node 25, Type 0, BuildingBlock: GALJAG_clean_sbu_0, # of connection points: 4
#     Node 26, Type 0, BuildingBlock: GALJAG_clean_sbu_0, # of connection points: 4
#     Node 27, Type 0, BuildingBlock: GALJAG_clean_sbu_0, # of connection points: 4
#     Node 28, Type 0, BuildingBlock: GALJAG_clean_sbu_0, # of connection points: 4
#     Node 29, Type 0, BuildingBlock: GALJAG_clean_sbu_0, # of connection points: 4
#     Node 30, Type 0, BuildingBlock: GALJAG_clean_sbu_0, # of connection points: 4
#     Node 31, Type 0, BuildingBlock: GALJAG_clean_sbu_0, # of connection points: 4
#     Node 32, Type 0, BuildingBlock: GALJAG_clean_sbu_0, # of connection points: 4
#     Node 33, Type 0, BuildingBlock: GALJAG_clean_sbu_0, # of connection points: 4
#     Node 34, Type 0, BuildingBlock: GALJAG_clean_sbu_0, # of connection points: 4
#     Node 35, Type 0, BuildingBlock: GALJAG_clean_sbu_0, # of connection points: 4
#     Node 36, Type 0, BuildingBlock: GALJAG_clean_sbu_0, # of connection points: 4
#     Node 37, Type 0, BuildingBlock: GALJAG_clean_sbu_0, # of connection points: 4
#     Node 38, Type 0, BuildingBlock: GALJAG_clean_sbu_0, # of connection points: 4
#     Node 39, Type 0, BuildingBlock: GALJAG_clean_sbu_0, # of connection points: 4
#     Node 40, Type 0, BuildingBlock: GALJAG_clean_sbu_0, # of connection points: 4
#     Node 41, Type 0, BuildingBlock: GALJAG_clean_sbu_0, # of connection points: 4
#     Node 42, Type 0, BuildingBlock: GALJAG_clean_sbu_0, # of connection points: 4
#     Node 43, Type 0, BuildingBlock: GALJAG_clean_sbu_0, # of connection points: 4
#     Node 44, Type 0, BuildingBlock: GALJAG_clean_sbu_0, # of connection points: 4
#     Node 45, Type 0, BuildingBlock: GALJAG_clean_sbu_0, # of connection points: 4
#     Node 46, Type 0, BuildingBlock: GALJAG_clean_sbu_0, # of connection points: 4
#     Node 47, Type 0, BuildingBlock: GALJAG_clean_sbu_0, # of connection points: 4
#     Node 48, Type 0, BuildingBlock: GALJAG_clean_sbu_0, # of connection points: 4
#     Node 49, Type 0, BuildingBlock: GALJAG_clean_sbu_0, # of connection points: 4
#     Node 50, Type 0, BuildingBlock: GALJAG_clean_sbu_0, # of connection points: 4
#     Node 51, Type 0, BuildingBlock: GALJAG_clean_sbu_0, # of connection points: 4
#     Node 52, Type 0, BuildingBlock: GALJAG_clean_sbu_0, # of connection points: 4
#     Node 53, Type 0, BuildingBlock: GALJAG_clean_sbu_0, # of connection points: 4
#     Node 54, Type 0, BuildingBlock: GALJAG_clean_sbu_0, # of connection points: 4
#     Node 55, Type 0, BuildingBlock: GALJAG_clean_sbu_0, # of connection points: 4
#     Node 56, Type 0, BuildingBlock: GALJAG_clean_sbu_0, # of connection points: 4
#     Node 57, Type 0, BuildingBlock: GALJAG_clean_sbu_0, # of connection points: 4
#     Node 58, Type 0, BuildingBlock: GALJAG_clean_sbu_0, # of connection points: 4
#     Node 59, Type 0, BuildingBlock: GALJAG_clean_sbu_0, # of connection points: 4
#     Node 60, Type 0, BuildingBlock: GALJAG_clean_sbu_0, # of connection points: 4
#     Node 61, Type 0, BuildingBlock: GALJAG_clean_sbu_0, # of connection points: 4
#     Node 62, Type 0, BuildingBlock: GALJAG_clean_sbu_0, # of connection points: 4
#     Node 63, Type 0, BuildingBlock: GALJAG_clean_sbu_0, # of connection points: 4
#     Node 64, Type 0, BuildingBlock: GALJAG_clean_sbu_0, # of connection points: 4
#     Node 65, Type 0, BuildingBlock: GALJAG_clean_sbu_0, # of connection points: 4
#     Node 66, Type 0, BuildingBlock: GALJAG_clean_sbu_0, # of connection points: 4
#     Node 67, Type 0, BuildingBlock: GALJAG_clean_sbu_0, # of connection points: 4
#     Node 68, Type 0, BuildingBlock: GALJAG_clean_sbu_0, # of connection points: 4
#     Node 69, Type 0, BuildingBlock: GALJAG_clean_sbu_0, # of connection points: 4
#     Node 70, Type 0, BuildingBlock: GALJAG_clean_sbu_0, # of connection points: 4
#     Node 71, Type 0, BuildingBlock: GALJAG_clean_sbu_0, # of connection points: 4
#     Node 72, Type 0, BuildingBlock: GALJAG_clean_sbu_0, # of connection points: 4
#     Node 73, Type 0, BuildingBlock: GALJAG_clean_sbu_0, # of connection points: 4
#     Node 74, Type 0, BuildingBlock: GALJAG_clean_sbu_0, # of connection points: 4
#     Node 75, Type 0, BuildingBlock: GALJAG_clean_sbu_0, # of connection points: 4
#     Node 76, Type 0, BuildingBlock: GALJAG_clean_sbu_0, # of connection points: 4
#     Node 77, Type 0, BuildingBlock: GALJAG_clean_sbu_0, # of connection points: 4
#     Node 78, Type 0, BuildingBlock: GALJAG_clean_sbu_0, # of connection points: 4
#     Node 79, Type 0, BuildingBlock: GALJAG_clean_sbu_0, # of connection points: 4
#     Node 80, Type 0, BuildingBlock: GALJAG_clean_sbu_0, # of connection points: 4
#     Node 81, Type 0, BuildingBlock: GALJAG_clean_sbu_0, # of connection points: 4
#     Node 82, Type 0, BuildingBlock: GALJAG_clean_sbu_0, # of connection points: 4
#     Node 83, Type 0, BuildingBlock: GALJAG_clean_sbu_0, # of connection points: 4
#     Node 84, Type 0, BuildingBlock: GALJAG_clean_sbu_0, # of connection points: 4
#     Node 85, Type 0, BuildingBlock: GALJAG_clean_sbu_0, # of connection points: 4
#     Node 86, Type 0, BuildingBlock: GALJAG_clean_sbu_0, # of connection points: 4
#     Node 87, Type 0, BuildingBlock: GALJAG_clean_sbu_0, # of connection points: 4
#     Node 88, Type 0, BuildingBlock: GALJAG_clean_sbu_0, # of connection points: 4
#     Node 89, Type 0, BuildingBlock: GALJAG_clean_sbu_0, # of connection points: 4
#     Node 90, Type 0, BuildingBlock: GALJAG_clean_sbu_0, # of connection points: 4
#     Node 91, Type 0, BuildingBlock: GALJAG_clean_sbu_0, # of connection points: 4
#     Node 92, Type 0, BuildingBlock: GALJAG_clean_sbu_0, # of connection points: 4
#     Node 93, Type 0, BuildingBlock: GALJAG_clean_sbu_0, # of connection points: 4
#     Node 94, Type 0, BuildingBlock: GALJAG_clean_sbu_0, # of connection points: 4
#     Node 95, Type 0, BuildingBlock: GALJAG_clean_sbu_0, # of connection points: 4
#     Edge 96, Type (0, 0), BuildingBlock: KIFKEQ_clean_linker_1, # of connection points: 2
#     Edge 97, Type (0, 0), BuildingBlock: KIFKEQ_clean_linker_1, # of connection points: 2
#     Edge 98, Type (0, 0), BuildingBlock: KIFKEQ_clean_linker_1, # of connection points: 2
#     Edge 99, Type (0, 0), BuildingBlock: KIFKEQ_clean_linker_1, # of connection points: 2
#     Edge 100, Type (0, 0), BuildingBlock: KIFKEQ_clean_linker_1, # of connection points: 2
#     Edge 101, Type (0, 0), BuildingBlock: KIFKEQ_clean_linker_1, # of connection points: 2
#     Edge 102, Type (0, 0), BuildingBlock: KIFKEQ_clean_linker_1, # of connection points: 2
#     Edge 103, Type (0, 0), BuildingBlock: KIFKEQ_clean_linker_1, # of connection points: 2
#     Edge 104, Type (0, 0), BuildingBlock: KIFKEQ_clean_linker_1, # of connection points: 2
#     Edge 105, Type (0, 0), BuildingBlock: KIFKEQ_clean_linker_1, # of connection points: 2
#     Edge 106, Type (0, 0), BuildingBlock: KIFKEQ_clean_linker_1, # of connection points: 2
#     Edge 107, Type (0, 0), BuildingBlock: KIFKEQ_clean_linker_1, # of connection points: 2
#     Edge 108, Type (0, 0), BuildingBlock: KIFKEQ_clean_linker_1, # of connection points: 2
#     Edge 109, Type (0, 0), BuildingBlock: KIFKEQ_clean_linker_1, # of connection points: 2
#     Edge 110, Type (0, 0), BuildingBlock: KIFKEQ_clean_linker_1, # of connection points: 2
#     Edge 111, Type (0, 0), BuildingBlock: KIFKEQ_clean_linker_1, # of connection points: 2
#     Edge 112, Type (0, 0), BuildingBlock: KIFKEQ_clean_linker_1, # of connection points: 2
#     Edge 113, Type (0, 0), BuildingBlock: KIFKEQ_clean_linker_1, # of connection points: 2
#     Edge 114, Type (0, 0), BuildingBlock: KIFKEQ_clean_linker_1, # of connection points: 2
#     Edge 115, Type (0, 0), BuildingBlock: KIFKEQ_clean_linker_1, # of connection points: 2
#     Edge 116, Type (0, 0), BuildingBlock: KIFKEQ_clean_linker_1, # of connection points: 2
#     Edge 117, Type (0, 0), BuildingBlock: KIFKEQ_clean_linker_1, # of connection points: 2
#     Edge 118, Type (0, 0), BuildingBlock: KIFKEQ_clean_linker_1, # of connection points: 2
#     Edge 119, Type (0, 0), BuildingBlock: KIFKEQ_clean_linker_1, # of connection points: 2
#     Edge 120, Type (0, 0), BuildingBlock: KIFKEQ_clean_linker_1, # of connection points: 2
#     Edge 121, Type (0, 0), BuildingBlock: KIFKEQ_clean_linker_1, # of connection points: 2
#     Edge 122, Type (0, 0), BuildingBlock: KIFKEQ_clean_linker_1, # of connection points: 2
#     Edge 123, Type (0, 0), BuildingBlock: KIFKEQ_clean_linker_1, # of connection points: 2
#     Edge 124, Type (0, 0), BuildingBlock: KIFKEQ_clean_linker_1, # of connection points: 2
#     Edge 125, Type (0, 0), BuildingBlock: KIFKEQ_clean_linker_1, # of connection points: 2
#     Edge 126, Type (0, 0), BuildingBlock: KIFKEQ_clean_linker_1, # of connection points: 2
#     Edge 127, Type (0, 0), BuildingBlock: KIFKEQ_clean_linker_1, # of connection points: 2
#     Edge 128, Type (0, 0), BuildingBlock: KIFKEQ_clean_linker_1, # of connection points: 2
#     Edge 129, Type (0, 0), BuildingBlock: KIFKEQ_clean_linker_1, # of connection points: 2
#     Edge 130, Type (0, 0), BuildingBlock: KIFKEQ_clean_linker_1, # of connection points: 2
#     Edge 131, Type (0, 0), BuildingBlock: KIFKEQ_clean_linker_1, # of connection points: 2
#     Edge 132, Type (0, 0), BuildingBlock: KIFKEQ_clean_linker_1, # of connection points: 2
#     Edge 133, Type (0, 0), BuildingBlock: KIFKEQ_clean_linker_1, # of connection points: 2
#     Edge 134, Type (0, 0), BuildingBlock: KIFKEQ_clean_linker_1, # of connection points: 2
#     Edge 135, Type (0, 0), BuildingBlock: KIFKEQ_clean_linker_1, # of connection points: 2
#     Edge 136, Type (0, 0), BuildingBlock: KIFKEQ_clean_linker_1, # of connection points: 2
#     Edge 137, Type (0, 0), BuildingBlock: KIFKEQ_clean_linker_1, # of connection points: 2
#     Edge 138, Type (0, 0), BuildingBlock: KIFKEQ_clean_linker_1, # of connection points: 2
#     Edge 139, Type (0, 0), BuildingBlock: KIFKEQ_clean_linker_1, # of connection points: 2
#     Edge 140, Type (0, 0), BuildingBlock: KIFKEQ_clean_linker_1, # of connection points: 2
#     Edge 141, Type (0, 0), BuildingBlock: KIFKEQ_clean_linker_1, # of connection points: 2
#     Edge 142, Type (0, 0), BuildingBlock: KIFKEQ_clean_linker_1, # of connection points: 2
#     Edge 143, Type (0, 0), BuildingBlock: KIFKEQ_clean_linker_1, # of connection points: 2
#     Edge 144, Type (0, 0), BuildingBlock: KIFKEQ_clean_linker_1, # of connection points: 2
#     Edge 145, Type (0, 0), BuildingBlock: KIFKEQ_clean_linker_1, # of connection points: 2
#     Edge 146, Type (0, 0), BuildingBlock: KIFKEQ_clean_linker_1, # of connection points: 2
#     Edge 147, Type (0, 0), BuildingBlock: KIFKEQ_clean_linker_1, # of connection points: 2
#     Edge 148, Type (0, 0), BuildingBlock: KIFKEQ_clean_linker_1, # of connection points: 2
#     Edge 149, Type (0, 0), BuildingBlock: KIFKEQ_clean_linker_1, # of connection points: 2
#     Edge 150, Type (0, 0), BuildingBlock: KIFKEQ_clean_linker_1, # of connection points: 2
#     Edge 151, Type (0, 0), BuildingBlock: KIFKEQ_clean_linker_1, # of connection points: 2
#     Edge 152, Type (0, 0), BuildingBlock: KIFKEQ_clean_linker_1, # of connection points: 2
#     Edge 153, Type (0, 0), BuildingBlock: KIFKEQ_clean_linker_1, # of connection points: 2
#     Edge 154, Type (0, 0), BuildingBlock: KIFKEQ_clean_linker_1, # of connection points: 2
#     Edge 155, Type (0, 0), BuildingBlock: KIFKEQ_clean_linker_1, # of connection points: 2
#     Edge 156, Type (0, 0), BuildingBlock: KIFKEQ_clean_linker_1, # of connection points: 2
#     Edge 157, Type (0, 0), BuildingBlock: KIFKEQ_clean_linker_1, # of connection points: 2
#     Edge 158, Type (0, 0), BuildingBlock: KIFKEQ_clean_linker_1, # of connection points: 2
#     Edge 159, Type (0, 0), BuildingBlock: KIFKEQ_clean_linker_1, # of connection points: 2
#     Edge 160, Type (0, 0), BuildingBlock: KIFKEQ_clean_linker_1, # of connection points: 2
#     Edge 161, Type (0, 0), BuildingBlock: KIFKEQ_clean_linker_1, # of connection points: 2
#     Edge 162, Type (0, 0), BuildingBlock: KIFKEQ_clean_linker_1, # of connection points: 2
#     Edge 163, Type (0, 0), BuildingBlock: KIFKEQ_clean_linker_1, # of connection points: 2
#     Edge 164, Type (0, 0), BuildingBlock: KIFKEQ_clean_linker_1, # of connection points: 2
#     Edge 165, Type (0, 0), BuildingBlock: KIFKEQ_clean_linker_1, # of connection points: 2
#     Edge 166, Type (0, 0), BuildingBlock: KIFKEQ_clean_linker_1, # of connection points: 2
#     Edge 167, Type (0, 0), BuildingBlock: KIFKEQ_clean_linker_1, # of connection points: 2
#     Edge 168, Type (0, 0), BuildingBlock: KIFKEQ_clean_linker_1, # of connection points: 2
#     Edge 169, Type (0, 0), BuildingBlock: KIFKEQ_clean_linker_1, # of connection points: 2
#     Edge 170, Type (0, 0), BuildingBlock: KIFKEQ_clean_linker_1, # of connection points: 2
#     Edge 171, Type (0, 0), BuildingBlock: KIFKEQ_clean_linker_1, # of connection points: 2
#     Edge 172, Type (0, 0), BuildingBlock: KIFKEQ_clean_linker_1, # of connection points: 2
#     Edge 173, Type (0, 0), BuildingBlock: KIFKEQ_clean_linker_1, # of connection points: 2
#     Edge 174, Type (0, 0), BuildingBlock: KIFKEQ_clean_linker_1, # of connection points: 2
#     Edge 175, Type (0, 0), BuildingBlock: KIFKEQ_clean_linker_1, # of connection points: 2
#     Edge 176, Type (0, 0), BuildingBlock: KIFKEQ_clean_linker_1, # of connection points: 2
#     Edge 177, Type (0, 0), BuildingBlock: KIFKEQ_clean_linker_1, # of connection points: 2
#     Edge 178, Type (0, 0), BuildingBlock: KIFKEQ_clean_linker_1, # of connection points: 2
#     Edge 179, Type (0, 0), BuildingBlock: KIFKEQ_clean_linker_1, # of connection points: 2
#     Edge 180, Type (0, 0), BuildingBlock: KIFKEQ_clean_linker_1, # of connection points: 2
#     Edge 181, Type (0, 0), BuildingBlock: KIFKEQ_clean_linker_1, # of connection points: 2
#     Edge 182, Type (0, 0), BuildingBlock: KIFKEQ_clean_linker_1, # of connection points: 2
#     Edge 183, Type (0, 0), BuildingBlock: KIFKEQ_clean_linker_1, # of connection points: 2
#     Edge 184, Type (0, 0), BuildingBlock: KIFKEQ_clean_linker_1, # of connection points: 2
#     Edge 185, Type (0, 0), BuildingBlock: KIFKEQ_clean_linker_1, # of connection points: 2
#     Edge 186, Type (0, 0), BuildingBlock: KIFKEQ_clean_linker_1, # of connection points: 2
#     Edge 187, Type (0, 0), BuildingBlock: KIFKEQ_clean_linker_1, # of connection points: 2
#     Edge 188, Type (0, 0), BuildingBlock: KIFKEQ_clean_linker_1, # of connection points: 2
#     Edge 189, Type (0, 0), BuildingBlock: KIFKEQ_clean_linker_1, # of connection points: 2
#     Edge 190, Type (0, 0), BuildingBlock: KIFKEQ_clean_linker_1, # of connection points: 2
#     Edge 191, Type (0, 0), BuildingBlock: KIFKEQ_clean_linker_1, # of connection points: 2
#     Edge 192, Type (0, 0), BuildingBlock: KIFKEQ_clean_linker_1, # of connection points: 2
#     Edge 193, Type (0, 0), BuildingBlock: KIFKEQ_clean_linker_1, # of connection points: 2
#     Edge 194, Type (0, 0), BuildingBlock: KIFKEQ_clean_linker_1, # of connection points: 2
#     Edge 195, Type (0, 0), BuildingBlock: KIFKEQ_clean_linker_1, # of connection points: 2
#     Edge 196, Type (0, 0), BuildingBlock: KIFKEQ_clean_linker_1, # of connection points: 2
#     Edge 197, Type (0, 0), BuildingBlock: KIFKEQ_clean_linker_1, # of connection points: 2
#     Edge 198, Type (0, 0), BuildingBlock: KIFKEQ_clean_linker_1, # of connection points: 2
#     Edge 199, Type (0, 0), BuildingBlock: KIFKEQ_clean_linker_1, # of connection points: 2
#     Edge 200, Type (0, 0), BuildingBlock: KIFKEQ_clean_linker_1, # of connection points: 2
#     Edge 201, Type (0, 0), BuildingBlock: KIFKEQ_clean_linker_1, # of connection points: 2
#     Edge 202, Type (0, 0), BuildingBlock: KIFKEQ_clean_linker_1, # of connection points: 2
#     Edge 203, Type (0, 0), BuildingBlock: KIFKEQ_clean_linker_1, # of connection points: 2
#     Edge 204, Type (0, 0), BuildingBlock: KIFKEQ_clean_linker_1, # of connection points: 2
#     Edge 205, Type (0, 0), BuildingBlock: KIFKEQ_clean_linker_1, # of connection points: 2
#     Edge 206, Type (0, 0), BuildingBlock: KIFKEQ_clean_linker_1, # of connection points: 2
#     Edge 207, Type (0, 0), BuildingBlock: KIFKEQ_clean_linker_1, # of connection points: 2
#     Edge 208, Type (0, 0), BuildingBlock: KIFKEQ_clean_linker_1, # of connection points: 2
#     Edge 209, Type (0, 0), BuildingBlock: KIFKEQ_clean_linker_1, # of connection points: 2
#     Edge 210, Type (0, 0), BuildingBlock: KIFKEQ_clean_linker_1, # of connection points: 2
#     Edge 211, Type (0, 0), BuildingBlock: KIFKEQ_clean_linker_1, # of connection points: 2
#     Edge 212, Type (0, 0), BuildingBlock: KIFKEQ_clean_linker_1, # of connection points: 2
#     Edge 213, Type (0, 0), BuildingBlock: KIFKEQ_clean_linker_1, # of connection points: 2
#     Edge 214, Type (0, 0), BuildingBlock: KIFKEQ_clean_linker_1, # of connection points: 2
#     Edge 215, Type (0, 0), BuildingBlock: KIFKEQ_clean_linker_1, # of connection points: 2
#     Edge 216, Type (0, 0), BuildingBlock: KIFKEQ_clean_linker_1, # of connection points: 2
#     Edge 217, Type (0, 0), BuildingBlock: KIFKEQ_clean_linker_1, # of connection points: 2
#     Edge 218, Type (0, 0), BuildingBlock: KIFKEQ_clean_linker_1, # of connection points: 2
#     Edge 219, Type (0, 0), BuildingBlock: KIFKEQ_clean_linker_1, # of connection points: 2
#     Edge 220, Type (0, 0), BuildingBlock: KIFKEQ_clean_linker_1, # of connection points: 2
#     Edge 221, Type (0, 0), BuildingBlock: KIFKEQ_clean_linker_1, # of connection points: 2
#     Edge 222, Type (0, 0), BuildingBlock: KIFKEQ_clean_linker_1, # of connection points: 2
#     Edge 223, Type (0, 0), BuildingBlock: KIFKEQ_clean_linker_1, # of connection points: 2
#     Edge 224, Type (0, 0), BuildingBlock: KIFKEQ_clean_linker_1, # of connection points: 2
#     Edge 225, Type (0, 0), BuildingBlock: KIFKEQ_clean_linker_1, # of connection points: 2
#     Edge 226, Type (0, 0), BuildingBlock: KIFKEQ_clean_linker_1, # of connection points: 2
#     Edge 227, Type (0, 0), BuildingBlock: KIFKEQ_clean_linker_1, # of connection points: 2
#     Edge 228, Type (0, 0), BuildingBlock: KIFKEQ_clean_linker_1, # of connection points: 2
#     Edge 229, Type (0, 0), BuildingBlock: KIFKEQ_clean_linker_1, # of connection points: 2
#     Edge 230, Type (0, 0), BuildingBlock: KIFKEQ_clean_linker_1, # of connection points: 2
#     Edge 231, Type (0, 0), BuildingBlock: KIFKEQ_clean_linker_1, # of connection points: 2
#     Edge 232, Type (0, 0), BuildingBlock: KIFKEQ_clean_linker_1, # of connection points: 2
#     Edge 233, Type (0, 0), BuildingBlock: KIFKEQ_clean_linker_1, # of connection points: 2
#     Edge 234, Type (0, 0), BuildingBlock: KIFKEQ_clean_linker_1, # of connection points: 2
#     Edge 235, Type (0, 0), BuildingBlock: KIFKEQ_clean_linker_1, # of connection points: 2
#     Edge 236, Type (0, 0), BuildingBlock: KIFKEQ_clean_linker_1, # of connection points: 2
#     Edge 237, Type (0, 0), BuildingBlock: KIFKEQ_clean_linker_1, # of connection points: 2
#     Edge 238, Type (0, 0), BuildingBlock: KIFKEQ_clean_linker_1, # of connection points: 2
#     Edge 239, Type (0, 0), BuildingBlock: KIFKEQ_clean_linker_1, # of connection points: 2
#     Edge 240, Type (0, 0), BuildingBlock: KIFKEQ_clean_linker_1, # of connection points: 2
#     Edge 241, Type (0, 0), BuildingBlock: KIFKEQ_clean_linker_1, # of connection points: 2
#     Edge 242, Type (0, 0), BuildingBlock: KIFKEQ_clean_linker_1, # of connection points: 2
#     Edge 243, Type (0, 0), BuildingBlock: KIFKEQ_clean_linker_1, # of connection points: 2
#     Edge 244, Type (0, 0), BuildingBlock: KIFKEQ_clean_linker_1, # of connection points: 2
#     Edge 245, Type (0, 0), BuildingBlock: KIFKEQ_clean_linker_1, # of connection points: 2
#     Edge 246, Type (0, 0), BuildingBlock: KIFKEQ_clean_linker_1, # of connection points: 2
#     Edge 247, Type (0, 0), BuildingBlock: KIFKEQ_clean_linker_1, # of connection points: 2
#     Edge 248, Type (0, 0), BuildingBlock: KIFKEQ_clean_linker_1, # of connection points: 2
#     Edge 249, Type (0, 0), BuildingBlock: KIFKEQ_clean_linker_1, # of connection points: 2
#     Edge 250, Type (0, 0), BuildingBlock: KIFKEQ_clean_linker_1, # of connection points: 2
#     Edge 251, Type (0, 0), BuildingBlock: KIFKEQ_clean_linker_1, # of connection points: 2
#     Edge 252, Type (0, 0), BuildingBlock: KIFKEQ_clean_linker_1, # of connection points: 2
#     Edge 253, Type (0, 0), BuildingBlock: KIFKEQ_clean_linker_1, # of connection points: 2
#     Edge 254, Type (0, 0), BuildingBlock: KIFKEQ_clean_linker_1, # of connection points: 2
#     Edge 255, Type (0, 0), BuildingBlock: KIFKEQ_clean_linker_1, # of connection points: 2
#     Edge 256, Type (0, 0), BuildingBlock: KIFKEQ_clean_linker_1, # of connection points: 2
#     Edge 257, Type (0, 0), BuildingBlock: KIFKEQ_clean_linker_1, # of connection points: 2
#     Edge 258, Type (0, 0), BuildingBlock: KIFKEQ_clean_linker_1, # of connection points: 2
#     Edge 259, Type (0, 0), BuildingBlock: KIFKEQ_clean_linker_1, # of connection points: 2
#     Edge 260, Type (0, 0), BuildingBlock: KIFKEQ_clean_linker_1, # of connection points: 2
#     Edge 261, Type (0, 0), BuildingBlock: KIFKEQ_clean_linker_1, # of connection points: 2
#     Edge 262, Type (0, 0), BuildingBlock: KIFKEQ_clean_linker_1, # of connection points: 2
#     Edge 263, Type (0, 0), BuildingBlock: KIFKEQ_clean_linker_1, # of connection points: 2
#     Edge 264, Type (0, 0), BuildingBlock: KIFKEQ_clean_linker_1, # of connection points: 2
#     Edge 265, Type (0, 0), BuildingBlock: KIFKEQ_clean_linker_1, # of connection points: 2
#     Edge 266, Type (0, 0), BuildingBlock: KIFKEQ_clean_linker_1, # of connection points: 2
#     Edge 267, Type (0, 0), BuildingBlock: KIFKEQ_clean_linker_1, # of connection points: 2
#     Edge 268, Type (0, 0), BuildingBlock: KIFKEQ_clean_linker_1, # of connection points: 2
#     Edge 269, Type (0, 0), BuildingBlock: KIFKEQ_clean_linker_1, # of connection points: 2
#     Edge 270, Type (0, 0), BuildingBlock: KIFKEQ_clean_linker_1, # of connection points: 2
#     Edge 271, Type (0, 0), BuildingBlock: KIFKEQ_clean_linker_1, # of connection points: 2
#     Edge 272, Type (0, 0), BuildingBlock: KIFKEQ_clean_linker_1, # of connection points: 2
#     Edge 273, Type (0, 0), BuildingBlock: KIFKEQ_clean_linker_1, # of connection points: 2
#     Edge 274, Type (0, 0), BuildingBlock: KIFKEQ_clean_linker_1, # of connection points: 2
#     Edge 275, Type (0, 0), BuildingBlock: KIFKEQ_clean_linker_1, # of connection points: 2
#     Edge 276, Type (0, 0), BuildingBlock: KIFKEQ_clean_linker_1, # of connection points: 2
#     Edge 277, Type (0, 0), BuildingBlock: KIFKEQ_clean_linker_1, # of connection points: 2
#     Edge 278, Type (0, 0), BuildingBlock: KIFKEQ_clean_linker_1, # of connection points: 2
#     Edge 279, Type (0, 0), BuildingBlock: KIFKEQ_clean_linker_1, # of connection points: 2
#     Edge 280, Type (0, 0), BuildingBlock: KIFKEQ_clean_linker_1, # of connection points: 2
#     Edge 281, Type (0, 0), BuildingBlock: KIFKEQ_clean_linker_1, # of connection points: 2
#     Edge 282, Type (0, 0), BuildingBlock: KIFKEQ_clean_linker_1, # of connection points: 2
#     Edge 283, Type (0, 0), BuildingBlock: KIFKEQ_clean_linker_1, # of connection points: 2
#     Edge 284, Type (0, 0), BuildingBlock: KIFKEQ_clean_linker_1, # of connection points: 2
#     Edge 285, Type (0, 0), BuildingBlock: KIFKEQ_clean_linker_1, # of connection points: 2
#     Edge 286, Type (0, 0), BuildingBlock: KIFKEQ_clean_linker_1, # of connection points: 2
#     Edge 287, Type (0, 0), BuildingBlock: KIFKEQ_clean_linker_1, # of connection points: 2
# Relax obj value: 0.112
# Max RMSD: 0.144
# Mean RMSD: 0.144
data_MOF--net-ukw--node1-GALJAG_clean_sbu_0--edge1-KIFKEQ_clean_linker_1
_symmetry_space_group_name_H-M    P1
_symmetry_Int_Tables_number       1
_symmetry_cell_setting            triclinic
loop_
_symmetry_equiv_pos_as_xyz
'x, y, z'
_cell_length_a     75.984132
_cell_length_b     75.995642
_cell_length_c     75.957848
_cell_angle_alpha  89.990047
_cell_angle_beta   89.992448
_cell_angle_gamma 89.985339
loop_
_atom_site_label
_atom_site_type_symbol
_atom_site_fract_x
_atom_site_fract_y
_atom_site_fract_z
_atom_type_partial_charge
In0 In 0.02824 0.08788 0.35175 0.0
O1 O 0.01322 0.11076 0.33956 0.0
O2 O 0.0161 0.08732 0.32448 0.0
C3 C 0.0356 0.10261 0.38305 0.0
C4 C 0.00351 0.06478 0.36248 0.0
C5 C 0.0611 0.08355 0.33907 0.0
O6 O 0.02757 0.11088 0.37102 0.0
O7 O 0.04052 0.08725 0.37894 0.0
O8 O 0.05246 0.07096 0.34571 0.0
O9 O 0.05308 0.09808 0.33875 0.0
C10 C 0.00982 0.10265 0.32545 0.0
O11 O 0.01442 0.06073 0.35057 0.0
O12 O 0.00545 0.07993 0.3688 0.0
In13 In 0.16323 0.77634 0.5989 0.0
O14 O 0.14006 0.76637 0.5831 0.0
O15 O 0.16497 0.76855 0.57019 0.0
C16 C 0.14898 0.77817 0.63138 0.0
C17 C 0.18442 0.74843 0.60357 0.0
C18 C 0.16769 0.81008 0.5889 0.0
O19 O 0.14003 0.77437 0.61791 0.0
O20 O 0.165 0.78133 0.6284 0.0
O21 O 0.18069 0.80028 0.59243 0.0
O22 O 0.15287 0.80291 0.59076 0.0
C23 C 0.14895 0.76414 0.56919 0.0
O24 O 0.19041 0.76397 0.60449 0.0
O25 O 0.16817 0.74731 0.6005 0.0
In26 In 0.47123 0.92533 0.84792 0.0
O27 O 0.48844 0.94969 0.84207 0.0
O28 O 0.48633 0.94108 0.86841 0.0
C29 C 0.43873 0.92715 0.83366 0.0
C30 C 0.4904 0.90901 0.82315 0.0
C31 C 0.46396 0.90845 0.87812 0.0
O32 O 0.44567 0.94038 0.84103 0.0
O33 O 0.44829 0.91363 0.83335 0.0
O34 O 0.47626 0.90344 0.86802 0.0
O35 O 0.45549 0.92177 0.87284 0.0
C36 C 0.49351 0.95149 0.85776 0.0
O37 O 0.48739 0.90199 0.83795 0.0
O38 O 0.48386 0.92412 0.82107 0.0
In39 In 0.32886 0.22393 0.09896 0.0
O40 O 0.35329 0.23822 0.08889 0.0
O41 O 0.33081 0.2366 0.07214 0.0
C42 C 0.34549 0.22019 0.13008 0.0
C43 C 0.30212 0.24607 0.10752 0.0
C44 C 0.32495 0.19114 0.08569 0.0
O45 O 0.34915 0.23261 0.11962 0.0
O46 O 0.33396 0.2096 0.12453 0.0
O47 O 0.31219 0.19956 0.09224 0.0
O48 O 0.33931 0.19937 0.08559 0.0
C49 C 0.34632 0.24216 0.07427 0.0
O50 O 0.30775 0.24438 0.09204 0.0
O51 O 0.30899 0.23563 0.11836 0.0
In52 In 0.02881 0.91947 0.14752 0.0
O53 O 0.01354 0.89599 0.15786 0.0
O54 O 0.02203 0.9156 0.17618 0.0
C55 C 0.02959 0.90352 0.1158 0.0
C56 C 0.00362 0.94446 0.14285 0.0
C57 C 0.0626 0.92354 0.15801 0.0
O58 O 0.02467 0.89561 0.12957 0.0
O59 O 0.03424 0.91928 0.11812 0.0
O60 O 0.05292 0.93665 0.15473 0.0
O61 O 0.05533 0.90888 0.1557 0.0
C62 C 0.014 0.90124 0.17368 0.0
O63 O 0.00495 0.9354 0.15661 0.0
O64 O 0.01583 0.94194 0.13191 0.0
In65 In 0.3415 0.77472 0.39793 0.0
O66 O 0.33792 0.74545 0.39622 0.0
O67 O 0.31488 0.76114 0.39283 0.0
C68 C 0.3356 0.80842 0.40702 0.0
C69 C 0.35552 0.76418 0.42844 0.0
C70 C 0.35579 0.77717 0.36552 0.0
O71 O 0.32305 0.7982 0.40308 0.0
O72 O 0.35071 0.80168 0.40598 0.0
O73 O 0.36494 0.77406 0.37905 0.0
O74 O 0.33958 0.77925 0.36842 0.0
C75 C 0.32158 0.74587 0.39345 0.0
O76 O 0.36452 0.76542 0.41446 0.0
O77 O 0.33952 0.76853 0.42699 0.0
In78 In 0.47349 0.09366 0.64903 0.0
O79 O 0.48326 0.11695 0.66497 0.0
O80 O 0.47933 0.09242 0.67817 0.0
C81 C 0.47127 0.10715 0.61625 0.0
C82 C 0.5019 0.07311 0.64442 0.0
C83 C 0.43978 0.088 0.65832 0.0
O84 O 0.47443 0.11664 0.62954 0.0
O85 O 0.469 0.09106 0.6196 0.0
O86 O 0.45039 0.07537 0.65592 0.0
O87 O 0.44614 0.10307 0.65561 0.0
C88 C 0.4841 0.10833 0.67921 0.0
O89 O 0.48646 0.06694 0.64316 0.0
O90 O 0.50275 0.08925 0.64807 0.0
In91 In 0.15793 0.22401 0.90126 0.0
O92 O 0.1349 0.23151 0.91866 0.0
O93 O 0.16054 0.23019 0.93023 0.0
C94 C 0.14444 0.22161 0.8686 0.0
C95 C 0.17597 0.25404 0.89644 0.0
C96 C 0.16418 0.19013 0.90916 0.0
O97 O 0.1351 0.22593 0.88169 0.0
O98 O 0.16028 0.21814 0.87216 0.0
O99 O 0.17663 0.20056 0.90534 0.0
O100 O 0.149 0.19684 0.90879 0.0
C101 C 0.14434 0.23345 0.93228 0.0
O102 O 0.18388 0.23935 0.8971 0.0
O103 O 0.1595 0.25323 0.89823 0.0
In104 In 0.34942 0.02771 0.0865 0.0
O105 O 0.34927 0.99845 0.08241 0.0
O106 O 0.35381 0.01418 0.05965 0.0
C107 C 0.34105 0.06168 0.08103 0.0
C108 C 0.31935 0.01848 0.10222 0.0
C109 C 0.38256 0.02841 0.09915 0.0
O110 O 0.34331 0.05114 0.06831 0.0
O111 O 0.34341 0.05511 0.09609 0.0
O112 O 0.36961 0.02386 0.10854 0.0
O113 O 0.37867 0.03296 0.08367 0.0
C114 C 0.35225 0.99889 0.06612 0.0
O115 O 0.33369 0.01982 0.1106 0.0
O116 O 0.3202 0.02221 0.08601 0.0
In117 In 0.22522 0.09793 0.33826 0.0
O118 O 0.24113 0.10195 0.31264 0.0
O119 O 0.25453 0.10038 0.33727 0.0
C120 C 0.19125 0.0907 0.33148 0.0
C121 C 0.23391 0.06681 0.35211 0.0
C122 C 0.22319 0.13018 0.35267 0.0
O123 O 0.20184 0.09449 0.31915 0.0
O124 O 0.19785 0.09088 0.3467 0.0
O125 O 0.22571 0.11652 0.36181 0.0
O126 O 0.22137 0.12749 0.33638 0.0
C127 C 0.25568 0.1023 0.32084 0.0
O128 O 0.23236 0.08057 0.36136 0.0
O129 O 0.23079 0.06876 0.33586 0.0
In130 In 0.15045 0.97311 0.58813 0.0
O131 O 0.14651 0.98968 0.5629 0.0
O132 O 0.14782 0.0024 0.5879 0.0
C133 C 0.1592 0.93968 0.58067 0.0
C134 C 0.18112 0.98217 0.60263 0.0
C135 C 0.1181 0.96949 0.60207 0.0
O136 O 0.15473 0.95026 0.56856 0.0
O137 O 0.15884 0.94597 0.59601 0.0
O138 O 0.13159 0.972 0.61145 0.0
O139 O 0.121 0.96856 0.58574 0.0
C140 C 0.14612 0.00401 0.57148 0.0
O141 O 0.16716 0.98056 0.6116 0.0
O142 O 0.17957 0.97895 0.58636 0.0
In143 In 0.27603 0.89884 0.83438 0.0
O144 O 0.26751 0.91383 0.85891 0.0
O145 O 0.27271 0.92843 0.83554 0.0
C146 C 0.27529 0.86648 0.84884 0.0
C147 C 0.24797 0.89544 0.81298 0.0
C148 C 0.31027 0.90465 0.82696 0.0
O149 O 0.27427 0.88033 0.85801 0.0
O150 O 0.27669 0.86903 0.83247 0.0
O151 O 0.29819 0.90944 0.81659 0.0
O152 O 0.30506 0.89678 0.84058 0.0
C153 C 0.26776 0.92869 0.8514 0.0
O154 O 0.26333 0.8916 0.80781 0.0
O155 O 0.24706 0.90113 0.82851 0.0
In156 In 0.34937 0.9725 0.41258 0.0
O157 O 0.34889 0.00162 0.41768 0.0
O158 O 0.35518 0.9852 0.43953 0.0
C159 C 0.3415 0.93829 0.41728 0.0
C160 C 0.31883 0.98194 0.39795 0.0
C161 C 0.38181 0.97213 0.39816 0.0
O162 O 0.34418 0.94839 0.43026 0.0
O163 O 0.34319 0.9454 0.4024 0.0
O164 O 0.36819 0.97561 0.3893 0.0
O165 O 0.37898 0.96861 0.41414 0.0
C166 C 0.35299 0.00067 0.43371 0.0
O167 O 0.33308 0.98142 0.38933 0.0
O168 O 0.32002 0.97751 0.41396 0.0
In169 In 0.277 0.09862 0.65967 0.0
O170 O 0.26033 0.10336 0.68463 0.0
O171 O 0.24837 0.10533 0.65929 0.0
C172 C 0.31019 0.08966 0.6679 0.0
C173 C 0.2664 0.06766 0.64694 0.0
C174 C 0.28226 0.13 0.64426 0.0
O175 O 0.29978 0.09567 0.67948 0.0
O176 O 0.30378 0.0884 0.65265 0.0
O177 O 0.27907 0.11625 0.63545 0.0
O178 O 0.2832 0.12775 0.6607 0.0
C179 C 0.24651 0.10642 0.67575 0.0
O180 O 0.26913 0.08086 0.63714 0.0
O181 O 0.26919 0.07012 0.66317 0.0
In182 In 0.15131 0.02522 0.90989 0.0
O183 O 0.1461 0.01295 0.93716 0.0
O184 O 0.15009 0.99615 0.91504 0.0
C185 C 0.1594 0.05941 0.9143 0.0
C186 C 0.18208 0.01471 0.89638 0.0
C187 C 0.11848 0.02588 0.89638 0.0
O188 O 0.15649 0.04937 0.92729 0.0
O189 O 0.15802 0.0522 0.89942 0.0
O190 O 0.1316 0.02105 0.88735 0.0
O191 O 0.12209 0.03069 0.91185 0.0
C192 C 0.14702 0.99737 0.93129 0.0
O193 O 0.16835 0.01623 0.88704 0.0
O194 O 0.18029 0.01893 0.91238 0.0
In195 In 0.22541 0.90038 0.16192 0.0
O196 O 0.23899 0.89494 0.18851 0.0
O197 O 0.25467 0.89847 0.16547 0.0
C198 C 0.19176 0.90988 0.16748 0.0
C199 C 0.23614 0.93092 0.14818 0.0
C200 C 0.22265 0.86808 0.1475 0.0
O201 O 0.20178 0.9058 0.18017 0.0
O202 O 0.19866 0.90872 0.15245 0.0
O203 O 0.22594 0.88161 0.1384 0.0
O204 O 0.22058 0.87093 0.16372 0.0
C205 C 0.25425 0.89554 0.18179 0.0
O206 O 0.23488 0.91702 0.13906 0.0
O207 O 0.23179 0.92936 0.16418 0.0
In208 In 0.08841 0.3522 0.02636 0.0
O209 O 0.06129 0.35782 0.01393 0.0
O210 O 0.08316 0.35243 0.99722 0.0
C211 C 0.08405 0.34479 0.06074 0.0
C212 C 0.10218 0.32126 0.01689 0.0
C213 C 0.10248 0.38476 0.02655 0.0
O214 O 0.07102 0.34754 0.05072 0.0
O215 O 0.09889 0.34604 0.05343 0.0
O216 O 0.11127 0.3714 0.02197 0.0
O217 O 0.08691 0.38155 0.03129 0.0
C218 C 0.06706 0.3562 0.99836 0.0
O219 O 0.11127 0.33521 0.01758 0.0
O220 O 0.08621 0.32295 0.02128 0.0
In221 In 0.5872 0.14568 0.97519 0.0
O222 O 0.5611 0.13295 0.98339 0.0
O223 O 0.57004 0.15504 0.9979 0.0
C224 C 0.58378 0.15594 0.94113 0.0
C225 C 0.60517 0.16992 0.99361 0.0
C226 C 0.60207 0.11322 0.97587 0.0
O227 O 0.57058 0.15259 0.95063 0.0
O228 O 0.59833 0.15391 0.94872 0.0
O229 O 0.61073 0.1268 0.97187 0.0
O230 O 0.58616 0.11606 0.97943 0.0
C231 C 0.55882 0.14292 0.9965 0.0
O232 O 0.60771 0.15359 0.99556 0.0
O233 O 0.59378 0.17394 0.98219 0.0
In234 In 0.10133 0.34177 0.22539 0.0
O235 O 0.10601 0.31428 0.23735 0.0
O236 O 0.10389 0.33652 0.25433 0.0
C237 C 0.09196 0.3376 0.19145 0.0
C238 C 0.07135 0.35562 0.23754 0.0
C239 C 0.13422 0.355 0.22361 0.0
O240 O 0.09569 0.32459 0.20116 0.0
O241 O 0.09308 0.3524 0.19886 0.0
O242 O 0.12132 0.36415 0.22875 0.0
O243 O 0.13037 0.33952 0.21906 0.0
C244 C 0.10609 0.32016 0.25296 0.0
O245 O 0.08507 0.36479 0.23522 0.0
O246 O 0.07269 0.33962 0.23317 0.0
In247 In 0.90965 0.8473 0.4706 0.0
O248 O 0.9364 0.85263 0.48384 0.0
O249 O 0.91376 0.84835 0.49986 0.0
C250 C 0.91539 0.83874 0.4367 0.0
C251 C 0.89519 0.81695 0.48099 0.0
C252 C 0.89538 0.87975 0.46888 0.0
O253 O 0.92803 0.84168 0.44714 0.0
O254 O 0.9003 0.84046 0.44334 0.0
O255 O 0.88624 0.86617 0.47171 0.0
O256 O 0.91159 0.87689 0.46671 0.0
C257 C 0.93002 0.85153 0.49921 0.0
O258 O 0.88643 0.83108 0.47987 0.0
O259 O 0.91119 0.81815 0.47656 0.0
In260 In 0.89687 0.16602 0.2209 0.0
O261 O 0.90812 0.18633 0.24023 0.0
O262 O 0.88136 0.18867 0.23318 0.0
C263 C 0.90743 0.16829 0.18697 0.0
C264 C 0.92053 0.14741 0.2393 0.0
C265 C 0.86476 0.15092 0.21964 0.0
O266 O 0.90436 0.18182 0.19614 0.0
O267 O 0.90522 0.15392 0.19492 0.0
O268 O 0.87789 0.14316 0.22626 0.0
O269 O 0.86802 0.16589 0.21329 0.0
C270 C 0.8937 0.19403 0.24283 0.0
O271 O 0.90429 0.14723 0.24289 0.0
O272 O 0.92474 0.15658 0.22609 0.0
In273 In 0.41445 0.64872 0.52533 0.0
O274 O 0.44046 0.64421 0.51032 0.0
O275 O 0.41669 0.64821 0.49587 0.0
C276 C 0.42257 0.65671 0.55895 0.0
C277 C 0.39988 0.67911 0.51523 0.0
C278 C 0.39922 0.61674 0.52786 0.0
O279 O 0.43419 0.65109 0.5484 0.0
O280 O 0.40738 0.65801 0.55251 0.0
O281 O 0.39052 0.63082 0.5291 0.0
O282 O 0.41549 0.61878 0.52546 0.0
C283 C 0.43305 0.64548 0.49541 0.0
O284 O 0.3912 0.66491 0.51607 0.0
O285 O 0.41585 0.67796 0.5198 0.0
In286 In 0.0984 0.65774 0.27585 0.0
O287 O 0.08258 0.63449 0.26589 0.0
O288 O 0.06928 0.65896 0.26967 0.0
C289 C 0.13085 0.64344 0.27786 0.0
C290 C 0.10304 0.67873 0.24776 0.0
C291 C 0.08915 0.66345 0.3096 0.0
O292 O 0.11727 0.63431 0.27498 0.0
O293 O 0.128 0.65966 0.27993 0.0
O294 O 0.0918 0.67607 0.29906 0.0
O295 O 0.09158 0.64838 0.30315 0.0
C296 C 0.06833 0.64306 0.26488 0.0
O297 O 0.10431 0.68467 0.26328 0.0
O298 O 0.09947 0.66259 0.24668 0.0
In299 In 0.3984 0.33484 0.7749 0.0
O300 O 0.41102 0.35941 0.76378 0.0
O301 O 0.42744 0.33702 0.7683 0.0
C302 C 0.3648 0.3464 0.77638 0.0
C303 C 0.39627 0.31228 0.74756 0.0
C304 C 0.40876 0.33091 0.80864 0.0
O305 O 0.37727 0.35594 0.77101 0.0
O306 O 0.36932 0.33122 0.7813 0.0
O307 O 0.40665 0.31784 0.79854 0.0
O308 O 0.40549 0.34563 0.80173 0.0
C309 C 0.42618 0.3526 0.76255 0.0
O310 O 0.39432 0.30697 0.76323 0.0
O311 O 0.39914 0.32849 0.74603 0.0
In312 In 0.97206 0.90918 0.64821 0.0
O313 O 0.98575 0.93572 0.6431 0.0
O314 O 0.00135 0.9126 0.64622 0.0
C315 C 0.93848 0.91603 0.65719 0.0
C316 C 0.98275 0.89486 0.67855 0.0
C317 C 0.96936 0.89456 0.61596 0.0
O318 O 0.94898 0.92824 0.65295 0.0
O319 O 0.94491 0.90076 0.65659 0.0
O320 O 0.97208 0.8855 0.62962 0.0
O321 O 0.96778 0.91085 0.61863 0.0
C322 C 0.00098 0.92895 0.64353 0.0
O323 O 0.98125 0.88597 0.66454 0.0
O324 O 0.97854 0.9109 0.67725 0.0
In325 In 0.83759 0.22373 0.39559 0.0
O326 O 0.86088 0.23615 0.41001 0.0
O327 O 0.83629 0.23428 0.42335 0.0
C328 C 0.85299 0.21874 0.36415 0.0
C329 C 0.81434 0.24915 0.38699 0.0
C330 C 0.83292 0.1901 0.40583 0.0
O331 O 0.86079 0.22657 0.37663 0.0
O332 O 0.83779 0.21306 0.36783 0.0
O333 O 0.82067 0.19889 0.39875 0.0
O334 O 0.8472 0.19831 0.40766 0.0
C335 C 0.85216 0.23905 0.4239 0.0
O336 O 0.81102 0.23815 0.39901 0.0
O337 O 0.82888 0.24705 0.3794 0.0
In338 In 0.52712 0.07814 0.14443 0.0
O339 O 0.50703 0.05775 0.154 0.0
O340 O 0.5138 0.05742 0.12707 0.0
C341 C 0.56073 0.0754 0.15607 0.0
C342 C 0.50892 0.09616 0.16874 0.0
C343 C 0.52875 0.09369 0.11256 0.0
O344 O 0.55214 0.06218 0.15084 0.0
O345 O 0.55238 0.08967 0.15544 0.0
O346 O 0.52065 0.10058 0.12536 0.0
O347 O 0.53624 0.07927 0.11601 0.0
C348 C 0.50418 0.05127 0.13904 0.0
O349 O 0.51078 0.1017 0.15314 0.0
O350 O 0.51654 0.08175 0.17205 0.0
In351 In 0.66335 0.7722 0.89851 0.0
O352 O 0.64052 0.75837 0.91154 0.0
O353 O 0.66213 0.76607 0.9278 0.0
C354 C 0.64942 0.77382 0.86581 0.0
C355 C 0.68696 0.74597 0.89495 0.0
C356 C 0.66687 0.80608 0.90852 0.0
O357 O 0.64021 0.77107 0.87934 0.0
O358 O 0.66559 0.77593 0.86879 0.0
O359 O 0.68011 0.79644 0.9056 0.0
O360 O 0.65223 0.79865 0.90627 0.0
C361 C 0.64734 0.7585 0.92673 0.0
O362 O 0.6914 0.76188 0.89279 0.0
O363 O 0.67105 0.74364 0.89885 0.0
In364 In 0.97441 0.07566 0.85329 0.0
O365 O 0.99343 0.05484 0.84253 0.0
O366 O 0.98734 0.05398 0.86965 0.0
C367 C 0.94039 0.07326 0.84276 0.0
C368 C 0.99401 0.09311 0.82967 0.0
C369 C 0.97289 0.09219 0.88469 0.0
O370 O 0.94908 0.05991 0.84747 0.0
O371 O 0.94885 0.08746 0.84328 0.0
O372 O 0.97719 0.1001 0.87071 0.0
O373 O 0.96913 0.07614 0.88272 0.0
C374 C 0.99653 0.04793 0.85727 0.0
O375 O 0.99587 0.0952 0.84608 0.0
O376 O 0.98198 0.08252 0.82524 0.0
In377 In 0.66486 0.22231 0.59895 0.0
O378 O 0.68373 0.24334 0.58857 0.0
O379 O 0.68841 0.23341 0.61414 0.0
C380 C 0.66782 0.18876 0.58713 0.0
C381 C 0.64607 0.24185 0.57623 0.0
C382 C 0.64986 0.22024 0.63114 0.0
O383 O 0.68115 0.19827 0.58993 0.0
O384 O 0.65337 0.19612 0.59038 0.0
O385 O 0.64103 0.2235 0.61744 0.0
O386 O 0.66605 0.2178 0.62852 0.0
C387 C 0.69261 0.24446 0.60251 0.0
O388 O 0.64509 0.24394 0.59272 0.0
O389 O 0.65624 0.22966 0.57129 0.0
In390 In 0.52304 0.90915 0.35386 0.0
O391 O 0.51347 0.88544 0.33838 0.0
O392 O 0.52062 0.90865 0.32421 0.0
C393 C 0.52033 0.89782 0.38735 0.0
C394 C 0.49691 0.93298 0.35486 0.0
C395 C 0.55804 0.91064 0.34909 0.0
O396 O 0.51577 0.88832 0.37446 0.0
O397 O 0.5262 0.91279 0.38323 0.0
O398 O 0.54841 0.92404 0.34677 0.0
O399 O 0.54997 0.89695 0.35386 0.0
C400 C 0.51481 0.89308 0.32362 0.0
O401 O 0.51268 0.93733 0.35803 0.0
O402 O 0.49468 0.91702 0.35102 0.0
In403 In 0.83592 0.77433 0.09508 0.0
O404 O 0.81071 0.75764 0.09812 0.0
O405 O 0.83591 0.74527 0.09943 0.0
C406 C 0.82886 0.8078 0.08621 0.0
C407 C 0.851 0.76453 0.06491 0.0
C408 C 0.84759 0.77866 0.12818 0.0
O409 O 0.8166 0.79719 0.09018 0.0
O410 O 0.84417 0.80144 0.08685 0.0
O411 O 0.858 0.77554 0.11555 0.0
O412 O 0.83158 0.77986 0.12394 0.0
C413 C 0.81943 0.74351 0.10008 0.0
O414 O 0.85978 0.76675 0.07892 0.0
O415 O 0.83468 0.76761 0.06616 0.0
In416 In 0.64664 0.96992 0.91612 0.0
O417 O 0.62754 0.98458 0.93415 0.0
O418 O 0.65461 0.98866 0.9386 0.0
C419 C 0.65694 0.93612 0.92016 0.0
C420 C 0.67385 0.98551 0.89985 0.0
C421 C 0.61574 0.96818 0.89886 0.0
O422 O 0.65097 0.94504 0.93287 0.0
O423 O 0.65763 0.94424 0.90573 0.0
O424 O 0.62748 0.97923 0.89465 0.0
O425 O 0.61997 0.95784 0.91118 0.0
C426 C 0.6391 0.99281 0.94261 0.0
O427 O 0.65889 0.98423 0.89261 0.0
O428 O 0.6749 0.97886 0.91502 0.0
In429 In 0.77528 0.89999 0.66493 0.0
O430 O 0.75731 0.90787 0.6423 0.0
O431 O 0.76544 0.92776 0.66039 0.0
C432 C 0.7771 0.86816 0.64926 0.0
C433 C 0.75219 0.89455 0.69162 0.0
C434 C 0.8088 0.91168 0.66854 0.0
O435 O 0.77304 0.88192 0.64086 0.0
O436 O 0.78042 0.87056 0.66535 0.0
O437 O 0.79948 0.90754 0.68164 0.0
O438 O 0.80123 0.90993 0.65395 0.0
C439 C 0.75657 0.92386 0.64687 0.0
O440 O 0.75327 0.90891 0.68346 0.0
O441 O 0.76354 0.88335 0.68716 0.0
In442 In 0.85135 0.02549 0.4098 0.0
O443 O 0.83453 0.01569 0.38712 0.0
O444 O 0.8221 0.0209 0.41185 0.0
C445 C 0.88461 0.02576 0.39761 0.0
C446 C 0.85417 0.99703 0.43046 0.0
C447 C 0.84406 0.05986 0.41384 0.0
O448 O 0.87159 0.02397 0.38739 0.0
O449 O 0.88071 0.02767 0.41364 0.0
O450 O 0.84628 0.04987 0.42701 0.0
O451 O 0.84591 0.05251 0.39907 0.0
C452 C 0.8205 0.01563 0.39615 0.0
O453 O 0.85509 0.01242 0.43686 0.0
O454 O 0.85186 0.9963 0.41404 0.0
In455 In 0.7236 0.1027 0.16856 0.0
O456 O 0.74343 0.09236 0.18885 0.0
O457 O 0.73498 0.11866 0.19142 0.0
C458 C 0.69003 0.09105 0.17031 0.0
C459 C 0.7424 0.0791 0.15021 0.0
C460 C 0.72159 0.1349 0.15366 0.0
O461 O 0.69889 0.09441 0.18397 0.0
O462 O 0.69809 0.09357 0.15605 0.0
O463 O 0.72931 0.12221 0.14619 0.0
O464 O 0.7146 0.13114 0.16824 0.0
C465 C 0.74517 0.10677 0.19678 0.0
O466 O 0.74473 0.0955 0.14859 0.0
O467 O 0.73028 0.07472 0.16071 0.0
In468 In 0.64542 0.02697 0.57557 0.0
O469 O 0.6483 0.01 0.55041 0.0
O470 O 0.62504 0.00778 0.5657 0.0
C471 C 0.65852 0.05957 0.56941 0.0
C472 C 0.67041 0.00716 0.59087 0.0
C473 C 0.61573 0.0344 0.59327 0.0
O474 O 0.64931 0.05153 0.55813 0.0
O475 O 0.66141 0.05097 0.58326 0.0
O476 O 0.62885 0.02728 0.60067 0.0
O477 O 0.61786 0.03811 0.57719 0.0
C478 C 0.63364 0.00246 0.55261 0.0
O479 O 0.65747 0.01324 0.59937 0.0
O480 O 0.67077 0.01124 0.57478 0.0
In481 In 0.72472 0.89818 0.3426 0.0
O482 O 0.73395 0.91462 0.36576 0.0
O483 O 0.72782 0.92768 0.34158 0.0
C484 C 0.7268 0.86469 0.3539 0.0
C485 C 0.75179 0.89679 0.32 0.0
C486 C 0.68982 0.90336 0.34127 0.0
O487 O 0.73151 0.87747 0.36347 0.0
O488 O 0.72099 0.86892 0.33891 0.0
O489 O 0.69923 0.90435 0.32752 0.0
O490 O 0.69808 0.89969 0.3552 0.0
C491 C 0.7333 0.92895 0.35724 0.0
O492 O 0.73613 0.89438 0.31476 0.0
O493 O 0.75342 0.89992 0.3362 0.0
In494 In 0.85087 0.97065 0.08315 0.0
O495 O 0.84258 0.98885 0.06032 0.0
O496 O 0.86968 0.98409 0.06414 0.0
C497 C 0.83815 0.93761 0.07966 0.0
C498 C 0.82746 0.99067 0.1006 0.0
C499 C 0.88209 0.96592 0.09927 0.0
O500 O 0.84288 0.94671 0.06657 0.0
O501 O 0.83981 0.94519 0.09431 0.0
O502 O 0.86965 0.97431 0.10648 0.0
O503 O 0.87845 0.95945 0.0844 0.0
C504 C 0.85811 0.9924 0.05575 0.0
O505 O 0.84382 0.99171 0.10333 0.0
O506 O 0.82294 0.9792 0.08948 0.0
In507 In 0.77636 0.09845 0.83866 0.0
O508 O 0.76626 0.08259 0.86183 0.0
O509 O 0.76792 0.06996 0.83673 0.0
C510 C 0.77795 0.13135 0.85188 0.0
C511 C 0.74884 0.10326 0.81697 0.0
C512 C 0.81024 0.08861 0.83472 0.0
O513 O 0.77299 0.1184 0.86104 0.0
O514 O 0.7825 0.12756 0.83638 0.0
O515 O 0.80062 0.09225 0.8216 0.0
O516 O 0.80277 0.09008 0.84946 0.0
C517 C 0.76351 0.06888 0.85275 0.0
O518 O 0.76446 0.1034 0.81112 0.0
O519 O 0.74745 0.10084 0.8333 0.0
In520 In 0.91276 0.64793 0.97094 0.0
O521 O 0.88953 0.66433 0.97983 0.0
O522 O 0.91435 0.67717 0.97661 0.0
C523 C 0.89804 0.61564 0.97028 0.0
C524 C 0.93362 0.64386 0.99926 0.0
C525 C 0.91819 0.65618 0.93686 0.0
O526 O 0.88924 0.62936 0.97351 0.0
O527 O 0.91411 0.61828 0.9671 0.0
O528 O 0.93093 0.65343 0.94725 0.0
O529 O 0.90317 0.65435 0.94362 0.0
C530 C 0.8983 0.67845 0.98086 0.0
O531 O 0.93956 0.64184 0.98381 0.0
O532 O 0.91759 0.64796 0.00013 0.0
In533 In 0.40738 0.84888 0.02278 0.0
O534 O 0.43269 0.85379 0.00666 0.0
O535 O 0.40769 0.8544 0.99388 0.0
C536 C 0.41505 0.83951 0.05604 0.0
C537 C 0.39414 0.81822 0.01175 0.0
C538 C 0.39303 0.8809 0.02757 0.0
O539 O 0.427 0.84439 0.04546 0.0
O540 O 0.39969 0.8396 0.04978 0.0
O541 O 0.38377 0.86743 0.02448 0.0
O542 O 0.40937 0.87807 0.02862 0.0
C543 C 0.42415 0.85591 0.99245 0.0
O544 O 0.38456 0.83161 0.01441 0.0
O545 O 0.41033 0.82031 0.01499 0.0
In546 In 0.90084 0.67055 0.7737 0.0
O547 O 0.90868 0.64819 0.7554 0.0
O548 O 0.92808 0.6674 0.76194 0.0
C549 C 0.8695 0.65397 0.77577 0.0
C550 C 0.89453 0.69763 0.7513 0.0
C551 C 0.91284 0.67332 0.80726 0.0
O552 O 0.8834 0.64609 0.77116 0.0
O553 O 0.87153 0.67001 0.77952 0.0
O554 O 0.9071 0.68643 0.79886 0.0
O555 O 0.91266 0.65917 0.79873 0.0
C556 C 0.9243 0.6536 0.75347 0.0
O557 O 0.90958 0.69103 0.75334 0.0
O558 O 0.88298 0.69145 0.76143 0.0
In559 In 0.07998 0.15132 0.53161 0.0
O560 O 0.06019 0.15831 0.50999 0.0
O561 O 0.06257 0.13154 0.51691 0.0
C562 C 0.07177 0.16373 0.56385 0.0
C563 C 0.09819 0.17767 0.51673 0.0
C564 C 0.09864 0.12182 0.53788 0.0
O565 O 0.06063 0.1555 0.55461 0.0
O566 O 0.08661 0.16565 0.55674 0.0
O567 O 0.10117 0.13107 0.52427 0.0
O568 O 0.08706 0.12768 0.54825 0.0
C569 C 0.05588 0.1427 0.50667 0.0
O570 O 0.10483 0.16254 0.51884 0.0
O571 O 0.08265 0.17936 0.52229 0.0
In572 In 0.0988 0.83566 0.77579 0.0
O573 O 0.09961 0.8305 0.74668 0.0
O574 O 0.10499 0.80865 0.76343 0.0
C575 C 0.08985 0.83071 0.80974 0.0
C576 C 0.06855 0.84986 0.76477 0.0
C577 C 0.13111 0.8503 0.77733 0.0
O578 O 0.09331 0.81786 0.79972 0.0
O579 O 0.0912 0.84564 0.80266 0.0
O580 O 0.11752 0.85915 0.77372 0.0
O581 O 0.12832 0.83423 0.78037 0.0
C582 C 0.10348 0.81444 0.74786 0.0
O583 O 0.08265 0.85866 0.76593 0.0
O584 O 0.06972 0.83393 0.76947 0.0
In585 In 0.57617 0.35369 0.47317 0.0
O586 O 0.55698 0.3441 0.49439 0.0
O587 O 0.55389 0.37011 0.48512 0.0
C588 C 0.57275 0.34257 0.43939 0.0
C589 C 0.59404 0.32956 0.49182 0.0
C590 C 0.59241 0.38527 0.47174 0.0
O591 O 0.55955 0.34624 0.44881 0.0
O592 O 0.58732 0.3446 0.44696 0.0
O593 O 0.60048 0.37135 0.47592 0.0
O594 O 0.57641 0.38312 0.46792 0.0
C595 C 0.54914 0.35859 0.49604 0.0
O596 O 0.59668 0.34591 0.49354 0.0
O597 O 0.58264 0.32544 0.48043 0.0
In598 In 0.90377 0.32793 0.72156 0.0
O599 O 0.91372 0.35264 0.73559 0.0
O600 O 0.92938 0.32944 0.7367 0.0
C601 C 0.87391 0.34598 0.71516 0.0
C602 C 0.89321 0.30127 0.7429 0.0
C603 C 0.91835 0.32291 0.68941 0.0
O604 O 0.88208 0.34738 0.7296 0.0
O605 O 0.88101 0.33583 0.70409 0.0
O606 O 0.90994 0.3109 0.69727 0.0
O607 O 0.91985 0.33698 0.69803 0.0
C608 C 0.92752 0.34528 0.74127 0.0
O609 O 0.90916 0.30514 0.74066 0.0
O610 O 0.88278 0.30986 0.73334 0.0
In611 In 0.60069 0.66169 0.22854 0.0
O612 O 0.60501 0.6877 0.24377 0.0
O613 O 0.60544 0.66322 0.2575 0.0
C614 C 0.5903 0.66817 0.19534 0.0
C615 C 0.5708 0.64715 0.24 0.0
C616 C 0.63335 0.64869 0.22399 0.0
O617 O 0.59508 0.68052 0.20549 0.0
O618 O 0.59091 0.65297 0.20199 0.0
O619 O 0.62082 0.6393 0.22959 0.0
O620 O 0.62925 0.66436 0.22034 0.0
C621 C 0.60668 0.67972 0.25835 0.0
O622 O 0.58434 0.63807 0.23651 0.0
O623 O 0.57228 0.6635 0.23721 0.0
In624 In 0.53005 0.58666 0.85623 0.0
O625 O 0.50936 0.56737 0.84561 0.0
O626 O 0.51754 0.56417 0.87194 0.0
C627 C 0.56374 0.58324 0.84544 0.0
C628 C 0.51352 0.60519 0.83118 0.0
C629 C 0.53162 0.60214 0.8882 0.0
O630 O 0.55407 0.57001 0.84826 0.0
O631 O 0.55648 0.59786 0.8483 0.0
O632 O 0.52461 0.60966 0.87513 0.0
O633 O 0.53814 0.58723 0.88494 0.0
C634 C 0.50716 0.55942 0.85995 0.0
O635 O 0.50937 0.60636 0.84727 0.0
O636 O 0.5263 0.59509 0.8279 0.0
In637 In 0.66932 0.27675 0.10461 0.0
O638 O 0.68992 0.2568 0.09514 0.0
O639 O 0.69137 0.26514 0.12157 0.0
C640 C 0.67155 0.3102 0.09262 0.0
C641 C 0.65171 0.25784 0.08057 0.0
C642 C 0.65316 0.27901 0.13617 0.0
O643 O 0.68507 0.30136 0.09657 0.0
O644 O 0.6572 0.30221 0.09478 0.0
O645 O 0.64631 0.27102 0.1233 0.0
O646 O 0.66778 0.28617 0.1329 0.0
C647 C 0.69716 0.25493 0.1099 0.0
O648 O 0.64931 0.2559 0.09693 0.0
O649 O 0.66261 0.26967 0.0764 0.0
In650 In 0.96689 0.41976 0.34839 0.0
O651 O 0.98841 0.43972 0.34211 0.0
O652 O 0.97894 0.43908 0.36824 0.0
C653 C 0.93428 0.42743 0.33664 0.0
C654 C 0.9824 0.40282 0.3215 0.0
C655 C 0.96266 0.39996 0.37761 0.0
O656 O 0.94343 0.43861 0.34492 0.0
O657 O 0.94171 0.41281 0.33424 0.0
O658 O 0.97718 0.40072 0.36955 0.0
O659 O 0.95039 0.4087 0.37064 0.0
C660 C 0.99006 0.44527 0.35761 0.0
O661 O 0.98036 0.39565 0.33639 0.0
O662 O 0.97636 0.41823 0.32027 0.0
In663 In 0.83565 0.72428 0.5994 0.0
O664 O 0.85895 0.73268 0.58281 0.0
O665 O 0.83399 0.72961 0.57016 0.0
C666 C 0.84956 0.72361 0.63206 0.0
C667 C 0.81439 0.75237 0.60309 0.0
C668 C 0.83088 0.69015 0.59134 0.0
O669 O 0.85828 0.72871 0.61885 0.0
O670 O 0.83411 0.71861 0.62866 0.0
O671 O 0.81797 0.70024 0.59438 0.0
O672 O 0.84581 0.69725 0.59269 0.0
C673 C 0.85008 0.73364 0.56872 0.0
O674 O 0.83054 0.75342 0.59953 0.0
O675 O 0.80854 0.73686 0.60474 0.0
In676 In 0.52844 0.41748 0.64909 0.0
O677 O 0.50691 0.39847 0.65732 0.0
O678 O 0.52434 0.40809 0.67713 0.0
C679 C 0.52851 0.40304 0.61657 0.0
C680 C 0.50699 0.44604 0.64696 0.0
C681 C 0.5625 0.41862 0.6593 0.0
O682 O 0.52169 0.39534 0.62963 0.0
O683 O 0.53553 0.41765 0.62006 0.0
O684 O 0.55346 0.43245 0.65731 0.0
O685 O 0.5544 0.40455 0.65603 0.0
C686 C 0.5111 0.39874 0.67343 0.0
O687 O 0.50855 0.43696 0.6607 0.0
O688 O 0.51734 0.44165 0.63479 0.0
In689 In 0.82973 0.27511 0.89396 0.0
O690 O 0.84954 0.25416 0.90195 0.0
O691 O 0.83879 0.2706 0.92201 0.0
C692 C 0.84494 0.27739 0.8619 0.0
C693 C 0.80186 0.25298 0.8907 0.0
C694 C 0.82713 0.30861 0.90534 0.0
O695 O 0.85166 0.26853 0.87426 0.0
O696 O 0.83093 0.28534 0.86591 0.0
O697 O 0.81367 0.29955 0.90169 0.0
O698 O 0.84159 0.30082 0.90311 0.0
C699 C 0.84878 0.25789 0.91816 0.0
O700 O 0.80963 0.25555 0.90508 0.0
O701 O 0.80717 0.26264 0.87835 0.0
In702 In 0.97208 0.58402 0.14824 0.0
O703 O 0.9813 0.60708 0.16474 0.0
O704 O 0.97828 0.58212 0.17734 0.0
C705 C 0.97021 0.59876 0.11599 0.0
C706 C 0.00075 0.56378 0.14345 0.0
C707 C 0.93821 0.57832 0.15709 0.0
O708 O 0.97346 0.60764 0.12966 0.0
O709 O 0.96768 0.58257 0.11867 0.0
O710 O 0.94861 0.56566 0.15404 0.0
O711 O 0.94487 0.59338 0.15528 0.0
C712 C 0.98259 0.59812 0.17874 0.0
O713 O 0.98539 0.55741 0.14218 0.0
O714 O 0.00135 0.57994 0.1471 0.0
In715 In 0.67565 0.72325 0.40364 0.0
O716 O 0.65007 0.73336 0.41589 0.0
O717 O 0.6743 0.74403 0.42499 0.0
C718 C 0.65808 0.71696 0.37343 0.0
C719 C 0.70303 0.74377 0.39392 0.0
C720 C 0.68082 0.69158 0.41925 0.0
O721 O 0.65596 0.73101 0.38207 0.0
O722 O 0.66885 0.70624 0.38012 0.0
O723 O 0.69201 0.69834 0.40899 0.0
O724 O 0.66761 0.70112 0.42217 0.0
C725 C 0.65776 0.74399 0.4261 0.0
O726 O 0.70048 0.73925 0.4097 0.0
O727 O 0.69254 0.73697 0.38304 0.0
In728 In 0.84846 0.52611 0.58776 0.0
O729 O 0.84922 0.49703 0.58259 0.0
O730 O 0.85366 0.51373 0.56049 0.0
C731 C 0.83932 0.56001 0.58341 0.0
C732 C 0.81854 0.51549 0.60286 0.0
C733 C 0.88159 0.52749 0.60039 0.0
O734 O 0.84204 0.54999 0.57037 0.0
O735 O 0.84147 0.55293 0.59828 0.0
O736 O 0.86888 0.52201 0.60962 0.0
O737 O 0.87743 0.53259 0.58516 0.0
C738 C 0.8525 0.49818 0.56639 0.0
O739 O 0.83277 0.51696 0.61142 0.0
O740 O 0.81942 0.51976 0.58678 0.0
In741 In 0.72767 0.59945 0.83477 0.0
O742 O 0.73983 0.60513 0.80756 0.0
O743 O 0.75675 0.60025 0.8294 0.0
C744 C 0.69342 0.59131 0.83063 0.0
C745 C 0.73809 0.56882 0.84857 0.0
C746 C 0.72696 0.63171 0.84956 0.0
O747 O 0.70306 0.59503 0.81756 0.0
O748 O 0.70103 0.59198 0.84534 0.0
O749 O 0.73074 0.61806 0.85825 0.0
O750 O 0.72333 0.629 0.83359 0.0
C751 C 0.75544 0.60384 0.81327 0.0
O752 O 0.73709 0.5828 0.85757 0.0
O753 O 0.73363 0.5703 0.83259 0.0
In754 In 0.64673 0.47272 0.07732 0.0
O755 O 0.65682 0.48762 0.10128 0.0
O756 O 0.67387 0.48477 0.07912 0.0
C757 C 0.61534 0.47099 0.09372 0.0
C758 C 0.63933 0.49556 0.0508 0.0
C759 C 0.65886 0.43931 0.07443 0.0
O760 O 0.62772 0.4805 0.09944 0.0
O761 O 0.61904 0.46213 0.08015 0.0
O762 O 0.65308 0.44769 0.0613 0.0
O763 O 0.65862 0.4478 0.08864 0.0
C764 C 0.67163 0.49092 0.0944 0.0
O765 O 0.65468 0.49314 0.0565 0.0
O766 O 0.62803 0.48545 0.05741 0.0
In767 In 0.77274 0.40391 0.34299 0.0
O768 O 0.75641 0.39931 0.31775 0.0
O769 O 0.74451 0.39582 0.34295 0.0
C770 C 0.80516 0.41573 0.33569 0.0
C771 C 0.76075 0.43368 0.35733 0.0
C772 C 0.78031 0.37151 0.35497 0.0
O773 O 0.79463 0.41126 0.32351 0.0
O774 O 0.79925 0.41403 0.35113 0.0
O775 O 0.77372 0.38318 0.36487 0.0
O776 O 0.78337 0.37639 0.33938 0.0
C777 C 0.74272 0.39535 0.32647 0.0
O778 O 0.76454 0.42033 0.36659 0.0
O779 O 0.76328 0.43195 0.34097 0.0
In780 In 0.85031 0.47179 0.91286 0.0
O781 O 0.83533 0.4807 0.88868 0.0
O782 O 0.82111 0.47758 0.91278 0.0
C783 C 0.88348 0.47135 0.90017 0.0
C784 C 0.85311 0.49934 0.93497 0.0
C785 C 0.84135 0.4378 0.91695 0.0
O786 O 0.87062 0.47677 0.89115 0.0
O787 O 0.87951 0.46587 0.91532 0.0
O788 O 0.84379 0.44776 0.93008 0.0
O789 O 0.8438 0.44494 0.90217 0.0
C790 C 0.82074 0.48182 0.89667 0.0
O791 O 0.84944 0.50073 0.91888 0.0
O792 O 0.8553 0.48373 0.94036 0.0
In793 In 0.77655 0.59784 0.16904 0.0
O794 O 0.75817 0.59159 0.19219 0.0
O795 O 0.76249 0.61833 0.18603 0.0
C796 C 0.8089 0.58377 0.1738 0.0
C797 C 0.7574 0.5737 0.15171 0.0
C798 C 0.7832 0.62781 0.15136 0.0
O799 O 0.80098 0.59197 0.18592 0.0
O800 O 0.80033 0.58238 0.15969 0.0
O801 O 0.76997 0.61833 0.14789 0.0
O802 O 0.79296 0.62204 0.16351 0.0
C803 C 0.75424 0.60737 0.19528 0.0
O804 O 0.76207 0.58799 0.14458 0.0
O805 O 0.76266 0.5716 0.16731 0.0
In806 In 0.64582 0.52991 0.42062 0.0
O807 O 0.66124 0.52111 0.39663 0.0
O808 O 0.67494 0.52366 0.42108 0.0
C809 C 0.61307 0.53061 0.4069 0.0
C810 C 0.64175 0.50188 0.44199 0.0
C811 C 0.65536 0.56372 0.42546 0.0
O812 O 0.62621 0.52525 0.39826 0.0
O813 O 0.61655 0.53599 0.42221 0.0
O814 O 0.65368 0.55325 0.43832 0.0
O815 O 0.65173 0.5572 0.41064 0.0
C816 C 0.67561 0.51959 0.40495 0.0
O817 O 0.64685 0.50089 0.42627 0.0
O818 O 0.63881 0.51735 0.44745 0.0
In819 In 0.72602 0.39559 0.66052 0.0
O820 O 0.74143 0.39128 0.68644 0.0
O821 O 0.75528 0.39306 0.66207 0.0
C822 C 0.69229 0.40415 0.66685 0.0
C823 C 0.73548 0.42667 0.64711 0.0
C824 C 0.72331 0.36316 0.64649 0.0
O825 O 0.70252 0.39966 0.67925 0.0
O826 O 0.69907 0.40395 0.6517 0.0
O827 O 0.72755 0.3764 0.63736 0.0
O828 O 0.72014 0.36641 0.66247 0.0
C829 C 0.75614 0.39114 0.67852 0.0
O830 O 0.73363 0.41309 0.6376 0.0
O831 O 0.7322 0.42453 0.6633 0.0
In832 In 0.57557 0.84938 0.52781 0.0
O833 O 0.60123 0.83727 0.51773 0.0
O834 O 0.57697 0.82671 0.50854 0.0
C835 C 0.59197 0.88076 0.53065 0.0
C836 C 0.54765 0.85721 0.50712 0.0
C837 C 0.57107 0.83558 0.56045 0.0
O838 O 0.59497 0.87037 0.51802 0.0
O839 O 0.58108 0.87511 0.54184 0.0
O840 O 0.55902 0.84385 0.55258 0.0
O841 O 0.58498 0.83383 0.55166 0.0
C842 C 0.59354 0.82616 0.50804 0.0
O843 O 0.55182 0.84161 0.51091 0.0
O844 O 0.55682 0.86877 0.51466 0.0
In845 In 0.0823 0.64922 0.47179 0.0
O846 O 0.06358 0.65547 0.49442 0.0
O847 O 0.06073 0.63071 0.48211 0.0
C848 C 0.07522 0.66074 0.43896 0.0
C849 C 0.09935 0.67654 0.48611 0.0
C850 C 0.10169 0.61956 0.4687 0.0
O851 O 0.06378 0.65273 0.44804 0.0
O852 O 0.08978 0.66294 0.44655 0.0
O853 O 0.10013 0.62751 0.48321 0.0
O854 O 0.09405 0.6269 0.45595 0.0
C855 C 0.05598 0.64078 0.49441 0.0
O856 O 0.1064 0.66151 0.48485 0.0
O857 O 0.0839 0.67761 0.48012 0.0
In858 In 0.6004 0.83672 0.72311 0.0
O859 O 0.58636 0.8612 0.73265 0.0
O860 O 0.57207 0.837 0.73253 0.0
C861 C 0.63327 0.85 0.72071 0.0
C862 C 0.60531 0.81475 0.75048 0.0
C863 C 0.58923 0.83153 0.68977 0.0
O864 O 0.62042 0.85896 0.72619 0.0
O865 O 0.62945 0.83453 0.7161 0.0
O866 O 0.5922 0.8188 0.70008 0.0
O867 O 0.59202 0.84652 0.69627 0.0
C868 C 0.57219 0.85323 0.73622 0.0
O869 O 0.60633 0.80928 0.73478 0.0
O870 O 0.60189 0.83087 0.75206 0.0
In871 In 0.42164 0.35027 0.97121 0.0
O872 O 0.44324 0.34305 0.99113 0.0
O873 O 0.44085 0.36971 0.98382 0.0
C874 C 0.42569 0.33736 0.93825 0.0
C875 C 0.40405 0.32572 0.98949 0.0
C876 C 0.40499 0.38133 0.96727 0.0
O877 O 0.43831 0.34418 0.94664 0.0
O878 O 0.41141 0.33675 0.94661 0.0
O879 O 0.40105 0.37078 0.97953 0.0
O880 O 0.41684 0.37591 0.95695 0.0
C881 C 0.44827 0.35862 0.99359 0.0
O882 O 0.39717 0.34035 0.98552 0.0
O883 O 0.41954 0.32347 0.98392 0.0
In884 In 0.40179 0.65908 0.72228 0.0
O885 O 0.39497 0.68705 0.73216 0.0
O886 O 0.40129 0.66709 0.75075 0.0
C887 C 0.41325 0.66255 0.68881 0.0
C888 C 0.42942 0.64346 0.73759 0.0
C889 C 0.36909 0.64537 0.71974 0.0
O890 O 0.41068 0.67575 0.69861 0.0
O891 O 0.4099 0.64794 0.69587 0.0
O892 O 0.38249 0.63599 0.72261 0.0
O893 O 0.37224 0.66154 0.71789 0.0
C894 C 0.39694 0.68284 0.74816 0.0
O895 O 0.41434 0.63644 0.737 0.0
O896 O 0.43071 0.65812 0.7298 0.0
In897 In 0.90976 0.14534 0.02292 0.0
O898 O 0.93791 0.13932 0.01317 0.0
O899 O 0.91861 0.14769 0.9947 0.0
C900 C 0.91468 0.15521 0.0568 0.0
C901 C 0.89268 0.17244 0.00816 0.0
C902 C 0.89607 0.11244 0.02355 0.0
O903 O 0.92745 0.15136 0.04687 0.0
O904 O 0.8998 0.15396 0.04966 0.0
O905 O 0.88668 0.12597 0.02553 0.0
O906 O 0.91222 0.1155 0.02162 0.0
C907 C 0.93421 0.14276 0.99729 0.0
O908 O 0.88676 0.15689 0.00796 0.0
O909 O 0.90704 0.17441 0.01635 0.0
In910 In 0.60116 0.16313 0.77689 0.0
O911 O 0.60655 0.18993 0.76366 0.0
O912 O 0.60276 0.16716 0.74768 0.0
C913 C 0.59293 0.16792 0.81105 0.0
C914 C 0.57023 0.15024 0.76625 0.0
C915 C 0.63328 0.14813 0.77828 0.0
O916 O 0.59719 0.18076 0.80129 0.0
O917 O 0.59312 0.15313 0.80359 0.0
O918 O 0.61952 0.13935 0.77513 0.0
O919 O 0.63075 0.16431 0.78096 0.0
C920 C 0.60577 0.18344 0.7483 0.0
O921 O 0.58391 0.14078 0.76743 0.0
O922 O 0.57216 0.16614 0.77079 0.0
In923 In 0.89891 0.83801 0.27416 0.0
O924 O 0.89585 0.81198 0.25888 0.0
O925 O 0.88531 0.83572 0.24818 0.0
C926 C 0.91045 0.83068 0.30685 0.0
C927 C 0.92772 0.85096 0.2586 0.0
C928 C 0.86803 0.85361 0.28131 0.0
O929 O 0.90305 0.8191 0.29742 0.0
O930 O 0.91202 0.84554 0.29968 0.0
O931 O 0.88123 0.86222 0.27594 0.0
O932 O 0.87071 0.83738 0.28368 0.0
C933 C 0.88758 0.81939 0.24642 0.0
O934 O 0.91527 0.86073 0.26377 0.0
O935 O 0.92569 0.83474 0.26156 0.0
In936 In 0.47481 0.41969 0.14541 0.0
O937 O 0.49525 0.39908 0.15276 0.0
O938 O 0.48175 0.41234 0.17351 0.0
C939 C 0.47213 0.4043 0.11349 0.0
C940 C 0.49655 0.44763 0.14029 0.0
C941 C 0.44136 0.42189 0.15737 0.0
O942 O 0.481 0.39753 0.12582 0.0
O943 O 0.46436 0.41841 0.11749 0.0
O944 O 0.45026 0.43542 0.15361 0.0
O945 O 0.44935 0.40754 0.15519 0.0
C946 C 0.49331 0.4012 0.16916 0.0
O947 O 0.49508 0.44001 0.15491 0.0
O948 O 0.48607 0.44209 0.12875 0.0
In949 In 0.33569 0.72197 0.89487 0.0
O950 O 0.30842 0.73435 0.88965 0.0
O951 O 0.33038 0.75104 0.89463 0.0
C952 C 0.33157 0.68769 0.90306 0.0
C953 C 0.35026 0.7323 0.92523 0.0
C954 C 0.34994 0.72152 0.86234 0.0
O955 O 0.31844 0.69761 0.90048 0.0
O956 O 0.34632 0.69502 0.90115 0.0
O957 O 0.35879 0.72521 0.87591 0.0
O958 O 0.33401 0.71783 0.86524 0.0
C959 C 0.3142 0.7499 0.89124 0.0
O960 O 0.35886 0.73157 0.91098 0.0
O961 O 0.33436 0.72749 0.92417 0.0
In962 In 0.02648 0.57741 0.64478 0.0
O963 O 0.0122 0.60212 0.65432 0.0
O964 O 0.01264 0.57956 0.671 0.0
C965 C 0.0292 0.59248 0.6128 0.0
C966 C 0.00392 0.55048 0.63831 0.0
C967 C 0.05967 0.57466 0.65753 0.0
O968 O 0.01908 0.59851 0.62457 0.0
O969 O 0.0381 0.5792 0.61737 0.0
O970 O 0.05147 0.56157 0.65141 0.0
O971 O 0.05109 0.58881 0.65734 0.0
C972 C 0.00749 0.59518 0.66871 0.0
O973 O 0.00785 0.55533 0.65365 0.0
O974 O 0.01231 0.55829 0.62638 0.0
In975 In 0.16335 0.27437 0.40046 0.0
O976 O 0.19063 0.262 0.39562 0.0
O977 O 0.16803 0.24544 0.39755 0.0
C978 C 0.16773 0.30806 0.41062 0.0
C979 C 0.14933 0.26147 0.43004 0.0
C980 C 0.14907 0.2771 0.36807 0.0
O981 O 0.15301 0.30049 0.40984 0.0
O982 O 0.1807 0.29864 0.40606 0.0
O983 O 0.14 0.27359 0.38154 0.0
O984 O 0.16524 0.27942 0.371 0.0
C985 C 0.18443 0.24652 0.39544 0.0
O986 O 0.14038 0.2638 0.41618 0.0
O987 O 0.16529 0.26611 0.42907 0.0
In988 In 0.4699 0.57749 0.35021 0.0
O989 O 0.4932 0.55975 0.34387 0.0
O990 O 0.48116 0.55633 0.36872 0.0
C991 C 0.43739 0.56607 0.3411 0.0
C992 C 0.48418 0.5951 0.32309 0.0
C993 C 0.46673 0.60018 0.37748 0.0
O994 O 0.44518 0.56056 0.35471 0.0
O995 O 0.44622 0.57664 0.33195 0.0
O996 O 0.48107 0.59277 0.37367 0.0
O997 O 0.45423 0.59672 0.36711 0.0
C998 C 0.4936 0.55214 0.35857 0.0
O999 O 0.48188 0.60218 0.33798 0.0
O1000 O 0.47907 0.57935 0.32196 0.0
In1001 In 0.16258 0.72258 0.10027 0.0
O1002 O 0.18932 0.73595 0.10544 0.0
O1003 O 0.16642 0.75183 0.10217 0.0
C1004 C 0.16855 0.68882 0.09125 0.0
C1005 C 0.14834 0.73341 0.06997 0.0
C1006 C 0.14779 0.72005 0.13245 0.0
O1007 O 0.18104 0.69894 0.09562 0.0
O1008 O 0.15349 0.69572 0.09172 0.0
O1009 O 0.13888 0.72319 0.11878 0.0
O1010 O 0.16404 0.71802 0.12982 0.0
C1011 C 0.18275 0.75127 0.10494 0.0
O1012 O 0.13947 0.73197 0.084 0.0
O1013 O 0.16437 0.72909 0.07122 0.0
In1014 In 0.02788 0.4213 0.85185 0.0
O1015 O 0.01048 0.3984 0.84333 0.0
O1016 O 0.01749 0.41766 0.82414 0.0
C1017 C 0.03008 0.40503 0.88336 0.0
C1018 C 0.00437 0.4475 0.85795 0.0
C1019 C 0.06136 0.42517 0.83999 0.0
O1020 O 0.0253 0.39703 0.86959 0.0
O1021 O 0.03393 0.42103 0.88112 0.0
O1022 O 0.05216 0.43818 0.84465 0.0
O1023 O 0.05371 0.41058 0.84138 0.0
C1024 C 0.00917 0.40369 0.82759 0.0
O1025 O 0.00635 0.44049 0.84309 0.0
O1026 O 0.01508 0.44221 0.86942 0.0
In1027 In 0.34324 0.27454 0.5974 0.0
O1028 O 0.36606 0.26581 0.58027 0.0
O1029 O 0.34098 0.26964 0.5681 0.0
C1030 C 0.35723 0.27486 0.63002 0.0
C1031 C 0.32281 0.24593 0.60052 0.0
C1032 C 0.33781 0.30885 0.59065 0.0
O1033 O 0.36652 0.27239 0.61644 0.0
O1034 O 0.34112 0.27741 0.62704 0.0
O1035 O 0.32518 0.29863 0.59435 0.0
O1036 O 0.35279 0.30174 0.59058 0.0
C1037 C 0.35692 0.26519 0.56634 0.0
O1038 O 0.31633 0.26128 0.60135 0.0
O1039 O 0.3392 0.24531 0.59814 0.0
In1040 In 0.1432 0.47077 0.41719 0.0
O1041 O 0.15801 0.48227 0.3938 0.0
O1042 O 0.17055 0.4824 0.41889 0.0
C1043 C 0.11163 0.46522 0.40232 0.0
C1044 C 0.13344 0.49698 0.43897 0.0
C1045 C 0.15462 0.43753 0.42166 0.0
O1046 O 0.12397 0.47305 0.39433 0.0
O1047 O 0.11552 0.45959 0.4175 0.0
O1048 O 0.14799 0.44622 0.43425 0.0
O1049 O 0.15531 0.44561 0.40719 0.0
C1050 C 0.17145 0.48627 0.40277 0.0
O1051 O 0.144 0.48516 0.44411 0.0
O1052 O 0.12802 0.49523 0.42343 0.0
In1053 In 0.27797 0.39729 0.17051 0.0
O1054 O 0.25875 0.40814 0.19113 0.0
O1055 O 0.26511 0.38116 0.19247 0.0
C1056 C 0.31172 0.40851 0.1725 0.0
C1057 C 0.25929 0.4207 0.15179 0.0
C1058 C 0.27989 0.36523 0.1554 0.0
O1059 O 0.30303 0.40428 0.18603 0.0
O1060 O 0.30338 0.40715 0.15825 0.0
O1061 O 0.2719 0.37792 0.14824 0.0
O1062 O 0.28722 0.36889 0.16985 0.0
C1063 C 0.25582 0.39354 0.19833 0.0
O1064 O 0.25789 0.40428 0.14947 0.0
O1065 O 0.27048 0.42526 0.16321 0.0
In1066 In 0.35484 0.52533 0.91578 0.0
O1067 O 0.34992 0.50932 0.94124 0.0
O1068 O 0.37494 0.50782 0.92908 0.0
C1069 C 0.34129 0.55809 0.9194 0.0
C1070 C 0.33029 0.50523 0.90012 0.0
C1071 C 0.38585 0.53165 0.8999 0.0
O1072 O 0.34896 0.55027 0.93192 0.0
O1073 O 0.34022 0.54926 0.90542 0.0
O1074 O 0.37429 0.52181 0.89302 0.0
O1075 O 0.38144 0.53857 0.91437 0.0
C1076 C 0.36505 0.50249 0.94121 0.0
O1077 O 0.34375 0.51066 0.89197 0.0
O1078 O 0.32924 0.51014 0.91594 0.0
In1079 In 0.22328 0.59909 0.66067 0.0
O1080 O 0.23623 0.60455 0.68756 0.0
O1081 O 0.25241 0.60088 0.66489 0.0
C1082 C 0.18929 0.59037 0.66561 0.0
C1083 C 0.23462 0.56849 0.64748 0.0
C1084 C 0.22169 0.63145 0.64622 0.0
O1085 O 0.19924 0.59405 0.67847 0.0
O1086 O 0.19646 0.59141 0.65069 0.0
O1087 O 0.2248 0.61785 0.63717 0.0
O1088 O 0.2191 0.62862 0.66237 0.0
C1089 C 0.25163 0.60385 0.68118 0.0
O1090 O 0.23315 0.58221 0.63812 0.0
O1091 O 0.2299 0.57018 0.66335 0.0
In1092 In 0.14911 0.52536 0.08175 0.0
O1093 O 0.15984 0.50519 0.06213 0.0
O1094 O 0.13381 0.5142 0.05834 0.0
C1095 C 0.16032 0.55909 0.07908 0.0
C1096 C 0.17238 0.50587 0.09983 0.0
C1097 C 0.11717 0.52701 0.09734 0.0
O1098 O 0.15683 0.54993 0.06568 0.0
O1099 O 0.1581 0.55128 0.0935 0.0
O1100 O 0.13103 0.52372 0.1059 0.0
O1101 O 0.1195 0.52961 0.08112 0.0
C1102 C 0.14575 0.50375 0.05356 0.0
O1103 O 0.15596 0.5033 0.10082 0.0
O1104 O 0.17694 0.51847 0.08999 0.0
In1105 In 0.22241 0.39886 0.82847 0.0
O1106 O 0.2408 0.40459 0.80523 0.0
O1107 O 0.23536 0.37799 0.81105 0.0
C1108 C 0.19038 0.41363 0.82377 0.0
C1109 C 0.24226 0.42263 0.84562 0.0
C1110 C 0.21507 0.36922 0.84646 0.0
O1111 O 0.19812 0.4053 0.81162 0.0
O1112 O 0.19897 0.41478 0.83791 0.0
O1113 O 0.22898 0.37794 0.84921 0.0
O1114 O 0.20498 0.37562 0.83491 0.0
C1115 C 0.24402 0.3887 0.80189 0.0
O1116 O 0.23799 0.40811 0.85252 0.0
O1117 O 0.2362 0.42518 0.83039 0.0
In1118 In 0.3546 0.47354 0.5917 0.0
O1119 O 0.36292 0.48386 0.56445 0.0
O1120 O 0.3519 0.50184 0.58287 0.0
C1121 C 0.34609 0.43937 0.58767 0.0
C1122 C 0.32442 0.48417 0.60639 0.0
C1123 C 0.3873 0.47387 0.60573 0.0
O1124 O 0.34786 0.44957 0.57464 0.0
O1125 O 0.34888 0.44637 0.60245 0.0
O1126 O 0.37402 0.47897 0.61435 0.0
O1127 O 0.38393 0.46848 0.59042 0.0
C1128 C 0.35838 0.49949 0.56782 0.0
O1129 O 0.33884 0.48417 0.61478 0.0
O1130 O 0.32531 0.47853 0.59075 0.0
In1131 In 0.2758 0.59622 0.33855 0.0
O1132 O 0.26269 0.6 0.31139 0.0
O1133 O 0.24692 0.60087 0.33459 0.0
C1134 C 0.3085 0.58375 0.33259 0.0
C1135 C 0.26154 0.56798 0.35386 0.0
C1136 C 0.28085 0.6285 0.35251 0.0
O1137 O 0.29972 0.59117 0.32055 0.0
O1138 O 0.30088 0.58288 0.34727 0.0
O1139 O 0.27765 0.61517 0.36188 0.0
O1140 O 0.28184 0.62546 0.33623 0.0
C1141 C 0.2475 0.60169 0.31805 0.0
O1142 O 0.26464 0.58204 0.36224 0.0
O1143 O 0.26606 0.56809 0.33782 0.0
In1144 In 0.41342 0.14985 0.46862 0.0
O1145 O 0.44006 0.14412 0.48206 0.0
O1146 O 0.41763 0.14984 0.49789 0.0
C1147 C 0.41911 0.15788 0.43452 0.0
C1148 C 0.39918 0.18055 0.4784 0.0
C1149 C 0.39873 0.11754 0.46784 0.0
O1150 O 0.43177 0.15539 0.44507 0.0
O1151 O 0.40404 0.15588 0.44115 0.0
O1152 O 0.38985 0.13129 0.47072 0.0
O1153 O 0.41489 0.12015 0.4651 0.0
C1154 C 0.43376 0.14609 0.49738 0.0
O1155 O 0.39029 0.16648 0.47753 0.0
O1156 O 0.41515 0.17911 0.47396 0.0
In1157 In 0.91357 0.34997 0.52655 0.0
O1158 O 0.93946 0.35514 0.51125 0.0
O1159 O 0.91533 0.35211 0.49725 0.0
C1160 C 0.92062 0.34035 0.56002 0.0
C1161 C 0.89893 0.32002 0.51528 0.0
C1162 C 0.89896 0.38217 0.52951 0.0
O1163 O 0.93285 0.34434 0.5494 0.0
O1164 O 0.90533 0.34153 0.55373 0.0
O1165 O 0.88996 0.36848 0.52676 0.0
O1166 O 0.91528 0.37956 0.53112 0.0
C1167 C 0.93168 0.35464 0.49648 0.0
O1168 O 0.89003 0.33383 0.51805 0.0
O1169 O 0.91514 0.32119 0.51887 0.0
In1170 In 0.40038 0.16979 0.27316 0.0
O1171 O 0.41179 0.14538 0.25978 0.0
O1172 O 0.4254 0.16968 0.25696 0.0
C1173 C 0.37123 0.15146 0.28145 0.0
C1174 C 0.38828 0.19497 0.25093 0.0
C1175 C 0.41498 0.17544 0.30514 0.0
O1176 O 0.38039 0.1478 0.26803 0.0
O1177 O 0.37694 0.1641 0.29061 0.0
O1178 O 0.40579 0.18698 0.29746 0.0
O1179 O 0.41723 0.16152 0.29642 0.0
C1180 C 0.42473 0.15353 0.25325 0.0
O1181 O 0.40406 0.19459 0.25604 0.0
O1182 O 0.37862 0.18349 0.25787 0.0
In1183 In 0.58116 0.64937 0.03174 0.0
O1184 O 0.60293 0.6571 0.01287 0.0
O1185 O 0.58943 0.67759 0.02655 0.0
C1186 C 0.59548 0.61686 0.03268 0.0
C1187 C 0.55403 0.64626 0.0086 0.0
C1188 C 0.57858 0.66017 0.06556 0.0
O1189 O 0.60282 0.62954 0.02485 0.0
O1190 O 0.5813 0.62074 0.04038 0.0
O1191 O 0.56513 0.65777 0.05607 0.0
O1192 O 0.593 0.65704 0.05802 0.0
C1193 C 0.60107 0.67344 0.01542 0.0
O1194 O 0.56294 0.66009 0.01018 0.0
O1195 O 0.55775 0.63457 0.01973 0.0
In1196 In 0.59767 0.32785 0.27757 0.0
O1197 O 0.59174 0.34906 0.25723 0.0
O1198 O 0.57022 0.33471 0.26812 0.0
C1199 C 0.62842 0.34381 0.28506 0.0
C1200 C 0.60525 0.30084 0.25539 0.0
C1201 C 0.58345 0.32479 0.31008 0.0
O1202 O 0.61756 0.35034 0.27426 0.0
O1203 O 0.62358 0.32956 0.29206 0.0
O1204 O 0.58933 0.31161 0.30178 0.0
O1205 O 0.58441 0.33912 0.30181 0.0
C1206 C 0.57532 0.34639 0.25744 0.0
O1207 O 0.58976 0.30609 0.25803 0.0
O1208 O 0.61656 0.30821 0.26494 0.0
In1209 In 0.08794 0.84949 0.97346 0.0
O1210 O 0.08272 0.8505 0.00261 0.0
O1211 O 0.06091 0.85565 0.98574 0.0
C1212 C 0.08263 0.84021 0.93965 0.0
C1213 C 0.10243 0.81939 0.98457 0.0
C1214 C 0.10263 0.88177 0.97146 0.0
O1215 O 0.0699 0.84371 0.9498 0.0
O1216 O 0.09764 0.84172 0.94652 0.0
O1217 O 0.11151 0.86817 0.97491 0.0
O1218 O 0.08648 0.87903 0.96885 0.0
C1219 C 0.06664 0.8543 0.00134 0.0
O1220 O 0.11107 0.83359 0.98348 0.0
O1221 O 0.0865 0.8204 0.97983 0.0
In1222 In 0.40378 0.83709 0.22034 0.0
O1223 O 0.42075 0.85953 0.2302 0.0
O1224 O 0.43261 0.83419 0.2273 0.0
C1225 C 0.37158 0.8519 0.21849 0.0
C1226 C 0.39863 0.81662 0.2487 0.0
C1227 C 0.41244 0.83197 0.18632 0.0
O1228 O 0.38528 0.86082 0.22148 0.0
O1229 O 0.37421 0.83568 0.2162 0.0
O1230 O 0.40857 0.81921 0.19633 0.0
O1231 O 0.41173 0.84689 0.19349 0.0
C1232 C 0.43437 0.85008 0.2319 0.0
O1233 O 0.39815 0.81023 0.23329 0.0
O1234 O 0.40158 0.83291 0.24949 0.0
In1235 In 0.09903 0.16934 0.72453 0.0
O1236 O 0.08907 0.18966 0.74449 0.0
O1237 O 0.11604 0.1903 0.73786 0.0
C1238 C 0.08436 0.17321 0.69241 0.0
C1239 C 0.07747 0.14869 0.74342 0.0
C1240 C 0.13059 0.15501 0.71689 0.0
O1241 O 0.08896 0.18632 0.70158 0.0
O1242 O 0.08713 0.15848 0.69951 0.0
O1243 O 0.12002 0.14788 0.72757 0.0
O1244 O 0.12512 0.16913 0.71007 0.0
C1245 C 0.10393 0.19632 0.74741 0.0
O1246 O 0.09401 0.14804 0.74507 0.0
O1247 O 0.07196 0.15937 0.73195 0.0
H1248 H 0.08286 0.05506 0.34238 0.0
H1249 H 0.08124 0.10848 0.32301 0.0
H1250 H 0.11452 0.05403 0.33671 0.0
H1251 H 0.11283 0.10752 0.31754 0.0
H1252 H 0.17009 0.0984 0.30309 0.0
H1253 H 0.13808 0.09408 0.30111 0.0
H1254 H 0.13841 0.06942 0.35235 0.0
H1255 H 0.16998 0.07367 0.35428 0.0
C1256 C 0.08921 0.06647 0.33665 0.0
C1257 C 0.07964 0.08193 0.33337 0.0
C1258 C 0.10733 0.0659 0.33344 0.0
C1259 C 0.11619 0.08075 0.32682 0.0
C1260 C 0.10638 0.09582 0.3225 0.0
C1261 C 0.0883 0.09641 0.32579 0.0
C1262 C 0.16328 0.09181 0.31374 0.0
C1263 C 0.17245 0.08652 0.32889 0.0
C1264 C 0.14501 0.08939 0.31265 0.0
C1265 C 0.13573 0.08139 0.32658 0.0
C1266 C 0.14514 0.07539 0.3413 0.0
C1267 C 0.16325 0.078 0.34247 0.0
H1268 H 0.15082 0.91824 0.55276 0.0
H1269 H 0.17876 0.91932 0.60224 0.0
H1270 H 0.15582 0.88635 0.55081 0.0
H1271 H 0.18373 0.88781 0.60034 0.0
H1272 H 0.19678 0.83144 0.59032 0.0
H1273 H 0.19789 0.8631 0.5842 0.0
H1274 H 0.14311 0.86206 0.56907 0.0
H1275 H 0.14203 0.83066 0.57509 0.0
C1276 C 0.15832 0.91173 0.56299 0.0
C1277 C 0.16421 0.92115 0.57774 0.0
C1278 C 0.16114 0.89353 0.56193 0.0
C1279 C 0.17012 0.88458 0.57546 0.0
C1280 C 0.17694 0.8943 0.58961 0.0
C1281 C 0.17393 0.91234 0.59077 0.0
C1282 C 0.1851 0.83797 0.58542 0.0
C1283 C 0.16927 0.82866 0.58342 0.0
C1284 C 0.18571 0.85606 0.58192 0.0
C1285 C 0.17056 0.86507 0.57619 0.0
C1286 C 0.15505 0.85549 0.57326 0.0
C1287 C 0.15439 0.83752 0.57691 0.0
H1288 H 0.41256 0.95188 0.83788 0.0
H1289 H 0.42311 0.90045 0.81601 0.0
H1290 H 0.38094 0.94743 0.8326 0.0
H1291 H 0.3918 0.89607 0.811 0.0
H1292 H 0.33785 0.88629 0.83976 0.0
H1293 H 0.36902 0.89349 0.83758 0.0
H1294 H 0.35649 0.93931 0.80643 0.0
H1295 H 0.32499 0.93181 0.80825 0.0
C1296 C 0.40819 0.93987 0.83157 0.0
C1297 C 0.42026 0.92641 0.8276 0.0
C1298 C 0.39016 0.93735 0.82851 0.0
C1299 C 0.38403 0.92134 0.82156 0.0
C1300 C 0.39622 0.90847 0.81649 0.0
C1301 C 0.41414 0.911 0.8194 0.0
C1302 C 0.34174 0.89777 0.83224 0.0
C1303 C 0.32907 0.90845 0.8241 0.0
C1304 C 0.35955 0.90187 0.83097 0.0
C1305 C 0.36508 0.91693 0.82182 0.0
C1306 C 0.35248 0.92763 0.81355 0.0
C1307 C 0.33456 0.92328 0.81449 0.0
H1308 H 0.29875 0.16755 0.0929 0.0
H1309 H 0.34903 0.17255 0.06684 0.0
H1310 H 0.29987 0.13563 0.08875 0.0
H1311 H 0.35011 0.14075 0.06268 0.0
H1312 H 0.3275 0.08312 0.10601 0.0
H1313 H 0.32049 0.11424 0.10363 0.0
H1314 H 0.33587 0.11365 0.04889 0.0
H1315 H 0.34282 0.08215 0.05126 0.0
C1316 C 0.30982 0.16188 0.08592 0.0
C1317 C 0.3239 0.17248 0.08038 0.0
C1318 C 0.31049 0.14363 0.08361 0.0
C1319 C 0.32515 0.13571 0.07552 0.0
C1320 C 0.33861 0.14648 0.06885 0.0
C1321 C 0.33802 0.16467 0.07134 0.0
C1322 C 0.32923 0.08956 0.0934 0.0
C1323 C 0.33584 0.08027 0.07885 0.0
C1324 C 0.32504 0.10736 0.092 0.0
C1325 C 0.32755 0.11635 0.07606 0.0
C1326 C 0.33382 0.107 0.06134 0.0
C1327 C 0.33778 0.08903 0.06269 0.0
H1328 H 0.08521 0.9515 0.15464 0.0
H1329 H 0.08181 0.89816 0.17396 0.0
H1330 H 0.11698 0.95145 0.16052 0.0
H1331 H 0.11328 0.89813 0.17985 0.0
H1332 H 0.17202 0.92754 0.14371 0.0
H1333 H 0.14074 0.93414 0.14511 0.0
H1334 H 0.13824 0.91151 0.19722 0.0
H1335 H 0.16986 0.90491 0.19582 0.0
C1336 C 0.09118 0.93993 0.16045 0.0
C1337 C 0.08114 0.92476 0.16363 0.0
C1338 C 0.10932 0.93988 0.16378 0.0
C1339 C 0.11759 0.92476 0.17061 0.0
C1340 C 0.10728 0.91003 0.17478 0.0
C1341 C 0.08928 0.91 0.17123 0.0
C1342 C 0.16487 0.92419 0.15558 0.0
C1343 C 0.17329 0.91551 0.16958 0.0
C1344 C 0.14698 0.92815 0.15645 0.0
C1345 C 0.13705 0.92334 0.17126 0.0
C1346 C 0.14561 0.91531 0.18561 0.0
C1347 C 0.16365 0.91155 0.18483 0.0
H1348 H 0.34613 0.91644 0.44569 0.0
H1349 H 0.3265 0.91779 0.39235 0.0
H1350 H 0.3414 0.88448 0.44648 0.0
H1351 H 0.32173 0.88616 0.39317 0.0
H1352 H 0.30683 0.82962 0.40183 0.0
H1353 H 0.30489 0.86136 0.40756 0.0
H1354 H 0.35725 0.86049 0.42967 0.0
H1355 H 0.3592 0.82906 0.42392 0.0
C1356 C 0.34053 0.90996 0.43429 0.0
C1357 C 0.33689 0.91951 0.4189 0.0
C1358 C 0.33785 0.89173 0.43472 0.0
C1359 C 0.3312 0.88286 0.41987 0.0
C1360 C 0.32667 0.89263 0.40487 0.0
C1361 C 0.32958 0.91073 0.40436 0.0
C1362 C 0.31776 0.83621 0.40817 0.0
C1363 C 0.33324 0.82698 0.41221 0.0
C1364 C 0.31668 0.85432 0.41143 0.0
C1365 C 0.33094 0.86337 0.41904 0.0
C1366 C 0.34598 0.85387 0.42398 0.0
C1367 C 0.34716 0.83589 0.42051 0.0
H1368 H 0.41745 0.11335 0.66974 0.0
H1369 H 0.42039 0.05754 0.65938 0.0
H1370 H 0.38629 0.11062 0.67638 0.0
H1371 H 0.38895 0.05477 0.66613 0.0
H1372 H 0.33097 0.06863 0.64811 0.0
H1373 H 0.36276 0.06551 0.64974 0.0
H1374 H 0.36359 0.09801 0.69639 0.0
H1375 H 0.33149 0.10119 0.69469 0.0
C1376 C 0.41146 0.10043 0.66909 0.0
C1377 C 0.42128 0.08569 0.6638 0.0
C1378 C 0.39363 0.09884 0.67311 0.0
C1379 C 0.38516 0.08248 0.6718 0.0
C1380 C 0.39513 0.06757 0.66717 0.0
C1381 C 0.41309 0.06914 0.66331 0.0
C1382 C 0.33789 0.07482 0.65894 0.0
C1383 C 0.32883 0.08536 0.67115 0.0
C1384 C 0.3561 0.0729 0.65995 0.0
C1385 C 0.36569 0.08162 0.67311 0.0
C1386 C 0.35651 0.09127 0.68601 0.0
C1387 C 0.33818 0.09303 0.6851 0.0
H1388 H 0.17265 0.08096 0.88908 0.0
H1389 H 0.15566 0.08048 0.94335 0.0
H1390 H 0.177 0.11267 0.89063 0.0
H1391 H 0.15998 0.11242 0.94487 0.0
H1392 H 0.14129 0.16866 0.92602 0.0
H1393 H 0.14329 0.13693 0.92986 0.0
H1394 H 0.19449 0.1371 0.90516 0.0
H1395 H 0.19251 0.16913 0.90138 0.0
C1396 C 0.17005 0.08762 0.90142 0.0
C1397 C 0.16364 0.0783 0.91605 0.0
C1398 C 0.17271 0.10577 0.90234 0.0
C1399 C 0.16882 0.11502 0.91786 0.0
C1400 C 0.16301 0.1056 0.93272 0.0
C1401 C 0.16056 0.08736 0.93186 0.0
C1402 C 0.15311 0.16198 0.92164 0.0
C1403 C 0.16669 0.17131 0.91325 0.0
C1404 C 0.15431 0.14382 0.92398 0.0
C1405 C 0.16902 0.13454 0.91778 0.0
C1406 C 0.18295 0.14394 0.90999 0.0
C1407 C 0.18186 0.16223 0.90787 0.0
H1408 H 0.09717 0.30944 0.16956 0.0
H1409 H 0.0764 0.36233 0.17089 0.0
H1410 H 0.09249 0.30852 0.13763 0.0
H1411 H 0.07162 0.36135 0.13917 0.0
H1412 H 0.10894 0.3302 0.08168 0.0
H1413 H 0.10789 0.32577 0.11341 0.0
H1414 H 0.05475 0.34588 0.11454 0.0
H1415 H 0.05574 0.3502 0.08251 0.0
C1416 C 0.09134 0.32072 0.16308 0.0
C1417 C 0.08732 0.33601 0.17264 0.0
C1418 C 0.08869 0.32021 0.14484 0.0
C1419 C 0.08172 0.33488 0.13594 0.0
C1420 C 0.07685 0.34979 0.14569 0.0
C1421 C 0.07973 0.3504 0.16383 0.0
C1422 C 0.09693 0.33347 0.08865 0.0
C1423 C 0.08246 0.34069 0.07968 0.0
C1424 C 0.09629 0.33079 0.1068 0.0
C1425 C 0.08124 0.33547 0.11643 0.0
C1426 C 0.06653 0.34221 0.10741 0.0
C1427 C 0.06708 0.34464 0.08913 0.0
H1428 H 0.60989 0.16983 0.92112 0.0
H1429 H 0.55528 0.15425 0.91907 0.0
H1430 H 0.6094 0.1761 0.88968 0.0
H1431 H 0.5548 0.16051 0.8874 0.0
H1432 H 0.57481 0.14448 0.83077 0.0
H1433 H 0.57004 0.14487 0.86243 0.0
H1434 H 0.59618 0.19522 0.86579 0.0
H1435 H 0.6009 0.19486 0.8338 0.0
C1436 C 0.5977 0.16796 0.91396 0.0
C1437 C 0.58267 0.16136 0.92249 0.0
C1438 C 0.59738 0.17171 0.89598 0.0
C1439 C 0.58207 0.16878 0.88608 0.0
C1440 C 0.56681 0.16281 0.89472 0.0
C1441 C 0.56707 0.15925 0.91281 0.0
C1442 C 0.57932 0.15577 0.83821 0.0
C1443 C 0.58839 0.16956 0.82987 0.0
C1444 C 0.57644 0.15606 0.85634 0.0
C1445 C 0.58275 0.17006 0.86659 0.0
C1446 C 0.59124 0.18422 0.85818 0.0
C1447 C 0.5939 0.18405 0.83992 0.0
H1448 H 0.90164 0.80316 0.32844 0.0
H1449 H 0.93057 0.85206 0.32716 0.0
H1450 H 0.90607 0.80149 0.36033 0.0
H1451 H 0.93483 0.85049 0.35886 0.0
H1452 H 0.89047 0.82561 0.41491 0.0
H1453 H 0.89272 0.81996 0.38354 0.0
H1454 H 0.94756 0.83491 0.38467 0.0
H1455 H 0.94525 0.84069 0.41639 0.0
C1456 C 0.90925 0.81333 0.33491 0.0
C1457 C 0.91555 0.82786 0.32539 0.0
C1458 C 0.91173 0.81242 0.35314 0.0
C1459 C 0.92066 0.82595 0.36211 0.0
C1460 C 0.92802 0.83979 0.35235 0.0
C1461 C 0.92544 0.84076 0.33419 0.0
C1462 C 0.90308 0.82751 0.40854 0.0
C1463 C 0.91764 0.83379 0.41804 0.0
C1464 C 0.90442 0.82407 0.39058 0.0
C1465 C 0.92032 0.82697 0.38162 0.0
C1466 C 0.93511 0.83264 0.39124 0.0
C1467 C 0.93381 0.83593 0.40935 0.0
H1468 H 0.90402 0.19588 0.16404 0.0
H1469 H 0.9216 0.14194 0.16743 0.0
H1470 H 0.90869 0.19531 0.1321 0.0
H1471 H 0.9264 0.14144 0.13569 0.0
H1472 H 0.94283 0.14953 0.07865 0.0
H1473 H 0.94418 0.15514 0.11045 0.0
H1474 H 0.89213 0.17786 0.1086 0.0
H1475 H 0.8907 0.17211 0.07708 0.0
C1476 C 0.90919 0.18404 0.15801 0.0
C1477 C 0.91229 0.16891 0.16816 0.0
C1478 C 0.91181 0.1837 0.13977 0.0
C1479 C 0.91788 0.16832 0.13144 0.0
C1480 C 0.92188 0.15352 0.14176 0.0
C1481 C 0.919 0.15378 0.15991 0.0
C1482 C 0.93182 0.15595 0.08504 0.0
C1483 C 0.91661 0.16025 0.07547 0.0
C1484 C 0.93257 0.15912 0.1032 0.0
C1485 C 0.91826 0.16695 0.11197 0.0
C1486 C 0.90343 0.172 0.10218 0.0
C1487 C 0.90256 0.16857 0.08415 0.0
H1488 H 0.42413 0.63585 0.66768 0.0
H1489 H 0.41558 0.69204 0.66816 0.0
H1490 H 0.43066 0.63701 0.63632 0.0
H1491 H 0.42221 0.69321 0.63661 0.0
H1492 H 0.40311 0.67812 0.57956 0.0
H1493 H 0.40491 0.68179 0.61128 0.0
H1494 H 0.45077 0.6482 0.61262 0.0
H1495 H 0.44893 0.64454 0.58053 0.0
C1496 C 0.4239 0.64851 0.66112 0.0
C1497 C 0.41911 0.66383 0.6703 0.0
C1498 C 0.42783 0.64919 0.64318 0.0
C1499 C 0.42692 0.66519 0.63399 0.0
C1500 C 0.42291 0.68067 0.64335 0.0
C1501 C 0.41913 0.68001 0.66138 0.0
C1502 C 0.41379 0.67177 0.58657 0.0
C1503 C 0.42578 0.66089 0.57764 0.0
C1504 C 0.41491 0.674 0.60474 0.0
C1505 C 0.42794 0.66524 0.61447 0.0
C1506 C 0.44051 0.65503 0.60544 0.0
C1507 C 0.43953 0.65299 0.58711 0.0
H1508 H 0.04932 0.64992 0.41633 0.0
H1509 H 0.09602 0.68216 0.41941 0.0
H1510 H 0.04906 0.65355 0.38429 0.0
H1511 H 0.09588 0.68563 0.38758 0.0
H1512 H 0.08844 0.6938 0.32922 0.0
H1513 H 0.08099 0.69652 0.36055 0.0
H1514 H 0.06977 0.64083 0.3626 0.0
H1515 H 0.07708 0.63816 0.3316 0.0
C1516 C 0.05926 0.65811 0.41021 0.0
C1517 C 0.07283 0.66555 0.42029 0.0
C1518 C 0.05918 0.66012 0.3919 0.0
C1519 C 0.07257 0.66971 0.38341 0.0
C1520 C 0.08532 0.67826 0.3937 0.0
C1521 C 0.08547 0.67615 0.41194 0.0
C1522 C 0.08418 0.68223 0.33638 0.0
C1523 C 0.08353 0.66575 0.32806 0.0
C1524 C 0.07992 0.68378 0.35426 0.0
C1525 C 0.07474 0.6689 0.36402 0.0
C1526 C 0.07344 0.6526 0.35543 0.0
C1527 C 0.07783 0.65103 0.33769 0.0
H1528 H 0.40883 0.30153 0.82961 0.0
H1529 H 0.42135 0.35696 0.82952 0.0
H1530 H 0.41603 0.30006 0.86109 0.0
H1531 H 0.42862 0.35546 0.8607 0.0
H1532 H 0.45119 0.34604 0.91436 0.0
H1533 H 0.44997 0.34193 0.88241 0.0
H1534 H 0.40111 0.31348 0.88794 0.0
H1535 H 0.40228 0.31762 0.91976 0.0
C1536 C 0.41334 0.31331 0.83626 0.0
C1537 C 0.4144 0.32938 0.82718 0.0
C1538 C 0.41742 0.31247 0.85423 0.0
C1539 C 0.42294 0.32763 0.86331 0.0
C1540 C 0.42463 0.34351 0.85402 0.0
C1541 C 0.42031 0.3444 0.83619 0.0
C1542 C 0.44042 0.33857 0.90877 0.0
C1543 C 0.42675 0.33229 0.9195 0.0
C1544 C 0.43967 0.3363 0.8905 0.0
C1545 C 0.42538 0.32749 0.88269 0.0
C1546 C 0.41234 0.3202 0.89358 0.0
C1547 C 0.41297 0.32267 0.91179 0.0
H1548 H 0.91734 0.89346 0.67482 0.0
H1549 H 0.91784 0.94498 0.65083 0.0
H1550 H 0.88597 0.89626 0.68049 0.0
H1551 H 0.88614 0.94779 0.65648 0.0
H1552 H 0.82879 0.92653 0.64292 0.0
H1553 H 0.8605 0.93122 0.64315 0.0
H1554 H 0.86282 0.91319 0.69702 0.0
H1555 H 0.83092 0.90849 0.69681 0.0
C1556 C 0.91075 0.90551 0.67096 0.0
C1557 C 0.91995 0.91894 0.66221 0.0
C1558 C 0.89281 0.90718 0.67438 0.0
C1559 C 0.88361 0.92224 0.66894 0.0
C1560 C 0.89293 0.93601 0.66076 0.0
C1561 C 0.91102 0.93443 0.65756 0.0
C1562 C 0.83602 0.92387 0.65493 0.0
C1563 C 0.82745 0.91693 0.66978 0.0
C1564 C 0.85416 0.92671 0.6551 0.0
C1565 C 0.86413 0.92249 0.67007 0.0
C1566 C 0.85543 0.91644 0.68526 0.0
C1567 C 0.83721 0.91379 0.68516 0.0
H1568 H 0.8067 0.16707 0.39689 0.0
H1569 H 0.85573 0.17076 0.42542 0.0
H1570 H 0.80651 0.13519 0.40155 0.0
H1571 H 0.85557 0.13904 0.42999 0.0
H1572 H 0.8459 0.0814 0.44283 0.0
H1573 H 0.84014 0.11319 0.44379 0.0
H1574 H 0.82618 0.11224 0.38867 0.0
H1575 H 0.8319 0.0808 0.38771 0.0
C1576 C 0.81725 0.16112 0.40441 0.0
C1577 C 0.83133 0.17134 0.4106 0.0
C1578 C 0.81718 0.14289 0.40703 0.0
C1579 C 0.83109 0.13462 0.41604 0.0
C1580 C 0.8446 0.14503 0.42314 0.0
C1581 C 0.84476 0.16319 0.42038 0.0
C1582 C 0.84142 0.08801 0.43101 0.0
C1583 C 0.83951 0.0787 0.41517 0.0
C1584 C 0.83815 0.10616 0.43155 0.0
C1585 C 0.83266 0.11517 0.41631 0.0
C1586 C 0.83014 0.10565 0.40069 0.0
C1587 C 0.8336 0.08765 0.4001 0.0
H1588 H 0.67139 0.07651 0.14353 0.0
H1589 H 0.66678 0.09281 0.1978 0.0
H1590 H 0.64003 0.06978 0.14282 0.0
H1591 H 0.63521 0.08617 0.19704 0.0
H1592 H 0.57887 0.10026 0.17417 0.0
H1593 H 0.61038 0.10108 0.18015 0.0
H1594 H 0.61636 0.05001 0.15596 0.0
H1595 H 0.58464 0.04912 0.15006 0.0
C1596 C 0.66369 0.07844 0.15538 0.0
C1597 C 0.67147 0.08531 0.17068 0.0
C1598 C 0.64577 0.07445 0.15501 0.0
C1599 C 0.63519 0.07746 0.16987 0.0
C1600 C 0.64307 0.08379 0.18538 0.0
C1601 C 0.66111 0.08755 0.18583 0.0
C1602 C 0.58686 0.08908 0.17038 0.0
C1603 C 0.57936 0.07469 0.16152 0.0
C1604 C 0.60488 0.08949 0.17392 0.0
C1605 C 0.61581 0.07563 0.16848 0.0
C1606 C 0.60822 0.06091 0.16022 0.0
C1607 C 0.5901 0.06038 0.15689 0.0
H1608 H 0.64969 0.91316 0.94699 0.0
H1609 H 0.6751 0.91674 0.89625 0.0
H1610 H 0.65479 0.88131 0.94719 0.0
H1611 H 0.68018 0.88509 0.89646 0.0
H1612 H 0.69526 0.82821 0.90598 0.0
H1613 H 0.69569 0.85998 0.91176 0.0
H1614 H 0.64137 0.85763 0.92836 0.0
H1615 H 0.64093 0.82614 0.92257 0.0
C1616 C 0.65662 0.90719 0.93605 0.0
C1617 C 0.66184 0.91737 0.92153 0.0
C1618 C 0.65949 0.88899 0.93613 0.0
C1619 C 0.66783 0.88073 0.92181 0.0
C1620 C 0.67388 0.89109 0.90776 0.0
C1621 C 0.67084 0.9092 0.90758 0.0
C1622 C 0.68353 0.83449 0.91111 0.0
C1623 C 0.66803 0.82478 0.91367 0.0
C1624 C 0.68376 0.85263 0.91437 0.0
C1625 C 0.66856 0.86126 0.92051 0.0
C1626 C 0.65334 0.85133 0.92384 0.0
C1627 C 0.65305 0.83332 0.92037 0.0
H1628 H 0.83026 0.07313 0.85989 0.0
H1629 H 0.83241 0.09247 0.80647 0.0
H1630 H 0.86167 0.06681 0.85897 0.0
H1631 H 0.86409 0.08621 0.80559 0.0
H1632 H 0.92153 0.09886 0.82642 0.0
H1633 H 0.8898 0.09999 0.82183 0.0
H1634 H 0.88471 0.04796 0.84411 0.0
H1635 H 0.91664 0.04679 0.84865 0.0
C1636 C 0.83743 0.07586 0.84787 0.0
C1637 C 0.82893 0.08342 0.83329 0.0
C1638 C 0.8554 0.07209 0.8473 0.0
C1639 C 0.86533 0.07601 0.83221 0.0
C1640 C 0.85675 0.08313 0.81742 0.0
C1641 C 0.83865 0.08666 0.8179 0.0
C1642 C 0.91368 0.08754 0.83008 0.0
C1643 C 0.92152 0.07279 0.83803 0.0
C1644 C 0.89552 0.08815 0.82733 0.0
C1645 C 0.88477 0.0741 0.83267 0.0
C1646 C 0.89269 0.05903 0.83998 0.0
C1647 C 0.91094 0.05833 0.84252 0.0
H1648 H 0.69687 0.16739 0.58472 0.0
H1649 H 0.64077 0.16851 0.57563 0.0
H1650 H 0.69745 0.13613 0.57672 0.0
H1651 H 0.64132 0.1375 0.56777 0.0
H1652 H 0.64725 0.08377 0.54518 0.0
H1653 H 0.65193 0.11563 0.54611 0.0
H1654 H 0.68585 0.10927 0.5913 0.0
H1655 H 0.68129 0.07758 0.59028 0.0
C1656 C 0.68473 0.16102 0.58082 0.0
C1657 C 0.66876 0.17033 0.58094 0.0
C1658 C 0.68505 0.14315 0.57628 0.0
C1659 C 0.66943 0.13435 0.57159 0.0
C1660 C 0.65362 0.14392 0.57106 0.0
C1661 C 0.65328 0.16166 0.57574 0.0
C1662 C 0.65603 0.08917 0.55503 0.0
C1663 C 0.66376 0.07823 0.56776 0.0
C1664 C 0.65863 0.1074 0.55564 0.0
C1665 C 0.66912 0.11498 0.56889 0.0
C1666 C 0.6778 0.10386 0.58085 0.0
C1667 C 0.6751 0.0857 0.58032 0.0
H1668 H 0.58051 0.88437 0.35752 0.0
H1669 H 0.57907 0.93663 0.33511 0.0
H1670 H 0.61231 0.88381 0.35441 0.0
H1671 H 0.6113 0.93597 0.33193 0.0
H1672 H 0.6682 0.91379 0.31409 0.0
H1673 H 0.63596 0.91692 0.315 0.0
H1674 H 0.6362 0.90201 0.36984 0.0
H1675 H 0.66798 0.89894 0.36903 0.0
C1676 C 0.58699 0.89574 0.35187 0.0
C1677 C 0.57732 0.91061 0.34668 0.0
C1678 C 0.60521 0.89541 0.35012 0.0
C1679 C 0.61422 0.90988 0.34304 0.0
C1680 C 0.60459 0.92463 0.33738 0.0
C1681 C 0.58624 0.92504 0.33931 0.0
C1682 C 0.66131 0.91128 0.32632 0.0
C1683 C 0.67057 0.90597 0.34144 0.0
C1684 C 0.64295 0.91317 0.32686 0.0
C1685 C 0.63367 0.90956 0.34246 0.0
C1686 C 0.64303 0.90466 0.35759 0.0
C1687 C 0.66124 0.90294 0.35711 0.0
H1688 H 0.80119 0.82922 0.09532 0.0
H1689 H 0.85061 0.82855 0.06728 0.0
H1690 H 0.79953 0.86129 0.09136 0.0
H1691 H 0.84895 0.86023 0.06327 0.0
H1692 H 0.83863 0.91644 0.05056 0.0
H1693 H 0.83234 0.88489 0.04936 0.0
H1694 H 0.81815 0.88562 0.10441 0.0
H1695 H 0.82436 0.91707 0.1056 0.0
C1696 C 0.81146 0.83587 0.088 0.0
C1697 C 0.82609 0.82649 0.08173 0.0
C1698 C 0.81056 0.85418 0.0858 0.0
C1699 C 0.82413 0.86326 0.07702 0.0
C1700 C 0.8382 0.85363 0.06991 0.0
C1701 C 0.83921 0.83548 0.07233 0.0
C1702 C 0.83388 0.9099 0.06231 0.0
C1703 C 0.83221 0.91915 0.07822 0.0
C1704 C 0.8303 0.89186 0.06163 0.0
C1705 C 0.82484 0.88278 0.07681 0.0
C1706 C 0.82217 0.89227 0.09245 0.0
C1707 C 0.82588 0.91026 0.09316 0.0
H1708 H 0.89343 0.67085 0.91591 0.0
H1709 H 0.94751 0.65336 0.91585 0.0
H1710 H 0.89552 0.67786 0.88477 0.0
H1711 H 0.94958 0.66033 0.88432 0.0
H1712 H 0.93047 0.64823 0.82567 0.0
H1713 H 0.93479 0.64674 0.85745 0.0
H1714 H 0.91075 0.69792 0.86312 0.0
H1715 H 0.90643 0.69944 0.8312 0.0
C1716 C 0.90584 0.66863 0.90924 0.0
C1717 C 0.92027 0.66141 0.91826 0.0
C1718 C 0.90708 0.67283 0.89143 0.0
C1719 C 0.92273 0.66971 0.88213 0.0
C1720 C 0.93735 0.66284 0.8912 0.0
C1721 C 0.93618 0.65887 0.90919 0.0
C1722 C 0.92641 0.65932 0.83367 0.0
C1723 C 0.91793 0.67387 0.82601 0.0
C1724 C 0.92902 0.65851 0.85185 0.0
C1725 C 0.923 0.67215 0.86276 0.0
C1726 C 0.91539 0.68715 0.855 0.0
C1727 C 0.91297 0.68805 0.83676 0.0
H1728 H 0.44409 0.84647 0.07642 0.0
H1729 H 0.39299 0.82164 0.07756 0.0
H1730 H 0.44703 0.84155 0.10822 0.0
H1731 H 0.39586 0.81681 0.10905 0.0
H1732 H 0.40788 0.80311 0.16508 0.0
H1733 H 0.41208 0.80171 0.1331 0.0
H1734 H 0.43102 0.8553 0.13331 0.0
H1735 H 0.42691 0.85665 0.16502 0.0
C1736 C 0.43366 0.83969 0.08339 0.0
C1737 C 0.41823 0.83463 0.07459 0.0
C1738 C 0.4353 0.83693 0.10156 0.0
C1739 C 0.42164 0.82884 0.11114 0.0
C1740 C 0.4067 0.82289 0.10206 0.0
C1741 C 0.40499 0.82582 0.08402 0.0
C1742 C 0.41322 0.81445 0.15829 0.0
C1743 C 0.41686 0.83005 0.16748 0.0
C1744 C 0.41559 0.81367 0.14001 0.0
C1745 C 0.42183 0.82842 0.13069 0.0
C1746 C 0.42638 0.84365 0.1401 0.0
C1747 C 0.42386 0.84448 0.15826 0.0
H1748 H 0.07054 0.14699 0.6725 0.0
H1749 H 0.08257 0.20252 0.67144 0.0
H1750 H 0.06301 0.14792 0.64143 0.0
H1751 H 0.07477 0.20353 0.64018 0.0
H1752 H 0.0916 0.18625 0.58308 0.0
H1753 H 0.09022 0.19136 0.6146 0.0
H1754 H 0.04369 0.15885 0.6179 0.0
H1755 H 0.04523 0.15355 0.58611 0.0
C1756 C 0.07124 0.15949 0.66568 0.0
C1757 C 0.07738 0.17463 0.67432 0.0
C1758 C 0.06675 0.16006 0.64789 0.0
C1759 C 0.06837 0.17578 0.63829 0.0
C1760 C 0.07356 0.19118 0.64719 0.0
C1761 C 0.07797 0.19062 0.66508 0.0
C1762 C 0.08085 0.18047 0.59046 0.0
C1763 C 0.06866 0.1693 0.5822 0.0
C1764 C 0.07997 0.18353 0.60853 0.0
C1765 C 0.06692 0.1754 0.6188 0.0
C1766 C 0.05401 0.16514 0.61035 0.0
C1767 C 0.05483 0.16217 0.59216 0.0
H1768 H 0.07379 0.85509 0.83015 0.0
H1769 H 0.09502 0.80238 0.83152 0.0
H1770 H 0.0688 0.85404 0.86177 0.0
H1771 H 0.09007 0.80136 0.86345 0.0
H1772 H 0.10691 0.82423 0.91903 0.0
H1773 H 0.10532 0.81861 0.88753 0.0
H1774 H 0.05229 0.83904 0.88651 0.0
H1775 H 0.05385 0.84462 0.9183 0.0
C1776 C 0.07716 0.84316 0.83721 0.0
C1777 C 0.08499 0.82888 0.82845 0.0
C1778 C 0.07414 0.84251 0.8553 0.0
C1779 C 0.07907 0.82764 0.86507 0.0
C1780 C 0.08621 0.81302 0.85621 0.0
C1781 C 0.08901 0.81358 0.83799 0.0
C1782 C 0.0948 0.82729 0.91214 0.0
C1783 C 0.08057 0.83507 0.92104 0.0
C1784 C 0.09384 0.8239 0.89413 0.0
C1785 C 0.0787 0.82841 0.88457 0.0
C1786 C 0.06415 0.83551 0.89358 0.0
C1787 C 0.06503 0.83868 0.91173 0.0
H1788 H 0.59853 0.32747 0.41984 0.0
H1789 H 0.54445 0.34473 0.41706 0.0
H1790 H 0.59792 0.32021 0.38862 0.0
H1791 H 0.54387 0.33752 0.38557 0.0
H1792 H 0.58927 0.29872 0.33426 0.0
H1793 H 0.58396 0.30025 0.36604 0.0
H1794 H 0.55955 0.35115 0.35948 0.0
H1795 H 0.5649 0.34966 0.32787 0.0
C1796 C 0.58643 0.32953 0.41257 0.0
C1797 C 0.57157 0.33679 0.42085 0.0
C1798 C 0.58604 0.32522 0.39472 0.0
C1799 C 0.57084 0.32827 0.38465 0.0
C1800 C 0.55578 0.33508 0.39302 0.0
C1801 C 0.5561 0.33917 0.41101 0.0
C1802 C 0.58243 0.31003 0.33959 0.0
C1803 C 0.57763 0.32413 0.32864 0.0
C1804 C 0.57947 0.31095 0.35776 0.0
C1805 C 0.57144 0.32587 0.36525 0.0
C1806 C 0.56564 0.33943 0.35411 0.0
C1807 C 0.5688 0.33861 0.33601 0.0
H1808 H 0.93776 0.34664 0.67083 0.0
H1809 H 0.91074 0.29692 0.66567 0.0
H1810 H 0.94146 0.34802 0.639 0.0
H1811 H 0.91464 0.2982 0.63374 0.0
H1812 H 0.89681 0.32509 0.58165 0.0
H1813 H 0.89997 0.3178 0.61257 0.0
H1814 H 0.95397 0.33552 0.61136 0.0
H1815 H 0.95073 0.34296 0.58004 0.0
C1816 C 0.93301 0.33577 0.66292 0.0
C1817 C 0.92375 0.32178 0.67072 0.0
C1818 C 0.93522 0.33653 0.64467 0.0
C1819 C 0.92815 0.32334 0.63382 0.0
C1820 C 0.92001 0.3087 0.64175 0.0
C1821 C 0.91786 0.30791 0.66003 0.0
C1822 C 0.90944 0.32729 0.58788 0.0
C1823 C 0.92349 0.33474 0.57845 0.0
C1824 C 0.9113 0.32292 0.60561 0.0
C1825 C 0.92724 0.326 0.61444 0.0
C1826 C 0.9415 0.33305 0.60491 0.0
C1827 C 0.93968 0.33727 0.58701 0.0
H1828 H 0.59819 0.69584 0.17353 0.0
H1829 H 0.5708 0.64609 0.17534 0.0
H1830 H 0.59282 0.69751 0.14169 0.0
H1831 H 0.56534 0.64781 0.14381 0.0
H1832 H 0.55016 0.65942 0.08774 0.0
H1833 H 0.55017 0.66498 0.11954 0.0
H1834 H 0.60532 0.67845 0.11711 0.0
H1835 H 0.60534 0.67282 0.08553 0.0
C1836 C 0.59072 0.68548 0.16719 0.0
C1837 C 0.58506 0.67076 0.17682 0.0
C1838 C 0.5877 0.6864 0.14901 0.0
C1839 C 0.57868 0.67277 0.14028 0.0
C1840 C 0.57215 0.6586 0.15017 0.0
C1841 C 0.57541 0.65755 0.16821 0.0
C1842 C 0.56218 0.66385 0.09399 0.0
C1843 C 0.57779 0.6655 0.08423 0.0
C1844 C 0.5622 0.667 0.11215 0.0
C1845 C 0.57776 0.67213 0.12079 0.0
C1846 C 0.5931 0.6747 0.11081 0.0
C1847 C 0.59313 0.67132 0.09275 0.0
H1848 H 0.58545 0.55446 0.84606 0.0
H1849 H 0.58374 0.60941 0.83166 0.0
H1850 H 0.61695 0.55371 0.83907 0.0
H1851 H 0.61502 0.60862 0.82459 0.0
H1852 H 0.67027 0.59936 0.80409 0.0
H1853 H 0.63823 0.59497 0.80439 0.0
H1854 H 0.64237 0.56883 0.85471 0.0
H1855 H 0.67407 0.57334 0.85449 0.0
C1856 C 0.59174 0.56627 0.84115 0.0
C1857 C 0.58223 0.58203 0.8396 0.0
C1858 C 0.60972 0.56585 0.83717 0.0
C1859 C 0.61841 0.58111 0.83129 0.0
C1860 C 0.60865 0.59661 0.8289 0.0
C1861 C 0.59078 0.59709 0.83311 0.0
C1862 C 0.6643 0.59242 0.81503 0.0
C1863 C 0.67457 0.58685 0.82934 0.0
C1864 C 0.64602 0.58995 0.81523 0.0
C1865 C 0.63784 0.58157 0.82959 0.0
C1866 C 0.6483 0.57516 0.84339 0.0
C1867 C 0.66644 0.57789 0.84333 0.0
H1868 H 0.67772 0.42155 0.09902 0.0
H1869 H 0.65202 0.41495 0.04875 0.0
H1870 H 0.6833 0.39001 0.10042 0.0
H1871 H 0.65758 0.3832 0.05019 0.0
H1872 H 0.69939 0.33309 0.09378 0.0
H1873 H 0.69911 0.36448 0.08632 0.0
H1874 H 0.64473 0.36018 0.0704 0.0
H1875 H 0.64498 0.329 0.07786 0.0
C1876 C 0.67353 0.41337 0.08812 0.0
C1877 C 0.66431 0.42066 0.07384 0.0
C1878 C 0.67684 0.39532 0.08887 0.0
C1879 C 0.67082 0.38413 0.07545 0.0
C1880 C 0.66226 0.39152 0.06077 0.0
C1881 C 0.65915 0.40967 0.05991 0.0
C1882 C 0.68748 0.33883 0.08845 0.0
C1883 C 0.67216 0.32867 0.08655 0.0
C1884 C 0.6873 0.35677 0.08423 0.0
C1885 C 0.67189 0.36477 0.07778 0.0
C1886 C 0.65685 0.35437 0.07513 0.0
C1887 C 0.65696 0.33654 0.07956 0.0
H1888 H 0.82434 0.41443 0.30504 0.0
H1889 H 0.82702 0.43084 0.35941 0.0
H1890 H 0.85562 0.42153 0.30147 0.0
H1891 H 0.85801 0.43765 0.35598 0.0
H1892 H 0.91254 0.45463 0.34608 0.0
H1893 H 0.88057 0.45591 0.34232 0.0
H1894 H 0.88217 0.40727 0.31292 0.0
H1895 H 0.91393 0.40619 0.31639 0.0
C1896 C 0.83153 0.41979 0.31612 0.0
C1897 C 0.82333 0.42187 0.33255 0.0
C1898 C 0.84942 0.42381 0.31411 0.0
C1899 C 0.85932 0.43012 0.32846 0.0
C1900 C 0.85077 0.43307 0.34458 0.0
C1901 C 0.83302 0.42896 0.34661 0.0
C1902 C 0.90607 0.44448 0.33845 0.0
C1903 C 0.91567 0.43018 0.33176 0.0
C1904 C 0.88778 0.44515 0.33636 0.0
C1905 C 0.8788 0.43157 0.3275 0.0
C1906 C 0.88863 0.41801 0.31969 0.0
C1907 C 0.90686 0.41732 0.32182 0.0
H1908 H 0.8552 0.66953 0.57545 0.0
H1909 H 0.80264 0.66844 0.59706 0.0
H1910 H 0.85399 0.63788 0.57057 0.0
H1911 H 0.80149 0.6365 0.59231 0.0
H1912 H 0.82452 0.58057 0.6085 0.0
H1913 H 0.81927 0.61217 0.60742 0.0
H1914 H 0.838 0.6135 0.55376 0.0
H1915 H 0.84313 0.58163 0.55479 0.0
C1916 C 0.84329 0.66252 0.57896 0.0
C1917 C 0.82907 0.67137 0.5868 0.0
C1918 C 0.84254 0.64443 0.57601 0.0
C1919 C 0.82766 0.63475 0.58106 0.0
C1920 C 0.81315 0.64368 0.58834 0.0
C1921 C 0.81378 0.6619 0.59103 0.0
C1922 C 0.82727 0.58755 0.59638 0.0
C1923 C 0.83441 0.57872 0.58178 0.0
C1924 C 0.82411 0.60562 0.59572 0.0
C1925 C 0.82824 0.61527 0.58052 0.0
C1926 C 0.83475 0.60634 0.56566 0.0
C1927 C 0.83766 0.58815 0.56623 0.0
H1928 H 0.58176 0.39084 0.67089 0.0
H1929 H 0.58553 0.44634 0.65922 0.0
H1930 H 0.61336 0.38974 0.67634 0.0
H1931 H 0.61733 0.44519 0.6646 0.0
H1932 H 0.67243 0.42396 0.64499 0.0
H1933 H 0.64099 0.42974 0.64675 0.0
H1934 H 0.63839 0.40114 0.69581 0.0
H1935 H 0.6702 0.39546 0.69412 0.0
C1936 C 0.58933 0.40287 0.66972 0.0
C1937 C 0.58124 0.41864 0.66444 0.0
C1938 C 0.60739 0.40226 0.67301 0.0
C1939 C 0.61779 0.41737 0.67087 0.0
C1940 C 0.6096 0.43333 0.66627 0.0
C1941 C 0.59144 0.43399 0.66322 0.0
C1942 C 0.66522 0.41912 0.6563 0.0
C1943 C 0.67369 0.40913 0.66935 0.0
C1944 C 0.64723 0.42257 0.65738 0.0
C1945 C 0.63725 0.41589 0.67141 0.0
C1946 C 0.64581 0.4064 0.68483 0.0
C1947 C 0.66396 0.40319 0.6839 0.0
H1948 H 0.79974 0.33175 0.90201 0.0
H1949 H 0.85298 0.32726 0.92141 0.0
H1950 H 0.80031 0.36345 0.90804 0.0
H1951 H 0.85347 0.35875 0.92757 0.0
H1952 H 0.84532 0.41548 0.94505 0.0
H1953 H 0.83907 0.38375 0.94561 0.0
H1954 H 0.81908 0.38685 0.89248 0.0
H1955 H 0.82549 0.41823 0.89184 0.0
C1956 C 0.8114 0.33747 0.90788 0.0
C1957 C 0.82638 0.32714 0.91105 0.0
C1958 C 0.81174 0.35556 0.9113 0.0
C1959 C 0.82695 0.36351 0.91823 0.0
C1960 C 0.84152 0.35295 0.92238 0.0
C1961 C 0.84128 0.33496 0.91871 0.0
C1962 C 0.83936 0.40936 0.93363 0.0
C1963 C 0.83605 0.4192 0.91834 0.0
C1964 C 0.83581 0.39127 0.93394 0.0
C1965 C 0.82855 0.3829 0.9191 0.0
C1966 C 0.82447 0.39299 0.90417 0.0
C1967 C 0.8283 0.41091 0.90376 0.0
H1968 H 0.9176 0.5486 0.15541 0.0
H1969 H 0.91697 0.60322 0.17107 0.0
H1970 H 0.88618 0.5463 0.16271 0.0
H1971 H 0.88594 0.60096 0.1783 0.0
H1972 H 0.83268 0.59151 0.1997 0.0
H1973 H 0.86453 0.58698 0.19861 0.0
H1974 H 0.85895 0.55938 0.14923 0.0
H1975 H 0.82719 0.56377 0.15038 0.0
C1976 C 0.91082 0.56001 0.16058 0.0
C1977 C 0.91967 0.57612 0.16252 0.0
C1978 C 0.89287 0.55872 0.16474 0.0
C1979 C 0.88362 0.57343 0.17116 0.0
C1980 C 0.89272 0.58931 0.17366 0.0
C1981 C 0.91049 0.59065 0.16933 0.0
C1982 C 0.83822 0.58411 0.18885 0.0
C1983 C 0.82749 0.5782 0.17501 0.0
C1984 C 0.85645 0.58159 0.18818 0.0
C1985 C 0.86425 0.573 0.17373 0.0
C1986 C 0.85334 0.56595 0.16058 0.0
C1987 C 0.83516 0.56857 0.16119 0.0
H1988 H 0.66624 0.58507 0.39911 0.0
H1989 H 0.65881 0.58372 0.45547 0.0
H1990 H 0.67586 0.61547 0.40096 0.0
H1991 H 0.66847 0.61454 0.45733 0.0
H1992 H 0.65906 0.67514 0.44255 0.0
H1993 H 0.65566 0.64349 0.44673 0.0
H1994 H 0.70019 0.63423 0.41265 0.0
H1995 H 0.70356 0.66593 0.40838 0.0
C1996 C 0.66675 0.59127 0.41194 0.0
C1997 C 0.66165 0.58205 0.42714 0.0
C1998 C 0.67246 0.60865 0.41302 0.0
C1999 C 0.67307 0.61736 0.42931 0.0
C2000 C 0.66814 0.60813 0.4446 0.0
C2001 C 0.66262 0.59054 0.44354 0.0
C2002 C 0.66842 0.66637 0.43632 0.0
C2003 C 0.68144 0.67299 0.42495 0.0
C2004 C 0.6665 0.64824 0.43878 0.0
C2005 C 0.6775 0.63639 0.42981 0.0
C2006 C 0.69137 0.64307 0.41953 0.0
C2007 C 0.69337 0.66122 0.41717 0.0
H2008 H 0.59439 0.81557 0.57891 0.0
H2009 H 0.54569 0.84438 0.58439 0.0
H2010 H 0.5958 0.8118 0.61076 0.0
H2011 H 0.54708 0.84053 0.61633 0.0
H2012 H 0.58952 0.80162 0.6695 0.0
H2013 H 0.58191 0.79926 0.63818 0.0
H2014 H 0.56805 0.85438 0.63749 0.0
H2015 H 0.57563 0.85673 0.6685 0.0
C2016 C 0.58377 0.82074 0.5869 0.0
C2017 C 0.57003 0.83044 0.57919 0.0
C2018 C 0.58454 0.81849 0.60514 0.0
C2019 C 0.57165 0.82603 0.61605 0.0
C2020 C 0.55731 0.83476 0.60824 0.0
C2021 C 0.55646 0.83688 0.58997 0.0
C2022 C 0.58463 0.81313 0.66266 0.0
C2023 C 0.58329 0.82938 0.67137 0.0
C2024 C 0.58032 0.8118 0.64476 0.0
C2025 C 0.57433 0.82662 0.6354 0.0
C2026 C 0.57237 0.84266 0.64437 0.0
C2027 C 0.57688 0.84404 0.66211 0.0
H2028 H 0.42265 0.39577 0.173 0.0
H2029 H 0.41805 0.44917 0.15411 0.0
H2030 H 0.39118 0.39522 0.17932 0.0
H2031 H 0.38637 0.44855 0.1603 0.0
H2032 H 0.33544 0.40376 0.1992 0.0
H2033 H 0.3672 0.40943 0.19824 0.0
H2034 H 0.3618 0.43063 0.14578 0.0
H2035 H 0.33024 0.42483 0.14665 0.0
C2036 C 0.41493 0.40747 0.17042 0.0
C2037 C 0.42275 0.42247 0.16296 0.0
C2038 C 0.39694 0.40719 0.17415 0.0
C2039 C 0.38634 0.42183 0.17027 0.0
C2040 C 0.39425 0.43706 0.16335 0.0
C2041 C 0.41235 0.43744 0.15987 0.0
C2042 C 0.34103 0.40987 0.18759 0.0
C2043 C 0.33043 0.41373 0.17295 0.0
C2044 C 0.35918 0.41307 0.18702 0.0
C2045 C 0.36694 0.42046 0.17193 0.0
C2046 C 0.35616 0.42509 0.15765 0.0
C2047 C 0.33812 0.42165 0.15811 0.0
H2048 H 0.3575 0.66732 0.91649 0.0
H2049 H 0.30281 0.66578 0.90108 0.0
H2050 H 0.35663 0.63609 0.92326 0.0
H2051 H 0.30195 0.63417 0.90787 0.0
H2052 H 0.32158 0.57591 0.89537 0.0
H2053 H 0.31639 0.60756 0.89402 0.0
H2054 H 0.34328 0.61406 0.94367 0.0
H2055 H 0.34854 0.58232 0.94501 0.0
C2056 C 0.34522 0.66031 0.91468 0.0
C2057 C 0.33025 0.66895 0.90812 0.0
C2058 C 0.34468 0.64243 0.91874 0.0
C2059 C 0.3292 0.63268 0.91618 0.0
C2060 C 0.31407 0.64137 0.90994 0.0
C2061 C 0.31455 0.65942 0.90608 0.0
C2062 C 0.32608 0.58405 0.90617 0.0
C2063 C 0.33565 0.57669 0.9202 0.0
C2064 C 0.323 0.60217 0.90544 0.0
C2065 C 0.32956 0.6133 0.91865 0.0
C2066 C 0.33823 0.6058 0.93321 0.0
C2067 C 0.34118 0.58764 0.93401 0.0
H2068 H 0.16753 0.5946 0.69421 0.0
H2069 H 0.16895 0.57462 0.641 0.0
H2070 H 0.13589 0.58809 0.69567 0.0
H2071 H 0.13768 0.56811 0.64247 0.0
H2072 H 0.08344 0.54811 0.65238 0.0
H2073 H 0.11522 0.5493 0.65751 0.0
H2074 H 0.10966 0.60122 0.67992 0.0
H2075 H 0.07801 0.60003 0.67486 0.0
C2076 C 0.16114 0.58862 0.68295 0.0
C2077 C 0.17063 0.58525 0.66745 0.0
C2078 C 0.14308 0.58493 0.68377 0.0
C2079 C 0.13434 0.57754 0.6692 0.0
C2080 C 0.14406 0.57357 0.654 0.0
C2081 C 0.16196 0.57746 0.6531 0.0
C2082 C 0.08898 0.55961 0.65872 0.0
C2083 C 0.07831 0.57406 0.66302 0.0
C2084 C 0.10716 0.56032 0.6616 0.0
C2085 C 0.11493 0.57541 0.669 0.0
C2086 C 0.10406 0.58937 0.67433 0.0
C2087 C 0.08594 0.58873 0.6713 0.0
H2088 H 0.14986 0.41484 0.44934 0.0
H2089 H 0.17231 0.4184 0.39722 0.0
H2090 H 0.15646 0.38328 0.4499 0.0
H2091 H 0.17869 0.38706 0.39769 0.0
H2092 H 0.19531 0.33085 0.40545 0.0
H2093 H 0.19548 0.36262 0.41125 0.0
H2094 H 0.14321 0.35877 0.43333 0.0
H2095 H 0.1431 0.32732 0.42765 0.0
C2096 C 0.15642 0.40894 0.43814 0.0
C2097 C 0.16037 0.41901 0.42316 0.0
C2098 C 0.16017 0.3909 0.43843 0.0
C2099 C 0.16802 0.38267 0.42379 0.0
C2100 C 0.17282 0.393 0.40924 0.0
C2101 C 0.169 0.41095 0.40892 0.0
C2102 C 0.18403 0.3368 0.41182 0.0
C2103 C 0.16912 0.32669 0.41592 0.0
C2104 C 0.18409 0.35496 0.41509 0.0
C2105 C 0.16933 0.3632 0.42271 0.0
C2106 C 0.15486 0.35283 0.42764 0.0
C2107 C 0.15474 0.33481 0.42423 0.0
H2108 H 0.41208 0.55636 0.36449 0.0
H2109 H 0.42024 0.56941 0.30982 0.0
H2110 H 0.38047 0.55775 0.36018 0.0
H2111 H 0.38852 0.56974 0.30505 0.0
H2112 H 0.33412 0.59638 0.31076 0.0
H2113 H 0.36521 0.58845 0.311 0.0
H2114 H 0.35432 0.54745 0.34905 0.0
H2115 H 0.32357 0.55635 0.34959 0.0
C2116 C 0.40707 0.5589 0.35139 0.0
C2117 C 0.41857 0.56291 0.33754 0.0
C2118 C 0.38887 0.55966 0.34884 0.0
C2119 C 0.38176 0.5641 0.33226 0.0
C2120 C 0.39341 0.56678 0.31811 0.0
C2121 C 0.41161 0.56638 0.32077 0.0
C2122 C 0.33842 0.58553 0.31895 0.0
C2123 C 0.32658 0.57712 0.33031 0.0
C2124 C 0.35625 0.58086 0.31905 0.0
C2125 C 0.36248 0.5674 0.33025 0.0
C2126 C 0.35022 0.55822 0.34066 0.0
C2127 C 0.33255 0.56319 0.34087 0.0
H2128 H 0.17425 0.57864 0.10554 0.0
H2129 H 0.15847 0.58161 0.051 0.0
H2130 H 0.1798 0.61021 0.10574 0.0
H2131 H 0.16401 0.61338 0.05122 0.0
H2132 H 0.19641 0.66699 0.09852 0.0
H2133 H 0.19801 0.63517 0.093 0.0
H2134 H 0.14737 0.6372 0.06727 0.0
H2135 H 0.14574 0.66867 0.07284 0.0
C2136 C 0.17223 0.58602 0.09351 0.0
C2137 C 0.16573 0.57773 0.07831 0.0
C2138 C 0.17557 0.60408 0.09359 0.0
C2139 C 0.17229 0.61426 0.07852 0.0
C2140 C 0.16655 0.60584 0.06305 0.0
C2141 C 0.16341 0.58769 0.06291 0.0
C2142 C 0.18581 0.66062 0.09144 0.0
C2143 C 0.17088 0.67021 0.08627 0.0
C2144 C 0.18669 0.64246 0.08832 0.0
C2145 C 0.17281 0.63373 0.0797 0.0
C2146 C 0.15836 0.64357 0.07375 0.0
C2147 C 0.15736 0.66157 0.07709 0.0
H2148 H 0.16654 0.40696 0.7976 0.0
H2149 H 0.17253 0.43384 0.84733 0.0
H2150 H 0.1349 0.41286 0.79831 0.0
H2151 H 0.14101 0.43956 0.84813 0.0
H2152 H 0.08358 0.45357 0.84204 0.0
H2153 H 0.11503 0.4542 0.83477 0.0
H2154 H 0.11201 0.40013 0.81748 0.0
H2155 H 0.08084 0.39955 0.8246 0.0
C2156 C 0.16116 0.41443 0.80848 0.0
C2157 C 0.17196 0.41976 0.8225 0.0
C2158 C 0.14305 0.41774 0.80894 0.0
C2159 C 0.13543 0.42653 0.82336 0.0
C2160 C 0.14646 0.43288 0.83677 0.0
C2161 C 0.16452 0.4295 0.83637 0.0
C2162 C 0.08963 0.44195 0.83643 0.0
C2163 C 0.07982 0.42647 0.83403 0.0
C2164 C 0.10761 0.44228 0.83232 0.0
C2165 C 0.11601 0.42721 0.82555 0.0
C2166 C 0.10593 0.41204 0.82244 0.0
C2167 C 0.08808 0.41166 0.82668 0.0
H2168 H 0.34702 0.41884 0.55808 0.0
H2169 H 0.33457 0.41761 0.61356 0.0
H2170 H 0.34173 0.38706 0.5563 0.0
H2171 H 0.32917 0.38605 0.61173 0.0
H2172 H 0.31058 0.33042 0.60035 0.0
H2173 H 0.30941 0.36259 0.59744 0.0
H2174 H 0.35923 0.36185 0.57009 0.0
H2175 H 0.36049 0.32998 0.57314 0.0
C2176 C 0.34291 0.41183 0.5698 0.0
C2177 C 0.3414 0.42061 0.58599 0.0
C2178 C 0.33989 0.3937 0.56879 0.0
C2179 C 0.33503 0.38414 0.58388 0.0
C2180 C 0.33271 0.39311 0.59985 0.0
C2181 C 0.33597 0.41115 0.60093 0.0
C2182 C 0.32109 0.33717 0.59347 0.0
C2183 C 0.33569 0.3278 0.58712 0.0
C2184 C 0.32046 0.35552 0.59185 0.0
C2185 C 0.33424 0.36467 0.58355 0.0
C2186 C 0.34834 0.35514 0.57638 0.0
C2187 C 0.34912 0.33691 0.57827 0.0
H2188 H 0.3938 0.17009 0.41265 0.0
H2189 H 0.44923 0.1576 0.41438 0.0
H2190 H 0.3963 0.17757 0.38169 0.0
H2191 H 0.45176 0.16516 0.38302 0.0
H2192 H 0.40562 0.20054 0.32917 0.0
H2193 H 0.40963 0.19911 0.36106 0.0
H2194 H 0.44014 0.15153 0.35514 0.0
H2195 H 0.43627 0.15303 0.32331 0.0
C2196 C 0.40659 0.16907 0.40642 0.0
C2197 C 0.4213 0.16313 0.41591 0.0
C2198 C 0.40805 0.17355 0.3887 0.0
C2199 C 0.42425 0.17208 0.37993 0.0
C2200 C 0.4391 0.1664 0.38945 0.0
C2201 C 0.43767 0.16209 0.40736 0.0
C2202 C 0.41356 0.19004 0.33464 0.0
C2203 C 0.42043 0.17677 0.32378 0.0
C2204 C 0.41578 0.18917 0.3529 0.0
C2205 C 0.42499 0.17506 0.36061 0.0
C2206 C 0.43304 0.16259 0.34961 0.0
C2207 C 0.43074 0.16341 0.33137 0.0
H2208 H 0.00546 0.09066 0.29193 0.0
H2209 H 0.98772 0.13069 0.32823 0.0
H2210 H 0.98408 0.10097 0.27013 0.0
H2211 H 0.9662 0.14076 0.30653 0.0
H2212 H 0.91584 0.13544 0.27269 0.0
H2213 H 0.93844 0.12487 0.29298 0.0
H2214 H 0.97771 0.13039 0.25228 0.0
H2215 H 0.95514 0.14127 0.23197 0.0
C2216 C 0.9971 0.10174 0.29517 0.0
C2217 C 0.99819 0.10988 0.31175 0.0
C2218 C 0.98492 0.10762 0.28272 0.0
C2219 C 0.97346 0.12151 0.28679 0.0
C2220 C 0.97481 0.12989 0.3032 0.0
C2221 C 0.98718 0.12422 0.31554 0.0
C2222 C 0.92926 0.13421 0.26801 0.0
C2223 C 0.93378 0.13918 0.25079 0.0
C2224 C 0.94217 0.12831 0.27964 0.0
C2225 C 0.95977 0.12701 0.27417 0.0
C2226 C 0.9642 0.13131 0.25675 0.0
C2227 C 0.95132 0.13751 0.24519 0.0
H2228 H 0.16693 0.75191 0.54064 0.0
H2229 H 0.1148 0.75531 0.56314 0.0
H2230 H 0.15567 0.73266 0.51747 0.0
H2231 H 0.10361 0.73606 0.54009 0.0
H2232 H 0.13192 0.67758 0.50131 0.0
H2233 H 0.14443 0.70159 0.51864 0.0
H2234 H 0.09853 0.73336 0.50786 0.0
H2235 H 0.08595 0.70937 0.4907 0.0
C2236 C 0.15302 0.74882 0.54044 0.0
C2237 C 0.14173 0.75498 0.55373 0.0
C2238 C 0.14662 0.73773 0.52725 0.0
C2239 C 0.12882 0.73279 0.52707 0.0
C2240 C 0.11737 0.73977 0.53982 0.0
C2241 C 0.12378 0.75073 0.55306 0.0
C2242 C 0.12464 0.68978 0.50245 0.0
C2243 C 0.1079 0.69156 0.49486 0.0
C2244 C 0.13184 0.70356 0.51226 0.0
C2245 C 0.12238 0.71928 0.51465 0.0
C2246 C 0.10599 0.72131 0.50638 0.0
C2247 C 0.09884 0.70759 0.49654 0.0
H2248 H 0.54308 0.83763 0.75028 0.0
H2249 H 0.56919 0.88785 0.7449 0.0
H2250 H 0.52165 0.85093 0.77024 0.0
H2251 H 0.54792 0.90106 0.76494 0.0
H2252 H 0.49877 0.92237 0.79104 0.0
H2253 H 0.51655 0.90874 0.7681 0.0
H2254 H 0.52343 0.86273 0.8008 0.0
H2255 H 0.5054 0.87631 0.82374 0.0
C2256 C 0.54407 0.85156 0.75315 0.0
C2257 C 0.55782 0.86171 0.7461 0.0
C2258 C 0.53191 0.85912 0.76468 0.0
C2259 C 0.53322 0.87698 0.76925 0.0
C2260 C 0.5465 0.88729 0.76155 0.0
C2261 C 0.55871 0.87972 0.75011 0.0
C2262 C 0.50401 0.90931 0.79331 0.0
C2263 C 0.5008 0.90042 0.80921 0.0
C2264 C 0.51422 0.90154 0.78019 0.0
C2265 C 0.52139 0.8847 0.78267 0.0
C2266 C 0.51789 0.87565 0.79844 0.0
C2267 C 0.5077 0.88346 0.81162 0.0
H2268 H 0.37044 0.32665 0.00223 0.0
H2269 H 0.41782 0.29519 0.00214 0.0
H2270 H 0.35657 0.30559 0.02223 0.0
H2271 H 0.40393 0.27415 0.02202 0.0
H2272 H 0.38006 0.25459 0.07477 0.0
H2273 H 0.3939 0.27426 0.05339 0.0
H2274 H 0.34617 0.27438 0.0225 0.0
H2275 H 0.33232 0.25483 0.04386 0.0
C2276 C 0.37782 0.31518 0.00637 0.0
C2277 C 0.39519 0.31256 0.00066 0.0
C2278 C 0.36988 0.3031 0.01775 0.0
C2279 C 0.37922 0.28828 0.02371 0.0
C2280 C 0.39651 0.28556 0.01779 0.0
C2281 C 0.4044 0.29755 0.00633 0.0
C2282 C 0.37259 0.25874 0.06335 0.0
C2283 C 0.35513 0.25321 0.06098 0.0
C2284 C 0.38052 0.26993 0.05109 0.0
C2285 C 0.37107 0.27587 0.03633 0.0
C2286 C 0.35368 0.27016 0.03387 0.0
C2287 C 0.34581 0.25888 0.04604 0.0
H2288 H 0.99587 0.87034 0.17178 0.0
H2289 H 0.01044 0.91198 0.20768 0.0
H2290 H 0.97717 0.85741 0.19447 0.0
H2291 H 0.99183 0.89896 0.23039 0.0
H2292 H 0.93573 0.88523 0.25183 0.0
H2293 H 0.95918 0.89634 0.23292 0.0
H2294 H 0.97742 0.8432 0.22417 0.0
H2295 H 0.95388 0.83206 0.24301 0.0
C2296 C 0.99529 0.87656 0.18461 0.0
C2297 C 0.00447 0.89223 0.18794 0.0
C2298 C 0.98467 0.86911 0.19761 0.0
C2299 C 0.983 0.87726 0.21413 0.0
C2300 C 0.99275 0.89254 0.21769 0.0
C2301 C 0.00344 0.89993 0.20472 0.0
C2302 C 0.94489 0.87596 0.24605 0.0
C2303 C 0.94294 0.8578 0.24876 0.0
C2304 C 0.95837 0.88231 0.23532 0.0
C2305 C 0.97006 0.8706 0.22705 0.0
C2306 C 0.96847 0.85248 0.23026 0.0
C2307 C 0.95506 0.84614 0.24109 0.0
H2308 H 0.41696 0.70998 0.50868 0.0
H2309 H 0.36636 0.68451 0.50379 0.0
H2310 H 0.40623 0.73464 0.49109 0.0
H2311 H 0.35574 0.70898 0.48605 0.0
H2312 H 0.38905 0.75306 0.43447 0.0
H2313 H 0.3995 0.73583 0.45939 0.0
H2314 H 0.3485 0.74049 0.48413 0.0
H2315 H 0.33795 0.75757 0.45903 0.0
C2316 C 0.40345 0.70981 0.50414 0.0
C2317 C 0.39254 0.69525 0.50739 0.0
C2318 C 0.39735 0.72389 0.49402 0.0
C2319 C 0.38022 0.72365 0.48705 0.0
C2320 C 0.36896 0.70963 0.49136 0.0
C2321 C 0.37507 0.69554 0.50142 0.0
C2322 C 0.38018 0.75071 0.44539 0.0
C2323 C 0.36264 0.75643 0.44472 0.0
C2324 C 0.3862 0.74094 0.45973 0.0
C2325 C 0.37476 0.7367 0.47365 0.0
C2326 C 0.35752 0.74339 0.47347 0.0
C2327 C 0.35152 0.7532 0.45914 0.0
H2328 H 0.48906 0.09161 0.71055 0.0
H2329 H 0.49706 0.14139 0.68424 0.0
H2330 H 0.50635 0.102 0.73554 0.0
H2331 H 0.51452 0.15167 0.70908 0.0
H2332 H 0.56298 0.11685 0.75553 0.0
H2333 H 0.53824 0.10728 0.73759 0.0
H2334 H 0.51574 0.15942 0.74062 0.0
H2335 H 0.54068 0.16908 0.75844 0.0
C2336 C 0.49425 0.10488 0.71025 0.0
C2337 C 0.49193 0.11562 0.69537 0.0
C2338 C 0.50419 0.11079 0.72452 0.0
C2339 C 0.51193 0.12757 0.72418 0.0
C2340 C 0.5086 0.13873 0.7098 0.0
C2341 C 0.49869 0.13281 0.69552 0.0
C2342 C 0.55258 0.12617 0.75267 0.0
C2343 C 0.55385 0.14375 0.75817 0.0
C2344 C 0.53834 0.12067 0.74249 0.0
C2345 C 0.52512 0.13266 0.73759 0.0
C2346 C 0.52585 0.14997 0.74403 0.0
C2347 C 0.54008 0.15546 0.75428 0.0
H2348 H 0.16243 0.24049 0.96245 0.0
H2349 H 0.11075 0.24403 0.93901 0.0
H2350 H 0.15237 0.25816 0.98732 0.0
H2351 H 0.10079 0.26192 0.96364 0.0
H2352 H 0.08453 0.29043 0.01177 0.0
H2353 H 0.09465 0.26488 0.99512 0.0
H2354 H 0.14545 0.28955 0.98835 0.0
H2355 H 0.13545 0.31486 0.00519 0.0
C2356 C 0.14883 0.24476 0.96278 0.0
C2357 C 0.13742 0.24113 0.94869 0.0
C2358 C 0.1431 0.25492 0.97698 0.0
C2359 C 0.12587 0.26161 0.97733 0.0
C2360 C 0.11411 0.25685 0.96385 0.0
C2361 C 0.11984 0.24669 0.94966 0.0
C2362 C 0.09798 0.2902 0.00704 0.0
C2363 C 0.10915 0.30471 0.00955 0.0
C2364 C 0.10374 0.27561 0.99746 0.0
C2365 C 0.12077 0.27528 0.99028 0.0
C2366 C 0.1323 0.2893 0.99385 0.0
C2367 C 0.12654 0.30388 0.0034 0.0
H2368 H 0.28793 0.01207 0.08616 0.0
H2369 H 0.31491 0.00727 0.136 0.0
H2370 H 0.26374 0.99429 0.09755 0.0
H2371 H 0.29089 0.98931 0.14728 0.0
H2372 H 0.24303 0.96128 0.16601 0.0
H2373 H 0.2596 0.98668 0.15536 0.0
H2374 H 0.26337 0.96257 0.10398 0.0
H2375 H 0.24666 0.93737 0.11453 0.0
C2376 C 0.28852 0.00752 0.09966 0.0
C2377 C 0.3034 0.01082 0.11013 0.0
C2378 C 0.27471 0.99729 0.10614 0.0
C2379 C 0.27553 0.99023 0.12321 0.0
C2380 C 0.28981 0.99467 0.13411 0.0
C2381 C 0.30363 0.00487 0.12762 0.0
C2382 C 0.24712 0.96159 0.15235 0.0
C2383 C 0.24377 0.94728 0.14113 0.0
C2384 C 0.25663 0.97609 0.14629 0.0
C2385 C 0.26288 0.97655 0.12889 0.0
C2386 C 0.25858 0.9627 0.11741 0.0
C2387 C 0.24912 0.94819 0.12348 0.0
H2388 H 0.28742 0.9872 0.41458 0.0
H2389 H 0.31343 0.99297 0.36432 0.0
H2390 H 0.26219 0.00367 0.40338 0.0
H2391 H 0.28847 0.00964 0.35327 0.0
H2392 H 0.24077 0.03632 0.33444 0.0
H2393 H 0.25738 0.01106 0.34534 0.0
H2394 H 0.25986 0.03506 0.39686 0.0
H2395 H 0.24303 0.06004 0.38608 0.0
C2396 C 0.2876 0.9917 0.40105 0.0
C2397 C 0.30247 0.98907 0.39038 0.0
C2398 C 0.27319 0.00116 0.39467 0.0
C2399 C 0.27342 0.0081 0.37752 0.0
C2400 C 0.28779 0.00433 0.36649 0.0
C2401 C 0.30218 0.9949 0.37286 0.0
C2402 C 0.24451 0.03597 0.34819 0.0
C2403 C 0.24089 0.05025 0.35936 0.0
C2404 C 0.25406 0.02155 0.35441 0.0
C2405 C 0.26011 0.02118 0.37188 0.0
C2406 C 0.25527 0.03486 0.38336 0.0
C2407 C 0.24574 0.04926 0.37715 0.0
H2408 H 0.21246 0.9874 0.58595 0.0
H2409 H 0.18657 0.99316 0.63627 0.0
H2410 H 0.23761 0.00405 0.59699 0.0
H2411 H 0.2114 0.01013 0.64714 0.0
H2412 H 0.25887 0.03782 0.66542 0.0
H2413 H 0.24218 0.0124 0.65508 0.0
H2414 H 0.23991 0.03524 0.603 0.0
H2415 H 0.2569 0.06032 0.61321 0.0
C2416 C 0.21229 0.99196 0.59946 0.0
C2417 C 0.19748 0.98927 0.61018 0.0
C2418 C 0.22665 0.00153 0.60575 0.0
C2419 C 0.22639 0.00861 0.62284 0.0
C2420 C 0.21211 0.00474 0.63396 0.0
C2421 C 0.1978 0.99513 0.62769 0.0
C2422 C 0.25511 0.03719 0.65168 0.0
C2423 C 0.25891 0.05114 0.64016 0.0
C2424 C 0.24552 0.02267 0.64578 0.0
C2425 C 0.23956 0.0219 0.62829 0.0
C2426 C 0.24445 0.03532 0.61652 0.0
C2427 C 0.25406 0.04979 0.6224 0.0
H2428 H 0.25468 0.93229 0.88465 0.0
H2429 H 0.26376 0.961 0.8364 0.0
H2430 H 0.23723 0.95675 0.8959 0.0
H2431 H 0.24641 0.98554 0.84772 0.0
H2432 H 0.18938 0.00488 0.86266 0.0
H2433 H 0.21411 0.9871 0.85263 0.0
H2434 H 0.23626 0.98819 0.905 0.0
H2435 H 0.21141 0.00592 0.91508 0.0
C2436 C 0.25332 0.944 0.87664 0.0
C2437 C 0.26037 0.94465 0.85957 0.0
C2438 C 0.2434 0.95806 0.88311 0.0
C2439 C 0.24031 0.97297 0.87259 0.0
C2440 C 0.24839 0.9741 0.856 0.0
C2441 C 0.25838 0.96009 0.84957 0.0
C2442 C 0.19971 0.00163 0.87193 0.0
C2443 C 0.19838 0.00661 0.88967 0.0
C2444 C 0.21394 0.99154 0.86618 0.0
C2445 C 0.22706 0.98617 0.87808 0.0
C2446 C 0.22623 0.992 0.8956 0.0
C2447 C 0.21205 0.00219 0.90133 0.0
H2448 H 0.65328 0.26074 0.04484 0.0
H2449 H 0.63254 0.22816 0.0866 0.0
H2450 H 0.64259 0.23964 0.02305 0.0
H2451 H 0.62183 0.20712 0.06481 0.0
H2452 H 0.62533 0.1642 0.02272 0.0
H2453 H 0.63624 0.18616 0.04349 0.0
H2454 H 0.61392 0.22754 0.01153 0.0
H2455 H 0.60303 0.20559 0.99071 0.0
C2456 C 0.64628 0.24917 0.04933 0.0
C2457 C 0.64375 0.24605 0.06739 0.0
C2458 C 0.64016 0.23713 0.03688 0.0
C2459 C 0.63155 0.22169 0.04228 0.0
C2460 C 0.62867 0.21879 0.06032 0.0
C2461 C 0.63465 0.2309 0.07276 0.0
C2462 C 0.62292 0.17799 0.02004 0.0
C2463 C 0.61331 0.1832 0.00514 0.0
C2464 C 0.62903 0.19053 0.03199 0.0
C2465 C 0.62575 0.20851 0.02918 0.0
C2466 C 0.61666 0.21376 0.01397 0.0
C2467 C 0.61043 0.20121 0.00209 0.0
H2468 H 0.98924 0.4168 0.28929 0.0
H2469 H 0.99811 0.37046 0.32105 0.0
H2470 H 0.00845 0.40494 0.2665 0.0
H2471 H 0.01748 0.35864 0.29824 0.0
H2472 H 0.04267 0.33718 0.24865 0.0
H2473 H 0.0186 0.34787 0.2671 0.0
H2474 H 0.04081 0.40017 0.26565 0.0
H2475 H 0.0648 0.38953 0.24717 0.0
C2476 C 0.99514 0.40398 0.29131 0.0
C2477 C 0.99232 0.3946 0.307 0.0
C2478 C 0.00617 0.39724 0.27828 0.0
C2479 C 0.01454 0.38095 0.28066 0.0
C2480 C 0.01108 0.37118 0.296 0.0
C2481 C 7e-05 0.37797 0.30909 0.0
C2482 C 0.04223 0.35102 0.25203 0.0
C2483 C 0.05563 0.36253 0.24656 0.0
C2484 C 0.02852 0.35709 0.26267 0.0
C2485 C 0.0279 0.3748 0.26788 0.0
C2486 C 0.04087 0.38647 0.26171 0.0
C2487 C 0.05464 0.38038 0.25119 0.0
H2488 H 0.83296 0.73925 0.53769 0.0
H2489 H 0.88372 0.74446 0.56278 0.0
H2490 H 0.84382 0.75566 0.51228 0.0
H2491 H 0.89448 0.76105 0.53757 0.0
H2492 H 0.91243 0.78631 0.48821 0.0
H2493 H 0.90164 0.7618 0.50598 0.0
H2494 H 0.85086 0.78713 0.50988 0.0
H2495 H 0.86155 0.81143 0.49197 0.0
C2496 C 0.84653 0.74362 0.53763 0.0
C2497 C 0.85744 0.74082 0.55229 0.0
C2498 C 0.85271 0.75305 0.52312 0.0
C2499 C 0.86993 0.75978 0.52302 0.0
C2500 C 0.88119 0.7559 0.53718 0.0
C2501 C 0.875 0.7465 0.55169 0.0
C2502 C 0.89885 0.78642 0.49254 0.0
C2503 C 0.88788 0.80086 0.48893 0.0
C2504 C 0.89271 0.77244 0.50276 0.0
C2505 C 0.87548 0.77264 0.50946 0.0
C2506 C 0.86416 0.78651 0.50478 0.0
C2507 C 0.87031 0.8005 0.49462 0.0
H2508 H 0.9899 0.58057 0.20919 0.0
H2509 H 0.99339 0.63177 0.18469 0.0
H2510 H 0.00735 0.59124 0.23398 0.0
H2511 H 0.01098 0.64233 0.20929 0.0
H2512 H 0.03729 0.65988 0.25845 0.0
H2513 H 0.01261 0.64899 0.24099 0.0
H2514 H 0.03884 0.59885 0.23537 0.0
H2515 H 0.06335 0.60963 0.25297 0.0
C2516 C 0.99412 0.59418 0.20926 0.0
C2517 C 0.9905 0.6053 0.19493 0.0
C2518 C 0.00416 0.60025 0.22341 0.0
C2519 C 0.01066 0.61755 0.2235 0.0
C2520 C 0.00603 0.62898 0.20969 0.0
C2521 C 0.99605 0.62289 0.19553 0.0
C2522 C 0.0376 0.64641 0.25378 0.0
C2523 C 0.05231 0.63565 0.25686 0.0
C2524 C 0.02351 0.64022 0.24374 0.0
C2525 C 0.02387 0.62314 0.23669 0.0
C2526 C 0.0381 0.61202 0.24076 0.0
C2527 C 0.0522 0.61823 0.25074 0.0
H2528 H 0.46039 0.34189 0.75964 0.0
H2529 H 0.42391 0.3819 0.74218 0.0
H2530 H 0.48234 0.35288 0.73871 0.0
H2531 H 0.44572 0.39261 0.72119 0.0
H2532 H 0.47783 0.38612 0.66997 0.0
H2533 H 0.45839 0.3758 0.69339 0.0
H2534 H 0.50013 0.38256 0.73133 0.0
H2535 H 0.51962 0.39321 0.7079 0.0
C2536 C 0.45719 0.35321 0.75158 0.0
C2537 C 0.44043 0.361 0.75245 0.0
C2538 C 0.46972 0.35945 0.73964 0.0
C2539 C 0.46554 0.37337 0.72824 0.0
C2540 C 0.44912 0.38169 0.72972 0.0
C2541 C 0.43671 0.37565 0.74182 0.0
C2542 C 0.48293 0.38522 0.68326 0.0
C2543 C 0.50019 0.3905 0.68716 0.0
C2544 C 0.47178 0.37946 0.69665 0.0
C2545 C 0.47777 0.37863 0.71411 0.0
C2546 C 0.49525 0.38316 0.71794 0.0
C2547 C 0.50635 0.38921 0.70457 0.0
H2548 H 0.98982 0.91209 0.70923 0.0
H2549 H 0.99391 0.86125 0.68409 0.0
H2550 H 0.00725 0.90126 0.73396 0.0
H2551 H 0.01152 0.85053 0.70862 0.0
H2552 H 0.03786 0.83262 0.75772 0.0
H2553 H 0.01319 0.84339 0.74014 0.0
H2554 H 0.0387 0.89401 0.73554 0.0
H2555 H 0.06315 0.88335 0.75327 0.0
C2556 C 0.99419 0.89851 0.70914 0.0
C2557 C 0.99071 0.88755 0.69466 0.0
C2558 C 0.00421 0.89235 0.72325 0.0
C2559 C 0.01089 0.87511 0.72315 0.0
C2560 C 0.00643 0.86383 0.70917 0.0
C2561 C 0.99644 0.87 0.69505 0.0
C2562 C 0.038 0.84615 0.75325 0.0
C2563 C 0.05249 0.8571 0.75667 0.0
C2564 C 0.02392 0.85228 0.74314 0.0
C2565 C 0.02408 0.86948 0.73635 0.0
C2566 C 0.03809 0.88074 0.74073 0.0
C2567 C 0.05217 0.8746 0.75078 0.0
H2568 H 0.88521 0.25263 0.42783 0.0
H2569 H 0.83584 0.24539 0.45512 0.0
H2570 H 0.89646 0.26944 0.45278 0.0
H2571 H 0.84719 0.26187 0.48017 0.0
H2572 H 0.86496 0.31511 0.50505 0.0
H2573 H 0.85395 0.29287 0.48482 0.0
H2574 H 0.9052 0.2682 0.48392 0.0
H2575 H 0.91631 0.2907 0.504 0.0
C2576 C 0.87688 0.25442 0.43926 0.0
C2577 C 0.85961 0.24788 0.43947 0.0
C2578 C 0.88335 0.26392 0.45361 0.0
C2579 C 0.87267 0.26702 0.46842 0.0
C2580 C 0.85564 0.25988 0.46886 0.0
C2581 C 0.84917 0.25042 0.45453 0.0
C2582 C 0.87377 0.30473 0.50083 0.0
C2583 C 0.89152 0.30472 0.50595 0.0
C2584 C 0.86746 0.29194 0.48928 0.0
C2585 C 0.87877 0.27889 0.48264 0.0
C2586 C 0.89626 0.27827 0.48862 0.0
C2587 C 0.90257 0.29106 0.50021 0.0
H2588 H 0.45168 0.16935 0.23579 0.0
H2589 H 0.42734 0.11873 0.24462 0.0
H2590 H 0.47291 0.15573 0.21594 0.0
H2591 H 0.44855 0.10511 0.22461 0.0
H2592 H 0.50049 0.0848 0.20167 0.0
H2593 H 0.48072 0.09879 0.22278 0.0
H2594 H 0.47221 0.14163 0.18637 0.0
H2595 H 0.4921 0.1277 0.16529 0.0
C2596 C 0.45091 0.1553 0.23352 0.0
C2597 C 0.43786 0.14508 0.24172 0.0
C2598 C 0.463 0.14754 0.22208 0.0
C2599 C 0.46235 0.12939 0.2187 0.0
C2600 C 0.44946 0.11912 0.22711 0.0
C2601 C 0.43728 0.12691 0.23848 0.0
C2602 C 0.49449 0.09727 0.19823 0.0
C2603 C 0.49781 0.10518 0.18184 0.0
C2604 C 0.48309 0.1052 0.21026 0.0
C2605 C 0.47489 0.12125 0.20618 0.0
C2606 C 0.47849 0.12933 0.18993 0.0
C2607 C 0.48981 0.12134 0.17784 0.0
H2608 H 0.61952 0.66782 0.98533 0.0
H2609 H 0.60282 0.70892 0.02095 0.0
H2610 H 0.63081 0.69003 0.96503 0.0
H2611 H 0.61451 0.73115 0.00064 0.0
H2612 H 0.65734 0.75883 0.96135 0.0
H2613 H 0.64711 0.7389 0.98468 0.0
H2614 H 0.61075 0.715 0.94821 0.0
H2615 H 0.62056 0.73498 0.92509 0.0
C2616 C 0.61859 0.68157 0.98898 0.0
C2617 C 0.6102 0.68668 0.00463 0.0
C2618 C 0.62496 0.69424 0.97734 0.0
C2619 C 0.62333 0.71219 0.98131 0.0
C2620 C 0.61587 0.71734 0.99739 0.0
C2621 C 0.6092 0.70465 0.00893 0.0
C2622 C 0.64695 0.74952 0.95845 0.0
C2623 C 0.63977 0.74838 0.94143 0.0
C2624 C 0.64115 0.73817 0.97174 0.0
C2625 C 0.62837 0.72538 0.96804 0.0
C2626 C 0.62078 0.72468 0.95124 0.0
C2627 C 0.62632 0.73617 0.93808 0.0
H2628 H 0.0418 0.14692 0.74095 0.0
H2629 H 0.08576 0.1287 0.77209 0.0
H2630 H 0.02144 0.13321 0.76162 0.0
H2631 H 0.06535 0.11483 0.79273 0.0
H2632 H 0.02301 0.1132 0.83614 0.0
H2633 H 0.04337 0.12564 0.81462 0.0
H2634 H 0.01217 0.1038 0.7724 0.0
H2635 H 0.99172 0.09148 0.79391 0.0
C2636 C 0.04711 0.1398 0.75211 0.0
C2637 C 0.06535 0.13889 0.75496 0.0
C2638 C 0.03545 0.13191 0.7639 0.0
C2639 C 0.04182 0.12306 0.77883 0.0
C2640 C 0.06008 0.12178 0.78145 0.0
C2641 C 0.07176 0.12959 0.76958 0.0
C2642 C 0.02045 0.11115 0.82226 0.0
C2643 C 0.00578 0.10142 0.81668 0.0
C2644 C 0.03219 0.11813 0.80996 0.0
C2645 C 0.0294 0.11558 0.79185 0.0
C2646 C 0.01458 0.10605 0.78628 0.0
C2647 C 0.0029 0.09899 0.79858 0.0
H2648 H 0.61523 0.33552 0.52015 0.0
H2649 H 0.59166 0.29384 0.4895 0.0
H2650 H 0.62737 0.31374 0.54042 0.0
H2651 H 0.60374 0.27206 0.50984 0.0
H2652 H 0.64514 0.23906 0.54046 0.0
H2653 H 0.63285 0.26012 0.51951 0.0
H2654 H 0.61522 0.2927 0.56264 0.0
H2655 H 0.62758 0.2717 0.5836 0.0
C2656 C 0.61276 0.3217 0.51768 0.0
C2657 C 0.6025 0.31636 0.50327 0.0
C2658 C 0.61958 0.30926 0.52936 0.0
C2659 C 0.61637 0.29123 0.52677 0.0
C2660 C 0.60648 0.28587 0.5121 0.0
C2661 C 0.59955 0.29833 0.50049 0.0
C2662 C 0.6385 0.25064 0.54546 0.0
C2663 C 0.63732 0.25376 0.56365 0.0
C2664 C 0.63145 0.26267 0.53347 0.0
C2665 C 0.62321 0.2781 0.53945 0.0
C2666 C 0.62173 0.28103 0.55766 0.0
C2667 C 0.62867 0.26895 0.56965 0.0
H2668 H 0.50095 0.86031 0.31898 0.0
H2669 H 0.51322 0.90842 0.29124 0.0
H2670 H 0.48519 0.84952 0.29321 0.0
H2671 H 0.49754 0.89754 0.26539 0.0
H2672 H 0.46286 0.83089 0.24229 0.0
H2673 H 0.48663 0.84052 0.26167 0.0
H2674 H 0.46536 0.89324 0.26138 0.0
H2675 H 0.44171 0.88367 0.24198 0.0
C2676 C 0.50062 0.86839 0.30724 0.0
C2677 C 0.50809 0.88528 0.30718 0.0
C2678 C 0.49169 0.86218 0.29244 0.0
C2679 C 0.49002 0.87277 0.27735 0.0
C2680 C 0.49847 0.8892 0.27692 0.0
C2681 C 0.50747 0.89538 0.29169 0.0
C2682 C 0.46351 0.84462 0.24605 0.0
C2683 C 0.45035 0.85651 0.24081 0.0
C2684 C 0.47706 0.8501 0.25719 0.0
C2685 C 0.47775 0.86758 0.26314 0.0
C2686 C 0.46526 0.87972 0.2569 0.0
C2687 C 0.45166 0.87422 0.24586 0.0
H2688 H 0.88497 0.75421 0.05987 0.0
H2689 H 0.83451 0.75742 0.03385 0.0
H2690 H 0.89638 0.73671 0.03558 0.0
H2691 H 0.84604 0.74016 0.00934 0.0
H2692 H 0.86453 0.6841 0.99134 0.0
H2693 H 0.85344 0.70889 0.00828 0.0
H2694 H 0.90413 0.73437 0.00434 0.0
H2695 H 0.91535 0.70933 0.98757 0.0
C2696 C 0.87646 0.75155 0.04875 0.0
C2697 C 0.85879 0.75692 0.04886 0.0
C2698 C 0.88303 0.74162 0.03476 0.0
C2699 C 0.87204 0.73691 0.02063 0.0
C2700 C 0.85472 0.74337 0.02019 0.0
C2701 C 0.84815 0.7533 0.03418 0.0
C2702 C 0.87321 0.69514 0.99379 0.0
C2703 C 0.89085 0.6947 0.98837 0.0
C2704 C 0.86682 0.70942 0.00339 0.0
C2705 C 0.87797 0.72353 0.00775 0.0
C2706 C 0.89532 0.72357 0.00135 0.0
C2707 C 0.9017 0.70928 0.99171 0.0
H2708 H 0.75047 0.04101 0.83432 0.0
H2709 H 0.75387 0.0628 0.88675 0.0
H2710 H 0.73032 0.01837 0.84505 0.0
H2711 H 0.7337 0.04025 0.89743 0.0
H2712 H 0.70635 0.99039 0.91391 0.0
H2713 H 0.73037 0.00805 0.9021 0.0
H2714 H 0.69918 0.01969 0.85601 0.0
H2715 H 0.67511 0.00186 0.86778 0.0
C2716 C 0.74717 0.04076 0.8482 0.0
C2717 C 0.75366 0.05369 0.85971 0.0
C2718 C 0.73554 0.0279 0.85429 0.0
C2719 C 0.73036 0.02764 0.87203 0.0
C2720 C 0.73758 0.04004 0.88371 0.0
C2721 C 0.74908 0.05298 0.87759 0.0
C2722 C 0.70468 0.99656 0.90116 0.0
C2723 C 0.68881 0.99489 0.89181 0.0
C2724 C 0.71841 0.0067 0.89445 0.0
C2725 C 0.7166 0.01531 0.87821 0.0
C2726 C 0.70099 0.01306 0.8685 0.0
C2727 C 0.68719 0.00296 0.87527 0.0
H2728 H 0.73827 0.91949 0.61627 0.0
H2729 H 0.74914 0.9573 0.65734 0.0
H2730 H 0.71802 0.94033 0.60249 0.0
H2731 H 0.72892 0.97811 0.64353 0.0
H2732 H 0.67434 0.99904 0.62564 0.0
H2733 H 0.69614 0.97937 0.63878 0.0
H2734 H 0.71855 0.96984 0.5874 0.0
H2735 H 0.69676 0.98946 0.57425 0.0
C2736 C 0.73643 0.9323 0.62226 0.0
C2737 C 0.74524 0.93678 0.63787 0.0
C2738 C 0.72491 0.94423 0.61434 0.0
C2739 C 0.72187 0.96079 0.622 0.0
C2740 C 0.73088 0.96536 0.63747 0.0
C2741 C 0.74253 0.9535 0.64529 0.0
C2742 C 0.68397 0.9928 0.61718 0.0
C2743 C 0.68386 0.99575 0.59894 0.0
C2744 C 0.69648 0.98163 0.6247 0.0
C2745 C 0.70901 0.9731 0.61409 0.0
C2746 C 0.70895 0.97613 0.59586 0.0
C2747 C 0.69654 0.98742 0.58836 0.0
H2748 H 0.74605 0.9352 0.3902 0.0
H2749 H 0.73794 0.95976 0.33952 0.0
H2750 H 0.76377 0.96027 0.39947 0.0
H2751 H 0.75565 0.98488 0.34885 0.0
H2752 H 0.79028 0.0102 0.41464 0.0
H2753 H 0.76494 0.99267 0.40557 0.0
H2754 H 0.78823 0.98569 0.35417 0.0
H2755 H 0.81354 0.00323 0.36318 0.0
C2756 C 0.74769 0.94616 0.38121 0.0
C2757 C 0.74083 0.94545 0.36408 0.0
C2758 C 0.75775 0.96056 0.38655 0.0
C2759 C 0.76121 0.97443 0.3748 0.0
C2760 C 0.75334 0.97426 0.35808 0.0
C2761 C 0.74316 0.95992 0.35279 0.0
C2762 C 0.7898 0.00524 0.40127 0.0
C2763 C 0.80396 0.00787 0.38966 0.0
C2764 C 0.77533 0.99518 0.39613 0.0
C2765 C 0.7747 0.98773 0.37924 0.0
C2766 C 0.7883 0.9914 0.36723 0.0
C2767 C 0.80283 0.00136 0.37241 0.0
H2768 H 0.77248 0.08517 0.13157 0.0
H2769 H 0.73856 0.04347 0.15012 0.0
H2770 H 0.7929 0.0633 0.1198 0.0
H2771 H 0.75902 0.02162 0.13842 0.0
H2772 H 0.79171 0.98958 0.0981 0.0
H2773 H 0.77063 0.01097 0.10954 0.0
H2774 H 0.81326 0.04067 0.13258 0.0
H2775 H 0.83438 0.01932 0.12107 0.0
C2776 C 0.76932 0.07134 0.13299 0.0
C2777 C 0.75395 0.066 0.14175 0.0
C2778 C 0.78107 0.05884 0.1264 0.0
C2779 C 0.7776 0.04078 0.12833 0.0
C2780 C 0.76198 0.03546 0.13667 0.0
C2781 C 0.7503 0.04795 0.14339 0.0
C2782 C 0.79656 0.0006 0.10573 0.0
C2783 C 0.81467 0.00281 0.1087 0.0
C2784 C 0.78449 0.01282 0.11229 0.0
C2785 C 0.79033 0.02753 0.12183 0.0
C2786 C 0.80843 0.02957 0.12505 0.0
C2787 C 0.82049 0.01729 0.1186 0.0
H2788 H 0.33354 0.73797 0.95651 0.0
H2789 H 0.38351 0.74464 0.93021 0.0
H2790 H 0.34429 0.7553 0.98136 0.0
H2791 H 0.39413 0.76216 0.95481 0.0
H2792 H 0.41245 0.78849 0.00346 0.0
H2793 H 0.40214 0.76366 0.98589 0.0
H2794 H 0.35024 0.78683 0.98377 0.0
H2795 H 0.36044 0.81142 0.00157 0.0
C2796 C 0.34692 0.74288 0.95618 0.0
C2797 C 0.35763 0.74016 0.94136 0.0
C2798 C 0.35303 0.75285 0.97036 0.0
C2799 C 0.36998 0.76023 0.96996 0.0
C2800 C 0.38106 0.75652 0.95561 0.0
C2801 C 0.37495 0.74658 0.94145 0.0
C2802 C 0.39875 0.78808 0.99953 0.0
C2803 C 0.38728 0.80198 0.00367 0.0
C2804 C 0.39288 0.7739 0.98943 0.0
C2805 C 0.37544 0.77338 0.9833 0.0
C2806 C 0.36371 0.78675 0.98842 0.0
C2807 C 0.36958 0.80091 0.99853 0.0
H2808 H 0.95624 0.66598 0.7429 0.0
H2809 H 0.92086 0.62186 0.73713 0.0
H2810 H 0.97689 0.6521 0.72251 0.0
H2811 H 0.94155 0.60798 0.71679 0.0
H2812 H 0.99203 0.58083 0.69757 0.0
H2813 H 0.97223 0.59509 0.71841 0.0
H2814 H 0.97736 0.64399 0.6899 0.0
H2815 H 0.99723 0.62969 0.66892 0.0
C2816 C 0.95292 0.65329 0.73733 0.0
C2817 C 0.93698 0.64496 0.74161 0.0
C2818 C 0.96468 0.64542 0.7256 0.0
C2819 C 0.96079 0.629 0.7181 0.0
C2820 C 0.94492 0.62059 0.72251 0.0
C2821 C 0.93307 0.62855 0.73409 0.0
C2822 C 0.98901 0.59465 0.69578 0.0
C2823 C 0.99614 0.60417 0.68162 0.0
C2824 C 0.9776 0.60276 0.70765 0.0
C2825 C 0.97323 0.6206 0.7057 0.0
C2826 C 0.98062 0.63024 0.69174 0.0
C2827 C 0.99191 0.62206 0.67972 0.0
H2828 H 0.13083 0.1771 0.50155 0.0
H2829 H 0.08575 0.2106 0.51055 0.0
H2830 H 0.1439 0.19984 0.48289 0.0
H2831 H 0.09886 0.23329 0.49208 0.0
H2832 H 0.11519 0.2527 0.43618 0.0
H2833 H 0.10383 0.2342 0.45977 0.0
H2834 H 0.15591 0.23068 0.4823 0.0
H2835 H 0.16735 0.24919 0.45857 0.0
C2836 C 0.12388 0.18942 0.49978 0.0
C2837 C 0.10721 0.19202 0.50732 0.0
C2838 C 0.13138 0.20246 0.4892 0.0
C2839 C 0.1223 0.21825 0.48595 0.0
C2840 C 0.10602 0.22114 0.49418 0.0
C2841 C 0.09856 0.20817 0.50479 0.0
C2842 C 0.12416 0.24821 0.44632 0.0
C2843 C 0.14214 0.2523 0.44552 0.0
C2844 C 0.11765 0.23769 0.45987 0.0
C2845 C 0.12902 0.23097 0.47282 0.0
C2846 C 0.14691 0.23557 0.47238 0.0
C2847 C 0.15341 0.24624 0.45889 0.0
H2848 H 0.95525 0.33044 0.75833 0.0
H2849 H 0.92824 0.37994 0.75092 0.0
H2850 H 0.97552 0.34451 0.77885 0.0
H2851 H 0.9486 0.39403 0.77152 0.0
H2852 H 0.0004 0.41556 0.79493 0.0
H2853 H 0.98099 0.40153 0.77349 0.0
H2854 H 0.97322 0.35792 0.80912 0.0
H2855 H 0.99264 0.37195 0.8306 0.0
C2856 C 0.9537 0.34435 0.76102 0.0
C2857 C 0.94017 0.35411 0.75304 0.0
C2858 C 0.96524 0.35236 0.77285 0.0
C2859 C 0.96358 0.37032 0.77681 0.0
C2860 C 0.95024 0.38017 0.76859 0.0
C2861 C 0.93857 0.37211 0.75687 0.0
C2862 C 0.99461 0.40293 0.79814 0.0
C2863 C 0.99803 0.39481 0.81441 0.0
C2864 C 0.98343 0.39498 0.78592 0.0
C2865 C 0.9756 0.37868 0.78967 0.0
C2866 C 0.97921 0.37044 0.80584 0.0
C2867 C 0.99026 0.37848 0.81814 0.0
H2868 H 0.56473 0.61271 0.24787 0.0
H2869 H 0.54169 0.66455 0.25173 0.0
H2870 H 0.541 0.60084 0.26587 0.0
H2871 H 0.51778 0.65261 0.26958 0.0
H2872 H 0.49839 0.62809 0.32282 0.0
H2873 H 0.51686 0.64106 0.29996 0.0
H2874 H 0.50923 0.59497 0.26755 0.0
H2875 H 0.49099 0.5819 0.2905 0.0
C2876 C 0.5544 0.6215 0.25227 0.0
C2877 C 0.55513 0.63956 0.24854 0.0
C2878 C 0.54075 0.61469 0.26251 0.0
C2879 C 0.5276 0.62584 0.26923 0.0
C2880 C 0.52787 0.64377 0.26477 0.0
C2881 C 0.5415 0.65057 0.25447 0.0
C2882 C 0.50045 0.62086 0.3107 0.0
C2883 C 0.49342 0.60393 0.3085 0.0
C2884 C 0.51094 0.62832 0.29757 0.0
C2885 C 0.51458 0.61896 0.28201 0.0
C2886 C 0.50684 0.60237 0.2795 0.0
C2887 C 0.49635 0.59494 0.29261 0.0
H2888 H 0.52218 0.60849 0.7965 0.0
H2889 H 0.48069 0.61918 0.83392 0.0
H2890 H 0.50282 0.61772 0.77242 0.0
H2891 H 0.46136 0.62814 0.80984 0.0
H2892 H 0.42685 0.61709 0.76158 0.0
H2893 H 0.44843 0.60902 0.78393 0.0
H2894 H 0.48524 0.64637 0.76212 0.0
H2895 H 0.46351 0.65473 0.73978 0.0
C2896 C 0.50902 0.61304 0.79958 0.0
C2897 C 0.50288 0.61308 0.81704 0.0
C2898 C 0.498 0.6183 0.78583 0.0
C2899 C 0.4806 0.62338 0.78934 0.0
C2900 C 0.47468 0.62404 0.80684 0.0
C2901 C 0.48577 0.61906 0.8206 0.0
C2902 C 0.43964 0.62339 0.76135 0.0
C2903 C 0.4435 0.63659 0.74901 0.0
C2904 C 0.4519 0.61888 0.77423 0.0
C2905 C 0.46832 0.62729 0.77483 0.0
C2906 C 0.47261 0.63977 0.7619 0.0
C2907 C 0.46021 0.6445 0.74915 0.0
H2908 H 0.90207 0.20715 0.00696 0.0
H2909 H 0.86626 0.16922 0.98431 0.0
H2910 H 0.89219 0.22915 0.98552 0.0
H2911 H 0.85663 0.19108 0.9629 0.0
H2912 H 0.86367 0.22561 0.91403 0.0
H2913 H 0.87397 0.20586 0.93721 0.0
H2914 H 0.86297 0.24564 0.97626 0.0
H2915 H 0.85244 0.26542 0.95308 0.0
C2916 C 0.89192 0.20361 0.9976 0.0
C2917 C 0.88497 0.18648 0.99723 0.0
C2918 C 0.88631 0.21616 0.98536 0.0
C2919 C 0.87389 0.21165 0.97246 0.0
C2920 C 0.86644 0.19476 0.97257 0.0
C2921 C 0.87185 0.18232 0.98491 0.0
C2922 C 0.86368 0.23023 0.92752 0.0
C2923 C 0.85719 0.24699 0.93179 0.0
C2924 C 0.86943 0.2189 0.94077 0.0
C2925 C 0.86903 0.22422 0.95847 0.0
C2926 C 0.86338 0.24128 0.96268 0.0
C2927 C 0.85737 0.25254 0.94945 0.0
H2928 H 0.62385 0.74101 0.43753 0.0
H2929 H 0.67042 0.77318 0.44231 0.0
H2930 H 0.6085 0.76013 0.45825 0.0
H2931 H 0.65492 0.79287 0.46221 0.0
H2932 H 0.62812 0.81654 0.50974 0.0
H2933 H 0.64357 0.79586 0.49065 0.0
H2934 H 0.59573 0.78795 0.46077 0.0
H2935 H 0.58022 0.80782 0.48045 0.0
C2936 C 0.63072 0.75229 0.44291 0.0
C2937 C 0.64829 0.75563 0.43837 0.0
C2938 C 0.62192 0.76332 0.4547 0.0
C2939 C 0.63043 0.77812 0.46194 0.0
C2940 C 0.64802 0.78144 0.45723 0.0
C2941 C 0.65689 0.77024 0.4457 0.0
C2942 C 0.62096 0.81028 0.49912 0.0
C2943 C 0.60301 0.81372 0.49657 0.0
C2944 C 0.6298 0.79852 0.48809 0.0
C2945 C 0.62094 0.7902 0.47408 0.0
C2946 C 0.60294 0.79377 0.47159 0.0
C2947 C 0.59406 0.80528 0.4828 0.0
H2948 H 0.7425 0.45671 0.66541 0.0
H2949 H 0.74534 0.4339 0.61339 0.0
H2950 H 0.75907 0.48222 0.65512 0.0
H2951 H 0.76212 0.45921 0.60319 0.0
H2952 H 0.81411 0.5032 0.63625 0.0
H2953 H 0.79015 0.48488 0.64703 0.0
H2954 H 0.76313 0.49089 0.59733 0.0
H2955 H 0.78731 0.509 0.58643 0.0
C2956 C 0.7464 0.45729 0.65171 0.0
C2957 C 0.74284 0.44324 0.64023 0.0
C2958 C 0.75594 0.47186 0.64585 0.0
C2959 C 0.76204 0.47264 0.62841 0.0
C2960 C 0.75746 0.45909 0.61667 0.0
C2961 C 0.74795 0.44452 0.62253 0.0
C2962 C 0.80289 0.50092 0.62777 0.0
C2963 C 0.80268 0.5073 0.61043 0.0
C2964 C 0.78909 0.49051 0.63397 0.0
C2965 C 0.77483 0.48631 0.62295 0.0
C2966 C 0.77408 0.4937 0.60602 0.0
C2967 C 0.78788 0.50413 0.59981 0.0
H2968 H 0.78888 0.48806 0.91194 0.0
H2969 H 0.81719 0.49329 0.86289 0.0
H2970 H 0.76479 0.50558 0.8999 0.0
H2971 H 0.79329 0.51099 0.85096 0.0
H2972 H 0.74759 0.56234 0.88247 0.0
H2973 H 0.7642 0.53728 0.89347 0.0
H2974 H 0.7622 0.51322 0.84197 0.0
H2975 H 0.7457 0.53851 0.83086 0.0
C2976 C 0.7898 0.49266 0.89848 0.0
C2977 C 0.805 0.48955 0.88842 0.0
C2978 C 0.77605 0.50273 0.89162 0.0
C2979 C 0.77725 0.50981 0.87458 0.0
C2980 C 0.79191 0.5056 0.86409 0.0
C2981 C 0.80566 0.49556 0.87096 0.0
C2982 C 0.75041 0.55156 0.87357 0.0
C2983 C 0.74558 0.55246 0.85577 0.0
C2984 C 0.7598 0.53713 0.87991 0.0
C2985 C 0.76458 0.52333 0.86854 0.0
C2986 C 0.75884 0.52376 0.85096 0.0
C2987 C 0.74937 0.53819 0.84464 0.0
H2988 H 0.70253 0.50259 0.08052 0.0
H2989 H 0.67085 0.50428 0.12774 0.0
H2990 H 0.72408 0.52203 0.09426 0.0
H2991 H 0.69239 0.52382 0.14144 0.0
H2992 H 0.74358 0.5439 0.16589 0.0
H2993 H 0.72347 0.52309 0.15205 0.0
H2994 H 0.72502 0.55348 0.10401 0.0
H2995 H 0.74528 0.57432 0.11784 0.0
C2996 C 0.70022 0.50705 0.09387 0.0
C2997 C 0.68502 0.50194 0.10309 0.0
C2998 C 0.7125 0.51826 0.10167 0.0
C2999 C 0.70987 0.52446 0.11888 0.0
C3000 C 0.69482 0.5191 0.12821 0.0
C3001 C 0.68247 0.50798 0.12036 0.0
C3002 C 0.73972 0.54609 0.15233 0.0
C3003 C 0.74596 0.56073 0.14293 0.0
C3004 C 0.72813 0.53423 0.14447 0.0
C3005 C 0.72265 0.53672 0.127 0.0
C3006 C 0.72916 0.55118 0.11746 0.0
C3007 C 0.74068 0.56312 0.12538 0.0
H3008 H 0.75082 0.43942 0.39135 0.0
H3009 H 0.75179 0.46369 0.33992 0.0
H3010 H 0.73312 0.46374 0.40248 0.0
H3011 H 0.73437 0.48821 0.35113 0.0
H3012 H 0.67958 0.50783 0.37131 0.0
H3013 H 0.70352 0.48993 0.35983 0.0
H3014 H 0.73125 0.49517 0.40923 0.0
H3015 H 0.70708 0.51286 0.42085 0.0
C3016 C 0.74757 0.45014 0.38254 0.0
C3017 C 0.75246 0.44956 0.36474 0.0
C3018 C 0.73753 0.46414 0.38893 0.0
C3019 C 0.73223 0.47782 0.37763 0.0
C3020 C 0.73803 0.47772 0.36007 0.0
C3021 C 0.74805 0.46372 0.35368 0.0
C3022 C 0.69094 0.50545 0.3796 0.0
C3023 C 0.69138 0.51154 0.39703 0.0
C3024 C 0.70472 0.49528 0.37299 0.0
C3025 C 0.71921 0.49101 0.38369 0.0
C3026 C 0.72013 0.49803 0.40078 0.0
C3027 C 0.70634 0.50823 0.40738 0.0
H3028 H 0.58353 0.36733 0.22946 0.0
H3029 H 0.5395 0.34526 0.25788 0.0
H3030 H 0.56323 0.38031 0.20813 0.0
H3031 H 0.51923 0.35824 0.23656 0.0
H3032 H 0.48949 0.40123 0.20483 0.0
H3033 H 0.50928 0.38832 0.22665 0.0
H3034 H 0.54244 0.36859 0.18489 0.0
H3035 H 0.52266 0.38148 0.16305 0.0
C3036 C 0.56952 0.36538 0.23122 0.0
C3037 C 0.56308 0.3553 0.24531 0.0
C3038 C 0.55793 0.37268 0.21895 0.0
C3039 C 0.53968 0.37017 0.22066 0.0
C3040 C 0.53323 0.36044 0.23499 0.0
C3041 C 0.54482 0.353 0.24716 0.0
C3042 C 0.50094 0.39402 0.20032 0.0
C3043 C 0.50455 0.39234 0.18226 0.0
C3044 C 0.51223 0.38662 0.2128 0.0
C3045 C 0.52743 0.37757 0.20744 0.0
C3046 C 0.53092 0.3757 0.18937 0.0
C3047 C 0.51953 0.38294 0.17689 0.0
H3048 H 0.11462 0.74415 0.06439 0.0
H3049 H 0.16559 0.74089 0.03938 0.0
H3050 H 0.10375 0.76178 0.03996 0.0
H3051 H 0.15461 0.75836 0.01473 0.0
H3052 H 0.13597 0.81431 0.99607 0.0
H3053 H 0.14694 0.78976 0.01347 0.0
H3054 H 0.09669 0.76363 0.00844 0.0
H3055 H 0.0856 0.7884 0.9912 0.0
C3056 C 0.12338 0.74687 0.05347 0.0
C3057 C 0.14101 0.74137 0.05388 0.0
C3058 C 0.11712 0.75686 0.0394 0.0
C3059 C 0.12838 0.76157 0.0255 0.0
C3060 C 0.14571 0.75512 0.02539 0.0
C3061 C 0.15196 0.74507 0.03945 0.0
C3062 C 0.12737 0.80318 0.9984 0.0
C3063 C 0.10987 0.80335 0.99251 0.0
C3064 C 0.1337 0.78905 0.00825 0.0
C3065 C 0.12262 0.77483 0.01242 0.0
C3066 C 0.10544 0.77452 0.0056 0.0
C3067 C 0.09912 0.78866 0.9957 0.0
H3068 H 0.3658 0.18641 0.49008 0.0
H3069 H 0.41667 0.21123 0.48472 0.0
H3070 H 0.35569 0.21096 0.50801 0.0
H3071 H 0.40645 0.23597 0.50249 0.0
H3072 H 0.3903 0.25401 0.55955 0.0
H3073 H 0.40019 0.23703 0.53426 0.0
H3074 H 0.34887 0.24252 0.51037 0.0
H3075 H 0.33888 0.25936 0.53586 0.0
C3076 C 0.37467 0.19733 0.49237 0.0
C3077 C 0.39208 0.19681 0.48623 0.0
C3078 C 0.36885 0.21146 0.50255 0.0
C3079 C 0.38035 0.22531 0.5068 0.0
C3080 C 0.39739 0.22535 0.49962 0.0
C3081 C 0.4032 0.21123 0.48939 0.0
C3082 C 0.38124 0.25191 0.54874 0.0
C3083 C 0.36377 0.25779 0.54977 0.0
C3084 C 0.38694 0.24228 0.53418 0.0
C3085 C 0.37525 0.23832 0.52039 0.0
C3086 C 0.35809 0.2452 0.52091 0.0
C3087 C 0.35241 0.25488 0.53546 0.0
H3088 H 0.17568 0.49796 0.36907 0.0
H3089 H 0.2018 0.49522 0.41953 0.0
H3090 H 0.19997 0.51543 0.35746 0.0
H3091 H 0.22626 0.51237 0.40782 0.0
H3092 H 0.24947 0.56526 0.38748 0.0
H3093 H 0.22953 0.5431 0.39919 0.0
H3094 H 0.23128 0.51527 0.34961 0.0
H3095 H 0.25103 0.53767 0.33777 0.0
C3096 C 0.18673 0.50088 0.37759 0.0
C3097 C 0.18679 0.49541 0.39523 0.0
C3098 C 0.20071 0.51076 0.37091 0.0
C3099 C 0.21499 0.51533 0.38177 0.0
C3100 C 0.21532 0.50926 0.39923 0.0
C3101 C 0.20135 0.4994 0.4059 0.0
C3102 C 0.24582 0.55426 0.37918 0.0
C3103 C 0.25166 0.55326 0.36169 0.0
C3104 C 0.23447 0.54151 0.38591 0.0
C3105 C 0.22874 0.52751 0.37527 0.0
C3106 C 0.23528 0.52605 0.35803 0.0
C3107 C 0.24666 0.53881 0.3513 0.0
H3108 H 0.208 0.5098 0.10077 0.0
H3109 H 0.16601 0.47539 0.11766 0.0
H3110 H 0.22964 0.4893 0.11276 0.0
H3111 H 0.18766 0.45495 0.12976 0.0
H3112 H 0.23157 0.41377 0.1301 0.0
H3113 H 0.21072 0.43485 0.11772 0.0
H3114 H 0.23956 0.47753 0.14175 0.0
H3115 H 0.2605 0.45647 0.15403 0.0
C3116 C 0.2034 0.49793 0.10718 0.0
C3117 C 0.18533 0.49417 0.10828 0.0
C3118 C 0.21578 0.48623 0.11407 0.0
C3119 C 0.21033 0.47049 0.12208 0.0
C3120 C 0.19224 0.46687 0.12343 0.0
C3121 C 0.17985 0.47863 0.11664 0.0
C3122 C 0.23355 0.42767 0.13259 0.0
C3123 C 0.24763 0.4335 0.14304 0.0
C3124 C 0.22154 0.43971 0.12564 0.0
C3125 C 0.22345 0.4578 0.12891 0.0
C3126 C 0.23782 0.46367 0.13894 0.0
C3127 C 0.24978 0.45162 0.14599 0.0
H3128 H 0.30182 0.49055 0.91611 0.0
H3129 H 0.32868 0.49374 0.86607 0.0
H3130 H 0.27995 0.47098 0.90318 0.0
H3131 H 0.30685 0.47397 0.85316 0.0
H3132 H 0.25431 0.45352 0.83215 0.0
H3133 H 0.27523 0.47389 0.84541 0.0
H3134 H 0.27844 0.44065 0.89144 0.0
H3135 H 0.25731 0.42031 0.87823 0.0
C3136 C 0.30304 0.48708 0.90233 0.0
C3137 C 0.31694 0.49367 0.89207 0.0
C3138 C 0.29057 0.47578 0.89497 0.0
C3139 C 0.2917 0.47092 0.87718 0.0
C3140 C 0.30554 0.47764 0.86687 0.0
C3141 C 0.31807 0.48888 0.87427 0.0
C3142 C 0.2594 0.45061 0.84515 0.0
C3143 C 0.25419 0.43533 0.85417 0.0
C3144 C 0.27147 0.46221 0.85267 0.0
C3145 C 0.27854 0.45881 0.86941 0.0
C3146 C 0.2731 0.44368 0.87857 0.0
C3147 C 0.26105 0.43202 0.871 0.0
H3148 H 0.31926 0.49794 0.63915 0.0
H3149 H 0.29303 0.48841 0.58959 0.0
H3150 H 0.29407 0.51511 0.64915 0.0
H3151 H 0.26775 0.50547 0.59967 0.0
H3152 H 0.2459 0.56166 0.61412 0.0
H3153 H 0.26486 0.53758 0.60471 0.0
H3154 H 0.2623 0.51506 0.65687 0.0
H3155 H 0.2434 0.53926 0.66635 0.0
C3156 C 0.30796 0.4992 0.63055 0.0
C3157 C 0.30818 0.49203 0.61353 0.0
C3158 C 0.29348 0.50894 0.63631 0.0
C3159 C 0.279 0.51173 0.62513 0.0
C3160 C 0.27883 0.5037 0.60848 0.0
C3161 C 0.29327 0.49389 0.60275 0.0
C3162 C 0.24908 0.55137 0.62347 0.0
C3163 C 0.24335 0.55243 0.641 0.0
C3164 C 0.25986 0.53752 0.61806 0.0
C3165 C 0.26517 0.52452 0.63011 0.0
C3166 C 0.25857 0.52502 0.64738 0.0
C3167 C 0.2477 0.53883 0.65276 0.0
H3168 H 0.02078 0.13227 0.39705 0.0
H3169 H 0.05435 0.08826 0.40995 0.0
H3170 H 0.02187 0.14207 0.42767 0.0
H3171 H 0.05593 0.09828 0.44031 0.0
H3172 H 0.0456 0.1099 0.49632 0.0
H3173 H 0.03856 0.10059 0.46642 0.0
H3174 H 0.04145 0.15464 0.44893 0.0
H3175 H 0.04784 0.16396 0.47891 0.0
C3176 C 0.02857 0.12483 0.40639 0.0
C3177 C 0.0375 0.10952 0.40112 0.0
C3178 C 0.02918 0.13042 0.42393 0.0
C3179 C 0.0388 0.12085 0.43654 0.0
C3180 C 0.048 0.10573 0.4311 0.0
C3181 C 0.0473 0.10009 0.41363 0.0
C3182 C 0.04423 0.11983 0.48617 0.0
C3183 C 0.04742 0.13763 0.48992 0.0
C3184 C 0.04042 0.11449 0.46899 0.0
C3185 C 0.03988 0.12682 0.45517 0.0
C3186 C 0.04173 0.14478 0.45921 0.0
C3187 C 0.0454 0.15013 0.47643 0.0
H3188 H 0.12597 0.78647 0.7442 0.0
H3189 H 0.08962 0.81945 0.71558 0.0
H3190 H 0.13599 0.77352 0.7163 0.0
H3191 H 0.09942 0.80658 0.68796 0.0
H3192 H 0.11438 0.77516 0.6406 0.0
H3193 H 0.10149 0.77928 0.6698 0.0
H3194 H 0.15335 0.78763 0.69152 0.0
H3195 H 0.16623 0.78345 0.66239 0.0
C3196 C 0.1198 0.79056 0.73201 0.0
C3197 C 0.10713 0.804 0.73195 0.0
C3198 C 0.1256 0.78327 0.71608 0.0
C3199 C 0.11854 0.78911 0.69997 0.0
C3200 C 0.105 0.80168 0.70014 0.0
C3201 C 0.09945 0.80913 0.71595 0.0
C3202 C 0.12303 0.77767 0.65165 0.0
C3203 C 0.14128 0.77923 0.6492 0.0
C3204 C 0.11566 0.78001 0.66835 0.0
C3205 C 0.12642 0.78379 0.68292 0.0
C3206 C 0.14474 0.78451 0.68058 0.0
C3207 C 0.1521 0.78231 0.66387 0.0
H3208 H 0.45837 0.86595 0.98541 0.0
H3209 H 0.40786 0.85688 0.96089 0.0
H3210 H 0.46968 0.87752 0.9573 0.0
H3211 H 0.41906 0.86829 0.93325 0.0
H3212 H 0.43556 0.91443 0.8988 0.0
H3213 H 0.42783 0.90012 0.92635 0.0
H3214 H 0.47491 0.86846 0.92345 0.0
H3215 H 0.48275 0.88286 0.89551 0.0
C3216 C 0.44981 0.86616 0.97401 0.0
C3217 C 0.43217 0.86076 0.9754 0.0
C3218 C 0.45627 0.87273 0.95797 0.0
C3219 C 0.44512 0.87402 0.94324 0.0
C3220 C 0.42783 0.86772 0.94449 0.0
C3221 C 0.42144 0.86116 0.96034 0.0
C3222 C 0.44431 0.90444 0.90398 0.0
C3223 C 0.45969 0.89967 0.89493 0.0
C3224 C 0.43985 0.89621 0.91974 0.0
C3225 C 0.45072 0.88311 0.92693 0.0
C3226 C 0.46635 0.87856 0.91816 0.0
C3227 C 0.47075 0.8867 0.90218 0.0
H3228 H 0.33776 0.19543 0.15454 0.0
H3229 H 0.36972 0.2417 0.14621 0.0
H3230 H 0.34813 0.19357 0.18469 0.0
H3231 H 0.38015 0.23985 0.17678 0.0
H3232 H 0.4084 0.21066 0.22548 0.0
H3233 H 0.3983 0.21952 0.19618 0.0
H3234 H 0.3445 0.21058 0.21217 0.0
H3235 H 0.35457 0.20144 0.24119 0.0
C3236 C 0.34704 0.20522 0.15915 0.0
C3237 C 0.35289 0.21873 0.14801 0.0
C3238 C 0.35285 0.20425 0.17651 0.0
C3239 C 0.3647 0.21676 0.18321 0.0
C3240 C 0.37095 0.23008 0.17198 0.0
C3241 C 0.36501 0.23112 0.15452 0.0
C3242 C 0.39439 0.21116 0.22289 0.0
C3243 C 0.38227 0.20513 0.2355 0.0
C3244 C 0.38862 0.2162 0.2061 0.0
C3245 C 0.37065 0.21531 0.20177 0.0
C3246 C 0.35847 0.21097 0.215 0.0
C3247 C 0.36422 0.20587 0.23167 0.0
H3248 H 0.03448 0.91936 0.08407 0.0
H3249 H 0.0266 0.86849 0.10818 0.0
H3250 H 0.03876 0.90526 0.05556 0.0
H3251 H 0.03097 0.85433 0.07955 0.0
H3252 H 0.07209 0.84182 0.03419 0.0
H3253 H 0.05876 0.85219 0.06142 0.0
H3254 H 0.02457 0.8865 0.03167 0.0
H3255 H 0.03793 0.87591 0.0042 0.0
C3256 C 0.03343 0.90517 0.08322 0.0
C3257 C 0.03042 0.89499 0.09836 0.0
C3258 C 0.03571 0.89712 0.06686 0.0
C3259 C 0.0352 0.87871 0.06535 0.0
C3260 C 0.03149 0.86855 0.08038 0.0
C3261 C 0.029 0.87664 0.09673 0.0
C3262 C 0.06143 0.85127 0.03344 0.0
C3263 C 0.0561 0.85819 0.01715 0.0
C3264 C 0.05372 0.85712 0.04903 0.0
C3265 C 0.0407 0.87022 0.04866 0.0
C3266 C 0.03466 0.87645 0.03229 0.0
C3267 C 0.04221 0.87035 0.01661 0.0
H3268 H 0.39057 0.77773 0.35641 0.0
H3269 H 0.3382 0.78022 0.33443 0.0
H3270 H 0.40302 0.7831 0.32721 0.0
H3271 H 0.35064 0.78561 0.30531 0.0
H3272 H 0.37873 0.78675 0.25265 0.0
H3273 H 0.36967 0.77325 0.28065 0.0
H3274 H 0.40196 0.81052 0.30892 0.0
H3275 H 0.4108 0.82392 0.28123 0.0
C3276 C 0.38174 0.7792 0.34531 0.0
C3277 C 0.36342 0.77879 0.34771 0.0
C3278 C 0.38886 0.78226 0.32862 0.0
C3279 C 0.37779 0.7848 0.314 0.0
C3280 C 0.35949 0.78351 0.31628 0.0
C3281 C 0.35238 0.7806 0.33299 0.0
C3282 C 0.38414 0.79172 0.26486 0.0
C3283 C 0.39533 0.80641 0.26486 0.0
C3284 C 0.37891 0.7841 0.28084 0.0
C3285 C 0.38509 0.79088 0.29695 0.0
C3286 C 0.39712 0.80489 0.29675 0.0
C3287 C 0.40208 0.81263 0.28089 0.0
H3288 H 0.46314 0.12572 0.50256 0.0
H3289 H 0.42655 0.16004 0.52924 0.0
H3290 H 0.47616 0.11766 0.53106 0.0
H3291 H 0.43944 0.15214 0.55744 0.0
H3292 H 0.46829 0.08858 0.58576 0.0
H3293 H 0.46339 0.10004 0.55618 0.0
H3294 H 0.46628 0.15313 0.57626 0.0
H3295 H 0.47114 0.14163 0.60596 0.0
C3296 C 0.45819 0.13184 0.51445 0.0
C3297 C 0.44378 0.14337 0.51377 0.0
C3298 C 0.46554 0.12717 0.53073 0.0
C3299 C 0.45876 0.13423 0.54648 0.0
C3300 C 0.44508 0.14661 0.54557 0.0
C3301 C 0.43761 0.15104 0.52942 0.0
C3302 C 0.46809 0.1027 0.58383 0.0
C3303 C 0.46987 0.11422 0.59819 0.0
C3304 C 0.46547 0.10926 0.56686 0.0
C3305 C 0.46444 0.12748 0.56391 0.0
C3306 C 0.46691 0.13902 0.57817 0.0
C3307 C 0.46968 0.13245 0.59515 0.0
H3308 H 0.13398 0.21428 0.7552 0.0
H3309 H 0.08265 0.2013 0.77582 0.0
H3310 H 0.14307 0.22444 0.78424 0.0
H3311 H 0.09191 0.21066 0.80499 0.0
H3312 H 0.1123 0.23262 0.85646 0.0
H3313 H 0.10154 0.23177 0.82611 0.0
H3314 H 0.15057 0.20802 0.80963 0.0
H3315 H 0.1614 0.20947 0.83962 0.0
C3316 C 0.12451 0.21398 0.76586 0.0
C3317 C 0.1077 0.2068 0.76331 0.0
C3318 C 0.12977 0.2196 0.78256 0.0
C3319 C 0.1184 0.21788 0.79709 0.0
C3320 C 0.10103 0.2122 0.79415 0.0
C3321 C 0.0957 0.20681 0.77739 0.0
C3322 C 0.12075 0.2273 0.84628 0.0
C3323 C 0.13765 0.22104 0.8504 0.0
C3324 C 0.1146 0.22681 0.82891 0.0
C3325 C 0.12521 0.21995 0.81535 0.0
C3326 C 0.14216 0.2138 0.81958 0.0
C3327 C 0.14832 0.21442 0.83685 0.0
H3328 H 0.49618 0.03417 0.10852 0.0
H3329 H 0.47594 0.04562 0.16039 0.0
H3330 H 0.46707 0.02431 0.09934 0.0
H3331 H 0.44672 0.03656 0.15107 0.0
H3332 H 0.39501 0.0158 0.13056 0.0
H3333 H 0.42549 0.01583 0.14093 0.0
H3334 H 0.44167 0.04109 0.09254 0.0
H3335 H 0.41153 0.04048 0.08208 0.0
C3336 C 0.48559 0.03418 0.11808 0.0
C3337 C 0.48826 0.04088 0.13508 0.0
C3338 C 0.46886 0.02874 0.11278 0.0
C3339 C 0.45441 0.03013 0.1243 0.0
C3340 C 0.45749 0.03528 0.14182 0.0
C3341 C 0.47428 0.04051 0.14719 0.0
C3342 C 0.40516 0.02125 0.12215 0.0
C3343 C 0.4009 0.02823 0.10556 0.0
C3344 C 0.4226 0.02127 0.12808 0.0
C3345 C 0.43611 0.02836 0.11756 0.0
C3346 C 0.43176 0.03513 0.10087 0.0
C3347 C 0.4144 0.03499 0.09492 0.0
H3348 H 0.22308 0.13901 0.38751 0.0
H3349 H 0.2208 0.16145 0.33529 0.0
H3350 H 0.21842 0.1682 0.40021 0.0
H3351 H 0.21606 0.19055 0.34799 0.0
H3352 H 0.21467 0.2429 0.37601 0.0
H3353 H 0.22847 0.215 0.36715 0.0
H3354 H 0.19119 0.18655 0.39931 0.0
H3355 H 0.17752 0.21413 0.40794 0.0
C3356 C 0.2218 0.1502 0.37877 0.0
C3357 C 0.22203 0.14795 0.36042 0.0
C3358 C 0.21917 0.16689 0.38603 0.0
C3359 C 0.21685 0.18162 0.37508 0.0
C3360 C 0.21802 0.17948 0.35675 0.0
C3361 C 0.22053 0.16278 0.34949 0.0
C3362 C 0.20979 0.23067 0.38147 0.0
C3363 C 0.19498 0.23056 0.3925 0.0
C3364 C 0.21758 0.21475 0.37635 0.0
C3365 C 0.21085 0.19862 0.3825 0.0
C3366 C 0.1968 0.19874 0.39449 0.0
C3367 C 0.18888 0.21453 0.39933 0.0
H3368 H 0.03356 0.9201 0.65456 0.0
H3369 H 0.00535 0.95973 0.62516 0.0
H3370 H 0.06139 0.93346 0.64614 0.0
H3371 H 0.03348 0.97317 0.61653 0.0
H3372 H 0.08698 0.96755 0.58435 0.0
H3373 H 0.05787 0.96154 0.59653 0.0
H3374 H 0.07992 0.96069 0.64892 0.0
H3375 H 0.10909 0.96669 0.63674 0.0
C3376 C 0.03333 0.93188 0.64652 0.0
C3377 C 0.01735 0.93884 0.6404 0.0
C3378 C 0.04927 0.93959 0.64179 0.0
C3379 C 0.04959 0.95432 0.63065 0.0
C3380 C 0.03356 0.96176 0.62508 0.0
C3381 C 0.01752 0.95416 0.63007 0.0
C3382 C 0.08558 0.96628 0.59848 0.0
C3383 C 0.10032 0.96735 0.60959 0.0
C3384 C 0.06888 0.96302 0.60546 0.0
C3385 C 0.06666 0.96062 0.62366 0.0
C3386 C 0.0813 0.96238 0.63482 0.0
C3387 C 0.09797 0.9658 0.62786 0.0
H3388 H 0.32085 0.78235 0.90401 0.0
H3389 H 0.28403 0.75361 0.87167 0.0
H3390 H 0.3071 0.80989 0.89549 0.0
H3391 H 0.27006 0.78147 0.86304 0.0
H3392 H 0.27586 0.85766 0.88372 0.0
H3393 H 0.28059 0.82846 0.89636 0.0
H3394 H 0.28118 0.80599 0.84413 0.0
H3395 H 0.27626 0.83508 0.83153 0.0
C3396 C 0.30954 0.78193 0.89534 0.0
C3397 C 0.30358 0.76589 0.88837 0.0
C3398 C 0.30156 0.79772 0.89055 0.0
C3399 C 0.28753 0.79788 0.87853 0.0
C3400 C 0.28094 0.78174 0.87224 0.0
C3401 C 0.28883 0.76582 0.87725 0.0
C3402 C 0.27671 0.84643 0.87497 0.0
C3403 C 0.27595 0.84867 0.85663 0.0
C3404 C 0.27943 0.82973 0.8822 0.0
C3405 C 0.28137 0.81494 0.87123 0.0
C3406 C 0.27956 0.81707 0.85295 0.0
C3407 C 0.27691 0.83378 0.84572 0.0
H3408 H 0.49426 0.96172 0.37642 0.0
H3409 H 0.46509 0.93013 0.3393 0.0
H3410 H 0.46687 0.97627 0.38542 0.0
H3411 H 0.43794 0.9445 0.34819 0.0
H3412 H 0.39093 0.97564 0.36354 0.0
H3413 H 0.42013 0.97164 0.35058 0.0
H3414 H 0.44192 0.96322 0.40243 0.0
H3415 H 0.41287 0.96735 0.41535 0.0
C3416 C 0.4821 0.95831 0.36981 0.0
C3417 C 0.4817 0.94472 0.35731 0.0
C3418 C 0.46644 0.96652 0.37503 0.0
C3419 C 0.45024 0.9614 0.36763 0.0
C3420 C 0.45018 0.94885 0.35406 0.0
C3421 C 0.46573 0.94054 0.34903 0.0
C3422 C 0.40202 0.9732 0.37216 0.0
C3423 C 0.39961 0.97154 0.39042 0.0
C3424 C 0.41872 0.97093 0.36475 0.0
C3425 C 0.4333 0.96708 0.37548 0.0
C3426 C 0.431 0.9664 0.39382 0.0
C3427 C 0.41432 0.96856 0.40121 0.0
H3428 H 0.28512 0.13777 0.60925 0.0
H3429 H 0.28472 0.1616 0.66088 0.0
H3430 H 0.29093 0.16657 0.59605 0.0
H3431 H 0.29053 0.19027 0.64773 0.0
H3432 H 0.29189 0.24184 0.61863 0.0
H3433 H 0.27842 0.21383 0.62747 0.0
H3434 H 0.31778 0.18564 0.59766 0.0
H3435 H 0.33115 0.21339 0.58898 0.0
C3436 C 0.28611 0.14917 0.61774 0.0
C3437 C 0.2847 0.14744 0.63609 0.0
C3438 C 0.2894 0.16563 0.6102 0.0
C3439 C 0.29114 0.18064 0.62087 0.0
C3440 C 0.28901 0.17898 0.63916 0.0
C3441 C 0.28589 0.16253 0.6467 0.0
C3442 C 0.29734 0.22964 0.61366 0.0
C3443 C 0.31261 0.2297 0.60328 0.0
C3444 C 0.28973 0.21366 0.61878 0.0
C3445 C 0.29713 0.19758 0.61332 0.0
C3446 C 0.31169 0.19779 0.60195 0.0
C3447 C 0.31941 0.21368 0.59708 0.0
H3448 H 0.08925 0.03737 0.91334 0.0
H3449 H 0.10639 0.0138 0.86453 0.0
H3450 H 0.05917 0.03768 0.90276 0.0
H3451 H 0.07593 0.01362 0.85399 0.0
H3452 H 0.02459 0.04316 0.83544 0.0
H3453 H 0.05405 0.0343 0.8443 0.0
H3454 H 0.03426 0.02013 0.89574 0.0
H3455 H 0.00491 0.02973 0.88704 0.0
C3456 C 0.08654 0.03208 0.90037 0.0
C3457 C 0.1002 0.02566 0.88972 0.0
C3458 C 0.06921 0.03205 0.89437 0.0
C3459 C 0.06502 0.02548 0.87757 0.0
C3460 C 0.07869 0.01885 0.86695 0.0
C3461 C 0.09613 0.01895 0.87298 0.0
C3462 C 0.02642 0.03763 0.84845 0.0
C3463 C 0.01252 0.03741 0.86065 0.0
C3464 C 0.04336 0.03253 0.85356 0.0
C3465 C 0.04664 0.02695 0.8709 0.0
C3466 C 0.03229 0.0249 0.88244 0.0
C3467 C 0.01542 0.0302 0.87741 0.0
H3468 H 0.22003 0.83691 0.16499 0.0
H3469 H 0.22119 0.85919 0.11268 0.0
H3470 H 0.21436 0.80787 0.15252 0.0
H3471 H 0.21548 0.83007 0.1002 0.0
H3472 H 0.17466 0.78384 0.09333 0.0
H3473 H 0.18805 0.81159 0.10199 0.0
H3474 H 0.22657 0.78346 0.13291 0.0
H3475 H 0.21312 0.75542 0.12403 0.0
C3476 C 0.21929 0.83555 0.15081 0.0
C3477 C 0.22083 0.85033 0.1398 0.0
C3478 C 0.21622 0.8189 0.14367 0.0
C3479 C 0.21447 0.81672 0.1254 0.0
C3480 C 0.21669 0.8314 0.11434 0.0
C3481 C 0.21994 0.84805 0.12148 0.0
C3482 C 0.18621 0.78355 0.10171 0.0
C3483 C 0.19281 0.76753 0.10813 0.0
C3484 C 0.19394 0.79944 0.10657 0.0
C3485 C 0.20831 0.79969 0.11816 0.0
C3486 C 0.21544 0.78361 0.12401 0.0
C3487 C 0.20783 0.76761 0.11888 0.0
H3488 H 0.08598 0.41457 0.03719 0.0
H3489 H 0.13505 0.39576 0.0155 0.0
H3490 H 0.09773 0.44419 0.03838 0.0
H3491 H 0.14679 0.42575 0.01619 0.0
H3492 H 0.16625 0.47472 0.04884 0.0
H3493 H 0.1564 0.44622 0.03822 0.0
H3494 H 0.10697 0.46933 0.0221 0.0
H3495 H 0.11662 0.49775 0.03342 0.0
C3496 C 0.09924 0.41683 0.03246 0.0
C3497 C 0.10965 0.40282 0.0264 0.0
C3498 C 0.10593 0.43389 0.03293 0.0
C3499 C 0.12319 0.43745 0.02725 0.0
C3500 C 0.13349 0.42347 0.02078 0.0
C3501 C 0.12678 0.4063 0.02037 0.0
C3502 C 0.15349 0.47384 0.04254 0.0
C3503 C 0.14206 0.48838 0.04226 0.0
C3504 C 0.14783 0.45746 0.03641 0.0
C3505 C 0.1307 0.45536 0.02972 0.0
C3506 C 0.12005 0.47038 0.02766 0.0
C3507 C 0.12564 0.48672 0.03397 0.0
H3508 H 0.66178 0.01634 0.95778 0.0
H3509 H 0.60654 0.00468 0.95136 0.0
H3510 H 0.65425 0.04512 0.97005 0.0
H3511 H 0.59901 0.03342 0.963 0.0
H3512 H 0.58763 0.08363 0.9898 0.0
H3513 H 0.59799 0.05346 0.98678 0.0
H3514 H 0.6432 0.072 0.95761 0.0
H3515 H 0.63311 0.10227 0.96129 0.0
C3516 C 0.64803 0.01977 0.95935 0.0
C3517 C 0.63475 0.00832 0.9535 0.0
C3518 C 0.64371 0.03632 0.9662 0.0
C3519 C 0.62603 0.04173 0.96731 0.0
C3520 C 0.61277 0.02972 0.96254 0.0
C3521 C 0.61708 0.01321 0.95577 0.0
C3522 C 0.59992 0.08126 0.98296 0.0
C3523 C 0.60947 0.09526 0.97559 0.0
C3524 C 0.60583 0.06396 0.98117 0.0
C3525 C 0.62132 0.06022 0.97175 0.0
C3526 C 0.63131 0.07436 0.96511 0.0
C3527 C 0.62549 0.09172 0.96709 0.0
H3528 H 0.14677 0.38683 0.23513 0.0
H3529 H 0.16302 0.33784 0.21135 0.0
H3530 H 0.17727 0.39724 0.23437 0.0
H3531 H 0.19313 0.34828 0.21011 0.0
H3532 H 0.24769 0.36387 0.21679 0.0
H3533 H 0.21853 0.35531 0.22705 0.0
H3534 H 0.19855 0.40667 0.21294 0.0
H3535 H 0.22784 0.4154 0.20339 0.0
C3536 C 0.15685 0.37831 0.22973 0.0
C3537 C 0.15252 0.36156 0.22324 0.0
C3538 C 0.1743 0.38426 0.22929 0.0
C3539 C 0.18772 0.37355 0.22233 0.0
C3540 C 0.18328 0.35674 0.21598 0.0
C3541 C 0.16593 0.35081 0.21648 0.0
C3542 C 0.23719 0.37351 0.21646 0.0
C3543 C 0.23998 0.39021 0.20908 0.0
C3544 C 0.22042 0.36856 0.22214 0.0
C3545 C 0.20607 0.38013 0.22033 0.0
C3546 C 0.20926 0.39741 0.21453 0.0
C3547 C 0.22609 0.40243 0.20904 0.0
H3548 H 0.91296 0.91089 0.4668 0.0
H3549 H 0.8606 0.88881 0.46813 0.0
H3550 H 0.90056 0.94009 0.46187 0.0
H3551 H 0.84817 0.9181 0.4632 0.0
H3552 H 0.84141 0.96481 0.42278 0.0
H3553 H 0.8496 0.93691 0.43615 0.0
H3554 H 0.88139 0.96445 0.47438 0.0
H3555 H 0.87301 0.99264 0.46092 0.0
C3556 C 0.89879 0.91233 0.46627 0.0
C3557 C 0.88774 0.89756 0.46761 0.0
C3558 C 0.89168 0.92907 0.46363 0.0
C3559 C 0.8734 0.93136 0.46214 0.0
C3560 C 0.86232 0.91669 0.46422 0.0
C3561 C 0.86942 0.89995 0.46702 0.0
C3562 C 0.84983 0.96494 0.43429 0.0
C3563 C 0.8567 0.98082 0.44077 0.0
C3564 C 0.85444 0.94897 0.44202 0.0
C3565 C 0.8662 0.9485 0.45625 0.0
C3566 C 0.87237 0.96446 0.46335 0.0
C3567 C 0.86751 0.98055 0.45574 0.0
H3568 H 0.83511 0.16602 0.20671 0.0
H3569 H 0.85378 0.11927 0.23313 0.0
H3570 H 0.80545 0.15422 0.20657 0.0
H3571 H 0.82377 0.10746 0.2333 0.0
H3572 H 0.77394 0.08605 0.20234 0.0
H3573 H 0.80284 0.0962 0.21171 0.0
H3574 H 0.78069 0.14684 0.22507 0.0
H3575 H 0.75186 0.13683 0.21516 0.0
C3576 C 0.83284 0.15324 0.21262 0.0
C3577 C 0.84679 0.14352 0.21982 0.0
C3578 C 0.81577 0.14656 0.21275 0.0
C3579 C 0.81217 0.12997 0.22012 0.0
C3580 C 0.82612 0.12026 0.22749 0.0
C3581 C 0.84328 0.127 0.22738 0.0
C3582 C 0.77512 0.09915 0.20784 0.0
C3583 C 0.76072 0.11077 0.2077 0.0
C3584 C 0.79172 0.10498 0.21322 0.0
C3585 C 0.79416 0.12249 0.21868 0.0
C3586 C 0.77932 0.13342 0.22044 0.0
C3587 C 0.76277 0.12764 0.21494 0.0
H3588 H 0.4102 0.586 0.51322 0.0
H3589 H 0.3704 0.60809 0.54711 0.0
H3590 H 0.39819 0.55667 0.51802 0.0
H3591 H 0.35919 0.57884 0.55324 0.0
H3592 H 0.33655 0.5264 0.55972 0.0
H3593 H 0.34446 0.5541 0.54571 0.0
H3594 H 0.39758 0.53472 0.53831 0.0
H3595 H 0.38893 0.50658 0.55085 0.0
C3596 C 0.39888 0.5845 0.52176 0.0
C3597 C 0.39123 0.59921 0.52986 0.0
C3598 C 0.39204 0.56767 0.52466 0.0
C3599 C 0.37774 0.56512 0.53619 0.0
C3600 C 0.36992 0.58007 0.54396 0.0
C3601 C 0.37644 0.59693 0.54061 0.0
C3602 C 0.34973 0.52799 0.55451 0.0
C3603 C 0.36215 0.51448 0.55625 0.0
C3604 C 0.35441 0.54396 0.54674 0.0
C3605 C 0.37185 0.54704 0.54122 0.0
C3606 C 0.38398 0.53299 0.54214 0.0
C3607 C 0.37909 0.5168 0.54937 0.0
H3608 H 0.24364 0.61945 0.28681 0.0
H3609 H 0.2149 0.59084 0.32661 0.0
H3610 H 0.21564 0.62808 0.27298 0.0
H3611 H 0.18723 0.59914 0.31282 0.0
H3612 H 0.13973 0.60867 0.27955 0.0
H3613 H 0.16891 0.59623 0.28508 0.0
H3614 H 0.19123 0.64848 0.28499 0.0
H3615 H 0.1621 0.66092 0.27952 0.0
C3616 C 0.23138 0.61467 0.2923 0.0
C3617 C 0.23133 0.60462 0.30779 0.0
C3618 C 0.21541 0.61965 0.28448 0.0
C3619 C 0.19929 0.61427 0.29186 0.0
C3620 C 0.19942 0.60333 0.30673 0.0
C3621 C 0.21526 0.59868 0.31469 0.0
C3622 C 0.15091 0.61746 0.28046 0.0
C3623 C 0.14863 0.63577 0.27935 0.0
C3624 C 0.16759 0.61035 0.2836 0.0
C3625 C 0.1823 0.6214 0.28548 0.0
C3626 C 0.18015 0.63964 0.2834 0.0
C3627 C 0.16346 0.64676 0.28046 0.0
H3628 H 0.27164 0.40889 0.79136 0.0
H3629 H 0.25156 0.35579 0.78977 0.0
H3630 H 0.30039 0.39839 0.78212 0.0
H3631 H 0.28011 0.34527 0.77959 0.0
H3632 H 0.3371 0.33047 0.79246 0.0
H3633 H 0.30689 0.34071 0.79422 0.0
H3634 H 0.32028 0.38578 0.7621 0.0
H3635 H 0.35082 0.37581 0.7611 0.0
C3636 C 0.2732 0.39504 0.78836 0.0
C3637 C 0.25945 0.38311 0.79151 0.0
C3638 C 0.28973 0.38898 0.78303 0.0
C3639 C 0.29276 0.37088 0.78049 0.0
C3640 C 0.27844 0.35922 0.78197 0.0
C3641 C 0.262 0.36525 0.78758 0.0
C3642 C 0.33357 0.34253 0.78573 0.0
C3643 C 0.34633 0.35242 0.77679 0.0
C3644 C 0.31616 0.34834 0.78655 0.0
C3645 C 0.31101 0.36407 0.77821 0.0
C3646 C 0.32377 0.37374 0.76887 0.0
C3647 C 0.34127 0.36802 0.76826 0.0
H3648 H 0.96021 0.87087 0.50334 0.0
H3649 H 0.92222 0.83959 0.53175 0.0
H3650 H 0.97362 0.8798 0.53138 0.0
H3651 H 0.93551 0.84835 0.55951 0.0
H3652 H 0.96795 0.85971 0.60728 0.0
H3653 H 0.96254 0.84704 0.57818 0.0
H3654 H 0.96152 0.89921 0.55564 0.0
H3655 H 0.96697 0.91185 0.58465 0.0
C3656 C 0.95502 0.86559 0.51553 0.0
C3657 C 0.94013 0.85467 0.51545 0.0
C3658 C 0.9626 0.87076 0.53154 0.0
C3659 C 0.95556 0.86481 0.54762 0.0
C3660 C 0.94134 0.85302 0.54736 0.0
C3661 C 0.93366 0.8481 0.53146 0.0
C3662 C 0.96679 0.86843 0.59607 0.0
C3663 C 0.96765 0.88676 0.59824 0.0
C3664 C 0.9637 0.86119 0.57943 0.0
C3665 C 0.96158 0.87215 0.56466 0.0
C3666 C 0.9633 0.89043 0.56674 0.0
C3667 C 0.96624 0.89767 0.58338 0.0
H3668 H 0.88466 0.23118 0.35199 0.0
H3669 H 0.83771 0.20363 0.33563 0.0
H3670 H 0.89578 0.23006 0.3217 0.0
H3671 H 0.84881 0.20232 0.30569 0.0
H3672 H 0.8638 0.21197 0.25117 0.0
H3673 H 0.85488 0.22125 0.28055 0.0
H3674 H 0.90645 0.20794 0.30045 0.0
H3675 H 0.9155 0.19907 0.27096 0.0
C3676 C 0.87677 0.22484 0.34195 0.0
C3677 C 0.86033 0.21746 0.34617 0.0
C3678 C 0.88311 0.22423 0.32464 0.0
C3679 C 0.87307 0.21634 0.31123 0.0
C3680 C 0.8567 0.20889 0.31558 0.0
C3681 C 0.85042 0.20945 0.33281 0.0
C3682 C 0.87341 0.21159 0.26169 0.0
C3683 C 0.89026 0.20456 0.25881 0.0
C3684 C 0.86825 0.21673 0.27857 0.0
C3685 C 0.8798 0.21484 0.29292 0.0
C3686 C 0.89722 0.20951 0.28969 0.0
C3687 C 0.90242 0.20445 0.27276 0.0
H3688 H 0.51584 0.1257 0.10204 0.0
H3689 H 0.54257 0.07934 0.08287 0.0
H3690 H 0.51752 0.13877 0.07259 0.0
H3691 H 0.5444 0.09235 0.0537 0.0
H3692 H 0.55297 0.16173 0.02646 0.0
H3693 H 0.54159 0.15023 0.05411 0.0
H3694 H 0.52723 0.10181 0.02804 0.0
H3695 H 0.53893 0.11322 0.00038 0.0
C3696 C 0.52198 0.11828 0.09153 0.0
C3697 C 0.5292 0.10156 0.09477 0.0
C3698 C 0.52293 0.12575 0.07469 0.0
C3699 C 0.53098 0.11655 0.06078 0.0
C3700 C 0.5378 0.09966 0.06401 0.0
C3701 C 0.53694 0.09227 0.0808 0.0
C3702 C 0.54686 0.14885 0.02649 0.0
C3703 C 0.5471 0.13826 0.01131 0.0
C3704 C 0.5403 0.14226 0.04236 0.0
C3705 C 0.53386 0.12496 0.04335 0.0
C3706 C 0.53247 0.11506 0.02776 0.0
C3707 C 0.53901 0.12166 0.01187 0.0
H3708 H 0.61472 0.77275 0.85666 0.0
H3709 H 0.66693 0.77796 0.83475 0.0
H3710 H 0.60203 0.77803 0.82758 0.0
H3711 H 0.65424 0.78335 0.80573 0.0
H3712 H 0.62632 0.78552 0.7532 0.0
H3713 H 0.63584 0.77126 0.78066 0.0
H3714 H 0.6017 0.80579 0.81025 0.0
H3715 H 0.59238 0.8199 0.7831 0.0
C3716 C 0.62348 0.7748 0.84559 0.0
C3717 C 0.6418 0.7752 0.84799 0.0
C3718 C 0.61622 0.7778 0.82896 0.0
C3719 C 0.62715 0.78116 0.81441 0.0
C3720 C 0.64549 0.78061 0.81665 0.0
C3721 C 0.65275 0.77771 0.8333 0.0
C3722 C 0.62059 0.78968 0.76557 0.0
C3723 C 0.60874 0.80385 0.76612 0.0
C3724 C 0.62609 0.78164 0.78125 0.0
C3725 C 0.61955 0.78747 0.79758 0.0
C3726 C 0.60685 0.80087 0.79789 0.0
C3727 C 0.60159 0.80903 0.78235 0.0
H3728 H 0.96189 0.11971 0.99577 0.0
H3729 H 0.9325 0.15725 0.96485 0.0
H3730 H 0.97611 0.10887 0.9689 0.0
H3731 H 0.94648 0.14647 0.93819 0.0
H3732 H 0.97711 0.12718 0.892 0.0
H3733 H 0.97317 0.14178 0.92044 0.0
H3734 H 0.96263 0.09148 0.94476 0.0
H3735 H 0.96672 0.07695 0.9165 0.0
C3736 C 0.9589 0.126 0.98333 0.0
C3737 C 0.94599 0.13917 0.98231 0.0
C3738 C 0.96691 0.11972 0.96795 0.0
C3739 C 0.96225 0.12668 0.9514 0.0
C3740 C 0.95046 0.1409 0.95069 0.0
C3741 C 0.94237 0.14702 0.96597 0.0
C3742 C 0.97418 0.11926 0.90349 0.0
C3743 C 0.97199 0.10097 0.90201 0.0
C3744 C 0.97194 0.1276 0.91975 0.0
C3745 C 0.96758 0.11779 0.93484 0.0
C3746 C 0.96623 0.0994 0.93346 0.0
C3747 C 0.96837 0.09109 0.91721 0.0
H3748 H 0.62583 0.21314 0.74387 0.0
H3749 H 0.59331 0.17589 0.71592 0.0
H3750 H 0.63507 0.22603 0.71566 0.0
H3751 H 0.60235 0.18867 0.68801 0.0
H3752 H 0.61492 0.2201 0.63976 0.0
H3753 H 0.60201 0.21548 0.66892 0.0
H3754 H 0.65408 0.21294 0.69157 0.0
H3755 H 0.66695 0.21757 0.66252 0.0
C3756 C 0.62034 0.20803 0.73175 0.0
C3757 C 0.60899 0.19346 0.73201 0.0
C3758 C 0.62568 0.2153 0.71564 0.0
C3759 C 0.61948 0.20829 0.69964 0.0
C3760 C 0.60724 0.19448 0.70008 0.0
C3761 C 0.60215 0.18708 0.71607 0.0
C3762 C 0.62357 0.21877 0.65101 0.0
C3763 C 0.64193 0.21896 0.64885 0.0
C3764 C 0.6162 0.21614 0.66768 0.0
C3765 C 0.62704 0.21384 0.68251 0.0
C3766 C 0.64538 0.21488 0.68044 0.0
C3767 C 0.65275 0.21735 0.66377 0.0
H3768 H 0.50614 0.86729 0.40045 0.0
H3769 H 0.53294 0.91491 0.41601 0.0
H3770 H 0.50672 0.85705 0.43099 0.0
H3771 H 0.53421 0.90454 0.44609 0.0
H3772 H 0.53147 0.88849 0.50053 0.0
H3773 H 0.51954 0.89816 0.47237 0.0
H3774 H 0.52763 0.84596 0.45118 0.0
H3775 H 0.53857 0.83617 0.47962 0.0
C3776 C 0.51208 0.87558 0.4104 0.0
C3777 C 0.51959 0.89184 0.40584 0.0
C3778 C 0.51247 0.86971 0.42789 0.0
C3779 C 0.52048 0.87994 0.44111 0.0
C3780 C 0.52755 0.89642 0.43647 0.0
C3781 C 0.52702 0.90232 0.4191 0.0
C3782 C 0.53009 0.87897 0.49 0.0
C3783 C 0.53611 0.86166 0.49216 0.0
C3784 C 0.52345 0.88454 0.47379 0.0
C3785 C 0.52312 0.87301 0.45928 0.0
C3786 C 0.52763 0.85524 0.46199 0.0
C3787 C 0.53394 0.8496 0.47833 0.0
H3788 H 0.86139 0.83026 0.22523 0.0
H3789 H 0.89905 0.78821 0.23195 0.0
H3790 H 0.85175 0.81745 0.19764 0.0
H3791 H 0.88929 0.77522 0.20388 0.0
H3792 H 0.88136 0.77862 0.14097 0.0
H3793 H 0.89074 0.78532 0.17113 0.0
H3794 H 0.83636 0.79047 0.18681 0.0
H3795 H 0.82702 0.78401 0.15687 0.0
C3796 C 0.86749 0.81813 0.22085 0.0
C3797 C 0.88098 0.81022 0.23068 0.0
C3798 C 0.86188 0.81074 0.20509 0.0
C3799 C 0.86973 0.79532 0.19866 0.0
C3800 C 0.88307 0.78716 0.20858 0.0
C3801 C 0.88855 0.79448 0.22462 0.0
C3802 C 0.87145 0.781 0.15094 0.0
C3803 C 0.85349 0.78109 0.14653 0.0
C3804 C 0.8768 0.78467 0.16819 0.0
C3805 C 0.86426 0.78853 0.18123 0.0
C3806 C 0.8463 0.78774 0.17696 0.0
C3807 C 0.84097 0.78407 0.1598 0.0
H3808 H 0.58862 0.94703 0.90817 0.0
H3809 H 0.60218 0.98947 0.87282 0.0
H3810 H 0.55845 0.94793 0.89782 0.0
H3811 H 0.57156 0.99036 0.86234 0.0
H3812 H 0.51992 0.96329 0.83629 0.0
H3813 H 0.54988 0.97047 0.8457 0.0
H3814 H 0.53315 0.96866 0.9 0.0
H3815 H 0.50341 0.9612 0.89065 0.0
C3816 C 0.58516 0.95655 0.89813 0.0
C3817 C 0.59779 0.9682 0.89134 0.0
C3818 C 0.56779 0.95719 0.89233 0.0
C3819 C 0.56255 0.96946 0.87952 0.0
C3820 C 0.57523 0.98085 0.87231 0.0
C3821 C 0.59272 0.9803 0.87826 0.0
C3822 C 0.52252 0.96509 0.8502 0.0
C3823 C 0.50943 0.96143 0.86277 0.0
C3824 C 0.53969 0.96915 0.85558 0.0
C3825 C 0.54393 0.96964 0.87359 0.0
C3826 C 0.53034 0.96792 0.88603 0.0
C3827 C 0.51328 0.9638 0.88068 0.0
H3828 H 0.78522 0.75605 0.62397 0.0
H3829 H 0.82051 0.78485 0.59002 0.0
H3830 H 0.77199 0.78389 0.63368 0.0
H3831 H 0.80737 0.81245 0.59955 0.0
H3832 H 0.77574 0.86005 0.61421 0.0
H3833 H 0.78026 0.83115 0.60069 0.0
H3834 H 0.78555 0.80789 0.6523 0.0
H3835 H 0.78104 0.83664 0.66576 0.0
C3836 C 0.78979 0.76827 0.61825 0.0
C3837 C 0.80395 0.76837 0.60638 0.0
C3838 C 0.78232 0.78418 0.62386 0.0
C3839 C 0.78873 0.80033 0.61744 0.0
C3840 C 0.80204 0.80024 0.60463 0.0
C3841 C 0.80964 0.78444 0.59925 0.0
C3842 C 0.77765 0.84871 0.62263 0.0
C3843 C 0.77826 0.85061 0.64101 0.0
C3844 C 0.78022 0.83219 0.61491 0.0
C3845 C 0.78325 0.81727 0.62544 0.0
C3846 C 0.78302 0.81909 0.64384 0.0
C3847 C 0.78063 0.83559 0.65154 0.0
H3848 H 0.89702 0.03105 0.36411 0.0
H3849 H 0.91382 0.02133 0.41754 0.0
H3850 H 0.92768 0.03593 0.35542 0.0
H3851 H 0.94432 0.02558 0.40882 0.0
H3852 H 0.98664 0.06631 0.39356 0.0
H3853 H 0.95895 0.05268 0.40142 0.0
H3854 H 0.9584 0.02483 0.3518 0.0
H3855 H 0.98646 0.03887 0.3438 0.0
C3856 C 0.9073 0.02957 0.37388 0.0
C3857 C 0.90305 0.0262 0.39156 0.0
C3858 C 0.92486 0.03222 0.36889 0.0
C3859 C 0.93841 0.03138 0.38149 0.0
C3860 C 0.93416 0.02669 0.39888 0.0
C3861 C 0.91669 0.02425 0.40387 0.0
C3862 C 0.98082 0.057 0.38446 0.0
C3863 C 0.98863 0.05368 0.36806 0.0
C3864 C 0.96497 0.04908 0.389 0.0
C3865 C 0.95643 0.03766 0.37723 0.0
C3866 C 0.96463 0.03366 0.36109 0.0
C3867 C 0.98073 0.04154 0.35658 0.0
H3868 H 0.71386 0.24784 0.14087 0.0
H3869 H 0.70391 0.2264 0.08917 0.0
H3870 H 0.72373 0.21902 0.15092 0.0
H3871 H 0.71329 0.19748 0.09934 0.0
H3872 H 0.73584 0.14688 0.12269 0.0
H3873 H 0.73517 0.17704 0.11124 0.0
H3874 H 0.70569 0.19352 0.15702 0.0
H3875 H 0.70662 0.16373 0.16847 0.0
C3876 C 0.71424 0.23708 0.13152 0.0
C3877 C 0.70787 0.23931 0.11432 0.0
C3878 C 0.71972 0.22053 0.13732 0.0
C3879 C 0.71883 0.20585 0.12607 0.0
C3880 C 0.71413 0.20848 0.10836 0.0
C3881 C 0.70875 0.22508 0.10252 0.0
C3882 C 0.72929 0.15702 0.13028 0.0
C3883 C 0.72122 0.15295 0.14643 0.0
C3884 C 0.72891 0.17426 0.12374 0.0
C3885 C 0.72055 0.18774 0.1333 0.0
C3886 C 0.71261 0.18359 0.1495 0.0
C3887 C 0.71296 0.16643 0.15598 0.0
H3888 H 0.5842 0.04185 0.5782 0.0
H3889 H 0.60899 0.03325 0.62865 0.0
H3890 H 0.55616 0.0472 0.59283 0.0
H3891 H 0.5808 0.03882 0.64336 0.0
H3892 H 0.53478 0.07959 0.6564 0.0
H3893 H 0.56223 0.06694 0.64566 0.0
H3894 H 0.5329 0.03176 0.61204 0.0
H3895 H 0.50525 0.04436 0.62301 0.0
C3896 C 0.58363 0.04105 0.59243 0.0
C3897 C 0.5988 0.03731 0.60231 0.0
C3898 C 0.56753 0.04391 0.60078 0.0
C3899 C 0.56631 0.0433 0.61921 0.0
C3900 C 0.58142 0.03934 0.62912 0.0
C3901 C 0.59751 0.03621 0.62073 0.0
C3902 C 0.53419 0.06885 0.64704 0.0
C3903 C 0.51795 0.06301 0.64042 0.0
C3904 C 0.54989 0.06156 0.64096 0.0
C3905 C 0.54967 0.04848 0.62793 0.0
C3906 C 0.53339 0.04193 0.62202 0.0
C3907 C 0.51761 0.04903 0.62835 0.0
H3908 H 0.71658 0.75136 0.36164 0.0
H3909 H 0.71361 0.7707 0.41497 0.0
H3910 H 0.72735 0.77993 0.35182 0.0
H3911 H 0.72331 0.79955 0.40512 0.0
H3912 H 0.74262 0.85111 0.38339 0.0
H3913 H 0.74282 0.82039 0.39305 0.0
H3914 H 0.71212 0.80615 0.34726 0.0
H3915 H 0.71267 0.83641 0.33739 0.0
C3916 C 0.71864 0.76164 0.37132 0.0
C3917 C 0.71412 0.75891 0.38901 0.0
C3918 C 0.72458 0.77809 0.36569 0.0
C3919 C 0.72566 0.79228 0.37756 0.0
C3920 C 0.72269 0.78901 0.39556 0.0
C3921 C 0.71711 0.77242 0.40125 0.0
C3922 C 0.7361 0.84131 0.37536 0.0
C3923 C 0.72757 0.84615 0.35969 0.0
C3924 C 0.73616 0.82371 0.3809 0.0
C3925 C 0.72755 0.81066 0.37094 0.0
C3926 C 0.7193 0.81562 0.35511 0.0
C3927 C 0.71941 0.83309 0.34951 0.0
H3928 H 0.97459 0.94891 0.16347 0.0
H3929 H 0.99521 0.96036 0.11173 0.0
H3930 H 0.94513 0.95673 0.15351 0.0
H3931 H 0.96576 0.96851 0.10184 0.0
H3932 H 0.91069 0.95015 0.08478 0.0
H3933 H 0.94056 0.94923 0.09614 0.0
H3934 H 0.92421 0.97876 0.14191 0.0
H3935 H 0.89403 0.97952 0.13053 0.0
C3936 C 0.97293 0.95364 0.15012 0.0
C3937 C 0.98717 0.95378 0.1383 0.0
C3938 C 0.95602 0.95815 0.14442 0.0
C3939 C 0.95306 0.96287 0.12678 0.0
C3940 C 0.96758 0.96453 0.11541 0.0
C3941 C 0.98449 0.96004 0.12112 0.0
C3942 C 0.91342 0.95643 0.09728 0.0
C3943 C 0.9 0.96484 0.1068 0.0
C3944 C 0.93061 0.95609 0.1037 0.0
C3945 C 0.93483 0.96414 0.11981 0.0
C3946 C 0.92137 0.97244 0.12945 0.0
C3947 C 0.90411 0.97285 0.12296 0.0
H3948 H 0.78307 0.2449 0.8612 0.0
H3949 H 0.79721 0.22487 0.91248 0.0
H3950 H 0.77306 0.21568 0.85255 0.0
H3951 H 0.78789 0.19555 0.90367 0.0
H3952 H 0.7664 0.14363 0.8838 0.0
H3953 H 0.76667 0.17409 0.89429 0.0
H3954 H 0.79033 0.19053 0.8452 0.0
H3955 H 0.78958 0.16041 0.83467 0.0
C3956 C 0.78361 0.23435 0.87077 0.0
C3957 C 0.79116 0.2371 0.88741 0.0
C3958 C 0.77807 0.21755 0.86577 0.0
C3959 C 0.78017 0.20315 0.87723 0.0
C3960 C 0.78609 0.2063 0.89448 0.0
C3961 C 0.79145 0.22315 0.89955 0.0
C3962 C 0.77157 0.15382 0.87527 0.0
C3963 C 0.77805 0.14965 0.85846 0.0
C3964 C 0.77172 0.17125 0.88127 0.0
C3965 C 0.77838 0.18482 0.87055 0.0
C3966 C 0.7847 0.18055 0.85368 0.0
C3967 C 0.78448 0.16321 0.8477 0.0
H3968 H 0.91499 0.58433 0.96625 0.0
H3969 H 0.86329 0.60689 0.97333 0.0
H3970 H 0.90188 0.55528 0.96272 0.0
H3971 H 0.85014 0.57773 0.96992 0.0
H3972 H 0.83858 0.53137 0.93022 0.0
H3973 H 0.84796 0.55902 0.94327 0.0
H3974 H 0.88441 0.53093 0.97669 0.0
H3975 H 0.87486 0.50302 0.96349 0.0
C3976 C 0.90083 0.58303 0.96729 0.0
C3977 C 0.89014 0.5979 0.9698 0.0
C3978 C 0.89334 0.56636 0.96547 0.0
C3979 C 0.87498 0.56423 0.96603 0.0
C3980 C 0.86433 0.579 0.96932 0.0
C3981 C 0.87185 0.59568 0.97125 0.0
C3982 C 0.84826 0.53106 0.94069 0.0
C3983 C 0.85612 0.51513 0.94577 0.0
C3984 C 0.85357 0.54689 0.94824 0.0
C3985 C 0.86703 0.54716 0.9609 0.0
C3986 C 0.8741 0.53109 0.96684 0.0
C3987 C 0.86857 0.51515 0.95941 0.0
H3988 H 0.41078 0.91188 0.03035 0.0
H3989 H 0.35829 0.89007 0.02961 0.0
H3990 H 0.39862 0.94107 0.03571 0.0
H3991 H 0.34609 0.9194 0.03492 0.0
H3992 H 0.33918 0.96686 0.07415 0.0
H3993 H 0.34738 0.93869 0.0614 0.0
H3994 H 0.37985 0.96539 0.02312 0.0
H3995 H 0.37152 0.99384 0.036 0.0
C3996 C 0.39663 0.91336 0.03117 0.0
C3997 C 0.38549 0.89867 0.02978 0.0
C3998 C 0.38966 0.93012 0.03404 0.0
C3999 C 0.37141 0.93252 0.03571 0.0
C4000 C 0.36022 0.9179 0.03378 0.0
C4001 C 0.3672 0.90114 0.03076 0.0
C4002 C 0.34778 0.96675 0.06277 0.0
C4003 C 0.35484 0.98248 0.05612 0.0
C4004 C 0.35239 0.95061 0.0554 0.0
C4005 C 0.36434 0.94982 0.04133 0.0
C4006 C 0.37071 0.96563 0.03405 0.0
C4007 C 0.36587 0.98188 0.04132 0.0
H4008 H 0.78832 0.59154 0.81887 0.0
H4009 H 0.75827 0.62522 0.78436 0.0
H4010 H 0.81553 0.60208 0.80569 0.0
H4011 H 0.78572 0.63596 0.77111 0.0
H4012 H 0.83757 0.66944 0.78052 0.0
H4013 H 0.80926 0.65504 0.78503 0.0
H4014 H 0.83397 0.60429 0.77834 0.0
H4015 H 0.8624 0.61875 0.77379 0.0
C4016 C 0.78755 0.60092 0.80815 0.0
C4017 C 0.77124 0.60768 0.8027 0.0
C4018 C 0.80314 0.60688 0.80053 0.0
C4019 C 0.80276 0.61993 0.78746 0.0
C4020 C 0.78637 0.62597 0.78127 0.0
C4021 C 0.77069 0.61977 0.78874 0.0
C4022 C 0.83693 0.65521 0.7798 0.0
C4023 C 0.85221 0.64519 0.77702 0.0
C4024 C 0.82068 0.64698 0.7822 0.0
C4025 C 0.8194 0.62854 0.78202 0.0
C4026 C 0.83459 0.61853 0.77861 0.0
C4027 C 0.85084 0.62679 0.77602 0.0
H4028 H 0.11876 0.10221 0.51509 0.0
H4029 H 0.09902 0.10349 0.56842 0.0
H4030 H 0.13277 0.07364 0.52108 0.0
H4031 H 0.11291 0.0753 0.57432 0.0
H4032 H 0.1533 0.03539 0.58638 0.0
H4033 H 0.14408 0.06434 0.57652 0.0
H4034 H 0.12243 0.04156 0.52918 0.0
H4035 H 0.13191 0.0122 0.53908 0.0
C4036 C 0.11754 0.09646 0.52809 0.0
C4037 C 0.10788 0.10508 0.54133 0.0
C4038 C 0.12544 0.08011 0.53145 0.0
C4039 C 0.12402 0.07235 0.54818 0.0
C4040 C 0.11444 0.08109 0.56137 0.0
C4041 C 0.10643 0.09721 0.55797 0.0
C4042 C 0.14681 0.03652 0.57373 0.0
C4043 C 0.14305 0.02151 0.56362 0.0
C4044 C 0.14151 0.05312 0.56811 0.0
C4045 C 0.13226 0.05514 0.55226 0.0
C4046 C 0.12956 0.04033 0.54147 0.0
C4047 C 0.13493 0.02357 0.54712 0.0
H4048 H 0.24377 0.87276 0.78527 0.0
H4049 H 0.21581 0.90986 0.81801 0.0
H4050 H 0.21575 0.86307 0.77251 0.0
H4051 H 0.18802 0.90024 0.80541 0.0
H4052 H 0.14013 0.88501 0.77474 0.0
H4053 H 0.16933 0.89794 0.77881 0.0
H4054 H 0.19124 0.84603 0.78636 0.0
H4055 H 0.16218 0.83314 0.78217 0.0
C4056 C 0.2317 0.87914 0.78939 0.0
C4057 C 0.2319 0.89193 0.80271 0.0
C4058 C 0.21569 0.87353 0.78219 0.0
C4059 C 0.19969 0.88081 0.78807 0.0
C4060 C 0.2001 0.89447 0.8005 0.0
C4061 C 0.21602 0.89991 0.8078 0.0
C4062 C 0.15124 0.87638 0.77706 0.0
C4063 C 0.14887 0.8581 0.77835 0.0
C4064 C 0.16793 0.88377 0.77939 0.0
C4065 C 0.18256 0.873 0.78292 0.0
C4066 C 0.18028 0.85466 0.78342 0.0
C4067 C 0.1636 0.84729 0.78121 0.0
H4068 H 0.65646 0.46986 0.4374 0.0
H4069 H 0.61785 0.49745 0.46864 0.0
H4070 H 0.64578 0.44188 0.44864 0.0
H4071 H 0.60705 0.46923 0.48005 0.0
H4072 H 0.57657 0.41695 0.46654 0.0
H4073 H 0.59046 0.44573 0.46419 0.0
H4074 H 0.64121 0.42209 0.47407 0.0
H4075 H 0.62726 0.39314 0.47631 0.0
C4076 C 0.64597 0.46993 0.44707 0.0
C4077 C 0.63786 0.48577 0.45206 0.0
C4078 C 0.6399 0.45389 0.45358 0.0
C4079 C 0.62546 0.45333 0.46509 0.0
C4080 C 0.6181 0.46928 0.47103 0.0
C4081 C 0.62435 0.48541 0.46465 0.0
C4082 C 0.59067 0.4179 0.46836 0.0
C4083 C 0.60086 0.40277 0.47138 0.0
C4084 C 0.59861 0.43443 0.46722 0.0
C4085 C 0.61693 0.43619 0.46899 0.0
C4086 C 0.62707 0.42112 0.47257 0.0
C4087 C 0.6191 0.40456 0.47382 0.0
H4088 H 0.78787 0.40051 0.66584 0.0
H4089 H 0.7632 0.37529 0.71042 0.0
H4090 H 0.81665 0.39184 0.67666 0.0
H4091 H 0.79238 0.36628 0.72126 0.0
H4092 H 0.85216 0.36333 0.73831 0.0
H4093 H 0.8234 0.3767 0.73178 0.0
H4094 H 0.82894 0.3614 0.6773 0.0
H4095 H 0.85733 0.34822 0.68372 0.0
C4096 C 0.78863 0.39327 0.67811 0.0
C4097 C 0.7733 0.3883 0.68715 0.0
C4098 C 0.80513 0.38828 0.68428 0.0
C4099 C 0.80673 0.37809 0.69959 0.0
C4100 C 0.7915 0.37414 0.70939 0.0
C4101 C 0.77484 0.37926 0.70321 0.0
C4102 C 0.84722 0.36299 0.72494 0.0
C4103 C 0.857 0.35482 0.71149 0.0
C4104 C 0.83077 0.37052 0.72125 0.0
C4105 C 0.82403 0.37021 0.70402 0.0
C4106 C 0.83391 0.3621 0.69065 0.0
C4107 C 0.85016 0.35448 0.69435 0.0
H4108 H 0.74608 0.63985 0.20803 0.0
H4109 H 0.72682 0.58651 0.20506 0.0
H4110 H 0.71737 0.64967 0.21844 0.0
H4111 H 0.69787 0.59635 0.21451 0.0
H4112 H 0.64739 0.6183 0.23731 0.0
H4113 H 0.67785 0.60819 0.23503 0.0
H4114 H 0.69053 0.65422 0.20401 0.0
H4115 H 0.66047 0.66455 0.20701 0.0
C4116 C 0.73577 0.63018 0.20994 0.0
C4117 C 0.73861 0.61246 0.20561 0.0
C4118 C 0.71924 0.63582 0.21567 0.0
C4119 C 0.7051 0.6239 0.21685 0.0
C4120 C 0.70839 0.60593 0.21384 0.0
C4121 C 0.72503 0.60025 0.2084 0.0
C4122 C 0.65676 0.62623 0.23006 0.0
C4123 C 0.65158 0.64218 0.2223 0.0
C4124 C 0.67421 0.62044 0.22873 0.0
C4125 C 0.68677 0.63042 0.21944 0.0
C4126 C 0.68143 0.64637 0.21167 0.0
C4127 C 0.66411 0.65222 0.21319 0.0
H4128 H 0.51903 0.63423 0.89909 0.0
H4129 H 0.54429 0.58691 0.91791 0.0
H4130 H 0.51931 0.6462 0.92907 0.0
H4131 H 0.54478 0.59882 0.94754 0.0
H4132 H 0.53526 0.61656 0.00125 0.0
H4133 H 0.52595 0.60672 0.97216 0.0
H4134 H 0.54141 0.65683 0.95021 0.0
H4135 H 0.5503 0.66681 0.97937 0.0
C4136 C 0.52462 0.62641 0.90961 0.0
C4137 C 0.53171 0.60968 0.90615 0.0
C4138 C 0.52476 0.63324 0.92676 0.0
C4139 C 0.53189 0.62339 0.94074 0.0
C4140 C 0.53882 0.60661 0.93719 0.0
C4141 C 0.53874 0.59985 0.92013 0.0
C4142 C 0.53612 0.62568 0.99032 0.0
C4143 C 0.54375 0.64235 0.99255 0.0
C4144 C 0.53095 0.61998 0.97362 0.0
C4145 C 0.53338 0.63082 0.9588 0.0
C4146 C 0.53938 0.64814 0.96133 0.0
C4147 C 0.54448 0.65386 0.97807 0.0
H4148 H 0.66629 0.2949 0.16534 0.0
H4149 H 0.62231 0.2638 0.14721 0.0
H4150 H 0.65388 0.29545 0.19477 0.0
H4151 H 0.6099 0.26408 0.177 0.0
H4152 H 0.58534 0.2936 0.22636 0.0
H4153 H 0.59652 0.28517 0.19746 0.0
H4154 H 0.64809 0.27684 0.21991 0.0
H4155 H 0.63702 0.28578 0.24866 0.0
C4156 C 0.65398 0.28809 0.16767 0.0
C4157 C 0.64524 0.27936 0.15394 0.0
C4158 C 0.64696 0.28822 0.18462 0.0
C4159 C 0.631 0.2796 0.18833 0.0
C4160 C 0.6222 0.27086 0.17457 0.0
C4161 C 0.62929 0.27071 0.15753 0.0
C4162 C 0.59892 0.2894 0.22522 0.0
C4163 C 0.61039 0.2906 0.23969 0.0
C4164 C 0.60535 0.28459 0.20863 0.0
C4165 C 0.62331 0.28079 0.20629 0.0
C4166 C 0.6343 0.28019 0.22119 0.0
C4167 C 0.62792 0.28513 0.2377 0.0
H4168 H 0.93175 0.39262 0.39372 0.0
H4169 H 0.98796 0.3865 0.39968 0.0
H4170 H 0.92717 0.37918 0.42235 0.0
H4171 H 0.98331 0.37286 0.42868 0.0
H4172 H 0.96149 0.37381 0.48871 0.0
H4173 H 0.9713 0.38256 0.45909 0.0
H4174 H 0.93087 0.34987 0.43618 0.0
H4175 H 0.92098 0.3415 0.46542 0.0
C4176 C 0.94314 0.38822 0.40109 0.0
C4177 C 0.9602 0.39054 0.39443 0.0
C4178 C 0.94052 0.38044 0.41748 0.0
C4179 C 0.95488 0.37485 0.42771 0.0
C4180 C 0.97201 0.37707 0.42107 0.0
C4181 C 0.97464 0.38474 0.40447 0.0
C4182 C 0.95505 0.36822 0.47729 0.0
C4183 C 0.94031 0.35725 0.47929 0.0
C4184 C 0.96064 0.37319 0.46038 0.0
C4185 C 0.95159 0.36716 0.44536 0.0
C4186 C 0.93783 0.35504 0.4475 0.0
C4187 C 0.93221 0.35022 0.46425 0.0
H4188 H 0.86375 0.71496 0.74505 0.0
H4189 H 0.9146 0.70384 0.72224 0.0
H4190 H 0.85334 0.72564 0.71663 0.0
H4191 H 0.90405 0.71377 0.69369 0.0
H4192 H 0.88137 0.73614 0.64353 0.0
H4193 H 0.89304 0.73529 0.67355 0.0
H4194 H 0.84544 0.70949 0.69109 0.0
H4195 H 0.83371 0.71088 0.66144 0.0
C4196 C 0.87282 0.71519 0.73405 0.0
C4197 C 0.88989 0.70836 0.73579 0.0
C4198 C 0.86682 0.72112 0.71771 0.0
C4199 C 0.87769 0.7201 0.70274 0.0
C4200 C 0.8953 0.71478 0.7049 0.0
C4201 C 0.90136 0.70905 0.72129 0.0
C4202 C 0.87341 0.73042 0.65388 0.0
C4203 C 0.85668 0.72349 0.65014 0.0
C4204 C 0.88008 0.72991 0.67106 0.0
C4205 C 0.87016 0.72241 0.6848 0.0
C4206 C 0.85332 0.71575 0.68099 0.0
C4207 C 0.84664 0.71634 0.6639 0.0
H4208 H 0.51425 0.37184 0.60528 0.0
H4209 H 0.54162 0.41817 0.58697 0.0
H4210 H 0.51392 0.36024 0.57519 0.0
H4211 H 0.54159 0.40656 0.55721 0.0
H4212 H 0.53215 0.38937 0.50329 0.0
H4213 H 0.52307 0.39966 0.5323 0.0
H4214 H 0.53526 0.34863 0.55422 0.0
H4215 H 0.54384 0.33822 0.52514 0.0
C4216 C 0.52016 0.37954 0.59483 0.0
C4217 C 0.52804 0.39587 0.59848 0.0
C4218 C 0.51997 0.37291 0.57762 0.0
C4219 C 0.52759 0.38253 0.56374 0.0
C4220 C 0.53525 0.39896 0.56746 0.0
C4221 C 0.53546 0.40554 0.5846 0.0
C4222 C 0.53233 0.38019 0.51419 0.0
C4223 C 0.53895 0.36308 0.51199 0.0
C4224 C 0.5273 0.38613 0.53086 0.0
C4225 C 0.5289 0.37511 0.54566 0.0
C4226 C 0.53387 0.35747 0.54313 0.0
C4227 C 0.53881 0.3515 0.52643 0.0
H4228 H 0.85984 0.28999 0.74951 0.0
H4229 H 0.91235 0.29024 0.77123 0.0
H4230 H 0.84814 0.28061 0.77788 0.0
H4231 H 0.90063 0.28144 0.79977 0.0
H4232 H 0.87388 0.25999 0.84911 0.0
H4233 H 0.8856 0.26093 0.81908 0.0
H4234 H 0.84446 0.29738 0.80439 0.0
H4235 H 0.83265 0.29611 0.83405 0.0
C4236 C 0.86893 0.28762 0.76024 0.0
C4237 C 0.88697 0.29105 0.75822 0.0
C4238 C 0.86222 0.28243 0.77655 0.0
C4239 C 0.87339 0.28075 0.79123 0.0
C4240 C 0.89164 0.28261 0.78877 0.0
C4241 C 0.89837 0.28766 0.77238 0.0
C4242 C 0.86736 0.26814 0.8394 0.0
C4243 C 0.85238 0.27801 0.84393 0.0
C4244 C 0.87406 0.26868 0.82222 0.0
C4245 C 0.86588 0.27908 0.80925 0.0
C4246 C 0.85087 0.28889 0.81388 0.0
C4247 C 0.8442 0.28833 0.83097 0.0
H4248 H 0.9273 0.65709 0.03164 0.0
H4249 H 0.96244 0.62253 0.00336 0.0
H4250 H 0.94008 0.64762 0.05941 0.0
H4251 H 0.97534 0.61291 0.0314 0.0
H4252 H 0.96646 0.58169 0.08469 0.0
H4253 H 0.96196 0.59469 0.05568 0.0
H4254 H 0.96689 0.64665 0.07817 0.0
H4255 H 0.97131 0.63362 0.10729 0.0
C4256 C 0.93805 0.64772 0.03137 0.0
C4257 C 0.94381 0.64043 0.0154 0.0
C4258 C 0.94545 0.64238 0.04728 0.0
C4259 C 0.95864 0.62944 0.04759 0.0
C4260 C 0.96509 0.62281 0.03153 0.0
C4261 C 0.95782 0.62838 0.01551 0.0
C4262 C 0.96678 0.59589 0.08341 0.0
C4263 C 0.96901 0.60666 0.09827 0.0
C4264 C 0.96439 0.60332 0.06677 0.0
C4265 C 0.96406 0.62168 0.06466 0.0
C4266 C 0.96697 0.63245 0.07943 0.0
C4267 C 0.9695 0.625 0.09608 0.0
H4268 H 0.60073 0.66631 0.2906 0.0
H4269 H 0.62147 0.71231 0.26443 0.0
H4270 H 0.6114 0.67724 0.31866 0.0
H4271 H 0.63245 0.7233 0.29289 0.0
H4272 H 0.63816 0.73945 0.35327 0.0
H4273 H 0.62349 0.73272 0.3252 0.0
H4274 H 0.64322 0.67951 0.32791 0.0
H4275 H 0.65774 0.68612 0.35562 0.0
C4276 C 0.6074 0.67891 0.29089 0.0
C4277 C 0.61055 0.68834 0.27531 0.0
C4278 C 0.61353 0.68514 0.30697 0.0
C4279 C 0.62305 0.70092 0.30787 0.0
C4280 C 0.62515 0.71107 0.29251 0.0
C4281 C 0.6189 0.7048 0.27627 0.0
C4282 C 0.63928 0.72632 0.34783 0.0
C4283 C 0.649 0.71326 0.35666 0.0
C4284 C 0.63099 0.72253 0.33177 0.0
C4285 C 0.6321 0.70557 0.3245 0.0
C4286 C 0.64191 0.69263 0.33334 0.0
C4287 C 0.65029 0.69643 0.34918 0.0
H4288 H 0.90983 0.54148 0.58365 0.0
H4289 H 0.89496 0.51369 0.63097 0.0
H4290 H 0.94015 0.54225 0.5935 0.0
H4291 H 0.92567 0.51392 0.6407 0.0
H4292 H 0.97655 0.54324 0.6603 0.0
H4293 H 0.94709 0.53434 0.65144 0.0
H4294 H 0.96583 0.5253 0.59846 0.0
H4295 H 0.99511 0.535 0.60722 0.0
C4296 C 0.9131 0.53537 0.59612 0.0
C4297 C 0.90001 0.52763 0.60659 0.0
C4298 C 0.93057 0.53561 0.60169 0.0
C4299 C 0.93546 0.52796 0.61783 0.0
C4300 C 0.92236 0.52002 0.62825 0.0
C4301 C 0.90478 0.51988 0.62269 0.0
C4302 C 0.97448 0.53883 0.6469 0.0
C4303 C 0.98803 0.54006 0.63437 0.0
C4304 C 0.95756 0.53372 0.64179 0.0
C4305 C 0.95395 0.52955 0.62411 0.0
C4306 C 0.96802 0.52897 0.61206 0.0
C4307 C 0.98485 0.53433 0.61711 0.0
H4308 H 0.7154 0.74388 0.87284 0.0
H4309 H 0.68424 0.71378 0.90959 0.0
H4310 H 0.73006 0.71674 0.86319 0.0
H4311 H 0.69871 0.6869 0.9001 0.0
H4312 H 0.73047 0.64054 0.88426 0.0
H4313 H 0.72614 0.66955 0.89751 0.0
H4314 H 0.71727 0.69174 0.84591 0.0
H4315 H 0.72173 0.66288 0.8327 0.0
C4316 C 0.7121 0.73156 0.87921 0.0
C4317 C 0.69862 0.73083 0.89182 0.0
C4318 C 0.72036 0.71604 0.87362 0.0
C4319 C 0.71543 0.69968 0.8808 0.0
C4320 C 0.70294 0.69927 0.89441 0.0
C4321 C 0.69456 0.71466 0.89978 0.0
C4322 C 0.72786 0.65168 0.87576 0.0
C4323 C 0.72618 0.64943 0.85749 0.0
C4324 C 0.7254 0.66827 0.88333 0.0
C4325 C 0.72132 0.68291 0.87275 0.0
C4326 C 0.72061 0.68078 0.85439 0.0
C4327 C 0.72297 0.6642 0.84684 0.0
H4328 H 0.58634 0.45475 0.08077 0.0
H4329 H 0.60407 0.48697 0.12413 0.0
H4330 H 0.55684 0.45438 0.093 0.0
H4331 H 0.57421 0.48664 0.13648 0.0
H4332 H 0.52541 0.45453 0.16059 0.0
H4333 H 0.55416 0.46394 0.14981 0.0
H4334 H 0.53162 0.47415 0.09863 0.0
H4335 H 0.50296 0.46447 0.1093 0.0
C4336 C 0.58391 0.46182 0.09291 0.0
C4337 C 0.59754 0.47082 0.10153 0.0
C4338 C 0.56693 0.46178 0.09982 0.0
C4339 C 0.56313 0.47069 0.11559 0.0
C4340 C 0.57676 0.4797 0.12429 0.0
C4341 C 0.59381 0.47986 0.11724 0.0
C4342 C 0.52646 0.45937 0.14721 0.0
C4343 C 0.51202 0.45846 0.13568 0.0
C4344 C 0.54295 0.46476 0.14104 0.0
C4345 C 0.54521 0.46935 0.12326 0.0
C4346 C 0.53034 0.47027 0.11229 0.0
C4347 C 0.51389 0.46486 0.11844 0.0
H4348 H 0.76638 0.35424 0.38344 0.0
H4349 H 0.80156 0.34762 0.33932 0.0
H4350 H 0.77053 0.32328 0.39138 0.0
H4351 H 0.80645 0.31723 0.3476 0.0
H4352 H 0.80452 0.26063 0.35492 0.0
H4353 H 0.79326 0.2897 0.34757 0.0
H4354 H 0.79072 0.30255 0.40301 0.0
H4355 H 0.80086 0.27285 0.41021 0.0
C4356 C 0.77516 0.3462 0.37559 0.0
C4357 C 0.7836 0.35327 0.36074 0.0
C4358 C 0.77755 0.32847 0.38012 0.0
C4359 C 0.7886 0.31757 0.36999 0.0
C4360 C 0.79736 0.32494 0.35541 0.0
C4361 C 0.79475 0.34248 0.35075 0.0
C4362 C 0.80093 0.26951 0.36549 0.0
C4363 C 0.80346 0.26461 0.38308 0.0
C4364 C 0.79476 0.28628 0.36133 0.0
C4365 C 0.79162 0.29875 0.37467 0.0
C4366 C 0.79296 0.29335 0.39237 0.0
C4367 C 0.79872 0.27632 0.39654 0.0
H4368 H 0.89595 0.48472 0.86911 0.0
H4369 H 0.91237 0.45828 0.91668 0.0
H4370 H 0.9263 0.48423 0.85838 0.0
H4371 H 0.94241 0.45728 0.90586 0.0
H4372 H 0.99701 0.46386 0.88907 0.0
H4373 H 0.96817 0.47382 0.89903 0.0
H4374 H 0.94669 0.46283 0.8475 0.0
H4375 H 0.97561 0.45355 0.83743 0.0
C4376 C 0.90605 0.47882 0.87726 0.0
C4377 C 0.90179 0.47144 0.89367 0.0
C4378 C 0.92342 0.47852 0.87112 0.0
C4379 C 0.93685 0.47078 0.88127 0.0
C4380 C 0.93253 0.46369 0.89783 0.0
C4381 C 0.91524 0.46407 0.90397 0.0
C4382 C 0.98623 0.46411 0.87974 0.0
C4383 C 0.9885 0.45772 0.86255 0.0
C4384 C 0.96966 0.46964 0.88549 0.0
C4385 C 0.955 0.4687 0.87421 0.0
C4386 C 0.95765 0.46377 0.85656 0.0
C4387 C 0.97426 0.45841 0.85077 0.0
H4388 H 0.81288 0.64735 0.15402 0.0
H4389 H 0.76214 0.64618 0.12837 0.0
H4390 H 0.81963 0.67503 0.1395 0.0
H4391 H 0.769 0.67421 0.11372 0.0
H4392 H 0.78592 0.73584 0.11177 0.0
H4393 H 0.7755 0.70716 0.12266 0.0
H4394 H 0.8251 0.68369 0.10788 0.0
H4395 H 0.83544 0.71197 0.09724 0.0
C4396 C 0.80317 0.653 0.14524 0.0
C4397 C 0.78703 0.64455 0.14224 0.0
C4398 C 0.80707 0.66883 0.13687 0.0
C4399 C 0.79489 0.67668 0.12537 0.0
C4400 C 0.77859 0.66842 0.12254 0.0
C4401 C 0.77474 0.65238 0.13082 0.0
C4402 C 0.79439 0.72444 0.11056 0.0
C4403 C 0.81157 0.72617 0.10394 0.0
C4404 C 0.78845 0.70807 0.11676 0.0
C4405 C 0.79965 0.69332 0.11639 0.0
C4406 C 0.81633 0.69491 0.10865 0.0
C4407 C 0.82222 0.71112 0.10253 0.0
H4408 H 0.49974 0.53783 0.39105 0.0
H4409 H 0.5234 0.54538 0.33991 0.0
H4410 H 0.52821 0.52875 0.40285 0.0
H4411 H 0.55187 0.53701 0.35174 0.0
H4412 H 0.60157 0.51621 0.37598 0.0
H4413 H 0.57164 0.51631 0.36425 0.0
H4414 H 0.55396 0.5451 0.41006 0.0
H4415 H 0.58365 0.54442 0.42196 0.0
C4416 C 0.51093 0.53716 0.38224 0.0
C4417 C 0.50938 0.54251 0.36462 0.0
C4418 C 0.5273 0.53216 0.38904 0.0
C4419 C 0.54245 0.53253 0.37836 0.0
C4420 C 0.54054 0.53649 0.36037 0.0
C4421 C 0.52417 0.54135 0.35357 0.0
C4422 C 0.59123 0.52246 0.38355 0.0
C4423 C 0.59496 0.53043 0.39981 0.0
C4424 C 0.57408 0.52253 0.37684 0.0
C4425 C 0.56032 0.53069 0.3862 0.0
C4426 C 0.56409 0.53838 0.40262 0.0
C4427 C 0.58118 0.53818 0.40937 0.0
H4428 H 0.7127 0.25029 0.63174 0.0
H4429 H 0.69685 0.2739 0.58251 0.0
H4430 H 0.72419 0.27858 0.64159 0.0
H4431 H 0.70765 0.30226 0.59256 0.0
H4432 H 0.73244 0.35194 0.61346 0.0
H4433 H 0.73022 0.32209 0.60163 0.0
H4434 H 0.70913 0.30418 0.65138 0.0
H4435 H 0.71191 0.3337 0.66324 0.0
C4436 C 0.71205 0.26143 0.62286 0.0
C4437 C 0.70368 0.25994 0.60645 0.0
C4438 C 0.71845 0.2777 0.62857 0.0
C4439 C 0.71643 0.29283 0.61807 0.0
C4440 C 0.70948 0.29094 0.60101 0.0
C4441 C 0.70324 0.27463 0.59524 0.0
C4442 C 0.72745 0.34155 0.62185 0.0
C4443 C 0.72225 0.34515 0.63923 0.0
C4444 C 0.72616 0.32446 0.61509 0.0
C4445 C 0.71957 0.31066 0.62555 0.0
C4446 C 0.71464 0.31433 0.64303 0.0
C4447 C 0.71603 0.33134 0.64979 0.0
H4448 H 0.61516 0.89682 0.50796 0.0
H4449 H 0.58541 0.90527 0.5557 0.0
H4450 H 0.62554 0.92743 0.50913 0.0
H4451 H 0.59574 0.93546 0.55687 0.0
H4452 H 0.60019 0.99182 0.5474 0.0
H4453 H 0.59055 0.96242 0.53913 0.0
H4454 H 0.64443 0.94758 0.52872 0.0
H4455 H 0.65407 0.97736 0.5367 0.0
C4456 C 0.61094 0.90516 0.51873 0.0
C4457 C 0.59941 0.8987 0.5317 0.0
C4458 C 0.61687 0.92263 0.51937 0.0
C4459 C 0.61118 0.93391 0.5329 0.0
C4460 C 0.60001 0.92723 0.54604 0.0
C4461 C 0.59421 0.90986 0.54546 0.0
C4462 C 0.60992 0.98245 0.54281 0.0
C4463 C 0.62787 0.98675 0.54284 0.0
C4464 C 0.60443 0.96558 0.53822 0.0
C4465 C 0.61679 0.95259 0.53376 0.0
C4466 C 0.63462 0.95733 0.53217 0.0
C4467 C 0.64013 0.97437 0.53666 0.0
H4468 H 0.10771 0.60186 0.4384 0.0
H4469 H 0.11377 0.59749 0.4948 0.0
H4470 H 0.11616 0.5712 0.43508 0.0
H4471 H 0.12238 0.56643 0.49133 0.0
H4472 H 0.1533 0.51528 0.46312 0.0
H4473 H 0.14743 0.54557 0.47321 0.0
H4474 H 0.09703 0.54431 0.44707 0.0
H4475 H 0.10283 0.51449 0.43704 0.0
C4476 C 0.11113 0.59443 0.45008 0.0
C4477 C 0.10986 0.60201 0.46688 0.0
C4478 C 0.11592 0.57686 0.44817 0.0
C4479 C 0.1196 0.56645 0.46298 0.0
C4480 C 0.11954 0.57424 0.47975 0.0
C4481 C 0.11463 0.59195 0.48169 0.0
C4482 C 0.14075 0.52133 0.46012 0.0
C4483 C 0.12857 0.51271 0.44917 0.0
C4484 C 0.13744 0.53862 0.4658 0.0
C4485 C 0.12195 0.54729 0.46056 0.0
C4486 C 0.1092 0.53799 0.451 0.0
C4487 C 0.11249 0.52092 0.44534 0.0
H4488 H 0.66222 0.83366 0.70744 0.0
H4489 H 0.64525 0.88189 0.73228 0.0
H4490 H 0.69192 0.84525 0.70505 0.0
H4491 H 0.67522 0.89339 0.73038 0.0
H4492 H 0.72285 0.91435 0.69726 0.0
H4493 H 0.69451 0.90381 0.70771 0.0
H4494 H 0.71796 0.85362 0.72066 0.0
H4495 H 0.74623 0.86402 0.70959 0.0
C4496 C 0.6649 0.84668 0.71257 0.0
C4497 C 0.6514 0.85693 0.7199 0.0
C4498 C 0.68199 0.85327 0.71139 0.0
C4499 C 0.68602 0.87024 0.71762 0.0
C4500 C 0.67255 0.88034 0.72531 0.0
C4501 C 0.65539 0.87376 0.72641 0.0
C4502 C 0.72207 0.90123 0.70279 0.0
C4503 C 0.73668 0.88991 0.70236 0.0
C4504 C 0.7058 0.89518 0.70882 0.0
C4505 C 0.70386 0.87773 0.71467 0.0
C4506 C 0.7189 0.86698 0.71579 0.0
C4507 C 0.73515 0.87299 0.70963 0.0
H4508 H 0.398 0.4923 0.94983 0.0
H4509 H 0.34346 0.47763 0.95587 0.0
H4510 H 0.40701 0.46306 0.95935 0.0
H4511 H 0.35251 0.44806 0.96514 0.0
H4512 H 0.38017 0.39732 0.98828 0.0
H4513 H 0.36992 0.42797 0.98644 0.0
H4514 H 0.40313 0.4361 0.94102 0.0
H4515 H 0.41328 0.40589 0.94283 0.0
C4516 C 0.38795 0.48295 0.9537 0.0
C4517 C 0.37005 0.48712 0.95194 0.0
C4518 C 0.39309 0.46618 0.95902 0.0
C4519 C 0.38044 0.45316 0.96251 0.0
C4520 C 0.36253 0.45783 0.96247 0.0
C4521 C 0.35736 0.47476 0.95723 0.0
C4522 C 0.38516 0.40569 0.97787 0.0
C4523 C 0.39758 0.39925 0.96574 0.0
C4524 C 0.37932 0.42319 0.97685 0.0
C4525 C 0.386 0.4345 0.96382 0.0
C4526 C 0.39808 0.42784 0.9515 0.0
C4527 C 0.40377 0.41046 0.95243 0.0
H4528 H 0.3595 0.61076 0.7195 0.0
H4529 H 0.33825 0.66341 0.7166 0.0
H4530 H 0.33011 0.59868 0.71445 0.0
H4531 H 0.30893 0.65133 0.71149 0.0
H4532 H 0.2839 0.591 0.67402 0.0
H4533 H 0.31174 0.59961 0.6872 0.0
H4534 H 0.28407 0.63284 0.72413 0.0
H4535 H 0.25591 0.62402 0.71084 0.0
C4536 C 0.34852 0.61973 0.71799 0.0
C4537 C 0.35118 0.63801 0.7182 0.0
C4538 C 0.33172 0.61282 0.71511 0.0
C4539 C 0.31725 0.62407 0.71255 0.0
C4540 C 0.31979 0.64234 0.71362 0.0
C4541 C 0.33661 0.64925 0.71636 0.0
C4542 C 0.28372 0.59987 0.6852 0.0
C4543 C 0.26782 0.60695 0.69137 0.0
C4544 C 0.29966 0.60471 0.69282 0.0
C4545 C 0.30008 0.61694 0.70665 0.0
C4546 C 0.2841 0.62344 0.71341 0.0
C4547 C 0.26803 0.61834 0.70591 0.0
H4548 H 0.91154 0.08291 0.01068 0.0
H4549 H 0.86455 0.10134 0.03673 0.0
H4550 H 0.90101 0.05273 0.01281 0.0
H4551 H 0.85434 0.07108 0.0398 0.0
H4552 H 0.83578 0.0159 0.03993 0.0
H4553 H 0.84378 0.04449 0.02757 0.0
H4554 H 0.89881 0.03213 0.03537 0.0
H4555 H 0.89082 0.00354 0.04683 0.0
C4556 C 0.89893 0.08046 0.01688 0.0
C4557 C 0.88895 0.0944 0.02376 0.0
C4558 C 0.8929 0.06316 0.01816 0.0
C4559 C 0.87691 0.05936 0.02669 0.0
C4560 C 0.8666 0.07345 0.03293 0.0
C4561 C 0.87251 0.09081 0.03135 0.0
C4562 C 0.84958 0.01913 0.03844 0.0
C4563 C 0.86267 0.00757 0.0445 0.0
C4564 C 0.85418 0.0356 0.03157 0.0
C4565 C 0.87194 0.04083 0.03075 0.0
C4566 C 0.885 0.02863 0.0356 0.0
C4567 C 0.88042 0.01217 0.04229 0.0
H4568 H 0.7457 0.12362 0.7873 0.0
H4569 H 0.71636 0.09042 0.82285 0.0
H4570 H 0.71801 0.13306 0.77345 0.0
H4571 H 0.68897 0.09963 0.80913 0.0
H4572 H 0.64176 0.1132 0.77725 0.0
H4573 H 0.67077 0.10002 0.78183 0.0
H4574 H 0.69362 0.15187 0.7862 0.0
H4575 H 0.66471 0.16502 0.78156 0.0
C4576 C 0.7334 0.11799 0.79179 0.0
C4577 C 0.73307 0.10643 0.80618 0.0
C4578 C 0.71759 0.12345 0.78398 0.0
C4579 C 0.70134 0.11713 0.79027 0.0
C4580 C 0.70125 0.10461 0.80386 0.0
C4581 C 0.71693 0.09942 0.81179 0.0
C4582 C 0.65303 0.12176 0.77894 0.0
C4583 C 0.65095 0.14011 0.77931 0.0
C4584 C 0.66961 0.11423 0.78154 0.0
C4585 C 0.68444 0.12492 0.7844 0.0
C4586 C 0.68248 0.14329 0.78382 0.0
C4587 C 0.66589 0.15081 0.78136 0.0
H4588 H 0.83725 0.83667 0.28797 0.0
H4589 H 0.85919 0.88848 0.27984 0.0
H4590 H 0.80829 0.84959 0.29257 0.0
H4591 H 0.83004 0.90147 0.28443 0.0
H4592 H 0.78334 0.91243 0.32438 0.0
H4593 H 0.81119 0.90366 0.31125 0.0
H4594 H 0.78384 0.86655 0.27799 0.0
H4595 H 0.75576 0.87545 0.29125 0.0
C4596 C 0.83585 0.85083 0.28707 0.0
C4597 C 0.8505 0.8616 0.28377 0.0
C4598 C 0.81921 0.85821 0.28947 0.0
C4599 C 0.81688 0.87653 0.28874 0.0
C4600 C 0.83148 0.8873 0.28508 0.0
C4601 C 0.84814 0.87989 0.28253 0.0
C4602 C 0.78323 0.90276 0.3139 0.0
C4603 C 0.76749 0.89448 0.30891 0.0
C4604 C 0.79917 0.89779 0.30632 0.0
C4605 C 0.7997 0.88428 0.29375 0.0
C4606 C 0.78379 0.87689 0.2878 0.0
C4607 C 0.76774 0.88206 0.29526 0.0
H4608 H 0.45435 0.41744 0.08545 0.0
H4609 H 0.48841 0.37462 0.10088 0.0
H4610 H 0.45315 0.4059 0.05569 0.0
H4611 H 0.48746 0.3631 0.07075 0.0
H4612 H 0.45728 0.33846 0.02195 0.0
H4613 H 0.46613 0.34927 0.05085 0.0
H4614 H 0.47095 0.4018 0.02961 0.0
H4615 H 0.46161 0.39106 0.00087 0.0
C4616 C 0.46167 0.40558 0.08245 0.0
C4617 C 0.47142 0.3969 0.09552 0.0
C4618 C 0.46115 0.39906 0.0653 0.0
C4619 C 0.47041 0.38369 0.06075 0.0
C4620 C 0.48017 0.37496 0.07384 0.0
C4621 C 0.48071 0.38153 0.09107 0.0
C4622 C 0.46075 0.35221 0.02334 0.0
C4623 C 0.45849 0.36398 0.00923 0.0
C4624 C 0.46583 0.35842 0.03992 0.0
C4625 C 0.46882 0.37648 0.04263 0.0
C4626 C 0.46827 0.38789 0.02805 0.0
C4627 C 0.46309 0.38171 0.01154 0.0
H4628 H 0.37315 0.70991 0.74997 0.0
H4629 H 0.41184 0.68143 0.78029 0.0
H4630 H 0.36268 0.72424 0.77702 0.0
H4631 H 0.40155 0.69556 0.80705 0.0
H4632 H 0.33308 0.71505 0.83134 0.0
H4633 H 0.34629 0.71098 0.80238 0.0
H4634 H 0.39749 0.72286 0.82404 0.0
H4635 H 0.38428 0.72674 0.85312 0.0
C4636 C 0.37975 0.70716 0.76231 0.0
C4637 C 0.39318 0.69452 0.76315 0.0
C4638 C 0.37369 0.71522 0.77777 0.0
C4639 C 0.38121 0.71092 0.79417 0.0
C4640 C 0.39557 0.69929 0.79465 0.0
C4641 C 0.40141 0.69112 0.77933 0.0
C4642 C 0.34712 0.71702 0.82987 0.0
C4643 C 0.3577 0.72093 0.84453 0.0
C4644 C 0.35467 0.71489 0.81324 0.0
C4645 C 0.37294 0.71655 0.81094 0.0
C4646 C 0.38338 0.72135 0.82545 0.0
C4647 C 0.37583 0.72355 0.84208 0.0
H4648 H 0.04305 0.60778 0.50036 0.0
H4649 H 0.04621 0.65969 0.52328 0.0
H4650 H 0.03301 0.59601 0.52853 0.0
H4651 H 0.03651 0.6479 0.55148 0.0
H4652 H 0.01223 0.62149 0.59964 0.0
H4653 H 0.01399 0.63327 0.56966 0.0
H4654 H 0.05002 0.5916 0.55555 0.0
H4655 H 0.04812 0.57982 0.58523 0.0
C4656 C 0.04115 0.61676 0.51127 0.0
C4657 C 0.04563 0.63461 0.50968 0.0
C4658 C 0.03557 0.60999 0.52745 0.0
C4659 C 0.03433 0.62096 0.54233 0.0
C4660 C 0.0373 0.6391 0.54029 0.0
C4661 C 0.0429 0.64586 0.52412 0.0
C4662 C 0.02046 0.61485 0.59007 0.0
C4663 C 0.03011 0.59979 0.59479 0.0
C4664 C 0.02146 0.62158 0.57293 0.0
C4665 C 0.03202 0.61329 0.56018 0.0
C4666 C 0.04148 0.59811 0.56492 0.0
C4667 C 0.04055 0.59146 0.58202 0.0
H4668 H 0.11426 0.27781 0.35922 0.0
H4669 H 0.16648 0.28064 0.33691 0.0
H4670 H 0.10161 0.28392 0.33026 0.0
H4671 H 0.15384 0.28673 0.30801 0.0
H4672 H 0.09429 0.32662 0.28577 0.0
H4673 H 0.10305 0.31212 0.31292 0.0
H4674 H 0.13425 0.27507 0.28315 0.0
H4675 H 0.12523 0.28967 0.25569 0.0
C4676 C 0.12301 0.27948 0.34809 0.0
C4677 C 0.14135 0.27899 0.35034 0.0
C4678 C 0.11578 0.28296 0.33154 0.0
C4679 C 0.12675 0.28582 0.31691 0.0
C4680 C 0.14506 0.28438 0.319 0.0
C4681 C 0.1523 0.28108 0.33558 0.0
C4682 C 0.10272 0.31515 0.28499 0.0
C4683 C 0.1092 0.3093 0.2687 0.0
C4684 C 0.10764 0.30677 0.30053 0.0
C4685 C 0.11937 0.29251 0.30015 0.0
C4686 C 0.12524 0.2861 0.28378 0.0
C4687 C 0.12003 0.29435 0.26811 0.0
H4688 H 0.4364 0.615 0.38924 0.0
H4689 H 0.49122 0.60835 0.40265 0.0
H4690 H 0.43103 0.62863 0.41759 0.0
H4691 H 0.486 0.62261 0.43105 0.0
H4692 H 0.46124 0.62424 0.48794 0.0
H4693 H 0.47161 0.61595 0.45856 0.0
H4694 H 0.43569 0.65355 0.43543 0.0
H4695 H 0.42487 0.66107 0.4646 0.0
C4696 C 0.4474 0.6168 0.39812 0.0
C4697 C 0.46421 0.61056 0.39373 0.0
C4698 C 0.44437 0.62474 0.41439 0.0
C4699 C 0.4581 0.62679 0.42667 0.0
C4700 C 0.47509 0.62108 0.42201 0.0
C4701 C 0.47811 0.61304 0.40569 0.0
C4702 C 0.4559 0.63094 0.47655 0.0
C4703 C 0.44212 0.64308 0.47844 0.0
C4704 C 0.46183 0.62625 0.45971 0.0
C4705 C 0.45421 0.63382 0.44456 0.0
C4706 C 0.44147 0.64706 0.44672 0.0
C4707 C 0.43536 0.65148 0.46344 0.0
H4708 H 0.16478 0.71665 0.16383 0.0
H4709 H 0.11285 0.71939 0.14085 0.0
H4710 H 0.15177 0.71079 0.19261 0.0
H4711 H 0.09982 0.71357 0.16971 0.0
H4712 H 0.09125 0.67202 0.21491 0.0
H4713 H 0.10049 0.68593 0.1876 0.0
H4714 H 0.13234 0.72268 0.21702 0.0
H4715 H 0.12293 0.70866 0.2446 0.0
C4716 C 0.15057 0.71623 0.16499 0.0
C4717 C 0.13982 0.71824 0.15008 0.0
C4718 C 0.14313 0.71306 0.18149 0.0
C4719 C 0.12479 0.71169 0.18338 0.0
C4720 C 0.11401 0.71445 0.16859 0.0
C4721 C 0.12146 0.71777 0.1521 0.0
C4722 C 0.09995 0.6833 0.21558 0.0
C4723 C 0.1065 0.68921 0.23182 0.0
C4724 C 0.10514 0.69134 0.19994 0.0
C4725 C 0.11718 0.70534 0.20018 0.0
C4726 C 0.12311 0.71183 0.21649 0.0
C4727 C 0.11768 0.7039 0.23223 0.0
H4728 H 0.07285 0.34347 0.96565 0.0
H4729 H 0.03828 0.37767 0.99504 0.0
H4730 H 0.0599 0.35373 0.9382 0.0
H4731 H 0.02527 0.38811 0.96735 0.0
H4732 H 0.03487 0.42087 0.91511 0.0
H4733 H 0.03934 0.40683 0.94361 0.0
H4734 H 0.03267 0.35578 0.91956 0.0
H4735 H 0.02814 0.36988 0.89092 0.0
C4736 C 0.06217 0.3529 0.96623 0.0
C4737 C 0.05663 0.35989 0.98242 0.0
C4738 C 0.05469 0.35871 0.9505 0.0
C4739 C 0.04166 0.37181 0.95062 0.0
C4740 C 0.03539 0.37808 0.9669 0.0
C4741 C 0.04272 0.37204 0.98271 0.0
C4742 C 0.03416 0.40666 0.91593 0.0
C4743 C 0.03137 0.39645 0.90077 0.0
C4744 C 0.03653 0.39863 0.93229 0.0
C4745 C 0.03633 0.38021 0.93382 0.0
C4746 C 0.03295 0.37001 0.91875 0.0
C4747 C 0.03037 0.37807 0.90238 0.0
H4748 H 0.33913 0.27733 0.66082 0.0
H4749 H 0.39183 0.27337 0.63987 0.0
H4750 H 0.35105 0.28126 0.6903 0.0
H4751 H 0.40382 0.27715 0.66952 0.0
H4752 H 0.41166 0.3174 0.71604 0.0
H4753 H 0.40402 0.30364 0.68823 0.0
H4754 H 0.36826 0.26869 0.71533 0.0
H4755 H 0.37603 0.28267 0.74345 0.0
C4756 C 0.35327 0.27703 0.66256 0.0
C4757 C 0.36457 0.27533 0.64802 0.0
C4758 C 0.3601 0.27908 0.6795 0.0
C4759 C 0.37838 0.27955 0.68224 0.0
C4760 C 0.38967 0.27696 0.66778 0.0
C4761 C 0.38282 0.27482 0.65083 0.0
C4762 C 0.4025 0.30647 0.71613 0.0
C4763 C 0.39429 0.30117 0.73181 0.0
C4764 C 0.3982 0.29849 0.7002 0.0
C4765 C 0.38544 0.28516 0.69956 0.0
C4766 C 0.37805 0.27905 0.71544 0.0
C4767 C 0.38256 0.28693 0.73151 0.0
H4768 H 0.08384 0.44726 0.41603 0.0
H4769 H 0.09856 0.48115 0.37284 0.0
H4770 H 0.05374 0.44644 0.40519 0.0
H4771 H 0.06822 0.48083 0.36223 0.0
H4772 H 0.01847 0.45439 0.33778 0.0
H4773 H 0.04775 0.46136 0.34857 0.0
H4774 H 0.0276 0.46362 0.40174 0.0
H4775 H 0.99835 0.45599 0.39093 0.0
C4776 C 0.08061 0.45458 0.40423 0.0
C4777 C 0.09357 0.46416 0.39521 0.0
C4778 C 0.06328 0.45431 0.39813 0.0
C4779 C 0.05846 0.46374 0.38292 0.0
C4780 C 0.07148 0.47333 0.3739 0.0
C4781 C 0.08887 0.47349 0.37996 0.0
C4782 C 0.02018 0.45684 0.35172 0.0
C4783 C 0.00616 0.4544 0.36354 0.0
C4784 C 0.03701 0.46085 0.35793 0.0
C4785 C 0.04014 0.46265 0.37609 0.0
C4786 C 0.02574 0.46182 0.38772 0.0
C4787 C 0.00893 0.45768 0.38152 0.0
H4788 H 0.29655 0.33652 0.16866 0.0
H4789 H 0.2637 0.35339 0.12543 0.0
H4790 H 0.29722 0.3069 0.15669 0.0
H4791 H 0.26404 0.32346 0.11354 0.0
H4792 H 0.29345 0.27499 0.08809 0.0
H4793 H 0.28489 0.30364 0.09961 0.0
H4794 H 0.27951 0.28112 0.15157 0.0
H4795 H 0.2886 0.25257 0.14011 0.0
C4796 C 0.28936 0.33385 0.15664 0.0
C4797 C 0.28016 0.34729 0.14793 0.0
C4798 C 0.28956 0.3168 0.14987 0.0
C4799 C 0.28051 0.31273 0.13424 0.0
C4800 C 0.27119 0.32617 0.12556 0.0
C4801 C 0.27101 0.3433 0.13236 0.0
C4802 C 0.28992 0.27604 0.10187 0.0
C4803 C 0.29197 0.26162 0.11326 0.0
C4804 C 0.28501 0.29249 0.10848 0.0
C4805 C 0.28194 0.29477 0.1266 0.0
C4806 C 0.28226 0.2799 0.13763 0.0
C4807 C 0.28729 0.2635 0.13104 0.0
H4808 H 0.3993 0.51802 0.86921 0.0
H4809 H 0.41301 0.54974 0.91436 0.0
H4810 H 0.42966 0.52037 0.85844 0.0
H4811 H 0.44302 0.55213 0.90365 0.0
H4812 H 0.49847 0.54293 0.8906 0.0
H4813 H 0.46915 0.5333 0.89938 0.0
H4814 H 0.44994 0.54373 0.8469 0.0
H4815 H 0.47936 0.55311 0.83802 0.0
C4816 C 0.40875 0.52554 0.87678 0.0
C4817 C 0.40378 0.53371 0.89262 0.0
C4818 C 0.42611 0.52685 0.87063 0.0
C4819 C 0.43879 0.5362 0.88034 0.0
C4820 C 0.43369 0.54448 0.89608 0.0
C4821 C 0.41641 0.54328 0.90212 0.0
C4822 C 0.48813 0.54265 0.88078 0.0
C4823 C 0.49116 0.54901 0.86369 0.0
C4824 C 0.4713 0.53729 0.88585 0.0
C4825 C 0.45716 0.53818 0.87394 0.0
C4826 C 0.46055 0.54293 0.85638 0.0
C4827 C 0.47743 0.54829 0.8513 0.0
H4828 H 0.22288 0.64068 0.61146 0.0
H4829 H 0.21842 0.6625 0.66378 0.0
H4830 H 0.21863 0.67002 0.59891 0.0
H4831 H 0.21409 0.69172 0.65126 0.0
H4832 H 0.21371 0.74444 0.62431 0.0
H4833 H 0.22715 0.71638 0.63323 0.0
H4834 H 0.19166 0.68857 0.5986 0.0
H4835 H 0.17836 0.71631 0.58988 0.0
C4836 C 0.22121 0.65176 0.62026 0.0
C4837 C 0.22073 0.64929 0.63857 0.0
C4838 C 0.2188 0.66854 0.61309 0.0
C4839 C 0.216 0.68315 0.62411 0.0
C4840 C 0.21643 0.68076 0.64244 0.0
C4841 C 0.21871 0.66399 0.6496 0.0
C4842 C 0.20917 0.73232 0.61833 0.0
C4843 C 0.19494 0.73244 0.60656 0.0
C4844 C 0.21675 0.71631 0.62348 0.0
C4845 C 0.21039 0.70029 0.61667 0.0
C4846 C 0.19698 0.70066 0.60397 0.0
C4847 C 0.18927 0.71655 0.59906 0.0
H4848 H 0.10913 0.52707 0.13244 0.0
H4849 H 0.08553 0.52971 0.08077 0.0
H4850 H 0.0802 0.53177 0.14583 0.0
H4851 H 0.05673 0.53442 0.09412 0.0
H4852 H 0.00492 0.53427 0.12308 0.0
H4853 H 0.03295 0.52141 0.11339 0.0
H4854 H 0.0611 0.55854 0.14594 0.0
H4855 H 0.03334 0.57129 0.15547 0.0
C4856 C 0.09774 0.52843 0.12397 0.0
C4857 C 0.0996 0.52824 0.10557 0.0
C4858 C 0.08121 0.53112 0.13162 0.0
C4859 C 0.06622 0.53347 0.12102 0.0
C4860 C 0.06799 0.53243 0.10264 0.0
C4861 C 0.08452 0.52991 0.095 0.0
C4862 C 0.01711 0.53934 0.12844 0.0
C4863 C 0.01702 0.55383 0.13989 0.0
C4864 C 0.03312 0.53208 0.12283 0.0
C4865 C 0.04921 0.53903 0.12885 0.0
C4866 C 0.04896 0.55278 0.14119 0.0
C4867 C 0.03305 0.56016 0.14656 0.0
H4868 H 0.18404 0.35174 0.846 0.0
H4869 H 0.23669 0.34904 0.86729 0.0
H4870 H 0.17679 0.32405 0.86027 0.0
H4871 H 0.22934 0.32099 0.88168 0.0
H4872 H 0.20886 0.26031 0.8824 0.0
H4873 H 0.22013 0.28884 0.87198 0.0
H4874 H 0.17349 0.31441 0.89197 0.0
H4875 H 0.1623 0.28628 0.90217 0.0
C4876 C 0.19406 0.34524 0.85379 0.0
C4877 C 0.2109 0.35259 0.85561 0.0
C4878 C 0.18989 0.32941 0.86202 0.0
C4879 C 0.20247 0.32046 0.87219 0.0
C4880 C 0.21942 0.32764 0.8739 0.0
C4881 C 0.22357 0.3437 0.86577 0.0
C4882 C 0.20126 0.27211 0.88486 0.0
C4883 C 0.18459 0.27107 0.89282 0.0
C4884 C 0.20769 0.2884 0.87893 0.0
C4885 C 0.1975 0.30374 0.88091 0.0
C4886 C 0.18145 0.30275 0.88997 0.0
C4887 C 0.17507 0.28662 0.89583 0.0
H4888 H 0.39867 0.48443 0.63842 0.0
H4889 H 0.41697 0.46361 0.58879 0.0
H4890 H 0.42881 0.4834 0.64988 0.0
H4891 H 0.4467 0.46216 0.6002 0.0
H4892 H 0.5005 0.4669 0.61843 0.0
H4893 H 0.47192 0.4784 0.60945 0.0
H4894 H 0.44949 0.46099 0.65876 0.0
H4895 H 0.47818 0.45015 0.66795 0.0
C4896 C 0.40913 0.47972 0.62996 0.0
C4897 C 0.40545 0.474 0.61276 0.0
C4898 C 0.42637 0.4791 0.63651 0.0
C4899 C 0.44025 0.4728 0.62594 0.0
C4900 C 0.43649 0.46747 0.60862 0.0
C4901 C 0.41935 0.4681 0.60211 0.0
C4902 C 0.4896 0.4661 0.62758 0.0
C4903 C 0.49151 0.45739 0.64377 0.0
C4904 C 0.47316 0.47251 0.62238 0.0
C4905 C 0.45828 0.47016 0.63317 0.0
C4906 C 0.46062 0.46304 0.65009 0.0
C4907 C 0.47711 0.45678 0.65537 0.0
H4908 H 0.28342 0.63776 0.38715 0.0
H4909 H 0.28385 0.65938 0.33455 0.0
H4910 H 0.28952 0.66699 0.39917 0.0
H4911 H 0.28995 0.68853 0.34655 0.0
H4912 H 0.29118 0.74134 0.3745 0.0
H4913 H 0.27789 0.71312 0.36595 0.0
H4914 H 0.31678 0.68555 0.39693 0.0
H4915 H 0.32999 0.71347 0.40528 0.0
C4916 C 0.28465 0.64878 0.37819 0.0
C4917 C 0.28338 0.64628 0.35991 0.0
C4918 C 0.28812 0.66548 0.38505 0.0
C4919 C 0.29021 0.68002 0.37379 0.0
C4920 C 0.2882 0.67762 0.35556 0.0
C4921 C 0.28489 0.6609 0.34869 0.0
C4922 C 0.29659 0.72923 0.37973 0.0
C4923 C 0.31166 0.72951 0.39041 0.0
C4924 C 0.28908 0.71313 0.37478 0.0
C4925 C 0.29635 0.69716 0.38074 0.0
C4926 C 0.31078 0.69761 0.39226 0.0
C4927 C 0.31841 0.7136 0.39694 0.0
H4928 H 0.36392 0.10887 0.47028 0.0
H4929 H 0.41568 0.08616 0.46415 0.0
H4930 H 0.35076 0.07972 0.4668 0.0
H4931 H 0.40255 0.05711 0.46055 0.0
H4932 H 0.37498 0.00485 0.46201 0.0
H4933 H 0.38484 0.03295 0.47457 0.0
H4934 H 0.34881 0.06068 0.44041 0.0
H4935 H 0.33911 0.03286 0.42799 0.0
C4936 C 0.37249 0.09763 0.46838 0.0
C4937 C 0.39081 0.0998 0.46724 0.0
C4938 C 0.36496 0.08096 0.4664 0.0
C4939 C 0.37562 0.06614 0.46337 0.0
C4940 C 0.39399 0.06823 0.46309 0.0
C4941 C 0.4015 0.0849 0.46496 0.0
C4942 C 0.36888 0.01696 0.4576 0.0
C4943 C 0.35641 0.01676 0.44397 0.0
C4944 C 0.37459 0.03301 0.46466 0.0
C4945 C 0.36768 0.04902 0.45837 0.0
C4946 C 0.35429 0.04861 0.44565 0.0
C4947 C 0.3488 0.03267 0.43846 0.0
H4948 H 0.91583 0.41357 0.53379 0.0
H4949 H 0.86409 0.39067 0.52827 0.0
H4950 H 0.90255 0.44248 0.53826 0.0
H4951 H 0.85082 0.41963 0.5326 0.0
H4952 H 0.83928 0.46577 0.57211 0.0
H4953 H 0.84925 0.43819 0.55934 0.0
H4954 H 0.88429 0.46673 0.52482 0.0
H4955 H 0.87414 0.49459 0.53773 0.0
C4956 C 0.90163 0.41476 0.53333 0.0
C4957 C 0.89098 0.39984 0.53093 0.0
C4958 C 0.89403 0.43134 0.5357 0.0
C4959 C 0.87564 0.43331 0.53579 0.0
C4960 C 0.86503 0.41848 0.53271 0.0
C4961 C 0.87262 0.40191 0.53026 0.0
C4962 C 0.8488 0.46619 0.56149 0.0
C4963 C 0.85604 0.48225 0.55594 0.0
C4964 C 0.85445 0.45039 0.55411 0.0
C4965 C 0.86764 0.45029 0.54116 0.0
C4966 C 0.8742 0.46644 0.53489 0.0
C4967 C 0.86831 0.48236 0.54214 0.0
H4968 H 0.35184 0.12897 0.26085 0.0
H4969 H 0.35323 0.15345 0.31216 0.0
H4970 H 0.3238 0.11475 0.26851 0.0
H4971 H 0.32555 0.1393 0.31974 0.0
H4972 H 0.28766 0.09778 0.33565 0.0
H4973 H 0.31596 0.10769 0.32465 0.0
H4974 H 0.2914 0.125 0.27642 0.0
H4975 H 0.26268 0.11493 0.28751 0.0
C4976 C 0.34622 0.13121 0.27376 0.0
C4977 C 0.35473 0.14224 0.28595 0.0
C4978 C 0.33017 0.12318 0.27808 0.0
C4979 C 0.3226 0.12586 0.29474 0.0
C4980 C 0.3312 0.13683 0.30688 0.0
C4981 C 0.34703 0.14498 0.30252 0.0
C4982 C 0.28825 0.10348 0.32259 0.0
C4983 C 0.27291 0.10584 0.31254 0.0
C4984 C 0.30448 0.10917 0.31632 0.0
C4985 C 0.3058 0.11736 0.29983 0.0
C4986 C 0.2907 0.11871 0.2892 0.0
C4987 C 0.27431 0.11299 0.29553 0.0
H4988 H 0.62509 0.6047 0.01604 0.0
H4989 H 0.5814 0.58799 0.04834 0.0
H4990 H 0.63607 0.5744 0.01527 0.0
H4991 H 0.59244 0.558 0.04789 0.0
H4992 H 0.60715 0.50357 0.03714 0.0
H4993 H 0.59672 0.53279 0.02901 0.0
H4994 H 0.64933 0.55335 0.03554 0.0
H4995 H 0.65983 0.52403 0.04316 0.0
C4996 C 0.61787 0.59456 0.02299 0.0
C4997 C 0.60243 0.59871 0.03231 0.0
C4998 C 0.62414 0.57723 0.02254 0.0
C4999 C 0.61504 0.56373 0.03136 0.0
C5000 C 0.59956 0.56796 0.04059 0.0
C5001 C 0.59333 0.58522 0.04104 0.0
C5002 C 0.61659 0.51422 0.03626 0.0
C5003 C 0.63425 0.51157 0.04102 0.0
C5004 C 0.61059 0.531 0.03179 0.0
C5005 C 0.6221 0.54549 0.03211 0.0
C5006 C 0.6401 0.5425 0.03518 0.0
C5007 C 0.64613 0.52567 0.03955 0.0
H5008 H 0.65154 0.33325 0.31004 0.0
H5009 H 0.64398 0.37266 0.26972 0.0
H5010 H 0.67934 0.34681 0.31817 0.0
H5011 H 0.67215 0.38631 0.27797 0.0
H5012 H 0.73464 0.38978 0.29142 0.0
H5013 H 0.70678 0.37806 0.27964 0.0
H5014 H 0.68516 0.37704 0.33218 0.0
H5015 H 0.71249 0.38858 0.34383 0.0
C5016 C 0.65585 0.34479 0.30286 0.0
C5017 C 0.6455 0.352 0.28936 0.0
C5018 C 0.67176 0.35255 0.30754 0.0
C5019 C 0.67778 0.36766 0.29877 0.0
C5020 C 0.66777 0.37463 0.28488 0.0
C5021 C 0.65166 0.36691 0.28026 0.0
C5022 C 0.72383 0.3872 0.30035 0.0
C5023 C 0.72582 0.38988 0.31856 0.0
C5024 C 0.70793 0.38057 0.29363 0.0
C5025 C 0.69398 0.37644 0.30507 0.0
C5026 C 0.69582 0.37983 0.32311 0.0
C5027 C 0.7115 0.38648 0.32976 0.0
H5028 H 0.1596 0.96475 0.92514 0.0
H5029 H 0.1267 0.99415 0.96095 0.0
H5030 H 0.15042 0.93739 0.93894 0.0
H5031 H 0.11731 0.9665 0.97485 0.0
H5032 H 0.08549 0.91303 0.9677 0.0
H5033 H 0.09842 0.94192 0.96237 0.0
H5034 H 0.15046 0.91944 0.96658 0.0
H5035 H 0.13751 0.89046 0.97189 0.0
C5036 C 0.15066 0.96535 0.93624 0.0
C5037 C 0.14375 0.98151 0.94193 0.0
C5038 C 0.14549 0.94968 0.94422 0.0
C5039 C 0.13309 0.9498 0.95792 0.0
C5040 C 0.12682 0.96605 0.96424 0.0
C5041 C 0.13225 0.98184 0.95639 0.0
C5042 C 0.09969 0.9143 0.96772 0.0
C5043 C 0.11051 0.89947 0.96998 0.0
C5044 C 0.10709 0.93088 0.96485 0.0
C5045 C 0.12544 0.93292 0.96404 0.0
C5046 C 0.13626 0.91821 0.96704 0.0
C5047 C 0.12886 0.90164 0.97007 0.0
H5048 H 0.34023 0.8347 0.21631 0.0
H5049 H 0.36289 0.8868 0.21796 0.0
H5050 H 0.31114 0.84746 0.21164 0.0
H5051 H 0.3337 0.89958 0.21329 0.0
H5052 H 0.28665 0.90754 0.17362 0.0
H5053 H 0.3146 0.89863 0.1864 0.0
H5054 H 0.28709 0.86676 0.2246 0.0
H5055 H 0.25883 0.87589 0.21175 0.0
C5056 C 0.33895 0.84889 0.2159 0.0
C5057 C 0.35385 0.85976 0.21727 0.0
C5058 C 0.32227 0.85619 0.2134 0.0
C5059 C 0.32016 0.87451 0.21209 0.0
C5060 C 0.33497 0.88541 0.21417 0.0
C5061 C 0.35165 0.8781 0.21683 0.0
C5062 C 0.28654 0.89891 0.18498 0.0
C5063 C 0.27063 0.89228 0.19164 0.0
C5064 C 0.30255 0.89391 0.19237 0.0
C5065 C 0.30303 0.88196 0.20645 0.0
C5066 C 0.28707 0.87594 0.21369 0.0
C5067 C 0.27094 0.88121 0.20643 0.0
H5068 H 0.14729 0.12682 0.73213 0.0
H5069 H 0.1532 0.16641 0.69172 0.0
H5070 H 0.17585 0.11415 0.72375 0.0
H5071 H 0.18144 0.15378 0.68343 0.0
H5072 H 0.21642 0.11301 0.65801 0.0
H5073 H 0.18877 0.12413 0.66941 0.0
H5074 H 0.2098 0.12312 0.72218 0.0
H5075 H 0.23795 0.11188 0.71067 0.0
C5076 C 0.1547 0.13283 0.72153 0.0
C5077 C 0.14797 0.1475 0.71247 0.0
C5078 C 0.17104 0.12565 0.71684 0.0
C5079 C 0.18074 0.13293 0.70288 0.0
C5080 C 0.17413 0.1478 0.69411 0.0
C5081 C 0.15797 0.15504 0.69889 0.0
C5082 C 0.21523 0.11504 0.67208 0.0
C5083 C 0.22945 0.11174 0.68343 0.0
C5084 C 0.19937 0.12147 0.67857 0.0
C5085 C 0.19725 0.1247 0.69662 0.0
C5086 C 0.21116 0.12073 0.70819 0.0
C5087 C 0.22722 0.11436 0.70162 0.0
loop_
_geom_bond_atom_site_label_1
_geom_bond_atom_site_label_2
_geom_bond_distance
_geom_bond_site_symmetry_2
_ccdc_geom_bond_type
In0 O1 2.294 . S
In0 O2 2.326 . S
In0 O6 2.266 . S
In0 O7 2.326 . S
In0 O8 2.266 . S
In0 O9 2.326 . S
In0 O11 2.294 . S
In0 O12 2.326 1_455 S
O1 In0 2.294 . S
O1 C10 1.240 . S
O2 In0 2.326 . S
O2 C10 1.252 . S
C3 O6 1.252 . S
C3 O7 1.260 . S
C4 O11 1.206 1_655 S
C4 O12 1.255 . S
C5 O8 1.252 . S
C5 O9 1.260 . S
O6 In0 2.266 . S
O6 C3 1.252 . S
O7 In0 2.326 . S
O7 C3 1.260 . S
O8 In0 2.266 . S
O8 C5 1.252 . S
O9 In0 2.326 . S
O9 C5 1.260 . S
C10 O1 1.240 . S
C10 O2 1.252 . S
O11 In0 2.294 . S
O11 C4 1.206 1_455 S
O12 In0 2.326 1_655 S
O12 C4 1.255 . S
In13 O14 2.294 . S
In13 O15 2.326 . S
In13 O19 2.266 . S
In13 O20 2.326 . S
In13 O21 2.266 . S
In13 O22 2.326 . S
In13 O24 2.294 . S
In13 O25 2.326 . S
O14 In13 2.294 . S
O14 C23 1.240 . S
O15 In13 2.326 . S
O15 C23 1.252 . S
C16 O19 1.252 . S
C16 O20 1.260 . S
C17 O24 1.240 . S
C17 O25 1.252 . S
C18 O21 1.252 . S
C18 O22 1.260 . S
O19 In13 2.266 . S
O19 C16 1.252 . S
O20 In13 2.326 . S
O20 C16 1.260 . S
O21 In13 2.266 . S
O21 C18 1.252 . S
O22 In13 2.326 . S
O22 C18 1.260 . S
C23 O14 1.240 . S
C23 O15 1.252 . S
O24 In13 2.294 . S
O24 C17 1.240 . S
O25 In13 2.326 . S
O25 C17 1.252 . S
In26 O27 2.294 . S
In26 O28 2.326 . S
In26 O32 2.266 . S
In26 O33 2.326 . S
In26 O34 2.266 . S
In26 O35 2.326 . S
In26 O37 2.294 . S
In26 O38 2.326 . S
O27 In26 2.294 . S
O27 C36 1.240 . S
O28 In26 2.326 . S
O28 C36 1.252 . S
C29 O32 1.252 . S
C29 O33 1.260 . S
C30 O37 1.240 . S
C30 O38 1.252 . S
C31 O34 1.252 . S
C31 O35 1.260 . S
O32 In26 2.266 . S
O32 C29 1.252 . S
O33 In26 2.326 . S
O33 C29 1.260 . S
O34 In26 2.266 . S
O34 C31 1.252 . S
O35 In26 2.326 . S
O35 C31 1.260 . S
C36 O27 1.240 . S
C36 O28 1.252 . S
O37 In26 2.294 . S
O37 C30 1.240 . S
O38 In26 2.326 . S
O38 C30 1.252 . S
In39 O40 2.294 . S
In39 O41 2.326 . S
In39 O45 2.266 . S
In39 O46 2.326 . S
In39 O47 2.266 . S
In39 O48 2.326 . S
In39 O50 2.294 . S
In39 O51 2.326 . S
O40 In39 2.294 . S
O40 C49 1.240 . S
O41 In39 2.326 . S
O41 C49 1.252 . S
C42 O45 1.252 . S
C42 O46 1.260 . S
C43 O50 1.240 . S
C43 O51 1.252 . S
C44 O47 1.252 . S
C44 O48 1.260 . S
O45 In39 2.266 . S
O45 C42 1.252 . S
O46 In39 2.326 . S
O46 C42 1.260 . S
O47 In39 2.266 . S
O47 C44 1.252 . S
O48 In39 2.326 . S
O48 C44 1.260 . S
C49 O40 1.240 . S
C49 O41 1.252 . S
O50 In39 2.294 . S
O50 C43 1.240 . S
O51 In39 2.326 . S
O51 C43 1.252 . S
In52 O53 2.294 . S
In52 O54 2.326 . S
In52 O58 2.266 . S
In52 O59 2.326 . S
In52 O60 2.266 . S
In52 O61 2.326 . S
In52 O63 2.294 . S
In52 O64 2.326 1_455 S
O53 In52 2.294 . S
O53 C62 1.240 . S
O54 In52 2.326 . S
O54 C62 1.252 . S
C55 O58 1.252 . S
C55 O59 1.260 . S
C56 O63 1.206 1_655 S
C56 O64 1.255 . S
C57 O60 1.252 . S
C57 O61 1.260 . S
O58 In52 2.266 . S
O58 C55 1.252 . S
O59 In52 2.326 . S
O59 C55 1.260 . S
O60 In52 2.266 . S
O60 C57 1.252 . S
O61 In52 2.326 . S
O61 C57 1.260 . S
C62 O53 1.240 . S
C62 O54 1.252 . S
O63 In52 2.294 . S
O63 C56 1.206 1_455 S
O64 In52 2.326 1_655 S
O64 C56 1.255 . S
In65 O66 2.294 . S
In65 O67 2.326 . S
In65 O71 2.266 . S
In65 O72 2.326 . S
In65 O73 2.266 . S
In65 O74 2.326 . S
In65 O76 2.294 . S
In65 O77 2.326 . S
O66 In65 2.294 . S
O66 C75 1.240 . S
O67 In65 2.326 . S
O67 C75 1.252 . S
C68 O71 1.252 . S
C68 O72 1.260 . S
C69 O76 1.240 . S
C69 O77 1.252 . S
C70 O73 1.252 . S
C70 O74 1.260 . S
O71 In65 2.266 . S
O71 C68 1.252 . S
O72 In65 2.326 . S
O72 C68 1.260 . S
O73 In65 2.266 . S
O73 C70 1.252 . S
O74 In65 2.326 . S
O74 C70 1.260 . S
C75 O66 1.240 . S
C75 O67 1.252 . S
O76 In65 2.294 . S
O76 C69 1.240 . S
O77 In65 2.326 . S
O77 C69 1.252 . S
In78 O79 2.294 . S
In78 O80 2.326 . S
In78 O84 2.266 . S
In78 O85 2.326 . S
In78 O86 2.266 . S
In78 O87 2.326 . S
In78 O89 2.294 . S
In78 O90 2.326 . S
O79 In78 2.294 . S
O79 C88 1.240 . S
O80 In78 2.326 . S
O80 C88 1.252 . S
C81 O84 1.252 . S
C81 O85 1.260 . S
C82 O89 1.240 . S
C82 O90 1.252 . S
C83 O86 1.252 . S
C83 O87 1.260 . S
O84 In78 2.266 . S
O84 C81 1.252 . S
O85 In78 2.326 . S
O85 C81 1.260 . S
O86 In78 2.266 . S
O86 C83 1.252 . S
O87 In78 2.326 . S
O87 C83 1.260 . S
C88 O79 1.240 . S
C88 O80 1.252 . S
O89 In78 2.294 . S
O89 C82 1.240 . S
O90 In78 2.326 . S
O90 C82 1.252 . S
In91 O92 2.294 . S
In91 O93 2.326 . S
In91 O97 2.266 . S
In91 O98 2.326 . S
In91 O99 2.266 . S
In91 O100 2.326 . S
In91 O102 2.294 . S
In91 O103 2.326 . S
O92 In91 2.294 . S
O92 C101 1.240 . S
O93 In91 2.326 . S
O93 C101 1.252 . S
C94 O97 1.252 . S
C94 O98 1.260 . S
C95 O102 1.240 . S
C95 O103 1.252 . S
C96 O99 1.252 . S
C96 O100 1.260 . S
O97 In91 2.266 . S
O97 C94 1.252 . S
O98 In91 2.326 . S
O98 C94 1.260 . S
O99 In91 2.266 . S
O99 C96 1.252 . S
O100 In91 2.326 . S
O100 C96 1.260 . S
C101 O92 1.240 . S
C101 O93 1.252 . S
O102 In91 2.294 . S
O102 C95 1.240 . S
O103 In91 2.326 . S
O103 C95 1.252 . S
In104 O105 2.294 . S
In104 O106 2.326 1_545 S
In104 O110 2.266 . S
In104 O111 2.326 . S
In104 O112 2.266 . S
In104 O113 2.326 . S
In104 O115 2.294 . S
In104 O116 2.326 . S
O105 In104 2.294 . S
O105 C114 1.206 1_545 S
O106 In104 2.326 1_565 S
O106 C114 1.255 . S
C107 O110 1.252 . S
C107 O111 1.260 . S
C108 O115 1.240 . S
C108 O116 1.252 . S
C109 O112 1.252 . S
C109 O113 1.260 . S
O110 In104 2.266 . S
O110 C107 1.252 . S
O111 In104 2.326 . S
O111 C107 1.260 . S
O112 In104 2.266 . S
O112 C109 1.252 . S
O113 In104 2.326 . S
O113 C109 1.260 . S
C114 O105 1.206 1_565 S
C114 O106 1.255 . S
O115 In104 2.294 . S
O115 C108 1.240 . S
O116 In104 2.326 . S
O116 C108 1.252 . S
In117 O118 2.294 . S
In117 O119 2.326 . S
In117 O123 2.266 . S
In117 O124 2.326 . S
In117 O125 2.266 . S
In117 O126 2.326 . S
In117 O128 2.294 . S
In117 O129 2.326 . S
O118 In117 2.294 . S
O118 C127 1.240 . S
O119 In117 2.326 . S
O119 C127 1.252 . S
C120 O123 1.252 . S
C120 O124 1.260 . S
C121 O128 1.240 . S
C121 O129 1.252 . S
C122 O125 1.252 . S
C122 O126 1.260 . S
O123 In117 2.266 . S
O123 C120 1.252 . S
O124 In117 2.326 . S
O124 C120 1.260 . S
O125 In117 2.266 . S
O125 C122 1.252 . S
O126 In117 2.326 . S
O126 C122 1.260 . S
C127 O118 1.240 . S
C127 O119 1.252 . S
O128 In117 2.294 . S
O128 C121 1.240 . S
O129 In117 2.326 . S
O129 C121 1.252 . S
In130 O131 2.294 . S
In130 O132 2.326 1_565 S
In130 O136 2.266 . S
In130 O137 2.326 . S
In130 O138 2.266 . S
In130 O139 2.326 . S
In130 O141 2.294 . S
In130 O142 2.326 . S
O131 In130 2.294 . S
O131 C140 1.206 1_565 S
O132 In130 2.326 1_545 S
O132 C140 1.255 . S
C133 O136 1.252 . S
C133 O137 1.260 . S
C134 O141 1.240 . S
C134 O142 1.252 . S
C135 O138 1.252 . S
C135 O139 1.260 . S
O136 In130 2.266 . S
O136 C133 1.252 . S
O137 In130 2.326 . S
O137 C133 1.260 . S
O138 In130 2.266 . S
O138 C135 1.252 . S
O139 In130 2.326 . S
O139 C135 1.260 . S
C140 O131 1.206 1_545 S
C140 O132 1.255 . S
O141 In130 2.294 . S
O141 C134 1.240 . S
O142 In130 2.326 . S
O142 C134 1.252 . S
In143 O144 2.294 . S
In143 O145 2.326 . S
In143 O149 2.266 . S
In143 O150 2.326 . S
In143 O151 2.266 . S
In143 O152 2.326 . S
In143 O154 2.294 . S
In143 O155 2.326 . S
O144 In143 2.294 . S
O144 C153 1.240 . S
O145 In143 2.326 . S
O145 C153 1.252 . S
C146 O149 1.252 . S
C146 O150 1.260 . S
C147 O154 1.240 . S
C147 O155 1.252 . S
C148 O151 1.252 . S
C148 O152 1.260 . S
O149 In143 2.266 . S
O149 C146 1.252 . S
O150 In143 2.326 . S
O150 C146 1.260 . S
O151 In143 2.266 . S
O151 C148 1.252 . S
O152 In143 2.326 . S
O152 C148 1.260 . S
C153 O144 1.240 . S
C153 O145 1.252 . S
O154 In143 2.294 . S
O154 C147 1.240 . S
O155 In143 2.326 . S
O155 C147 1.252 . S
In156 O157 2.294 . S
In156 O158 2.326 1_565 S
In156 O162 2.266 . S
In156 O163 2.326 . S
In156 O164 2.266 . S
In156 O165 2.326 . S
In156 O167 2.294 . S
In156 O168 2.326 . S
O157 In156 2.294 . S
O157 C166 1.206 1_565 S
O158 In156 2.326 1_545 S
O158 C166 1.255 . S
C159 O162 1.252 . S
C159 O163 1.260 . S
C160 O167 1.240 . S
C160 O168 1.252 . S
C161 O164 1.252 . S
C161 O165 1.260 . S
O162 In156 2.266 . S
O162 C159 1.252 . S
O163 In156 2.326 . S
O163 C159 1.260 . S
O164 In156 2.266 . S
O164 C161 1.252 . S
O165 In156 2.326 . S
O165 C161 1.260 . S
C166 O157 1.206 1_545 S
C166 O158 1.255 . S
O167 In156 2.294 . S
O167 C160 1.240 . S
O168 In156 2.326 . S
O168 C160 1.252 . S
In169 O170 2.294 . S
In169 O171 2.326 . S
In169 O175 2.266 . S
In169 O176 2.326 . S
In169 O177 2.266 . S
In169 O178 2.326 . S
In169 O180 2.294 . S
In169 O181 2.326 . S
O170 In169 2.294 . S
O170 C179 1.240 . S
O171 In169 2.326 . S
O171 C179 1.252 . S
C172 O175 1.252 . S
C172 O176 1.260 . S
C173 O180 1.240 . S
C173 O181 1.252 . S
C174 O177 1.252 . S
C174 O178 1.260 . S
O175 In169 2.266 . S
O175 C172 1.252 . S
O176 In169 2.326 . S
O176 C172 1.260 . S
O177 In169 2.266 . S
O177 C174 1.252 . S
O178 In169 2.326 . S
O178 C174 1.260 . S
C179 O170 1.240 . S
C179 O171 1.252 . S
O180 In169 2.294 . S
O180 C173 1.240 . S
O181 In169 2.326 . S
O181 C173 1.252 . S
In182 O183 2.294 . S
In182 O184 2.326 1_545 S
In182 O188 2.266 . S
In182 O189 2.326 . S
In182 O190 2.266 . S
In182 O191 2.326 . S
In182 O193 2.294 . S
In182 O194 2.326 . S
O183 In182 2.294 . S
O183 C192 1.206 1_545 S
O184 In182 2.326 1_565 S
O184 C192 1.255 . S
C185 O188 1.252 . S
C185 O189 1.260 . S
C186 O193 1.240 . S
C186 O194 1.252 . S
C187 O190 1.252 . S
C187 O191 1.260 . S
O188 In182 2.266 . S
O188 C185 1.252 . S
O189 In182 2.326 . S
O189 C185 1.260 . S
O190 In182 2.266 . S
O190 C187 1.252 . S
O191 In182 2.326 . S
O191 C187 1.260 . S
C192 O183 1.206 1_565 S
C192 O184 1.255 . S
O193 In182 2.294 . S
O193 C186 1.240 . S
O194 In182 2.326 . S
O194 C186 1.252 . S
In195 O196 2.294 . S
In195 O197 2.326 . S
In195 O201 2.266 . S
In195 O202 2.326 . S
In195 O203 2.266 . S
In195 O204 2.326 . S
In195 O206 2.294 . S
In195 O207 2.326 . S
O196 In195 2.294 . S
O196 C205 1.240 . S
O197 In195 2.326 . S
O197 C205 1.252 . S
C198 O201 1.252 . S
C198 O202 1.260 . S
C199 O206 1.240 . S
C199 O207 1.252 . S
C200 O203 1.252 . S
C200 O204 1.260 . S
O201 In195 2.266 . S
O201 C198 1.252 . S
O202 In195 2.326 . S
O202 C198 1.260 . S
O203 In195 2.266 . S
O203 C200 1.252 . S
O204 In195 2.326 . S
O204 C200 1.260 . S
C205 O196 1.240 . S
C205 O197 1.252 . S
O206 In195 2.294 . S
O206 C199 1.240 . S
O207 In195 2.326 . S
O207 C199 1.252 . S
In208 O209 2.294 . S
In208 O210 2.326 1_554 S
In208 O214 2.266 . S
In208 O215 2.326 . S
In208 O216 2.266 . S
In208 O217 2.326 . S
In208 O219 2.294 . S
In208 O220 2.326 . S
O209 In208 2.294 . S
O209 C218 1.206 1_554 S
O210 In208 2.326 1_556 S
O210 C218 1.255 . S
C211 O214 1.252 . S
C211 O215 1.260 . S
C212 O219 1.240 . S
C212 O220 1.252 . S
C213 O216 1.252 . S
C213 O217 1.260 . S
O214 In208 2.266 . S
O214 C211 1.252 . S
O215 In208 2.326 . S
O215 C211 1.260 . S
O216 In208 2.266 . S
O216 C213 1.252 . S
O217 In208 2.326 . S
O217 C213 1.260 . S
C218 O209 1.206 1_556 S
C218 O210 1.255 . S
O219 In208 2.294 . S
O219 C212 1.240 . S
O220 In208 2.326 . S
O220 C212 1.252 . S
In221 O222 2.294 . S
In221 O223 2.326 1_556 S
In221 O227 2.266 . S
In221 O228 2.326 . S
In221 O229 2.266 . S
In221 O230 2.326 . S
In221 O232 2.294 . S
In221 O233 2.326 . S
O222 In221 2.294 . S
O222 C231 1.206 1_556 S
O223 In221 2.326 1_554 S
O223 C231 1.255 . S
C224 O227 1.252 . S
C224 O228 1.260 . S
C225 O232 1.240 . S
C225 O233 1.252 . S
C226 O229 1.252 . S
C226 O230 1.260 . S
O227 In221 2.266 . S
O227 C224 1.252 . S
O228 In221 2.326 . S
O228 C224 1.260 . S
O229 In221 2.266 . S
O229 C226 1.252 . S
O230 In221 2.326 . S
O230 C226 1.260 . S
C231 O222 1.206 1_554 S
C231 O223 1.255 . S
O232 In221 2.294 . S
O232 C225 1.240 . S
O233 In221 2.326 . S
O233 C225 1.252 . S
In234 O235 2.294 . S
In234 O236 2.326 . S
In234 O240 2.266 . S
In234 O241 2.326 . S
In234 O242 2.266 . S
In234 O243 2.326 . S
In234 O245 2.294 . S
In234 O246 2.326 . S
O235 In234 2.294 . S
O235 C244 1.240 . S
O236 In234 2.326 . S
O236 C244 1.252 . S
C237 O240 1.252 . S
C237 O241 1.260 . S
C238 O245 1.240 . S
C238 O246 1.252 . S
C239 O242 1.252 . S
C239 O243 1.260 . S
O240 In234 2.266 . S
O240 C237 1.252 . S
O241 In234 2.326 . S
O241 C237 1.260 . S
O242 In234 2.266 . S
O242 C239 1.252 . S
O243 In234 2.326 . S
O243 C239 1.260 . S
C244 O235 1.240 . S
C244 O236 1.252 . S
O245 In234 2.294 . S
O245 C238 1.240 . S
O246 In234 2.326 . S
O246 C238 1.252 . S
In247 O248 2.294 . S
In247 O249 2.326 . S
In247 O253 2.266 . S
In247 O254 2.326 . S
In247 O255 2.266 . S
In247 O256 2.326 . S
In247 O258 2.294 . S
In247 O259 2.326 . S
O248 In247 2.294 . S
O248 C257 1.240 . S
O249 In247 2.326 . S
O249 C257 1.252 . S
C250 O253 1.252 . S
C250 O254 1.260 . S
C251 O258 1.240 . S
C251 O259 1.252 . S
C252 O255 1.252 . S
C252 O256 1.260 . S
O253 In247 2.266 . S
O253 C250 1.252 . S
O254 In247 2.326 . S
O254 C250 1.260 . S
O255 In247 2.266 . S
O255 C252 1.252 . S
O256 In247 2.326 . S
O256 C252 1.260 . S
C257 O248 1.240 . S
C257 O249 1.252 . S
O258 In247 2.294 . S
O258 C251 1.240 . S
O259 In247 2.326 . S
O259 C251 1.252 . S
In260 O261 2.294 . S
In260 O262 2.326 . S
In260 O266 2.266 . S
In260 O267 2.326 . S
In260 O268 2.266 . S
In260 O269 2.326 . S
In260 O271 2.294 . S
In260 O272 2.326 . S
O261 In260 2.294 . S
O261 C270 1.240 . S
O262 In260 2.326 . S
O262 C270 1.252 . S
C263 O266 1.252 . S
C263 O267 1.260 . S
C264 O271 1.240 . S
C264 O272 1.252 . S
C265 O268 1.252 . S
C265 O269 1.260 . S
O266 In260 2.266 . S
O266 C263 1.252 . S
O267 In260 2.326 . S
O267 C263 1.260 . S
O268 In260 2.266 . S
O268 C265 1.252 . S
O269 In260 2.326 . S
O269 C265 1.260 . S
C270 O261 1.240 . S
C270 O262 1.252 . S
O271 In260 2.294 . S
O271 C264 1.240 . S
O272 In260 2.326 . S
O272 C264 1.252 . S
In273 O274 2.294 . S
In273 O275 2.326 . S
In273 O279 2.266 . S
In273 O280 2.326 . S
In273 O281 2.266 . S
In273 O282 2.326 . S
In273 O284 2.294 . S
In273 O285 2.326 . S
O274 In273 2.294 . S
O274 C283 1.240 . S
O275 In273 2.326 . S
O275 C283 1.252 . S
C276 O279 1.252 . S
C276 O280 1.260 . S
C277 O284 1.240 . S
C277 O285 1.252 . S
C278 O281 1.252 . S
C278 O282 1.260 . S
O279 In273 2.266 . S
O279 C276 1.252 . S
O280 In273 2.326 . S
O280 C276 1.260 . S
O281 In273 2.266 . S
O281 C278 1.252 . S
O282 In273 2.326 . S
O282 C278 1.260 . S
C283 O274 1.240 . S
C283 O275 1.252 . S
O284 In273 2.294 . S
O284 C277 1.240 . S
O285 In273 2.326 . S
O285 C277 1.252 . S
In286 O287 2.294 . S
In286 O288 2.326 . S
In286 O292 2.266 . S
In286 O293 2.326 . S
In286 O294 2.266 . S
In286 O295 2.326 . S
In286 O297 2.294 . S
In286 O298 2.326 . S
O287 In286 2.294 . S
O287 C296 1.240 . S
O288 In286 2.326 . S
O288 C296 1.252 . S
C289 O292 1.252 . S
C289 O293 1.260 . S
C290 O297 1.240 . S
C290 O298 1.252 . S
C291 O294 1.252 . S
C291 O295 1.260 . S
O292 In286 2.266 . S
O292 C289 1.252 . S
O293 In286 2.326 . S
O293 C289 1.260 . S
O294 In286 2.266 . S
O294 C291 1.252 . S
O295 In286 2.326 . S
O295 C291 1.260 . S
C296 O287 1.240 . S
C296 O288 1.252 . S
O297 In286 2.294 . S
O297 C290 1.240 . S
O298 In286 2.326 . S
O298 C290 1.252 . S
In299 O300 2.294 . S
In299 O301 2.326 . S
In299 O305 2.266 . S
In299 O306 2.326 . S
In299 O307 2.266 . S
In299 O308 2.326 . S
In299 O310 2.294 . S
In299 O311 2.326 . S
O300 In299 2.294 . S
O300 C309 1.240 . S
O301 In299 2.326 . S
O301 C309 1.252 . S
C302 O305 1.252 . S
C302 O306 1.260 . S
C303 O310 1.240 . S
C303 O311 1.252 . S
C304 O307 1.252 . S
C304 O308 1.260 . S
O305 In299 2.266 . S
O305 C302 1.252 . S
O306 In299 2.326 . S
O306 C302 1.260 . S
O307 In299 2.266 . S
O307 C304 1.252 . S
O308 In299 2.326 . S
O308 C304 1.260 . S
C309 O300 1.240 . S
C309 O301 1.252 . S
O310 In299 2.294 . S
O310 C303 1.240 . S
O311 In299 2.326 . S
O311 C303 1.252 . S
In312 O313 2.294 . S
In312 O314 2.326 1_655 S
In312 O318 2.266 . S
In312 O319 2.326 . S
In312 O320 2.266 . S
In312 O321 2.326 . S
In312 O323 2.294 . S
In312 O324 2.326 . S
O313 In312 2.294 . S
O313 C322 1.206 1_655 S
O314 In312 2.326 1_455 S
O314 C322 1.255 . S
C315 O318 1.252 . S
C315 O319 1.260 . S
C316 O323 1.240 . S
C316 O324 1.252 . S
C317 O320 1.252 . S
C317 O321 1.260 . S
O318 In312 2.266 . S
O318 C315 1.252 . S
O319 In312 2.326 . S
O319 C315 1.260 . S
O320 In312 2.266 . S
O320 C317 1.252 . S
O321 In312 2.326 . S
O321 C317 1.260 . S
C322 O313 1.206 1_455 S
C322 O314 1.255 . S
O323 In312 2.294 . S
O323 C316 1.240 . S
O324 In312 2.326 . S
O324 C316 1.252 . S
In325 O326 2.294 . S
In325 O327 2.326 . S
In325 O331 2.266 . S
In325 O332 2.326 . S
In325 O333 2.266 . S
In325 O334 2.326 . S
In325 O336 2.294 . S
In325 O337 2.326 . S
O326 In325 2.294 . S
O326 C335 1.240 . S
O327 In325 2.326 . S
O327 C335 1.252 . S
C328 O331 1.252 . S
C328 O332 1.260 . S
C329 O336 1.240 . S
C329 O337 1.252 . S
C330 O333 1.252 . S
C330 O334 1.260 . S
O331 In325 2.266 . S
O331 C328 1.252 . S
O332 In325 2.326 . S
O332 C328 1.260 . S
O333 In325 2.266 . S
O333 C330 1.252 . S
O334 In325 2.326 . S
O334 C330 1.260 . S
C335 O326 1.240 . S
C335 O327 1.252 . S
O336 In325 2.294 . S
O336 C329 1.240 . S
O337 In325 2.326 . S
O337 C329 1.252 . S
In338 O339 2.294 . S
In338 O340 2.326 . S
In338 O344 2.266 . S
In338 O345 2.326 . S
In338 O346 2.266 . S
In338 O347 2.326 . S
In338 O349 2.294 . S
In338 O350 2.326 . S
O339 In338 2.294 . S
O339 C348 1.240 . S
O340 In338 2.326 . S
O340 C348 1.252 . S
C341 O344 1.252 . S
C341 O345 1.260 . S
C342 O349 1.240 . S
C342 O350 1.252 . S
C343 O346 1.252 . S
C343 O347 1.260 . S
O344 In338 2.266 . S
O344 C341 1.252 . S
O345 In338 2.326 . S
O345 C341 1.260 . S
O346 In338 2.266 . S
O346 C343 1.252 . S
O347 In338 2.326 . S
O347 C343 1.260 . S
C348 O339 1.240 . S
C348 O340 1.252 . S
O349 In338 2.294 . S
O349 C342 1.240 . S
O350 In338 2.326 . S
O350 C342 1.252 . S
In351 O352 2.294 . S
In351 O353 2.326 . S
In351 O357 2.266 . S
In351 O358 2.326 . S
In351 O359 2.266 . S
In351 O360 2.326 . S
In351 O362 2.294 . S
In351 O363 2.326 . S
O352 In351 2.294 . S
O352 C361 1.240 . S
O353 In351 2.326 . S
O353 C361 1.252 . S
C354 O357 1.252 . S
C354 O358 1.260 . S
C355 O362 1.240 . S
C355 O363 1.252 . S
C356 O359 1.252 . S
C356 O360 1.260 . S
O357 In351 2.266 . S
O357 C354 1.252 . S
O358 In351 2.326 . S
O358 C354 1.260 . S
O359 In351 2.266 . S
O359 C356 1.252 . S
O360 In351 2.326 . S
O360 C356 1.260 . S
C361 O352 1.240 . S
C361 O353 1.252 . S
O362 In351 2.294 . S
O362 C355 1.240 . S
O363 In351 2.326 . S
O363 C355 1.252 . S
In364 O365 2.294 . S
In364 O366 2.326 1_655 S
In364 O370 2.266 . S
In364 O371 2.326 . S
In364 O372 2.266 . S
In364 O373 2.326 . S
In364 O375 2.294 . S
In364 O376 2.326 . S
O365 In364 2.294 . S
O365 C374 1.206 1_655 S
O366 In364 2.326 1_455 S
O366 C374 1.255 . S
C367 O370 1.252 . S
C367 O371 1.260 . S
C368 O375 1.240 . S
C368 O376 1.252 . S
C369 O372 1.252 . S
C369 O373 1.260 . S
O370 In364 2.266 . S
O370 C367 1.252 . S
O371 In364 2.326 . S
O371 C367 1.260 . S
O372 In364 2.266 . S
O372 C369 1.252 . S
O373 In364 2.326 . S
O373 C369 1.260 . S
C374 O365 1.206 1_455 S
C374 O366 1.255 . S
O375 In364 2.294 . S
O375 C368 1.240 . S
O376 In364 2.326 . S
O376 C368 1.252 . S
In377 O378 2.294 . S
In377 O379 2.326 . S
In377 O383 2.266 . S
In377 O384 2.326 . S
In377 O385 2.266 . S
In377 O386 2.326 . S
In377 O388 2.294 . S
In377 O389 2.326 . S
O378 In377 2.294 . S
O378 C387 1.240 . S
O379 In377 2.326 . S
O379 C387 1.252 . S
C380 O383 1.252 . S
C380 O384 1.260 . S
C381 O388 1.240 . S
C381 O389 1.252 . S
C382 O385 1.252 . S
C382 O386 1.260 . S
O383 In377 2.266 . S
O383 C380 1.252 . S
O384 In377 2.326 . S
O384 C380 1.260 . S
O385 In377 2.266 . S
O385 C382 1.252 . S
O386 In377 2.326 . S
O386 C382 1.260 . S
C387 O378 1.240 . S
C387 O379 1.252 . S
O388 In377 2.294 . S
O388 C381 1.240 . S
O389 In377 2.326 . S
O389 C381 1.252 . S
In390 O391 2.294 . S
In390 O392 2.326 . S
In390 O396 2.266 . S
In390 O397 2.326 . S
In390 O398 2.266 . S
In390 O399 2.326 . S
In390 O401 2.294 . S
In390 O402 2.326 . S
O391 In390 2.294 . S
O391 C400 1.240 . S
O392 In390 2.326 . S
O392 C400 1.252 . S
C393 O396 1.252 . S
C393 O397 1.260 . S
C394 O401 1.240 . S
C394 O402 1.252 . S
C395 O398 1.252 . S
C395 O399 1.260 . S
O396 In390 2.266 . S
O396 C393 1.252 . S
O397 In390 2.326 . S
O397 C393 1.260 . S
O398 In390 2.266 . S
O398 C395 1.252 . S
O399 In390 2.326 . S
O399 C395 1.260 . S
C400 O391 1.240 . S
C400 O392 1.252 . S
O401 In390 2.294 . S
O401 C394 1.240 . S
O402 In390 2.326 . S
O402 C394 1.252 . S
In403 O404 2.294 . S
In403 O405 2.326 . S
In403 O409 2.266 . S
In403 O410 2.326 . S
In403 O411 2.266 . S
In403 O412 2.326 . S
In403 O414 2.294 . S
In403 O415 2.326 . S
O404 In403 2.294 . S
O404 C413 1.240 . S
O405 In403 2.326 . S
O405 C413 1.252 . S
C406 O409 1.252 . S
C406 O410 1.260 . S
C407 O414 1.240 . S
C407 O415 1.252 . S
C408 O411 1.252 . S
C408 O412 1.260 . S
O409 In403 2.266 . S
O409 C406 1.252 . S
O410 In403 2.326 . S
O410 C406 1.260 . S
O411 In403 2.266 . S
O411 C408 1.252 . S
O412 In403 2.326 . S
O412 C408 1.260 . S
C413 O404 1.240 . S
C413 O405 1.252 . S
O414 In403 2.294 . S
O414 C407 1.240 . S
O415 In403 2.326 . S
O415 C407 1.252 . S
In416 O417 2.294 . S
In416 O418 2.326 1_565 S
In416 O422 2.266 . S
In416 O423 2.326 . S
In416 O424 2.266 . S
In416 O425 2.326 . S
In416 O427 2.294 . S
In416 O428 2.326 . S
O417 In416 2.294 . S
O417 C426 1.206 1_565 S
O418 In416 2.326 1_545 S
O418 C426 1.255 . S
C419 O422 1.252 . S
C419 O423 1.260 . S
C420 O427 1.240 . S
C420 O428 1.252 . S
C421 O424 1.252 . S
C421 O425 1.260 . S
O422 In416 2.266 . S
O422 C419 1.252 . S
O423 In416 2.326 . S
O423 C419 1.260 . S
O424 In416 2.266 . S
O424 C421 1.252 . S
O425 In416 2.326 . S
O425 C421 1.260 . S
C426 O417 1.206 1_545 S
C426 O418 1.255 . S
O427 In416 2.294 . S
O427 C420 1.240 . S
O428 In416 2.326 . S
O428 C420 1.252 . S
In429 O430 2.294 . S
In429 O431 2.326 . S
In429 O435 2.266 . S
In429 O436 2.326 . S
In429 O437 2.266 . S
In429 O438 2.326 . S
In429 O440 2.294 . S
In429 O441 2.326 . S
O430 In429 2.294 . S
O430 C439 1.240 . S
O431 In429 2.326 . S
O431 C439 1.252 . S
C432 O435 1.252 . S
C432 O436 1.260 . S
C433 O440 1.240 . S
C433 O441 1.252 . S
C434 O437 1.252 . S
C434 O438 1.260 . S
O435 In429 2.266 . S
O435 C432 1.252 . S
O436 In429 2.326 . S
O436 C432 1.260 . S
O437 In429 2.266 . S
O437 C434 1.252 . S
O438 In429 2.326 . S
O438 C434 1.260 . S
C439 O430 1.240 . S
C439 O431 1.252 . S
O440 In429 2.294 . S
O440 C433 1.240 . S
O441 In429 2.326 . S
O441 C433 1.252 . S
In442 O443 2.294 . S
In442 O444 2.326 . S
In442 O448 2.266 . S
In442 O449 2.326 . S
In442 O450 2.266 . S
In442 O451 2.326 . S
In442 O453 2.294 . S
In442 O454 2.326 1_545 S
O443 In442 2.294 . S
O443 C452 1.240 . S
O444 In442 2.326 . S
O444 C452 1.252 . S
C445 O448 1.252 . S
C445 O449 1.260 . S
C446 O453 1.206 1_565 S
C446 O454 1.255 . S
C447 O450 1.252 . S
C447 O451 1.260 . S
O448 In442 2.266 . S
O448 C445 1.252 . S
O449 In442 2.326 . S
O449 C445 1.260 . S
O450 In442 2.266 . S
O450 C447 1.252 . S
O451 In442 2.326 . S
O451 C447 1.260 . S
C452 O443 1.240 . S
C452 O444 1.252 . S
O453 In442 2.294 . S
O453 C446 1.206 1_545 S
O454 In442 2.326 1_565 S
O454 C446 1.255 . S
In455 O456 2.294 . S
In455 O457 2.326 . S
In455 O461 2.266 . S
In455 O462 2.326 . S
In455 O463 2.266 . S
In455 O464 2.326 . S
In455 O466 2.294 . S
In455 O467 2.326 . S
O456 In455 2.294 . S
O456 C465 1.240 . S
O457 In455 2.326 . S
O457 C465 1.252 . S
C458 O461 1.252 . S
C458 O462 1.260 . S
C459 O466 1.240 . S
C459 O467 1.252 . S
C460 O463 1.252 . S
C460 O464 1.260 . S
O461 In455 2.266 . S
O461 C458 1.252 . S
O462 In455 2.326 . S
O462 C458 1.260 . S
O463 In455 2.266 . S
O463 C460 1.252 . S
O464 In455 2.326 . S
O464 C460 1.260 . S
C465 O456 1.240 . S
C465 O457 1.252 . S
O466 In455 2.294 . S
O466 C459 1.240 . S
O467 In455 2.326 . S
O467 C459 1.252 . S
In468 O469 2.294 . S
In468 O470 2.326 1_545 S
In468 O474 2.266 . S
In468 O475 2.326 . S
In468 O476 2.266 . S
In468 O477 2.326 . S
In468 O479 2.294 . S
In468 O480 2.326 . S
O469 In468 2.294 . S
O469 C478 1.206 1_545 S
O470 In468 2.326 1_565 S
O470 C478 1.255 . S
C471 O474 1.252 . S
C471 O475 1.260 . S
C472 O479 1.240 . S
C472 O480 1.252 . S
C473 O476 1.252 . S
C473 O477 1.260 . S
O474 In468 2.266 . S
O474 C471 1.252 . S
O475 In468 2.326 . S
O475 C471 1.260 . S
O476 In468 2.266 . S
O476 C473 1.252 . S
O477 In468 2.326 . S
O477 C473 1.260 . S
C478 O469 1.206 1_565 S
C478 O470 1.255 . S
O479 In468 2.294 . S
O479 C472 1.240 . S
O480 In468 2.326 . S
O480 C472 1.252 . S
In481 O482 2.294 . S
In481 O483 2.326 . S
In481 O487 2.266 . S
In481 O488 2.326 . S
In481 O489 2.266 . S
In481 O490 2.326 . S
In481 O492 2.294 . S
In481 O493 2.326 . S
O482 In481 2.294 . S
O482 C491 1.240 . S
O483 In481 2.326 . S
O483 C491 1.252 . S
C484 O487 1.252 . S
C484 O488 1.260 . S
C485 O492 1.240 . S
C485 O493 1.252 . S
C486 O489 1.252 . S
C486 O490 1.260 . S
O487 In481 2.266 . S
O487 C484 1.252 . S
O488 In481 2.326 . S
O488 C484 1.260 . S
O489 In481 2.266 . S
O489 C486 1.252 . S
O490 In481 2.326 . S
O490 C486 1.260 . S
C491 O482 1.240 . S
C491 O483 1.252 . S
O492 In481 2.294 . S
O492 C485 1.240 . S
O493 In481 2.326 . S
O493 C485 1.252 . S
In494 O495 2.294 . S
In494 O496 2.326 1_565 S
In494 O500 2.266 . S
In494 O501 2.326 . S
In494 O502 2.266 . S
In494 O503 2.326 . S
In494 O505 2.294 . S
In494 O506 2.326 . S
O495 In494 2.294 . S
O495 C504 1.206 1_565 S
O496 In494 2.326 1_545 S
O496 C504 1.255 . S
C497 O500 1.252 . S
C497 O501 1.260 . S
C498 O505 1.240 . S
C498 O506 1.252 . S
C499 O502 1.252 . S
C499 O503 1.260 . S
O500 In494 2.266 . S
O500 C497 1.252 . S
O501 In494 2.326 . S
O501 C497 1.260 . S
O502 In494 2.266 . S
O502 C499 1.252 . S
O503 In494 2.326 . S
O503 C499 1.260 . S
C504 O495 1.206 1_545 S
C504 O496 1.255 . S
O505 In494 2.294 . S
O505 C498 1.240 . S
O506 In494 2.326 . S
O506 C498 1.252 . S
In507 O508 2.294 . S
In507 O509 2.326 . S
In507 O513 2.266 . S
In507 O514 2.326 . S
In507 O515 2.266 . S
In507 O516 2.326 . S
In507 O518 2.294 . S
In507 O519 2.326 . S
O508 In507 2.294 . S
O508 C517 1.240 . S
O509 In507 2.326 . S
O509 C517 1.252 . S
C510 O513 1.252 . S
C510 O514 1.260 . S
C511 O518 1.240 . S
C511 O519 1.252 . S
C512 O515 1.252 . S
C512 O516 1.260 . S
O513 In507 2.266 . S
O513 C510 1.252 . S
O514 In507 2.326 . S
O514 C510 1.260 . S
O515 In507 2.266 . S
O515 C512 1.252 . S
O516 In507 2.326 . S
O516 C512 1.260 . S
C517 O508 1.240 . S
C517 O509 1.252 . S
O518 In507 2.294 . S
O518 C511 1.240 . S
O519 In507 2.326 . S
O519 C511 1.252 . S
In520 O521 2.294 . S
In520 O522 2.326 . S
In520 O526 2.266 . S
In520 O527 2.326 . S
In520 O528 2.266 . S
In520 O529 2.326 . S
In520 O531 2.294 . S
In520 O532 2.326 1_556 S
O521 In520 2.294 . S
O521 C530 1.240 . S
O522 In520 2.326 . S
O522 C530 1.252 . S
C523 O526 1.252 . S
C523 O527 1.260 . S
C524 O531 1.206 1_554 S
C524 O532 1.255 . S
C525 O528 1.252 . S
C525 O529 1.260 . S
O526 In520 2.266 . S
O526 C523 1.252 . S
O527 In520 2.326 . S
O527 C523 1.260 . S
O528 In520 2.266 . S
O528 C525 1.252 . S
O529 In520 2.326 . S
O529 C525 1.260 . S
C530 O521 1.240 . S
C530 O522 1.252 . S
O531 In520 2.294 . S
O531 C524 1.206 1_556 S
O532 In520 2.326 1_554 S
O532 C524 1.255 . S
In533 O534 2.294 . S
In533 O535 2.326 1_554 S
In533 O539 2.266 . S
In533 O540 2.326 . S
In533 O541 2.266 . S
In533 O542 2.326 . S
In533 O544 2.294 . S
In533 O545 2.326 . S
O534 In533 2.294 . S
O534 C543 1.206 1_554 S
O535 In533 2.326 1_556 S
O535 C543 1.255 . S
C536 O539 1.252 . S
C536 O540 1.260 . S
C537 O544 1.240 . S
C537 O545 1.252 . S
C538 O541 1.252 . S
C538 O542 1.260 . S
O539 In533 2.266 . S
O539 C536 1.252 . S
O540 In533 2.326 . S
O540 C536 1.260 . S
O541 In533 2.266 . S
O541 C538 1.252 . S
O542 In533 2.326 . S
O542 C538 1.260 . S
C543 O534 1.206 1_556 S
C543 O535 1.255 . S
O544 In533 2.294 . S
O544 C537 1.240 . S
O545 In533 2.326 . S
O545 C537 1.252 . S
In546 O547 2.294 . S
In546 O548 2.326 . S
In546 O552 2.266 . S
In546 O553 2.326 . S
In546 O554 2.266 . S
In546 O555 2.326 . S
In546 O557 2.294 . S
In546 O558 2.326 . S
O547 In546 2.294 . S
O547 C556 1.240 . S
O548 In546 2.326 . S
O548 C556 1.252 . S
C549 O552 1.252 . S
C549 O553 1.260 . S
C550 O557 1.240 . S
C550 O558 1.252 . S
C551 O554 1.252 . S
C551 O555 1.260 . S
O552 In546 2.266 . S
O552 C549 1.252 . S
O553 In546 2.326 . S
O553 C549 1.260 . S
O554 In546 2.266 . S
O554 C551 1.252 . S
O555 In546 2.326 . S
O555 C551 1.260 . S
C556 O547 1.240 . S
C556 O548 1.252 . S
O557 In546 2.294 . S
O557 C550 1.240 . S
O558 In546 2.326 . S
O558 C550 1.252 . S
In559 O560 2.294 . S
In559 O561 2.326 . S
In559 O565 2.266 . S
In559 O566 2.326 . S
In559 O567 2.266 . S
In559 O568 2.326 . S
In559 O570 2.294 . S
In559 O571 2.326 . S
O560 In559 2.294 . S
O560 C569 1.240 . S
O561 In559 2.326 . S
O561 C569 1.252 . S
C562 O565 1.252 . S
C562 O566 1.260 . S
C563 O570 1.240 . S
C563 O571 1.252 . S
C564 O567 1.252 . S
C564 O568 1.260 . S
O565 In559 2.266 . S
O565 C562 1.252 . S
O566 In559 2.326 . S
O566 C562 1.260 . S
O567 In559 2.266 . S
O567 C564 1.252 . S
O568 In559 2.326 . S
O568 C564 1.260 . S
C569 O560 1.240 . S
C569 O561 1.252 . S
O570 In559 2.294 . S
O570 C563 1.240 . S
O571 In559 2.326 . S
O571 C563 1.252 . S
In572 O573 2.294 . S
In572 O574 2.326 . S
In572 O578 2.266 . S
In572 O579 2.326 . S
In572 O580 2.266 . S
In572 O581 2.326 . S
In572 O583 2.294 . S
In572 O584 2.326 . S
O573 In572 2.294 . S
O573 C582 1.240 . S
O574 In572 2.326 . S
O574 C582 1.252 . S
C575 O578 1.252 . S
C575 O579 1.260 . S
C576 O583 1.240 . S
C576 O584 1.252 . S
C577 O580 1.252 . S
C577 O581 1.260 . S
O578 In572 2.266 . S
O578 C575 1.252 . S
O579 In572 2.326 . S
O579 C575 1.260 . S
O580 In572 2.266 . S
O580 C577 1.252 . S
O581 In572 2.326 . S
O581 C577 1.260 . S
C582 O573 1.240 . S
C582 O574 1.252 . S
O583 In572 2.294 . S
O583 C576 1.240 . S
O584 In572 2.326 . S
O584 C576 1.252 . S
In585 O586 2.294 . S
In585 O587 2.326 . S
In585 O591 2.266 . S
In585 O592 2.326 . S
In585 O593 2.266 . S
In585 O594 2.326 . S
In585 O596 2.294 . S
In585 O597 2.326 . S
O586 In585 2.294 . S
O586 C595 1.240 . S
O587 In585 2.326 . S
O587 C595 1.252 . S
C588 O591 1.252 . S
C588 O592 1.260 . S
C589 O596 1.240 . S
C589 O597 1.252 . S
C590 O593 1.252 . S
C590 O594 1.260 . S
O591 In585 2.266 . S
O591 C588 1.252 . S
O592 In585 2.326 . S
O592 C588 1.260 . S
O593 In585 2.266 . S
O593 C590 1.252 . S
O594 In585 2.326 . S
O594 C590 1.260 . S
C595 O586 1.240 . S
C595 O587 1.252 . S
O596 In585 2.294 . S
O596 C589 1.240 . S
O597 In585 2.326 . S
O597 C589 1.252 . S
In598 O599 2.294 . S
In598 O600 2.326 . S
In598 O604 2.266 . S
In598 O605 2.326 . S
In598 O606 2.266 . S
In598 O607 2.326 . S
In598 O609 2.294 . S
In598 O610 2.326 . S
O599 In598 2.294 . S
O599 C608 1.240 . S
O600 In598 2.326 . S
O600 C608 1.252 . S
C601 O604 1.252 . S
C601 O605 1.260 . S
C602 O609 1.240 . S
C602 O610 1.252 . S
C603 O606 1.252 . S
C603 O607 1.260 . S
O604 In598 2.266 . S
O604 C601 1.252 . S
O605 In598 2.326 . S
O605 C601 1.260 . S
O606 In598 2.266 . S
O606 C603 1.252 . S
O607 In598 2.326 . S
O607 C603 1.260 . S
C608 O599 1.240 . S
C608 O600 1.252 . S
O609 In598 2.294 . S
O609 C602 1.240 . S
O610 In598 2.326 . S
O610 C602 1.252 . S
In611 O612 2.294 . S
In611 O613 2.326 . S
In611 O617 2.266 . S
In611 O618 2.326 . S
In611 O619 2.266 . S
In611 O620 2.326 . S
In611 O622 2.294 . S
In611 O623 2.326 . S
O612 In611 2.294 . S
O612 C621 1.240 . S
O613 In611 2.326 . S
O613 C621 1.252 . S
C614 O617 1.252 . S
C614 O618 1.260 . S
C615 O622 1.240 . S
C615 O623 1.252 . S
C616 O619 1.252 . S
C616 O620 1.260 . S
O617 In611 2.266 . S
O617 C614 1.252 . S
O618 In611 2.326 . S
O618 C614 1.260 . S
O619 In611 2.266 . S
O619 C616 1.252 . S
O620 In611 2.326 . S
O620 C616 1.260 . S
C621 O612 1.240 . S
C621 O613 1.252 . S
O622 In611 2.294 . S
O622 C615 1.240 . S
O623 In611 2.326 . S
O623 C615 1.252 . S
In624 O625 2.294 . S
In624 O626 2.326 . S
In624 O630 2.266 . S
In624 O631 2.326 . S
In624 O632 2.266 . S
In624 O633 2.326 . S
In624 O635 2.294 . S
In624 O636 2.326 . S
O625 In624 2.294 . S
O625 C634 1.240 . S
O626 In624 2.326 . S
O626 C634 1.252 . S
C627 O630 1.252 . S
C627 O631 1.260 . S
C628 O635 1.240 . S
C628 O636 1.252 . S
C629 O632 1.252 . S
C629 O633 1.260 . S
O630 In624 2.266 . S
O630 C627 1.252 . S
O631 In624 2.326 . S
O631 C627 1.260 . S
O632 In624 2.266 . S
O632 C629 1.252 . S
O633 In624 2.326 . S
O633 C629 1.260 . S
C634 O625 1.240 . S
C634 O626 1.252 . S
O635 In624 2.294 . S
O635 C628 1.240 . S
O636 In624 2.326 . S
O636 C628 1.252 . S
In637 O638 2.294 . S
In637 O639 2.326 . S
In637 O643 2.266 . S
In637 O644 2.326 . S
In637 O645 2.266 . S
In637 O646 2.326 . S
In637 O648 2.294 . S
In637 O649 2.326 . S
O638 In637 2.294 . S
O638 C647 1.240 . S
O639 In637 2.326 . S
O639 C647 1.252 . S
C640 O643 1.252 . S
C640 O644 1.260 . S
C641 O648 1.240 . S
C641 O649 1.252 . S
C642 O645 1.252 . S
C642 O646 1.260 . S
O643 In637 2.266 . S
O643 C640 1.252 . S
O644 In637 2.326 . S
O644 C640 1.260 . S
O645 In637 2.266 . S
O645 C642 1.252 . S
O646 In637 2.326 . S
O646 C642 1.260 . S
C647 O638 1.240 . S
C647 O639 1.252 . S
O648 In637 2.294 . S
O648 C641 1.240 . S
O649 In637 2.326 . S
O649 C641 1.252 . S
In650 O651 2.294 . S
In650 O652 2.326 1_655 S
In650 O656 2.266 . S
In650 O657 2.326 . S
In650 O658 2.266 . S
In650 O659 2.326 . S
In650 O661 2.294 . S
In650 O662 2.326 . S
O651 In650 2.294 . S
O651 C660 1.206 1_655 S
O652 In650 2.326 1_455 S
O652 C660 1.255 . S
C653 O656 1.252 . S
C653 O657 1.260 . S
C654 O661 1.240 . S
C654 O662 1.252 . S
C655 O658 1.252 . S
C655 O659 1.260 . S
O656 In650 2.266 . S
O656 C653 1.252 . S
O657 In650 2.326 . S
O657 C653 1.260 . S
O658 In650 2.266 . S
O658 C655 1.252 . S
O659 In650 2.326 . S
O659 C655 1.260 . S
C660 O651 1.206 1_455 S
C660 O652 1.255 . S
O661 In650 2.294 . S
O661 C654 1.240 . S
O662 In650 2.326 . S
O662 C654 1.252 . S
In663 O664 2.294 . S
In663 O665 2.326 . S
In663 O669 2.266 . S
In663 O670 2.326 . S
In663 O671 2.266 . S
In663 O672 2.326 . S
In663 O674 2.294 . S
In663 O675 2.326 . S
O664 In663 2.294 . S
O664 C673 1.240 . S
O665 In663 2.326 . S
O665 C673 1.252 . S
C666 O669 1.252 . S
C666 O670 1.260 . S
C667 O674 1.240 . S
C667 O675 1.252 . S
C668 O671 1.252 . S
C668 O672 1.260 . S
O669 In663 2.266 . S
O669 C666 1.252 . S
O670 In663 2.326 . S
O670 C666 1.260 . S
O671 In663 2.266 . S
O671 C668 1.252 . S
O672 In663 2.326 . S
O672 C668 1.260 . S
C673 O664 1.240 . S
C673 O665 1.252 . S
O674 In663 2.294 . S
O674 C667 1.240 . S
O675 In663 2.326 . S
O675 C667 1.252 . S
In676 O677 2.294 . S
In676 O678 2.326 . S
In676 O682 2.266 . S
In676 O683 2.326 . S
In676 O684 2.266 . S
In676 O685 2.326 . S
In676 O687 2.294 . S
In676 O688 2.326 . S
O677 In676 2.294 . S
O677 C686 1.240 . S
O678 In676 2.326 . S
O678 C686 1.252 . S
C679 O682 1.252 . S
C679 O683 1.260 . S
C680 O687 1.240 . S
C680 O688 1.252 . S
C681 O684 1.252 . S
C681 O685 1.260 . S
O682 In676 2.266 . S
O682 C679 1.252 . S
O683 In676 2.326 . S
O683 C679 1.260 . S
O684 In676 2.266 . S
O684 C681 1.252 . S
O685 In676 2.326 . S
O685 C681 1.260 . S
C686 O677 1.240 . S
C686 O678 1.252 . S
O687 In676 2.294 . S
O687 C680 1.240 . S
O688 In676 2.326 . S
O688 C680 1.252 . S
In689 O690 2.294 . S
In689 O691 2.326 . S
In689 O695 2.266 . S
In689 O696 2.326 . S
In689 O697 2.266 . S
In689 O698 2.326 . S
In689 O700 2.294 . S
In689 O701 2.326 . S
O690 In689 2.294 . S
O690 C699 1.240 . S
O691 In689 2.326 . S
O691 C699 1.252 . S
C692 O695 1.252 . S
C692 O696 1.260 . S
C693 O700 1.240 . S
C693 O701 1.252 . S
C694 O697 1.252 . S
C694 O698 1.260 . S
O695 In689 2.266 . S
O695 C692 1.252 . S
O696 In689 2.326 . S
O696 C692 1.260 . S
O697 In689 2.266 . S
O697 C694 1.252 . S
O698 In689 2.326 . S
O698 C694 1.260 . S
C699 O690 1.240 . S
C699 O691 1.252 . S
O700 In689 2.294 . S
O700 C693 1.240 . S
O701 In689 2.326 . S
O701 C693 1.252 . S
In702 O703 2.294 . S
In702 O704 2.326 . S
In702 O708 2.266 . S
In702 O709 2.326 . S
In702 O710 2.266 . S
In702 O711 2.326 . S
In702 O713 2.294 . S
In702 O714 2.326 1_655 S
O703 In702 2.294 . S
O703 C712 1.240 . S
O704 In702 2.326 . S
O704 C712 1.252 . S
C705 O708 1.252 . S
C705 O709 1.260 . S
C706 O713 1.206 1_455 S
C706 O714 1.255 . S
C707 O710 1.252 . S
C707 O711 1.260 . S
O708 In702 2.266 . S
O708 C705 1.252 . S
O709 In702 2.326 . S
O709 C705 1.260 . S
O710 In702 2.266 . S
O710 C707 1.252 . S
O711 In702 2.326 . S
O711 C707 1.260 . S
C712 O703 1.240 . S
C712 O704 1.252 . S
O713 In702 2.294 . S
O713 C706 1.206 1_655 S
O714 In702 2.326 1_455 S
O714 C706 1.255 . S
In715 O716 2.294 . S
In715 O717 2.326 . S
In715 O721 2.266 . S
In715 O722 2.326 . S
In715 O723 2.266 . S
In715 O724 2.326 . S
In715 O726 2.294 . S
In715 O727 2.326 . S
O716 In715 2.294 . S
O716 C725 1.240 . S
O717 In715 2.326 . S
O717 C725 1.252 . S
C718 O721 1.252 . S
C718 O722 1.260 . S
C719 O726 1.240 . S
C719 O727 1.252 . S
C720 O723 1.252 . S
C720 O724 1.260 . S
O721 In715 2.266 . S
O721 C718 1.252 . S
O722 In715 2.326 . S
O722 C718 1.260 . S
O723 In715 2.266 . S
O723 C720 1.252 . S
O724 In715 2.326 . S
O724 C720 1.260 . S
C725 O716 1.240 . S
C725 O717 1.252 . S
O726 In715 2.294 . S
O726 C719 1.240 . S
O727 In715 2.326 . S
O727 C719 1.252 . S
In728 O729 2.294 . S
In728 O730 2.326 . S
In728 O734 2.266 . S
In728 O735 2.326 . S
In728 O736 2.266 . S
In728 O737 2.326 . S
In728 O739 2.294 . S
In728 O740 2.326 . S
O729 In728 2.294 . S
O729 C738 1.240 . S
O730 In728 2.326 . S
O730 C738 1.252 . S
C731 O734 1.252 . S
C731 O735 1.260 . S
C732 O739 1.240 . S
C732 O740 1.252 . S
C733 O736 1.252 . S
C733 O737 1.260 . S
O734 In728 2.266 . S
O734 C731 1.252 . S
O735 In728 2.326 . S
O735 C731 1.260 . S
O736 In728 2.266 . S
O736 C733 1.252 . S
O737 In728 2.326 . S
O737 C733 1.260 . S
C738 O729 1.240 . S
C738 O730 1.252 . S
O739 In728 2.294 . S
O739 C732 1.240 . S
O740 In728 2.326 . S
O740 C732 1.252 . S
In741 O742 2.294 . S
In741 O743 2.326 . S
In741 O747 2.266 . S
In741 O748 2.326 . S
In741 O749 2.266 . S
In741 O750 2.326 . S
In741 O752 2.294 . S
In741 O753 2.326 . S
O742 In741 2.294 . S
O742 C751 1.240 . S
O743 In741 2.326 . S
O743 C751 1.252 . S
C744 O747 1.252 . S
C744 O748 1.260 . S
C745 O752 1.240 . S
C745 O753 1.252 . S
C746 O749 1.252 . S
C746 O750 1.260 . S
O747 In741 2.266 . S
O747 C744 1.252 . S
O748 In741 2.326 . S
O748 C744 1.260 . S
O749 In741 2.266 . S
O749 C746 1.252 . S
O750 In741 2.326 . S
O750 C746 1.260 . S
C751 O742 1.240 . S
C751 O743 1.252 . S
O752 In741 2.294 . S
O752 C745 1.240 . S
O753 In741 2.326 . S
O753 C745 1.252 . S
In754 O755 2.294 . S
In754 O756 2.326 . S
In754 O760 2.266 . S
In754 O761 2.326 . S
In754 O762 2.266 . S
In754 O763 2.326 . S
In754 O765 2.294 . S
In754 O766 2.326 . S
O755 In754 2.294 . S
O755 C764 1.240 . S
O756 In754 2.326 . S
O756 C764 1.252 . S
C757 O760 1.252 . S
C757 O761 1.260 . S
C758 O765 1.240 . S
C758 O766 1.252 . S
C759 O762 1.252 . S
C759 O763 1.260 . S
O760 In754 2.266 . S
O760 C757 1.252 . S
O761 In754 2.326 . S
O761 C757 1.260 . S
O762 In754 2.266 . S
O762 C759 1.252 . S
O763 In754 2.326 . S
O763 C759 1.260 . S
C764 O755 1.240 . S
C764 O756 1.252 . S
O765 In754 2.294 . S
O765 C758 1.240 . S
O766 In754 2.326 . S
O766 C758 1.252 . S
In767 O768 2.294 . S
In767 O769 2.326 . S
In767 O773 2.266 . S
In767 O774 2.326 . S
In767 O775 2.266 . S
In767 O776 2.326 . S
In767 O778 2.294 . S
In767 O779 2.326 . S
O768 In767 2.294 . S
O768 C777 1.240 . S
O769 In767 2.326 . S
O769 C777 1.252 . S
C770 O773 1.252 . S
C770 O774 1.260 . S
C771 O778 1.240 . S
C771 O779 1.252 . S
C772 O775 1.252 . S
C772 O776 1.260 . S
O773 In767 2.266 . S
O773 C770 1.252 . S
O774 In767 2.326 . S
O774 C770 1.260 . S
O775 In767 2.266 . S
O775 C772 1.252 . S
O776 In767 2.326 . S
O776 C772 1.260 . S
C777 O768 1.240 . S
C777 O769 1.252 . S
O778 In767 2.294 . S
O778 C771 1.240 . S
O779 In767 2.326 . S
O779 C771 1.252 . S
In780 O781 2.294 . S
In780 O782 2.326 . S
In780 O786 2.266 . S
In780 O787 2.326 . S
In780 O788 2.266 . S
In780 O789 2.326 . S
In780 O791 2.294 . S
In780 O792 2.326 . S
O781 In780 2.294 . S
O781 C790 1.240 . S
O782 In780 2.326 . S
O782 C790 1.252 . S
C783 O786 1.252 . S
C783 O787 1.260 . S
C784 O791 1.240 . S
C784 O792 1.252 . S
C785 O788 1.252 . S
C785 O789 1.260 . S
O786 In780 2.266 . S
O786 C783 1.252 . S
O787 In780 2.326 . S
O787 C783 1.260 . S
O788 In780 2.266 . S
O788 C785 1.252 . S
O789 In780 2.326 . S
O789 C785 1.260 . S
C790 O781 1.240 . S
C790 O782 1.252 . S
O791 In780 2.294 . S
O791 C784 1.240 . S
O792 In780 2.326 . S
O792 C784 1.252 . S
In793 O794 2.294 . S
In793 O795 2.326 . S
In793 O799 2.266 . S
In793 O800 2.326 . S
In793 O801 2.266 . S
In793 O802 2.326 . S
In793 O804 2.294 . S
In793 O805 2.326 . S
O794 In793 2.294 . S
O794 C803 1.240 . S
O795 In793 2.326 . S
O795 C803 1.252 . S
C796 O799 1.252 . S
C796 O800 1.260 . S
C797 O804 1.240 . S
C797 O805 1.252 . S
C798 O801 1.252 . S
C798 O802 1.260 . S
O799 In793 2.266 . S
O799 C796 1.252 . S
O800 In793 2.326 . S
O800 C796 1.260 . S
O801 In793 2.266 . S
O801 C798 1.252 . S
O802 In793 2.326 . S
O802 C798 1.260 . S
C803 O794 1.240 . S
C803 O795 1.252 . S
O804 In793 2.294 . S
O804 C797 1.240 . S
O805 In793 2.326 . S
O805 C797 1.252 . S
In806 O807 2.294 . S
In806 O808 2.326 . S
In806 O812 2.266 . S
In806 O813 2.326 . S
In806 O814 2.266 . S
In806 O815 2.326 . S
In806 O817 2.294 . S
In806 O818 2.326 . S
O807 In806 2.294 . S
O807 C816 1.240 . S
O808 In806 2.326 . S
O808 C816 1.252 . S
C809 O812 1.252 . S
C809 O813 1.260 . S
C810 O817 1.240 . S
C810 O818 1.252 . S
C811 O814 1.252 . S
C811 O815 1.260 . S
O812 In806 2.266 . S
O812 C809 1.252 . S
O813 In806 2.326 . S
O813 C809 1.260 . S
O814 In806 2.266 . S
O814 C811 1.252 . S
O815 In806 2.326 . S
O815 C811 1.260 . S
C816 O807 1.240 . S
C816 O808 1.252 . S
O817 In806 2.294 . S
O817 C810 1.240 . S
O818 In806 2.326 . S
O818 C810 1.252 . S
In819 O820 2.294 . S
In819 O821 2.326 . S
In819 O825 2.266 . S
In819 O826 2.326 . S
In819 O827 2.266 . S
In819 O828 2.326 . S
In819 O830 2.294 . S
In819 O831 2.326 . S
O820 In819 2.294 . S
O820 C829 1.240 . S
O821 In819 2.326 . S
O821 C829 1.252 . S
C822 O825 1.252 . S
C822 O826 1.260 . S
C823 O830 1.240 . S
C823 O831 1.252 . S
C824 O827 1.252 . S
C824 O828 1.260 . S
O825 In819 2.266 . S
O825 C822 1.252 . S
O826 In819 2.326 . S
O826 C822 1.260 . S
O827 In819 2.266 . S
O827 C824 1.252 . S
O828 In819 2.326 . S
O828 C824 1.260 . S
C829 O820 1.240 . S
C829 O821 1.252 . S
O830 In819 2.294 . S
O830 C823 1.240 . S
O831 In819 2.326 . S
O831 C823 1.252 . S
In832 O833 2.294 . S
In832 O834 2.326 . S
In832 O838 2.266 . S
In832 O839 2.326 . S
In832 O840 2.266 . S
In832 O841 2.326 . S
In832 O843 2.294 . S
In832 O844 2.326 . S
O833 In832 2.294 . S
O833 C842 1.240 . S
O834 In832 2.326 . S
O834 C842 1.252 . S
C835 O838 1.252 . S
C835 O839 1.260 . S
C836 O843 1.240 . S
C836 O844 1.252 . S
C837 O840 1.252 . S
C837 O841 1.260 . S
O838 In832 2.266 . S
O838 C835 1.252 . S
O839 In832 2.326 . S
O839 C835 1.260 . S
O840 In832 2.266 . S
O840 C837 1.252 . S
O841 In832 2.326 . S
O841 C837 1.260 . S
C842 O833 1.240 . S
C842 O834 1.252 . S
O843 In832 2.294 . S
O843 C836 1.240 . S
O844 In832 2.326 . S
O844 C836 1.252 . S
In845 O846 2.294 . S
In845 O847 2.326 . S
In845 O851 2.266 . S
In845 O852 2.326 . S
In845 O853 2.266 . S
In845 O854 2.326 . S
In845 O856 2.294 . S
In845 O857 2.326 . S
O846 In845 2.294 . S
O846 C855 1.240 . S
O847 In845 2.326 . S
O847 C855 1.252 . S
C848 O851 1.252 . S
C848 O852 1.260 . S
C849 O856 1.240 . S
C849 O857 1.252 . S
C850 O853 1.252 . S
C850 O854 1.260 . S
O851 In845 2.266 . S
O851 C848 1.252 . S
O852 In845 2.326 . S
O852 C848 1.260 . S
O853 In845 2.266 . S
O853 C850 1.252 . S
O854 In845 2.326 . S
O854 C850 1.260 . S
C855 O846 1.240 . S
C855 O847 1.252 . S
O856 In845 2.294 . S
O856 C849 1.240 . S
O857 In845 2.326 . S
O857 C849 1.252 . S
In858 O859 2.294 . S
In858 O860 2.326 . S
In858 O864 2.266 . S
In858 O865 2.326 . S
In858 O866 2.266 . S
In858 O867 2.326 . S
In858 O869 2.294 . S
In858 O870 2.326 . S
O859 In858 2.294 . S
O859 C868 1.240 . S
O860 In858 2.326 . S
O860 C868 1.252 . S
C861 O864 1.252 . S
C861 O865 1.260 . S
C862 O869 1.240 . S
C862 O870 1.252 . S
C863 O866 1.252 . S
C863 O867 1.260 . S
O864 In858 2.266 . S
O864 C861 1.252 . S
O865 In858 2.326 . S
O865 C861 1.260 . S
O866 In858 2.266 . S
O866 C863 1.252 . S
O867 In858 2.326 . S
O867 C863 1.260 . S
C868 O859 1.240 . S
C868 O860 1.252 . S
O869 In858 2.294 . S
O869 C862 1.240 . S
O870 In858 2.326 . S
O870 C862 1.252 . S
In871 O872 2.294 . S
In871 O873 2.326 1_556 S
In871 O877 2.266 . S
In871 O878 2.326 . S
In871 O879 2.266 . S
In871 O880 2.326 . S
In871 O882 2.294 . S
In871 O883 2.326 . S
O872 In871 2.294 . S
O872 C881 1.206 1_556 S
O873 In871 2.326 1_554 S
O873 C881 1.255 . S
C874 O877 1.252 . S
C874 O878 1.260 . S
C875 O882 1.240 . S
C875 O883 1.252 . S
C876 O879 1.252 . S
C876 O880 1.260 . S
O877 In871 2.266 . S
O877 C874 1.252 . S
O878 In871 2.326 . S
O878 C874 1.260 . S
O879 In871 2.266 . S
O879 C876 1.252 . S
O880 In871 2.326 . S
O880 C876 1.260 . S
C881 O872 1.206 1_554 S
C881 O873 1.255 . S
O882 In871 2.294 . S
O882 C875 1.240 . S
O883 In871 2.326 . S
O883 C875 1.252 . S
In884 O885 2.294 . S
In884 O886 2.326 . S
In884 O890 2.266 . S
In884 O891 2.326 . S
In884 O892 2.266 . S
In884 O893 2.326 . S
In884 O895 2.294 . S
In884 O896 2.326 . S
O885 In884 2.294 . S
O885 C894 1.240 . S
O886 In884 2.326 . S
O886 C894 1.252 . S
C887 O890 1.252 . S
C887 O891 1.260 . S
C888 O895 1.240 . S
C888 O896 1.252 . S
C889 O892 1.252 . S
C889 O893 1.260 . S
O890 In884 2.266 . S
O890 C887 1.252 . S
O891 In884 2.326 . S
O891 C887 1.260 . S
O892 In884 2.266 . S
O892 C889 1.252 . S
O893 In884 2.326 . S
O893 C889 1.260 . S
C894 O885 1.240 . S
C894 O886 1.252 . S
O895 In884 2.294 . S
O895 C888 1.240 . S
O896 In884 2.326 . S
O896 C888 1.252 . S
In897 O898 2.294 . S
In897 O899 2.326 1_554 S
In897 O903 2.266 . S
In897 O904 2.326 . S
In897 O905 2.266 . S
In897 O906 2.326 . S
In897 O908 2.294 . S
In897 O909 2.326 . S
O898 In897 2.294 . S
O898 C907 1.206 1_554 S
O899 In897 2.326 1_556 S
O899 C907 1.255 . S
C900 O903 1.252 . S
C900 O904 1.260 . S
C901 O908 1.240 . S
C901 O909 1.252 . S
C902 O905 1.252 . S
C902 O906 1.260 . S
O903 In897 2.266 . S
O903 C900 1.252 . S
O904 In897 2.326 . S
O904 C900 1.260 . S
O905 In897 2.266 . S
O905 C902 1.252 . S
O906 In897 2.326 . S
O906 C902 1.260 . S
C907 O898 1.206 1_556 S
C907 O899 1.255 . S
O908 In897 2.294 . S
O908 C901 1.240 . S
O909 In897 2.326 . S
O909 C901 1.252 . S
In910 O911 2.294 . S
In910 O912 2.326 . S
In910 O916 2.266 . S
In910 O917 2.326 . S
In910 O918 2.266 . S
In910 O919 2.326 . S
In910 O921 2.294 . S
In910 O922 2.326 . S
O911 In910 2.294 . S
O911 C920 1.240 . S
O912 In910 2.326 . S
O912 C920 1.252 . S
C913 O916 1.252 . S
C913 O917 1.260 . S
C914 O921 1.240 . S
C914 O922 1.252 . S
C915 O918 1.252 . S
C915 O919 1.260 . S
O916 In910 2.266 . S
O916 C913 1.252 . S
O917 In910 2.326 . S
O917 C913 1.260 . S
O918 In910 2.266 . S
O918 C915 1.252 . S
O919 In910 2.326 . S
O919 C915 1.260 . S
C920 O911 1.240 . S
C920 O912 1.252 . S
O921 In910 2.294 . S
O921 C914 1.240 . S
O922 In910 2.326 . S
O922 C914 1.252 . S
In923 O924 2.294 . S
In923 O925 2.326 . S
In923 O929 2.266 . S
In923 O930 2.326 . S
In923 O931 2.266 . S
In923 O932 2.326 . S
In923 O934 2.294 . S
In923 O935 2.326 . S
O924 In923 2.294 . S
O924 C933 1.240 . S
O925 In923 2.326 . S
O925 C933 1.252 . S
C926 O929 1.252 . S
C926 O930 1.260 . S
C927 O934 1.240 . S
C927 O935 1.252 . S
C928 O931 1.252 . S
C928 O932 1.260 . S
O929 In923 2.266 . S
O929 C926 1.252 . S
O930 In923 2.326 . S
O930 C926 1.260 . S
O931 In923 2.266 . S
O931 C928 1.252 . S
O932 In923 2.326 . S
O932 C928 1.260 . S
C933 O924 1.240 . S
C933 O925 1.252 . S
O934 In923 2.294 . S
O934 C927 1.240 . S
O935 In923 2.326 . S
O935 C927 1.252 . S
In936 O937 2.294 . S
In936 O938 2.326 . S
In936 O942 2.266 . S
In936 O943 2.326 . S
In936 O944 2.266 . S
In936 O945 2.326 . S
In936 O947 2.294 . S
In936 O948 2.326 . S
O937 In936 2.294 . S
O937 C946 1.240 . S
O938 In936 2.326 . S
O938 C946 1.252 . S
C939 O942 1.252 . S
C939 O943 1.260 . S
C940 O947 1.240 . S
C940 O948 1.252 . S
C941 O944 1.252 . S
C941 O945 1.260 . S
O942 In936 2.266 . S
O942 C939 1.252 . S
O943 In936 2.326 . S
O943 C939 1.260 . S
O944 In936 2.266 . S
O944 C941 1.252 . S
O945 In936 2.326 . S
O945 C941 1.260 . S
C946 O937 1.240 . S
C946 O938 1.252 . S
O947 In936 2.294 . S
O947 C940 1.240 . S
O948 In936 2.326 . S
O948 C940 1.252 . S
In949 O950 2.294 . S
In949 O951 2.326 . S
In949 O955 2.266 . S
In949 O956 2.326 . S
In949 O957 2.266 . S
In949 O958 2.326 . S
In949 O960 2.294 . S
In949 O961 2.326 . S
O950 In949 2.294 . S
O950 C959 1.240 . S
O951 In949 2.326 . S
O951 C959 1.252 . S
C952 O955 1.252 . S
C952 O956 1.260 . S
C953 O960 1.240 . S
C953 O961 1.252 . S
C954 O957 1.252 . S
C954 O958 1.260 . S
O955 In949 2.266 . S
O955 C952 1.252 . S
O956 In949 2.326 . S
O956 C952 1.260 . S
O957 In949 2.266 . S
O957 C954 1.252 . S
O958 In949 2.326 . S
O958 C954 1.260 . S
C959 O950 1.240 . S
C959 O951 1.252 . S
O960 In949 2.294 . S
O960 C953 1.240 . S
O961 In949 2.326 . S
O961 C953 1.252 . S
In962 O963 2.294 . S
In962 O964 2.326 . S
In962 O968 2.266 . S
In962 O969 2.326 . S
In962 O970 2.266 . S
In962 O971 2.326 . S
In962 O973 2.294 . S
In962 O974 2.326 1_455 S
O963 In962 2.294 . S
O963 C972 1.240 . S
O964 In962 2.326 . S
O964 C972 1.252 . S
C965 O968 1.252 . S
C965 O969 1.260 . S
C966 O973 1.206 1_655 S
C966 O974 1.255 . S
C967 O970 1.252 . S
C967 O971 1.260 . S
O968 In962 2.266 . S
O968 C965 1.252 . S
O969 In962 2.326 . S
O969 C965 1.260 . S
O970 In962 2.266 . S
O970 C967 1.252 . S
O971 In962 2.326 . S
O971 C967 1.260 . S
C972 O963 1.240 . S
C972 O964 1.252 . S
O973 In962 2.294 . S
O973 C966 1.206 1_455 S
O974 In962 2.326 1_655 S
O974 C966 1.255 . S
In975 O976 2.294 . S
In975 O977 2.326 . S
In975 O981 2.266 . S
In975 O982 2.326 . S
In975 O983 2.266 . S
In975 O984 2.326 . S
In975 O986 2.294 . S
In975 O987 2.326 . S
O976 In975 2.294 . S
O976 C985 1.240 . S
O977 In975 2.326 . S
O977 C985 1.252 . S
C978 O981 1.252 . S
C978 O982 1.260 . S
C979 O986 1.240 . S
C979 O987 1.252 . S
C980 O983 1.252 . S
C980 O984 1.260 . S
O981 In975 2.266 . S
O981 C978 1.252 . S
O982 In975 2.326 . S
O982 C978 1.260 . S
O983 In975 2.266 . S
O983 C980 1.252 . S
O984 In975 2.326 . S
O984 C980 1.260 . S
C985 O976 1.240 . S
C985 O977 1.252 . S
O986 In975 2.294 . S
O986 C979 1.240 . S
O987 In975 2.326 . S
O987 C979 1.252 . S
In988 O989 2.294 . S
In988 O990 2.326 . S
In988 O994 2.266 . S
In988 O995 2.326 . S
In988 O996 2.266 . S
In988 O997 2.326 . S
In988 O999 2.294 . S
In988 O1000 2.326 . S
O989 In988 2.294 . S
O989 C998 1.240 . S
O990 In988 2.326 . S
O990 C998 1.252 . S
C991 O994 1.252 . S
C991 O995 1.260 . S
C992 O999 1.240 . S
C992 O1000 1.252 . S
C993 O996 1.252 . S
C993 O997 1.260 . S
O994 In988 2.266 . S
O994 C991 1.252 . S
O995 In988 2.326 . S
O995 C991 1.260 . S
O996 In988 2.266 . S
O996 C993 1.252 . S
O997 In988 2.326 . S
O997 C993 1.260 . S
C998 O989 1.240 . S
C998 O990 1.252 . S
O999 In988 2.294 . S
O999 C992 1.240 . S
O1000 In988 2.326 . S
O1000 C992 1.252 . S
In1001 O1002 2.294 . S
In1001 O1003 2.326 . S
In1001 O1007 2.266 . S
In1001 O1008 2.326 . S
In1001 O1009 2.266 . S
In1001 O1010 2.326 . S
In1001 O1012 2.294 . S
In1001 O1013 2.326 . S
O1002 In1001 2.294 . S
O1002 C1011 1.240 . S
O1003 In1001 2.326 . S
O1003 C1011 1.252 . S
C1004 O1007 1.252 . S
C1004 O1008 1.260 . S
C1005 O1012 1.240 . S
C1005 O1013 1.252 . S
C1006 O1009 1.252 . S
C1006 O1010 1.260 . S
O1007 In1001 2.266 . S
O1007 C1004 1.252 . S
O1008 In1001 2.326 . S
O1008 C1004 1.260 . S
O1009 In1001 2.266 . S
O1009 C1006 1.252 . S
O1010 In1001 2.326 . S
O1010 C1006 1.260 . S
C1011 O1002 1.240 . S
C1011 O1003 1.252 . S
O1012 In1001 2.294 . S
O1012 C1005 1.240 . S
O1013 In1001 2.326 . S
O1013 C1005 1.252 . S
In1014 O1015 2.294 . S
In1014 O1016 2.326 . S
In1014 O1020 2.266 . S
In1014 O1021 2.326 . S
In1014 O1022 2.266 . S
In1014 O1023 2.326 . S
In1014 O1025 2.294 . S
In1014 O1026 2.326 1_455 S
O1015 In1014 2.294 . S
O1015 C1024 1.240 . S
O1016 In1014 2.326 . S
O1016 C1024 1.252 . S
C1017 O1020 1.252 . S
C1017 O1021 1.260 . S
C1018 O1025 1.206 1_655 S
C1018 O1026 1.255 . S
C1019 O1022 1.252 . S
C1019 O1023 1.260 . S
O1020 In1014 2.266 . S
O1020 C1017 1.252 . S
O1021 In1014 2.326 . S
O1021 C1017 1.260 . S
O1022 In1014 2.266 . S
O1022 C1019 1.252 . S
O1023 In1014 2.326 . S
O1023 C1019 1.260 . S
C1024 O1015 1.240 . S
C1024 O1016 1.252 . S
O1025 In1014 2.294 . S
O1025 C1018 1.206 1_455 S
O1026 In1014 2.326 1_655 S
O1026 C1018 1.255 . S
In1027 O1028 2.294 . S
In1027 O1029 2.326 . S
In1027 O1033 2.266 . S
In1027 O1034 2.326 . S
In1027 O1035 2.266 . S
In1027 O1036 2.326 . S
In1027 O1038 2.294 . S
In1027 O1039 2.326 . S
O1028 In1027 2.294 . S
O1028 C1037 1.240 . S
O1029 In1027 2.326 . S
O1029 C1037 1.252 . S
C1030 O1033 1.252 . S
C1030 O1034 1.260 . S
C1031 O1038 1.240 . S
C1031 O1039 1.252 . S
C1032 O1035 1.252 . S
C1032 O1036 1.260 . S
O1033 In1027 2.266 . S
O1033 C1030 1.252 . S
O1034 In1027 2.326 . S
O1034 C1030 1.260 . S
O1035 In1027 2.266 . S
O1035 C1032 1.252 . S
O1036 In1027 2.326 . S
O1036 C1032 1.260 . S
C1037 O1028 1.240 . S
C1037 O1029 1.252 . S
O1038 In1027 2.294 . S
O1038 C1031 1.240 . S
O1039 In1027 2.326 . S
O1039 C1031 1.252 . S
In1040 O1041 2.294 . S
In1040 O1042 2.326 . S
In1040 O1046 2.266 . S
In1040 O1047 2.326 . S
In1040 O1048 2.266 . S
In1040 O1049 2.326 . S
In1040 O1051 2.294 . S
In1040 O1052 2.326 . S
O1041 In1040 2.294 . S
O1041 C1050 1.240 . S
O1042 In1040 2.326 . S
O1042 C1050 1.252 . S
C1043 O1046 1.252 . S
C1043 O1047 1.260 . S
C1044 O1051 1.240 . S
C1044 O1052 1.252 . S
C1045 O1048 1.252 . S
C1045 O1049 1.260 . S
O1046 In1040 2.266 . S
O1046 C1043 1.252 . S
O1047 In1040 2.326 . S
O1047 C1043 1.260 . S
O1048 In1040 2.266 . S
O1048 C1045 1.252 . S
O1049 In1040 2.326 . S
O1049 C1045 1.260 . S
C1050 O1041 1.240 . S
C1050 O1042 1.252 . S
O1051 In1040 2.294 . S
O1051 C1044 1.240 . S
O1052 In1040 2.326 . S
O1052 C1044 1.252 . S
In1053 O1054 2.294 . S
In1053 O1055 2.326 . S
In1053 O1059 2.266 . S
In1053 O1060 2.326 . S
In1053 O1061 2.266 . S
In1053 O1062 2.326 . S
In1053 O1064 2.294 . S
In1053 O1065 2.326 . S
O1054 In1053 2.294 . S
O1054 C1063 1.240 . S
O1055 In1053 2.326 . S
O1055 C1063 1.252 . S
C1056 O1059 1.252 . S
C1056 O1060 1.260 . S
C1057 O1064 1.240 . S
C1057 O1065 1.252 . S
C1058 O1061 1.252 . S
C1058 O1062 1.260 . S
O1059 In1053 2.266 . S
O1059 C1056 1.252 . S
O1060 In1053 2.326 . S
O1060 C1056 1.260 . S
O1061 In1053 2.266 . S
O1061 C1058 1.252 . S
O1062 In1053 2.326 . S
O1062 C1058 1.260 . S
C1063 O1054 1.240 . S
C1063 O1055 1.252 . S
O1064 In1053 2.294 . S
O1064 C1057 1.240 . S
O1065 In1053 2.326 . S
O1065 C1057 1.252 . S
In1066 O1067 2.294 . S
In1066 O1068 2.326 . S
In1066 O1072 2.266 . S
In1066 O1073 2.326 . S
In1066 O1074 2.266 . S
In1066 O1075 2.326 . S
In1066 O1077 2.294 . S
In1066 O1078 2.326 . S
O1067 In1066 2.294 . S
O1067 C1076 1.240 . S
O1068 In1066 2.326 . S
O1068 C1076 1.252 . S
C1069 O1072 1.252 . S
C1069 O1073 1.260 . S
C1070 O1077 1.240 . S
C1070 O1078 1.252 . S
C1071 O1074 1.252 . S
C1071 O1075 1.260 . S
O1072 In1066 2.266 . S
O1072 C1069 1.252 . S
O1073 In1066 2.326 . S
O1073 C1069 1.260 . S
O1074 In1066 2.266 . S
O1074 C1071 1.252 . S
O1075 In1066 2.326 . S
O1075 C1071 1.260 . S
C1076 O1067 1.240 . S
C1076 O1068 1.252 . S
O1077 In1066 2.294 . S
O1077 C1070 1.240 . S
O1078 In1066 2.326 . S
O1078 C1070 1.252 . S
In1079 O1080 2.294 . S
In1079 O1081 2.326 . S
In1079 O1085 2.266 . S
In1079 O1086 2.326 . S
In1079 O1087 2.266 . S
In1079 O1088 2.326 . S
In1079 O1090 2.294 . S
In1079 O1091 2.326 . S
O1080 In1079 2.294 . S
O1080 C1089 1.240 . S
O1081 In1079 2.326 . S
O1081 C1089 1.252 . S
C1082 O1085 1.252 . S
C1082 O1086 1.260 . S
C1083 O1090 1.240 . S
C1083 O1091 1.252 . S
C1084 O1087 1.252 . S
C1084 O1088 1.260 . S
O1085 In1079 2.266 . S
O1085 C1082 1.252 . S
O1086 In1079 2.326 . S
O1086 C1082 1.260 . S
O1087 In1079 2.266 . S
O1087 C1084 1.252 . S
O1088 In1079 2.326 . S
O1088 C1084 1.260 . S
C1089 O1080 1.240 . S
C1089 O1081 1.252 . S
O1090 In1079 2.294 . S
O1090 C1083 1.240 . S
O1091 In1079 2.326 . S
O1091 C1083 1.252 . S
In1092 O1093 2.294 . S
In1092 O1094 2.326 . S
In1092 O1098 2.266 . S
In1092 O1099 2.326 . S
In1092 O1100 2.266 . S
In1092 O1101 2.326 . S
In1092 O1103 2.294 . S
In1092 O1104 2.326 . S
O1093 In1092 2.294 . S
O1093 C1102 1.240 . S
O1094 In1092 2.326 . S
O1094 C1102 1.252 . S
C1095 O1098 1.252 . S
C1095 O1099 1.260 . S
C1096 O1103 1.240 . S
C1096 O1104 1.252 . S
C1097 O1100 1.252 . S
C1097 O1101 1.260 . S
O1098 In1092 2.266 . S
O1098 C1095 1.252 . S
O1099 In1092 2.326 . S
O1099 C1095 1.260 . S
O1100 In1092 2.266 . S
O1100 C1097 1.252 . S
O1101 In1092 2.326 . S
O1101 C1097 1.260 . S
C1102 O1093 1.240 . S
C1102 O1094 1.252 . S
O1103 In1092 2.294 . S
O1103 C1096 1.240 . S
O1104 In1092 2.326 . S
O1104 C1096 1.252 . S
In1105 O1106 2.294 . S
In1105 O1107 2.326 . S
In1105 O1111 2.266 . S
In1105 O1112 2.326 . S
In1105 O1113 2.266 . S
In1105 O1114 2.326 . S
In1105 O1116 2.294 . S
In1105 O1117 2.326 . S
O1106 In1105 2.294 . S
O1106 C1115 1.240 . S
O1107 In1105 2.326 . S
O1107 C1115 1.252 . S
C1108 O1111 1.252 . S
C1108 O1112 1.260 . S
C1109 O1116 1.240 . S
C1109 O1117 1.252 . S
C1110 O1113 1.252 . S
C1110 O1114 1.260 . S
O1111 In1105 2.266 . S
O1111 C1108 1.252 . S
O1112 In1105 2.326 . S
O1112 C1108 1.260 . S
O1113 In1105 2.266 . S
O1113 C1110 1.252 . S
O1114 In1105 2.326 . S
O1114 C1110 1.260 . S
C1115 O1106 1.240 . S
C1115 O1107 1.252 . S
O1116 In1105 2.294 . S
O1116 C1109 1.240 . S
O1117 In1105 2.326 . S
O1117 C1109 1.252 . S
In1118 O1119 2.294 . S
In1118 O1120 2.326 . S
In1118 O1124 2.266 . S
In1118 O1125 2.326 . S
In1118 O1126 2.266 . S
In1118 O1127 2.326 . S
In1118 O1129 2.294 . S
In1118 O1130 2.326 . S
O1119 In1118 2.294 . S
O1119 C1128 1.240 . S
O1120 In1118 2.326 . S
O1120 C1128 1.252 . S
C1121 O1124 1.252 . S
C1121 O1125 1.260 . S
C1122 O1129 1.240 . S
C1122 O1130 1.252 . S
C1123 O1126 1.252 . S
C1123 O1127 1.260 . S
O1124 In1118 2.266 . S
O1124 C1121 1.252 . S
O1125 In1118 2.326 . S
O1125 C1121 1.260 . S
O1126 In1118 2.266 . S
O1126 C1123 1.252 . S
O1127 In1118 2.326 . S
O1127 C1123 1.260 . S
C1128 O1119 1.240 . S
C1128 O1120 1.252 . S
O1129 In1118 2.294 . S
O1129 C1122 1.240 . S
O1130 In1118 2.326 . S
O1130 C1122 1.252 . S
In1131 O1132 2.294 . S
In1131 O1133 2.326 . S
In1131 O1137 2.266 . S
In1131 O1138 2.326 . S
In1131 O1139 2.266 . S
In1131 O1140 2.326 . S
In1131 O1142 2.294 . S
In1131 O1143 2.326 . S
O1132 In1131 2.294 . S
O1132 C1141 1.240 . S
O1133 In1131 2.326 . S
O1133 C1141 1.252 . S
C1134 O1137 1.252 . S
C1134 O1138 1.260 . S
C1135 O1142 1.240 . S
C1135 O1143 1.252 . S
C1136 O1139 1.252 . S
C1136 O1140 1.260 . S
O1137 In1131 2.266 . S
O1137 C1134 1.252 . S
O1138 In1131 2.326 . S
O1138 C1134 1.260 . S
O1139 In1131 2.266 . S
O1139 C1136 1.252 . S
O1140 In1131 2.326 . S
O1140 C1136 1.260 . S
C1141 O1132 1.240 . S
C1141 O1133 1.252 . S
O1142 In1131 2.294 . S
O1142 C1135 1.240 . S
O1143 In1131 2.326 . S
O1143 C1135 1.252 . S
In1144 O1145 2.294 . S
In1144 O1146 2.326 . S
In1144 O1150 2.266 . S
In1144 O1151 2.326 . S
In1144 O1152 2.266 . S
In1144 O1153 2.326 . S
In1144 O1155 2.294 . S
In1144 O1156 2.326 . S
O1145 In1144 2.294 . S
O1145 C1154 1.240 . S
O1146 In1144 2.326 . S
O1146 C1154 1.252 . S
C1147 O1150 1.252 . S
C1147 O1151 1.260 . S
C1148 O1155 1.240 . S
C1148 O1156 1.252 . S
C1149 O1152 1.252 . S
C1149 O1153 1.260 . S
O1150 In1144 2.266 . S
O1150 C1147 1.252 . S
O1151 In1144 2.326 . S
O1151 C1147 1.260 . S
O1152 In1144 2.266 . S
O1152 C1149 1.252 . S
O1153 In1144 2.326 . S
O1153 C1149 1.260 . S
C1154 O1145 1.240 . S
C1154 O1146 1.252 . S
O1155 In1144 2.294 . S
O1155 C1148 1.240 . S
O1156 In1144 2.326 . S
O1156 C1148 1.252 . S
In1157 O1158 2.294 . S
In1157 O1159 2.326 . S
In1157 O1163 2.266 . S
In1157 O1164 2.326 . S
In1157 O1165 2.266 . S
In1157 O1166 2.326 . S
In1157 O1168 2.294 . S
In1157 O1169 2.326 . S
O1158 In1157 2.294 . S
O1158 C1167 1.240 . S
O1159 In1157 2.326 . S
O1159 C1167 1.252 . S
C1160 O1163 1.252 . S
C1160 O1164 1.260 . S
C1161 O1168 1.240 . S
C1161 O1169 1.252 . S
C1162 O1165 1.252 . S
C1162 O1166 1.260 . S
O1163 In1157 2.266 . S
O1163 C1160 1.252 . S
O1164 In1157 2.326 . S
O1164 C1160 1.260 . S
O1165 In1157 2.266 . S
O1165 C1162 1.252 . S
O1166 In1157 2.326 . S
O1166 C1162 1.260 . S
C1167 O1158 1.240 . S
C1167 O1159 1.252 . S
O1168 In1157 2.294 . S
O1168 C1161 1.240 . S
O1169 In1157 2.326 . S
O1169 C1161 1.252 . S
In1170 O1171 2.294 . S
In1170 O1172 2.326 . S
In1170 O1176 2.266 . S
In1170 O1177 2.326 . S
In1170 O1178 2.266 . S
In1170 O1179 2.326 . S
In1170 O1181 2.294 . S
In1170 O1182 2.326 . S
O1171 In1170 2.294 . S
O1171 C1180 1.240 . S
O1172 In1170 2.326 . S
O1172 C1180 1.252 . S
C1173 O1176 1.252 . S
C1173 O1177 1.260 . S
C1174 O1181 1.240 . S
C1174 O1182 1.252 . S
C1175 O1178 1.252 . S
C1175 O1179 1.260 . S
O1176 In1170 2.266 . S
O1176 C1173 1.252 . S
O1177 In1170 2.326 . S
O1177 C1173 1.260 . S
O1178 In1170 2.266 . S
O1178 C1175 1.252 . S
O1179 In1170 2.326 . S
O1179 C1175 1.260 . S
C1180 O1171 1.240 . S
C1180 O1172 1.252 . S
O1181 In1170 2.294 . S
O1181 C1174 1.240 . S
O1182 In1170 2.326 . S
O1182 C1174 1.252 . S
In1183 O1184 2.294 . S
In1183 O1185 2.326 . S
In1183 O1189 2.266 . S
In1183 O1190 2.326 . S
In1183 O1191 2.266 . S
In1183 O1192 2.326 . S
In1183 O1194 2.294 . S
In1183 O1195 2.326 1_554 S
O1184 In1183 2.294 . S
O1184 C1193 1.240 . S
O1185 In1183 2.326 . S
O1185 C1193 1.252 . S
C1186 O1189 1.252 . S
C1186 O1190 1.260 . S
C1187 O1194 1.206 1_556 S
C1187 O1195 1.255 . S
C1188 O1191 1.252 . S
C1188 O1192 1.260 . S
O1189 In1183 2.266 . S
O1189 C1186 1.252 . S
O1190 In1183 2.326 . S
O1190 C1186 1.260 . S
O1191 In1183 2.266 . S
O1191 C1188 1.252 . S
O1192 In1183 2.326 . S
O1192 C1188 1.260 . S
C1193 O1184 1.240 . S
C1193 O1185 1.252 . S
O1194 In1183 2.294 . S
O1194 C1187 1.206 1_554 S
O1195 In1183 2.326 1_556 S
O1195 C1187 1.255 . S
In1196 O1197 2.294 . S
In1196 O1198 2.326 . S
In1196 O1202 2.266 . S
In1196 O1203 2.326 . S
In1196 O1204 2.266 . S
In1196 O1205 2.326 . S
In1196 O1207 2.294 . S
In1196 O1208 2.326 . S
O1197 In1196 2.294 . S
O1197 C1206 1.240 . S
O1198 In1196 2.326 . S
O1198 C1206 1.252 . S
C1199 O1202 1.252 . S
C1199 O1203 1.260 . S
C1200 O1207 1.240 . S
C1200 O1208 1.252 . S
C1201 O1204 1.252 . S
C1201 O1205 1.260 . S
O1202 In1196 2.266 . S
O1202 C1199 1.252 . S
O1203 In1196 2.326 . S
O1203 C1199 1.260 . S
O1204 In1196 2.266 . S
O1204 C1201 1.252 . S
O1205 In1196 2.326 . S
O1205 C1201 1.260 . S
C1206 O1197 1.240 . S
C1206 O1198 1.252 . S
O1207 In1196 2.294 . S
O1207 C1200 1.240 . S
O1208 In1196 2.326 . S
O1208 C1200 1.252 . S
In1209 O1210 2.294 . S
In1209 O1211 2.326 1_556 S
In1209 O1215 2.266 . S
In1209 O1216 2.326 . S
In1209 O1217 2.266 . S
In1209 O1218 2.326 . S
In1209 O1220 2.294 . S
In1209 O1221 2.326 . S
O1210 In1209 2.294 . S
O1210 C1219 1.206 1_556 S
O1211 In1209 2.326 1_554 S
O1211 C1219 1.255 . S
C1212 O1215 1.252 . S
C1212 O1216 1.260 . S
C1213 O1220 1.240 . S
C1213 O1221 1.252 . S
C1214 O1217 1.252 . S
C1214 O1218 1.260 . S
O1215 In1209 2.266 . S
O1215 C1212 1.252 . S
O1216 In1209 2.326 . S
O1216 C1212 1.260 . S
O1217 In1209 2.266 . S
O1217 C1214 1.252 . S
O1218 In1209 2.326 . S
O1218 C1214 1.260 . S
C1219 O1210 1.206 1_554 S
C1219 O1211 1.255 . S
O1220 In1209 2.294 . S
O1220 C1213 1.240 . S
O1221 In1209 2.326 . S
O1221 C1213 1.252 . S
In1222 O1223 2.294 . S
In1222 O1224 2.326 . S
In1222 O1228 2.266 . S
In1222 O1229 2.326 . S
In1222 O1230 2.266 . S
In1222 O1231 2.326 . S
In1222 O1233 2.294 . S
In1222 O1234 2.326 . S
O1223 In1222 2.294 . S
O1223 C1232 1.240 . S
O1224 In1222 2.326 . S
O1224 C1232 1.252 . S
C1225 O1228 1.252 . S
C1225 O1229 1.260 . S
C1226 O1233 1.240 . S
C1226 O1234 1.252 . S
C1227 O1230 1.252 . S
C1227 O1231 1.260 . S
O1228 In1222 2.266 . S
O1228 C1225 1.252 . S
O1229 In1222 2.326 . S
O1229 C1225 1.260 . S
O1230 In1222 2.266 . S
O1230 C1227 1.252 . S
O1231 In1222 2.326 . S
O1231 C1227 1.260 . S
C1232 O1223 1.240 . S
C1232 O1224 1.252 . S
O1233 In1222 2.294 . S
O1233 C1226 1.240 . S
O1234 In1222 2.326 . S
O1234 C1226 1.252 . S
In1235 O1236 2.294 . S
In1235 O1237 2.326 . S
In1235 O1241 2.266 . S
In1235 O1242 2.326 . S
In1235 O1243 2.266 . S
In1235 O1244 2.326 . S
In1235 O1246 2.294 . S
In1235 O1247 2.326 . S
O1236 In1235 2.294 . S
O1236 C1245 1.240 . S
O1237 In1235 2.326 . S
O1237 C1245 1.252 . S
C1238 O1241 1.252 . S
C1238 O1242 1.260 . S
C1239 O1246 1.240 . S
C1239 O1247 1.252 . S
C1240 O1243 1.252 . S
C1240 O1244 1.260 . S
O1241 In1235 2.266 . S
O1241 C1238 1.252 . S
O1242 In1235 2.326 . S
O1242 C1238 1.260 . S
O1243 In1235 2.266 . S
O1243 C1240 1.252 . S
O1244 In1235 2.326 . S
O1244 C1240 1.260 . S
C1245 O1236 1.240 . S
C1245 O1237 1.252 . S
O1246 In1235 2.294 . S
O1246 C1239 1.240 . S
O1247 In1235 2.326 . S
O1247 C1239 1.252 . S
H1248 C1256 0.950 . S
H1249 C1261 0.950 . S
H1250 C1258 0.950 . S
H1251 C1260 0.950 . S
H1252 C1262 0.950 . S
H1253 C1264 0.950 . S
H1254 C1266 0.950 . S
H1255 C1267 0.950 . S
C1256 H1248 0.950 . S
C1256 C1257 1.386 . S
C1256 C1258 1.391 . S
C1257 C1256 1.386 . S
C1257 C1261 1.393 . S
C1258 H1250 0.950 . S
C1258 C1256 1.391 . S
C1258 C1259 1.400 . S
C1259 C1258 1.400 . S
C1259 C1260 1.398 . S
C1259 C1265 1.491 . S
C1260 H1251 0.950 . S
C1260 C1259 1.398 . S
C1260 C1261 1.391 . S
C1261 H1249 0.950 . S
C1261 C1257 1.393 . S
C1261 C1260 1.391 . S
C1262 H1252 0.950 . S
C1262 C1263 1.386 . S
C1262 C1264 1.391 . S
C1263 C1262 1.386 . S
C1263 C1267 1.393 . S
C1264 H1253 0.950 . S
C1264 C1262 1.391 . S
C1264 C1265 1.400 . S
C1265 C1259 1.491 . S
C1265 C1264 1.400 . S
C1265 C1266 1.398 . S
C1266 H1254 0.950 . S
C1266 C1265 1.398 . S
C1266 C1267 1.391 . S
C1267 H1255 0.950 . S
C1267 C1263 1.393 . S
C1267 C1266 1.391 . S
H1268 C1276 0.950 . S
H1269 C1281 0.950 . S
H1270 C1278 0.950 . S
H1271 C1280 0.950 . S
H1272 C1282 0.950 . S
H1273 C1284 0.950 . S
H1274 C1286 0.950 . S
H1275 C1287 0.950 . S
C1276 H1268 0.950 . S
C1276 C1277 1.386 . S
C1276 C1278 1.391 . S
C1277 C1276 1.386 . S
C1277 C1281 1.393 . S
C1278 H1270 0.950 . S
C1278 C1276 1.391 . S
C1278 C1279 1.400 . S
C1279 C1278 1.400 . S
C1279 C1280 1.398 . S
C1279 C1285 1.491 . S
C1280 H1271 0.950 . S
C1280 C1279 1.398 . S
C1280 C1281 1.391 . S
C1281 H1269 0.950 . S
C1281 C1277 1.393 . S
C1281 C1280 1.391 . S
C1282 H1272 0.950 . S
C1282 C1283 1.386 . S
C1282 C1284 1.391 . S
C1283 C1282 1.386 . S
C1283 C1287 1.393 . S
C1284 H1273 0.950 . S
C1284 C1282 1.391 . S
C1284 C1285 1.400 . S
C1285 C1279 1.491 . S
C1285 C1284 1.400 . S
C1285 C1286 1.398 . S
C1286 H1274 0.950 . S
C1286 C1285 1.398 . S
C1286 C1287 1.391 . S
C1287 H1275 0.950 . S
C1287 C1283 1.393 . S
C1287 C1286 1.391 . S
H1288 C1296 0.950 . S
H1289 C1301 0.950 . S
H1290 C1298 0.950 . S
H1291 C1300 0.950 . S
H1292 C1302 0.950 . S
H1293 C1304 0.950 . S
H1294 C1306 0.950 . S
H1295 C1307 0.950 . S
C1296 H1288 0.950 . S
C1296 C1297 1.386 . S
C1296 C1298 1.391 . S
C1297 C1296 1.386 . S
C1297 C1301 1.393 . S
C1298 H1290 0.950 . S
C1298 C1296 1.391 . S
C1298 C1299 1.400 . S
C1299 C1298 1.400 . S
C1299 C1300 1.398 . S
C1299 C1305 1.491 . S
C1300 H1291 0.950 . S
C1300 C1299 1.398 . S
C1300 C1301 1.391 . S
C1301 H1289 0.950 . S
C1301 C1297 1.393 . S
C1301 C1300 1.391 . S
C1302 H1292 0.950 . S
C1302 C1303 1.386 . S
C1302 C1304 1.391 . S
C1303 C1302 1.386 . S
C1303 C1307 1.393 . S
C1304 H1293 0.950 . S
C1304 C1302 1.391 . S
C1304 C1305 1.400 . S
C1305 C1299 1.491 . S
C1305 C1304 1.400 . S
C1305 C1306 1.398 . S
C1306 H1294 0.950 . S
C1306 C1305 1.398 . S
C1306 C1307 1.391 . S
C1307 H1295 0.950 . S
C1307 C1303 1.393 . S
C1307 C1306 1.391 . S
H1308 C1316 0.950 . S
H1309 C1321 0.950 . S
H1310 C1318 0.950 . S
H1311 C1320 0.950 . S
H1312 C1322 0.950 . S
H1313 C1324 0.950 . S
H1314 C1326 0.950 . S
H1315 C1327 0.950 . S
C1316 H1308 0.950 . S
C1316 C1317 1.386 . S
C1316 C1318 1.391 . S
C1317 C1316 1.386 . S
C1317 C1321 1.393 . S
C1318 H1310 0.950 . S
C1318 C1316 1.391 . S
C1318 C1319 1.400 . S
C1319 C1318 1.400 . S
C1319 C1320 1.398 . S
C1319 C1325 1.491 . S
C1320 H1311 0.950 . S
C1320 C1319 1.398 . S
C1320 C1321 1.391 . S
C1321 H1309 0.950 . S
C1321 C1317 1.393 . S
C1321 C1320 1.391 . S
C1322 H1312 0.950 . S
C1322 C1323 1.386 . S
C1322 C1324 1.391 . S
C1323 C1322 1.386 . S
C1323 C1327 1.393 . S
C1324 H1313 0.950 . S
C1324 C1322 1.391 . S
C1324 C1325 1.400 . S
C1325 C1319 1.491 . S
C1325 C1324 1.400 . S
C1325 C1326 1.398 . S
C1326 H1314 0.950 . S
C1326 C1325 1.398 . S
C1326 C1327 1.391 . S
C1327 H1315 0.950 . S
C1327 C1323 1.393 . S
C1327 C1326 1.391 . S
H1328 C1336 0.950 . S
H1329 C1341 0.950 . S
H1330 C1338 0.950 . S
H1331 C1340 0.950 . S
H1332 C1342 0.950 . S
H1333 C1344 0.950 . S
H1334 C1346 0.950 . S
H1335 C1347 0.950 . S
C1336 H1328 0.950 . S
C1336 C1337 1.386 . S
C1336 C1338 1.391 . S
C1337 C1336 1.386 . S
C1337 C1341 1.393 . S
C1338 H1330 0.950 . S
C1338 C1336 1.391 . S
C1338 C1339 1.400 . S
C1339 C1338 1.400 . S
C1339 C1340 1.398 . S
C1339 C1345 1.491 . S
C1340 H1331 0.950 . S
C1340 C1339 1.398 . S
C1340 C1341 1.391 . S
C1341 H1329 0.950 . S
C1341 C1337 1.393 . S
C1341 C1340 1.391 . S
C1342 H1332 0.950 . S
C1342 C1343 1.386 . S
C1342 C1344 1.391 . S
C1343 C1342 1.386 . S
C1343 C1347 1.393 . S
C1344 H1333 0.950 . S
C1344 C1342 1.391 . S
C1344 C1345 1.400 . S
C1345 C1339 1.491 . S
C1345 C1344 1.400 . S
C1345 C1346 1.398 . S
C1346 H1334 0.950 . S
C1346 C1345 1.398 . S
C1346 C1347 1.391 . S
C1347 H1335 0.950 . S
C1347 C1343 1.393 . S
C1347 C1346 1.391 . S
H1348 C1356 0.950 . S
H1349 C1361 0.950 . S
H1350 C1358 0.950 . S
H1351 C1360 0.950 . S
H1352 C1362 0.950 . S
H1353 C1364 0.950 . S
H1354 C1366 0.950 . S
H1355 C1367 0.950 . S
C1356 H1348 0.950 . S
C1356 C1357 1.386 . S
C1356 C1358 1.391 . S
C1357 C1356 1.386 . S
C1357 C1361 1.393 . S
C1358 H1350 0.950 . S
C1358 C1356 1.391 . S
C1358 C1359 1.400 . S
C1359 C1358 1.400 . S
C1359 C1360 1.398 . S
C1359 C1365 1.491 . S
C1360 H1351 0.950 . S
C1360 C1359 1.398 . S
C1360 C1361 1.391 . S
C1361 H1349 0.950 . S
C1361 C1357 1.393 . S
C1361 C1360 1.391 . S
C1362 H1352 0.950 . S
C1362 C1363 1.386 . S
C1362 C1364 1.391 . S
C1363 C1362 1.386 . S
C1363 C1367 1.393 . S
C1364 H1353 0.950 . S
C1364 C1362 1.391 . S
C1364 C1365 1.400 . S
C1365 C1359 1.491 . S
C1365 C1364 1.400 . S
C1365 C1366 1.398 . S
C1366 H1354 0.950 . S
C1366 C1365 1.398 . S
C1366 C1367 1.391 . S
C1367 H1355 0.950 . S
C1367 C1363 1.393 . S
C1367 C1366 1.391 . S
H1368 C1376 0.950 . S
H1369 C1381 0.950 . S
H1370 C1378 0.950 . S
H1371 C1380 0.950 . S
H1372 C1382 0.950 . S
H1373 C1384 0.950 . S
H1374 C1386 0.950 . S
H1375 C1387 0.950 . S
C1376 H1368 0.950 . S
C1376 C1377 1.386 . S
C1376 C1378 1.391 . S
C1377 C1376 1.386 . S
C1377 C1381 1.393 . S
C1378 H1370 0.950 . S
C1378 C1376 1.391 . S
C1378 C1379 1.400 . S
C1379 C1378 1.400 . S
C1379 C1380 1.398 . S
C1379 C1385 1.491 . S
C1380 H1371 0.950 . S
C1380 C1379 1.398 . S
C1380 C1381 1.391 . S
C1381 H1369 0.950 . S
C1381 C1377 1.393 . S
C1381 C1380 1.391 . S
C1382 H1372 0.950 . S
C1382 C1383 1.386 . S
C1382 C1384 1.391 . S
C1383 C1382 1.386 . S
C1383 C1387 1.393 . S
C1384 H1373 0.950 . S
C1384 C1382 1.391 . S
C1384 C1385 1.400 . S
C1385 C1379 1.491 . S
C1385 C1384 1.400 . S
C1385 C1386 1.398 . S
C1386 H1374 0.950 . S
C1386 C1385 1.398 . S
C1386 C1387 1.391 . S
C1387 H1375 0.950 . S
C1387 C1383 1.393 . S
C1387 C1386 1.391 . S
H1388 C1396 0.950 . S
H1389 C1401 0.950 . S
H1390 C1398 0.950 . S
H1391 C1400 0.950 . S
H1392 C1402 0.950 . S
H1393 C1404 0.950 . S
H1394 C1406 0.950 . S
H1395 C1407 0.950 . S
C1396 H1388 0.950 . S
C1396 C1397 1.386 . S
C1396 C1398 1.391 . S
C1397 C1396 1.386 . S
C1397 C1401 1.393 . S
C1398 H1390 0.950 . S
C1398 C1396 1.391 . S
C1398 C1399 1.400 . S
C1399 C1398 1.400 . S
C1399 C1400 1.398 . S
C1399 C1405 1.491 . S
C1400 H1391 0.950 . S
C1400 C1399 1.398 . S
C1400 C1401 1.391 . S
C1401 H1389 0.950 . S
C1401 C1397 1.393 . S
C1401 C1400 1.391 . S
C1402 H1392 0.950 . S
C1402 C1403 1.386 . S
C1402 C1404 1.391 . S
C1403 C1402 1.386 . S
C1403 C1407 1.393 . S
C1404 H1393 0.950 . S
C1404 C1402 1.391 . S
C1404 C1405 1.400 . S
C1405 C1399 1.491 . S
C1405 C1404 1.400 . S
C1405 C1406 1.398 . S
C1406 H1394 0.950 . S
C1406 C1405 1.398 . S
C1406 C1407 1.391 . S
C1407 H1395 0.950 . S
C1407 C1403 1.393 . S
C1407 C1406 1.391 . S
H1408 C1416 0.950 . S
H1409 C1421 0.950 . S
H1410 C1418 0.950 . S
H1411 C1420 0.950 . S
H1412 C1422 0.950 . S
H1413 C1424 0.950 . S
H1414 C1426 0.950 . S
H1415 C1427 0.950 . S
C1416 H1408 0.950 . S
C1416 C1417 1.386 . S
C1416 C1418 1.391 . S
C1417 C1416 1.386 . S
C1417 C1421 1.393 . S
C1418 H1410 0.950 . S
C1418 C1416 1.391 . S
C1418 C1419 1.400 . S
C1419 C1418 1.400 . S
C1419 C1420 1.398 . S
C1419 C1425 1.491 . S
C1420 H1411 0.950 . S
C1420 C1419 1.398 . S
C1420 C1421 1.391 . S
C1421 H1409 0.950 . S
C1421 C1417 1.393 . S
C1421 C1420 1.391 . S
C1422 H1412 0.950 . S
C1422 C1423 1.386 . S
C1422 C1424 1.391 . S
C1423 C1422 1.386 . S
C1423 C1427 1.393 . S
C1424 H1413 0.950 . S
C1424 C1422 1.391 . S
C1424 C1425 1.400 . S
C1425 C1419 1.491 . S
C1425 C1424 1.400 . S
C1425 C1426 1.398 . S
C1426 H1414 0.950 . S
C1426 C1425 1.398 . S
C1426 C1427 1.391 . S
C1427 H1415 0.950 . S
C1427 C1423 1.393 . S
C1427 C1426 1.391 . S
H1428 C1436 0.950 . S
H1429 C1441 0.950 . S
H1430 C1438 0.950 . S
H1431 C1440 0.950 . S
H1432 C1442 0.950 . S
H1433 C1444 0.950 . S
H1434 C1446 0.950 . S
H1435 C1447 0.950 . S
C1436 H1428 0.950 . S
C1436 C1437 1.386 . S
C1436 C1438 1.391 . S
C1437 C1436 1.386 . S
C1437 C1441 1.393 . S
C1438 H1430 0.950 . S
C1438 C1436 1.391 . S
C1438 C1439 1.400 . S
C1439 C1438 1.400 . S
C1439 C1440 1.398 . S
C1439 C1445 1.491 . S
C1440 H1431 0.950 . S
C1440 C1439 1.398 . S
C1440 C1441 1.391 . S
C1441 H1429 0.950 . S
C1441 C1437 1.393 . S
C1441 C1440 1.391 . S
C1442 H1432 0.950 . S
C1442 C1443 1.386 . S
C1442 C1444 1.391 . S
C1443 C1442 1.386 . S
C1443 C1447 1.393 . S
C1444 H1433 0.950 . S
C1444 C1442 1.391 . S
C1444 C1445 1.400 . S
C1445 C1439 1.491 . S
C1445 C1444 1.400 . S
C1445 C1446 1.398 . S
C1446 H1434 0.950 . S
C1446 C1445 1.398 . S
C1446 C1447 1.391 . S
C1447 H1435 0.950 . S
C1447 C1443 1.393 . S
C1447 C1446 1.391 . S
H1448 C1456 0.950 . S
H1449 C1461 0.950 . S
H1450 C1458 0.950 . S
H1451 C1460 0.950 . S
H1452 C1462 0.950 . S
H1453 C1464 0.950 . S
H1454 C1466 0.950 . S
H1455 C1467 0.950 . S
C1456 H1448 0.950 . S
C1456 C1457 1.386 . S
C1456 C1458 1.391 . S
C1457 C1456 1.386 . S
C1457 C1461 1.393 . S
C1458 H1450 0.950 . S
C1458 C1456 1.391 . S
C1458 C1459 1.400 . S
C1459 C1458 1.400 . S
C1459 C1460 1.398 . S
C1459 C1465 1.491 . S
C1460 H1451 0.950 . S
C1460 C1459 1.398 . S
C1460 C1461 1.391 . S
C1461 H1449 0.950 . S
C1461 C1457 1.393 . S
C1461 C1460 1.391 . S
C1462 H1452 0.950 . S
C1462 C1463 1.386 . S
C1462 C1464 1.391 . S
C1463 C1462 1.386 . S
C1463 C1467 1.393 . S
C1464 H1453 0.950 . S
C1464 C1462 1.391 . S
C1464 C1465 1.400 . S
C1465 C1459 1.491 . S
C1465 C1464 1.400 . S
C1465 C1466 1.398 . S
C1466 H1454 0.950 . S
C1466 C1465 1.398 . S
C1466 C1467 1.391 . S
C1467 H1455 0.950 . S
C1467 C1463 1.393 . S
C1467 C1466 1.391 . S
H1468 C1476 0.950 . S
H1469 C1481 0.950 . S
H1470 C1478 0.950 . S
H1471 C1480 0.950 . S
H1472 C1482 0.950 . S
H1473 C1484 0.950 . S
H1474 C1486 0.950 . S
H1475 C1487 0.950 . S
C1476 H1468 0.950 . S
C1476 C1477 1.386 . S
C1476 C1478 1.391 . S
C1477 C1476 1.386 . S
C1477 C1481 1.393 . S
C1478 H1470 0.950 . S
C1478 C1476 1.391 . S
C1478 C1479 1.400 . S
C1479 C1478 1.400 . S
C1479 C1480 1.398 . S
C1479 C1485 1.491 . S
C1480 H1471 0.950 . S
C1480 C1479 1.398 . S
C1480 C1481 1.391 . S
C1481 H1469 0.950 . S
C1481 C1477 1.393 . S
C1481 C1480 1.391 . S
C1482 H1472 0.950 . S
C1482 C1483 1.386 . S
C1482 C1484 1.391 . S
C1483 C1482 1.386 . S
C1483 C1487 1.393 . S
C1484 H1473 0.950 . S
C1484 C1482 1.391 . S
C1484 C1485 1.400 . S
C1485 C1479 1.491 . S
C1485 C1484 1.400 . S
C1485 C1486 1.398 . S
C1486 H1474 0.950 . S
C1486 C1485 1.398 . S
C1486 C1487 1.391 . S
C1487 H1475 0.950 . S
C1487 C1483 1.393 . S
C1487 C1486 1.391 . S
H1488 C1496 0.950 . S
H1489 C1501 0.950 . S
H1490 C1498 0.950 . S
H1491 C1500 0.950 . S
H1492 C1502 0.950 . S
H1493 C1504 0.950 . S
H1494 C1506 0.950 . S
H1495 C1507 0.950 . S
C1496 H1488 0.950 . S
C1496 C1497 1.386 . S
C1496 C1498 1.391 . S
C1497 C1496 1.386 . S
C1497 C1501 1.393 . S
C1498 H1490 0.950 . S
C1498 C1496 1.391 . S
C1498 C1499 1.400 . S
C1499 C1498 1.400 . S
C1499 C1500 1.398 . S
C1499 C1505 1.491 . S
C1500 H1491 0.950 . S
C1500 C1499 1.398 . S
C1500 C1501 1.391 . S
C1501 H1489 0.950 . S
C1501 C1497 1.393 . S
C1501 C1500 1.391 . S
C1502 H1492 0.950 . S
C1502 C1503 1.386 . S
C1502 C1504 1.391 . S
C1503 C1502 1.386 . S
C1503 C1507 1.393 . S
C1504 H1493 0.950 . S
C1504 C1502 1.391 . S
C1504 C1505 1.400 . S
C1505 C1499 1.491 . S
C1505 C1504 1.400 . S
C1505 C1506 1.398 . S
C1506 H1494 0.950 . S
C1506 C1505 1.398 . S
C1506 C1507 1.391 . S
C1507 H1495 0.950 . S
C1507 C1503 1.393 . S
C1507 C1506 1.391 . S
H1508 C1516 0.950 . S
H1509 C1521 0.950 . S
H1510 C1518 0.950 . S
H1511 C1520 0.950 . S
H1512 C1522 0.950 . S
H1513 C1524 0.950 . S
H1514 C1526 0.950 . S
H1515 C1527 0.950 . S
C1516 H1508 0.950 . S
C1516 C1517 1.386 . S
C1516 C1518 1.391 . S
C1517 C1516 1.386 . S
C1517 C1521 1.393 . S
C1518 H1510 0.950 . S
C1518 C1516 1.391 . S
C1518 C1519 1.400 . S
C1519 C1518 1.400 . S
C1519 C1520 1.398 . S
C1519 C1525 1.491 . S
C1520 H1511 0.950 . S
C1520 C1519 1.398 . S
C1520 C1521 1.391 . S
C1521 H1509 0.950 . S
C1521 C1517 1.393 . S
C1521 C1520 1.391 . S
C1522 H1512 0.950 . S
C1522 C1523 1.386 . S
C1522 C1524 1.391 . S
C1523 C1522 1.386 . S
C1523 C1527 1.393 . S
C1524 H1513 0.950 . S
C1524 C1522 1.391 . S
C1524 C1525 1.400 . S
C1525 C1519 1.491 . S
C1525 C1524 1.400 . S
C1525 C1526 1.398 . S
C1526 H1514 0.950 . S
C1526 C1525 1.398 . S
C1526 C1527 1.391 . S
C1527 H1515 0.950 . S
C1527 C1523 1.393 . S
C1527 C1526 1.391 . S
H1528 C1536 0.950 . S
H1529 C1541 0.950 . S
H1530 C1538 0.950 . S
H1531 C1540 0.950 . S
H1532 C1542 0.950 . S
H1533 C1544 0.950 . S
H1534 C1546 0.950 . S
H1535 C1547 0.950 . S
C1536 H1528 0.950 . S
C1536 C1537 1.386 . S
C1536 C1538 1.391 . S
C1537 C1536 1.386 . S
C1537 C1541 1.393 . S
C1538 H1530 0.950 . S
C1538 C1536 1.391 . S
C1538 C1539 1.400 . S
C1539 C1538 1.400 . S
C1539 C1540 1.398 . S
C1539 C1545 1.491 . S
C1540 H1531 0.950 . S
C1540 C1539 1.398 . S
C1540 C1541 1.391 . S
C1541 H1529 0.950 . S
C1541 C1537 1.393 . S
C1541 C1540 1.391 . S
C1542 H1532 0.950 . S
C1542 C1543 1.386 . S
C1542 C1544 1.391 . S
C1543 C1542 1.386 . S
C1543 C1547 1.393 . S
C1544 H1533 0.950 . S
C1544 C1542 1.391 . S
C1544 C1545 1.400 . S
C1545 C1539 1.491 . S
C1545 C1544 1.400 . S
C1545 C1546 1.398 . S
C1546 H1534 0.950 . S
C1546 C1545 1.398 . S
C1546 C1547 1.391 . S
C1547 H1535 0.950 . S
C1547 C1543 1.393 . S
C1547 C1546 1.391 . S
H1548 C1556 0.950 . S
H1549 C1561 0.950 . S
H1550 C1558 0.950 . S
H1551 C1560 0.950 . S
H1552 C1562 0.950 . S
H1553 C1564 0.950 . S
H1554 C1566 0.950 . S
H1555 C1567 0.950 . S
C1556 H1548 0.950 . S
C1556 C1557 1.386 . S
C1556 C1558 1.391 . S
C1557 C1556 1.386 . S
C1557 C1561 1.393 . S
C1558 H1550 0.950 . S
C1558 C1556 1.391 . S
C1558 C1559 1.400 . S
C1559 C1558 1.400 . S
C1559 C1560 1.398 . S
C1559 C1565 1.491 . S
C1560 H1551 0.950 . S
C1560 C1559 1.398 . S
C1560 C1561 1.391 . S
C1561 H1549 0.950 . S
C1561 C1557 1.393 . S
C1561 C1560 1.391 . S
C1562 H1552 0.950 . S
C1562 C1563 1.386 . S
C1562 C1564 1.391 . S
C1563 C1562 1.386 . S
C1563 C1567 1.393 . S
C1564 H1553 0.950 . S
C1564 C1562 1.391 . S
C1564 C1565 1.400 . S
C1565 C1559 1.491 . S
C1565 C1564 1.400 . S
C1565 C1566 1.398 . S
C1566 H1554 0.950 . S
C1566 C1565 1.398 . S
C1566 C1567 1.391 . S
C1567 H1555 0.950 . S
C1567 C1563 1.393 . S
C1567 C1566 1.391 . S
H1568 C1576 0.950 . S
H1569 C1581 0.950 . S
H1570 C1578 0.950 . S
H1571 C1580 0.950 . S
H1572 C1582 0.950 . S
H1573 C1584 0.950 . S
H1574 C1586 0.950 . S
H1575 C1587 0.950 . S
C1576 H1568 0.950 . S
C1576 C1577 1.386 . S
C1576 C1578 1.391 . S
C1577 C1576 1.386 . S
C1577 C1581 1.393 . S
C1578 H1570 0.950 . S
C1578 C1576 1.391 . S
C1578 C1579 1.400 . S
C1579 C1578 1.400 . S
C1579 C1580 1.398 . S
C1579 C1585 1.491 . S
C1580 H1571 0.950 . S
C1580 C1579 1.398 . S
C1580 C1581 1.391 . S
C1581 H1569 0.950 . S
C1581 C1577 1.393 . S
C1581 C1580 1.391 . S
C1582 H1572 0.950 . S
C1582 C1583 1.386 . S
C1582 C1584 1.391 . S
C1583 C1582 1.386 . S
C1583 C1587 1.393 . S
C1584 H1573 0.950 . S
C1584 C1582 1.391 . S
C1584 C1585 1.400 . S
C1585 C1579 1.491 . S
C1585 C1584 1.400 . S
C1585 C1586 1.398 . S
C1586 H1574 0.950 . S
C1586 C1585 1.398 . S
C1586 C1587 1.391 . S
C1587 H1575 0.950 . S
C1587 C1583 1.393 . S
C1587 C1586 1.391 . S
H1588 C1596 0.950 . S
H1589 C1601 0.950 . S
H1590 C1598 0.950 . S
H1591 C1600 0.950 . S
H1592 C1602 0.950 . S
H1593 C1604 0.950 . S
H1594 C1606 0.950 . S
H1595 C1607 0.950 . S
C1596 H1588 0.950 . S
C1596 C1597 1.386 . S
C1596 C1598 1.391 . S
C1597 C1596 1.386 . S
C1597 C1601 1.393 . S
C1598 H1590 0.950 . S
C1598 C1596 1.391 . S
C1598 C1599 1.400 . S
C1599 C1598 1.400 . S
C1599 C1600 1.398 . S
C1599 C1605 1.491 . S
C1600 H1591 0.950 . S
C1600 C1599 1.398 . S
C1600 C1601 1.391 . S
C1601 H1589 0.950 . S
C1601 C1597 1.393 . S
C1601 C1600 1.391 . S
C1602 H1592 0.950 . S
C1602 C1603 1.386 . S
C1602 C1604 1.391 . S
C1603 C1602 1.386 . S
C1603 C1607 1.393 . S
C1604 H1593 0.950 . S
C1604 C1602 1.391 . S
C1604 C1605 1.400 . S
C1605 C1599 1.491 . S
C1605 C1604 1.400 . S
C1605 C1606 1.398 . S
C1606 H1594 0.950 . S
C1606 C1605 1.398 . S
C1606 C1607 1.391 . S
C1607 H1595 0.950 . S
C1607 C1603 1.393 . S
C1607 C1606 1.391 . S
H1608 C1616 0.950 . S
H1609 C1621 0.950 . S
H1610 C1618 0.950 . S
H1611 C1620 0.950 . S
H1612 C1622 0.950 . S
H1613 C1624 0.950 . S
H1614 C1626 0.950 . S
H1615 C1627 0.950 . S
C1616 H1608 0.950 . S
C1616 C1617 1.386 . S
C1616 C1618 1.391 . S
C1617 C1616 1.386 . S
C1617 C1621 1.393 . S
C1618 H1610 0.950 . S
C1618 C1616 1.391 . S
C1618 C1619 1.400 . S
C1619 C1618 1.400 . S
C1619 C1620 1.398 . S
C1619 C1625 1.491 . S
C1620 H1611 0.950 . S
C1620 C1619 1.398 . S
C1620 C1621 1.391 . S
C1621 H1609 0.950 . S
C1621 C1617 1.393 . S
C1621 C1620 1.391 . S
C1622 H1612 0.950 . S
C1622 C1623 1.386 . S
C1622 C1624 1.391 . S
C1623 C1622 1.386 . S
C1623 C1627 1.393 . S
C1624 H1613 0.950 . S
C1624 C1622 1.391 . S
C1624 C1625 1.400 . S
C1625 C1619 1.491 . S
C1625 C1624 1.400 . S
C1625 C1626 1.398 . S
C1626 H1614 0.950 . S
C1626 C1625 1.398 . S
C1626 C1627 1.391 . S
C1627 H1615 0.950 . S
C1627 C1623 1.393 . S
C1627 C1626 1.391 . S
H1628 C1636 0.950 . S
H1629 C1641 0.950 . S
H1630 C1638 0.950 . S
H1631 C1640 0.950 . S
H1632 C1642 0.950 . S
H1633 C1644 0.950 . S
H1634 C1646 0.950 . S
H1635 C1647 0.950 . S
C1636 H1628 0.950 . S
C1636 C1637 1.386 . S
C1636 C1638 1.391 . S
C1637 C1636 1.386 . S
C1637 C1641 1.393 . S
C1638 H1630 0.950 . S
C1638 C1636 1.391 . S
C1638 C1639 1.400 . S
C1639 C1638 1.400 . S
C1639 C1640 1.398 . S
C1639 C1645 1.491 . S
C1640 H1631 0.950 . S
C1640 C1639 1.398 . S
C1640 C1641 1.391 . S
C1641 H1629 0.950 . S
C1641 C1637 1.393 . S
C1641 C1640 1.391 . S
C1642 H1632 0.950 . S
C1642 C1643 1.386 . S
C1642 C1644 1.391 . S
C1643 C1642 1.386 . S
C1643 C1647 1.393 . S
C1644 H1633 0.950 . S
C1644 C1642 1.391 . S
C1644 C1645 1.400 . S
C1645 C1639 1.491 . S
C1645 C1644 1.400 . S
C1645 C1646 1.398 . S
C1646 H1634 0.950 . S
C1646 C1645 1.398 . S
C1646 C1647 1.391 . S
C1647 H1635 0.950 . S
C1647 C1643 1.393 . S
C1647 C1646 1.391 . S
H1648 C1656 0.950 . S
H1649 C1661 0.950 . S
H1650 C1658 0.950 . S
H1651 C1660 0.950 . S
H1652 C1662 0.950 . S
H1653 C1664 0.950 . S
H1654 C1666 0.950 . S
H1655 C1667 0.950 . S
C1656 H1648 0.950 . S
C1656 C1657 1.386 . S
C1656 C1658 1.391 . S
C1657 C1656 1.386 . S
C1657 C1661 1.393 . S
C1658 H1650 0.950 . S
C1658 C1656 1.391 . S
C1658 C1659 1.400 . S
C1659 C1658 1.400 . S
C1659 C1660 1.398 . S
C1659 C1665 1.491 . S
C1660 H1651 0.950 . S
C1660 C1659 1.398 . S
C1660 C1661 1.391 . S
C1661 H1649 0.950 . S
C1661 C1657 1.393 . S
C1661 C1660 1.391 . S
C1662 H1652 0.950 . S
C1662 C1663 1.386 . S
C1662 C1664 1.391 . S
C1663 C1662 1.386 . S
C1663 C1667 1.393 . S
C1664 H1653 0.950 . S
C1664 C1662 1.391 . S
C1664 C1665 1.400 . S
C1665 C1659 1.491 . S
C1665 C1664 1.400 . S
C1665 C1666 1.398 . S
C1666 H1654 0.950 . S
C1666 C1665 1.398 . S
C1666 C1667 1.391 . S
C1667 H1655 0.950 . S
C1667 C1663 1.393 . S
C1667 C1666 1.391 . S
H1668 C1676 0.950 . S
H1669 C1681 0.950 . S
H1670 C1678 0.950 . S
H1671 C1680 0.950 . S
H1672 C1682 0.950 . S
H1673 C1684 0.950 . S
H1674 C1686 0.950 . S
H1675 C1687 0.950 . S
C1676 H1668 0.950 . S
C1676 C1677 1.386 . S
C1676 C1678 1.391 . S
C1677 C1676 1.386 . S
C1677 C1681 1.393 . S
C1678 H1670 0.950 . S
C1678 C1676 1.391 . S
C1678 C1679 1.400 . S
C1679 C1678 1.400 . S
C1679 C1680 1.398 . S
C1679 C1685 1.491 . S
C1680 H1671 0.950 . S
C1680 C1679 1.398 . S
C1680 C1681 1.391 . S
C1681 H1669 0.950 . S
C1681 C1677 1.393 . S
C1681 C1680 1.391 . S
C1682 H1672 0.950 . S
C1682 C1683 1.386 . S
C1682 C1684 1.391 . S
C1683 C1682 1.386 . S
C1683 C1687 1.393 . S
C1684 H1673 0.950 . S
C1684 C1682 1.391 . S
C1684 C1685 1.400 . S
C1685 C1679 1.491 . S
C1685 C1684 1.400 . S
C1685 C1686 1.398 . S
C1686 H1674 0.950 . S
C1686 C1685 1.398 . S
C1686 C1687 1.391 . S
C1687 H1675 0.950 . S
C1687 C1683 1.393 . S
C1687 C1686 1.391 . S
H1688 C1696 0.950 . S
H1689 C1701 0.950 . S
H1690 C1698 0.950 . S
H1691 C1700 0.950 . S
H1692 C1702 0.950 . S
H1693 C1704 0.950 . S
H1694 C1706 0.950 . S
H1695 C1707 0.950 . S
C1696 H1688 0.950 . S
C1696 C1697 1.386 . S
C1696 C1698 1.391 . S
C1697 C1696 1.386 . S
C1697 C1701 1.393 . S
C1698 H1690 0.950 . S
C1698 C1696 1.391 . S
C1698 C1699 1.400 . S
C1699 C1698 1.400 . S
C1699 C1700 1.398 . S
C1699 C1705 1.491 . S
C1700 H1691 0.950 . S
C1700 C1699 1.398 . S
C1700 C1701 1.391 . S
C1701 H1689 0.950 . S
C1701 C1697 1.393 . S
C1701 C1700 1.391 . S
C1702 H1692 0.950 . S
C1702 C1703 1.386 . S
C1702 C1704 1.391 . S
C1703 C1702 1.386 . S
C1703 C1707 1.393 . S
C1704 H1693 0.950 . S
C1704 C1702 1.391 . S
C1704 C1705 1.400 . S
C1705 C1699 1.491 . S
C1705 C1704 1.400 . S
C1705 C1706 1.398 . S
C1706 H1694 0.950 . S
C1706 C1705 1.398 . S
C1706 C1707 1.391 . S
C1707 H1695 0.950 . S
C1707 C1703 1.393 . S
C1707 C1706 1.391 . S
H1708 C1716 0.950 . S
H1709 C1721 0.950 . S
H1710 C1718 0.950 . S
H1711 C1720 0.950 . S
H1712 C1722 0.950 . S
H1713 C1724 0.950 . S
H1714 C1726 0.950 . S
H1715 C1727 0.950 . S
C1716 H1708 0.950 . S
C1716 C1717 1.386 . S
C1716 C1718 1.391 . S
C1717 C1716 1.386 . S
C1717 C1721 1.393 . S
C1718 H1710 0.950 . S
C1718 C1716 1.391 . S
C1718 C1719 1.400 . S
C1719 C1718 1.400 . S
C1719 C1720 1.398 . S
C1719 C1725 1.491 . S
C1720 H1711 0.950 . S
C1720 C1719 1.398 . S
C1720 C1721 1.391 . S
C1721 H1709 0.950 . S
C1721 C1717 1.393 . S
C1721 C1720 1.391 . S
C1722 H1712 0.950 . S
C1722 C1723 1.386 . S
C1722 C1724 1.391 . S
C1723 C1722 1.386 . S
C1723 C1727 1.393 . S
C1724 H1713 0.950 . S
C1724 C1722 1.391 . S
C1724 C1725 1.400 . S
C1725 C1719 1.491 . S
C1725 C1724 1.400 . S
C1725 C1726 1.398 . S
C1726 H1714 0.950 . S
C1726 C1725 1.398 . S
C1726 C1727 1.391 . S
C1727 H1715 0.950 . S
C1727 C1723 1.393 . S
C1727 C1726 1.391 . S
H1728 C1736 0.950 . S
H1729 C1741 0.950 . S
H1730 C1738 0.950 . S
H1731 C1740 0.950 . S
H1732 C1742 0.950 . S
H1733 C1744 0.950 . S
H1734 C1746 0.950 . S
H1735 C1747 0.950 . S
C1736 H1728 0.950 . S
C1736 C1737 1.386 . S
C1736 C1738 1.391 . S
C1737 C1736 1.386 . S
C1737 C1741 1.393 . S
C1738 H1730 0.950 . S
C1738 C1736 1.391 . S
C1738 C1739 1.400 . S
C1739 C1738 1.400 . S
C1739 C1740 1.398 . S
C1739 C1745 1.491 . S
C1740 H1731 0.950 . S
C1740 C1739 1.398 . S
C1740 C1741 1.391 . S
C1741 H1729 0.950 . S
C1741 C1737 1.393 . S
C1741 C1740 1.391 . S
C1742 H1732 0.950 . S
C1742 C1743 1.386 . S
C1742 C1744 1.391 . S
C1743 C1742 1.386 . S
C1743 C1747 1.393 . S
C1744 H1733 0.950 . S
C1744 C1742 1.391 . S
C1744 C1745 1.400 . S
C1745 C1739 1.491 . S
C1745 C1744 1.400 . S
C1745 C1746 1.398 . S
C1746 H1734 0.950 . S
C1746 C1745 1.398 . S
C1746 C1747 1.391 . S
C1747 H1735 0.950 . S
C1747 C1743 1.393 . S
C1747 C1746 1.391 . S
H1748 C1756 0.950 . S
H1749 C1761 0.950 . S
H1750 C1758 0.950 . S
H1751 C1760 0.950 . S
H1752 C1762 0.950 . S
H1753 C1764 0.950 . S
H1754 C1766 0.950 . S
H1755 C1767 0.950 . S
C1756 H1748 0.950 . S
C1756 C1757 1.386 . S
C1756 C1758 1.391 . S
C1757 C1756 1.386 . S
C1757 C1761 1.393 . S
C1758 H1750 0.950 . S
C1758 C1756 1.391 . S
C1758 C1759 1.400 . S
C1759 C1758 1.400 . S
C1759 C1760 1.398 . S
C1759 C1765 1.491 . S
C1760 H1751 0.950 . S
C1760 C1759 1.398 . S
C1760 C1761 1.391 . S
C1761 H1749 0.950 . S
C1761 C1757 1.393 . S
C1761 C1760 1.391 . S
C1762 H1752 0.950 . S
C1762 C1763 1.386 . S
C1762 C1764 1.391 . S
C1763 C1762 1.386 . S
C1763 C1767 1.393 . S
C1764 H1753 0.950 . S
C1764 C1762 1.391 . S
C1764 C1765 1.400 . S
C1765 C1759 1.491 . S
C1765 C1764 1.400 . S
C1765 C1766 1.398 . S
C1766 H1754 0.950 . S
C1766 C1765 1.398 . S
C1766 C1767 1.391 . S
C1767 H1755 0.950 . S
C1767 C1763 1.393 . S
C1767 C1766 1.391 . S
H1768 C1776 0.950 . S
H1769 C1781 0.950 . S
H1770 C1778 0.950 . S
H1771 C1780 0.950 . S
H1772 C1782 0.950 . S
H1773 C1784 0.950 . S
H1774 C1786 0.950 . S
H1775 C1787 0.950 . S
C1776 H1768 0.950 . S
C1776 C1777 1.386 . S
C1776 C1778 1.391 . S
C1777 C1776 1.386 . S
C1777 C1781 1.393 . S
C1778 H1770 0.950 . S
C1778 C1776 1.391 . S
C1778 C1779 1.400 . S
C1779 C1778 1.400 . S
C1779 C1780 1.398 . S
C1779 C1785 1.491 . S
C1780 H1771 0.950 . S
C1780 C1779 1.398 . S
C1780 C1781 1.391 . S
C1781 H1769 0.950 . S
C1781 C1777 1.393 . S
C1781 C1780 1.391 . S
C1782 H1772 0.950 . S
C1782 C1783 1.386 . S
C1782 C1784 1.391 . S
C1783 C1782 1.386 . S
C1783 C1787 1.393 . S
C1784 H1773 0.950 . S
C1784 C1782 1.391 . S
C1784 C1785 1.400 . S
C1785 C1779 1.491 . S
C1785 C1784 1.400 . S
C1785 C1786 1.398 . S
C1786 H1774 0.950 . S
C1786 C1785 1.398 . S
C1786 C1787 1.391 . S
C1787 H1775 0.950 . S
C1787 C1783 1.393 . S
C1787 C1786 1.391 . S
H1788 C1796 0.950 . S
H1789 C1801 0.950 . S
H1790 C1798 0.950 . S
H1791 C1800 0.950 . S
H1792 C1802 0.950 . S
H1793 C1804 0.950 . S
H1794 C1806 0.950 . S
H1795 C1807 0.950 . S
C1796 H1788 0.950 . S
C1796 C1797 1.386 . S
C1796 C1798 1.391 . S
C1797 C1796 1.386 . S
C1797 C1801 1.393 . S
C1798 H1790 0.950 . S
C1798 C1796 1.391 . S
C1798 C1799 1.400 . S
C1799 C1798 1.400 . S
C1799 C1800 1.398 . S
C1799 C1805 1.491 . S
C1800 H1791 0.950 . S
C1800 C1799 1.398 . S
C1800 C1801 1.391 . S
C1801 H1789 0.950 . S
C1801 C1797 1.393 . S
C1801 C1800 1.391 . S
C1802 H1792 0.950 . S
C1802 C1803 1.386 . S
C1802 C1804 1.391 . S
C1803 C1802 1.386 . S
C1803 C1807 1.393 . S
C1804 H1793 0.950 . S
C1804 C1802 1.391 . S
C1804 C1805 1.400 . S
C1805 C1799 1.491 . S
C1805 C1804 1.400 . S
C1805 C1806 1.398 . S
C1806 H1794 0.950 . S
C1806 C1805 1.398 . S
C1806 C1807 1.391 . S
C1807 H1795 0.950 . S
C1807 C1803 1.393 . S
C1807 C1806 1.391 . S
H1808 C1816 0.950 . S
H1809 C1821 0.950 . S
H1810 C1818 0.950 . S
H1811 C1820 0.950 . S
H1812 C1822 0.950 . S
H1813 C1824 0.950 . S
H1814 C1826 0.950 . S
H1815 C1827 0.950 . S
C1816 H1808 0.950 . S
C1816 C1817 1.386 . S
C1816 C1818 1.391 . S
C1817 C1816 1.386 . S
C1817 C1821 1.393 . S
C1818 H1810 0.950 . S
C1818 C1816 1.391 . S
C1818 C1819 1.400 . S
C1819 C1818 1.400 . S
C1819 C1820 1.398 . S
C1819 C1825 1.491 . S
C1820 H1811 0.950 . S
C1820 C1819 1.398 . S
C1820 C1821 1.391 . S
C1821 H1809 0.950 . S
C1821 C1817 1.393 . S
C1821 C1820 1.391 . S
C1822 H1812 0.950 . S
C1822 C1823 1.386 . S
C1822 C1824 1.391 . S
C1823 C1822 1.386 . S
C1823 C1827 1.393 . S
C1824 H1813 0.950 . S
C1824 C1822 1.391 . S
C1824 C1825 1.400 . S
C1825 C1819 1.491 . S
C1825 C1824 1.400 . S
C1825 C1826 1.398 . S
C1826 H1814 0.950 . S
C1826 C1825 1.398 . S
C1826 C1827 1.391 . S
C1827 H1815 0.950 . S
C1827 C1823 1.393 . S
C1827 C1826 1.391 . S
H1828 C1836 0.950 . S
H1829 C1841 0.950 . S
H1830 C1838 0.950 . S
H1831 C1840 0.950 . S
H1832 C1842 0.950 . S
H1833 C1844 0.950 . S
H1834 C1846 0.950 . S
H1835 C1847 0.950 . S
C1836 H1828 0.950 . S
C1836 C1837 1.386 . S
C1836 C1838 1.391 . S
C1837 C1836 1.386 . S
C1837 C1841 1.393 . S
C1838 H1830 0.950 . S
C1838 C1836 1.391 . S
C1838 C1839 1.400 . S
C1839 C1838 1.400 . S
C1839 C1840 1.398 . S
C1839 C1845 1.491 . S
C1840 H1831 0.950 . S
C1840 C1839 1.398 . S
C1840 C1841 1.391 . S
C1841 H1829 0.950 . S
C1841 C1837 1.393 . S
C1841 C1840 1.391 . S
C1842 H1832 0.950 . S
C1842 C1843 1.386 . S
C1842 C1844 1.391 . S
C1843 C1842 1.386 . S
C1843 C1847 1.393 . S
C1844 H1833 0.950 . S
C1844 C1842 1.391 . S
C1844 C1845 1.400 . S
C1845 C1839 1.491 . S
C1845 C1844 1.400 . S
C1845 C1846 1.398 . S
C1846 H1834 0.950 . S
C1846 C1845 1.398 . S
C1846 C1847 1.391 . S
C1847 H1835 0.950 . S
C1847 C1843 1.393 . S
C1847 C1846 1.391 . S
H1848 C1856 0.950 . S
H1849 C1861 0.950 . S
H1850 C1858 0.950 . S
H1851 C1860 0.950 . S
H1852 C1862 0.950 . S
H1853 C1864 0.950 . S
H1854 C1866 0.950 . S
H1855 C1867 0.950 . S
C1856 H1848 0.950 . S
C1856 C1857 1.386 . S
C1856 C1858 1.391 . S
C1857 C1856 1.386 . S
C1857 C1861 1.393 . S
C1858 H1850 0.950 . S
C1858 C1856 1.391 . S
C1858 C1859 1.400 . S
C1859 C1858 1.400 . S
C1859 C1860 1.398 . S
C1859 C1865 1.491 . S
C1860 H1851 0.950 . S
C1860 C1859 1.398 . S
C1860 C1861 1.391 . S
C1861 H1849 0.950 . S
C1861 C1857 1.393 . S
C1861 C1860 1.391 . S
C1862 H1852 0.950 . S
C1862 C1863 1.386 . S
C1862 C1864 1.391 . S
C1863 C1862 1.386 . S
C1863 C1867 1.393 . S
C1864 H1853 0.950 . S
C1864 C1862 1.391 . S
C1864 C1865 1.400 . S
C1865 C1859 1.491 . S
C1865 C1864 1.400 . S
C1865 C1866 1.398 . S
C1866 H1854 0.950 . S
C1866 C1865 1.398 . S
C1866 C1867 1.391 . S
C1867 H1855 0.950 . S
C1867 C1863 1.393 . S
C1867 C1866 1.391 . S
H1868 C1876 0.950 . S
H1869 C1881 0.950 . S
H1870 C1878 0.950 . S
H1871 C1880 0.950 . S
H1872 C1882 0.950 . S
H1873 C1884 0.950 . S
H1874 C1886 0.950 . S
H1875 C1887 0.950 . S
C1876 H1868 0.950 . S
C1876 C1877 1.386 . S
C1876 C1878 1.391 . S
C1877 C1876 1.386 . S
C1877 C1881 1.393 . S
C1878 H1870 0.950 . S
C1878 C1876 1.391 . S
C1878 C1879 1.400 . S
C1879 C1878 1.400 . S
C1879 C1880 1.398 . S
C1879 C1885 1.491 . S
C1880 H1871 0.950 . S
C1880 C1879 1.398 . S
C1880 C1881 1.391 . S
C1881 H1869 0.950 . S
C1881 C1877 1.393 . S
C1881 C1880 1.391 . S
C1882 H1872 0.950 . S
C1882 C1883 1.386 . S
C1882 C1884 1.391 . S
C1883 C1882 1.386 . S
C1883 C1887 1.393 . S
C1884 H1873 0.950 . S
C1884 C1882 1.391 . S
C1884 C1885 1.400 . S
C1885 C1879 1.491 . S
C1885 C1884 1.400 . S
C1885 C1886 1.398 . S
C1886 H1874 0.950 . S
C1886 C1885 1.398 . S
C1886 C1887 1.391 . S
C1887 H1875 0.950 . S
C1887 C1883 1.393 . S
C1887 C1886 1.391 . S
H1888 C1896 0.950 . S
H1889 C1901 0.950 . S
H1890 C1898 0.950 . S
H1891 C1900 0.950 . S
H1892 C1902 0.950 . S
H1893 C1904 0.950 . S
H1894 C1906 0.950 . S
H1895 C1907 0.950 . S
C1896 H1888 0.950 . S
C1896 C1897 1.386 . S
C1896 C1898 1.391 . S
C1897 C1896 1.386 . S
C1897 C1901 1.393 . S
C1898 H1890 0.950 . S
C1898 C1896 1.391 . S
C1898 C1899 1.400 . S
C1899 C1898 1.400 . S
C1899 C1900 1.398 . S
C1899 C1905 1.491 . S
C1900 H1891 0.950 . S
C1900 C1899 1.398 . S
C1900 C1901 1.391 . S
C1901 H1889 0.950 . S
C1901 C1897 1.393 . S
C1901 C1900 1.391 . S
C1902 H1892 0.950 . S
C1902 C1903 1.386 . S
C1902 C1904 1.391 . S
C1903 C1902 1.386 . S
C1903 C1907 1.393 . S
C1904 H1893 0.950 . S
C1904 C1902 1.391 . S
C1904 C1905 1.400 . S
C1905 C1899 1.491 . S
C1905 C1904 1.400 . S
C1905 C1906 1.398 . S
C1906 H1894 0.950 . S
C1906 C1905 1.398 . S
C1906 C1907 1.391 . S
C1907 H1895 0.950 . S
C1907 C1903 1.393 . S
C1907 C1906 1.391 . S
H1908 C1916 0.950 . S
H1909 C1921 0.950 . S
H1910 C1918 0.950 . S
H1911 C1920 0.950 . S
H1912 C1922 0.950 . S
H1913 C1924 0.950 . S
H1914 C1926 0.950 . S
H1915 C1927 0.950 . S
C1916 H1908 0.950 . S
C1916 C1917 1.386 . S
C1916 C1918 1.391 . S
C1917 C1916 1.386 . S
C1917 C1921 1.393 . S
C1918 H1910 0.950 . S
C1918 C1916 1.391 . S
C1918 C1919 1.400 . S
C1919 C1918 1.400 . S
C1919 C1920 1.398 . S
C1919 C1925 1.491 . S
C1920 H1911 0.950 . S
C1920 C1919 1.398 . S
C1920 C1921 1.391 . S
C1921 H1909 0.950 . S
C1921 C1917 1.393 . S
C1921 C1920 1.391 . S
C1922 H1912 0.950 . S
C1922 C1923 1.386 . S
C1922 C1924 1.391 . S
C1923 C1922 1.386 . S
C1923 C1927 1.393 . S
C1924 H1913 0.950 . S
C1924 C1922 1.391 . S
C1924 C1925 1.400 . S
C1925 C1919 1.491 . S
C1925 C1924 1.400 . S
C1925 C1926 1.398 . S
C1926 H1914 0.950 . S
C1926 C1925 1.398 . S
C1926 C1927 1.391 . S
C1927 H1915 0.950 . S
C1927 C1923 1.393 . S
C1927 C1926 1.391 . S
H1928 C1936 0.950 . S
H1929 C1941 0.950 . S
H1930 C1938 0.950 . S
H1931 C1940 0.950 . S
H1932 C1942 0.950 . S
H1933 C1944 0.950 . S
H1934 C1946 0.950 . S
H1935 C1947 0.950 . S
C1936 H1928 0.950 . S
C1936 C1937 1.386 . S
C1936 C1938 1.391 . S
C1937 C1936 1.386 . S
C1937 C1941 1.393 . S
C1938 H1930 0.950 . S
C1938 C1936 1.391 . S
C1938 C1939 1.400 . S
C1939 C1938 1.400 . S
C1939 C1940 1.398 . S
C1939 C1945 1.491 . S
C1940 H1931 0.950 . S
C1940 C1939 1.398 . S
C1940 C1941 1.391 . S
C1941 H1929 0.950 . S
C1941 C1937 1.393 . S
C1941 C1940 1.391 . S
C1942 H1932 0.950 . S
C1942 C1943 1.386 . S
C1942 C1944 1.391 . S
C1943 C1942 1.386 . S
C1943 C1947 1.393 . S
C1944 H1933 0.950 . S
C1944 C1942 1.391 . S
C1944 C1945 1.400 . S
C1945 C1939 1.491 . S
C1945 C1944 1.400 . S
C1945 C1946 1.398 . S
C1946 H1934 0.950 . S
C1946 C1945 1.398 . S
C1946 C1947 1.391 . S
C1947 H1935 0.950 . S
C1947 C1943 1.393 . S
C1947 C1946 1.391 . S
H1948 C1956 0.950 . S
H1949 C1961 0.950 . S
H1950 C1958 0.950 . S
H1951 C1960 0.950 . S
H1952 C1962 0.950 . S
H1953 C1964 0.950 . S
H1954 C1966 0.950 . S
H1955 C1967 0.950 . S
C1956 H1948 0.950 . S
C1956 C1957 1.386 . S
C1956 C1958 1.391 . S
C1957 C1956 1.386 . S
C1957 C1961 1.393 . S
C1958 H1950 0.950 . S
C1958 C1956 1.391 . S
C1958 C1959 1.400 . S
C1959 C1958 1.400 . S
C1959 C1960 1.398 . S
C1959 C1965 1.491 . S
C1960 H1951 0.950 . S
C1960 C1959 1.398 . S
C1960 C1961 1.391 . S
C1961 H1949 0.950 . S
C1961 C1957 1.393 . S
C1961 C1960 1.391 . S
C1962 H1952 0.950 . S
C1962 C1963 1.386 . S
C1962 C1964 1.391 . S
C1963 C1962 1.386 . S
C1963 C1967 1.393 . S
C1964 H1953 0.950 . S
C1964 C1962 1.391 . S
C1964 C1965 1.400 . S
C1965 C1959 1.491 . S
C1965 C1964 1.400 . S
C1965 C1966 1.398 . S
C1966 H1954 0.950 . S
C1966 C1965 1.398 . S
C1966 C1967 1.391 . S
C1967 H1955 0.950 . S
C1967 C1963 1.393 . S
C1967 C1966 1.391 . S
H1968 C1976 0.950 . S
H1969 C1981 0.950 . S
H1970 C1978 0.950 . S
H1971 C1980 0.950 . S
H1972 C1982 0.950 . S
H1973 C1984 0.950 . S
H1974 C1986 0.950 . S
H1975 C1987 0.950 . S
C1976 H1968 0.950 . S
C1976 C1977 1.386 . S
C1976 C1978 1.391 . S
C1977 C1976 1.386 . S
C1977 C1981 1.393 . S
C1978 H1970 0.950 . S
C1978 C1976 1.391 . S
C1978 C1979 1.400 . S
C1979 C1978 1.400 . S
C1979 C1980 1.398 . S
C1979 C1985 1.491 . S
C1980 H1971 0.950 . S
C1980 C1979 1.398 . S
C1980 C1981 1.391 . S
C1981 H1969 0.950 . S
C1981 C1977 1.393 . S
C1981 C1980 1.391 . S
C1982 H1972 0.950 . S
C1982 C1983 1.386 . S
C1982 C1984 1.391 . S
C1983 C1982 1.386 . S
C1983 C1987 1.393 . S
C1984 H1973 0.950 . S
C1984 C1982 1.391 . S
C1984 C1985 1.400 . S
C1985 C1979 1.491 . S
C1985 C1984 1.400 . S
C1985 C1986 1.398 . S
C1986 H1974 0.950 . S
C1986 C1985 1.398 . S
C1986 C1987 1.391 . S
C1987 H1975 0.950 . S
C1987 C1983 1.393 . S
C1987 C1986 1.391 . S
H1988 C1996 0.950 . S
H1989 C2001 0.950 . S
H1990 C1998 0.950 . S
H1991 C2000 0.950 . S
H1992 C2002 0.950 . S
H1993 C2004 0.950 . S
H1994 C2006 0.950 . S
H1995 C2007 0.950 . S
C1996 H1988 0.950 . S
C1996 C1997 1.386 . S
C1996 C1998 1.391 . S
C1997 C1996 1.386 . S
C1997 C2001 1.393 . S
C1998 H1990 0.950 . S
C1998 C1996 1.391 . S
C1998 C1999 1.400 . S
C1999 C1998 1.400 . S
C1999 C2000 1.398 . S
C1999 C2005 1.491 . S
C2000 H1991 0.950 . S
C2000 C1999 1.398 . S
C2000 C2001 1.391 . S
C2001 H1989 0.950 . S
C2001 C1997 1.393 . S
C2001 C2000 1.391 . S
C2002 H1992 0.950 . S
C2002 C2003 1.386 . S
C2002 C2004 1.391 . S
C2003 C2002 1.386 . S
C2003 C2007 1.393 . S
C2004 H1993 0.950 . S
C2004 C2002 1.391 . S
C2004 C2005 1.400 . S
C2005 C1999 1.491 . S
C2005 C2004 1.400 . S
C2005 C2006 1.398 . S
C2006 H1994 0.950 . S
C2006 C2005 1.398 . S
C2006 C2007 1.391 . S
C2007 H1995 0.950 . S
C2007 C2003 1.393 . S
C2007 C2006 1.391 . S
H2008 C2016 0.950 . S
H2009 C2021 0.950 . S
H2010 C2018 0.950 . S
H2011 C2020 0.950 . S
H2012 C2022 0.950 . S
H2013 C2024 0.950 . S
H2014 C2026 0.950 . S
H2015 C2027 0.950 . S
C2016 H2008 0.950 . S
C2016 C2017 1.386 . S
C2016 C2018 1.391 . S
C2017 C2016 1.386 . S
C2017 C2021 1.393 . S
C2018 H2010 0.950 . S
C2018 C2016 1.391 . S
C2018 C2019 1.400 . S
C2019 C2018 1.400 . S
C2019 C2020 1.398 . S
C2019 C2025 1.491 . S
C2020 H2011 0.950 . S
C2020 C2019 1.398 . S
C2020 C2021 1.391 . S
C2021 H2009 0.950 . S
C2021 C2017 1.393 . S
C2021 C2020 1.391 . S
C2022 H2012 0.950 . S
C2022 C2023 1.386 . S
C2022 C2024 1.391 . S
C2023 C2022 1.386 . S
C2023 C2027 1.393 . S
C2024 H2013 0.950 . S
C2024 C2022 1.391 . S
C2024 C2025 1.400 . S
C2025 C2019 1.491 . S
C2025 C2024 1.400 . S
C2025 C2026 1.398 . S
C2026 H2014 0.950 . S
C2026 C2025 1.398 . S
C2026 C2027 1.391 . S
C2027 H2015 0.950 . S
C2027 C2023 1.393 . S
C2027 C2026 1.391 . S
H2028 C2036 0.950 . S
H2029 C2041 0.950 . S
H2030 C2038 0.950 . S
H2031 C2040 0.950 . S
H2032 C2042 0.950 . S
H2033 C2044 0.950 . S
H2034 C2046 0.950 . S
H2035 C2047 0.950 . S
C2036 H2028 0.950 . S
C2036 C2037 1.386 . S
C2036 C2038 1.391 . S
C2037 C2036 1.386 . S
C2037 C2041 1.393 . S
C2038 H2030 0.950 . S
C2038 C2036 1.391 . S
C2038 C2039 1.400 . S
C2039 C2038 1.400 . S
C2039 C2040 1.398 . S
C2039 C2045 1.491 . S
C2040 H2031 0.950 . S
C2040 C2039 1.398 . S
C2040 C2041 1.391 . S
C2041 H2029 0.950 . S
C2041 C2037 1.393 . S
C2041 C2040 1.391 . S
C2042 H2032 0.950 . S
C2042 C2043 1.386 . S
C2042 C2044 1.391 . S
C2043 C2042 1.386 . S
C2043 C2047 1.393 . S
C2044 H2033 0.950 . S
C2044 C2042 1.391 . S
C2044 C2045 1.400 . S
C2045 C2039 1.491 . S
C2045 C2044 1.400 . S
C2045 C2046 1.398 . S
C2046 H2034 0.950 . S
C2046 C2045 1.398 . S
C2046 C2047 1.391 . S
C2047 H2035 0.950 . S
C2047 C2043 1.393 . S
C2047 C2046 1.391 . S
H2048 C2056 0.950 . S
H2049 C2061 0.950 . S
H2050 C2058 0.950 . S
H2051 C2060 0.950 . S
H2052 C2062 0.950 . S
H2053 C2064 0.950 . S
H2054 C2066 0.950 . S
H2055 C2067 0.950 . S
C2056 H2048 0.950 . S
C2056 C2057 1.386 . S
C2056 C2058 1.391 . S
C2057 C2056 1.386 . S
C2057 C2061 1.393 . S
C2058 H2050 0.950 . S
C2058 C2056 1.391 . S
C2058 C2059 1.400 . S
C2059 C2058 1.400 . S
C2059 C2060 1.398 . S
C2059 C2065 1.491 . S
C2060 H2051 0.950 . S
C2060 C2059 1.398 . S
C2060 C2061 1.391 . S
C2061 H2049 0.950 . S
C2061 C2057 1.393 . S
C2061 C2060 1.391 . S
C2062 H2052 0.950 . S
C2062 C2063 1.386 . S
C2062 C2064 1.391 . S
C2063 C2062 1.386 . S
C2063 C2067 1.393 . S
C2064 H2053 0.950 . S
C2064 C2062 1.391 . S
C2064 C2065 1.400 . S
C2065 C2059 1.491 . S
C2065 C2064 1.400 . S
C2065 C2066 1.398 . S
C2066 H2054 0.950 . S
C2066 C2065 1.398 . S
C2066 C2067 1.391 . S
C2067 H2055 0.950 . S
C2067 C2063 1.393 . S
C2067 C2066 1.391 . S
H2068 C2076 0.950 . S
H2069 C2081 0.950 . S
H2070 C2078 0.950 . S
H2071 C2080 0.950 . S
H2072 C2082 0.950 . S
H2073 C2084 0.950 . S
H2074 C2086 0.950 . S
H2075 C2087 0.950 . S
C2076 H2068 0.950 . S
C2076 C2077 1.386 . S
C2076 C2078 1.391 . S
C2077 C2076 1.386 . S
C2077 C2081 1.393 . S
C2078 H2070 0.950 . S
C2078 C2076 1.391 . S
C2078 C2079 1.400 . S
C2079 C2078 1.400 . S
C2079 C2080 1.398 . S
C2079 C2085 1.491 . S
C2080 H2071 0.950 . S
C2080 C2079 1.398 . S
C2080 C2081 1.391 . S
C2081 H2069 0.950 . S
C2081 C2077 1.393 . S
C2081 C2080 1.391 . S
C2082 H2072 0.950 . S
C2082 C2083 1.386 . S
C2082 C2084 1.391 . S
C2083 C2082 1.386 . S
C2083 C2087 1.393 . S
C2084 H2073 0.950 . S
C2084 C2082 1.391 . S
C2084 C2085 1.400 . S
C2085 C2079 1.491 . S
C2085 C2084 1.400 . S
C2085 C2086 1.398 . S
C2086 H2074 0.950 . S
C2086 C2085 1.398 . S
C2086 C2087 1.391 . S
C2087 H2075 0.950 . S
C2087 C2083 1.393 . S
C2087 C2086 1.391 . S
H2088 C2096 0.950 . S
H2089 C2101 0.950 . S
H2090 C2098 0.950 . S
H2091 C2100 0.950 . S
H2092 C2102 0.950 . S
H2093 C2104 0.950 . S
H2094 C2106 0.950 . S
H2095 C2107 0.950 . S
C2096 H2088 0.950 . S
C2096 C2097 1.386 . S
C2096 C2098 1.391 . S
C2097 C2096 1.386 . S
C2097 C2101 1.393 . S
C2098 H2090 0.950 . S
C2098 C2096 1.391 . S
C2098 C2099 1.400 . S
C2099 C2098 1.400 . S
C2099 C2100 1.398 . S
C2099 C2105 1.491 . S
C2100 H2091 0.950 . S
C2100 C2099 1.398 . S
C2100 C2101 1.391 . S
C2101 H2089 0.950 . S
C2101 C2097 1.393 . S
C2101 C2100 1.391 . S
C2102 H2092 0.950 . S
C2102 C2103 1.386 . S
C2102 C2104 1.391 . S
C2103 C2102 1.386 . S
C2103 C2107 1.393 . S
C2104 H2093 0.950 . S
C2104 C2102 1.391 . S
C2104 C2105 1.400 . S
C2105 C2099 1.491 . S
C2105 C2104 1.400 . S
C2105 C2106 1.398 . S
C2106 H2094 0.950 . S
C2106 C2105 1.398 . S
C2106 C2107 1.391 . S
C2107 H2095 0.950 . S
C2107 C2103 1.393 . S
C2107 C2106 1.391 . S
H2108 C2116 0.950 . S
H2109 C2121 0.950 . S
H2110 C2118 0.950 . S
H2111 C2120 0.950 . S
H2112 C2122 0.950 . S
H2113 C2124 0.950 . S
H2114 C2126 0.950 . S
H2115 C2127 0.950 . S
C2116 H2108 0.950 . S
C2116 C2117 1.386 . S
C2116 C2118 1.391 . S
C2117 C2116 1.386 . S
C2117 C2121 1.393 . S
C2118 H2110 0.950 . S
C2118 C2116 1.391 . S
C2118 C2119 1.400 . S
C2119 C2118 1.400 . S
C2119 C2120 1.398 . S
C2119 C2125 1.491 . S
C2120 H2111 0.950 . S
C2120 C2119 1.398 . S
C2120 C2121 1.391 . S
C2121 H2109 0.950 . S
C2121 C2117 1.393 . S
C2121 C2120 1.391 . S
C2122 H2112 0.950 . S
C2122 C2123 1.386 . S
C2122 C2124 1.391 . S
C2123 C2122 1.386 . S
C2123 C2127 1.393 . S
C2124 H2113 0.950 . S
C2124 C2122 1.391 . S
C2124 C2125 1.400 . S
C2125 C2119 1.491 . S
C2125 C2124 1.400 . S
C2125 C2126 1.398 . S
C2126 H2114 0.950 . S
C2126 C2125 1.398 . S
C2126 C2127 1.391 . S
C2127 H2115 0.950 . S
C2127 C2123 1.393 . S
C2127 C2126 1.391 . S
H2128 C2136 0.950 . S
H2129 C2141 0.950 . S
H2130 C2138 0.950 . S
H2131 C2140 0.950 . S
H2132 C2142 0.950 . S
H2133 C2144 0.950 . S
H2134 C2146 0.950 . S
H2135 C2147 0.950 . S
C2136 H2128 0.950 . S
C2136 C2137 1.386 . S
C2136 C2138 1.391 . S
C2137 C2136 1.386 . S
C2137 C2141 1.393 . S
C2138 H2130 0.950 . S
C2138 C2136 1.391 . S
C2138 C2139 1.400 . S
C2139 C2138 1.400 . S
C2139 C2140 1.398 . S
C2139 C2145 1.491 . S
C2140 H2131 0.950 . S
C2140 C2139 1.398 . S
C2140 C2141 1.391 . S
C2141 H2129 0.950 . S
C2141 C2137 1.393 . S
C2141 C2140 1.391 . S
C2142 H2132 0.950 . S
C2142 C2143 1.386 . S
C2142 C2144 1.391 . S
C2143 C2142 1.386 . S
C2143 C2147 1.393 . S
C2144 H2133 0.950 . S
C2144 C2142 1.391 . S
C2144 C2145 1.400 . S
C2145 C2139 1.491 . S
C2145 C2144 1.400 . S
C2145 C2146 1.398 . S
C2146 H2134 0.950 . S
C2146 C2145 1.398 . S
C2146 C2147 1.391 . S
C2147 H2135 0.950 . S
C2147 C2143 1.393 . S
C2147 C2146 1.391 . S
H2148 C2156 0.950 . S
H2149 C2161 0.950 . S
H2150 C2158 0.950 . S
H2151 C2160 0.950 . S
H2152 C2162 0.950 . S
H2153 C2164 0.950 . S
H2154 C2166 0.950 . S
H2155 C2167 0.950 . S
C2156 H2148 0.950 . S
C2156 C2157 1.386 . S
C2156 C2158 1.391 . S
C2157 C2156 1.386 . S
C2157 C2161 1.393 . S
C2158 H2150 0.950 . S
C2158 C2156 1.391 . S
C2158 C2159 1.400 . S
C2159 C2158 1.400 . S
C2159 C2160 1.398 . S
C2159 C2165 1.491 . S
C2160 H2151 0.950 . S
C2160 C2159 1.398 . S
C2160 C2161 1.391 . S
C2161 H2149 0.950 . S
C2161 C2157 1.393 . S
C2161 C2160 1.391 . S
C2162 H2152 0.950 . S
C2162 C2163 1.386 . S
C2162 C2164 1.391 . S
C2163 C2162 1.386 . S
C2163 C2167 1.393 . S
C2164 H2153 0.950 . S
C2164 C2162 1.391 . S
C2164 C2165 1.400 . S
C2165 C2159 1.491 . S
C2165 C2164 1.400 . S
C2165 C2166 1.398 . S
C2166 H2154 0.950 . S
C2166 C2165 1.398 . S
C2166 C2167 1.391 . S
C2167 H2155 0.950 . S
C2167 C2163 1.393 . S
C2167 C2166 1.391 . S
H2168 C2176 0.950 . S
H2169 C2181 0.950 . S
H2170 C2178 0.950 . S
H2171 C2180 0.950 . S
H2172 C2182 0.950 . S
H2173 C2184 0.950 . S
H2174 C2186 0.950 . S
H2175 C2187 0.950 . S
C2176 H2168 0.950 . S
C2176 C2177 1.386 . S
C2176 C2178 1.391 . S
C2177 C2176 1.386 . S
C2177 C2181 1.393 . S
C2178 H2170 0.950 . S
C2178 C2176 1.391 . S
C2178 C2179 1.400 . S
C2179 C2178 1.400 . S
C2179 C2180 1.398 . S
C2179 C2185 1.491 . S
C2180 H2171 0.950 . S
C2180 C2179 1.398 . S
C2180 C2181 1.391 . S
C2181 H2169 0.950 . S
C2181 C2177 1.393 . S
C2181 C2180 1.391 . S
C2182 H2172 0.950 . S
C2182 C2183 1.386 . S
C2182 C2184 1.391 . S
C2183 C2182 1.386 . S
C2183 C2187 1.393 . S
C2184 H2173 0.950 . S
C2184 C2182 1.391 . S
C2184 C2185 1.400 . S
C2185 C2179 1.491 . S
C2185 C2184 1.400 . S
C2185 C2186 1.398 . S
C2186 H2174 0.950 . S
C2186 C2185 1.398 . S
C2186 C2187 1.391 . S
C2187 H2175 0.950 . S
C2187 C2183 1.393 . S
C2187 C2186 1.391 . S
H2188 C2196 0.950 . S
H2189 C2201 0.950 . S
H2190 C2198 0.950 . S
H2191 C2200 0.950 . S
H2192 C2202 0.950 . S
H2193 C2204 0.950 . S
H2194 C2206 0.950 . S
H2195 C2207 0.950 . S
C2196 H2188 0.950 . S
C2196 C2197 1.386 . S
C2196 C2198 1.391 . S
C2197 C2196 1.386 . S
C2197 C2201 1.393 . S
C2198 H2190 0.950 . S
C2198 C2196 1.391 . S
C2198 C2199 1.400 . S
C2199 C2198 1.400 . S
C2199 C2200 1.398 . S
C2199 C2205 1.491 . S
C2200 H2191 0.950 . S
C2200 C2199 1.398 . S
C2200 C2201 1.391 . S
C2201 H2189 0.950 . S
C2201 C2197 1.393 . S
C2201 C2200 1.391 . S
C2202 H2192 0.950 . S
C2202 C2203 1.386 . S
C2202 C2204 1.391 . S
C2203 C2202 1.386 . S
C2203 C2207 1.393 . S
C2204 H2193 0.950 . S
C2204 C2202 1.391 . S
C2204 C2205 1.400 . S
C2205 C2199 1.491 . S
C2205 C2204 1.400 . S
C2205 C2206 1.398 . S
C2206 H2194 0.950 . S
C2206 C2205 1.398 . S
C2206 C2207 1.391 . S
C2207 H2195 0.950 . S
C2207 C2203 1.393 . S
C2207 C2206 1.391 . S
H2208 C2216 0.950 . S
H2209 C2221 0.950 . S
H2210 C2218 0.950 . S
H2211 C2220 0.950 . S
H2212 C2222 0.950 . S
H2213 C2224 0.950 . S
H2214 C2226 0.950 . S
H2215 C2227 0.950 . S
C2216 H2208 0.950 . S
C2216 C2217 1.386 1_455 S
C2216 C2218 1.391 1_455 S
C2217 C2216 1.386 1_655 S
C2217 C2221 1.393 . S
C2218 H2210 0.950 . S
C2218 C2216 1.391 1_655 S
C2218 C2219 1.400 . S
C2219 C2218 1.400 . S
C2219 C2220 1.398 . S
C2219 C2225 1.491 . S
C2220 H2211 0.950 . S
C2220 C2219 1.398 . S
C2220 C2221 1.391 . S
C2221 H2209 0.950 . S
C2221 C2217 1.393 . S
C2221 C2220 1.391 . S
C2222 H2212 0.950 . S
C2222 C2223 1.386 . S
C2222 C2224 1.391 . S
C2223 C2222 1.386 . S
C2223 C2227 1.393 . S
C2224 H2213 0.950 . S
C2224 C2222 1.391 . S
C2224 C2225 1.400 . S
C2225 C2219 1.491 . S
C2225 C2224 1.400 . S
C2225 C2226 1.398 . S
C2226 H2214 0.950 . S
C2226 C2225 1.398 . S
C2226 C2227 1.391 . S
C2227 H2215 0.950 . S
C2227 C2223 1.393 . S
C2227 C2226 1.391 . S
H2228 C2236 0.950 . S
H2229 C2241 0.950 . S
H2230 C2238 0.950 . S
H2231 C2240 0.950 . S
H2232 C2242 0.950 . S
H2233 C2244 0.950 . S
H2234 C2246 0.950 . S
H2235 C2247 0.950 . S
C2236 H2228 0.950 . S
C2236 C2237 1.386 . S
C2236 C2238 1.391 . S
C2237 C2236 1.386 . S
C2237 C2241 1.393 . S
C2238 H2230 0.950 . S
C2238 C2236 1.391 . S
C2238 C2239 1.400 . S
C2239 C2238 1.400 . S
C2239 C2240 1.398 . S
C2239 C2245 1.491 . S
C2240 H2231 0.950 . S
C2240 C2239 1.398 . S
C2240 C2241 1.391 . S
C2241 H2229 0.950 . S
C2241 C2237 1.393 . S
C2241 C2240 1.391 . S
C2242 H2232 0.950 . S
C2242 C2243 1.386 . S
C2242 C2244 1.391 . S
C2243 C2242 1.386 . S
C2243 C2247 1.393 . S
C2244 H2233 0.950 . S
C2244 C2242 1.391 . S
C2244 C2245 1.400 . S
C2245 C2239 1.491 . S
C2245 C2244 1.400 . S
C2245 C2246 1.398 . S
C2246 H2234 0.950 . S
C2246 C2245 1.398 . S
C2246 C2247 1.391 . S
C2247 H2235 0.950 . S
C2247 C2243 1.393 . S
C2247 C2246 1.391 . S
H2248 C2256 0.950 . S
H2249 C2261 0.950 . S
H2250 C2258 0.950 . S
H2251 C2260 0.950 . S
H2252 C2262 0.950 . S
H2253 C2264 0.950 . S
H2254 C2266 0.950 . S
H2255 C2267 0.950 . S
C2256 H2248 0.950 . S
C2256 C2257 1.386 . S
C2256 C2258 1.391 . S
C2257 C2256 1.386 . S
C2257 C2261 1.393 . S
C2258 H2250 0.950 . S
C2258 C2256 1.391 . S
C2258 C2259 1.400 . S
C2259 C2258 1.400 . S
C2259 C2260 1.398 . S
C2259 C2265 1.491 . S
C2260 H2251 0.950 . S
C2260 C2259 1.398 . S
C2260 C2261 1.391 . S
C2261 H2249 0.950 . S
C2261 C2257 1.393 . S
C2261 C2260 1.391 . S
C2262 H2252 0.950 . S
C2262 C2263 1.386 . S
C2262 C2264 1.391 . S
C2263 C2262 1.386 . S
C2263 C2267 1.393 . S
C2264 H2253 0.950 . S
C2264 C2262 1.391 . S
C2264 C2265 1.400 . S
C2265 C2259 1.491 . S
C2265 C2264 1.400 . S
C2265 C2266 1.398 . S
C2266 H2254 0.950 . S
C2266 C2265 1.398 . S
C2266 C2267 1.391 . S
C2267 H2255 0.950 . S
C2267 C2263 1.393 . S
C2267 C2266 1.391 . S
H2268 C2276 0.950 . S
H2269 C2281 0.950 1_556 S
H2270 C2278 0.950 . S
H2271 C2280 0.950 . S
H2272 C2282 0.950 . S
H2273 C2284 0.950 . S
H2274 C2286 0.950 . S
H2275 C2287 0.950 . S
C2276 H2268 0.950 . S
C2276 C2277 1.420 . S
C2276 C2278 1.391 . S
C2277 C2276 1.420 . S
C2277 C2281 1.402 . S
C2278 H2270 0.950 . S
C2278 C2276 1.391 . S
C2278 C2279 1.400 . S
C2279 C2278 1.400 . S
C2279 C2280 1.398 . S
C2279 C2285 1.491 . S
C2280 H2271 0.950 . S
C2280 C2279 1.398 . S
C2280 C2281 1.391 . S
C2281 H2269 0.950 1_554 S
C2281 C2277 1.402 . S
C2281 C2280 1.391 . S
C2282 H2272 0.950 . S
C2282 C2283 1.386 . S
C2282 C2284 1.391 . S
C2283 C2282 1.386 . S
C2283 C2287 1.393 . S
C2284 H2273 0.950 . S
C2284 C2282 1.391 . S
C2284 C2285 1.400 . S
C2285 C2279 1.491 . S
C2285 C2284 1.400 . S
C2285 C2286 1.398 . S
C2286 H2274 0.950 . S
C2286 C2285 1.398 . S
C2286 C2287 1.391 . S
C2287 H2275 0.950 . S
C2287 C2283 1.393 . S
C2287 C2286 1.391 . S
H2288 C2296 0.950 . S
H2289 C2301 0.950 1_455 S
H2290 C2298 0.950 . S
H2291 C2300 0.950 . S
H2292 C2302 0.950 . S
H2293 C2304 0.950 . S
H2294 C2306 0.950 . S
H2295 C2307 0.950 . S
C2296 H2288 0.950 . S
C2296 C2297 1.422 . S
C2296 C2298 1.391 . S
C2297 C2296 1.422 . S
C2297 C2301 1.400 . S
C2298 H2290 0.950 . S
C2298 C2296 1.391 . S
C2298 C2299 1.400 . S
C2299 C2298 1.400 . S
C2299 C2300 1.398 . S
C2299 C2305 1.491 . S
C2300 H2291 0.950 . S
C2300 C2299 1.398 . S
C2300 C2301 1.391 . S
C2301 H2289 0.950 1_655 S
C2301 C2297 1.400 . S
C2301 C2300 1.391 . S
C2302 H2292 0.950 . S
C2302 C2303 1.386 . S
C2302 C2304 1.391 . S
C2303 C2302 1.386 . S
C2303 C2307 1.393 . S
C2304 H2293 0.950 . S
C2304 C2302 1.391 . S
C2304 C2305 1.400 . S
C2305 C2299 1.491 . S
C2305 C2304 1.400 . S
C2305 C2306 1.398 . S
C2306 H2294 0.950 . S
C2306 C2305 1.398 . S
C2306 C2307 1.391 . S
C2307 H2295 0.950 . S
C2307 C2303 1.393 . S
C2307 C2306 1.391 . S
H2308 C2316 0.950 . S
H2309 C2321 0.950 . S
H2310 C2318 0.950 . S
H2311 C2320 0.950 . S
H2312 C2322 0.950 . S
H2313 C2324 0.950 . S
H2314 C2326 0.950 . S
H2315 C2327 0.950 . S
C2316 H2308 0.950 . S
C2316 C2317 1.386 . S
C2316 C2318 1.391 . S
C2317 C2316 1.386 . S
C2317 C2321 1.393 . S
C2318 H2310 0.950 . S
C2318 C2316 1.391 . S
C2318 C2319 1.400 . S
C2319 C2318 1.400 . S
C2319 C2320 1.398 . S
C2319 C2325 1.491 . S
C2320 H2311 0.950 . S
C2320 C2319 1.398 . S
C2320 C2321 1.391 . S
C2321 H2309 0.950 . S
C2321 C2317 1.393 . S
C2321 C2320 1.391 . S
C2322 H2312 0.950 . S
C2322 C2323 1.386 . S
C2322 C2324 1.391 . S
C2323 C2322 1.386 . S
C2323 C2327 1.393 . S
C2324 H2313 0.950 . S
C2324 C2322 1.391 . S
C2324 C2325 1.400 . S
C2325 C2319 1.491 . S
C2325 C2324 1.400 . S
C2325 C2326 1.398 . S
C2326 H2314 0.950 . S
C2326 C2325 1.398 . S
C2326 C2327 1.391 . S
C2327 H2315 0.950 . S
C2327 C2323 1.393 . S
C2327 C2326 1.391 . S
H2328 C2336 0.950 . S
H2329 C2341 0.950 . S
H2330 C2338 0.950 . S
H2331 C2340 0.950 . S
H2332 C2342 0.950 . S
H2333 C2344 0.950 . S
H2334 C2346 0.950 . S
H2335 C2347 0.950 . S
C2336 H2328 0.950 . S
C2336 C2337 1.386 . S
C2336 C2338 1.391 . S
C2337 C2336 1.386 . S
C2337 C2341 1.393 . S
C2338 H2330 0.950 . S
C2338 C2336 1.391 . S
C2338 C2339 1.400 . S
C2339 C2338 1.400 . S
C2339 C2340 1.398 . S
C2339 C2345 1.491 . S
C2340 H2331 0.950 . S
C2340 C2339 1.398 . S
C2340 C2341 1.391 . S
C2341 H2329 0.950 . S
C2341 C2337 1.393 . S
C2341 C2340 1.391 . S
C2342 H2332 0.950 . S
C2342 C2343 1.386 . S
C2342 C2344 1.391 . S
C2343 C2342 1.386 . S
C2343 C2347 1.393 . S
C2344 H2333 0.950 . S
C2344 C2342 1.391 . S
C2344 C2345 1.400 . S
C2345 C2339 1.491 . S
C2345 C2344 1.400 . S
C2345 C2346 1.398 . S
C2346 H2334 0.950 . S
C2346 C2345 1.398 . S
C2346 C2347 1.391 . S
C2347 H2335 0.950 . S
C2347 C2343 1.393 . S
C2347 C2346 1.391 . S
H2348 C2356 0.950 . S
H2349 C2361 0.950 . S
H2350 C2358 0.950 . S
H2351 C2360 0.950 . S
H2352 C2362 0.950 . S
H2353 C2364 0.950 . S
H2354 C2366 0.950 . S
H2355 C2367 0.950 . S
C2356 H2348 0.950 . S
C2356 C2357 1.386 . S
C2356 C2358 1.391 . S
C2357 C2356 1.386 . S
C2357 C2361 1.393 . S
C2358 H2350 0.950 . S
C2358 C2356 1.391 . S
C2358 C2359 1.400 . S
C2359 C2358 1.400 . S
C2359 C2360 1.398 . S
C2359 C2365 1.491 . S
C2360 H2351 0.950 . S
C2360 C2359 1.398 . S
C2360 C2361 1.391 . S
C2361 H2349 0.950 . S
C2361 C2357 1.393 . S
C2361 C2360 1.391 . S
C2362 H2352 0.950 . S
C2362 C2363 1.409 . S
C2362 C2364 1.391 . S
C2363 C2362 1.409 . S
C2363 C2367 1.413 . S
C2364 H2353 0.950 . S
C2364 C2362 1.391 . S
C2364 C2365 1.400 . S
C2365 C2359 1.491 . S
C2365 C2364 1.400 . S
C2365 C2366 1.398 . S
C2366 H2354 0.950 . S
C2366 C2365 1.398 . S
C2366 C2367 1.391 . S
C2367 H2355 0.950 . S
C2367 C2363 1.413 . S
C2367 C2366 1.391 . S
H2368 C2376 0.950 . S
H2369 C2381 0.950 . S
H2370 C2378 0.950 . S
H2371 C2380 0.950 . S
H2372 C2382 0.950 . S
H2373 C2384 0.950 . S
H2374 C2386 0.950 . S
H2375 C2387 0.950 . S
C2376 H2368 0.950 . S
C2376 C2377 1.386 . S
C2376 C2378 1.391 . S
C2377 C2376 1.386 . S
C2377 C2381 1.393 . S
C2378 H2370 0.950 . S
C2378 C2376 1.391 . S
C2378 C2379 1.400 . S
C2379 C2378 1.400 . S
C2379 C2380 1.398 . S
C2379 C2385 1.491 . S
C2380 H2371 0.950 . S
C2380 C2379 1.398 . S
C2380 C2381 1.391 . S
C2381 H2369 0.950 . S
C2381 C2377 1.393 . S
C2381 C2380 1.391 . S
C2382 H2372 0.950 . S
C2382 C2383 1.386 . S
C2382 C2384 1.391 . S
C2383 C2382 1.386 . S
C2383 C2387 1.393 . S
C2384 H2373 0.950 . S
C2384 C2382 1.391 . S
C2384 C2385 1.400 . S
C2385 C2379 1.491 . S
C2385 C2384 1.400 . S
C2385 C2386 1.398 . S
C2386 H2374 0.950 . S
C2386 C2385 1.398 . S
C2386 C2387 1.391 . S
C2387 H2375 0.950 . S
C2387 C2383 1.393 . S
C2387 C2386 1.391 . S
H2388 C2396 0.950 1_565 S
H2389 C2401 0.950 . S
H2390 C2398 0.950 . S
H2391 C2400 0.950 . S
H2392 C2402 0.950 . S
H2393 C2404 0.950 . S
H2394 C2406 0.950 . S
H2395 C2407 0.950 . S
C2396 H2388 0.950 1_545 S
C2396 C2397 1.386 . S
C2396 C2398 1.391 . S
C2397 C2396 1.386 . S
C2397 C2401 1.393 . S
C2398 H2390 0.950 . S
C2398 C2396 1.391 . S
C2398 C2399 1.400 . S
C2399 C2398 1.400 . S
C2399 C2400 1.398 . S
C2399 C2405 1.491 . S
C2400 H2391 0.950 . S
C2400 C2399 1.398 . S
C2400 C2401 1.391 . S
C2401 H2389 0.950 . S
C2401 C2397 1.393 . S
C2401 C2400 1.391 . S
C2402 H2392 0.950 . S
C2402 C2403 1.386 . S
C2402 C2404 1.391 . S
C2403 C2402 1.386 . S
C2403 C2407 1.393 . S
C2404 H2393 0.950 . S
C2404 C2402 1.391 . S
C2404 C2405 1.400 . S
C2405 C2399 1.491 . S
C2405 C2404 1.400 . S
C2405 C2406 1.398 . S
C2406 H2394 0.950 . S
C2406 C2405 1.398 . S
C2406 C2407 1.391 . S
C2407 H2395 0.950 . S
C2407 C2403 1.393 . S
C2407 C2406 1.391 . S
H2408 C2416 0.950 1_565 S
H2409 C2421 0.950 . S
H2410 C2418 0.950 . S
H2411 C2420 0.950 . S
H2412 C2422 0.950 . S
H2413 C2424 0.950 . S
H2414 C2426 0.950 . S
H2415 C2427 0.950 . S
C2416 H2408 0.950 1_545 S
C2416 C2417 1.386 . S
C2416 C2418 1.391 . S
C2417 C2416 1.386 . S
C2417 C2421 1.393 . S
C2418 H2410 0.950 . S
C2418 C2416 1.391 . S
C2418 C2419 1.400 . S
C2419 C2418 1.400 . S
C2419 C2420 1.398 . S
C2419 C2425 1.491 . S
C2420 H2411 0.950 . S
C2420 C2419 1.398 . S
C2420 C2421 1.391 . S
C2421 H2409 0.950 . S
C2421 C2417 1.393 . S
C2421 C2420 1.391 . S
C2422 H2412 0.950 . S
C2422 C2423 1.386 . S
C2422 C2424 1.391 . S
C2423 C2422 1.386 . S
C2423 C2427 1.393 . S
C2424 H2413 0.950 . S
C2424 C2422 1.391 . S
C2424 C2425 1.400 . S
C2425 C2419 1.491 . S
C2425 C2424 1.400 . S
C2425 C2426 1.398 . S
C2426 H2414 0.950 . S
C2426 C2425 1.398 . S
C2426 C2427 1.391 . S
C2427 H2415 0.950 . S
C2427 C2423 1.393 . S
C2427 C2426 1.391 . S
H2428 C2436 0.950 . S
H2429 C2441 0.950 . S
H2430 C2438 0.950 . S
H2431 C2440 0.950 . S
H2432 C2442 0.950 . S
H2433 C2444 0.950 . S
H2434 C2446 0.950 . S
H2435 C2447 0.950 . S
C2436 H2428 0.950 . S
C2436 C2437 1.386 . S
C2436 C2438 1.391 . S
C2437 C2436 1.386 . S
C2437 C2441 1.393 . S
C2438 H2430 0.950 . S
C2438 C2436 1.391 . S
C2438 C2439 1.400 . S
C2439 C2438 1.400 . S
C2439 C2440 1.398 . S
C2439 C2445 1.491 . S
C2440 H2431 0.950 . S
C2440 C2439 1.398 . S
C2440 C2441 1.391 . S
C2441 H2429 0.950 . S
C2441 C2437 1.393 . S
C2441 C2440 1.391 . S
C2442 H2432 0.950 . S
C2442 C2443 1.386 1_545 S
C2442 C2444 1.391 1_545 S
C2443 C2442 1.386 1_565 S
C2443 C2447 1.393 . S
C2444 H2433 0.950 . S
C2444 C2442 1.391 1_565 S
C2444 C2445 1.400 . S
C2445 C2439 1.491 . S
C2445 C2444 1.400 . S
C2445 C2446 1.398 . S
C2446 H2434 0.950 . S
C2446 C2445 1.398 . S
C2446 C2447 1.391 . S
C2447 H2435 0.950 . S
C2447 C2443 1.393 . S
C2447 C2446 1.391 . S
H2448 C2456 0.950 . S
H2449 C2461 0.950 . S
H2450 C2458 0.950 . S
H2451 C2460 0.950 . S
H2452 C2462 0.950 . S
H2453 C2464 0.950 . S
H2454 C2466 0.950 . S
H2455 C2467 0.950 . S
C2456 H2448 0.950 . S
C2456 C2457 1.386 . S
C2456 C2458 1.391 . S
C2457 C2456 1.386 . S
C2457 C2461 1.393 . S
C2458 H2450 0.950 . S
C2458 C2456 1.391 . S
C2458 C2459 1.400 . S
C2459 C2458 1.400 . S
C2459 C2460 1.398 . S
C2459 C2465 1.491 . S
C2460 H2451 0.950 . S
C2460 C2459 1.398 . S
C2460 C2461 1.391 . S
C2461 H2449 0.950 . S
C2461 C2457 1.393 . S
C2461 C2460 1.391 . S
C2462 H2452 0.950 . S
C2462 C2463 1.386 . S
C2462 C2464 1.391 . S
C2463 C2462 1.386 . S
C2463 C2467 1.393 1_554 S
C2464 H2453 0.950 . S
C2464 C2462 1.391 . S
C2464 C2465 1.400 . S
C2465 C2459 1.491 . S
C2465 C2464 1.400 . S
C2465 C2466 1.398 . S
C2466 H2454 0.950 . S
C2466 C2465 1.398 . S
C2466 C2467 1.391 1_554 S
C2467 H2455 0.950 . S
C2467 C2463 1.393 1_556 S
C2467 C2466 1.391 1_556 S
H2468 C2476 0.950 . S
H2469 C2481 0.950 . S
H2470 C2478 0.950 . S
H2471 C2480 0.950 . S
H2472 C2482 0.950 . S
H2473 C2484 0.950 . S
H2474 C2486 0.950 . S
H2475 C2487 0.950 . S
C2476 H2468 0.950 . S
C2476 C2477 1.386 . S
C2476 C2478 1.391 . S
C2477 C2476 1.386 . S
C2477 C2481 1.393 1_455 S
C2478 H2470 0.950 . S
C2478 C2476 1.391 . S
C2478 C2479 1.400 . S
C2479 C2478 1.400 . S
C2479 C2480 1.398 . S
C2479 C2485 1.491 . S
C2480 H2471 0.950 . S
C2480 C2479 1.398 . S
C2480 C2481 1.391 1_455 S
C2481 H2469 0.950 . S
C2481 C2477 1.393 1_655 S
C2481 C2480 1.391 1_655 S
C2482 H2472 0.950 . S
C2482 C2483 1.386 . S
C2482 C2484 1.391 . S
C2483 C2482 1.386 . S
C2483 C2487 1.393 . S
C2484 H2473 0.950 . S
C2484 C2482 1.391 . S
C2484 C2485 1.400 . S
C2485 C2479 1.491 . S
C2485 C2484 1.400 . S
C2485 C2486 1.398 . S
C2486 H2474 0.950 . S
C2486 C2485 1.398 . S
C2486 C2487 1.391 . S
C2487 H2475 0.950 . S
C2487 C2483 1.393 . S
C2487 C2486 1.391 . S
H2488 C2496 0.950 . S
H2489 C2501 0.950 . S
H2490 C2498 0.950 . S
H2491 C2500 0.950 . S
H2492 C2502 0.950 . S
H2493 C2504 0.950 . S
H2494 C2506 0.950 . S
H2495 C2507 0.950 . S
C2496 H2488 0.950 . S
C2496 C2497 1.386 . S
C2496 C2498 1.391 . S
C2497 C2496 1.386 . S
C2497 C2501 1.393 . S
C2498 H2490 0.950 . S
C2498 C2496 1.391 . S
C2498 C2499 1.400 . S
C2499 C2498 1.400 . S
C2499 C2500 1.398 . S
C2499 C2505 1.491 . S
C2500 H2491 0.950 . S
C2500 C2499 1.398 . S
C2500 C2501 1.391 . S
C2501 H2489 0.950 . S
C2501 C2497 1.393 . S
C2501 C2500 1.391 . S
C2502 H2492 0.950 . S
C2502 C2503 1.386 . S
C2502 C2504 1.391 . S
C2503 C2502 1.386 . S
C2503 C2507 1.393 . S
C2504 H2493 0.950 . S
C2504 C2502 1.391 . S
C2504 C2505 1.400 . S
C2505 C2499 1.491 . S
C2505 C2504 1.400 . S
C2505 C2506 1.398 . S
C2506 H2494 0.950 . S
C2506 C2505 1.398 . S
C2506 C2507 1.391 . S
C2507 H2495 0.950 . S
C2507 C2503 1.393 . S
C2507 C2506 1.391 . S
H2508 C2516 0.950 . S
H2509 C2521 0.950 . S
H2510 C2518 0.950 . S
H2511 C2520 0.950 . S
H2512 C2522 0.950 . S
H2513 C2524 0.950 . S
H2514 C2526 0.950 . S
H2515 C2527 0.950 . S
C2516 H2508 0.950 . S
C2516 C2517 1.386 . S
C2516 C2518 1.391 . S
C2517 C2516 1.386 . S
C2517 C2521 1.393 . S
C2518 H2510 0.950 . S
C2518 C2516 1.391 . S
C2518 C2519 1.400 . S
C2519 C2518 1.400 . S
C2519 C2520 1.398 . S
C2519 C2525 1.491 . S
C2520 H2511 0.950 . S
C2520 C2519 1.398 . S
C2520 C2521 1.391 . S
C2521 H2509 0.950 . S
C2521 C2517 1.393 . S
C2521 C2520 1.391 . S
C2522 H2512 0.950 . S
C2522 C2523 1.386 . S
C2522 C2524 1.391 . S
C2523 C2522 1.386 . S
C2523 C2527 1.393 . S
C2524 H2513 0.950 . S
C2524 C2522 1.391 . S
C2524 C2525 1.400 . S
C2525 C2519 1.491 . S
C2525 C2524 1.400 . S
C2525 C2526 1.398 . S
C2526 H2514 0.950 . S
C2526 C2525 1.398 . S
C2526 C2527 1.391 . S
C2527 H2515 0.950 . S
C2527 C2523 1.393 . S
C2527 C2526 1.391 . S
H2528 C2536 0.950 . S
H2529 C2541 0.950 . S
H2530 C2538 0.950 . S
H2531 C2540 0.950 . S
H2532 C2542 0.950 . S
H2533 C2544 0.950 . S
H2534 C2546 0.950 . S
H2535 C2547 0.950 . S
C2536 H2528 0.950 . S
C2536 C2537 1.386 . S
C2536 C2538 1.391 . S
C2537 C2536 1.386 . S
C2537 C2541 1.393 . S
C2538 H2530 0.950 . S
C2538 C2536 1.391 . S
C2538 C2539 1.400 . S
C2539 C2538 1.400 . S
C2539 C2540 1.398 . S
C2539 C2545 1.491 . S
C2540 H2531 0.950 . S
C2540 C2539 1.398 . S
C2540 C2541 1.391 . S
C2541 H2529 0.950 . S
C2541 C2537 1.393 . S
C2541 C2540 1.391 . S
C2542 H2532 0.950 . S
C2542 C2543 1.386 . S
C2542 C2544 1.391 . S
C2543 C2542 1.386 . S
C2543 C2547 1.393 . S
C2544 H2533 0.950 . S
C2544 C2542 1.391 . S
C2544 C2545 1.400 . S
C2545 C2539 1.491 . S
C2545 C2544 1.400 . S
C2545 C2546 1.398 . S
C2546 H2534 0.950 . S
C2546 C2545 1.398 . S
C2546 C2547 1.391 . S
C2547 H2535 0.950 . S
C2547 C2543 1.393 . S
C2547 C2546 1.391 . S
H2548 C2556 0.950 . S
H2549 C2561 0.950 . S
H2550 C2558 0.950 . S
H2551 C2560 0.950 . S
H2552 C2562 0.950 . S
H2553 C2564 0.950 . S
H2554 C2566 0.950 . S
H2555 C2567 0.950 . S
C2556 H2548 0.950 . S
C2556 C2557 1.406 . S
C2556 C2558 1.391 . S
C2557 C2556 1.406 . S
C2557 C2561 1.417 . S
C2558 H2550 0.950 . S
C2558 C2556 1.391 . S
C2558 C2559 1.400 . S
C2559 C2558 1.400 . S
C2559 C2560 1.398 . S
C2559 C2565 1.491 . S
C2560 H2551 0.950 . S
C2560 C2559 1.398 . S
C2560 C2561 1.391 . S
C2561 H2549 0.950 . S
C2561 C2557 1.417 . S
C2561 C2560 1.391 . S
C2562 H2552 0.950 . S
C2562 C2563 1.386 . S
C2562 C2564 1.391 . S
C2563 C2562 1.386 . S
C2563 C2567 1.393 . S
C2564 H2553 0.950 . S
C2564 C2562 1.391 . S
C2564 C2565 1.400 . S
C2565 C2559 1.491 . S
C2565 C2564 1.400 . S
C2565 C2566 1.398 . S
C2566 H2554 0.950 . S
C2566 C2565 1.398 . S
C2566 C2567 1.391 . S
C2567 H2555 0.950 . S
C2567 C2563 1.393 . S
C2567 C2566 1.391 . S
H2568 C2576 0.950 . S
H2569 C2581 0.950 . S
H2570 C2578 0.950 . S
H2571 C2580 0.950 . S
H2572 C2582 0.950 . S
H2573 C2584 0.950 . S
H2574 C2586 0.950 . S
H2575 C2587 0.950 . S
C2576 H2568 0.950 . S
C2576 C2577 1.386 . S
C2576 C2578 1.391 . S
C2577 C2576 1.386 . S
C2577 C2581 1.393 . S
C2578 H2570 0.950 . S
C2578 C2576 1.391 . S
C2578 C2579 1.400 . S
C2579 C2578 1.400 . S
C2579 C2580 1.398 . S
C2579 C2585 1.491 . S
C2580 H2571 0.950 . S
C2580 C2579 1.398 . S
C2580 C2581 1.391 . S
C2581 H2569 0.950 . S
C2581 C2577 1.393 . S
C2581 C2580 1.391 . S
C2582 H2572 0.950 . S
C2582 C2583 1.386 . S
C2582 C2584 1.391 . S
C2583 C2582 1.386 . S
C2583 C2587 1.393 . S
C2584 H2573 0.950 . S
C2584 C2582 1.391 . S
C2584 C2585 1.400 . S
C2585 C2579 1.491 . S
C2585 C2584 1.400 . S
C2585 C2586 1.398 . S
C2586 H2574 0.950 . S
C2586 C2585 1.398 . S
C2586 C2587 1.391 . S
C2587 H2575 0.950 . S
C2587 C2583 1.393 . S
C2587 C2586 1.391 . S
H2588 C2596 0.950 . S
H2589 C2601 0.950 . S
H2590 C2598 0.950 . S
H2591 C2600 0.950 . S
H2592 C2602 0.950 . S
H2593 C2604 0.950 . S
H2594 C2606 0.950 . S
H2595 C2607 0.950 . S
C2596 H2588 0.950 . S
C2596 C2597 1.386 . S
C2596 C2598 1.391 . S
C2597 C2596 1.386 . S
C2597 C2601 1.393 . S
C2598 H2590 0.950 . S
C2598 C2596 1.391 . S
C2598 C2599 1.400 . S
C2599 C2598 1.400 . S
C2599 C2600 1.398 . S
C2599 C2605 1.491 . S
C2600 H2591 0.950 . S
C2600 C2599 1.398 . S
C2600 C2601 1.391 . S
C2601 H2589 0.950 . S
C2601 C2597 1.393 . S
C2601 C2600 1.391 . S
C2602 H2592 0.950 . S
C2602 C2603 1.386 . S
C2602 C2604 1.391 . S
C2603 C2602 1.386 . S
C2603 C2607 1.393 . S
C2604 H2593 0.950 . S
C2604 C2602 1.391 . S
C2604 C2605 1.400 . S
C2605 C2599 1.491 . S
C2605 C2604 1.400 . S
C2605 C2606 1.398 . S
C2606 H2594 0.950 . S
C2606 C2605 1.398 . S
C2606 C2607 1.391 . S
C2607 H2595 0.950 . S
C2607 C2603 1.393 . S
C2607 C2606 1.391 . S
H2608 C2616 0.950 . S
H2609 C2621 0.950 . S
H2610 C2618 0.950 . S
H2611 C2620 0.950 . S
H2612 C2622 0.950 . S
H2613 C2624 0.950 . S
H2614 C2626 0.950 . S
H2615 C2627 0.950 . S
C2616 H2608 0.950 . S
C2616 C2617 1.386 . S
C2616 C2618 1.391 . S
C2617 C2616 1.386 . S
C2617 C2621 1.393 1_556 S
C2618 H2610 0.950 . S
C2618 C2616 1.391 . S
C2618 C2619 1.400 . S
C2619 C2618 1.400 . S
C2619 C2620 1.398 . S
C2619 C2625 1.491 . S
C2620 H2611 0.950 . S
C2620 C2619 1.398 . S
C2620 C2621 1.391 1_556 S
C2621 H2609 0.950 . S
C2621 C2617 1.393 1_554 S
C2621 C2620 1.391 1_554 S
C2622 H2612 0.950 . S
C2622 C2623 1.386 . S
C2622 C2624 1.391 . S
C2623 C2622 1.386 . S
C2623 C2627 1.393 . S
C2624 H2613 0.950 . S
C2624 C2622 1.391 . S
C2624 C2625 1.400 . S
C2625 C2619 1.491 . S
C2625 C2624 1.400 . S
C2625 C2626 1.398 . S
C2626 H2614 0.950 . S
C2626 C2625 1.398 . S
C2626 C2627 1.391 . S
C2627 H2615 0.950 . S
C2627 C2623 1.393 . S
C2627 C2626 1.391 . S
H2628 C2636 0.950 . S
H2629 C2641 0.950 . S
H2630 C2638 0.950 . S
H2631 C2640 0.950 . S
H2632 C2642 0.950 . S
H2633 C2644 0.950 . S
H2634 C2646 0.950 . S
H2635 C2647 0.950 . S
C2636 H2628 0.950 . S
C2636 C2637 1.386 . S
C2636 C2638 1.391 . S
C2637 C2636 1.386 . S
C2637 C2641 1.393 . S
C2638 H2630 0.950 . S
C2638 C2636 1.391 . S
C2638 C2639 1.400 . S
C2639 C2638 1.400 . S
C2639 C2640 1.398 . S
C2639 C2645 1.491 . S
C2640 H2631 0.950 . S
C2640 C2639 1.398 . S
C2640 C2641 1.391 . S
C2641 H2629 0.950 . S
C2641 C2637 1.393 . S
C2641 C2640 1.391 . S
C2642 H2632 0.950 . S
C2642 C2643 1.386 . S
C2642 C2644 1.391 . S
C2643 C2642 1.386 . S
C2643 C2647 1.393 1_455 S
C2644 H2633 0.950 . S
C2644 C2642 1.391 . S
C2644 C2645 1.400 . S
C2645 C2639 1.491 . S
C2645 C2644 1.400 . S
C2645 C2646 1.398 . S
C2646 H2634 0.950 . S
C2646 C2645 1.398 . S
C2646 C2647 1.391 1_455 S
C2647 H2635 0.950 . S
C2647 C2643 1.393 1_655 S
C2647 C2646 1.391 1_655 S
H2648 C2656 0.950 . S
H2649 C2661 0.950 . S
H2650 C2658 0.950 . S
H2651 C2660 0.950 . S
H2652 C2662 0.950 . S
H2653 C2664 0.950 . S
H2654 C2666 0.950 . S
H2655 C2667 0.950 . S
C2656 H2648 0.950 . S
C2656 C2657 1.386 . S
C2656 C2658 1.391 . S
C2657 C2656 1.386 . S
C2657 C2661 1.393 . S
C2658 H2650 0.950 . S
C2658 C2656 1.391 . S
C2658 C2659 1.400 . S
C2659 C2658 1.400 . S
C2659 C2660 1.398 . S
C2659 C2665 1.491 . S
C2660 H2651 0.950 . S
C2660 C2659 1.398 . S
C2660 C2661 1.391 . S
C2661 H2649 0.950 . S
C2661 C2657 1.393 . S
C2661 C2660 1.391 . S
C2662 H2652 0.950 . S
C2662 C2663 1.386 . S
C2662 C2664 1.391 . S
C2663 C2662 1.386 . S
C2663 C2667 1.393 . S
C2664 H2653 0.950 . S
C2664 C2662 1.391 . S
C2664 C2665 1.400 . S
C2665 C2659 1.491 . S
C2665 C2664 1.400 . S
C2665 C2666 1.398 . S
C2666 H2654 0.950 . S
C2666 C2665 1.398 . S
C2666 C2667 1.391 . S
C2667 H2655 0.950 . S
C2667 C2663 1.393 . S
C2667 C2666 1.391 . S
H2668 C2676 0.950 . S
H2669 C2681 0.950 . S
H2670 C2678 0.950 . S
H2671 C2680 0.950 . S
H2672 C2682 0.950 . S
H2673 C2684 0.950 . S
H2674 C2686 0.950 . S
H2675 C2687 0.950 . S
C2676 H2668 0.950 . S
C2676 C2677 1.386 . S
C2676 C2678 1.391 . S
C2677 C2676 1.386 . S
C2677 C2681 1.393 . S
C2678 H2670 0.950 . S
C2678 C2676 1.391 . S
C2678 C2679 1.400 . S
C2679 C2678 1.400 . S
C2679 C2680 1.398 . S
C2679 C2685 1.491 . S
C2680 H2671 0.950 . S
C2680 C2679 1.398 . S
C2680 C2681 1.391 . S
C2681 H2669 0.950 . S
C2681 C2677 1.393 . S
C2681 C2680 1.391 . S
C2682 H2672 0.950 . S
C2682 C2683 1.386 . S
C2682 C2684 1.391 . S
C2683 C2682 1.386 . S
C2683 C2687 1.393 . S
C2684 H2673 0.950 . S
C2684 C2682 1.391 . S
C2684 C2685 1.400 . S
C2685 C2679 1.491 . S
C2685 C2684 1.400 . S
C2685 C2686 1.398 . S
C2686 H2674 0.950 . S
C2686 C2685 1.398 . S
C2686 C2687 1.391 . S
C2687 H2675 0.950 . S
C2687 C2683 1.393 . S
C2687 C2686 1.391 . S
H2688 C2696 0.950 . S
H2689 C2701 0.950 . S
H2690 C2698 0.950 . S
H2691 C2700 0.950 . S
H2692 C2702 0.926 1_556 S
H2693 C2704 0.950 . S
H2694 C2706 0.950 . S
H2695 C2707 0.950 . S
C2696 H2688 0.950 . S
C2696 C2697 1.386 . S
C2696 C2698 1.391 . S
C2697 C2696 1.386 . S
C2697 C2701 1.393 . S
C2698 H2690 0.950 . S
C2698 C2696 1.391 . S
C2698 C2699 1.400 . S
C2699 C2698 1.400 . S
C2699 C2700 1.398 . S
C2699 C2705 1.491 . S
C2700 H2691 0.950 . S
C2700 C2699 1.398 . S
C2700 C2701 1.391 . S
C2701 H2689 0.950 . S
C2701 C2697 1.393 . S
C2701 C2700 1.391 . S
C2702 H2692 0.926 1_554 S
C2702 C2703 1.401 . S
C2702 C2704 1.391 . S
C2703 C2702 1.401 . S
C2703 C2707 1.422 . S
C2704 H2693 0.950 . S
C2704 C2702 1.391 . S
C2704 C2705 1.400 . S
C2705 C2699 1.491 . S
C2705 C2704 1.400 . S
C2705 C2706 1.398 . S
C2706 H2694 0.950 . S
C2706 C2705 1.398 . S
C2706 C2707 1.391 . S
C2707 H2695 0.950 . S
C2707 C2703 1.422 . S
C2707 C2706 1.391 . S
H2708 C2716 0.950 . S
H2709 C2721 0.950 . S
H2710 C2718 0.950 . S
H2711 C2720 0.950 . S
H2712 C2722 0.950 . S
H2713 C2724 0.950 . S
H2714 C2726 0.950 . S
H2715 C2727 0.950 . S
C2716 H2708 0.950 . S
C2716 C2717 1.386 . S
C2716 C2718 1.391 . S
C2717 C2716 1.386 . S
C2717 C2721 1.393 . S
C2718 H2710 0.950 . S
C2718 C2716 1.391 . S
C2718 C2719 1.400 . S
C2719 C2718 1.400 . S
C2719 C2720 1.398 . S
C2719 C2725 1.491 . S
C2720 H2711 0.950 . S
C2720 C2719 1.398 . S
C2720 C2721 1.391 . S
C2721 H2709 0.950 . S
C2721 C2717 1.393 . S
C2721 C2720 1.391 . S
C2722 H2712 0.950 . S
C2722 C2723 1.386 . S
C2722 C2724 1.391 . S
C2723 C2722 1.386 . S
C2723 C2727 1.393 1_545 S
C2724 H2713 0.950 . S
C2724 C2722 1.391 . S
C2724 C2725 1.400 . S
C2725 C2719 1.491 . S
C2725 C2724 1.400 . S
C2725 C2726 1.398 . S
C2726 H2714 0.950 . S
C2726 C2725 1.398 . S
C2726 C2727 1.391 1_545 S
C2727 H2715 0.950 . S
C2727 C2723 1.393 1_565 S
C2727 C2726 1.391 1_565 S
H2728 C2736 0.950 . S
H2729 C2741 0.950 . S
H2730 C2738 0.950 . S
H2731 C2740 0.950 . S
H2732 C2742 0.950 . S
H2733 C2744 0.950 . S
H2734 C2746 0.950 . S
H2735 C2747 0.950 . S
C2736 H2728 0.950 . S
C2736 C2737 1.386 . S
C2736 C2738 1.391 . S
C2737 C2736 1.386 . S
C2737 C2741 1.393 . S
C2738 H2730 0.950 . S
C2738 C2736 1.391 . S
C2738 C2739 1.400 . S
C2739 C2738 1.400 . S
C2739 C2740 1.398 . S
C2739 C2745 1.491 . S
C2740 H2731 0.950 . S
C2740 C2739 1.398 . S
C2740 C2741 1.391 . S
C2741 H2729 0.950 . S
C2741 C2737 1.393 . S
C2741 C2740 1.391 . S
C2742 H2732 0.950 . S
C2742 C2743 1.386 1_545 S
C2742 C2744 1.391 1_545 S
C2743 C2742 1.386 1_565 S
C2743 C2747 1.393 . S
C2744 H2733 0.950 . S
C2744 C2742 1.391 1_565 S
C2744 C2745 1.400 . S
C2745 C2739 1.491 . S
C2745 C2744 1.400 . S
C2745 C2746 1.398 . S
C2746 H2734 0.950 . S
C2746 C2745 1.398 . S
C2746 C2747 1.391 . S
C2747 H2735 0.950 . S
C2747 C2743 1.393 . S
C2747 C2746 1.391 . S
H2748 C2756 0.950 . S
H2749 C2761 0.950 . S
H2750 C2758 0.950 . S
H2751 C2760 0.950 . S
H2752 C2762 0.950 . S
H2753 C2764 0.950 . S
H2754 C2766 0.950 . S
H2755 C2767 0.950 . S
C2756 H2748 0.950 . S
C2756 C2757 1.386 . S
C2756 C2758 1.391 . S
C2757 C2756 1.386 . S
C2757 C2761 1.393 . S
C2758 H2750 0.950 . S
C2758 C2756 1.391 . S
C2758 C2759 1.400 . S
C2759 C2758 1.400 . S
C2759 C2760 1.398 . S
C2759 C2765 1.491 . S
C2760 H2751 0.950 . S
C2760 C2759 1.398 . S
C2760 C2761 1.391 . S
C2761 H2749 0.950 . S
C2761 C2757 1.393 . S
C2761 C2760 1.391 . S
C2762 H2752 0.950 . S
C2762 C2763 1.386 1_545 S
C2762 C2764 1.391 1_545 S
C2763 C2762 1.386 1_565 S
C2763 C2767 1.393 . S
C2764 H2753 0.950 . S
C2764 C2762 1.391 1_565 S
C2764 C2765 1.400 . S
C2765 C2759 1.491 . S
C2765 C2764 1.400 . S
C2765 C2766 1.398 . S
C2766 H2754 0.950 . S
C2766 C2765 1.398 . S
C2766 C2767 1.391 . S
C2767 H2755 0.950 . S
C2767 C2763 1.393 . S
C2767 C2766 1.391 . S
H2768 C2776 0.950 . S
H2769 C2781 0.950 . S
H2770 C2778 0.950 . S
H2771 C2780 0.950 . S
H2772 C2782 0.950 . S
H2773 C2784 0.950 . S
H2774 C2786 0.950 . S
H2775 C2787 0.950 . S
C2776 H2768 0.950 . S
C2776 C2777 1.386 . S
C2776 C2778 1.391 . S
C2777 C2776 1.386 . S
C2777 C2781 1.393 . S
C2778 H2770 0.950 . S
C2778 C2776 1.391 . S
C2778 C2779 1.400 . S
C2779 C2778 1.400 . S
C2779 C2780 1.398 . S
C2779 C2785 1.491 . S
C2780 H2771 0.950 . S
C2780 C2779 1.398 . S
C2780 C2781 1.391 . S
C2781 H2769 0.950 . S
C2781 C2777 1.393 . S
C2781 C2780 1.391 . S
C2782 H2772 0.950 . S
C2782 C2783 1.386 1_565 S
C2782 C2784 1.391 1_565 S
C2783 C2782 1.386 1_545 S
C2783 C2787 1.393 . S
C2784 H2773 0.950 . S
C2784 C2782 1.391 1_545 S
C2784 C2785 1.400 . S
C2785 C2779 1.491 . S
C2785 C2784 1.400 . S
C2785 C2786 1.398 . S
C2786 H2774 0.950 . S
C2786 C2785 1.398 . S
C2786 C2787 1.391 . S
C2787 H2775 0.950 . S
C2787 C2783 1.393 . S
C2787 C2786 1.391 . S
H2788 C2796 0.950 . S
H2789 C2801 0.950 . S
H2790 C2798 0.950 . S
H2791 C2800 0.950 . S
H2792 C2802 0.950 . S
H2793 C2804 0.950 . S
H2794 C2806 0.950 . S
H2795 C2807 0.950 . S
C2796 H2788 0.950 . S
C2796 C2797 1.386 . S
C2796 C2798 1.391 . S
C2797 C2796 1.386 . S
C2797 C2801 1.393 . S
C2798 H2790 0.950 . S
C2798 C2796 1.391 . S
C2798 C2799 1.400 . S
C2799 C2798 1.400 . S
C2799 C2800 1.398 . S
C2799 C2805 1.491 . S
C2800 H2791 0.950 . S
C2800 C2799 1.398 . S
C2800 C2801 1.391 . S
C2801 H2789 0.950 . S
C2801 C2797 1.393 . S
C2801 C2800 1.391 . S
C2802 H2792 0.950 . S
C2802 C2803 1.386 . S
C2802 C2804 1.391 . S
C2803 C2802 1.386 . S
C2803 C2807 1.393 1_556 S
C2804 H2793 0.950 . S
C2804 C2802 1.391 . S
C2804 C2805 1.400 . S
C2805 C2799 1.491 . S
C2805 C2804 1.400 . S
C2805 C2806 1.398 . S
C2806 H2794 0.950 . S
C2806 C2805 1.398 . S
C2806 C2807 1.391 1_556 S
C2807 H2795 0.950 . S
C2807 C2803 1.393 1_554 S
C2807 C2806 1.391 1_554 S
H2808 C2816 0.950 . S
H2809 C2821 0.950 . S
H2810 C2818 0.950 . S
H2811 C2820 0.950 . S
H2812 C2822 0.962 . S
H2813 C2824 0.950 . S
H2814 C2826 0.950 . S
H2815 C2827 0.950 . S
C2816 H2808 0.950 . S
C2816 C2817 1.386 . S
C2816 C2818 1.391 . S
C2817 C2816 1.386 . S
C2817 C2821 1.393 . S
C2818 H2810 0.950 . S
C2818 C2816 1.391 . S
C2818 C2819 1.400 . S
C2819 C2818 1.400 . S
C2819 C2820 1.398 . S
C2819 C2825 1.491 . S
C2820 H2811 0.950 . S
C2820 C2819 1.398 . S
C2820 C2821 1.391 . S
C2821 H2809 0.950 . S
C2821 C2817 1.393 . S
C2821 C2820 1.391 . S
C2822 H2812 0.962 . S
C2822 C2823 1.386 . S
C2822 C2824 1.391 . S
C2823 C2822 1.386 . S
C2823 C2827 1.393 . S
C2824 H2813 0.950 . S
C2824 C2822 1.391 . S
C2824 C2825 1.400 . S
C2825 C2819 1.491 . S
C2825 C2824 1.400 . S
C2825 C2826 1.398 . S
C2826 H2814 0.950 . S
C2826 C2825 1.398 . S
C2826 C2827 1.391 . S
C2827 H2815 0.950 . S
C2827 C2823 1.393 . S
C2827 C2826 1.391 . S
H2828 C2836 0.950 . S
H2829 C2841 0.950 . S
H2830 C2838 0.950 . S
H2831 C2840 0.950 . S
H2832 C2842 0.950 . S
H2833 C2844 0.950 . S
H2834 C2846 0.950 . S
H2835 C2847 0.950 . S
C2836 H2828 0.950 . S
C2836 C2837 1.386 . S
C2836 C2838 1.391 . S
C2837 C2836 1.386 . S
C2837 C2841 1.393 . S
C2838 H2830 0.950 . S
C2838 C2836 1.391 . S
C2838 C2839 1.400 . S
C2839 C2838 1.400 . S
C2839 C2840 1.398 . S
C2839 C2845 1.491 . S
C2840 H2831 0.950 . S
C2840 C2839 1.398 . S
C2840 C2841 1.391 . S
C2841 H2829 0.950 . S
C2841 C2837 1.393 . S
C2841 C2840 1.391 . S
C2842 H2832 0.950 . S
C2842 C2843 1.386 . S
C2842 C2844 1.391 . S
C2843 C2842 1.386 . S
C2843 C2847 1.393 . S
C2844 H2833 0.950 . S
C2844 C2842 1.391 . S
C2844 C2845 1.400 . S
C2845 C2839 1.491 . S
C2845 C2844 1.400 . S
C2845 C2846 1.398 . S
C2846 H2834 0.950 . S
C2846 C2845 1.398 . S
C2846 C2847 1.391 . S
C2847 H2835 0.950 . S
C2847 C2843 1.393 . S
C2847 C2846 1.391 . S
H2848 C2856 0.950 . S
H2849 C2861 0.950 . S
H2850 C2858 0.950 . S
H2851 C2860 0.950 . S
H2852 C2862 0.950 1_455 S
H2853 C2864 0.950 . S
H2854 C2866 0.950 . S
H2855 C2867 0.950 . S
C2856 H2848 0.950 . S
C2856 C2857 1.386 . S
C2856 C2858 1.391 . S
C2857 C2856 1.386 . S
C2857 C2861 1.393 . S
C2858 H2850 0.950 . S
C2858 C2856 1.391 . S
C2858 C2859 1.400 . S
C2859 C2858 1.400 . S
C2859 C2860 1.398 . S
C2859 C2865 1.491 . S
C2860 H2851 0.950 . S
C2860 C2859 1.398 . S
C2860 C2861 1.391 . S
C2861 H2849 0.950 . S
C2861 C2857 1.393 . S
C2861 C2860 1.391 . S
C2862 H2852 0.950 1_655 S
C2862 C2863 1.386 . S
C2862 C2864 1.391 . S
C2863 C2862 1.386 . S
C2863 C2867 1.393 . S
C2864 H2853 0.950 . S
C2864 C2862 1.391 . S
C2864 C2865 1.400 . S
C2865 C2859 1.491 . S
C2865 C2864 1.400 . S
C2865 C2866 1.398 . S
C2866 H2854 0.950 . S
C2866 C2865 1.398 . S
C2866 C2867 1.391 . S
C2867 H2855 0.950 . S
C2867 C2863 1.393 . S
C2867 C2866 1.391 . S
H2868 C2876 0.950 . S
H2869 C2881 0.950 . S
H2870 C2878 0.950 . S
H2871 C2880 0.950 . S
H2872 C2882 0.950 . S
H2873 C2884 0.950 . S
H2874 C2886 0.950 . S
H2875 C2887 0.950 . S
C2876 H2868 0.950 . S
C2876 C2877 1.386 . S
C2876 C2878 1.391 . S
C2877 C2876 1.386 . S
C2877 C2881 1.393 . S
C2878 H2870 0.950 . S
C2878 C2876 1.391 . S
C2878 C2879 1.400 . S
C2879 C2878 1.400 . S
C2879 C2880 1.398 . S
C2879 C2885 1.491 . S
C2880 H2871 0.950 . S
C2880 C2879 1.398 . S
C2880 C2881 1.391 . S
C2881 H2869 0.950 . S
C2881 C2877 1.393 . S
C2881 C2880 1.391 . S
C2882 H2872 0.950 . S
C2882 C2883 1.386 . S
C2882 C2884 1.391 . S
C2883 C2882 1.386 . S
C2883 C2887 1.393 . S
C2884 H2873 0.950 . S
C2884 C2882 1.391 . S
C2884 C2885 1.400 . S
C2885 C2879 1.491 . S
C2885 C2884 1.400 . S
C2885 C2886 1.398 . S
C2886 H2874 0.950 . S
C2886 C2885 1.398 . S
C2886 C2887 1.391 . S
C2887 H2875 0.950 . S
C2887 C2883 1.393 . S
C2887 C2886 1.391 . S
H2888 C2896 0.950 . S
H2889 C2901 0.950 . S
H2890 C2898 0.950 . S
H2891 C2900 0.950 . S
H2892 C2902 0.950 . S
H2893 C2904 0.950 . S
H2894 C2906 0.950 . S
H2895 C2907 0.950 . S
C2896 H2888 0.950 . S
C2896 C2897 1.386 . S
C2896 C2898 1.391 . S
C2897 C2896 1.386 . S
C2897 C2901 1.393 . S
C2898 H2890 0.950 . S
C2898 C2896 1.391 . S
C2898 C2899 1.400 . S
C2899 C2898 1.400 . S
C2899 C2900 1.398 . S
C2899 C2905 1.491 . S
C2900 H2891 0.950 . S
C2900 C2899 1.398 . S
C2900 C2901 1.391 . S
C2901 H2889 0.950 . S
C2901 C2897 1.393 . S
C2901 C2900 1.391 . S
C2902 H2892 0.950 . S
C2902 C2903 1.386 . S
C2902 C2904 1.391 . S
C2903 C2902 1.386 . S
C2903 C2907 1.393 . S
C2904 H2893 0.950 . S
C2904 C2902 1.391 . S
C2904 C2905 1.400 . S
C2905 C2899 1.491 . S
C2905 C2904 1.400 . S
C2905 C2906 1.398 . S
C2906 H2894 0.950 . S
C2906 C2905 1.398 . S
C2906 C2907 1.391 . S
C2907 H2895 0.950 . S
C2907 C2903 1.393 . S
C2907 C2906 1.391 . S
H2908 C2916 0.950 . S
H2909 C2921 0.950 . S
H2910 C2918 0.950 . S
H2911 C2920 0.950 . S
H2912 C2922 0.950 . S
H2913 C2924 0.950 . S
H2914 C2926 0.950 . S
H2915 C2927 0.950 . S
C2916 H2908 0.950 . S
C2916 C2917 1.386 1_554 S
C2916 C2918 1.391 1_554 S
C2917 C2916 1.386 1_556 S
C2917 C2921 1.393 . S
C2918 H2910 0.950 . S
C2918 C2916 1.391 1_556 S
C2918 C2919 1.400 . S
C2919 C2918 1.400 . S
C2919 C2920 1.398 . S
C2919 C2925 1.491 . S
C2920 H2911 0.950 . S
C2920 C2919 1.398 . S
C2920 C2921 1.391 . S
C2921 H2909 0.950 . S
C2921 C2917 1.393 . S
C2921 C2920 1.391 . S
C2922 H2912 0.950 . S
C2922 C2923 1.386 . S
C2922 C2924 1.391 . S
C2923 C2922 1.386 . S
C2923 C2927 1.393 . S
C2924 H2913 0.950 . S
C2924 C2922 1.391 . S
C2924 C2925 1.400 . S
C2925 C2919 1.491 . S
C2925 C2924 1.400 . S
C2925 C2926 1.398 . S
C2926 H2914 0.950 . S
C2926 C2925 1.398 . S
C2926 C2927 1.391 . S
C2927 H2915 0.950 . S
C2927 C2923 1.393 . S
C2927 C2926 1.391 . S
H2928 C2936 0.950 . S
H2929 C2941 0.950 . S
H2930 C2938 0.950 . S
H2931 C2940 0.950 . S
H2932 C2942 0.950 . S
H2933 C2944 0.950 . S
H2934 C2946 0.950 . S
H2935 C2947 0.950 . S
C2936 H2928 0.950 . S
C2936 C2937 1.386 . S
C2936 C2938 1.391 . S
C2937 C2936 1.386 . S
C2937 C2941 1.393 . S
C2938 H2930 0.950 . S
C2938 C2936 1.391 . S
C2938 C2939 1.400 . S
C2939 C2938 1.400 . S
C2939 C2940 1.398 . S
C2939 C2945 1.491 . S
C2940 H2931 0.950 . S
C2940 C2939 1.398 . S
C2940 C2941 1.391 . S
C2941 H2929 0.950 . S
C2941 C2937 1.393 . S
C2941 C2940 1.391 . S
C2942 H2932 0.950 . S
C2942 C2943 1.386 . S
C2942 C2944 1.391 . S
C2943 C2942 1.386 . S
C2943 C2947 1.393 . S
C2944 H2933 0.950 . S
C2944 C2942 1.391 . S
C2944 C2945 1.400 . S
C2945 C2939 1.491 . S
C2945 C2944 1.400 . S
C2945 C2946 1.398 . S
C2946 H2934 0.950 . S
C2946 C2945 1.398 . S
C2946 C2947 1.391 . S
C2947 H2935 0.950 . S
C2947 C2943 1.393 . S
C2947 C2946 1.391 . S
H2948 C2956 0.950 . S
H2949 C2961 0.950 . S
H2950 C2958 0.950 . S
H2951 C2960 0.950 . S
H2952 C2962 0.950 . S
H2953 C2964 0.950 . S
H2954 C2966 0.950 . S
H2955 C2967 0.950 . S
C2956 H2948 0.950 . S
C2956 C2957 1.386 . S
C2956 C2958 1.391 . S
C2957 C2956 1.386 . S
C2957 C2961 1.393 . S
C2958 H2950 0.950 . S
C2958 C2956 1.391 . S
C2958 C2959 1.400 . S
C2959 C2958 1.400 . S
C2959 C2960 1.398 . S
C2959 C2965 1.491 . S
C2960 H2951 0.950 . S
C2960 C2959 1.398 . S
C2960 C2961 1.391 . S
C2961 H2949 0.950 . S
C2961 C2957 1.393 . S
C2961 C2960 1.391 . S
C2962 H2952 0.950 . S
C2962 C2963 1.386 . S
C2962 C2964 1.391 . S
C2963 C2962 1.386 . S
C2963 C2967 1.393 . S
C2964 H2953 0.950 . S
C2964 C2962 1.391 . S
C2964 C2965 1.400 . S
C2965 C2959 1.491 . S
C2965 C2964 1.400 . S
C2965 C2966 1.398 . S
C2966 H2954 0.950 . S
C2966 C2965 1.398 . S
C2966 C2967 1.391 . S
C2967 H2955 0.950 . S
C2967 C2963 1.393 . S
C2967 C2966 1.391 . S
H2968 C2976 0.950 . S
H2969 C2981 0.950 . S
H2970 C2978 0.950 . S
H2971 C2980 0.950 . S
H2972 C2982 0.950 . S
H2973 C2984 0.950 . S
H2974 C2986 0.950 . S
H2975 C2987 0.950 . S
C2976 H2968 0.950 . S
C2976 C2977 1.386 . S
C2976 C2978 1.391 . S
C2977 C2976 1.386 . S
C2977 C2981 1.393 . S
C2978 H2970 0.950 . S
C2978 C2976 1.391 . S
C2978 C2979 1.400 . S
C2979 C2978 1.400 . S
C2979 C2980 1.398 . S
C2979 C2985 1.491 . S
C2980 H2971 0.950 . S
C2980 C2979 1.398 . S
C2980 C2981 1.391 . S
C2981 H2969 0.950 . S
C2981 C2977 1.393 . S
C2981 C2980 1.391 . S
C2982 H2972 0.950 . S
C2982 C2983 1.386 . S
C2982 C2984 1.391 . S
C2983 C2982 1.386 . S
C2983 C2987 1.393 . S
C2984 H2973 0.950 . S
C2984 C2982 1.391 . S
C2984 C2985 1.400 . S
C2985 C2979 1.491 . S
C2985 C2984 1.400 . S
C2985 C2986 1.398 . S
C2986 H2974 0.950 . S
C2986 C2985 1.398 . S
C2986 C2987 1.391 . S
C2987 H2975 0.950 . S
C2987 C2983 1.393 . S
C2987 C2986 1.391 . S
H2988 C2996 0.950 . S
H2989 C3001 0.950 . S
H2990 C2998 0.950 . S
H2991 C3000 0.950 . S
H2992 C3002 0.950 . S
H2993 C3004 0.950 . S
H2994 C3006 0.950 . S
H2995 C3007 0.950 . S
C2996 H2988 0.950 . S
C2996 C2997 1.386 . S
C2996 C2998 1.391 . S
C2997 C2996 1.386 . S
C2997 C3001 1.393 . S
C2998 H2990 0.950 . S
C2998 C2996 1.391 . S
C2998 C2999 1.400 . S
C2999 C2998 1.400 . S
C2999 C3000 1.398 . S
C2999 C3005 1.491 . S
C3000 H2991 0.950 . S
C3000 C2999 1.398 . S
C3000 C3001 1.391 . S
C3001 H2989 0.950 . S
C3001 C2997 1.393 . S
C3001 C3000 1.391 . S
C3002 H2992 0.950 . S
C3002 C3003 1.386 . S
C3002 C3004 1.391 . S
C3003 C3002 1.386 . S
C3003 C3007 1.393 . S
C3004 H2993 0.950 . S
C3004 C3002 1.391 . S
C3004 C3005 1.400 . S
C3005 C2999 1.491 . S
C3005 C3004 1.400 . S
C3005 C3006 1.398 . S
C3006 H2994 0.950 . S
C3006 C3005 1.398 . S
C3006 C3007 1.391 . S
C3007 H2995 0.950 . S
C3007 C3003 1.393 . S
C3007 C3006 1.391 . S
H3008 C3016 0.950 . S
H3009 C3021 0.950 . S
H3010 C3018 0.950 . S
H3011 C3020 0.950 . S
H3012 C3022 0.950 . S
H3013 C3024 0.950 . S
H3014 C3026 0.950 . S
H3015 C3027 0.950 . S
C3016 H3008 0.950 . S
C3016 C3017 1.386 . S
C3016 C3018 1.391 . S
C3017 C3016 1.386 . S
C3017 C3021 1.393 . S
C3018 H3010 0.950 . S
C3018 C3016 1.391 . S
C3018 C3019 1.400 . S
C3019 C3018 1.400 . S
C3019 C3020 1.398 . S
C3019 C3025 1.491 . S
C3020 H3011 0.950 . S
C3020 C3019 1.398 . S
C3020 C3021 1.391 . S
C3021 H3009 0.950 . S
C3021 C3017 1.393 . S
C3021 C3020 1.391 . S
C3022 H3012 0.950 . S
C3022 C3023 1.386 . S
C3022 C3024 1.391 . S
C3023 C3022 1.386 . S
C3023 C3027 1.393 . S
C3024 H3013 0.950 . S
C3024 C3022 1.391 . S
C3024 C3025 1.400 . S
C3025 C3019 1.491 . S
C3025 C3024 1.400 . S
C3025 C3026 1.398 . S
C3026 H3014 0.950 . S
C3026 C3025 1.398 . S
C3026 C3027 1.391 . S
C3027 H3015 0.950 . S
C3027 C3023 1.393 . S
C3027 C3026 1.391 . S
H3028 C3036 0.950 . S
H3029 C3041 0.950 . S
H3030 C3038 0.950 . S
H3031 C3040 0.950 . S
H3032 C3042 0.950 . S
H3033 C3044 0.950 . S
H3034 C3046 0.950 . S
H3035 C3047 0.950 . S
C3036 H3028 0.950 . S
C3036 C3037 1.386 . S
C3036 C3038 1.391 . S
C3037 C3036 1.386 . S
C3037 C3041 1.393 . S
C3038 H3030 0.950 . S
C3038 C3036 1.391 . S
C3038 C3039 1.400 . S
C3039 C3038 1.400 . S
C3039 C3040 1.398 . S
C3039 C3045 1.491 . S
C3040 H3031 0.950 . S
C3040 C3039 1.398 . S
C3040 C3041 1.391 . S
C3041 H3029 0.950 . S
C3041 C3037 1.393 . S
C3041 C3040 1.391 . S
C3042 H3032 0.950 . S
C3042 C3043 1.386 . S
C3042 C3044 1.391 . S
C3043 C3042 1.386 . S
C3043 C3047 1.393 . S
C3044 H3033 0.950 . S
C3044 C3042 1.391 . S
C3044 C3045 1.400 . S
C3045 C3039 1.491 . S
C3045 C3044 1.400 . S
C3045 C3046 1.398 . S
C3046 H3034 0.950 . S
C3046 C3045 1.398 . S
C3046 C3047 1.391 . S
C3047 H3035 0.950 . S
C3047 C3043 1.393 . S
C3047 C3046 1.391 . S
H3048 C3056 0.950 . S
H3049 C3061 0.950 . S
H3050 C3058 0.950 . S
H3051 C3060 0.950 . S
H3052 C3062 0.965 . S
H3053 C3064 0.950 . S
H3054 C3066 0.950 . S
H3055 C3067 0.950 . S
C3056 H3048 0.950 . S
C3056 C3057 1.386 . S
C3056 C3058 1.391 . S
C3057 C3056 1.386 . S
C3057 C3061 1.393 . S
C3058 H3050 0.950 . S
C3058 C3056 1.391 . S
C3058 C3059 1.400 . S
C3059 C3058 1.400 . S
C3059 C3060 1.398 . S
C3059 C3065 1.491 . S
C3060 H3051 0.950 . S
C3060 C3059 1.398 . S
C3060 C3061 1.391 . S
C3061 H3049 0.950 . S
C3061 C3057 1.393 . S
C3061 C3060 1.391 . S
C3062 H3052 0.965 . S
C3062 C3063 1.403 . S
C3062 C3064 1.391 . S
C3063 C3062 1.403 . S
C3063 C3067 1.419 . S
C3064 H3053 0.950 . S
C3064 C3062 1.391 . S
C3064 C3065 1.400 . S
C3065 C3059 1.491 . S
C3065 C3064 1.400 . S
C3065 C3066 1.398 . S
C3066 H3054 0.950 . S
C3066 C3065 1.398 . S
C3066 C3067 1.391 . S
C3067 H3055 0.950 . S
C3067 C3063 1.419 . S
C3067 C3066 1.391 . S
H3068 C3076 0.950 . S
H3069 C3081 0.950 . S
H3070 C3078 0.950 . S
H3071 C3080 0.950 . S
H3072 C3082 0.950 . S
H3073 C3084 0.950 . S
H3074 C3086 0.950 . S
H3075 C3087 0.950 . S
C3076 H3068 0.950 . S
C3076 C3077 1.386 . S
C3076 C3078 1.391 . S
C3077 C3076 1.386 . S
C3077 C3081 1.393 . S
C3078 H3070 0.950 . S
C3078 C3076 1.391 . S
C3078 C3079 1.400 . S
C3079 C3078 1.400 . S
C3079 C3080 1.398 . S
C3079 C3085 1.491 . S
C3080 H3071 0.950 . S
C3080 C3079 1.398 . S
C3080 C3081 1.391 . S
C3081 H3069 0.950 . S
C3081 C3077 1.393 . S
C3081 C3080 1.391 . S
C3082 H3072 0.950 . S
C3082 C3083 1.386 . S
C3082 C3084 1.391 . S
C3083 C3082 1.386 . S
C3083 C3087 1.393 . S
C3084 H3073 0.950 . S
C3084 C3082 1.391 . S
C3084 C3085 1.400 . S
C3085 C3079 1.491 . S
C3085 C3084 1.400 . S
C3085 C3086 1.398 . S
C3086 H3074 0.950 . S
C3086 C3085 1.398 . S
C3086 C3087 1.391 . S
C3087 H3075 0.950 . S
C3087 C3083 1.393 . S
C3087 C3086 1.391 . S
H3088 C3096 0.950 . S
H3089 C3101 0.950 . S
H3090 C3098 0.950 . S
H3091 C3100 0.950 . S
H3092 C3102 0.950 . S
H3093 C3104 0.950 . S
H3094 C3106 0.950 . S
H3095 C3107 0.950 . S
C3096 H3088 0.950 . S
C3096 C3097 1.386 . S
C3096 C3098 1.391 . S
C3097 C3096 1.386 . S
C3097 C3101 1.393 . S
C3098 H3090 0.950 . S
C3098 C3096 1.391 . S
C3098 C3099 1.400 . S
C3099 C3098 1.400 . S
C3099 C3100 1.398 . S
C3099 C3105 1.491 . S
C3100 H3091 0.950 . S
C3100 C3099 1.398 . S
C3100 C3101 1.391 . S
C3101 H3089 0.950 . S
C3101 C3097 1.393 . S
C3101 C3100 1.391 . S
C3102 H3092 0.950 . S
C3102 C3103 1.386 . S
C3102 C3104 1.391 . S
C3103 C3102 1.386 . S
C3103 C3107 1.393 . S
C3104 H3093 0.950 . S
C3104 C3102 1.391 . S
C3104 C3105 1.400 . S
C3105 C3099 1.491 . S
C3105 C3104 1.400 . S
C3105 C3106 1.398 . S
C3106 H3094 0.950 . S
C3106 C3105 1.398 . S
C3106 C3107 1.391 . S
C3107 H3095 0.950 . S
C3107 C3103 1.393 . S
C3107 C3106 1.391 . S
H3108 C3116 0.950 . S
H3109 C3121 0.950 . S
H3110 C3118 0.950 . S
H3111 C3120 0.950 . S
H3112 C3122 0.950 . S
H3113 C3124 0.950 . S
H3114 C3126 0.950 . S
H3115 C3127 0.950 . S
C3116 H3108 0.950 . S
C3116 C3117 1.386 . S
C3116 C3118 1.391 . S
C3117 C3116 1.386 . S
C3117 C3121 1.393 . S
C3118 H3110 0.950 . S
C3118 C3116 1.391 . S
C3118 C3119 1.400 . S
C3119 C3118 1.400 . S
C3119 C3120 1.398 . S
C3119 C3125 1.491 . S
C3120 H3111 0.950 . S
C3120 C3119 1.398 . S
C3120 C3121 1.391 . S
C3121 H3109 0.950 . S
C3121 C3117 1.393 . S
C3121 C3120 1.391 . S
C3122 H3112 0.950 . S
C3122 C3123 1.386 . S
C3122 C3124 1.391 . S
C3123 C3122 1.386 . S
C3123 C3127 1.393 . S
C3124 H3113 0.950 . S
C3124 C3122 1.391 . S
C3124 C3125 1.400 . S
C3125 C3119 1.491 . S
C3125 C3124 1.400 . S
C3125 C3126 1.398 . S
C3126 H3114 0.950 . S
C3126 C3125 1.398 . S
C3126 C3127 1.391 . S
C3127 H3115 0.950 . S
C3127 C3123 1.393 . S
C3127 C3126 1.391 . S
H3128 C3136 0.950 . S
H3129 C3141 0.950 . S
H3130 C3138 0.950 . S
H3131 C3140 0.950 . S
H3132 C3142 0.950 . S
H3133 C3144 0.950 . S
H3134 C3146 0.950 . S
H3135 C3147 0.950 . S
C3136 H3128 0.950 . S
C3136 C3137 1.386 . S
C3136 C3138 1.391 . S
C3137 C3136 1.386 . S
C3137 C3141 1.393 . S
C3138 H3130 0.950 . S
C3138 C3136 1.391 . S
C3138 C3139 1.400 . S
C3139 C3138 1.400 . S
C3139 C3140 1.398 . S
C3139 C3145 1.491 . S
C3140 H3131 0.950 . S
C3140 C3139 1.398 . S
C3140 C3141 1.391 . S
C3141 H3129 0.950 . S
C3141 C3137 1.393 . S
C3141 C3140 1.391 . S
C3142 H3132 0.950 . S
C3142 C3143 1.386 . S
C3142 C3144 1.391 . S
C3143 C3142 1.386 . S
C3143 C3147 1.393 . S
C3144 H3133 0.950 . S
C3144 C3142 1.391 . S
C3144 C3145 1.400 . S
C3145 C3139 1.491 . S
C3145 C3144 1.400 . S
C3145 C3146 1.398 . S
C3146 H3134 0.950 . S
C3146 C3145 1.398 . S
C3146 C3147 1.391 . S
C3147 H3135 0.950 . S
C3147 C3143 1.393 . S
C3147 C3146 1.391 . S
H3148 C3156 0.950 . S
H3149 C3161 0.950 . S
H3150 C3158 0.950 . S
H3151 C3160 0.950 . S
H3152 C3162 0.950 . S
H3153 C3164 0.950 . S
H3154 C3166 0.950 . S
H3155 C3167 0.950 . S
C3156 H3148 0.950 . S
C3156 C3157 1.386 . S
C3156 C3158 1.391 . S
C3157 C3156 1.386 . S
C3157 C3161 1.393 . S
C3158 H3150 0.950 . S
C3158 C3156 1.391 . S
C3158 C3159 1.400 . S
C3159 C3158 1.400 . S
C3159 C3160 1.398 . S
C3159 C3165 1.491 . S
C3160 H3151 0.950 . S
C3160 C3159 1.398 . S
C3160 C3161 1.391 . S
C3161 H3149 0.950 . S
C3161 C3157 1.393 . S
C3161 C3160 1.391 . S
C3162 H3152 0.950 . S
C3162 C3163 1.386 . S
C3162 C3164 1.391 . S
C3163 C3162 1.386 . S
C3163 C3167 1.393 . S
C3164 H3153 0.950 . S
C3164 C3162 1.391 . S
C3164 C3165 1.400 . S
C3165 C3159 1.491 . S
C3165 C3164 1.400 . S
C3165 C3166 1.398 . S
C3166 H3154 0.950 . S
C3166 C3165 1.398 . S
C3166 C3167 1.391 . S
C3167 H3155 0.950 . S
C3167 C3163 1.393 . S
C3167 C3166 1.391 . S
H3168 C3176 0.950 . S
H3169 C3181 0.950 . S
H3170 C3178 0.950 . S
H3171 C3180 0.950 . S
H3172 C3182 0.950 . S
H3173 C3184 0.950 . S
H3174 C3186 0.950 . S
H3175 C3187 0.950 . S
C3176 H3168 0.950 . S
C3176 C3177 1.386 . S
C3176 C3178 1.391 . S
C3177 C3176 1.386 . S
C3177 C3181 1.393 . S
C3178 H3170 0.950 . S
C3178 C3176 1.391 . S
C3178 C3179 1.400 . S
C3179 C3178 1.400 . S
C3179 C3180 1.398 . S
C3179 C3185 1.491 . S
C3180 H3171 0.950 . S
C3180 C3179 1.398 . S
C3180 C3181 1.391 . S
C3181 H3169 0.950 . S
C3181 C3177 1.393 . S
C3181 C3180 1.391 . S
C3182 H3172 0.950 . S
C3182 C3183 1.386 . S
C3182 C3184 1.391 . S
C3183 C3182 1.386 . S
C3183 C3187 1.393 . S
C3184 H3173 0.950 . S
C3184 C3182 1.391 . S
C3184 C3185 1.400 . S
C3185 C3179 1.491 . S
C3185 C3184 1.400 . S
C3185 C3186 1.398 . S
C3186 H3174 0.950 . S
C3186 C3185 1.398 . S
C3186 C3187 1.391 . S
C3187 H3175 0.950 . S
C3187 C3183 1.393 . S
C3187 C3186 1.391 . S
H3188 C3196 0.950 . S
H3189 C3201 0.950 . S
H3190 C3198 0.950 . S
H3191 C3200 0.950 . S
H3192 C3202 0.950 . S
H3193 C3204 0.950 . S
H3194 C3206 0.950 . S
H3195 C3207 0.950 . S
C3196 H3188 0.950 . S
C3196 C3197 1.386 . S
C3196 C3198 1.391 . S
C3197 C3196 1.386 . S
C3197 C3201 1.393 . S
C3198 H3190 0.950 . S
C3198 C3196 1.391 . S
C3198 C3199 1.400 . S
C3199 C3198 1.400 . S
C3199 C3200 1.398 . S
C3199 C3205 1.491 . S
C3200 H3191 0.950 . S
C3200 C3199 1.398 . S
C3200 C3201 1.391 . S
C3201 H3189 0.950 . S
C3201 C3197 1.393 . S
C3201 C3200 1.391 . S
C3202 H3192 0.950 . S
C3202 C3203 1.386 . S
C3202 C3204 1.391 . S
C3203 C3202 1.386 . S
C3203 C3207 1.393 . S
C3204 H3193 0.950 . S
C3204 C3202 1.391 . S
C3204 C3205 1.400 . S
C3205 C3199 1.491 . S
C3205 C3204 1.400 . S
C3205 C3206 1.398 . S
C3206 H3194 0.950 . S
C3206 C3205 1.398 . S
C3206 C3207 1.391 . S
C3207 H3195 0.950 . S
C3207 C3203 1.393 . S
C3207 C3206 1.391 . S
H3208 C3216 0.950 . S
H3209 C3221 0.950 . S
H3210 C3218 0.950 . S
H3211 C3220 0.950 . S
H3212 C3222 0.950 . S
H3213 C3224 0.950 . S
H3214 C3226 0.950 . S
H3215 C3227 0.950 . S
C3216 H3208 0.950 . S
C3216 C3217 1.386 . S
C3216 C3218 1.391 . S
C3217 C3216 1.386 . S
C3217 C3221 1.393 . S
C3218 H3210 0.950 . S
C3218 C3216 1.391 . S
C3218 C3219 1.400 . S
C3219 C3218 1.400 . S
C3219 C3220 1.398 . S
C3219 C3225 1.491 . S
C3220 H3211 0.950 . S
C3220 C3219 1.398 . S
C3220 C3221 1.391 . S
C3221 H3209 0.950 . S
C3221 C3217 1.393 . S
C3221 C3220 1.391 . S
C3222 H3212 0.950 . S
C3222 C3223 1.386 . S
C3222 C3224 1.391 . S
C3223 C3222 1.386 . S
C3223 C3227 1.393 . S
C3224 H3213 0.950 . S
C3224 C3222 1.391 . S
C3224 C3225 1.400 . S
C3225 C3219 1.491 . S
C3225 C3224 1.400 . S
C3225 C3226 1.398 . S
C3226 H3214 0.950 . S
C3226 C3225 1.398 . S
C3226 C3227 1.391 . S
C3227 H3215 0.950 . S
C3227 C3223 1.393 . S
C3227 C3226 1.391 . S
H3228 C3236 0.950 . S
H3229 C3241 0.950 . S
H3230 C3238 0.950 . S
H3231 C3240 0.950 . S
H3232 C3242 0.950 . S
H3233 C3244 0.950 . S
H3234 C3246 0.950 . S
H3235 C3247 0.950 . S
C3236 H3228 0.950 . S
C3236 C3237 1.386 . S
C3236 C3238 1.391 . S
C3237 C3236 1.386 . S
C3237 C3241 1.393 . S
C3238 H3230 0.950 . S
C3238 C3236 1.391 . S
C3238 C3239 1.400 . S
C3239 C3238 1.400 . S
C3239 C3240 1.398 . S
C3239 C3245 1.491 . S
C3240 H3231 0.950 . S
C3240 C3239 1.398 . S
C3240 C3241 1.391 . S
C3241 H3229 0.950 . S
C3241 C3237 1.393 . S
C3241 C3240 1.391 . S
C3242 H3232 0.950 . S
C3242 C3243 1.386 . S
C3242 C3244 1.391 . S
C3243 C3242 1.386 . S
C3243 C3247 1.393 . S
C3244 H3233 0.950 . S
C3244 C3242 1.391 . S
C3244 C3245 1.400 . S
C3245 C3239 1.491 . S
C3245 C3244 1.400 . S
C3245 C3246 1.398 . S
C3246 H3234 0.950 . S
C3246 C3245 1.398 . S
C3246 C3247 1.391 . S
C3247 H3235 0.950 . S
C3247 C3243 1.393 . S
C3247 C3246 1.391 . S
H3248 C3256 0.950 . S
H3249 C3261 0.950 . S
H3250 C3258 0.950 . S
H3251 C3260 0.950 . S
H3252 C3262 0.950 . S
H3253 C3264 0.950 . S
H3254 C3266 0.950 . S
H3255 C3267 0.950 . S
C3256 H3248 0.950 . S
C3256 C3257 1.386 . S
C3256 C3258 1.391 . S
C3257 C3256 1.386 . S
C3257 C3261 1.393 . S
C3258 H3250 0.950 . S
C3258 C3256 1.391 . S
C3258 C3259 1.400 . S
C3259 C3258 1.400 . S
C3259 C3260 1.398 . S
C3259 C3265 1.491 . S
C3260 H3251 0.950 . S
C3260 C3259 1.398 . S
C3260 C3261 1.391 . S
C3261 H3249 0.950 . S
C3261 C3257 1.393 . S
C3261 C3260 1.391 . S
C3262 H3252 0.950 . S
C3262 C3263 1.386 . S
C3262 C3264 1.391 . S
C3263 C3262 1.386 . S
C3263 C3267 1.393 . S
C3264 H3253 0.950 . S
C3264 C3262 1.391 . S
C3264 C3265 1.400 . S
C3265 C3259 1.491 . S
C3265 C3264 1.400 . S
C3265 C3266 1.398 . S
C3266 H3254 0.950 . S
C3266 C3265 1.398 . S
C3266 C3267 1.391 . S
C3267 H3255 0.950 . S
C3267 C3263 1.393 . S
C3267 C3266 1.391 . S
H3268 C3276 0.950 . S
H3269 C3281 0.950 . S
H3270 C3278 0.950 . S
H3271 C3280 0.950 . S
H3272 C3282 0.950 . S
H3273 C3284 0.950 . S
H3274 C3286 0.950 . S
H3275 C3287 0.950 . S
C3276 H3268 0.950 . S
C3276 C3277 1.386 . S
C3276 C3278 1.391 . S
C3277 C3276 1.386 . S
C3277 C3281 1.393 . S
C3278 H3270 0.950 . S
C3278 C3276 1.391 . S
C3278 C3279 1.400 . S
C3279 C3278 1.400 . S
C3279 C3280 1.398 . S
C3279 C3285 1.491 . S
C3280 H3271 0.950 . S
C3280 C3279 1.398 . S
C3280 C3281 1.391 . S
C3281 H3269 0.950 . S
C3281 C3277 1.393 . S
C3281 C3280 1.391 . S
C3282 H3272 0.950 . S
C3282 C3283 1.386 . S
C3282 C3284 1.391 . S
C3283 C3282 1.386 . S
C3283 C3287 1.393 . S
C3284 H3273 0.950 . S
C3284 C3282 1.391 . S
C3284 C3285 1.400 . S
C3285 C3279 1.491 . S
C3285 C3284 1.400 . S
C3285 C3286 1.398 . S
C3286 H3274 0.950 . S
C3286 C3285 1.398 . S
C3286 C3287 1.391 . S
C3287 H3275 0.950 . S
C3287 C3283 1.393 . S
C3287 C3286 1.391 . S
H3288 C3296 0.950 . S
H3289 C3301 0.950 . S
H3290 C3298 0.950 . S
H3291 C3300 0.950 . S
H3292 C3302 0.950 . S
H3293 C3304 0.950 . S
H3294 C3306 0.950 . S
H3295 C3307 0.950 . S
C3296 H3288 0.950 . S
C3296 C3297 1.386 . S
C3296 C3298 1.391 . S
C3297 C3296 1.386 . S
C3297 C3301 1.393 . S
C3298 H3290 0.950 . S
C3298 C3296 1.391 . S
C3298 C3299 1.400 . S
C3299 C3298 1.400 . S
C3299 C3300 1.398 . S
C3299 C3305 1.491 . S
C3300 H3291 0.950 . S
C3300 C3299 1.398 . S
C3300 C3301 1.391 . S
C3301 H3289 0.950 . S
C3301 C3297 1.393 . S
C3301 C3300 1.391 . S
C3302 H3292 0.950 . S
C3302 C3303 1.386 . S
C3302 C3304 1.391 . S
C3303 C3302 1.386 . S
C3303 C3307 1.393 . S
C3304 H3293 0.950 . S
C3304 C3302 1.391 . S
C3304 C3305 1.400 . S
C3305 C3299 1.491 . S
C3305 C3304 1.400 . S
C3305 C3306 1.398 . S
C3306 H3294 0.950 . S
C3306 C3305 1.398 . S
C3306 C3307 1.391 . S
C3307 H3295 0.950 . S
C3307 C3303 1.393 . S
C3307 C3306 1.391 . S
H3308 C3316 0.950 . S
H3309 C3321 0.950 . S
H3310 C3318 0.950 . S
H3311 C3320 0.950 . S
H3312 C3322 0.950 . S
H3313 C3324 0.950 . S
H3314 C3326 0.950 . S
H3315 C3327 0.950 . S
C3316 H3308 0.950 . S
C3316 C3317 1.386 . S
C3316 C3318 1.391 . S
C3317 C3316 1.386 . S
C3317 C3321 1.393 . S
C3318 H3310 0.950 . S
C3318 C3316 1.391 . S
C3318 C3319 1.400 . S
C3319 C3318 1.400 . S
C3319 C3320 1.398 . S
C3319 C3325 1.491 . S
C3320 H3311 0.950 . S
C3320 C3319 1.398 . S
C3320 C3321 1.391 . S
C3321 H3309 0.950 . S
C3321 C3317 1.393 . S
C3321 C3320 1.391 . S
C3322 H3312 0.950 . S
C3322 C3323 1.386 . S
C3322 C3324 1.391 . S
C3323 C3322 1.386 . S
C3323 C3327 1.393 . S
C3324 H3313 0.950 . S
C3324 C3322 1.391 . S
C3324 C3325 1.400 . S
C3325 C3319 1.491 . S
C3325 C3324 1.400 . S
C3325 C3326 1.398 . S
C3326 H3314 0.950 . S
C3326 C3325 1.398 . S
C3326 C3327 1.391 . S
C3327 H3315 0.950 . S
C3327 C3323 1.393 . S
C3327 C3326 1.391 . S
H3328 C3336 0.950 . S
H3329 C3341 0.950 . S
H3330 C3338 0.950 . S
H3331 C3340 0.950 . S
H3332 C3342 0.950 . S
H3333 C3344 0.950 . S
H3334 C3346 0.950 . S
H3335 C3347 0.950 . S
C3336 H3328 0.950 . S
C3336 C3337 1.386 . S
C3336 C3338 1.391 . S
C3337 C3336 1.386 . S
C3337 C3341 1.393 . S
C3338 H3330 0.950 . S
C3338 C3336 1.391 . S
C3338 C3339 1.400 . S
C3339 C3338 1.400 . S
C3339 C3340 1.398 . S
C3339 C3345 1.491 . S
C3340 H3331 0.950 . S
C3340 C3339 1.398 . S
C3340 C3341 1.391 . S
C3341 H3329 0.950 . S
C3341 C3337 1.393 . S
C3341 C3340 1.391 . S
C3342 H3332 0.950 . S
C3342 C3343 1.386 . S
C3342 C3344 1.391 . S
C3343 C3342 1.386 . S
C3343 C3347 1.393 . S
C3344 H3333 0.950 . S
C3344 C3342 1.391 . S
C3344 C3345 1.400 . S
C3345 C3339 1.491 . S
C3345 C3344 1.400 . S
C3345 C3346 1.398 . S
C3346 H3334 0.950 . S
C3346 C3345 1.398 . S
C3346 C3347 1.391 . S
C3347 H3335 0.950 . S
C3347 C3343 1.393 . S
C3347 C3346 1.391 . S
H3348 C3356 0.950 . S
H3349 C3361 0.950 . S
H3350 C3358 0.950 . S
H3351 C3360 0.950 . S
H3352 C3362 0.950 . S
H3353 C3364 0.950 . S
H3354 C3366 0.950 . S
H3355 C3367 0.950 . S
C3356 H3348 0.950 . S
C3356 C3357 1.386 . S
C3356 C3358 1.391 . S
C3357 C3356 1.386 . S
C3357 C3361 1.393 . S
C3358 H3350 0.950 . S
C3358 C3356 1.391 . S
C3358 C3359 1.400 . S
C3359 C3358 1.400 . S
C3359 C3360 1.398 . S
C3359 C3365 1.491 . S
C3360 H3351 0.950 . S
C3360 C3359 1.398 . S
C3360 C3361 1.391 . S
C3361 H3349 0.950 . S
C3361 C3357 1.393 . S
C3361 C3360 1.391 . S
C3362 H3352 0.950 . S
C3362 C3363 1.386 . S
C3362 C3364 1.391 . S
C3363 C3362 1.386 . S
C3363 C3367 1.393 . S
C3364 H3353 0.950 . S
C3364 C3362 1.391 . S
C3364 C3365 1.400 . S
C3365 C3359 1.491 . S
C3365 C3364 1.400 . S
C3365 C3366 1.398 . S
C3366 H3354 0.950 . S
C3366 C3365 1.398 . S
C3366 C3367 1.391 . S
C3367 H3355 0.950 . S
C3367 C3363 1.393 . S
C3367 C3366 1.391 . S
H3368 C3376 0.950 . S
H3369 C3381 0.950 . S
H3370 C3378 0.950 . S
H3371 C3380 0.950 . S
H3372 C3382 0.950 . S
H3373 C3384 0.950 . S
H3374 C3386 0.950 . S
H3375 C3387 0.950 . S
C3376 H3368 0.950 . S
C3376 C3377 1.386 . S
C3376 C3378 1.391 . S
C3377 C3376 1.386 . S
C3377 C3381 1.393 . S
C3378 H3370 0.950 . S
C3378 C3376 1.391 . S
C3378 C3379 1.400 . S
C3379 C3378 1.400 . S
C3379 C3380 1.398 . S
C3379 C3385 1.491 . S
C3380 H3371 0.950 . S
C3380 C3379 1.398 . S
C3380 C3381 1.391 . S
C3381 H3369 0.950 . S
C3381 C3377 1.393 . S
C3381 C3380 1.391 . S
C3382 H3372 0.950 . S
C3382 C3383 1.386 . S
C3382 C3384 1.391 . S
C3383 C3382 1.386 . S
C3383 C3387 1.393 . S
C3384 H3373 0.950 . S
C3384 C3382 1.391 . S
C3384 C3385 1.400 . S
C3385 C3379 1.491 . S
C3385 C3384 1.400 . S
C3385 C3386 1.398 . S
C3386 H3374 0.950 . S
C3386 C3385 1.398 . S
C3386 C3387 1.391 . S
C3387 H3375 0.950 . S
C3387 C3383 1.393 . S
C3387 C3386 1.391 . S
H3388 C3396 0.950 . S
H3389 C3401 0.950 . S
H3390 C3398 0.950 . S
H3391 C3400 0.950 . S
H3392 C3402 0.950 . S
H3393 C3404 0.950 . S
H3394 C3406 0.950 . S
H3395 C3407 0.950 . S
C3396 H3388 0.950 . S
C3396 C3397 1.386 . S
C3396 C3398 1.391 . S
C3397 C3396 1.386 . S
C3397 C3401 1.393 . S
C3398 H3390 0.950 . S
C3398 C3396 1.391 . S
C3398 C3399 1.400 . S
C3399 C3398 1.400 . S
C3399 C3400 1.398 . S
C3399 C3405 1.491 . S
C3400 H3391 0.950 . S
C3400 C3399 1.398 . S
C3400 C3401 1.391 . S
C3401 H3389 0.950 . S
C3401 C3397 1.393 . S
C3401 C3400 1.391 . S
C3402 H3392 0.950 . S
C3402 C3403 1.386 . S
C3402 C3404 1.391 . S
C3403 C3402 1.386 . S
C3403 C3407 1.393 . S
C3404 H3393 0.950 . S
C3404 C3402 1.391 . S
C3404 C3405 1.400 . S
C3405 C3399 1.491 . S
C3405 C3404 1.400 . S
C3405 C3406 1.398 . S
C3406 H3394 0.950 . S
C3406 C3405 1.398 . S
C3406 C3407 1.391 . S
C3407 H3395 0.950 . S
C3407 C3403 1.393 . S
C3407 C3406 1.391 . S
H3408 C3416 0.950 . S
H3409 C3421 0.950 . S
H3410 C3418 0.950 . S
H3411 C3420 0.950 . S
H3412 C3422 0.950 . S
H3413 C3424 0.950 . S
H3414 C3426 0.950 . S
H3415 C3427 0.950 . S
C3416 H3408 0.950 . S
C3416 C3417 1.386 . S
C3416 C3418 1.391 . S
C3417 C3416 1.386 . S
C3417 C3421 1.393 . S
C3418 H3410 0.950 . S
C3418 C3416 1.391 . S
C3418 C3419 1.400 . S
C3419 C3418 1.400 . S
C3419 C3420 1.398 . S
C3419 C3425 1.491 . S
C3420 H3411 0.950 . S
C3420 C3419 1.398 . S
C3420 C3421 1.391 . S
C3421 H3409 0.950 . S
C3421 C3417 1.393 . S
C3421 C3420 1.391 . S
C3422 H3412 0.950 . S
C3422 C3423 1.386 . S
C3422 C3424 1.391 . S
C3423 C3422 1.386 . S
C3423 C3427 1.393 . S
C3424 H3413 0.950 . S
C3424 C3422 1.391 . S
C3424 C3425 1.400 . S
C3425 C3419 1.491 . S
C3425 C3424 1.400 . S
C3425 C3426 1.398 . S
C3426 H3414 0.950 . S
C3426 C3425 1.398 . S
C3426 C3427 1.391 . S
C3427 H3415 0.950 . S
C3427 C3423 1.393 . S
C3427 C3426 1.391 . S
H3428 C3436 0.950 . S
H3429 C3441 0.950 . S
H3430 C3438 0.950 . S
H3431 C3440 0.950 . S
H3432 C3442 0.950 . S
H3433 C3444 0.950 . S
H3434 C3446 0.950 . S
H3435 C3447 0.950 . S
C3436 H3428 0.950 . S
C3436 C3437 1.386 . S
C3436 C3438 1.391 . S
C3437 C3436 1.386 . S
C3437 C3441 1.393 . S
C3438 H3430 0.950 . S
C3438 C3436 1.391 . S
C3438 C3439 1.400 . S
C3439 C3438 1.400 . S
C3439 C3440 1.398 . S
C3439 C3445 1.491 . S
C3440 H3431 0.950 . S
C3440 C3439 1.398 . S
C3440 C3441 1.391 . S
C3441 H3429 0.950 . S
C3441 C3437 1.393 . S
C3441 C3440 1.391 . S
C3442 H3432 0.950 . S
C3442 C3443 1.386 . S
C3442 C3444 1.391 . S
C3443 C3442 1.386 . S
C3443 C3447 1.393 . S
C3444 H3433 0.950 . S
C3444 C3442 1.391 . S
C3444 C3445 1.400 . S
C3445 C3439 1.491 . S
C3445 C3444 1.400 . S
C3445 C3446 1.398 . S
C3446 H3434 0.950 . S
C3446 C3445 1.398 . S
C3446 C3447 1.391 . S
C3447 H3435 0.950 . S
C3447 C3443 1.393 . S
C3447 C3446 1.391 . S
H3448 C3456 0.950 . S
H3449 C3461 0.950 . S
H3450 C3458 0.950 . S
H3451 C3460 0.950 . S
H3452 C3462 0.950 . S
H3453 C3464 0.950 . S
H3454 C3466 0.950 . S
H3455 C3467 0.950 . S
C3456 H3448 0.950 . S
C3456 C3457 1.386 . S
C3456 C3458 1.391 . S
C3457 C3456 1.386 . S
C3457 C3461 1.393 . S
C3458 H3450 0.950 . S
C3458 C3456 1.391 . S
C3458 C3459 1.400 . S
C3459 C3458 1.400 . S
C3459 C3460 1.398 . S
C3459 C3465 1.491 . S
C3460 H3451 0.950 . S
C3460 C3459 1.398 . S
C3460 C3461 1.391 . S
C3461 H3449 0.950 . S
C3461 C3457 1.393 . S
C3461 C3460 1.391 . S
C3462 H3452 0.950 . S
C3462 C3463 1.386 . S
C3462 C3464 1.391 . S
C3463 C3462 1.386 . S
C3463 C3467 1.393 . S
C3464 H3453 0.950 . S
C3464 C3462 1.391 . S
C3464 C3465 1.400 . S
C3465 C3459 1.491 . S
C3465 C3464 1.400 . S
C3465 C3466 1.398 . S
C3466 H3454 0.950 . S
C3466 C3465 1.398 . S
C3466 C3467 1.391 . S
C3467 H3455 0.950 . S
C3467 C3463 1.393 . S
C3467 C3466 1.391 . S
H3468 C3476 0.950 . S
H3469 C3481 0.950 . S
H3470 C3478 0.950 . S
H3471 C3480 0.950 . S
H3472 C3482 0.950 . S
H3473 C3484 0.950 . S
H3474 C3486 0.950 . S
H3475 C3487 0.950 . S
C3476 H3468 0.950 . S
C3476 C3477 1.386 . S
C3476 C3478 1.391 . S
C3477 C3476 1.386 . S
C3477 C3481 1.393 . S
C3478 H3470 0.950 . S
C3478 C3476 1.391 . S
C3478 C3479 1.400 . S
C3479 C3478 1.400 . S
C3479 C3480 1.398 . S
C3479 C3485 1.491 . S
C3480 H3471 0.950 . S
C3480 C3479 1.398 . S
C3480 C3481 1.391 . S
C3481 H3469 0.950 . S
C3481 C3477 1.393 . S
C3481 C3480 1.391 . S
C3482 H3472 0.950 . S
C3482 C3483 1.386 . S
C3482 C3484 1.391 . S
C3483 C3482 1.386 . S
C3483 C3487 1.393 . S
C3484 H3473 0.950 . S
C3484 C3482 1.391 . S
C3484 C3485 1.400 . S
C3485 C3479 1.491 . S
C3485 C3484 1.400 . S
C3485 C3486 1.398 . S
C3486 H3474 0.950 . S
C3486 C3485 1.398 . S
C3486 C3487 1.391 . S
C3487 H3475 0.950 . S
C3487 C3483 1.393 . S
C3487 C3486 1.391 . S
H3488 C3496 0.950 . S
H3489 C3501 0.950 . S
H3490 C3498 0.950 . S
H3491 C3500 0.950 . S
H3492 C3502 0.950 . S
H3493 C3504 0.950 . S
H3494 C3506 0.950 . S
H3495 C3507 0.950 . S
C3496 H3488 0.950 . S
C3496 C3497 1.386 . S
C3496 C3498 1.391 . S
C3497 C3496 1.386 . S
C3497 C3501 1.393 . S
C3498 H3490 0.950 . S
C3498 C3496 1.391 . S
C3498 C3499 1.400 . S
C3499 C3498 1.400 . S
C3499 C3500 1.398 . S
C3499 C3505 1.491 . S
C3500 H3491 0.950 . S
C3500 C3499 1.398 . S
C3500 C3501 1.391 . S
C3501 H3489 0.950 . S
C3501 C3497 1.393 . S
C3501 C3500 1.391 . S
C3502 H3492 0.950 . S
C3502 C3503 1.386 . S
C3502 C3504 1.391 . S
C3503 C3502 1.386 . S
C3503 C3507 1.393 . S
C3504 H3493 0.950 . S
C3504 C3502 1.391 . S
C3504 C3505 1.400 . S
C3505 C3499 1.491 . S
C3505 C3504 1.400 . S
C3505 C3506 1.398 . S
C3506 H3494 0.950 . S
C3506 C3505 1.398 . S
C3506 C3507 1.391 . S
C3507 H3495 0.950 . S
C3507 C3503 1.393 . S
C3507 C3506 1.391 . S
H3508 C3516 0.950 . S
H3509 C3521 0.950 . S
H3510 C3518 0.950 . S
H3511 C3520 0.950 . S
H3512 C3522 0.950 . S
H3513 C3524 0.950 . S
H3514 C3526 0.950 . S
H3515 C3527 0.950 . S
C3516 H3508 0.950 . S
C3516 C3517 1.386 . S
C3516 C3518 1.391 . S
C3517 C3516 1.386 . S
C3517 C3521 1.393 . S
C3518 H3510 0.950 . S
C3518 C3516 1.391 . S
C3518 C3519 1.400 . S
C3519 C3518 1.400 . S
C3519 C3520 1.398 . S
C3519 C3525 1.491 . S
C3520 H3511 0.950 . S
C3520 C3519 1.398 . S
C3520 C3521 1.391 . S
C3521 H3509 0.950 . S
C3521 C3517 1.393 . S
C3521 C3520 1.391 . S
C3522 H3512 0.950 . S
C3522 C3523 1.386 . S
C3522 C3524 1.391 . S
C3523 C3522 1.386 . S
C3523 C3527 1.393 . S
C3524 H3513 0.950 . S
C3524 C3522 1.391 . S
C3524 C3525 1.400 . S
C3525 C3519 1.491 . S
C3525 C3524 1.400 . S
C3525 C3526 1.398 . S
C3526 H3514 0.950 . S
C3526 C3525 1.398 . S
C3526 C3527 1.391 . S
C3527 H3515 0.950 . S
C3527 C3523 1.393 . S
C3527 C3526 1.391 . S
H3528 C3536 0.950 . S
H3529 C3541 0.950 . S
H3530 C3538 0.950 . S
H3531 C3540 0.950 . S
H3532 C3542 0.950 . S
H3533 C3544 0.950 . S
H3534 C3546 0.950 . S
H3535 C3547 0.950 . S
C3536 H3528 0.950 . S
C3536 C3537 1.386 . S
C3536 C3538 1.391 . S
C3537 C3536 1.386 . S
C3537 C3541 1.393 . S
C3538 H3530 0.950 . S
C3538 C3536 1.391 . S
C3538 C3539 1.400 . S
C3539 C3538 1.400 . S
C3539 C3540 1.398 . S
C3539 C3545 1.491 . S
C3540 H3531 0.950 . S
C3540 C3539 1.398 . S
C3540 C3541 1.391 . S
C3541 H3529 0.950 . S
C3541 C3537 1.393 . S
C3541 C3540 1.391 . S
C3542 H3532 0.950 . S
C3542 C3543 1.386 . S
C3542 C3544 1.391 . S
C3543 C3542 1.386 . S
C3543 C3547 1.393 . S
C3544 H3533 0.950 . S
C3544 C3542 1.391 . S
C3544 C3545 1.400 . S
C3545 C3539 1.491 . S
C3545 C3544 1.400 . S
C3545 C3546 1.398 . S
C3546 H3534 0.950 . S
C3546 C3545 1.398 . S
C3546 C3547 1.391 . S
C3547 H3535 0.950 . S
C3547 C3543 1.393 . S
C3547 C3546 1.391 . S
H3548 C3556 0.950 . S
H3549 C3561 0.950 . S
H3550 C3558 0.950 . S
H3551 C3560 0.950 . S
H3552 C3562 0.950 . S
H3553 C3564 0.950 . S
H3554 C3566 0.950 . S
H3555 C3567 0.950 . S
C3556 H3548 0.950 . S
C3556 C3557 1.386 . S
C3556 C3558 1.391 . S
C3557 C3556 1.386 . S
C3557 C3561 1.393 . S
C3558 H3550 0.950 . S
C3558 C3556 1.391 . S
C3558 C3559 1.400 . S
C3559 C3558 1.400 . S
C3559 C3560 1.398 . S
C3559 C3565 1.491 . S
C3560 H3551 0.950 . S
C3560 C3559 1.398 . S
C3560 C3561 1.391 . S
C3561 H3549 0.950 . S
C3561 C3557 1.393 . S
C3561 C3560 1.391 . S
C3562 H3552 0.950 . S
C3562 C3563 1.386 . S
C3562 C3564 1.391 . S
C3563 C3562 1.386 . S
C3563 C3567 1.393 . S
C3564 H3553 0.950 . S
C3564 C3562 1.391 . S
C3564 C3565 1.400 . S
C3565 C3559 1.491 . S
C3565 C3564 1.400 . S
C3565 C3566 1.398 . S
C3566 H3554 0.950 . S
C3566 C3565 1.398 . S
C3566 C3567 1.391 . S
C3567 H3555 0.950 . S
C3567 C3563 1.393 . S
C3567 C3566 1.391 . S
H3568 C3576 0.950 . S
H3569 C3581 0.950 . S
H3570 C3578 0.950 . S
H3571 C3580 0.950 . S
H3572 C3582 0.950 . S
H3573 C3584 0.950 . S
H3574 C3586 0.950 . S
H3575 C3587 0.950 . S
C3576 H3568 0.950 . S
C3576 C3577 1.386 . S
C3576 C3578 1.391 . S
C3577 C3576 1.386 . S
C3577 C3581 1.393 . S
C3578 H3570 0.950 . S
C3578 C3576 1.391 . S
C3578 C3579 1.400 . S
C3579 C3578 1.400 . S
C3579 C3580 1.398 . S
C3579 C3585 1.491 . S
C3580 H3571 0.950 . S
C3580 C3579 1.398 . S
C3580 C3581 1.391 . S
C3581 H3569 0.950 . S
C3581 C3577 1.393 . S
C3581 C3580 1.391 . S
C3582 H3572 0.950 . S
C3582 C3583 1.386 . S
C3582 C3584 1.391 . S
C3583 C3582 1.386 . S
C3583 C3587 1.393 . S
C3584 H3573 0.950 . S
C3584 C3582 1.391 . S
C3584 C3585 1.400 . S
C3585 C3579 1.491 . S
C3585 C3584 1.400 . S
C3585 C3586 1.398 . S
C3586 H3574 0.950 . S
C3586 C3585 1.398 . S
C3586 C3587 1.391 . S
C3587 H3575 0.950 . S
C3587 C3583 1.393 . S
C3587 C3586 1.391 . S
H3588 C3596 0.950 . S
H3589 C3601 0.950 . S
H3590 C3598 0.950 . S
H3591 C3600 0.950 . S
H3592 C3602 0.950 . S
H3593 C3604 0.950 . S
H3594 C3606 0.950 . S
H3595 C3607 0.950 . S
C3596 H3588 0.950 . S
C3596 C3597 1.386 . S
C3596 C3598 1.391 . S
C3597 C3596 1.386 . S
C3597 C3601 1.393 . S
C3598 H3590 0.950 . S
C3598 C3596 1.391 . S
C3598 C3599 1.400 . S
C3599 C3598 1.400 . S
C3599 C3600 1.398 . S
C3599 C3605 1.491 . S
C3600 H3591 0.950 . S
C3600 C3599 1.398 . S
C3600 C3601 1.391 . S
C3601 H3589 0.950 . S
C3601 C3597 1.393 . S
C3601 C3600 1.391 . S
C3602 H3592 0.950 . S
C3602 C3603 1.386 . S
C3602 C3604 1.391 . S
C3603 C3602 1.386 . S
C3603 C3607 1.393 . S
C3604 H3593 0.950 . S
C3604 C3602 1.391 . S
C3604 C3605 1.400 . S
C3605 C3599 1.491 . S
C3605 C3604 1.400 . S
C3605 C3606 1.398 . S
C3606 H3594 0.950 . S
C3606 C3605 1.398 . S
C3606 C3607 1.391 . S
C3607 H3595 0.950 . S
C3607 C3603 1.393 . S
C3607 C3606 1.391 . S
H3608 C3616 0.950 . S
H3609 C3621 0.950 . S
H3610 C3618 0.950 . S
H3611 C3620 0.950 . S
H3612 C3622 0.950 . S
H3613 C3624 0.950 . S
H3614 C3626 0.950 . S
H3615 C3627 0.950 . S
C3616 H3608 0.950 . S
C3616 C3617 1.386 . S
C3616 C3618 1.391 . S
C3617 C3616 1.386 . S
C3617 C3621 1.393 . S
C3618 H3610 0.950 . S
C3618 C3616 1.391 . S
C3618 C3619 1.400 . S
C3619 C3618 1.400 . S
C3619 C3620 1.398 . S
C3619 C3625 1.491 . S
C3620 H3611 0.950 . S
C3620 C3619 1.398 . S
C3620 C3621 1.391 . S
C3621 H3609 0.950 . S
C3621 C3617 1.393 . S
C3621 C3620 1.391 . S
C3622 H3612 0.950 . S
C3622 C3623 1.386 . S
C3622 C3624 1.391 . S
C3623 C3622 1.386 . S
C3623 C3627 1.393 . S
C3624 H3613 0.950 . S
C3624 C3622 1.391 . S
C3624 C3625 1.400 . S
C3625 C3619 1.491 . S
C3625 C3624 1.400 . S
C3625 C3626 1.398 . S
C3626 H3614 0.950 . S
C3626 C3625 1.398 . S
C3626 C3627 1.391 . S
C3627 H3615 0.950 . S
C3627 C3623 1.393 . S
C3627 C3626 1.391 . S
H3628 C3636 0.950 . S
H3629 C3641 0.950 . S
H3630 C3638 0.950 . S
H3631 C3640 0.950 . S
H3632 C3642 0.950 . S
H3633 C3644 0.950 . S
H3634 C3646 0.950 . S
H3635 C3647 0.950 . S
C3636 H3628 0.950 . S
C3636 C3637 1.386 . S
C3636 C3638 1.391 . S
C3637 C3636 1.386 . S
C3637 C3641 1.393 . S
C3638 H3630 0.950 . S
C3638 C3636 1.391 . S
C3638 C3639 1.400 . S
C3639 C3638 1.400 . S
C3639 C3640 1.398 . S
C3639 C3645 1.491 . S
C3640 H3631 0.950 . S
C3640 C3639 1.398 . S
C3640 C3641 1.391 . S
C3641 H3629 0.950 . S
C3641 C3637 1.393 . S
C3641 C3640 1.391 . S
C3642 H3632 0.950 . S
C3642 C3643 1.386 . S
C3642 C3644 1.391 . S
C3643 C3642 1.386 . S
C3643 C3647 1.393 . S
C3644 H3633 0.950 . S
C3644 C3642 1.391 . S
C3644 C3645 1.400 . S
C3645 C3639 1.491 . S
C3645 C3644 1.400 . S
C3645 C3646 1.398 . S
C3646 H3634 0.950 . S
C3646 C3645 1.398 . S
C3646 C3647 1.391 . S
C3647 H3635 0.950 . S
C3647 C3643 1.393 . S
C3647 C3646 1.391 . S
H3648 C3656 0.950 . S
H3649 C3661 0.950 . S
H3650 C3658 0.950 . S
H3651 C3660 0.950 . S
H3652 C3662 0.950 . S
H3653 C3664 0.950 . S
H3654 C3666 0.950 . S
H3655 C3667 0.950 . S
C3656 H3648 0.950 . S
C3656 C3657 1.386 . S
C3656 C3658 1.391 . S
C3657 C3656 1.386 . S
C3657 C3661 1.393 . S
C3658 H3650 0.950 . S
C3658 C3656 1.391 . S
C3658 C3659 1.400 . S
C3659 C3658 1.400 . S
C3659 C3660 1.398 . S
C3659 C3665 1.491 . S
C3660 H3651 0.950 . S
C3660 C3659 1.398 . S
C3660 C3661 1.391 . S
C3661 H3649 0.950 . S
C3661 C3657 1.393 . S
C3661 C3660 1.391 . S
C3662 H3652 0.950 . S
C3662 C3663 1.386 . S
C3662 C3664 1.391 . S
C3663 C3662 1.386 . S
C3663 C3667 1.393 . S
C3664 H3653 0.950 . S
C3664 C3662 1.391 . S
C3664 C3665 1.400 . S
C3665 C3659 1.491 . S
C3665 C3664 1.400 . S
C3665 C3666 1.398 . S
C3666 H3654 0.950 . S
C3666 C3665 1.398 . S
C3666 C3667 1.391 . S
C3667 H3655 0.950 . S
C3667 C3663 1.393 . S
C3667 C3666 1.391 . S
H3668 C3676 0.950 . S
H3669 C3681 0.950 . S
H3670 C3678 0.950 . S
H3671 C3680 0.950 . S
H3672 C3682 0.950 . S
H3673 C3684 0.950 . S
H3674 C3686 0.950 . S
H3675 C3687 0.950 . S
C3676 H3668 0.950 . S
C3676 C3677 1.386 . S
C3676 C3678 1.391 . S
C3677 C3676 1.386 . S
C3677 C3681 1.393 . S
C3678 H3670 0.950 . S
C3678 C3676 1.391 . S
C3678 C3679 1.400 . S
C3679 C3678 1.400 . S
C3679 C3680 1.398 . S
C3679 C3685 1.491 . S
C3680 H3671 0.950 . S
C3680 C3679 1.398 . S
C3680 C3681 1.391 . S
C3681 H3669 0.950 . S
C3681 C3677 1.393 . S
C3681 C3680 1.391 . S
C3682 H3672 0.950 . S
C3682 C3683 1.386 . S
C3682 C3684 1.391 . S
C3683 C3682 1.386 . S
C3683 C3687 1.393 . S
C3684 H3673 0.950 . S
C3684 C3682 1.391 . S
C3684 C3685 1.400 . S
C3685 C3679 1.491 . S
C3685 C3684 1.400 . S
C3685 C3686 1.398 . S
C3686 H3674 0.950 . S
C3686 C3685 1.398 . S
C3686 C3687 1.391 . S
C3687 H3675 0.950 . S
C3687 C3683 1.393 . S
C3687 C3686 1.391 . S
H3688 C3696 0.950 . S
H3689 C3701 0.950 . S
H3690 C3698 0.950 . S
H3691 C3700 0.950 . S
H3692 C3702 0.950 . S
H3693 C3704 0.950 . S
H3694 C3706 0.950 . S
H3695 C3707 0.950 . S
C3696 H3688 0.950 . S
C3696 C3697 1.386 . S
C3696 C3698 1.391 . S
C3697 C3696 1.386 . S
C3697 C3701 1.393 . S
C3698 H3690 0.950 . S
C3698 C3696 1.391 . S
C3698 C3699 1.400 . S
C3699 C3698 1.400 . S
C3699 C3700 1.398 . S
C3699 C3705 1.491 . S
C3700 H3691 0.950 . S
C3700 C3699 1.398 . S
C3700 C3701 1.391 . S
C3701 H3689 0.950 . S
C3701 C3697 1.393 . S
C3701 C3700 1.391 . S
C3702 H3692 0.950 . S
C3702 C3703 1.386 . S
C3702 C3704 1.391 . S
C3703 C3702 1.386 . S
C3703 C3707 1.393 . S
C3704 H3693 0.950 . S
C3704 C3702 1.391 . S
C3704 C3705 1.400 . S
C3705 C3699 1.491 . S
C3705 C3704 1.400 . S
C3705 C3706 1.398 . S
C3706 H3694 0.950 . S
C3706 C3705 1.398 . S
C3706 C3707 1.391 . S
C3707 H3695 0.950 . S
C3707 C3703 1.393 . S
C3707 C3706 1.391 . S
H3708 C3716 0.950 . S
H3709 C3721 0.950 . S
H3710 C3718 0.950 . S
H3711 C3720 0.950 . S
H3712 C3722 0.950 . S
H3713 C3724 0.950 . S
H3714 C3726 0.950 . S
H3715 C3727 0.950 . S
C3716 H3708 0.950 . S
C3716 C3717 1.386 . S
C3716 C3718 1.391 . S
C3717 C3716 1.386 . S
C3717 C3721 1.393 . S
C3718 H3710 0.950 . S
C3718 C3716 1.391 . S
C3718 C3719 1.400 . S
C3719 C3718 1.400 . S
C3719 C3720 1.398 . S
C3719 C3725 1.491 . S
C3720 H3711 0.950 . S
C3720 C3719 1.398 . S
C3720 C3721 1.391 . S
C3721 H3709 0.950 . S
C3721 C3717 1.393 . S
C3721 C3720 1.391 . S
C3722 H3712 0.950 . S
C3722 C3723 1.386 . S
C3722 C3724 1.391 . S
C3723 C3722 1.386 . S
C3723 C3727 1.393 . S
C3724 H3713 0.950 . S
C3724 C3722 1.391 . S
C3724 C3725 1.400 . S
C3725 C3719 1.491 . S
C3725 C3724 1.400 . S
C3725 C3726 1.398 . S
C3726 H3714 0.950 . S
C3726 C3725 1.398 . S
C3726 C3727 1.391 . S
C3727 H3715 0.950 . S
C3727 C3723 1.393 . S
C3727 C3726 1.391 . S
H3728 C3736 0.950 . S
H3729 C3741 0.950 . S
H3730 C3738 0.950 . S
H3731 C3740 0.950 . S
H3732 C3742 0.950 . S
H3733 C3744 0.950 . S
H3734 C3746 0.950 . S
H3735 C3747 0.950 . S
C3736 H3728 0.950 . S
C3736 C3737 1.386 . S
C3736 C3738 1.391 . S
C3737 C3736 1.386 . S
C3737 C3741 1.393 . S
C3738 H3730 0.950 . S
C3738 C3736 1.391 . S
C3738 C3739 1.400 . S
C3739 C3738 1.400 . S
C3739 C3740 1.398 . S
C3739 C3745 1.491 . S
C3740 H3731 0.950 . S
C3740 C3739 1.398 . S
C3740 C3741 1.391 . S
C3741 H3729 0.950 . S
C3741 C3737 1.393 . S
C3741 C3740 1.391 . S
C3742 H3732 0.950 . S
C3742 C3743 1.386 . S
C3742 C3744 1.391 . S
C3743 C3742 1.386 . S
C3743 C3747 1.393 . S
C3744 H3733 0.950 . S
C3744 C3742 1.391 . S
C3744 C3745 1.400 . S
C3745 C3739 1.491 . S
C3745 C3744 1.400 . S
C3745 C3746 1.398 . S
C3746 H3734 0.950 . S
C3746 C3745 1.398 . S
C3746 C3747 1.391 . S
C3747 H3735 0.950 . S
C3747 C3743 1.393 . S
C3747 C3746 1.391 . S
H3748 C3756 0.950 . S
H3749 C3761 0.950 . S
H3750 C3758 0.950 . S
H3751 C3760 0.950 . S
H3752 C3762 0.950 . S
H3753 C3764 0.950 . S
H3754 C3766 0.950 . S
H3755 C3767 0.950 . S
C3756 H3748 0.950 . S
C3756 C3757 1.386 . S
C3756 C3758 1.391 . S
C3757 C3756 1.386 . S
C3757 C3761 1.393 . S
C3758 H3750 0.950 . S
C3758 C3756 1.391 . S
C3758 C3759 1.400 . S
C3759 C3758 1.400 . S
C3759 C3760 1.398 . S
C3759 C3765 1.491 . S
C3760 H3751 0.950 . S
C3760 C3759 1.398 . S
C3760 C3761 1.391 . S
C3761 H3749 0.950 . S
C3761 C3757 1.393 . S
C3761 C3760 1.391 . S
C3762 H3752 0.950 . S
C3762 C3763 1.386 . S
C3762 C3764 1.391 . S
C3763 C3762 1.386 . S
C3763 C3767 1.393 . S
C3764 H3753 0.950 . S
C3764 C3762 1.391 . S
C3764 C3765 1.400 . S
C3765 C3759 1.491 . S
C3765 C3764 1.400 . S
C3765 C3766 1.398 . S
C3766 H3754 0.950 . S
C3766 C3765 1.398 . S
C3766 C3767 1.391 . S
C3767 H3755 0.950 . S
C3767 C3763 1.393 . S
C3767 C3766 1.391 . S
H3768 C3776 0.950 . S
H3769 C3781 0.950 . S
H3770 C3778 0.950 . S
H3771 C3780 0.950 . S
H3772 C3782 0.950 . S
H3773 C3784 0.950 . S
H3774 C3786 0.950 . S
H3775 C3787 0.950 . S
C3776 H3768 0.950 . S
C3776 C3777 1.386 . S
C3776 C3778 1.391 . S
C3777 C3776 1.386 . S
C3777 C3781 1.393 . S
C3778 H3770 0.950 . S
C3778 C3776 1.391 . S
C3778 C3779 1.400 . S
C3779 C3778 1.400 . S
C3779 C3780 1.398 . S
C3779 C3785 1.491 . S
C3780 H3771 0.950 . S
C3780 C3779 1.398 . S
C3780 C3781 1.391 . S
C3781 H3769 0.950 . S
C3781 C3777 1.393 . S
C3781 C3780 1.391 . S
C3782 H3772 0.950 . S
C3782 C3783 1.386 . S
C3782 C3784 1.391 . S
C3783 C3782 1.386 . S
C3783 C3787 1.393 . S
C3784 H3773 0.950 . S
C3784 C3782 1.391 . S
C3784 C3785 1.400 . S
C3785 C3779 1.491 . S
C3785 C3784 1.400 . S
C3785 C3786 1.398 . S
C3786 H3774 0.950 . S
C3786 C3785 1.398 . S
C3786 C3787 1.391 . S
C3787 H3775 0.950 . S
C3787 C3783 1.393 . S
C3787 C3786 1.391 . S
H3788 C3796 0.950 . S
H3789 C3801 0.950 . S
H3790 C3798 0.950 . S
H3791 C3800 0.950 . S
H3792 C3802 0.950 . S
H3793 C3804 0.950 . S
H3794 C3806 0.950 . S
H3795 C3807 0.950 . S
C3796 H3788 0.950 . S
C3796 C3797 1.386 . S
C3796 C3798 1.391 . S
C3797 C3796 1.386 . S
C3797 C3801 1.393 . S
C3798 H3790 0.950 . S
C3798 C3796 1.391 . S
C3798 C3799 1.400 . S
C3799 C3798 1.400 . S
C3799 C3800 1.398 . S
C3799 C3805 1.491 . S
C3800 H3791 0.950 . S
C3800 C3799 1.398 . S
C3800 C3801 1.391 . S
C3801 H3789 0.950 . S
C3801 C3797 1.393 . S
C3801 C3800 1.391 . S
C3802 H3792 0.950 . S
C3802 C3803 1.386 . S
C3802 C3804 1.391 . S
C3803 C3802 1.386 . S
C3803 C3807 1.393 . S
C3804 H3793 0.950 . S
C3804 C3802 1.391 . S
C3804 C3805 1.400 . S
C3805 C3799 1.491 . S
C3805 C3804 1.400 . S
C3805 C3806 1.398 . S
C3806 H3794 0.950 . S
C3806 C3805 1.398 . S
C3806 C3807 1.391 . S
C3807 H3795 0.950 . S
C3807 C3803 1.393 . S
C3807 C3806 1.391 . S
H3808 C3816 0.950 . S
H3809 C3821 0.950 . S
H3810 C3818 0.950 . S
H3811 C3820 0.950 . S
H3812 C3822 0.950 . S
H3813 C3824 0.950 . S
H3814 C3826 0.950 . S
H3815 C3827 0.950 . S
C3816 H3808 0.950 . S
C3816 C3817 1.386 . S
C3816 C3818 1.391 . S
C3817 C3816 1.386 . S
C3817 C3821 1.393 . S
C3818 H3810 0.950 . S
C3818 C3816 1.391 . S
C3818 C3819 1.400 . S
C3819 C3818 1.400 . S
C3819 C3820 1.398 . S
C3819 C3825 1.491 . S
C3820 H3811 0.950 . S
C3820 C3819 1.398 . S
C3820 C3821 1.391 . S
C3821 H3809 0.950 . S
C3821 C3817 1.393 . S
C3821 C3820 1.391 . S
C3822 H3812 0.950 . S
C3822 C3823 1.386 . S
C3822 C3824 1.391 . S
C3823 C3822 1.386 . S
C3823 C3827 1.393 . S
C3824 H3813 0.950 . S
C3824 C3822 1.391 . S
C3824 C3825 1.400 . S
C3825 C3819 1.491 . S
C3825 C3824 1.400 . S
C3825 C3826 1.398 . S
C3826 H3814 0.950 . S
C3826 C3825 1.398 . S
C3826 C3827 1.391 . S
C3827 H3815 0.950 . S
C3827 C3823 1.393 . S
C3827 C3826 1.391 . S
H3828 C3836 0.950 . S
H3829 C3841 0.950 . S
H3830 C3838 0.950 . S
H3831 C3840 0.950 . S
H3832 C3842 0.950 . S
H3833 C3844 0.950 . S
H3834 C3846 0.950 . S
H3835 C3847 0.950 . S
C3836 H3828 0.950 . S
C3836 C3837 1.386 . S
C3836 C3838 1.391 . S
C3837 C3836 1.386 . S
C3837 C3841 1.393 . S
C3838 H3830 0.950 . S
C3838 C3836 1.391 . S
C3838 C3839 1.400 . S
C3839 C3838 1.400 . S
C3839 C3840 1.398 . S
C3839 C3845 1.491 . S
C3840 H3831 0.950 . S
C3840 C3839 1.398 . S
C3840 C3841 1.391 . S
C3841 H3829 0.950 . S
C3841 C3837 1.393 . S
C3841 C3840 1.391 . S
C3842 H3832 0.950 . S
C3842 C3843 1.386 . S
C3842 C3844 1.391 . S
C3843 C3842 1.386 . S
C3843 C3847 1.393 . S
C3844 H3833 0.950 . S
C3844 C3842 1.391 . S
C3844 C3845 1.400 . S
C3845 C3839 1.491 . S
C3845 C3844 1.400 . S
C3845 C3846 1.398 . S
C3846 H3834 0.950 . S
C3846 C3845 1.398 . S
C3846 C3847 1.391 . S
C3847 H3835 0.950 . S
C3847 C3843 1.393 . S
C3847 C3846 1.391 . S
H3848 C3856 0.950 . S
H3849 C3861 0.950 . S
H3850 C3858 0.950 . S
H3851 C3860 0.950 . S
H3852 C3862 0.950 . S
H3853 C3864 0.950 . S
H3854 C3866 0.950 . S
H3855 C3867 0.950 . S
C3856 H3848 0.950 . S
C3856 C3857 1.386 . S
C3856 C3858 1.391 . S
C3857 C3856 1.386 . S
C3857 C3861 1.393 . S
C3858 H3850 0.950 . S
C3858 C3856 1.391 . S
C3858 C3859 1.400 . S
C3859 C3858 1.400 . S
C3859 C3860 1.398 . S
C3859 C3865 1.491 . S
C3860 H3851 0.950 . S
C3860 C3859 1.398 . S
C3860 C3861 1.391 . S
C3861 H3849 0.950 . S
C3861 C3857 1.393 . S
C3861 C3860 1.391 . S
C3862 H3852 0.950 . S
C3862 C3863 1.386 . S
C3862 C3864 1.391 . S
C3863 C3862 1.386 . S
C3863 C3867 1.393 . S
C3864 H3853 0.950 . S
C3864 C3862 1.391 . S
C3864 C3865 1.400 . S
C3865 C3859 1.491 . S
C3865 C3864 1.400 . S
C3865 C3866 1.398 . S
C3866 H3854 0.950 . S
C3866 C3865 1.398 . S
C3866 C3867 1.391 . S
C3867 H3855 0.950 . S
C3867 C3863 1.393 . S
C3867 C3866 1.391 . S
H3868 C3876 0.950 . S
H3869 C3881 0.950 . S
H3870 C3878 0.950 . S
H3871 C3880 0.950 . S
H3872 C3882 0.950 . S
H3873 C3884 0.950 . S
H3874 C3886 0.950 . S
H3875 C3887 0.950 . S
C3876 H3868 0.950 . S
C3876 C3877 1.386 . S
C3876 C3878 1.391 . S
C3877 C3876 1.386 . S
C3877 C3881 1.393 . S
C3878 H3870 0.950 . S
C3878 C3876 1.391 . S
C3878 C3879 1.400 . S
C3879 C3878 1.400 . S
C3879 C3880 1.398 . S
C3879 C3885 1.491 . S
C3880 H3871 0.950 . S
C3880 C3879 1.398 . S
C3880 C3881 1.391 . S
C3881 H3869 0.950 . S
C3881 C3877 1.393 . S
C3881 C3880 1.391 . S
C3882 H3872 0.950 . S
C3882 C3883 1.386 . S
C3882 C3884 1.391 . S
C3883 C3882 1.386 . S
C3883 C3887 1.393 . S
C3884 H3873 0.950 . S
C3884 C3882 1.391 . S
C3884 C3885 1.400 . S
C3885 C3879 1.491 . S
C3885 C3884 1.400 . S
C3885 C3886 1.398 . S
C3886 H3874 0.950 . S
C3886 C3885 1.398 . S
C3886 C3887 1.391 . S
C3887 H3875 0.950 . S
C3887 C3883 1.393 . S
C3887 C3886 1.391 . S
H3888 C3896 0.950 . S
H3889 C3901 0.950 . S
H3890 C3898 0.950 . S
H3891 C3900 0.950 . S
H3892 C3902 0.950 . S
H3893 C3904 0.950 . S
H3894 C3906 0.950 . S
H3895 C3907 0.950 . S
C3896 H3888 0.950 . S
C3896 C3897 1.386 . S
C3896 C3898 1.391 . S
C3897 C3896 1.386 . S
C3897 C3901 1.393 . S
C3898 H3890 0.950 . S
C3898 C3896 1.391 . S
C3898 C3899 1.400 . S
C3899 C3898 1.400 . S
C3899 C3900 1.398 . S
C3899 C3905 1.491 . S
C3900 H3891 0.950 . S
C3900 C3899 1.398 . S
C3900 C3901 1.391 . S
C3901 H3889 0.950 . S
C3901 C3897 1.393 . S
C3901 C3900 1.391 . S
C3902 H3892 0.950 . S
C3902 C3903 1.386 . S
C3902 C3904 1.391 . S
C3903 C3902 1.386 . S
C3903 C3907 1.393 . S
C3904 H3893 0.950 . S
C3904 C3902 1.391 . S
C3904 C3905 1.400 . S
C3905 C3899 1.491 . S
C3905 C3904 1.400 . S
C3905 C3906 1.398 . S
C3906 H3894 0.950 . S
C3906 C3905 1.398 . S
C3906 C3907 1.391 . S
C3907 H3895 0.950 . S
C3907 C3903 1.393 . S
C3907 C3906 1.391 . S
H3908 C3916 0.950 . S
H3909 C3921 0.950 . S
H3910 C3918 0.950 . S
H3911 C3920 0.950 . S
H3912 C3922 0.950 . S
H3913 C3924 0.950 . S
H3914 C3926 0.950 . S
H3915 C3927 0.950 . S
C3916 H3908 0.950 . S
C3916 C3917 1.386 . S
C3916 C3918 1.391 . S
C3917 C3916 1.386 . S
C3917 C3921 1.393 . S
C3918 H3910 0.950 . S
C3918 C3916 1.391 . S
C3918 C3919 1.400 . S
C3919 C3918 1.400 . S
C3919 C3920 1.398 . S
C3919 C3925 1.491 . S
C3920 H3911 0.950 . S
C3920 C3919 1.398 . S
C3920 C3921 1.391 . S
C3921 H3909 0.950 . S
C3921 C3917 1.393 . S
C3921 C3920 1.391 . S
C3922 H3912 0.950 . S
C3922 C3923 1.386 . S
C3922 C3924 1.391 . S
C3923 C3922 1.386 . S
C3923 C3927 1.393 . S
C3924 H3913 0.950 . S
C3924 C3922 1.391 . S
C3924 C3925 1.400 . S
C3925 C3919 1.491 . S
C3925 C3924 1.400 . S
C3925 C3926 1.398 . S
C3926 H3914 0.950 . S
C3926 C3925 1.398 . S
C3926 C3927 1.391 . S
C3927 H3915 0.950 . S
C3927 C3923 1.393 . S
C3927 C3926 1.391 . S
H3928 C3936 0.950 . S
H3929 C3941 0.950 . S
H3930 C3938 0.950 . S
H3931 C3940 0.950 . S
H3932 C3942 0.950 . S
H3933 C3944 0.950 . S
H3934 C3946 0.950 . S
H3935 C3947 0.950 . S
C3936 H3928 0.950 . S
C3936 C3937 1.386 . S
C3936 C3938 1.391 . S
C3937 C3936 1.386 . S
C3937 C3941 1.393 . S
C3938 H3930 0.950 . S
C3938 C3936 1.391 . S
C3938 C3939 1.400 . S
C3939 C3938 1.400 . S
C3939 C3940 1.398 . S
C3939 C3945 1.491 . S
C3940 H3931 0.950 . S
C3940 C3939 1.398 . S
C3940 C3941 1.391 . S
C3941 H3929 0.950 . S
C3941 C3937 1.393 . S
C3941 C3940 1.391 . S
C3942 H3932 0.950 . S
C3942 C3943 1.386 . S
C3942 C3944 1.391 . S
C3943 C3942 1.386 . S
C3943 C3947 1.393 . S
C3944 H3933 0.950 . S
C3944 C3942 1.391 . S
C3944 C3945 1.400 . S
C3945 C3939 1.491 . S
C3945 C3944 1.400 . S
C3945 C3946 1.398 . S
C3946 H3934 0.950 . S
C3946 C3945 1.398 . S
C3946 C3947 1.391 . S
C3947 H3935 0.950 . S
C3947 C3943 1.393 . S
C3947 C3946 1.391 . S
H3948 C3956 0.950 . S
H3949 C3961 0.950 . S
H3950 C3958 0.950 . S
H3951 C3960 0.950 . S
H3952 C3962 0.950 . S
H3953 C3964 0.950 . S
H3954 C3966 0.950 . S
H3955 C3967 0.950 . S
C3956 H3948 0.950 . S
C3956 C3957 1.386 . S
C3956 C3958 1.391 . S
C3957 C3956 1.386 . S
C3957 C3961 1.393 . S
C3958 H3950 0.950 . S
C3958 C3956 1.391 . S
C3958 C3959 1.400 . S
C3959 C3958 1.400 . S
C3959 C3960 1.398 . S
C3959 C3965 1.491 . S
C3960 H3951 0.950 . S
C3960 C3959 1.398 . S
C3960 C3961 1.391 . S
C3961 H3949 0.950 . S
C3961 C3957 1.393 . S
C3961 C3960 1.391 . S
C3962 H3952 0.950 . S
C3962 C3963 1.386 . S
C3962 C3964 1.391 . S
C3963 C3962 1.386 . S
C3963 C3967 1.393 . S
C3964 H3953 0.950 . S
C3964 C3962 1.391 . S
C3964 C3965 1.400 . S
C3965 C3959 1.491 . S
C3965 C3964 1.400 . S
C3965 C3966 1.398 . S
C3966 H3954 0.950 . S
C3966 C3965 1.398 . S
C3966 C3967 1.391 . S
C3967 H3955 0.950 . S
C3967 C3963 1.393 . S
C3967 C3966 1.391 . S
H3968 C3976 0.950 . S
H3969 C3981 0.950 . S
H3970 C3978 0.950 . S
H3971 C3980 0.950 . S
H3972 C3982 0.950 . S
H3973 C3984 0.950 . S
H3974 C3986 0.950 . S
H3975 C3987 0.950 . S
C3976 H3968 0.950 . S
C3976 C3977 1.386 . S
C3976 C3978 1.391 . S
C3977 C3976 1.386 . S
C3977 C3981 1.393 . S
C3978 H3970 0.950 . S
C3978 C3976 1.391 . S
C3978 C3979 1.400 . S
C3979 C3978 1.400 . S
C3979 C3980 1.398 . S
C3979 C3985 1.491 . S
C3980 H3971 0.950 . S
C3980 C3979 1.398 . S
C3980 C3981 1.391 . S
C3981 H3969 0.950 . S
C3981 C3977 1.393 . S
C3981 C3980 1.391 . S
C3982 H3972 0.950 . S
C3982 C3983 1.386 . S
C3982 C3984 1.391 . S
C3983 C3982 1.386 . S
C3983 C3987 1.393 . S
C3984 H3973 0.950 . S
C3984 C3982 1.391 . S
C3984 C3985 1.400 . S
C3985 C3979 1.491 . S
C3985 C3984 1.400 . S
C3985 C3986 1.398 . S
C3986 H3974 0.950 . S
C3986 C3985 1.398 . S
C3986 C3987 1.391 . S
C3987 H3975 0.950 . S
C3987 C3983 1.393 . S
C3987 C3986 1.391 . S
H3988 C3996 0.950 . S
H3989 C4001 0.950 . S
H3990 C3998 0.950 . S
H3991 C4000 0.950 . S
H3992 C4002 0.950 . S
H3993 C4004 0.950 . S
H3994 C4006 0.950 . S
H3995 C4007 0.950 . S
C3996 H3988 0.950 . S
C3996 C3997 1.386 . S
C3996 C3998 1.391 . S
C3997 C3996 1.386 . S
C3997 C4001 1.393 . S
C3998 H3990 0.950 . S
C3998 C3996 1.391 . S
C3998 C3999 1.400 . S
C3999 C3998 1.400 . S
C3999 C4000 1.398 . S
C3999 C4005 1.491 . S
C4000 H3991 0.950 . S
C4000 C3999 1.398 . S
C4000 C4001 1.391 . S
C4001 H3989 0.950 . S
C4001 C3997 1.393 . S
C4001 C4000 1.391 . S
C4002 H3992 0.950 . S
C4002 C4003 1.386 . S
C4002 C4004 1.391 . S
C4003 C4002 1.386 . S
C4003 C4007 1.393 . S
C4004 H3993 0.950 . S
C4004 C4002 1.391 . S
C4004 C4005 1.400 . S
C4005 C3999 1.491 . S
C4005 C4004 1.400 . S
C4005 C4006 1.398 . S
C4006 H3994 0.950 . S
C4006 C4005 1.398 . S
C4006 C4007 1.391 . S
C4007 H3995 0.950 . S
C4007 C4003 1.393 . S
C4007 C4006 1.391 . S
H4008 C4016 0.950 . S
H4009 C4021 0.950 . S
H4010 C4018 0.950 . S
H4011 C4020 0.950 . S
H4012 C4022 0.950 . S
H4013 C4024 0.950 . S
H4014 C4026 0.950 . S
H4015 C4027 0.950 . S
C4016 H4008 0.950 . S
C4016 C4017 1.386 . S
C4016 C4018 1.391 . S
C4017 C4016 1.386 . S
C4017 C4021 1.393 . S
C4018 H4010 0.950 . S
C4018 C4016 1.391 . S
C4018 C4019 1.400 . S
C4019 C4018 1.400 . S
C4019 C4020 1.398 . S
C4019 C4025 1.491 . S
C4020 H4011 0.950 . S
C4020 C4019 1.398 . S
C4020 C4021 1.391 . S
C4021 H4009 0.950 . S
C4021 C4017 1.393 . S
C4021 C4020 1.391 . S
C4022 H4012 0.950 . S
C4022 C4023 1.386 . S
C4022 C4024 1.391 . S
C4023 C4022 1.386 . S
C4023 C4027 1.393 . S
C4024 H4013 0.950 . S
C4024 C4022 1.391 . S
C4024 C4025 1.400 . S
C4025 C4019 1.491 . S
C4025 C4024 1.400 . S
C4025 C4026 1.398 . S
C4026 H4014 0.950 . S
C4026 C4025 1.398 . S
C4026 C4027 1.391 . S
C4027 H4015 0.950 . S
C4027 C4023 1.393 . S
C4027 C4026 1.391 . S
H4028 C4036 0.950 . S
H4029 C4041 0.950 . S
H4030 C4038 0.950 . S
H4031 C4040 0.950 . S
H4032 C4042 0.950 . S
H4033 C4044 0.950 . S
H4034 C4046 0.950 . S
H4035 C4047 0.950 . S
C4036 H4028 0.950 . S
C4036 C4037 1.386 . S
C4036 C4038 1.391 . S
C4037 C4036 1.386 . S
C4037 C4041 1.393 . S
C4038 H4030 0.950 . S
C4038 C4036 1.391 . S
C4038 C4039 1.400 . S
C4039 C4038 1.400 . S
C4039 C4040 1.398 . S
C4039 C4045 1.491 . S
C4040 H4031 0.950 . S
C4040 C4039 1.398 . S
C4040 C4041 1.391 . S
C4041 H4029 0.950 . S
C4041 C4037 1.393 . S
C4041 C4040 1.391 . S
C4042 H4032 0.950 . S
C4042 C4043 1.386 . S
C4042 C4044 1.391 . S
C4043 C4042 1.386 . S
C4043 C4047 1.393 . S
C4044 H4033 0.950 . S
C4044 C4042 1.391 . S
C4044 C4045 1.400 . S
C4045 C4039 1.491 . S
C4045 C4044 1.400 . S
C4045 C4046 1.398 . S
C4046 H4034 0.950 . S
C4046 C4045 1.398 . S
C4046 C4047 1.391 . S
C4047 H4035 0.950 . S
C4047 C4043 1.393 . S
C4047 C4046 1.391 . S
H4048 C4056 0.950 . S
H4049 C4061 0.950 . S
H4050 C4058 0.950 . S
H4051 C4060 0.950 . S
H4052 C4062 0.950 . S
H4053 C4064 0.950 . S
H4054 C4066 0.950 . S
H4055 C4067 0.950 . S
C4056 H4048 0.950 . S
C4056 C4057 1.386 . S
C4056 C4058 1.391 . S
C4057 C4056 1.386 . S
C4057 C4061 1.393 . S
C4058 H4050 0.950 . S
C4058 C4056 1.391 . S
C4058 C4059 1.400 . S
C4059 C4058 1.400 . S
C4059 C4060 1.398 . S
C4059 C4065 1.491 . S
C4060 H4051 0.950 . S
C4060 C4059 1.398 . S
C4060 C4061 1.391 . S
C4061 H4049 0.950 . S
C4061 C4057 1.393 . S
C4061 C4060 1.391 . S
C4062 H4052 0.950 . S
C4062 C4063 1.386 . S
C4062 C4064 1.391 . S
C4063 C4062 1.386 . S
C4063 C4067 1.393 . S
C4064 H4053 0.950 . S
C4064 C4062 1.391 . S
C4064 C4065 1.400 . S
C4065 C4059 1.491 . S
C4065 C4064 1.400 . S
C4065 C4066 1.398 . S
C4066 H4054 0.950 . S
C4066 C4065 1.398 . S
C4066 C4067 1.391 . S
C4067 H4055 0.950 . S
C4067 C4063 1.393 . S
C4067 C4066 1.391 . S
H4068 C4076 0.950 . S
H4069 C4081 0.950 . S
H4070 C4078 0.950 . S
H4071 C4080 0.950 . S
H4072 C4082 0.950 . S
H4073 C4084 0.950 . S
H4074 C4086 0.950 . S
H4075 C4087 0.950 . S
C4076 H4068 0.950 . S
C4076 C4077 1.386 . S
C4076 C4078 1.391 . S
C4077 C4076 1.386 . S
C4077 C4081 1.393 . S
C4078 H4070 0.950 . S
C4078 C4076 1.391 . S
C4078 C4079 1.400 . S
C4079 C4078 1.400 . S
C4079 C4080 1.398 . S
C4079 C4085 1.491 . S
C4080 H4071 0.950 . S
C4080 C4079 1.398 . S
C4080 C4081 1.391 . S
C4081 H4069 0.950 . S
C4081 C4077 1.393 . S
C4081 C4080 1.391 . S
C4082 H4072 0.950 . S
C4082 C4083 1.386 . S
C4082 C4084 1.391 . S
C4083 C4082 1.386 . S
C4083 C4087 1.393 . S
C4084 H4073 0.950 . S
C4084 C4082 1.391 . S
C4084 C4085 1.400 . S
C4085 C4079 1.491 . S
C4085 C4084 1.400 . S
C4085 C4086 1.398 . S
C4086 H4074 0.950 . S
C4086 C4085 1.398 . S
C4086 C4087 1.391 . S
C4087 H4075 0.950 . S
C4087 C4083 1.393 . S
C4087 C4086 1.391 . S
H4088 C4096 0.950 . S
H4089 C4101 0.950 . S
H4090 C4098 0.950 . S
H4091 C4100 0.950 . S
H4092 C4102 0.950 . S
H4093 C4104 0.950 . S
H4094 C4106 0.950 . S
H4095 C4107 0.950 . S
C4096 H4088 0.950 . S
C4096 C4097 1.386 . S
C4096 C4098 1.391 . S
C4097 C4096 1.386 . S
C4097 C4101 1.393 . S
C4098 H4090 0.950 . S
C4098 C4096 1.391 . S
C4098 C4099 1.400 . S
C4099 C4098 1.400 . S
C4099 C4100 1.398 . S
C4099 C4105 1.491 . S
C4100 H4091 0.950 . S
C4100 C4099 1.398 . S
C4100 C4101 1.391 . S
C4101 H4089 0.950 . S
C4101 C4097 1.393 . S
C4101 C4100 1.391 . S
C4102 H4092 0.950 . S
C4102 C4103 1.386 . S
C4102 C4104 1.391 . S
C4103 C4102 1.386 . S
C4103 C4107 1.393 . S
C4104 H4093 0.950 . S
C4104 C4102 1.391 . S
C4104 C4105 1.400 . S
C4105 C4099 1.491 . S
C4105 C4104 1.400 . S
C4105 C4106 1.398 . S
C4106 H4094 0.950 . S
C4106 C4105 1.398 . S
C4106 C4107 1.391 . S
C4107 H4095 0.950 . S
C4107 C4103 1.393 . S
C4107 C4106 1.391 . S
H4108 C4116 0.950 . S
H4109 C4121 0.950 . S
H4110 C4118 0.950 . S
H4111 C4120 0.950 . S
H4112 C4122 0.950 . S
H4113 C4124 0.950 . S
H4114 C4126 0.950 . S
H4115 C4127 0.950 . S
C4116 H4108 0.950 . S
C4116 C4117 1.386 . S
C4116 C4118 1.391 . S
C4117 C4116 1.386 . S
C4117 C4121 1.393 . S
C4118 H4110 0.950 . S
C4118 C4116 1.391 . S
C4118 C4119 1.400 . S
C4119 C4118 1.400 . S
C4119 C4120 1.398 . S
C4119 C4125 1.491 . S
C4120 H4111 0.950 . S
C4120 C4119 1.398 . S
C4120 C4121 1.391 . S
C4121 H4109 0.950 . S
C4121 C4117 1.393 . S
C4121 C4120 1.391 . S
C4122 H4112 0.950 . S
C4122 C4123 1.386 . S
C4122 C4124 1.391 . S
C4123 C4122 1.386 . S
C4123 C4127 1.393 . S
C4124 H4113 0.950 . S
C4124 C4122 1.391 . S
C4124 C4125 1.400 . S
C4125 C4119 1.491 . S
C4125 C4124 1.400 . S
C4125 C4126 1.398 . S
C4126 H4114 0.950 . S
C4126 C4125 1.398 . S
C4126 C4127 1.391 . S
C4127 H4115 0.950 . S
C4127 C4123 1.393 . S
C4127 C4126 1.391 . S
H4128 C4136 0.950 . S
H4129 C4141 0.950 . S
H4130 C4138 0.950 . S
H4131 C4140 0.950 . S
H4132 C4142 0.950 . S
H4133 C4144 0.950 . S
H4134 C4146 0.950 . S
H4135 C4147 0.950 . S
C4136 H4128 0.950 . S
C4136 C4137 1.386 . S
C4136 C4138 1.391 . S
C4137 C4136 1.386 . S
C4137 C4141 1.393 . S
C4138 H4130 0.950 . S
C4138 C4136 1.391 . S
C4138 C4139 1.400 . S
C4139 C4138 1.400 . S
C4139 C4140 1.398 . S
C4139 C4145 1.491 . S
C4140 H4131 0.950 . S
C4140 C4139 1.398 . S
C4140 C4141 1.391 . S
C4141 H4129 0.950 . S
C4141 C4137 1.393 . S
C4141 C4140 1.391 . S
C4142 H4132 0.950 . S
C4142 C4143 1.386 . S
C4142 C4144 1.391 . S
C4143 C4142 1.386 . S
C4143 C4147 1.393 . S
C4144 H4133 0.950 . S
C4144 C4142 1.391 . S
C4144 C4145 1.400 . S
C4145 C4139 1.491 . S
C4145 C4144 1.400 . S
C4145 C4146 1.398 . S
C4146 H4134 0.950 . S
C4146 C4145 1.398 . S
C4146 C4147 1.391 . S
C4147 H4135 0.950 . S
C4147 C4143 1.393 . S
C4147 C4146 1.391 . S
H4148 C4156 0.950 . S
H4149 C4161 0.950 . S
H4150 C4158 0.950 . S
H4151 C4160 0.950 . S
H4152 C4162 0.950 . S
H4153 C4164 0.950 . S
H4154 C4166 0.950 . S
H4155 C4167 0.950 . S
C4156 H4148 0.950 . S
C4156 C4157 1.386 . S
C4156 C4158 1.391 . S
C4157 C4156 1.386 . S
C4157 C4161 1.393 . S
C4158 H4150 0.950 . S
C4158 C4156 1.391 . S
C4158 C4159 1.400 . S
C4159 C4158 1.400 . S
C4159 C4160 1.398 . S
C4159 C4165 1.491 . S
C4160 H4151 0.950 . S
C4160 C4159 1.398 . S
C4160 C4161 1.391 . S
C4161 H4149 0.950 . S
C4161 C4157 1.393 . S
C4161 C4160 1.391 . S
C4162 H4152 0.950 . S
C4162 C4163 1.386 . S
C4162 C4164 1.391 . S
C4163 C4162 1.386 . S
C4163 C4167 1.393 . S
C4164 H4153 0.950 . S
C4164 C4162 1.391 . S
C4164 C4165 1.400 . S
C4165 C4159 1.491 . S
C4165 C4164 1.400 . S
C4165 C4166 1.398 . S
C4166 H4154 0.950 . S
C4166 C4165 1.398 . S
C4166 C4167 1.391 . S
C4167 H4155 0.950 . S
C4167 C4163 1.393 . S
C4167 C4166 1.391 . S
H4168 C4176 0.950 . S
H4169 C4181 0.950 . S
H4170 C4178 0.950 . S
H4171 C4180 0.950 . S
H4172 C4182 0.950 . S
H4173 C4184 0.950 . S
H4174 C4186 0.950 . S
H4175 C4187 0.950 . S
C4176 H4168 0.950 . S
C4176 C4177 1.386 . S
C4176 C4178 1.391 . S
C4177 C4176 1.386 . S
C4177 C4181 1.393 . S
C4178 H4170 0.950 . S
C4178 C4176 1.391 . S
C4178 C4179 1.400 . S
C4179 C4178 1.400 . S
C4179 C4180 1.398 . S
C4179 C4185 1.491 . S
C4180 H4171 0.950 . S
C4180 C4179 1.398 . S
C4180 C4181 1.391 . S
C4181 H4169 0.950 . S
C4181 C4177 1.393 . S
C4181 C4180 1.391 . S
C4182 H4172 0.950 . S
C4182 C4183 1.386 . S
C4182 C4184 1.391 . S
C4183 C4182 1.386 . S
C4183 C4187 1.393 . S
C4184 H4173 0.950 . S
C4184 C4182 1.391 . S
C4184 C4185 1.400 . S
C4185 C4179 1.491 . S
C4185 C4184 1.400 . S
C4185 C4186 1.398 . S
C4186 H4174 0.950 . S
C4186 C4185 1.398 . S
C4186 C4187 1.391 . S
C4187 H4175 0.950 . S
C4187 C4183 1.393 . S
C4187 C4186 1.391 . S
H4188 C4196 0.950 . S
H4189 C4201 0.950 . S
H4190 C4198 0.950 . S
H4191 C4200 0.950 . S
H4192 C4202 0.950 . S
H4193 C4204 0.950 . S
H4194 C4206 0.950 . S
H4195 C4207 0.950 . S
C4196 H4188 0.950 . S
C4196 C4197 1.386 . S
C4196 C4198 1.391 . S
C4197 C4196 1.386 . S
C4197 C4201 1.393 . S
C4198 H4190 0.950 . S
C4198 C4196 1.391 . S
C4198 C4199 1.400 . S
C4199 C4198 1.400 . S
C4199 C4200 1.398 . S
C4199 C4205 1.491 . S
C4200 H4191 0.950 . S
C4200 C4199 1.398 . S
C4200 C4201 1.391 . S
C4201 H4189 0.950 . S
C4201 C4197 1.393 . S
C4201 C4200 1.391 . S
C4202 H4192 0.950 . S
C4202 C4203 1.386 . S
C4202 C4204 1.391 . S
C4203 C4202 1.386 . S
C4203 C4207 1.393 . S
C4204 H4193 0.950 . S
C4204 C4202 1.391 . S
C4204 C4205 1.400 . S
C4205 C4199 1.491 . S
C4205 C4204 1.400 . S
C4205 C4206 1.398 . S
C4206 H4194 0.950 . S
C4206 C4205 1.398 . S
C4206 C4207 1.391 . S
C4207 H4195 0.950 . S
C4207 C4203 1.393 . S
C4207 C4206 1.391 . S
H4208 C4216 0.950 . S
H4209 C4221 0.950 . S
H4210 C4218 0.950 . S
H4211 C4220 0.950 . S
H4212 C4222 0.950 . S
H4213 C4224 0.950 . S
H4214 C4226 0.950 . S
H4215 C4227 0.950 . S
C4216 H4208 0.950 . S
C4216 C4217 1.386 . S
C4216 C4218 1.391 . S
C4217 C4216 1.386 . S
C4217 C4221 1.393 . S
C4218 H4210 0.950 . S
C4218 C4216 1.391 . S
C4218 C4219 1.400 . S
C4219 C4218 1.400 . S
C4219 C4220 1.398 . S
C4219 C4225 1.491 . S
C4220 H4211 0.950 . S
C4220 C4219 1.398 . S
C4220 C4221 1.391 . S
C4221 H4209 0.950 . S
C4221 C4217 1.393 . S
C4221 C4220 1.391 . S
C4222 H4212 0.950 . S
C4222 C4223 1.386 . S
C4222 C4224 1.391 . S
C4223 C4222 1.386 . S
C4223 C4227 1.393 . S
C4224 H4213 0.950 . S
C4224 C4222 1.391 . S
C4224 C4225 1.400 . S
C4225 C4219 1.491 . S
C4225 C4224 1.400 . S
C4225 C4226 1.398 . S
C4226 H4214 0.950 . S
C4226 C4225 1.398 . S
C4226 C4227 1.391 . S
C4227 H4215 0.950 . S
C4227 C4223 1.393 . S
C4227 C4226 1.391 . S
H4228 C4236 0.950 . S
H4229 C4241 0.950 . S
H4230 C4238 0.950 . S
H4231 C4240 0.950 . S
H4232 C4242 0.950 . S
H4233 C4244 0.950 . S
H4234 C4246 0.950 . S
H4235 C4247 0.950 . S
C4236 H4228 0.950 . S
C4236 C4237 1.386 . S
C4236 C4238 1.391 . S
C4237 C4236 1.386 . S
C4237 C4241 1.393 . S
C4238 H4230 0.950 . S
C4238 C4236 1.391 . S
C4238 C4239 1.400 . S
C4239 C4238 1.400 . S
C4239 C4240 1.398 . S
C4239 C4245 1.491 . S
C4240 H4231 0.950 . S
C4240 C4239 1.398 . S
C4240 C4241 1.391 . S
C4241 H4229 0.950 . S
C4241 C4237 1.393 . S
C4241 C4240 1.391 . S
C4242 H4232 0.950 . S
C4242 C4243 1.386 . S
C4242 C4244 1.391 . S
C4243 C4242 1.386 . S
C4243 C4247 1.393 . S
C4244 H4233 0.950 . S
C4244 C4242 1.391 . S
C4244 C4245 1.400 . S
C4245 C4239 1.491 . S
C4245 C4244 1.400 . S
C4245 C4246 1.398 . S
C4246 H4234 0.950 . S
C4246 C4245 1.398 . S
C4246 C4247 1.391 . S
C4247 H4235 0.950 . S
C4247 C4243 1.393 . S
C4247 C4246 1.391 . S
H4248 C4256 0.950 . S
H4249 C4261 0.950 . S
H4250 C4258 0.950 . S
H4251 C4260 0.950 . S
H4252 C4262 0.950 . S
H4253 C4264 0.950 . S
H4254 C4266 0.950 . S
H4255 C4267 0.950 . S
C4256 H4248 0.950 . S
C4256 C4257 1.386 . S
C4256 C4258 1.391 . S
C4257 C4256 1.386 . S
C4257 C4261 1.393 . S
C4258 H4250 0.950 . S
C4258 C4256 1.391 . S
C4258 C4259 1.400 . S
C4259 C4258 1.400 . S
C4259 C4260 1.398 . S
C4259 C4265 1.491 . S
C4260 H4251 0.950 . S
C4260 C4259 1.398 . S
C4260 C4261 1.391 . S
C4261 H4249 0.950 . S
C4261 C4257 1.393 . S
C4261 C4260 1.391 . S
C4262 H4252 0.950 . S
C4262 C4263 1.386 . S
C4262 C4264 1.391 . S
C4263 C4262 1.386 . S
C4263 C4267 1.393 . S
C4264 H4253 0.950 . S
C4264 C4262 1.391 . S
C4264 C4265 1.400 . S
C4265 C4259 1.491 . S
C4265 C4264 1.400 . S
C4265 C4266 1.398 . S
C4266 H4254 0.950 . S
C4266 C4265 1.398 . S
C4266 C4267 1.391 . S
C4267 H4255 0.950 . S
C4267 C4263 1.393 . S
C4267 C4266 1.391 . S
H4268 C4276 0.950 . S
H4269 C4281 0.950 . S
H4270 C4278 0.950 . S
H4271 C4280 0.950 . S
H4272 C4282 0.950 . S
H4273 C4284 0.950 . S
H4274 C4286 0.950 . S
H4275 C4287 0.950 . S
C4276 H4268 0.950 . S
C4276 C4277 1.386 . S
C4276 C4278 1.391 . S
C4277 C4276 1.386 . S
C4277 C4281 1.393 . S
C4278 H4270 0.950 . S
C4278 C4276 1.391 . S
C4278 C4279 1.400 . S
C4279 C4278 1.400 . S
C4279 C4280 1.398 . S
C4279 C4285 1.491 . S
C4280 H4271 0.950 . S
C4280 C4279 1.398 . S
C4280 C4281 1.391 . S
C4281 H4269 0.950 . S
C4281 C4277 1.393 . S
C4281 C4280 1.391 . S
C4282 H4272 0.950 . S
C4282 C4283 1.386 . S
C4282 C4284 1.391 . S
C4283 C4282 1.386 . S
C4283 C4287 1.393 . S
C4284 H4273 0.950 . S
C4284 C4282 1.391 . S
C4284 C4285 1.400 . S
C4285 C4279 1.491 . S
C4285 C4284 1.400 . S
C4285 C4286 1.398 . S
C4286 H4274 0.950 . S
C4286 C4285 1.398 . S
C4286 C4287 1.391 . S
C4287 H4275 0.950 . S
C4287 C4283 1.393 . S
C4287 C4286 1.391 . S
H4288 C4296 0.950 . S
H4289 C4301 0.950 . S
H4290 C4298 0.950 . S
H4291 C4300 0.950 . S
H4292 C4302 0.950 . S
H4293 C4304 0.950 . S
H4294 C4306 0.950 . S
H4295 C4307 0.950 . S
C4296 H4288 0.950 . S
C4296 C4297 1.386 . S
C4296 C4298 1.391 . S
C4297 C4296 1.386 . S
C4297 C4301 1.393 . S
C4298 H4290 0.950 . S
C4298 C4296 1.391 . S
C4298 C4299 1.400 . S
C4299 C4298 1.400 . S
C4299 C4300 1.398 . S
C4299 C4305 1.491 . S
C4300 H4291 0.950 . S
C4300 C4299 1.398 . S
C4300 C4301 1.391 . S
C4301 H4289 0.950 . S
C4301 C4297 1.393 . S
C4301 C4300 1.391 . S
C4302 H4292 0.950 . S
C4302 C4303 1.386 . S
C4302 C4304 1.391 . S
C4303 C4302 1.386 . S
C4303 C4307 1.393 . S
C4304 H4293 0.950 . S
C4304 C4302 1.391 . S
C4304 C4305 1.400 . S
C4305 C4299 1.491 . S
C4305 C4304 1.400 . S
C4305 C4306 1.398 . S
C4306 H4294 0.950 . S
C4306 C4305 1.398 . S
C4306 C4307 1.391 . S
C4307 H4295 0.950 . S
C4307 C4303 1.393 . S
C4307 C4306 1.391 . S
H4308 C4316 0.950 . S
H4309 C4321 0.950 . S
H4310 C4318 0.950 . S
H4311 C4320 0.950 . S
H4312 C4322 0.950 . S
H4313 C4324 0.950 . S
H4314 C4326 0.950 . S
H4315 C4327 0.950 . S
C4316 H4308 0.950 . S
C4316 C4317 1.386 . S
C4316 C4318 1.391 . S
C4317 C4316 1.386 . S
C4317 C4321 1.393 . S
C4318 H4310 0.950 . S
C4318 C4316 1.391 . S
C4318 C4319 1.400 . S
C4319 C4318 1.400 . S
C4319 C4320 1.398 . S
C4319 C4325 1.491 . S
C4320 H4311 0.950 . S
C4320 C4319 1.398 . S
C4320 C4321 1.391 . S
C4321 H4309 0.950 . S
C4321 C4317 1.393 . S
C4321 C4320 1.391 . S
C4322 H4312 0.950 . S
C4322 C4323 1.386 . S
C4322 C4324 1.391 . S
C4323 C4322 1.386 . S
C4323 C4327 1.393 . S
C4324 H4313 0.950 . S
C4324 C4322 1.391 . S
C4324 C4325 1.400 . S
C4325 C4319 1.491 . S
C4325 C4324 1.400 . S
C4325 C4326 1.398 . S
C4326 H4314 0.950 . S
C4326 C4325 1.398 . S
C4326 C4327 1.391 . S
C4327 H4315 0.950 . S
C4327 C4323 1.393 . S
C4327 C4326 1.391 . S
H4328 C4336 0.950 . S
H4329 C4341 0.950 . S
H4330 C4338 0.950 . S
H4331 C4340 0.950 . S
H4332 C4342 0.950 . S
H4333 C4344 0.950 . S
H4334 C4346 0.950 . S
H4335 C4347 0.950 . S
C4336 H4328 0.950 . S
C4336 C4337 1.386 . S
C4336 C4338 1.391 . S
C4337 C4336 1.386 . S
C4337 C4341 1.393 . S
C4338 H4330 0.950 . S
C4338 C4336 1.391 . S
C4338 C4339 1.400 . S
C4339 C4338 1.400 . S
C4339 C4340 1.398 . S
C4339 C4345 1.491 . S
C4340 H4331 0.950 . S
C4340 C4339 1.398 . S
C4340 C4341 1.391 . S
C4341 H4329 0.950 . S
C4341 C4337 1.393 . S
C4341 C4340 1.391 . S
C4342 H4332 0.950 . S
C4342 C4343 1.386 . S
C4342 C4344 1.391 . S
C4343 C4342 1.386 . S
C4343 C4347 1.393 . S
C4344 H4333 0.950 . S
C4344 C4342 1.391 . S
C4344 C4345 1.400 . S
C4345 C4339 1.491 . S
C4345 C4344 1.400 . S
C4345 C4346 1.398 . S
C4346 H4334 0.950 . S
C4346 C4345 1.398 . S
C4346 C4347 1.391 . S
C4347 H4335 0.950 . S
C4347 C4343 1.393 . S
C4347 C4346 1.391 . S
H4348 C4356 0.950 . S
H4349 C4361 0.950 . S
H4350 C4358 0.950 . S
H4351 C4360 0.950 . S
H4352 C4362 0.950 . S
H4353 C4364 0.950 . S
H4354 C4366 0.950 . S
H4355 C4367 0.950 . S
C4356 H4348 0.950 . S
C4356 C4357 1.386 . S
C4356 C4358 1.391 . S
C4357 C4356 1.386 . S
C4357 C4361 1.393 . S
C4358 H4350 0.950 . S
C4358 C4356 1.391 . S
C4358 C4359 1.400 . S
C4359 C4358 1.400 . S
C4359 C4360 1.398 . S
C4359 C4365 1.491 . S
C4360 H4351 0.950 . S
C4360 C4359 1.398 . S
C4360 C4361 1.391 . S
C4361 H4349 0.950 . S
C4361 C4357 1.393 . S
C4361 C4360 1.391 . S
C4362 H4352 0.950 . S
C4362 C4363 1.386 . S
C4362 C4364 1.391 . S
C4363 C4362 1.386 . S
C4363 C4367 1.393 . S
C4364 H4353 0.950 . S
C4364 C4362 1.391 . S
C4364 C4365 1.400 . S
C4365 C4359 1.491 . S
C4365 C4364 1.400 . S
C4365 C4366 1.398 . S
C4366 H4354 0.950 . S
C4366 C4365 1.398 . S
C4366 C4367 1.391 . S
C4367 H4355 0.950 . S
C4367 C4363 1.393 . S
C4367 C4366 1.391 . S
H4368 C4376 0.950 . S
H4369 C4381 0.950 . S
H4370 C4378 0.950 . S
H4371 C4380 0.950 . S
H4372 C4382 0.950 . S
H4373 C4384 0.950 . S
H4374 C4386 0.950 . S
H4375 C4387 0.950 . S
C4376 H4368 0.950 . S
C4376 C4377 1.386 . S
C4376 C4378 1.391 . S
C4377 C4376 1.386 . S
C4377 C4381 1.393 . S
C4378 H4370 0.950 . S
C4378 C4376 1.391 . S
C4378 C4379 1.400 . S
C4379 C4378 1.400 . S
C4379 C4380 1.398 . S
C4379 C4385 1.491 . S
C4380 H4371 0.950 . S
C4380 C4379 1.398 . S
C4380 C4381 1.391 . S
C4381 H4369 0.950 . S
C4381 C4377 1.393 . S
C4381 C4380 1.391 . S
C4382 H4372 0.950 . S
C4382 C4383 1.386 . S
C4382 C4384 1.391 . S
C4383 C4382 1.386 . S
C4383 C4387 1.393 . S
C4384 H4373 0.950 . S
C4384 C4382 1.391 . S
C4384 C4385 1.400 . S
C4385 C4379 1.491 . S
C4385 C4384 1.400 . S
C4385 C4386 1.398 . S
C4386 H4374 0.950 . S
C4386 C4385 1.398 . S
C4386 C4387 1.391 . S
C4387 H4375 0.950 . S
C4387 C4383 1.393 . S
C4387 C4386 1.391 . S
H4388 C4396 0.950 . S
H4389 C4401 0.950 . S
H4390 C4398 0.950 . S
H4391 C4400 0.950 . S
H4392 C4402 0.950 . S
H4393 C4404 0.950 . S
H4394 C4406 0.950 . S
H4395 C4407 0.950 . S
C4396 H4388 0.950 . S
C4396 C4397 1.386 . S
C4396 C4398 1.391 . S
C4397 C4396 1.386 . S
C4397 C4401 1.393 . S
C4398 H4390 0.950 . S
C4398 C4396 1.391 . S
C4398 C4399 1.400 . S
C4399 C4398 1.400 . S
C4399 C4400 1.398 . S
C4399 C4405 1.491 . S
C4400 H4391 0.950 . S
C4400 C4399 1.398 . S
C4400 C4401 1.391 . S
C4401 H4389 0.950 . S
C4401 C4397 1.393 . S
C4401 C4400 1.391 . S
C4402 H4392 0.950 . S
C4402 C4403 1.386 . S
C4402 C4404 1.391 . S
C4403 C4402 1.386 . S
C4403 C4407 1.393 . S
C4404 H4393 0.950 . S
C4404 C4402 1.391 . S
C4404 C4405 1.400 . S
C4405 C4399 1.491 . S
C4405 C4404 1.400 . S
C4405 C4406 1.398 . S
C4406 H4394 0.950 . S
C4406 C4405 1.398 . S
C4406 C4407 1.391 . S
C4407 H4395 0.950 . S
C4407 C4403 1.393 . S
C4407 C4406 1.391 . S
H4408 C4416 0.950 . S
H4409 C4421 0.950 . S
H4410 C4418 0.950 . S
H4411 C4420 0.950 . S
H4412 C4422 0.950 . S
H4413 C4424 0.950 . S
H4414 C4426 0.950 . S
H4415 C4427 0.950 . S
C4416 H4408 0.950 . S
C4416 C4417 1.386 . S
C4416 C4418 1.391 . S
C4417 C4416 1.386 . S
C4417 C4421 1.393 . S
C4418 H4410 0.950 . S
C4418 C4416 1.391 . S
C4418 C4419 1.400 . S
C4419 C4418 1.400 . S
C4419 C4420 1.398 . S
C4419 C4425 1.491 . S
C4420 H4411 0.950 . S
C4420 C4419 1.398 . S
C4420 C4421 1.391 . S
C4421 H4409 0.950 . S
C4421 C4417 1.393 . S
C4421 C4420 1.391 . S
C4422 H4412 0.950 . S
C4422 C4423 1.386 . S
C4422 C4424 1.391 . S
C4423 C4422 1.386 . S
C4423 C4427 1.393 . S
C4424 H4413 0.950 . S
C4424 C4422 1.391 . S
C4424 C4425 1.400 . S
C4425 C4419 1.491 . S
C4425 C4424 1.400 . S
C4425 C4426 1.398 . S
C4426 H4414 0.950 . S
C4426 C4425 1.398 . S
C4426 C4427 1.391 . S
C4427 H4415 0.950 . S
C4427 C4423 1.393 . S
C4427 C4426 1.391 . S
H4428 C4436 0.950 . S
H4429 C4441 0.950 . S
H4430 C4438 0.950 . S
H4431 C4440 0.950 . S
H4432 C4442 0.950 . S
H4433 C4444 0.950 . S
H4434 C4446 0.950 . S
H4435 C4447 0.950 . S
C4436 H4428 0.950 . S
C4436 C4437 1.386 . S
C4436 C4438 1.391 . S
C4437 C4436 1.386 . S
C4437 C4441 1.393 . S
C4438 H4430 0.950 . S
C4438 C4436 1.391 . S
C4438 C4439 1.400 . S
C4439 C4438 1.400 . S
C4439 C4440 1.398 . S
C4439 C4445 1.491 . S
C4440 H4431 0.950 . S
C4440 C4439 1.398 . S
C4440 C4441 1.391 . S
C4441 H4429 0.950 . S
C4441 C4437 1.393 . S
C4441 C4440 1.391 . S
C4442 H4432 0.950 . S
C4442 C4443 1.386 . S
C4442 C4444 1.391 . S
C4443 C4442 1.386 . S
C4443 C4447 1.393 . S
C4444 H4433 0.950 . S
C4444 C4442 1.391 . S
C4444 C4445 1.400 . S
C4445 C4439 1.491 . S
C4445 C4444 1.400 . S
C4445 C4446 1.398 . S
C4446 H4434 0.950 . S
C4446 C4445 1.398 . S
C4446 C4447 1.391 . S
C4447 H4435 0.950 . S
C4447 C4443 1.393 . S
C4447 C4446 1.391 . S
H4448 C4456 0.950 . S
H4449 C4461 0.950 . S
H4450 C4458 0.950 . S
H4451 C4460 0.950 . S
H4452 C4462 0.950 . S
H4453 C4464 0.950 . S
H4454 C4466 0.950 . S
H4455 C4467 0.950 . S
C4456 H4448 0.950 . S
C4456 C4457 1.386 . S
C4456 C4458 1.391 . S
C4457 C4456 1.386 . S
C4457 C4461 1.393 . S
C4458 H4450 0.950 . S
C4458 C4456 1.391 . S
C4458 C4459 1.400 . S
C4459 C4458 1.400 . S
C4459 C4460 1.398 . S
C4459 C4465 1.491 . S
C4460 H4451 0.950 . S
C4460 C4459 1.398 . S
C4460 C4461 1.391 . S
C4461 H4449 0.950 . S
C4461 C4457 1.393 . S
C4461 C4460 1.391 . S
C4462 H4452 0.950 . S
C4462 C4463 1.386 . S
C4462 C4464 1.391 . S
C4463 C4462 1.386 . S
C4463 C4467 1.393 . S
C4464 H4453 0.950 . S
C4464 C4462 1.391 . S
C4464 C4465 1.400 . S
C4465 C4459 1.491 . S
C4465 C4464 1.400 . S
C4465 C4466 1.398 . S
C4466 H4454 0.950 . S
C4466 C4465 1.398 . S
C4466 C4467 1.391 . S
C4467 H4455 0.950 . S
C4467 C4463 1.393 . S
C4467 C4466 1.391 . S
H4468 C4476 0.950 . S
H4469 C4481 0.950 . S
H4470 C4478 0.950 . S
H4471 C4480 0.950 . S
H4472 C4482 0.950 . S
H4473 C4484 0.950 . S
H4474 C4486 0.950 . S
H4475 C4487 0.950 . S
C4476 H4468 0.950 . S
C4476 C4477 1.386 . S
C4476 C4478 1.391 . S
C4477 C4476 1.386 . S
C4477 C4481 1.393 . S
C4478 H4470 0.950 . S
C4478 C4476 1.391 . S
C4478 C4479 1.400 . S
C4479 C4478 1.400 . S
C4479 C4480 1.398 . S
C4479 C4485 1.491 . S
C4480 H4471 0.950 . S
C4480 C4479 1.398 . S
C4480 C4481 1.391 . S
C4481 H4469 0.950 . S
C4481 C4477 1.393 . S
C4481 C4480 1.391 . S
C4482 H4472 0.950 . S
C4482 C4483 1.386 . S
C4482 C4484 1.391 . S
C4483 C4482 1.386 . S
C4483 C4487 1.393 . S
C4484 H4473 0.950 . S
C4484 C4482 1.391 . S
C4484 C4485 1.400 . S
C4485 C4479 1.491 . S
C4485 C4484 1.400 . S
C4485 C4486 1.398 . S
C4486 H4474 0.950 . S
C4486 C4485 1.398 . S
C4486 C4487 1.391 . S
C4487 H4475 0.950 . S
C4487 C4483 1.393 . S
C4487 C4486 1.391 . S
H4488 C4496 0.950 . S
H4489 C4501 0.950 . S
H4490 C4498 0.950 . S
H4491 C4500 0.950 . S
H4492 C4502 0.950 . S
H4493 C4504 0.950 . S
H4494 C4506 0.950 . S
H4495 C4507 0.950 . S
C4496 H4488 0.950 . S
C4496 C4497 1.386 . S
C4496 C4498 1.391 . S
C4497 C4496 1.386 . S
C4497 C4501 1.393 . S
C4498 H4490 0.950 . S
C4498 C4496 1.391 . S
C4498 C4499 1.400 . S
C4499 C4498 1.400 . S
C4499 C4500 1.398 . S
C4499 C4505 1.491 . S
C4500 H4491 0.950 . S
C4500 C4499 1.398 . S
C4500 C4501 1.391 . S
C4501 H4489 0.950 . S
C4501 C4497 1.393 . S
C4501 C4500 1.391 . S
C4502 H4492 0.950 . S
C4502 C4503 1.386 . S
C4502 C4504 1.391 . S
C4503 C4502 1.386 . S
C4503 C4507 1.393 . S
C4504 H4493 0.950 . S
C4504 C4502 1.391 . S
C4504 C4505 1.400 . S
C4505 C4499 1.491 . S
C4505 C4504 1.400 . S
C4505 C4506 1.398 . S
C4506 H4494 0.950 . S
C4506 C4505 1.398 . S
C4506 C4507 1.391 . S
C4507 H4495 0.950 . S
C4507 C4503 1.393 . S
C4507 C4506 1.391 . S
H4508 C4516 0.950 . S
H4509 C4521 0.950 . S
H4510 C4518 0.950 . S
H4511 C4520 0.950 . S
H4512 C4522 0.950 . S
H4513 C4524 0.950 . S
H4514 C4526 0.950 . S
H4515 C4527 0.950 . S
C4516 H4508 0.950 . S
C4516 C4517 1.386 . S
C4516 C4518 1.391 . S
C4517 C4516 1.386 . S
C4517 C4521 1.393 . S
C4518 H4510 0.950 . S
C4518 C4516 1.391 . S
C4518 C4519 1.400 . S
C4519 C4518 1.400 . S
C4519 C4520 1.398 . S
C4519 C4525 1.491 . S
C4520 H4511 0.950 . S
C4520 C4519 1.398 . S
C4520 C4521 1.391 . S
C4521 H4509 0.950 . S
C4521 C4517 1.393 . S
C4521 C4520 1.391 . S
C4522 H4512 0.950 . S
C4522 C4523 1.386 . S
C4522 C4524 1.391 . S
C4523 C4522 1.386 . S
C4523 C4527 1.393 . S
C4524 H4513 0.950 . S
C4524 C4522 1.391 . S
C4524 C4525 1.400 . S
C4525 C4519 1.491 . S
C4525 C4524 1.400 . S
C4525 C4526 1.398 . S
C4526 H4514 0.950 . S
C4526 C4525 1.398 . S
C4526 C4527 1.391 . S
C4527 H4515 0.950 . S
C4527 C4523 1.393 . S
C4527 C4526 1.391 . S
H4528 C4536 0.950 . S
H4529 C4541 0.950 . S
H4530 C4538 0.950 . S
H4531 C4540 0.950 . S
H4532 C4542 0.950 . S
H4533 C4544 0.950 . S
H4534 C4546 0.950 . S
H4535 C4547 0.950 . S
C4536 H4528 0.950 . S
C4536 C4537 1.386 . S
C4536 C4538 1.391 . S
C4537 C4536 1.386 . S
C4537 C4541 1.393 . S
C4538 H4530 0.950 . S
C4538 C4536 1.391 . S
C4538 C4539 1.400 . S
C4539 C4538 1.400 . S
C4539 C4540 1.398 . S
C4539 C4545 1.491 . S
C4540 H4531 0.950 . S
C4540 C4539 1.398 . S
C4540 C4541 1.391 . S
C4541 H4529 0.950 . S
C4541 C4537 1.393 . S
C4541 C4540 1.391 . S
C4542 H4532 0.950 . S
C4542 C4543 1.386 . S
C4542 C4544 1.391 . S
C4543 C4542 1.386 . S
C4543 C4547 1.393 . S
C4544 H4533 0.950 . S
C4544 C4542 1.391 . S
C4544 C4545 1.400 . S
C4545 C4539 1.491 . S
C4545 C4544 1.400 . S
C4545 C4546 1.398 . S
C4546 H4534 0.950 . S
C4546 C4545 1.398 . S
C4546 C4547 1.391 . S
C4547 H4535 0.950 . S
C4547 C4543 1.393 . S
C4547 C4546 1.391 . S
H4548 C4556 0.950 . S
H4549 C4561 0.950 . S
H4550 C4558 0.950 . S
H4551 C4560 0.950 . S
H4552 C4562 0.950 . S
H4553 C4564 0.950 . S
H4554 C4566 0.950 . S
H4555 C4567 0.950 . S
C4556 H4548 0.950 . S
C4556 C4557 1.386 . S
C4556 C4558 1.391 . S
C4557 C4556 1.386 . S
C4557 C4561 1.393 . S
C4558 H4550 0.950 . S
C4558 C4556 1.391 . S
C4558 C4559 1.400 . S
C4559 C4558 1.400 . S
C4559 C4560 1.398 . S
C4559 C4565 1.491 . S
C4560 H4551 0.950 . S
C4560 C4559 1.398 . S
C4560 C4561 1.391 . S
C4561 H4549 0.950 . S
C4561 C4557 1.393 . S
C4561 C4560 1.391 . S
C4562 H4552 0.950 . S
C4562 C4563 1.386 . S
C4562 C4564 1.391 . S
C4563 C4562 1.386 . S
C4563 C4567 1.393 . S
C4564 H4553 0.950 . S
C4564 C4562 1.391 . S
C4564 C4565 1.400 . S
C4565 C4559 1.491 . S
C4565 C4564 1.400 . S
C4565 C4566 1.398 . S
C4566 H4554 0.950 . S
C4566 C4565 1.398 . S
C4566 C4567 1.391 . S
C4567 H4555 0.950 . S
C4567 C4563 1.393 . S
C4567 C4566 1.391 . S
H4568 C4576 0.950 . S
H4569 C4581 0.950 . S
H4570 C4578 0.950 . S
H4571 C4580 0.950 . S
H4572 C4582 0.950 . S
H4573 C4584 0.950 . S
H4574 C4586 0.950 . S
H4575 C4587 0.950 . S
C4576 H4568 0.950 . S
C4576 C4577 1.386 . S
C4576 C4578 1.391 . S
C4577 C4576 1.386 . S
C4577 C4581 1.393 . S
C4578 H4570 0.950 . S
C4578 C4576 1.391 . S
C4578 C4579 1.400 . S
C4579 C4578 1.400 . S
C4579 C4580 1.398 . S
C4579 C4585 1.491 . S
C4580 H4571 0.950 . S
C4580 C4579 1.398 . S
C4580 C4581 1.391 . S
C4581 H4569 0.950 . S
C4581 C4577 1.393 . S
C4581 C4580 1.391 . S
C4582 H4572 0.950 . S
C4582 C4583 1.386 . S
C4582 C4584 1.391 . S
C4583 C4582 1.386 . S
C4583 C4587 1.393 . S
C4584 H4573 0.950 . S
C4584 C4582 1.391 . S
C4584 C4585 1.400 . S
C4585 C4579 1.491 . S
C4585 C4584 1.400 . S
C4585 C4586 1.398 . S
C4586 H4574 0.950 . S
C4586 C4585 1.398 . S
C4586 C4587 1.391 . S
C4587 H4575 0.950 . S
C4587 C4583 1.393 . S
C4587 C4586 1.391 . S
H4588 C4596 0.950 . S
H4589 C4601 0.950 . S
H4590 C4598 0.950 . S
H4591 C4600 0.950 . S
H4592 C4602 0.950 . S
H4593 C4604 0.950 . S
H4594 C4606 0.950 . S
H4595 C4607 0.950 . S
C4596 H4588 0.950 . S
C4596 C4597 1.386 . S
C4596 C4598 1.391 . S
C4597 C4596 1.386 . S
C4597 C4601 1.393 . S
C4598 H4590 0.950 . S
C4598 C4596 1.391 . S
C4598 C4599 1.400 . S
C4599 C4598 1.400 . S
C4599 C4600 1.398 . S
C4599 C4605 1.491 . S
C4600 H4591 0.950 . S
C4600 C4599 1.398 . S
C4600 C4601 1.391 . S
C4601 H4589 0.950 . S
C4601 C4597 1.393 . S
C4601 C4600 1.391 . S
C4602 H4592 0.950 . S
C4602 C4603 1.386 . S
C4602 C4604 1.391 . S
C4603 C4602 1.386 . S
C4603 C4607 1.393 . S
C4604 H4593 0.950 . S
C4604 C4602 1.391 . S
C4604 C4605 1.400 . S
C4605 C4599 1.491 . S
C4605 C4604 1.400 . S
C4605 C4606 1.398 . S
C4606 H4594 0.950 . S
C4606 C4605 1.398 . S
C4606 C4607 1.391 . S
C4607 H4595 0.950 . S
C4607 C4603 1.393 . S
C4607 C4606 1.391 . S
H4608 C4616 0.950 . S
H4609 C4621 0.950 . S
H4610 C4618 0.950 . S
H4611 C4620 0.950 . S
H4612 C4622 0.950 . S
H4613 C4624 0.950 . S
H4614 C4626 0.950 . S
H4615 C4627 0.950 . S
C4616 H4608 0.950 . S
C4616 C4617 1.386 . S
C4616 C4618 1.391 . S
C4617 C4616 1.386 . S
C4617 C4621 1.393 . S
C4618 H4610 0.950 . S
C4618 C4616 1.391 . S
C4618 C4619 1.400 . S
C4619 C4618 1.400 . S
C4619 C4620 1.398 . S
C4619 C4625 1.491 . S
C4620 H4611 0.950 . S
C4620 C4619 1.398 . S
C4620 C4621 1.391 . S
C4621 H4609 0.950 . S
C4621 C4617 1.393 . S
C4621 C4620 1.391 . S
C4622 H4612 0.950 . S
C4622 C4623 1.386 . S
C4622 C4624 1.391 . S
C4623 C4622 1.386 . S
C4623 C4627 1.393 . S
C4624 H4613 0.950 . S
C4624 C4622 1.391 . S
C4624 C4625 1.400 . S
C4625 C4619 1.491 . S
C4625 C4624 1.400 . S
C4625 C4626 1.398 . S
C4626 H4614 0.950 . S
C4626 C4625 1.398 . S
C4626 C4627 1.391 . S
C4627 H4615 0.950 . S
C4627 C4623 1.393 . S
C4627 C4626 1.391 . S
H4628 C4636 0.950 . S
H4629 C4641 0.950 . S
H4630 C4638 0.950 . S
H4631 C4640 0.950 . S
H4632 C4642 0.950 . S
H4633 C4644 0.950 . S
H4634 C4646 0.950 . S
H4635 C4647 0.950 . S
C4636 H4628 0.950 . S
C4636 C4637 1.386 . S
C4636 C4638 1.391 . S
C4637 C4636 1.386 . S
C4637 C4641 1.393 . S
C4638 H4630 0.950 . S
C4638 C4636 1.391 . S
C4638 C4639 1.400 . S
C4639 C4638 1.400 . S
C4639 C4640 1.398 . S
C4639 C4645 1.491 . S
C4640 H4631 0.950 . S
C4640 C4639 1.398 . S
C4640 C4641 1.391 . S
C4641 H4629 0.950 . S
C4641 C4637 1.393 . S
C4641 C4640 1.391 . S
C4642 H4632 0.950 . S
C4642 C4643 1.386 . S
C4642 C4644 1.391 . S
C4643 C4642 1.386 . S
C4643 C4647 1.393 . S
C4644 H4633 0.950 . S
C4644 C4642 1.391 . S
C4644 C4645 1.400 . S
C4645 C4639 1.491 . S
C4645 C4644 1.400 . S
C4645 C4646 1.398 . S
C4646 H4634 0.950 . S
C4646 C4645 1.398 . S
C4646 C4647 1.391 . S
C4647 H4635 0.950 . S
C4647 C4643 1.393 . S
C4647 C4646 1.391 . S
H4648 C4656 0.950 . S
H4649 C4661 0.950 . S
H4650 C4658 0.950 . S
H4651 C4660 0.950 . S
H4652 C4662 0.950 . S
H4653 C4664 0.950 . S
H4654 C4666 0.950 . S
H4655 C4667 0.950 . S
C4656 H4648 0.950 . S
C4656 C4657 1.386 . S
C4656 C4658 1.391 . S
C4657 C4656 1.386 . S
C4657 C4661 1.393 . S
C4658 H4650 0.950 . S
C4658 C4656 1.391 . S
C4658 C4659 1.400 . S
C4659 C4658 1.400 . S
C4659 C4660 1.398 . S
C4659 C4665 1.491 . S
C4660 H4651 0.950 . S
C4660 C4659 1.398 . S
C4660 C4661 1.391 . S
C4661 H4649 0.950 . S
C4661 C4657 1.393 . S
C4661 C4660 1.391 . S
C4662 H4652 0.950 . S
C4662 C4663 1.386 . S
C4662 C4664 1.391 . S
C4663 C4662 1.386 . S
C4663 C4667 1.393 . S
C4664 H4653 0.950 . S
C4664 C4662 1.391 . S
C4664 C4665 1.400 . S
C4665 C4659 1.491 . S
C4665 C4664 1.400 . S
C4665 C4666 1.398 . S
C4666 H4654 0.950 . S
C4666 C4665 1.398 . S
C4666 C4667 1.391 . S
C4667 H4655 0.950 . S
C4667 C4663 1.393 . S
C4667 C4666 1.391 . S
H4668 C4676 0.950 . S
H4669 C4681 0.950 . S
H4670 C4678 0.950 . S
H4671 C4680 0.950 . S
H4672 C4682 0.950 . S
H4673 C4684 0.950 . S
H4674 C4686 0.950 . S
H4675 C4687 0.950 . S
C4676 H4668 0.950 . S
C4676 C4677 1.386 . S
C4676 C4678 1.391 . S
C4677 C4676 1.386 . S
C4677 C4681 1.393 . S
C4678 H4670 0.950 . S
C4678 C4676 1.391 . S
C4678 C4679 1.400 . S
C4679 C4678 1.400 . S
C4679 C4680 1.398 . S
C4679 C4685 1.491 . S
C4680 H4671 0.950 . S
C4680 C4679 1.398 . S
C4680 C4681 1.391 . S
C4681 H4669 0.950 . S
C4681 C4677 1.393 . S
C4681 C4680 1.391 . S
C4682 H4672 0.950 . S
C4682 C4683 1.386 . S
C4682 C4684 1.391 . S
C4683 C4682 1.386 . S
C4683 C4687 1.393 . S
C4684 H4673 0.950 . S
C4684 C4682 1.391 . S
C4684 C4685 1.400 . S
C4685 C4679 1.491 . S
C4685 C4684 1.400 . S
C4685 C4686 1.398 . S
C4686 H4674 0.950 . S
C4686 C4685 1.398 . S
C4686 C4687 1.391 . S
C4687 H4675 0.950 . S
C4687 C4683 1.393 . S
C4687 C4686 1.391 . S
H4688 C4696 0.950 . S
H4689 C4701 0.950 . S
H4690 C4698 0.950 . S
H4691 C4700 0.950 . S
H4692 C4702 0.950 . S
H4693 C4704 0.950 . S
H4694 C4706 0.950 . S
H4695 C4707 0.950 . S
C4696 H4688 0.950 . S
C4696 C4697 1.386 . S
C4696 C4698 1.391 . S
C4697 C4696 1.386 . S
C4697 C4701 1.393 . S
C4698 H4690 0.950 . S
C4698 C4696 1.391 . S
C4698 C4699 1.400 . S
C4699 C4698 1.400 . S
C4699 C4700 1.398 . S
C4699 C4705 1.491 . S
C4700 H4691 0.950 . S
C4700 C4699 1.398 . S
C4700 C4701 1.391 . S
C4701 H4689 0.950 . S
C4701 C4697 1.393 . S
C4701 C4700 1.391 . S
C4702 H4692 0.950 . S
C4702 C4703 1.386 . S
C4702 C4704 1.391 . S
C4703 C4702 1.386 . S
C4703 C4707 1.393 . S
C4704 H4693 0.950 . S
C4704 C4702 1.391 . S
C4704 C4705 1.400 . S
C4705 C4699 1.491 . S
C4705 C4704 1.400 . S
C4705 C4706 1.398 . S
C4706 H4694 0.950 . S
C4706 C4705 1.398 . S
C4706 C4707 1.391 . S
C4707 H4695 0.950 . S
C4707 C4703 1.393 . S
C4707 C4706 1.391 . S
H4708 C4716 0.950 . S
H4709 C4721 0.950 . S
H4710 C4718 0.950 . S
H4711 C4720 0.950 . S
H4712 C4722 0.950 . S
H4713 C4724 0.950 . S
H4714 C4726 0.950 . S
H4715 C4727 0.950 . S
C4716 H4708 0.950 . S
C4716 C4717 1.386 . S
C4716 C4718 1.391 . S
C4717 C4716 1.386 . S
C4717 C4721 1.393 . S
C4718 H4710 0.950 . S
C4718 C4716 1.391 . S
C4718 C4719 1.400 . S
C4719 C4718 1.400 . S
C4719 C4720 1.398 . S
C4719 C4725 1.491 . S
C4720 H4711 0.950 . S
C4720 C4719 1.398 . S
C4720 C4721 1.391 . S
C4721 H4709 0.950 . S
C4721 C4717 1.393 . S
C4721 C4720 1.391 . S
C4722 H4712 0.950 . S
C4722 C4723 1.386 . S
C4722 C4724 1.391 . S
C4723 C4722 1.386 . S
C4723 C4727 1.393 . S
C4724 H4713 0.950 . S
C4724 C4722 1.391 . S
C4724 C4725 1.400 . S
C4725 C4719 1.491 . S
C4725 C4724 1.400 . S
C4725 C4726 1.398 . S
C4726 H4714 0.950 . S
C4726 C4725 1.398 . S
C4726 C4727 1.391 . S
C4727 H4715 0.950 . S
C4727 C4723 1.393 . S
C4727 C4726 1.391 . S
H4728 C4736 0.950 . S
H4729 C4741 0.950 . S
H4730 C4738 0.950 . S
H4731 C4740 0.950 . S
H4732 C4742 0.950 . S
H4733 C4744 0.950 . S
H4734 C4746 0.950 . S
H4735 C4747 0.950 . S
C4736 H4728 0.950 . S
C4736 C4737 1.386 . S
C4736 C4738 1.391 . S
C4737 C4736 1.386 . S
C4737 C4741 1.393 . S
C4738 H4730 0.950 . S
C4738 C4736 1.391 . S
C4738 C4739 1.400 . S
C4739 C4738 1.400 . S
C4739 C4740 1.398 . S
C4739 C4745 1.491 . S
C4740 H4731 0.950 . S
C4740 C4739 1.398 . S
C4740 C4741 1.391 . S
C4741 H4729 0.950 . S
C4741 C4737 1.393 . S
C4741 C4740 1.391 . S
C4742 H4732 0.950 . S
C4742 C4743 1.386 . S
C4742 C4744 1.391 . S
C4743 C4742 1.386 . S
C4743 C4747 1.393 . S
C4744 H4733 0.950 . S
C4744 C4742 1.391 . S
C4744 C4745 1.400 . S
C4745 C4739 1.491 . S
C4745 C4744 1.400 . S
C4745 C4746 1.398 . S
C4746 H4734 0.950 . S
C4746 C4745 1.398 . S
C4746 C4747 1.391 . S
C4747 H4735 0.950 . S
C4747 C4743 1.393 . S
C4747 C4746 1.391 . S
H4748 C4756 0.950 . S
H4749 C4761 0.950 . S
H4750 C4758 0.950 . S
H4751 C4760 0.950 . S
H4752 C4762 0.950 . S
H4753 C4764 0.950 . S
H4754 C4766 0.950 . S
H4755 C4767 0.950 . S
C4756 H4748 0.950 . S
C4756 C4757 1.386 . S
C4756 C4758 1.391 . S
C4757 C4756 1.386 . S
C4757 C4761 1.393 . S
C4758 H4750 0.950 . S
C4758 C4756 1.391 . S
C4758 C4759 1.400 . S
C4759 C4758 1.400 . S
C4759 C4760 1.398 . S
C4759 C4765 1.491 . S
C4760 H4751 0.950 . S
C4760 C4759 1.398 . S
C4760 C4761 1.391 . S
C4761 H4749 0.950 . S
C4761 C4757 1.393 . S
C4761 C4760 1.391 . S
C4762 H4752 0.950 . S
C4762 C4763 1.386 . S
C4762 C4764 1.391 . S
C4763 C4762 1.386 . S
C4763 C4767 1.393 . S
C4764 H4753 0.950 . S
C4764 C4762 1.391 . S
C4764 C4765 1.400 . S
C4765 C4759 1.491 . S
C4765 C4764 1.400 . S
C4765 C4766 1.398 . S
C4766 H4754 0.950 . S
C4766 C4765 1.398 . S
C4766 C4767 1.391 . S
C4767 H4755 0.950 . S
C4767 C4763 1.393 . S
C4767 C4766 1.391 . S
H4768 C4776 0.950 . S
H4769 C4781 0.950 . S
H4770 C4778 0.950 . S
H4771 C4780 0.950 . S
H4772 C4782 0.950 . S
H4773 C4784 0.950 . S
H4774 C4786 0.950 . S
H4775 C4787 0.950 . S
C4776 H4768 0.950 . S
C4776 C4777 1.386 . S
C4776 C4778 1.391 . S
C4777 C4776 1.386 . S
C4777 C4781 1.393 . S
C4778 H4770 0.950 . S
C4778 C4776 1.391 . S
C4778 C4779 1.400 . S
C4779 C4778 1.400 . S
C4779 C4780 1.398 . S
C4779 C4785 1.491 . S
C4780 H4771 0.950 . S
C4780 C4779 1.398 . S
C4780 C4781 1.391 . S
C4781 H4769 0.950 . S
C4781 C4777 1.393 . S
C4781 C4780 1.391 . S
C4782 H4772 0.950 . S
C4782 C4783 1.386 . S
C4782 C4784 1.391 . S
C4783 C4782 1.386 . S
C4783 C4787 1.393 . S
C4784 H4773 0.950 . S
C4784 C4782 1.391 . S
C4784 C4785 1.400 . S
C4785 C4779 1.491 . S
C4785 C4784 1.400 . S
C4785 C4786 1.398 . S
C4786 H4774 0.950 . S
C4786 C4785 1.398 . S
C4786 C4787 1.391 . S
C4787 H4775 0.950 . S
C4787 C4783 1.393 . S
C4787 C4786 1.391 . S
H4788 C4796 0.950 . S
H4789 C4801 0.950 . S
H4790 C4798 0.950 . S
H4791 C4800 0.950 . S
H4792 C4802 0.950 . S
H4793 C4804 0.950 . S
H4794 C4806 0.950 . S
H4795 C4807 0.950 . S
C4796 H4788 0.950 . S
C4796 C4797 1.386 . S
C4796 C4798 1.391 . S
C4797 C4796 1.386 . S
C4797 C4801 1.393 . S
C4798 H4790 0.950 . S
C4798 C4796 1.391 . S
C4798 C4799 1.400 . S
C4799 C4798 1.400 . S
C4799 C4800 1.398 . S
C4799 C4805 1.491 . S
C4800 H4791 0.950 . S
C4800 C4799 1.398 . S
C4800 C4801 1.391 . S
C4801 H4789 0.950 . S
C4801 C4797 1.393 . S
C4801 C4800 1.391 . S
C4802 H4792 0.950 . S
C4802 C4803 1.386 . S
C4802 C4804 1.391 . S
C4803 C4802 1.386 . S
C4803 C4807 1.393 . S
C4804 H4793 0.950 . S
C4804 C4802 1.391 . S
C4804 C4805 1.400 . S
C4805 C4799 1.491 . S
C4805 C4804 1.400 . S
C4805 C4806 1.398 . S
C4806 H4794 0.950 . S
C4806 C4805 1.398 . S
C4806 C4807 1.391 . S
C4807 H4795 0.950 . S
C4807 C4803 1.393 . S
C4807 C4806 1.391 . S
H4808 C4816 0.950 . S
H4809 C4821 0.950 . S
H4810 C4818 0.950 . S
H4811 C4820 0.950 . S
H4812 C4822 0.950 . S
H4813 C4824 0.950 . S
H4814 C4826 0.950 . S
H4815 C4827 0.950 . S
C4816 H4808 0.950 . S
C4816 C4817 1.386 . S
C4816 C4818 1.391 . S
C4817 C4816 1.386 . S
C4817 C4821 1.393 . S
C4818 H4810 0.950 . S
C4818 C4816 1.391 . S
C4818 C4819 1.400 . S
C4819 C4818 1.400 . S
C4819 C4820 1.398 . S
C4819 C4825 1.491 . S
C4820 H4811 0.950 . S
C4820 C4819 1.398 . S
C4820 C4821 1.391 . S
C4821 H4809 0.950 . S
C4821 C4817 1.393 . S
C4821 C4820 1.391 . S
C4822 H4812 0.950 . S
C4822 C4823 1.386 . S
C4822 C4824 1.391 . S
C4823 C4822 1.386 . S
C4823 C4827 1.393 . S
C4824 H4813 0.950 . S
C4824 C4822 1.391 . S
C4824 C4825 1.400 . S
C4825 C4819 1.491 . S
C4825 C4824 1.400 . S
C4825 C4826 1.398 . S
C4826 H4814 0.950 . S
C4826 C4825 1.398 . S
C4826 C4827 1.391 . S
C4827 H4815 0.950 . S
C4827 C4823 1.393 . S
C4827 C4826 1.391 . S
H4828 C4836 0.950 . S
H4829 C4841 0.950 . S
H4830 C4838 0.950 . S
H4831 C4840 0.950 . S
H4832 C4842 0.950 . S
H4833 C4844 0.950 . S
H4834 C4846 0.950 . S
H4835 C4847 0.950 . S
C4836 H4828 0.950 . S
C4836 C4837 1.386 . S
C4836 C4838 1.391 . S
C4837 C4836 1.386 . S
C4837 C4841 1.393 . S
C4838 H4830 0.950 . S
C4838 C4836 1.391 . S
C4838 C4839 1.400 . S
C4839 C4838 1.400 . S
C4839 C4840 1.398 . S
C4839 C4845 1.491 . S
C4840 H4831 0.950 . S
C4840 C4839 1.398 . S
C4840 C4841 1.391 . S
C4841 H4829 0.950 . S
C4841 C4837 1.393 . S
C4841 C4840 1.391 . S
C4842 H4832 0.950 . S
C4842 C4843 1.386 . S
C4842 C4844 1.391 . S
C4843 C4842 1.386 . S
C4843 C4847 1.393 . S
C4844 H4833 0.950 . S
C4844 C4842 1.391 . S
C4844 C4845 1.400 . S
C4845 C4839 1.491 . S
C4845 C4844 1.400 . S
C4845 C4846 1.398 . S
C4846 H4834 0.950 . S
C4846 C4845 1.398 . S
C4846 C4847 1.391 . S
C4847 H4835 0.950 . S
C4847 C4843 1.393 . S
C4847 C4846 1.391 . S
H4848 C4856 0.950 . S
H4849 C4861 0.950 . S
H4850 C4858 0.950 . S
H4851 C4860 0.950 . S
H4852 C4862 0.950 . S
H4853 C4864 0.950 . S
H4854 C4866 0.950 . S
H4855 C4867 0.950 . S
C4856 H4848 0.950 . S
C4856 C4857 1.386 . S
C4856 C4858 1.391 . S
C4857 C4856 1.386 . S
C4857 C4861 1.393 . S
C4858 H4850 0.950 . S
C4858 C4856 1.391 . S
C4858 C4859 1.400 . S
C4859 C4858 1.400 . S
C4859 C4860 1.398 . S
C4859 C4865 1.491 . S
C4860 H4851 0.950 . S
C4860 C4859 1.398 . S
C4860 C4861 1.391 . S
C4861 H4849 0.950 . S
C4861 C4857 1.393 . S
C4861 C4860 1.391 . S
C4862 H4852 0.950 . S
C4862 C4863 1.386 . S
C4862 C4864 1.391 . S
C4863 C4862 1.386 . S
C4863 C4867 1.393 . S
C4864 H4853 0.950 . S
C4864 C4862 1.391 . S
C4864 C4865 1.400 . S
C4865 C4859 1.491 . S
C4865 C4864 1.400 . S
C4865 C4866 1.398 . S
C4866 H4854 0.950 . S
C4866 C4865 1.398 . S
C4866 C4867 1.391 . S
C4867 H4855 0.950 . S
C4867 C4863 1.393 . S
C4867 C4866 1.391 . S
H4868 C4876 0.950 . S
H4869 C4881 0.950 . S
H4870 C4878 0.950 . S
H4871 C4880 0.950 . S
H4872 C4882 0.950 . S
H4873 C4884 0.950 . S
H4874 C4886 0.950 . S
H4875 C4887 0.950 . S
C4876 H4868 0.950 . S
C4876 C4877 1.386 . S
C4876 C4878 1.391 . S
C4877 C4876 1.386 . S
C4877 C4881 1.393 . S
C4878 H4870 0.950 . S
C4878 C4876 1.391 . S
C4878 C4879 1.400 . S
C4879 C4878 1.400 . S
C4879 C4880 1.398 . S
C4879 C4885 1.491 . S
C4880 H4871 0.950 . S
C4880 C4879 1.398 . S
C4880 C4881 1.391 . S
C4881 H4869 0.950 . S
C4881 C4877 1.393 . S
C4881 C4880 1.391 . S
C4882 H4872 0.950 . S
C4882 C4883 1.386 . S
C4882 C4884 1.391 . S
C4883 C4882 1.386 . S
C4883 C4887 1.393 . S
C4884 H4873 0.950 . S
C4884 C4882 1.391 . S
C4884 C4885 1.400 . S
C4885 C4879 1.491 . S
C4885 C4884 1.400 . S
C4885 C4886 1.398 . S
C4886 H4874 0.950 . S
C4886 C4885 1.398 . S
C4886 C4887 1.391 . S
C4887 H4875 0.950 . S
C4887 C4883 1.393 . S
C4887 C4886 1.391 . S
H4888 C4896 0.950 . S
H4889 C4901 0.950 . S
H4890 C4898 0.950 . S
H4891 C4900 0.950 . S
H4892 C4902 0.950 . S
H4893 C4904 0.950 . S
H4894 C4906 0.950 . S
H4895 C4907 0.950 . S
C4896 H4888 0.950 . S
C4896 C4897 1.386 . S
C4896 C4898 1.391 . S
C4897 C4896 1.386 . S
C4897 C4901 1.393 . S
C4898 H4890 0.950 . S
C4898 C4896 1.391 . S
C4898 C4899 1.400 . S
C4899 C4898 1.400 . S
C4899 C4900 1.398 . S
C4899 C4905 1.491 . S
C4900 H4891 0.950 . S
C4900 C4899 1.398 . S
C4900 C4901 1.391 . S
C4901 H4889 0.950 . S
C4901 C4897 1.393 . S
C4901 C4900 1.391 . S
C4902 H4892 0.950 . S
C4902 C4903 1.386 . S
C4902 C4904 1.391 . S
C4903 C4902 1.386 . S
C4903 C4907 1.393 . S
C4904 H4893 0.950 . S
C4904 C4902 1.391 . S
C4904 C4905 1.400 . S
C4905 C4899 1.491 . S
C4905 C4904 1.400 . S
C4905 C4906 1.398 . S
C4906 H4894 0.950 . S
C4906 C4905 1.398 . S
C4906 C4907 1.391 . S
C4907 H4895 0.950 . S
C4907 C4903 1.393 . S
C4907 C4906 1.391 . S
H4908 C4916 0.950 . S
H4909 C4921 0.950 . S
H4910 C4918 0.950 . S
H4911 C4920 0.950 . S
H4912 C4922 0.950 . S
H4913 C4924 0.950 . S
H4914 C4926 0.950 . S
H4915 C4927 0.950 . S
C4916 H4908 0.950 . S
C4916 C4917 1.386 . S
C4916 C4918 1.391 . S
C4917 C4916 1.386 . S
C4917 C4921 1.393 . S
C4918 H4910 0.950 . S
C4918 C4916 1.391 . S
C4918 C4919 1.400 . S
C4919 C4918 1.400 . S
C4919 C4920 1.398 . S
C4919 C4925 1.491 . S
C4920 H4911 0.950 . S
C4920 C4919 1.398 . S
C4920 C4921 1.391 . S
C4921 H4909 0.950 . S
C4921 C4917 1.393 . S
C4921 C4920 1.391 . S
C4922 H4912 0.950 . S
C4922 C4923 1.386 . S
C4922 C4924 1.391 . S
C4923 C4922 1.386 . S
C4923 C4927 1.393 . S
C4924 H4913 0.950 . S
C4924 C4922 1.391 . S
C4924 C4925 1.400 . S
C4925 C4919 1.491 . S
C4925 C4924 1.400 . S
C4925 C4926 1.398 . S
C4926 H4914 0.950 . S
C4926 C4925 1.398 . S
C4926 C4927 1.391 . S
C4927 H4915 0.950 . S
C4927 C4923 1.393 . S
C4927 C4926 1.391 . S
H4928 C4936 0.950 . S
H4929 C4941 0.950 . S
H4930 C4938 0.950 . S
H4931 C4940 0.950 . S
H4932 C4942 0.950 . S
H4933 C4944 0.950 . S
H4934 C4946 0.950 . S
H4935 C4947 0.950 . S
C4936 H4928 0.950 . S
C4936 C4937 1.386 . S
C4936 C4938 1.391 . S
C4937 C4936 1.386 . S
C4937 C4941 1.393 . S
C4938 H4930 0.950 . S
C4938 C4936 1.391 . S
C4938 C4939 1.400 . S
C4939 C4938 1.400 . S
C4939 C4940 1.398 . S
C4939 C4945 1.491 . S
C4940 H4931 0.950 . S
C4940 C4939 1.398 . S
C4940 C4941 1.391 . S
C4941 H4929 0.950 . S
C4941 C4937 1.393 . S
C4941 C4940 1.391 . S
C4942 H4932 0.950 . S
C4942 C4943 1.386 . S
C4942 C4944 1.391 . S
C4943 C4942 1.386 . S
C4943 C4947 1.393 . S
C4944 H4933 0.950 . S
C4944 C4942 1.391 . S
C4944 C4945 1.400 . S
C4945 C4939 1.491 . S
C4945 C4944 1.400 . S
C4945 C4946 1.398 . S
C4946 H4934 0.950 . S
C4946 C4945 1.398 . S
C4946 C4947 1.391 . S
C4947 H4935 0.950 . S
C4947 C4943 1.393 . S
C4947 C4946 1.391 . S
H4948 C4956 0.950 . S
H4949 C4961 0.950 . S
H4950 C4958 0.950 . S
H4951 C4960 0.950 . S
H4952 C4962 0.950 . S
H4953 C4964 0.950 . S
H4954 C4966 0.950 . S
H4955 C4967 0.950 . S
C4956 H4948 0.950 . S
C4956 C4957 1.386 . S
C4956 C4958 1.391 . S
C4957 C4956 1.386 . S
C4957 C4961 1.393 . S
C4958 H4950 0.950 . S
C4958 C4956 1.391 . S
C4958 C4959 1.400 . S
C4959 C4958 1.400 . S
C4959 C4960 1.398 . S
C4959 C4965 1.491 . S
C4960 H4951 0.950 . S
C4960 C4959 1.398 . S
C4960 C4961 1.391 . S
C4961 H4949 0.950 . S
C4961 C4957 1.393 . S
C4961 C4960 1.391 . S
C4962 H4952 0.950 . S
C4962 C4963 1.386 . S
C4962 C4964 1.391 . S
C4963 C4962 1.386 . S
C4963 C4967 1.393 . S
C4964 H4953 0.950 . S
C4964 C4962 1.391 . S
C4964 C4965 1.400 . S
C4965 C4959 1.491 . S
C4965 C4964 1.400 . S
C4965 C4966 1.398 . S
C4966 H4954 0.950 . S
C4966 C4965 1.398 . S
C4966 C4967 1.391 . S
C4967 H4955 0.950 . S
C4967 C4963 1.393 . S
C4967 C4966 1.391 . S
H4968 C4976 0.950 . S
H4969 C4981 0.950 . S
H4970 C4978 0.950 . S
H4971 C4980 0.950 . S
H4972 C4982 0.950 . S
H4973 C4984 0.950 . S
H4974 C4986 0.950 . S
H4975 C4987 0.950 . S
C4976 H4968 0.950 . S
C4976 C4977 1.386 . S
C4976 C4978 1.391 . S
C4977 C4976 1.386 . S
C4977 C4981 1.393 . S
C4978 H4970 0.950 . S
C4978 C4976 1.391 . S
C4978 C4979 1.400 . S
C4979 C4978 1.400 . S
C4979 C4980 1.398 . S
C4979 C4985 1.491 . S
C4980 H4971 0.950 . S
C4980 C4979 1.398 . S
C4980 C4981 1.391 . S
C4981 H4969 0.950 . S
C4981 C4977 1.393 . S
C4981 C4980 1.391 . S
C4982 H4972 0.950 . S
C4982 C4983 1.386 . S
C4982 C4984 1.391 . S
C4983 C4982 1.386 . S
C4983 C4987 1.393 . S
C4984 H4973 0.950 . S
C4984 C4982 1.391 . S
C4984 C4985 1.400 . S
C4985 C4979 1.491 . S
C4985 C4984 1.400 . S
C4985 C4986 1.398 . S
C4986 H4974 0.950 . S
C4986 C4985 1.398 . S
C4986 C4987 1.391 . S
C4987 H4975 0.950 . S
C4987 C4983 1.393 . S
C4987 C4986 1.391 . S
H4988 C4996 0.950 . S
H4989 C5001 0.950 . S
H4990 C4998 0.950 . S
H4991 C5000 0.950 . S
H4992 C5002 0.950 . S
H4993 C5004 0.950 . S
H4994 C5006 0.950 . S
H4995 C5007 0.950 . S
C4996 H4988 0.950 . S
C4996 C4997 1.386 . S
C4996 C4998 1.391 . S
C4997 C4996 1.386 . S
C4997 C5001 1.393 . S
C4998 H4990 0.950 . S
C4998 C4996 1.391 . S
C4998 C4999 1.400 . S
C4999 C4998 1.400 . S
C4999 C5000 1.398 . S
C4999 C5005 1.491 . S
C5000 H4991 0.950 . S
C5000 C4999 1.398 . S
C5000 C5001 1.391 . S
C5001 H4989 0.950 . S
C5001 C4997 1.393 . S
C5001 C5000 1.391 . S
C5002 H4992 0.950 . S
C5002 C5003 1.386 . S
C5002 C5004 1.391 . S
C5003 C5002 1.386 . S
C5003 C5007 1.393 . S
C5004 H4993 0.950 . S
C5004 C5002 1.391 . S
C5004 C5005 1.400 . S
C5005 C4999 1.491 . S
C5005 C5004 1.400 . S
C5005 C5006 1.398 . S
C5006 H4994 0.950 . S
C5006 C5005 1.398 . S
C5006 C5007 1.391 . S
C5007 H4995 0.950 . S
C5007 C5003 1.393 . S
C5007 C5006 1.391 . S
H5008 C5016 0.950 . S
H5009 C5021 0.950 . S
H5010 C5018 0.950 . S
H5011 C5020 0.950 . S
H5012 C5022 0.950 . S
H5013 C5024 0.950 . S
H5014 C5026 0.950 . S
H5015 C5027 0.950 . S
C5016 H5008 0.950 . S
C5016 C5017 1.386 . S
C5016 C5018 1.391 . S
C5017 C5016 1.386 . S
C5017 C5021 1.393 . S
C5018 H5010 0.950 . S
C5018 C5016 1.391 . S
C5018 C5019 1.400 . S
C5019 C5018 1.400 . S
C5019 C5020 1.398 . S
C5019 C5025 1.491 . S
C5020 H5011 0.950 . S
C5020 C5019 1.398 . S
C5020 C5021 1.391 . S
C5021 H5009 0.950 . S
C5021 C5017 1.393 . S
C5021 C5020 1.391 . S
C5022 H5012 0.950 . S
C5022 C5023 1.386 . S
C5022 C5024 1.391 . S
C5023 C5022 1.386 . S
C5023 C5027 1.393 . S
C5024 H5013 0.950 . S
C5024 C5022 1.391 . S
C5024 C5025 1.400 . S
C5025 C5019 1.491 . S
C5025 C5024 1.400 . S
C5025 C5026 1.398 . S
C5026 H5014 0.950 . S
C5026 C5025 1.398 . S
C5026 C5027 1.391 . S
C5027 H5015 0.950 . S
C5027 C5023 1.393 . S
C5027 C5026 1.391 . S
H5028 C5036 0.950 . S
H5029 C5041 0.950 . S
H5030 C5038 0.950 . S
H5031 C5040 0.950 . S
H5032 C5042 0.950 . S
H5033 C5044 0.950 . S
H5034 C5046 0.950 . S
H5035 C5047 0.950 . S
C5036 H5028 0.950 . S
C5036 C5037 1.386 . S
C5036 C5038 1.391 . S
C5037 C5036 1.386 . S
C5037 C5041 1.393 . S
C5038 H5030 0.950 . S
C5038 C5036 1.391 . S
C5038 C5039 1.400 . S
C5039 C5038 1.400 . S
C5039 C5040 1.398 . S
C5039 C5045 1.491 . S
C5040 H5031 0.950 . S
C5040 C5039 1.398 . S
C5040 C5041 1.391 . S
C5041 H5029 0.950 . S
C5041 C5037 1.393 . S
C5041 C5040 1.391 . S
C5042 H5032 0.950 . S
C5042 C5043 1.386 . S
C5042 C5044 1.391 . S
C5043 C5042 1.386 . S
C5043 C5047 1.393 . S
C5044 H5033 0.950 . S
C5044 C5042 1.391 . S
C5044 C5045 1.400 . S
C5045 C5039 1.491 . S
C5045 C5044 1.400 . S
C5045 C5046 1.398 . S
C5046 H5034 0.950 . S
C5046 C5045 1.398 . S
C5046 C5047 1.391 . S
C5047 H5035 0.950 . S
C5047 C5043 1.393 . S
C5047 C5046 1.391 . S
H5048 C5056 0.950 . S
H5049 C5061 0.950 . S
H5050 C5058 0.950 . S
H5051 C5060 0.950 . S
H5052 C5062 0.950 . S
H5053 C5064 0.950 . S
H5054 C5066 0.950 . S
H5055 C5067 0.950 . S
C5056 H5048 0.950 . S
C5056 C5057 1.386 . S
C5056 C5058 1.391 . S
C5057 C5056 1.386 . S
C5057 C5061 1.393 . S
C5058 H5050 0.950 . S
C5058 C5056 1.391 . S
C5058 C5059 1.400 . S
C5059 C5058 1.400 . S
C5059 C5060 1.398 . S
C5059 C5065 1.491 . S
C5060 H5051 0.950 . S
C5060 C5059 1.398 . S
C5060 C5061 1.391 . S
C5061 H5049 0.950 . S
C5061 C5057 1.393 . S
C5061 C5060 1.391 . S
C5062 H5052 0.950 . S
C5062 C5063 1.386 . S
C5062 C5064 1.391 . S
C5063 C5062 1.386 . S
C5063 C5067 1.393 . S
C5064 H5053 0.950 . S
C5064 C5062 1.391 . S
C5064 C5065 1.400 . S
C5065 C5059 1.491 . S
C5065 C5064 1.400 . S
C5065 C5066 1.398 . S
C5066 H5054 0.950 . S
C5066 C5065 1.398 . S
C5066 C5067 1.391 . S
C5067 H5055 0.950 . S
C5067 C5063 1.393 . S
C5067 C5066 1.391 . S
H5068 C5076 0.950 . S
H5069 C5081 0.950 . S
H5070 C5078 0.950 . S
H5071 C5080 0.950 . S
H5072 C5082 0.950 . S
H5073 C5084 0.950 . S
H5074 C5086 0.950 . S
H5075 C5087 0.950 . S
C5076 H5068 0.950 . S
C5076 C5077 1.386 . S
C5076 C5078 1.391 . S
C5077 C5076 1.386 . S
C5077 C5081 1.393 . S
C5078 H5070 0.950 . S
C5078 C5076 1.391 . S
C5078 C5079 1.400 . S
C5079 C5078 1.400 . S
C5079 C5080 1.398 . S
C5079 C5085 1.491 . S
C5080 H5071 0.950 . S
C5080 C5079 1.398 . S
C5080 C5081 1.391 . S
C5081 H5069 0.950 . S
C5081 C5077 1.393 . S
C5081 C5080 1.391 . S
C5082 H5072 0.950 . S
C5082 C5083 1.386 . S
C5082 C5084 1.391 . S
C5083 C5082 1.386 . S
C5083 C5087 1.393 . S
C5084 H5073 0.950 . S
C5084 C5082 1.391 . S
C5084 C5085 1.400 . S
C5085 C5079 1.491 . S
C5085 C5084 1.400 . S
C5085 C5086 1.398 . S
C5086 H5074 0.950 . S
C5086 C5085 1.398 . S
C5086 C5087 1.391 . S
C5087 H5075 0.950 . S
C5087 C5083 1.393 . S
C5087 C5086 1.391 . S
C1257 C5 1.401 . S
C1263 C120 1.383 . S
C1277 C133 1.400 . S
C1283 C18 1.383 . S
C1297 C29 1.395 . S
C1303 C148 1.387 . S
C1317 C44 1.394 . S
C1323 C107 1.388 . S
C1337 C57 1.387 . S
C1343 C198 1.395 . S
C1357 C159 1.400 . S
C1363 C68 1.388 . S
C1377 C83 1.394 . S
C1383 C172 1.394 . S
C1397 C185 1.386 . S
C1403 C96 1.401 . S
C1417 C237 1.389 . S
C1423 C211 1.393 . S
C1437 C224 1.388 . S
C1443 C913 1.400 . S
C1457 C926 1.387 . S
C1463 C250 1.395 . S
C1477 C263 1.400 . S
C1483 C900 1.384 . S
C1497 C887 1.389 . S
C1503 C276 1.399 . S
C1517 C848 1.398 . S
C1523 C291 1.390 . S
C1537 C304 1.398 . S
C1543 C874 1.390 . S
C1557 C315 1.402 . S
C1563 C434 1.384 . S
C1577 C330 1.383 . S
C1583 C447 1.402 . S
C1597 C458 1.394 . S
C1603 C341 1.394 . S
C1617 C419 1.387 . S
C1623 C356 1.400 . S
C1637 C512 1.400 . S
C1643 C367 1.387 . S
C1657 C380 1.393 . S
C1663 C471 1.396 . S
C1677 C395 1.387 . S
C1683 C486 1.395 . S
C1697 C406 1.383 . S
C1703 C497 1.401 . S
C1717 C525 1.401 . S
C1723 C551 1.386 . S
C1737 C536 1.384 . S
C1743 C1227 1.400 . S
C1757 C1238 1.400 . S
C1763 C562 1.388 . S
C1777 C575 1.402 . S
C1783 C1212 1.384 . S
C1797 C588 1.397 . S
C1803 C1201 1.386 . S
C1817 C603 1.402 . S
C1823 C1160 1.385 . S
C1837 C614 1.385 . S
C1843 C1188 1.398 . S
C1857 C627 1.401 . S
C1863 C744 1.383 . S
C1877 C759 1.394 . S
C1883 C640 1.394 . S
C1897 C770 1.401 . S
C1903 C653 1.383 . S
C1917 C668 1.394 . S
C1923 C731 1.394 . S
C1937 C681 1.383 . S
C1943 C822 1.401 . S
C1957 C694 1.401 . S
C1963 C785 1.383 . S
C1977 C707 1.402 . S
C1983 C796 1.385 . S
C1997 C811 1.390 . S
C2003 C720 1.398 . S
C2017 C837 1.394 . S
C2023 C863 1.394 . S
C2037 C941 1.395 . S
C2043 C1056 1.387 . S
C2057 C952 1.402 . S
C2063 C1069 1.383 . S
C2077 C1082 1.392 . S
C2083 C967 1.397 . S
C2097 C1045 1.392 . S
C2103 C978 1.397 . S
C2117 C991 1.386 . S
C2123 C1134 1.396 . S
C2137 C1095 1.388 . S
C2143 C1004 1.394 . S
C2157 C1108 1.383 . S
C2163 C1019 1.401 . S
C2177 C1121 1.386 . S
C2183 C1032 1.401 . S
C2197 C1147 1.389 . S
C2203 C1175 1.393 . S
C2217 C10 1.467 1_655 S
C2223 C264 1.472 . S
C2237 C23 1.467 . S
C2243 C849 1.473 . S
C2257 C868 1.464 . S
C2263 C30 1.475 . S
C2277 C875 1.443 1_554 S
C2283 C49 1.466 . S
C2297 C62 1.442 1_655 S
C2303 C927 1.466 . S
C2317 C277 1.469 . S
C2323 C69 1.469 . S
C2337 C88 1.468 . S
C2343 C914 1.470 . S
C2357 C101 1.465 . S
C2363 C212 1.443 1_556 S
C2377 C108 1.465 1_565 S
C2383 C199 1.475 . S
C2397 C160 1.466 1_545 S
C2403 C121 1.473 . S
C2417 C134 1.465 1_545 S
C2423 C173 1.475 . S
C2437 C153 1.476 . S
C2443 C186 1.466 1_565 S
C2457 C641 1.470 . S
C2463 C225 1.469 1_554 S
C2477 C654 1.468 1_455 S
C2483 C238 1.474 . S
C2497 C673 1.465 . S
C2503 C251 1.475 . S
C2517 C712 1.465 1_455 S
C2523 C296 1.475 . S
C2537 C309 1.467 . S
C2543 C686 1.472 . S
C2557 C316 1.443 1_455 S
C2563 C576 1.466 . S
C2577 C335 1.466 . S
C2583 C1161 1.476 . S
C2597 C1180 1.476 . S
C2603 C342 1.465 . S
C2617 C1193 1.470 1_556 S
C2623 C361 1.469 . S
C2637 C1239 1.470 . S
C2643 C368 1.472 1_455 S
C2657 C589 1.472 . S
C2663 C381 1.467 . S
C2677 C400 1.468 . S
C2683 C1232 1.471 . S
C2697 C407 1.465 . S
C2703 C530 1.443 1_554 S
C2717 C517 1.474 . S
C2723 C420 1.467 1_545 S
C2737 C439 1.466 . S
C2743 C472 1.474 1_565 S
C2757 C491 1.471 . S
C2763 C452 1.468 1_565 S
C2777 C459 1.470 . S
C2783 C498 1.469 1_545 S
C2797 C953 1.475 . S
C2803 C537 1.467 1_556 S
C2817 C556 1.475 . S
C2823 C972 1.465 1_655 S
C2837 C563 1.465 . S
C2843 C979 1.476 . S
C2857 C608 1.474 . S
C2863 C1024 1.465 1_655 S
C2877 C615 1.465 . S
C2883 C992 1.475 . S
C2897 C628 1.468 . S
C2903 C888 1.471 . S
C2917 C901 1.471 1_556 S
C2923 C699 1.468 . S
C2937 C725 1.471 . S
C2943 C842 1.468 . S
C2957 C823 1.470 . S
C2963 C732 1.469 . S
C2977 C790 1.467 . S
C2983 C745 1.472 . S
C2997 C764 1.464 . S
C3003 C797 1.476 . S
C3017 C771 1.476 . S
C3023 C816 1.464 . S
C3037 C1206 1.469 . S
C3043 C946 1.470 . S
C3057 C1005 1.465 . S
C3063 C1213 1.443 1_554 S
C3077 C1148 1.465 . S
C3083 C1037 1.474 . S
C3097 C1050 1.465 . S
C3103 C1135 1.476 . S
C3117 C1096 1.468 . S
C3123 C1057 1.474 . S
C3137 C1070 1.476 . S
C3143 C1109 1.464 . S
C3157 C1122 1.466 . S
C3163 C1083 1.475 . S
C3177 C3 1.285 . S
C3183 C569 1.245 . S
C3197 C582 1.265 . S
C3203 C16 1.295 . S
C3217 C543 1.290 . S
C3223 C31 1.288 . S
C3237 C42 1.294 . S
C3243 C1174 1.262 . S
C3257 C55 1.296 . S
C3263 C1219 1.303 . S
C3277 C70 1.284 . S
C3283 C1226 1.242 . S
C3297 C1154 1.261 . S
C3303 C81 1.291 . S
C3317 C1245 1.266 . S
C3323 C94 1.295 . S
C3337 C348 1.270 . S
C3343 C109 1.295 . S
C3357 C122 1.286 . S
C3363 C985 1.245 . S
C3377 C322 1.280 . S
C3383 C135 1.287 . S
C3397 C959 1.255 . S
C3403 C146 1.291 . S
C3417 C394 1.267 . S
C3423 C161 1.293 . S
C3437 C174 1.284 . S
C3443 C1031 1.242 . S
C3457 C187 1.295 . S
C3463 C374 1.301 . S
C3477 C200 1.295 . S
C3483 C1011 1.270 . S
C3497 C213 1.295 . S
C3503 C1102 1.267 . S
C3517 C426 1.284 . S
C3523 C226 1.288 . S
C3537 C239 1.287 . S
C3543 C1063 1.253 . S
C3557 C252 1.294 . S
C3563 C446 1.302 . S
C3577 C265 1.296 . S
C3583 C465 1.270 . S
C3597 C278 1.294 . S
C3603 C1128 1.267 . S
C3617 C1141 1.265 . S
C3623 C289 1.292 . S
C3637 C1115 1.247 . S
C3643 C302 1.285 . S
C3657 C257 1.243 . S
C3663 C317 1.285 . S
C3677 C328 1.294 . S
C3683 C270 1.264 . S
C3697 C343 1.289 . S
C3703 C231 1.285 . S
C3717 C354 1.294 . S
C3723 C862 1.268 . S
C3737 C907 1.278 . S
C3743 C369 1.285 . S
C3757 C920 1.245 . S
C3763 C382 1.286 . S
C3777 C393 1.296 . S
C3783 C836 1.270 . S
C3797 C933 1.259 . S
C3803 C408 1.290 . S
C3817 C421 1.284 . S
C3823 C36 1.242 . S
C3837 C667 1.242 . S
C3843 C432 1.284 . S
C3857 C445 1.292 . S
C3863 C4 1.292 . S
C3877 C647 1.244 . S
C3883 C460 1.284 . S
C3897 C473 1.286 . S
C3903 C82 1.245 . S
C3917 C719 1.242 . S
C3923 C484 1.284 . S
C3937 C56 1.293 . S
C3943 C499 1.293 . S
C3957 C693 1.242 . S
C3963 C510 1.284 . S
C3977 C523 1.285 . S
C3983 C784 1.242 . S
C3997 C538 1.284 . S
C4003 C114 1.277 . S
C4017 C751 1.267 . S
C4023 C549 1.294 . S
C4037 C564 1.292 . S
C4043 C140 1.291 . S
C4057 C147 1.243 . S
C4063 C577 1.285 . S
C4077 C810 1.269 . S
C4083 C590 1.296 . S
C4097 C829 1.262 . S
C4103 C601 1.291 . S
C4117 C803 1.245 . S
C4123 C616 1.285 . S
C4137 C629 1.286 . S
C4143 C1187 1.286 . S
C4157 C642 1.292 . S
C4163 C1200 1.258 . S
C4177 C655 1.289 . S
C4183 C1167 1.250 . S
C4197 C550 1.270 . S
C4203 C666 1.296 . S
C4217 C679 1.287 . S
C4223 C595 1.253 . S
C4237 C602 1.270 . S
C4243 C692 1.296 . S
C4257 C524 1.278 . S
C4263 C705 1.285 . S
C4277 C621 1.253 . S
C4283 C718 1.290 . S
C4297 C733 1.295 . S
C4303 C966 1.299 . S
C4317 C355 1.268 . S
C4323 C746 1.294 . S
C4337 C757 1.296 . S
C4343 C940 1.270 . S
C4357 C772 1.286 . S
C4363 C329 1.250 . S
C4377 C783 1.286 . S
C4383 C1018 1.285 . S
C4397 C798 1.289 . S
C4403 C413 1.250 . S
C4417 C998 1.270 . S
C4423 C809 1.296 . S
C4437 C387 1.269 . S
C4443 C824 1.296 . S
C4457 C835 1.284 . S
C4463 C478 1.278 . S
C4477 C850 1.292 . S
C4483 C1044 1.258 . S
C4497 C861 1.293 . S
C4503 C433 1.259 . S
C4517 C1076 1.262 . S
C4523 C876 1.293 . S
C4537 C889 1.292 . S
C4543 C1089 1.264 . S
C4557 C902 1.293 . S
C4563 C504 1.301 . S
C4577 C511 1.268 . S
C4583 C915 1.294 . S
C4597 C928 1.295 . S
C4603 C485 1.269 . S
C4617 C939 1.285 . S
C4623 C881 1.283 . S
C4637 C894 1.250 . S
C4643 C954 1.289 . S
C4657 C855 1.242 . S
C4663 C965 1.284 . S
C4677 C980 1.291 . S
C4683 C244 1.255 . S
C4697 C993 1.288 . S
C4703 C283 1.254 . S
C4717 C1006 1.288 . S
C4723 C290 1.248 . S
C4737 C218 1.304 . S
C4743 C1017 1.295 . S
C4757 C1030 1.286 . S
C4763 C303 1.245 . S
C4777 C1043 1.286 . S
C4783 C660 1.284 . S
C4797 C1058 1.285 . S
C4803 C43 1.246 . S
C4817 C1071 1.295 . S
C4823 C634 1.266 . S
C4837 C1084 1.294 . S
C4843 C17 1.267 . S
C4857 C1097 1.292 . S
C4863 C706 1.299 . S
C4877 C1110 1.289 . S
C4883 C95 1.258 . S
C4897 C1123 1.294 . S
C4903 C680 1.268 . S
C4917 C1136 1.294 . S
C4923 C75 1.262 . S
C4937 C1149 1.295 . S
C4943 C166 1.301 . S
C4957 C1162 1.285 . S
C4963 C738 1.243 . S
C4977 C1173 1.290 . S
C4983 C127 1.254 . S
C4997 C1186 1.296 . S
C5003 C758 1.270 . S
C5017 C1199 1.291 . S
C5023 C777 1.261 . S
C5037 C192 1.303 . S
C5043 C1214 1.295 . S
C5057 C1225 1.287 . S
C5063 C205 1.246 . S
C5077 C1240 1.290 . S
C5083 C179 1.254 . S
