# Generated by pormake.
# Topology snk, (6)-cn, num edge types: 1
# Building blocks:
#     Node 0, Type 0, BuildingBlock: KUMBOL_clean_sbu_0, # of connection points: 6
#     Node 1, Type 0, BuildingBlock: KUMBOL_clean_sbu_0, # of connection points: 6
#     Node 2, Type 0, BuildingBlock: KUMBOL_clean_sbu_0, # of connection points: 6
#     Node 3, Type 0, BuildingBlock: KUMBOL_clean_sbu_0, # of connection points: 6
#     Node 4, Type 0, BuildingBlock: KUMBOL_clean_sbu_0, # of connection points: 6
#     Node 5, Type 0, BuildingBlock: KUMBOL_clean_sbu_0, # of connection points: 6
#     Node 6, Type 0, BuildingBlock: KUMBOL_clean_sbu_0, # of connection points: 6
#     Node 7, Type 0, BuildingBlock: KUMBOL_clean_sbu_0, # of connection points: 6
#     Edge 8, Type (0, 0), BuildingBlock: XIVTED_clean_linker_0, # of connection points: 2
#     Edge 9, Type (0, 0), BuildingBlock: XIVTED_clean_linker_0, # of connection points: 2
#     Edge 10, Type (0, 0), BuildingBlock: XIVTED_clean_linker_0, # of connection points: 2
#     Edge 11, Type (0, 0), BuildingBlock: XIVTED_clean_linker_0, # of connection points: 2
#     Edge 12, Type (0, 0), BuildingBlock: XIVTED_clean_linker_0, # of connection points: 2
#     Edge 13, Type (0, 0), BuildingBlock: XIVTED_clean_linker_0, # of connection points: 2
#     Edge 14, Type (0, 0), BuildingBlock: XIVTED_clean_linker_0, # of connection points: 2
#     Edge 15, Type (0, 0), BuildingBlock: XIVTED_clean_linker_0, # of connection points: 2
#     Edge 16, Type (0, 0), BuildingBlock: XIVTED_clean_linker_0, # of connection points: 2
#     Edge 17, Type (0, 0), BuildingBlock: XIVTED_clean_linker_0, # of connection points: 2
#     Edge 18, Type (0, 0), BuildingBlock: XIVTED_clean_linker_0, # of connection points: 2
#     Edge 19, Type (0, 0), BuildingBlock: XIVTED_clean_linker_0, # of connection points: 2
#     Edge 20, Type (0, 0), BuildingBlock: XIVTED_clean_linker_0, # of connection points: 2
#     Edge 21, Type (0, 0), BuildingBlock: XIVTED_clean_linker_0, # of connection points: 2
#     Edge 22, Type (0, 0), BuildingBlock: XIVTED_clean_linker_0, # of connection points: 2
#     Edge 23, Type (0, 0), BuildingBlock: XIVTED_clean_linker_0, # of connection points: 2
#     Edge 24, Type (0, 0), BuildingBlock: XIVTED_clean_linker_0, # of connection points: 2
#     Edge 25, Type (0, 0), BuildingBlock: XIVTED_clean_linker_0, # of connection points: 2
#     Edge 26, Type (0, 0), BuildingBlock: XIVTED_clean_linker_0, # of connection points: 2
#     Edge 27, Type (0, 0), BuildingBlock: XIVTED_clean_linker_0, # of connection points: 2
#     Edge 28, Type (0, 0), BuildingBlock: XIVTED_clean_linker_0, # of connection points: 2
#     Edge 29, Type (0, 0), BuildingBlock: XIVTED_clean_linker_0, # of connection points: 2
#     Edge 30, Type (0, 0), BuildingBlock: XIVTED_clean_linker_0, # of connection points: 2
#     Edge 31, Type (0, 0), BuildingBlock: XIVTED_clean_linker_0, # of connection points: 2
# Relax obj value: 0.006
# Max RMSD: 0.052
# Mean RMSD: 0.049
data_MOF--net-snk--node1-KUMBOL_clean_sbu_0--edge1-XIVTED_clean_linker_0
_symmetry_space_group_name_H-M    P1
_symmetry_Int_Tables_number       1
_symmetry_cell_setting            triclinic
loop_
_symmetry_equiv_pos_as_xyz
'x, y, z'
_cell_length_a     38.030343
_cell_length_b     38.062479
_cell_length_c     24.588263
_cell_angle_alpha  87.128389
_cell_angle_beta   87.112739
_cell_angle_gamma 89.733951
loop_
_atom_site_label
_atom_site_type_symbol
_atom_site_fract_x
_atom_site_fract_y
_atom_site_fract_z
_atom_type_partial_charge
Gd0 Gd 0.00555 0.03302 0.57652 0.0
Gd1 Gd 1.00019 0.97262 0.4651 0.0
C2 C 0.93789 0.8699 0.48262 0.0
C3 C 0.98442 0.82596 0.47919 0.0
C4 C 0.99875 0.88825 0.4705 0.0
C5 C 0.9635 0.89671 0.47658 0.0
C6 C 0.00963 0.85278 0.47065 0.0
C7 C 0.94859 0.83451 0.48517 0.0
C8 C 0.90231 0.87946 0.48427 0.0
C9 C 0.89307 0.9149 0.47796 0.0
N10 N 0.95413 0.93116 0.4734 0.0
C11 C 0.91945 0.94049 0.47176 0.0
H12 H 0.91181 0.96773 0.46723 0.0
C13 C 0.05698 0.90774 0.4493 0.0
N14 N 0.02228 0.91481 0.46168 0.0
C15 C 0.06912 0.873 0.44945 0.0
C16 C 0.0454 0.84537 0.46077 0.0
H17 H 0.07551 0.92896 0.44087 0.0
H18 H 0.92934 0.81356 0.49036 0.0
H19 H 0.09392 0.03786 0.57483 0.0
H20 H 0.88183 0.85969 0.48904 0.0
H21 H 0.86563 0.92257 0.47811 0.0
H22 H 0.99227 0.79854 0.47991 0.0
H23 H 0.93025 0.07671 0.60071 0.0
H24 H 0.12399 0.14588 0.55331 0.0
H25 H 0.14014 0.08299 0.56425 0.0
H26 H 0.01359 0.2071 0.56213 0.0
H27 H 0.09674 0.86755 0.44087 0.0
H28 H 0.05484 0.81847 0.46063 0.0
H29 H 0.07652 0.19205 0.55186 0.0
H30 H 0.90905 0.13813 0.60083 0.0
N31 N 0.05164 0.07446 0.56843 0.0
C32 C 0.1035 0.12613 0.55793 0.0
C33 C 0.1127 0.09068 0.56425 0.0
C34 C 0.06792 0.13571 0.55941 0.0
C35 C 0.0423 0.10891 0.56527 0.0
C36 C 0.0863 0.0651 0.57027 0.0
N37 N 0.98349 0.09084 0.57996 0.0
C38 C 0.00705 0.11739 0.57125 0.0
C39 C 0.93668 0.13267 0.59226 0.0
C40 C 0.96042 0.16029 0.58102 0.0
C41 C 0.94879 0.09792 0.59234 0.0
C42 C 0.99619 0.15286 0.57118 0.0
H43 H 0.951 0.18719 0.58124 0.0
O44 O 0.98057 0.03195 0.65812 0.0
O45 O 0.98289 0.98265 0.55079 0.0
O46 O 0.95602 0.01334 0.46592 0.0
O47 O 0.97796 0.06151 0.50795 0.0
O48 O 0.94978 0.01385 0.59628 0.0
O49 O 0.0367 0.02323 0.64747 0.0
O50 O 0.02514 0.97367 0.38349 0.0
O51 O 0.02287 0.02292 0.4909 0.0
O52 O 0.04972 0.99225 0.57566 0.0
O53 O 0.0277 0.9441 0.53367 0.0
O54 O 0.05596 0.99183 0.44525 0.0
O55 O 0.96898 0.98229 0.39419 0.0
C56 C 0.95222 0.98427 0.5732 0.0
C57 C 0.02142 0.17968 0.56278 0.0
C58 C 0.05724 0.17111 0.55691 0.0
C59 C 0.01003 0.02687 0.68221 0.0
C60 C 0.01576 0.04861 0.72884 0.0
C61 C 0.02548 0.084 0.72052 0.0
C62 C 0.01114 0.03385 0.78238 0.0
C63 C 0.01612 0.05435 0.82766 0.0
C64 C 0.03058 0.10444 0.76499 0.0
C65 C 0.02598 0.08983 0.81813 0.0
C66 C 0.95595 0.04738 0.47524 0.0
C67 C 0.05355 0.02137 0.46847 0.0
C68 C 0.99565 0.97868 0.35943 0.0
C69 C 0.98995 0.95689 0.31284 0.0
C70 C 0.98026 0.92149 0.32123 0.0
C71 C 0.99457 0.97162 0.25929 0.0
C72 C 0.98962 0.95107 0.21404 0.0
C73 C 0.9752 0.90101 0.27679 0.0
C74 C 0.97981 0.91559 0.22363 0.0
C75 C 0.04974 0.95821 0.56634 0.0
H76 H 0.02915 0.0958 0.67974 0.0
H77 H 0.00318 0.00658 0.78864 0.0
H78 H 0.03823 0.13173 0.75825 0.0
H79 H 0.03061 0.10624 0.85175 0.0
H80 H 0.97659 0.90972 0.36202 0.0
H81 H 1.0025 0.99889 0.25298 0.0
H82 H 0.96758 0.87371 0.28356 0.0
H83 H 0.97521 0.89914 0.19003 0.0
Gd84 Gd 0.22368 0.7608 0.83232 0.0
Gd85 Gd 0.28296 0.74548 0.71006 0.0
C86 C 0.37775 0.67182 0.71929 0.0
C87 C 0.42674 0.71269 0.70642 0.0
C88 C 0.36647 0.73415 0.70471 0.0
C89 C 0.35403 0.70028 0.71456 0.0
C90 C 0.40296 0.74071 0.69938 0.0
C91 C 0.41415 0.6783 0.71639 0.0
C92 C 0.36419 0.63766 0.7253 0.0
C93 C 0.3279 0.63252 0.72459 0.0
N94 N 0.31872 0.69497 0.71677 0.0
C95 C 0.30544 0.6616 0.71962 0.0
H96 H 0.27746 0.6572 0.71947 0.0
C97 C 0.35373 0.79374 0.68149 0.0
N98 N 0.3428 0.76052 0.69771 0.0
C99 C 0.38965 0.80164 0.67612 0.0
C100 C 0.4144 0.77509 0.68573 0.0
H101 H 0.3346 0.81434 0.67436 0.0
H102 H 0.43278 0.65681 0.72048 0.0
H103 H 0.22661 0.84931 0.81705 0.0
H104 H 0.38151 0.61509 0.72922 0.0
H105 H 0.31716 0.60618 0.72819 0.0
H106 H 0.4549 0.71723 0.70298 0.0
H107 H 0.17469 0.69336 0.88239 0.0
H108 H 0.12146 0.88859 0.81049 0.0
H109 H 0.18569 0.89904 0.80688 0.0
H110 H 0.05103 0.78578 0.85262 0.0
H111 H 0.39823 0.82817 0.66457 0.0
H112 H 0.44223 0.78123 0.6813 0.0
H113 H 0.07127 0.84595 0.82668 0.0
H114 H 0.11183 0.67866 0.90089 0.0
N115 N 0.18635 0.81042 0.82471 0.0
C116 C 0.13937 0.86652 0.81493 0.0
C117 C 0.17558 0.87253 0.81306 0.0
C118 C 0.1267 0.83223 0.82458 0.0
C119 C 0.15119 0.80445 0.82978 0.0
C120 C 0.19878 0.8441 0.8189 0.0
N121 N 0.16442 0.74546 0.85205 0.0
C122 C 0.13983 0.7708 0.84408 0.0
C123 C 0.11932 0.70464 0.88457 0.0
C124 C 0.09353 0.72988 0.8735 0.0
C125 C 0.15488 0.71306 0.87415 0.0
C126 C 0.10366 0.76368 0.85392 0.0
H127 H 0.06601 0.72334 0.88169 0.0
O128 O 0.22762 0.73905 0.9153 0.0
O129 O 0.27039 0.73298 0.79782 0.0
O130 O 0.23732 0.70717 0.71948 0.0
O131 O 0.19218 0.7311 0.77521 0.0
O132 O 0.23897 0.70433 0.85401 0.0
O133 O 0.23746 0.79439 0.89682 0.0
O134 O 0.28382 0.7689 0.62753 0.0
O135 O 0.23559 0.7725 0.74376 0.0
O136 O 0.26733 0.80093 0.81713 0.0
O137 O 0.31347 0.77236 0.77138 0.0
O138 O 0.26696 0.80162 0.68774 0.0
O139 O 0.2716 0.71355 0.64248 0.0
C140 C 0.26743 0.70355 0.82338 0.0
C141 C 0.07898 0.79079 0.8459 0.0
C142 C 0.0905 0.82504 0.83116 0.0
C143 C 0.23414 0.76935 0.93488 0.0
C144 C 0.21375 0.77778 0.98503 0.0
C145 C 0.18008 0.79274 0.98254 0.0
C146 C 0.22797 0.77036 0.03606 0.0
C147 C 0.20872 0.77783 0.0847 0.0
C148 C 0.16088 0.8003 0.03041 0.0
C149 C 0.175 0.79296 0.08112 0.0
C150 C 0.20399 0.7096 0.73767 0.0
C151 C 0.23803 0.80171 0.71739 0.0
C152 C 0.27696 0.73926 0.60591 0.0
C153 C 0.29824 0.73109 0.55651 0.0
C154 C 0.33212 0.71681 0.56006 0.0
C155 C 0.28441 0.73779 0.50504 0.0
C156 C 0.30423 0.73026 0.45696 0.0
C157 C 0.35194 0.70922 0.51274 0.0
C158 C 0.33818 0.71584 0.46156 0.0
C159 C 0.30112 0.79704 0.80304 0.0
H160 H 0.16869 0.79862 0.94369 0.0
H161 H 0.2538 0.75831 0.03778 0.0
H162 H 0.13496 0.812 0.02821 0.0
H163 H 0.15967 0.79959 0.1175 0.0
H164 H 0.34319 0.71145 0.59929 0.0
H165 H 0.25837 0.74928 0.50256 0.0
H166 H 0.37803 0.69804 0.51572 0.0
H167 H 0.35397 0.7092 0.42564 0.0
Gd168 Gd 0.49951 0.03312 0.96263 0.0
Gd169 Gd 0.50712 0.97033 0.08303 0.0
C170 C 0.57362 0.87019 0.07809 0.0
C171 C 0.52891 0.82452 0.08519 0.0
C172 C 0.51201 0.88616 0.08703 0.0
C173 C 0.54692 0.89596 0.08094 0.0
C174 C 0.50256 0.85032 0.09016 0.0
C175 C 0.5644 0.83445 0.07916 0.0
C176 C 0.60878 0.88108 0.0756 0.0
C177 C 0.61651 0.91678 0.07779 0.0
N178 N 0.55483 0.93069 0.08034 0.0
C179 C 0.58906 0.94132 0.08085 0.0
H180 H 0.59547 0.96881 0.08215 0.0
C181 C 0.45275 0.9033 0.10344 0.0
N182 N 0.48732 0.91175 0.09201 0.0
C183 C 0.44201 0.86813 0.10654 0.0
C184 C 0.46698 0.84151 0.09933 0.0
H185 H 0.43331 0.92378 0.10861 0.0
H186 H 0.58452 0.81427 0.07651 0.0
H187 H 0.41115 0.03418 0.96362 0.0
H188 H 0.63008 0.86213 0.07319 0.0
H189 H 0.6436 0.92546 0.07684 0.0
H190 H 0.52218 0.79684 0.08705 0.0
H191 H 0.57303 0.07998 0.93647 0.0
H192 H 0.376 0.14072 0.97199 0.0
H193 H 0.36281 0.0773 0.96872 0.0
H194 H 0.48357 0.20656 0.95744 0.0
H195 H 0.41451 0.86158 0.11443 0.0
H196 H 0.45862 0.81427 0.10192 0.0
H197 H 0.42132 0.18882 0.96828 0.0
H198 H 0.59152 0.14228 0.93006 0.0
N199 N 0.4516 0.07253 0.96524 0.0
C200 C 0.3974 0.12187 0.96969 0.0
C201 C 0.38986 0.08612 0.96772 0.0
C202 C 0.4325 0.13295 0.96712 0.0
C203 C 0.45933 0.1073 0.96442 0.0
C204 C 0.41743 0.06171 0.96478 0.0
N205 N 0.51899 0.09179 0.95331 0.0
C206 C 0.49419 0.11727 0.95822 0.0
C207 C 0.56406 0.13561 0.93818 0.0
C208 C 0.53897 0.16213 0.94531 0.0
C209 C 0.5535 0.10038 0.94163 0.0
C210 C 0.50346 0.15316 0.95474 0.0
H211 H 0.5472 0.18941 0.94242 0.0
O212 O 0.52502 0.03292 0.88156 0.0
O213 O 0.5241 0.98462 0.99715 0.0
O214 O 0.54886 0.01284 0.07644 0.0
O215 O 0.52431 0.06088 0.02908 0.0
O216 O 0.55598 0.01573 0.94504 0.0
O217 O 0.46914 0.02235 0.89287 0.0
O218 O 0.48161 0.97045 0.1641 0.0
O219 O 0.48265 0.0189 0.04856 0.0
O220 O 0.45794 0.99043 0.96943 0.0
O221 O 0.48283 0.94244 1.01626 0.0
O222 O 0.45068 0.9879 0.10062 0.0
O223 O 0.53757 0.98072 0.15288 0.0
C224 C 0.55443 0.98666 0.97418 0.0
C225 C 0.47698 0.17884 0.95957 0.0
C226 C 0.44154 0.16874 0.96577 0.0
C227 C 0.49591 0.02675 0.85794 0.0
C228 C 0.4897 0.04803 0.80771 0.0
C229 C 0.47988 0.08347 0.8099 0.0
C230 C 0.49379 0.03266 0.7569 0.0
C231 C 0.48806 0.05254 0.70812 0.0
C232 C 0.47418 0.10336 0.7619 0.0
C233 C 0.47822 0.08812 0.71139 0.0
C234 C 0.54643 0.04702 0.06401 0.0
C235 C 0.45232 0.017 0.07154 0.0
C236 C 0.51077 0.97637 0.18778 0.0
C237 C 0.51684 0.9549 0.23788 0.0
C238 C 0.52661 0.91946 0.23547 0.0
C239 C 0.51264 0.97009 0.28882 0.0
C240 C 0.51821 0.95004 0.33749 0.0
C241 C 0.53216 0.8994 0.28336 0.0
C242 C 0.52801 0.91447 0.33399 0.0
C243 C 0.46082 0.95621 0.98111 0.0
H244 H 0.47668 0.09572 0.8486 0.0
H245 H 0.50102 0.00513 0.75554 0.0
H246 H 0.46672 0.13077 0.7638 0.0
H247 H 0.47414 0.10439 0.67485 0.0
H248 H 0.52988 0.90734 0.19667 0.0
H249 H 0.50544 0.99763 0.29036 0.0
H250 H 0.53958 0.87199 0.28128 0.0
H251 H 0.53198 0.89807 0.37044 0.0
Gd252 Gd 0.22278 0.25013 0.21495 0.0
Gd253 Gd 0.28337 0.25541 0.32603 0.0
C254 C 0.38646 0.3172 0.30922 0.0
C255 C 0.43023 0.27051 0.31232 0.0
C256 C 0.36782 0.25646 0.32077 0.0
C257 C 0.35951 0.29174 0.31498 0.0
C258 C 0.40327 0.24542 0.32056 0.0
C259 C 0.42184 0.30636 0.30667 0.0
C260 C 0.37705 0.3528 0.30785 0.0
C261 C 0.34162 0.36217 0.31413 0.0
N262 N 0.32507 0.30125 0.31814 0.0
C263 C 0.31588 0.33593 0.32004 0.0
H264 H 0.28865 0.34367 0.32456 0.0
C265 C 0.34804 0.19828 0.34123 0.0
N266 N 0.34113 0.23303 0.32928 0.0
C267 C 0.38277 0.186 0.34101 0.0
C268 C 0.41052 0.20961 0.33002 0.0
H269 H 0.32673 0.17983 0.34939 0.0
H270 H 0.44289 0.32551 0.30171 0.0
H271 H 0.21874 0.16175 0.21731 0.0
H272 H 0.39693 0.37318 0.3033 0.0
H273 H 0.33406 0.38962 0.31418 0.0
H274 H 0.45764 0.26254 0.31157 0.0
H275 H 0.17843 0.32498 0.19112 0.0
H276 H 0.11085 0.13081 0.23825 0.0
H277 H 0.17396 0.1152 0.22781 0.0
H278 H 0.04864 0.24058 0.22944 0.0
H279 H 0.3881 0.15834 0.34924 0.0
H280 H 0.4374 0.20006 0.33009 0.0
H281 H 0.06424 0.17784 0.23958 0.0
H282 H 0.11677 0.34565 0.19109 0.0
N283 N 0.18172 0.20371 0.22319 0.0
C284 C 0.13045 0.15145 0.23364 0.0
C285 C 0.16602 0.14255 0.22763 0.0
C286 C 0.12056 0.18692 0.23205 0.0
C287 C 0.14715 0.21275 0.22622 0.0
C288 C 0.1914 0.16915 0.22165 0.0
N289 N 0.16473 0.27167 0.21172 0.0
C290 C 0.13836 0.2479 0.22036 0.0
C291 C 0.12247 0.31809 0.19957 0.0
C292 C 0.09503 0.29413 0.21074 0.0
C293 C 0.15735 0.30628 0.19945 0.0
C294 C 0.10277 0.25844 0.22045 0.0
H295 H 0.06802 0.3033 0.21055 0.0
O296 O 0.2235 0.27521 0.13352 0.0
O297 O 0.27311 0.2729 0.24056 0.0
O298 O 0.24276 0.29969 0.32545 0.0
O299 O 0.19443 0.27793 0.2835 0.0
O300 O 0.24174 0.30592 0.19519 0.0
O301 O 0.23266 0.21915 0.14389 0.0
O302 O 0.28236 0.23046 0.40758 0.0
O303 O 0.23291 0.23291 0.30051 0.0
O304 O 0.26395 0.20625 0.21512 0.0
O305 O 0.31204 0.22848 0.257 0.0
O306 O 0.26401 0.19966 0.34567 0.0
O307 O 0.2737 0.2866 0.39691 0.0
C308 C 0.27135 0.30356 0.21826 0.0
C309 C 0.07615 0.23299 0.22876 0.0
C310 C 0.08503 0.19727 0.23454 0.0
C311 C 0.2288 0.24584 0.10932 0.0
C312 C 0.20715 0.24002 0.06267 0.0
C313 C 0.17161 0.23068 0.07072 0.0
C314 C 0.22227 0.244 1.00933 0.0
C315 C 0.20206 0.23863 0.9639 0.0
C316 C 0.15138 0.22535 0.02607 0.0
C317 C 0.16639 0.22928 0.97306 0.0
C318 C 0.20869 0.29991 0.31614 0.0
C319 C 0.23435 0.20224 0.32278 0.0
C320 C 0.27729 0.25993 0.43161 0.0
C321 C 0.29893 0.26564 0.47831 0.0
C322 C 0.33452 0.27481 0.47035 0.0
C323 C 0.28374 0.26175 0.53162 0.0
C324 C 0.30393 0.26705 0.57711 0.0
C325 C 0.35472 0.28007 0.51506 0.0
C326 C 0.33964 0.27623 0.56804 0.0
C327 C 0.29807 0.20652 0.22407 0.0
H328 H 0.15953 0.22753 0.1114 0.0
H329 H 0.24988 0.25085 1.00338 0.0
H330 H 0.1239 0.21827 0.03254 0.0
H331 H 0.14988 0.22549 0.93922 0.0
H332 H 0.34666 0.27787 0.42971 0.0
H333 H 0.25609 0.25503 0.5375 0.0
H334 H 0.38224 0.28702 0.50866 0.0
H335 H 0.35613 0.27997 0.60192 0.0
Gd336 Gd 0.72121 0.25921 0.33552 0.0
Gd337 Gd 0.78158 0.24729 0.21335 0.0
C338 C 0.88054 0.17883 0.21822 0.0
C339 C 0.92712 0.22224 0.20285 0.0
C340 C 0.8657 0.24038 0.20405 0.0
C341 C 0.85525 0.20596 0.21458 0.0
C342 C 0.90173 0.2489 0.19683 0.0
C343 C 0.91653 0.18725 0.21359 0.0
C344 C 0.86888 0.144 0.2248 0.0
C345 C 0.83287 0.13693 0.22555 0.0
N346 N 0.82029 0.19882 0.21819 0.0
C347 C 0.80885 0.16478 0.2214 0.0
H348 H 0.78115 0.15885 0.22231 0.0
C349 C 0.84935 0.2991 0.18158 0.0
N350 N 0.84048 0.26535 0.19816 0.0
C351 C 0.88474 0.30889 0.174 0.0
C352 C 0.91108 0.28377 0.18234 0.0
H353 H 0.82912 0.31869 0.17548 0.0
H354 H 0.93635 0.16681 0.21684 0.0
H355 H 0.72348 0.3476 0.33053 0.0
H356 H 0.88743 0.12239 0.22798 0.0
H357 H 0.82357 0.11006 0.22955 0.0
H358 H 0.95495 0.22828 0.198 0.0
H359 H 0.67184 0.18808 0.36731 0.0
H360 H 0.61812 0.38625 0.32082 0.0
H361 H 0.68205 0.39731 0.3233 0.0
H362 H 0.54836 0.28135 0.34128 0.0
H363 H 0.89167 0.3358 0.16192 0.0
H364 H 0.93847 0.2914 0.17637 0.0
H365 H 0.56835 0.34271 0.32691 0.0
H366 H 0.60878 0.1719 0.37526 0.0
N367 N 0.68362 0.30847 0.33089 0.0
C368 C 0.6362 0.36425 0.32406 0.0
C369 C 0.67225 0.3706 0.32559 0.0
C370 C 0.62385 0.32961 0.32838 0.0
C371 C 0.64854 0.30195 0.33229 0.0
C372 C 0.69569 0.34226 0.32971 0.0
N373 N 0.66187 0.24199 0.34671 0.0
C374 C 0.63729 0.26758 0.34049 0.0
C375 C 0.61644 0.19889 0.36527 0.0
C376 C 0.59081 0.2247 0.35654 0.0
C377 C 0.65207 0.20813 0.36096 0.0
C378 C 0.60106 0.25966 0.34481 0.0
H379 H 0.56322 0.21751 0.36011 0.0
O380 O 0.72086 0.2349 0.41745 0.0
O381 O 0.76892 0.23321 0.3009 0.0
O382 O 0.73842 0.20633 0.22507 0.0
O383 O 0.69169 0.23332 0.27206 0.0
O384 O 0.73803 0.20294 0.35578 0.0
O385 O 0.73262 0.29039 0.40403 0.0
O386 O 0.77916 0.27067 0.1311 0.0
O387 O 0.73416 0.27361 0.24836 0.0
O388 O 0.76541 0.29921 0.32623 0.0
O389 O 0.81171 0.27396 0.2754 0.0
O390 O 0.76521 0.30373 0.19368 0.0
O391 O 0.7694 0.21497 0.14644 0.0
C392 C 0.76686 0.20353 0.32589 0.0
C393 C 0.57633 0.28692 0.33859 0.0
C394 C 0.58771 0.32185 0.33039 0.0
C395 C 0.72746 0.26429 0.43996 0.0
C396 C 0.70591 0.27174 0.48948 0.0
C397 C 0.67144 0.28448 0.48589 0.0
C398 C 0.71993 0.26574 0.54102 0.0
C399 C 0.69963 0.27238 0.58909 0.0
C400 C 0.65119 0.29123 0.53316 0.0
C401 C 0.66509 0.28527 0.58436 0.0
C402 C 0.7045 0.20962 0.23898 0.0
C403 C 0.73659 0.30346 0.22399 0.0
C404 C 0.77311 0.2408 0.10969 0.0
C405 C 0.79422 0.23349 0.05966 0.0
C406 C 0.82865 0.22049 0.06251 0.0
C407 C 0.77992 0.23999 1.00841 0.0
C408 C 0.79991 0.23359 0.95995 0.0
C409 C 0.84857 0.21398 1.01485 0.0
C410 C 0.8344 0.22043 0.96396 0.0
C411 C 0.79928 0.29606 0.31157 0.0
H412 H 0.66021 0.28924 0.44665 0.0
H413 H 0.74644 0.25543 0.54358 0.0
H414 H 0.62463 0.30121 0.53011 0.0
H415 H 0.64889 0.29121 0.62024 0.0
H416 H 0.8401 0.21535 0.10148 0.0
H417 H 0.75345 0.25049 1.00639 0.0
H418 H 0.8751 0.2038 1.01735 0.0
H419 H 0.85035 0.21464 0.92776 0.0
Gd420 Gd 0.72391 0.7494 0.71735 0.0
Gd421 Gd 0.78419 0.75487 0.82868 0.0
C422 C 0.8866 0.81771 0.81164 0.0
C423 C 0.93085 0.77147 0.81509 0.0
C424 C 0.86858 0.75679 0.82348 0.0
C425 C 0.85991 0.79197 0.8175 0.0
C426 C 0.90414 0.74612 0.82339 0.0
C427 C 0.92209 0.80722 0.80924 0.0
C428 C 0.87682 0.85321 0.80991 0.0
C429 C 0.84128 0.86224 0.8158 0.0
N430 N 0.82538 0.80114 0.82043 0.0
C431 C 0.81581 0.83574 0.82181 0.0
H432 H 0.78848 0.84322 0.82605 0.0
C433 C 0.84938 0.69844 0.84425 0.0
N434 N 0.84213 0.73309 0.83206 0.0
C435 C 0.88423 0.68652 0.84413 0.0
C436 C 0.91175 0.7104 0.83305 0.0
H437 H 0.82823 0.67981 0.85249 0.0
H438 H 0.94294 0.82658 0.80419 0.0
H439 H 0.71952 0.66104 0.71985 0.0
H440 H 0.8965 0.87378 0.80527 0.0
H441 H 0.83344 0.88962 0.81549 0.0
H442 H 0.95833 0.76379 0.81443 0.0
H443 H 0.67991 0.82453 0.69371 0.0
H444 H 0.61148 0.63056 0.74 0.0
H445 H 0.67453 0.61468 0.73009 0.0
H446 H 0.54973 0.7406 0.73088 0.0
H447 H 0.88983 0.65893 0.85253 0.0
H448 H 0.93872 0.70112 0.83321 0.0
H449 H 0.56506 0.67778 0.74099 0.0
H450 H 0.61834 0.84544 0.69347 0.0
N451 N 0.68266 0.70315 0.72533 0.0
C452 C 0.63117 0.65112 0.7355 0.0
C453 C 0.66671 0.64206 0.72978 0.0
C454 C 0.62142 0.68662 0.73379 0.0
C455 C 0.64813 0.71234 0.72811 0.0
C456 C 0.69221 0.66854 0.72396 0.0
N457 N 0.66597 0.77121 0.71384 0.0
C458 C 0.63949 0.74753 0.72221 0.0
C459 C 0.62392 0.81784 0.70179 0.0
C460 C 0.59637 0.79396 0.71264 0.0
C461 C 0.65875 0.80589 0.70178 0.0
C462 C 0.60395 0.75823 0.7222 0.0
H463 H 0.5694 0.80326 0.71239 0.0
O464 O 0.72481 0.77437 0.63583 0.0
O465 O 0.77426 0.77214 0.743 0.0
O466 O 0.74306 0.79872 0.82833 0.0
O467 O 0.6951 0.77648 0.78612 0.0
O468 O 0.74292 0.80524 0.69786 0.0
O469 O 0.73381 0.71828 0.64645 0.0
O470 O 0.78339 0.7299 0.91018 0.0
O471 O 0.73394 0.7322 0.80291 0.0
O472 O 0.76492 0.7054 0.71795 0.0
O473 O 0.81292 0.72763 0.76007 0.0
O474 O 0.76493 0.69908 0.84849 0.0
O475 O 0.77453 0.78602 0.8996 0.0
C476 C 0.77258 0.80282 0.72079 0.0
C477 C 0.57721 0.73289 0.7303 0.0
C478 C 0.58594 0.69713 0.73608 0.0
C479 C 0.73005 0.74493 0.61177 0.0
C480 C 0.70843 0.73909 0.5651 0.0
C481 C 0.67289 0.72973 0.57309 0.0
C482 C 0.72359 0.74305 0.51179 0.0
C483 C 0.70342 0.73764 0.46633 0.0
C484 C 0.65271 0.72436 0.52841 0.0
C485 C 0.66776 0.72827 0.47542 0.0
C486 C 0.70898 0.79842 0.81919 0.0
C487 C 0.73535 0.70157 0.82531 0.0
C488 C 0.77828 0.75935 0.93426 0.0
C489 C 0.79999 0.7651 0.98085 0.0
C490 C 0.83553 0.77446 0.97273 0.0
C491 C 0.78493 0.76105 0.03421 0.0
C492 C 0.8052 0.76637 0.0796 0.0
C493 C 0.85581 0.77972 1.01735 0.0
C494 C 0.84086 0.77573 0.07039 0.0
C495 C 0.79898 0.70556 0.7273 0.0
H496 H 0.66078 0.72661 0.61374 0.0
H497 H 0.7512 0.74991 0.50589 0.0
H498 H 0.62523 0.71726 0.53484 0.0
H499 H 0.65128 0.72444 0.44156 0.0
H500 H 0.84757 0.77766 0.93204 0.0
H501 H 0.75733 0.75419 0.04021 0.0
H502 H 0.88328 0.78682 1.01083 0.0
H503 H 0.85739 0.77949 0.1042 0.0
Gd504 Gd 0.50544 0.53344 0.07765 0.0
Gd505 Gd 0.49991 0.47319 0.96605 0.0
C506 C 0.43661 0.37107 0.98267 0.0
C507 C 0.48272 0.32669 0.97953 0.0
C508 C 0.49766 0.38884 0.9712 0.0
C509 C 0.46247 0.39764 0.97695 0.0
C510 C 0.50821 0.35327 0.97137 0.0
C511 C 0.44696 0.33558 0.98516 0.0
C512 C 0.40112 0.38098 0.98423 0.0
C513 C 0.39223 0.41653 0.97832 0.0
N514 N 0.45344 0.43218 0.97398 0.0
C515 C 0.41886 0.44187 0.97247 0.0
H516 H 0.41148 0.4692 0.96823 0.0
C517 C 0.55616 0.40779 0.9508 0.0
N518 N 0.52148 0.41518 0.96275 0.0
C519 C 0.56797 0.37293 0.951 0.0
C520 C 0.54394 0.34553 0.96193 0.0
H521 H 0.57492 0.42884 0.94267 0.0
H522 H 0.4275 0.31481 0.99011 0.0
H523 H 0.5938 0.53765 0.07673 0.0
H524 H 0.38045 0.3614 0.98875 0.0
H525 H 0.36486 0.42447 0.97851 0.0
H526 H 0.49031 0.29919 0.98025 0.0
H527 H 0.43032 0.57763 0.10086 0.0
H528 H 0.62463 0.64548 0.05499 0.0
H529 H 0.64034 0.58249 0.06636 0.0
H530 H 0.5146 0.70743 0.06235 0.0
H531 H 0.59557 0.36723 0.94276 0.0
H532 H 0.55313 0.31855 0.96183 0.0
H533 H 0.57746 0.69195 0.05283 0.0
H534 H 0.4095 0.63921 0.10032 0.0
N535 N 0.5518 0.57454 0.06984 0.0
C536 C 0.604 0.62586 0.05954 0.0
C537 C 0.61296 0.59035 0.0661 0.0
C538 C 0.56849 0.63567 0.06065 0.0
C539 C 0.54269 0.60905 0.06642 0.0
C540 C 0.58639 0.56495 0.072 0.0
N541 N 0.48371 0.59139 0.08062 0.0
C542 C 0.50747 0.61777 0.07199 0.0
C543 C 0.43712 0.63355 0.09212 0.0
C544 C 0.46107 0.66099 0.08095 0.0
C545 C 0.44902 0.59872 0.09257 0.0
C546 C 0.49683 0.65332 0.07157 0.0
H547 H 0.45182 0.68796 0.08086 0.0
O548 O 0.48028 0.53284 0.15908 0.0
O549 O 0.48263 0.48328 0.05164 0.0
O550 O 0.45607 0.51434 0.9666 0.0
O551 O 0.47854 0.56221 1.00871 0.0
O552 O 0.44954 0.51437 0.09721 0.0
O553 O 0.53635 0.52349 0.14881 0.0
O554 O 0.52499 0.4739 0.88456 0.0
O555 O 0.52296 0.52322 0.99215 0.0
O556 O 0.54923 0.49226 0.07732 0.0
O557 O 0.52692 0.4444 0.03492 0.0
O558 O 0.55589 0.49191 0.94663 0.0
O559 O 0.46896 0.48339 0.89499 0.0
C560 C 0.45196 0.48483 0.07399 0.0
C561 C 0.52226 0.67996 0.06327 0.0
C562 C 0.55805 0.67114 0.05783 0.0
C563 C 0.50964 0.52749 0.18336 0.0
C564 C 0.51554 0.54926 0.22989 0.0
C565 C 0.52453 0.58483 0.22149 0.0
C566 C 0.51204 0.53426 0.28339 0.0
C567 C 0.51761 0.55466 0.32857 0.0
C568 C 0.53001 0.60523 0.26588 0.0
C569 C 0.52659 0.59036 0.31899 0.0
C570 C 0.45641 0.54838 0.97589 0.0
C571 C 0.55367 0.52142 0.96996 0.0
C572 C 0.49562 0.47938 0.86036 0.0
C573 C 0.48962 0.45769 0.81378 0.0
C574 C 0.48054 0.42213 0.82209 0.0
C575 C 0.4931 0.47274 0.76031 0.0
C576 C 0.48743 0.45241 0.71508 0.0
C577 C 0.47498 0.40179 0.77767 0.0
C578 C 0.47838 0.41671 0.72459 0.0
C579 C 0.54888 0.45822 0.06805 0.0
H580 H 0.5273 0.59683 0.18074 0.0
H581 H 0.50544 0.50663 0.28965 0.0
H582 H 0.53682 0.63274 0.25911 0.0
H583 H 0.5305 0.60701 0.35261 0.0
H584 H 0.47779 0.4101 0.86282 0.0
H585 H 0.49976 0.50035 0.7541 0.0
H586 H 0.46811 0.3743 0.78438 0.0
H587 H 0.47441 0.40011 0.69094 0.0
Gd588 Gd 0.99546 0.53131 0.46011 0.0
Gd589 Gd 0.01072 0.47299 0.58345 0.0
C590 C 0.08619 0.3795 0.57458 0.0
C591 C 0.04633 0.32985 0.58992 0.0
C592 C 0.02376 0.3897 0.59077 0.0
C593 C 0.05731 0.4027 0.57955 0.0
C594 C 0.01793 0.35316 0.59736 0.0
C595 C 0.08041 0.34301 0.5785 0.0
C596 C 0.12008 0.39366 0.5674 0.0
C597 C 0.12456 0.43004 0.56734 0.0
N598 N 0.06193 0.43808 0.57648 0.0
C599 C 0.09508 0.45196 0.57267 0.0
H600 H 0.09902 0.48001 0.57221 0.0
C601 C 0.96428 0.40157 0.61625 0.0
N602 N 0.99706 0.41295 0.59818 0.0
C603 C 0.95709 0.36556 0.6229 0.0
C604 C 0.98393 0.34121 0.61275 0.0
H605 H 0.94347 0.42037 0.62393 0.0
H606 H 0.10222 0.32477 0.57419 0.0
H607 H 0.90701 0.52329 0.4715 0.0
H608 H 0.14296 0.37676 0.56322 0.0
H609 H 0.15071 0.44125 0.5629 0.0
H610 H 0.04235 0.30166 0.59425 0.0
H611 H 0.06081 0.58436 0.41427 0.0
H612 H 0.8619 0.62594 0.48103 0.0
H613 H 0.85496 0.56136 0.48123 0.0
H614 H 0.96129 0.70222 0.44662 0.0
H615 H 0.93088 0.35663 0.63588 0.0
H616 H 0.97835 0.31333 0.6182 0.0
H617 H 0.90193 0.67844 0.46907 0.0
H618 H 0.07241 0.64818 0.39966 0.0
N619 N 0.94371 0.56562 0.46728 0.0
C620 C 0.88498 0.60932 0.47675 0.0
C621 C 0.88096 0.5729 0.47669 0.0
C622 C 0.91866 0.62391 0.46918 0.0
C623 C 0.94782 0.60106 0.46403 0.0
C624 C 0.9107 0.55136 0.47113 0.0
N625 N 0.00786 0.59143 0.4435 0.0
C626 C 0.98106 0.61442 0.45169 0.0
C627 C 0.04663 0.63906 0.41465 0.0
C628 C 0.01982 0.66322 0.42607 0.0
C629 C 0.03999 0.60301 0.42282 0.0
C630 C 0.98631 0.651 0.4438 0.0
H631 H 0.02496 0.69112 0.41947 0.0
O632 O 0.01897 0.53083 0.37772 0.0
O633 O 0.02347 0.48509 0.49549 0.0
O634 O 0.04848 0.51892 0.57392 0.0
O635 O 0.02411 0.56337 0.51764 0.0
O636 O 0.05234 0.51665 0.43974 0.0
O637 O 0.96406 0.51709 0.39331 0.0
O638 O 0.98714 0.47318 0.66583 0.0
O639 O 0.98291 0.51948 0.54835 0.0
O640 O 0.95755 0.48546 0.47049 0.0
O641 O 0.98351 0.44106 0.52471 0.0
O642 O 0.95393 0.48767 0.60378 0.0
O643 O 0.04244 0.4856 0.65066 0.0
C644 C 0.05302 0.48811 0.47021 0.0
C645 C 0.95774 0.674 0.45184 0.0
C646 C 0.92394 0.66046 0.4646 0.0
C647 C 0.98953 0.52286 0.35647 0.0
C648 C 0.98063 0.54368 0.30707 0.0
C649 C 0.96539 0.57714 0.31056 0.0
C650 C 0.98758 0.52986 0.25571 0.0
C651 C 0.97932 0.54928 0.20767 0.0
C652 C 0.95717 0.59659 0.26324 0.0
C653 C 0.96405 0.58285 0.21213 0.0
C654 C 0.0457 0.55203 0.55525 0.0
C655 C 0.95334 0.51631 0.57356 0.0
C656 C 0.01676 0.48029 0.6873 0.0
C657 C 0.0251 0.45916 0.73667 0.0
C658 C 0.03977 0.42546 0.73319 0.0
C659 C 0.01832 0.47303 0.78803 0.0
C660 C 0.0262 0.45344 0.83608 0.0
C661 C 0.04763 0.40583 0.78053 0.0
C662 C 0.04094 0.41964 0.83165 0.0
C663 C 0.96085 0.45242 0.48897 0.0
H664 H 0.95981 0.58817 0.34973 0.0
H665 H 0.99898 0.50379 0.25333 0.0
H666 H 0.94551 0.62246 0.26617 0.0
H667 H 0.95782 0.59872 0.17609 0.0
H668 H 0.04521 0.41438 0.69401 0.0
H669 H 0.00737 0.49929 0.79041 0.0
H670 H 0.05889 0.37978 0.77762 0.0
H671 H 0.04689 0.40365 0.86771 0.0
H672 H 0.12378 0.01574 0.45121 0.0
H673 H 0.16291 0.21645 0.34484 0.0
H674 H 0.04084 0.09299 0.44506 0.0
H675 H 0.23881 0.13216 0.34416 0.0
H676 H 0.11745 0.17422 0.38216 0.0
H677 H 0.16579 0.06017 0.41499 0.0
C678 C 0.11446 0.04231 0.44279 0.0
C679 C 0.07878 0.05063 0.45234 0.0
C680 C 0.144 0.16497 0.37347 0.0
C681 C 0.12716 0.10232 0.40897 0.0
C682 C 0.1699 0.18903 0.35168 0.0
C683 C 0.20468 0.17771 0.34012 0.0
C684 C 0.15306 0.12943 0.38454 0.0
C685 C 0.21236 0.14206 0.35162 0.0
C686 C 0.13852 0.06779 0.42175 0.0
C687 C 0.06823 0.08552 0.43957 0.0
N688 N 0.187 0.11947 0.37288 0.0
N689 N 0.09227 0.11007 0.41858 0.0
H690 H 0.10943 0.97824 0.61432 0.0
H691 H 0.16871 0.78377 0.70901 0.0
H692 H 0.05108 0.88597 0.57804 0.0
H693 H 0.24054 0.87117 0.68761 0.0
H694 H 0.12142 0.82191 0.67535 0.0
H695 H 0.15385 0.94032 0.65541 0.0
C696 C 0.10585 0.95002 0.61505 0.0
C697 C 0.07653 0.93532 0.59221 0.0
C698 C 0.14749 0.83276 0.67836 0.0
C699 C 0.12735 0.8917 0.63977 0.0
C700 C 0.17435 0.81112 0.69802 0.0
C701 C 0.20834 0.82463 0.70204 0.0
C702 C 0.15473 0.8681 0.66267 0.0
C703 C 0.21454 0.85995 0.6857 0.0
C704 C 0.13132 0.92838 0.63844 0.0
C705 C 0.07342 0.89848 0.59461 0.0
N706 N 0.18796 0.88054 0.66708 0.0
N707 N 0.09847 0.87792 0.61805 0.0
H708 H 0.28728 0.86314 0.83475 0.0
H709 H 0.46819 0.88518 0.97325 0.0
H710 H 0.37105 0.78681 0.81835 0.0
H711 H 0.40264 0.97336 0.92537 0.0
H712 H 0.43065 0.84651 0.92489 0.0
H713 H 0.32752 0.90238 0.87576 0.0
C714 C 0.3142 0.85471 0.83969 0.0
C715 C 0.32591 0.8217 0.82368 0.0
C716 C 0.42474 0.87438 0.92487 0.0
C717 C 0.37183 0.8662 0.87074 0.0
C718 C 0.44587 0.89636 0.95276 0.0
C719 C 0.43831 0.93245 0.95345 0.0
C720 C 0.39578 0.88865 0.89833 0.0
C721 C 0.40936 0.94569 0.92587 0.0
C722 C 0.33716 0.87715 0.86282 0.0
C723 C 0.36113 0.81215 0.8303 0.0
N724 N 0.38897 0.9237 0.89964 0.0
N725 N 0.38292 0.83425 0.85406 0.0
H726 H 0.38152 0.01587 0.08956 0.0
H727 H 0.37041 0.20545 0.21407 0.0
H728 H 0.47076 0.08529 0.08769 0.0
H729 H 0.27883 0.14787 0.17244 0.0
H730 H 0.40797 0.16114 0.1712 0.0
H731 H 0.34358 0.06336 0.12241 0.0
C732 C 0.39297 0.04134 0.09535 0.0
C733 C 0.42911 0.04693 0.08481 0.0
C734 C 0.37965 0.15832 0.17126 0.0
C735 C 0.38621 0.1011 0.12403 0.0
C736 C 0.35815 0.1835 0.19604 0.0
C737 C 0.32132 0.18031 0.19733 0.0
C738 C 0.36427 0.12948 0.14804 0.0
C739 C 0.30702 0.15147 0.17265 0.0
C740 C 0.37138 0.06842 0.11413 0.0
C741 C 0.44288 0.08015 0.09402 0.0
N742 N 0.32849 0.1271 0.14945 0.0
N743 N 0.42145 0.10594 0.11344 0.0
H744 H 0.882 0.98969 0.59122 0.0
H745 H 0.84407 0.78896 0.69862 0.0
H746 H 0.96526 0.91274 0.59672 0.0
H747 H 0.76774 0.87287 0.69938 0.0
H748 H 0.88925 0.83136 0.66091 0.0
H749 H 0.84029 0.94515 0.62803 0.0
C750 C 0.89146 0.96317 0.59963 0.0
C751 C 0.92713 0.95495 0.58973 0.0
C752 C 0.86267 0.84049 0.66971 0.0
C753 C 0.8791 0.90315 0.63377 0.0
C754 C 0.83693 0.81634 0.69173 0.0
C755 C 0.80211 0.82749 0.70337 0.0
C756 C 0.8534 0.87597 0.65853 0.0
C757 C 0.79423 0.86309 0.69183 0.0
C758 C 0.86756 0.93762 0.62101 0.0
C759 C 0.93785 0.92012 0.60248 0.0
N760 N 0.81944 0.88578 0.67035 0.0
N761 N 0.91399 0.89552 0.6238 0.0
H762 H 0.89679 0.02717 0.42597 0.0
H763 H 0.83575 0.22216 0.33682 0.0
H764 H 0.95398 0.11967 0.46456 0.0
H765 H 0.76543 0.13336 0.35079 0.0
H766 H 0.88326 0.18409 0.36947 0.0
H767 H 0.85232 0.06492 0.38471 0.0
C768 C 0.90011 0.05541 0.42573 0.0
C769 C 0.92912 0.07021 0.44928 0.0
C770 C 0.85751 0.1729 0.36499 0.0
C771 C 0.87821 0.11366 0.40151 0.0
C772 C 0.83049 0.19452 0.34581 0.0
C773 C 0.79684 0.18064 0.34005 0.0
C774 C 0.85075 0.13719 0.37859 0.0
C775 C 0.79116 0.1449 0.35405 0.0
C776 C 0.8746 0.07696 0.40221 0.0
C777 C 0.9319 0.10707 0.44746 0.0
N778 N 0.81786 0.12435 0.37239 0.0
N779 N 0.9068 0.12753 0.42393 0.0
H780 H 0.63416 0.21906 0.22682 0.0
H781 H 0.6061 0.02965 0.11591 0.0
H782 H 0.71921 0.1452 0.20062 0.0
H783 H 0.53933 0.11791 0.07294 0.0
H784 H 0.64373 0.06909 0.16192 0.0
H785 H 0.59439 0.17895 0.18517 0.0
C786 C 0.64436 0.19433 0.21262 0.0
C787 C 0.67995 0.18536 0.2167 0.0
C788 C 0.62088 0.07975 0.14225 0.0
C789 C 0.63496 0.13982 0.16978 0.0
C790 C 0.59937 0.05732 0.11612 0.0
C791 C 0.56971 0.07065 0.09046 0.0
C792 C 0.61233 0.11556 0.14324 0.0
C793 C 0.56218 0.1067 0.09193 0.0
C794 C 0.62178 0.17168 0.18869 0.0
C795 C 0.69199 0.15318 0.19768 0.0
N796 N 0.58337 0.12802 0.11823 0.0
N797 N 0.66944 0.13143 0.17509 0.0
H798 H 0.63663 0.79937 0.829 0.0
H799 H 0.62525 0.98793 0.95668 0.0
H800 H 0.72811 0.85674 0.87162 0.0
H801 H 0.53611 0.91845 0.95737 0.0
H802 H 0.66327 0.94068 0.92324 0.0
H803 H 0.59899 0.84329 0.8727 0.0
C804 C 0.64884 0.8212 0.8474 0.0
C805 C 0.68567 0.82445 0.84617 0.0
C806 C 0.63548 0.93556 0.93141 0.0
C807 C 0.64265 0.8748 0.89642 0.0
C808 C 0.61384 0.96249 0.95054 0.0
C809 C 0.5777 0.95681 0.96087 0.0
C810 C 0.62069 0.90295 0.92096 0.0
C811 C 0.56398 0.92364 0.95121 0.0
C812 C 0.62731 0.84614 0.87267 0.0
C813 C 0.69992 0.85312 0.87135 0.0
N814 N 0.58546 0.89801 0.93144 0.0
N815 N 0.67842 0.87725 0.89502 0.0
H816 H 0.62391 0.51541 0.9531 0.0
H817 H 0.66393 0.71592 0.8468 0.0
H818 H 0.54134 0.59304 0.94637 0.0
H819 H 0.73967 0.63148 0.84685 0.0
H820 H 0.61829 0.67383 0.88382 0.0
H821 H 0.6662 0.55965 0.91708 0.0
C822 C 0.61473 0.54202 0.9446 0.0
C823 C 0.57908 0.55052 0.95394 0.0
C824 C 0.64485 0.66452 0.87536 0.0
C825 C 0.62776 0.60196 0.91081 0.0
C826 C 0.67085 0.68849 0.85373 0.0
C827 C 0.70563 0.67709 0.84247 0.0
C828 C 0.6538 0.62897 0.88655 0.0
C829 C 0.71322 0.64144 0.85408 0.0
C830 C 0.63895 0.56739 0.92367 0.0
C831 C 0.56871 0.58545 0.94107 0.0
N832 N 0.68775 0.61891 0.87518 0.0
N833 N 0.59289 0.60987 0.9202 0.0
H834 H 0.73897 0.37385 0.20269 0.0
H835 H 0.54937 0.38596 0.07866 0.0
H836 H 0.66783 0.2858 0.20971 0.0
H837 H 0.60766 0.47725 0.11941 0.0
H838 H 0.59329 0.34829 0.12237 0.0
H839 H 0.69192 0.41194 0.16875 0.0
C840 C 0.71321 0.36272 0.1978 0.0
C841 C 0.70698 0.32689 0.21015 0.0
C842 C 0.59633 0.37658 0.12192 0.0
C843 C 0.65336 0.36991 0.16966 0.0
C844 C 0.57139 0.39812 0.09666 0.0
C845 C 0.5749 0.4349 0.09495 0.0
C846 C 0.62524 0.39187 0.14511 0.0
C847 C 0.60383 0.4491 0.11956 0.0
C848 C 0.6864 0.38439 0.1784 0.0
C849 C 0.67343 0.31348 0.20201 0.0
N850 N 0.62796 0.4276 0.1432 0.0
N851 N 0.64791 0.33495 0.18192 0.0
H852 H 0.90343 0.42054 0.53794 0.0
H853 H 0.87082 0.29918 0.29309 0.0
H854 H 0.96864 0.42688 0.38929 0.0
H855 H 0.78522 0.34152 0.3924 0.0
H856 H 0.91192 0.33535 0.33877 0.0
H857 H 0.86434 0.37948 0.49599 0.0
C858 C 0.90949 0.41286 0.49667 0.0
C859 C 0.93872 0.42666 0.46643 0.0
C860 C 0.88407 0.33662 0.35022 0.0
C861 C 0.89515 0.38043 0.41906 0.0
C862 C 0.86057 0.31626 0.32398 0.0
C863 C 0.82442 0.31787 0.3381 0.0
C864 C 0.87134 0.35794 0.39165 0.0
C865 C 0.8128 0.33968 0.37976 0.0
C866 C 0.88734 0.38978 0.47283 0.0
C867 C 0.94599 0.41651 0.41325 0.0
N868 N 0.83629 0.35883 0.40531 0.0
N869 N 0.92425 0.39375 0.391 0.0
H870 H 0.87124 0.70508 0.71571 0.0
H871 H 0.88359 0.5129 0.60144 0.0
H872 H 0.77971 0.64568 0.67902 0.0
H873 H 0.97044 0.58556 0.58452 0.0
H874 H 0.84561 0.56001 0.63556 0.0
H875 H 0.9088 0.66038 0.67372 0.0
C876 C 0.85901 0.68265 0.69894 0.0
C877 C 0.82219 0.67909 0.70124 0.0
C878 C 0.87287 0.5658 0.62381 0.0
C879 C 0.86511 0.62781 0.6532 0.0
C880 C 0.89449 0.53894 0.60438 0.0
C881 C 0.9299 0.54562 0.58903 0.0
C882 C 0.88705 0.59936 0.62956 0.0
C883 C 0.94304 0.57958 0.59466 0.0
C884 C 0.88049 0.65726 0.67469 0.0
C885 C 0.8079 0.6496 0.6783 0.0
N886 N 0.92166 0.60517 0.61476 0.0
N887 N 0.82935 0.62501 0.65568 0.0
H888 H 0.26541 0.37376 0.20151 0.0
H889 H 0.46619 0.41348 0.09552 0.0
H890 H 0.34302 0.29116 0.19474 0.0
H891 H 0.38179 0.48928 0.0954 0.0
H892 H 0.42398 0.36795 0.13246 0.0
H893 H 0.30975 0.41597 0.16559 0.0
C894 C 0.29203 0.36456 0.19302 0.0
C895 C 0.3005 0.32892 0.2023 0.0
C896 C 0.4147 0.3945 0.12397 0.0
C897 C 0.35206 0.37751 0.1593 0.0
C898 C 0.43874 0.42043 0.10239 0.0
C899 C 0.42738 0.4552 0.09111 0.0
C900 C 0.37912 0.40349 0.1351 0.0
C901 C 0.39171 0.46284 0.10265 0.0
C902 C 0.31746 0.38873 0.17215 0.0
C903 C 0.33545 0.31852 0.18946 0.0
N904 N 0.36911 0.43742 0.12371 0.0
N905 N 0.35993 0.34266 0.16865 0.0
H906 H 0.45614 0.62058 0.96453 0.0
H907 H 0.26416 0.63352 0.84865 0.0
H908 H 0.39653 0.52937 0.92724 0.0
H909 H 0.33658 0.72059 0.83568 0.0
H910 H 0.31125 0.59529 0.88228 0.0
H911 H 0.41155 0.65829 0.92262 0.0
C912 C 0.43369 0.60845 0.94765 0.0
C913 C 0.43003 0.57168 0.94978 0.0
C914 C 0.317 0.62266 0.87143 0.0
C915 C 0.37887 0.61477 0.90177 0.0
C916 C 0.29016 0.64441 0.85226 0.0
C917 C 0.29677 0.67996 0.83814 0.0
C918 C 0.35047 0.63682 0.87818 0.0
C919 C 0.33065 0.69309 0.84471 0.0
C920 C 0.40835 0.63001 0.92343 0.0
C921 C 0.40052 0.55752 0.92666 0.0
N922 N 0.35622 0.67156 0.86453 0.0
N923 N 0.376 0.57905 0.90405 0.0
H924 H 0.14538 0.677 0.78449 0.0
H925 H 0.08477 0.60544 0.50551 0.0
H926 H 0.20465 0.6942 0.63143 0.0
H927 H 0.05447 0.55659 0.66274 0.0
H928 H 0.12087 0.64736 0.55026 0.0
H929 H 0.10352 0.64133 0.73915 0.0
C930 C 0.14939 0.67347 0.7414 0.0
C931 C 0.17849 0.68819 0.71173 0.0
C932 C 0.10614 0.62753 0.57486 0.0
C933 C 0.13111 0.64786 0.65972 0.0
C934 C 0.08538 0.60393 0.54941 0.0
C935 C 0.06685 0.5778 0.58067 0.0
C936 C 0.10784 0.62493 0.6318 0.0
C937 C 0.06891 0.57624 0.6374 0.0
C938 C 0.12571 0.65302 0.71561 0.0
C939 C 0.18282 0.68266 0.6559 0.0
N940 N 0.0891 0.59961 0.66135 0.0
N941 N 0.15928 0.6629 0.63153 0.0
H942 H 0.22919 0.35929 0.36444 0.0
H943 H 0.03479 0.4192 0.45926 0.0
H944 H 0.13637 0.30188 0.32775 0.0
H945 H 0.12287 0.49037 0.4416 0.0
H946 H 0.07273 0.37215 0.42486 0.0
H947 H 0.19161 0.40378 0.40608 0.0
C948 C 0.20092 0.35594 0.36517 0.0
C949 C 0.18597 0.32683 0.3421 0.0
C950 C 0.0838 0.39799 0.42888 0.0
C951 C 0.14273 0.37776 0.39032 0.0
C952 C 0.06226 0.42475 0.44906 0.0
C953 C 0.07599 0.45849 0.45443 0.0
C954 C 0.11929 0.40507 0.41387 0.0
C955 C 0.11147 0.46455 0.43876 0.0
C956 C 0.17947 0.38145 0.38889 0.0
C957 C 0.14908 0.32402 0.3445 0.0
N958 N 0.13197 0.43807 0.41952 0.0
N959 N 0.12873 0.34911 0.36828 0.0
H960 H 0.9856 0.08502 0.91733 0.0
H961 H 0.02016 0.92038 0.12438 0.0
H962 H 0.03552 0.98873 0.86847 0.0
H963 H 0.97017 0.01666 0.17317 0.0
H964 H 0.02595 0.94491 0.03067 0.0
H965 H 0.9798 0.06047 1.01102 0.0
C966 C 0.9955 0.05874 0.92625 0.0
C967 C 0.01125 0.03903 0.88469 0.0
C968 C 0.01373 0.96071 0.06183 0.0
C969 C 0.00435 0.01053 0.9924 0.0
C970 C 0.01025 0.94665 0.11544 0.0
C971 C 0.99448 0.96637 0.15699 0.0
C972 C 1.00137 0.99484 0.04927 0.0
C973 C 0.98281 1.00055 0.1428 0.0
C974 C 0.99201 0.04467 0.97985 0.0
C975 C 0.0229 0.00483 0.89885 0.0
N976 N 0.9864 0.01362 0.09024 0.0
N977 N 0.01931 0.99175 0.95142 0.0
H978 H 0.23658 0.72 0.42624 0.0
H979 H 0.27677 0.78673 0.11462 0.0
H980 H 0.33853 0.75641 0.36244 0.0
H981 H 0.17466 0.75123 0.17904 0.0
H982 H 0.30013 0.77485 0.20458 0.0
H983 H 0.21348 0.73126 0.33603 0.0
C984 C 0.2541 0.73057 0.39342 0.0
C985 C 0.28962 0.73725 0.40221 0.0
C986 C 0.27261 0.76964 0.19904 0.0
C987 C 0.26333 0.74983 0.29825 0.0
C988 C 0.25928 0.77621 0.14751 0.0
C989 C 0.22361 0.77006 0.13904 0.0
C990 C 0.25019 0.75675 0.24264 0.0
C991 C 0.20218 0.75689 0.18365 0.0
C992 C 0.24091 0.73679 0.34174 0.0
C993 C 0.31111 0.75039 0.35763 0.0
N994 N 0.21577 0.75071 0.23337 0.0
N995 N 0.29765 0.75625 0.30774 0.0
H996 H 0.53869 0.00562 0.6733 0.0
H997 H 0.46752 0.99687 0.3724 0.0
H998 H 0.44763 0.06285 0.61896 0.0
H999 H 0.55845 0.93943 0.42681 0.0
H1000 H 0.46012 0.02166 0.46211 0.0
H1001 H 0.546 0.98067 0.58369 0.0
C1002 C 0.52006 0.01278 0.64274 0.0
C1003 C 0.4925 0.03649 0.65395 0.0
C1004 C 0.4817 0.00363 0.45444 0.0
C1005 C 0.50103 0.00824 0.55061 0.0
C1006 C 0.4861 0.98962 0.403 0.0
C1007 C 0.51366 0.96592 0.39177 0.0
C1008 C 0.50503 0.994 0.49522 0.0
C1009 C 0.53652 0.95717 0.43362 0.0
C1010 C 0.5244 0.99868 0.59136 0.0
C1011 C 0.46956 0.04513 0.61216 0.0
N1012 N 0.5317 0.97117 0.48332 0.0
N1013 N 0.47434 0.03106 0.56252 0.0
H1014 H 0.24918 0.28871 0.92141 0.0
H1015 H 0.25661 0.21713 0.6195 0.0
H1016 H 0.19102 0.19836 0.87655 0.0
H1017 H 0.315 0.3073 0.66445 0.0
H1018 H 0.23184 0.21022 0.71311 0.0
H1019 H 0.27388 0.29567 0.82777 0.0
C1020 C 0.24176 0.27016 0.89205 0.0
C1021 C 0.21788 0.2429 0.90714 0.0
C1022 C 0.25007 0.23154 0.70251 0.0
C1023 C 0.24584 0.25103 0.79928 0.0
C1024 C 0.26407 0.23565 0.64888 0.0
C1025 C 0.28803 0.26284 0.63383 0.0
C1026 C 0.26 0.25478 0.74165 0.0
C1027 C 0.29705 0.28565 0.67416 0.0
C1028 C 0.25572 0.27431 0.83839 0.0
C1029 C 0.2089 0.22007 0.86682 0.0
N1030 N 0.28307 0.2811 0.72605 0.0
N1031 N 0.22285 0.22464 0.81491 0.0
H1032 H 0.83314 0.26206 0.8662 0.0
H1033 H 0.66609 0.24453 0.68308 0.0
H1034 H 0.73279 0.22072 0.92872 0.0
H1035 H 0.76652 0.28579 0.62073 0.0
H1036 H 0.68989 0.23595 0.77323 0.0
H1037 H 0.80915 0.27104 0.77628 0.0
C1038 C 0.80608 0.25472 0.86106 0.0
C1039 C 0.78506 0.24042 0.90532 0.0
C1040 C 0.70675 0.24687 0.73986 0.0
C1041 C 0.75721 0.25101 0.80202 0.0
C1042 C 0.69312 0.25195 0.6883 0.0
C1043 C 0.71424 0.26605 0.644 0.0
C1044 C 0.74186 0.25592 0.74754 0.0
C1045 C 0.7493 0.2745 0.65334 0.0
C1046 C 0.79233 0.26003 0.80963 0.0
C1047 C 0.74994 0.23211 0.89612 0.0
N1048 N 0.76194 0.26939 0.70397 0.0
N1049 N 0.7372 0.23742 0.84558 0.0
H1050 H 0.75048 0.78778 0.42392 0.0
H1051 H 0.7582 0.71618 0.12204 0.0
H1052 H 0.69255 0.69729 0.37903 0.0
H1053 H 0.81622 0.8066 0.16698 0.0
H1054 H 0.73351 0.70914 0.21568 0.0
H1055 H 0.77525 0.79475 0.33031 0.0
C1056 C 0.74312 0.7692 0.39455 0.0
C1057 C 0.71929 0.7419 0.40961 0.0
C1058 C 0.75165 0.73053 0.20507 0.0
C1059 C 0.74732 0.75004 0.30181 0.0
C1060 C 0.7656 0.73472 0.15143 0.0
C1061 C 0.78942 0.76203 0.13636 0.0
C1062 C 0.76148 0.75382 0.2442 0.0
C1063 C 0.79838 0.78486 0.1767 0.0
C1064 C 0.75712 0.77335 0.34093 0.0
C1065 C 0.71039 0.71902 0.3693 0.0
N1066 N 0.78443 0.78025 0.2286 0.0
N1067 N 0.72437 0.72361 0.31742 0.0
H1068 H 0.44624 0.44082 0.62902 0.0
H1069 H 0.55871 0.56639 0.41468 0.0
H1070 H 0.53693 0.49967 0.67081 0.0
H1071 H 0.46816 0.50736 0.37284 0.0
H1072 H 0.55107 0.54237 0.50849 0.0
H1073 H 0.45386 0.46488 0.53523 0.0
C1074 C 0.46787 0.4587 0.61852 0.0
C1075 C 0.49106 0.46805 0.65812 0.0
C1076 C 0.53287 0.53462 0.47883 0.0
C1077 C 0.49976 0.49607 0.55034 0.0
C1078 C 0.53711 0.54848 0.42518 0.0
C1079 C 0.51396 0.53906 0.38555 0.0
C1080 C 0.50524 0.51109 0.49336 0.0
C1081 C 0.48689 0.51515 0.40165 0.0
C1082 C 0.4721 0.47258 0.56488 0.0
C1083 C 0.51817 0.49192 0.64201 0.0
N1084 N 0.48324 0.50211 0.45422 0.0
N1085 N 0.5218 0.50499 0.58946 0.0
H1086 H 0.96881 0.49168 0.87164 0.0
H1087 H 0.0371 0.51165 0.17184 0.0
H1088 H 0.06717 0.4486 0.92509 0.0
H1089 H 0.93818 0.55363 0.11885 0.0
H1090 H 0.04853 0.48825 0.08186 0.0
H1091 H 0.95748 0.51516 0.96157 0.0
C1092 C 0.98816 0.48733 0.90214 0.0
C1093 C 0.01902 0.46809 0.89062 0.0
C1094 C 0.02431 0.50258 0.0899 0.0
C1095 C 0.00599 0.49464 0.99415 0.0
C1096 C 0.01766 0.51578 0.14144 0.0
C1097 C 0.9866 0.53468 0.15311 0.0
C1098 C 0.99975 0.50823 0.04952 0.0
C1099 C 0.96269 0.53966 0.11162 0.0
C1100 C 0.98156 0.50057 0.95365 0.0
C1101 C 0.04281 0.46284 0.93222 0.0
N1102 N 0.96975 0.52652 0.0618 0.0
N1103 N 0.03581 0.47604 0.98201 0.0
loop_
_geom_bond_atom_site_label_1
_geom_bond_atom_site_label_2
_geom_bond_distance
_geom_bond_site_symmetry_2
_ccdc_geom_bond_type
Gd0 N31 2.662 1_655 S
Gd0 N37 2.601 1_655 S
Gd0 O44 2.544 . S
Gd0 O45 2.605 1_545 S
Gd0 O47 2.428 . S
Gd0 O48 2.543 1_545 S
Gd0 O49 2.413 1_655 S
Gd0 O51 2.363 1_655 S
Gd0 O52 2.325 1_645 S
Gd0 C59 2.828 . S
Gd1 N10 2.655 1_455 S
Gd1 N14 2.601 1_455 S
Gd1 O45 2.360 1_455 S
Gd1 O46 2.320 1_465 S
Gd1 O50 2.548 . S
Gd1 O51 2.608 1_565 S
Gd1 O53 2.433 . S
Gd1 O54 2.549 1_565 S
Gd1 O55 2.411 1_455 S
Gd1 C68 2.829 . S
C2 C5 1.417 . S
C2 C7 1.431 . S
C2 C8 1.412 . S
C3 C6 1.437 . S
C3 C7 1.317 . S
C3 H22 0.929 . S
C4 C5 1.426 . S
C4 C6 1.413 . S
C4 N14 1.359 . S
C5 C2 1.417 . S
C5 C4 1.426 . S
C5 N10 1.350 . S
C6 C3 1.437 . S
C6 C4 1.413 . S
C6 C16 1.418 . S
C7 C2 1.431 . S
C7 C3 1.317 . S
C7 H18 0.930 . S
C8 C2 1.412 . S
C8 C9 1.355 . S
C8 H20 0.930 . S
C9 C8 1.355 . S
C9 C11 1.402 . S
C9 H21 0.930 . S
N10 Gd1 2.655 1_655 S
N10 C5 1.350 . S
N10 C11 1.307 . S
C11 C9 1.402 . S
C11 N10 1.307 . S
C11 H12 0.930 . S
H12 C11 0.930 . S
C13 N14 1.334 1_455 S
C13 C15 1.394 . S
C13 H17 0.930 . S
N14 Gd1 2.601 1_655 S
N14 C4 1.359 . S
N14 C13 1.334 1_655 S
C15 C13 1.394 . S
C15 C16 1.333 1_455 S
C15 H27 0.930 . S
C16 C6 1.418 . S
C16 C15 1.333 1_655 S
C16 H28 0.929 . S
H17 C13 0.930 . S
H18 C7 0.930 . S
H19 C36 0.930 . S
H20 C8 0.930 . S
H21 C9 0.930 . S
H22 C3 0.929 . S
H23 C41 0.930 . S
H24 C32 0.930 . S
H25 C33 0.930 . S
H26 C57 0.929 . S
H27 C15 0.930 . S
H28 C16 0.929 . S
H29 C58 0.930 . S
H30 C39 0.930 . S
N31 Gd0 2.662 1_455 S
N31 C35 1.350 . S
N31 C36 1.307 . S
C32 H24 0.930 . S
C32 C33 1.355 . S
C32 C34 1.412 . S
C33 H25 0.930 . S
C33 C32 1.355 . S
C33 C36 1.402 . S
C34 C32 1.412 . S
C34 C35 1.417 . S
C34 C58 1.431 . S
C35 N31 1.350 . S
C35 C34 1.417 . S
C35 C38 1.426 . S
C36 H19 0.930 . S
C36 N31 1.307 . S
C36 C33 1.402 . S
N37 Gd0 2.601 1_455 S
N37 C38 1.359 . S
N37 C41 1.334 1_455 S
C38 C35 1.426 . S
C38 N37 1.359 . S
C38 C42 1.413 . S
C39 H30 0.930 . S
C39 C40 1.359 1_655 S
C39 C41 1.394 . S
C40 C39 1.359 1_455 S
C40 C42 1.391 . S
C40 H43 0.930 . S
C41 H23 0.930 . S
C41 N37 1.334 1_655 S
C41 C39 1.394 . S
C42 C38 1.413 . S
C42 C40 1.391 . S
C42 C57 1.437 . S
H43 C40 0.930 . S
O44 Gd0 2.544 . S
O44 C59 1.258 . S
O45 Gd0 2.605 1_565 S
O45 Gd1 2.360 1_655 S
O45 C56 1.284 . S
O46 Gd1 2.320 1_645 S
O46 C66 1.254 . S
O47 Gd0 2.428 . S
O47 C66 1.268 . S
O48 Gd0 2.543 1_565 S
O48 C56 1.250 . S
O49 Gd0 2.413 1_455 S
O49 C59 1.252 1_455 S
O50 Gd1 2.548 . S
O50 C68 1.258 . S
O51 Gd0 2.363 1_455 S
O51 Gd1 2.608 1_545 S
O51 C67 1.284 . S
O52 Gd0 2.325 1_465 S
O52 C75 1.254 . S
O53 Gd1 2.433 . S
O53 C75 1.268 . S
O54 Gd1 2.549 1_545 S
O54 C67 1.250 . S
O55 Gd1 2.411 1_655 S
O55 C68 1.252 1_655 S
C56 O45 1.284 . S
C56 O48 1.250 . S
C57 H26 0.929 . S
C57 C42 1.437 . S
C57 C58 1.317 . S
C58 H29 0.930 . S
C58 C34 1.431 . S
C58 C57 1.317 . S
C59 Gd0 2.828 . S
C59 O44 1.258 . S
C59 O49 1.252 1_655 S
C59 C60 1.497 . S
C60 C59 1.497 . S
C60 C61 1.395 . S
C60 C62 1.380 . S
C61 C60 1.395 . S
C61 C64 1.398 . S
C61 H76 0.930 . S
C62 C60 1.380 . S
C62 C63 1.391 . S
C62 H77 0.930 1_645 S
C63 C62 1.391 . S
C63 C65 1.387 . S
C64 C61 1.398 . S
C64 C65 1.380 . S
C64 H78 0.930 . S
C65 C63 1.387 . S
C65 C64 1.380 . S
C65 H79 0.930 . S
C66 O46 1.254 . S
C66 O47 1.268 . S
C67 O51 1.284 . S
C67 O54 1.250 . S
C68 Gd1 2.829 . S
C68 O50 1.258 . S
C68 O55 1.252 1_455 S
C68 C69 1.497 . S
C69 C68 1.497 . S
C69 C70 1.395 . S
C69 C71 1.380 . S
C70 C69 1.395 . S
C70 C73 1.398 . S
C70 H80 0.930 . S
C71 C69 1.380 . S
C71 C72 1.391 . S
C71 H81 0.930 1_465 S
C72 C71 1.391 . S
C72 C74 1.387 . S
C73 C70 1.398 . S
C73 C74 1.380 . S
C73 H82 0.930 . S
C74 C72 1.387 . S
C74 C73 1.380 . S
C74 H83 0.930 . S
C75 O52 1.254 . S
C75 O53 1.268 . S
H76 C61 0.930 . S
H77 C62 0.930 1_465 S
H78 C64 0.930 . S
H79 C65 0.930 . S
H80 C70 0.930 . S
H81 C71 0.930 1_645 S
H82 C73 0.930 . S
H83 C74 0.930 . S
Gd84 N115 2.661 . S
Gd84 N121 2.601 . S
Gd84 O128 2.545 . S
Gd84 O129 2.606 . S
Gd84 O131 2.429 . S
Gd84 O132 2.545 . S
Gd84 O133 2.412 . S
Gd84 O135 2.362 . S
Gd84 O136 2.324 . S
Gd84 C143 2.828 . S
Gd85 N94 2.661 . S
Gd85 N98 2.601 . S
Gd85 O129 2.362 . S
Gd85 O130 2.324 . S
Gd85 O134 2.545 . S
Gd85 O135 2.606 . S
Gd85 O137 2.429 . S
Gd85 O138 2.545 . S
Gd85 O139 2.412 . S
Gd85 C152 2.828 . S
C86 C89 1.417 . S
C86 C91 1.431 . S
C86 C92 1.412 . S
C87 C90 1.437 . S
C87 C91 1.317 . S
C87 H106 0.929 . S
C88 C89 1.426 . S
C88 C90 1.413 . S
C88 N98 1.359 . S
C89 C86 1.417 . S
C89 C88 1.426 . S
C89 N94 1.350 . S
C90 C87 1.437 . S
C90 C88 1.413 . S
C90 C100 1.391 . S
C91 C86 1.431 . S
C91 C87 1.317 . S
C91 H102 0.930 . S
C92 C86 1.412 . S
C92 C93 1.355 . S
C92 H104 0.930 . S
C93 C92 1.355 . S
C93 C95 1.402 . S
C93 H105 0.930 . S
N94 Gd85 2.661 . S
N94 C89 1.350 . S
N94 C95 1.307 . S
C95 C93 1.402 . S
C95 N94 1.307 . S
C95 H96 0.930 . S
H96 C95 0.930 . S
C97 N98 1.334 . S
C97 C99 1.394 . S
C97 H101 0.930 . S
N98 Gd85 2.601 . S
N98 C88 1.359 . S
N98 C97 1.334 . S
C99 C97 1.394 . S
C99 C100 1.359 . S
C99 H111 0.930 . S
C100 C90 1.391 . S
C100 C99 1.359 . S
C100 H112 0.929 . S
H101 C97 0.930 . S
H102 C91 0.930 . S
H103 C120 0.930 . S
H104 C92 0.930 . S
H105 C93 0.930 . S
H106 C87 0.929 . S
H107 C125 0.930 . S
H108 C116 0.930 . S
H109 C117 0.930 . S
H110 C141 0.929 . S
H111 C99 0.930 . S
H112 C100 0.929 . S
H113 C142 0.930 . S
H114 C123 0.930 . S
N115 Gd84 2.661 . S
N115 C119 1.350 . S
N115 C120 1.307 . S
C116 H108 0.930 . S
C116 C117 1.355 . S
C116 C118 1.412 . S
C117 H109 0.930 . S
C117 C116 1.355 . S
C117 C120 1.402 . S
C118 C116 1.412 . S
C118 C119 1.417 . S
C118 C142 1.431 . S
C119 N115 1.350 . S
C119 C118 1.417 . S
C119 C122 1.426 . S
C120 H103 0.930 . S
C120 N115 1.307 . S
C120 C117 1.402 . S
N121 Gd84 2.601 . S
N121 C122 1.359 . S
N121 C125 1.334 . S
C122 C119 1.426 . S
C122 N121 1.359 . S
C122 C126 1.413 . S
C123 H114 0.930 . S
C123 C124 1.359 . S
C123 C125 1.394 . S
C124 C123 1.359 . S
C124 C126 1.391 . S
C124 H127 0.929 . S
C125 H107 0.930 . S
C125 N121 1.334 . S
C125 C123 1.394 . S
C126 C122 1.413 . S
C126 C124 1.391 . S
C126 C141 1.437 . S
H127 C124 0.929 . S
O128 Gd84 2.545 . S
O128 C143 1.258 . S
O129 Gd84 2.606 . S
O129 Gd85 2.362 . S
O129 C140 1.284 . S
O130 Gd85 2.324 . S
O130 C150 1.254 . S
O131 Gd84 2.429 . S
O131 C150 1.268 . S
O132 Gd84 2.545 . S
O132 C140 1.250 . S
O133 Gd84 2.412 . S
O133 C143 1.252 . S
O134 Gd85 2.545 . S
O134 C152 1.258 . S
O135 Gd84 2.362 . S
O135 Gd85 2.606 . S
O135 C151 1.284 . S
O136 Gd84 2.324 . S
O136 C159 1.254 . S
O137 Gd85 2.429 . S
O137 C159 1.268 . S
O138 Gd85 2.545 . S
O138 C151 1.250 . S
O139 Gd85 2.412 . S
O139 C152 1.252 . S
C140 O129 1.284 . S
C140 O132 1.250 . S
C141 H110 0.929 . S
C141 C126 1.437 . S
C141 C142 1.317 . S
C142 H113 0.930 . S
C142 C118 1.431 . S
C142 C141 1.317 . S
C143 Gd84 2.828 . S
C143 O128 1.258 . S
C143 O133 1.252 . S
C143 C144 1.497 . S
C144 C143 1.497 . S
C144 C145 1.395 1_556 S
C144 C146 1.380 1_556 S
C145 C144 1.395 1_554 S
C145 C148 1.398 . S
C145 H160 0.930 1_554 S
C146 C144 1.380 1_554 S
C146 C147 1.391 . S
C146 H161 0.930 1_554 S
C147 C146 1.391 . S
C147 C149 1.387 . S
C148 C145 1.398 . S
C148 C149 1.380 . S
C148 H162 0.930 . S
C149 C147 1.387 . S
C149 C148 1.380 . S
C149 H163 0.930 . S
C150 O130 1.254 . S
C150 O131 1.268 . S
C151 O135 1.284 . S
C151 O138 1.250 . S
C152 Gd85 2.828 . S
C152 O134 1.258 . S
C152 O139 1.252 . S
C152 C153 1.497 . S
C153 C152 1.497 . S
C153 C154 1.395 . S
C153 C155 1.380 . S
C154 C153 1.395 . S
C154 C157 1.398 . S
C154 H164 0.930 . S
C155 C153 1.380 . S
C155 C156 1.391 . S
C155 H165 0.930 . S
C156 C155 1.391 . S
C156 C158 1.387 . S
C157 C154 1.398 . S
C157 C158 1.380 . S
C157 H166 0.930 . S
C158 C156 1.387 . S
C158 C157 1.380 . S
C158 H167 0.930 . S
C159 O136 1.254 . S
C159 O137 1.268 . S
H160 C145 0.930 1_556 S
H161 C146 0.930 1_556 S
H162 C148 0.930 . S
H163 C149 0.930 . S
H164 C154 0.930 . S
H165 C155 0.930 . S
H166 C157 0.930 . S
H167 C158 0.930 . S
Gd168 N199 2.661 . S
Gd168 N205 2.601 . S
Gd168 O212 2.545 . S
Gd168 O213 2.606 1_545 S
Gd168 O215 2.429 . S
Gd168 O216 2.545 1_545 S
Gd168 O217 2.412 . S
Gd168 O219 2.362 1_556 S
Gd168 O220 2.324 1_545 S
Gd168 C227 2.828 . S
Gd169 N178 2.661 . S
Gd169 N182 2.601 . S
Gd169 O213 2.362 1_554 S
Gd169 O214 2.324 1_565 S
Gd169 O218 2.545 . S
Gd169 O219 2.606 1_565 S
Gd169 O221 2.429 . S
Gd169 O222 2.545 1_565 S
Gd169 O223 2.412 . S
Gd169 C236 2.828 . S
C170 C173 1.417 . S
C170 C175 1.431 . S
C170 C176 1.412 . S
C171 C174 1.437 . S
C171 C175 1.317 . S
C171 H190 0.929 . S
C172 C173 1.426 . S
C172 C174 1.413 . S
C172 N182 1.359 . S
C173 C170 1.417 . S
C173 C172 1.426 . S
C173 N178 1.350 . S
C174 C171 1.437 . S
C174 C172 1.413 . S
C174 C184 1.391 . S
C175 C170 1.431 . S
C175 C171 1.317 . S
C175 H186 0.930 . S
C176 C170 1.412 . S
C176 C177 1.355 . S
C176 H188 0.930 . S
C177 C176 1.355 . S
C177 C179 1.402 . S
C177 H189 0.930 . S
N178 Gd169 2.661 . S
N178 C173 1.350 . S
N178 C179 1.307 . S
C179 C177 1.402 . S
C179 N178 1.307 . S
C179 H180 0.930 . S
H180 C179 0.930 . S
C181 N182 1.334 . S
C181 C183 1.394 . S
C181 H185 0.930 . S
N182 Gd169 2.601 . S
N182 C172 1.359 . S
N182 C181 1.334 . S
C183 C181 1.394 . S
C183 C184 1.359 . S
C183 H195 0.930 . S
C184 C174 1.391 . S
C184 C183 1.359 . S
C184 H196 0.929 . S
H185 C181 0.930 . S
H186 C175 0.930 . S
H187 C204 0.930 . S
H188 C176 0.930 . S
H189 C177 0.930 . S
H190 C171 0.929 . S
H191 C209 0.930 . S
H192 C200 0.930 . S
H193 C201 0.930 . S
H194 C225 0.929 . S
H195 C183 0.930 . S
H196 C184 0.929 . S
H197 C226 0.930 . S
H198 C207 0.930 . S
N199 Gd168 2.661 . S
N199 C203 1.350 . S
N199 C204 1.307 . S
C200 H192 0.930 . S
C200 C201 1.355 . S
C200 C202 1.412 . S
C201 H193 0.930 . S
C201 C200 1.355 . S
C201 C204 1.402 . S
C202 C200 1.412 . S
C202 C203 1.417 . S
C202 C226 1.431 . S
C203 N199 1.350 . S
C203 C202 1.417 . S
C203 C206 1.426 . S
C204 H187 0.930 . S
C204 N199 1.307 . S
C204 C201 1.402 . S
N205 Gd168 2.601 . S
N205 C206 1.359 . S
N205 C209 1.334 . S
C206 C203 1.426 . S
C206 N205 1.359 . S
C206 C210 1.413 . S
C207 H198 0.930 . S
C207 C208 1.359 . S
C207 C209 1.394 . S
C208 C207 1.359 . S
C208 C210 1.391 . S
C208 H211 0.929 . S
C209 H191 0.930 . S
C209 N205 1.334 . S
C209 C207 1.394 . S
C210 C206 1.413 . S
C210 C208 1.391 . S
C210 C225 1.437 . S
H211 C208 0.929 . S
O212 Gd168 2.545 . S
O212 C227 1.258 . S
O213 Gd168 2.606 1_565 S
O213 Gd169 2.362 1_556 S
O213 C224 1.284 . S
O214 Gd169 2.324 1_545 S
O214 C234 1.254 . S
O215 Gd168 2.429 . S
O215 C234 1.268 1_556 S
O216 Gd168 2.545 1_565 S
O216 C224 1.250 . S
O217 Gd168 2.412 . S
O217 C227 1.252 . S
O218 Gd169 2.545 . S
O218 C236 1.258 . S
O219 Gd168 2.362 1_554 S
O219 Gd169 2.606 1_545 S
O219 C235 1.284 . S
O220 Gd168 2.324 1_565 S
O220 C243 1.254 . S
O221 Gd169 2.429 . S
O221 C243 1.268 1_554 S
O222 Gd169 2.545 1_545 S
O222 C235 1.250 . S
O223 Gd169 2.412 . S
O223 C236 1.252 . S
C224 O213 1.284 . S
C224 O216 1.250 . S
C225 H194 0.929 . S
C225 C210 1.437 . S
C225 C226 1.317 . S
C226 H197 0.930 . S
C226 C202 1.431 . S
C226 C225 1.317 . S
C227 Gd168 2.828 . S
C227 O212 1.258 . S
C227 O217 1.252 . S
C227 C228 1.497 . S
C228 C227 1.497 . S
C228 C229 1.395 . S
C228 C230 1.380 . S
C229 C228 1.395 . S
C229 C232 1.398 . S
C229 H244 0.930 . S
C230 C228 1.380 . S
C230 C231 1.391 . S
C230 H245 0.930 1_545 S
C231 C230 1.391 . S
C231 C233 1.387 . S
C232 C229 1.398 . S
C232 C233 1.380 . S
C232 H246 0.930 . S
C233 C231 1.387 . S
C233 C232 1.380 . S
C233 H247 0.930 . S
C234 O214 1.254 . S
C234 O215 1.268 1_554 S
C235 O219 1.284 . S
C235 O222 1.250 . S
C236 Gd169 2.828 . S
C236 O218 1.258 . S
C236 O223 1.252 . S
C236 C237 1.497 . S
C237 C236 1.497 . S
C237 C238 1.395 . S
C237 C239 1.380 . S
C238 C237 1.395 . S
C238 C241 1.398 . S
C238 H248 0.930 . S
C239 C237 1.380 . S
C239 C240 1.391 . S
C239 H249 0.930 1_565 S
C240 C239 1.391 . S
C240 C242 1.387 . S
C241 C238 1.398 . S
C241 C242 1.380 . S
C241 H250 0.930 . S
C242 C240 1.387 . S
C242 C241 1.380 . S
C242 H251 0.930 . S
C243 O220 1.254 . S
C243 O221 1.268 1_556 S
H244 C229 0.930 . S
H245 C230 0.930 1_565 S
H246 C232 0.930 . S
H247 C233 0.930 . S
H248 C238 0.930 . S
H249 C239 0.930 1_545 S
H250 C241 0.930 . S
H251 C242 0.930 . S
Gd252 N283 2.661 . S
Gd252 N289 2.601 . S
Gd252 O296 2.545 . S
Gd252 O297 2.606 . S
Gd252 O299 2.429 . S
Gd252 O300 2.545 . S
Gd252 O301 2.412 . S
Gd252 O303 2.362 . S
Gd252 O304 2.324 . S
Gd252 C311 2.828 . S
Gd253 N262 2.661 . S
Gd253 N266 2.601 . S
Gd253 O297 2.362 . S
Gd253 O298 2.324 . S
Gd253 O302 2.545 . S
Gd253 O303 2.606 . S
Gd253 O305 2.429 . S
Gd253 O306 2.545 . S
Gd253 O307 2.412 . S
Gd253 C320 2.828 . S
C254 C257 1.417 . S
C254 C259 1.431 . S
C254 C260 1.412 . S
C255 C258 1.437 . S
C255 C259 1.317 . S
C255 H274 0.929 . S
C256 C257 1.426 . S
C256 C258 1.413 . S
C256 N266 1.359 . S
C257 C254 1.417 . S
C257 C256 1.426 . S
C257 N262 1.350 . S
C258 C255 1.437 . S
C258 C256 1.413 . S
C258 C268 1.391 . S
C259 C254 1.431 . S
C259 C255 1.317 . S
C259 H270 0.930 . S
C260 C254 1.412 . S
C260 C261 1.355 . S
C260 H272 0.930 . S
C261 C260 1.355 . S
C261 C263 1.402 . S
C261 H273 0.930 . S
N262 Gd253 2.661 . S
N262 C257 1.350 . S
N262 C263 1.307 . S
C263 C261 1.402 . S
C263 N262 1.307 . S
C263 H264 0.930 . S
H264 C263 0.930 . S
C265 N266 1.334 . S
C265 C267 1.394 . S
C265 H269 0.930 . S
N266 Gd253 2.601 . S
N266 C256 1.359 . S
N266 C265 1.334 . S
C267 C265 1.394 . S
C267 C268 1.359 . S
C267 H279 0.930 . S
C268 C258 1.391 . S
C268 C267 1.359 . S
C268 H280 0.929 . S
H269 C265 0.930 . S
H270 C259 0.930 . S
H271 C288 0.930 . S
H272 C260 0.930 . S
H273 C261 0.930 . S
H274 C255 0.929 . S
H275 C293 0.930 . S
H276 C284 0.930 . S
H277 C285 0.930 . S
H278 C309 0.929 . S
H279 C267 0.930 . S
H280 C268 0.929 . S
H281 C310 0.930 . S
H282 C291 0.930 . S
N283 Gd252 2.661 . S
N283 C287 1.350 . S
N283 C288 1.307 . S
C284 H276 0.930 . S
C284 C285 1.355 . S
C284 C286 1.412 . S
C285 H277 0.930 . S
C285 C284 1.355 . S
C285 C288 1.402 . S
C286 C284 1.412 . S
C286 C287 1.417 . S
C286 C310 1.431 . S
C287 N283 1.350 . S
C287 C286 1.417 . S
C287 C290 1.426 . S
C288 H271 0.930 . S
C288 N283 1.307 . S
C288 C285 1.402 . S
N289 Gd252 2.601 . S
N289 C290 1.359 . S
N289 C293 1.334 . S
C290 C287 1.426 . S
C290 N289 1.359 . S
C290 C294 1.413 . S
C291 H282 0.930 . S
C291 C292 1.359 . S
C291 C293 1.394 . S
C292 C291 1.359 . S
C292 C294 1.391 . S
C292 H295 0.929 . S
C293 H275 0.930 . S
C293 N289 1.334 . S
C293 C291 1.394 . S
C294 C290 1.413 . S
C294 C292 1.391 . S
C294 C309 1.437 . S
H295 C292 0.929 . S
O296 Gd252 2.545 . S
O296 C311 1.258 . S
O297 Gd252 2.606 . S
O297 Gd253 2.362 . S
O297 C308 1.284 . S
O298 Gd253 2.324 . S
O298 C318 1.254 . S
O299 Gd252 2.429 . S
O299 C318 1.268 . S
O300 Gd252 2.545 . S
O300 C308 1.250 . S
O301 Gd252 2.412 . S
O301 C311 1.252 . S
O302 Gd253 2.545 . S
O302 C320 1.258 . S
O303 Gd252 2.362 . S
O303 Gd253 2.606 . S
O303 C319 1.284 . S
O304 Gd252 2.324 . S
O304 C327 1.254 . S
O305 Gd253 2.429 . S
O305 C327 1.268 . S
O306 Gd253 2.545 . S
O306 C319 1.250 . S
O307 Gd253 2.412 . S
O307 C320 1.252 . S
C308 O297 1.284 . S
C308 O300 1.250 . S
C309 H278 0.929 . S
C309 C294 1.437 . S
C309 C310 1.317 . S
C310 H281 0.930 . S
C310 C286 1.431 . S
C310 C309 1.317 . S
C311 Gd252 2.828 . S
C311 O296 1.258 . S
C311 O301 1.252 . S
C311 C312 1.497 . S
C312 C311 1.497 . S
C312 C313 1.395 1_554 S
C312 C314 1.380 1_554 S
C313 C312 1.395 1_556 S
C313 C316 1.398 . S
C313 H328 0.930 1_556 S
C314 C312 1.380 1_556 S
C314 C315 1.391 . S
C314 H329 0.930 1_556 S
C315 C314 1.391 . S
C315 C317 1.387 . S
C316 C313 1.398 . S
C316 C317 1.380 . S
C316 H330 0.930 . S
C317 C315 1.387 . S
C317 C316 1.380 . S
C317 H331 0.930 . S
C318 O298 1.254 . S
C318 O299 1.268 . S
C319 O303 1.284 . S
C319 O306 1.250 . S
C320 Gd253 2.828 . S
C320 O302 1.258 . S
C320 O307 1.252 . S
C320 C321 1.497 . S
C321 C320 1.497 . S
C321 C322 1.395 . S
C321 C323 1.380 . S
C322 C321 1.395 . S
C322 C325 1.398 . S
C322 H332 0.930 . S
C323 C321 1.380 . S
C323 C324 1.391 . S
C323 H333 0.930 . S
C324 C323 1.391 . S
C324 C326 1.387 . S
C325 C322 1.398 . S
C325 C326 1.380 . S
C325 H334 0.930 . S
C326 C324 1.387 . S
C326 C325 1.380 . S
C326 H335 0.930 . S
C327 O304 1.254 . S
C327 O305 1.268 . S
H328 C313 0.930 1_554 S
H329 C314 0.930 1_554 S
H330 C316 0.930 . S
H331 C317 0.930 . S
H332 C322 0.930 . S
H333 C323 0.930 . S
H334 C325 0.930 . S
H335 C326 0.930 . S
Gd336 N367 2.661 . S
Gd336 N373 2.601 . S
Gd336 O380 2.545 . S
Gd336 O381 2.606 . S
Gd336 O383 2.429 . S
Gd336 O384 2.545 . S
Gd336 O385 2.412 . S
Gd336 O387 2.362 . S
Gd336 O388 2.324 . S
Gd336 C395 2.828 . S
Gd337 N346 2.661 . S
Gd337 N350 2.601 . S
Gd337 O381 2.362 . S
Gd337 O382 2.324 . S
Gd337 O386 2.545 . S
Gd337 O387 2.606 . S
Gd337 O389 2.429 . S
Gd337 O390 2.545 . S
Gd337 O391 2.412 . S
Gd337 C404 2.828 . S
C338 C341 1.417 . S
C338 C343 1.431 . S
C338 C344 1.412 . S
C339 C342 1.437 . S
C339 C343 1.317 . S
C339 H358 0.929 . S
C340 C341 1.426 . S
C340 C342 1.413 . S
C340 N350 1.359 . S
C341 C338 1.417 . S
C341 C340 1.426 . S
C341 N346 1.350 . S
C342 C339 1.437 . S
C342 C340 1.413 . S
C342 C352 1.391 . S
C343 C338 1.431 . S
C343 C339 1.317 . S
C343 H354 0.930 . S
C344 C338 1.412 . S
C344 C345 1.355 . S
C344 H356 0.930 . S
C345 C344 1.355 . S
C345 C347 1.402 . S
C345 H357 0.930 . S
N346 Gd337 2.661 . S
N346 C341 1.350 . S
N346 C347 1.307 . S
C347 C345 1.402 . S
C347 N346 1.307 . S
C347 H348 0.930 . S
H348 C347 0.930 . S
C349 N350 1.334 . S
C349 C351 1.394 . S
C349 H353 0.930 . S
N350 Gd337 2.601 . S
N350 C340 1.359 . S
N350 C349 1.334 . S
C351 C349 1.394 . S
C351 C352 1.359 . S
C351 H363 0.930 . S
C352 C342 1.391 . S
C352 C351 1.359 . S
C352 H364 0.929 . S
H353 C349 0.930 . S
H354 C343 0.930 . S
H355 C372 0.930 . S
H356 C344 0.930 . S
H357 C345 0.930 . S
H358 C339 0.929 . S
H359 C377 0.930 . S
H360 C368 0.930 . S
H361 C369 0.930 . S
H362 C393 0.929 . S
H363 C351 0.930 . S
H364 C352 0.929 . S
H365 C394 0.930 . S
H366 C375 0.930 . S
N367 Gd336 2.661 . S
N367 C371 1.350 . S
N367 C372 1.307 . S
C368 H360 0.930 . S
C368 C369 1.355 . S
C368 C370 1.412 . S
C369 H361 0.930 . S
C369 C368 1.355 . S
C369 C372 1.402 . S
C370 C368 1.412 . S
C370 C371 1.417 . S
C370 C394 1.431 . S
C371 N367 1.350 . S
C371 C370 1.417 . S
C371 C374 1.426 . S
C372 H355 0.930 . S
C372 N367 1.307 . S
C372 C369 1.402 . S
N373 Gd336 2.601 . S
N373 C374 1.359 . S
N373 C377 1.334 . S
C374 C371 1.426 . S
C374 N373 1.359 . S
C374 C378 1.413 . S
C375 H366 0.930 . S
C375 C376 1.359 . S
C375 C377 1.394 . S
C376 C375 1.359 . S
C376 C378 1.391 . S
C376 H379 0.929 . S
C377 H359 0.930 . S
C377 N373 1.334 . S
C377 C375 1.394 . S
C378 C374 1.413 . S
C378 C376 1.391 . S
C378 C393 1.437 . S
H379 C376 0.929 . S
O380 Gd336 2.545 . S
O380 C395 1.258 . S
O381 Gd336 2.606 . S
O381 Gd337 2.362 . S
O381 C392 1.284 . S
O382 Gd337 2.324 . S
O382 C402 1.254 . S
O383 Gd336 2.429 . S
O383 C402 1.268 . S
O384 Gd336 2.545 . S
O384 C392 1.250 . S
O385 Gd336 2.412 . S
O385 C395 1.252 . S
O386 Gd337 2.545 . S
O386 C404 1.258 . S
O387 Gd336 2.362 . S
O387 Gd337 2.606 . S
O387 C403 1.284 . S
O388 Gd336 2.324 . S
O388 C411 1.254 . S
O389 Gd337 2.429 . S
O389 C411 1.268 . S
O390 Gd337 2.545 . S
O390 C403 1.250 . S
O391 Gd337 2.412 . S
O391 C404 1.252 . S
C392 O381 1.284 . S
C392 O384 1.250 . S
C393 H362 0.929 . S
C393 C378 1.437 . S
C393 C394 1.317 . S
C394 H365 0.930 . S
C394 C370 1.431 . S
C394 C393 1.317 . S
C395 Gd336 2.828 . S
C395 O380 1.258 . S
C395 O385 1.252 . S
C395 C396 1.497 . S
C396 C395 1.497 . S
C396 C397 1.395 . S
C396 C398 1.380 . S
C397 C396 1.395 . S
C397 C400 1.398 . S
C397 H412 0.930 . S
C398 C396 1.380 . S
C398 C399 1.391 . S
C398 H413 0.930 . S
C399 C398 1.391 . S
C399 C401 1.387 . S
C400 C397 1.398 . S
C400 C401 1.380 . S
C400 H414 0.930 . S
C401 C399 1.387 . S
C401 C400 1.380 . S
C401 H415 0.930 . S
C402 O382 1.254 . S
C402 O383 1.268 . S
C403 O387 1.284 . S
C403 O390 1.250 . S
C404 Gd337 2.828 . S
C404 O386 1.258 . S
C404 O391 1.252 . S
C404 C405 1.497 . S
C405 C404 1.497 . S
C405 C406 1.395 1_554 S
C405 C407 1.380 1_554 S
C406 C405 1.395 1_556 S
C406 C409 1.398 . S
C406 H416 0.930 1_556 S
C407 C405 1.380 1_556 S
C407 C408 1.391 . S
C407 H417 0.930 1_556 S
C408 C407 1.391 . S
C408 C410 1.387 . S
C409 C406 1.398 . S
C409 C410 1.380 . S
C409 H418 0.930 . S
C410 C408 1.387 . S
C410 C409 1.380 . S
C410 H419 0.930 . S
C411 O388 1.254 . S
C411 O389 1.268 . S
H412 C397 0.930 . S
H413 C398 0.930 . S
H414 C400 0.930 . S
H415 C401 0.930 . S
H416 C406 0.930 1_554 S
H417 C407 0.930 1_554 S
H418 C409 0.930 . S
H419 C410 0.930 . S
Gd420 N451 2.661 . S
Gd420 N457 2.601 . S
Gd420 O464 2.545 . S
Gd420 O465 2.606 . S
Gd420 O467 2.429 . S
Gd420 O468 2.545 . S
Gd420 O469 2.412 . S
Gd420 O471 2.362 . S
Gd420 O472 2.324 . S
Gd420 C479 2.828 . S
Gd421 N430 2.661 . S
Gd421 N434 2.601 . S
Gd421 O465 2.362 . S
Gd421 O466 2.324 . S
Gd421 O470 2.545 . S
Gd421 O471 2.606 . S
Gd421 O473 2.429 . S
Gd421 O474 2.545 . S
Gd421 O475 2.412 . S
Gd421 C488 2.828 . S
C422 C425 1.417 . S
C422 C427 1.431 . S
C422 C428 1.412 . S
C423 C426 1.437 . S
C423 C427 1.317 . S
C423 H442 0.929 . S
C424 C425 1.426 . S
C424 C426 1.413 . S
C424 N434 1.359 . S
C425 C422 1.417 . S
C425 C424 1.426 . S
C425 N430 1.350 . S
C426 C423 1.437 . S
C426 C424 1.413 . S
C426 C436 1.391 . S
C427 C422 1.431 . S
C427 C423 1.317 . S
C427 H438 0.930 . S
C428 C422 1.412 . S
C428 C429 1.355 . S
C428 H440 0.930 . S
C429 C428 1.355 . S
C429 C431 1.402 . S
C429 H441 0.930 . S
N430 Gd421 2.661 . S
N430 C425 1.350 . S
N430 C431 1.307 . S
C431 C429 1.402 . S
C431 N430 1.307 . S
C431 H432 0.930 . S
H432 C431 0.930 . S
C433 N434 1.334 . S
C433 C435 1.394 . S
C433 H437 0.930 . S
N434 Gd421 2.601 . S
N434 C424 1.359 . S
N434 C433 1.334 . S
C435 C433 1.394 . S
C435 C436 1.359 . S
C435 H447 0.930 . S
C436 C426 1.391 . S
C436 C435 1.359 . S
C436 H448 0.929 . S
H437 C433 0.930 . S
H438 C427 0.930 . S
H439 C456 0.930 . S
H440 C428 0.930 . S
H441 C429 0.930 . S
H442 C423 0.929 . S
H443 C461 0.930 . S
H444 C452 0.930 . S
H445 C453 0.930 . S
H446 C477 0.929 . S
H447 C435 0.930 . S
H448 C436 0.929 . S
H449 C478 0.930 . S
H450 C459 0.930 . S
N451 Gd420 2.661 . S
N451 C455 1.350 . S
N451 C456 1.307 . S
C452 H444 0.930 . S
C452 C453 1.355 . S
C452 C454 1.412 . S
C453 H445 0.930 . S
C453 C452 1.355 . S
C453 C456 1.402 . S
C454 C452 1.412 . S
C454 C455 1.417 . S
C454 C478 1.431 . S
C455 N451 1.350 . S
C455 C454 1.417 . S
C455 C458 1.426 . S
C456 H439 0.930 . S
C456 N451 1.307 . S
C456 C453 1.402 . S
N457 Gd420 2.601 . S
N457 C458 1.359 . S
N457 C461 1.334 . S
C458 C455 1.426 . S
C458 N457 1.359 . S
C458 C462 1.413 . S
C459 H450 0.930 . S
C459 C460 1.359 . S
C459 C461 1.394 . S
C460 C459 1.359 . S
C460 C462 1.391 . S
C460 H463 0.929 . S
C461 H443 0.930 . S
C461 N457 1.334 . S
C461 C459 1.394 . S
C462 C458 1.413 . S
C462 C460 1.391 . S
C462 C477 1.437 . S
H463 C460 0.929 . S
O464 Gd420 2.545 . S
O464 C479 1.258 . S
O465 Gd420 2.606 . S
O465 Gd421 2.362 . S
O465 C476 1.284 . S
O466 Gd421 2.324 . S
O466 C486 1.254 . S
O467 Gd420 2.429 . S
O467 C486 1.268 . S
O468 Gd420 2.545 . S
O468 C476 1.250 . S
O469 Gd420 2.412 . S
O469 C479 1.252 . S
O470 Gd421 2.545 . S
O470 C488 1.258 . S
O471 Gd420 2.362 . S
O471 Gd421 2.606 . S
O471 C487 1.284 . S
O472 Gd420 2.324 . S
O472 C495 1.254 . S
O473 Gd421 2.429 . S
O473 C495 1.268 . S
O474 Gd421 2.545 . S
O474 C487 1.250 . S
O475 Gd421 2.412 . S
O475 C488 1.252 . S
C476 O465 1.284 . S
C476 O468 1.250 . S
C477 H446 0.929 . S
C477 C462 1.437 . S
C477 C478 1.317 . S
C478 H449 0.930 . S
C478 C454 1.431 . S
C478 C477 1.317 . S
C479 Gd420 2.828 . S
C479 O464 1.258 . S
C479 O469 1.252 . S
C479 C480 1.497 . S
C480 C479 1.497 . S
C480 C481 1.395 . S
C480 C482 1.380 . S
C481 C480 1.395 . S
C481 C484 1.398 . S
C481 H496 0.930 . S
C482 C480 1.380 . S
C482 C483 1.391 . S
C482 H497 0.930 . S
C483 C482 1.391 . S
C483 C485 1.387 . S
C484 C481 1.398 . S
C484 C485 1.380 . S
C484 H498 0.930 . S
C485 C483 1.387 . S
C485 C484 1.380 . S
C485 H499 0.930 . S
C486 O466 1.254 . S
C486 O467 1.268 . S
C487 O471 1.284 . S
C487 O474 1.250 . S
C488 Gd421 2.828 . S
C488 O470 1.258 . S
C488 O475 1.252 . S
C488 C489 1.497 . S
C489 C488 1.497 . S
C489 C490 1.395 1_556 S
C489 C491 1.380 1_556 S
C490 C489 1.395 1_554 S
C490 C493 1.398 . S
C490 H500 0.930 1_554 S
C491 C489 1.380 1_554 S
C491 C492 1.391 . S
C491 H501 0.930 1_554 S
C492 C491 1.391 . S
C492 C494 1.387 . S
C493 C490 1.398 . S
C493 C494 1.380 . S
C493 H502 0.930 . S
C494 C492 1.387 . S
C494 C493 1.380 . S
C494 H503 0.930 . S
C495 O472 1.254 . S
C495 O473 1.268 . S
H496 C481 0.930 . S
H497 C482 0.930 . S
H498 C484 0.930 . S
H499 C485 0.930 . S
H500 C490 0.930 1_556 S
H501 C491 0.930 1_556 S
H502 C493 0.930 . S
H503 C494 0.930 . S
Gd504 N535 2.661 . S
Gd504 N541 2.601 . S
Gd504 O548 2.545 . S
Gd504 O549 2.606 . S
Gd504 O551 2.429 . S
Gd504 O552 2.545 . S
Gd504 O553 2.412 . S
Gd504 O555 2.362 1_554 S
Gd504 O556 2.324 . S
Gd504 C563 2.828 . S
Gd505 N514 2.661 . S
Gd505 N518 2.601 . S
Gd505 O549 2.362 1_556 S
Gd505 O550 2.324 . S
Gd505 O554 2.545 . S
Gd505 O555 2.606 . S
Gd505 O557 2.429 . S
Gd505 O558 2.545 . S
Gd505 O559 2.412 . S
Gd505 C572 2.828 . S
C506 C509 1.417 . S
C506 C511 1.431 . S
C506 C512 1.412 . S
C507 C510 1.437 . S
C507 C511 1.317 . S
C507 H526 0.929 . S
C508 C509 1.426 . S
C508 C510 1.413 . S
C508 N518 1.359 . S
C509 C506 1.417 . S
C509 C508 1.426 . S
C509 N514 1.350 . S
C510 C507 1.437 . S
C510 C508 1.413 . S
C510 C520 1.391 . S
C511 C506 1.431 . S
C511 C507 1.317 . S
C511 H522 0.930 . S
C512 C506 1.412 . S
C512 C513 1.355 . S
C512 H524 0.930 . S
C513 C512 1.355 . S
C513 C515 1.402 . S
C513 H525 0.930 . S
N514 Gd505 2.661 . S
N514 C509 1.350 . S
N514 C515 1.307 . S
C515 C513 1.402 . S
C515 N514 1.307 . S
C515 H516 0.930 . S
H516 C515 0.930 . S
C517 N518 1.334 . S
C517 C519 1.394 . S
C517 H521 0.930 . S
N518 Gd505 2.601 . S
N518 C508 1.359 . S
N518 C517 1.334 . S
C519 C517 1.394 . S
C519 C520 1.359 . S
C519 H531 0.930 . S
C520 C510 1.391 . S
C520 C519 1.359 . S
C520 H532 0.929 . S
H521 C517 0.930 . S
H522 C511 0.930 . S
H523 C540 0.930 . S
H524 C512 0.930 . S
H525 C513 0.930 . S
H526 C507 0.929 . S
H527 C545 0.930 . S
H528 C536 0.930 . S
H529 C537 0.930 . S
H530 C561 0.929 . S
H531 C519 0.930 . S
H532 C520 0.929 . S
H533 C562 0.930 . S
H534 C543 0.930 . S
N535 Gd504 2.661 . S
N535 C539 1.350 . S
N535 C540 1.307 . S
C536 H528 0.930 . S
C536 C537 1.355 . S
C536 C538 1.412 . S
C537 H529 0.930 . S
C537 C536 1.355 . S
C537 C540 1.402 . S
C538 C536 1.412 . S
C538 C539 1.417 . S
C538 C562 1.431 . S
C539 N535 1.350 . S
C539 C538 1.417 . S
C539 C542 1.426 . S
C540 H523 0.930 . S
C540 N535 1.307 . S
C540 C537 1.402 . S
N541 Gd504 2.601 . S
N541 C542 1.359 . S
N541 C545 1.334 . S
C542 C539 1.426 . S
C542 N541 1.359 . S
C542 C546 1.413 . S
C543 H534 0.930 . S
C543 C544 1.359 . S
C543 C545 1.394 . S
C544 C543 1.359 . S
C544 C546 1.391 . S
C544 H547 0.929 . S
C545 H527 0.930 . S
C545 N541 1.334 . S
C545 C543 1.394 . S
C546 C542 1.413 . S
C546 C544 1.391 . S
C546 C561 1.437 . S
H547 C544 0.929 . S
O548 Gd504 2.545 . S
O548 C563 1.258 . S
O549 Gd504 2.606 . S
O549 Gd505 2.362 1_554 S
O549 C560 1.284 . S
O550 Gd505 2.324 . S
O550 C570 1.254 . S
O551 Gd504 2.429 . S
O551 C570 1.268 1_554 S
O552 Gd504 2.545 . S
O552 C560 1.250 . S
O553 Gd504 2.412 . S
O553 C563 1.252 . S
O554 Gd505 2.545 . S
O554 C572 1.258 . S
O555 Gd504 2.362 1_556 S
O555 Gd505 2.606 . S
O555 C571 1.284 . S
O556 Gd504 2.324 . S
O556 C579 1.254 . S
O557 Gd505 2.429 . S
O557 C579 1.268 1_556 S
O558 Gd505 2.545 . S
O558 C571 1.250 . S
O559 Gd505 2.412 . S
O559 C572 1.252 . S
C560 O549 1.284 . S
C560 O552 1.250 . S
C561 H530 0.929 . S
C561 C546 1.437 . S
C561 C562 1.317 . S
C562 H533 0.930 . S
C562 C538 1.431 . S
C562 C561 1.317 . S
C563 Gd504 2.828 . S
C563 O548 1.258 . S
C563 O553 1.252 . S
C563 C564 1.497 . S
C564 C563 1.497 . S
C564 C565 1.395 . S
C564 C566 1.380 . S
C565 C564 1.395 . S
C565 C568 1.398 . S
C565 H580 0.930 . S
C566 C564 1.380 . S
C566 C567 1.391 . S
C566 H581 0.930 . S
C567 C566 1.391 . S
C567 C569 1.387 . S
C568 C565 1.398 . S
C568 C569 1.380 . S
C568 H582 0.930 . S
C569 C567 1.387 . S
C569 C568 1.380 . S
C569 H583 0.930 . S
C570 O550 1.254 . S
C570 O551 1.268 1_556 S
C571 O555 1.284 . S
C571 O558 1.250 . S
C572 Gd505 2.828 . S
C572 O554 1.258 . S
C572 O559 1.252 . S
C572 C573 1.497 . S
C573 C572 1.497 . S
C573 C574 1.395 . S
C573 C575 1.380 . S
C574 C573 1.395 . S
C574 C577 1.398 . S
C574 H584 0.930 . S
C575 C573 1.380 . S
C575 C576 1.391 . S
C575 H585 0.930 . S
C576 C575 1.391 . S
C576 C578 1.387 . S
C577 C574 1.398 . S
C577 C578 1.380 . S
C577 H586 0.930 . S
C578 C576 1.387 . S
C578 C577 1.380 . S
C578 H587 0.930 . S
C579 O556 1.254 . S
C579 O557 1.268 1_554 S
H580 C565 0.930 . S
H581 C566 0.930 . S
H582 C568 0.930 . S
H583 C569 0.930 . S
H584 C574 0.930 . S
H585 C575 0.930 . S
H586 C577 0.930 . S
H587 C578 0.930 . S
Gd588 N619 2.655 1_455 S
Gd588 N625 2.601 1_455 S
Gd588 O632 2.548 . S
Gd588 O633 2.608 . S
Gd588 O635 2.433 . S
Gd588 O636 2.548 . S
Gd588 O637 2.411 1_455 S
Gd588 O639 2.360 1_455 S
Gd588 O640 2.320 1_455 S
Gd588 C647 2.829 . S
Gd589 N598 2.662 1_655 S
Gd589 N602 2.601 1_655 S
Gd589 O633 2.363 1_655 S
Gd589 O634 2.325 1_655 S
Gd589 O638 2.544 . S
Gd589 O639 2.605 . S
Gd589 O641 2.428 . S
Gd589 O642 2.543 . S
Gd589 O643 2.413 1_655 S
Gd589 C656 2.828 . S
C590 C593 1.417 . S
C590 C595 1.431 . S
C590 C596 1.412 . S
C591 C594 1.437 . S
C591 C595 1.317 . S
C591 H610 0.929 . S
C592 C593 1.426 . S
C592 C594 1.413 . S
C592 N602 1.359 . S
C593 C590 1.417 . S
C593 C592 1.426 . S
C593 N598 1.350 . S
C594 C591 1.437 . S
C594 C592 1.413 . S
C594 C604 1.391 . S
C595 C590 1.431 . S
C595 C591 1.317 . S
C595 H606 0.930 . S
C596 C590 1.412 . S
C596 C597 1.355 . S
C596 H608 0.930 . S
C597 C596 1.355 . S
C597 C599 1.402 . S
C597 H609 0.930 . S
N598 Gd589 2.662 1_455 S
N598 C593 1.350 . S
N598 C599 1.307 . S
C599 C597 1.402 . S
C599 N598 1.307 . S
C599 H600 0.930 . S
H600 C599 0.930 . S
C601 N602 1.334 1_655 S
C601 C603 1.394 . S
C601 H605 0.930 . S
N602 Gd589 2.601 1_455 S
N602 C592 1.359 . S
N602 C601 1.334 1_455 S
C603 C601 1.394 . S
C603 C604 1.359 1_655 S
C603 H615 0.930 . S
C604 C594 1.391 . S
C604 C603 1.359 1_455 S
C604 H616 0.930 . S
H605 C601 0.930 . S
H606 C595 0.930 . S
H607 C624 0.930 . S
H608 C596 0.930 . S
H609 C597 0.930 . S
H610 C591 0.929 . S
H611 C629 0.930 . S
H612 C620 0.930 . S
H613 C621 0.930 . S
H614 C645 0.929 . S
H615 C603 0.930 . S
H616 C604 0.930 . S
H617 C646 0.930 . S
H618 C627 0.930 . S
N619 Gd588 2.655 1_655 S
N619 C623 1.350 . S
N619 C624 1.307 . S
C620 H612 0.930 . S
C620 C621 1.355 . S
C620 C622 1.412 . S
C621 H613 0.930 . S
C621 C620 1.355 . S
C621 C624 1.402 . S
C622 C620 1.412 . S
C622 C623 1.417 . S
C622 C646 1.431 . S
C623 N619 1.350 . S
C623 C622 1.417 . S
C623 C626 1.426 . S
C624 H607 0.930 . S
C624 N619 1.307 . S
C624 C621 1.402 . S
N625 Gd588 2.601 1_655 S
N625 C626 1.359 . S
N625 C629 1.334 1_655 S
C626 C623 1.426 . S
C626 N625 1.359 . S
C626 C630 1.413 . S
C627 H618 0.930 . S
C627 C628 1.333 1_455 S
C627 C629 1.394 . S
C628 C627 1.333 1_655 S
C628 C630 1.418 . S
C628 H631 0.929 . S
C629 H611 0.930 . S
C629 N625 1.334 1_455 S
C629 C627 1.394 . S
C630 C626 1.413 . S
C630 C628 1.418 . S
C630 C645 1.437 . S
H631 C628 0.929 . S
O632 Gd588 2.548 . S
O632 C647 1.258 . S
O633 Gd588 2.608 . S
O633 Gd589 2.363 1_455 S
O633 C644 1.284 . S
O634 Gd589 2.325 1_455 S
O634 C654 1.254 . S
O635 Gd588 2.433 . S
O635 C654 1.268 . S
O636 Gd588 2.548 . S
O636 C644 1.250 . S
O637 Gd588 2.411 1_655 S
O637 C647 1.252 1_655 S
O638 Gd589 2.544 . S
O638 C656 1.258 . S
O639 Gd588 2.360 1_655 S
O639 Gd589 2.605 . S
O639 C655 1.284 . S
O640 Gd588 2.320 1_655 S
O640 C663 1.254 . S
O641 Gd589 2.428 . S
O641 C663 1.268 . S
O642 Gd589 2.543 . S
O642 C655 1.250 . S
O643 Gd589 2.413 1_455 S
O643 C656 1.252 1_455 S
C644 O633 1.284 . S
C644 O636 1.250 . S
C645 H614 0.929 . S
C645 C630 1.437 . S
C645 C646 1.317 . S
C646 H617 0.930 . S
C646 C622 1.431 . S
C646 C645 1.317 . S
C647 Gd588 2.829 . S
C647 O632 1.258 . S
C647 O637 1.252 1_455 S
C647 C648 1.497 . S
C648 C647 1.497 . S
C648 C649 1.395 . S
C648 C650 1.380 . S
C649 C648 1.395 . S
C649 C652 1.398 . S
C649 H664 0.930 . S
C650 C648 1.380 . S
C650 C651 1.391 . S
C650 H665 0.930 1_455 S
C651 C650 1.391 . S
C651 C653 1.387 . S
C652 C649 1.398 . S
C652 C653 1.380 . S
C652 H666 0.930 . S
C653 C651 1.387 . S
C653 C652 1.380 . S
C653 H667 0.930 . S
C654 O634 1.254 . S
C654 O635 1.268 . S
C655 O639 1.284 . S
C655 O642 1.250 . S
C656 Gd589 2.828 . S
C656 O638 1.258 . S
C656 O643 1.252 1_655 S
C656 C657 1.497 . S
C657 C656 1.497 . S
C657 C658 1.395 . S
C657 C659 1.380 . S
C658 C657 1.395 . S
C658 C661 1.398 . S
C658 H668 0.930 . S
C659 C657 1.380 . S
C659 C660 1.391 . S
C659 H669 0.930 1_655 S
C660 C659 1.391 . S
C660 C662 1.387 . S
C661 C658 1.398 . S
C661 C662 1.380 . S
C661 H670 0.930 . S
C662 C660 1.387 . S
C662 C661 1.380 . S
C662 H671 0.930 . S
C663 O640 1.254 . S
C663 O641 1.268 . S
H664 C649 0.930 . S
H665 C650 0.930 1_655 S
H666 C652 0.930 . S
H667 C653 0.930 . S
H668 C658 0.930 . S
H669 C659 0.930 1_455 S
H670 C661 0.930 . S
H671 C662 0.930 . S
H672 C678 0.930 . S
H673 C682 0.930 . S
H674 C687 0.929 . S
H675 C685 0.929 . S
H676 C680 0.929 . S
H677 C686 0.929 . S
C678 H672 0.930 . S
C678 C679 1.367 . S
C678 C686 1.378 . S
C679 C678 1.367 . S
C679 C687 1.433 . S
C680 H676 0.929 . S
C680 C682 1.378 . S
C680 C684 1.350 . S
C681 C684 1.463 . S
C681 C686 1.350 . S
C681 N689 1.427 . S
C682 H673 0.930 . S
C682 C680 1.378 . S
C682 C683 1.367 . S
C683 C682 1.367 . S
C683 C685 1.433 . S
C684 C680 1.350 . S
C684 C681 1.463 . S
C684 N688 1.427 . S
C685 H675 0.929 . S
C685 C683 1.433 . S
C685 N688 1.384 . S
C686 H677 0.929 . S
C686 C678 1.378 . S
C686 C681 1.350 . S
C687 H674 0.929 . S
C687 C679 1.433 . S
C687 N689 1.384 . S
N688 C684 1.427 . S
N688 C685 1.384 . S
N689 C681 1.427 . S
N689 C687 1.384 . S
H690 C696 0.930 . S
H691 C700 0.930 . S
H692 C705 0.929 . S
H693 C703 0.929 . S
H694 C698 0.929 . S
H695 C704 0.929 . S
C696 H690 0.930 . S
C696 C697 1.367 . S
C696 C704 1.378 . S
C697 C696 1.367 . S
C697 C705 1.433 . S
C698 H694 0.929 . S
C698 C700 1.378 . S
C698 C702 1.350 . S
C699 C702 1.463 . S
C699 C704 1.350 . S
C699 N707 1.427 . S
C700 H691 0.930 . S
C700 C698 1.378 . S
C700 C701 1.367 . S
C701 C700 1.367 . S
C701 C703 1.433 . S
C702 C698 1.350 . S
C702 C699 1.463 . S
C702 N706 1.427 . S
C703 H693 0.929 . S
C703 C701 1.433 . S
C703 N706 1.384 . S
C704 H695 0.929 . S
C704 C696 1.378 . S
C704 C699 1.350 . S
C705 H692 0.929 . S
C705 C697 1.433 . S
C705 N707 1.384 . S
N706 C702 1.427 . S
N706 C703 1.384 . S
N707 C699 1.427 . S
N707 C705 1.384 . S
H708 C714 0.930 . S
H709 C718 0.930 . S
H710 C723 0.929 . S
H711 C721 0.929 . S
H712 C716 0.929 . S
H713 C722 0.929 . S
C714 H708 0.930 . S
C714 C715 1.367 . S
C714 C722 1.378 . S
C715 C714 1.367 . S
C715 C723 1.433 . S
C716 H712 0.929 . S
C716 C718 1.378 . S
C716 C720 1.350 . S
C717 C720 1.463 . S
C717 C722 1.350 . S
C717 N725 1.427 . S
C718 H709 0.930 . S
C718 C716 1.378 . S
C718 C719 1.367 . S
C719 C718 1.367 . S
C719 C721 1.433 . S
C720 C716 1.350 . S
C720 C717 1.463 . S
C720 N724 1.427 . S
C721 H711 0.929 . S
C721 C719 1.433 . S
C721 N724 1.384 . S
C722 H713 0.929 . S
C722 C714 1.378 . S
C722 C717 1.350 . S
C723 H710 0.929 . S
C723 C715 1.433 . S
C723 N725 1.384 . S
N724 C720 1.427 . S
N724 C721 1.384 . S
N725 C717 1.427 . S
N725 C723 1.384 . S
H726 C732 0.930 . S
H727 C736 0.930 . S
H728 C741 0.929 . S
H729 C739 0.929 . S
H730 C734 0.929 . S
H731 C740 0.929 . S
C732 H726 0.930 . S
C732 C733 1.367 . S
C732 C740 1.378 . S
C733 C732 1.367 . S
C733 C741 1.433 . S
C734 H730 0.929 . S
C734 C736 1.378 . S
C734 C738 1.350 . S
C735 C738 1.463 . S
C735 C740 1.350 . S
C735 N743 1.427 . S
C736 H727 0.930 . S
C736 C734 1.378 . S
C736 C737 1.367 . S
C737 C736 1.367 . S
C737 C739 1.433 . S
C738 C734 1.350 . S
C738 C735 1.463 . S
C738 N742 1.427 . S
C739 H729 0.929 . S
C739 C737 1.433 . S
C739 N742 1.384 . S
C740 H731 0.929 . S
C740 C732 1.378 . S
C740 C735 1.350 . S
C741 H728 0.929 . S
C741 C733 1.433 . S
C741 N743 1.384 . S
N742 C738 1.427 . S
N742 C739 1.384 . S
N743 C735 1.427 . S
N743 C741 1.384 . S
H744 C750 0.930 . S
H745 C754 0.930 . S
H746 C759 0.929 . S
H747 C757 0.929 . S
H748 C752 0.929 . S
H749 C758 0.929 . S
C750 H744 0.930 . S
C750 C751 1.367 . S
C750 C758 1.378 . S
C751 C750 1.367 . S
C751 C759 1.433 . S
C752 H748 0.929 . S
C752 C754 1.378 . S
C752 C756 1.350 . S
C753 C756 1.463 . S
C753 C758 1.350 . S
C753 N761 1.427 . S
C754 H745 0.930 . S
C754 C752 1.378 . S
C754 C755 1.367 . S
C755 C754 1.367 . S
C755 C757 1.433 . S
C756 C752 1.350 . S
C756 C753 1.463 . S
C756 N760 1.427 . S
C757 H747 0.929 . S
C757 C755 1.433 . S
C757 N760 1.384 . S
C758 H749 0.929 . S
C758 C750 1.378 . S
C758 C753 1.350 . S
C759 H746 0.929 . S
C759 C751 1.433 . S
C759 N761 1.384 . S
N760 C756 1.427 . S
N760 C757 1.384 . S
N761 C753 1.427 . S
N761 C759 1.384 . S
H762 C768 0.930 . S
H763 C772 0.930 . S
H764 C777 0.929 . S
H765 C775 0.929 . S
H766 C770 0.929 . S
H767 C776 0.929 . S
C768 H762 0.930 . S
C768 C769 1.367 . S
C768 C776 1.378 . S
C769 C768 1.367 . S
C769 C777 1.433 . S
C770 H766 0.929 . S
C770 C772 1.378 . S
C770 C774 1.350 . S
C771 C774 1.463 . S
C771 C776 1.350 . S
C771 N779 1.427 . S
C772 H763 0.930 . S
C772 C770 1.378 . S
C772 C773 1.367 . S
C773 C772 1.367 . S
C773 C775 1.433 . S
C774 C770 1.350 . S
C774 C771 1.463 . S
C774 N778 1.427 . S
C775 H765 0.929 . S
C775 C773 1.433 . S
C775 N778 1.384 . S
C776 H767 0.929 . S
C776 C768 1.378 . S
C776 C771 1.350 . S
C777 H764 0.929 . S
C777 C769 1.433 . S
C777 N779 1.384 . S
N778 C774 1.427 . S
N778 C775 1.384 . S
N779 C771 1.427 . S
N779 C777 1.384 . S
H780 C786 0.930 . S
H781 C790 0.930 . S
H782 C795 0.929 . S
H783 C793 0.929 . S
H784 C788 0.929 . S
H785 C794 0.929 . S
C786 H780 0.930 . S
C786 C787 1.367 . S
C786 C794 1.378 . S
C787 C786 1.367 . S
C787 C795 1.433 . S
C788 H784 0.929 . S
C788 C790 1.378 . S
C788 C792 1.350 . S
C789 C792 1.463 . S
C789 C794 1.350 . S
C789 N797 1.427 . S
C790 H781 0.930 . S
C790 C788 1.378 . S
C790 C791 1.367 . S
C791 C790 1.367 . S
C791 C793 1.433 . S
C792 C788 1.350 . S
C792 C789 1.463 . S
C792 N796 1.427 . S
C793 H783 0.929 . S
C793 C791 1.433 . S
C793 N796 1.384 . S
C794 H785 0.929 . S
C794 C786 1.378 . S
C794 C789 1.350 . S
C795 H782 0.929 . S
C795 C787 1.433 . S
C795 N797 1.384 . S
N796 C792 1.427 . S
N796 C793 1.384 . S
N797 C789 1.427 . S
N797 C795 1.384 . S
H798 C804 0.930 . S
H799 C808 0.930 . S
H800 C813 0.929 . S
H801 C811 0.929 . S
H802 C806 0.929 . S
H803 C812 0.929 . S
C804 H798 0.930 . S
C804 C805 1.367 . S
C804 C812 1.378 . S
C805 C804 1.367 . S
C805 C813 1.433 . S
C806 H802 0.929 . S
C806 C808 1.378 . S
C806 C810 1.350 . S
C807 C810 1.463 . S
C807 C812 1.350 . S
C807 N815 1.427 . S
C808 H799 0.930 . S
C808 C806 1.378 . S
C808 C809 1.367 . S
C809 C808 1.367 . S
C809 C811 1.433 . S
C810 C806 1.350 . S
C810 C807 1.463 . S
C810 N814 1.427 . S
C811 H801 0.929 . S
C811 C809 1.433 . S
C811 N814 1.384 . S
C812 H803 0.929 . S
C812 C804 1.378 . S
C812 C807 1.350 . S
C813 H800 0.929 . S
C813 C805 1.433 . S
C813 N815 1.384 . S
N814 C810 1.427 . S
N814 C811 1.384 . S
N815 C807 1.427 . S
N815 C813 1.384 . S
H816 C822 0.930 . S
H817 C826 0.930 . S
H818 C831 0.929 . S
H819 C829 0.929 . S
H820 C824 0.929 . S
H821 C830 0.929 . S
C822 H816 0.930 . S
C822 C823 1.367 . S
C822 C830 1.378 . S
C823 C822 1.367 . S
C823 C831 1.433 . S
C824 H820 0.929 . S
C824 C826 1.378 . S
C824 C828 1.350 . S
C825 C828 1.463 . S
C825 C830 1.350 . S
C825 N833 1.427 . S
C826 H817 0.930 . S
C826 C824 1.378 . S
C826 C827 1.367 . S
C827 C826 1.367 . S
C827 C829 1.433 . S
C828 C824 1.350 . S
C828 C825 1.463 . S
C828 N832 1.427 . S
C829 H819 0.929 . S
C829 C827 1.433 . S
C829 N832 1.384 . S
C830 H821 0.929 . S
C830 C822 1.378 . S
C830 C825 1.350 . S
C831 H818 0.929 . S
C831 C823 1.433 . S
C831 N833 1.384 . S
N832 C828 1.427 . S
N832 C829 1.384 . S
N833 C825 1.427 . S
N833 C831 1.384 . S
H834 C840 0.930 . S
H835 C844 0.930 . S
H836 C849 0.929 . S
H837 C847 0.929 . S
H838 C842 0.929 . S
H839 C848 0.929 . S
C840 H834 0.930 . S
C840 C841 1.367 . S
C840 C848 1.378 . S
C841 C840 1.367 . S
C841 C849 1.433 . S
C842 H838 0.929 . S
C842 C844 1.378 . S
C842 C846 1.350 . S
C843 C846 1.463 . S
C843 C848 1.350 . S
C843 N851 1.427 . S
C844 H835 0.930 . S
C844 C842 1.378 . S
C844 C845 1.367 . S
C845 C844 1.367 . S
C845 C847 1.433 . S
C846 C842 1.350 . S
C846 C843 1.463 . S
C846 N850 1.427 . S
C847 H837 0.929 . S
C847 C845 1.433 . S
C847 N850 1.384 . S
C848 H839 0.929 . S
C848 C840 1.378 . S
C848 C843 1.350 . S
C849 H836 0.929 . S
C849 C841 1.433 . S
C849 N851 1.384 . S
N850 C846 1.427 . S
N850 C847 1.384 . S
N851 C843 1.427 . S
N851 C849 1.384 . S
H852 C858 0.930 . S
H853 C862 0.930 . S
H854 C867 0.929 . S
H855 C865 0.929 . S
H856 C860 0.929 . S
H857 C866 0.929 . S
C858 H852 0.930 . S
C858 C859 1.367 . S
C858 C866 1.378 . S
C859 C858 1.367 . S
C859 C867 1.433 . S
C860 H856 0.929 . S
C860 C862 1.378 . S
C860 C864 1.350 . S
C861 C864 1.463 . S
C861 C866 1.350 . S
C861 N869 1.427 . S
C862 H853 0.930 . S
C862 C860 1.378 . S
C862 C863 1.367 . S
C863 C862 1.367 . S
C863 C865 1.433 . S
C864 C860 1.350 . S
C864 C861 1.463 . S
C864 N868 1.427 . S
C865 H855 0.929 . S
C865 C863 1.433 . S
C865 N868 1.384 . S
C866 H857 0.929 . S
C866 C858 1.378 . S
C866 C861 1.350 . S
C867 H854 0.929 . S
C867 C859 1.433 . S
C867 N869 1.384 . S
N868 C864 1.427 . S
N868 C865 1.384 . S
N869 C861 1.427 . S
N869 C867 1.384 . S
H870 C876 0.930 . S
H871 C880 0.930 . S
H872 C885 0.929 . S
H873 C883 0.929 . S
H874 C878 0.929 . S
H875 C884 0.929 . S
C876 H870 0.930 . S
C876 C877 1.367 . S
C876 C884 1.378 . S
C877 C876 1.367 . S
C877 C885 1.433 . S
C878 H874 0.929 . S
C878 C880 1.378 . S
C878 C882 1.350 . S
C879 C882 1.463 . S
C879 C884 1.350 . S
C879 N887 1.427 . S
C880 H871 0.930 . S
C880 C878 1.378 . S
C880 C881 1.367 . S
C881 C880 1.367 . S
C881 C883 1.433 . S
C882 C878 1.350 . S
C882 C879 1.463 . S
C882 N886 1.427 . S
C883 H873 0.929 . S
C883 C881 1.433 . S
C883 N886 1.384 . S
C884 H875 0.929 . S
C884 C876 1.378 . S
C884 C879 1.350 . S
C885 H872 0.929 . S
C885 C877 1.433 . S
C885 N887 1.384 . S
N886 C882 1.427 . S
N886 C883 1.384 . S
N887 C879 1.427 . S
N887 C885 1.384 . S
H888 C894 0.930 . S
H889 C898 0.930 . S
H890 C903 0.929 . S
H891 C901 0.929 . S
H892 C896 0.929 . S
H893 C902 0.929 . S
C894 H888 0.930 . S
C894 C895 1.367 . S
C894 C902 1.378 . S
C895 C894 1.367 . S
C895 C903 1.433 . S
C896 H892 0.929 . S
C896 C898 1.378 . S
C896 C900 1.350 . S
C897 C900 1.463 . S
C897 C902 1.350 . S
C897 N905 1.427 . S
C898 H889 0.930 . S
C898 C896 1.378 . S
C898 C899 1.367 . S
C899 C898 1.367 . S
C899 C901 1.433 . S
C900 C896 1.350 . S
C900 C897 1.463 . S
C900 N904 1.427 . S
C901 H891 0.929 . S
C901 C899 1.433 . S
C901 N904 1.384 . S
C902 H893 0.929 . S
C902 C894 1.378 . S
C902 C897 1.350 . S
C903 H890 0.929 . S
C903 C895 1.433 . S
C903 N905 1.384 . S
N904 C900 1.427 . S
N904 C901 1.384 . S
N905 C897 1.427 . S
N905 C903 1.384 . S
H906 C912 0.930 . S
H907 C916 0.930 . S
H908 C921 0.929 . S
H909 C919 0.929 . S
H910 C914 0.929 . S
H911 C920 0.929 . S
C912 H906 0.930 . S
C912 C913 1.367 . S
C912 C920 1.378 . S
C913 C912 1.367 . S
C913 C921 1.433 . S
C914 H910 0.929 . S
C914 C916 1.378 . S
C914 C918 1.350 . S
C915 C918 1.463 . S
C915 C920 1.350 . S
C915 N923 1.427 . S
C916 H907 0.930 . S
C916 C914 1.378 . S
C916 C917 1.367 . S
C917 C916 1.367 . S
C917 C919 1.433 . S
C918 C914 1.350 . S
C918 C915 1.463 . S
C918 N922 1.427 . S
C919 H909 0.929 . S
C919 C917 1.433 . S
C919 N922 1.384 . S
C920 H911 0.929 . S
C920 C912 1.378 . S
C920 C915 1.350 . S
C921 H908 0.929 . S
C921 C913 1.433 . S
C921 N923 1.384 . S
N922 C918 1.427 . S
N922 C919 1.384 . S
N923 C915 1.427 . S
N923 C921 1.384 . S
H924 C930 0.930 . S
H925 C934 0.930 . S
H926 C939 0.929 . S
H927 C937 0.929 . S
H928 C932 0.929 . S
H929 C938 0.929 . S
C930 H924 0.930 . S
C930 C931 1.367 . S
C930 C938 1.378 . S
C931 C930 1.367 . S
C931 C939 1.433 . S
C932 H928 0.929 . S
C932 C934 1.378 . S
C932 C936 1.350 . S
C933 C936 1.463 . S
C933 C938 1.350 . S
C933 N941 1.427 . S
C934 H925 0.930 . S
C934 C932 1.378 . S
C934 C935 1.367 . S
C935 C934 1.367 . S
C935 C937 1.433 . S
C936 C932 1.350 . S
C936 C933 1.463 . S
C936 N940 1.427 . S
C937 H927 0.929 . S
C937 C935 1.433 . S
C937 N940 1.384 . S
C938 H929 0.929 . S
C938 C930 1.378 . S
C938 C933 1.350 . S
C939 H926 0.929 . S
C939 C931 1.433 . S
C939 N941 1.384 . S
N940 C936 1.427 . S
N940 C937 1.384 . S
N941 C933 1.427 . S
N941 C939 1.384 . S
H942 C948 0.930 . S
H943 C952 0.930 . S
H944 C957 0.929 . S
H945 C955 0.929 . S
H946 C950 0.929 . S
H947 C956 0.929 . S
C948 H942 0.930 . S
C948 C949 1.367 . S
C948 C956 1.378 . S
C949 C948 1.367 . S
C949 C957 1.433 . S
C950 H946 0.929 . S
C950 C952 1.378 . S
C950 C954 1.350 . S
C951 C954 1.463 . S
C951 C956 1.350 . S
C951 N959 1.427 . S
C952 H943 0.930 . S
C952 C950 1.378 . S
C952 C953 1.367 . S
C953 C952 1.367 . S
C953 C955 1.433 . S
C954 C950 1.350 . S
C954 C951 1.463 . S
C954 N958 1.427 . S
C955 H945 0.929 . S
C955 C953 1.433 . S
C955 N958 1.384 . S
C956 H947 0.929 . S
C956 C948 1.378 . S
C956 C951 1.350 . S
C957 H944 0.929 . S
C957 C949 1.433 . S
C957 N959 1.384 . S
N958 C954 1.427 . S
N958 C955 1.384 . S
N959 C951 1.427 . S
N959 C957 1.384 . S
H960 C966 0.930 . S
H961 C970 0.930 . S
H962 C975 0.929 . S
H963 C973 0.929 . S
H964 C968 0.929 . S
H965 C974 0.929 . S
C966 H960 0.930 . S
C966 C967 1.367 1_545 S
C966 C974 1.378 . S
C967 C966 1.367 1_565 S
C967 C975 1.433 1_655 S
C968 H964 0.929 . S
C968 C970 1.378 . S
C968 C972 1.357 . S
C969 C972 1.462 1_646 S
C969 C974 1.362 . S
C969 N977 1.415 1_645 S
C970 H961 0.930 . S
C970 C968 1.378 . S
C970 C971 1.367 1_565 S
C971 C970 1.367 1_545 S
C971 C973 1.433 1_455 S
C972 C968 1.357 . S
C972 C969 1.462 1_464 S
C972 N976 1.420 1_465 S
C973 H963 0.929 . S
C973 C971 1.433 1_655 S
C973 N976 1.384 . S
C974 H965 0.929 . S
C974 C966 1.378 . S
C974 C969 1.362 . S
C975 H962 0.929 . S
C975 C967 1.433 1_455 S
C975 N977 1.384 . S
N976 C972 1.420 1_645 S
N976 C973 1.384 . S
N977 C969 1.415 1_465 S
N977 C975 1.384 . S
H978 C984 0.930 . S
H979 C988 0.930 . S
H980 C993 0.929 . S
H981 C991 0.929 . S
H982 C986 0.929 . S
H983 C992 0.929 . S
C984 H978 0.930 . S
C984 C985 1.367 . S
C984 C992 1.378 . S
C985 C984 1.367 . S
C985 C993 1.433 . S
C986 H982 0.929 . S
C986 C988 1.378 . S
C986 C990 1.350 . S
C987 C990 1.463 . S
C987 C992 1.350 . S
C987 N995 1.427 . S
C988 H979 0.930 . S
C988 C986 1.378 . S
C988 C989 1.367 . S
C989 C988 1.367 . S
C989 C991 1.433 . S
C990 C986 1.350 . S
C990 C987 1.463 . S
C990 N994 1.427 . S
C991 H981 0.929 . S
C991 C989 1.433 . S
C991 N994 1.384 . S
C992 H983 0.929 . S
C992 C984 1.378 . S
C992 C987 1.350 . S
C993 H980 0.929 . S
C993 C985 1.433 . S
C993 N995 1.384 . S
N994 C990 1.427 . S
N994 C991 1.384 . S
N995 C987 1.427 . S
N995 C993 1.384 . S
H996 C1002 0.930 . S
H997 C1006 0.930 . S
H998 C1011 0.929 . S
H999 C1009 0.929 . S
H1000 C1004 0.929 . S
H1001 C1010 0.929 . S
C1002 H996 0.930 . S
C1002 C1003 1.367 . S
C1002 C1010 1.378 . S
C1003 C1002 1.367 . S
C1003 C1011 1.433 1_565 S
C1004 H1000 0.929 . S
C1004 C1006 1.378 . S
C1004 C1008 1.350 . S
C1005 C1008 1.463 1_565 S
C1005 C1010 1.350 . S
C1005 N1013 1.427 1_565 S
C1006 H997 0.930 . S
C1006 C1004 1.378 . S
C1006 C1007 1.367 . S
C1007 C1006 1.367 . S
C1007 C1009 1.433 1_545 S
C1008 C1004 1.350 . S
C1008 C1005 1.463 1_545 S
C1008 N1012 1.427 1_545 S
C1009 H999 0.929 . S
C1009 C1007 1.433 1_565 S
C1009 N1012 1.384 . S
C1010 H1001 0.929 . S
C1010 C1002 1.378 . S
C1010 C1005 1.350 . S
C1011 H998 0.929 . S
C1011 C1003 1.433 1_545 S
C1011 N1013 1.384 . S
N1012 C1008 1.427 1_565 S
N1012 C1009 1.384 . S
N1013 C1005 1.427 1_545 S
N1013 C1011 1.384 . S
H1014 C1020 0.930 . S
H1015 C1024 0.930 . S
H1016 C1029 0.929 . S
H1017 C1027 0.929 . S
H1018 C1022 0.929 . S
H1019 C1028 0.929 . S
C1020 H1014 0.930 . S
C1020 C1021 1.367 . S
C1020 C1028 1.378 . S
C1021 C1020 1.367 . S
C1021 C1029 1.433 . S
C1022 H1018 0.929 . S
C1022 C1024 1.378 . S
C1022 C1026 1.350 . S
C1023 C1026 1.463 . S
C1023 C1028 1.350 . S
C1023 N1031 1.427 . S
C1024 H1015 0.930 . S
C1024 C1022 1.378 . S
C1024 C1025 1.367 . S
C1025 C1024 1.367 . S
C1025 C1027 1.433 . S
C1026 C1022 1.350 . S
C1026 C1023 1.463 . S
C1026 N1030 1.427 . S
C1027 H1017 0.929 . S
C1027 C1025 1.433 . S
C1027 N1030 1.384 . S
C1028 H1019 0.929 . S
C1028 C1020 1.378 . S
C1028 C1023 1.350 . S
C1029 H1016 0.929 . S
C1029 C1021 1.433 . S
C1029 N1031 1.384 . S
N1030 C1026 1.427 . S
N1030 C1027 1.384 . S
N1031 C1023 1.427 . S
N1031 C1029 1.384 . S
H1032 C1038 0.930 . S
H1033 C1042 0.930 . S
H1034 C1047 0.929 . S
H1035 C1045 0.929 . S
H1036 C1040 0.929 . S
H1037 C1046 0.929 . S
C1038 H1032 0.930 . S
C1038 C1039 1.367 . S
C1038 C1046 1.378 . S
C1039 C1038 1.367 . S
C1039 C1047 1.433 . S
C1040 H1036 0.929 . S
C1040 C1042 1.378 . S
C1040 C1044 1.350 . S
C1041 C1044 1.463 . S
C1041 C1046 1.350 . S
C1041 N1049 1.427 . S
C1042 H1033 0.930 . S
C1042 C1040 1.378 . S
C1042 C1043 1.367 . S
C1043 C1042 1.367 . S
C1043 C1045 1.433 . S
C1044 C1040 1.350 . S
C1044 C1041 1.463 . S
C1044 N1048 1.427 . S
C1045 H1035 0.929 . S
C1045 C1043 1.433 . S
C1045 N1048 1.384 . S
C1046 H1037 0.929 . S
C1046 C1038 1.378 . S
C1046 C1041 1.350 . S
C1047 H1034 0.929 . S
C1047 C1039 1.433 . S
C1047 N1049 1.384 . S
N1048 C1044 1.427 . S
N1048 C1045 1.384 . S
N1049 C1041 1.427 . S
N1049 C1047 1.384 . S
H1050 C1056 0.930 . S
H1051 C1060 0.930 . S
H1052 C1065 0.929 . S
H1053 C1063 0.929 . S
H1054 C1058 0.929 . S
H1055 C1064 0.929 . S
C1056 H1050 0.930 . S
C1056 C1057 1.367 . S
C1056 C1064 1.378 . S
C1057 C1056 1.367 . S
C1057 C1065 1.433 . S
C1058 H1054 0.929 . S
C1058 C1060 1.378 . S
C1058 C1062 1.350 . S
C1059 C1062 1.463 . S
C1059 C1064 1.350 . S
C1059 N1067 1.427 . S
C1060 H1051 0.930 . S
C1060 C1058 1.378 . S
C1060 C1061 1.367 . S
C1061 C1060 1.367 . S
C1061 C1063 1.433 . S
C1062 C1058 1.350 . S
C1062 C1059 1.463 . S
C1062 N1066 1.427 . S
C1063 H1053 0.929 . S
C1063 C1061 1.433 . S
C1063 N1066 1.384 . S
C1064 H1055 0.929 . S
C1064 C1056 1.378 . S
C1064 C1059 1.350 . S
C1065 H1052 0.929 . S
C1065 C1057 1.433 . S
C1065 N1067 1.384 . S
N1066 C1062 1.427 . S
N1066 C1063 1.384 . S
N1067 C1059 1.427 . S
N1067 C1065 1.384 . S
H1068 C1074 0.930 . S
H1069 C1078 0.930 . S
H1070 C1083 0.929 . S
H1071 C1081 0.929 . S
H1072 C1076 0.929 . S
H1073 C1082 0.929 . S
C1074 H1068 0.930 . S
C1074 C1075 1.367 . S
C1074 C1082 1.378 . S
C1075 C1074 1.367 . S
C1075 C1083 1.433 . S
C1076 H1072 0.929 . S
C1076 C1078 1.378 . S
C1076 C1080 1.350 . S
C1077 C1080 1.463 . S
C1077 C1082 1.350 . S
C1077 N1085 1.427 . S
C1078 H1069 0.930 . S
C1078 C1076 1.378 . S
C1078 C1079 1.367 . S
C1079 C1078 1.367 . S
C1079 C1081 1.433 . S
C1080 C1076 1.350 . S
C1080 C1077 1.463 . S
C1080 N1084 1.427 . S
C1081 H1071 0.929 . S
C1081 C1079 1.433 . S
C1081 N1084 1.384 . S
C1082 H1073 0.929 . S
C1082 C1074 1.378 . S
C1082 C1077 1.350 . S
C1083 H1070 0.929 . S
C1083 C1075 1.433 . S
C1083 N1085 1.384 . S
N1084 C1080 1.427 . S
N1084 C1081 1.384 . S
N1085 C1077 1.427 . S
N1085 C1083 1.384 . S
H1086 C1092 0.930 . S
H1087 C1096 0.930 . S
H1088 C1101 0.929 . S
H1089 C1099 0.929 . S
H1090 C1094 0.929 . S
H1091 C1100 0.929 . S
C1092 H1086 0.930 . S
C1092 C1093 1.367 . S
C1092 C1100 1.378 . S
C1093 C1092 1.367 . S
C1093 C1101 1.433 1_655 S
C1094 H1090 0.929 . S
C1094 C1096 1.378 . S
C1094 C1098 1.350 . S
C1095 C1098 1.463 1_656 S
C1095 C1100 1.350 . S
C1095 N1103 1.427 1_655 S
C1096 H1087 0.930 . S
C1096 C1094 1.378 . S
C1096 C1097 1.367 . S
C1097 C1096 1.367 . S
C1097 C1099 1.433 1_455 S
C1098 C1094 1.350 . S
C1098 C1095 1.463 1_454 S
C1098 N1102 1.427 1_455 S
C1099 H1089 0.929 . S
C1099 C1097 1.433 1_655 S
C1099 N1102 1.384 . S
C1100 H1091 0.929 . S
C1100 C1092 1.378 . S
C1100 C1095 1.350 . S
C1101 H1088 0.929 . S
C1101 C1093 1.433 1_455 S
C1101 N1103 1.384 . S
N1102 C1098 1.427 1_655 S
N1102 C1099 1.384 . S
N1103 C1095 1.427 1_455 S
N1103 C1101 1.384 . S
C679 C67 1.597 . S
C683 C319 1.593 . S
C697 C75 1.469 . S
C701 C151 1.446 . S
C715 C159 1.318 . S
C719 C243 1.330 . S
C733 C235 1.450 . S
C737 C327 1.466 . S
C751 C56 1.586 . S
C755 C476 1.592 . S
C769 C66 1.467 . S
C773 C392 1.449 . S
C787 C402 1.331 . S
C791 C234 1.321 . S
C805 C486 1.467 . S
C809 C224 1.456 . S
C823 C571 1.595 . S
C827 C487 1.599 . S
C841 C403 1.447 . S
C845 C579 1.470 . S
C859 C663 1.318 . S
C863 C411 1.328 . S
C877 C495 1.466 . S
C881 C655 1.456 . S
C895 C308 1.586 . S
C899 C560 1.593 . S
C913 C570 1.470 . S
C917 C140 1.449 . S
C931 C150 1.320 . S
C935 C654 1.319 . S
C949 C318 1.465 . S
C953 C644 1.450 . S
C967 C63 1.405 1_565 S
C971 C72 1.405 1_545 S
C985 C156 1.418 . S
C989 C147 1.418 . S
C1003 C231 1.423 1_565 S
C1007 C240 1.423 1_545 S
C1021 C315 1.418 . S
C1025 C324 1.418 . S
C1039 C408 1.401 . S
C1043 C399 1.401 . S
C1057 C483 1.424 . S
C1061 C492 1.424 . S
C1075 C576 1.406 . S
C1079 C567 1.406 . S
C1093 C660 1.419 . S
C1097 C651 1.419 . S
